# Generated by pormake.
# Topology gar, (4,6)-cn, num edge types: 1
# Building blocks:
#     Node 0, Type 0, BuildingBlock: QUQFOY_clean_sbu_1, # of connection points: 4
#     Node 1, Type 0, BuildingBlock: QUQFOY_clean_sbu_1, # of connection points: 4
#     Node 2, Type 0, BuildingBlock: QUQFOY_clean_sbu_1, # of connection points: 4
#     Node 3, Type 0, BuildingBlock: QUQFOY_clean_sbu_1, # of connection points: 4
#     Node 4, Type 0, BuildingBlock: QUQFOY_clean_sbu_1, # of connection points: 4
#     Node 5, Type 0, BuildingBlock: QUQFOY_clean_sbu_1, # of connection points: 4
#     Node 6, Type 0, BuildingBlock: QUQFOY_clean_sbu_1, # of connection points: 4
#     Node 7, Type 0, BuildingBlock: QUQFOY_clean_sbu_1, # of connection points: 4
#     Node 8, Type 0, BuildingBlock: QUQFOY_clean_sbu_1, # of connection points: 4
#     Node 9, Type 0, BuildingBlock: QUQFOY_clean_sbu_1, # of connection points: 4
#     Node 10, Type 0, BuildingBlock: QUQFOY_clean_sbu_1, # of connection points: 4
#     Node 11, Type 0, BuildingBlock: QUQFOY_clean_sbu_1, # of connection points: 4
#     Node 12, Type 0, BuildingBlock: QUQFOY_clean_sbu_1, # of connection points: 4
#     Node 13, Type 0, BuildingBlock: QUQFOY_clean_sbu_1, # of connection points: 4
#     Node 14, Type 0, BuildingBlock: QUQFOY_clean_sbu_1, # of connection points: 4
#     Node 15, Type 0, BuildingBlock: QUQFOY_clean_sbu_1, # of connection points: 4
#     Node 16, Type 0, BuildingBlock: QUQFOY_clean_sbu_1, # of connection points: 4
#     Node 17, Type 0, BuildingBlock: QUQFOY_clean_sbu_1, # of connection points: 4
#     Node 18, Type 0, BuildingBlock: QUQFOY_clean_sbu_1, # of connection points: 4
#     Node 19, Type 0, BuildingBlock: QUQFOY_clean_sbu_1, # of connection points: 4
#     Node 20, Type 0, BuildingBlock: QUQFOY_clean_sbu_1, # of connection points: 4
#     Node 21, Type 0, BuildingBlock: QUQFOY_clean_sbu_1, # of connection points: 4
#     Node 22, Type 0, BuildingBlock: QUQFOY_clean_sbu_1, # of connection points: 4
#     Node 23, Type 0, BuildingBlock: QUQFOY_clean_sbu_1, # of connection points: 4
#     Node 24, Type 1, BuildingBlock: HISSIN_clean_sbu_0, # of connection points: 6
#     Node 25, Type 1, BuildingBlock: HISSIN_clean_sbu_0, # of connection points: 6
#     Node 26, Type 1, BuildingBlock: HISSIN_clean_sbu_0, # of connection points: 6
#     Node 27, Type 1, BuildingBlock: HISSIN_clean_sbu_0, # of connection points: 6
#     Node 28, Type 1, BuildingBlock: HISSIN_clean_sbu_0, # of connection points: 6
#     Node 29, Type 1, BuildingBlock: HISSIN_clean_sbu_0, # of connection points: 6
#     Node 30, Type 1, BuildingBlock: HISSIN_clean_sbu_0, # of connection points: 6
#     Node 31, Type 1, BuildingBlock: HISSIN_clean_sbu_0, # of connection points: 6
#     Node 32, Type 1, BuildingBlock: HISSIN_clean_sbu_0, # of connection points: 6
#     Node 33, Type 1, BuildingBlock: HISSIN_clean_sbu_0, # of connection points: 6
#     Node 34, Type 1, BuildingBlock: HISSIN_clean_sbu_0, # of connection points: 6
#     Node 35, Type 1, BuildingBlock: HISSIN_clean_sbu_0, # of connection points: 6
#     Node 36, Type 1, BuildingBlock: HISSIN_clean_sbu_0, # of connection points: 6
#     Node 37, Type 1, BuildingBlock: HISSIN_clean_sbu_0, # of connection points: 6
#     Node 38, Type 1, BuildingBlock: HISSIN_clean_sbu_0, # of connection points: 6
#     Node 39, Type 1, BuildingBlock: HISSIN_clean_sbu_0, # of connection points: 6
#     Edge 40, Type (0, 1), BuildingBlock: KIFKEQ_clean_linker_1, # of connection points: 2
#     Edge 41, Type (0, 1), BuildingBlock: KIFKEQ_clean_linker_1, # of connection points: 2
#     Edge 42, Type (0, 1), BuildingBlock: KIFKEQ_clean_linker_1, # of connection points: 2
#     Edge 43, Type (0, 1), BuildingBlock: KIFKEQ_clean_linker_1, # of connection points: 2
#     Edge 44, Type (0, 1), BuildingBlock: KIFKEQ_clean_linker_1, # of connection points: 2
#     Edge 45, Type (0, 1), BuildingBlock: KIFKEQ_clean_linker_1, # of connection points: 2
#     Edge 46, Type (0, 1), BuildingBlock: KIFKEQ_clean_linker_1, # of connection points: 2
#     Edge 47, Type (0, 1), BuildingBlock: KIFKEQ_clean_linker_1, # of connection points: 2
#     Edge 48, Type (0, 1), BuildingBlock: KIFKEQ_clean_linker_1, # of connection points: 2
#     Edge 49, Type (0, 1), BuildingBlock: KIFKEQ_clean_linker_1, # of connection points: 2
#     Edge 50, Type (0, 1), BuildingBlock: KIFKEQ_clean_linker_1, # of connection points: 2
#     Edge 51, Type (0, 1), BuildingBlock: KIFKEQ_clean_linker_1, # of connection points: 2
#     Edge 52, Type (0, 1), BuildingBlock: KIFKEQ_clean_linker_1, # of connection points: 2
#     Edge 53, Type (0, 1), BuildingBlock: KIFKEQ_clean_linker_1, # of connection points: 2
#     Edge 54, Type (0, 1), BuildingBlock: KIFKEQ_clean_linker_1, # of connection points: 2
#     Edge 55, Type (0, 1), BuildingBlock: KIFKEQ_clean_linker_1, # of connection points: 2
#     Edge 56, Type (0, 1), BuildingBlock: KIFKEQ_clean_linker_1, # of connection points: 2
#     Edge 57, Type (0, 1), BuildingBlock: KIFKEQ_clean_linker_1, # of connection points: 2
#     Edge 58, Type (0, 1), BuildingBlock: KIFKEQ_clean_linker_1, # of connection points: 2
#     Edge 59, Type (0, 1), BuildingBlock: KIFKEQ_clean_linker_1, # of connection points: 2
#     Edge 60, Type (0, 1), BuildingBlock: KIFKEQ_clean_linker_1, # of connection points: 2
#     Edge 61, Type (0, 1), BuildingBlock: KIFKEQ_clean_linker_1, # of connection points: 2
#     Edge 62, Type (0, 1), BuildingBlock: KIFKEQ_clean_linker_1, # of connection points: 2
#     Edge 63, Type (0, 1), BuildingBlock: KIFKEQ_clean_linker_1, # of connection points: 2
#     Edge 64, Type (0, 1), BuildingBlock: KIFKEQ_clean_linker_1, # of connection points: 2
#     Edge 65, Type (0, 1), BuildingBlock: KIFKEQ_clean_linker_1, # of connection points: 2
#     Edge 66, Type (0, 1), BuildingBlock: KIFKEQ_clean_linker_1, # of connection points: 2
#     Edge 67, Type (0, 1), BuildingBlock: KIFKEQ_clean_linker_1, # of connection points: 2
#     Edge 68, Type (0, 1), BuildingBlock: KIFKEQ_clean_linker_1, # of connection points: 2
#     Edge 69, Type (0, 1), BuildingBlock: KIFKEQ_clean_linker_1, # of connection points: 2
#     Edge 70, Type (0, 1), BuildingBlock: KIFKEQ_clean_linker_1, # of connection points: 2
#     Edge 71, Type (0, 1), BuildingBlock: KIFKEQ_clean_linker_1, # of connection points: 2
#     Edge 72, Type (0, 1), BuildingBlock: KIFKEQ_clean_linker_1, # of connection points: 2
#     Edge 73, Type (0, 1), BuildingBlock: KIFKEQ_clean_linker_1, # of connection points: 2
#     Edge 74, Type (0, 1), BuildingBlock: KIFKEQ_clean_linker_1, # of connection points: 2
#     Edge 75, Type (0, 1), BuildingBlock: KIFKEQ_clean_linker_1, # of connection points: 2
#     Edge 76, Type (0, 1), BuildingBlock: KIFKEQ_clean_linker_1, # of connection points: 2
#     Edge 77, Type (0, 1), BuildingBlock: KIFKEQ_clean_linker_1, # of connection points: 2
#     Edge 78, Type (0, 1), BuildingBlock: KIFKEQ_clean_linker_1, # of connection points: 2
#     Edge 79, Type (0, 1), BuildingBlock: KIFKEQ_clean_linker_1, # of connection points: 2
#     Edge 80, Type (0, 1), BuildingBlock: KIFKEQ_clean_linker_1, # of connection points: 2
#     Edge 81, Type (0, 1), BuildingBlock: KIFKEQ_clean_linker_1, # of connection points: 2
#     Edge 82, Type (0, 1), BuildingBlock: KIFKEQ_clean_linker_1, # of connection points: 2
#     Edge 83, Type (0, 1), BuildingBlock: KIFKEQ_clean_linker_1, # of connection points: 2
#     Edge 84, Type (0, 1), BuildingBlock: KIFKEQ_clean_linker_1, # of connection points: 2
#     Edge 85, Type (0, 1), BuildingBlock: KIFKEQ_clean_linker_1, # of connection points: 2
#     Edge 86, Type (0, 1), BuildingBlock: KIFKEQ_clean_linker_1, # of connection points: 2
#     Edge 87, Type (0, 1), BuildingBlock: KIFKEQ_clean_linker_1, # of connection points: 2
#     Edge 88, Type (0, 1), BuildingBlock: KIFKEQ_clean_linker_1, # of connection points: 2
#     Edge 89, Type (0, 1), BuildingBlock: KIFKEQ_clean_linker_1, # of connection points: 2
#     Edge 90, Type (0, 1), BuildingBlock: KIFKEQ_clean_linker_1, # of connection points: 2
#     Edge 91, Type (0, 1), BuildingBlock: KIFKEQ_clean_linker_1, # of connection points: 2
#     Edge 92, Type (0, 1), BuildingBlock: KIFKEQ_clean_linker_1, # of connection points: 2
#     Edge 93, Type (0, 1), BuildingBlock: KIFKEQ_clean_linker_1, # of connection points: 2
#     Edge 94, Type (0, 1), BuildingBlock: KIFKEQ_clean_linker_1, # of connection points: 2
#     Edge 95, Type (0, 1), BuildingBlock: KIFKEQ_clean_linker_1, # of connection points: 2
#     Edge 96, Type (0, 1), BuildingBlock: KIFKEQ_clean_linker_1, # of connection points: 2
#     Edge 97, Type (0, 1), BuildingBlock: KIFKEQ_clean_linker_1, # of connection points: 2
#     Edge 98, Type (0, 1), BuildingBlock: KIFKEQ_clean_linker_1, # of connection points: 2
#     Edge 99, Type (0, 1), BuildingBlock: KIFKEQ_clean_linker_1, # of connection points: 2
#     Edge 100, Type (0, 1), BuildingBlock: KIFKEQ_clean_linker_1, # of connection points: 2
#     Edge 101, Type (0, 1), BuildingBlock: KIFKEQ_clean_linker_1, # of connection points: 2
#     Edge 102, Type (0, 1), BuildingBlock: KIFKEQ_clean_linker_1, # of connection points: 2
#     Edge 103, Type (0, 1), BuildingBlock: KIFKEQ_clean_linker_1, # of connection points: 2
#     Edge 104, Type (0, 1), BuildingBlock: KIFKEQ_clean_linker_1, # of connection points: 2
#     Edge 105, Type (0, 1), BuildingBlock: KIFKEQ_clean_linker_1, # of connection points: 2
#     Edge 106, Type (0, 1), BuildingBlock: KIFKEQ_clean_linker_1, # of connection points: 2
#     Edge 107, Type (0, 1), BuildingBlock: KIFKEQ_clean_linker_1, # of connection points: 2
#     Edge 108, Type (0, 1), BuildingBlock: KIFKEQ_clean_linker_1, # of connection points: 2
#     Edge 109, Type (0, 1), BuildingBlock: KIFKEQ_clean_linker_1, # of connection points: 2
#     Edge 110, Type (0, 1), BuildingBlock: KIFKEQ_clean_linker_1, # of connection points: 2
#     Edge 111, Type (0, 1), BuildingBlock: KIFKEQ_clean_linker_1, # of connection points: 2
#     Edge 112, Type (0, 1), BuildingBlock: KIFKEQ_clean_linker_1, # of connection points: 2
#     Edge 113, Type (0, 1), BuildingBlock: KIFKEQ_clean_linker_1, # of connection points: 2
#     Edge 114, Type (0, 1), BuildingBlock: KIFKEQ_clean_linker_1, # of connection points: 2
#     Edge 115, Type (0, 1), BuildingBlock: KIFKEQ_clean_linker_1, # of connection points: 2
#     Edge 116, Type (0, 1), BuildingBlock: KIFKEQ_clean_linker_1, # of connection points: 2
#     Edge 117, Type (0, 1), BuildingBlock: KIFKEQ_clean_linker_1, # of connection points: 2
#     Edge 118, Type (0, 1), BuildingBlock: KIFKEQ_clean_linker_1, # of connection points: 2
#     Edge 119, Type (0, 1), BuildingBlock: KIFKEQ_clean_linker_1, # of connection points: 2
#     Edge 120, Type (0, 1), BuildingBlock: KIFKEQ_clean_linker_1, # of connection points: 2
#     Edge 121, Type (0, 1), BuildingBlock: KIFKEQ_clean_linker_1, # of connection points: 2
#     Edge 122, Type (0, 1), BuildingBlock: KIFKEQ_clean_linker_1, # of connection points: 2
#     Edge 123, Type (0, 1), BuildingBlock: KIFKEQ_clean_linker_1, # of connection points: 2
#     Edge 124, Type (0, 1), BuildingBlock: KIFKEQ_clean_linker_1, # of connection points: 2
#     Edge 125, Type (0, 1), BuildingBlock: KIFKEQ_clean_linker_1, # of connection points: 2
#     Edge 126, Type (0, 1), BuildingBlock: KIFKEQ_clean_linker_1, # of connection points: 2
#     Edge 127, Type (0, 1), BuildingBlock: KIFKEQ_clean_linker_1, # of connection points: 2
#     Edge 128, Type (0, 1), BuildingBlock: KIFKEQ_clean_linker_1, # of connection points: 2
#     Edge 129, Type (0, 1), BuildingBlock: KIFKEQ_clean_linker_1, # of connection points: 2
#     Edge 130, Type (0, 1), BuildingBlock: KIFKEQ_clean_linker_1, # of connection points: 2
#     Edge 131, Type (0, 1), BuildingBlock: KIFKEQ_clean_linker_1, # of connection points: 2
#     Edge 132, Type (0, 1), BuildingBlock: KIFKEQ_clean_linker_1, # of connection points: 2
#     Edge 133, Type (0, 1), BuildingBlock: KIFKEQ_clean_linker_1, # of connection points: 2
#     Edge 134, Type (0, 1), BuildingBlock: KIFKEQ_clean_linker_1, # of connection points: 2
#     Edge 135, Type (0, 1), BuildingBlock: KIFKEQ_clean_linker_1, # of connection points: 2
# Relax obj value: 0.192
# Max RMSD: 0.296
# Mean RMSD: 0.171
data_MOF--net-gar--node1-QUQFOY_clean_sbu_1--node2-HISSIN_clean_sbu_0--edge1-KIFKEQ_clean_linker_1
_symmetry_space_group_name_H-M    P1
_symmetry_Int_Tables_number       1
_symmetry_cell_setting            triclinic
loop_
_symmetry_equiv_pos_as_xyz
'x, y, z'
_cell_length_a     61.856689
_cell_length_b     61.630412
_cell_length_c     59.395289
_cell_angle_alpha  100.4803
_cell_angle_beta   93.598842
_cell_angle_gamma 103.39216
loop_
_atom_site_label
_atom_site_type_symbol
_atom_site_fract_x
_atom_site_fract_y
_atom_site_fract_z
_atom_type_partial_charge
O0 O 0.09538 0.26027 0.40873 0.0
Cd1 Cd 0.09843 0.27635 0.38095 0.0
Cd2 Cd 0.07235 0.30172 0.40549 0.0
O3 O 0.07504 0.2807 0.42805 0.0
O4 O 0.12272 0.26692 0.36465 0.0
O5 O 0.12433 0.30279 0.3804 0.0
C6 C 0.13322 0.28813 0.36842 0.0
C7 C 0.07395 0.33969 0.42112 0.0
C8 C 0.08509 0.26478 0.42619 0.0
C9 C 0.05489 0.27654 0.35667 0.0
O10 O 0.05193 0.28898 0.37515 0.0
O11 O 0.07251 0.26943 0.35518 0.0
O12 O 0.05662 0.3236 0.42166 0.0
O13 O 0.09087 0.33421 0.41205 0.0
O14 O 0.02032 0.71779 0.66437 0.0
Cd15 Cd 0.0169 0.74571 0.68723 0.0
Cd16 Cd 0.04414 0.76997 0.65837 0.0
O17 O 0.04075 0.73676 0.6417 0.0
O18 O 0.99249 0.73409 0.70532 0.0
O19 O 0.99116 0.75988 0.68404 0.0
C20 C 0.98207 0.74785 0.69824 0.0
C21 C 0.04769 0.79586 0.63361 0.0
C22 C 0.03093 0.71805 0.64676 0.0
C23 C 0.06069 0.77669 0.70914 0.0
O24 O 0.06379 0.78189 0.68963 0.0
O25 O 0.04314 0.76232 0.71165 0.0
O26 O 0.06331 0.78613 0.63789 0.0
O27 O 0.02975 0.79107 0.6436 0.0
O28 O 0.64631 0.8161 0.90297 0.0
Cd29 Cd 0.61939 0.81461 0.92195 0.0
Cd30 Cd 0.59544 0.81616 0.88132 0.0
O31 O 0.62668 0.81752 0.87128 0.0
O32 O 0.62576 0.80224 0.94962 0.0
O33 O 0.59825 0.7845 0.92203 0.0
C34 C 0.60902 0.78507 0.9416 0.0
C35 C 0.56776 0.79735 0.85119 0.0
C36 C 0.64507 0.81737 0.88184 0.0
C37 C 0.59739 0.85339 0.92265 0.0
O38 O 0.58944 0.84447 0.90191 0.0
O39 O 0.61006 0.84434 0.93355 0.0
O40 O 0.58083 0.81679 0.85097 0.0
O41 O 0.56982 0.78844 0.86901 0.0
O42 O 0.51808 0.22228 0.164 0.0
Cd43 Cd 0.51578 0.24894 0.1893 0.0
Cd44 Cd 0.54596 0.27496 0.16507 0.0
O45 O 0.54328 0.24256 0.14631 0.0
O46 O 0.49019 0.23694 0.20583 0.0
O47 O 0.49191 0.26599 0.1883 0.0
C48 C 0.48154 0.25287 0.20096 0.0
C49 C 0.54961 0.3028 0.14253 0.0
C50 C 0.53105 0.22351 0.14828 0.0
C51 C 0.5595 0.27631 0.21525 0.0
O52 O 0.56379 0.28459 0.19745 0.0
O53 O 0.54164 0.26118 0.21503 0.0
O54 O 0.5657 0.29365 0.14685 0.0
O55 O 0.53125 0.29643 0.15143 0.0
O56 O 0.1072 0.75836 0.12748 0.0
Cd57 Cd 0.10622 0.79094 0.1429 0.0
Cd58 Cd 0.13375 0.79928 0.10907 0.0
O59 O 0.13012 0.76479 0.10111 0.0
O60 O 0.08774 0.78358 0.16793 0.0
O61 O 0.07734 0.80136 0.14178 0.0
C62 C 0.07328 0.79297 0.15989 0.0
C63 C 0.11913 0.81702 0.08298 0.0
C64 C 0.11791 0.75105 0.11139 0.0
C65 C 0.15354 0.82043 0.15695 0.0
O66 O 0.15712 0.81766 0.13593 0.0
O67 O 0.13453 0.8116 0.16262 0.0
O68 O 0.13843 0.81254 0.08122 0.0
O69 O 0.10821 0.81142 0.0998 0.0
O70 O 0.56739 0.80276 0.42632 0.0
Cd71 Cd 0.54207 0.80573 0.44685 0.0
Cd72 Cd 0.51904 0.80607 0.4019 0.0
O73 O 0.54962 0.80271 0.3929 0.0
O74 O 0.52691 0.77936 0.46065 0.0
O75 O 0.55663 0.80613 0.47767 0.0
C76 C 0.54174 0.78787 0.47826 0.0
C77 C 0.48939 0.78778 0.37361 0.0
C78 C 0.56703 0.80176 0.40475 0.0
C79 C 0.52205 0.84542 0.44121 0.0
O80 O 0.51584 0.83669 0.42009 0.0
O81 O 0.53225 0.83557 0.45379 0.0
O82 O 0.50409 0.80553 0.37131 0.0
O83 O 0.49158 0.78001 0.39218 0.0
O84 O 0.61299 0.26123 0.63784 0.0
Cd85 Cd 0.60911 0.29278 0.65304 0.0
Cd86 Cd 0.63096 0.30499 0.61779 0.0
O87 O 0.63116 0.27129 0.60913 0.0
O88 O 0.5906 0.28518 0.67794 0.0
O89 O 0.57935 0.30102 0.65037 0.0
C90 C 0.57552 0.29321 0.66886 0.0
C91 C 0.61205 0.31988 0.59212 0.0
C92 C 0.62273 0.25614 0.62014 0.0
C93 C 0.65374 0.32736 0.66433 0.0
O94 O 0.65506 0.32586 0.64286 0.0
O95 O 0.63674 0.31579 0.67145 0.0
O96 O 0.6318 0.31708 0.58906 0.0
O97 O 0.60319 0.31444 0.61011 0.0
O98 O 0.02195 0.25516 0.93756 0.0
Cd99 Cd 0.02146 0.26979 0.90878 0.0
Cd100 Cd 0.99233 0.28795 0.93396 0.0
O101 O 1.00041 0.27189 0.95915 0.0
O102 O 0.04437 0.25851 0.89145 0.0
O103 O 0.0481 0.29492 0.90644 0.0
C104 C 0.05614 0.27924 0.89501 0.0
C105 C 1.00166 0.3272 0.94137 0.0
C106 C 1.01331 0.25861 0.95636 0.0
C107 C 0.97419 0.26275 0.88714 0.0
O108 O 0.96915 0.27061 0.90681 0.0
O109 O 0.99423 0.26235 0.88411 0.0
O110 O 0.98368 0.3159 0.94794 0.0
O111 O 1.01437 0.316 0.93038 0.0
O112 O 0.42218 0.04705 0.28471 0.0
Cd113 Cd 0.40245 0.04679 0.31138 0.0
Cd114 Cd 0.44289 0.04958 0.3372 0.0
O115 O 0.45419 0.05282 0.30606 0.0
O116 O 0.37361 0.04913 0.29683 0.0
O117 O 0.3938 0.07522 0.32576 0.0
C118 C 0.37614 0.06822 0.31102 0.0
C119 C 0.4673 0.07094 0.36901 0.0
C120 C 0.44329 0.05037 0.28658 0.0
C121 C 0.40551 1.00817 0.33499 0.0
O122 O 0.42606 0.01771 0.3411 0.0
O123 O 0.39334 0.01756 0.32393 0.0
O124 O 0.47204 0.05433 0.35548 0.0
O125 O 0.44845 0.07574 0.36461 0.0
O126 O 0.31489 0.21675 0.56299 0.0
Cd127 Cd 0.31068 0.19273 0.53281 0.0
Cd128 Cd 0.2911 0.22689 0.51847 0.0
O129 O 0.30221 0.24448 0.5524 0.0
O130 O 0.32243 0.16911 0.54507 0.0
O131 O 0.33824 0.18608 0.51862 0.0
C132 C 0.33814 0.17168 0.53191 0.0
C133 C 0.30164 0.24179 0.48559 0.0
C134 C 0.31088 0.23629 0.56794 0.0
C135 C 0.26096 0.1801 0.51555 0.0
O136 O 0.26205 0.20083 0.51469 0.0
O137 O 0.27851 0.17378 0.5206 0.0
O138 O 0.28716 0.24877 0.49791 0.0
O139 O 0.31065 0.22674 0.49226 0.0
O140 O 0.19188 0.01994 0.74901 0.0
Cd141 Cd 0.22081 0.02169 0.77354 0.0
Cd142 Cd 0.18108 0.0479 0.80471 0.0
O143 O 0.16701 0.0359 0.76803 0.0
O144 O 0.24259 1.0001 0.75935 0.0
O145 O 0.22443 0.99182 0.78747 0.0
C146 C 0.23797 0.98594 0.77309 0.0
C147 C 0.16028 0.04744 0.84112 0.0
C148 C 0.17353 0.02684 0.74888 0.0
C149 C 0.22952 0.07764 0.79572 0.0
O150 O 0.21063 0.07463 0.80438 0.0
O151 O 0.23623 0.06003 0.78536 0.0
O152 O 0.15932 0.06137 0.82742 0.0
O153 O 0.17229 0.03336 0.83435 0.0
O154 O 0.29468 0.96582 0.05224 0.0
Cd155 Cd 0.29767 0.9917 0.03344 0.0
Cd156 Cd 0.30743 0.94965 0.99896 0.0
O157 O 0.29428 0.93534 0.0255 0.0
O158 O 0.28063 1.01416 0.04997 0.0
O159 O 0.26787 0.9927 0.01597 0.0
C160 C 0.26448 1.00701 0.03342 0.0
C161 C 0.30799 0.92312 0.9643 0.0
C162 C 0.29246 0.9444 0.04612 0.0
C163 C 0.34548 0.99419 0.0191 0.0
O164 O 0.33737 0.97383 1.00817 0.0
O165 O 0.33252 1.00585 0.02879 0.0
O166 O 0.31986 0.92404 0.98311 0.0
O167 O 0.29521 0.93701 0.96495 0.0
O168 O 0.33242 0.39414 0.09682 0.0
Cd169 Cd 0.33762 0.41252 0.07079 0.0
Cd170 Cd 0.35112 0.3748 0.05087 0.0
O171 O 0.34018 0.36224 0.08 0.0
O172 O 0.32137 0.43694 0.07858 0.0
O173 O 0.31216 0.41043 0.04677 0.0
C174 C 0.30841 0.42815 0.05969 0.0
C175 C 0.33926 0.35659 1.01199 0.0
C176 C 0.33397 0.37398 0.09729 0.0
C177 C 0.38583 0.41994 0.0617 0.0
O178 O 0.38184 0.39838 0.05555 0.0
O179 O 0.37015 0.42927 0.06752 0.0
O180 O 0.35338 0.35002 0.02448 0.0
O181 O 0.33068 0.37255 0.02199 0.0
O182 O 0.83629 0.13724 0.08587 0.0
Cd183 Cd 0.83324 0.10916 0.05853 0.0
Cd184 Cd 0.81683 0.13956 0.03247 0.0
O185 O 0.82547 0.15975 0.06481 0.0
O186 O 0.85579 0.09053 0.06569 0.0
O187 O 0.85966 0.11039 0.03848 0.0
C188 C 0.86774 0.09773 0.05018 0.0
C189 C 0.81737 0.1608 1.00293 0.0
C190 C 0.83188 0.1562 0.08426 0.0
C191 C 0.78316 0.09613 0.03774 0.0
O192 O 0.7881 0.11413 0.02959 0.0
O193 O 0.79851 0.09011 0.04899 0.0
O194 O 0.80387 0.16148 0.01841 0.0
O195 O 0.83091 0.14786 1.00388 0.0
O196 O 0.20552 0.52635 0.1931 0.0
Cd197 Cd 0.23254 0.54661 0.21524 0.0
Cd198 Cd 0.20167 0.56166 0.23913 0.0
O199 O 0.18044 0.53738 0.21418 0.0
O200 O 0.25735 0.53129 0.21667 0.0
O201 O 0.23835 0.53977 0.24616 0.0
C202 C 0.25409 0.53118 0.23794 0.0
C203 C 0.19021 0.56504 0.27602 0.0
C204 C 0.18524 0.52516 0.19652 0.0
C205 C 0.23489 0.59534 0.21886 0.0
O206 O 0.21807 0.59143 0.23009 0.0
O207 O 0.2442 0.57956 0.21135 0.0
O208 O 0.18093 0.57259 0.2601 0.0
O209 O 0.20631 0.55555 0.2711 0.0
O210 O 0.83011 0.89535 0.59665 0.0
Cd211 Cd 0.83483 0.91438 0.57106 0.0
Cd212 Cd 0.84762 0.87595 0.54981 0.0
O213 O 0.83688 0.86323 0.57894 0.0
O214 O 0.81934 0.93924 0.58043 0.0
O215 O 0.80892 0.91362 0.54808 0.0
C216 C 0.80585 0.93122 0.56179 0.0
C217 C 0.83663 0.85758 0.51077 0.0
C218 C 0.83135 0.87502 0.59667 0.0
C219 C 0.88278 0.92092 0.56107 0.0
O220 O 0.87839 0.89937 0.5547 0.0
O221 O 0.86741 0.9306 0.5672 0.0
O222 O 0.85056 0.85122 0.52368 0.0
O223 O 0.82762 0.87335 0.52043 0.0
O224 O 0.95207 0.07142 0.24348 0.0
Cd225 Cd 0.92386 0.07347 0.26491 0.0
Cd226 Cd 0.96794 0.05184 0.29488 0.0
O227 O 0.97901 0.0591 0.26129 0.0
O228 O 0.90078 0.09148 0.25131 0.0
O229 O 0.92165 0.10723 0.28297 0.0
C230 C 0.90677 0.1094 0.26773 0.0
C231 C 0.99003 0.05338 0.33297 0.0
C232 C 0.97102 0.06556 0.24345 0.0
C233 C 0.91614 0.02278 0.28132 0.0
O234 O 0.9368 0.02745 0.28939 0.0
O235 O 0.9083 0.03793 0.2726 0.0
O236 O 0.98941 0.03814 0.31466 0.0
O237 O 0.97963 0.06869 0.32969 0.0
O238 O 0.33623 0.63407 0.58799 0.0
Cd239 Cd 0.33284 0.60508 0.56149 0.0
Cd240 Cd 0.31614 0.63436 0.53466 0.0
O241 O 0.32467 0.6557 0.56641 0.0
O242 O 0.35653 0.58817 0.56975 0.0
O243 O 0.35793 0.60453 0.53987 0.0
C244 C 0.36721 0.59364 0.55276 0.0
C245 C 0.31579 0.65458 0.50444 0.0
C246 C 0.33158 0.65282 0.58597 0.0
C247 C 0.28289 0.59097 0.54103 0.0
O248 O 0.28782 0.60858 0.53228 0.0
O249 O 0.29821 0.58547 0.55287 0.0
O250 O 0.30204 0.65487 0.51968 0.0
O251 O 0.33013 0.64257 0.50601 0.0
O252 O 0.4504 0.56826 0.74082 0.0
Cd253 Cd 0.42203 0.57007 0.76215 0.0
Cd254 Cd 0.46685 0.54968 0.79205 0.0
O255 O 0.47843 0.55777 0.75888 0.0
O256 O 0.4005 0.58902 0.74758 0.0
O257 O 0.41755 0.60241 0.78159 0.0
C258 C 0.40445 0.60567 0.76531 0.0
C259 C 0.48918 0.55163 0.83012 0.0
C260 C 0.46985 0.56346 0.74084 0.0
C261 C 0.41494 0.5197 0.77852 0.0
O262 O 0.4357 0.5248 0.78647 0.0
O263 O 0.40671 0.53455 0.76971 0.0
O264 O 0.48866 0.53638 0.81186 0.0
O265 O 0.47845 0.56669 0.82683 0.0
O266 O 0.70649 0.02265 0.69588 0.0
Cd267 Cd 0.73504 0.04115 0.71706 0.0
Cd268 Cd 0.70636 0.0572 0.74346 0.0
O269 O 0.68325 0.03425 0.71918 0.0
O270 O 0.7587 0.02422 0.71719 0.0
O271 O 0.74148 0.03409 0.74774 0.0
C272 C 0.75636 0.02462 0.73874 0.0
C273 C 0.69625 0.06169 0.78093 0.0
C274 C 0.68665 0.02235 0.70057 0.0
C275 C 0.73927 0.09 0.72176 0.0
O276 O 0.723 0.08643 0.73375 0.0
O277 O 0.74796 0.07399 0.71344 0.0
O278 O 0.68725 0.06984 0.76535 0.0
O279 O 0.71129 0.05089 0.77537 0.0
O280 O 0.8213 0.71702 0.0632 0.0
Cd281 Cd 0.81664 0.69124 0.03451 0.0
Cd282 Cd 0.79596 0.72407 0.01729 0.0
O283 O 0.80563 0.74237 0.05135 0.0
O284 O 0.82909 0.66892 0.04838 0.0
O285 O 0.84344 0.68326 0.01975 0.0
C286 C 0.84396 0.67006 0.03422 0.0
C287 C 0.80517 0.7403 0.98471 0.0
C288 C 0.81571 0.73583 0.06731 0.0
C289 C 0.76693 0.67678 0.01648 0.0
O290 O 0.7679 0.69663 1.01262 0.0
O291 O 0.7844 0.67176 0.02418 0.0
O292 O 0.78936 0.74481 0.99651 0.0
O293 O 0.81636 0.72704 0.99178 0.0
O294 O 0.92067 0.54229 0.78062 0.0
Cd295 Cd 0.90101 0.5444 0.80732 0.0
Cd296 Cd 0.94052 0.54519 0.83361 0.0
O297 O 0.95198 0.54536 0.80209 0.0
O298 O 0.87282 0.54751 0.792 0.0
O299 O 0.89346 0.57384 0.82045 0.0
C300 C 0.87588 0.567 0.80562 0.0
C301 C 0.9661 0.56691 0.8643 0.0
C302 C 0.94146 0.54337 0.78253 0.0
C303 C 0.9011 0.50641 0.8331 0.0
O304 O 0.92181 0.51481 0.83935 0.0
O305 O 0.89014 0.51612 0.82108 0.0
O306 O 0.96941 0.54887 0.85185 0.0
O307 O 0.94795 0.57287 0.85955 0.0
O308 O 0.79585 0.46626 0.55155 0.0
Cd309 Cd 0.79746 0.49059 0.53117 0.0
Cd310 Cd 0.80555 0.44818 0.49832 0.0
O311 O 0.79242 0.43466 0.52533 0.0
O312 O 0.7802 0.51328 0.54686 0.0
O313 O 0.76698 0.49005 0.51388 0.0
C314 C 0.76369 0.50501 0.53079 0.0
C315 C 0.80432 0.42135 0.46344 0.0
C316 C 0.79261 0.44468 0.5461 0.0
C317 C 0.84489 0.49177 0.51667 0.0
O318 O 0.83637 0.47112 0.50677 0.0
O319 O 0.83218 0.50419 0.52557 0.0
O320 O 0.81554 0.42097 0.48221 0.0
O321 O 0.79317 0.4367 0.46425 0.0
O322 O 0.69329 0.52269 0.24728 0.0
Cd323 Cd 0.72232 0.52429 0.27171 0.0
Cd324 Cd 0.68257 0.55062 0.30308 0.0
O325 O 0.66847 0.53871 0.26633 0.0
O326 O 0.74401 0.50277 0.25726 0.0
O327 O 0.7264 0.49467 0.28578 0.0
C328 C 0.73978 0.48877 0.27121 0.0
C329 C 0.6618 0.55016 0.33957 0.0
C330 C 0.67496 0.52964 0.24716 0.0
C331 C 0.73127 0.58009 0.29416 0.0
O332 O 0.71235 0.57717 0.30279 0.0
O333 O 0.73787 0.56247 0.2837 0.0
O334 O 0.66096 0.56421 0.32597 0.0
O335 O 0.67366 0.53597 0.33265 0.0
Eu336 Eu 0.07826 0.0806 0.04974 0.0
Eu337 Eu 0.05491 0.02729 0.03626 0.0
C338 C 0.08316 0.05244 0.99712 0.0
C339 C 0.08839 0.14403 0.07029 0.0
C340 C 0.06532 0.14205 0.06722 0.0
C341 C 0.09505 0.18508 0.07724 0.0
C342 C 0.05728 0.1614 0.06733 0.0
C343 C 0.10312 0.16561 0.07663 0.0
C344 C 0.07224 0.18306 0.07078 0.0
C345 C 0.09702 0.12402 0.06272 0.0
O346 O 0.09156 0.02661 0.04114 0.0
O347 O 0.10779 0.06448 0.05495 0.0
C348 C 0.10954 0.04334 0.04844 0.0
O349 O 0.05846 0.07481 0.08111 0.0
O350 O 0.03411 0.99792 1.0117 0.0
O351 O 0.04586 0.99426 0.04572 0.0
O352 O 0.04938 0.03604 0.07516 0.0
C353 C 0.04943 0.05596 0.0883 0.0
O354 O 0.04208 0.08127 0.03947 0.0
O355 O 0.02517 0.04321 0.03385 0.0
O356 O 0.07127 0.03365 1.00276 0.0
O357 O 0.09612 0.1097 0.07655 0.0
O358 O 0.09029 0.11378 0.04135 0.0
O359 O 0.08654 0.07213 1.01193 0.0
C360 C 0.04168 0.96284 0.01594 0.0
C361 C 0.02859 0.94219 0.01934 0.0
C362 C 0.07038 0.94395 1.00328 0.0
C363 C 0.03672 0.92269 0.0157 0.0
C364 C 0.06227 0.96353 1.00711 0.0
C365 C 0.05814 0.92356 1.00859 0.0
C366 C 0.03548 0.98387 0.02546 0.0
C367 C 0.0238 0.06448 0.03588 0.0
H368 H 0.05369 0.12544 0.06257 0.0
H369 H 0.10695 0.20154 0.08078 0.0
H370 H 0.03962 0.15894 0.0623 0.0
H371 H 0.12099 0.16739 0.07936 0.0
H372 H 1.01274 0.94148 0.02636 0.0
H373 H 0.08676 0.94512 0.99742 0.0
H374 H 0.02691 0.90747 0.02029 0.0
H375 H 0.07263 0.97946 1.00452 0.0
Eu376 Eu 0.32631 0.80927 0.25342 0.0
Eu377 Eu 0.30173 0.79761 0.29922 0.0
C378 C 0.27955 0.82045 0.2629 0.0
C379 C 0.33398 0.83087 0.19796 0.0
C380 C 0.31223 0.8341 0.19694 0.0
C381 C 0.34078 0.84911 0.16525 0.0
C382 C 0.30483 0.8449 0.18023 0.0
C383 C 0.34815 0.83836 0.18198 0.0
C384 C 0.31906 0.85262 0.16421 0.0
C385 C 0.34231 0.82077 0.21632 0.0
O386 O 0.30231 0.76471 0.27634 0.0
O387 O 0.29905 0.77678 0.24253 0.0
C388 C 0.29717 0.7603 0.25401 0.0
O389 O 0.34728 0.78862 0.26802 0.0
O390 O 0.27528 0.77724 0.3148 0.0
O391 O 0.30028 0.80514 0.33628 0.0
O392 O 0.33622 0.79225 0.30469 0.0
C393 C 0.34957 0.78629 0.2896 0.0
O394 O 0.34601 0.8334 0.28489 0.0
O395 O 0.31632 0.83534 0.30534 0.0
O396 O 0.27561 0.80466 0.27531 0.0
O397 O 0.347 0.83399 0.23666 0.0
O398 O 0.33145 0.80015 0.21717 0.0
O399 O 0.29964 0.8284 0.25751 0.0
C400 C 0.28772 0.77256 0.35153 0.0
C401 C 0.30328 0.75931 0.34746 0.0
C402 C 0.28133 0.75941 0.38718 0.0
C403 C 0.30794 0.74628 0.36327 0.0
C404 C 0.27668 0.77241 0.37137 0.0
C405 C 0.29718 0.74637 0.38345 0.0
C406 C 0.28383 0.7874 0.33578 0.0
C407 C 0.33668 0.8442 0.30111 0.0
H408 H 0.30104 0.82844 0.20918 0.0
H409 H 0.35231 0.85514 0.15345 0.0
H410 H 0.28794 0.8471 0.17981 0.0
H411 H 0.36506 0.83619 0.18265 0.0
H412 H 0.31206 0.75936 0.33224 0.0
H413 H 0.27248 0.75957 0.40236 0.0
H414 H 0.32035 0.73659 0.35997 0.0
H415 H 0.26464 0.78255 0.37476 0.0
Eu416 Eu 0.59011 0.04329 0.52972 0.0
Eu417 Eu 0.5442 0.04883 0.55454 0.0
C418 C 0.58004 0.02698 0.57685 0.0
C419 C 0.64485 0.02552 0.51839 0.0
C420 C 0.65588 0.03032 0.54082 0.0
C421 C 0.66844 0.99995 0.5061 0.0
C422 C 0.6732 0.02013 0.54576 0.0
C423 C 0.6513 1.01027 0.50113 0.0
C424 C 0.67964 1.00477 0.52846 0.0
C425 C 0.62635 0.03575 0.51256 0.0
O426 O 0.56562 0.08374 0.55614 0.0
O427 O 0.5995 0.07484 0.55808 0.0
C428 C 0.58736 0.08979 0.56107 0.0
O429 O 0.57565 0.06443 0.50857 0.0
O430 O 0.52732 0.06476 0.58175 0.0
O431 O 0.50814 0.03746 0.55452 0.0
O432 O 0.54008 0.05915 0.52042 0.0
C433 C 0.55494 0.06659 0.50687 0.0
O434 O 0.56004 0.01941 0.5079 0.0
O435 O 0.53972 1.0122 0.5375 0.0
O436 O 0.5675 0.04145 0.58126 0.0
O437 O 0.60666 0.02175 0.50707 0.0
O438 O 0.62551 0.05503 0.52544 0.0
O439 O 0.58589 0.02136 0.55619 0.0
C440 C 0.49138 0.06703 0.56799 0.0
C441 C 0.49589 0.08317 0.5539 0.0
C442 C 0.45476 0.07435 0.57182 0.0
C443 C 0.47985 0.09473 0.54865 0.0
C444 C 0.47081 0.06282 0.57704 0.0
C445 C 0.45896 0.09027 0.55734 0.0
C446 C 0.5074 0.05346 0.57195 0.0
C447 C 0.54445 1.00604 0.51647 0.0
H448 H 0.65108 0.04183 0.55453 0.0
H449 H 0.67313 0.98841 0.49232 0.0
H450 H 0.68132 0.024 0.56322 0.0
H451 H 0.64301 1.00629 0.48373 0.0
H452 H 0.51166 0.08649 0.54662 0.0
H453 H 0.43901 0.07078 0.5791 0.0
H454 H 0.48357 0.10669 0.5373 0.0
H455 H 0.46703 0.05037 0.58788 0.0
Eu456 Eu 0.29581 0.30384 0.78606 0.0
Eu457 Eu 0.34515 0.29543 0.79128 0.0
C458 C 0.30116 0.25176 0.79082 0.0
C459 C 0.23675 0.30927 0.79653 0.0
C460 C 0.23873 0.30503 0.81888 0.0
C461 C 0.19841 0.31116 0.80027 0.0
C462 C 0.22059 0.30385 0.83189 0.0
C463 C 0.21656 0.31236 0.78732 0.0
C464 C 0.20021 0.30687 0.8227 0.0
C465 C 0.25569 0.31089 0.78281 0.0
O466 O 0.33935 0.29498 0.7533 0.0
O467 O 0.30162 0.29192 0.7492 0.0
C468 C 0.32046 0.29158 0.74029 0.0
O469 O 0.31789 0.33777 0.77951 0.0
O470 O 0.36779 0.27361 0.78318 0.0
O471 O 0.38012 0.30642 0.80617 0.0
O472 O 0.35257 0.33447 0.79177 0.0
C473 C 0.33963 0.34707 0.78493 0.0
O474 O 0.30664 0.31526 0.82434 0.0
O475 O 0.3352 0.29778 0.82747 0.0
O476 O 0.32247 0.25883 0.78758 0.0
O477 O 0.27363 0.32659 0.79178 0.0
O478 O 0.2602 0.29176 0.77381 0.0
O479 O 0.28869 0.26682 0.79329 0.0
C480 C 0.40491 0.29252 0.78203 0.0
C481 C 0.40495 0.30301 0.76294 0.0
C482 C 0.44081 0.28514 0.77446 0.0
C483 C 0.42278 0.30431 0.74947 0.0
C484 C 0.42305 0.28392 0.78791 0.0
C485 C 0.44067 0.29494 0.75484 0.0
C486 C 0.38525 0.28852 0.79464 0.0
C487 C 0.32114 0.30871 0.83695 0.0
H488 H 0.25431 0.3027 0.82625 0.0
H489 H 0.18285 0.31318 0.79256 0.0
H490 H 0.22257 0.30073 0.84917 0.0
H491 H 0.21481 0.31564 0.77006 0.0
H492 H 0.3909 0.30957 0.7581 0.0
H493 H 0.45454 0.27813 0.77923 0.0
H494 H 0.42219 0.31185 0.7344 0.0
H495 H 0.4232 0.27572 0.80256 0.0
Eu496 Eu 0.07185 0.06319 0.55385 0.0
Eu497 Eu 0.08666 0.01835 0.53065 0.0
C498 C 0.11758 0.06776 0.53004 0.0
C499 C 0.06181 0.12173 0.56041 0.0
C500 C 0.07863 0.14185 0.56854 0.0
C501 C 0.04875 0.1389 0.53013 0.0
C502 C 0.08094 0.16004 0.55711 0.0
C503 C 0.04654 0.12065 0.54143 0.0
C504 C 0.06631 0.15853 0.53751 0.0
C505 C 0.06185 0.10138 0.57028 0.0
O506 O 0.09346 0.01933 0.56974 0.0
O507 O 0.0931 0.05621 0.58422 0.0
C508 C 0.09774 0.03692 0.58734 0.0
O509 O 0.04624 0.03509 0.56366 0.0
O510 O 0.10938 0.99587 0.52972 0.0
O511 O 0.0802 0.98687 0.50481 0.0
O512 O 0.05027 1.00619 0.5355 0.0
C513 C 0.03885 1.01444 0.55134 0.0
O514 O 0.05507 0.05513 0.51607 0.0
O515 O 0.07571 0.03173 0.49877 0.0
O516 O 0.11745 0.04681 0.53177 0.0
O517 O 0.04687 0.08267 0.56087 0.0
O518 O 0.0815 0.09767 0.57454 0.0
O519 O 0.09998 0.07578 0.53351 0.0
C520 C 0.08918 0.95768 0.52117 0.0
C521 C 0.06968 0.95272 0.53213 0.0
C522 C 0.09725 0.92246 0.52762 0.0
C523 C 0.06407 0.93288 0.54089 0.0
C524 C 0.10281 0.94233 0.51873 0.0
C525 C 0.07796 0.9177 0.53907 0.0
C526 C 0.09613 0.97977 0.51427 0.0
C527 C 0.06104 0.04418 0.49698 0.0
H528 H 0.09054 0.14318 0.58321 0.0
H529 H 0.03733 0.13719 0.51496 0.0
H530 H 0.09445 0.1751 0.56332 0.0
H531 H 0.03339 0.10541 0.53468 0.0
H532 H 0.05909 0.96451 0.53452 0.0
H533 H 0.10819 0.91098 0.52583 0.0
H534 H 0.04933 0.92993 0.54993 0.0
H535 H 0.118 0.94598 0.51048 0.0
Eu536 Eu 0.34522 0.81042 0.77074 0.0
Eu537 Eu 0.29596 0.77976 0.77003 0.0
C538 C 0.3204 0.81596 0.81659 0.0
C539 C 0.40513 0.82639 0.76185 0.0
C540 C 0.40264 0.8038 0.75027 0.0
C541 C 0.44499 0.83078 0.76881 0.0
C542 C 0.42115 0.79449 0.74872 0.0
C543 C 0.42645 0.84005 0.77038 0.0
C544 C 0.44238 0.80764 0.75881 0.0
C545 C 0.38542 0.83409 0.76878 0.0
O546 O 0.288 0.81506 0.76815 0.0
O547 O 0.32315 0.83625 0.76596 0.0
C548 C 0.3014 0.83509 0.76691 0.0
O549 O 0.34005 0.78439 0.73766 0.0
O550 O 0.27292 0.75773 0.78749 0.0
O551 O 0.26211 0.76345 0.754 0.0
O552 O 0.30209 0.77158 0.73266 0.0
C553 C 0.32167 0.77191 0.72527 0.0
O554 O 0.35318 0.77513 0.7721 0.0
O555 O 0.31818 0.75406 0.77502 0.0
O556 O 0.30176 0.80422 0.80415 0.0
O557 O 0.36905 0.83084 0.75253 0.0
O558 O 0.3785 0.82794 0.78753 0.0
O559 O 0.33975 0.81702 0.80842 0.0
C560 C 0.23594 0.7606 0.7806 0.0
C561 C 0.21523 0.74514 0.77336 0.0
C562 C 0.21732 0.78878 0.79858 0.0
C563 C 0.19559 0.75167 0.77804 0.0
C564 C 0.23698 0.78224 0.79379 0.0
C565 C 0.19638 0.77383 0.79006 0.0
C566 C 0.25607 0.75513 0.772 0.0
C567 C 0.33989 0.75521 0.77368 0.0
H568 H 0.38622 0.79294 0.74372 0.0
H569 H 0.46105 0.84131 0.77705 0.0
H570 H 0.41866 0.7767 0.74077 0.0
H571 H 0.42859 0.8574 0.77962 0.0
H572 H 0.2142 0.72845 0.76301 0.0
H573 H 0.21852 0.80586 0.80804 0.0
H574 H 0.17982 0.73983 0.77082 0.0
H575 H 0.25293 0.79442 0.79943 0.0
Eu576 Eu 0.56569 0.03108 0.05427 0.0
Eu577 Eu 0.56433 0.05117 1.00744 0.0
C578 C 0.56019 0.08108 0.05587 0.0
C579 C 0.55196 0.01749 0.11153 0.0
C580 C 0.52986 0.01915 0.10742 0.0
C581 C 0.54858 0.02264 0.15242 0.0
C582 C 0.5172 0.02262 0.12576 0.0
C583 C 0.56116 0.01897 0.13405 0.0
C584 C 0.5266 0.0248 0.14845 0.0
C585 C 0.56615 0.01662 0.09276 0.0
O586 O 0.59995 0.0476 1.01311 0.0
O587 O 0.60209 0.04914 0.05191 0.0
C588 C 0.61198 0.05034 0.03296 0.0
O589 O 0.57408 1.00467 0.02765 0.0
O590 O 0.5747 0.07987 0.99066 0.0
O591 O 0.55389 0.04808 0.97086 0.0
O592 O 0.55866 1.01313 0.99529 0.0
C593 C 0.56676 0.99922 1.00572 0.0
O594 O 0.52849 0.02148 0.04052 0.0
O595 O 0.52835 0.04652 0.01623 0.0
O596 O 0.5707 0.08112 0.0374 0.0
O597 O 0.55679 1.00362 0.07305 0.0
O598 O 0.57802 0.03641 0.09048 0.0
O599 O 0.55287 0.06226 0.06316 0.0
C600 C 0.58259 0.06816 0.95258 0.0
C601 C 0.57472 0.0583 0.92947 0.0
C602 C 0.62061 0.07661 0.94215 0.0
C603 C 0.58968 0.0574 0.91285 0.0
C604 C 0.6057 0.07727 0.9588 0.0
C605 C 0.61275 0.06656 0.91907 0.0
C606 C 0.56677 0.0679 0.97016 0.0
C607 C 0.51754 0.03211 0.02807 0.0
H608 H 0.52261 0.01842 0.09013 0.0
H609 H 0.5561 0.02406 0.16977 0.0
H610 H 0.50038 0.02445 0.12229 0.0
H611 H 0.57827 0.01793 0.13747 0.0
H612 H 0.55701 0.05112 0.92431 0.0
H613 H 0.63833 0.08362 0.94739 0.0
H614 H 0.58321 0.04977 0.89509 0.0
H615 H 0.61236 0.08475 0.97654 0.0
Eu616 Eu 0.33026 0.33273 0.30432 0.0
Eu617 Eu 0.30179 0.28137 0.27862 0.0
C618 C 0.31474 0.32099 0.24957 0.0
C619 C 0.34261 0.39573 0.32332 0.0
C620 C 0.32001 0.39412 0.31689 0.0
C621 C 0.35101 0.43639 0.32446 0.0
C622 C 0.31297 0.41341 0.31401 0.0
C623 C 0.35805 0.41697 0.32739 0.0
C624 C 0.32842 0.43472 0.3174 0.0
C625 C 0.35002 0.37485 0.32362 0.0
O626 O 0.33714 0.27865 0.2851 0.0
O627 O 0.35511 0.31596 0.28697 0.0
C628 C 0.35496 0.29428 0.28316 0.0
O629 O 0.33488 0.31073 0.33011 0.0
O630 O 0.29725 0.25015 0.2528 0.0
O631 O 0.27209 0.25351 0.27602 0.0
O632 O 0.30349 0.28182 0.31689 0.0
C633 C 0.31969 0.29295 0.33317 0.0
O634 O 0.29472 0.32873 0.31253 0.0
O635 O 0.27768 0.30363 0.27982 0.0
O636 O 0.3123 0.29926 0.24969 0.0
O637 O 0.33815 0.36051 0.33443 0.0
O638 O 0.35422 0.36474 0.30373 0.0
O639 O 0.31661 0.33603 0.26893 0.0
C640 C 0.28191 0.21873 0.26846 0.0
C641 C 0.29609 0.22046 0.2884 0.0
C642 C 0.27516 0.17762 0.26162 0.0
C643 C 0.29999 0.20098 0.29482 0.0
C644 C 0.2712 0.19724 0.25522 0.0
C645 C 0.28987 0.17935 0.28132 0.0
C646 C 0.27973 0.23961 0.26115 0.0
C647 C 0.27668 0.31831 0.29842 0.0
H648 H 0.30789 0.37777 0.31331 0.0
H649 H 0.36326 0.4526 0.32727 0.0
H650 H 0.29557 0.41139 0.30808 0.0
H651 H 0.37559 0.41843 0.3322 0.0
H652 H 0.30471 0.23698 0.29863 0.0
H653 H 0.26706 0.16115 0.25095 0.0
H654 H 0.31177 0.20299 0.30979 0.0
H655 H 0.26026 0.19569 0.23973 0.0
Eu656 Eu 0.57276 0.56477 0.05101 0.0
Eu657 Eu 0.58749 0.51931 0.02824 0.0
C658 C 0.61957 0.56861 0.02757 0.0
C659 C 0.56207 0.62257 0.05424 0.0
C660 C 0.57323 0.64454 0.06612 0.0
C661 C 0.55646 0.63774 0.01984 0.0
C662 C 0.57644 0.66289 0.05483 0.0
C663 C 0.55345 0.61937 0.03106 0.0
C664 C 0.5684 0.6596 0.03146 0.0
C665 C 0.56176 0.60291 0.0653 0.0
O666 O 0.59596 0.52206 0.06753 0.0
O667 O 0.59257 0.55794 0.0825 0.0
C668 C 0.59872 0.53927 0.08537 0.0
O669 O 0.54758 0.53682 0.06168 0.0
O670 O 0.60958 0.49624 0.02818 0.0
O671 O 0.58026 0.48706 1.00342 0.0
O672 O 0.55109 0.50792 0.03326 0.0
C673 C 0.53999 0.51616 0.04941 0.0
O674 O 0.5566 0.55617 1.01296 0.0
O675 O 0.57656 0.53192 0.99591 0.0
O676 O 0.61802 0.54677 0.02604 0.0
O677 O 0.54721 0.58387 0.05595 0.0
O678 O 0.58135 0.59969 0.07084 0.0
O679 O 0.60334 0.5779 0.03406 0.0
C680 C 0.58839 0.45838 0.02146 0.0
C681 C 0.56708 0.45261 0.02894 0.0
C682 C 0.59726 0.42615 0.03483 0.0
C683 C 0.56101 0.43398 0.03949 0.0
C684 C 0.60331 0.44481 0.02417 0.0
C685 C 0.57618 0.42081 0.04303 0.0
C686 C 0.59583 0.47987 1.01341 0.0
C687 C 0.56224 0.5447 0.99399 0.0
H688 H 0.58015 0.64738 0.08394 0.0
H689 H 0.55029 0.63464 1.00177 0.0
H690 H 0.58554 0.6796 0.06427 0.0
H691 H 0.54503 0.60256 0.02132 0.0
H692 H 0.55531 0.46292 0.02728 0.0
H693 H 0.60943 0.4165 0.03751 0.0
H694 H 0.54453 0.43014 0.04526 0.0
H695 H 0.61992 0.44914 0.01879 0.0
Eu696 Eu 0.84783 0.31419 0.26785 0.0
Eu697 Eu 0.79935 0.28407 0.27162 0.0
C698 C 0.82557 0.32078 0.31544 0.0
C699 C 0.90779 0.32846 0.25763 0.0
C700 C 0.90665 0.30511 0.25415 0.0
C701 C 0.94773 0.33619 0.25556 0.0
C702 C 0.92611 0.29744 0.25293 0.0
C703 C 0.92821 0.34389 0.25728 0.0
C704 C 0.94708 0.31303 0.25486 0.0
C705 C 0.88825 0.33657 0.26445 0.0
O706 O 0.79258 0.3202 0.27108 0.0
O707 O 0.8255 0.33893 0.26045 0.0
C708 C 0.80478 0.33897 0.26553 0.0
O709 O 0.8408 0.28871 0.23446 0.0
O710 O 0.77611 0.26458 0.29128 0.0
O711 O 0.76483 0.26889 0.25742 0.0
O712 O 0.80366 0.27205 0.23416 0.0
C713 C 0.82234 0.27412 0.22449 0.0
O714 O 0.85539 0.28025 0.27632 0.0
O715 O 0.82021 0.25664 0.27019 0.0
O716 O 0.81339 0.29988 0.30857 0.0
O717 O 0.87174 0.33269 0.24822 0.0
O718 O 0.8815 0.33142 0.28369 0.0
O719 O 0.83834 0.33061 0.3016 0.0
C720 C 0.73942 0.26894 0.28516 0.0
C721 C 0.73487 0.2895 0.28194 0.0
C722 C 0.70421 0.25921 0.30123 0.0
C723 C 0.71462 0.2943 0.28716 0.0
C724 C 0.72439 0.25424 0.29563 0.0
C725 C 0.69862 0.27879 0.29603 0.0
C726 C 0.75899 0.26216 0.27625 0.0
C727 C 0.84221 0.25914 0.27339 0.0
H728 H 0.89089 0.29292 0.25405 0.0
H729 H 0.96348 0.3486 0.25636 0.0
H730 H 0.92472 0.27954 0.25253 0.0
H731 H 0.92928 0.36197 0.25961 0.0
H732 H 0.74643 0.3013 0.27421 0.0
H733 H 0.69255 0.24715 0.30858 0.0
H734 H 0.711 0.30944 0.28266 0.0
H735 H 0.72784 0.23848 0.29862 0.0
Eu736 Eu 0.06471 0.52373 0.55215 0.0
Eu737 Eu 0.06426 0.54673 0.50732 0.0
C738 C 0.06058 0.57465 0.55708 0.0
C739 C 0.04931 0.5058 0.6072 0.0
C740 C 0.02775 0.50906 0.60351 0.0
C741 C 0.04522 0.50806 0.64777 0.0
C742 C 1.01505 0.51199 0.62191 0.0
C743 C 0.05785 0.50496 0.62932 0.0
C744 C 0.02388 0.51201 0.64428 0.0
C745 C 0.06384 0.50595 0.58869 0.0
O746 O 0.09989 0.54299 0.51308 0.0
O747 O 0.10118 0.54262 0.55153 0.0
C748 C 0.11152 0.54489 0.533 0.0
O749 O 0.07554 0.5001 0.52438 0.0
O750 O 0.07582 0.57602 0.49167 0.0
O751 O 0.05323 0.54559 0.47133 0.0
O752 O 0.05758 0.5088 0.49381 0.0
C753 C 0.06752 0.49517 0.50268 0.0
O754 O 0.02771 0.51497 0.53756 0.0
O755 O 0.0285 0.54283 0.51655 0.0
O756 O 0.07065 0.57543 0.53839 0.0
O757 O 0.05458 0.49447 0.56831 0.0
O758 O 0.07633 0.52599 0.58804 0.0
O759 O 0.05309 0.55535 0.56349 0.0
C760 C 0.08163 0.56583 0.45252 0.0
C761 C 0.10363 0.57963 0.45668 0.0
C762 C 0.0882 0.5522 0.41312 0.0
C763 C 0.11774 0.57967 0.43925 0.0
C764 C 0.07402 0.55225 0.43052 0.0
C765 C 0.1102 0.5659 0.41735 0.0
C766 C 0.06678 0.5652 0.47107 0.0
C767 C 0.01719 0.52719 0.52674 0.0
H768 H 0.02104 0.51013 0.58656 0.0
H769 H 0.0523 0.5078 0.66485 0.0
H770 H 0.99875 0.51523 0.61882 0.0
H771 H 0.07454 0.50266 0.63245 0.0
H772 H 0.11006 0.59034 0.47342 0.0
H773 H 0.08186 0.54169 0.39626 0.0
H774 H 0.13466 0.5903 0.443 0.0
H775 H 0.05711 0.5416 0.42678 0.0
Eu776 Eu 0.79864 0.80548 0.28443 0.0
Eu777 Eu 0.8481 0.79776 0.29019 0.0
C778 C 0.8043 0.75382 0.28969 0.0
C779 C 0.73902 0.80743 0.29413 0.0
C780 C 0.74183 0.80396 0.31672 0.0
C781 C 0.6996 0.80415 0.29709 0.0
C782 C 0.72361 0.80084 0.32955 0.0
C783 C 0.71785 0.80739 0.28434 0.0
C784 C 0.70233 0.80096 0.31986 0.0
C785 C 0.75808 0.81116 0.28072 0.0
O786 O 0.84265 0.79757 0.25221 0.0
O787 O 0.80483 0.79355 0.24772 0.0
C788 C 0.8238 0.79369 0.23899 0.0
O789 O 0.82032 0.83976 0.27836 0.0
O790 O 0.8709 0.77602 0.28246 0.0
O791 O 0.88322 0.80927 0.30461 0.0
O792 O 0.85498 0.83688 0.29126 0.0
C793 C 0.84195 0.84933 0.28429 0.0
O794 O 0.80892 0.81675 0.32282 0.0
O795 O 0.83815 0.80023 0.32644 0.0
O796 O 0.82561 0.76099 0.28647 0.0
O797 O 0.77549 0.82713 0.29068 0.0
O798 O 0.7635 0.79291 0.27056 0.0
O799 O 0.79177 0.76877 0.29211 0.0
C800 C 0.90764 0.79521 0.28004 0.0
C801 C 0.90754 0.80673 0.2617 0.0
C802 C 0.94249 0.7865 0.27009 0.0
C803 C 0.92478 0.8079 0.24744 0.0
C804 C 0.92535 0.78542 0.28435 0.0
C805 C 0.94218 0.79736 0.25123 0.0
C806 C 0.88841 0.79131 0.2933 0.0
C807 C 0.82361 0.81067 0.33565 0.0
H808 H 0.75812 0.80378 0.32444 0.0
H809 H 0.68344 0.80461 0.28931 0.0
H810 H 0.72612 0.79821 0.34697 0.0
H811 H 0.71548 0.81005 0.26691 0.0
H812 H 0.89381 0.81419 0.25803 0.0
H813 H 0.95587 0.77854 0.27364 0.0
H814 H 0.92405 0.81627 0.23298 0.0
H815 H 0.92559 0.77639 0.29837 0.0
Eu816 Eu 0.83199 0.30419 0.74475 0.0
Eu817 Eu 0.80443 0.29517 0.78978 0.0
C818 C 0.78484 0.3169 0.75098 0.0
C819 C 0.84374 0.32905 0.69286 0.0
C820 C 0.82582 0.33908 0.69704 0.0
C821 C 0.8485 0.34517 0.65858 0.0
C822 C 0.81899 0.3517 0.6819 0.0
C823 C 0.85516 0.33229 0.67365 0.0
C824 C 0.83014 0.35485 0.66235 0.0
C825 C 0.8496 0.31443 0.70809 0.0
O826 O 0.7884 0.26861 0.75832 0.0
O827 O 0.81974 0.26634 0.7408 0.0
C828 C 0.79953 0.25688 0.74492 0.0
O829 O 0.85702 0.29623 0.76931 0.0
O830 O 0.77939 0.272 0.80427 0.0
O831 O 0.79717 0.30448 0.82528 0.0
O832 O 0.8322 0.27764 0.79115 0.0
C833 C 0.8523 0.2834 0.7847 0.0
O834 O 0.83272 0.33776 0.76742 0.0
O835 O 0.83259 0.32646 0.80188 0.0
O836 O 0.78721 0.31767 0.77327 0.0
O837 O 0.8582 0.32478 0.72902 0.0
O838 O 0.83414 0.29591 0.70783 0.0
O839 O 0.79676 0.30678 0.73699 0.0
C840 C 0.78845 0.27267 0.8435 0.0
C841 C 0.80989 0.27721 0.8554 0.0
C842 C 0.77531 0.24336 0.86531 0.0
C843 C 0.81394 0.26504 0.87229 0.0
C844 C 0.77125 0.25564 0.84858 0.0
C845 C 0.79669 0.24793 0.87749 0.0
C846 C 0.78393 0.28455 0.82493 0.0
C847 C 0.83692 0.3425 0.78991 0.0
H848 H 0.81686 0.33683 0.71186 0.0
H849 H 0.85779 0.34756 0.644 0.0
H850 H 0.80462 0.35852 0.68528 0.0
H851 H 0.86907 0.32472 0.6702 0.0
H852 H 0.82355 0.29011 0.85163 0.0
H853 H 0.7617 0.23003 0.86844 0.0
H854 H 0.83054 0.26924 0.88144 0.0
H855 H 0.75467 0.25165 0.83939 0.0
Eu856 Eu 0.83528 0.83079 0.80322 0.0
Eu857 Eu 0.80337 0.78099 0.77754 0.0
C858 C 0.8173 0.82086 0.74892 0.0
C859 C 0.85048 0.89337 0.82417 0.0
C860 C 0.82764 0.89265 0.82123 0.0
C861 C 0.85933 0.93356 0.82284 0.0
C862 C 0.82067 0.91206 0.81871 0.0
C863 C 0.86632 0.91401 0.8254 0.0
C864 C 0.83641 0.93264 0.81894 0.0
C865 C 0.85739 0.872 0.82302 0.0
O866 O 0.83811 0.77581 0.78249 0.0
O867 O 0.85799 0.81247 0.78423 0.0
C868 C 0.85648 0.79052 0.78012 0.0
O869 O 0.83885 0.80717 0.8278 0.0
O870 O 0.79658 0.74965 0.75148 0.0
O871 O 0.77269 0.75451 0.77581 0.0
O872 O 0.80478 0.78227 0.81588 0.0
C873 C 0.82199 0.79128 0.83159 0.0
O874 O 0.80055 0.82924 0.81272 0.0
O875 O 0.78085 0.80494 0.78061 0.0
O876 O 0.8132 0.79889 0.74848 0.0
O877 O 0.84603 0.85755 0.83408 0.0
O878 O 0.86014 0.86217 0.80242 0.0
O879 O 0.82125 0.83577 0.76862 0.0
C880 C 0.78037 0.71867 0.76735 0.0
C881 C 0.79312 0.71959 0.78803 0.0
C882 C 0.77492 0.67768 0.75825 0.0
C883 C 0.79711 0.6998 0.7936 0.0
C884 C 0.77093 0.69762 0.75266 0.0
C885 C 0.78849 0.67866 0.77856 0.0
C886 C 0.77908 0.73999 0.76045 0.0
C887 C 0.78172 0.82004 0.79948 0.0
H888 H 0.81512 0.87679 0.81984 0.0
H889 H 0.87185 0.9492 0.82323 0.0
H890 H 0.80292 0.91053 0.81524 0.0
H891 H 0.88403 0.91479 0.82745 0.0
H892 H 0.80078 0.73578 0.79944 0.0
H893 H 0.7679 0.66161 0.74642 0.0
H894 H 0.80798 0.70129 0.80912 0.0
H895 H 0.76114 0.69669 0.73658 0.0
Eu896 Eu 0.57897 0.58004 0.54915 0.0
Eu897 Eu 0.55366 0.52792 0.53206 0.0
C898 C 0.58386 0.5533 0.4952 0.0
C899 C 0.5878 0.64369 0.56924 0.0
C900 C 0.56523 0.64298 0.56373 0.0
C901 C 0.59553 0.68455 0.5825 0.0
C902 C 0.55821 0.6631 0.56601 0.0
C903 C 0.60266 0.66439 0.57973 0.0
C904 C 0.57359 0.6843 0.57418 0.0
C905 C 0.59638 0.62379 0.56072 0.0
O906 O 0.59018 0.52617 0.53979 0.0
O907 O 0.60839 0.56385 0.55175 0.0
C908 C 0.60893 0.54232 0.5461 0.0
O909 O 0.56639 0.57162 0.58346 0.0
O910 O 0.53459 0.49831 0.50647 0.0
O911 O 0.54178 0.49542 0.5419 0.0
O912 O 0.54135 0.53784 0.56826 0.0
C913 C 0.54934 0.55503 0.58605 0.0
O914 O 0.54175 0.57989 0.54638 0.0
O915 O 0.52637 0.5453 0.52304 0.0
O916 O 0.57185 0.53417 0.49988 0.0
O917 O 0.59778 0.60994 0.57466 0.0
O918 O 0.58814 0.61304 0.53984 0.0
O919 O 0.58681 0.57255 0.51074 0.0
C920 C 0.54043 0.46341 0.51348 0.0
C921 C 0.56284 0.46288 0.51748 0.0
C922 C 0.52988 0.42219 0.50294 0.0
C923 C 0.56858 0.4421 0.51548 0.0
C924 C 0.52411 0.44306 0.50529 0.0
C925 C 0.55201 0.42144 0.50917 0.0
C926 C 0.53372 0.48463 0.52097 0.0
C927 C 0.5242 0.56503 0.53427 0.0
H928 H 0.55341 0.62707 0.55584 0.0
H929 H 0.60765 0.70047 0.58964 0.0
H930 H 0.54121 0.66199 0.55934 0.0
H931 H 0.62008 0.66517 0.58439 0.0
H932 H 0.57568 0.47849 0.52374 0.0
H933 H 0.51678 0.40666 0.49747 0.0
H934 H 0.58575 0.44239 0.52066 0.0
H935 H 0.50673 0.44323 0.50195 0.0
Eu936 Eu 0.09281 0.53769 0.02136 0.0
Eu937 Eu 0.04381 0.53722 0.04257 0.0
C938 C 0.08163 0.51967 0.06746 0.0
C939 C 0.14922 0.52316 1.0132 0.0
C940 C 0.16183 0.52842 0.0349 0.0
C941 C 0.16975 0.49465 1.00043 0.0
C942 C 0.17821 0.51697 0.03928 0.0
C943 C 0.15341 0.50619 0.99601 0.0
C944 C 0.1824 0.49991 0.02212 0.0
C945 C 0.13203 0.53543 1.00821 0.0
O946 O 0.06175 0.57372 0.04726 0.0
O947 O 0.09779 0.56995 0.04853 0.0
C948 C 0.08323 0.58231 0.05274 0.0
O949 O 0.07751 0.55789 0.99992 0.0
O950 O 0.02409 0.54816 0.06969 0.0
O951 O 1.00758 0.52441 0.0385 0.0
O952 O 0.0409 0.54779 1.00846 0.0
C953 C 0.05624 0.55768 0.99669 0.0
O954 O 0.06658 0.50857 0.9995 0.0
O955 O 0.04387 0.50118 0.0275 0.0
O956 O 0.06718 0.53224 0.07073 0.0
O957 O 0.11318 0.52328 0.99667 0.0
O958 O 0.12898 0.55105 0.02483 0.0
O959 O 0.08946 0.51545 0.04757 0.0
C960 C 0.98935 0.55202 0.05469 0.0
C961 C 0.99289 0.56733 0.03965 0.0
C962 C 0.95576 0.56389 0.06449 0.0
C963 C 0.9779 0.58075 0.03694 0.0
C964 C 0.97074 0.5504 0.0671 0.0
C965 C 0.95915 0.57922 0.04935 0.0
C966 C 1.00505 0.53779 0.05736 0.0
C967 C 0.05122 0.49461 1.00782 0.0
H968 H 0.15918 0.54149 0.04855 0.0
H969 H 0.1723 0.48144 0.98687 0.0
H970 H 0.18784 0.52181 0.05606 0.0
H971 H 0.14402 0.50181 0.97911 0.0
H972 H 1.00728 0.56887 0.03002 0.0
H973 H 0.94136 0.56209 0.07409 0.0
H974 H 0.98115 0.59255 0.02536 0.0
H975 H 0.96774 0.53865 0.07875 0.0
H976 H 0.04067 0.22983 0.95604 0.0
H977 H 1.00169 0.26528 1.00055 0.0
H978 H 0.05531 0.21671 0.98849 0.0
H979 H 0.01668 0.25209 0.03331 0.0
H980 H 0.03146 0.19421 0.07284 0.0
H981 H 0.01623 0.21502 0.04706 0.0
H982 H 0.08126 0.23562 0.02404 0.0
H983 H 0.09619 0.21403 0.0484 0.0
C984 C 0.03513 0.23476 0.97273 0.0
C985 C 0.02013 0.24873 0.97571 0.0
C986 C 0.04371 0.22743 0.99139 0.0
C987 C 0.03753 0.23387 1.01351 0.0
C988 C 0.02183 0.24706 0.01645 0.0
C989 C 1.01325 0.25452 0.9977 0.0
C990 C 0.04261 0.20352 0.06259 0.0
C991 C 0.06491 0.20176 0.06226 0.0
C992 C 0.03389 0.21557 0.04797 0.0
C993 C 0.04744 0.22623 0.03304 0.0
C994 C 0.07032 0.22697 0.03494 0.0
C995 C 0.07896 0.21482 0.0493 0.0
H996 H 0.19806 0.83335 0.15203 0.0
H997 H 0.15146 0.8306 0.20337 0.0
H998 H 0.22883 0.84042 0.18204 0.0
H999 H 0.18239 0.83812 0.23347 0.0
H1000 H 0.23474 0.8036 0.26385 0.0
H1001 H 0.20442 0.81174 0.2414 0.0
H1002 H 0.25192 0.86305 0.21682 0.0
H1003 H 0.28231 0.85472 0.23902 0.0
C1004 C 0.19443 0.835 0.16978 0.0
C1005 C 0.17228 0.83083 0.17525 0.0
C1006 C 0.21212 0.83917 0.18705 0.0
C1007 C 0.20796 0.83935 0.21009 0.0
C1008 C 0.18602 0.83756 0.2158 0.0
C1009 C 0.16834 0.83334 0.19854 0.0
C1010 C 0.23868 0.81696 0.25407 0.0
C1011 C 0.26094 0.82817 0.25286 0.0
C1012 C 0.22128 0.82177 0.24132 0.0
C1013 C 0.22582 0.83792 0.22716 0.0
C1014 C 0.24795 0.8503 0.2273 0.0
C1015 C 0.26534 0.84549 0.24004 0.0
H1016 H 0.52705 0.86551 0.48659 0.0
H1017 H 0.50877 0.87596 0.41862 0.0
H1018 H 0.5259 0.90418 0.50307 0.0
H1019 H 0.50734 0.91484 0.43533 0.0
H1020 H 0.55009 0.98807 0.47241 0.0
H1021 H 0.53811 0.94838 0.45287 0.0
H1022 H 0.50297 0.93192 0.51055 0.0
H1023 H 0.51528 0.9717 0.53039 0.0
C1024 C 0.52243 0.87595 0.47519 0.0
C1025 C 0.51838 0.86782 0.45125 0.0
C1026 C 0.52151 0.89805 0.48469 0.0
C1027 C 0.5166 0.91254 0.47047 0.0
C1028 C 0.51136 0.90405 0.44665 0.0
C1029 C 0.51214 0.88182 0.43712 0.0
C1030 C 0.53949 0.97609 0.48079 0.0
C1031 C 0.53403 0.98291 0.50315 0.0
C1032 C 0.53244 0.95336 0.46947 0.0
C1033 C 0.5198 0.93704 0.4803 0.0
C1034 C 0.51297 0.94414 0.50196 0.0
C1035 C 0.52 0.96691 0.51328 0.0
H1036 H 0.56322 0.27595 0.70631 0.0
H1037 H 0.54087 0.31112 0.6562 0.0
H1038 H 0.52964 0.27649 0.72508 0.0
H1039 H 0.50672 0.31136 0.67505 0.0
H1040 H 0.46343 0.32936 0.73534 0.0
H1041 H 0.495 0.32878 0.71248 0.0
H1042 H 0.48967 0.25859 0.71695 0.0
H1043 H 0.45843 0.25922 0.73977 0.0
C1044 C 0.55106 0.28371 0.69919 0.0
C1045 C 0.55469 0.29344 0.6797 0.0
C1046 C 0.53171 0.28388 0.7099 0.0
C1047 C 0.51544 0.29378 0.70143 0.0
C1048 C 0.51904 0.30369 0.682 0.0
C1049 C 0.5385 0.30345 0.67117 0.0
C1050 C 0.4689 0.31377 0.73119 0.0
C1051 C 0.45876 0.29446 0.73968 0.0
C1052 C 0.4869 0.31342 0.71806 0.0
C1053 C 0.49498 0.29373 0.71319 0.0
C1054 C 0.48415 0.27417 0.72087 0.0
C1055 C 0.46629 0.27454 0.73397 0.0
H1056 H 0.02116 0.8242 0.62514 0.0
H1057 H 0.08113 0.80413 0.6064 0.0
H1058 H 0.02793 0.85246 0.60066 0.0
H1059 H 0.08752 0.83175 0.5816 0.0
H1060 H 0.10731 0.90279 0.56492 0.0
H1061 H 0.09902 0.87238 0.58641 0.0
H1062 H 0.02908 0.85749 0.56098 0.0
H1063 H 0.03742 0.88818 0.53955 0.0
C1064 C 0.03563 0.82566 0.61563 0.0
C1065 C 0.05071 0.81211 0.61788 0.0
C1066 C 0.03945 0.84175 0.6015 0.0
C1067 C 0.05838 0.84449 0.5893 0.0
C1068 C 0.07304 0.83042 0.5911 0.0
C1069 C 0.0693 0.81449 0.60526 0.0
C1070 C 0.09023 0.89277 0.56357 0.0
C1071 C 0.07303 0.89786 0.5505 0.0
C1072 C 0.08545 0.87534 0.57593 0.0
C1073 C 0.06337 0.86249 0.57544 0.0
C1074 C 0.04621 0.86729 0.562 0.0
C1075 C 0.05099 0.8848 0.54968 0.0
H1076 H 0.52439 0.77604 0.85327 0.0
H1077 H 0.5718 0.79572 0.80597 0.0
H1078 H 0.49375 0.76984 0.82313 0.0
H1079 H 0.54138 0.78827 0.77529 0.0
H1080 H 0.4866 0.82411 0.7547 0.0
H1081 H 0.51753 0.81228 0.7715 0.0
H1082 H 0.47131 0.75415 0.78732 0.0
H1083 H 0.44021 0.76681 0.77155 0.0
C1084 C 0.52823 0.77799 0.8361 0.0
C1085 C 0.55025 0.7868 0.83194 0.0
C1086 C 0.5107 0.77435 0.81871 0.0
C1087 C 0.51508 0.77915 0.79687 0.0
C1088 C 0.5374 0.7851 0.79208 0.0
C1089 C 0.55482 0.78924 0.80957 0.0
C1090 C 0.48308 0.80854 0.7613 0.0
C1091 C 0.46098 0.79676 0.76232 0.0
C1092 C 0.50086 0.80152 0.77073 0.0
C1093 C 0.49691 0.78244 0.78123 0.0
C1094 C 0.4749 0.76919 0.77984 0.0
C1095 C 0.45707 0.77632 0.77053 0.0
H1096 H 0.52099 0.18054 0.15666 0.0
H1097 H 0.54648 0.21911 0.10601 0.0
H1098 H 0.52795 0.14652 0.13374 0.0
H1099 H 0.55229 0.18473 0.08223 0.0
H1100 H 0.58348 0.12515 0.05826 0.0
H1101 H 0.57552 0.1596 0.07981 0.0
H1102 H 0.51654 0.11851 0.10087 0.0
H1103 H 0.52537 0.08431 0.08058 0.0
C1104 C 0.52764 0.18161 0.14034 0.0
C1105 C 0.53321 0.20247 0.13314 0.0
C1106 C 0.53156 0.16205 0.12708 0.0
C1107 C 0.54072 0.16275 0.10603 0.0
C1108 C 0.54567 0.18357 0.09854 0.0
C1109 C 0.54214 0.20326 0.11205 0.0
C1110 C 0.56888 0.12361 0.06757 0.0
C1111 C 0.55522 0.10212 0.06804 0.0
C1112 C 0.56416 0.14333 0.07978 0.0
C1113 C 0.54542 0.14193 0.09228 0.0
C1114 C 0.53145 0.12033 0.09204 0.0
C1115 C 0.53644 0.10068 0.08029 0.0
H1116 H 0.15414 0.26081 0.34139 0.0
H1117 H 0.15952 0.3314 0.37174 0.0
H1118 H 0.18749 0.27193 0.32262 0.0
H1119 H 0.19311 0.34261 0.35258 0.0
H1120 H 0.2679 0.34313 0.33834 0.0
H1121 H 0.23226 0.33839 0.35448 0.0
H1122 H 0.19977 0.29196 0.29168 0.0
H1123 H 0.23543 0.29629 0.27564 0.0
C1124 C 0.16244 0.27874 0.34406 0.0
C1125 C 0.15419 0.29522 0.3581 0.0
C1126 C 0.18144 0.28513 0.33307 0.0
C1127 C 0.19272 0.30817 0.33583 0.0
C1128 C 0.18472 0.32472 0.35012 0.0
C1129 C 0.16554 0.3183 0.3611 0.0
C1130 C 0.25308 0.33228 0.32775 0.0
C1131 C 0.25459 0.31971 0.30587 0.0
C1132 C 0.23264 0.32965 0.33701 0.0
C1133 C 0.21334 0.31443 0.32453 0.0
C1134 C 0.2145 0.3034 0.3019 0.0
C1135 C 0.23492 0.30601 0.29265 0.0
H1136 H 0.96626 0.08609 0.20529 0.0
H1137 H 1.00434 0.0431 0.2295 0.0
H1138 H 0.98469 0.08401 0.16981 0.0
H1139 H 0.02245 0.04057 0.19377 0.0
H1140 H 0.03724 0.02301 0.11582 0.0
H1141 H 0.01976 0.02556 0.15198 0.0
H1142 H 0.01812 0.09469 0.15036 0.0
H1143 H 0.03602 0.09226 0.11458 0.0
C1144 C 0.97861 0.07618 0.20331 0.0
C1145 C 0.98348 0.06497 0.22121 0.0
C1146 C 0.98943 0.07499 0.18258 0.0
C1147 C 1.00552 0.06203 0.17797 0.0
C1148 C 1.01027 0.05067 0.19582 0.0
C1149 C 0.99981 0.05228 0.21678 0.0
C1150 C 0.03335 0.0389 0.12308 0.0
C1151 C 0.03857 0.0574 0.1115 0.0
C1152 C 0.02319 0.04043 0.14425 0.0
C1153 C 0.01704 0.0604 0.15502 0.0
C1154 C 0.02209 0.0788 0.14325 0.0
C1155 C 0.03268 0.07743 0.1224 0.0
H1156 H 0.34008 0.65607 0.46708 0.0
H1157 H 0.2891 0.6832 0.50042 0.0
H1158 H 0.33774 0.67867 0.43732 0.0
H1159 H 0.28669 0.70528 0.47096 0.0
H1160 H 0.30333 0.76019 0.43021 0.0
H1161 H 0.30993 0.73824 0.45896 0.0
H1162 H 0.31038 0.68107 0.40496 0.0
H1163 H 0.30369 0.70311 0.37601 0.0
C1164 C 0.32843 0.66681 0.46807 0.0
C1165 C 0.31484 0.66789 0.48615 0.0
C1166 C 0.32702 0.67965 0.45101 0.0
C1167 C 0.31217 0.69391 0.45193 0.0
C1168 C 0.2986 0.69481 0.46997 0.0
C1169 C 0.2999 0.68199 0.48681 0.0
C1170 C 0.30474 0.74292 0.42442 0.0
C1171 C 0.30263 0.73329 0.40081 0.0
C1172 C 0.3086 0.73036 0.44091 0.0
C1173 C 0.31043 0.70783 0.43423 0.0
C1174 C 0.30919 0.69844 0.41063 0.0
C1175 C 0.30531 0.71105 0.39407 0.0
H1176 H 0.6876 1.00777 0.65448 0.0
H1177 H 0.6423 1.01329 0.70654 0.0
H1178 H 0.65689 1.0016 0.62467 0.0
H1179 H 0.61134 1.00645 0.6766 0.0
H1180 H 0.58172 0.04237 0.62324 0.0
H1181 H 0.60373 0.03263 0.6535 0.0
H1182 H 0.62165 0.98146 0.60325 0.0
H1183 H 0.60013 0.99168 0.57288 0.0
C1184 C 0.67093 1.00677 0.65953 0.0
C1185 C 0.66747 1.01158 0.68286 0.0
C1186 C 0.65323 1.00316 0.6424 0.0
C1187 C 0.63173 1.00408 0.6483 0.0
C1188 C 0.62783 1.00625 0.67155 0.0
C1189 C 0.64555 1.01003 0.68868 0.0
C1190 C 0.58994 0.0287 0.61872 0.0
C1191 C 0.58957 0.01814 0.59565 0.0
C1192 C 0.60246 0.02296 0.6361 0.0
C1193 C 0.61469 1.00641 0.63075 0.0
C1194 C 0.61278 0.99457 0.60788 0.0
C1195 C 0.60041 1.00042 0.59049 0.0
H1196 H 0.30472 0.35947 0.98203 0.0
H1197 H 0.36353 0.33327 0.9844 0.0
H1198 H 0.29862 0.3463 0.9403 0.0
H1199 H 0.35846 0.32143 0.94278 0.0
H1200 H 0.3381 0.28772 0.86835 0.0
H1201 H 0.34027 0.29709 0.91015 0.0
H1202 H 0.30961 0.35273 0.90553 0.0
H1203 H 0.30621 0.34225 0.86371 0.0
C1204 C 0.31637 0.3509 0.97362 0.0
C1205 C 0.33454 0.34734 0.98666 0.0
C1206 C 0.31304 0.34351 0.94954 0.0
C1207 C 0.32806 0.33276 0.93768 0.0
C1208 C 0.34613 0.32911 0.95094 0.0
C1209 C 0.34917 0.33607 0.975 0.0
C1210 C 0.33171 0.30188 0.87629 0.0
C1211 C 0.32203 0.31423 0.86259 0.0
C1212 C 0.33311 0.30745 0.90042 0.0
C1213 C 0.32534 0.32593 0.91171 0.0
C1214 C 0.31548 0.33816 0.89784 0.0
C1215 C 0.31366 0.33225 0.87369 0.0
H1216 H 1.01128 0.02135 0.3459 0.0
H1217 H 0.99444 0.08351 0.3755 0.0
H1218 H 0.02755 0.01913 0.38372 0.0
H1219 H 1.01122 0.08183 0.41334 0.0
H1220 H 0.02935 0.06747 0.48526 0.0
H1221 H 1.01306 0.0697 0.44745 0.0
H1222 H 0.05364 0.02747 0.41498 0.0
H1223 H 0.06936 0.02484 0.45286 0.0
C1224 C 1.01117 0.0348 0.36039 0.0
C1225 C 1.0013 0.05268 0.35688 0.0
C1226 C 0.02078 0.03361 0.38254 0.0
C1227 C 0.02119 0.05025 0.40271 0.0
C1228 C 1.01136 0.06822 0.39905 0.0
C1229 C 1.00171 0.06937 0.37689 0.0
C1230 C 0.03489 0.05857 0.47013 0.0
C1231 C 0.05096 0.04589 0.4729 0.0
C1232 C 0.02549 0.05998 0.44797 0.0
C1233 C 0.03156 0.04882 0.42703 0.0
C1234 C 0.04775 0.0362 0.42993 0.0
C1235 C 0.05711 0.03477 0.4521 0.0
H1236 H 0.34886 0.65687 0.63121 0.0
H1237 H 0.31462 0.69008 0.58746 0.0
H1238 H 0.34681 0.68607 0.66469 0.0
H1239 H 0.3124 0.71869 0.62065 0.0
H1240 H 0.28896 0.74847 0.6899 0.0
H1241 H 0.2922 0.71983 0.65661 0.0
H1242 H 0.36185 0.72917 0.67987 0.0
H1243 H 0.35878 0.75788 0.71285 0.0
C1244 C 0.34104 0.67038 0.62866 0.0
C1245 C 0.33199 0.67103 0.60653 0.0
C1246 C 0.33987 0.68712 0.64783 0.0
C1247 C 0.32926 0.70462 0.64535 0.0
C1248 C 0.32041 0.70532 0.62324 0.0
C1249 C 0.32189 0.68892 0.60414 0.0
C1250 C 0.30501 0.7446 0.68778 0.0
C1251 C 0.32363 0.75574 0.70396 0.0
C1252 C 0.30688 0.72817 0.66872 0.0
C1253 C 0.32729 0.72214 0.66562 0.0
C1254 C 0.34587 0.73325 0.68182 0.0
C1255 C 0.34411 0.74993 0.70061 0.0
H1256 H 0.6763 0.09375 0.80131 0.0
H1257 H 0.69879 0.03481 0.81245 0.0
H1258 H 0.65961 0.0954 0.83746 0.0
H1259 H 0.6817 0.03632 0.84871 0.0
H1260 H 0.61515 0.03015 0.88641 0.0
H1261 H 0.63957 0.02982 0.85555 0.0
H1262 H 0.67023 0.10129 0.88118 0.0
H1263 H 0.64583 0.10162 0.91205 0.0
C1264 C 0.6779 0.08131 0.81166 0.0
C1265 C 0.68868 0.06406 0.80406 0.0
C1266 C 0.66848 0.08235 0.8324 0.0
C1267 C 0.66935 0.06595 0.84578 0.0
C1268 C 0.68076 0.0491 0.8386 0.0
C1269 C 0.69059 0.0483 0.81797 0.0
C1270 C 0.62724 0.04571 0.8855 0.0
C1271 C 0.62853 0.06595 0.90143 0.0
C1272 C 0.64134 0.04547 0.86805 0.0
C1273 C 0.65674 0.06553 0.86607 0.0
C1274 C 0.65845 0.08562 0.88237 0.0
C1275 C 0.64456 0.08579 0.90001 0.0
H1276 H 0.31553 0.39256 0.13446 0.0
H1277 H 0.34222 0.33506 0.10909 0.0
H1278 H 0.30983 0.37957 0.17038 0.0
H1279 H 0.33714 0.32233 0.14549 0.0
H1280 H 0.3078 0.29437 0.20612 0.0
H1281 H 0.31124 0.30631 0.16936 0.0
H1282 H 0.32897 0.37673 0.20489 0.0
H1283 H 0.32486 0.36472 0.24165 0.0
C1284 C 0.32023 0.3771 0.13651 0.0
C1285 C 0.32938 0.36491 0.11872 0.0
C1286 C 0.31711 0.36972 0.15733 0.0
C1287 C 0.32317 0.34994 0.16119 0.0
C1288 C 0.332 0.3375 0.14322 0.0
C1289 C 0.335 0.34484 0.12228 0.0
C1290 C 0.31231 0.31243 0.20614 0.0
C1291 C 0.31598 0.32855 0.22701 0.0
C1292 C 0.31448 0.31931 0.18495 0.0
C1293 C 0.32049 0.34255 0.18389 0.0
C1294 C 0.32399 0.35868 0.20479 0.0
C1295 C 0.32172 0.35179 0.226 0.0
H1296 H 0.25262 0.03793 0.06753 0.0
H1297 H 0.22529 0.99091 1.0037 0.0
H1298 H 0.21627 0.04666 0.07177 0.0
H1299 H 0.18898 0.99971 1.00775 0.0
H1300 H 0.15174 0.07247 0.06303 0.0
H1301 H 0.18852 0.0646 0.05923 0.0
H1302 H 0.15674 0.99464 0.02796 0.0
H1303 H 0.12012 1.00258 0.03159 0.0
C1304 C 0.23896 0.02956 0.05421 0.0
C1305 C 0.24231 1.01369 0.03518 0.0
C1306 C 0.2179 0.03465 0.05662 0.0
C1307 C 0.19912 0.02393 0.04023 0.0
C1308 C 0.2026 1.00822 0.02108 0.0
C1309 C 0.22369 1.00327 0.01859 0.0
C1310 C 0.1525 0.05533 0.05551 0.0
C1311 C 0.13252 0.03824 0.04779 0.0
C1312 C 0.17381 0.05073 0.05334 0.0
C1313 C 0.17614 0.02889 0.04312 0.0
C1314 C 0.1561 1.01179 0.03559 0.0
C1315 C 0.13484 0.01633 0.03792 0.0
H1316 H 0.75892 0.63409 0.02612 0.0
H1317 H 0.72526 0.68064 1.00124 0.0
H1318 H 0.72316 0.60765 0.02614 0.0
H1319 H 0.68929 0.65368 1.00053 0.0
H1320 H 0.65643 0.55641 1.01075 0.0
H1321 H 0.69128 0.58148 1.00433 0.0
H1322 H 0.66509 0.64001 0.02716 0.0
H1323 H 0.63017 0.61502 0.03283 0.0
C1324 C 0.7439 0.63856 0.02026 0.0
C1325 C 0.74506 0.65966 1.01383 0.0
C1326 C 0.72329 0.62324 0.02013 0.0
C1327 C 0.70318 0.62845 1.01344 0.0
C1328 C 0.70437 0.6492 1.00618 0.0
C1329 C 0.72503 0.66463 1.00642 0.0
C1330 C 0.65804 0.57461 1.01421 0.0
C1331 C 0.64046 0.58362 0.02242 0.0
C1332 C 0.67811 0.58904 1.01065 0.0
C1333 C 0.68117 0.61288 1.01532 0.0
C1334 C 0.66335 0.62179 0.02302 0.0
C1335 C 0.64328 0.60739 0.02646 0.0
H1336 H 0.77188 0.47319 0.24439 0.0
H1337 H 0.73039 0.45281 0.29593 0.0
H1338 H 0.78661 0.43927 0.24284 0.0
H1339 H 0.74499 0.41885 0.29447 0.0
H1340 H 0.76434 0.34837 0.28001 0.0
H1341 H 0.74967 0.38224 0.28135 0.0
H1342 H 0.808 0.41504 0.2532 0.0
H1343 H 0.8226 0.38108 0.25195 0.0
C1344 C 0.76571 0.46164 0.25558 0.0
C1345 C 0.7495 0.46686 0.27036 0.0
C1346 C 0.77445 0.44167 0.25476 0.0
C1347 C 0.76755 0.42497 0.26846 0.0
C1348 C 0.75122 0.43023 0.28317 0.0
C1349 C 0.74268 0.45032 0.28415 0.0
C1350 C 0.77426 0.36265 0.27396 0.0
C1351 C 0.79508 0.36083 0.26572 0.0
C1352 C 0.76569 0.38271 0.27488 0.0
C1353 C 0.77708 0.40273 0.26744 0.0
C1354 C 0.79788 0.40078 0.25906 0.0
C1355 C 0.80656 0.38078 0.25837 0.0
H1356 H 0.87433 0.53554 0.532 0.0
H1357 H 0.87398 0.46529 0.50602 0.0
H1358 H 0.91568 0.54544 0.53528 0.0
H1359 H 0.91426 0.47503 0.50947 0.0
H1360 H 0.98676 0.49285 0.54036 0.0
H1361 H 0.94619 0.48652 0.53916 0.0
H1362 H 0.94929 0.54704 0.5115 0.0
H1363 H 0.99004 0.55335 0.51256 0.0
C1364 C 0.88284 0.52221 0.52695 0.0
C1365 C 0.8703 0.49955 0.51868 0.0
C1366 C 0.90665 0.52789 0.52879 0.0
C1367 C 0.91865 0.51101 0.52289 0.0
C1368 C 0.90599 0.48855 0.51461 0.0
C1369 C 0.88253 0.483 0.51246 0.0
C1370 C 0.97892 0.50488 0.53399 0.0
C1371 C 0.99203 0.5235 0.52632 0.0
C1372 C 0.95547 0.50122 0.53325 0.0
C1373 C 0.94408 0.51617 0.52511 0.0
C1374 C 0.95723 0.53516 0.51802 0.0
C1375 C 0.98072 0.53867 0.51846 0.0
H1376 H 0.37767 0.11055 0.33612 0.0
H1377 H 0.33737 0.05685 0.28239 0.0
H1378 H 0.35238 0.13462 0.33035 0.0
H1379 H 0.31201 0.08077 0.27688 0.0
H1380 H 0.29938 0.14466 0.25125 0.0
H1381 H 0.3167 0.1153 0.26051 0.0
H1382 H 0.31373 0.13936 0.33298 0.0
H1383 H 0.29611 0.16872 0.32369 0.0
C1384 C 0.36324 0.10376 0.32336 0.0
C1385 C 0.35967 0.08194 0.30952 0.0
C1386 C 0.34867 0.11747 0.32015 0.0
C1387 C 0.3303 0.10959 0.30306 0.0
C1388 C 0.3262 0.08738 0.28997 0.0
C1389 C 0.34072 0.07369 0.29318 0.0
C1390 C 0.30177 0.14327 0.26911 0.0
C1391 C 0.29656 0.15913 0.28675 0.0
C1392 C 0.31175 0.12647 0.27443 0.0
C1393 C 0.31676 0.1252 0.2975 0.0
C1394 C 0.31039 0.14021 0.31508 0.0
C1395 C 0.3003 0.15697 0.30975 0.0
H1396 H 0.37714 0.17679 0.51124 0.0
H1397 H 0.33878 0.13775 0.55523 0.0
H1398 H 0.40657 0.1566 0.51517 0.0
H1399 H 0.36802 0.11801 0.55935 0.0
H1400 H 0.41414 0.0715 0.54613 0.0
H1401 H 0.3851 0.09045 0.53751 0.0
H1402 H 0.43496 0.15407 0.54537 0.0
H1403 H 0.46412 0.13505 0.55405 0.0
C1404 C 0.37492 0.16384 0.5216 0.0
C1405 C 0.35561 0.15888 0.5329 0.0
C1406 C 0.39182 0.15239 0.52398 0.0
C1407 C 0.38963 0.13565 0.53754 0.0
C1408 C 0.37014 0.13054 0.5485 0.0
C1409 C 0.3534 0.14199 0.54623 0.0
C1410 C 0.41893 0.08955 0.54616 0.0
C1411 C 0.44145 0.1018 0.55108 0.0
C1412 C 0.40228 0.10042 0.54114 0.0
C1413 C 0.40767 0.12383 0.54092 0.0
C1414 C 0.43025 0.13597 0.54517 0.0
C1415 C 0.44696 0.12508 0.5502 0.0
H1416 H 0.72191 0.6205 0.31561 0.0
H1417 H 0.76997 0.59873 0.27333 0.0
H1418 H 0.7389 0.65997 0.31472 0.0
H1419 H 0.7871 0.63871 0.27213 0.0
H1420 H 0.82404 0.7165 0.28373 0.0
H1421 H 0.80832 0.67645 0.28508 0.0
H1422 H 0.74518 0.69156 0.29855 0.0
H1423 H 0.76108 0.7315 0.29749 0.0
C1424 C 0.73626 0.6239 0.30608 0.0
C1425 C 0.7442 0.60535 0.29471 0.0
C1426 C 0.74611 0.64714 0.30535 0.0
C1427 C 0.76475 0.65381 0.29313 0.0
C1428 C 0.77304 0.63528 0.28201 0.0
C1429 C 0.76306 0.61185 0.28269 0.0
C1430 C 0.80676 0.71146 0.28705 0.0
C1431 C 0.79422 0.72822 0.29055 0.0
C1432 C 0.79749 0.68797 0.28771 0.0
C1433 C 0.77502 0.67952 0.29207 0.0
C1434 C 0.76253 0.6964 0.29552 0.0
C1435 C 0.77178 0.71983 0.29476 0.0
H1436 H 0.85643 0.4873 0.82962 0.0
H1437 H 0.92081 0.4741 0.84516 0.0
H1438 H 0.83862 0.447 0.82561 0.0
H1439 H 0.90287 0.43362 0.84086 0.0
H1440 H 0.85896 0.36005 0.83335 0.0
H1441 H 0.87271 0.40057 0.85167 0.0
H1442 H 0.84539 0.41898 0.79119 0.0
H1443 H 0.83202 0.37911 0.77301 0.0
C1444 C 0.86671 0.4759 0.83278 0.0
C1445 C 0.89007 0.48371 0.83705 0.0
C1446 C 0.85649 0.45286 0.83053 0.0
C1447 C 0.86947 0.43725 0.83243 0.0
C1448 C 0.89252 0.44536 0.8393 0.0
C1449 C 0.90278 0.46851 0.84166 0.0
C1450 C 0.8558 0.37285 0.82415 0.0
C1451 C 0.84463 0.36652 0.80171 0.0
C1452 C 0.86362 0.39591 0.83461 0.0
C1453 C 0.85983 0.41279 0.82293 0.0
C1454 C 0.84817 0.40631 0.80077 0.0
C1455 C 0.84076 0.38347 0.79024 0.0
H1456 H 0.14085 0.83742 0.05078 0.0
H1457 H 0.07699 0.82325 0.07795 0.0
H1458 H 0.1268 0.85974 0.02586 0.0
H1459 H 0.06303 0.84551 0.05304 0.0
H1460 H 0.03898 0.87743 0.99821 0.0
H1461 H 0.05404 0.84799 1.0113 0.0
H1462 H 0.11654 0.8974 0.03658 0.0
H1463 H 0.10148 0.92687 0.02433 0.0
C1464 C 0.12373 0.83881 0.05121 0.0
C1465 C 0.11008 0.82881 0.0665 0.0
C1466 C 0.11573 0.85156 0.03694 0.0
C1467 C 0.09385 0.85429 0.0375 0.0
C1468 C 0.07988 0.84342 0.05202 0.0
C1469 C 0.08795 0.83088 0.06646 0.0
C1470 C 0.05606 0.88193 1.00623 0.0
C1471 C 0.06885 0.90464 1.01057 0.0
C1472 C 0.06466 0.86506 1.01365 0.0
C1473 C 0.08632 0.87052 0.02521 0.0
C1474 C 0.09983 0.89268 0.02758 0.0
C1475 C 0.09117 0.90959 0.02042 0.0
H1476 H 0.93121 0.23797 0.88322 0.0
H1477 H 0.97913 0.27684 0.84684 0.0
H1478 H 0.90133 0.23668 0.85389 0.0
H1479 H 0.94924 0.27756 0.81862 0.0
H1480 H 0.89122 0.27596 0.76861 0.0
H1481 H 0.92045 0.2638 0.78909 0.0
H1482 H 0.88263 0.26327 0.84802 0.0
H1483 H 0.85335 0.27376 0.82717 0.0
C1484 C 0.93529 0.24596 0.8687 0.0
C1485 C 0.95727 0.25763 0.86724 0.0
C1486 C 0.9182 0.24554 0.85203 0.0
C1487 C 0.92264 0.25772 0.83422 0.0
C1488 C 0.94503 0.2679 0.83192 0.0
C1489 C 0.96222 0.26759 0.84816 0.0
C1490 C 0.88922 0.27294 0.78586 0.0
C1491 C 0.87006 0.27576 0.7963 0.0
C1492 C 0.90595 0.26603 0.79764 0.0
C1493 C 0.90399 0.26235 0.82026 0.0
C1494 C 0.88462 0.26513 0.83044 0.0
C1495 C 0.86782 0.27147 0.81854 0.0
H1496 H 0.63101 0.23669 0.57753 0.0
H1497 H 0.61611 0.2217 0.64403 0.0
H1498 H 0.62787 0.19632 0.56254 0.0
H1499 H 0.6133 0.18139 0.62898 0.0
H1500 H 0.57581 0.12358 0.54419 0.0
H1501 H 0.59005 0.16445 0.55824 0.0
H1502 H 0.63645 0.15211 0.60895 0.0
H1503 H 0.62245 0.11076 0.59432 0.0
C1504 C 0.6275 0.22487 0.58905 0.0
C1505 C 0.62346 0.23228 0.61185 0.0
C1506 C 0.62577 0.20183 0.58048 0.0
C1507 C 0.62039 0.18589 0.59466 0.0
C1508 C 0.6177 0.19344 0.61782 0.0
C1509 C 0.61907 0.21644 0.62631 0.0
C1510 C 0.58931 0.12961 0.5581 0.0
C1511 C 0.59801 0.11419 0.56834 0.0
C1512 C 0.59755 0.15294 0.566 0.0
C1513 C 0.61434 0.16131 0.58459 0.0
C1514 C 0.62351 0.14594 0.59453 0.0
C1515 C 0.61559 0.12244 0.58619 0.0
H1516 H 0.60755 0.79847 0.42358 0.0
H1517 H 0.5719 0.80068 0.35934 0.0
H1518 H 0.64065 0.79586 0.40387 0.0
H1519 H 0.60491 0.79859 0.33997 0.0
H1520 H 0.66012 0.77436 0.30629 0.0
H1521 H 0.62763 0.77241 0.32774 0.0
H1522 H 0.66859 0.82012 0.38568 0.0
H1523 H 0.70114 0.82183 0.36426 0.0
C1524 C 0.60676 0.79839 0.40533 0.0
C1525 C 0.58709 0.79978 0.39306 0.0
C1526 C 0.62572 0.79698 0.39405 0.0
C1527 C 0.62534 0.79691 0.37035 0.0
C1528 C 0.60563 0.79817 0.35814 0.0
C1529 C 0.58675 0.79955 0.36934 0.0
C1530 C 0.66216 0.78436 0.32364 0.0
C1531 C 0.68308 0.79839 0.33355 0.0
C1532 C 0.64358 0.78326 0.33591 0.0
C1533 C 0.64551 0.79628 0.35831 0.0
C1534 C 0.66662 0.80971 0.36854 0.0
C1535 C 0.68524 0.81073 0.35628 0.0
H1536 H 0.10497 0.22979 0.42881 0.0
H1537 H 0.06296 0.26861 0.46454 0.0
H1538 H 0.10146 0.20587 0.45757 0.0
H1539 H 0.05971 0.24483 0.49332 0.0
H1540 H 0.03539 0.17766 0.51931 0.0
H1541 H 0.04126 0.20475 0.49363 0.0
H1542 H 0.11181 0.20725 0.49904 0.0
H1543 H 0.10585 0.17978 0.52434 0.0
C1544 C 0.09515 0.23335 0.44287 0.0
C1545 C 0.08413 0.25102 0.44427 0.0
C1546 C 0.09326 0.21973 0.45942 0.0
C1547 C 0.08024 0.22345 0.47764 0.0
C1548 C 0.06962 0.2414 0.4793 0.0
C1549 C 0.07158 0.25507 0.46284 0.0
C1550 C 0.05215 0.1841 0.51508 0.0
C1551 C 0.07015 0.17661 0.52379 0.0
C1552 C 0.05555 0.19972 0.50054 0.0
C1553 C 0.07699 0.20806 0.49429 0.0
C1554 C 0.09507 0.20095 0.5034 0.0
C1555 C 0.0917 0.18543 0.51807 0.0
H1556 H 0.55794 0.25823 0.25405 0.0
H1557 H 0.59939 0.30843 0.22246 0.0
H1558 H 0.58887 0.2627 0.2834 0.0
H1559 H 0.63022 0.31276 0.25179 0.0
H1560 H 0.68391 0.31815 0.3058 0.0
H1561 H 0.64675 0.3221 0.29379 0.0
H1562 H 0.62319 0.24893 0.27456 0.0
H1563 H 0.66007 0.24489 0.28542 0.0
C1564 C 0.57344 0.27063 0.25366 0.0
C1565 C 0.57641 0.28256 0.23557 0.0
C1566 C 0.5911 0.2732 0.27054 0.0
C1567 C 0.61197 0.28787 0.26972 0.0
C1568 C 0.61426 0.30143 0.25295 0.0
C1569 C 0.59665 0.29876 0.23599 0.0
C1570 C 0.6707 0.30288 0.2994 0.0
C1571 C 0.67524 0.28122 0.296 0.0
C1572 C 0.64941 0.30519 0.29269 0.0
C1573 C 0.63222 0.28585 0.28296 0.0
C1574 C 0.63607 0.26417 0.28216 0.0
C1575 C 0.65736 0.26186 0.28849 0.0
H1576 H 0.61557 0.88003 0.96448 0.0
H1577 H 0.56702 0.87477 0.90687 0.0
H1578 H 0.60695 0.91488 0.9835 0.0
H1579 H 0.55788 0.90942 0.92631 0.0
H1580 H 0.56604 0.98577 0.95893 0.0
H1581 H 0.57274 0.95024 0.93819 0.0
H1582 H 0.57766 0.92703 1.00232 0.0
H1583 H 0.57171 0.96255 0.02295 0.0
C1584 C 0.60292 0.88621 0.95594 0.0
C1585 C 0.59194 0.87456 0.93419 0.0
C1586 C 0.59787 0.90616 0.96691 0.0
C1587 C 0.58157 0.91487 0.95653 0.0
C1588 C 0.57066 0.9033 0.9347 0.0
C1589 C 0.57582 0.88337 0.92362 0.0
C1590 C 0.56838 0.97296 0.96851 0.0
C1591 C 0.5686 0.97705 0.99258 0.0
C1592 C 0.57216 0.95259 0.95664 0.0
C1593 C 0.57606 0.9359 0.96864 0.0
C1594 C 0.57533 0.93973 0.9926 0.0
C1595 C 0.57177 0.96007 1.00442 0.0
H1596 H 0.95909 0.77945 0.69166 0.0
H1597 H 0.95836 0.72371 0.72676 0.0
H1598 H 0.92795 0.78806 0.71176 0.0
H1599 H 0.92735 0.73252 0.74699 0.0
H1600 H 0.85801 0.74647 0.76289 0.0
H1601 H 0.88703 0.73413 0.74144 0.0
H1602 H 0.92581 0.80388 0.7531 0.0
H1603 H 0.89708 0.81625 0.77431 0.0
C1604 C 0.95211 0.76885 0.70341 0.0
C1605 C 0.96131 0.75105 0.70779 0.0
C1606 C 0.9344 0.77388 0.71504 0.0
C1607 C 0.92551 0.76116 0.73119 0.0
C1608 C 0.93389 0.74258 0.73463 0.0
C1609 C 0.95168 0.73761 0.72309 0.0
C1610 C 0.87288 0.75911 0.76115 0.0
C1611 C 0.87515 0.78236 0.77016 0.0
C1612 C 0.88943 0.75204 0.74882 0.0
C1613 C 0.90842 0.76812 0.74524 0.0
C1614 C 0.91108 0.79119 0.7551 0.0
C1615 C 0.89467 0.79823 0.76746 0.0
H1616 H 0.15481 0.01676 0.87146 0.0
H1617 H 0.13842 0.0792 0.86349 0.0
H1618 H 0.13669 0.01766 0.90711 0.0
H1619 H 0.12038 0.08028 0.89916 0.0
H1620 H 0.10398 0.08788 0.97586 0.0
H1621 H 0.12147 0.08662 0.93991 0.0
H1622 H 0.10487 1.01337 0.92816 0.0
H1623 H 0.08727 1.01474 0.96414 0.0
C1624 C 0.14735 0.03079 0.87711 0.0
C1625 C 0.14847 0.04786 0.86374 0.0
C1626 C 0.13665 0.03129 0.89792 0.0
C1627 C 0.12657 0.04909 0.90706 0.0
C1628 C 0.12782 0.06622 0.89365 0.0
C1629 C 0.13826 0.06554 0.87269 0.0
C1630 C 0.10382 0.07136 0.96569 0.0
C1631 C 0.09366 0.05144 0.9737 0.0
C1632 C 0.114 0.0706 0.94458 0.0
C1633 C 0.11509 0.04986 0.93008 0.0
C1634 C 0.105 0.02992 0.9382 0.0
C1635 C 0.09454 0.03068 0.95918 0.0
H1636 H 0.80593 0.46057 0.59215 0.0
H1637 H 0.7799 0.39835 0.54159 0.0
H1638 H 0.81311 0.43857 0.6206 0.0
H1639 H 0.78621 0.37624 0.57031 0.0
H1640 H 0.8292 0.34632 0.61525 0.0
H1641 H 0.81731 0.36772 0.58841 0.0
H1642 H 0.79989 0.41321 0.64482 0.0
H1643 H 0.81328 0.39273 0.67187 0.0
C1644 C 0.80114 0.44216 0.58727 0.0
C1645 C 0.79254 0.43126 0.56449 0.0
C1646 C 0.80524 0.42948 0.60365 0.0
C1647 C 0.80061 0.40556 0.59774 0.0
C1648 C 0.7906 0.39464 0.57536 0.0
C1649 C 0.78674 0.40732 0.55892 0.0
C1650 C 0.82315 0.36107 0.62203 0.0
C1651 C 0.8224 0.3678 0.64584 0.0
C1652 C 0.8159 0.37315 0.60653 0.0
C1653 C 0.80745 0.39219 0.61433 0.0
C1654 C 0.80647 0.39879 0.63812 0.0
C1655 C 0.81392 0.38683 0.65366 0.0
H1656 H 0.45609 0.08031 0.41243 0.0
H1657 H 0.51233 0.0858 0.37263 0.0
H1658 H 0.48113 0.0871 0.44752 0.0
H1659 H 0.53785 0.09449 0.40783 0.0
H1660 H 0.56574 0.0611 0.46297 0.0
H1661 H 0.54712 0.07092 0.4305 0.0
H1662 H 0.50893 0.10582 0.47673 0.0
H1663 H 0.52667 0.09443 0.50893 0.0
C1664 C 0.47397 0.08411 0.41141 0.0
C1665 C 0.48237 0.08225 0.39 0.0
C1666 C 0.48845 0.08809 0.43155 0.0
C1667 C 0.51164 0.09077 0.43058 0.0
C1668 C 0.52009 0.09165 0.40922 0.0
C1669 C 0.50554 0.08698 0.38907 0.0
C1670 C 0.5537 0.07127 0.46615 0.0
C1671 C 0.54728 0.07666 0.48824 0.0
C1672 C 0.54306 0.07712 0.44755 0.0
C1673 C 0.52614 0.08895 0.4508 0.0
C1674 C 0.52132 0.09613 0.47339 0.0
C1675 C 0.53156 0.08974 0.49188 0.0
H1676 H 0.84386 0.73129 0.10235 0.0
H1677 H 0.796 0.76929 0.08762 0.0
H1678 H 0.84666 0.74781 0.14306 0.0
H1679 H 0.7991 0.78629 0.12875 0.0
H1680 H 0.78816 0.78436 0.20568 0.0
H1681 H 0.78788 0.77387 0.16403 0.0
H1682 H 0.85929 0.78169 0.17247 0.0
H1683 H 0.85955 0.79178 0.21414 0.0
C1684 C 0.83417 0.7435 0.10774 0.0
C1685 C 0.81961 0.74885 0.09159 0.0
C1686 C 0.83589 0.75312 0.1312 0.0
C1687 C 0.82305 0.76837 0.13936 0.0
C1688 C 0.80905 0.7744 0.12315 0.0
C1689 C 0.80743 0.76484 0.09952 0.0
C1690 C 0.80385 0.78399 0.19869 0.0
C1691 C 0.82385 0.78875 0.21343 0.0
C1692 C 0.80371 0.77813 0.17471 0.0
C1693 C 0.82354 0.7768 0.16475 0.0
C1694 C 0.84363 0.78219 0.17947 0.0
C1695 C 0.84378 0.78808 0.20344 0.0
H1696 H 0.13879 0.04724 0.73888 0.0
H1697 H 0.17931 1.00657 0.70407 0.0
H1698 H 0.12092 0.04941 0.70161 0.0
H1699 H 0.16152 1.00871 0.66682 0.0
H1700 H 0.11448 1.00173 0.59998 0.0
H1701 H 0.13125 0.99861 0.63736 0.0
H1702 H 0.12206 0.06448 0.66748 0.0
H1703 H 0.10527 0.0675 0.63003 0.0
C1704 C 0.14388 0.03847 0.72338 0.0
C1705 C 0.16073 0.02651 0.72531 0.0
C1706 C 0.13362 0.03994 0.70159 0.0
C1707 C 0.13938 0.02935 0.68025 0.0
C1708 C 0.15599 0.01706 0.68224 0.0
C1709 C 0.16642 1.01582 0.70402 0.0
C1710 C 0.11594 1.01566 0.61447 0.0
C1711 C 0.10817 0.03493 0.61121 0.0
C1712 C 0.12586 1.01392 0.63629 0.0
C1713 C 0.12845 0.03123 0.6564 0.0
C1714 C 0.12048 0.05042 0.65311 0.0
C1715 C 0.11078 0.05227 0.63121 0.0
H1716 H 0.79321 0.42456 0.41885 0.0
H1717 H 0.81785 0.3818 0.45897 0.0
H1718 H 0.79797 0.39954 0.38337 0.0
H1719 H 0.82233 0.35673 0.42358 0.0
H1720 H 0.80586 0.30601 0.35212 0.0
H1721 H 0.79926 0.32946 0.38782 0.0
H1722 H 0.83182 0.39022 0.36498 0.0
H1723 H 0.83867 0.36699 0.32963 0.0
C1724 C 0.79937 0.4097 0.4201 0.0
C1725 C 0.8052 0.40524 0.44176 0.0
C1726 C 0.80224 0.39544 0.39979 0.0
C1727 C 0.81063 0.37619 0.40066 0.0
C1728 C 0.81572 0.37133 0.4223 0.0
C1729 C 0.81323 0.38577 0.44258 0.0
C1730 C 0.81181 0.32435 0.35483 0.0
C1731 C 0.82296 0.33455 0.33803 0.0
C1732 C 0.808 0.33779 0.37526 0.0
C1733 C 0.81485 0.36172 0.37915 0.0
C1734 C 0.82608 0.37186 0.36241 0.0
C1735 C 0.83022 0.35848 0.34222 0.0
H1736 H 0.48775 0.05364 0.28468 0.0
H1737 H 0.42616 0.04547 0.24169 0.0
H1738 H 0.50724 0.04889 0.25071 0.0
H1739 H 0.44601 0.04139 0.2075 0.0
H1740 H 0.48345 1.00474 0.15348 0.0
H1741 H 0.46288 1.01329 0.18638 0.0
H1742 H 0.52041 0.06648 0.21984 0.0
H1743 H 0.54103 0.0575 0.18722 0.0
C1744 C 0.47841 0.05119 0.26798 0.0
C1745 C 0.45535 0.04981 0.26589 0.0
C1746 C 0.48966 0.0486 0.24847 0.0
C1747 C 0.47818 0.04473 0.22639 0.0
C1748 C 0.45524 0.04403 0.22428 0.0
C1749 C 0.44392 0.04652 0.24386 0.0
C1750 C 0.49158 0.01832 0.16785 0.0
C1751 C 0.51387 0.03028 0.16801 0.0
C1752 C 0.47979 0.02332 0.18661 0.0
C1753 C 0.49005 0.04051 0.20576 0.0
C1754 C 0.51218 0.05285 0.20555 0.0
C1755 C 0.524 0.04771 0.18691 0.0
H1756 H 0.84042 0.73898 0.95859 0.0
H1757 H 0.77958 0.76186 0.96186 0.0
H1758 H 0.84595 0.75204 0.9222 0.0
H1759 H 0.785 0.77459 0.92563 0.0
H1760 H 0.7862 0.76572 0.84739 0.0
H1761 H 0.78364 0.75455 0.88449 0.0
H1762 H 0.85313 0.78869 0.90498 0.0
H1763 H 0.85575 0.80027 0.86752 0.0
C1764 C 0.82829 0.74689 0.95166 0.0
C1765 C 0.8095 0.74927 0.96321 0.0
C1766 C 0.83153 0.75446 0.93084 0.0
C1767 C 0.81585 0.76425 0.92086 0.0
C1768 C 0.79729 0.76692 0.93264 0.0
C1769 C 0.79424 0.75969 0.95353 0.0
C1770 C 0.80105 0.77091 0.85968 0.0
C1771 C 0.82121 0.78403 0.85433 0.0
C1772 C 0.7995 0.76455 0.88109 0.0
C1773 C 0.81811 0.77082 0.89786 0.0
C1774 C 0.83847 0.78352 0.89244 0.0
C1775 C 0.83995 0.79023 0.87101 0.0
H1776 H 0.88682 0.06733 0.06832 0.0
H1777 H 0.90056 0.11628 0.02445 0.0
H1778 H 0.92359 0.05972 0.06403 0.0
H1779 H 0.93749 0.10874 0.02018 0.0
H1780 H 1.01199 0.10575 0.03721 0.0
H1781 H 0.97497 0.11356 0.03982 0.0
H1782 H 0.94597 0.04243 0.03778 0.0
H1783 H 0.98272 0.03466 0.03512 0.0
C1784 C 0.89759 0.07645 0.05762 0.0
C1785 C 0.8903 0.09241 0.04668 0.0
C1786 C 0.91885 0.07199 0.05506 0.0
C1787 C 0.93398 0.08351 0.04168 0.0
C1788 C 0.9267 0.09956 0.0308 0.0
C1789 C 0.90528 0.10379 0.03312 0.0
C1790 C 0.99773 0.09168 0.03707 0.0
C1791 C 1.00076 0.06947 0.03578 0.0
C1792 C 0.9763 0.09618 0.03855 0.0
C1793 C 0.95703 0.07873 0.03918 0.0
C1794 C 0.96013 0.05653 0.0377 0.0
C1795 C 0.98142 0.052 0.03594 0.0
H1796 H 0.39992 0.46659 0.06938 0.0
H1797 H 0.42394 0.40563 0.054 0.0
H1798 H 0.43732 0.48972 0.06763 0.0
H1799 H 0.46138 0.42873 0.05292 0.0
H1800 H 0.518 0.47404 0.02474 0.0
H1801 H 0.48139 0.45129 0.02889 0.0
H1802 H 0.47507 0.50295 0.08618 0.0
H1803 H 0.51174 0.52613 0.08164 0.0
C1804 C 0.41321 0.45811 0.06584 0.0
C1805 C 0.40882 0.43419 0.06168 0.0
C1806 C 0.43473 0.47141 0.06498 0.0
C1807 C 0.45246 0.46115 0.06002 0.0
C1808 C 0.44812 0.43725 0.05635 0.0
C1809 C 0.42661 0.42397 0.0571 0.0
C1810 C 0.50894 0.48058 0.03835 0.0
C1811 C 0.51793 0.50199 0.05287 0.0
C1812 C 0.48789 0.46741 0.04081 0.0
C1813 C 0.47518 0.47517 0.05792 0.0
C1814 C 0.48423 0.49651 0.07262 0.0
C1815 C 0.50535 0.50976 0.07011 0.0
H1816 H 0.39365 0.63479 0.80362 0.0
H1817 H 0.39268 0.62802 0.73029 0.0
H1818 H 0.37834 0.6686 0.80565 0.0
H1819 H 0.3786 0.66258 0.73248 0.0
H1820 H 0.37545 0.7425 0.75113 0.0
H1821 H 0.38972 0.70805 0.74873 0.0
H1822 H 0.34181 0.68264 0.79294 0.0
H1823 H 0.32669 0.71652 0.79427 0.0
C1824 C 0.39039 0.64035 0.78776 0.0
C1825 C 0.39475 0.62758 0.76671 0.0
C1826 C 0.38137 0.66016 0.78893 0.0
C1827 C 0.37683 0.6694 0.7693 0.0
C1828 C 0.3816 0.65687 0.74832 0.0
C1829 C 0.3898 0.63656 0.74702 0.0
C1830 C 0.36771 0.7297 0.76043 0.0
C1831 C 0.34952 0.73334 0.77301 0.0
C1832 C 0.37603 0.70945 0.75895 0.0
C1833 C 0.36741 0.69154 0.77064 0.0
C1834 C 0.34948 0.69539 0.78358 0.0
C1835 C 0.3406 0.71525 0.78435 0.0
H1836 H 0.25852 0.56471 0.56925 0.0
H1837 H 0.25082 0.5911 0.50761 0.0
H1838 H 0.21757 0.5517 0.56747 0.0
H1839 H 0.21068 0.57919 0.50625 0.0
H1840 H 0.13782 0.54415 0.49734 0.0
H1841 H 0.1782 0.5511 0.49873 0.0
H1842 H 0.1837 0.56316 0.57303 0.0
H1843 H 0.14288 0.5552 0.57148 0.0
C1844 C 0.24823 0.56735 0.55507 0.0
C1845 C 0.25832 0.57889 0.5385 0.0
C1846 C 0.22458 0.56022 0.55421 0.0
C1847 C 0.21025 0.5643 0.53671 0.0
C1848 C 0.2206 0.57516 0.51984 0.0
C1849 C 0.24397 0.5822 0.52069 0.0
C1850 C 0.14753 0.54825 0.51405 0.0
C1851 C 0.13674 0.54923 0.53429 0.0
C1852 C 0.17098 0.55243 0.5149 0.0
C1853 C 0.18482 0.55809 0.53604 0.0
C1854 C 0.17397 0.5587 0.55633 0.0
C1855 C 0.15039 0.55429 0.55546 0.0
H1856 H 0.75959 0.02763 0.78538 0.0
H1857 H 0.78504 0.999 0.7237 0.0
H1858 H 0.78242 1.01039 0.80827 0.0
H1859 H 0.80718 0.98115 0.74633 0.0
H1860 H 0.85505 0.96074 0.79085 0.0
H1861 H 0.83842 0.98719 0.77428 0.0
H1862 H 0.78266 0.9733 0.81433 0.0
H1863 H 0.79999 0.94797 0.83193 0.0
C1864 C 0.77003 0.01763 0.77671 0.0
C1865 C 0.77043 1.01455 0.75272 0.0
C1866 C 0.78309 1.00772 0.78982 0.0
C1867 C 0.79668 0.9944 0.77918 0.0
C1868 C 0.79728 0.99167 0.7552 0.0
C1869 C 0.78439 1.00171 0.74215 0.0
C1870 C 0.83964 0.96393 0.79674 0.0
C1871 C 0.82868 0.95198 0.81248 0.0
C1872 C 0.82992 0.97883 0.78695 0.0
C1873 C 0.80894 0.98197 0.79255 0.0
C1874 C 0.79882 0.97133 0.80959 0.0
C1875 C 0.80864 0.95659 0.81952 0.0
H1876 H 0.77729 0.92187 0.52202 0.0
H1877 H 0.79245 0.96463 0.59002 0.0
H1878 H 0.74712 0.93973 0.51383 0.0
H1879 H 0.76192 0.98187 0.58224 0.0
H1880 H 0.72029 0.02471 0.55366 0.0
H1881 H 0.75075 1.00711 0.56118 0.0
H1882 H 0.71081 0.9423 0.52267 0.0
H1883 H 0.68062 0.96013 0.51474 0.0
C1884 C 0.77411 0.93499 0.53527 0.0
C1885 C 0.78735 0.94186 0.55664 0.0
C1886 C 0.75669 0.94516 0.53065 0.0
C1887 C 0.75197 0.96234 0.54735 0.0
C1888 C 0.76522 0.96905 0.56876 0.0
C1889 C 0.7827 0.95903 0.5733 0.0
C1890 C 0.71798 1.00667 0.54694 0.0
C1891 C 0.69803 0.99385 0.53358 0.0
C1892 C 0.73545 0.99652 0.55128 0.0
C1893 C 0.73336 0.9732 0.54256 0.0
C1894 C 0.71328 0.96036 0.52933 0.0
C1895 C 0.69589 0.97057 0.52484 0.0
H1896 H 0.37186 0.49213 0.75667 0.0
H1897 H 0.42718 0.4894 0.80284 0.0
H1898 H 0.35397 0.45213 0.75757 0.0
H1899 H 0.40957 0.45045 0.80414 0.0
H1900 H 0.38418 0.37298 0.79349 0.0
H1901 H 0.40034 0.41247 0.79139 0.0
H1902 H 0.33484 0.42017 0.77113 0.0
H1903 H 0.3188 0.38022 0.77277 0.0
C1904 C 0.38029 0.48336 0.76725 0.0
C1905 C 0.40144 0.49504 0.77961 0.0
C1906 C 0.36988 0.45994 0.76781 0.0
C1907 C 0.37996 0.44668 0.78072 0.0
C1908 C 0.40084 0.45874 0.79334 0.0
C1909 C 0.41113 0.48184 0.79274 0.0
C1910 C 0.37301 0.3829 0.78857 0.0
C1911 C 0.34982 0.37245 0.78342 0.0
C1912 C 0.38243 0.40619 0.78749 0.0
C1913 C 0.36936 0.4209 0.78127 0.0
C1914 C 0.34611 0.41031 0.77589 0.0
C1915 C 0.33668 0.38693 0.77696 0.0
H1916 H 0.27721 0.61411 0.20991 0.0
H1917 H 0.21351 0.62946 0.22098 0.0
H1918 H 0.29399 0.65448 0.21138 0.0
H1919 H 0.23025 0.66962 0.22221 0.0
H1920 H 0.26627 0.74106 0.21639 0.0
H1921 H 0.25179 0.70007 0.20038 0.0
H1922 H 0.29877 0.6853 0.24874 0.0
H1923 H 0.31275 0.72579 0.26488 0.0
C1924 C 0.26669 0.62599 0.21207 0.0
C1925 C 0.24418 0.61876 0.21577 0.0
C1926 C 0.27627 0.64903 0.21287 0.0
C1927 C 0.26338 0.66507 0.21697 0.0
C1928 C 0.24048 0.65756 0.21881 0.0
C1929 C 0.23099 0.63462 0.21837 0.0
C1930 C 0.27369 0.72897 0.2232 0.0
C1931 C 0.29035 0.73637 0.242 0.0
C1932 C 0.26546 0.70565 0.21409 0.0
C1933 C 0.27427 0.68964 0.22331 0.0
C1934 C 0.29189 0.69729 0.24113 0.0
C1935 C 0.29971 0.72041 0.25052 0.0
H1936 H 0.56934 0.80398 0.51828 0.0
H1937 H 0.51607 0.74676 0.48339 0.0
H1938 H 0.57475 0.78365 0.54884 0.0
H1939 H 0.5217 0.72632 0.51401 0.0
H1940 H 0.53295 0.69582 0.57523 0.0
H1941 H 0.52215 0.72469 0.55681 0.0
H1942 H 0.59069 0.74965 0.54467 0.0
H1943 H 0.60135 0.7206 0.56181 0.0
C1944 C 0.55854 0.78719 0.51729 0.0
C1945 C 0.54258 0.77675 0.49818 0.0
C1946 C 0.56162 0.77561 0.53485 0.0
C1947 C 0.54879 0.75338 0.53369 0.0
C1948 C 0.53171 0.74355 0.51545 0.0
C1949 C 0.52862 0.75515 0.49781 0.0
C1950 C 0.54578 0.70767 0.56893 0.0
C1951 C 0.56798 0.70546 0.56966 0.0
C1952 C 0.53957 0.72423 0.55848 0.0
C1953 C 0.55553 0.7392 0.5491 0.0
C1954 C 0.57803 0.73847 0.55192 0.0
C1955 C 0.58417 0.72176 0.56196 0.0
H1956 H 0.69445 0.35174 0.65591 0.0
H1957 H 0.65798 0.32934 0.71067 0.0
H1958 H 0.72943 0.35953 0.68066 0.0
H1959 H 0.69273 0.33598 0.73481 0.0
H1960 H 0.7573 0.34072 0.77339 0.0
H1961 H 0.72805 0.35503 0.75579 0.0
H1962 H 0.74577 0.3301 0.68832 0.0
H1963 H 0.77491 0.31653 0.70568 0.0
C1964 C 0.69382 0.34906 0.6734 0.0
C1965 C 0.67355 0.33907 0.68102 0.0
C1966 C 0.71387 0.3534 0.68756 0.0
C1967 C 0.71394 0.34749 0.70936 0.0
C1968 C 0.69341 0.34058 0.71807 0.0
C1969 C 0.67339 0.33655 0.70407 0.0
C1970 C 0.75505 0.33859 0.75481 0.0
C1971 C 0.76812 0.32708 0.74093 0.0
C1972 C 0.73837 0.34686 0.74474 0.0
C1973 C 0.73448 0.3437 0.72062 0.0
C1974 C 0.74845 0.33328 0.70694 0.0
C1975 C 0.76504 0.32512 0.71695 0.0
H1976 H 0.04201 0.35598 0.939 0.0
H1977 H 0.9752 0.35505 0.9569 0.0
H1978 H 0.05311 0.3972 0.95278 0.0
H1979 H 0.98604 0.3962 0.96991 0.0
H1980 H 0.02147 0.46088 0.02153 0.0
H1981 H 1.00892 0.42112 1.00278 0.0
H1982 H 0.04877 0.43419 0.94723 0.0
H1983 H 0.06194 0.47419 0.96643 0.0
C1984 C 0.02961 0.36463 0.9455 0.0
C1985 C 1.00784 0.35229 0.94719 0.0
C1986 C 0.03593 0.38825 0.95327 0.0
C1987 C 0.02052 0.39993 0.96269 0.0
C1988 C 0.99844 0.38764 0.96323 0.0
C1989 C 0.99221 0.36407 0.95569 0.0
C1990 C 0.0275 0.45539 1.00525 0.0
C1991 C 0.04275 0.47072 0.9955 0.0
C1992 C 0.02015 0.43257 0.99439 0.0
C1993 C 0.02774 0.4245 0.97343 0.0
C1994 C 0.04277 0.43987 0.96347 0.0
C1995 C 0.05022 0.46278 0.97441 0.0
H1996 H 0.06076 0.77439 0.19649 0.0
H1997 H 0.03994 0.81375 0.14977 0.0
H1998 H 0.028 0.77578 0.21642 0.0
H1999 H 1.00656 0.81487 0.16985 0.0
H2000 H 0.96565 0.83229 0.23282 0.0
H2001 H 0.9962 0.83132 0.20855 0.0
H2002 H 0.98771 0.75979 0.20877 0.0
H2003 H 0.95753 0.76082 0.23299 0.0
C2004 C 0.04911 0.78327 0.19036 0.0
C2005 C 0.05294 0.7939 0.17147 0.0
C2006 C 0.03021 0.78393 0.20174 0.0
C2007 C 1.01457 0.79522 0.19457 0.0
C2008 C 0.01839 0.80608 0.17578 0.0
C2009 C 0.0374 0.80535 0.16425 0.0
C2010 C 0.97021 0.81635 0.22742 0.0
C2011 C 0.95952 0.79673 0.23515 0.0
C2012 C 0.98761 0.81577 0.2135 0.0
C2013 C 0.99455 0.79556 0.20704 0.0
C2014 C 0.9831 0.77575 0.2139 0.0
C2015 C 0.96584 0.77635 0.22781 0.0
H2016 H 0.58593 0.31755 0.12073 0.0
H2017 H 0.51947 0.32614 0.13012 0.0
H2018 H 0.59088 0.3451 0.09581 0.0
H2019 H 0.52437 0.35366 0.10474 0.0
H2020 H 0.55465 0.42157 0.08188 0.0
H2021 H 0.54679 0.39236 0.10493 0.0
H2022 H 0.57718 0.34939 0.05777 0.0
H2023 H 0.58497 0.37862 0.03458 0.0
C2024 C 0.57232 0.32527 0.11742 0.0
C2025 C 0.55231 0.31969 0.12747 0.0
C2026 C 0.57511 0.34094 0.10295 0.0
C2027 C 0.55798 0.35147 0.09817 0.0
C2028 C 0.53794 0.34594 0.10823 0.0
C2029 C 0.53511 0.33015 0.1227 0.0
C2030 C 0.55933 0.40574 0.07618 0.0
C2031 C 0.57047 0.40244 0.05637 0.0
C2032 C 0.55481 0.389 0.08942 0.0
C2033 C 0.56141 0.36859 0.08323 0.0
C2034 C 0.57218 0.36509 0.06319 0.0
C2035 C 0.57667 0.38183 0.04991 0.0
H2036 H 0.06347 0.27148 0.31164 0.0
H2037 H 1.01079 0.27531 0.35557 0.0
H2038 H 0.03966 0.27719 0.27962 0.0
H2039 H 0.98718 0.28062 0.32361 0.0
H2040 H 0.95728 0.27169 0.23982 0.0
H2041 H 0.98474 0.25682 0.2599 0.0
H2042 H 1.01123 0.3231 0.30331 0.0
H2043 H 0.98353 0.33781 0.28459 0.0
C2044 C 0.04653 0.27258 0.31417 0.0
C2045 C 0.039 0.27326 0.33611 0.0
C2046 C 0.03301 0.27585 0.2959 0.0
C2047 C 1.01181 0.2794 0.29942 0.0
C2048 C 1.00354 0.27785 0.32065 0.0
C2049 C 0.01704 0.27487 0.33889 0.0
C2050 C 0.96926 0.28325 0.25332 0.0
C2051 C 0.96773 0.30586 0.26089 0.0
C2052 C 0.98505 0.27473 0.26458 0.0
C2053 C 0.99975 0.28888 0.28312 0.0
C2054 C 0.99996 0.31199 0.28893 0.0
C2055 C 0.98411 0.32042 0.27799 0.0
H2056 H 0.02575 0.67702 0.65954 0.0
H2057 H 0.04172 0.71053 0.60268 0.0
H2058 H 0.03319 0.64249 0.63805 0.0
H2059 H 0.04806 0.67564 0.58061 0.0
H2060 H 0.08196 0.61876 0.55724 0.0
H2061 H 0.07405 0.65316 0.57877 0.0
H2062 H 0.02028 0.61179 0.60708 0.0
H2063 H 0.029 0.5776 0.58652 0.0
C2064 C 0.03043 0.67685 0.64225 0.0
C2065 C 0.03322 0.69648 0.63281 0.0
C2066 C 0.03463 0.65701 0.62986 0.0
C2067 C 0.04135 0.65624 0.60758 0.0
C2068 C 0.04343 0.67574 0.5979 0.0
C2069 C 0.03959 0.69569 0.61046 0.0
C2070 C 0.06855 0.6171 0.56818 0.0
C2071 C 0.05621 0.59555 0.57034 0.0
C2072 C 0.06385 0.63679 0.58037 0.0
C2073 C 0.04645 0.63531 0.59466 0.0
C2074 C 0.03407 0.61366 0.59663 0.0
C2075 C 0.03901 0.59401 0.58477 0.0
H2076 H 0.68845 0.82118 0.89861 0.0
H2077 H 0.64668 0.81745 0.83613 0.0
H2078 H 0.72103 0.82426 0.87707 0.0
H2079 H 0.67918 0.82082 0.81486 0.0
H2080 H 0.77752 0.85081 0.83714 0.0
H2081 H 0.74412 0.85149 0.85656 0.0
H2082 H 0.70536 0.79744 0.80229 0.0
H2083 H 0.73874 0.79679 0.7827 0.0
C2084 C 0.68622 0.82106 0.88035 0.0
C2085 C 0.66497 0.81903 0.86911 0.0
C2086 C 0.70488 0.82301 0.86805 0.0
C2087 C 0.70261 0.82287 0.8443 0.0
C2088 C 0.68139 0.8208 0.83309 0.0
C2089 C 0.66279 0.81895 0.84536 0.0
C2090 C 0.76181 0.83931 0.82912 0.0
C2091 C 0.76083 0.82355 0.80849 0.0
C2092 C 0.74274 0.8396 0.84036 0.0
C2093 C 0.72226 0.82424 0.83115 0.0
C2094 C 0.72094 0.8095 0.80978 0.0
C2095 C 0.74006 0.80916 0.79853 0.0
H2096 H 0.45306 0.56079 0.69503 0.0
H2097 H 0.51515 0.56479 0.73434 0.0
H2098 H 0.47149 0.5585 0.65957 0.0
H2099 H 0.53381 0.56318 0.69887 0.0
H2100 H 0.5661 0.58011 0.63102 0.0
H2101 H 0.54821 0.58214 0.66696 0.0
H2102 H 0.48834 0.53535 0.63042 0.0
H2103 H 0.50647 0.53284 0.59473 0.0
C2104 C 0.47074 0.5614 0.69641 0.0
C2105 C 0.48217 0.56312 0.71846 0.0
C2106 C 0.48149 0.55991 0.67563 0.0
C2107 C 0.50463 0.56058 0.6754 0.0
C2108 C 0.51617 0.5627 0.69752 0.0
C2109 C 0.50526 0.5636 0.71826 0.0
C2110 C 0.54915 0.57004 0.63045 0.0
C2111 C 0.53821 0.55613 0.60914 0.0
C2112 C 0.5387 0.57117 0.65146 0.0
C2113 C 0.51634 0.55899 0.65253 0.0
C2114 C 0.50535 0.5453 0.63112 0.0
C2115 C 0.51599 0.54371 0.61027 0.0
H2116 H 0.79844 0.19638 1.0038 0.0
H2117 H 0.83486 0.15608 0.96129 0.0
H2118 H 0.79498 0.21774 0.97388 0.0
H2119 H 0.83064 0.17705 0.93061 0.0
H2120 H 0.83419 0.23315 0.88797 0.0
H2121 H 0.84086 0.21299 0.91847 0.0
H2122 H 0.77452 0.21226 0.93772 0.0
H2123 H 0.76844 0.23356 0.90845 0.0
C2124 C 0.80566 0.19201 0.98796 0.0
C2125 C 0.81676 0.17439 0.98484 0.0
C2126 C 0.80352 0.20419 0.97068 0.0
C2127 C 0.81216 0.19891 0.94959 0.0
C2128 C 0.82386 0.18168 0.94666 0.0
C2129 C 0.82623 0.16959 0.96418 0.0
C2130 C 0.82115 0.22896 0.89892 0.0
C2131 C 0.80078 0.23511 0.89571 0.0
C2132 C 0.82487 0.2171 0.91623 0.0
C2133 C 0.8083 0.21105 0.93071 0.0
C2134 C 0.78786 0.21696 0.92724 0.0
C2135 C 0.78422 0.22892 0.91013 0.0
H2136 H 0.18875 0.50975 0.1512 0.0
H2137 H 0.14062 0.51255 0.20065 0.0
H2138 H 0.15884 0.50011 0.11998 0.0
H2139 H 0.11044 0.50205 0.16931 0.0
H2140 H 0.07975 0.53422 0.11334 0.0
H2141 H 0.10125 0.52618 0.14504 0.0
H2142 H 0.12543 0.47787 0.09715 0.0
H2143 H 0.10446 0.48657 0.06532 0.0
C2144 C 0.17168 0.5074 0.15541 0.0
C2145 C 0.16707 0.51253 0.17833 0.0
C2146 C 0.15443 0.50176 0.13746 0.0
C2147 C 0.13225 0.50088 0.14216 0.0
C2148 C 0.12742 0.50324 0.16515 0.0
C2149 C 0.1447 0.50914 0.18309 0.0
C2150 C 0.08925 0.52152 0.10963 0.0
C2151 C 0.09085 0.51145 0.08685 0.0
C2152 C 0.10147 0.51672 0.12784 0.0
C2153 C 0.11534 0.50157 0.12361 0.0
C2154 C 0.11529 0.48997 0.10094 0.0
C2155 C 0.10326 0.49496 0.08272 0.0
H2156 H 0.86217 0.83509 0.48411 0.0
H2157 H 0.80263 0.85986 0.47972 0.0
H2158 H 0.85848 0.82353 0.44251 0.0
H2159 H 0.79788 0.84692 0.43798 0.0
H2160 H 0.8073 0.84342 0.36191 0.0
H2161 H 0.80955 0.85367 0.40366 0.0
H2162 H 0.84184 0.79938 0.40927 0.0
H2163 H 0.84084 0.7903 0.36755 0.0
C2164 C 0.84794 0.83762 0.47425 0.0
C2165 C 0.8327 0.84842 0.48537 0.0
C2166 C 0.8457 0.83082 0.45019 0.0
C2167 C 0.82783 0.83415 0.43634 0.0
C2168 C 0.81219 0.84441 0.44766 0.0
C2169 C 0.81473 0.85165 0.47176 0.0
C2170 C 0.81488 0.83368 0.37208 0.0
C2171 C 0.82403 0.81612 0.36128 0.0
C2172 C 0.81603 0.83944 0.39621 0.0
C2173 C 0.82596 0.82751 0.41037 0.0
C2174 C 0.83458 0.80951 0.39935 0.0
C2175 C 0.83385 0.8041 0.37525 0.0
H2176 H 0.51075 0.51989 0.84317 0.0
H2177 H 0.49397 0.5822 0.8724 0.0
H2178 H 0.52753 0.51819 0.88094 0.0
H2179 H 0.5113 0.58106 0.91017 0.0
H2180 H 0.53066 0.56801 0.98223 0.0
H2181 H 0.51389 0.5697 0.94447 0.0
H2182 H 0.55376 0.52665 0.91199 0.0
H2183 H 0.56993 0.52454 0.94988 0.0
C2184 C 0.51076 0.53349 0.85757 0.0
C2185 C 0.50074 0.55124 0.85398 0.0
C2186 C 0.52067 0.53259 0.87969 0.0
C2187 C 0.52128 0.54945 0.89975 0.0
C2188 C 0.51131 0.5673 0.89599 0.0
C2189 C 0.50133 0.56813 0.87387 0.0
C2190 C 0.53595 0.55882 0.96711 0.0
C2191 C 0.55196 0.54607 0.96989 0.0
C2192 C 0.52627 0.55991 0.94496 0.0
C2193 C 0.53198 0.54836 0.92404 0.0
C2194 C 0.54812 0.53568 0.92694 0.0
C2195 C 0.55775 0.53455 0.9491 0.0
H2196 H 0.81163 0.19122 0.08699 0.0
H2197 H 0.85118 0.16101 0.12889 0.0
H2198 H 0.80904 0.21915 0.12065 0.0
H2199 H 0.84886 0.18965 0.16282 0.0
H2200 H 0.85972 0.26301 0.20897 0.0
H2201 H 0.86233 0.23409 0.17597 0.0
H2202 H 0.79088 0.21847 0.15879 0.0
H2203 H 0.7881 0.24725 0.19224 0.0
C2204 C 0.81999 0.19061 0.10336 0.0
C2205 C 0.83175 0.17381 0.10512 0.0
C2206 C 0.81829 0.20658 0.12272 0.0
C2207 C 0.82862 0.20657 0.14441 0.0
C2208 C 0.84075 0.1901 0.14627 0.0
C2209 C 0.84209 0.17371 0.12687 0.0
C2210 C 0.84452 0.25361 0.19808 0.0
C2211 C 0.82368 0.25771 0.20316 0.0
C2212 C 0.84604 0.23682 0.17931 0.0
C2213 C 0.82684 0.22393 0.16483 0.0
C2214 C 0.80601 0.2282 0.16962 0.0
C2215 C 0.8044 0.24471 0.18874 0.0
H2216 H 0.19694 0.54107 0.30926 0.0
H2217 H 0.16467 0.59271 0.29416 0.0
H2218 H 0.18023 0.54188 0.34568 0.0
H2219 H 0.14821 0.59356 0.33036 0.0
H2220 H 0.13675 0.60304 0.40545 0.0
H2221 H 0.15952 0.60383 0.37334 0.0
H2222 H 0.13968 0.53038 0.35501 0.0
H2223 H 0.11709 0.52955 0.38734 0.0
C2224 C 0.18654 0.55277 0.31386 0.0
C2225 C 0.18198 0.56674 0.29887 0.0
C2226 C 0.17693 0.55315 0.33459 0.0
C2227 C 0.16295 0.56778 0.34077 0.0
C2228 C 0.15909 0.58229 0.32612 0.0
C2229 C 0.1684 0.58168 0.30533 0.0
C2230 C 0.13753 0.58706 0.39478 0.0
C2231 C 0.12505 0.56624 0.39876 0.0
C2232 C 0.15046 0.58752 0.37636 0.0
C2233 C 0.15129 0.56717 0.36171 0.0
C2234 C 0.13946 0.5463 0.36617 0.0
C2235 C 0.12636 0.54585 0.38448 0.0
H2236 H 0.8385 0.83512 0.60707 0.0
H2237 H 0.81558 0.89435 0.63545 0.0
H2238 H 0.83472 0.82219 0.6435 0.0
H2239 H 0.81125 0.88123 0.67147 0.0
H2240 H 0.82902 0.86478 0.74149 0.0
H2241 H 0.83183 0.87711 0.70475 0.0
H2242 H 0.80946 0.80706 0.66857 0.0
H2243 H 0.80723 0.79476 0.7052 0.0
C2244 C 0.83239 0.84526 0.62093 0.0
C2245 C 0.82742 0.86584 0.61817 0.0
C2246 C 0.83014 0.83781 0.6419 0.0
C2247 C 0.82279 0.85068 0.66073 0.0
C2248 C 0.81739 0.87101 0.6577 0.0
C2249 C 0.81971 0.87847 0.63684 0.0
C2250 C 0.8246 0.852 0.72571 0.0
C2251 C 0.81789 0.82874 0.72649 0.0
C2252 C 0.82612 0.85908 0.70453 0.0
C2253 C 0.82092 0.84313 0.68343 0.0
C2254 C 0.81399 0.8199 0.68429 0.0
C2255 C 0.81253 0.81283 0.70543 0.0
H2256 H 0.72395 0.4873 0.50191 0.0
H2257 H 0.75183 0.53661 0.56413 0.0
H2258 H 0.68748 0.4958 0.50602 0.0
H2259 H 0.7154 0.54496 0.56848 0.0
H2260 H 0.65136 0.57059 0.55988 0.0
H2261 H 0.68773 0.56214 0.55589 0.0
H2262 H 0.65507 0.49206 0.52603 0.0
H2263 H 0.6186 0.50066 0.52977 0.0
C2264 C 0.72244 0.50008 0.51646 0.0
C2265 C 0.74129 0.51128 0.53255 0.0
C2266 C 0.70124 0.50485 0.51899 0.0
C2267 C 0.69789 0.52115 0.53769 0.0
C2268 C 0.71688 0.53251 0.55363 0.0
C2269 C 0.73802 0.52764 0.55116 0.0
C2270 C 0.65178 0.55327 0.55263 0.0
C2271 C 0.63157 0.53638 0.54535 0.0
C2272 C 0.67291 0.54834 0.55037 0.0
C2273 C 0.67494 0.52629 0.54053 0.0
C2274 C 0.65467 0.50934 0.5334 0.0
C2275 C 0.63351 0.51426 0.5358 0.0
H2276 H 0.22004 0.18843 0.52247 0.0
H2277 H 0.25227 0.13377 0.50331 0.0
H2278 H 0.18525 0.1608 0.52402 0.0
H2279 H 0.21724 0.10598 0.50353 0.0
H2280 H 0.16069 0.06369 0.53489 0.0
H2281 H 0.19448 0.09043 0.52892 0.0
H2282 H 0.15437 0.13271 0.50573 0.0
H2283 H 0.12078 0.10653 0.51297 0.0
C2284 C 0.21953 0.17047 0.51799 0.0
C2285 C 0.23896 0.16333 0.5129 0.0
C2286 C 0.19949 0.15451 0.5188 0.0
C2287 C 0.19827 0.13095 0.51415 0.0
C2288 C 0.21753 0.12389 0.50788 0.0
C2289 C 0.23763 0.13985 0.50749 0.0
C2290 C 0.15911 0.07863 0.52838 0.0
C2291 C 0.13805 0.08301 0.52454 0.0
C2292 C 0.17853 0.09398 0.52478 0.0
C2293 C 0.17739 0.11396 0.51684 0.0
C2294 C 0.15614 0.11789 0.51232 0.0
C2295 C 0.13678 0.10274 0.51632 0.0
H2296 H 0.27184 0.97138 0.74834 0.0
H2297 H 0.22621 0.9485 0.79561 0.0
H2298 H 0.28624 0.93723 0.74677 0.0
H2299 H 0.24035 0.91419 0.79393 0.0
H2300 H 0.25906 0.84311 0.77665 0.0
H2301 H 0.24473 0.87729 0.7782 0.0
H2302 H 0.30723 0.91307 0.75962 0.0
H2303 H 0.32154 0.87892 0.75833 0.0
C2304 C 0.26466 0.95923 0.75856 0.0
C2305 C 0.24744 0.96384 0.77219 0.0
C2306 C 0.27319 0.93912 0.75772 0.0
C2307 C 0.26499 0.92163 0.77016 0.0
C2308 C 0.24761 0.92625 0.78367 0.0
C2309 C 0.23934 0.94652 0.78477 0.0
C2310 C 0.26998 0.85811 0.77276 0.0
C2311 C 0.29188 0.85708 0.76719 0.0
C2312 C 0.2616 0.87833 0.77382 0.0
C2313 C 0.27427 0.89925 0.76907 0.0
C2314 C 0.29615 0.89809 0.7633 0.0
C2315 C 0.30463 0.87798 0.7626 0.0
H2316 H 0.37411 0.03862 0.03188 0.0
H2317 H 0.37515 0.96794 1.01206 0.0
H2318 H 0.41548 0.04926 0.03491 0.0
H2319 H 0.41543 0.97839 1.01522 0.0
H2320 H 0.4882 0.9997 0.04528 0.0
H2321 H 0.44765 0.99292 0.04465 0.0
H2322 H 0.44864 0.04902 1.01036 0.0
H2323 H 0.48939 0.05578 1.01086 0.0
C2324 C 0.38295 0.02536 0.02821 0.0
C2325 C 0.37083 1.00236 0.0216 0.0
C2326 C 0.40674 0.03144 0.02986 0.0
C2327 C 0.41911 1.01469 0.02549 0.0
C2328 C 0.40686 0.99186 0.01908 0.0
C2329 C 0.38342 0.98588 0.01708 0.0
C2330 C 0.4799 1.01065 0.03756 0.0
C2331 C 0.4924 0.02815 0.02788 0.0
C2332 C 0.45647 1.00674 0.03717 0.0
C2333 C 0.44451 0.02032 0.02735 0.0
C2334 C 0.45705 0.03824 0.01822 0.0
C2335 C 0.48053 0.04198 0.01833 0.0
H2336 H 0.877 0.60891 0.83151 0.0
H2337 H 0.83853 0.55697 0.77513 0.0
H2338 H 0.85184 0.63321 0.82592 0.0
H2339 H 0.81339 0.58115 0.76975 0.0
H2340 H 0.80066 0.64653 0.74743 0.0
H2341 H 0.81873 0.61729 0.75546 0.0
H2342 H 0.81212 0.63628 0.82789 0.0
H2343 H 0.79356 0.66541 0.81983 0.0
C2344 C 0.86305 0.60259 0.81813 0.0
C2345 C 0.85988 0.58115 0.80362 0.0
C2346 C 0.84856 0.61641 0.81504 0.0
C2347 C 0.83072 0.60905 0.79734 0.0
C2348 C 0.82715 0.58732 0.78336 0.0
C2349 C 0.84154 0.57349 0.78649 0.0
C2350 C 0.80238 0.64404 0.76497 0.0
C2351 C 0.7958 0.65842 0.78301 0.0
C2352 C 0.81284 0.62733 0.76959 0.0
C2353 C 0.81702 0.62469 0.79233 0.0
C2354 C 0.80941 0.63822 0.81024 0.0
C2355 C 0.7988 0.65485 0.80561 0.0
H2356 H 0.84625 0.63919 0.06107 0.0
H2357 H 0.8803 0.67079 1.00956 0.0
H2358 H 0.87438 0.61791 0.06396 0.0
H2359 H 0.909 0.64966 1.01285 0.0
H2360 H 0.94242 0.5889 1.00946 0.0
H2361 H 0.91514 0.61128 1.00501 0.0
H2362 H 0.91287 0.62454 0.07869 0.0
H2363 H 0.93989 0.60209 0.08306 0.0
C2364 C 0.85981 0.64167 0.05038 0.0
C2365 C 0.86106 0.65679 0.03513 0.0
C2366 C 0.87607 0.62954 0.05217 0.0
C2367 C 0.89413 0.63223 0.03885 0.0
C2368 C 0.89524 0.64709 0.02328 0.0
C2369 C 0.87886 0.65925 0.02144 0.0
C2370 C 0.93623 0.59678 0.02471 0.0
C2371 C 0.94318 0.59353 0.0466 0.0
C2372 C 0.92062 0.60964 0.02216 0.0
C2373 C 0.91164 0.61956 0.04146 0.0
C2374 C 0.91904 0.61673 0.06338 0.0
C2375 C 0.93455 0.60385 0.06591 0.0
H2376 H 0.21979 0.11791 0.81702 0.0
H2377 H 0.26807 0.09663 0.77476 0.0
H2378 H 0.23634 0.15744 0.81598 0.0
H2379 H 0.28478 0.13667 0.77343 0.0
H2380 H 0.32102 0.21458 0.7847 0.0
H2381 H 0.30563 0.17453 0.78611 0.0
H2382 H 0.24238 0.18915 0.79997 0.0
H2383 H 0.25797 0.22916 0.79883 0.0
C2384 C 0.2341 0.12142 0.80747 0.0
C2385 C 0.24224 0.10297 0.79615 0.0
C2386 C 0.2437 0.1447 0.80664 0.0
C2387 C 0.26228 0.15155 0.7944 0.0
C2388 C 0.27075 0.13312 0.78333 0.0
C2389 C 0.26102 0.10964 0.7841 0.0
C2390 C 0.30378 0.20946 0.7881 0.0
C2391 C 0.29113 0.22612 0.79169 0.0
C2392 C 0.2947 0.18593 0.7888 0.0
C2393 C 0.27231 0.17732 0.79328 0.0
C2394 C 0.25969 0.1941 0.79682 0.0
C2395 C 0.26875 0.21758 0.79602 0.0
H2396 H 0.36155 0.98571 0.33004 0.0
H2397 H 0.42785 0.97821 0.34813 0.0
H2398 H 0.34619 0.94549 0.32876 0.0
H2399 H 0.4123 0.93776 0.34714 0.0
H2400 H 0.32118 0.87341 0.3327 0.0
H2401 H 0.33907 0.91338 0.34879 0.0
H2402 H 0.39674 0.90719 0.31303 0.0
H2403 H 0.37913 0.86731 0.29727 0.0
C2404 C 0.37279 0.97557 0.33426 0.0
C2405 C 0.39596 0.98502 0.33873 0.0
C2406 C 0.36394 0.95253 0.33374 0.0
C2407 C 0.37809 0.93845 0.33764 0.0
C2408 C 0.40107 0.94822 0.3438 0.0
C2409 C 0.40993 0.97136 0.34444 0.0
C2410 C 0.33785 0.88048 0.32861 0.0
C2411 C 0.34858 0.86734 0.31337 0.0
C2412 C 0.34806 0.90335 0.33783 0.0
C2413 C 0.3692 0.91343 0.33202 0.0
C2414 C 0.38053 0.89986 0.31802 0.0
C2415 C 0.37032 0.87704 0.30878 0.0
H2416 H 0.62087 0.32311 0.54827 0.0
H2417 H 0.5765 0.33841 0.59886 0.0
H2418 H 0.60295 0.34146 0.52205 0.0
H2419 H 0.55936 0.35775 0.57332 0.0
H2420 H 0.52541 0.38647 0.52495 0.0
H2421 H 0.53695 0.35632 0.53967 0.0
H2422 H 0.60288 0.3787 0.51892 0.0
H2423 H 0.5907 0.40755 0.50224 0.0
C2424 C 0.60725 0.33039 0.55376 0.0
C2425 C 0.6002 0.32956 0.57568 0.0
C2426 C 0.59702 0.34097 0.53876 0.0
C2427 C 0.57976 0.35125 0.54553 0.0
C2428 C 0.57228 0.34968 0.56723 0.0
C2429 C 0.58226 0.33878 0.58204 0.0
C2430 C 0.54208 0.38443 0.52257 0.0
C2431 C 0.55729 0.3999 0.51284 0.0
C2432 C 0.54885 0.36732 0.53147 0.0
C2433 C 0.57108 0.36552 0.53126 0.0
C2434 C 0.58564 0.37956 0.51955 0.0
C2435 C 0.57874 0.39639 0.51023 0.0
H2436 H 0.48273 0.79932 0.33224 0.0
H2437 H 0.45166 0.75482 0.37581 0.0
H2438 H 0.44781 0.79072 0.30786 0.0
H2439 H 0.41654 0.74546 0.35071 0.0
H2440 H 0.38374 0.77566 0.26595 0.0
H2441 H 0.41719 0.76661 0.28182 0.0
H2442 H 0.39122 0.76899 0.3479 0.0
H2443 H 0.35778 0.77712 0.332 0.0
C2444 C 0.46855 0.78716 0.33625 0.0
C2445 C 0.46974 0.77822 0.35629 0.0
C2446 C 0.44851 0.782 0.32205 0.0
C2447 C 0.42923 0.76768 0.32753 0.0
C2448 C 0.43101 0.75694 0.34632 0.0
C2449 C 0.45112 0.76222 0.36064 0.0
C2450 C 0.38502 0.77379 0.28373 0.0
C2451 C 0.36838 0.77772 0.29786 0.0
C2452 C 0.40418 0.76862 0.29283 0.0
C2453 C 0.40705 0.76738 0.31622 0.0
C2454 C 0.38957 0.76958 0.32978 0.0
C2455 C 0.37046 0.77462 0.3207 0.0
H2456 H 0.09619 0.7178 0.13233 0.0
H2457 H 0.13523 0.72828 0.07557 0.0
H2458 H 0.09079 0.6769 0.12037 0.0
H2459 H 0.12941 0.68706 0.06338 0.0
H2460 H 0.12575 0.61033 0.05854 0.0
H2461 H 0.13685 0.65143 0.07461 0.0
H2462 H 0.06847 0.65008 0.08674 0.0
H2463 H 0.0575 0.60956 0.0712 0.0
C2464 C 0.10368 0.7114 0.11732 0.0
C2465 C 0.11586 0.7263 0.10469 0.0
C2466 C 0.10057 0.68795 0.11049 0.0
C2467 C 0.1095 0.67881 0.09082 0.0
C2468 C 0.12247 0.69367 0.07869 0.0
C2469 C 0.12563 0.71723 0.08557 0.0
C2470 C 0.11321 0.61885 0.06489 0.0
C2471 C 0.09077 0.60672 0.06356 0.0
C2472 C 0.11952 0.64233 0.07393 0.0
C2473 C 0.10353 0.65389 0.082 0.0
C2474 C 0.08124 0.6416 0.081 0.0
C2475 C 0.07494 0.61835 0.07189 0.0
H2476 H 0.0769 0.24927 0.8716 0.0
H2477 H 0.08509 0.32111 0.89834 0.0
H2478 H 0.11269 0.25744 0.85627 0.0
H2479 H 0.12137 0.32929 0.88319 0.0
H2480 H 0.17013 0.33335 0.82626 0.0
H2481 H 0.13609 0.32774 0.84542 0.0
H2482 H 0.15247 0.27069 0.86922 0.0
H2483 H 0.18597 0.27571 0.84933 0.0
C2484 C 0.08641 0.26683 0.87433 0.0
C2485 C 0.07814 0.28456 0.88616 0.0
C2486 C 0.10704 0.27149 0.86569 0.0
C2487 C 0.11993 0.29399 0.86865 0.0
C2488 C 0.11173 0.31178 0.88053 0.0
C2489 C 0.09102 0.3071 0.88925 0.0
C2490 C 0.16643 0.3196 0.83557 0.0
C2491 C 0.18063 0.30483 0.83609 0.0
C2492 C 0.14708 0.31656 0.84677 0.0
C2493 C 0.14152 0.29868 0.85869 0.0
C2494 C 0.15614 0.28444 0.8599 0.0
C2495 C 0.17547 0.28746 0.84871 0.0
H2496 H 0.57924 0.74346 0.92715 0.0
H2497 H 0.62371 0.78548 0.98589 0.0
H2498 H 0.56908 0.71327 0.94892 0.0
H2499 H 0.61299 0.75585 1.00789 0.0
H2500 H 0.60859 0.68962 0.03252 0.0
H2501 H 0.61796 0.7196 1.01061 0.0
H2502 H 0.54934 0.70251 0.98 0.0
H2503 H 0.54019 0.67201 1.00156 0.0
C2504 C 0.58672 0.74631 0.94475 0.0
C2505 C 0.60239 0.76679 0.95474 0.0
C2506 C 0.58079 0.72907 0.95731 0.0
C2507 C 0.59026 0.73204 0.98019 0.0
C2508 C 0.60568 0.75272 0.9902 0.0
C2509 C 0.61175 0.76981 0.9776 0.0
C2510 C 0.59547 0.69244 0.02129 0.0
C2511 C 0.57364 0.67856 0.01885 0.0
C2512 C 0.60081 0.70966 1.00872 0.0
C2513 C 0.5844 0.71361 0.99354 0.0
C2514 C 0.56249 0.69977 0.99124 0.0
C2515 C 0.5572 0.68237 1.00367 0.0
H2516 H 0.10304 0.80172 0.70801 0.0
H2517 H 0.05921 0.77148 0.75389 0.0
H2518 H 0.13469 0.80836 0.7366 0.0
H2519 H 0.09098 0.77891 0.78306 0.0
H2520 H 0.15436 0.75101 0.79652 0.0
H2521 H 0.11969 0.75931 0.78388 0.0
H2522 H 0.1566 0.82436 0.77243 0.0
H2523 H 0.19141 0.81532 0.78356 0.0
C2524 C 0.10005 0.79712 0.7245 0.0
C2525 C 0.07872 0.78547 0.72841 0.0
C2526 C 0.11824 0.80116 0.7411 0.0
C2527 C 0.11548 0.79381 0.76207 0.0
C2528 C 0.09375 0.78431 0.76689 0.0
C2529 C 0.07554 0.78008 0.75017 0.0
C2530 C 0.15505 0.76728 0.79174 0.0
C2531 C 0.17567 0.78209 0.79025 0.0
C2532 C 0.13509 0.77223 0.78477 0.0
C2533 C 0.13539 0.79226 0.77646 0.0
C2534 C 0.15586 0.80849 0.77809 0.0
C2535 C 0.17584 0.80339 0.78477 0.0
H2536 H 0.03802 0.35656 0.43099 0.0
H2537 H 0.1099 0.37678 0.43244 0.0
H2538 H 0.03771 0.39551 0.44804 0.0
H2539 H 0.10953 0.41596 0.44979 0.0
H2540 H 0.09678 0.47012 0.51138 0.0
H2541 H 0.09954 0.43376 0.48904 0.0
H2542 H 0.04659 0.4355 0.43897 0.0
H2543 H 0.04385 0.47215 0.46131 0.0
C2544 C 0.05376 0.36936 0.43486 0.0
C2545 C 0.07402 0.3636 0.43054 0.0
C2546 C 0.05353 0.3917 0.44444 0.0
C2547 C 0.07357 0.40872 0.45017 0.0
C2548 C 0.09385 0.40309 0.44557 0.0
C2549 C 0.09406 0.38074 0.43563 0.0
C2550 C 0.0858 0.46285 0.49553 0.0
C2551 C 0.06992 0.47386 0.4882 0.0
C2552 C 0.08755 0.44213 0.48265 0.0
C2553 C 0.07327 0.43184 0.46232 0.0
C2554 C 0.05772 0.44307 0.45467 0.0
C2555 C 0.05619 0.46401 0.46741 0.0
H2556 H 0.45726 0.22868 0.22901 0.0
H2557 H 0.4606 0.2867 0.19681 0.0
H2558 H 0.42705 0.23813 0.25001 0.0
H2559 H 0.42996 0.29586 0.21748 0.0
H2560 H 0.39506 0.32162 0.27778 0.0
H2561 H 0.42485 0.31049 0.25726 0.0
H2562 H 0.38821 0.23993 0.24542 0.0
H2563 H 0.35852 0.25097 0.26636 0.0
C2564 C 0.45132 0.24327 0.22614 0.0
C2565 C 0.4614 0.25703 0.21132 0.0
C2566 C 0.43395 0.24864 0.23815 0.0
C2567 C 0.42628 0.26788 0.23562 0.0
C2568 C 0.43582 0.28118 0.22016 0.0
C2569 C 0.45322 0.27581 0.20814 0.0
C2570 C 0.39345 0.30369 0.27107 0.0
C2571 C 0.37435 0.28719 0.27365 0.0
C2572 C 0.41043 0.29735 0.25908 0.0
C2573 C 0.40872 0.27438 0.24938 0.0
C2574 C 0.39006 0.25777 0.25275 0.0
C2575 C 0.37305 0.26411 0.26479 0.0
H2576 H 0.64045 0.5822 0.36248 0.0
H2577 H 0.65584 0.51907 0.36947 0.0
H2578 H 0.62243 0.58311 0.39819 0.0
H2579 H 0.63773 0.5198 0.4051 0.0
H2580 H 0.58801 0.51631 0.46159 0.0
H2581 H 0.60582 0.51551 0.42583 0.0
H2582 H 0.62324 0.58881 0.43913 0.0
H2583 H 0.6055 0.58951 0.47501 0.0
C2584 C 0.64007 0.56835 0.37146 0.0
C2585 C 0.65 0.55052 0.36222 0.0
C2586 C 0.62964 0.56893 0.39245 0.0
C2587 C 0.62808 0.55154 0.40557 0.0
C2588 C 0.6379 0.53362 0.39615 0.0
C2589 C 0.64861 0.53322 0.37534 0.0
C2590 C 0.59553 0.53241 0.45707 0.0
C2591 C 0.59479 0.55299 0.47203 0.0
C2592 C 0.60612 0.53196 0.4362 0.0
C2593 C 0.6165 0.55208 0.42854 0.0
C2594 C 0.61556 0.57268 0.44346 0.0
C2595 C 0.60525 0.57312 0.46452 0.0
H2596 H 0.28337 0.89791 0.03902 0.0
H2597 H 0.29764 0.95807 0.09321 0.0
H2598 H 0.28629 0.87463 0.06752 0.0
H2599 H 0.30109 0.9348 0.1217 0.0
H2600 H 0.29422 0.88451 0.16976 0.0
H2601 H 0.28344 0.90531 0.1414 0.0
H2602 H 0.31693 0.86933 0.09097 0.0
H2603 H 0.32687 0.84798 0.11894 0.0
C2604 C 0.28688 0.90617 0.05704 0.0
C2605 C 0.2905 0.92994 0.06376 0.0
C2606 C 0.28872 0.89281 0.07339 0.0
C2607 C 0.29433 0.90285 0.0969 0.0
C2608 C 0.29665 0.92644 0.10377 0.0
C2609 C 0.29472 0.93983 0.0874 0.0
C2610 C 0.29896 0.88077 0.1525 0.0
C2611 C 0.31153 0.86462 0.14669 0.0
C2612 C 0.29297 0.89288 0.1363 0.0
C2613 C 0.29932 0.88906 0.11387 0.0
C2614 C 0.31147 0.87255 0.10796 0.0
C2615 C 0.31746 0.8605 0.12413 0.0
H2616 H 1.01096 0.58145 0.86582 0.0
H2617 H 0.9567 0.57719 0.90822 0.0
H2618 H 0.03774 0.58949 0.89998 0.0
H2619 H 0.98292 0.58328 0.94225 0.0
H2620 H 0.02961 0.58697 1.00126 0.0
H2621 H 1.01183 0.60042 0.97058 0.0
H2622 H 0.04702 0.56488 0.92131 0.0
H2623 H 0.0658 0.55306 0.9524 0.0
C2624 C 1.00491 0.58287 0.88262 0.0
C2625 C 0.98192 0.57861 0.88459 0.0
C2626 C 0.02016 0.58714 0.90217 0.0
C2627 C 1.01256 0.58624 0.9239 0.0
C2628 C 0.9896 0.58423 0.92595 0.0
C2629 C 0.97444 0.58068 0.90643 0.0
C2630 C 0.03383 0.58259 0.98386 0.0
C2631 C 0.0487 0.56875 0.97893 0.0
C2632 C 0.02359 0.59017 0.96625 0.0
C2633 C 0.02749 0.58339 0.94325 0.0
C2634 C 0.04367 0.57079 0.93873 0.0
C2635 C 0.05437 0.56377 0.95649 0.0
H2636 H 0.29392 0.27149 0.58921 0.0
H2637 H 0.33676 0.228 0.60268 0.0
H2638 H 0.29737 0.28753 0.63059 0.0
H2639 H 0.33998 0.24371 0.64366 0.0
H2640 H 0.35558 0.28731 0.7152 0.0
H2641 H 0.35499 0.2774 0.67348 0.0
H2642 H 0.28447 0.27451 0.66546 0.0
H2643 H 0.28506 0.28472 0.70721 0.0
C2644 C 0.30433 0.26559 0.6009 0.0
C2645 C 0.31501 0.2484 0.59254 0.0
C2646 C 0.30614 0.27463 0.62465 0.0
C2647 C 0.31889 0.26687 0.64056 0.0
C2648 C 0.33022 0.25032 0.63202 0.0
C2649 C 0.32826 0.2412 0.60842 0.0
C2650 C 0.33994 0.28472 0.70459 0.0
C2651 C 0.32032 0.28668 0.71471 0.0
C2652 C 0.3396 0.27894 0.6806 0.0
C2653 C 0.31966 0.27502 0.66601 0.0
C2654 C 0.30018 0.27762 0.67609 0.0
C2655 C 0.30049 0.28332 0.70011 0.0
H2656 H 0.63961 0.54933 0.23716 0.0
H2657 H 0.68127 0.51012 0.20226 0.0
H2658 H 0.62163 0.55143 0.19992 0.0
H2659 H 0.66345 0.51226 0.16506 0.0
H2660 H 0.61721 0.50509 0.09783 0.0
H2661 H 0.63401 0.50211 0.13519 0.0
H2662 H 0.62154 0.56633 0.16594 0.0
H2663 H 0.60463 0.56917 0.12847 0.0
C2664 C 0.64494 0.54088 0.22165 0.0
C2665 C 0.66214 0.52932 0.22356 0.0
C2666 C 0.63461 0.5423 0.19986 0.0
C2667 C 0.64065 0.53212 0.17848 0.0
C2668 C 0.65764 0.52027 0.18047 0.0
C2669 C 0.66811 0.51904 0.20224 0.0
C2670 C 0.61794 0.5187 0.11245 0.0
C2671 C 0.60919 0.53743 0.10932 0.0
C2672 C 0.6279 0.51704 0.13429 0.0
C2673 C 0.62962 0.53392 0.15459 0.0
C2674 C 0.62068 0.55259 0.15144 0.0
C2675 C 0.6109 0.55434 0.12952 0.0
H2676 H 0.28298 0.9141 0.92214 0.0
H2677 H 0.33677 0.89552 0.95786 0.0
H2678 H 0.28628 0.88772 0.88709 0.0
H2679 H 0.33997 0.86917 0.923 0.0
H2680 H 0.28266 0.82108 0.83642 0.0
H2681 H 0.27971 0.84657 0.87187 0.0
H2682 H 0.35167 0.86905 0.88409 0.0
H2683 H 0.35472 0.84335 0.84847 0.0
C2684 C 0.29545 0.90437 0.92255 0.0
C2685 C 0.30956 0.90695 0.94287 0.0
C2686 C 0.2973 0.88916 0.90249 0.0
C2687 C 0.31342 0.87627 0.90217 0.0
C2688 C 0.32755 0.87896 0.92249 0.0
C2689 C 0.32559 0.894 0.94256 0.0
C2690 C 0.29794 0.83125 0.8467 0.0
C2691 C 0.31898 0.83003 0.83948 0.0
C2692 C 0.29619 0.84608 0.86699 0.0
C2693 C 0.31542 0.86005 0.88081 0.0
C2694 C 0.3365 0.85844 0.87395 0.0
C2695 C 0.33826 0.84369 0.8535 0.0
H2696 H 0.92546 0.53995 0.73751 0.0
H2697 H 0.98467 0.54086 0.78082 0.0
H2698 H 0.94522 0.53368 0.70349 0.0
H2699 H 1.00399 0.53392 0.74704 0.0
H2700 H 0.03994 0.54205 0.68454 0.0
H2701 H 0.01972 0.55163 0.71728 0.0
H2702 H 0.95953 0.50388 0.68148 0.0
H2703 H 0.97979 0.49474 0.64844 0.0
C2704 C 0.94266 0.53888 0.73978 0.0
C2705 C 0.95348 0.54092 0.76186 0.0
C2706 C 0.95392 0.53513 0.7203 0.0
C2707 C 0.97616 0.53329 0.72257 0.0
C2708 C 0.987 0.53563 0.74469 0.0
C2709 C 0.97584 0.5395 0.76408 0.0
C2710 C 0.02242 0.53352 0.68376 0.0
C2711 C 1.01145 0.51749 0.66411 0.0
C2712 C 1.01082 0.539 0.70248 0.0
C2713 C 0.98804 0.52842 0.70204 0.0
C2714 C 0.97699 0.51256 0.68223 0.0
C2715 C 0.98859 0.50721 0.66339 0.0
H2716 H 0.29495 0.28066 0.47315 0.0
H2717 H 0.3201 0.22183 0.44896 0.0
H2718 H 0.3017 0.29339 0.43691 0.0
H2719 H 0.32634 0.23433 0.41248 0.0
H2720 H 0.30186 0.25063 0.34161 0.0
H2721 H 0.29978 0.23886 0.37871 0.0
H2722 H 0.33501 0.30683 0.41334 0.0
H2723 H 0.33761 0.31856 0.37604 0.0
C2724 C 0.30202 0.27049 0.46016 0.0
C2725 C 0.30698 0.2502 0.46403 0.0
C2726 C 0.30598 0.27785 0.43941 0.0
C2727 C 0.31454 0.26488 0.42176 0.0
C2728 C 0.31965 0.24468 0.42568 0.0
C2729 C 0.31616 0.23757 0.44664 0.0
C2730 C 0.30941 0.26304 0.35708 0.0
C2731 C 0.31995 0.28556 0.35577 0.0
C2732 C 0.30827 0.25625 0.37837 0.0
C2733 C 0.31718 0.2719 0.39903 0.0
C2734 C 0.32789 0.29438 0.39776 0.0
C2735 C 0.3295 0.30107 0.37637 0.0
H2736 H 0.39724 0.58442 0.58383 0.0
H2737 H 0.38908 0.59172 0.51323 0.0
H2738 H 0.43448 0.57815 0.57867 0.0
H2739 H 0.42616 0.58466 0.50785 0.0
H2740 H 0.48515 0.54565 0.50436 0.0
H2741 H 0.4477 0.55238 0.50791 0.0
H2742 H 0.47305 0.60116 0.5711 0.0
H2743 H 0.51047 0.59505 0.56721 0.0
C2744 C 0.40322 0.58448 0.56709 0.0
C2745 C 0.3898 0.5886 0.54898 0.0
C2746 C 0.42478 0.58098 0.56415 0.0
C2747 C 0.43367 0.58086 0.54281 0.0
C2748 C 0.42006 0.58448 0.52452 0.0
C2749 C 0.3987 0.5886 0.52764 0.0
C2750 C 0.48286 0.55803 0.51889 0.0
C2751 C 0.50122 0.56988 0.53536 0.0
C2752 C 0.46126 0.56192 0.52093 0.0
C2753 C 0.45702 0.5773 0.53989 0.0
C2754 C 0.47539 0.58908 0.55633 0.0
C2755 C 0.49704 0.58566 0.55398 0.0
H2756 H 0.89779 0.96749 0.56832 0.0
H2757 H 0.92043 0.90563 0.55392 0.0
H2758 H 0.93562 0.98982 0.56697 0.0
H2759 H 0.95829 0.92792 0.55329 0.0
H2760 H 0.01708 0.97211 0.52683 0.0
H2761 H 0.97984 0.94997 0.53002 0.0
H2762 H 0.97285 1.00237 0.58624 0.0
H2763 H 1.00999 0.02494 0.58256 0.0
C2764 C 0.91085 0.95865 0.56507 0.0
C2765 C 0.90597 0.93472 0.5611 0.0
C2766 C 0.93263 0.97148 0.56444 0.0
C2767 C 0.95012 0.96074 0.55994 0.0
C2768 C 0.94525 0.93682 0.55638 0.0
C2769 C 0.92349 0.92401 0.55686 0.0
C2770 C 1.00769 0.97893 0.53996 0.0
C2771 C 0.0166 1.0004 0.5544 0.0
C2772 C 0.9863 0.96611 0.54189 0.0
C2773 C 0.9732 0.9743 0.5584 0.0
C2774 C 0.98226 0.99563 0.57309 0.0
C2775 C 1.00367 1.00853 0.5711 0.0
H2776 H 0.86994 0.11696 0.24178 0.0
H2777 H 0.92154 0.15368 0.29614 0.0
H2778 H 0.85542 0.15103 0.24328 0.0
H2779 H 0.9073 0.18795 0.29748 0.0
H2780 H 0.88652 0.25508 0.28521 0.0
H2781 H 0.90127 0.22112 0.28421 0.0
H2782 H 0.83572 0.17825 0.25906 0.0
H2783 H 0.82105 0.21211 0.26043 0.0
C2784 C 0.87842 0.13219 0.25421 0.0
C2785 C 0.89731 0.13146 0.26884 0.0
C2786 C 0.86984 0.15225 0.25517 0.0
C2787 C 0.87966 0.17349 0.27057 0.0
C2788 C 0.89873 0.17277 0.28506 0.0
C2789 C 0.90706 0.15258 0.28437 0.0
C2790 C 0.87499 0.23851 0.27956 0.0
C2791 C 0.85209 0.23742 0.27312 0.0
C2792 C 0.88363 0.2185 0.279 0.0
C2793 C 0.87021 0.19569 0.2715 0.0
C2794 C 0.84736 0.19472 0.26484 0.0
C2795 C 0.83867 0.21468 0.26578 0.0
H2796 H 0.75056 0.09746 1.00538 0.0
H2797 H 0.75928 0.06903 0.0655 0.0
H2798 H 0.71042 0.08557 1.00471 0.0
H2799 H 0.7184 0.0562 0.06446 0.0
H2800 H 0.64407 0.06027 0.07079 0.0
H2801 H 0.68483 0.0682 0.07144 0.0
H2802 H 0.67787 0.05715 0.99716 0.0
H2803 H 0.63753 0.0501 0.99667 0.0
C2804 C 0.74393 0.08813 0.01826 0.0
C2805 C 0.75856 0.08421 0.03543 0.0
C2806 C 0.72059 0.08113 0.01781 0.0
C2807 C 0.71057 0.06977 0.03452 0.0
C2808 C 0.72517 0.06511 0.05137 0.0
C2809 C 0.74877 0.07216 0.05179 0.0
C2810 C 0.65124 0.05956 0.05458 0.0
C2811 C 0.63718 0.0547 0.03369 0.0
C2812 C 0.67478 0.06395 0.05492 0.0
C2813 C 0.68519 0.06359 0.03438 0.0
C2814 C 0.67096 0.05821 1.01351 0.0
C2815 C 0.64755 0.05398 1.01319 0.0
H2816 H 0.25369 0.53129 0.28397 0.0
H2817 H 0.28541 0.50834 0.22447 0.0
H2818 H 0.27497 0.51289 0.3072 0.0
H2819 H 0.30608 0.48941 0.2474 0.0
H2820 H 0.35001 0.46609 0.29396 0.0
H2821 H 0.33484 0.49391 0.27807 0.0
H2822 H 0.2743 0.47445 0.30996 0.0
H2823 H 0.28995 0.44756 0.32682 0.0
C2824 C 0.26525 0.52238 0.27587 0.0
C2825 C 0.26775 0.5211 0.25235 0.0
C2826 C 0.2774 0.5118 0.28916 0.0
C2827 C 0.29221 0.49964 0.27917 0.0
C2828 C 0.29513 0.49895 0.25578 0.0
C2829 C 0.28309 0.50962 0.24255 0.0
C2830 C 0.33377 0.46828 0.2982 0.0
C2831 C 0.32104 0.4544 0.31139 0.0
C2832 C 0.32494 0.48401 0.28883 0.0
C2833 C 0.30319 0.4861 0.29237 0.0
C2834 C 0.29113 0.47336 0.30692 0.0
C2835 C 0.3 0.45775 0.31639 0.0
H2836 H 0.2795 0.41574 0.01986 0.0
H2837 H 0.29494 0.46299 0.0854 0.0
H2838 H 0.24841 0.43202 1.01022 0.0
H2839 H 0.26414 0.47925 0.07572 0.0
H2840 H 0.19302 0.48612 0.06191 0.0
H2841 H 0.22299 0.46824 0.07034 0.0
H2842 H 0.24167 0.46813 1.0015 0.0
H2843 H 0.2119 0.48641 0.9931 0.0
C2844 C 0.27631 0.4296 0.03218 0.0
C2845 C 0.28971 0.43803 0.05341 0.0
C2846 C 0.25856 0.43898 0.02662 0.0
C2847 C 0.25373 0.45686 0.04225 0.0
C2848 C 0.26719 0.46528 0.06343 0.0
C2849 C 0.28496 0.45603 0.06891 0.0
C2850 C 0.2036 0.48248 0.04859 0.0
C2851 C 0.20007 0.48792 0.02686 0.0
C2852 C 0.22077 0.47217 0.05342 0.0
C2853 C 0.23482 0.46687 0.03664 0.0
C2854 C 0.23101 0.47178 1.01474 0.0
C2855 C 0.21389 0.48224 1.00993 0.0
H2856 H 0.8741 0.99478 0.25723 0.0
H2857 H 0.92692 0.99297 0.30704 0.0
H2858 H 0.85638 0.95452 0.25732 0.0
H2859 H 0.90949 0.95375 0.30748 0.0
H2860 H 0.8861 0.87602 0.29473 0.0
H2861 H 0.90186 0.91582 0.29348 0.0
H2862 H 0.83657 0.92226 0.27053 0.0
H2863 H 0.82093 0.88202 0.27139 0.0
C2864 C 0.88196 0.98618 0.26847 0.0
C2865 C 0.9024 0.99816 0.2821 0.0
C2866 C 0.87169 0.96261 0.26853 0.0
C2867 C 0.88122 0.94954 0.28215 0.0
C2868 C 0.9013 0.96192 0.29607 0.0
C2869 C 0.91144 0.98515 0.29598 0.0
C2870 C 0.87489 0.88573 0.28939 0.0
C2871 C 0.85188 0.87487 0.28326 0.0
C2872 C 0.88406 0.90917 0.28882 0.0
C2873 C 0.87091 0.92361 0.28211 0.0
C2874 C 0.84786 0.9126 0.27572 0.0
C2875 C 0.83867 0.88907 0.27633 0.0
H2876 H 0.71506 0.11965 0.71413 0.0
H2877 H 0.78273 0.11232 0.72086 0.0
H2878 H 0.72891 0.15977 0.71335 0.0
H2879 H 0.79686 0.15295 0.7215 0.0
H2880 H 0.76017 0.23158 0.75409 0.0
H2881 H 0.74559 0.19084 0.74325 0.0
H2882 H 0.80134 0.18562 0.7039 0.0
H2883 H 0.81654 0.22679 0.71562 0.0
C2884 C 0.73294 0.1267 0.7153 0.0
C2885 C 0.74789 0.11315 0.71792 0.0
C2886 C 0.7409 0.14968 0.71498 0.0
C2887 C 0.764 0.15973 0.71795 0.0
C2888 C 0.77897 0.14576 0.71907 0.0
C2889 C 0.77093 0.12255 0.71884 0.0
C2890 C 0.76924 0.22187 0.74288 0.0
C2891 C 0.78959 0.23242 0.73583 0.0
C2892 C 0.76075 0.19842 0.73646 0.0
C2893 C 0.77224 0.18489 0.72259 0.0
C2894 C 0.79221 0.19553 0.7148 0.0
C2895 C 0.80084 0.2191 0.7214 0.0
loop_
_geom_bond_atom_site_label_1
_geom_bond_atom_site_label_2
_geom_bond_distance
_geom_bond_site_symmetry_2
_ccdc_geom_bond_type
O0 Cd1 2.223 . S
O0 C8 1.315 . S
Cd1 O0 2.223 . S
Cd1 O4 2.297 . S
Cd1 O5 2.439 . S
Cd1 O11 2.240 . S
Cd2 O3 2.240 . S
Cd2 O10 2.223 . S
Cd2 O12 2.297 . S
Cd2 O13 2.439 . S
O3 Cd2 2.240 . S
O3 C8 1.279 . S
O4 Cd1 2.297 . S
O4 C6 1.247 . S
O5 Cd1 2.439 . S
O5 C6 1.208 . S
C6 O4 1.247 . S
C6 O5 1.208 . S
C7 O12 1.247 . S
C7 O13 1.208 . S
C8 O0 1.315 . S
C8 O3 1.279 . S
C9 O10 1.315 . S
C9 O11 1.279 . S
O10 Cd2 2.223 . S
O10 C9 1.315 . S
O11 Cd1 2.240 . S
O11 C9 1.279 . S
O12 Cd2 2.297 . S
O12 C7 1.247 . S
O13 Cd2 2.439 . S
O13 C7 1.208 . S
O14 Cd15 2.235 . S
O14 C22 1.318 . S
Cd15 O14 2.235 . S
Cd15 O18 2.297 . S
Cd15 O19 2.439 . S
Cd15 O25 2.240 1_655 S
Cd16 O17 2.240 1_455 S
Cd16 O24 2.223 . S
Cd16 O26 2.297 . S
Cd16 O27 2.437 1_455 S
O17 Cd16 2.240 1_655 S
O17 C22 1.279 . S
O18 Cd15 2.297 . S
O18 C20 1.247 . S
O19 Cd15 2.439 . S
O19 C20 1.208 . S
C20 O18 1.247 . S
C20 O19 1.208 . S
C21 O26 1.247 . S
C21 O27 1.206 1_455 S
C22 O14 1.318 . S
C22 O17 1.279 . S
C23 O24 1.315 . S
C23 O25 1.279 . S
O24 Cd16 2.223 . S
O24 C23 1.315 . S
O25 Cd15 2.240 1_455 S
O25 C23 1.279 . S
O26 Cd16 2.297 . S
O26 C21 1.247 . S
O27 Cd16 2.437 1_655 S
O27 C21 1.206 1_655 S
O28 Cd29 2.223 . S
O28 C36 1.315 . S
Cd29 O28 2.223 . S
Cd29 O32 2.297 . S
Cd29 O33 2.439 . S
Cd29 O39 2.240 . S
Cd30 O31 2.240 . S
Cd30 O38 2.223 . S
Cd30 O40 2.297 . S
Cd30 O41 2.439 . S
O31 Cd30 2.240 . S
O31 C36 1.279 . S
O32 Cd29 2.297 . S
O32 C34 1.247 . S
O33 Cd29 2.439 . S
O33 C34 1.208 . S
C34 O32 1.247 . S
C34 O33 1.208 . S
C35 O40 1.247 . S
C35 O41 1.208 . S
C36 O28 1.315 . S
C36 O31 1.279 . S
C37 O38 1.315 . S
C37 O39 1.279 . S
O38 Cd30 2.223 . S
O38 C37 1.315 . S
O39 Cd29 2.240 . S
O39 C37 1.279 . S
O40 Cd30 2.297 . S
O40 C35 1.247 . S
O41 Cd30 2.439 . S
O41 C35 1.208 . S
O42 Cd43 2.223 . S
O42 C50 1.315 . S
Cd43 O42 2.223 . S
Cd43 O46 2.297 . S
Cd43 O47 2.439 . S
Cd43 O53 2.240 . S
Cd44 O45 2.240 . S
Cd44 O52 2.223 . S
Cd44 O54 2.297 . S
Cd44 O55 2.439 . S
O45 Cd44 2.240 . S
O45 C50 1.279 . S
O46 Cd43 2.297 . S
O46 C48 1.247 . S
O47 Cd43 2.439 . S
O47 C48 1.208 . S
C48 O46 1.247 . S
C48 O47 1.208 . S
C49 O54 1.247 . S
C49 O55 1.208 . S
C50 O42 1.315 . S
C50 O45 1.279 . S
C51 O52 1.315 . S
C51 O53 1.279 . S
O52 Cd44 2.223 . S
O52 C51 1.315 . S
O53 Cd43 2.240 . S
O53 C51 1.279 . S
O54 Cd44 2.297 . S
O54 C49 1.247 . S
O55 Cd44 2.439 . S
O55 C49 1.208 . S
O56 Cd57 2.223 . S
O56 C64 1.315 . S
Cd57 O56 2.223 . S
Cd57 O60 2.297 . S
Cd57 O61 2.439 . S
Cd57 O67 2.240 . S
Cd58 O59 2.240 . S
Cd58 O66 2.223 . S
Cd58 O68 2.297 . S
Cd58 O69 2.439 . S
O59 Cd58 2.240 . S
O59 C64 1.279 . S
O60 Cd57 2.297 . S
O60 C62 1.247 . S
O61 Cd57 2.439 . S
O61 C62 1.208 . S
C62 O60 1.247 . S
C62 O61 1.208 . S
C63 O68 1.247 . S
C63 O69 1.208 . S
C64 O56 1.315 . S
C64 O59 1.279 . S
C65 O66 1.315 . S
C65 O67 1.279 . S
O66 Cd58 2.223 . S
O66 C65 1.315 . S
O67 Cd57 2.240 . S
O67 C65 1.279 . S
O68 Cd58 2.297 . S
O68 C63 1.247 . S
O69 Cd58 2.439 . S
O69 C63 1.208 . S
O70 Cd71 2.223 . S
O70 C78 1.315 . S
Cd71 O70 2.223 . S
Cd71 O74 2.297 . S
Cd71 O75 2.439 . S
Cd71 O81 2.240 . S
Cd72 O73 2.240 . S
Cd72 O80 2.223 . S
Cd72 O82 2.297 . S
Cd72 O83 2.439 . S
O73 Cd72 2.240 . S
O73 C78 1.279 . S
O74 Cd71 2.297 . S
O74 C76 1.247 . S
O75 Cd71 2.439 . S
O75 C76 1.208 . S
C76 O74 1.247 . S
C76 O75 1.208 . S
C77 O82 1.247 . S
C77 O83 1.208 . S
C78 O70 1.315 . S
C78 O73 1.279 . S
C79 O80 1.315 . S
C79 O81 1.279 . S
O80 Cd72 2.223 . S
O80 C79 1.315 . S
O81 Cd71 2.240 . S
O81 C79 1.279 . S
O82 Cd72 2.297 . S
O82 C77 1.247 . S
O83 Cd72 2.439 . S
O83 C77 1.208 . S
O84 Cd85 2.223 . S
O84 C92 1.315 . S
Cd85 O84 2.223 . S
Cd85 O88 2.297 . S
Cd85 O89 2.439 . S
Cd85 O95 2.240 . S
Cd86 O87 2.240 . S
Cd86 O94 2.223 . S
Cd86 O96 2.297 . S
Cd86 O97 2.439 . S
O87 Cd86 2.240 . S
O87 C92 1.279 . S
O88 Cd85 2.297 . S
O88 C90 1.247 . S
O89 Cd85 2.439 . S
O89 C90 1.208 . S
C90 O88 1.247 . S
C90 O89 1.208 . S
C91 O96 1.247 . S
C91 O97 1.208 . S
C92 O84 1.315 . S
C92 O87 1.279 . S
C93 O94 1.315 . S
C93 O95 1.279 . S
O94 Cd86 2.223 . S
O94 C93 1.315 . S
O95 Cd85 2.240 . S
O95 C93 1.279 . S
O96 Cd86 2.297 . S
O96 C91 1.247 . S
O97 Cd86 2.439 . S
O97 C91 1.208 . S
O98 Cd99 2.223 . S
O98 C106 1.315 . S
Cd99 O98 2.223 . S
Cd99 O102 2.297 . S
Cd99 O103 2.439 . S
Cd99 O109 2.240 . S
Cd100 O101 2.240 . S
Cd100 O108 2.223 1_455 S
Cd100 O110 2.297 . S
Cd100 O111 2.439 . S
O101 Cd100 2.240 . S
O101 C106 1.279 . S
O102 Cd99 2.297 . S
O102 C104 1.247 . S
O103 Cd99 2.439 . S
O103 C104 1.208 . S
C104 O102 1.247 . S
C104 O103 1.208 . S
C105 O110 1.247 . S
C105 O111 1.208 . S
C106 O98 1.315 . S
C106 O101 1.279 . S
C107 O108 1.315 . S
C107 O109 1.279 1_655 S
O108 Cd100 2.223 1_655 S
O108 C107 1.315 . S
O109 Cd99 2.240 . S
O109 C107 1.279 1_455 S
O110 Cd100 2.297 . S
O110 C105 1.247 . S
O111 Cd100 2.439 . S
O111 C105 1.208 . S
O112 Cd113 2.223 1_565 S
O112 C120 1.315 1_565 S
Cd113 O112 2.223 1_545 S
Cd113 O116 2.297 . S
Cd113 O117 2.439 . S
Cd113 O123 2.240 1_545 S
Cd114 O115 2.256 . S
Cd114 O122 2.203 1_545 S
Cd114 O124 2.287 1_545 S
Cd114 O125 2.449 . S
O115 Cd114 2.256 . S
O115 C120 1.279 . S
O116 Cd113 2.297 . S
O116 C118 1.247 . S
O117 Cd113 2.439 . S
O117 C118 1.208 . S
C118 O116 1.247 . S
C118 O117 1.208 . S
C119 O124 1.247 1_545 S
C119 O125 1.208 . S
C120 O112 1.315 1_545 S
C120 O115 1.279 . S
C121 O122 1.315 . S
C121 O123 1.279 . S
O122 Cd114 2.203 1_565 S
O122 C121 1.315 . S
O123 Cd113 2.240 1_565 S
O123 C121 1.279 . S
O124 Cd114 2.287 1_565 S
O124 C119 1.247 1_565 S
O125 Cd114 2.449 . S
O125 C119 1.208 . S
O126 Cd127 2.223 . S
O126 C134 1.315 . S
Cd127 O126 2.223 . S
Cd127 O130 2.297 . S
Cd127 O131 2.439 . S
Cd127 O137 2.240 . S
Cd128 O129 2.240 . S
Cd128 O136 2.223 . S
Cd128 O138 2.297 . S
Cd128 O139 2.439 . S
O129 Cd128 2.240 . S
O129 C134 1.279 . S
O130 Cd127 2.297 . S
O130 C132 1.247 . S
O131 Cd127 2.439 . S
O131 C132 1.208 . S
C132 O130 1.247 . S
C132 O131 1.208 . S
C133 O138 1.247 . S
C133 O139 1.208 . S
C134 O126 1.315 . S
C134 O129 1.279 . S
C135 O136 1.315 . S
C135 O137 1.279 . S
O136 Cd128 2.223 . S
O136 C135 1.315 . S
O137 Cd127 2.240 . S
O137 C135 1.279 . S
O138 Cd128 2.297 . S
O138 C133 1.247 . S
O139 Cd128 2.439 . S
O139 C133 1.208 . S
O140 Cd141 2.223 . S
O140 C148 1.315 . S
Cd141 O140 2.223 . S
Cd141 O144 2.297 1_545 S
Cd141 O145 2.439 1_545 S
Cd141 O151 2.240 . S
Cd142 O143 2.240 1_545 S
Cd142 O150 2.223 . S
Cd142 O152 2.297 . S
Cd142 O153 2.439 . S
O143 Cd142 2.240 1_565 S
O143 C148 1.279 1_565 S
O144 Cd141 2.297 1_565 S
O144 C146 1.247 . S
O145 Cd141 2.439 1_565 S
O145 C146 1.208 . S
C146 O144 1.247 . S
C146 O145 1.208 . S
C147 O152 1.247 . S
C147 O153 1.208 . S
C148 O140 1.315 . S
C148 O143 1.279 1_545 S
C149 O150 1.315 . S
C149 O151 1.279 . S
O150 Cd142 2.223 . S
O150 C149 1.315 . S
O151 Cd141 2.240 . S
O151 C149 1.279 . S
O152 Cd142 2.297 . S
O152 C147 1.247 . S
O153 Cd142 2.439 . S
O153 C147 1.208 . S
O154 Cd155 2.223 . S
O154 C162 1.315 . S
Cd155 O154 2.223 . S
Cd155 O158 2.297 . S
Cd155 O159 2.439 1_554 S
Cd155 O165 2.236 1_554 S
Cd156 O157 2.240 1_556 S
Cd156 O164 2.223 1_556 S
Cd156 O166 2.297 . S
Cd156 O167 2.439 . S
O157 Cd156 2.240 1_554 S
O157 C162 1.279 . S
O158 Cd155 2.297 . S
O158 C160 1.247 . S
O159 Cd155 2.439 1_556 S
O159 C160 1.208 1_556 S
C160 O158 1.247 . S
C160 O159 1.208 1_554 S
C161 O166 1.247 . S
C161 O167 1.208 . S
C162 O154 1.315 . S
C162 O157 1.279 . S
C163 O164 1.315 . S
C163 O165 1.276 1_554 S
O164 Cd156 2.223 1_554 S
O164 C163 1.315 . S
O165 Cd155 2.236 1_556 S
O165 C163 1.276 1_556 S
O166 Cd156 2.297 . S
O166 C161 1.247 . S
O167 Cd156 2.439 . S
O167 C161 1.208 . S
O168 Cd169 2.223 . S
O168 C176 1.315 . S
Cd169 O168 2.223 . S
Cd169 O172 2.297 . S
Cd169 O173 2.439 . S
Cd169 O179 2.240 . S
Cd170 O171 2.240 . S
Cd170 O178 2.223 . S
Cd170 O180 2.297 1_554 S
Cd170 O181 2.439 1_554 S
O171 Cd170 2.240 . S
O171 C176 1.279 . S
O172 Cd169 2.297 . S
O172 C174 1.247 . S
O173 Cd169 2.439 . S
O173 C174 1.208 . S
C174 O172 1.247 . S
C174 O173 1.208 . S
C175 O180 1.247 . S
C175 O181 1.208 . S
C176 O168 1.315 . S
C176 O171 1.279 . S
C177 O178 1.315 . S
C177 O179 1.279 . S
O178 Cd170 2.223 . S
O178 C177 1.315 . S
O179 Cd169 2.240 . S
O179 C177 1.279 . S
O180 Cd170 2.297 1_556 S
O180 C175 1.247 . S
O181 Cd170 2.439 1_556 S
O181 C175 1.208 . S
O182 Cd183 2.223 . S
O182 C190 1.315 . S
Cd183 O182 2.223 . S
Cd183 O186 2.297 . S
Cd183 O187 2.439 . S
Cd183 O193 2.240 . S
Cd184 O185 2.240 . S
Cd184 O192 2.223 . S
Cd184 O194 2.297 1_554 S
Cd184 O195 2.439 1_554 S
O185 Cd184 2.240 . S
O185 C190 1.279 . S
O186 Cd183 2.297 . S
O186 C188 1.247 . S
O187 Cd183 2.439 . S
O187 C188 1.208 . S
C188 O186 1.247 . S
C188 O187 1.208 . S
C189 O194 1.247 . S
C189 O195 1.208 . S
C190 O182 1.315 . S
C190 O185 1.279 . S
C191 O192 1.315 . S
C191 O193 1.279 . S
O192 Cd184 2.223 . S
O192 C191 1.315 . S
O193 Cd183 2.240 . S
O193 C191 1.279 . S
O194 Cd184 2.297 1_556 S
O194 C189 1.247 . S
O195 Cd184 2.439 1_556 S
O195 C189 1.208 . S
O196 Cd197 2.223 . S
O196 C204 1.315 . S
Cd197 O196 2.223 . S
Cd197 O200 2.297 . S
Cd197 O201 2.439 . S
Cd197 O207 2.240 . S
Cd198 O199 2.240 . S
Cd198 O206 2.223 . S
Cd198 O208 2.297 . S
Cd198 O209 2.439 . S
O199 Cd198 2.240 . S
O199 C204 1.279 . S
O200 Cd197 2.297 . S
O200 C202 1.247 . S
O201 Cd197 2.439 . S
O201 C202 1.208 . S
C202 O200 1.247 . S
C202 O201 1.208 . S
C203 O208 1.247 . S
C203 O209 1.208 . S
C204 O196 1.315 . S
C204 O199 1.279 . S
C205 O206 1.315 . S
C205 O207 1.279 . S
O206 Cd198 2.223 . S
O206 C205 1.315 . S
O207 Cd197 2.240 . S
O207 C205 1.279 . S
O208 Cd198 2.297 . S
O208 C203 1.247 . S
O209 Cd198 2.439 . S
O209 C203 1.208 . S
O210 Cd211 2.223 . S
O210 C218 1.315 . S
Cd211 O210 2.223 . S
Cd211 O214 2.297 . S
Cd211 O215 2.439 . S
Cd211 O221 2.240 . S
Cd212 O213 2.240 . S
Cd212 O220 2.223 . S
Cd212 O222 2.297 . S
Cd212 O223 2.439 . S
O213 Cd212 2.240 . S
O213 C218 1.279 . S
O214 Cd211 2.297 . S
O214 C216 1.247 . S
O215 Cd211 2.439 . S
O215 C216 1.208 . S
C216 O214 1.247 . S
C216 O215 1.208 . S
C217 O222 1.247 . S
C217 O223 1.208 . S
C218 O210 1.315 . S
C218 O213 1.279 . S
C219 O220 1.315 . S
C219 O221 1.279 . S
O220 Cd212 2.223 . S
O220 C219 1.315 . S
O221 Cd211 2.240 . S
O221 C219 1.279 . S
O222 Cd212 2.297 . S
O222 C217 1.247 . S
O223 Cd212 2.439 . S
O223 C217 1.208 . S
O224 Cd225 2.223 . S
O224 C232 1.315 . S
Cd225 O224 2.223 . S
Cd225 O228 2.297 . S
Cd225 O229 2.439 . S
Cd225 O235 2.240 . S
Cd226 O227 2.240 . S
Cd226 O234 2.223 . S
Cd226 O236 2.297 . S
Cd226 O237 2.439 . S
O227 Cd226 2.240 . S
O227 C232 1.279 . S
O228 Cd225 2.297 . S
O228 C230 1.247 . S
O229 Cd225 2.439 . S
O229 C230 1.208 . S
C230 O228 1.247 . S
C230 O229 1.208 . S
C231 O236 1.247 . S
C231 O237 1.208 . S
C232 O224 1.315 . S
C232 O227 1.279 . S
C233 O234 1.315 . S
C233 O235 1.279 . S
O234 Cd226 2.223 . S
O234 C233 1.315 . S
O235 Cd225 2.240 . S
O235 C233 1.279 . S
O236 Cd226 2.297 . S
O236 C231 1.247 . S
O237 Cd226 2.439 . S
O237 C231 1.208 . S
O238 Cd239 2.223 . S
O238 C246 1.315 . S
Cd239 O238 2.223 . S
Cd239 O242 2.297 . S
Cd239 O243 2.439 . S
Cd239 O249 2.240 . S
Cd240 O241 2.240 . S
Cd240 O248 2.223 . S
Cd240 O250 2.297 . S
Cd240 O251 2.439 . S
O241 Cd240 2.240 . S
O241 C246 1.279 . S
O242 Cd239 2.297 . S
O242 C244 1.247 . S
O243 Cd239 2.439 . S
O243 C244 1.208 . S
C244 O242 1.247 . S
C244 O243 1.208 . S
C245 O250 1.247 . S
C245 O251 1.208 . S
C246 O238 1.315 . S
C246 O241 1.279 . S
C247 O248 1.315 . S
C247 O249 1.279 . S
O248 Cd240 2.223 . S
O248 C247 1.315 . S
O249 Cd239 2.240 . S
O249 C247 1.279 . S
O250 Cd240 2.297 . S
O250 C245 1.247 . S
O251 Cd240 2.439 . S
O251 C245 1.208 . S
O252 Cd253 2.223 . S
O252 C260 1.315 . S
Cd253 O252 2.223 . S
Cd253 O256 2.297 . S
Cd253 O257 2.439 . S
Cd253 O263 2.240 . S
Cd254 O255 2.240 . S
Cd254 O262 2.223 . S
Cd254 O264 2.297 . S
Cd254 O265 2.439 . S
O255 Cd254 2.240 . S
O255 C260 1.279 . S
O256 Cd253 2.297 . S
O256 C258 1.247 . S
O257 Cd253 2.439 . S
O257 C258 1.208 . S
C258 O256 1.247 . S
C258 O257 1.208 . S
C259 O264 1.247 . S
C259 O265 1.208 . S
C260 O252 1.315 . S
C260 O255 1.279 . S
C261 O262 1.315 . S
C261 O263 1.279 . S
O262 Cd254 2.223 . S
O262 C261 1.315 . S
O263 Cd253 2.240 . S
O263 C261 1.279 . S
O264 Cd254 2.297 . S
O264 C259 1.247 . S
O265 Cd254 2.439 . S
O265 C259 1.208 . S
O266 Cd267 2.223 . S
O266 C274 1.315 . S
Cd267 O266 2.223 . S
Cd267 O270 2.297 . S
Cd267 O271 2.439 . S
Cd267 O277 2.240 . S
Cd268 O269 2.240 . S
Cd268 O276 2.223 . S
Cd268 O278 2.297 . S
Cd268 O279 2.439 . S
O269 Cd268 2.240 . S
O269 C274 1.279 . S
O270 Cd267 2.297 . S
O270 C272 1.247 . S
O271 Cd267 2.439 . S
O271 C272 1.208 . S
C272 O270 1.247 . S
C272 O271 1.208 . S
C273 O278 1.247 . S
C273 O279 1.208 . S
C274 O266 1.315 . S
C274 O269 1.279 . S
C275 O276 1.315 . S
C275 O277 1.279 . S
O276 Cd268 2.223 . S
O276 C275 1.315 . S
O277 Cd267 2.240 . S
O277 C275 1.279 . S
O278 Cd268 2.297 . S
O278 C273 1.247 . S
O279 Cd268 2.439 . S
O279 C273 1.208 . S
O280 Cd281 2.223 . S
O280 C288 1.315 . S
Cd281 O280 2.223 . S
Cd281 O284 2.297 . S
Cd281 O285 2.439 . S
Cd281 O291 2.240 . S
Cd282 O283 2.240 . S
Cd282 O290 2.223 . S
Cd282 O292 2.297 1_554 S
Cd282 O293 2.439 1_554 S
O283 Cd282 2.240 . S
O283 C288 1.279 . S
O284 Cd281 2.297 . S
O284 C286 1.247 . S
O285 Cd281 2.439 . S
O285 C286 1.208 . S
C286 O284 1.247 . S
C286 O285 1.208 . S
C287 O292 1.247 . S
C287 O293 1.208 . S
C288 O280 1.315 . S
C288 O283 1.279 . S
C289 O290 1.315 . S
C289 O291 1.279 . S
O290 Cd282 2.223 . S
O290 C289 1.315 . S
O291 Cd281 2.240 . S
O291 C289 1.279 . S
O292 Cd282 2.297 1_556 S
O292 C287 1.247 . S
O293 Cd282 2.439 1_556 S
O293 C287 1.208 . S
O294 Cd295 2.223 . S
O294 C302 1.315 . S
Cd295 O294 2.223 . S
Cd295 O298 2.297 . S
Cd295 O299 2.439 . S
Cd295 O305 2.240 . S
Cd296 O297 2.240 . S
Cd296 O304 2.223 . S
Cd296 O306 2.297 . S
Cd296 O307 2.439 . S
O297 Cd296 2.240 . S
O297 C302 1.279 . S
O298 Cd295 2.297 . S
O298 C300 1.247 . S
O299 Cd295 2.439 . S
O299 C300 1.208 . S
C300 O298 1.247 . S
C300 O299 1.208 . S
C301 O306 1.247 . S
C301 O307 1.208 . S
C302 O294 1.315 . S
C302 O297 1.279 . S
C303 O304 1.315 . S
C303 O305 1.279 . S
O304 Cd296 2.223 . S
O304 C303 1.315 . S
O305 Cd295 2.240 . S
O305 C303 1.279 . S
O306 Cd296 2.297 . S
O306 C301 1.247 . S
O307 Cd296 2.439 . S
O307 C301 1.208 . S
O308 Cd309 2.223 . S
O308 C316 1.315 . S
Cd309 O308 2.223 . S
Cd309 O312 2.297 . S
Cd309 O313 2.439 . S
Cd309 O319 2.240 . S
Cd310 O311 2.240 . S
Cd310 O318 2.223 . S
Cd310 O320 2.297 . S
Cd310 O321 2.439 . S
O311 Cd310 2.240 . S
O311 C316 1.279 . S
O312 Cd309 2.297 . S
O312 C314 1.247 . S
O313 Cd309 2.439 . S
O313 C314 1.208 . S
C314 O312 1.247 . S
C314 O313 1.208 . S
C315 O320 1.247 . S
C315 O321 1.208 . S
C316 O308 1.315 . S
C316 O311 1.279 . S
C317 O318 1.315 . S
C317 O319 1.279 . S
O318 Cd310 2.223 . S
O318 C317 1.315 . S
O319 Cd309 2.240 . S
O319 C317 1.279 . S
O320 Cd310 2.297 . S
O320 C315 1.247 . S
O321 Cd310 2.439 . S
O321 C315 1.208 . S
O322 Cd323 2.223 . S
O322 C330 1.315 . S
Cd323 O322 2.223 . S
Cd323 O326 2.297 . S
Cd323 O327 2.439 . S
Cd323 O333 2.240 . S
Cd324 O325 2.240 . S
Cd324 O332 2.223 . S
Cd324 O334 2.297 . S
Cd324 O335 2.439 . S
O325 Cd324 2.240 . S
O325 C330 1.279 . S
O326 Cd323 2.297 . S
O326 C328 1.247 . S
O327 Cd323 2.439 . S
O327 C328 1.208 . S
C328 O326 1.247 . S
C328 O327 1.208 . S
C329 O334 1.247 . S
C329 O335 1.208 . S
C330 O322 1.315 . S
C330 O325 1.279 . S
C331 O332 1.315 . S
C331 O333 1.279 . S
O332 Cd324 2.223 . S
O332 C331 1.315 . S
O333 Cd323 2.240 . S
O333 C331 1.279 . S
O334 Cd324 2.297 . S
O334 C329 1.247 . S
O335 Cd324 2.439 . S
O335 C329 1.208 . S
Eu336 C345 2.828 . S
Eu336 O347 2.392 . S
Eu336 O349 2.418 . S
Eu336 O354 2.373 . S
Eu336 O357 2.488 . S
Eu336 O358 2.471 1_554 S
Eu336 O359 2.349 1_554 S
Eu337 O346 2.373 . S
Eu337 O350 2.488 1_545 S
Eu337 O351 2.471 1_545 S
Eu337 O352 2.349 . S
Eu337 O355 2.392 . S
Eu337 O356 2.418 1_554 S
Eu337 C366 2.828 1_545 S
C338 O356 1.244 . S
C338 O359 1.265 . S
C339 C340 1.379 1_554 S
C339 C343 1.373 . S
C339 C345 1.505 . S
C340 C339 1.379 1_556 S
C340 C342 1.369 . S
C340 H368 0.930 . S
C341 C343 1.383 . S
C341 C344 1.382 1_554 S
C341 H369 0.930 . S
C342 C340 1.369 . S
C342 C344 1.392 . S
C342 H370 0.930 . S
C343 C339 1.373 . S
C343 C341 1.383 . S
C343 H371 0.931 . S
C344 C341 1.382 1_556 S
C344 C342 1.392 . S
C345 Eu336 2.828 . S
C345 C339 1.505 . S
C345 O357 1.249 . S
C345 O358 1.244 1_554 S
O346 Eu337 2.373 . S
O346 C348 1.258 . S
O347 Eu336 2.392 . S
O347 C348 1.242 . S
C348 O346 1.258 . S
C348 O347 1.242 . S
O349 Eu336 2.418 . S
O349 C353 1.244 . S
O350 Eu337 2.488 1_565 S
O350 C366 1.249 . S
O351 Eu337 2.471 1_565 S
O351 C366 1.244 . S
O352 Eu337 2.349 . S
O352 C353 1.265 . S
C353 O349 1.244 . S
C353 O352 1.265 . S
O354 Eu336 2.373 . S
O354 C367 1.258 . S
O355 Eu337 2.392 . S
O355 C367 1.242 . S
O356 Eu337 2.418 1_556 S
O356 C338 1.244 . S
O357 Eu336 2.488 . S
O357 C345 1.249 . S
O358 Eu336 2.471 1_556 S
O358 C345 1.244 1_556 S
O359 Eu336 2.349 1_556 S
O359 C338 1.265 . S
C360 C361 1.379 . S
C360 C364 1.373 . S
C360 C366 1.505 . S
C361 C360 1.379 . S
C361 C363 1.369 . S
C361 H372 0.930 . S
C362 C364 1.383 . S
C362 C365 1.382 . S
C362 H373 0.930 . S
C363 C361 1.369 . S
C363 C365 1.392 . S
C363 H374 0.930 . S
C364 C360 1.373 . S
C364 C362 1.383 . S
C364 H375 0.931 1_554 S
C365 C362 1.382 . S
C365 C363 1.392 . S
C366 Eu337 2.828 1_565 S
C366 O350 1.249 . S
C366 O351 1.244 . S
C366 C360 1.505 . S
C367 O354 1.258 . S
C367 O355 1.242 . S
H368 C340 0.930 . S
H369 C341 0.930 . S
H370 C342 0.930 . S
H371 C343 0.931 . S
H372 C361 0.930 . S
H373 C362 0.930 . S
H374 C363 0.930 . S
H375 C364 0.931 1_556 S
Eu376 C385 2.828 . S
Eu376 O387 2.392 . S
Eu376 O389 2.418 . S
Eu376 O394 2.373 . S
Eu376 O397 2.488 . S
Eu376 O398 2.471 . S
Eu376 O399 2.349 . S
Eu377 O386 2.373 . S
Eu377 O390 2.488 . S
Eu377 O391 2.471 . S
Eu377 O392 2.349 . S
Eu377 O395 2.392 . S
Eu377 O396 2.418 . S
Eu377 C406 2.828 . S
C378 O396 1.244 . S
C378 O399 1.265 . S
C379 C380 1.379 . S
C379 C383 1.373 . S
C379 C385 1.505 . S
C380 C379 1.379 . S
C380 C382 1.369 . S
C380 H408 0.930 . S
C381 C383 1.383 . S
C381 C384 1.382 . S
C381 H409 0.930 . S
C382 C380 1.369 . S
C382 C384 1.392 . S
C382 H410 0.930 . S
C383 C379 1.373 . S
C383 C381 1.383 . S
C383 H411 0.931 . S
C384 C381 1.382 . S
C384 C382 1.392 . S
C385 Eu376 2.828 . S
C385 C379 1.505 . S
C385 O397 1.249 . S
C385 O398 1.244 . S
O386 Eu377 2.373 . S
O386 C388 1.258 . S
O387 Eu376 2.392 . S
O387 C388 1.242 . S
C388 O386 1.258 . S
C388 O387 1.242 . S
O389 Eu376 2.418 . S
O389 C393 1.244 . S
O390 Eu377 2.488 . S
O390 C406 1.249 . S
O391 Eu377 2.471 . S
O391 C406 1.244 . S
O392 Eu377 2.349 . S
O392 C393 1.265 . S
C393 O389 1.244 . S
C393 O392 1.265 . S
O394 Eu376 2.373 . S
O394 C407 1.258 . S
O395 Eu377 2.392 . S
O395 C407 1.242 . S
O396 Eu377 2.418 . S
O396 C378 1.244 . S
O397 Eu376 2.488 . S
O397 C385 1.249 . S
O398 Eu376 2.471 . S
O398 C385 1.244 . S
O399 Eu376 2.349 . S
O399 C378 1.265 . S
C400 C401 1.379 . S
C400 C404 1.373 . S
C400 C406 1.505 . S
C401 C400 1.379 . S
C401 C403 1.369 . S
C401 H412 0.930 . S
C402 C404 1.383 . S
C402 C405 1.382 . S
C402 H413 0.930 . S
C403 C401 1.369 . S
C403 C405 1.392 . S
C403 H414 0.930 . S
C404 C400 1.373 . S
C404 C402 1.383 . S
C404 H415 0.931 . S
C405 C402 1.382 . S
C405 C403 1.392 . S
C406 Eu377 2.828 . S
C406 O390 1.249 . S
C406 O391 1.244 . S
C406 C400 1.505 . S
C407 O394 1.258 . S
C407 O395 1.242 . S
H408 C380 0.930 . S
H409 C381 0.930 . S
H410 C382 0.930 . S
H411 C383 0.931 . S
H412 C401 0.930 . S
H413 C402 0.930 . S
H414 C403 0.930 . S
H415 C404 0.931 . S
Eu416 C425 2.828 . S
Eu416 O427 2.392 . S
Eu416 O429 2.418 . S
Eu416 O434 2.373 1_545 S
Eu416 O437 2.488 . S
Eu416 O438 2.471 . S
Eu416 O439 2.349 . S
Eu417 O426 2.373 . S
Eu417 O430 2.488 . S
Eu417 O431 2.471 . S
Eu417 O432 2.349 . S
Eu417 O435 2.392 1_545 S
Eu417 O436 2.418 . S
Eu417 C446 2.828 . S
C418 O436 1.244 . S
C418 O439 1.265 . S
C419 C420 1.379 . S
C419 C423 1.373 . S
C419 C425 1.505 1_565 S
C420 C419 1.379 . S
C420 C422 1.369 . S
C420 H448 0.930 . S
C421 C423 1.383 . S
C421 C424 1.382 . S
C421 H449 0.930 . S
C422 C420 1.369 . S
C422 C424 1.392 . S
C422 H450 0.930 . S
C423 C419 1.373 . S
C423 C421 1.383 . S
C423 H451 0.931 1_565 S
C424 C421 1.382 . S
C424 C422 1.392 . S
C425 Eu416 2.828 . S
C425 C419 1.505 1_545 S
C425 O437 1.249 . S
C425 O438 1.244 . S
O426 Eu417 2.373 . S
O426 C428 1.258 . S
O427 Eu416 2.392 . S
O427 C428 1.242 . S
C428 O426 1.258 . S
C428 O427 1.242 . S
O429 Eu416 2.418 . S
O429 C433 1.244 . S
O430 Eu417 2.488 . S
O430 C446 1.249 . S
O431 Eu417 2.471 . S
O431 C446 1.244 . S
O432 Eu417 2.349 . S
O432 C433 1.265 . S
C433 O429 1.244 . S
C433 O432 1.265 . S
O434 Eu416 2.373 1_565 S
O434 C447 1.258 . S
O435 Eu417 2.392 1_565 S
O435 C447 1.242 . S
O436 Eu417 2.418 . S
O436 C418 1.244 . S
O437 Eu416 2.488 . S
O437 C425 1.249 . S
O438 Eu416 2.471 . S
O438 C425 1.244 . S
O439 Eu416 2.349 . S
O439 C418 1.265 . S
C440 C441 1.379 . S
C440 C444 1.373 . S
C440 C446 1.505 . S
C441 C440 1.379 . S
C441 C443 1.369 . S
C441 H452 0.930 . S
C442 C444 1.383 . S
C442 C445 1.382 . S
C442 H453 0.930 . S
C443 C441 1.369 . S
C443 C445 1.392 . S
C443 H454 0.930 . S
C444 C440 1.373 . S
C444 C442 1.383 . S
C444 H455 0.931 . S
C445 C442 1.382 . S
C445 C443 1.392 . S
C446 Eu417 2.828 . S
C446 O430 1.249 . S
C446 O431 1.244 . S
C446 C440 1.505 . S
C447 O434 1.258 . S
C447 O435 1.242 . S
H448 C420 0.930 . S
H449 C421 0.930 . S
H450 C422 0.930 . S
H451 C423 0.931 1_545 S
H452 C441 0.930 . S
H453 C442 0.930 . S
H454 C443 0.930 . S
H455 C444 0.931 . S
Eu456 C465 2.828 . S
Eu456 O467 2.392 . S
Eu456 O469 2.418 . S
Eu456 O474 2.373 . S
Eu456 O477 2.488 . S
Eu456 O478 2.471 . S
Eu456 O479 2.349 . S
Eu457 O466 2.373 . S
Eu457 O470 2.488 . S
Eu457 O471 2.471 . S
Eu457 O472 2.349 . S
Eu457 O475 2.392 . S
Eu457 O476 2.418 . S
Eu457 C486 2.828 . S
C458 O476 1.244 . S
C458 O479 1.265 . S
C459 C460 1.379 . S
C459 C463 1.373 . S
C459 C465 1.505 . S
C460 C459 1.379 . S
C460 C462 1.369 . S
C460 H488 0.930 . S
C461 C463 1.383 . S
C461 C464 1.382 . S
C461 H489 0.930 . S
C462 C460 1.369 . S
C462 C464 1.392 . S
C462 H490 0.930 . S
C463 C459 1.373 . S
C463 C461 1.383 . S
C463 H491 0.931 . S
C464 C461 1.382 . S
C464 C462 1.392 . S
C465 Eu456 2.828 . S
C465 C459 1.505 . S
C465 O477 1.249 . S
C465 O478 1.244 . S
O466 Eu457 2.373 . S
O466 C468 1.258 . S
O467 Eu456 2.392 . S
O467 C468 1.242 . S
C468 O466 1.258 . S
C468 O467 1.242 . S
O469 Eu456 2.418 . S
O469 C473 1.244 . S
O470 Eu457 2.488 . S
O470 C486 1.249 . S
O471 Eu457 2.471 . S
O471 C486 1.244 . S
O472 Eu457 2.349 . S
O472 C473 1.265 . S
C473 O469 1.244 . S
C473 O472 1.265 . S
O474 Eu456 2.373 . S
O474 C487 1.258 . S
O475 Eu457 2.392 . S
O475 C487 1.242 . S
O476 Eu457 2.418 . S
O476 C458 1.244 . S
O477 Eu456 2.488 . S
O477 C465 1.249 . S
O478 Eu456 2.471 . S
O478 C465 1.244 . S
O479 Eu456 2.349 . S
O479 C458 1.265 . S
C480 C481 1.379 . S
C480 C484 1.373 . S
C480 C486 1.505 . S
C481 C480 1.379 . S
C481 C483 1.369 . S
C481 H492 0.930 . S
C482 C484 1.383 . S
C482 C485 1.382 . S
C482 H493 0.930 . S
C483 C481 1.369 . S
C483 C485 1.392 . S
C483 H494 0.930 . S
C484 C480 1.373 . S
C484 C482 1.383 . S
C484 H495 0.931 . S
C485 C482 1.382 . S
C485 C483 1.392 . S
C486 Eu457 2.828 . S
C486 O470 1.249 . S
C486 O471 1.244 . S
C486 C480 1.505 . S
C487 O474 1.258 . S
C487 O475 1.242 . S
H488 C460 0.930 . S
H489 C461 0.930 . S
H490 C462 0.930 . S
H491 C463 0.931 . S
H492 C481 0.930 . S
H493 C482 0.930 . S
H494 C483 0.930 . S
H495 C484 0.931 . S
Eu496 C505 2.828 . S
Eu496 O507 2.392 . S
Eu496 O509 2.418 . S
Eu496 O514 2.373 . S
Eu496 O517 2.488 . S
Eu496 O518 2.471 . S
Eu496 O519 2.349 . S
Eu497 O506 2.373 . S
Eu497 O510 2.488 1_545 S
Eu497 O511 2.471 1_545 S
Eu497 O512 2.349 . S
Eu497 O515 2.392 . S
Eu497 O516 2.418 . S
Eu497 C526 2.828 1_545 S
C498 O516 1.244 . S
C498 O519 1.265 . S
C499 C500 1.379 . S
C499 C503 1.373 . S
C499 C505 1.505 . S
C500 C499 1.379 . S
C500 C502 1.369 . S
C500 H528 0.930 . S
C501 C503 1.383 . S
C501 C504 1.382 . S
C501 H529 0.930 . S
C502 C500 1.369 . S
C502 C504 1.392 . S
C502 H530 0.930 . S
C503 C499 1.373 . S
C503 C501 1.383 . S
C503 H531 0.931 . S
C504 C501 1.382 . S
C504 C502 1.392 . S
C505 Eu496 2.828 . S
C505 C499 1.505 . S
C505 O517 1.249 . S
C505 O518 1.244 . S
O506 Eu497 2.373 . S
O506 C508 1.258 . S
O507 Eu496 2.392 . S
O507 C508 1.242 . S
C508 O506 1.258 . S
C508 O507 1.242 . S
O509 Eu496 2.418 . S
O509 C513 1.244 . S
O510 Eu497 2.488 1_565 S
O510 C526 1.249 . S
O511 Eu497 2.471 1_565 S
O511 C526 1.244 . S
O512 Eu497 2.349 . S
O512 C513 1.265 . S
C513 O509 1.244 . S
C513 O512 1.265 . S
O514 Eu496 2.373 . S
O514 C527 1.258 . S
O515 Eu497 2.392 . S
O515 C527 1.242 . S
O516 Eu497 2.418 . S
O516 C498 1.244 . S
O517 Eu496 2.488 . S
O517 C505 1.249 . S
O518 Eu496 2.471 . S
O518 C505 1.244 . S
O519 Eu496 2.349 . S
O519 C498 1.265 . S
C520 C521 1.379 . S
C520 C524 1.373 . S
C520 C526 1.505 . S
C521 C520 1.379 . S
C521 C523 1.369 . S
C521 H532 0.930 . S
C522 C524 1.383 . S
C522 C525 1.382 . S
C522 H533 0.930 . S
C523 C521 1.369 . S
C523 C525 1.392 . S
C523 H534 0.930 . S
C524 C520 1.373 . S
C524 C522 1.383 . S
C524 H535 0.931 . S
C525 C522 1.382 . S
C525 C523 1.392 . S
C526 Eu497 2.828 1_565 S
C526 O510 1.249 . S
C526 O511 1.244 . S
C526 C520 1.505 . S
C527 O514 1.258 . S
C527 O515 1.242 . S
H528 C500 0.930 . S
H529 C501 0.930 . S
H530 C502 0.930 . S
H531 C503 0.931 . S
H532 C521 0.930 . S
H533 C522 0.930 . S
H534 C523 0.930 . S
H535 C524 0.931 . S
Eu536 C545 2.828 . S
Eu536 O547 2.392 . S
Eu536 O549 2.418 . S
Eu536 O554 2.373 . S
Eu536 O557 2.488 . S
Eu536 O558 2.471 . S
Eu536 O559 2.349 . S
Eu537 O546 2.373 . S
Eu537 O550 2.488 . S
Eu537 O551 2.471 . S
Eu537 O552 2.349 . S
Eu537 O555 2.392 . S
Eu537 O556 2.418 . S
Eu537 C566 2.828 . S
C538 O556 1.244 . S
C538 O559 1.265 . S
C539 C540 1.379 . S
C539 C543 1.373 . S
C539 C545 1.505 . S
C540 C539 1.379 . S
C540 C542 1.369 . S
C540 H568 0.930 . S
C541 C543 1.383 . S
C541 C544 1.382 . S
C541 H569 0.930 . S
C542 C540 1.369 . S
C542 C544 1.392 . S
C542 H570 0.930 . S
C543 C539 1.373 . S
C543 C541 1.383 . S
C543 H571 0.931 . S
C544 C541 1.382 . S
C544 C542 1.392 . S
C545 Eu536 2.828 . S
C545 C539 1.505 . S
C545 O557 1.249 . S
C545 O558 1.244 . S
O546 Eu537 2.373 . S
O546 C548 1.258 . S
O547 Eu536 2.392 . S
O547 C548 1.242 . S
C548 O546 1.258 . S
C548 O547 1.242 . S
O549 Eu536 2.418 . S
O549 C553 1.244 . S
O550 Eu537 2.488 . S
O550 C566 1.249 . S
O551 Eu537 2.471 . S
O551 C566 1.244 . S
O552 Eu537 2.349 . S
O552 C553 1.265 . S
C553 O549 1.244 . S
C553 O552 1.265 . S
O554 Eu536 2.373 . S
O554 C567 1.258 . S
O555 Eu537 2.392 . S
O555 C567 1.242 . S
O556 Eu537 2.418 . S
O556 C538 1.244 . S
O557 Eu536 2.488 . S
O557 C545 1.249 . S
O558 Eu536 2.471 . S
O558 C545 1.244 . S
O559 Eu536 2.349 . S
O559 C538 1.265 . S
C560 C561 1.379 . S
C560 C564 1.373 . S
C560 C566 1.505 . S
C561 C560 1.379 . S
C561 C563 1.369 . S
C561 H572 0.930 . S
C562 C564 1.383 . S
C562 C565 1.382 . S
C562 H573 0.930 . S
C563 C561 1.369 . S
C563 C565 1.392 . S
C563 H574 0.930 . S
C564 C560 1.373 . S
C564 C562 1.383 . S
C564 H575 0.931 . S
C565 C562 1.382 . S
C565 C563 1.392 . S
C566 Eu537 2.828 . S
C566 O550 1.249 . S
C566 O551 1.244 . S
C566 C560 1.505 . S
C567 O554 1.258 . S
C567 O555 1.242 . S
H568 C540 0.930 . S
H569 C541 0.930 . S
H570 C542 0.930 . S
H571 C543 0.931 . S
H572 C561 0.930 . S
H573 C562 0.930 . S
H574 C563 0.930 . S
H575 C564 0.931 . S
Eu576 C585 2.828 . S
Eu576 O587 2.392 . S
Eu576 O589 2.418 1_545 S
Eu576 O594 2.373 . S
Eu576 O597 2.488 . S
Eu576 O598 2.471 . S
Eu576 O599 2.349 . S
Eu577 O586 2.373 1_556 S
Eu577 O590 2.488 . S
Eu577 O591 2.471 . S
Eu577 O592 2.349 1_556 S
Eu577 O595 2.392 1_556 S
Eu577 O596 2.418 1_556 S
Eu577 C606 2.828 . S
C578 O596 1.244 . S
C578 O599 1.265 . S
C579 C580 1.379 . S
C579 C583 1.373 1_545 S
C579 C585 1.505 . S
C580 C579 1.379 . S
C580 C582 1.369 . S
C580 H608 0.930 . S
C581 C583 1.383 . S
C581 C584 1.382 1_565 S
C581 H609 0.930 . S
C582 C580 1.369 . S
C582 C584 1.392 . S
C582 H610 0.930 . S
C583 C579 1.373 1_565 S
C583 C581 1.383 . S
C583 H611 0.931 . S
C584 C581 1.382 1_545 S
C584 C582 1.392 . S
C585 Eu576 2.828 . S
C585 C579 1.505 . S
C585 O597 1.249 . S
C585 O598 1.244 . S
O586 Eu577 2.373 1_554 S
O586 C588 1.258 . S
O587 Eu576 2.392 . S
O587 C588 1.242 . S
C588 O586 1.258 . S
C588 O587 1.242 . S
O589 Eu576 2.418 1_565 S
O589 C593 1.244 . S
O590 Eu577 2.488 . S
O590 C606 1.249 . S
O591 Eu577 2.471 . S
O591 C606 1.244 . S
O592 Eu577 2.349 1_554 S
O592 C593 1.265 1_545 S
C593 O589 1.244 . S
C593 O592 1.265 1_565 S
O594 Eu576 2.373 . S
O594 C607 1.258 . S
O595 Eu577 2.392 1_554 S
O595 C607 1.242 . S
O596 Eu577 2.418 1_554 S
O596 C578 1.244 . S
O597 Eu576 2.488 . S
O597 C585 1.249 . S
O598 Eu576 2.471 . S
O598 C585 1.244 . S
O599 Eu576 2.349 . S
O599 C578 1.265 . S
C600 C601 1.379 . S
C600 C604 1.373 . S
C600 C606 1.505 . S
C601 C600 1.379 . S
C601 C603 1.369 . S
C601 H612 0.930 . S
C602 C604 1.383 . S
C602 C605 1.382 . S
C602 H613 0.930 . S
C603 C601 1.369 . S
C603 C605 1.392 . S
C603 H614 0.930 . S
C604 C600 1.373 . S
C604 C602 1.383 . S
C604 H615 0.931 . S
C605 C602 1.382 . S
C605 C603 1.392 . S
C606 Eu577 2.828 . S
C606 O590 1.249 . S
C606 O591 1.244 . S
C606 C600 1.505 . S
C607 O594 1.258 . S
C607 O595 1.242 . S
H608 C580 0.930 . S
H609 C581 0.930 . S
H610 C582 0.930 . S
H611 C583 0.931 . S
H612 C601 0.930 . S
H613 C602 0.930 . S
H614 C603 0.930 . S
H615 C604 0.931 . S
Eu616 C625 2.828 . S
Eu616 O627 2.392 . S
Eu616 O629 2.418 . S
Eu616 O634 2.373 . S
Eu616 O637 2.488 . S
Eu616 O638 2.471 . S
Eu616 O639 2.349 . S
Eu617 O626 2.373 . S
Eu617 O630 2.488 . S
Eu617 O631 2.471 . S
Eu617 O632 2.349 . S
Eu617 O635 2.392 . S
Eu617 O636 2.418 . S
Eu617 C646 2.828 . S
C618 O636 1.244 . S
C618 O639 1.265 . S
C619 C620 1.379 . S
C619 C623 1.373 . S
C619 C625 1.505 . S
C620 C619 1.379 . S
C620 C622 1.369 . S
C620 H648 0.930 . S
C621 C623 1.383 . S
C621 C624 1.382 . S
C621 H649 0.930 . S
C622 C620 1.369 . S
C622 C624 1.392 . S
C622 H650 0.930 . S
C623 C619 1.373 . S
C623 C621 1.383 . S
C623 H651 0.931 . S
C624 C621 1.382 . S
C624 C622 1.392 . S
C625 Eu616 2.828 . S
C625 C619 1.505 . S
C625 O637 1.249 . S
C625 O638 1.244 . S
O626 Eu617 2.373 . S
O626 C628 1.258 . S
O627 Eu616 2.392 . S
O627 C628 1.242 . S
C628 O626 1.258 . S
C628 O627 1.242 . S
O629 Eu616 2.418 . S
O629 C633 1.244 . S
O630 Eu617 2.488 . S
O630 C646 1.249 . S
O631 Eu617 2.471 . S
O631 C646 1.244 . S
O632 Eu617 2.349 . S
O632 C633 1.265 . S
C633 O629 1.244 . S
C633 O632 1.265 . S
O634 Eu616 2.373 . S
O634 C647 1.258 . S
O635 Eu617 2.392 . S
O635 C647 1.242 . S
O636 Eu617 2.418 . S
O636 C618 1.244 . S
O637 Eu616 2.488 . S
O637 C625 1.249 . S
O638 Eu616 2.471 . S
O638 C625 1.244 . S
O639 Eu616 2.349 . S
O639 C618 1.265 . S
C640 C641 1.379 . S
C640 C644 1.373 . S
C640 C646 1.505 . S
C641 C640 1.379 . S
C641 C643 1.369 . S
C641 H652 0.930 . S
C642 C644 1.383 . S
C642 C645 1.382 . S
C642 H653 0.930 . S
C643 C641 1.369 . S
C643 C645 1.392 . S
C643 H654 0.930 . S
C644 C640 1.373 . S
C644 C642 1.383 . S
C644 H655 0.931 . S
C645 C642 1.382 . S
C645 C643 1.392 . S
C646 Eu617 2.828 . S
C646 O630 1.249 . S
C646 O631 1.244 . S
C646 C640 1.505 . S
C647 O634 1.258 . S
C647 O635 1.242 . S
H648 C620 0.930 . S
H649 C621 0.930 . S
H650 C622 0.930 . S
H651 C623 0.931 . S
H652 C641 0.930 . S
H653 C642 0.930 . S
H654 C643 0.930 . S
H655 C644 0.931 . S
Eu656 C665 2.828 . S
Eu656 O667 2.392 . S
Eu656 O669 2.418 . S
Eu656 O674 2.373 1_554 S
Eu656 O677 2.488 . S
Eu656 O678 2.471 . S
Eu656 O679 2.349 . S
Eu657 O666 2.373 . S
Eu657 O670 2.488 . S
Eu657 O671 2.471 . S
Eu657 O672 2.349 . S
Eu657 O675 2.392 1_554 S
Eu657 O676 2.418 . S
Eu657 C686 2.828 . S
C658 O676 1.244 . S
C658 O679 1.265 . S
C659 C660 1.379 1_554 S
C659 C663 1.373 . S
C659 C665 1.505 . S
C660 C659 1.379 1_556 S
C660 C662 1.369 . S
C660 H688 0.930 . S
C661 C663 1.383 1_556 S
C661 C664 1.382 . S
C661 H689 0.930 . S
C662 C660 1.369 . S
C662 C664 1.392 . S
C662 H690 0.930 . S
C663 C659 1.373 . S
C663 C661 1.383 1_554 S
C663 H691 0.931 . S
C664 C661 1.382 . S
C664 C662 1.392 . S
C665 Eu656 2.828 . S
C665 C659 1.505 . S
C665 O677 1.249 . S
C665 O678 1.244 . S
O666 Eu657 2.373 . S
O666 C668 1.258 . S
O667 Eu656 2.392 . S
O667 C668 1.242 . S
C668 O666 1.258 . S
C668 O667 1.242 . S
O669 Eu656 2.418 . S
O669 C673 1.244 . S
O670 Eu657 2.488 . S
O670 C686 1.249 . S
O671 Eu657 2.471 . S
O671 C686 1.244 . S
O672 Eu657 2.349 . S
O672 C673 1.265 . S
C673 O669 1.244 . S
C673 O672 1.265 . S
O674 Eu656 2.373 1_556 S
O674 C687 1.258 . S
O675 Eu657 2.392 1_556 S
O675 C687 1.242 . S
O676 Eu657 2.418 . S
O676 C658 1.244 . S
O677 Eu656 2.488 . S
O677 C665 1.249 . S
O678 Eu656 2.471 . S
O678 C665 1.244 . S
O679 Eu656 2.349 . S
O679 C658 1.265 . S
C680 C681 1.379 . S
C680 C684 1.373 . S
C680 C686 1.505 . S
C681 C680 1.379 . S
C681 C683 1.369 . S
C681 H692 0.930 . S
C682 C684 1.383 . S
C682 C685 1.382 . S
C682 H693 0.930 . S
C683 C681 1.369 . S
C683 C685 1.392 . S
C683 H694 0.930 . S
C684 C680 1.373 . S
C684 C682 1.383 . S
C684 H695 0.931 . S
C685 C682 1.382 . S
C685 C683 1.392 . S
C686 Eu657 2.828 . S
C686 O670 1.249 . S
C686 O671 1.244 . S
C686 C680 1.505 . S
C687 O674 1.258 . S
C687 O675 1.242 . S
H688 C660 0.930 . S
H689 C661 0.930 . S
H690 C662 0.930 . S
H691 C663 0.931 . S
H692 C681 0.930 . S
H693 C682 0.930 . S
H694 C683 0.930 . S
H695 C684 0.931 . S
Eu696 C705 2.828 . S
Eu696 O707 2.392 . S
Eu696 O709 2.418 . S
Eu696 O714 2.373 . S
Eu696 O717 2.488 . S
Eu696 O718 2.471 . S
Eu696 O719 2.349 . S
Eu697 O706 2.373 . S
Eu697 O710 2.488 . S
Eu697 O711 2.471 . S
Eu697 O712 2.349 . S
Eu697 O715 2.392 . S
Eu697 O716 2.418 . S
Eu697 C726 2.828 . S
C698 O716 1.244 . S
C698 O719 1.265 . S
C699 C700 1.379 . S
C699 C703 1.373 . S
C699 C705 1.505 . S
C700 C699 1.379 . S
C700 C702 1.369 . S
C700 H728 0.930 . S
C701 C703 1.383 . S
C701 C704 1.382 . S
C701 H729 0.930 . S
C702 C700 1.369 . S
C702 C704 1.392 . S
C702 H730 0.930 . S
C703 C699 1.373 . S
C703 C701 1.383 . S
C703 H731 0.931 . S
C704 C701 1.382 . S
C704 C702 1.392 . S
C705 Eu696 2.828 . S
C705 C699 1.505 . S
C705 O717 1.249 . S
C705 O718 1.244 . S
O706 Eu697 2.373 . S
O706 C708 1.258 . S
O707 Eu696 2.392 . S
O707 C708 1.242 . S
C708 O706 1.258 . S
C708 O707 1.242 . S
O709 Eu696 2.418 . S
O709 C713 1.244 . S
O710 Eu697 2.488 . S
O710 C726 1.249 . S
O711 Eu697 2.471 . S
O711 C726 1.244 . S
O712 Eu697 2.349 . S
O712 C713 1.265 . S
C713 O709 1.244 . S
C713 O712 1.265 . S
O714 Eu696 2.373 . S
O714 C727 1.258 . S
O715 Eu697 2.392 . S
O715 C727 1.242 . S
O716 Eu697 2.418 . S
O716 C698 1.244 . S
O717 Eu696 2.488 . S
O717 C705 1.249 . S
O718 Eu696 2.471 . S
O718 C705 1.244 . S
O719 Eu696 2.349 . S
O719 C698 1.265 . S
C720 C721 1.379 . S
C720 C724 1.373 . S
C720 C726 1.505 . S
C721 C720 1.379 . S
C721 C723 1.369 . S
C721 H732 0.930 . S
C722 C724 1.383 . S
C722 C725 1.382 . S
C722 H733 0.930 . S
C723 C721 1.369 . S
C723 C725 1.392 . S
C723 H734 0.930 . S
C724 C720 1.373 . S
C724 C722 1.383 . S
C724 H735 0.931 . S
C725 C722 1.382 . S
C725 C723 1.392 . S
C726 Eu697 2.828 . S
C726 O710 1.249 . S
C726 O711 1.244 . S
C726 C720 1.505 . S
C727 O714 1.258 . S
C727 O715 1.242 . S
H728 C700 0.930 . S
H729 C701 0.930 . S
H730 C702 0.930 . S
H731 C703 0.931 . S
H732 C721 0.930 . S
H733 C722 0.930 . S
H734 C723 0.930 . S
H735 C724 0.931 . S
Eu736 C745 2.828 . S
Eu736 O747 2.392 . S
Eu736 O749 2.418 . S
Eu736 O754 2.373 . S
Eu736 O757 2.488 . S
Eu736 O758 2.471 . S
Eu736 O759 2.349 . S
Eu737 O746 2.373 . S
Eu737 O750 2.488 . S
Eu737 O751 2.471 . S
Eu737 O752 2.349 . S
Eu737 O755 2.392 . S
Eu737 O756 2.418 . S
Eu737 C766 2.828 . S
C738 O756 1.244 . S
C738 O759 1.265 . S
C739 C740 1.379 . S
C739 C743 1.373 . S
C739 C745 1.505 . S
C740 C739 1.379 . S
C740 C742 1.369 1_455 S
C740 H768 0.930 . S
C741 C743 1.383 . S
C741 C744 1.382 1_455 S
C741 H769 0.930 . S
C742 C740 1.369 1_655 S
C742 C744 1.392 . S
C742 H770 0.930 . S
C743 C739 1.373 . S
C743 C741 1.383 . S
C743 H771 0.931 . S
C744 C741 1.382 1_655 S
C744 C742 1.392 . S
C745 Eu736 2.828 . S
C745 C739 1.505 . S
C745 O757 1.249 . S
C745 O758 1.244 . S
O746 Eu737 2.373 . S
O746 C748 1.258 . S
O747 Eu736 2.392 . S
O747 C748 1.242 . S
C748 O746 1.258 . S
C748 O747 1.242 . S
O749 Eu736 2.418 . S
O749 C753 1.244 . S
O750 Eu737 2.488 . S
O750 C766 1.249 . S
O751 Eu737 2.471 . S
O751 C766 1.244 . S
O752 Eu737 2.349 . S
O752 C753 1.265 . S
C753 O749 1.244 . S
C753 O752 1.265 . S
O754 Eu736 2.373 . S
O754 C767 1.258 . S
O755 Eu737 2.392 . S
O755 C767 1.242 . S
O756 Eu737 2.418 . S
O756 C738 1.244 . S
O757 Eu736 2.488 . S
O757 C745 1.249 . S
O758 Eu736 2.471 . S
O758 C745 1.244 . S
O759 Eu736 2.349 . S
O759 C738 1.265 . S
C760 C761 1.379 . S
C760 C764 1.373 . S
C760 C766 1.505 . S
C761 C760 1.379 . S
C761 C763 1.369 . S
C761 H772 0.930 . S
C762 C764 1.383 . S
C762 C765 1.382 . S
C762 H773 0.930 . S
C763 C761 1.369 . S
C763 C765 1.392 . S
C763 H774 0.930 . S
C764 C760 1.373 . S
C764 C762 1.383 . S
C764 H775 0.931 . S
C765 C762 1.382 . S
C765 C763 1.392 . S
C766 Eu737 2.828 . S
C766 O750 1.249 . S
C766 O751 1.244 . S
C766 C760 1.505 . S
C767 O754 1.258 . S
C767 O755 1.242 . S
H768 C740 0.930 . S
H769 C741 0.930 . S
H770 C742 0.930 . S
H771 C743 0.931 . S
H772 C761 0.930 . S
H773 C762 0.930 . S
H774 C763 0.930 . S
H775 C764 0.931 . S
Eu776 C785 2.828 . S
Eu776 O787 2.392 . S
Eu776 O789 2.418 . S
Eu776 O794 2.373 . S
Eu776 O797 2.488 . S
Eu776 O798 2.471 . S
Eu776 O799 2.349 . S
Eu777 O786 2.373 . S
Eu777 O790 2.488 . S
Eu777 O791 2.471 . S
Eu777 O792 2.349 . S
Eu777 O795 2.392 . S
Eu777 O796 2.418 . S
Eu777 C806 2.828 . S
C778 O796 1.244 . S
C778 O799 1.265 . S
C779 C780 1.379 . S
C779 C783 1.373 . S
C779 C785 1.505 . S
C780 C779 1.379 . S
C780 C782 1.369 . S
C780 H808 0.930 . S
C781 C783 1.383 . S
C781 C784 1.382 . S
C781 H809 0.930 . S
C782 C780 1.369 . S
C782 C784 1.392 . S
C782 H810 0.930 . S
C783 C779 1.373 . S
C783 C781 1.383 . S
C783 H811 0.931 . S
C784 C781 1.382 . S
C784 C782 1.392 . S
C785 Eu776 2.828 . S
C785 C779 1.505 . S
C785 O797 1.249 . S
C785 O798 1.244 . S
O786 Eu777 2.373 . S
O786 C788 1.258 . S
O787 Eu776 2.392 . S
O787 C788 1.242 . S
C788 O786 1.258 . S
C788 O787 1.242 . S
O789 Eu776 2.418 . S
O789 C793 1.244 . S
O790 Eu777 2.488 . S
O790 C806 1.249 . S
O791 Eu777 2.471 . S
O791 C806 1.244 . S
O792 Eu777 2.349 . S
O792 C793 1.265 . S
C793 O789 1.244 . S
C793 O792 1.265 . S
O794 Eu776 2.373 . S
O794 C807 1.258 . S
O795 Eu777 2.392 . S
O795 C807 1.242 . S
O796 Eu777 2.418 . S
O796 C778 1.244 . S
O797 Eu776 2.488 . S
O797 C785 1.249 . S
O798 Eu776 2.471 . S
O798 C785 1.244 . S
O799 Eu776 2.349 . S
O799 C778 1.265 . S
C800 C801 1.379 . S
C800 C804 1.373 . S
C800 C806 1.505 . S
C801 C800 1.379 . S
C801 C803 1.369 . S
C801 H812 0.930 . S
C802 C804 1.383 . S
C802 C805 1.382 . S
C802 H813 0.930 . S
C803 C801 1.369 . S
C803 C805 1.392 . S
C803 H814 0.930 . S
C804 C800 1.373 . S
C804 C802 1.383 . S
C804 H815 0.931 . S
C805 C802 1.382 . S
C805 C803 1.392 . S
C806 Eu777 2.828 . S
C806 O790 1.249 . S
C806 O791 1.244 . S
C806 C800 1.505 . S
C807 O794 1.258 . S
C807 O795 1.242 . S
H808 C780 0.930 . S
H809 C781 0.930 . S
H810 C782 0.930 . S
H811 C783 0.931 . S
H812 C801 0.930 . S
H813 C802 0.930 . S
H814 C803 0.930 . S
H815 C804 0.931 . S
Eu816 C825 2.828 . S
Eu816 O827 2.392 . S
Eu816 O829 2.418 . S
Eu816 O834 2.373 . S
Eu816 O837 2.488 . S
Eu816 O838 2.471 . S
Eu816 O839 2.349 . S
Eu817 O826 2.373 . S
Eu817 O830 2.488 . S
Eu817 O831 2.471 . S
Eu817 O832 2.349 . S
Eu817 O835 2.392 . S
Eu817 O836 2.418 . S
Eu817 C846 2.828 . S
C818 O836 1.244 . S
C818 O839 1.265 . S
C819 C820 1.379 . S
C819 C823 1.373 . S
C819 C825 1.505 . S
C820 C819 1.379 . S
C820 C822 1.369 . S
C820 H848 0.930 . S
C821 C823 1.383 . S
C821 C824 1.382 . S
C821 H849 0.930 . S
C822 C820 1.369 . S
C822 C824 1.392 . S
C822 H850 0.930 . S
C823 C819 1.373 . S
C823 C821 1.383 . S
C823 H851 0.931 . S
C824 C821 1.382 . S
C824 C822 1.392 . S
C825 Eu816 2.828 . S
C825 C819 1.505 . S
C825 O837 1.249 . S
C825 O838 1.244 . S
O826 Eu817 2.373 . S
O826 C828 1.258 . S
O827 Eu816 2.392 . S
O827 C828 1.242 . S
C828 O826 1.258 . S
C828 O827 1.242 . S
O829 Eu816 2.418 . S
O829 C833 1.244 . S
O830 Eu817 2.488 . S
O830 C846 1.249 . S
O831 Eu817 2.471 . S
O831 C846 1.244 . S
O832 Eu817 2.349 . S
O832 C833 1.265 . S
C833 O829 1.244 . S
C833 O832 1.265 . S
O834 Eu816 2.373 . S
O834 C847 1.258 . S
O835 Eu817 2.392 . S
O835 C847 1.242 . S
O836 Eu817 2.418 . S
O836 C818 1.244 . S
O837 Eu816 2.488 . S
O837 C825 1.249 . S
O838 Eu816 2.471 . S
O838 C825 1.244 . S
O839 Eu816 2.349 . S
O839 C818 1.265 . S
C840 C841 1.379 . S
C840 C844 1.373 . S
C840 C846 1.505 . S
C841 C840 1.379 . S
C841 C843 1.369 . S
C841 H852 0.930 . S
C842 C844 1.383 . S
C842 C845 1.382 . S
C842 H853 0.930 . S
C843 C841 1.369 . S
C843 C845 1.392 . S
C843 H854 0.930 . S
C844 C840 1.373 . S
C844 C842 1.383 . S
C844 H855 0.931 . S
C845 C842 1.382 . S
C845 C843 1.392 . S
C846 Eu817 2.828 . S
C846 O830 1.249 . S
C846 O831 1.244 . S
C846 C840 1.505 . S
C847 O834 1.258 . S
C847 O835 1.242 . S
H848 C820 0.930 . S
H849 C821 0.930 . S
H850 C822 0.930 . S
H851 C823 0.931 . S
H852 C841 0.930 . S
H853 C842 0.930 . S
H854 C843 0.930 . S
H855 C844 0.931 . S
Eu856 C865 2.828 . S
Eu856 O867 2.392 . S
Eu856 O869 2.418 . S
Eu856 O874 2.373 . S
Eu856 O877 2.488 . S
Eu856 O878 2.471 . S
Eu856 O879 2.349 . S
Eu857 O866 2.373 . S
Eu857 O870 2.488 . S
Eu857 O871 2.471 . S
Eu857 O872 2.349 . S
Eu857 O875 2.392 . S
Eu857 O876 2.418 . S
Eu857 C886 2.828 . S
C858 O876 1.244 . S
C858 O879 1.265 . S
C859 C860 1.379 . S
C859 C863 1.373 . S
C859 C865 1.505 . S
C860 C859 1.379 . S
C860 C862 1.369 . S
C860 H888 0.930 . S
C861 C863 1.383 . S
C861 C864 1.382 . S
C861 H889 0.930 . S
C862 C860 1.369 . S
C862 C864 1.392 . S
C862 H890 0.930 . S
C863 C859 1.373 . S
C863 C861 1.383 . S
C863 H891 0.931 . S
C864 C861 1.382 . S
C864 C862 1.392 . S
C865 Eu856 2.828 . S
C865 C859 1.505 . S
C865 O877 1.249 . S
C865 O878 1.244 . S
O866 Eu857 2.373 . S
O866 C868 1.258 . S
O867 Eu856 2.392 . S
O867 C868 1.242 . S
C868 O866 1.258 . S
C868 O867 1.242 . S
O869 Eu856 2.418 . S
O869 C873 1.244 . S
O870 Eu857 2.488 . S
O870 C886 1.249 . S
O871 Eu857 2.471 . S
O871 C886 1.244 . S
O872 Eu857 2.349 . S
O872 C873 1.265 . S
C873 O869 1.244 . S
C873 O872 1.265 . S
O874 Eu856 2.373 . S
O874 C887 1.258 . S
O875 Eu857 2.392 . S
O875 C887 1.242 . S
O876 Eu857 2.418 . S
O876 C858 1.244 . S
O877 Eu856 2.488 . S
O877 C865 1.249 . S
O878 Eu856 2.471 . S
O878 C865 1.244 . S
O879 Eu856 2.349 . S
O879 C858 1.265 . S
C880 C881 1.379 . S
C880 C884 1.373 . S
C880 C886 1.505 . S
C881 C880 1.379 . S
C881 C883 1.369 . S
C881 H892 0.930 . S
C882 C884 1.383 . S
C882 C885 1.382 . S
C882 H893 0.930 . S
C883 C881 1.369 . S
C883 C885 1.392 . S
C883 H894 0.930 . S
C884 C880 1.373 . S
C884 C882 1.383 . S
C884 H895 0.931 . S
C885 C882 1.382 . S
C885 C883 1.392 . S
C886 Eu857 2.828 . S
C886 O870 1.249 . S
C886 O871 1.244 . S
C886 C880 1.505 . S
C887 O874 1.258 . S
C887 O875 1.242 . S
H888 C860 0.930 . S
H889 C861 0.930 . S
H890 C862 0.930 . S
H891 C863 0.931 . S
H892 C881 0.930 . S
H893 C882 0.930 . S
H894 C883 0.930 . S
H895 C884 0.931 . S
Eu896 C905 2.828 . S
Eu896 O907 2.392 . S
Eu896 O909 2.418 . S
Eu896 O914 2.373 . S
Eu896 O917 2.488 . S
Eu896 O918 2.471 . S
Eu896 O919 2.349 . S
Eu897 O906 2.373 . S
Eu897 O910 2.488 . S
Eu897 O911 2.471 . S
Eu897 O912 2.349 . S
Eu897 O915 2.392 . S
Eu897 O916 2.418 . S
Eu897 C926 2.828 . S
C898 O916 1.244 . S
C898 O919 1.265 . S
C899 C900 1.379 . S
C899 C903 1.373 . S
C899 C905 1.505 . S
C900 C899 1.379 . S
C900 C902 1.369 . S
C900 H928 0.930 . S
C901 C903 1.383 . S
C901 C904 1.382 . S
C901 H929 0.930 . S
C902 C900 1.369 . S
C902 C904 1.392 . S
C902 H930 0.930 . S
C903 C899 1.373 . S
C903 C901 1.383 . S
C903 H931 0.931 . S
C904 C901 1.382 . S
C904 C902 1.392 . S
C905 Eu896 2.828 . S
C905 C899 1.505 . S
C905 O917 1.249 . S
C905 O918 1.244 . S
O906 Eu897 2.373 . S
O906 C908 1.258 . S
O907 Eu896 2.392 . S
O907 C908 1.242 . S
C908 O906 1.258 . S
C908 O907 1.242 . S
O909 Eu896 2.418 . S
O909 C913 1.244 . S
O910 Eu897 2.488 . S
O910 C926 1.249 . S
O911 Eu897 2.471 . S
O911 C926 1.244 . S
O912 Eu897 2.349 . S
O912 C913 1.265 . S
C913 O909 1.244 . S
C913 O912 1.265 . S
O914 Eu896 2.373 . S
O914 C927 1.258 . S
O915 Eu897 2.392 . S
O915 C927 1.242 . S
O916 Eu897 2.418 . S
O916 C898 1.244 . S
O917 Eu896 2.488 . S
O917 C905 1.249 . S
O918 Eu896 2.471 . S
O918 C905 1.244 . S
O919 Eu896 2.349 . S
O919 C898 1.265 . S
C920 C921 1.379 . S
C920 C924 1.373 . S
C920 C926 1.505 . S
C921 C920 1.379 . S
C921 C923 1.369 . S
C921 H932 0.930 . S
C922 C924 1.383 . S
C922 C925 1.382 . S
C922 H933 0.930 . S
C923 C921 1.369 . S
C923 C925 1.392 . S
C923 H934 0.930 . S
C924 C920 1.373 . S
C924 C922 1.383 . S
C924 H935 0.931 . S
C925 C922 1.382 . S
C925 C923 1.392 . S
C926 Eu897 2.828 . S
C926 O910 1.249 . S
C926 O911 1.244 . S
C926 C920 1.505 . S
C927 O914 1.258 . S
C927 O915 1.242 . S
H928 C900 0.930 . S
H929 C901 0.930 . S
H930 C902 0.930 . S
H931 C903 0.931 . S
H932 C921 0.930 . S
H933 C922 0.930 . S
H934 C923 0.930 . S
H935 C924 0.931 . S
Eu936 C945 2.828 . S
Eu936 O947 2.392 . S
Eu936 O949 2.418 1_554 S
Eu936 O954 2.373 . S
Eu936 O957 2.488 . S
Eu936 O958 2.471 . S
Eu936 O959 2.349 . S
Eu937 O946 2.373 . S
Eu937 O950 2.488 1_455 S
Eu937 O951 2.471 1_455 S
Eu937 O952 2.349 . S
Eu937 O955 2.392 . S
Eu937 O956 2.418 . S
Eu937 C966 2.828 1_455 S
C938 O956 1.244 . S
C938 O959 1.265 . S
C939 C940 1.379 . S
C939 C943 1.374 . S
C939 C945 1.505 . S
C940 C939 1.379 . S
C940 C942 1.369 . S
C940 H968 0.930 . S
C941 C943 1.383 1_556 S
C941 C944 1.382 1_556 S
C941 H969 0.930 . S
C942 C940 1.369 . S
C942 C944 1.392 . S
C942 H970 0.930 . S
C943 C939 1.374 . S
C943 C941 1.383 1_554 S
C943 H971 0.929 1_554 S
C944 C941 1.382 1_554 S
C944 C942 1.392 . S
C945 Eu936 2.828 . S
C945 C939 1.505 . S
C945 O957 1.249 . S
C945 O958 1.244 . S
O946 Eu937 2.373 . S
O946 C948 1.258 . S
O947 Eu936 2.392 . S
O947 C948 1.242 . S
C948 O946 1.258 . S
C948 O947 1.242 . S
O949 Eu936 2.418 1_556 S
O949 C953 1.253 . S
O950 Eu937 2.488 1_655 S
O950 C966 1.249 . S
O951 Eu937 2.471 1_655 S
O951 C966 1.244 . S
O952 Eu937 2.349 . S
O952 C953 1.233 1_554 S
C953 O949 1.253 . S
C953 O952 1.233 1_556 S
O954 Eu936 2.373 . S
O954 C967 1.258 . S
O955 Eu937 2.392 . S
O955 C967 1.242 . S
O956 Eu937 2.418 . S
O956 C938 1.244 . S
O957 Eu936 2.488 . S
O957 C945 1.249 . S
O958 Eu936 2.471 . S
O958 C945 1.244 . S
O959 Eu936 2.349 . S
O959 C938 1.265 . S
C960 C961 1.379 . S
C960 C964 1.373 . S
C960 C966 1.505 . S
C961 C960 1.379 . S
C961 C963 1.369 . S
C961 H972 0.930 . S
C962 C964 1.383 . S
C962 C965 1.382 . S
C962 H973 0.930 . S
C963 C961 1.369 . S
C963 C965 1.392 . S
C963 H974 0.930 . S
C964 C960 1.373 . S
C964 C962 1.383 . S
C964 H975 0.931 . S
C965 C962 1.382 . S
C965 C963 1.392 . S
C966 Eu937 2.828 1_655 S
C966 O950 1.249 . S
C966 O951 1.244 . S
C966 C960 1.505 . S
C967 O954 1.258 . S
C967 O955 1.242 . S
H968 C940 0.930 . S
H969 C941 0.930 . S
H970 C942 0.930 . S
H971 C943 0.929 1_556 S
H972 C961 0.930 . S
H973 C962 0.930 . S
H974 C963 0.930 . S
H975 C964 0.931 . S
H976 C984 0.950 . S
H977 C989 0.907 1_655 S
H978 C986 0.950 . S
H979 C988 0.950 1_655 S
H980 C990 0.950 . S
H981 C992 0.950 . S
H982 C994 0.950 . S
H983 C995 0.950 . S
C984 H976 0.950 . S
C984 C985 1.386 . S
C984 C986 1.391 . S
C985 C984 1.386 . S
C985 C989 1.419 . S
C986 H978 0.950 . S
C986 C984 1.391 . S
C986 C987 1.400 . S
C987 C986 1.400 . S
C987 C988 1.398 . S
C987 C993 1.491 . S
C988 H979 0.950 1_455 S
C988 C987 1.398 . S
C988 C989 1.409 . S
C989 H977 0.907 1_455 S
C989 C985 1.419 . S
C989 C988 1.409 . S
C990 H980 0.950 . S
C990 C991 1.386 . S
C990 C992 1.391 . S
C991 C990 1.386 . S
C991 C995 1.393 . S
C992 H981 0.950 . S
C992 C990 1.391 . S
C992 C993 1.400 . S
C993 C987 1.491 . S
C993 C992 1.400 . S
C993 C994 1.398 . S
C994 H982 0.950 . S
C994 C993 1.398 . S
C994 C995 1.391 . S
C995 H983 0.950 . S
C995 C991 1.393 . S
C995 C994 1.391 . S
H996 C1004 0.950 . S
H997 C1009 0.950 . S
H998 C1006 0.950 . S
H999 C1008 0.950 . S
H1000 C1010 0.950 . S
H1001 C1012 0.950 . S
H1002 C1014 0.950 . S
H1003 C1015 0.950 . S
C1004 H996 0.950 . S
C1004 C1005 1.386 . S
C1004 C1006 1.391 . S
C1005 C1004 1.386 . S
C1005 C1009 1.393 . S
C1006 H998 0.950 . S
C1006 C1004 1.391 . S
C1006 C1007 1.400 . S
C1007 C1006 1.400 . S
C1007 C1008 1.398 . S
C1007 C1013 1.491 . S
C1008 H999 0.950 . S
C1008 C1007 1.398 . S
C1008 C1009 1.391 . S
C1009 H997 0.950 . S
C1009 C1005 1.393 . S
C1009 C1008 1.391 . S
C1010 H1000 0.950 . S
C1010 C1011 1.386 . S
C1010 C1012 1.391 . S
C1011 C1010 1.386 . S
C1011 C1015 1.393 . S
C1012 H1001 0.950 . S
C1012 C1010 1.391 . S
C1012 C1013 1.400 . S
C1013 C1007 1.491 . S
C1013 C1012 1.400 . S
C1013 C1014 1.398 . S
C1014 H1002 0.950 . S
C1014 C1013 1.398 . S
C1014 C1015 1.391 . S
C1015 H1003 0.950 . S
C1015 C1011 1.393 . S
C1015 C1014 1.391 . S
H1016 C1024 0.950 . S
H1017 C1029 0.950 . S
H1018 C1026 0.950 . S
H1019 C1028 0.950 . S
H1020 C1030 0.950 . S
H1021 C1032 0.950 . S
H1022 C1034 0.950 . S
H1023 C1035 0.950 . S
C1024 H1016 0.950 . S
C1024 C1025 1.386 . S
C1024 C1026 1.391 . S
C1025 C1024 1.386 . S
C1025 C1029 1.393 . S
C1026 H1018 0.950 . S
C1026 C1024 1.391 . S
C1026 C1027 1.400 . S
C1027 C1026 1.400 . S
C1027 C1028 1.398 . S
C1027 C1033 1.491 . S
C1028 H1019 0.950 . S
C1028 C1027 1.398 . S
C1028 C1029 1.391 . S
C1029 H1017 0.950 . S
C1029 C1025 1.393 . S
C1029 C1028 1.391 . S
C1030 H1020 0.950 . S
C1030 C1031 1.386 . S
C1030 C1032 1.391 . S
C1031 C1030 1.386 . S
C1031 C1035 1.393 . S
C1032 H1021 0.950 . S
C1032 C1030 1.391 . S
C1032 C1033 1.400 . S
C1033 C1027 1.491 . S
C1033 C1032 1.400 . S
C1033 C1034 1.398 . S
C1034 H1022 0.950 . S
C1034 C1033 1.398 . S
C1034 C1035 1.391 . S
C1035 H1023 0.950 . S
C1035 C1031 1.393 . S
C1035 C1034 1.391 . S
H1036 C1044 0.950 . S
H1037 C1049 0.950 . S
H1038 C1046 0.950 . S
H1039 C1048 0.950 . S
H1040 C1050 0.950 . S
H1041 C1052 0.950 . S
H1042 C1054 0.950 . S
H1043 C1055 0.950 . S
C1044 H1036 0.950 . S
C1044 C1045 1.386 . S
C1044 C1046 1.391 . S
C1045 C1044 1.386 . S
C1045 C1049 1.393 . S
C1046 H1038 0.950 . S
C1046 C1044 1.391 . S
C1046 C1047 1.400 . S
C1047 C1046 1.400 . S
C1047 C1048 1.398 . S
C1047 C1053 1.491 . S
C1048 H1039 0.950 . S
C1048 C1047 1.398 . S
C1048 C1049 1.391 . S
C1049 H1037 0.950 . S
C1049 C1045 1.393 . S
C1049 C1048 1.391 . S
C1050 H1040 0.950 . S
C1050 C1051 1.386 . S
C1050 C1052 1.391 . S
C1051 C1050 1.386 . S
C1051 C1055 1.393 . S
C1052 H1041 0.950 . S
C1052 C1050 1.391 . S
C1052 C1053 1.400 . S
C1053 C1047 1.491 . S
C1053 C1052 1.400 . S
C1053 C1054 1.398 . S
C1054 H1042 0.950 . S
C1054 C1053 1.398 . S
C1054 C1055 1.391 . S
C1055 H1043 0.950 . S
C1055 C1051 1.393 . S
C1055 C1054 1.391 . S
H1056 C1064 0.950 1_655 S
H1057 C1069 0.950 . S
H1058 C1066 0.950 . S
H1059 C1068 0.950 . S
H1060 C1070 0.950 . S
H1061 C1072 0.950 . S
H1062 C1074 0.950 . S
H1063 C1075 0.950 . S
C1064 H1056 0.950 1_455 S
C1064 C1065 1.386 . S
C1064 C1066 1.391 . S
C1065 C1064 1.386 . S
C1065 C1069 1.393 . S
C1066 H1058 0.950 . S
C1066 C1064 1.391 . S
C1066 C1067 1.400 . S
C1067 C1066 1.400 . S
C1067 C1068 1.398 . S
C1067 C1073 1.491 . S
C1068 H1059 0.950 . S
C1068 C1067 1.398 . S
C1068 C1069 1.391 . S
C1069 H1057 0.950 . S
C1069 C1065 1.393 . S
C1069 C1068 1.391 . S
C1070 H1060 0.950 . S
C1070 C1071 1.386 . S
C1070 C1072 1.391 . S
C1071 C1070 1.386 . S
C1071 C1075 1.393 . S
C1072 H1061 0.950 . S
C1072 C1070 1.391 . S
C1072 C1073 1.400 . S
C1073 C1067 1.491 . S
C1073 C1072 1.400 . S
C1073 C1074 1.398 . S
C1074 H1062 0.950 . S
C1074 C1073 1.398 . S
C1074 C1075 1.391 . S
C1075 H1063 0.950 . S
C1075 C1071 1.393 . S
C1075 C1074 1.391 . S
H1076 C1084 0.950 . S
H1077 C1089 0.950 . S
H1078 C1086 0.950 . S
H1079 C1088 0.950 . S
H1080 C1090 0.950 . S
H1081 C1092 0.950 . S
H1082 C1094 0.950 . S
H1083 C1095 0.950 . S
C1084 H1076 0.950 . S
C1084 C1085 1.386 . S
C1084 C1086 1.391 . S
C1085 C1084 1.386 . S
C1085 C1089 1.393 . S
C1086 H1078 0.950 . S
C1086 C1084 1.391 . S
C1086 C1087 1.400 . S
C1087 C1086 1.400 . S
C1087 C1088 1.398 . S
C1087 C1093 1.491 . S
C1088 H1079 0.950 . S
C1088 C1087 1.398 . S
C1088 C1089 1.391 . S
C1089 H1077 0.950 . S
C1089 C1085 1.393 . S
C1089 C1088 1.391 . S
C1090 H1080 0.950 . S
C1090 C1091 1.386 . S
C1090 C1092 1.391 . S
C1091 C1090 1.386 . S
C1091 C1095 1.393 . S
C1092 H1081 0.950 . S
C1092 C1090 1.391 . S
C1092 C1093 1.400 . S
C1093 C1087 1.491 . S
C1093 C1092 1.400 . S
C1093 C1094 1.398 . S
C1094 H1082 0.950 . S
C1094 C1093 1.398 . S
C1094 C1095 1.391 . S
C1095 H1083 0.950 . S
C1095 C1091 1.393 . S
C1095 C1094 1.391 . S
H1096 C1104 0.950 . S
H1097 C1109 0.950 . S
H1098 C1106 0.950 . S
H1099 C1108 0.950 . S
H1100 C1110 0.950 . S
H1101 C1112 0.950 . S
H1102 C1114 0.950 . S
H1103 C1115 0.950 . S
C1104 H1096 0.950 . S
C1104 C1105 1.386 . S
C1104 C1106 1.391 . S
C1105 C1104 1.386 . S
C1105 C1109 1.393 . S
C1106 H1098 0.950 . S
C1106 C1104 1.391 . S
C1106 C1107 1.400 . S
C1107 C1106 1.400 . S
C1107 C1108 1.398 . S
C1107 C1113 1.491 . S
C1108 H1099 0.950 . S
C1108 C1107 1.398 . S
C1108 C1109 1.391 . S
C1109 H1097 0.950 . S
C1109 C1105 1.393 . S
C1109 C1108 1.391 . S
C1110 H1100 0.950 . S
C1110 C1111 1.386 . S
C1110 C1112 1.391 . S
C1111 C1110 1.386 . S
C1111 C1115 1.393 . S
C1112 H1101 0.950 . S
C1112 C1110 1.391 . S
C1112 C1113 1.400 . S
C1113 C1107 1.491 . S
C1113 C1112 1.400 . S
C1113 C1114 1.398 . S
C1114 H1102 0.950 . S
C1114 C1113 1.398 . S
C1114 C1115 1.391 . S
C1115 H1103 0.950 . S
C1115 C1111 1.393 . S
C1115 C1114 1.391 . S
H1116 C1124 0.950 . S
H1117 C1129 0.950 . S
H1118 C1126 0.950 . S
H1119 C1128 0.950 . S
H1120 C1130 0.950 . S
H1121 C1132 0.950 . S
H1122 C1134 0.950 . S
H1123 C1135 0.950 . S
C1124 H1116 0.950 . S
C1124 C1125 1.386 . S
C1124 C1126 1.391 . S
C1125 C1124 1.386 . S
C1125 C1129 1.393 . S
C1126 H1118 0.950 . S
C1126 C1124 1.391 . S
C1126 C1127 1.400 . S
C1127 C1126 1.400 . S
C1127 C1128 1.398 . S
C1127 C1133 1.491 . S
C1128 H1119 0.950 . S
C1128 C1127 1.398 . S
C1128 C1129 1.391 . S
C1129 H1117 0.950 . S
C1129 C1125 1.393 . S
C1129 C1128 1.391 . S
C1130 H1120 0.950 . S
C1130 C1131 1.386 . S
C1130 C1132 1.391 . S
C1131 C1130 1.386 . S
C1131 C1135 1.393 . S
C1132 H1121 0.950 . S
C1132 C1130 1.391 . S
C1132 C1133 1.400 . S
C1133 C1127 1.491 . S
C1133 C1132 1.400 . S
C1133 C1134 1.398 . S
C1134 H1122 0.950 . S
C1134 C1133 1.398 . S
C1134 C1135 1.391 . S
C1135 H1123 0.950 . S
C1135 C1131 1.393 . S
C1135 C1134 1.391 . S
H1136 C1144 0.950 . S
H1137 C1149 0.950 . S
H1138 C1146 0.950 . S
H1139 C1148 0.950 . S
H1140 C1150 0.950 . S
H1141 C1152 0.950 . S
H1142 C1154 0.950 . S
H1143 C1155 0.950 . S
C1144 H1136 0.950 . S
C1144 C1145 1.386 . S
C1144 C1146 1.391 . S
C1145 C1144 1.386 . S
C1145 C1149 1.393 . S
C1146 H1138 0.950 . S
C1146 C1144 1.391 . S
C1146 C1147 1.400 . S
C1147 C1146 1.400 . S
C1147 C1148 1.398 . S
C1147 C1153 1.491 1_655 S
C1148 H1139 0.950 . S
C1148 C1147 1.398 . S
C1148 C1149 1.391 . S
C1149 H1137 0.950 . S
C1149 C1145 1.393 . S
C1149 C1148 1.391 . S
C1150 H1140 0.950 . S
C1150 C1151 1.386 . S
C1150 C1152 1.391 . S
C1151 C1150 1.386 . S
C1151 C1155 1.393 . S
C1152 H1141 0.950 . S
C1152 C1150 1.391 . S
C1152 C1153 1.400 . S
C1153 C1147 1.491 1_455 S
C1153 C1152 1.400 . S
C1153 C1154 1.398 . S
C1154 H1142 0.950 . S
C1154 C1153 1.398 . S
C1154 C1155 1.391 . S
C1155 H1143 0.950 . S
C1155 C1151 1.393 . S
C1155 C1154 1.391 . S
H1156 C1164 0.950 . S
H1157 C1169 0.950 . S
H1158 C1166 0.950 . S
H1159 C1168 0.950 . S
H1160 C1170 0.950 . S
H1161 C1172 0.950 . S
H1162 C1174 0.950 . S
H1163 C1175 0.950 . S
C1164 H1156 0.950 . S
C1164 C1165 1.386 . S
C1164 C1166 1.391 . S
C1165 C1164 1.386 . S
C1165 C1169 1.393 . S
C1166 H1158 0.950 . S
C1166 C1164 1.391 . S
C1166 C1167 1.400 . S
C1167 C1166 1.400 . S
C1167 C1168 1.398 . S
C1167 C1173 1.491 . S
C1168 H1159 0.950 . S
C1168 C1167 1.398 . S
C1168 C1169 1.391 . S
C1169 H1157 0.950 . S
C1169 C1165 1.393 . S
C1169 C1168 1.391 . S
C1170 H1160 0.950 . S
C1170 C1171 1.386 . S
C1170 C1172 1.391 . S
C1171 C1170 1.386 . S
C1171 C1175 1.393 . S
C1172 H1161 0.950 . S
C1172 C1170 1.391 . S
C1172 C1173 1.400 . S
C1173 C1167 1.491 . S
C1173 C1172 1.400 . S
C1173 C1174 1.398 . S
C1174 H1162 0.950 . S
C1174 C1173 1.398 . S
C1174 C1175 1.391 . S
C1175 H1163 0.950 . S
C1175 C1171 1.393 . S
C1175 C1174 1.391 . S
H1176 C1184 0.950 . S
H1177 C1189 0.950 . S
H1178 C1186 0.950 . S
H1179 C1188 0.950 . S
H1180 C1190 0.950 . S
H1181 C1192 0.950 . S
H1182 C1194 0.950 . S
H1183 C1195 0.950 . S
C1184 H1176 0.950 . S
C1184 C1185 1.386 . S
C1184 C1186 1.391 . S
C1185 C1184 1.386 . S
C1185 C1189 1.393 . S
C1186 H1178 0.950 . S
C1186 C1184 1.391 . S
C1186 C1187 1.400 . S
C1187 C1186 1.400 . S
C1187 C1188 1.398 . S
C1187 C1193 1.491 . S
C1188 H1179 0.950 . S
C1188 C1187 1.398 . S
C1188 C1189 1.391 . S
C1189 H1177 0.950 . S
C1189 C1185 1.393 . S
C1189 C1188 1.391 . S
C1190 H1180 0.950 . S
C1190 C1191 1.386 . S
C1190 C1192 1.391 . S
C1191 C1190 1.386 . S
C1191 C1195 1.393 . S
C1192 H1181 0.950 . S
C1192 C1190 1.391 . S
C1192 C1193 1.400 . S
C1193 C1187 1.491 . S
C1193 C1192 1.400 . S
C1193 C1194 1.398 . S
C1194 H1182 0.950 . S
C1194 C1193 1.398 . S
C1194 C1195 1.391 . S
C1195 H1183 0.950 . S
C1195 C1191 1.393 . S
C1195 C1194 1.391 . S
H1196 C1204 0.950 . S
H1197 C1209 0.950 . S
H1198 C1206 0.950 . S
H1199 C1208 0.950 . S
H1200 C1210 0.950 . S
H1201 C1212 0.950 . S
H1202 C1214 0.950 . S
H1203 C1215 0.950 . S
C1204 H1196 0.950 . S
C1204 C1205 1.386 . S
C1204 C1206 1.391 . S
C1205 C1204 1.386 . S
C1205 C1209 1.393 . S
C1206 H1198 0.950 . S
C1206 C1204 1.391 . S
C1206 C1207 1.400 . S
C1207 C1206 1.400 . S
C1207 C1208 1.398 . S
C1207 C1213 1.491 . S
C1208 H1199 0.950 . S
C1208 C1207 1.398 . S
C1208 C1209 1.391 . S
C1209 H1197 0.950 . S
C1209 C1205 1.393 . S
C1209 C1208 1.391 . S
C1210 H1200 0.950 . S
C1210 C1211 1.386 . S
C1210 C1212 1.391 . S
C1211 C1210 1.386 . S
C1211 C1215 1.393 . S
C1212 H1201 0.950 . S
C1212 C1210 1.391 . S
C1212 C1213 1.400 . S
C1213 C1207 1.491 . S
C1213 C1212 1.400 . S
C1213 C1214 1.398 . S
C1214 H1202 0.950 . S
C1214 C1213 1.398 . S
C1214 C1215 1.391 . S
C1215 H1203 0.950 . S
C1215 C1211 1.393 . S
C1215 C1214 1.391 . S
H1216 C1224 0.950 1_455 S
H1217 C1229 0.950 . S
H1218 C1226 0.950 . S
H1219 C1228 0.950 . S
H1220 C1230 0.950 . S
H1221 C1232 0.950 . S
H1222 C1234 0.950 . S
H1223 C1235 0.950 . S
C1224 H1216 0.950 1_655 S
C1224 C1225 1.386 . S
C1224 C1226 1.391 1_655 S
C1225 C1224 1.386 . S
C1225 C1229 1.393 . S
C1226 H1218 0.950 . S
C1226 C1224 1.391 1_455 S
C1226 C1227 1.400 1_455 S
C1227 C1226 1.400 1_655 S
C1227 C1228 1.398 . S
C1227 C1233 1.491 1_655 S
C1228 H1219 0.950 . S
C1228 C1227 1.398 . S
C1228 C1229 1.391 . S
C1229 H1217 0.950 . S
C1229 C1225 1.393 . S
C1229 C1228 1.391 . S
C1230 H1220 0.950 . S
C1230 C1231 1.386 . S
C1230 C1232 1.391 1_455 S
C1231 C1230 1.386 . S
C1231 C1235 1.393 . S
C1232 H1221 0.950 . S
C1232 C1230 1.391 1_655 S
C1232 C1233 1.400 1_655 S
C1233 C1227 1.491 1_455 S
C1233 C1232 1.400 1_455 S
C1233 C1234 1.398 . S
C1234 H1222 0.950 . S
C1234 C1233 1.398 . S
C1234 C1235 1.391 . S
C1235 H1223 0.950 . S
C1235 C1231 1.393 . S
C1235 C1234 1.391 . S
H1236 C1244 0.950 . S
H1237 C1249 0.950 . S
H1238 C1246 0.950 . S
H1239 C1248 0.950 . S
H1240 C1250 0.950 . S
H1241 C1252 0.950 . S
H1242 C1254 0.950 . S
H1243 C1255 0.950 . S
C1244 H1236 0.950 . S
C1244 C1245 1.386 . S
C1244 C1246 1.391 . S
C1245 C1244 1.386 . S
C1245 C1249 1.393 . S
C1246 H1238 0.950 . S
C1246 C1244 1.391 . S
C1246 C1247 1.400 . S
C1247 C1246 1.400 . S
C1247 C1248 1.398 . S
C1247 C1253 1.491 . S
C1248 H1239 0.950 . S
C1248 C1247 1.398 . S
C1248 C1249 1.391 . S
C1249 H1237 0.950 . S
C1249 C1245 1.393 . S
C1249 C1248 1.391 . S
C1250 H1240 0.950 . S
C1250 C1251 1.386 . S
C1250 C1252 1.391 . S
C1251 C1250 1.386 . S
C1251 C1255 1.393 . S
C1252 H1241 0.950 . S
C1252 C1250 1.391 . S
C1252 C1253 1.400 . S
C1253 C1247 1.491 . S
C1253 C1252 1.400 . S
C1253 C1254 1.398 . S
C1254 H1242 0.950 . S
C1254 C1253 1.398 . S
C1254 C1255 1.391 . S
C1255 H1243 0.950 . S
C1255 C1251 1.393 . S
C1255 C1254 1.391 . S
H1256 C1264 0.950 . S
H1257 C1269 0.950 . S
H1258 C1266 0.950 . S
H1259 C1268 0.950 . S
H1260 C1270 0.950 . S
H1261 C1272 0.950 . S
H1262 C1274 0.950 . S
H1263 C1275 0.950 . S
C1264 H1256 0.950 . S
C1264 C1265 1.386 . S
C1264 C1266 1.391 . S
C1265 C1264 1.386 . S
C1265 C1269 1.393 . S
C1266 H1258 0.950 . S
C1266 C1264 1.391 . S
C1266 C1267 1.400 . S
C1267 C1266 1.400 . S
C1267 C1268 1.398 . S
C1267 C1273 1.491 . S
C1268 H1259 0.950 . S
C1268 C1267 1.398 . S
C1268 C1269 1.391 . S
C1269 H1257 0.950 . S
C1269 C1265 1.393 . S
C1269 C1268 1.391 . S
C1270 H1260 0.950 . S
C1270 C1271 1.386 . S
C1270 C1272 1.391 . S
C1271 C1270 1.386 . S
C1271 C1275 1.393 . S
C1272 H1261 0.950 . S
C1272 C1270 1.391 . S
C1272 C1273 1.400 . S
C1273 C1267 1.491 . S
C1273 C1272 1.400 . S
C1273 C1274 1.398 . S
C1274 H1262 0.950 . S
C1274 C1273 1.398 . S
C1274 C1275 1.391 . S
C1275 H1263 0.950 . S
C1275 C1271 1.393 . S
C1275 C1274 1.391 . S
H1276 C1284 0.950 . S
H1277 C1289 0.950 . S
H1278 C1286 0.950 . S
H1279 C1288 0.950 . S
H1280 C1290 0.950 . S
H1281 C1292 0.950 . S
H1282 C1294 0.950 . S
H1283 C1295 0.950 . S
C1284 H1276 0.950 . S
C1284 C1285 1.386 . S
C1284 C1286 1.391 . S
C1285 C1284 1.386 . S
C1285 C1289 1.393 . S
C1286 H1278 0.950 . S
C1286 C1284 1.391 . S
C1286 C1287 1.400 . S
C1287 C1286 1.400 . S
C1287 C1288 1.398 . S
C1287 C1293 1.491 . S
C1288 H1279 0.950 . S
C1288 C1287 1.398 . S
C1288 C1289 1.391 . S
C1289 H1277 0.950 . S
C1289 C1285 1.393 . S
C1289 C1288 1.391 . S
C1290 H1280 0.950 . S
C1290 C1291 1.386 . S
C1290 C1292 1.391 . S
C1291 C1290 1.386 . S
C1291 C1295 1.393 . S
C1292 H1281 0.950 . S
C1292 C1290 1.391 . S
C1292 C1293 1.400 . S
C1293 C1287 1.491 . S
C1293 C1292 1.400 . S
C1293 C1294 1.398 . S
C1294 H1282 0.950 . S
C1294 C1293 1.398 . S
C1294 C1295 1.391 . S
C1295 H1283 0.950 . S
C1295 C1291 1.393 . S
C1295 C1294 1.391 . S
H1296 C1304 0.950 . S
H1297 C1309 0.950 1_556 S
H1298 C1306 0.950 . S
H1299 C1308 0.950 1_546 S
H1300 C1310 0.950 . S
H1301 C1312 0.986 . S
H1302 C1314 0.950 . S
H1303 C1315 0.950 . S
C1304 H1296 0.950 . S
C1304 C1305 1.386 . S
C1304 C1306 1.391 . S
C1305 C1304 1.386 . S
C1305 C1309 1.393 . S
C1306 H1298 0.950 . S
C1306 C1304 1.391 . S
C1306 C1307 1.400 . S
C1307 C1306 1.400 . S
C1307 C1308 1.398 . S
C1307 C1313 1.491 . S
C1308 H1299 0.950 1_564 S
C1308 C1307 1.398 . S
C1308 C1309 1.391 . S
C1309 H1297 0.950 1_554 S
C1309 C1305 1.393 . S
C1309 C1308 1.391 . S
C1310 H1300 0.950 . S
C1310 C1311 1.386 . S
C1310 C1312 1.391 . S
C1311 C1310 1.386 . S
C1311 C1315 1.393 1_545 S
C1312 H1301 0.986 . S
C1312 C1310 1.391 . S
C1312 C1313 1.400 1_545 S
C1313 C1307 1.491 . S
C1313 C1312 1.400 1_565 S
C1313 C1314 1.398 . S
C1314 H1302 0.950 . S
C1314 C1313 1.398 . S
C1314 C1315 1.391 . S
C1315 H1303 0.950 . S
C1315 C1311 1.393 1_565 S
C1315 C1314 1.391 . S
H1316 C1324 0.950 . S
H1317 C1329 0.950 . S
H1318 C1326 0.950 . S
H1319 C1328 0.950 . S
H1320 C1330 0.950 . S
H1321 C1332 0.950 . S
H1322 C1334 0.950 . S
H1323 C1335 0.950 . S
C1324 H1316 0.950 . S
C1324 C1325 1.386 . S
C1324 C1326 1.391 . S
C1325 C1324 1.386 . S
C1325 C1329 1.393 1_554 S
C1326 H1318 0.950 . S
C1326 C1324 1.391 . S
C1326 C1327 1.400 . S
C1327 C1326 1.400 . S
C1327 C1328 1.398 1_554 S
C1327 C1333 1.491 . S
C1328 H1319 0.950 . S
C1328 C1327 1.398 1_556 S
C1328 C1329 1.391 . S
C1329 H1317 0.950 . S
C1329 C1325 1.393 1_556 S
C1329 C1328 1.391 . S
C1330 H1320 0.950 . S
C1330 C1331 1.386 1_556 S
C1330 C1332 1.391 . S
C1331 C1330 1.386 1_554 S
C1331 C1335 1.393 . S
C1332 H1321 0.950 . S
C1332 C1330 1.391 . S
C1332 C1333 1.400 1_556 S
C1333 C1327 1.491 . S
C1333 C1332 1.400 1_554 S
C1333 C1334 1.398 . S
C1334 H1322 0.950 . S
C1334 C1333 1.398 . S
C1334 C1335 1.391 . S
C1335 H1323 0.950 . S
C1335 C1331 1.393 . S
C1335 C1334 1.391 . S
H1336 C1344 0.950 . S
H1337 C1349 0.950 . S
H1338 C1346 0.950 . S
H1339 C1348 0.950 . S
H1340 C1350 0.950 . S
H1341 C1352 0.950 . S
H1342 C1354 0.950 . S
H1343 C1355 0.950 . S
C1344 H1336 0.950 . S
C1344 C1345 1.386 . S
C1344 C1346 1.391 . S
C1345 C1344 1.386 . S
C1345 C1349 1.393 . S
C1346 H1338 0.950 . S
C1346 C1344 1.391 . S
C1346 C1347 1.400 . S
C1347 C1346 1.400 . S
C1347 C1348 1.398 . S
C1347 C1353 1.491 . S
C1348 H1339 0.950 . S
C1348 C1347 1.398 . S
C1348 C1349 1.391 . S
C1349 H1337 0.950 . S
C1349 C1345 1.393 . S
C1349 C1348 1.391 . S
C1350 H1340 0.950 . S
C1350 C1351 1.386 . S
C1350 C1352 1.391 . S
C1351 C1350 1.386 . S
C1351 C1355 1.393 . S
C1352 H1341 0.950 . S
C1352 C1350 1.391 . S
C1352 C1353 1.400 . S
C1353 C1347 1.491 . S
C1353 C1352 1.400 . S
C1353 C1354 1.398 . S
C1354 H1342 0.950 . S
C1354 C1353 1.398 . S
C1354 C1355 1.391 . S
C1355 H1343 0.950 . S
C1355 C1351 1.393 . S
C1355 C1354 1.391 . S
H1356 C1364 0.950 . S
H1357 C1369 0.950 . S
H1358 C1366 0.950 . S
H1359 C1368 0.950 . S
H1360 C1370 0.950 . S
H1361 C1372 0.950 . S
H1362 C1374 0.950 . S
H1363 C1375 0.950 . S
C1364 H1356 0.950 . S
C1364 C1365 1.386 . S
C1364 C1366 1.391 . S
C1365 C1364 1.386 . S
C1365 C1369 1.393 . S
C1366 H1358 0.950 . S
C1366 C1364 1.391 . S
C1366 C1367 1.400 . S
C1367 C1366 1.400 . S
C1367 C1368 1.398 . S
C1367 C1373 1.491 . S
C1368 H1359 0.950 . S
C1368 C1367 1.398 . S
C1368 C1369 1.391 . S
C1369 H1357 0.950 . S
C1369 C1365 1.393 . S
C1369 C1368 1.391 . S
C1370 H1360 0.950 . S
C1370 C1371 1.386 . S
C1370 C1372 1.391 . S
C1371 C1370 1.386 . S
C1371 C1375 1.393 . S
C1372 H1361 0.950 . S
C1372 C1370 1.391 . S
C1372 C1373 1.400 . S
C1373 C1367 1.491 . S
C1373 C1372 1.400 . S
C1373 C1374 1.398 . S
C1374 H1362 0.950 . S
C1374 C1373 1.398 . S
C1374 C1375 1.391 . S
C1375 H1363 0.950 . S
C1375 C1371 1.393 . S
C1375 C1374 1.391 . S
H1376 C1384 0.950 . S
H1377 C1389 0.950 . S
H1378 C1386 0.950 . S
H1379 C1388 0.950 . S
H1380 C1390 0.950 . S
H1381 C1392 0.950 . S
H1382 C1394 0.950 . S
H1383 C1395 0.950 . S
C1384 H1376 0.950 . S
C1384 C1385 1.386 . S
C1384 C1386 1.391 . S
C1385 C1384 1.386 . S
C1385 C1389 1.393 . S
C1386 H1378 0.950 . S
C1386 C1384 1.391 . S
C1386 C1387 1.400 . S
C1387 C1386 1.400 . S
C1387 C1388 1.398 . S
C1387 C1393 1.491 . S
C1388 H1379 0.950 . S
C1388 C1387 1.398 . S
C1388 C1389 1.391 . S
C1389 H1377 0.950 . S
C1389 C1385 1.393 . S
C1389 C1388 1.391 . S
C1390 H1380 0.950 . S
C1390 C1391 1.386 . S
C1390 C1392 1.391 . S
C1391 C1390 1.386 . S
C1391 C1395 1.393 . S
C1392 H1381 0.950 . S
C1392 C1390 1.391 . S
C1392 C1393 1.400 . S
C1393 C1387 1.491 . S
C1393 C1392 1.400 . S
C1393 C1394 1.398 . S
C1394 H1382 0.950 . S
C1394 C1393 1.398 . S
C1394 C1395 1.391 . S
C1395 H1383 0.950 . S
C1395 C1391 1.393 . S
C1395 C1394 1.391 . S
H1396 C1404 0.950 . S
H1397 C1409 0.950 . S
H1398 C1406 0.950 . S
H1399 C1408 0.950 . S
H1400 C1410 0.950 . S
H1401 C1412 0.950 . S
H1402 C1414 0.950 . S
H1403 C1415 0.950 . S
C1404 H1396 0.950 . S
C1404 C1405 1.386 . S
C1404 C1406 1.391 . S
C1405 C1404 1.386 . S
C1405 C1409 1.393 . S
C1406 H1398 0.950 . S
C1406 C1404 1.391 . S
C1406 C1407 1.400 . S
C1407 C1406 1.400 . S
C1407 C1408 1.398 . S
C1407 C1413 1.491 . S
C1408 H1399 0.950 . S
C1408 C1407 1.398 . S
C1408 C1409 1.391 . S
C1409 H1397 0.950 . S
C1409 C1405 1.393 . S
C1409 C1408 1.391 . S
C1410 H1400 0.950 . S
C1410 C1411 1.386 . S
C1410 C1412 1.391 . S
C1411 C1410 1.386 . S
C1411 C1415 1.393 . S
C1412 H1401 0.950 . S
C1412 C1410 1.391 . S
C1412 C1413 1.400 . S
C1413 C1407 1.491 . S
C1413 C1412 1.400 . S
C1413 C1414 1.398 . S
C1414 H1402 0.950 . S
C1414 C1413 1.398 . S
C1414 C1415 1.391 . S
C1415 H1403 0.950 . S
C1415 C1411 1.393 . S
C1415 C1414 1.391 . S
H1416 C1424 0.950 . S
H1417 C1429 0.950 . S
H1418 C1426 0.950 . S
H1419 C1428 0.950 . S
H1420 C1430 0.950 . S
H1421 C1432 0.950 . S
H1422 C1434 0.950 . S
H1423 C1435 0.950 . S
C1424 H1416 0.950 . S
C1424 C1425 1.386 . S
C1424 C1426 1.391 . S
C1425 C1424 1.386 . S
C1425 C1429 1.393 . S
C1426 H1418 0.950 . S
C1426 C1424 1.391 . S
C1426 C1427 1.400 . S
C1427 C1426 1.400 . S
C1427 C1428 1.398 . S
C1427 C1433 1.491 . S
C1428 H1419 0.950 . S
C1428 C1427 1.398 . S
C1428 C1429 1.391 . S
C1429 H1417 0.950 . S
C1429 C1425 1.393 . S
C1429 C1428 1.391 . S
C1430 H1420 0.950 . S
C1430 C1431 1.386 . S
C1430 C1432 1.391 . S
C1431 C1430 1.386 . S
C1431 C1435 1.393 . S
C1432 H1421 0.950 . S
C1432 C1430 1.391 . S
C1432 C1433 1.400 . S
C1433 C1427 1.491 . S
C1433 C1432 1.400 . S
C1433 C1434 1.398 . S
C1434 H1422 0.950 . S
C1434 C1433 1.398 . S
C1434 C1435 1.391 . S
C1435 H1423 0.950 . S
C1435 C1431 1.393 . S
C1435 C1434 1.391 . S
H1436 C1444 0.950 . S
H1437 C1449 0.950 . S
H1438 C1446 0.950 . S
H1439 C1448 0.950 . S
H1440 C1450 0.950 . S
H1441 C1452 0.950 . S
H1442 C1454 0.950 . S
H1443 C1455 0.950 . S
C1444 H1436 0.950 . S
C1444 C1445 1.386 . S
C1444 C1446 1.391 . S
C1445 C1444 1.386 . S
C1445 C1449 1.393 . S
C1446 H1438 0.950 . S
C1446 C1444 1.391 . S
C1446 C1447 1.400 . S
C1447 C1446 1.400 . S
C1447 C1448 1.398 . S
C1447 C1453 1.491 . S
C1448 H1439 0.950 . S
C1448 C1447 1.398 . S
C1448 C1449 1.391 . S
C1449 H1437 0.950 . S
C1449 C1445 1.393 . S
C1449 C1448 1.391 . S
C1450 H1440 0.950 . S
C1450 C1451 1.386 . S
C1450 C1452 1.391 . S
C1451 C1450 1.386 . S
C1451 C1455 1.393 . S
C1452 H1441 0.950 . S
C1452 C1450 1.391 . S
C1452 C1453 1.400 . S
C1453 C1447 1.491 . S
C1453 C1452 1.400 . S
C1453 C1454 1.398 . S
C1454 H1442 0.950 . S
C1454 C1453 1.398 . S
C1454 C1455 1.391 . S
C1455 H1443 0.950 . S
C1455 C1451 1.393 . S
C1455 C1454 1.391 . S
H1456 C1464 0.950 . S
H1457 C1469 0.950 . S
H1458 C1466 0.950 . S
H1459 C1468 0.950 . S
H1460 C1470 0.950 . S
H1461 C1472 0.950 . S
H1462 C1474 0.950 . S
H1463 C1475 0.950 . S
C1464 H1456 0.950 . S
C1464 C1465 1.386 . S
C1464 C1466 1.391 . S
C1465 C1464 1.386 . S
C1465 C1469 1.393 . S
C1466 H1458 0.950 . S
C1466 C1464 1.391 . S
C1466 C1467 1.400 . S
C1467 C1466 1.400 . S
C1467 C1468 1.398 . S
C1467 C1473 1.491 . S
C1468 H1459 0.950 . S
C1468 C1467 1.398 . S
C1468 C1469 1.391 . S
C1469 H1457 0.950 . S
C1469 C1465 1.393 . S
C1469 C1468 1.391 . S
C1470 H1460 0.950 . S
C1470 C1471 1.386 . S
C1470 C1472 1.391 . S
C1471 C1470 1.386 . S
C1471 C1475 1.393 . S
C1472 H1461 0.950 . S
C1472 C1470 1.391 . S
C1472 C1473 1.400 . S
C1473 C1467 1.491 . S
C1473 C1472 1.400 . S
C1473 C1474 1.398 . S
C1474 H1462 0.950 . S
C1474 C1473 1.398 . S
C1474 C1475 1.391 . S
C1475 H1463 0.950 . S
C1475 C1471 1.393 . S
C1475 C1474 1.391 . S
H1476 C1484 0.950 . S
H1477 C1489 0.950 . S
H1478 C1486 0.950 . S
H1479 C1488 0.950 . S
H1480 C1490 0.950 . S
H1481 C1492 0.950 . S
H1482 C1494 0.950 . S
H1483 C1495 0.950 . S
C1484 H1476 0.950 . S
C1484 C1485 1.386 . S
C1484 C1486 1.391 . S
C1485 C1484 1.386 . S
C1485 C1489 1.393 . S
C1486 H1478 0.950 . S
C1486 C1484 1.391 . S
C1486 C1487 1.400 . S
C1487 C1486 1.400 . S
C1487 C1488 1.398 . S
C1487 C1493 1.491 . S
C1488 H1479 0.950 . S
C1488 C1487 1.398 . S
C1488 C1489 1.391 . S
C1489 H1477 0.950 . S
C1489 C1485 1.393 . S
C1489 C1488 1.391 . S
C1490 H1480 0.950 . S
C1490 C1491 1.386 . S
C1490 C1492 1.391 . S
C1491 C1490 1.386 . S
C1491 C1495 1.393 . S
C1492 H1481 0.950 . S
C1492 C1490 1.391 . S
C1492 C1493 1.400 . S
C1493 C1487 1.491 . S
C1493 C1492 1.400 . S
C1493 C1494 1.398 . S
C1494 H1482 0.950 . S
C1494 C1493 1.398 . S
C1494 C1495 1.391 . S
C1495 H1483 0.950 . S
C1495 C1491 1.393 . S
C1495 C1494 1.391 . S
H1496 C1504 0.950 . S
H1497 C1509 0.950 . S
H1498 C1506 0.950 . S
H1499 C1508 0.950 . S
H1500 C1510 0.950 . S
H1501 C1512 0.950 . S
H1502 C1514 0.950 . S
H1503 C1515 0.950 . S
C1504 H1496 0.950 . S
C1504 C1505 1.386 . S
C1504 C1506 1.391 . S
C1505 C1504 1.386 . S
C1505 C1509 1.393 . S
C1506 H1498 0.950 . S
C1506 C1504 1.391 . S
C1506 C1507 1.400 . S
C1507 C1506 1.400 . S
C1507 C1508 1.398 . S
C1507 C1513 1.491 . S
C1508 H1499 0.950 . S
C1508 C1507 1.398 . S
C1508 C1509 1.391 . S
C1509 H1497 0.950 . S
C1509 C1505 1.393 . S
C1509 C1508 1.391 . S
C1510 H1500 0.950 . S
C1510 C1511 1.386 . S
C1510 C1512 1.391 . S
C1511 C1510 1.386 . S
C1511 C1515 1.393 . S
C1512 H1501 0.950 . S
C1512 C1510 1.391 . S
C1512 C1513 1.400 . S
C1513 C1507 1.491 . S
C1513 C1512 1.400 . S
C1513 C1514 1.398 . S
C1514 H1502 0.950 . S
C1514 C1513 1.398 . S
C1514 C1515 1.391 . S
C1515 H1503 0.950 . S
C1515 C1511 1.393 . S
C1515 C1514 1.391 . S
H1516 C1524 0.950 . S
H1517 C1529 0.950 . S
H1518 C1526 0.950 . S
H1519 C1528 0.950 . S
H1520 C1530 0.950 . S
H1521 C1532 0.950 . S
H1522 C1534 0.950 . S
H1523 C1535 0.950 . S
C1524 H1516 0.950 . S
C1524 C1525 1.386 . S
C1524 C1526 1.391 . S
C1525 C1524 1.386 . S
C1525 C1529 1.393 . S
C1526 H1518 0.950 . S
C1526 C1524 1.391 . S
C1526 C1527 1.400 . S
C1527 C1526 1.400 . S
C1527 C1528 1.398 . S
C1527 C1533 1.491 . S
C1528 H1519 0.950 . S
C1528 C1527 1.398 . S
C1528 C1529 1.391 . S
C1529 H1517 0.950 . S
C1529 C1525 1.393 . S
C1529 C1528 1.391 . S
C1530 H1520 0.950 . S
C1530 C1531 1.386 . S
C1530 C1532 1.391 . S
C1531 C1530 1.386 . S
C1531 C1535 1.393 . S
C1532 H1521 0.950 . S
C1532 C1530 1.391 . S
C1532 C1533 1.400 . S
C1533 C1527 1.491 . S
C1533 C1532 1.400 . S
C1533 C1534 1.398 . S
C1534 H1522 0.950 . S
C1534 C1533 1.398 . S
C1534 C1535 1.391 . S
C1535 H1523 0.950 . S
C1535 C1531 1.393 . S
C1535 C1534 1.391 . S
H1536 C1544 0.950 . S
H1537 C1549 0.950 . S
H1538 C1546 0.950 . S
H1539 C1548 0.950 . S
H1540 C1550 0.950 . S
H1541 C1552 0.950 . S
H1542 C1554 0.950 . S
H1543 C1555 0.950 . S
C1544 H1536 0.950 . S
C1544 C1545 1.386 . S
C1544 C1546 1.391 . S
C1545 C1544 1.386 . S
C1545 C1549 1.393 . S
C1546 H1538 0.950 . S
C1546 C1544 1.391 . S
C1546 C1547 1.400 . S
C1547 C1546 1.400 . S
C1547 C1548 1.398 . S
C1547 C1553 1.491 . S
C1548 H1539 0.950 . S
C1548 C1547 1.398 . S
C1548 C1549 1.391 . S
C1549 H1537 0.950 . S
C1549 C1545 1.393 . S
C1549 C1548 1.391 . S
C1550 H1540 0.950 . S
C1550 C1551 1.386 . S
C1550 C1552 1.391 . S
C1551 C1550 1.386 . S
C1551 C1555 1.393 . S
C1552 H1541 0.950 . S
C1552 C1550 1.391 . S
C1552 C1553 1.400 . S
C1553 C1547 1.491 . S
C1553 C1552 1.400 . S
C1553 C1554 1.398 . S
C1554 H1542 0.950 . S
C1554 C1553 1.398 . S
C1554 C1555 1.391 . S
C1555 H1543 0.950 . S
C1555 C1551 1.393 . S
C1555 C1554 1.391 . S
H1556 C1564 0.950 . S
H1557 C1569 0.950 . S
H1558 C1566 0.950 . S
H1559 C1568 0.950 . S
H1560 C1570 0.950 . S
H1561 C1572 0.950 . S
H1562 C1574 0.950 . S
H1563 C1575 0.950 . S
C1564 H1556 0.950 . S
C1564 C1565 1.386 . S
C1564 C1566 1.391 . S
C1565 C1564 1.386 . S
C1565 C1569 1.393 . S
C1566 H1558 0.950 . S
C1566 C1564 1.391 . S
C1566 C1567 1.400 . S
C1567 C1566 1.400 . S
C1567 C1568 1.398 . S
C1567 C1573 1.491 . S
C1568 H1559 0.950 . S
C1568 C1567 1.398 . S
C1568 C1569 1.391 . S
C1569 H1557 0.950 . S
C1569 C1565 1.393 . S
C1569 C1568 1.391 . S
C1570 H1560 0.950 . S
C1570 C1571 1.386 . S
C1570 C1572 1.391 . S
C1571 C1570 1.386 . S
C1571 C1575 1.393 . S
C1572 H1561 0.950 . S
C1572 C1570 1.391 . S
C1572 C1573 1.400 . S
C1573 C1567 1.491 . S
C1573 C1572 1.400 . S
C1573 C1574 1.398 . S
C1574 H1562 0.950 . S
C1574 C1573 1.398 . S
C1574 C1575 1.391 . S
C1575 H1563 0.950 . S
C1575 C1571 1.393 . S
C1575 C1574 1.391 . S
H1576 C1584 0.950 . S
H1577 C1589 0.950 . S
H1578 C1586 0.950 . S
H1579 C1588 0.950 . S
H1580 C1590 0.950 . S
H1581 C1592 0.950 . S
H1582 C1594 0.950 . S
H1583 C1595 0.953 1_554 S
C1584 H1576 0.950 . S
C1584 C1585 1.386 . S
C1584 C1586 1.391 . S
C1585 C1584 1.386 . S
C1585 C1589 1.393 . S
C1586 H1578 0.950 . S
C1586 C1584 1.391 . S
C1586 C1587 1.400 . S
C1587 C1586 1.400 . S
C1587 C1588 1.398 . S
C1587 C1593 1.491 . S
C1588 H1579 0.950 . S
C1588 C1587 1.398 . S
C1588 C1589 1.391 . S
C1589 H1577 0.950 . S
C1589 C1585 1.393 . S
C1589 C1588 1.391 . S
C1590 H1580 0.950 . S
C1590 C1591 1.386 . S
C1590 C1592 1.391 . S
C1591 C1590 1.386 . S
C1591 C1595 1.392 . S
C1592 H1581 0.950 . S
C1592 C1590 1.391 . S
C1592 C1593 1.400 . S
C1593 C1587 1.491 . S
C1593 C1592 1.400 . S
C1593 C1594 1.398 . S
C1594 H1582 0.950 . S
C1594 C1593 1.398 . S
C1594 C1595 1.388 . S
C1595 H1583 0.953 1_556 S
C1595 C1591 1.392 . S
C1595 C1594 1.388 . S
H1596 C1604 0.950 . S
H1597 C1609 0.950 . S
H1598 C1606 0.950 . S
H1599 C1608 0.950 . S
H1600 C1610 0.950 . S
H1601 C1612 0.950 . S
H1602 C1614 0.950 . S
H1603 C1615 0.950 . S
C1604 H1596 0.950 . S
C1604 C1605 1.386 . S
C1604 C1606 1.391 . S
C1605 C1604 1.386 . S
C1605 C1609 1.393 . S
C1606 H1598 0.950 . S
C1606 C1604 1.391 . S
C1606 C1607 1.400 . S
C1607 C1606 1.400 . S
C1607 C1608 1.398 . S
C1607 C1613 1.491 . S
C1608 H1599 0.950 . S
C1608 C1607 1.398 . S
C1608 C1609 1.391 . S
C1609 H1597 0.950 . S
C1609 C1605 1.393 . S
C1609 C1608 1.391 . S
C1610 H1600 0.950 . S
C1610 C1611 1.386 . S
C1610 C1612 1.391 . S
C1611 C1610 1.386 . S
C1611 C1615 1.393 . S
C1612 H1601 0.950 . S
C1612 C1610 1.391 . S
C1612 C1613 1.400 . S
C1613 C1607 1.491 . S
C1613 C1612 1.400 . S
C1613 C1614 1.398 . S
C1614 H1602 0.950 . S
C1614 C1613 1.398 . S
C1614 C1615 1.391 . S
C1615 H1603 0.950 . S
C1615 C1611 1.393 . S
C1615 C1614 1.391 . S
H1616 C1624 0.950 1_565 S
H1617 C1629 0.950 . S
H1618 C1626 0.950 1_565 S
H1619 C1628 0.950 . S
H1620 C1630 0.950 . S
H1621 C1632 0.950 . S
H1622 C1634 0.962 . S
H1623 C1635 0.950 . S
C1624 H1616 0.950 1_545 S
C1624 C1625 1.386 . S
C1624 C1626 1.391 . S
C1625 C1624 1.386 . S
C1625 C1629 1.393 . S
C1626 H1618 0.950 1_545 S
C1626 C1624 1.391 . S
C1626 C1627 1.400 . S
C1627 C1626 1.400 . S
C1627 C1628 1.398 . S
C1627 C1633 1.491 . S
C1628 H1619 0.950 . S
C1628 C1627 1.398 . S
C1628 C1629 1.391 . S
C1629 H1617 0.950 . S
C1629 C1625 1.393 . S
C1629 C1628 1.391 . S
C1630 H1620 0.950 . S
C1630 C1631 1.386 . S
C1630 C1632 1.391 . S
C1631 C1630 1.386 . S
C1631 C1635 1.393 . S
C1632 H1621 0.950 . S
C1632 C1630 1.391 . S
C1632 C1633 1.400 . S
C1633 C1627 1.491 . S
C1633 C1632 1.400 . S
C1633 C1634 1.398 . S
C1634 H1622 0.962 . S
C1634 C1633 1.398 . S
C1634 C1635 1.391 . S
C1635 H1623 0.950 . S
C1635 C1631 1.393 . S
C1635 C1634 1.391 . S
H1636 C1644 0.950 . S
H1637 C1649 0.950 . S
H1638 C1646 0.950 . S
H1639 C1648 0.950 . S
H1640 C1650 0.950 . S
H1641 C1652 0.950 . S
H1642 C1654 0.950 . S
H1643 C1655 0.950 . S
C1644 H1636 0.950 . S
C1644 C1645 1.386 . S
C1644 C1646 1.391 . S
C1645 C1644 1.386 . S
C1645 C1649 1.393 . S
C1646 H1638 0.950 . S
C1646 C1644 1.391 . S
C1646 C1647 1.400 . S
C1647 C1646 1.400 . S
C1647 C1648 1.398 . S
C1647 C1653 1.491 . S
C1648 H1639 0.950 . S
C1648 C1647 1.398 . S
C1648 C1649 1.391 . S
C1649 H1637 0.950 . S
C1649 C1645 1.393 . S
C1649 C1648 1.391 . S
C1650 H1640 0.950 . S
C1650 C1651 1.386 . S
C1650 C1652 1.391 . S
C1651 C1650 1.386 . S
C1651 C1655 1.393 . S
C1652 H1641 0.950 . S
C1652 C1650 1.391 . S
C1652 C1653 1.400 . S
C1653 C1647 1.491 . S
C1653 C1652 1.400 . S
C1653 C1654 1.398 . S
C1654 H1642 0.950 . S
C1654 C1653 1.398 . S
C1654 C1655 1.391 . S
C1655 H1643 0.950 . S
C1655 C1651 1.393 . S
C1655 C1654 1.391 . S
H1656 C1664 0.950 1_565 S
H1657 C1669 0.950 . S
H1658 C1666 0.967 . S
H1659 C1668 0.950 . S
H1660 C1670 0.950 . S
H1661 C1672 0.950 . S
H1662 C1674 0.950 . S
H1663 C1675 0.950 . S
C1664 H1656 0.950 1_545 S
C1664 C1665 1.386 . S
C1664 C1666 1.391 . S
C1665 C1664 1.386 . S
C1665 C1669 1.393 . S
C1666 H1658 0.967 . S
C1666 C1664 1.391 . S
C1666 C1667 1.400 . S
C1667 C1666 1.400 . S
C1667 C1668 1.398 . S
C1667 C1673 1.491 . S
C1668 H1659 0.950 . S
C1668 C1667 1.398 . S
C1668 C1669 1.391 . S
C1669 H1657 0.950 . S
C1669 C1665 1.393 . S
C1669 C1668 1.391 . S
C1670 H1660 0.950 . S
C1670 C1671 1.386 . S
C1670 C1672 1.391 . S
C1671 C1670 1.386 . S
C1671 C1675 1.393 . S
C1672 H1661 0.950 . S
C1672 C1670 1.391 . S
C1672 C1673 1.400 . S
C1673 C1667 1.491 . S
C1673 C1672 1.400 . S
C1673 C1674 1.398 . S
C1674 H1662 0.950 . S
C1674 C1673 1.398 . S
C1674 C1675 1.391 . S
C1675 H1663 0.950 . S
C1675 C1671 1.393 . S
C1675 C1674 1.391 . S
H1676 C1684 0.950 . S
H1677 C1689 0.950 . S
H1678 C1686 0.950 . S
H1679 C1688 0.950 . S
H1680 C1690 0.950 . S
H1681 C1692 0.950 . S
H1682 C1694 0.950 . S
H1683 C1695 0.950 . S
C1684 H1676 0.950 . S
C1684 C1685 1.386 . S
C1684 C1686 1.391 . S
C1685 C1684 1.386 . S
C1685 C1689 1.393 . S
C1686 H1678 0.950 . S
C1686 C1684 1.391 . S
C1686 C1687 1.400 . S
C1687 C1686 1.400 . S
C1687 C1688 1.398 . S
C1687 C1693 1.491 . S
C1688 H1679 0.950 . S
C1688 C1687 1.398 . S
C1688 C1689 1.391 . S
C1689 H1677 0.950 . S
C1689 C1685 1.393 . S
C1689 C1688 1.391 . S
C1690 H1680 0.950 . S
C1690 C1691 1.386 . S
C1690 C1692 1.391 . S
C1691 C1690 1.386 . S
C1691 C1695 1.393 . S
C1692 H1681 0.950 . S
C1692 C1690 1.391 . S
C1692 C1693 1.400 . S
C1693 C1687 1.491 . S
C1693 C1692 1.400 . S
C1693 C1694 1.398 . S
C1694 H1682 0.950 . S
C1694 C1693 1.398 . S
C1694 C1695 1.391 . S
C1695 H1683 0.950 . S
C1695 C1691 1.393 . S
C1695 C1694 1.391 . S
H1696 C1704 0.950 1_565 S
H1697 C1709 0.950 . S
H1698 C1706 0.950 . S
H1699 C1708 0.950 . S
H1700 C1710 0.950 . S
H1701 C1712 0.950 . S
H1702 C1714 0.950 . S
H1703 C1715 0.950 . S
C1704 H1696 0.950 1_545 S
C1704 C1705 1.386 . S
C1704 C1706 1.391 . S
C1705 C1704 1.386 . S
C1705 C1709 1.393 . S
C1706 H1698 0.950 . S
C1706 C1704 1.391 . S
C1706 C1707 1.400 . S
C1707 C1706 1.400 . S
C1707 C1708 1.398 . S
C1707 C1713 1.491 . S
C1708 H1699 0.950 . S
C1708 C1707 1.398 . S
C1708 C1709 1.391 . S
C1709 H1697 0.950 . S
C1709 C1705 1.393 . S
C1709 C1708 1.391 . S
C1710 H1700 0.950 . S
C1710 C1711 1.386 . S
C1710 C1712 1.391 . S
C1711 C1710 1.386 . S
C1711 C1715 1.393 . S
C1712 H1701 0.950 . S
C1712 C1710 1.391 . S
C1712 C1713 1.400 . S
C1713 C1707 1.491 . S
C1713 C1712 1.400 . S
C1713 C1714 1.398 . S
C1714 H1702 0.950 . S
C1714 C1713 1.398 . S
C1714 C1715 1.391 . S
C1715 H1703 0.950 . S
C1715 C1711 1.393 . S
C1715 C1714 1.391 . S
H1716 C1724 0.950 . S
H1717 C1729 0.950 . S
H1718 C1726 0.950 . S
H1719 C1728 0.950 . S
H1720 C1730 0.950 . S
H1721 C1732 0.950 . S
H1722 C1734 0.950 . S
H1723 C1735 0.950 . S
C1724 H1716 0.950 . S
C1724 C1725 1.386 . S
C1724 C1726 1.391 . S
C1725 C1724 1.386 . S
C1725 C1729 1.393 . S
C1726 H1718 0.950 . S
C1726 C1724 1.391 . S
C1726 C1727 1.400 . S
C1727 C1726 1.400 . S
C1727 C1728 1.398 . S
C1727 C1733 1.491 . S
C1728 H1719 0.950 . S
C1728 C1727 1.398 . S
C1728 C1729 1.391 . S
C1729 H1717 0.950 . S
C1729 C1725 1.393 . S
C1729 C1728 1.391 . S
C1730 H1720 0.950 . S
C1730 C1731 1.386 . S
C1730 C1732 1.391 . S
C1731 C1730 1.386 . S
C1731 C1735 1.393 . S
C1732 H1721 0.950 . S
C1732 C1730 1.391 . S
C1732 C1733 1.400 . S
C1733 C1727 1.491 . S
C1733 C1732 1.400 . S
C1733 C1734 1.398 . S
C1734 H1722 0.950 . S
C1734 C1733 1.398 . S
C1734 C1735 1.391 . S
C1735 H1723 0.950 . S
C1735 C1731 1.393 . S
C1735 C1734 1.391 . S
H1736 C1744 0.950 . S
H1737 C1749 0.950 . S
H1738 C1746 0.950 . S
H1739 C1748 0.950 . S
H1740 C1750 0.950 . S
H1741 C1752 0.950 . S
H1742 C1754 0.950 . S
H1743 C1755 0.950 . S
C1744 H1736 0.950 . S
C1744 C1745 1.346 1_565 S
C1744 C1746 1.391 . S
C1745 C1744 1.346 1_545 S
C1745 C1749 1.437 . S
C1746 H1738 0.950 . S
C1746 C1744 1.391 . S
C1746 C1747 1.400 1_565 S
C1747 C1746 1.400 1_545 S
C1747 C1748 1.398 . S
C1747 C1753 1.491 . S
C1748 H1739 0.950 . S
C1748 C1747 1.398 . S
C1748 C1749 1.391 . S
C1749 H1737 0.950 . S
C1749 C1745 1.437 . S
C1749 C1748 1.391 . S
C1750 H1740 0.950 . S
C1750 C1751 1.353 1_545 S
C1750 C1752 1.391 . S
C1751 C1750 1.353 1_565 S
C1751 C1755 1.428 . S
C1752 H1741 0.950 . S
C1752 C1750 1.391 . S
C1752 C1753 1.399 . S
C1753 C1747 1.491 . S
C1753 C1752 1.399 . S
C1753 C1754 1.400 1_545 S
C1754 H1742 0.950 . S
C1754 C1753 1.400 1_565 S
C1754 C1755 1.391 . S
C1755 H1743 0.950 . S
C1755 C1751 1.428 . S
C1755 C1754 1.391 . S
H1756 C1764 0.950 . S
H1757 C1769 0.950 . S
H1758 C1766 0.950 . S
H1759 C1768 0.950 . S
H1760 C1770 0.950 . S
H1761 C1772 0.950 . S
H1762 C1774 0.950 . S
H1763 C1775 0.950 . S
C1764 H1756 0.950 . S
C1764 C1765 1.386 . S
C1764 C1766 1.391 . S
C1765 C1764 1.386 . S
C1765 C1769 1.393 . S
C1766 H1758 0.950 . S
C1766 C1764 1.391 . S
C1766 C1767 1.400 . S
C1767 C1766 1.400 . S
C1767 C1768 1.398 . S
C1767 C1773 1.491 . S
C1768 H1759 0.950 . S
C1768 C1767 1.398 . S
C1768 C1769 1.391 . S
C1769 H1757 0.950 . S
C1769 C1765 1.393 . S
C1769 C1768 1.391 . S
C1770 H1760 0.950 . S
C1770 C1771 1.386 . S
C1770 C1772 1.391 . S
C1771 C1770 1.386 . S
C1771 C1775 1.393 . S
C1772 H1761 0.950 . S
C1772 C1770 1.391 . S
C1772 C1773 1.400 . S
C1773 C1767 1.491 . S
C1773 C1772 1.400 . S
C1773 C1774 1.398 . S
C1774 H1762 0.950 . S
C1774 C1773 1.398 . S
C1774 C1775 1.391 . S
C1775 H1763 0.950 . S
C1775 C1771 1.393 . S
C1775 C1774 1.391 . S
H1776 C1784 0.950 . S
H1777 C1789 0.950 . S
H1778 C1786 0.950 . S
H1779 C1788 0.950 . S
H1780 C1790 0.950 . S
H1781 C1792 0.950 . S
H1782 C1794 0.950 . S
H1783 C1795 0.950 . S
C1784 H1776 0.950 . S
C1784 C1785 1.386 . S
C1784 C1786 1.391 . S
C1785 C1784 1.386 . S
C1785 C1789 1.393 . S
C1786 H1778 0.950 . S
C1786 C1784 1.391 . S
C1786 C1787 1.400 . S
C1787 C1786 1.400 . S
C1787 C1788 1.398 . S
C1787 C1793 1.491 . S
C1788 H1779 0.950 . S
C1788 C1787 1.398 . S
C1788 C1789 1.391 . S
C1789 H1777 0.950 . S
C1789 C1785 1.393 . S
C1789 C1788 1.391 . S
C1790 H1780 0.950 . S
C1790 C1791 1.386 . S
C1790 C1792 1.391 . S
C1791 C1790 1.386 . S
C1791 C1795 1.393 . S
C1792 H1781 0.950 . S
C1792 C1790 1.391 . S
C1792 C1793 1.400 . S
C1793 C1787 1.491 . S
C1793 C1792 1.400 . S
C1793 C1794 1.398 . S
C1794 H1782 0.950 . S
C1794 C1793 1.398 . S
C1794 C1795 1.391 . S
C1795 H1783 0.950 . S
C1795 C1791 1.393 . S
C1795 C1794 1.391 . S
H1796 C1804 0.950 . S
H1797 C1809 0.950 1_556 S
H1798 C1806 0.950 . S
H1799 C1808 0.950 1_556 S
H1800 C1810 0.950 1_556 S
H1801 C1812 0.950 1_556 S
H1802 C1814 0.950 . S
H1803 C1815 0.950 . S
C1804 H1796 0.950 . S
C1804 C1805 1.386 . S
C1804 C1806 1.391 . S
C1805 C1804 1.386 . S
C1805 C1809 1.393 . S
C1806 H1798 0.950 . S
C1806 C1804 1.391 . S
C1806 C1807 1.400 . S
C1807 C1806 1.400 . S
C1807 C1808 1.398 . S
C1807 C1813 1.491 . S
C1808 H1799 0.950 1_554 S
C1808 C1807 1.398 . S
C1808 C1809 1.391 . S
C1809 H1797 0.950 1_554 S
C1809 C1805 1.393 . S
C1809 C1808 1.391 . S
C1810 H1800 0.950 1_554 S
C1810 C1811 1.386 . S
C1810 C1812 1.391 . S
C1811 C1810 1.386 . S
C1811 C1815 1.393 . S
C1812 H1801 0.950 1_554 S
C1812 C1810 1.391 . S
C1812 C1813 1.400 . S
C1813 C1807 1.491 . S
C1813 C1812 1.400 . S
C1813 C1814 1.398 . S
C1814 H1802 0.950 . S
C1814 C1813 1.398 . S
C1814 C1815 1.391 . S
C1815 H1803 0.950 . S
C1815 C1811 1.393 . S
C1815 C1814 1.391 . S
H1816 C1824 0.950 . S
H1817 C1829 0.950 . S
H1818 C1826 0.950 . S
H1819 C1828 0.950 . S
H1820 C1830 0.950 . S
H1821 C1832 0.950 . S
H1822 C1834 0.950 . S
H1823 C1835 0.950 . S
C1824 H1816 0.950 . S
C1824 C1825 1.386 . S
C1824 C1826 1.391 . S
C1825 C1824 1.386 . S
C1825 C1829 1.393 . S
C1826 H1818 0.950 . S
C1826 C1824 1.391 . S
C1826 C1827 1.400 . S
C1827 C1826 1.400 . S
C1827 C1828 1.398 . S
C1827 C1833 1.491 . S
C1828 H1819 0.950 . S
C1828 C1827 1.398 . S
C1828 C1829 1.391 . S
C1829 H1817 0.950 . S
C1829 C1825 1.393 . S
C1829 C1828 1.391 . S
C1830 H1820 0.950 . S
C1830 C1831 1.386 . S
C1830 C1832 1.391 . S
C1831 C1830 1.386 . S
C1831 C1835 1.393 . S
C1832 H1821 0.950 . S
C1832 C1830 1.391 . S
C1832 C1833 1.400 . S
C1833 C1827 1.491 . S
C1833 C1832 1.400 . S
C1833 C1834 1.398 . S
C1834 H1822 0.950 . S
C1834 C1833 1.398 . S
C1834 C1835 1.391 . S
C1835 H1823 0.950 . S
C1835 C1831 1.393 . S
C1835 C1834 1.391 . S
H1836 C1844 0.950 . S
H1837 C1849 0.950 . S
H1838 C1846 0.950 . S
H1839 C1848 0.950 . S
H1840 C1850 0.950 . S
H1841 C1852 0.950 . S
H1842 C1854 0.950 . S
H1843 C1855 0.950 . S
C1844 H1836 0.950 . S
C1844 C1845 1.386 . S
C1844 C1846 1.391 . S
C1845 C1844 1.386 . S
C1845 C1849 1.393 . S
C1846 H1838 0.950 . S
C1846 C1844 1.391 . S
C1846 C1847 1.400 . S
C1847 C1846 1.400 . S
C1847 C1848 1.398 . S
C1847 C1853 1.491 . S
C1848 H1839 0.950 . S
C1848 C1847 1.398 . S
C1848 C1849 1.391 . S
C1849 H1837 0.950 . S
C1849 C1845 1.393 . S
C1849 C1848 1.391 . S
C1850 H1840 0.950 . S
C1850 C1851 1.386 . S
C1850 C1852 1.391 . S
C1851 C1850 1.386 . S
C1851 C1855 1.393 . S
C1852 H1841 0.950 . S
C1852 C1850 1.391 . S
C1852 C1853 1.400 . S
C1853 C1847 1.491 . S
C1853 C1852 1.400 . S
C1853 C1854 1.398 . S
C1854 H1842 0.950 . S
C1854 C1853 1.398 . S
C1854 C1855 1.391 . S
C1855 H1843 0.950 . S
C1855 C1851 1.393 . S
C1855 C1854 1.391 . S
H1856 C1864 0.950 . S
H1857 C1869 0.950 . S
H1858 C1866 0.950 . S
H1859 C1868 0.950 . S
H1860 C1870 0.950 . S
H1861 C1872 0.950 . S
H1862 C1874 0.950 . S
H1863 C1875 0.950 . S
C1864 H1856 0.950 . S
C1864 C1865 1.386 . S
C1864 C1866 1.391 . S
C1865 C1864 1.386 . S
C1865 C1869 1.393 . S
C1866 H1858 0.950 . S
C1866 C1864 1.391 . S
C1866 C1867 1.400 . S
C1867 C1866 1.400 . S
C1867 C1868 1.398 . S
C1867 C1873 1.491 . S
C1868 H1859 0.950 . S
C1868 C1867 1.398 . S
C1868 C1869 1.391 . S
C1869 H1857 0.950 . S
C1869 C1865 1.393 . S
C1869 C1868 1.391 . S
C1870 H1860 0.950 . S
C1870 C1871 1.386 . S
C1870 C1872 1.391 . S
C1871 C1870 1.386 . S
C1871 C1875 1.393 . S
C1872 H1861 0.950 . S
C1872 C1870 1.391 . S
C1872 C1873 1.400 . S
C1873 C1867 1.491 . S
C1873 C1872 1.400 . S
C1873 C1874 1.398 . S
C1874 H1862 0.950 . S
C1874 C1873 1.398 . S
C1874 C1875 1.391 . S
C1875 H1863 0.950 . S
C1875 C1871 1.393 . S
C1875 C1874 1.391 . S
H1876 C1884 0.950 . S
H1877 C1889 0.950 . S
H1878 C1886 0.950 . S
H1879 C1888 0.950 . S
H1880 C1890 0.950 . S
H1881 C1892 0.950 . S
H1882 C1894 0.950 . S
H1883 C1895 0.950 . S
C1884 H1876 0.950 . S
C1884 C1885 1.386 . S
C1884 C1886 1.391 . S
C1885 C1884 1.386 . S
C1885 C1889 1.393 . S
C1886 H1878 0.950 . S
C1886 C1884 1.391 . S
C1886 C1887 1.400 . S
C1887 C1886 1.400 . S
C1887 C1888 1.398 . S
C1887 C1893 1.491 . S
C1888 H1879 0.950 . S
C1888 C1887 1.398 . S
C1888 C1889 1.391 . S
C1889 H1877 0.950 . S
C1889 C1885 1.393 . S
C1889 C1888 1.391 . S
C1890 H1880 0.950 . S
C1890 C1891 1.386 . S
C1890 C1892 1.391 . S
C1891 C1890 1.386 . S
C1891 C1895 1.393 . S
C1892 H1881 0.950 . S
C1892 C1890 1.391 . S
C1892 C1893 1.400 . S
C1893 C1887 1.491 . S
C1893 C1892 1.400 . S
C1893 C1894 1.398 . S
C1894 H1882 0.950 . S
C1894 C1893 1.398 . S
C1894 C1895 1.391 . S
C1895 H1883 0.950 . S
C1895 C1891 1.393 . S
C1895 C1894 1.391 . S
H1896 C1904 0.950 . S
H1897 C1909 0.950 . S
H1898 C1906 0.950 . S
H1899 C1908 0.950 . S
H1900 C1910 0.950 . S
H1901 C1912 0.950 . S
H1902 C1914 0.950 . S
H1903 C1915 0.950 . S
C1904 H1896 0.950 . S
C1904 C1905 1.386 . S
C1904 C1906 1.391 . S
C1905 C1904 1.386 . S
C1905 C1909 1.393 . S
C1906 H1898 0.950 . S
C1906 C1904 1.391 . S
C1906 C1907 1.400 . S
C1907 C1906 1.400 . S
C1907 C1908 1.398 . S
C1907 C1913 1.491 . S
C1908 H1899 0.950 . S
C1908 C1907 1.398 . S
C1908 C1909 1.391 . S
C1909 H1897 0.950 . S
C1909 C1905 1.393 . S
C1909 C1908 1.391 . S
C1910 H1900 0.950 . S
C1910 C1911 1.386 . S
C1910 C1912 1.391 . S
C1911 C1910 1.386 . S
C1911 C1915 1.393 . S
C1912 H1901 0.950 . S
C1912 C1910 1.391 . S
C1912 C1913 1.400 . S
C1913 C1907 1.491 . S
C1913 C1912 1.400 . S
C1913 C1914 1.398 . S
C1914 H1902 0.950 . S
C1914 C1913 1.398 . S
C1914 C1915 1.391 . S
C1915 H1903 0.950 . S
C1915 C1911 1.393 . S
C1915 C1914 1.391 . S
H1916 C1924 0.950 . S
H1917 C1929 0.950 . S
H1918 C1926 0.950 . S
H1919 C1928 0.950 . S
H1920 C1930 0.950 . S
H1921 C1932 0.950 . S
H1922 C1934 0.950 . S
H1923 C1935 0.950 . S
C1924 H1916 0.950 . S
C1924 C1925 1.386 . S
C1924 C1926 1.391 . S
C1925 C1924 1.386 . S
C1925 C1929 1.393 . S
C1926 H1918 0.950 . S
C1926 C1924 1.391 . S
C1926 C1927 1.400 . S
C1927 C1926 1.400 . S
C1927 C1928 1.398 . S
C1927 C1933 1.491 . S
C1928 H1919 0.950 . S
C1928 C1927 1.398 . S
C1928 C1929 1.391 . S
C1929 H1917 0.950 . S
C1929 C1925 1.393 . S
C1929 C1928 1.391 . S
C1930 H1920 0.950 . S
C1930 C1931 1.386 . S
C1930 C1932 1.391 . S
C1931 C1930 1.386 . S
C1931 C1935 1.393 . S
C1932 H1921 0.950 . S
C1932 C1930 1.391 . S
C1932 C1933 1.400 . S
C1933 C1927 1.491 . S
C1933 C1932 1.400 . S
C1933 C1934 1.398 . S
C1934 H1922 0.950 . S
C1934 C1933 1.398 . S
C1934 C1935 1.391 . S
C1935 H1923 0.950 . S
C1935 C1931 1.393 . S
C1935 C1934 1.391 . S
H1936 C1944 0.950 . S
H1937 C1949 0.950 . S
H1938 C1946 0.950 . S
H1939 C1948 0.950 . S
H1940 C1950 0.950 . S
H1941 C1952 0.950 . S
H1942 C1954 0.950 . S
H1943 C1955 0.950 . S
C1944 H1936 0.950 . S
C1944 C1945 1.386 . S
C1944 C1946 1.391 . S
C1945 C1944 1.386 . S
C1945 C1949 1.393 . S
C1946 H1938 0.950 . S
C1946 C1944 1.391 . S
C1946 C1947 1.400 . S
C1947 C1946 1.400 . S
C1947 C1948 1.398 . S
C1947 C1953 1.491 . S
C1948 H1939 0.950 . S
C1948 C1947 1.398 . S
C1948 C1949 1.391 . S
C1949 H1937 0.950 . S
C1949 C1945 1.393 . S
C1949 C1948 1.391 . S
C1950 H1940 0.950 . S
C1950 C1951 1.386 . S
C1950 C1952 1.391 . S
C1951 C1950 1.386 . S
C1951 C1955 1.393 . S
C1952 H1941 0.950 . S
C1952 C1950 1.391 . S
C1952 C1953 1.400 . S
C1953 C1947 1.491 . S
C1953 C1952 1.400 . S
C1953 C1954 1.398 . S
C1954 H1942 0.950 . S
C1954 C1953 1.398 . S
C1954 C1955 1.391 . S
C1955 H1943 0.950 . S
C1955 C1951 1.393 . S
C1955 C1954 1.391 . S
H1956 C1964 0.950 . S
H1957 C1969 0.950 . S
H1958 C1966 0.950 . S
H1959 C1968 0.950 . S
H1960 C1970 0.950 . S
H1961 C1972 0.950 . S
H1962 C1974 0.950 . S
H1963 C1975 0.950 . S
C1964 H1956 0.950 . S
C1964 C1965 1.386 . S
C1964 C1966 1.391 . S
C1965 C1964 1.386 . S
C1965 C1969 1.393 . S
C1966 H1958 0.950 . S
C1966 C1964 1.391 . S
C1966 C1967 1.400 . S
C1967 C1966 1.400 . S
C1967 C1968 1.398 . S
C1967 C1973 1.491 . S
C1968 H1959 0.950 . S
C1968 C1967 1.398 . S
C1968 C1969 1.391 . S
C1969 H1957 0.950 . S
C1969 C1965 1.393 . S
C1969 C1968 1.391 . S
C1970 H1960 0.950 . S
C1970 C1971 1.386 . S
C1970 C1972 1.391 . S
C1971 C1970 1.386 . S
C1971 C1975 1.393 . S
C1972 H1961 0.950 . S
C1972 C1970 1.391 . S
C1972 C1973 1.400 . S
C1973 C1967 1.491 . S
C1973 C1972 1.400 . S
C1973 C1974 1.398 . S
C1974 H1962 0.950 . S
C1974 C1973 1.398 . S
C1974 C1975 1.391 . S
C1975 H1963 0.950 . S
C1975 C1971 1.393 . S
C1975 C1974 1.391 . S
H1976 C1984 0.950 . S
H1977 C1989 0.950 1_655 S
H1978 C1986 0.950 . S
H1979 C1988 0.950 . S
H1980 C1990 0.950 . S
H1981 C1992 0.950 . S
H1982 C1994 0.950 . S
H1983 C1995 0.950 . S
C1984 H1976 0.950 . S
C1984 C1985 1.386 . S
C1984 C1986 1.391 . S
C1985 C1984 1.386 . S
C1985 C1989 1.393 . S
C1986 H1978 0.950 . S
C1986 C1984 1.391 . S
C1986 C1987 1.400 . S
C1987 C1986 1.400 . S
C1987 C1988 1.398 . S
C1987 C1993 1.491 . S
C1988 H1979 0.950 . S
C1988 C1987 1.398 . S
C1988 C1989 1.391 . S
C1989 H1977 0.950 1_455 S
C1989 C1985 1.393 . S
C1989 C1988 1.391 . S
C1990 H1980 0.950 . S
C1990 C1991 1.386 . S
C1990 C1992 1.391 . S
C1991 C1990 1.386 . S
C1991 C1995 1.393 . S
C1992 H1981 0.950 . S
C1992 C1990 1.391 . S
C1992 C1993 1.400 1_554 S
C1993 C1987 1.491 . S
C1993 C1992 1.400 1_556 S
C1993 C1994 1.398 . S
C1994 H1982 0.950 . S
C1994 C1993 1.398 . S
C1994 C1995 1.391 1_556 S
C1995 H1983 0.950 . S
C1995 C1991 1.393 . S
C1995 C1994 1.391 1_554 S
H1996 C2004 0.950 . S
H1997 C2009 0.950 . S
H1998 C2006 0.950 . S
H1999 C2008 0.950 . S
H2000 C2010 0.950 . S
H2001 C2012 0.950 . S
H2002 C2014 0.950 . S
H2003 C2015 0.950 . S
C2004 H1996 0.950 . S
C2004 C2005 1.386 . S
C2004 C2006 1.391 1_455 S
C2005 C2004 1.386 . S
C2005 C2009 1.393 . S
C2006 H1998 0.950 . S
C2006 C2004 1.391 1_655 S
C2006 C2007 1.400 . S
C2007 C2006 1.400 . S
C2007 C2008 1.398 1_655 S
C2007 C2013 1.491 . S
C2008 H1999 0.950 . S
C2008 C2007 1.398 1_455 S
C2008 C2009 1.391 . S
C2009 H1997 0.950 . S
C2009 C2005 1.393 . S
C2009 C2008 1.391 . S
C2010 H2000 0.950 . S
C2010 C2011 1.386 . S
C2010 C2012 1.391 . S
C2011 C2010 1.386 . S
C2011 C2015 1.393 . S
C2012 H2001 0.950 . S
C2012 C2010 1.391 . S
C2012 C2013 1.400 . S
C2013 C2007 1.491 . S
C2013 C2012 1.400 . S
C2013 C2014 1.398 . S
C2014 H2002 0.950 . S
C2014 C2013 1.398 . S
C2014 C2015 1.391 . S
C2015 H2003 0.950 . S
C2015 C2011 1.393 . S
C2015 C2014 1.391 . S
H2016 C2024 0.950 . S
H2017 C2029 0.950 . S
H2018 C2026 0.950 . S
H2019 C2028 0.950 . S
H2020 C2030 0.950 . S
H2021 C2032 0.950 . S
H2022 C2034 0.950 . S
H2023 C2035 0.950 . S
C2024 H2016 0.950 . S
C2024 C2025 1.386 . S
C2024 C2026 1.391 . S
C2025 C2024 1.386 . S
C2025 C2029 1.393 . S
C2026 H2018 0.950 . S
C2026 C2024 1.391 . S
C2026 C2027 1.400 . S
C2027 C2026 1.400 . S
C2027 C2028 1.398 . S
C2027 C2033 1.491 . S
C2028 H2019 0.950 . S
C2028 C2027 1.398 . S
C2028 C2029 1.391 . S
C2029 H2017 0.950 . S
C2029 C2025 1.393 . S
C2029 C2028 1.391 . S
C2030 H2020 0.950 . S
C2030 C2031 1.386 . S
C2030 C2032 1.391 . S
C2031 C2030 1.386 . S
C2031 C2035 1.393 . S
C2032 H2021 0.950 . S
C2032 C2030 1.391 . S
C2032 C2033 1.400 . S
C2033 C2027 1.491 . S
C2033 C2032 1.400 . S
C2033 C2034 1.398 . S
C2034 H2022 0.950 . S
C2034 C2033 1.398 . S
C2034 C2035 1.391 . S
C2035 H2023 0.950 . S
C2035 C2031 1.393 . S
C2035 C2034 1.391 . S
H2036 C2044 0.950 . S
H2037 C2049 0.950 . S
H2038 C2046 0.950 . S
H2039 C2048 0.950 . S
H2040 C2050 0.950 . S
H2041 C2052 0.950 . S
H2042 C2054 0.950 . S
H2043 C2055 0.950 . S
C2044 H2036 0.950 . S
C2044 C2045 1.386 . S
C2044 C2046 1.391 . S
C2045 C2044 1.386 . S
C2045 C2049 1.393 . S
C2046 H2038 0.950 . S
C2046 C2044 1.391 . S
C2046 C2047 1.400 . S
C2047 C2046 1.400 . S
C2047 C2048 1.398 . S
C2047 C2053 1.491 1_455 S
C2048 H2039 0.950 . S
C2048 C2047 1.398 . S
C2048 C2049 1.391 . S
C2049 H2037 0.950 . S
C2049 C2045 1.393 . S
C2049 C2048 1.391 . S
C2050 H2040 0.950 . S
C2050 C2051 1.386 . S
C2050 C2052 1.391 . S
C2051 C2050 1.386 . S
C2051 C2055 1.393 . S
C2052 H2041 0.950 . S
C2052 C2050 1.391 . S
C2052 C2053 1.400 . S
C2053 C2047 1.491 1_655 S
C2053 C2052 1.400 . S
C2053 C2054 1.398 . S
C2054 H2042 0.950 . S
C2054 C2053 1.398 . S
C2054 C2055 1.391 . S
C2055 H2043 0.950 . S
C2055 C2051 1.393 . S
C2055 C2054 1.391 . S
H2056 C2064 0.950 . S
H2057 C2069 0.950 . S
H2058 C2066 0.950 . S
H2059 C2068 0.950 . S
H2060 C2070 0.950 . S
H2061 C2072 0.950 . S
H2062 C2074 0.950 . S
H2063 C2075 0.950 . S
C2064 H2056 0.950 . S
C2064 C2065 1.386 . S
C2064 C2066 1.391 1_655 S
C2065 C2064 1.386 . S
C2065 C2069 1.393 1_655 S
C2066 H2058 0.950 . S
C2066 C2064 1.391 1_455 S
C2066 C2067 1.400 . S
C2067 C2066 1.400 . S
C2067 C2068 1.398 . S
C2067 C2073 1.491 . S
C2068 H2059 0.950 . S
C2068 C2067 1.398 . S
C2068 C2069 1.391 . S
C2069 H2057 0.950 . S
C2069 C2065 1.393 1_455 S
C2069 C2068 1.391 . S
C2070 H2060 0.950 . S
C2070 C2071 1.386 . S
C2070 C2072 1.391 . S
C2071 C2070 1.386 . S
C2071 C2075 1.393 . S
C2072 H2061 0.950 . S
C2072 C2070 1.391 . S
C2072 C2073 1.400 . S
C2073 C2067 1.491 . S
C2073 C2072 1.400 . S
C2073 C2074 1.398 . S
C2074 H2062 0.950 . S
C2074 C2073 1.398 . S
C2074 C2075 1.391 . S
C2075 H2063 0.950 . S
C2075 C2071 1.393 . S
C2075 C2074 1.391 . S
H2076 C2084 0.950 . S
H2077 C2089 0.950 . S
H2078 C2086 0.950 . S
H2079 C2088 0.950 . S
H2080 C2090 0.950 . S
H2081 C2092 0.950 . S
H2082 C2094 0.950 . S
H2083 C2095 0.950 . S
C2084 H2076 0.950 . S
C2084 C2085 1.386 . S
C2084 C2086 1.391 . S
C2085 C2084 1.386 . S
C2085 C2089 1.393 . S
C2086 H2078 0.950 . S
C2086 C2084 1.391 . S
C2086 C2087 1.400 . S
C2087 C2086 1.400 . S
C2087 C2088 1.398 . S
C2087 C2093 1.491 . S
C2088 H2079 0.950 . S
C2088 C2087 1.398 . S
C2088 C2089 1.391 . S
C2089 H2077 0.950 . S
C2089 C2085 1.393 . S
C2089 C2088 1.391 . S
C2090 H2080 0.950 . S
C2090 C2091 1.386 . S
C2090 C2092 1.391 . S
C2091 C2090 1.386 . S
C2091 C2095 1.393 . S
C2092 H2081 0.950 . S
C2092 C2090 1.391 . S
C2092 C2093 1.400 . S
C2093 C2087 1.491 . S
C2093 C2092 1.400 . S
C2093 C2094 1.398 . S
C2094 H2082 0.950 . S
C2094 C2093 1.398 . S
C2094 C2095 1.391 . S
C2095 H2083 0.950 . S
C2095 C2091 1.393 . S
C2095 C2094 1.391 . S
H2096 C2104 0.950 . S
H2097 C2109 0.950 . S
H2098 C2106 0.950 . S
H2099 C2108 0.950 . S
H2100 C2110 0.950 . S
H2101 C2112 0.950 . S
H2102 C2114 0.950 . S
H2103 C2115 0.950 . S
C2104 H2096 0.950 . S
C2104 C2105 1.386 . S
C2104 C2106 1.391 . S
C2105 C2104 1.386 . S
C2105 C2109 1.393 . S
C2106 H2098 0.950 . S
C2106 C2104 1.391 . S
C2106 C2107 1.400 . S
C2107 C2106 1.400 . S
C2107 C2108 1.398 . S
C2107 C2113 1.491 . S
C2108 H2099 0.950 . S
C2108 C2107 1.398 . S
C2108 C2109 1.391 . S
C2109 H2097 0.950 . S
C2109 C2105 1.393 . S
C2109 C2108 1.391 . S
C2110 H2100 0.950 . S
C2110 C2111 1.386 . S
C2110 C2112 1.391 . S
C2111 C2110 1.386 . S
C2111 C2115 1.393 . S
C2112 H2101 0.950 . S
C2112 C2110 1.391 . S
C2112 C2113 1.400 . S
C2113 C2107 1.491 . S
C2113 C2112 1.400 . S
C2113 C2114 1.398 . S
C2114 H2102 0.950 . S
C2114 C2113 1.398 . S
C2114 C2115 1.391 . S
C2115 H2103 0.950 . S
C2115 C2111 1.393 . S
C2115 C2114 1.391 . S
H2116 C2124 0.950 . S
H2117 C2129 0.950 . S
H2118 C2126 0.950 . S
H2119 C2128 0.950 . S
H2120 C2130 0.950 . S
H2121 C2132 0.950 . S
H2122 C2134 0.950 . S
H2123 C2135 0.950 . S
C2124 H2116 0.950 . S
C2124 C2125 1.386 . S
C2124 C2126 1.391 . S
C2125 C2124 1.386 . S
C2125 C2129 1.393 . S
C2126 H2118 0.950 . S
C2126 C2124 1.391 . S
C2126 C2127 1.400 . S
C2127 C2126 1.400 . S
C2127 C2128 1.398 . S
C2127 C2133 1.491 . S
C2128 H2119 0.950 . S
C2128 C2127 1.398 . S
C2128 C2129 1.391 . S
C2129 H2117 0.950 . S
C2129 C2125 1.393 . S
C2129 C2128 1.391 . S
C2130 H2120 0.950 . S
C2130 C2131 1.386 . S
C2130 C2132 1.391 . S
C2131 C2130 1.386 . S
C2131 C2135 1.393 . S
C2132 H2121 0.950 . S
C2132 C2130 1.391 . S
C2132 C2133 1.400 . S
C2133 C2127 1.491 . S
C2133 C2132 1.400 . S
C2133 C2134 1.398 . S
C2134 H2122 0.950 . S
C2134 C2133 1.398 . S
C2134 C2135 1.391 . S
C2135 H2123 0.950 . S
C2135 C2131 1.393 . S
C2135 C2134 1.391 . S
H2136 C2144 0.950 . S
H2137 C2149 0.950 . S
H2138 C2146 0.950 . S
H2139 C2148 0.950 . S
H2140 C2150 0.950 . S
H2141 C2152 0.950 . S
H2142 C2154 0.950 . S
H2143 C2155 0.950 . S
C2144 H2136 0.950 . S
C2144 C2145 1.386 . S
C2144 C2146 1.391 . S
C2145 C2144 1.386 . S
C2145 C2149 1.393 . S
C2146 H2138 0.950 . S
C2146 C2144 1.391 . S
C2146 C2147 1.400 . S
C2147 C2146 1.400 . S
C2147 C2148 1.398 . S
C2147 C2153 1.491 . S
C2148 H2139 0.950 . S
C2148 C2147 1.398 . S
C2148 C2149 1.391 . S
C2149 H2137 0.950 . S
C2149 C2145 1.393 . S
C2149 C2148 1.391 . S
C2150 H2140 0.950 . S
C2150 C2151 1.386 . S
C2150 C2152 1.391 . S
C2151 C2150 1.386 . S
C2151 C2155 1.393 . S
C2152 H2141 0.950 . S
C2152 C2150 1.391 . S
C2152 C2153 1.400 . S
C2153 C2147 1.491 . S
C2153 C2152 1.400 . S
C2153 C2154 1.398 . S
C2154 H2142 0.950 . S
C2154 C2153 1.398 . S
C2154 C2155 1.391 . S
C2155 H2143 0.950 . S
C2155 C2151 1.393 . S
C2155 C2154 1.391 . S
H2156 C2164 0.950 . S
H2157 C2169 0.950 . S
H2158 C2166 0.950 . S
H2159 C2168 0.950 . S
H2160 C2170 0.950 . S
H2161 C2172 0.950 . S
H2162 C2174 0.950 . S
H2163 C2175 0.950 . S
C2164 H2156 0.950 . S
C2164 C2165 1.386 . S
C2164 C2166 1.391 . S
C2165 C2164 1.386 . S
C2165 C2169 1.393 . S
C2166 H2158 0.950 . S
C2166 C2164 1.391 . S
C2166 C2167 1.400 . S
C2167 C2166 1.400 . S
C2167 C2168 1.398 . S
C2167 C2173 1.491 . S
C2168 H2159 0.950 . S
C2168 C2167 1.398 . S
C2168 C2169 1.391 . S
C2169 H2157 0.950 . S
C2169 C2165 1.393 . S
C2169 C2168 1.391 . S
C2170 H2160 0.950 . S
C2170 C2171 1.386 . S
C2170 C2172 1.391 . S
C2171 C2170 1.386 . S
C2171 C2175 1.393 . S
C2172 H2161 0.950 . S
C2172 C2170 1.391 . S
C2172 C2173 1.400 . S
C2173 C2167 1.491 . S
C2173 C2172 1.400 . S
C2173 C2174 1.398 . S
C2174 H2162 0.950 . S
C2174 C2173 1.398 . S
C2174 C2175 1.391 . S
C2175 H2163 0.950 . S
C2175 C2171 1.393 . S
C2175 C2174 1.391 . S
H2176 C2184 0.950 . S
H2177 C2189 0.950 . S
H2178 C2186 0.950 . S
H2179 C2188 0.950 . S
H2180 C2190 0.950 . S
H2181 C2192 0.950 . S
H2182 C2194 0.950 . S
H2183 C2195 0.950 . S
C2184 H2176 0.950 . S
C2184 C2185 1.386 . S
C2184 C2186 1.391 . S
C2185 C2184 1.386 . S
C2185 C2189 1.393 . S
C2186 H2178 0.950 . S
C2186 C2184 1.391 . S
C2186 C2187 1.400 . S
C2187 C2186 1.400 . S
C2187 C2188 1.398 . S
C2187 C2193 1.491 . S
C2188 H2179 0.950 . S
C2188 C2187 1.398 . S
C2188 C2189 1.391 . S
C2189 H2177 0.950 . S
C2189 C2185 1.393 . S
C2189 C2188 1.391 . S
C2190 H2180 0.950 . S
C2190 C2191 1.386 . S
C2190 C2192 1.391 . S
C2191 C2190 1.386 . S
C2191 C2195 1.393 . S
C2192 H2181 0.950 . S
C2192 C2190 1.391 . S
C2192 C2193 1.400 . S
C2193 C2187 1.491 . S
C2193 C2192 1.400 . S
C2193 C2194 1.398 . S
C2194 H2182 0.950 . S
C2194 C2193 1.398 . S
C2194 C2195 1.391 . S
C2195 H2183 0.950 . S
C2195 C2191 1.393 . S
C2195 C2194 1.391 . S
H2196 C2204 0.950 . S
H2197 C2209 0.950 . S
H2198 C2206 0.950 . S
H2199 C2208 0.950 . S
H2200 C2210 0.950 . S
H2201 C2212 0.950 . S
H2202 C2214 0.950 . S
H2203 C2215 0.950 . S
C2204 H2196 0.950 . S
C2204 C2205 1.386 . S
C2204 C2206 1.391 . S
C2205 C2204 1.386 . S
C2205 C2209 1.393 . S
C2206 H2198 0.950 . S
C2206 C2204 1.391 . S
C2206 C2207 1.400 . S
C2207 C2206 1.400 . S
C2207 C2208 1.398 . S
C2207 C2213 1.491 . S
C2208 H2199 0.950 . S
C2208 C2207 1.398 . S
C2208 C2209 1.391 . S
C2209 H2197 0.950 . S
C2209 C2205 1.393 . S
C2209 C2208 1.391 . S
C2210 H2200 0.950 . S
C2210 C2211 1.386 . S
C2210 C2212 1.391 . S
C2211 C2210 1.386 . S
C2211 C2215 1.393 . S
C2212 H2201 0.950 . S
C2212 C2210 1.391 . S
C2212 C2213 1.400 . S
C2213 C2207 1.491 . S
C2213 C2212 1.400 . S
C2213 C2214 1.398 . S
C2214 H2202 0.950 . S
C2214 C2213 1.398 . S
C2214 C2215 1.391 . S
C2215 H2203 0.950 . S
C2215 C2211 1.393 . S
C2215 C2214 1.391 . S
H2216 C2224 0.950 . S
H2217 C2229 0.950 . S
H2218 C2226 0.950 . S
H2219 C2228 0.950 . S
H2220 C2230 0.950 . S
H2221 C2232 0.950 . S
H2222 C2234 0.950 . S
H2223 C2235 0.950 . S
C2224 H2216 0.950 . S
C2224 C2225 1.386 . S
C2224 C2226 1.391 . S
C2225 C2224 1.386 . S
C2225 C2229 1.393 . S
C2226 H2218 0.950 . S
C2226 C2224 1.391 . S
C2226 C2227 1.400 . S
C2227 C2226 1.400 . S
C2227 C2228 1.398 . S
C2227 C2233 1.491 . S
C2228 H2219 0.950 . S
C2228 C2227 1.398 . S
C2228 C2229 1.391 . S
C2229 H2217 0.950 . S
C2229 C2225 1.393 . S
C2229 C2228 1.391 . S
C2230 H2220 0.950 . S
C2230 C2231 1.386 . S
C2230 C2232 1.391 . S
C2231 C2230 1.386 . S
C2231 C2235 1.393 . S
C2232 H2221 0.950 . S
C2232 C2230 1.391 . S
C2232 C2233 1.400 . S
C2233 C2227 1.491 . S
C2233 C2232 1.400 . S
C2233 C2234 1.398 . S
C2234 H2222 0.950 . S
C2234 C2233 1.398 . S
C2234 C2235 1.391 . S
C2235 H2223 0.950 . S
C2235 C2231 1.393 . S
C2235 C2234 1.391 . S
H2236 C2244 0.950 . S
H2237 C2249 0.950 . S
H2238 C2246 0.950 . S
H2239 C2248 0.950 . S
H2240 C2250 0.950 . S
H2241 C2252 0.950 . S
H2242 C2254 0.950 . S
H2243 C2255 0.950 . S
C2244 H2236 0.950 . S
C2244 C2245 1.386 . S
C2244 C2246 1.391 . S
C2245 C2244 1.386 . S
C2245 C2249 1.393 . S
C2246 H2238 0.950 . S
C2246 C2244 1.391 . S
C2246 C2247 1.400 . S
C2247 C2246 1.400 . S
C2247 C2248 1.398 . S
C2247 C2253 1.491 . S
C2248 H2239 0.950 . S
C2248 C2247 1.398 . S
C2248 C2249 1.391 . S
C2249 H2237 0.950 . S
C2249 C2245 1.393 . S
C2249 C2248 1.391 . S
C2250 H2240 0.950 . S
C2250 C2251 1.386 . S
C2250 C2252 1.391 . S
C2251 C2250 1.386 . S
C2251 C2255 1.393 . S
C2252 H2241 0.950 . S
C2252 C2250 1.391 . S
C2252 C2253 1.400 . S
C2253 C2247 1.491 . S
C2253 C2252 1.400 . S
C2253 C2254 1.398 . S
C2254 H2242 0.950 . S
C2254 C2253 1.398 . S
C2254 C2255 1.391 . S
C2255 H2243 0.950 . S
C2255 C2251 1.393 . S
C2255 C2254 1.391 . S
H2256 C2264 0.950 . S
H2257 C2269 0.950 . S
H2258 C2266 0.950 . S
H2259 C2268 0.950 . S
H2260 C2270 0.950 . S
H2261 C2272 0.950 . S
H2262 C2274 0.950 . S
H2263 C2275 0.950 . S
C2264 H2256 0.950 . S
C2264 C2265 1.386 . S
C2264 C2266 1.391 . S
C2265 C2264 1.386 . S
C2265 C2269 1.393 . S
C2266 H2258 0.950 . S
C2266 C2264 1.391 . S
C2266 C2267 1.400 . S
C2267 C2266 1.400 . S
C2267 C2268 1.398 . S
C2267 C2273 1.491 . S
C2268 H2259 0.950 . S
C2268 C2267 1.398 . S
C2268 C2269 1.391 . S
C2269 H2257 0.950 . S
C2269 C2265 1.393 . S
C2269 C2268 1.391 . S
C2270 H2260 0.950 . S
C2270 C2271 1.386 . S
C2270 C2272 1.391 . S
C2271 C2270 1.386 . S
C2271 C2275 1.393 . S
C2272 H2261 0.950 . S
C2272 C2270 1.391 . S
C2272 C2273 1.400 . S
C2273 C2267 1.491 . S
C2273 C2272 1.400 . S
C2273 C2274 1.398 . S
C2274 H2262 0.950 . S
C2274 C2273 1.398 . S
C2274 C2275 1.391 . S
C2275 H2263 0.950 . S
C2275 C2271 1.393 . S
C2275 C2274 1.391 . S
H2276 C2284 0.950 . S
H2277 C2289 0.950 . S
H2278 C2286 0.950 . S
H2279 C2288 0.950 . S
H2280 C2290 0.950 . S
H2281 C2292 0.950 . S
H2282 C2294 0.950 . S
H2283 C2295 0.950 . S
C2284 H2276 0.950 . S
C2284 C2285 1.386 . S
C2284 C2286 1.391 . S
C2285 C2284 1.386 . S
C2285 C2289 1.393 . S
C2286 H2278 0.950 . S
C2286 C2284 1.391 . S
C2286 C2287 1.400 . S
C2287 C2286 1.400 . S
C2287 C2288 1.398 . S
C2287 C2293 1.491 . S
C2288 H2279 0.950 . S
C2288 C2287 1.398 . S
C2288 C2289 1.391 . S
C2289 H2277 0.950 . S
C2289 C2285 1.393 . S
C2289 C2288 1.391 . S
C2290 H2280 0.950 . S
C2290 C2291 1.386 . S
C2290 C2292 1.391 . S
C2291 C2290 1.386 . S
C2291 C2295 1.393 . S
C2292 H2281 0.950 . S
C2292 C2290 1.391 . S
C2292 C2293 1.400 . S
C2293 C2287 1.491 . S
C2293 C2292 1.400 . S
C2293 C2294 1.398 . S
C2294 H2282 0.950 . S
C2294 C2293 1.398 . S
C2294 C2295 1.391 . S
C2295 H2283 0.950 . S
C2295 C2291 1.393 . S
C2295 C2294 1.391 . S
H2296 C2304 0.950 . S
H2297 C2309 0.950 . S
H2298 C2306 0.950 . S
H2299 C2308 0.950 . S
H2300 C2310 0.950 . S
H2301 C2312 0.950 . S
H2302 C2314 0.950 . S
H2303 C2315 0.950 . S
C2304 H2296 0.950 . S
C2304 C2305 1.386 . S
C2304 C2306 1.391 . S
C2305 C2304 1.386 . S
C2305 C2309 1.393 . S
C2306 H2298 0.950 . S
C2306 C2304 1.391 . S
C2306 C2307 1.400 . S
C2307 C2306 1.400 . S
C2307 C2308 1.398 . S
C2307 C2313 1.491 . S
C2308 H2299 0.950 . S
C2308 C2307 1.398 . S
C2308 C2309 1.391 . S
C2309 H2297 0.950 . S
C2309 C2305 1.393 . S
C2309 C2308 1.391 . S
C2310 H2300 0.950 . S
C2310 C2311 1.386 . S
C2310 C2312 1.391 . S
C2311 C2310 1.386 . S
C2311 C2315 1.393 . S
C2312 H2301 0.950 . S
C2312 C2310 1.391 . S
C2312 C2313 1.400 . S
C2313 C2307 1.491 . S
C2313 C2312 1.400 . S
C2313 C2314 1.398 . S
C2314 H2302 0.950 . S
C2314 C2313 1.398 . S
C2314 C2315 1.391 . S
C2315 H2303 0.950 . S
C2315 C2311 1.393 . S
C2315 C2314 1.391 . S
H2316 C2324 0.950 1_556 S
H2317 C2329 0.950 . S
H2318 C2326 0.950 1_556 S
H2319 C2328 0.950 . S
H2320 C2330 0.950 . S
H2321 C2332 0.950 . S
H2322 C2334 0.959 1_556 S
H2323 C2335 0.945 1_556 S
C2324 H2316 0.950 1_554 S
C2324 C2325 1.386 . S
C2324 C2326 1.391 . S
C2325 C2324 1.386 . S
C2325 C2329 1.393 . S
C2326 H2318 0.950 1_554 S
C2326 C2324 1.391 . S
C2326 C2327 1.400 . S
C2327 C2326 1.400 . S
C2327 C2328 1.398 . S
C2327 C2333 1.491 . S
C2328 H2319 0.950 . S
C2328 C2327 1.398 . S
C2328 C2329 1.391 . S
C2329 H2317 0.950 . S
C2329 C2325 1.393 . S
C2329 C2328 1.391 . S
C2330 H2320 0.950 . S
C2330 C2331 1.386 1_565 S
C2330 C2332 1.391 . S
C2331 C2330 1.386 1_545 S
C2331 C2335 1.393 . S
C2332 H2321 0.950 . S
C2332 C2330 1.391 . S
C2332 C2333 1.400 . S
C2333 C2327 1.491 . S
C2333 C2332 1.400 . S
C2333 C2334 1.388 1_565 S
C2334 H2322 0.959 1_554 S
C2334 C2333 1.388 1_545 S
C2334 C2335 1.393 . S
C2335 H2323 0.945 1_554 S
C2335 C2331 1.393 . S
C2335 C2334 1.393 . S
H2336 C2344 0.950 . S
H2337 C2349 0.950 . S
H2338 C2346 0.950 . S
H2339 C2348 0.950 . S
H2340 C2350 0.950 . S
H2341 C2352 0.950 . S
H2342 C2354 0.950 . S
H2343 C2355 0.950 . S
C2344 H2336 0.950 . S
C2344 C2345 1.386 . S
C2344 C2346 1.391 . S
C2345 C2344 1.386 . S
C2345 C2349 1.393 . S
C2346 H2338 0.950 . S
C2346 C2344 1.391 . S
C2346 C2347 1.400 . S
C2347 C2346 1.400 . S
C2347 C2348 1.398 . S
C2347 C2353 1.491 . S
C2348 H2339 0.950 . S
C2348 C2347 1.398 . S
C2348 C2349 1.391 . S
C2349 H2337 0.950 . S
C2349 C2345 1.393 . S
C2349 C2348 1.391 . S
C2350 H2340 0.950 . S
C2350 C2351 1.386 . S
C2350 C2352 1.391 . S
C2351 C2350 1.386 . S
C2351 C2355 1.393 . S
C2352 H2341 0.950 . S
C2352 C2350 1.391 . S
C2352 C2353 1.400 . S
C2353 C2347 1.491 . S
C2353 C2352 1.400 . S
C2353 C2354 1.398 . S
C2354 H2342 0.950 . S
C2354 C2353 1.398 . S
C2354 C2355 1.391 . S
C2355 H2343 0.950 . S
C2355 C2351 1.393 . S
C2355 C2354 1.391 . S
H2356 C2364 0.950 . S
H2357 C2369 0.950 . S
H2358 C2366 0.950 . S
H2359 C2368 0.950 . S
H2360 C2370 0.950 . S
H2361 C2372 0.950 . S
H2362 C2374 0.950 . S
H2363 C2375 0.950 . S
C2364 H2356 0.950 . S
C2364 C2365 1.386 . S
C2364 C2366 1.391 . S
C2365 C2364 1.386 . S
C2365 C2369 1.393 . S
C2366 H2358 0.950 . S
C2366 C2364 1.391 . S
C2366 C2367 1.400 . S
C2367 C2366 1.400 . S
C2367 C2368 1.398 . S
C2367 C2373 1.491 . S
C2368 H2359 0.950 . S
C2368 C2367 1.398 . S
C2368 C2369 1.391 . S
C2369 H2357 0.950 . S
C2369 C2365 1.393 . S
C2369 C2368 1.391 . S
C2370 H2360 0.950 . S
C2370 C2371 1.386 . S
C2370 C2372 1.391 . S
C2371 C2370 1.386 . S
C2371 C2375 1.393 . S
C2372 H2361 0.950 . S
C2372 C2370 1.391 . S
C2372 C2373 1.400 . S
C2373 C2367 1.491 . S
C2373 C2372 1.400 . S
C2373 C2374 1.398 . S
C2374 H2362 0.950 . S
C2374 C2373 1.398 . S
C2374 C2375 1.391 . S
C2375 H2363 0.950 . S
C2375 C2371 1.393 . S
C2375 C2374 1.391 . S
H2376 C2384 0.950 . S
H2377 C2389 0.950 . S
H2378 C2386 0.950 . S
H2379 C2388 0.950 . S
H2380 C2390 0.950 . S
H2381 C2392 0.950 . S
H2382 C2394 0.950 . S
H2383 C2395 0.950 . S
C2384 H2376 0.950 . S
C2384 C2385 1.386 . S
C2384 C2386 1.391 . S
C2385 C2384 1.386 . S
C2385 C2389 1.393 . S
C2386 H2378 0.950 . S
C2386 C2384 1.391 . S
C2386 C2387 1.400 . S
C2387 C2386 1.400 . S
C2387 C2388 1.398 . S
C2387 C2393 1.491 . S
C2388 H2379 0.950 . S
C2388 C2387 1.398 . S
C2388 C2389 1.391 . S
C2389 H2377 0.950 . S
C2389 C2385 1.393 . S
C2389 C2388 1.391 . S
C2390 H2380 0.950 . S
C2390 C2391 1.386 . S
C2390 C2392 1.391 . S
C2391 C2390 1.386 . S
C2391 C2395 1.393 . S
C2392 H2381 0.950 . S
C2392 C2390 1.391 . S
C2392 C2393 1.400 . S
C2393 C2387 1.491 . S
C2393 C2392 1.400 . S
C2393 C2394 1.398 . S
C2394 H2382 0.950 . S
C2394 C2393 1.398 . S
C2394 C2395 1.391 . S
C2395 H2383 0.950 . S
C2395 C2391 1.393 . S
C2395 C2394 1.391 . S
H2396 C2404 0.950 . S
H2397 C2409 0.950 . S
H2398 C2406 0.950 . S
H2399 C2408 0.950 . S
H2400 C2410 0.950 . S
H2401 C2412 0.950 . S
H2402 C2414 0.950 . S
H2403 C2415 0.950 . S
C2404 H2396 0.950 . S
C2404 C2405 1.386 . S
C2404 C2406 1.391 . S
C2405 C2404 1.386 . S
C2405 C2409 1.393 . S
C2406 H2398 0.950 . S
C2406 C2404 1.391 . S
C2406 C2407 1.400 . S
C2407 C2406 1.400 . S
C2407 C2408 1.398 . S
C2407 C2413 1.491 . S
C2408 H2399 0.950 . S
C2408 C2407 1.398 . S
C2408 C2409 1.391 . S
C2409 H2397 0.950 . S
C2409 C2405 1.393 . S
C2409 C2408 1.391 . S
C2410 H2400 0.950 . S
C2410 C2411 1.386 . S
C2410 C2412 1.391 . S
C2411 C2410 1.386 . S
C2411 C2415 1.393 . S
C2412 H2401 0.950 . S
C2412 C2410 1.391 . S
C2412 C2413 1.400 . S
C2413 C2407 1.491 . S
C2413 C2412 1.400 . S
C2413 C2414 1.398 . S
C2414 H2402 0.950 . S
C2414 C2413 1.398 . S
C2414 C2415 1.391 . S
C2415 H2403 0.950 . S
C2415 C2411 1.393 . S
C2415 C2414 1.391 . S
H2416 C2424 0.950 . S
H2417 C2429 0.950 . S
H2418 C2426 0.950 . S
H2419 C2428 0.950 . S
H2420 C2430 0.950 . S
H2421 C2432 0.950 . S
H2422 C2434 0.950 . S
H2423 C2435 0.950 . S
C2424 H2416 0.950 . S
C2424 C2425 1.386 . S
C2424 C2426 1.391 . S
C2425 C2424 1.386 . S
C2425 C2429 1.393 . S
C2426 H2418 0.950 . S
C2426 C2424 1.391 . S
C2426 C2427 1.400 . S
C2427 C2426 1.400 . S
C2427 C2428 1.398 . S
C2427 C2433 1.491 . S
C2428 H2419 0.950 . S
C2428 C2427 1.398 . S
C2428 C2429 1.391 . S
C2429 H2417 0.950 . S
C2429 C2425 1.393 . S
C2429 C2428 1.391 . S
C2430 H2420 0.950 . S
C2430 C2431 1.386 . S
C2430 C2432 1.391 . S
C2431 C2430 1.386 . S
C2431 C2435 1.393 . S
C2432 H2421 0.950 . S
C2432 C2430 1.391 . S
C2432 C2433 1.400 . S
C2433 C2427 1.491 . S
C2433 C2432 1.400 . S
C2433 C2434 1.398 . S
C2434 H2422 0.950 . S
C2434 C2433 1.398 . S
C2434 C2435 1.391 . S
C2435 H2423 0.950 . S
C2435 C2431 1.393 . S
C2435 C2434 1.391 . S
H2436 C2444 0.950 . S
H2437 C2449 0.950 . S
H2438 C2446 0.950 . S
H2439 C2448 0.950 . S
H2440 C2450 0.950 . S
H2441 C2452 0.950 . S
H2442 C2454 0.950 . S
H2443 C2455 0.950 . S
C2444 H2436 0.950 . S
C2444 C2445 1.386 . S
C2444 C2446 1.391 . S
C2445 C2444 1.386 . S
C2445 C2449 1.393 . S
C2446 H2438 0.950 . S
C2446 C2444 1.391 . S
C2446 C2447 1.400 . S
C2447 C2446 1.400 . S
C2447 C2448 1.398 . S
C2447 C2453 1.491 . S
C2448 H2439 0.950 . S
C2448 C2447 1.398 . S
C2448 C2449 1.391 . S
C2449 H2437 0.950 . S
C2449 C2445 1.393 . S
C2449 C2448 1.391 . S
C2450 H2440 0.950 . S
C2450 C2451 1.386 . S
C2450 C2452 1.391 . S
C2451 C2450 1.386 . S
C2451 C2455 1.393 . S
C2452 H2441 0.950 . S
C2452 C2450 1.391 . S
C2452 C2453 1.400 . S
C2453 C2447 1.491 . S
C2453 C2452 1.400 . S
C2453 C2454 1.398 . S
C2454 H2442 0.950 . S
C2454 C2453 1.398 . S
C2454 C2455 1.391 . S
C2455 H2443 0.950 . S
C2455 C2451 1.393 . S
C2455 C2454 1.391 . S
H2456 C2464 0.950 . S
H2457 C2469 0.950 . S
H2458 C2466 0.950 . S
H2459 C2468 0.950 . S
H2460 C2470 0.950 . S
H2461 C2472 0.950 . S
H2462 C2474 0.950 . S
H2463 C2475 0.950 . S
C2464 H2456 0.950 . S
C2464 C2465 1.386 . S
C2464 C2466 1.391 . S
C2465 C2464 1.386 . S
C2465 C2469 1.393 . S
C2466 H2458 0.950 . S
C2466 C2464 1.391 . S
C2466 C2467 1.400 . S
C2467 C2466 1.400 . S
C2467 C2468 1.398 . S
C2467 C2473 1.491 . S
C2468 H2459 0.950 . S
C2468 C2467 1.398 . S
C2468 C2469 1.391 . S
C2469 H2457 0.950 . S
C2469 C2465 1.393 . S
C2469 C2468 1.391 . S
C2470 H2460 0.950 . S
C2470 C2471 1.386 . S
C2470 C2472 1.391 . S
C2471 C2470 1.386 . S
C2471 C2475 1.393 . S
C2472 H2461 0.950 . S
C2472 C2470 1.391 . S
C2472 C2473 1.400 . S
C2473 C2467 1.491 . S
C2473 C2472 1.400 . S
C2473 C2474 1.398 . S
C2474 H2462 0.950 . S
C2474 C2473 1.398 . S
C2474 C2475 1.391 . S
C2475 H2463 0.950 . S
C2475 C2471 1.393 . S
C2475 C2474 1.391 . S
H2476 C2484 0.950 . S
H2477 C2489 0.950 . S
H2478 C2486 0.950 . S
H2479 C2488 0.950 . S
H2480 C2490 0.950 . S
H2481 C2492 0.950 . S
H2482 C2494 0.950 . S
H2483 C2495 0.950 . S
C2484 H2476 0.950 . S
C2484 C2485 1.386 . S
C2484 C2486 1.391 . S
C2485 C2484 1.386 . S
C2485 C2489 1.393 . S
C2486 H2478 0.950 . S
C2486 C2484 1.391 . S
C2486 C2487 1.400 . S
C2487 C2486 1.400 . S
C2487 C2488 1.398 . S
C2487 C2493 1.491 . S
C2488 H2479 0.950 . S
C2488 C2487 1.398 . S
C2488 C2489 1.391 . S
C2489 H2477 0.950 . S
C2489 C2485 1.393 . S
C2489 C2488 1.391 . S
C2490 H2480 0.950 . S
C2490 C2491 1.386 . S
C2490 C2492 1.391 . S
C2491 C2490 1.386 . S
C2491 C2495 1.393 . S
C2492 H2481 0.950 . S
C2492 C2490 1.391 . S
C2492 C2493 1.400 . S
C2493 C2487 1.491 . S
C2493 C2492 1.400 . S
C2493 C2494 1.398 . S
C2494 H2482 0.950 . S
C2494 C2493 1.398 . S
C2494 C2495 1.391 . S
C2495 H2483 0.950 . S
C2495 C2491 1.393 . S
C2495 C2494 1.391 . S
H2496 C2504 0.950 . S
H2497 C2509 0.950 . S
H2498 C2506 0.950 . S
H2499 C2508 0.950 . S
H2500 C2510 0.950 . S
H2501 C2512 0.950 . S
H2502 C2514 0.950 . S
H2503 C2515 0.950 . S
C2504 H2496 0.950 . S
C2504 C2505 1.386 . S
C2504 C2506 1.391 . S
C2505 C2504 1.386 . S
C2505 C2509 1.393 . S
C2506 H2498 0.950 . S
C2506 C2504 1.391 . S
C2506 C2507 1.400 . S
C2507 C2506 1.400 . S
C2507 C2508 1.398 . S
C2507 C2513 1.491 . S
C2508 H2499 0.950 . S
C2508 C2507 1.398 . S
C2508 C2509 1.391 . S
C2509 H2497 0.950 . S
C2509 C2505 1.393 . S
C2509 C2508 1.391 . S
C2510 H2500 0.950 . S
C2510 C2511 1.386 . S
C2510 C2512 1.391 . S
C2511 C2510 1.386 . S
C2511 C2515 1.393 . S
C2512 H2501 0.950 . S
C2512 C2510 1.391 . S
C2512 C2513 1.400 . S
C2513 C2507 1.491 . S
C2513 C2512 1.400 . S
C2513 C2514 1.398 . S
C2514 H2502 0.950 . S
C2514 C2513 1.398 . S
C2514 C2515 1.391 . S
C2515 H2503 0.950 . S
C2515 C2511 1.393 . S
C2515 C2514 1.391 . S
H2516 C2524 0.950 . S
H2517 C2529 0.950 . S
H2518 C2526 0.950 . S
H2519 C2528 0.950 . S
H2520 C2530 0.950 . S
H2521 C2532 0.950 . S
H2522 C2534 0.950 . S
H2523 C2535 0.950 . S
C2524 H2516 0.950 . S
C2524 C2525 1.386 . S
C2524 C2526 1.391 . S
C2525 C2524 1.386 . S
C2525 C2529 1.393 . S
C2526 H2518 0.950 . S
C2526 C2524 1.391 . S
C2526 C2527 1.400 . S
C2527 C2526 1.400 . S
C2527 C2528 1.398 . S
C2527 C2533 1.491 . S
C2528 H2519 0.950 . S
C2528 C2527 1.398 . S
C2528 C2529 1.391 . S
C2529 H2517 0.950 . S
C2529 C2525 1.393 . S
C2529 C2528 1.391 . S
C2530 H2520 0.950 . S
C2530 C2531 1.386 . S
C2530 C2532 1.391 . S
C2531 C2530 1.386 . S
C2531 C2535 1.393 . S
C2532 H2521 0.950 . S
C2532 C2530 1.391 . S
C2532 C2533 1.400 . S
C2533 C2527 1.491 . S
C2533 C2532 1.400 . S
C2533 C2534 1.398 . S
C2534 H2522 0.950 . S
C2534 C2533 1.398 . S
C2534 C2535 1.391 . S
C2535 H2523 0.950 . S
C2535 C2531 1.393 . S
C2535 C2534 1.391 . S
H2536 C2544 0.950 . S
H2537 C2549 0.950 . S
H2538 C2546 0.950 . S
H2539 C2548 0.950 . S
H2540 C2550 0.950 . S
H2541 C2552 0.950 . S
H2542 C2554 0.950 . S
H2543 C2555 0.950 . S
C2544 H2536 0.950 . S
C2544 C2545 1.386 . S
C2544 C2546 1.391 . S
C2545 C2544 1.386 . S
C2545 C2549 1.393 . S
C2546 H2538 0.950 . S
C2546 C2544 1.391 . S
C2546 C2547 1.400 . S
C2547 C2546 1.400 . S
C2547 C2548 1.398 . S
C2547 C2553 1.491 . S
C2548 H2539 0.950 . S
C2548 C2547 1.398 . S
C2548 C2549 1.391 . S
C2549 H2537 0.950 . S
C2549 C2545 1.393 . S
C2549 C2548 1.391 . S
C2550 H2540 0.950 . S
C2550 C2551 1.386 . S
C2550 C2552 1.391 . S
C2551 C2550 1.386 . S
C2551 C2555 1.393 . S
C2552 H2541 0.950 . S
C2552 C2550 1.391 . S
C2552 C2553 1.400 . S
C2553 C2547 1.491 . S
C2553 C2552 1.400 . S
C2553 C2554 1.398 . S
C2554 H2542 0.950 . S
C2554 C2553 1.398 . S
C2554 C2555 1.391 . S
C2555 H2543 0.950 . S
C2555 C2551 1.393 . S
C2555 C2554 1.391 . S
H2556 C2564 0.950 . S
H2557 C2569 0.950 . S
H2558 C2566 0.950 . S
H2559 C2568 0.950 . S
H2560 C2570 0.950 . S
H2561 C2572 0.950 . S
H2562 C2574 0.950 . S
H2563 C2575 0.950 . S
C2564 H2556 0.950 . S
C2564 C2565 1.386 . S
C2564 C2566 1.391 . S
C2565 C2564 1.386 . S
C2565 C2569 1.393 . S
C2566 H2558 0.950 . S
C2566 C2564 1.391 . S
C2566 C2567 1.400 . S
C2567 C2566 1.400 . S
C2567 C2568 1.398 . S
C2567 C2573 1.491 . S
C2568 H2559 0.950 . S
C2568 C2567 1.398 . S
C2568 C2569 1.391 . S
C2569 H2557 0.950 . S
C2569 C2565 1.393 . S
C2569 C2568 1.391 . S
C2570 H2560 0.950 . S
C2570 C2571 1.386 . S
C2570 C2572 1.391 . S
C2571 C2570 1.386 . S
C2571 C2575 1.393 . S
C2572 H2561 0.950 . S
C2572 C2570 1.391 . S
C2572 C2573 1.400 . S
C2573 C2567 1.491 . S
C2573 C2572 1.400 . S
C2573 C2574 1.398 . S
C2574 H2562 0.950 . S
C2574 C2573 1.398 . S
C2574 C2575 1.391 . S
C2575 H2563 0.950 . S
C2575 C2571 1.393 . S
C2575 C2574 1.391 . S
H2576 C2584 0.950 . S
H2577 C2589 0.950 . S
H2578 C2586 0.950 . S
H2579 C2588 0.950 . S
H2580 C2590 0.950 . S
H2581 C2592 0.950 . S
H2582 C2594 0.950 . S
H2583 C2595 0.950 . S
C2584 H2576 0.950 . S
C2584 C2585 1.386 . S
C2584 C2586 1.391 . S
C2585 C2584 1.386 . S
C2585 C2589 1.393 . S
C2586 H2578 0.950 . S
C2586 C2584 1.391 . S
C2586 C2587 1.400 . S
C2587 C2586 1.400 . S
C2587 C2588 1.398 . S
C2587 C2593 1.491 . S
C2588 H2579 0.950 . S
C2588 C2587 1.398 . S
C2588 C2589 1.391 . S
C2589 H2577 0.950 . S
C2589 C2585 1.393 . S
C2589 C2588 1.391 . S
C2590 H2580 0.950 . S
C2590 C2591 1.386 . S
C2590 C2592 1.391 . S
C2591 C2590 1.386 . S
C2591 C2595 1.393 . S
C2592 H2581 0.950 . S
C2592 C2590 1.391 . S
C2592 C2593 1.400 . S
C2593 C2587 1.491 . S
C2593 C2592 1.400 . S
C2593 C2594 1.398 . S
C2594 H2582 0.950 . S
C2594 C2593 1.398 . S
C2594 C2595 1.391 . S
C2595 H2583 0.950 . S
C2595 C2591 1.393 . S
C2595 C2594 1.391 . S
H2596 C2604 0.950 . S
H2597 C2609 0.950 . S
H2598 C2606 0.950 . S
H2599 C2608 0.950 . S
H2600 C2610 0.950 . S
H2601 C2612 0.950 . S
H2602 C2614 0.950 . S
H2603 C2615 0.950 . S
C2604 H2596 0.950 . S
C2604 C2605 1.386 . S
C2604 C2606 1.391 . S
C2605 C2604 1.386 . S
C2605 C2609 1.393 . S
C2606 H2598 0.950 . S
C2606 C2604 1.391 . S
C2606 C2607 1.400 . S
C2607 C2606 1.400 . S
C2607 C2608 1.398 . S
C2607 C2613 1.491 . S
C2608 H2599 0.950 . S
C2608 C2607 1.398 . S
C2608 C2609 1.391 . S
C2609 H2597 0.950 . S
C2609 C2605 1.393 . S
C2609 C2608 1.391 . S
C2610 H2600 0.950 . S
C2610 C2611 1.386 . S
C2610 C2612 1.391 . S
C2611 C2610 1.386 . S
C2611 C2615 1.393 . S
C2612 H2601 0.950 . S
C2612 C2610 1.391 . S
C2612 C2613 1.400 . S
C2613 C2607 1.491 . S
C2613 C2612 1.400 . S
C2613 C2614 1.398 . S
C2614 H2602 0.950 . S
C2614 C2613 1.398 . S
C2614 C2615 1.391 . S
C2615 H2603 0.950 . S
C2615 C2611 1.393 . S
C2615 C2614 1.391 . S
H2616 C2624 0.950 . S
H2617 C2629 0.950 . S
H2618 C2626 0.950 1_455 S
H2619 C2628 0.950 . S
H2620 C2630 0.950 . S
H2621 C2632 0.950 . S
H2622 C2634 0.950 . S
H2623 C2635 0.950 . S
C2624 H2616 0.950 . S
C2624 C2625 1.386 . S
C2624 C2626 1.391 . S
C2625 C2624 1.386 . S
C2625 C2629 1.393 . S
C2626 H2618 0.950 1_655 S
C2626 C2624 1.391 . S
C2626 C2627 1.400 . S
C2627 C2626 1.400 . S
C2627 C2628 1.398 . S
C2627 C2633 1.491 1_655 S
C2628 H2619 0.950 . S
C2628 C2627 1.398 . S
C2628 C2629 1.391 . S
C2629 H2617 0.950 . S
C2629 C2625 1.393 . S
C2629 C2628 1.391 . S
C2630 H2620 0.950 . S
C2630 C2631 1.386 . S
C2630 C2632 1.391 1_455 S
C2631 C2630 1.386 . S
C2631 C2635 1.393 . S
C2632 H2621 0.950 . S
C2632 C2630 1.391 1_655 S
C2632 C2633 1.400 1_655 S
C2633 C2627 1.491 1_455 S
C2633 C2632 1.400 1_455 S
C2633 C2634 1.398 . S
C2634 H2622 0.950 . S
C2634 C2633 1.398 . S
C2634 C2635 1.391 . S
C2635 H2623 0.950 . S
C2635 C2631 1.393 . S
C2635 C2634 1.391 . S
H2636 C2644 0.950 . S
H2637 C2649 0.950 . S
H2638 C2646 0.950 . S
H2639 C2648 0.950 . S
H2640 C2650 0.950 . S
H2641 C2652 0.950 . S
H2642 C2654 0.950 . S
H2643 C2655 0.950 . S
C2644 H2636 0.950 . S
C2644 C2645 1.386 . S
C2644 C2646 1.391 . S
C2645 C2644 1.386 . S
C2645 C2649 1.393 . S
C2646 H2638 0.950 . S
C2646 C2644 1.391 . S
C2646 C2647 1.400 . S
C2647 C2646 1.400 . S
C2647 C2648 1.398 . S
C2647 C2653 1.491 . S
C2648 H2639 0.950 . S
C2648 C2647 1.398 . S
C2648 C2649 1.391 . S
C2649 H2637 0.950 . S
C2649 C2645 1.393 . S
C2649 C2648 1.391 . S
C2650 H2640 0.950 . S
C2650 C2651 1.386 . S
C2650 C2652 1.391 . S
C2651 C2650 1.386 . S
C2651 C2655 1.393 . S
C2652 H2641 0.950 . S
C2652 C2650 1.391 . S
C2652 C2653 1.400 . S
C2653 C2647 1.491 . S
C2653 C2652 1.400 . S
C2653 C2654 1.398 . S
C2654 H2642 0.950 . S
C2654 C2653 1.398 . S
C2654 C2655 1.391 . S
C2655 H2643 0.950 . S
C2655 C2651 1.393 . S
C2655 C2654 1.391 . S
H2656 C2664 0.950 . S
H2657 C2669 0.950 . S
H2658 C2666 0.950 . S
H2659 C2668 0.950 . S
H2660 C2670 0.950 . S
H2661 C2672 0.950 . S
H2662 C2674 0.950 . S
H2663 C2675 0.950 . S
C2664 H2656 0.950 . S
C2664 C2665 1.386 . S
C2664 C2666 1.391 . S
C2665 C2664 1.386 . S
C2665 C2669 1.393 . S
C2666 H2658 0.950 . S
C2666 C2664 1.391 . S
C2666 C2667 1.400 . S
C2667 C2666 1.400 . S
C2667 C2668 1.398 . S
C2667 C2673 1.491 . S
C2668 H2659 0.950 . S
C2668 C2667 1.398 . S
C2668 C2669 1.391 . S
C2669 H2657 0.950 . S
C2669 C2665 1.393 . S
C2669 C2668 1.391 . S
C2670 H2660 0.950 . S
C2670 C2671 1.386 . S
C2670 C2672 1.391 . S
C2671 C2670 1.386 . S
C2671 C2675 1.393 . S
C2672 H2661 0.950 . S
C2672 C2670 1.391 . S
C2672 C2673 1.400 . S
C2673 C2667 1.491 . S
C2673 C2672 1.400 . S
C2673 C2674 1.398 . S
C2674 H2662 0.950 . S
C2674 C2673 1.398 . S
C2674 C2675 1.391 . S
C2675 H2663 0.950 . S
C2675 C2671 1.393 . S
C2675 C2674 1.391 . S
H2676 C2684 0.950 . S
H2677 C2689 0.950 . S
H2678 C2686 0.950 . S
H2679 C2688 0.950 . S
H2680 C2690 0.950 . S
H2681 C2692 0.950 . S
H2682 C2694 0.950 . S
H2683 C2695 0.950 . S
C2684 H2676 0.950 . S
C2684 C2685 1.386 . S
C2684 C2686 1.391 . S
C2685 C2684 1.386 . S
C2685 C2689 1.393 . S
C2686 H2678 0.950 . S
C2686 C2684 1.391 . S
C2686 C2687 1.400 . S
C2687 C2686 1.400 . S
C2687 C2688 1.398 . S
C2687 C2693 1.491 . S
C2688 H2679 0.950 . S
C2688 C2687 1.398 . S
C2688 C2689 1.391 . S
C2689 H2677 0.950 . S
C2689 C2685 1.393 . S
C2689 C2688 1.391 . S
C2690 H2680 0.950 . S
C2690 C2691 1.386 . S
C2690 C2692 1.391 . S
C2691 C2690 1.386 . S
C2691 C2695 1.393 . S
C2692 H2681 0.950 . S
C2692 C2690 1.391 . S
C2692 C2693 1.400 . S
C2693 C2687 1.491 . S
C2693 C2692 1.400 . S
C2693 C2694 1.398 . S
C2694 H2682 0.950 . S
C2694 C2693 1.398 . S
C2694 C2695 1.391 . S
C2695 H2683 0.950 . S
C2695 C2691 1.393 . S
C2695 C2694 1.391 . S
H2696 C2704 0.950 . S
H2697 C2709 0.950 . S
H2698 C2706 0.950 . S
H2699 C2708 0.950 . S
H2700 C2710 0.950 1_455 S
H2701 C2712 0.950 . S
H2702 C2714 0.950 . S
H2703 C2715 0.950 . S
C2704 H2696 0.950 . S
C2704 C2705 1.386 . S
C2704 C2706 1.391 . S
C2705 C2704 1.386 . S
C2705 C2709 1.393 . S
C2706 H2698 0.950 . S
C2706 C2704 1.391 . S
C2706 C2707 1.400 . S
C2707 C2706 1.400 . S
C2707 C2708 1.398 . S
C2707 C2713 1.491 . S
C2708 H2699 0.950 . S
C2708 C2707 1.398 . S
C2708 C2709 1.391 . S
C2709 H2697 0.950 . S
C2709 C2705 1.393 . S
C2709 C2708 1.391 . S
C2710 H2700 0.950 1_655 S
C2710 C2711 1.386 . S
C2710 C2712 1.391 . S
C2711 C2710 1.386 . S
C2711 C2715 1.393 . S
C2712 H2701 0.950 . S
C2712 C2710 1.391 . S
C2712 C2713 1.400 . S
C2713 C2707 1.491 . S
C2713 C2712 1.400 . S
C2713 C2714 1.398 . S
C2714 H2702 0.950 . S
C2714 C2713 1.398 . S
C2714 C2715 1.391 . S
C2715 H2703 0.950 . S
C2715 C2711 1.393 . S
C2715 C2714 1.391 . S
H2716 C2724 0.950 . S
H2717 C2729 0.950 . S
H2718 C2726 0.950 . S
H2719 C2728 0.950 . S
H2720 C2730 0.950 . S
H2721 C2732 0.950 . S
H2722 C2734 0.950 . S
H2723 C2735 0.950 . S
C2724 H2716 0.950 . S
C2724 C2725 1.386 . S
C2724 C2726 1.391 . S
C2725 C2724 1.386 . S
C2725 C2729 1.393 . S
C2726 H2718 0.950 . S
C2726 C2724 1.391 . S
C2726 C2727 1.400 . S
C2727 C2726 1.400 . S
C2727 C2728 1.398 . S
C2727 C2733 1.491 . S
C2728 H2719 0.950 . S
C2728 C2727 1.398 . S
C2728 C2729 1.391 . S
C2729 H2717 0.950 . S
C2729 C2725 1.393 . S
C2729 C2728 1.391 . S
C2730 H2720 0.950 . S
C2730 C2731 1.386 . S
C2730 C2732 1.391 . S
C2731 C2730 1.386 . S
C2731 C2735 1.393 . S
C2732 H2721 0.950 . S
C2732 C2730 1.391 . S
C2732 C2733 1.400 . S
C2733 C2727 1.491 . S
C2733 C2732 1.400 . S
C2733 C2734 1.398 . S
C2734 H2722 0.950 . S
C2734 C2733 1.398 . S
C2734 C2735 1.391 . S
C2735 H2723 0.950 . S
C2735 C2731 1.393 . S
C2735 C2734 1.391 . S
H2736 C2744 0.950 . S
H2737 C2749 0.950 . S
H2738 C2746 0.950 . S
H2739 C2748 0.950 . S
H2740 C2750 0.950 . S
H2741 C2752 0.950 . S
H2742 C2754 0.950 . S
H2743 C2755 0.950 . S
C2744 H2736 0.950 . S
C2744 C2745 1.386 . S
C2744 C2746 1.391 . S
C2745 C2744 1.386 . S
C2745 C2749 1.393 . S
C2746 H2738 0.950 . S
C2746 C2744 1.391 . S
C2746 C2747 1.400 . S
C2747 C2746 1.400 . S
C2747 C2748 1.398 . S
C2747 C2753 1.491 . S
C2748 H2739 0.950 . S
C2748 C2747 1.398 . S
C2748 C2749 1.391 . S
C2749 H2737 0.950 . S
C2749 C2745 1.393 . S
C2749 C2748 1.391 . S
C2750 H2740 0.950 . S
C2750 C2751 1.386 . S
C2750 C2752 1.391 . S
C2751 C2750 1.386 . S
C2751 C2755 1.393 . S
C2752 H2741 0.950 . S
C2752 C2750 1.391 . S
C2752 C2753 1.400 . S
C2753 C2747 1.491 . S
C2753 C2752 1.400 . S
C2753 C2754 1.398 . S
C2754 H2742 0.950 . S
C2754 C2753 1.398 . S
C2754 C2755 1.391 . S
C2755 H2743 0.950 . S
C2755 C2751 1.393 . S
C2755 C2754 1.391 . S
H2756 C2764 0.950 . S
H2757 C2769 0.950 . S
H2758 C2766 0.950 . S
H2759 C2768 0.950 . S
H2760 C2770 0.950 . S
H2761 C2772 0.950 . S
H2762 C2774 0.950 . S
H2763 C2775 0.950 1_545 S
C2764 H2756 0.950 . S
C2764 C2765 1.386 . S
C2764 C2766 1.391 . S
C2765 C2764 1.386 . S
C2765 C2769 1.393 . S
C2766 H2758 0.950 . S
C2766 C2764 1.391 . S
C2766 C2767 1.400 . S
C2767 C2766 1.400 . S
C2767 C2768 1.398 . S
C2767 C2773 1.491 . S
C2768 H2759 0.950 . S
C2768 C2767 1.398 . S
C2768 C2769 1.391 . S
C2769 H2757 0.950 . S
C2769 C2765 1.393 . S
C2769 C2768 1.391 . S
C2770 H2760 0.950 . S
C2770 C2771 1.386 . S
C2770 C2772 1.391 . S
C2771 C2770 1.386 . S
C2771 C2775 1.393 . S
C2772 H2761 0.950 . S
C2772 C2770 1.391 . S
C2772 C2773 1.400 . S
C2773 C2767 1.491 . S
C2773 C2772 1.400 . S
C2773 C2774 1.398 . S
C2774 H2762 0.950 . S
C2774 C2773 1.398 . S
C2774 C2775 1.391 . S
C2775 H2763 0.950 1_565 S
C2775 C2771 1.393 . S
C2775 C2774 1.391 . S
H2776 C2784 0.950 . S
H2777 C2789 0.950 . S
H2778 C2786 0.950 . S
H2779 C2788 0.950 . S
H2780 C2790 0.950 . S
H2781 C2792 0.950 . S
H2782 C2794 0.950 . S
H2783 C2795 0.950 . S
C2784 H2776 0.950 . S
C2784 C2785 1.386 . S
C2784 C2786 1.391 . S
C2785 C2784 1.386 . S
C2785 C2789 1.393 . S
C2786 H2778 0.950 . S
C2786 C2784 1.391 . S
C2786 C2787 1.400 . S
C2787 C2786 1.400 . S
C2787 C2788 1.398 . S
C2787 C2793 1.491 . S
C2788 H2779 0.950 . S
C2788 C2787 1.398 . S
C2788 C2789 1.391 . S
C2789 H2777 0.950 . S
C2789 C2785 1.393 . S
C2789 C2788 1.391 . S
C2790 H2780 0.950 . S
C2790 C2791 1.386 . S
C2790 C2792 1.391 . S
C2791 C2790 1.386 . S
C2791 C2795 1.393 . S
C2792 H2781 0.950 . S
C2792 C2790 1.391 . S
C2792 C2793 1.400 . S
C2793 C2787 1.491 . S
C2793 C2792 1.400 . S
C2793 C2794 1.398 . S
C2794 H2782 0.950 . S
C2794 C2793 1.398 . S
C2794 C2795 1.391 . S
C2795 H2783 0.950 . S
C2795 C2791 1.393 . S
C2795 C2794 1.391 . S
H2796 C2804 0.950 1_556 S
H2797 C2809 0.950 . S
H2798 C2806 0.919 1_556 S
H2799 C2808 0.950 . S
H2800 C2810 0.950 . S
H2801 C2812 0.950 . S
H2802 C2814 0.950 . S
H2803 C2815 0.950 . S
C2804 H2796 0.950 1_554 S
C2804 C2805 1.386 . S
C2804 C2806 1.391 . S
C2805 C2804 1.386 . S
C2805 C2809 1.393 . S
C2806 H2798 0.919 1_554 S
C2806 C2804 1.391 . S
C2806 C2807 1.400 . S
C2807 C2806 1.400 . S
C2807 C2808 1.398 . S
C2807 C2813 1.491 . S
C2808 H2799 0.950 . S
C2808 C2807 1.398 . S
C2808 C2809 1.391 . S
C2809 H2797 0.950 . S
C2809 C2805 1.393 . S
C2809 C2808 1.391 . S
C2810 H2800 0.950 . S
C2810 C2811 1.386 . S
C2810 C2812 1.391 . S
C2811 C2810 1.386 . S
C2811 C2815 1.393 . S
C2812 H2801 0.950 . S
C2812 C2810 1.391 . S
C2812 C2813 1.400 . S
C2813 C2807 1.491 . S
C2813 C2812 1.400 . S
C2813 C2814 1.398 . S
C2814 H2802 0.950 . S
C2814 C2813 1.398 . S
C2814 C2815 1.391 . S
C2815 H2803 0.950 . S
C2815 C2811 1.393 . S
C2815 C2814 1.391 . S
H2816 C2824 0.950 . S
H2817 C2829 0.950 . S
H2818 C2826 0.950 . S
H2819 C2828 0.950 . S
H2820 C2830 0.950 . S
H2821 C2832 0.950 . S
H2822 C2834 0.950 . S
H2823 C2835 0.950 . S
C2824 H2816 0.950 . S
C2824 C2825 1.386 . S
C2824 C2826 1.391 . S
C2825 C2824 1.386 . S
C2825 C2829 1.393 . S
C2826 H2818 0.950 . S
C2826 C2824 1.391 . S
C2826 C2827 1.400 . S
C2827 C2826 1.400 . S
C2827 C2828 1.398 . S
C2827 C2833 1.491 . S
C2828 H2819 0.950 . S
C2828 C2827 1.398 . S
C2828 C2829 1.391 . S
C2829 H2817 0.950 . S
C2829 C2825 1.393 . S
C2829 C2828 1.391 . S
C2830 H2820 0.950 . S
C2830 C2831 1.386 . S
C2830 C2832 1.391 . S
C2831 C2830 1.386 . S
C2831 C2835 1.393 . S
C2832 H2821 0.950 . S
C2832 C2830 1.391 . S
C2832 C2833 1.400 . S
C2833 C2827 1.491 . S
C2833 C2832 1.400 . S
C2833 C2834 1.398 . S
C2834 H2822 0.950 . S
C2834 C2833 1.398 . S
C2834 C2835 1.391 . S
C2835 H2823 0.950 . S
C2835 C2831 1.393 . S
C2835 C2834 1.391 . S
H2836 C2844 0.950 . S
H2837 C2849 0.950 . S
H2838 C2846 0.950 1_556 S
H2839 C2848 0.950 . S
H2840 C2850 0.950 . S
H2841 C2852 0.950 . S
H2842 C2854 0.950 1_556 S
H2843 C2855 0.950 . S
C2844 H2836 0.950 . S
C2844 C2845 1.386 . S
C2844 C2846 1.391 . S
C2845 C2844 1.386 . S
C2845 C2849 1.393 . S
C2846 H2838 0.950 1_554 S
C2846 C2844 1.391 . S
C2846 C2847 1.400 . S
C2847 C2846 1.400 . S
C2847 C2848 1.398 . S
C2847 C2853 1.491 . S
C2848 H2839 0.950 . S
C2848 C2847 1.398 . S
C2848 C2849 1.391 . S
C2849 H2837 0.950 . S
C2849 C2845 1.393 . S
C2849 C2848 1.391 . S
C2850 H2840 0.950 . S
C2850 C2851 1.386 . S
C2850 C2852 1.391 . S
C2851 C2850 1.386 . S
C2851 C2855 1.393 1_554 S
C2852 H2841 0.950 . S
C2852 C2850 1.391 . S
C2852 C2853 1.400 . S
C2853 C2847 1.491 . S
C2853 C2852 1.400 . S
C2853 C2854 1.398 . S
C2854 H2842 0.950 1_554 S
C2854 C2853 1.398 . S
C2854 C2855 1.391 1_554 S
C2855 H2843 0.950 . S
C2855 C2851 1.393 1_556 S
C2855 C2854 1.391 1_556 S
H2856 C2864 0.950 . S
H2857 C2869 0.950 . S
H2858 C2866 0.950 . S
H2859 C2868 0.950 . S
H2860 C2870 0.950 . S
H2861 C2872 0.950 . S
H2862 C2874 0.950 . S
H2863 C2875 0.950 . S
C2864 H2856 0.950 . S
C2864 C2865 1.386 . S
C2864 C2866 1.391 . S
C2865 C2864 1.386 . S
C2865 C2869 1.393 . S
C2866 H2858 0.950 . S
C2866 C2864 1.391 . S
C2866 C2867 1.400 . S
C2867 C2866 1.400 . S
C2867 C2868 1.398 . S
C2867 C2873 1.491 . S
C2868 H2859 0.950 . S
C2868 C2867 1.398 . S
C2868 C2869 1.391 . S
C2869 H2857 0.950 . S
C2869 C2865 1.393 . S
C2869 C2868 1.391 . S
C2870 H2860 0.950 . S
C2870 C2871 1.386 . S
C2870 C2872 1.391 . S
C2871 C2870 1.386 . S
C2871 C2875 1.393 . S
C2872 H2861 0.950 . S
C2872 C2870 1.391 . S
C2872 C2873 1.400 . S
C2873 C2867 1.491 . S
C2873 C2872 1.400 . S
C2873 C2874 1.398 . S
C2874 H2862 0.950 . S
C2874 C2873 1.398 . S
C2874 C2875 1.391 . S
C2875 H2863 0.950 . S
C2875 C2871 1.393 . S
C2875 C2874 1.391 . S
H2876 C2884 0.950 . S
H2877 C2889 0.950 . S
H2878 C2886 0.950 . S
H2879 C2888 0.950 . S
H2880 C2890 0.950 . S
H2881 C2892 0.950 . S
H2882 C2894 0.950 . S
H2883 C2895 0.950 . S
C2884 H2876 0.950 . S
C2884 C2885 1.386 . S
C2884 C2886 1.391 . S
C2885 C2884 1.386 . S
C2885 C2889 1.393 . S
C2886 H2878 0.950 . S
C2886 C2884 1.391 . S
C2886 C2887 1.400 . S
C2887 C2886 1.400 . S
C2887 C2888 1.398 . S
C2887 C2893 1.491 . S
C2888 H2879 0.950 . S
C2888 C2887 1.398 . S
C2888 C2889 1.391 . S
C2889 H2877 0.950 . S
C2889 C2885 1.393 . S
C2889 C2888 1.391 . S
C2890 H2880 0.950 . S
C2890 C2891 1.386 . S
C2890 C2892 1.391 . S
C2891 C2890 1.386 . S
C2891 C2895 1.393 . S
C2892 H2881 0.950 . S
C2892 C2890 1.391 . S
C2892 C2893 1.400 . S
C2893 C2887 1.491 . S
C2893 C2892 1.400 . S
C2893 C2894 1.398 . S
C2894 H2882 0.950 . S
C2894 C2893 1.398 . S
C2894 C2895 1.391 . S
C2895 H2883 0.950 . S
C2895 C2891 1.393 . S
C2895 C2894 1.391 . S
C985 C106 1.398 . S
C991 C344 1.415 . S
C1005 C65 1.414 . S
C1011 C378 1.415 . S
C1025 C79 1.106 . S
C1031 C447 1.066 . S
C1051 C485 0.717 . S
C1045 C90 0.688 . S
C1065 C21 1.227 . S
C1071 C525 1.234 . S
C1091 C544 0.425 . S
C1085 C35 0.487 . S
C1111 C578 1.239 . S
C1105 C50 1.247 . S
C1125 C6 1.712 . S
C1131 C647 1.789 . S
C1151 C353 2.725 . S
C1145 C232 2.749 . S
C1165 C245 1.041 . S
C1171 C405 1.072 . S
C1191 C418 1.456 . S
C1185 C274 1.453 . S
C1211 C487 1.381 . S
C1205 C175 1.373 . S
C1225 C231 1.690 . S
C1231 C527 1.741 . S
C1251 C553 1.831 . S
C1245 C246 1.877 . S
C1271 C605 0.266 . S
C1265 C273 0.278 . S
C1291 C618 2.398 . S
C1285 C176 2.377 . S
C1311 C348 2.410 . S
C1305 C160 2.396 . S
C1325 C289 2.001 . S
C1331 C658 2.002 . S
C1351 C708 2.768 . S
C1345 C328 2.717 . S
C1371 C767 1.721 1_655 S
C1365 C317 1.706 . S
C1385 C118 1.507 . S
C1391 C645 1.557 . S
C1405 C132 1.437 . S
C1411 C445 1.481 . S
C1425 C331 2.516 . S
C1431 C778 2.500 . S
C1451 C847 1.126 . S
C1445 C303 1.141 . S
C1471 C365 1.035 . S
C1465 C63 1.005 . S
C1491 C833 1.766 . S
C1485 C107 1.750 . S
C1505 C92 0.787 . S
C1511 C428 0.798 . S
C1525 C78 1.202 . S
C1531 C784 1.232 . S
C1551 C504 1.599 . S
C1545 C8 1.624 . S
C1565 C51 0.523 . S
C1571 C725 0.532 . S
C1591 C593 1.750 1_556 S
C1585 C37 1.677 . S
C1611 C868 1.651 . S
C1605 C20 1.625 . S
C1631 C338 2.417 . S
C1625 C147 2.405 . S
C1651 C824 1.192 . S
C1645 C316 1.217 . S
C1665 C119 1.310 . S
C1671 C433 1.367 . S
C1685 C288 1.491 . S
C1691 C788 1.519 . S
C1705 C148 2.103 . S
C1711 C508 2.105 . S
C1731 C698 1.843 . S
C1725 C315 1.796 . S
C1745 C120 0.480 . S
C1751 C584 0.427 1_565 S
C1765 C287 2.216 . S
C1771 C873 2.219 . S
C1785 C188 2.376 . S
C1791 C367 2.356 1_655 S
C1805 C177 2.290 . S
C1811 C673 2.320 . S
C1825 C258 2.860 . S
C1831 C567 2.909 . S
C1845 C247 1.737 . S
C1851 C748 1.772 . S
C1871 C864 1.349 . S
C1865 C272 1.353 1_565 S
C1885 C216 1.276 . S
C1891 C424 1.285 . S
C1911 C473 2.805 . S
C1905 C261 2.802 . S
C1931 C388 1.091 . S
C1925 C205 1.099 . S
C1945 C76 1.065 . S
C1951 C904 1.108 . S
C1971 C818 1.513 . S
C1965 C93 1.511 . S
C1985 C105 0.749 . S
C1991 C967 0.748 . S
C2005 C62 0.700 . S
C2011 C805 0.723 . S
C2025 C49 1.193 . S
C2031 C685 1.217 . S
C2051 C704 0.730 . S
C2045 C9 0.751 . S
C2071 C738 1.185 . S
C2065 C22 1.186 . S
C2091 C887 2.147 . S
C2085 C36 2.155 . S
C2111 C913 2.644 . S
C2105 C260 2.664 . S
C2125 C189 0.887 . S
C2131 C845 0.906 . S
C2151 C938 1.336 . S
C2145 C204 1.334 . S
C2171 C807 1.218 . S
C2165 C217 1.206 . S
C2191 C687 2.004 . S
C2185 C259 1.922 . S
C2205 C190 1.970 . S
C2211 C713 1.929 . S
C2231 C765 0.317 . S
C2225 C203 0.400 . S
C2245 C218 2.480 . S
C2251 C858 2.501 . S
C2271 C908 2.331 . S
C2265 C314 2.318 . S
C2285 C135 2.074 . S
C2291 C498 2.076 . S
C2311 C548 2.657 . S
C2305 C146 2.594 . S
C2331 C607 1.764 . S
C2325 C163 1.740 . S
C2351 C885 1.570 . S
C2345 C300 1.523 . S
C2365 C286 1.390 . S
C2371 C965 1.466 . S
C2391 C458 2.424 . S
C2385 C149 2.436 . S
C2411 C407 1.088 . S
C2405 C121 1.101 . S
C2425 C91 0.977 . S
C2431 C925 1.008 . S
C2451 C393 1.366 . S
C2445 C77 1.287 . S
C2465 C64 0.738 . S
C2471 C948 0.721 . S
C2485 C104 0.873 . S
C2491 C464 0.874 . S
C2505 C34 1.296 . S
C2511 C664 1.286 . S
C2531 C565 0.486 . S
C2525 C23 0.500 . S
C2545 C7 1.243 . S
C2551 C753 1.345 . S
C2565 C48 1.559 . S
C2571 C628 1.601 . S
C2591 C898 2.389 . S
C2585 C329 2.376 . S
C2605 C162 1.163 . S
C2611 C384 1.128 . S
C2631 C953 1.399 . S
C2625 C301 1.335 . S
C2645 C134 1.490 . S
C2651 C468 1.537 . S
C2665 C330 2.054 . S
C2671 C668 2.063 . S
C2691 C538 1.844 . S
C2685 C161 1.795 . S
C2705 C302 0.480 . S
C2711 C744 0.489 . S
C2731 C633 2.189 . S
C2725 C133 2.182 . S
C2751 C927 2.610 . S
C2745 C244 2.613 . S
C2771 C513 2.278 1_665 S
C2765 C219 2.241 . S
C2785 C230 2.533 . S
C2791 C727 2.577 . S
C2811 C588 1.760 . S
C2805 C191 1.731 . S
C2825 C202 1.469 . S
C2831 C624 1.481 . S
C2845 C174 1.445 . S
C2851 C944 1.465 . S
C2871 C793 2.794 . S
C2865 C233 2.781 1_565 S
C2891 C828 1.092 . S
C2885 C275 1.097 . S
