# Generated by pormake.
# Topology eea, (3,6)-cn, num edge types: 1
# Building blocks:
#     Node 0, Type 0, BuildingBlock: WUSLED_clean_sbu_0, # of connection points: 3
#     Node 1, Type 0, BuildingBlock: WUSLED_clean_sbu_0, # of connection points: 3
#     Node 2, Type 0, BuildingBlock: WUSLED_clean_sbu_0, # of connection points: 3
#     Node 3, Type 0, BuildingBlock: WUSLED_clean_sbu_0, # of connection points: 3
#     Node 4, Type 0, BuildingBlock: WUSLED_clean_sbu_0, # of connection points: 3
#     Node 5, Type 0, BuildingBlock: WUSLED_clean_sbu_0, # of connection points: 3
#     Node 6, Type 0, BuildingBlock: WUSLED_clean_sbu_0, # of connection points: 3
#     Node 7, Type 0, BuildingBlock: WUSLED_clean_sbu_0, # of connection points: 3
#     Node 8, Type 0, BuildingBlock: WUSLED_clean_sbu_0, # of connection points: 3
#     Node 9, Type 0, BuildingBlock: WUSLED_clean_sbu_0, # of connection points: 3
#     Node 10, Type 0, BuildingBlock: WUSLED_clean_sbu_0, # of connection points: 3
#     Node 11, Type 0, BuildingBlock: WUSLED_clean_sbu_0, # of connection points: 3
#     Node 12, Type 0, BuildingBlock: WUSLED_clean_sbu_0, # of connection points: 3
#     Node 13, Type 0, BuildingBlock: WUSLED_clean_sbu_0, # of connection points: 3
#     Node 14, Type 0, BuildingBlock: WUSLED_clean_sbu_0, # of connection points: 3
#     Node 15, Type 0, BuildingBlock: WUSLED_clean_sbu_0, # of connection points: 3
#     Node 16, Type 0, BuildingBlock: WUSLED_clean_sbu_0, # of connection points: 3
#     Node 17, Type 0, BuildingBlock: WUSLED_clean_sbu_0, # of connection points: 3
#     Node 18, Type 1, BuildingBlock: CUWYAW_clean_sbu_0, # of connection points: 6
#     Node 19, Type 1, BuildingBlock: CUWYAW_clean_sbu_0, # of connection points: 6
#     Node 20, Type 1, BuildingBlock: CUWYAW_clean_sbu_0, # of connection points: 6
#     Node 21, Type 1, BuildingBlock: CUWYAW_clean_sbu_0, # of connection points: 6
#     Node 22, Type 1, BuildingBlock: CUWYAW_clean_sbu_0, # of connection points: 6
#     Node 23, Type 1, BuildingBlock: CUWYAW_clean_sbu_0, # of connection points: 6
#     Node 24, Type 1, BuildingBlock: CUWYAW_clean_sbu_0, # of connection points: 6
#     Node 25, Type 1, BuildingBlock: CUWYAW_clean_sbu_0, # of connection points: 6
#     Node 26, Type 1, BuildingBlock: CUWYAW_clean_sbu_0, # of connection points: 6
#     Edge 27, Type (0, 1), BuildingBlock: OJICUG_clean_linker_0, # of connection points: 2
#     Edge 28, Type (0, 1), BuildingBlock: OJICUG_clean_linker_0, # of connection points: 2
#     Edge 29, Type (0, 1), BuildingBlock: OJICUG_clean_linker_0, # of connection points: 2
#     Edge 30, Type (0, 1), BuildingBlock: OJICUG_clean_linker_0, # of connection points: 2
#     Edge 31, Type (0, 1), BuildingBlock: OJICUG_clean_linker_0, # of connection points: 2
#     Edge 32, Type (0, 1), BuildingBlock: OJICUG_clean_linker_0, # of connection points: 2
#     Edge 33, Type (0, 1), BuildingBlock: OJICUG_clean_linker_0, # of connection points: 2
#     Edge 34, Type (0, 1), BuildingBlock: OJICUG_clean_linker_0, # of connection points: 2
#     Edge 35, Type (0, 1), BuildingBlock: OJICUG_clean_linker_0, # of connection points: 2
#     Edge 36, Type (0, 1), BuildingBlock: OJICUG_clean_linker_0, # of connection points: 2
#     Edge 37, Type (0, 1), BuildingBlock: OJICUG_clean_linker_0, # of connection points: 2
#     Edge 38, Type (0, 1), BuildingBlock: OJICUG_clean_linker_0, # of connection points: 2
#     Edge 39, Type (0, 1), BuildingBlock: OJICUG_clean_linker_0, # of connection points: 2
#     Edge 40, Type (0, 1), BuildingBlock: OJICUG_clean_linker_0, # of connection points: 2
#     Edge 41, Type (0, 1), BuildingBlock: OJICUG_clean_linker_0, # of connection points: 2
#     Edge 42, Type (0, 1), BuildingBlock: OJICUG_clean_linker_0, # of connection points: 2
#     Edge 43, Type (0, 1), BuildingBlock: OJICUG_clean_linker_0, # of connection points: 2
#     Edge 44, Type (0, 1), BuildingBlock: OJICUG_clean_linker_0, # of connection points: 2
#     Edge 45, Type (0, 1), BuildingBlock: OJICUG_clean_linker_0, # of connection points: 2
#     Edge 46, Type (0, 1), BuildingBlock: OJICUG_clean_linker_0, # of connection points: 2
#     Edge 47, Type (0, 1), BuildingBlock: OJICUG_clean_linker_0, # of connection points: 2
#     Edge 48, Type (0, 1), BuildingBlock: OJICUG_clean_linker_0, # of connection points: 2
#     Edge 49, Type (0, 1), BuildingBlock: OJICUG_clean_linker_0, # of connection points: 2
#     Edge 50, Type (0, 1), BuildingBlock: OJICUG_clean_linker_0, # of connection points: 2
#     Edge 51, Type (0, 1), BuildingBlock: OJICUG_clean_linker_0, # of connection points: 2
#     Edge 52, Type (0, 1), BuildingBlock: OJICUG_clean_linker_0, # of connection points: 2
#     Edge 53, Type (0, 1), BuildingBlock: OJICUG_clean_linker_0, # of connection points: 2
#     Edge 54, Type (0, 1), BuildingBlock: OJICUG_clean_linker_0, # of connection points: 2
#     Edge 55, Type (0, 1), BuildingBlock: OJICUG_clean_linker_0, # of connection points: 2
#     Edge 56, Type (0, 1), BuildingBlock: OJICUG_clean_linker_0, # of connection points: 2
#     Edge 57, Type (0, 1), BuildingBlock: OJICUG_clean_linker_0, # of connection points: 2
#     Edge 58, Type (0, 1), BuildingBlock: OJICUG_clean_linker_0, # of connection points: 2
#     Edge 59, Type (0, 1), BuildingBlock: OJICUG_clean_linker_0, # of connection points: 2
#     Edge 60, Type (0, 1), BuildingBlock: OJICUG_clean_linker_0, # of connection points: 2
#     Edge 61, Type (0, 1), BuildingBlock: OJICUG_clean_linker_0, # of connection points: 2
#     Edge 62, Type (0, 1), BuildingBlock: OJICUG_clean_linker_0, # of connection points: 2
#     Edge 63, Type (0, 1), BuildingBlock: OJICUG_clean_linker_0, # of connection points: 2
#     Edge 64, Type (0, 1), BuildingBlock: OJICUG_clean_linker_0, # of connection points: 2
#     Edge 65, Type (0, 1), BuildingBlock: OJICUG_clean_linker_0, # of connection points: 2
#     Edge 66, Type (0, 1), BuildingBlock: OJICUG_clean_linker_0, # of connection points: 2
#     Edge 67, Type (0, 1), BuildingBlock: OJICUG_clean_linker_0, # of connection points: 2
#     Edge 68, Type (0, 1), BuildingBlock: OJICUG_clean_linker_0, # of connection points: 2
#     Edge 69, Type (0, 1), BuildingBlock: OJICUG_clean_linker_0, # of connection points: 2
#     Edge 70, Type (0, 1), BuildingBlock: OJICUG_clean_linker_0, # of connection points: 2
#     Edge 71, Type (0, 1), BuildingBlock: OJICUG_clean_linker_0, # of connection points: 2
#     Edge 72, Type (0, 1), BuildingBlock: OJICUG_clean_linker_0, # of connection points: 2
#     Edge 73, Type (0, 1), BuildingBlock: OJICUG_clean_linker_0, # of connection points: 2
#     Edge 74, Type (0, 1), BuildingBlock: OJICUG_clean_linker_0, # of connection points: 2
#     Edge 75, Type (0, 1), BuildingBlock: OJICUG_clean_linker_0, # of connection points: 2
#     Edge 76, Type (0, 1), BuildingBlock: OJICUG_clean_linker_0, # of connection points: 2
#     Edge 77, Type (0, 1), BuildingBlock: OJICUG_clean_linker_0, # of connection points: 2
#     Edge 78, Type (0, 1), BuildingBlock: OJICUG_clean_linker_0, # of connection points: 2
#     Edge 79, Type (0, 1), BuildingBlock: OJICUG_clean_linker_0, # of connection points: 2
#     Edge 80, Type (0, 1), BuildingBlock: OJICUG_clean_linker_0, # of connection points: 2
# Relax obj value: 0.035
# Max RMSD: 0.128
# Mean RMSD: 0.085
data_MOF--net-eea--node1-WUSLED_clean_sbu_0--node2-CUWYAW_clean_sbu_0--edge1-OJICUG_clean_linker_0
_symmetry_space_group_name_H-M    P1
_symmetry_Int_Tables_number       1
_symmetry_cell_setting            triclinic
loop_
_symmetry_equiv_pos_as_xyz
'x, y, z'
_cell_length_a     52.581067
_cell_length_b     51.916171
_cell_length_c     76.744219
_cell_angle_alpha  92.781422
_cell_angle_beta   92.748993
_cell_angle_gamma 119.88972
loop_
_atom_site_label
_atom_site_type_symbol
_atom_site_fract_x
_atom_site_fract_y
_atom_site_fract_z
_atom_type_partial_charge
C0 C 0.21896 0.17273 0.39561 0.0
C1 C 0.22787 0.19934 0.40596 0.0
C2 C 0.20826 0.21688 0.38281 0.0
C3 C 0.22265 0.22133 0.39958 0.0
C4 C 0.19984 0.19029 0.37248 0.0
C5 C 0.20513 0.16848 0.37883 0.0
U6 U 0.24083 0.13592 0.43129 0.0
O7 O 0.2189 0.08882 0.43693 0.0
O8 O 0.264 0.11052 0.42898 0.0
C9 C 0.2408 0.08533 0.43223 0.0
C10 C 0.22324 0.14876 0.40201 0.0
C11 C 0.2329 0.05856 0.42027 0.0
C12 C 0.19757 1.00736 0.40922 0.0
C13 C 0.20466 0.03322 0.4197 0.0
C14 C 0.24688 0.03132 0.39975 0.0
C15 C 0.21858 1.00604 0.39912 0.0
C16 C 0.25397 0.05723 0.41023 0.0
C17 C 0.26811 0.17246 0.47777 0.0
C18 C 0.27569 0.14652 0.50122 0.0
C19 C 0.29102 0.19888 0.50619 0.0
C20 C 0.28083 0.19867 0.48897 0.0
C21 C 0.28859 0.17282 0.51252 0.0
C22 C 0.26561 0.14637 0.48397 0.0
C23 C 0.25769 0.17267 0.45967 0.0
O24 O 0.25061 0.1556 0.40597 0.0
O25 O 0.20518 0.13279 0.41346 0.0
O26 O 0.23004 0.15271 0.45501 0.0
O27 O 0.27556 0.17473 0.44772 0.0
H28 H 0.23855 0.20296 0.41899 0.0
H29 H 0.22925 0.24147 0.40789 0.0
H30 H 0.18919 0.18632 0.35942 0.0
H31 H 0.19821 0.14813 0.37063 0.0
H32 H 0.17573 0.98816 0.40931 0.0
H33 H 0.18805 0.03318 0.42754 0.0
H34 H 0.26353 0.03117 0.39204 0.0
H35 H 0.27608 0.07614 0.41054 0.0
H36 H 0.27383 0.12618 0.5056 0.0
H37 H 0.30055 0.21941 0.5146 0.0
H38 H 0.28289 0.21899 0.4844 0.0
H39 H 0.25597 0.12594 0.47545 0.0
C40 C 0.96741 0.18158 0.40662 0.0
C41 C 0.99537 0.18829 0.4138 0.0
C42 C 1.01926 0.22834 0.3945 0.0
C43 C 0.02094 0.21136 0.40781 0.0
C44 C 0.99125 0.22196 0.38761 0.0
C45 C 0.96568 0.19881 0.39355 0.0
U46 U 0.90897 0.13673 0.43869 0.0
O47 O 0.88661 0.08871 0.4421 0.0
O48 O 0.86083 0.10912 0.43353 0.0
C49 C 0.86071 0.08421 0.43617 0.0
C50 C 0.94006 0.15541 0.41147 0.0
C51 C 0.84336 0.0585 0.42294 0.0
C52 C 0.83032 1.00884 0.41065 0.0
C53 C 0.84791 0.03398 0.42225 0.0
C54 C 0.80299 0.03195 0.40017 0.0
C55 C 0.80755 1.00742 0.39951 0.0
C56 C 0.82062 0.05713 0.41177 0.0
C57 C 0.91503 0.16755 0.48596 0.0
C58 C 0.87915 0.13982 0.50651 0.0
C59 C 0.91974 0.18939 0.51552 0.0
C60 C 0.93007 0.19128 0.49889 0.0
C61 C 0.8941 0.16367 0.51955 0.0
C62 C 0.88953 0.14176 0.48987 0.0
C63 C 0.92607 0.17018 0.46848 0.0
O64 O 0.94305 0.13832 0.42252 0.0
O65 O 0.91788 0.15962 0.41434 0.0
O66 O 0.90977 0.17245 0.45579 0.0
O67 O 0.93549 0.1518 0.46403 0.0
H68 H 0.99759 0.17533 0.42378 0.0
H69 H 0.04205 0.21525 0.41328 0.0
H70 H 0.98901 0.23478 0.37755 0.0
H71 H 0.94447 0.19403 0.38768 0.0
H72 H 0.83415 0.99019 0.41071 0.0
H73 H 0.86479 0.03397 0.43091 0.0
H74 H 0.78583 0.03174 0.39167 0.0
H75 H 0.81618 0.0754 0.4121 0.0
H76 H 0.85955 0.11955 0.50919 0.0
H77 H 0.93157 0.20835 0.5251 0.0
H78 H 0.94974 0.21141 0.49608 0.0
H79 H 0.87765 0.12317 0.48003 0.0
C80 C 0.8678 0.80698 0.40306 0.0
C81 C 0.84576 0.80215 0.41426 0.0
C82 C 0.82008 0.81431 0.3917 0.0
C83 C 0.8221 0.80584 0.40864 0.0
C84 C 0.84251 0.81946 0.38067 0.0
C85 C 0.86609 0.8158 0.3863 0.0
U86 U 0.90964 0.78681 0.43671 0.0
O87 O 0.93077 0.75966 0.43289 0.0
O88 O 0.95723 0.80657 0.44313 0.0
C89 C 0.95728 0.78228 0.43748 0.0
C90 C 0.89242 0.80249 0.40847 0.0
C91 C 0.98025 0.78658 0.42576 0.0
C92 C 1.00729 0.80706 0.40029 0.0
C93 C 0.98394 0.80161 0.41052 0.0
C94 C 0.0228 0.78173 0.42017 0.0
C95 C 0.02733 0.79765 0.4052 0.0
C96 C 0.99955 0.77631 0.43033 0.0
C97 C 0.87928 0.76665 0.48227 0.0
C98 C 0.86703 0.7281 0.5025 0.0
C99 C 0.88446 0.77895 0.51379 0.0
C100 C 0.88688 0.78763 0.49669 0.0
C101 C 0.8741 0.74898 0.51693 0.0
C102 C 0.86954 0.7368 0.48539 0.0
C103 C 0.87894 0.77567 0.46422 0.0
O104 O 0.91152 0.82182 0.42083 0.0
O105 O 0.88523 0.77482 0.41077 0.0
O106 O 0.87305 0.75558 0.4512 0.0
O107 O 0.89976 0.80254 0.46125 0.0
H108 H 0.84675 0.79528 0.42727 0.0
H109 H 0.80512 0.80151 0.41741 0.0
H110 H 0.84197 0.82653 0.36768 0.0
H111 H 0.88298 0.81974 0.37752 0.0
H112 H 1.01024 0.81951 0.38891 0.0
H113 H 0.96918 0.80965 0.40676 0.0
H114 H 0.03747 0.77371 0.42417 0.0
H115 H 0.99694 0.76451 0.44198 0.0
H116 H 0.85856 0.70475 0.50436 0.0
H117 H 0.89048 0.79574 0.52456 0.0
H118 H 0.89415 0.81074 0.49473 0.0
H119 H 0.8631 0.71991 0.47463 0.0
C120 C 0.07054 0.23126 0.63438 0.0
C121 C 0.05143 0.23651 0.62371 0.0
C122 C 1.01756 0.22351 0.64675 0.0
C123 C 0.02509 0.23261 0.62984 0.0
C124 C 0.03682 0.21808 0.65725 0.0
C125 C 0.06299 0.22195 0.65112 0.0
U126 U 0.12865 0.25071 0.60077 0.0
O127 O 0.17698 0.27642 0.60555 0.0
O128 O 0.15493 0.22952 0.59517 0.0
C129 C 0.1799 0.25334 0.60106 0.0
C130 C 0.09856 0.23551 0.62856 0.0
C131 C 0.19956 0.24827 0.6129 0.0
C132 C 0.20889 0.22725 0.63847 0.0
C133 C 0.19008 0.2334 0.62815 0.0
C134 C 0.2469 0.25147 0.61863 0.0
C135 C 0.23735 0.23575 0.63362 0.0
C136 C 0.22819 0.25762 0.60839 0.0
C137 C 0.11927 0.2724 0.55513 0.0
C138 C 0.15528 0.2821 0.5339 0.0
C139 C 0.11383 0.28907 0.52685 0.0
C140 C 0.10369 0.28026 0.54328 0.0
C141 C 0.13981 0.29018 0.52194 0.0
C142 C 0.14512 0.27333 0.55035 0.0
C143 C 0.10846 0.26344 0.57244 0.0
O144 O 0.09655 0.21606 0.61615 0.0
O145 O 0.11863 0.26307 0.6263 0.0
O146 O 0.12358 0.28316 0.58571 0.0
O147 O 0.10153 0.23616 0.57565 0.0
H148 H 0.05695 0.24376 0.61073 0.0
H149 H 1.01089 0.23717 0.62145 0.0
H150 H 0.03152 0.21051 0.67019 0.0
H151 H 0.07741 0.21765 0.65951 0.0
H152 H 0.20083 0.21499 0.64989 0.0
H153 H 0.16801 0.22606 0.63185 0.0
H154 H 0.26883 0.2588 0.61468 0.0
H155 H 0.23594 0.26926 0.59673 0.0
H156 H 0.17514 0.2823 0.53052 0.0
H157 H 0.10157 0.29553 0.51812 0.0
H158 H 0.08374 0.27976 0.54677 0.0
H159 H 0.15743 0.26728 0.55933 0.0
C160 C 0.82088 0.86444 0.64185 0.0
C161 C 0.81166 0.83742 0.63186 0.0
C162 C 0.83099 0.82037 0.65546 0.0
C163 C 0.8166 0.81548 0.63864 0.0
C164 C 0.83984 0.84743 0.66539 0.0
C165 C 0.83485 0.86917 0.65864 0.0
U166 U 0.79971 0.90198 0.60598 0.0
O167 O 0.82136 0.94951 0.60132 0.0
O168 O 0.77582 0.92664 0.60853 0.0
C169 C 0.79883 0.95217 0.60563 0.0
C170 C 0.81644 0.8882 0.63523 0.0
C171 C 0.80587 0.97768 0.61816 0.0
C172 C 0.82801 1.0066 0.64611 0.0
C173 C 0.82085 0.98172 0.6346 0.0
C174 C 0.80491 0.02339 0.62498 0.0
C175 C 0.8202 0.02781 0.64142 0.0
C176 C 0.79786 0.99858 0.61348 0.0
C177 C 0.77398 0.86698 0.55892 0.0
C178 C 0.76618 0.89293 0.53553 0.0
C179 C 0.75192 0.8409 0.53029 0.0
C180 C 0.76191 0.84101 0.54754 0.0
C181 C 0.75388 0.86684 0.52406 0.0
C182 C 0.77605 0.89297 0.55282 0.0
C183 C 0.78409 0.86652 0.57708 0.0
O184 O 0.83488 0.90463 0.62407 0.0
O185 O 0.78909 0.88109 0.6309 0.0
O186 O 0.76575 0.86362 0.58889 0.0
O187 O 0.81153 0.88671 0.58208 0.0
H188 H 0.80084 0.83339 0.61883 0.0
H189 H 0.80966 0.79498 0.63062 0.0
H190 H 0.85049 0.85177 0.67849 0.0
H191 H 0.84199 0.88982 0.66658 0.0
H192 H 0.83946 1.0091 0.65874 0.0
H193 H 0.82712 0.96571 0.63847 0.0
H194 H 0.79889 0.03943 0.62084 0.0
H195 H 0.78636 0.99586 0.60083 0.0
H196 H 0.76768 0.91318 0.53123 0.0
H197 H 0.74291 0.82054 0.52177 0.0
H198 H 0.76017 0.82076 0.55201 0.0
H199 H 0.78519 0.91323 0.56146 0.0
C200 C 0.07042 0.85519 0.63681 0.0
C201 C 0.05126 0.83033 0.62529 0.0
C202 C 1.01823 0.80856 0.64844 0.0
C203 C 0.02536 0.80721 0.63105 0.0
C204 C 0.03773 0.83354 0.65987 0.0
C205 C 0.06351 0.85655 0.65411 0.0
U206 U 0.12741 0.89552 0.60329 0.0
O207 O 0.17568 0.9227 0.60786 0.0
O208 O 0.15025 0.94302 0.59849 0.0
C209 C 0.17616 0.9475 0.60439 0.0
C210 C 0.09749 0.88021 0.63116 0.0
C211 C 0.19433 0.97413 0.61688 0.0
C212 C 0.2073 0.02405 0.62863 0.0
C213 C 0.18893 0.99809 0.61779 0.0
C214 C 0.23711 1.0029 0.63787 0.0
C215 C 0.23169 0.02685 0.63877 0.0
C216 C 0.21872 0.97691 0.62702 0.0
C217 C 0.1207 0.86196 0.55689 0.0
C218 C 0.15706 0.88898 0.53644 0.0
C219 C 0.11638 0.83939 0.5276 0.0
C220 C 0.10575 0.83797 0.54411 0.0
C221 C 0.14224 0.86489 0.52355 0.0
C222 C 0.14638 0.88752 0.55295 0.0
C223 C 0.10945 0.86006 0.57428 0.0
O224 O 0.119 0.87492 0.62836 0.0
O225 O 0.09382 0.8957 0.61926 0.0
O226 O 0.10023 0.87881 0.57818 0.0
O227 O 0.12564 0.85827 0.58723 0.0
H228 H 0.05628 0.82887 0.61188 0.0
H229 H 1.01103 0.78821 0.62193 0.0
H230 H 0.0328 0.83567 0.67322 0.0
H231 H 0.07798 0.87563 0.66316 0.0
H232 H 0.20273 0.04222 0.62874 0.0
H233 H 0.17074 0.99705 0.60991 0.0
H234 H 0.25552 1.00415 0.64561 0.0
H235 H 0.22383 0.95911 0.62645 0.0
H236 H 0.17679 0.9091 0.53373 0.0
H237 H 0.10462 0.82027 0.51811 0.0
H238 H 0.08592 0.81802 0.54695 0.0
H239 H 0.15818 0.90633 0.56266 0.0
C240 C 0.88482 0.50623 0.72786 0.0
C241 C 0.89401 0.53299 0.73814 0.0
C242 C 0.87425 0.55047 0.71503 0.0
C243 C 0.88885 0.55501 0.73174 0.0
C244 C 0.8655 0.52372 0.70479 0.0
C245 C 0.87072 0.50187 0.71115 0.0
U246 U 0.90704 0.4696 0.76349 0.0
O247 O 0.88518 0.4226 0.7693 0.0
O248 O 0.93012 0.44411 0.76111 0.0
C249 C 0.90701 0.41902 0.76457 0.0
C250 C 0.88913 0.48228 0.73426 0.0
C251 C 0.89899 0.39199 0.75282 0.0
C252 C 0.86352 0.34065 0.74209 0.0
C253 C 0.87066 0.36681 0.75228 0.0
C254 C 0.91296 0.36399 0.73285 0.0
C255 C 0.88457 0.33887 0.73226 0.0
C256 C 0.92011 0.3902 0.74304 0.0
C257 C 0.93481 0.50632 0.80988 0.0
C258 C 0.94244 0.48032 0.83327 0.0
C259 C 0.95788 0.5327 0.83829 0.0
C260 C 0.94763 0.53252 0.82109 0.0
C261 C 0.95542 0.5066 0.84459 0.0
C262 C 0.9323 0.48021 0.81605 0.0
C263 C 0.92425 0.50653 0.79181 0.0
O264 O 0.91652 0.48907 0.73811 0.0
O265 O 0.87121 0.46641 0.7458 0.0
O266 O 0.89656 0.48663 0.78724 0.0
O267 O 0.94197 0.50847 0.77979 0.0
H268 H 0.90489 0.5367 0.75112 0.0
H269 H 0.8957 0.57526 0.74 0.0
H270 H 0.85468 0.51967 0.69176 0.0
H271 H 0.86358 0.48142 0.70301 0.0
H272 H 0.8416 0.32159 0.74221 0.0
H273 H 0.854 0.3671 0.75993 0.0
H274 H 0.92965 0.3635 0.72534 0.0
H275 H 0.94229 0.40898 0.74335 0.0
H276 H 0.94056 0.45995 0.83763 0.0
H277 H 0.96746 0.55322 0.84671 0.0
H278 H 0.9497 0.55287 0.81655 0.0
H279 H 0.92259 0.45978 0.80752 0.0
C280 C 0.63381 0.5171 0.73829 0.0
C281 C 0.66171 0.52368 0.74551 0.0
C282 C 0.68585 0.56363 0.72618 0.0
C283 C 0.68737 0.54663 0.73952 0.0
C284 C 0.6579 0.55737 0.71923 0.0
C285 C 0.63224 0.53433 0.72517 0.0
U286 U 0.57503 0.47328 0.77038 0.0
O287 O 0.52691 0.44543 0.76515 0.0
O288 O 0.55277 0.4255 0.77443 0.0
C289 C 0.52686 0.42071 0.76829 0.0
C290 C 0.60636 0.49108 0.7432 0.0
C291 C 0.50956 0.39449 0.75537 0.0
C292 C 0.49721 0.34479 0.74355 0.0
C293 C 0.51481 0.37043 0.7548 0.0
C294 C 0.46849 0.36649 0.73319 0.0
C295 C 0.47372 0.34241 0.73265 0.0
C296 C 0.48612 0.39217 0.74444 0.0
C297 C 0.58118 0.50592 0.81728 0.0
C298 C 0.54546 0.47938 0.83817 0.0
C299 C 0.58694 0.52862 0.84673 0.0
C300 C 0.59684 0.52984 0.83002 0.0
C301 C 0.56107 0.5034 0.85104 0.0
C302 C 0.55543 0.48063 0.82144 0.0
C303 C 0.59203 0.50775 0.79978 0.0
O304 O 0.60924 0.47433 0.75455 0.0
O305 O 0.58412 0.49534 0.74574 0.0
O306 O 0.57562 0.50945 0.78693 0.0
O307 O 0.60151 0.48928 0.79574 0.0
H308 H 0.66382 0.51072 0.75552 0.0
H309 H 0.70841 0.55041 0.74502 0.0
H310 H 0.65579 0.57019 0.70913 0.0
H311 H 0.61108 0.52965 0.71926 0.0
H312 H 0.5016 0.32651 0.74372 0.0
H313 H 0.53226 0.37113 0.76328 0.0
H314 H 0.45078 0.36556 0.72486 0.0
H315 H 0.48113 0.41006 0.7447 0.0
H316 H 0.52529 0.45976 0.84092 0.0
H317 H 0.59979 0.54734 0.85633 0.0
H318 H 0.61683 0.5495 0.82706 0.0
H319 H 0.54302 0.46194 0.81174 0.0
C320 C 0.53415 0.14012 0.73726 0.0
C321 C 0.51208 0.13521 0.74845 0.0
C322 C 0.48649 0.14757 0.72594 0.0
C323 C 0.48844 0.13896 0.74285 0.0
C324 C 0.50897 0.15282 0.71493 0.0
C325 C 0.53252 0.14909 0.72054 0.0
U326 U 0.57529 0.11918 0.77084 0.0
O327 O 0.59628 0.0919 0.76705 0.0
O328 O 0.62278 0.13866 0.77755 0.0
C329 C 0.62278 0.11438 0.77182 0.0
C330 C 0.55869 0.13547 0.74264 0.0
C331 C 0.64591 0.1188 0.76021 0.0
C332 C 0.67276 0.1389 0.73462 0.0
C333 C 0.64934 0.13338 0.7448 0.0
C334 C 0.68891 0.1146 0.7549 0.0
C335 C 0.69314 0.13003 0.73974 0.0
C336 C 0.66558 0.1091 0.76502 0.0
C337 C 0.54396 0.09851 0.81603 0.0
C338 C 0.54099 0.06245 0.83618 0.0
C339 C 0.53905 0.10597 0.84699 0.0
C340 C 0.54182 0.11548 0.83008 0.0
C341 C 0.53813 0.07909 0.8502 0.0
C342 C 0.54394 0.07207 0.81927 0.0
C343 C 0.54404 0.10783 0.7981 0.0
O344 O 0.57767 0.15457 0.75513 0.0
O345 O 0.55137 0.10773 0.74478 0.0
O346 O 0.53831 0.08788 0.78502 0.0
O347 O 0.56517 0.1347 0.79541 0.0
H348 H 0.513 0.12821 0.76142 0.0
H349 H 0.47143 0.13454 0.7516 0.0
H350 H 0.50847 0.15998 0.70196 0.0
H351 H 0.54943 0.15309 0.71176 0.0
H352 H 0.67548 0.15098 0.7231 0.0
H353 H 0.63429 0.14099 0.74087 0.0
H354 H 0.70385 0.10699 0.75907 0.0
H355 H 0.66318 0.09766 0.7768 0.0
H356 H 0.54072 0.04183 0.83825 0.0
H357 H 0.53658 0.11916 0.85743 0.0
H358 H 0.54156 0.13582 0.82791 0.0
H359 H 0.54564 0.05852 0.80872 0.0
C360 C 0.73857 0.56684 0.96643 0.0
C361 C 0.71957 0.57249 0.95593 0.0
C362 C 0.68575 0.55916 0.97899 0.0
C363 C 0.69332 0.56862 0.96215 0.0
C364 C 0.70489 0.55336 0.98933 0.0
C365 C 0.73099 0.55719 0.9831 0.0
U366 U 0.79612 0.58648 0.93253 0.0
O367 O 0.84449 0.61195 0.93702 0.0
O368 O 0.82212 0.56517 0.9264 0.0
C369 C 0.84721 0.58883 0.93228 0.0
C370 C 0.76647 0.57099 0.96047 0.0
C371 C 0.86679 0.58341 0.94396 0.0
C372 C 0.87626 0.56286 0.9697 0.0
C373 C 0.85756 0.56922 0.95944 0.0
C374 C 0.91366 0.58546 0.9493 0.0
C375 C 0.90437 0.57047 0.96457 0.0
C376 C 0.89505 0.59181 0.93912 0.0
C377 C 0.7858 0.60891 0.88723 0.0
C378 C 0.82022 0.61742 0.86511 0.0
C379 C 0.78033 0.62742 0.85963 0.0
C380 C 0.77071 0.61837 0.87611 0.0
C381 C 0.80525 0.62712 0.85392 0.0
C382 C 0.81063 0.60847 0.88164 0.0
C383 C 0.7755 0.59973 0.9046 0.0
O384 O 0.76423 0.55166 0.9479 0.0
O385 O 0.78662 0.59856 0.9583 0.0
O386 O 0.79097 0.61927 0.91788 0.0
O387 O 0.76857 0.57236 0.90758 0.0
H388 H 0.72512 0.57999 0.94299 0.0
H389 H 0.6792 0.57348 0.95389 0.0
H390 H 0.69956 0.54551 1.0022 0.0
H391 H 0.74532 0.55259 0.99136 0.0
H392 H 0.86838 0.55116 0.98132 0.0
H393 H 0.83578 0.56261 0.96339 0.0
H394 H 0.93533 0.59211 0.94513 0.0
H395 H 0.90261 0.60292 0.92727 0.0
H396 H 0.83967 0.61725 0.86123 0.0
H397 H 0.76808 0.63441 0.85128 0.0
H398 H 0.75146 0.61878 0.88018 0.0
H399 H 0.82264 0.60134 0.8901 0.0
C400 C 0.48672 0.19511 0.97608 0.0
C401 C 0.47746 0.16803 0.96615 0.0
C402 C 0.49655 0.15098 0.98989 0.0
C403 C 0.48226 0.14606 0.97303 0.0
C404 C 0.50541 0.17809 0.99976 0.0
C405 C 0.50056 0.19986 0.99291 0.0
U406 U 0.46574 0.23343 0.9404 0.0
O407 O 0.44302 0.25916 0.94341 0.0
O408 O 0.48832 0.28104 0.93582 0.0
C409 C 0.46652 0.28451 0.94073 0.0
C410 C 0.48255 0.219 0.96938 0.0
C411 C 0.47454 0.31061 0.95335 0.0
C412 C 0.50968 0.36163 0.96485 0.0
C413 C 0.50242 0.33639 0.9537 0.0
C414 C 0.46122 0.33619 0.97547 0.0
C415 C 0.48917 0.36191 0.97587 0.0
C416 C 0.45397 0.31087 0.96433 0.0
C417 C 0.43874 0.19876 0.89325 0.0
C418 C 0.43143 0.22508 0.8699 0.0
C419 C 0.4162 0.17281 0.86465 0.0
C420 C 0.42617 0.17275 0.88188 0.0
C421 C 0.41865 0.19896 0.85843 0.0
C422 C 0.4413 0.22496 0.88717 0.0
C423 C 0.44896 0.19809 0.91136 0.0
O424 O 0.50086 0.23509 0.95808 0.0
O425 O 0.45527 0.21235 0.96528 0.0
O426 O 0.43098 0.19564 0.92333 0.0
O427 O 0.4766 0.2178 0.91624 0.0
H428 H 0.46673 0.16399 0.95309 0.0
H429 H 0.47531 0.12552 0.96505 0.0
H430 H 0.51597 0.18246 1.01288 0.0
H431 H 0.50773 0.22055 1.00081 0.0
H432 H 0.53122 0.3812 0.96457 0.0
H433 H 0.5186 0.33723 0.94517 0.0
H434 H 0.44496 0.33552 0.98387 0.0
H435 H 0.43214 0.2916 0.96425 0.0
H436 H 0.43334 0.2455 0.86562 0.0
H437 H 0.40683 0.15241 0.85615 0.0
H438 H 0.42408 0.15233 0.88633 0.0
H439 H 0.45085 0.24525 0.8958 0.0
C440 C 0.73534 0.18671 0.97056 0.0
C441 C 0.71615 0.16187 0.95904 0.0
C442 C 0.68332 0.1399 0.98225 0.0
C443 C 0.69034 0.13867 0.96483 0.0
C444 C 0.70288 0.16484 0.9937 0.0
C445 C 0.72856 0.18794 0.9879 0.0
U446 U 0.79224 0.22717 0.937 0.0
O447 O 0.81463 0.27459 0.93202 0.0
O448 O 0.84047 0.25481 0.94156 0.0
C449 C 0.84066 0.2794 0.93792 0.0
C450 C 0.76229 0.21184 0.96487 0.0
C451 C 0.85879 0.30633 0.95021 0.0
C452 C 0.87183 0.35659 0.96127 0.0
C453 C 0.8534 0.3303 0.95072 0.0
C454 C 0.90167 0.33575 0.97103 0.0
C455 C 0.89629 0.35974 0.97151 0.0
C456 C 0.88321 0.30942 0.96047 0.0
C457 C 0.78601 0.19339 0.89075 0.0
C458 C 0.82268 0.22034 0.87044 0.0
C459 C 0.78171 0.17101 0.8614 0.0
C460 C 0.77097 0.16955 0.87789 0.0
C461 C 0.80777 0.1964 0.85746 0.0
C462 C 0.8119 0.21885 0.88692 0.0
C463 C 0.77464 0.19146 0.9081 0.0
O464 O 0.78401 0.20684 0.96216 0.0
O465 O 0.75843 0.22708 0.95287 0.0
O466 O 0.76512 0.20999 0.91188 0.0
O467 O 0.79092 0.18999 0.92112 0.0
H468 H 0.72106 0.1605 0.94559 0.0
H469 H 0.67597 0.1197 0.9557 0.0
H470 H 0.69805 0.16689 1.00709 0.0
H471 H 0.74306 0.20699 0.99697 0.0
H472 H 0.86728 0.37476 0.96107 0.0
H473 H 0.83519 0.329 0.94272 0.0
H474 H 0.92012 0.33726 0.97886 0.0
H475 H 0.88833 0.29162 0.9602 0.0
H476 H 0.84257 0.24038 0.86782 0.0
H477 H 0.76987 0.152 0.85185 0.0
H478 H 0.75099 0.14969 0.88063 0.0
H479 H 0.82376 0.23754 0.89669 0.0
C480 C 0.55105 0.83733 0.06119 0.0
C481 C 0.56054 0.86432 0.07128 0.0
C482 C 0.54005 0.88125 0.04825 0.0
C483 C 0.55517 0.88617 0.06484 0.0
C484 C 0.5309 0.85422 0.03821 0.0
C485 C 0.53634 0.83254 0.04462 0.0
U486 U 0.57349 0.80121 0.09701 0.0
O487 O 0.55278 0.75405 0.10239 0.0
O488 O 0.59818 0.77731 0.09494 0.0
C489 C 0.57563 0.75179 0.09834 0.0
C490 C 0.55589 0.81369 0.06759 0.0
C491 C 0.56908 0.72569 0.08648 0.0
C492 C 0.54783 0.69511 0.05896 0.0
C493 C 0.5547 0.72068 0.06974 0.0
C494 C 0.57 0.67959 0.08145 0.0
C495 C 0.55527 0.67415 0.06472 0.0
C496 C 0.5768 0.70509 0.09221 0.0
C497 C 0.59919 0.83744 0.14364 0.0
C498 C 0.60741 0.81188 0.16709 0.0
C499 C 0.62164 0.86394 0.17211 0.0
C500 C 0.61139 0.86357 0.15488 0.0
C501 C 0.61982 0.83811 0.17843 0.0
C502 C 0.59728 0.81158 0.14983 0.0
C503 C 0.58883 0.83752 0.12549 0.0
O504 O 0.58339 0.82119 0.07179 0.0
O505 O 0.53775 0.79719 0.07885 0.0
O506 O 0.56147 0.81695 0.12063 0.0
O507 O 0.60715 0.84043 0.11366 0.0
H508 H 0.57189 0.86838 0.08415 0.0
H509 H 0.56232 0.90663 0.07295 0.0
H510 H 0.51966 0.84986 0.02528 0.0
H511 H 0.52896 0.81191 0.03661 0.0
H512 H 0.5368 0.69183 0.04607 0.0
H513 H 0.54865 0.73643 0.06508 0.0
H514 H 0.57572 0.66379 0.08641 0.0
H515 H 0.58782 0.70856 0.10512 0.0
H516 H 0.60603 0.79172 0.17145 0.0
H517 H 0.63077 0.88441 0.18054 0.0
H518 H 0.61301 0.88373 0.15033 0.0
H519 H 0.58807 0.79121 0.14128 0.0
C520 C 0.29881 0.84582 0.07055 0.0
C521 C 0.31725 0.87134 0.08181 0.0
C522 C 0.35045 0.89292 0.05871 0.0
C523 C 0.34288 0.89469 0.07594 0.0
C524 C 0.33167 0.86726 0.04754 0.0
C525 C 0.30617 0.84403 0.05341 0.0
U526 U 0.24227 0.80385 0.10416 0.0
O527 O 0.19406 0.77626 0.09957 0.0
O528 O 0.21996 0.756 0.10816 0.0
C529 C 0.19395 0.75142 0.10239 0.0
C530 C 0.27199 0.82056 0.07627 0.0
C531 C 0.17628 0.72541 0.08939 0.0
C532 C 0.16257 0.67526 0.07764 0.0
C533 C 0.18032 0.70057 0.08911 0.0
C534 C 0.13605 0.6988 0.06654 0.0
C535 C 0.14013 0.67399 0.06625 0.0
C536 C 0.15384 0.72416 0.07799 0.0
C537 C 0.24928 0.83607 0.15115 0.0
C538 C 0.21356 0.80887 0.1719 0.0
C539 C 0.25453 0.8583 0.18068 0.0
C540 C 0.26463 0.85989 0.16399 0.0
C541 C 0.2288 0.8328 0.18486 0.0
C542 C 0.2237 0.8105 0.1552 0.0
C543 C 0.26009 0.83829 0.1336 0.0
O544 O 0.27604 0.80486 0.08786 0.0
O545 O 0.25038 0.82551 0.07944 0.0
O546 O 0.2436 0.84023 0.1209 0.0
O547 O 0.26944 0.8198 0.12929 0.0
H548 H 0.31189 0.87313 0.0951 0.0
H549 H 0.35665 0.9142 0.08485 0.0
H550 H 0.33697 0.86477 0.03433 0.0
H551 H 0.29227 0.82444 0.04456 0.0
H552 H 0.16604 0.6564 0.07799 0.0
H553 H 0.19696 0.70047 0.09794 0.0
H554 H 0.11916 0.69871 0.05784 0.0
H555 H 0.14979 0.74267 0.078 0.0
H556 H 0.1939 0.78874 0.17469 0.0
H557 H 0.26661 0.87732 0.1902 0.0
H558 H 0.28438 0.87985 0.16108 0.0
H559 H 0.21159 0.79183 0.14545 0.0
C560 C 0.19832 0.47334 0.07076 0.0
C561 C 0.17615 0.46834 0.08189 0.0
C562 C 0.15019 0.47983 0.05912 0.0
C563 C 0.15228 0.47164 0.07613 0.0
C564 C 0.17269 0.48501 0.04814 0.0
C565 C 0.19646 0.48177 0.05391 0.0
U566 U 0.24072 0.45249 0.10386 0.0
O567 O 0.26475 0.42849 0.09918 0.0
O568 O 0.2884 0.47452 0.11112 0.0
C569 C 0.2905 0.45202 0.10423 0.0
C570 C 0.22348 0.46979 0.07633 0.0
C571 C 0.31469 0.45959 0.09262 0.0
C572 C 0.33509 0.44748 0.06765 0.0
C573 C 0.31122 0.44105 0.0776 0.0
C574 C 0.36617 0.49134 0.08729 0.0
C575 C 0.363 0.47248 0.07252 0.0
C576 C 0.34241 0.48489 0.09723 0.0
C577 C 0.20741 0.42523 0.14806 0.0
C578 C 0.22785 0.43159 0.17818 0.0
C579 C 0.17939 0.38992 0.16896 0.0
C580 C 0.182 0.39946 0.15208 0.0
C581 C 0.20212 0.40604 0.1823 0.0
C582 C 0.23051 0.44107 0.16123 0.0
C583 C 0.20803 0.43613 0.13052 0.0
O584 O 0.24118 0.48831 0.08944 0.0
O585 O 0.21752 0.44221 0.07761 0.0
O586 O 0.20432 0.41767 0.11701 0.0
O587 O 0.22796 0.46395 0.12865 0.0
H588 H 0.17726 0.46177 0.09496 0.0
H589 H 0.13526 0.4673 0.08486 0.0
H590 H 0.17209 0.49186 0.03509 0.0
H591 H 0.21345 0.48585 0.04517 0.0
H592 H 0.33188 0.43231 0.05647 0.0
H593 H 0.29024 0.42122 0.0737 0.0
H594 H 0.38717 0.51107 0.09129 0.0
H595 H 0.34588 0.49953 0.10875 0.0
H596 H 0.24591 0.44432 0.18809 0.0
H597 H 0.15911 0.37041 0.17169 0.0
H598 H 0.16377 0.38704 0.14222 0.0
H599 H 0.25041 0.46105 0.15854 0.0
C600 C 0.40625 0.90117 0.30142 0.0
C601 C 0.38707 0.90608 0.29058 0.0
C602 C 0.35312 0.89333 0.31354 0.0
C603 C 0.36066 0.90213 0.29658 0.0
C604 C 0.37248 0.8883 0.32423 0.0
C605 C 0.39874 0.89222 0.31822 0.0
U606 U 0.46402 0.92066 0.26775 0.0
O607 O 0.51239 0.94601 0.27231 0.0
O608 O 0.48993 0.89922 0.2617 0.0
C609 C 0.51504 0.92285 0.26759 0.0
C610 C 0.43423 0.90529 0.29563 0.0
C611 C 0.53455 0.91734 0.27928 0.0
C612 C 0.54391 0.89673 0.30502 0.0
C613 C 0.52534 0.90333 0.29481 0.0
C614 C 0.58115 0.91879 0.28447 0.0
C615 C 0.57185 0.90392 0.29977 0.0
C616 C 0.56268 0.92538 0.27435 0.0
C617 C 0.45417 0.94271 0.22236 0.0
C618 C 0.49072 0.95388 0.20132 0.0
C619 C 0.44718 0.95698 0.19359 0.0
C620 C 0.43739 0.94854 0.21013 0.0
C621 C 0.47399 0.9598 0.18897 0.0
C622 C 0.48089 0.94539 0.21785 0.0
C623 C 0.44357 0.93378 0.23969 0.0
O624 O 0.43208 0.88591 0.28313 0.0
O625 O 0.45441 0.93285 0.29346 0.0
O626 O 0.45901 0.95337 0.25296 0.0
O627 O 0.43649 0.90641 0.24279 0.0
H628 H 0.39257 0.91304 0.27754 0.0
H629 H 0.34638 0.90639 0.28806 0.0
H630 H 0.36718 0.88097 0.33721 0.0
H631 H 0.41323 0.8882 0.32673 0.0
H632 H 0.53605 0.88515 0.31668 0.0
H633 H 0.50365 0.897 0.29882 0.0
H634 H 0.60269 0.92511 0.28021 0.0
H635 H 0.57021 0.93635 0.26245 0.0
H636 H 0.51128 0.95547 0.19815 0.0
H637 H 0.43393 0.96174 0.18451 0.0
H638 H 0.41674 0.94665 0.21341 0.0
H639 H 0.49409 0.94087 0.22712 0.0
C640 C 0.15339 0.52623 0.30525 0.0
C641 C 0.13134 0.50324 0.31389 0.0
C642 C 0.16282 0.48192 0.31944 0.0
C643 C 0.13593 0.48127 0.32082 0.0
C644 C 0.18458 0.50447 0.31041 0.0
C645 C 0.17997 0.52638 0.30345 0.0
U646 U 0.13297 0.56783 0.27162 0.0
O647 O 0.11054 0.5937 0.2754 0.0
O648 O 0.15571 0.61565 0.26757 0.0
C649 C 0.13404 0.61909 0.27277 0.0
C650 C 0.14981 0.55141 0.29974 0.0
C651 C 0.14223 0.64497 0.28559 0.0
C652 C 0.17766 0.69566 0.29749 0.0
C653 C 0.17037 0.67048 0.28627 0.0
C654 C 0.12877 0.67064 0.30755 0.0
C655 C 0.15693 0.69613 0.30824 0.0
C656 C 0.12148 0.6454 0.29634 0.0
C657 C 0.10494 0.534 0.22433 0.0
C658 C 0.09858 0.56083 0.20096 0.0
C659 C 0.08046 0.50784 0.19609 0.0
C660 C 0.09075 0.50768 0.2132 0.0
C661 C 0.0842 0.5344 0.18974 0.0
C662 C 0.10878 0.56061 0.21813 0.0
C663 C 0.11551 0.53316 0.2423 0.0
O664 O 0.16815 0.5687 0.28878 0.0
O665 O 0.12275 0.54596 0.29627 0.0
O666 O 0.09778 0.53057 0.25445 0.0
O667 O 0.14324 0.55275 0.24705 0.0
H668 H 0.11078 0.50267 0.31577 0.0
H669 H 0.11884 0.46446 0.32787 0.0
H670 H 0.20541 0.50546 0.30892 0.0
H671 H 0.19759 0.54385 0.29704 0.0
H672 H 0.19938 0.71505 0.29745 0.0
H673 H 0.18672 0.6712 0.27793 0.0
H674 H 0.11234 0.67011 0.31575 0.0
H675 H 0.09946 0.62635 0.29599 0.0
H676 H 0.10152 0.58158 0.19655 0.0
H677 H 0.06982 0.48719 0.18776 0.0
H678 H 0.08765 0.48695 0.21775 0.0
H679 H 0.11957 0.58115 0.22658 0.0
C680 C 0.40192 0.5188 0.30221 0.0
C681 C 0.37408 0.51244 0.29503 0.0
C682 C 0.34975 0.47269 0.31445 0.0
C683 C 0.34836 0.4897 0.30108 0.0
C684 C 0.37764 0.47874 0.32138 0.0
C685 C 0.40336 0.50158 0.31538 0.0
U686 U 0.46049 0.56153 0.26984 0.0
O687 O 0.50871 0.58878 0.27483 0.0
O688 O 0.48333 0.60918 0.26549 0.0
C689 C 0.50918 0.61362 0.27147 0.0
C690 C 0.42948 0.54454 0.29719 0.0
C691 C 0.52722 0.64015 0.28404 0.0
C692 C 0.54003 0.68999 0.29582 0.0
C693 C 0.52162 0.66397 0.28505 0.0
C694 C 0.57023 0.66913 0.30482 0.0
C695 C 0.56466 0.69298 0.30579 0.0
C696 C 0.55179 0.64308 0.29404 0.0
C697 C 0.4545 0.52933 0.22316 0.0
C698 C 0.49142 0.55666 0.20308 0.0
C699 C 0.45023 0.50765 0.19363 0.0
C700 C 0.43939 0.50583 0.2101 0.0
C701 C 0.47645 0.53305 0.18991 0.0
C702 C 0.48054 0.5548 0.21955 0.0
C703 C 0.44303 0.52694 0.2405 0.0
O704 O 0.45145 0.53985 0.29461 0.0
O705 O 0.42676 0.56131 0.28578 0.0
O706 O 0.43375 0.54557 0.24458 0.0
O707 O 0.45908 0.52483 0.2534 0.0
H708 H 0.37207 0.5254 0.28497 0.0
H709 H 0.32736 0.48607 0.29559 0.0
H710 H 0.37965 0.4659 0.33151 0.0
H711 H 0.42448 0.50609 0.32126 0.0
H712 H 0.53534 0.70807 0.29599 0.0
H713 H 0.50328 0.66282 0.27727 0.0
H714 H 0.58882 0.67053 0.31244 0.0
H715 H 0.55705 0.62538 0.29337 0.0
H716 H 0.51145 0.57669 0.20062 0.0
H717 H 0.43835 0.48889 0.18392 0.0
H718 H 0.41929 0.48596 0.21269 0.0
H719 H 0.49245 0.57322 0.22948 0.0
C720 C 0.54931 0.03146 0.07168 0.0
Eu721 Eu 0.53152 0.02683 0.03873 0.0
C722 C 0.53692 0.01881 0.08813 0.0
C723 C 0.50887 1.01317 0.09209 0.0
C724 C 0.49825 1.00263 0.10818 0.0
C725 C 0.5154 0.99736 0.1206 0.0
C726 C 0.54316 1.00234 0.11633 0.0
C727 C 0.55379 1.013 0.10029 0.0
C728 C 0.51976 0.06545 0.02259 0.0
C729 C 0.4602 0.98038 0.03259 0.0
C730 C 0.48446 0.99932 0.96877 0.0
Eu731 Eu 0.50217 1.00521 1.00183 0.0
C732 C 0.49545 1.01264 0.95215 0.0
C733 C 0.4987 0.99548 0.93868 0.0
C734 C 0.50735 1.00674 0.92248 0.0
C735 C 0.51271 0.03541 0.91926 0.0
C736 C 0.50993 0.05281 0.93288 0.0
C737 C 0.5014 0.04157 0.94914 0.0
C738 C 0.51405 0.96675 0.01811 0.0
C739 C 0.57322 0.05227 1.00802 0.0
O740 O 0.55082 1.01342 0.05981 0.0
O741 O 0.54102 0.04905 0.06496 0.0
O742 O 0.54306 0.07356 0.03308 0.0
O743 O 0.50288 0.03754 0.02184 0.0
O744 O 0.48467 0.99148 0.04308 0.0
O745 O 0.46077 0.98573 0.01591 0.0
O746 O 0.47993 1.01513 0.98072 0.0
O747 O 0.4959 0.98428 0.97545 0.0
O748 O 0.49052 0.95857 1.00785 0.0
O749 O 0.53093 0.99462 0.01865 0.0
O750 O 0.54864 0.04183 0.99771 0.0
O751 O 0.57276 0.04595 0.02452 0.0
H752 H 0.49533 1.01733 0.08287 0.0
H753 H 0.47691 0.99932 0.11103 0.0
H754 H 0.55674 0.99796 0.12537 0.0
H755 H 0.57538 1.01697 0.09744 0.0
H756 H 0.49419 0.97309 0.9406 0.0
H757 H 0.50974 0.99287 0.91245 0.0
H758 H 0.51353 0.07484 0.93084 0.0
H759 H 0.499 0.05537 0.95922 0.0
C760 C 1.00245 0.53177 0.06724 0.0
Eu761 Eu 1.00838 0.52105 0.03453 0.0
C762 C 1.01548 0.53283 0.08488 0.0
C763 C 0.99765 0.5254 0.09891 0.0
C764 C 1.00918 0.52585 0.11578 0.0
C765 C 0.03887 0.53379 0.119 0.0
C766 C 0.05678 0.5414 0.10489 0.0
C767 C 0.04516 0.54083 0.08795 0.0
C768 C 0.97293 0.47007 1.01417 0.0
C769 C 0.05751 0.4998 0.03131 0.0
C770 C 0.03716 0.50683 0.96652 0.0
Eu771 Eu 0.03069 0.51676 0.99921 0.0
C772 C 0.02428 0.50665 0.949 0.0
C773 C 0.04236 0.51562 0.9351 0.0
C774 C 0.03083 0.51586 0.91836 0.0
C775 C 1.00091 0.50706 0.91517 0.0
C776 C 0.9828 0.49803 0.92916 0.0
C777 C 0.9944 0.49791 0.94595 0.0
C778 C 0.06585 0.56762 0.01987 0.0
C779 C 0.98106 0.53705 1.00181 0.0
O780 O 1.01882 0.55257 0.05723 0.0
O781 O 0.98736 0.50547 0.05869 0.0
O782 O 0.96327 0.48361 0.02418 0.0
O783 O 1.00069 0.48307 0.01599 0.0
O784 O 0.04635 0.5126 0.04133 0.0
O785 O 0.05103 0.49482 1.01422 0.0
O786 O 1.02042 0.48579 0.97628 0.0
O787 O 0.05257 0.53284 0.97536 0.0
O788 O 0.07577 0.55404 1.0101 0.0
O789 O 0.03816 0.55459 0.01771 0.0
O790 O 0.99307 0.52484 0.99215 0.0
O791 O 0.98641 0.54158 0.01904 0.0
H792 H 0.97471 0.51922 0.0968 0.0
H793 H 0.99488 0.52026 0.12636 0.0
H794 H 0.07965 0.54732 0.10689 0.0
H795 H 0.05929 0.5465 0.07728 0.0
H796 H 0.06546 0.52242 0.9372 0.0
H797 H 0.0453 0.52257 0.90784 0.0
H798 H 0.95975 0.49144 0.92718 0.0
H799 H 0.98006 0.49105 0.95654 0.0
C800 C 0.4862 0.49815 0.9707 0.0
Eu801 Eu 0.50562 0.51255 1.00368 0.0
C802 C 0.49836 0.49863 0.95367 0.0
C803 C 0.52567 0.52248 0.94999 0.0
C804 C 0.53624 0.52298 0.93354 0.0
C805 C 0.51987 0.49952 0.92048 0.0
C806 C 0.49286 0.47538 0.92437 0.0
C807 C 0.48221 0.47501 0.94079 0.0
C808 C 0.52213 0.56481 0.02229 0.0
C809 C 0.57693 0.53638 1.00779 0.0
C810 C 0.55686 0.53356 0.07268 0.0
Eu811 Eu 0.53731 0.52063 0.0397 0.0
C812 C 0.54525 0.53488 0.08961 0.0
C813 C 0.55633 0.52826 0.10464 0.0
C814 C 0.54529 0.52875 0.1208 0.0
C815 C 0.52286 0.53586 0.12226 0.0
C816 C 0.51178 0.54249 0.1071 0.0
C817 C 0.5229 0.54204 0.09093 0.0
C818 C 0.52086 0.4686 0.0207 0.0
C819 C 0.46673 0.49847 0.0361 0.0
O820 O 0.48611 0.47913 0.98129 0.0
O821 O 0.49365 0.52396 0.97886 0.0
O822 O 0.49796 0.55033 1.0121 0.0
O823 O 0.53721 0.55207 0.02141 0.0
O824 O 0.5519 0.52318 0.99764 0.0
O825 O 0.57752 0.54164 0.02485 0.0
O826 O 0.55972 0.55355 0.06198 0.0
O827 O 0.54622 0.507 0.06466 0.0
O828 O 0.54535 0.48332 0.03057 0.0
O829 O 0.5057 0.48119 0.02196 0.0
O830 O 0.49211 0.51203 0.04582 0.0
O831 O 0.46537 0.49243 0.01901 0.0
H832 H 0.53876 0.54083 0.95979 0.0
H833 H 0.55733 0.54167 0.93106 0.0
H834 H 0.4796 0.45707 0.91459 0.0
H835 H 0.46115 0.45636 0.94337 0.0
H836 H 0.57344 0.5225 0.10387 0.0
H837 H 0.55402 0.52305 0.1321 0.0
H838 H 0.49472 0.54833 0.10776 0.0
H839 H 0.51402 0.54725 0.07948 0.0
C840 C 0.21671 0.36859 0.40602 0.0
Eu841 Eu 0.19887 0.36238 0.37294 0.0
C842 C 0.20502 0.35583 0.42255 0.0
C843 C 0.2172 0.37368 0.43834 0.0
C844 C 0.20653 0.36236 0.45423 0.0
C845 C 0.18339 0.33282 0.4547 0.0
C846 C 0.17109 0.31499 0.43877 0.0
C847 C 0.1818 0.32639 0.42284 0.0
C848 C 0.18649 0.40001 0.35614 0.0
C849 C 0.12778 0.31482 0.36672 0.0
C850 C 0.1521 0.33403 0.30281 0.0
Eu851 Eu 0.16958 0.33971 0.33591 0.0
C852 C 0.1635 0.34708 0.28613 0.0
C853 C 0.17465 0.33375 0.27477 0.0
C854 C 0.18321 0.34438 0.25841 0.0
C855 C 0.18065 0.3685 0.2529 0.0
C856 C 0.17003 0.38222 0.26441 0.0
C857 C 0.16147 0.37159 0.2808 0.0
C858 C 0.1817 0.30187 0.35266 0.0
C859 C 0.24073 0.38708 0.34218 0.0
O860 O 0.21978 0.35141 0.39427 0.0
O861 O 0.2063 0.38436 0.39916 0.0
O862 O 0.20992 0.40875 0.36663 0.0
O863 O 0.16995 0.3721 0.35569 0.0
O864 O 0.15227 0.32643 0.37723 0.0
O865 O 0.12818 0.31983 0.34999 0.0
O866 O 0.14827 0.35051 0.31468 0.0
O867 O 0.16245 0.31816 0.30965 0.0
O868 O 0.15841 0.29334 0.34208 0.0
O869 O 0.19842 0.32978 0.35315 0.0
O870 O 0.21624 0.37566 0.33168 0.0
O871 O 0.24027 0.38199 0.3589 0.0
H872 H 0.23497 0.39652 0.43837 0.0
H873 H 0.21618 0.37695 0.46614 0.0
H874 H 0.15345 0.29209 0.43862 0.0
H875 H 0.17201 0.31223 0.41078 0.0
H876 H 0.17632 0.3147 0.27838 0.0
H877 H 0.19165 0.33351 0.25001 0.0
H878 H 0.16737 0.40058 0.26054 0.0
H879 H 0.15267 0.38219 0.28912 0.0
C880 C 0.67226 0.86515 0.40161 0.0
Eu881 Eu 0.67699 0.85424 0.3687 0.0
C882 C 0.68529 0.86552 0.41915 0.0
C883 C 0.66707 0.85591 0.43297 0.0
C884 C 0.67863 0.85598 0.44978 0.0
C885 C 0.70875 0.86576 0.45315 0.0
C886 C 0.72703 0.87545 0.43924 0.0
C887 C 0.71539 0.87522 0.42237 0.0
C888 C 0.64145 0.80286 0.34873 0.0
C889 C 0.72651 0.83363 0.36469 0.0
C890 C 0.70339 0.83939 0.30007 0.0
Eu891 Eu 0.69815 0.84971 0.33294 0.0
C892 C 0.6902 0.83927 0.28265 0.0
C893 C 0.70813 0.84876 0.2687 0.0
C894 C 0.69631 0.8489 0.25203 0.0
C895 C 0.66623 0.83948 0.24894 0.0
C896 C 0.64826 0.82999 0.26299 0.0
C897 C 0.66015 0.82997 0.27972 0.0
C898 C 0.73337 0.90102 0.35319 0.0
C899 C 0.64836 0.86964 0.33634 0.0
O900 O 0.68889 0.88578 0.39159 0.0
O901 O 0.65622 0.83903 0.39298 0.0
O902 O 0.63185 0.81628 0.3589 0.0
O903 O 0.66923 0.81623 0.35019 0.0
O904 O 0.71538 0.8462 0.37492 0.0
O905 O 0.71952 0.82846 0.34764 0.0
O906 O 0.68678 0.81853 0.30997 0.0
O907 O 0.71932 0.86541 0.30883 0.0
O908 O 0.74327 0.88763 0.34325 0.0
O909 O 0.70565 0.88757 0.35141 0.0
O910 O 0.66007 0.85734 0.32648 0.0
O911 O 0.65436 0.87449 0.35352 0.0
H912 H 0.64382 0.84839 0.43077 0.0
H913 H 0.664 0.84875 0.4602 0.0
H914 H 0.75025 0.88282 0.44136 0.0
H915 H 0.72987 0.88257 0.41187 0.0
H916 H 0.73135 0.85599 0.2707 0.0
H917 H 0.71069 0.85599 0.24147 0.0
H918 H 0.62508 0.82291 0.26109 0.0
H919 H 0.64591 0.82271 0.29033 0.0
C920 C 0.15331 0.83412 0.30371 0.0
Eu921 Eu 0.1724 0.84656 0.33681 0.0
C922 C 0.16451 0.83274 0.28663 0.0
C923 C 0.15222 0.83817 0.27164 0.0
C924 C 0.1626 0.8374 0.25529 0.0
C925 C 0.18557 0.83117 0.25355 0.0
C926 C 0.19792 0.82579 0.26868 0.0
C927 C 0.18747 0.82655 0.28506 0.0
C928 C 0.18764 0.89776 0.35626 0.0
C929 C 0.24351 0.87002 0.34137 0.0
C930 C 0.22227 0.86558 0.40607 0.0
Eu931 Eu 0.20336 0.8535 0.37298 0.0
C932 C 0.21043 0.86644 0.42299 0.0
C933 C 0.22205 0.86047 0.43806 0.0
C934 C 0.21098 0.86077 0.45424 0.0
C935 C 0.18796 0.86701 0.45569 0.0
C936 C 0.17628 0.8729 0.44048 0.0
C937 C 0.18744 0.87266 0.42429 0.0
C938 C 0.18793 0.80232 0.3533 0.0
C939 C 0.13262 0.83062 0.36892 0.0
O940 O 0.15031 0.81396 0.31433 0.0
O941 O 0.1642 0.86065 0.31183 0.0
O942 O 0.1637 0.88332 0.3459 0.0
O943 O 0.20317 0.88553 0.35519 0.0
O944 O 0.2186 0.85647 0.33111 0.0
O945 O 0.2438 0.87539 0.35839 0.0
O946 O 0.22524 0.88585 0.39556 0.0
O947 O 0.21182 0.83921 0.39782 0.0
O948 O 0.21206 0.81676 0.36352 0.0
O949 O 0.17253 0.81462 0.35463 0.0
O950 O 0.15776 0.84378 0.37887 0.0
O951 O 0.13172 0.82568 0.35176 0.0
H952 H 0.13462 0.84318 0.27259 0.0
H953 H 0.15289 0.84217 0.24403 0.0
H954 H 0.21544 0.82065 0.26785 0.0
H955 H 0.19729 0.82228 0.29649 0.0
H956 H 0.23967 0.85544 0.43731 0.0
H957 H 0.22019 0.85564 0.46558 0.0
H958 H 0.15876 0.87807 0.44112 0.0
H959 H 0.17815 0.87737 0.41281 0.0
C960 C 0.88339 0.70277 0.73787 0.0
Eu961 Eu 0.86595 0.69664 0.70473 0.0
C962 C 0.87107 0.69054 0.75442 0.0
C963 C 0.87869 0.7101 0.76949 0.0
C964 C 0.86741 0.69935 0.78537 0.0
C965 C 0.84831 0.6687 0.78657 0.0
C966 C 0.8407 0.64906 0.77143 0.0
C967 C 0.85186 0.65989 0.75547 0.0
C968 C 0.85455 0.73492 0.6879 0.0
C969 C 0.79478 0.64962 0.69854 0.0
C970 C 0.8193 0.66742 0.63474 0.0
Eu971 Eu 0.83694 0.67413 0.66786 0.0
C972 C 0.83006 0.68114 0.61826 0.0
C973 C 0.82481 0.66255 0.60305 0.0
C974 C 0.834 0.67465 0.58711 0.0
C975 C 0.84857 0.70568 0.58601 0.0
C976 C 0.85409 0.72435 0.60134 0.0
C977 C 0.84503 0.7122 0.61735 0.0
C978 C 0.84848 0.63596 0.68476 0.0
C979 C 0.90791 0.72129 0.6741 0.0
O980 O 0.88594 0.68504 0.72625 0.0
O981 O 0.87417 0.71938 0.7308 0.0
O982 O 0.8778 0.74317 0.69845 0.0
O983 O 0.83753 0.70706 0.68738 0.0
O984 O 0.8192 0.66125 0.70911 0.0
O985 O 0.79538 0.65441 0.68177 0.0
O986 O 0.81382 0.68262 0.64659 0.0
O987 O 0.832 0.6536 0.64149 0.0
O988 O 0.82516 0.62765 0.67427 0.0
O989 O 0.86544 0.6638 0.68515 0.0
O990 O 0.88339 0.71074 0.66372 0.0
O991 O 0.90732 0.71529 0.69066 0.0
H992 H 0.89347 0.7338 0.76898 0.0
H993 H 0.87399 0.71503 0.7968 0.0
H994 H 0.8258 0.62538 0.77186 0.0
H995 H 0.84542 0.64433 0.74398 0.0
H996 H 0.81328 0.63854 0.60345 0.0
H997 H 0.82906 0.65962 0.57554 0.0
H998 H 0.86552 0.74834 0.60098 0.0
H999 H 0.84957 0.72706 0.62895 0.0
C1000 C 0.33793 0.19762 0.73572 0.0
Eu1001 Eu 0.34311 0.18709 0.70283 0.0
C1002 C 0.35083 0.19802 0.75332 0.0
C1003 C 0.33253 0.18864 0.76712 0.0
C1004 C 0.34394 0.18873 0.78397 0.0
C1005 C 0.374 0.1983 0.78743 0.0
C1006 C 0.39237 0.20776 0.77355 0.0
C1007 C 0.38087 0.20752 0.75662 0.0
C1008 C 0.30786 0.13588 0.68263 0.0
C1009 C 0.39283 0.16674 0.69894 0.0
C1010 C 0.37057 0.17306 0.63437 0.0
Eu1011 Eu 0.36475 0.18306 0.66719 0.0
C1012 C 0.35764 0.17304 0.61691 0.0
C1013 C 0.37567 0.18206 0.60299 0.0
C1014 C 0.3641 0.18232 0.58626 0.0
C1015 C 0.33417 0.17349 0.58311 0.0
C1016 C 0.3161 0.16444 0.59713 0.0
C1017 C 0.32775 0.1643 0.6139 0.0
C1018 C 0.39969 0.23425 0.68761 0.0
C1019 C 0.31468 0.20264 0.6704 0.0
O1020 O 0.35455 0.21841 0.72578 0.0
O1021 O 0.32219 0.17151 0.72703 0.0
O1022 O 0.29809 0.14914 0.69278 0.0
O1023 O 0.33564 0.14929 0.68423 0.0
O1024 O 0.38157 0.17919 0.70916 0.0
O1025 O 0.38599 0.1617 0.68189 0.0
O1026 O 0.35379 0.15209 0.64416 0.0
O1027 O 0.3863 0.19903 0.64322 0.0
O1028 O 0.40973 0.22098 0.67768 0.0
O1029 O 0.37196 0.22075 0.68573 0.0
O1030 O 0.32669 0.19064 0.66057 0.0
O1031 O 0.32039 0.20723 0.68761 0.0
H1032 H 0.30931 0.18128 0.76486 0.0
H1033 H 0.32924 0.18167 0.79436 0.0
H1034 H 0.41554 0.21496 0.77572 0.0
H1035 H 0.3954 0.2147 0.74615 0.0
H1036 H 0.39878 0.18884 0.60505 0.0
H1037 H 0.37853 0.18903 0.57573 0.0
H1038 H 0.29304 0.15783 0.59517 0.0
H1039 H 0.31344 0.1574 0.62449 0.0
C1040 C 0.81806 0.16573 0.638 0.0
Eu1041 Eu 0.83759 0.17817 0.67101 0.0
C1042 C 0.82904 0.16381 0.62094 0.0
C1043 C 0.81681 0.16909 0.60586 0.0
C1044 C 0.82717 0.16802 0.58955 0.0
C1045 C 0.85008 0.16164 0.58796 0.0
C1046 C 0.8623 0.15632 0.60316 0.0
C1047 C 0.85186 0.15737 0.6195 0.0
C1048 C 0.85306 0.22941 0.69047 0.0
C1049 C 0.90858 0.20105 0.67523 0.0
C1050 C 0.88798 0.19694 0.74007 0.0
Eu1051 Eu 0.86881 0.18495 0.70701 0.0
C1052 C 0.87625 0.19799 0.757 0.0
C1053 C 0.88761 0.19167 0.77205 0.0
C1054 C 0.87655 0.19202 0.78822 0.0
C1055 C 0.8538 0.19866 0.78969 0.0
C1056 C 0.84241 0.20494 0.77452 0.0
C1057 C 0.85356 0.20465 0.75834 0.0
C1058 C 0.85275 0.13359 0.68732 0.0
C1059 C 0.79816 0.16255 0.70327 0.0
O1060 O 0.8146 0.14551 0.64867 0.0
O1061 O 0.82965 0.1924 0.64603 0.0
O1062 O 0.82906 0.21497 0.68016 0.0
O1063 O 0.86858 0.21717 0.68934 0.0
O1064 O 0.88355 0.18761 0.66508 0.0
O1065 O 0.9091 0.20649 0.69226 0.0
O1066 O 0.89116 0.21729 0.72956 0.0
O1067 O 0.87722 0.17054 0.73182 0.0
O1068 O 0.87703 0.1479 0.69742 0.0
O1069 O 0.83761 0.14614 0.68876 0.0
O1070 O 0.82339 0.17559 0.71313 0.0
O1071 O 0.79708 0.15755 0.6861 0.0
H1072 H 0.79931 0.17428 0.60673 0.0
H1073 H 0.81757 0.17274 0.57823 0.0
H1074 H 0.87975 0.15106 0.60242 0.0
H1075 H 0.86161 0.15319 0.63099 0.0
H1076 H 0.90499 0.1863 0.77127 0.0
H1077 H 0.88553 0.18661 0.79953 0.0
H1078 H 0.8251 0.21042 0.77518 0.0
H1079 H 0.84447 0.20963 0.74688 0.0
C1080 C 0.40445 0.93143 0.0634 0.0
C1081 C 0.37814 0.91715 0.05243 0.0
H1082 H 0.45076 0.96248 0.06585 0.0
C1083 C 0.37882 0.92524 0.03513 0.0
H1084 H 0.4049 0.92562 0.07673 0.0
C1085 C 0.40524 0.9463 0.02881 0.0
C1086 C 0.43169 0.95988 0.03963 0.0
H1087 H 0.35892 0.91512 0.02638 0.0
H1088 H 0.40496 0.95151 1.01533 0.0
C1089 C 0.43086 0.95251 0.05709 0.0
C1090 C 0.11221 0.47265 0.03536 0.0
C1091 C 0.12476 0.48295 0.05264 0.0
H1092 H 0.08116 0.46957 1.0152 0.0
C1093 C 0.11353 0.49712 0.06332 0.0
H1094 H 0.11986 0.46109 0.02689 0.0
C1095 C 0.09103 0.50186 0.05662 0.0
C1096 C 0.0793 0.49249 0.03911 0.0
H1097 H 0.12279 0.50544 0.07667 0.0
H1098 H 0.08346 0.51358 0.06502 0.0
C1099 C 0.08984 0.47739 0.02869 0.0
C1100 C 0.51951 0.63048 0.04393 0.0
C1101 C 0.54714 0.64641 0.05353 0.0
H1102 H 0.48998 0.59219 0.02666 0.0
C1103 C 0.56665 0.63528 0.05262 0.0
H1104 H 0.50378 0.63812 0.04451 0.0
C1105 C 0.55866 0.60886 0.04241 0.0
C1106 C 0.53097 0.59293 0.03295 0.0
H1107 H 0.58824 0.64716 0.05967 0.0
H1108 H 0.57421 0.60098 0.04187 0.0
C1109 C 0.51153 0.60405 0.03377 0.0
C1110 C 0.94691 0.40011 0.98381 0.0
C1111 C 0.91616 0.38801 0.98252 0.0
H1112 H 0.98901 0.43553 0.99483 0.0
C1113 C 0.9045 0.40329 0.99175 0.0
H1114 H 0.9567 0.38917 0.97672 0.0
C1115 C 0.92303 0.42993 1.00196 0.0
C1116 C 0.95367 0.44196 1.00321 0.0
H1117 H 0.88095 0.39447 0.99126 0.0
H1118 H 0.91329 0.44108 1.00891 0.0
C1119 C 0.96546 0.42681 0.99406 0.0
C1120 C 0.65791 0.56375 1.00356 0.0
C1121 C 0.65807 0.5552 0.98591 0.0
H1122 H 0.63252 0.5648 0.02422 0.0
C1123 C 0.63146 0.54192 0.97521 0.0
H1124 H 0.67807 0.57458 1.0121 0.0
C1125 C 0.6052 0.53646 0.98216 0.0
C1126 C 0.60497 0.54418 0.99997 0.0
H1127 H 0.63073 0.53488 0.96159 0.0
H1128 H 0.58501 0.52556 0.97365 0.0
C1129 C 0.63174 0.5583 1.0105 0.0
C1130 C 0.48146 0.09778 0.99553 0.0
C1131 C 0.50268 0.12837 0.9973 0.0
H1132 H 0.46999 0.05379 1.00232 0.0
C1133 C 0.52975 0.13758 1.00685 0.0
H1134 H 0.46033 0.08995 0.98835 0.0
C1135 C 0.5352 0.11698 1.01481 0.0
C1136 C 0.51376 0.0866 1.01346 0.0
H1137 H 0.54683 0.16083 1.0082 0.0
H1138 H 0.55622 0.12497 0.02217 0.0
C1139 C 0.48693 0.07709 1.00358 0.0
C1140 C 0.62893 0.10276 0.97767 0.0
C1141 C 0.65543 0.11585 0.98845 0.0
H1142 H 0.58242 0.07257 0.97531 0.0
C1143 C 0.65481 0.10664 1.00546 0.0
H1144 H 0.62844 0.10948 0.96458 0.0
C1145 C 0.62832 0.08555 1.01169 0.0
C1146 C 0.60172 0.07306 1.00107 0.0
H1147 H 0.67484 0.11585 1.01404 0.0
H1148 H 0.62868 0.07939 0.02495 0.0
C1149 C 0.60244 0.08166 0.98389 0.0
C1150 C 0.9271 0.56474 0.99289 0.0
C1151 C 0.92357 0.5617 0.97447 0.0
H1152 H 0.94822 0.55965 0.01608 0.0
C1153 C 0.93874 0.55019 0.96532 0.0
H1154 H 0.9158 0.57366 1.00032 0.0
C1155 C 0.9572 0.54227 0.97427 0.0
C1156 C 0.96111 0.54558 0.99267 0.0
H1157 H 0.93615 0.54701 0.95116 0.0
H1158 H 0.96847 0.53356 0.96664 0.0
C1159 C 0.94578 0.55687 1.00191 0.0
C1160 C 0.47651 0.39869 0.98984 0.0
C1161 C 0.49695 0.38902 0.98761 0.0
H1162 H 0.46797 0.43138 1.0021 0.0
C1163 C 0.5251 0.40566 0.99656 0.0
H1164 H 0.45474 0.3866 0.98302 0.0
C1165 C 0.53268 0.43136 1.00736 0.0
C1166 C 0.51235 0.44111 1.00944 0.0
H1167 H 0.54126 0.39869 0.99536 0.0
H1168 H 0.55458 0.4437 1.01401 0.0
C1169 C 0.48414 0.42447 1.00065 0.0
C1170 C 0.13297 0.63138 0.0455 0.0
C1171 C 0.12096 0.64678 0.05424 0.0
H1172 H 0.12497 0.59441 0.02781 0.0
C1173 C 0.09049 0.63584 0.05148 0.0
H1174 H 0.15636 0.63934 0.04712 0.0
C1175 C 0.07252 0.61013 0.04032 0.0
C1176 C 0.08463 0.59482 0.03166 0.0
H1177 H 0.08042 0.64691 0.05815 0.0
H1178 H 0.04917 0.60229 0.03844 0.0
C1179 C 0.11502 0.60574 0.03433 0.0
C1180 C 0.4165 0.48827 0.07218 0.0
C1181 C 0.38912 0.4783 0.06286 0.0
H1182 H 0.46189 0.50202 0.07119 0.0
C1183 C 0.38714 0.47399 0.04446 0.0
H1184 H 0.41881 0.49117 0.08635 0.0
C1185 C 0.41213 0.48011 0.03563 0.0
C1186 C 0.43959 0.49062 0.04504 0.0
H1187 H 0.36642 0.46644 0.03685 0.0
H1188 H 0.41001 0.477 0.02147 0.0
C1189 C 0.4413 0.49436 0.06342 0.0
C1190 C 0.55436 0.93442 0.04318 0.0
C1191 C 0.5333 0.90378 0.04139 0.0
H1192 H 0.56497 0.9785 0.03705 0.0
C1193 C 0.50572 0.89451 0.0325 0.0
H1194 H 0.57587 0.9423 0.04985 0.0
C1195 C 0.49957 0.91513 0.02521 0.0
C1196 C 0.52079 0.94559 0.0266 0.0
H1197 H 0.48878 0.8712 0.03117 0.0
H1198 H 0.47815 0.90711 0.01835 0.0
C1199 C 0.54817 0.95514 0.03581 0.0
C1200 C 0.04759 0.25594 0.36946 0.0
C1201 C 0.04659 0.25187 0.38748 0.0
H1202 H 0.07375 0.27895 0.34878 0.0
C1203 C 0.07223 0.26982 0.39865 0.0
H1204 H 0.02846 0.24231 0.3604 0.0
C1205 C 0.0983 0.29065 0.39194 0.0
C1206 C 0.09945 0.29425 0.37388 0.0
H1207 H 0.07224 0.26776 0.41262 0.0
H1208 H 0.11765 0.30374 0.40095 0.0
C1209 C 0.07366 0.27691 0.36275 0.0
C1210 C 0.78205 0.80747 0.36807 0.0
C1211 C 0.79468 0.81757 0.38535 0.0
H1212 H 0.75066 0.80429 0.34811 0.0
C1213 C 0.78338 0.83145 0.3962 0.0
H1214 H 0.78975 0.79613 0.35946 0.0
C1215 C 0.76065 0.83598 0.3897 0.0
C1216 C 0.74874 0.82671 0.37222 0.0
H1217 H 0.7927 0.83963 0.40955 0.0
H1218 H 0.75297 0.84742 0.39826 0.0
C1219 C 0.75944 0.812 0.36159 0.0
C1220 C 0.23102 0.96799 0.38695 0.0
C1221 C 0.21093 0.97835 0.38804 0.0
H1222 H 0.23948 0.93439 0.37602 0.0
C1223 C 0.18326 0.9619 0.37852 0.0
H1224 H 0.2524 0.97991 0.39425 0.0
C1225 C 0.17584 0.93578 0.36823 0.0
C1226 C 0.19586 0.92543 0.36721 0.0
H1227 H 0.16739 0.9694 0.37885 0.0
H1228 H 0.15434 0.92367 0.36107 0.0
C1229 C 0.22355 0.94179 0.37664 0.0
C1230 C 0.57291 0.73596 0.32655 0.0
C1231 C 0.58456 0.72103 0.31697 0.0
H1232 H 0.58176 0.77342 0.34403 0.0
C1233 C 0.61533 0.73332 0.31801 0.0
H1234 H 0.54935 0.72697 0.32627 0.0
C1235 C 0.63392 0.75991 0.32833 0.0
C1236 C 0.62215 0.77477 0.3378 0.0
H1237 H 0.6251 0.72263 0.31065 0.0
H1238 H 0.65749 0.7688 0.32891 0.0
C1239 C 0.59148 0.7625 0.33683 0.0
C1240 C 0.32477 0.89829 0.33768 0.0
C1241 C 0.32522 0.88917 0.32019 0.0
H1242 H 0.29896 0.89968 0.35799 0.0
C1243 C 0.29869 0.87516 0.30941 0.0
H1244 H 0.34486 0.90967 0.34628 0.0
C1245 C 0.27224 0.86958 0.31612 0.0
C1246 C 0.27172 0.8779 0.33378 0.0
H1247 H 0.29817 0.86766 0.29591 0.0
H1248 H 0.25213 0.85814 0.30755 0.0
C1249 C 0.2984 0.89271 0.34438 0.0
C1250 C 0.19635 0.47026 0.33751 0.0
C1251 C 0.16888 0.46034 0.32828 0.0
H1252 H 0.22327 0.45901 0.35352 0.0
C1253 C 0.14721 0.43003 0.32808 0.0
H1254 H 0.21341 0.49349 0.33818 0.0
C1255 C 0.15287 0.41022 0.33699 0.0
C1256 C 0.18026 0.42037 0.34634 0.0
H1257 H 0.12589 0.42161 0.32099 0.0
H1258 H 0.13574 0.38708 0.33671 0.0
C1259 C 0.20194 0.45054 0.34644 0.0
C1260 C 0.29658 0.43167 0.3103 0.0
C1261 C 0.32226 0.44943 0.32148 0.0
H1262 H 0.25102 0.39811 0.30797 0.0
C1263 C 0.32114 0.4454 0.3395 0.0
H1264 H 0.29666 0.43368 0.29632 0.0
C1265 C 0.29494 0.42464 0.34619 0.0
C1266 C 0.26914 0.40749 0.33505 0.0
H1267 H 0.34029 0.4589 0.34858 0.0
H1268 H 0.29479 0.42262 0.36017 0.0
C1269 C 0.27039 0.41106 0.31699 0.0
C1270 C 0.59487 0.8981 0.32795 0.0
C1271 C 0.59081 0.89474 0.30954 0.0
H1272 H 0.61645 0.89309 0.35097 0.0
C1273 C 0.60529 0.88259 0.30025 0.0
H1274 H 0.58408 0.90748 0.33548 0.0
C1275 C 0.62368 0.87443 0.30903 0.0
C1276 C 0.62823 0.87815 0.32742 0.0
H1277 H 0.60225 0.87915 0.28609 0.0
H1278 H 0.63444 0.86528 0.30128 0.0
C1279 C 0.61351 0.88999 0.33681 0.0
C1280 C 0.14432 0.73312 0.32189 0.0
C1281 C 0.16464 0.72322 0.31996 0.0
H1282 H 0.13568 0.76581 0.33399 0.0
C1283 C 0.19256 0.7396 0.32921 0.0
H1284 H 0.12274 0.72127 0.31482 0.0
C1285 C 0.19999 0.7652 0.34006 0.0
C1286 C 0.17973 0.7751 0.34189 0.0
H1287 H 0.20863 0.73245 0.32822 0.0
H1288 H 0.22169 0.77731 0.34698 0.0
C1289 C 0.15179 0.75878 0.33274 0.0
C1290 C 0.80059 0.96532 0.37839 0.0
C1291 C 0.78844 0.98031 0.38743 0.0
H1292 H 0.7927 0.92862 0.3605 0.0
C1293 C 0.75787 0.96897 0.38497 0.0
H1294 H 0.82405 0.9736 0.37979 0.0
C1295 C 0.73993 0.94326 0.37381 0.0
C1296 C 0.75216 0.92832 0.36489 0.0
H1297 H 0.74771 0.97972 0.39187 0.0
H1298 H 0.7165 0.93509 0.37217 0.0
C1299 C 0.78266 0.93965 0.36724 0.0
C1300 C 0.0812 0.81567 0.40487 0.0
C1301 C 0.0539 0.80578 0.3955 0.0
H1302 H 0.1269 0.83089 0.40396 0.0
C1303 C 0.05251 0.80402 0.37707 0.0
H1304 H 0.08326 0.81782 0.41905 0.0
C1305 C 0.07788 0.81173 0.36827 0.0
C1306 C 0.10517 0.82162 0.37774 0.0
H1307 H 0.03176 0.79637 0.36946 0.0
H1308 H 0.07616 0.81014 0.35409 0.0
C1309 C 0.10639 0.82344 0.39615 0.0
C1310 C 0.22208 0.27005 0.37813 0.0
C1311 C 0.20134 0.23932 0.37607 0.0
H1312 H 0.23233 0.3141 0.37218 0.0
C1313 C 0.17388 0.22986 0.36697 0.0
H1314 H 0.24348 0.27805 0.385 0.0
C1315 C 0.16758 0.25036 0.35968 0.0
C1316 C 0.18854 0.28091 0.36129 0.0
H1317 H 0.15717 0.20647 0.36543 0.0
H1318 H 0.14628 0.24218 0.35262 0.0
C1319 C 0.21576 0.29067 0.37076 0.0
C1320 C 0.71441 0.59116 0.70117 0.0
C1321 C 0.71329 0.58707 0.71919 0.0
H1322 H 0.74075 0.61407 0.68052 0.0
C1323 C 0.73892 0.60489 0.73038 0.0
H1324 H 0.69528 0.57762 0.69208 0.0
C1325 C 0.7651 0.6256 0.72371 0.0
C1326 C 0.76636 0.62922 0.70566 0.0
H1327 H 0.73885 0.60283 0.74436 0.0
H1328 H 0.78445 0.63856 0.73275 0.0
C1329 C 0.74058 0.61202 0.6945 0.0
C1330 C 0.44849 0.14075 0.70231 0.0
C1331 C 0.46108 0.15081 0.71959 0.0
H1332 H 0.4171 0.13755 0.68235 0.0
C1333 C 0.44969 0.16457 0.73047 0.0
H1334 H 0.45625 0.12948 0.69368 0.0
C1335 C 0.42693 0.16906 0.72398 0.0
C1336 C 0.41507 0.15984 0.70649 0.0
H1337 H 0.45898 0.1727 0.74383 0.0
H1338 H 0.41918 0.18042 0.73254 0.0
C1339 C 0.42585 0.14523 0.69584 0.0
C1340 C 0.84918 0.29437 0.71193 0.0
C1341 C 0.87682 0.31087 0.72147 0.0
H1342 H 0.82015 0.25584 0.69474 0.0
C1343 C 0.89675 0.30025 0.72068 0.0
H1344 H 0.83344 0.30204 0.71202 0.0
C1345 C 0.88915 0.27375 0.71065 0.0
C1346 C 0.86148 0.25736 0.70119 0.0
H1347 H 0.9181 0.31221 0.72801 0.0
H1348 H 0.90494 0.26616 0.71025 0.0
C1349 C 0.84162 0.26796 0.70193 0.0
C1350 C 0.28219 0.0669 0.65146 0.0
C1351 C 0.25144 0.05474 0.65013 0.0
H1352 H 0.32419 0.10204 0.66282 0.0
C1353 C 0.23964 0.0696 0.65964 0.0
H1354 H 0.29208 0.05626 0.64417 0.0
C1355 C 0.25806 0.09591 0.67016 0.0
C1356 C 0.28872 0.10803 0.67143 0.0
H1357 H 0.21609 0.06072 0.65914 0.0
H1358 H 0.24823 0.10677 0.67731 0.0
C1359 C 0.30063 0.09326 0.66202 0.0
C1360 C 0.96321 0.20594 0.64288 0.0
C1361 C 0.98983 0.21954 0.65358 0.0
H1362 H 0.91674 0.18943 0.64124 0.0
C1363 C 0.98962 0.22847 0.67115 0.0
H1364 H 0.9625 0.1986 0.62932 0.0
C1365 C 0.96342 0.22308 0.67801 0.0
C1366 C 0.93664 0.20868 0.66748 0.0
H1367 H 1.00978 0.23954 0.67969 0.0
H1368 H 0.96417 0.2299 0.69168 0.0
C1369 C 0.93692 0.20055 0.64975 0.0
C1370 C 0.86437 0.80699 0.67221 0.0
C1371 C 0.83723 0.79777 0.66276 0.0
H1372 H 0.89099 0.79441 0.6874 0.0
C1373 C 0.81604 0.76717 0.66097 0.0
H1374 H 0.88142 0.83026 0.67356 0.0
C1375 C 0.82161 0.74647 0.66893 0.0
C1376 C 0.8485 0.75601 0.67874 0.0
H1377 H 0.79486 0.75932 0.65385 0.0
H1378 H 0.80471 0.72316 0.66767 0.0
C1379 C 0.86991 0.7864 0.68009 0.0
C1380 C 0.98955 0.77545 0.67164 0.0
C1381 C 0.99028 0.78458 0.6546 0.0
H1382 H 0.96327 0.74834 0.69112 0.0
C1383 C 0.96383 0.77149 0.64377 0.0
H1384 H 1.00954 0.78466 0.68026 0.0
C1385 C 0.93729 0.75047 0.64997 0.0
C1386 C 0.93646 0.74196 0.66717 0.0
H1387 H 0.96343 0.77816 0.63065 0.0
H1388 H 0.91731 0.74139 0.64135 0.0
C1389 C 0.963 0.75444 0.67785 0.0
C1390 C 0.2599 0.22947 0.66186 0.0
C1391 C 0.25665 0.22701 0.64344 0.0
H1392 H 0.28101 0.22403 0.68496 0.0
C1393 C 0.27221 0.21611 0.63418 0.0
H1394 H 0.24826 0.23788 0.66937 0.0
C1395 C 0.29081 0.20825 0.64301 0.0
C1396 C 0.2945 0.21104 0.66142 0.0
H1397 H 0.26985 0.21339 0.62 0.0
H1398 H 0.3024 0.20006 0.63528 0.0
C1399 C 0.27876 0.22169 0.67078 0.0
C1400 C 0.80842 0.06511 0.65551 0.0
C1401 C 0.82829 0.05466 0.65347 0.0
H1402 H 0.80038 0.09794 0.668 0.0
C1403 C 0.85614 0.07034 0.66286 0.0
H1404 H 0.78665 0.05337 0.64867 0.0
C1405 C 0.86398 0.0959 0.67389 0.0
C1406 C 0.84416 0.10635 0.67581 0.0
H1407 H 0.87213 0.06318 0.66145 0.0
H1408 H 0.8857 0.10763 0.6808 0.0
C1409 C 0.81625 0.09062 0.66659 0.0
C1410 C 0.42392 0.30283 0.71882 0.0
C1411 C 0.45461 0.31477 0.72095 0.0
H1412 H 0.38249 0.26807 0.70658 0.0
C1413 C 0.4669 0.29991 0.71194 0.0
H1414 H 0.41364 0.31345 0.72572 0.0
C1415 C 0.449 0.2738 0.70112 0.0
C1416 C 0.4184 0.2619 0.69906 0.0
H1417 H 0.49045 0.30863 0.71308 0.0
H1418 H 0.45917 0.26291 0.69436 0.0
C1419 C 0.40601 0.27668 0.70799 0.0
C1420 C 0.7181 0.13586 0.71158 0.0
C1421 C 0.71967 0.13813 0.73002 0.0
H1422 H 0.74154 0.14146 0.68856 0.0
C1423 C 0.7471 0.14846 0.73934 0.0
H1424 H 0.69727 0.12786 0.70401 0.0
C1425 C 0.77223 0.15613 0.73058 0.0
C1426 C 0.77082 0.15377 0.71217 0.0
H1427 H 0.7493 0.15101 0.75352 0.0
H1428 H 0.79283 0.16391 0.73836 0.0
C1429 C 0.74342 0.14349 0.70274 0.0
C1430 C 0.84006 0.56374 0.69918 0.0
C1431 C 0.86751 0.57303 0.70825 0.0
H1432 H 0.81266 0.57632 0.68483 0.0
C1433 C 0.88844 0.60371 0.71024 0.0
H1434 H 0.82321 0.5404 0.6977 0.0
C1435 C 0.88231 0.62444 0.70284 0.0
C1436 C 0.8551 0.61485 0.6934 0.0
H1437 H 0.90984 0.61159 0.71708 0.0
H1438 H 0.89902 0.64783 0.70422 0.0
C1439 C 0.83396 0.58437 0.69186 0.0
C1440 C 0.46491 0.958 0.15625 0.0
C1441 C 0.48457 0.96911 0.17141 0.0
H1442 H 0.45916 0.95759 0.1284 0.0
C1443 C 0.51443 0.9894 0.16969 0.0
H1444 H 0.44184 0.94202 0.15706 0.0
C1445 C 0.52435 0.99844 0.15326 0.0
C1446 C 0.50473 0.98736 0.13808 0.0
H1447 H 0.53011 0.99879 0.1811 0.0
H1448 H 0.54739 1.01461 0.15254 0.0
C1449 C 0.47486 0.96697 0.1398 0.0
C1450 C 0.08951 0.55737 0.16096 0.0
C1451 C 0.07281 0.53433 0.17156 0.0
H1452 H 0.09198 0.57529 0.13609 0.0
C1453 C 0.04506 0.51105 0.16465 0.0
H1454 H 0.11108 0.5755 0.16582 0.0
C1455 C 0.03421 0.51085 0.14762 0.0
C1456 C 0.05085 0.53388 0.13702 0.0
H1457 H 0.03149 0.49309 0.1725 0.0
H1458 H 1.0128 0.49248 0.14272 0.0
C1459 C 0.07871 0.55709 0.14386 0.0
C1460 C 0.46947 0.52362 0.15701 0.0
C1461 C 0.48837 0.53463 0.17249 0.0
H1462 H 0.46538 0.5152 0.12912 0.0
C1463 C 0.51876 0.54669 0.17124 0.0
H1464 H 0.44599 0.51449 0.15745 0.0
C1465 C 0.52992 0.54739 0.15497 0.0
C1466 C 0.511 0.53604 0.13951 0.0
H1467 H 0.53396 0.55511 0.18287 0.0
H1468 H 0.55345 0.55691 0.15452 0.0
C1469 C 0.48064 0.52435 0.14073 0.0
C1470 C 0.95058 0.48323 0.87314 0.0
C1471 C 0.96671 0.50692 0.86281 0.0
H1472 H 0.94867 0.46469 0.89773 0.0
C1473 C 0.99388 0.53086 0.86998 0.0
H1474 H 0.92944 0.46459 0.86808 0.0
C1475 C 1.00481 0.53099 0.88697 0.0
C1476 C 0.98879 0.50723 0.89727 0.0
H1477 H 1.00698 0.54933 0.86234 0.0
H1478 H 0.0258 0.5498 0.89209 0.0
C1479 C 0.96145 0.48344 0.8902 0.0
C1480 C 0.55269 0.52792 0.87758 0.0
C1481 C 0.55046 0.50231 0.86885 0.0
H1482 H 0.54464 0.54707 0.90052 0.0
C1483 C 0.53814 0.47574 0.87732 0.0
H1484 H 0.56154 0.54863 0.87137 0.0
C1485 C 0.5283 0.47483 0.89405 0.0
C1486 C 0.53063 0.50048 0.90276 0.0
H1487 H 0.53649 0.4557 0.87115 0.0
H1488 H 0.51923 0.45411 0.90026 0.0
C1489 C 0.54298 0.52703 0.89432 0.0
C1490 C 0.54669 0.08722 0.8831 0.0
C1491 C 0.53277 0.06782 0.86791 0.0
H1492 H 0.55185 0.09223 0.91114 0.0
C1493 C 0.51273 0.03765 0.86976 0.0
H1494 H 0.56249 0.11054 0.88214 0.0
C1495 C 0.50644 0.0272 0.88636 0.0
C1496 C 0.52015 0.04659 0.90159 0.0
H1497 H 0.50122 0.0222 0.85835 0.0
H1498 H 0.49022 1.00399 0.88722 0.0
C1499 C 0.54051 0.07673 0.89974 0.0
C1500 C 0.18129 0.31856 0.50298 0.0
C1501 C 0.15097 0.30024 0.50456 0.0
H1502 H 0.21525 0.34269 0.48615 0.0
C1503 C 0.13143 0.29207 0.48945 0.0
H1504 H 0.197 0.32558 0.51432 0.0
C1505 C 0.1419 0.30228 0.47328 0.0
C1506 C 0.1722 0.32094 0.47177 0.0
H1507 H 0.10798 0.27769 0.4901 0.0
H1508 H 0.12615 0.296 0.46203 0.0
C1509 C 0.19174 0.32872 0.48682 0.0
C1510 C 0.71598 0.84209 0.49839 0.0
C1511 C 0.7427 0.86648 0.50576 0.0
H1512 H 0.68454 0.82262 0.47607 0.0
C1513 C 0.75847 0.89047 0.49555 0.0
H1514 H 0.70312 0.82336 0.50592 0.0
C1515 C 0.74773 0.89009 0.47842 0.0
C1516 C 0.72084 0.86583 0.47114 0.0
H1517 H 0.77925 0.90947 0.50076 0.0
H1518 H 0.76023 0.90906 0.47098 0.0
C1519 C 0.70518 0.8418 0.48132 0.0
C1520 C 0.18436 0.87877 0.50466 0.0
C1521 C 0.15393 0.86611 0.50607 0.0
H1522 H 0.2189 0.88935 0.48778 0.0
C1523 C 0.13481 0.85428 0.49069 0.0
H1524 H 0.19974 0.88784 0.51621 0.0
C1525 C 0.14581 0.85484 0.47436 0.0
C1526 C 0.17621 0.86719 0.47299 0.0
H1527 H 0.11128 0.84466 0.49125 0.0
H1528 H 0.1304 0.84509 0.46285 0.0
C1529 C 0.19534 0.87931 0.48835 0.0
C1530 C 0.61561 0.81485 0.20698 0.0
C1531 C 0.63127 0.83869 0.19666 0.0
H1532 H 0.61429 0.79639 0.23154 0.0
C1533 C 0.65817 0.86303 0.20383 0.0
H1534 H 0.59468 0.79589 0.20192 0.0
C1535 C 0.66931 0.86338 0.22081 0.0
C1536 C 0.65379 0.83946 0.23109 0.0
H1537 H 0.67092 0.88165 0.1962 0.0
H1538 H 0.69011 0.88249 0.22592 0.0
C1539 C 0.62669 0.81528 0.22402 0.0
C1540 C 0.23733 0.8433 0.21774 0.0
C1541 C 0.21771 0.83144 0.20256 0.0
H1542 H 0.24275 0.8527 0.24559 0.0
C1543 C 0.18739 0.81879 0.20439 0.0
H1544 H 0.26078 0.8529 0.21688 0.0
C1545 C 0.17702 0.81836 0.2209 0.0
C1546 C 0.19665 0.8306 0.23605 0.0
H1547 H 0.17163 0.80969 0.19302 0.0
H1548 H 0.15352 0.80837 0.22177 0.0
C1549 C 0.22694 0.84286 0.23426 0.0
C1550 C 0.18477 0.36629 0.20353 0.0
C1551 C 0.19838 0.39665 0.20051 0.0
H1552 H 0.16832 0.33365 0.22224 0.0
C1553 C 0.20717 0.41783 0.21498 0.0
H1554 H 0.17799 0.34939 0.19273 0.0
C1555 C 0.20186 0.40881 0.23198 0.0
C1556 C 0.18772 0.37838 0.23495 0.0
H1557 H 0.21747 0.44138 0.21313 0.0
H1558 H 0.20875 0.42569 0.24279 0.0
C1559 C 0.17952 0.35728 0.22051 0.0
C1560 C 0.82551 0.62188 0.82567 0.0
C1561 C 0.81578 0.63734 0.83649 0.0
H1562 H 0.8433 0.61955 0.80145 0.0
C1563 C 0.81636 0.66283 0.83058 0.0
H1564 H 0.82511 0.60201 0.82974 0.0
C1565 C 0.82667 0.6728 0.81437 0.0
C1566 C 0.83654 0.65746 0.80359 0.0
H1567 H 0.80928 0.67543 0.83863 0.0
H1568 H 0.82679 0.69252 0.81024 0.0
C1569 C 0.83565 0.63175 0.80938 0.0
C1570 C 0.38065 0.17461 0.83277 0.0
C1571 C 0.40753 0.19877 0.84014 0.0
H1572 H 0.34923 0.15537 0.81044 0.0
C1573 C 0.42356 0.22265 0.82991 0.0
H1574 H 0.36758 0.15597 0.8403 0.0
C1575 C 0.41295 0.22236 0.81275 0.0
C1576 C 0.38592 0.1983 0.80546 0.0
H1577 H 0.44448 0.24148 0.83511 0.0
H1578 H 0.42567 0.24124 0.8053 0.0
C1579 C 0.36998 0.1744 0.81568 0.0
C1580 C 0.80053 0.18618 0.82459 0.0
C1581 C 0.81956 0.19767 0.84002 0.0
H1582 H 0.79626 0.1773 0.79672 0.0
C1583 C 0.84997 0.21002 0.83867 0.0
H1584 H 0.77703 0.1768 0.82509 0.0
C1585 C 0.86102 0.21058 0.82238 0.0
C1586 C 0.84199 0.19882 0.80697 0.0
H1587 H 0.86527 0.21881 0.85026 0.0
H1588 H 0.88458 0.22037 0.82187 0.0
C1589 C 0.81161 0.18678 0.80828 0.0
C1590 C 0.32702 0.19719 0.53791 0.0
C1591 C 0.29988 0.1732 0.53076 0.0
H1592 H 0.35894 0.21622 0.56002 0.0
C1593 C 0.28378 0.14953 0.5411 0.0
H1594 H 0.3401 0.21565 0.53026 0.0
C1595 C 0.29467 0.14979 0.55816 0.0
C1596 C 0.32199 0.17363 0.56522 0.0
H1597 H 0.26266 0.13085 0.53605 0.0
H1598 H 0.28192 0.13105 0.56571 0.0
C1599 C 0.33796 0.19737 0.55491 0.0
C1600 C 0.90223 0.17388 0.55242 0.0
C1601 C 0.88276 0.16204 0.53718 0.0
H1602 H 0.90733 0.18324 0.58026 0.0
C1603 C 0.8524 0.14923 0.53888 0.0
H1604 H 0.92572 0.18358 0.55165 0.0
C1605 C 0.84183 0.14872 0.55533 0.0
C1606 C 0.86131 0.16101 0.57054 0.0
H1607 H 0.83676 0.14014 0.52745 0.0
H1608 H 0.8183 0.13867 0.55611 0.0
C1609 C 0.89165 0.17335 0.56888 0.0
C1610 C 0.858 0.75138 0.5471 0.0
C1611 C 0.86943 0.73926 0.53507 0.0
H1612 H 0.84237 0.75026 0.57248 0.0
C1613 C 0.87527 0.71699 0.54031 0.0
H1614 H 0.85278 0.76822 0.54346 0.0
C1615 C 0.86911 0.70658 0.55695 0.0
C1616 C 0.85707 0.71824 0.5688 0.0
H1617 H 0.88456 0.70752 0.53155 0.0
H1618 H 0.87374 0.68931 0.56052 0.0
C1619 C 0.85198 0.74106 0.56376 0.0
loop_
_geom_bond_atom_site_label_1
_geom_bond_atom_site_label_2
_geom_bond_distance
_geom_bond_site_symmetry_2
_ccdc_geom_bond_type
C0 C1 1.264 . S
C0 C5 1.479 . S
C0 C10 1.465 . S
C1 C0 1.264 . S
C1 C3 1.339 . S
C1 H28 0.931 . S
C2 C3 1.395 . S
C2 C4 1.320 . S
C3 C1 1.339 . S
C3 C2 1.395 . S
C3 H29 0.929 . S
C4 C2 1.320 . S
C4 C5 1.405 . S
C4 H30 0.930 . S
C5 C0 1.479 . S
C5 C4 1.405 . S
C5 H31 0.931 . S
U6 O7 2.454 . S
U6 O8 2.458 . S
U6 C9 2.984 . S
U6 C10 2.847 . S
U6 C23 2.882 . S
U6 O24 2.441 . S
U6 O25 2.420 . S
U6 O26 2.455 . S
U6 O27 2.449 . S
O7 U6 2.454 . S
O7 C9 1.353 . S
O8 U6 2.458 . S
O8 C9 1.286 . S
C9 U6 2.984 . S
C9 O7 1.353 . S
C9 O8 1.286 . S
C9 C11 1.363 . S
C10 C0 1.465 . S
C10 U6 2.847 . S
C10 O24 1.249 . S
C10 O25 1.202 . S
C11 C9 1.363 . S
C11 C13 1.408 . S
C11 C16 1.342 . S
C12 C13 1.310 . S
C12 C15 1.461 . S
C12 H32 0.932 . S
C13 C11 1.408 . S
C13 C12 1.310 . S
C13 H33 0.930 . S
C14 C15 1.474 . S
C14 C16 1.285 . S
C14 H34 0.929 . S
C15 C12 1.461 . S
C15 C14 1.474 . S
C16 C11 1.342 . S
C16 C14 1.285 . S
C16 H35 0.930 . S
C17 C20 1.424 . S
C17 C22 1.245 . S
C17 C23 1.428 . S
C18 C21 1.260 . S
C18 C22 1.477 . S
C18 H36 0.932 . S
C19 C20 1.384 . S
C19 C21 1.479 . S
C19 H37 0.929 . S
C20 C17 1.424 . S
C20 C19 1.384 . S
C20 H38 0.928 . S
C21 C18 1.260 . S
C21 C19 1.479 . S
C22 C17 1.245 . S
C22 C18 1.477 . S
C22 H39 0.932 . S
C23 U6 2.882 . S
C23 C17 1.428 . S
C23 O26 1.301 . S
C23 O27 1.282 . S
O24 U6 2.441 . S
O24 C10 1.249 . S
O25 U6 2.420 . S
O25 C10 1.202 . S
O26 U6 2.455 . S
O26 C23 1.301 . S
O27 U6 2.449 . S
O27 C23 1.282 . S
H28 C1 0.931 . S
H29 C3 0.929 . S
H30 C4 0.930 . S
H31 C5 0.931 . S
H32 C12 0.932 . S
H33 C13 0.930 . S
H34 C14 0.929 . S
H35 C16 0.930 . S
H36 C18 0.932 . S
H37 C19 0.929 . S
H38 C20 0.928 . S
H39 C22 0.932 . S
C40 C41 1.264 . S
C40 C45 1.479 . S
C40 C50 1.465 . S
C41 C40 1.264 . S
C41 C43 1.339 . S
C41 H68 0.931 . S
C42 C43 1.395 . S
C42 C44 1.320 . S
C43 C41 1.339 . S
C43 C42 1.395 . S
C43 H69 0.929 . S
C44 C42 1.320 . S
C44 C45 1.405 . S
C44 H70 0.930 . S
C45 C40 1.479 . S
C45 C44 1.405 . S
C45 H71 0.931 . S
U46 O47 2.454 . S
U46 O48 2.458 . S
U46 C49 2.984 . S
U46 C50 2.847 . S
U46 C63 2.882 . S
U46 O64 2.441 . S
U46 O65 2.420 . S
U46 O66 2.455 . S
U46 O67 2.449 . S
O47 U46 2.454 . S
O47 C49 1.353 . S
O48 U46 2.458 . S
O48 C49 1.286 . S
C49 U46 2.984 . S
C49 O47 1.353 . S
C49 O48 1.286 . S
C49 C51 1.363 . S
C50 C40 1.465 . S
C50 U46 2.847 . S
C50 O64 1.249 . S
C50 O65 1.202 . S
C51 C49 1.363 . S
C51 C53 1.408 . S
C51 C56 1.342 . S
C52 C53 1.310 . S
C52 C55 1.461 . S
C52 H72 0.932 . S
C53 C51 1.408 . S
C53 C52 1.310 . S
C53 H73 0.930 . S
C54 C55 1.474 . S
C54 C56 1.285 . S
C54 H74 0.929 . S
C55 C52 1.461 . S
C55 C54 1.474 . S
C56 C51 1.342 . S
C56 C54 1.285 . S
C56 H75 0.930 . S
C57 C60 1.424 . S
C57 C62 1.245 . S
C57 C63 1.428 . S
C58 C61 1.260 . S
C58 C62 1.477 . S
C58 H76 0.932 . S
C59 C60 1.384 . S
C59 C61 1.479 . S
C59 H77 0.929 . S
C60 C57 1.424 . S
C60 C59 1.384 . S
C60 H78 0.928 . S
C61 C58 1.260 . S
C61 C59 1.479 . S
C62 C57 1.245 . S
C62 C58 1.477 . S
C62 H79 0.932 . S
C63 U46 2.882 . S
C63 C57 1.428 . S
C63 O66 1.301 . S
C63 O67 1.282 . S
O64 U46 2.441 . S
O64 C50 1.249 . S
O65 U46 2.420 . S
O65 C50 1.202 . S
O66 U46 2.455 . S
O66 C63 1.301 . S
O67 U46 2.449 . S
O67 C63 1.282 . S
H68 C41 0.931 . S
H69 C43 0.929 . S
H70 C44 0.930 . S
H71 C45 0.931 . S
H72 C52 0.932 . S
H73 C53 0.930 . S
H74 C54 0.929 . S
H75 C56 0.930 . S
H76 C58 0.932 . S
H77 C59 0.929 . S
H78 C60 0.928 . S
H79 C62 0.932 . S
C80 C81 1.264 . S
C80 C85 1.479 . S
C80 C90 1.465 . S
C81 C80 1.264 . S
C81 C83 1.339 . S
C81 H108 0.931 . S
C82 C83 1.395 . S
C82 C84 1.320 . S
C83 C81 1.339 . S
C83 C82 1.395 . S
C83 H109 0.929 . S
C84 C82 1.320 . S
C84 C85 1.405 . S
C84 H110 0.930 . S
C85 C80 1.479 . S
C85 C84 1.405 . S
C85 H111 0.931 . S
U86 O87 2.454 . S
U86 O88 2.458 . S
U86 C89 2.984 . S
U86 C90 2.847 . S
U86 C103 2.882 . S
U86 O104 2.441 . S
U86 O105 2.420 . S
U86 O106 2.455 . S
U86 O107 2.449 . S
O87 U86 2.454 . S
O87 C89 1.353 . S
O88 U86 2.458 . S
O88 C89 1.286 . S
C89 U86 2.984 . S
C89 O87 1.353 . S
C89 O88 1.286 . S
C89 C91 1.363 . S
C90 C80 1.465 . S
C90 U86 2.847 . S
C90 O104 1.249 . S
C90 O105 1.202 . S
C91 C89 1.363 . S
C91 C93 1.408 . S
C91 C96 1.342 . S
C92 C93 1.310 . S
C92 C95 1.461 1_655 S
C92 H112 0.932 . S
C93 C91 1.408 . S
C93 C92 1.310 . S
C93 H113 0.930 . S
C94 C95 1.474 . S
C94 C96 1.285 1_455 S
C94 H114 0.929 . S
C95 C92 1.461 1_455 S
C95 C94 1.474 . S
C96 C91 1.342 . S
C96 C94 1.285 1_655 S
C96 H115 0.930 . S
C97 C100 1.424 . S
C97 C102 1.245 . S
C97 C103 1.428 . S
C98 C101 1.260 . S
C98 C102 1.477 . S
C98 H116 0.932 . S
C99 C100 1.384 . S
C99 C101 1.479 . S
C99 H117 0.929 . S
C100 C97 1.424 . S
C100 C99 1.384 . S
C100 H118 0.928 . S
C101 C98 1.260 . S
C101 C99 1.479 . S
C102 C97 1.245 . S
C102 C98 1.477 . S
C102 H119 0.932 . S
C103 U86 2.882 . S
C103 C97 1.428 . S
C103 O106 1.301 . S
C103 O107 1.282 . S
O104 U86 2.441 . S
O104 C90 1.249 . S
O105 U86 2.420 . S
O105 C90 1.202 . S
O106 U86 2.455 . S
O106 C103 1.301 . S
O107 U86 2.449 . S
O107 C103 1.282 . S
H108 C81 0.931 . S
H109 C83 0.929 . S
H110 C84 0.930 . S
H111 C85 0.931 . S
H112 C92 0.932 . S
H113 C93 0.930 . S
H114 C94 0.929 . S
H115 C96 0.930 . S
H116 C98 0.932 . S
H117 C99 0.929 . S
H118 C100 0.928 . S
H119 C102 0.932 . S
C120 C121 1.264 . S
C120 C125 1.479 . S
C120 C130 1.465 . S
C121 C120 1.264 . S
C121 C123 1.339 . S
C121 H148 0.931 . S
C122 C123 1.395 1_655 S
C122 C124 1.320 1_655 S
C123 C121 1.339 . S
C123 C122 1.395 1_455 S
C123 H149 0.929 1_455 S
C124 C122 1.320 1_455 S
C124 C125 1.405 . S
C124 H150 0.930 . S
C125 C120 1.479 . S
C125 C124 1.405 . S
C125 H151 0.931 . S
U126 O127 2.454 . S
U126 O128 2.458 . S
U126 C129 2.984 . S
U126 C130 2.847 . S
U126 C143 2.882 . S
U126 O144 2.441 . S
U126 O145 2.420 . S
U126 O146 2.455 . S
U126 O147 2.449 . S
O127 U126 2.454 . S
O127 C129 1.353 . S
O128 U126 2.458 . S
O128 C129 1.286 . S
C129 U126 2.984 . S
C129 O127 1.353 . S
C129 O128 1.286 . S
C129 C131 1.363 . S
C130 C120 1.465 . S
C130 U126 2.847 . S
C130 O144 1.249 . S
C130 O145 1.202 . S
C131 C129 1.363 . S
C131 C133 1.408 . S
C131 C136 1.342 . S
C132 C133 1.310 . S
C132 C135 1.461 . S
C132 H152 0.932 . S
C133 C131 1.408 . S
C133 C132 1.310 . S
C133 H153 0.930 . S
C134 C135 1.474 . S
C134 C136 1.285 . S
C134 H154 0.929 . S
C135 C132 1.461 . S
C135 C134 1.474 . S
C136 C131 1.342 . S
C136 C134 1.285 . S
C136 H155 0.930 . S
C137 C140 1.424 . S
C137 C142 1.245 . S
C137 C143 1.428 . S
C138 C141 1.260 . S
C138 C142 1.477 . S
C138 H156 0.932 . S
C139 C140 1.384 . S
C139 C141 1.479 . S
C139 H157 0.929 . S
C140 C137 1.424 . S
C140 C139 1.384 . S
C140 H158 0.928 . S
C141 C138 1.260 . S
C141 C139 1.479 . S
C142 C137 1.245 . S
C142 C138 1.477 . S
C142 H159 0.932 . S
C143 U126 2.882 . S
C143 C137 1.428 . S
C143 O146 1.301 . S
C143 O147 1.282 . S
O144 U126 2.441 . S
O144 C130 1.249 . S
O145 U126 2.420 . S
O145 C130 1.202 . S
O146 U126 2.455 . S
O146 C143 1.301 . S
O147 U126 2.449 . S
O147 C143 1.282 . S
H148 C121 0.931 . S
H149 C123 0.929 1_655 S
H150 C124 0.930 . S
H151 C125 0.931 . S
H152 C132 0.932 . S
H153 C133 0.930 . S
H154 C134 0.929 . S
H155 C136 0.930 . S
H156 C138 0.932 . S
H157 C139 0.929 . S
H158 C140 0.928 . S
H159 C142 0.932 . S
C160 C161 1.264 . S
C160 C165 1.479 . S
C160 C170 1.465 . S
C161 C160 1.264 . S
C161 C163 1.339 . S
C161 H188 0.931 . S
C162 C163 1.395 . S
C162 C164 1.320 . S
C163 C161 1.339 . S
C163 C162 1.395 . S
C163 H189 0.929 . S
C164 C162 1.320 . S
C164 C165 1.405 . S
C164 H190 0.930 . S
C165 C160 1.479 . S
C165 C164 1.405 . S
C165 H191 0.931 . S
U166 O167 2.454 . S
U166 O168 2.458 . S
U166 C169 2.984 . S
U166 C170 2.847 . S
U166 C183 2.882 . S
U166 O184 2.441 . S
U166 O185 2.420 . S
U166 O186 2.455 . S
U166 O187 2.449 . S
O167 U166 2.454 . S
O167 C169 1.353 . S
O168 U166 2.458 . S
O168 C169 1.286 . S
C169 U166 2.984 . S
C169 O167 1.353 . S
C169 O168 1.286 . S
C169 C171 1.363 . S
C170 C160 1.465 . S
C170 U166 2.847 . S
C170 O184 1.249 . S
C170 O185 1.202 . S
C171 C169 1.363 . S
C171 C173 1.408 . S
C171 C176 1.342 . S
C172 C173 1.310 . S
C172 C175 1.461 . S
C172 H192 0.932 . S
C173 C171 1.408 . S
C173 C172 1.310 . S
C173 H193 0.930 . S
C174 C175 1.474 . S
C174 C176 1.285 . S
C174 H194 0.929 . S
C175 C172 1.461 . S
C175 C174 1.474 . S
C176 C171 1.342 . S
C176 C174 1.285 . S
C176 H195 0.930 . S
C177 C180 1.424 . S
C177 C182 1.245 . S
C177 C183 1.428 . S
C178 C181 1.260 . S
C178 C182 1.477 . S
C178 H196 0.932 . S
C179 C180 1.384 . S
C179 C181 1.479 . S
C179 H197 0.929 . S
C180 C177 1.424 . S
C180 C179 1.384 . S
C180 H198 0.928 . S
C181 C178 1.260 . S
C181 C179 1.479 . S
C182 C177 1.245 . S
C182 C178 1.477 . S
C182 H199 0.932 . S
C183 U166 2.882 . S
C183 C177 1.428 . S
C183 O186 1.301 . S
C183 O187 1.282 . S
O184 U166 2.441 . S
O184 C170 1.249 . S
O185 U166 2.420 . S
O185 C170 1.202 . S
O186 U166 2.455 . S
O186 C183 1.301 . S
O187 U166 2.449 . S
O187 C183 1.282 . S
H188 C161 0.931 . S
H189 C163 0.929 . S
H190 C164 0.930 . S
H191 C165 0.931 . S
H192 C172 0.932 . S
H193 C173 0.930 . S
H194 C174 0.929 . S
H195 C176 0.930 . S
H196 C178 0.932 . S
H197 C179 0.929 . S
H198 C180 0.928 . S
H199 C182 0.932 . S
C200 C201 1.264 . S
C200 C205 1.479 . S
C200 C210 1.465 . S
C201 C200 1.264 . S
C201 C203 1.339 . S
C201 H228 0.931 . S
C202 C203 1.395 . S
C202 C204 1.320 . S
C203 C201 1.339 . S
C203 C202 1.395 . S
C203 H229 0.929 1_455 S
C204 C202 1.320 . S
C204 C205 1.405 . S
C204 H230 0.930 . S
C205 C200 1.479 . S
C205 C204 1.405 . S
C205 H231 0.931 . S
U206 O207 2.454 . S
U206 O208 2.458 . S
U206 C209 2.984 . S
U206 C210 2.847 . S
U206 C223 2.882 . S
U206 O224 2.441 . S
U206 O225 2.420 . S
U206 O226 2.455 . S
U206 O227 2.449 . S
O207 U206 2.454 . S
O207 C209 1.353 . S
O208 U206 2.458 . S
O208 C209 1.286 . S
C209 U206 2.984 . S
C209 O207 1.353 . S
C209 O208 1.286 . S
C209 C211 1.363 . S
C210 C200 1.465 . S
C210 U206 2.847 . S
C210 O224 1.249 . S
C210 O225 1.202 . S
C211 C209 1.363 . S
C211 C213 1.408 . S
C211 C216 1.342 . S
C212 C213 1.310 . S
C212 C215 1.461 . S
C212 H232 0.932 . S
C213 C211 1.408 . S
C213 C212 1.310 . S
C213 H233 0.930 . S
C214 C215 1.474 . S
C214 C216 1.285 . S
C214 H234 0.929 . S
C215 C212 1.461 . S
C215 C214 1.474 . S
C216 C211 1.342 . S
C216 C214 1.285 . S
C216 H235 0.930 . S
C217 C220 1.424 . S
C217 C222 1.245 . S
C217 C223 1.428 . S
C218 C221 1.260 . S
C218 C222 1.477 . S
C218 H236 0.932 . S
C219 C220 1.384 . S
C219 C221 1.479 . S
C219 H237 0.929 . S
C220 C217 1.424 . S
C220 C219 1.384 . S
C220 H238 0.928 . S
C221 C218 1.260 . S
C221 C219 1.479 . S
C222 C217 1.245 . S
C222 C218 1.477 . S
C222 H239 0.932 . S
C223 U206 2.882 . S
C223 C217 1.428 . S
C223 O226 1.301 . S
C223 O227 1.282 . S
O224 U206 2.441 . S
O224 C210 1.249 . S
O225 U206 2.420 . S
O225 C210 1.202 . S
O226 U206 2.455 . S
O226 C223 1.301 . S
O227 U206 2.449 . S
O227 C223 1.282 . S
H228 C201 0.931 . S
H229 C203 0.929 1_655 S
H230 C204 0.930 . S
H231 C205 0.931 . S
H232 C212 0.932 . S
H233 C213 0.930 . S
H234 C214 0.929 . S
H235 C216 0.930 . S
H236 C218 0.932 . S
H237 C219 0.929 . S
H238 C220 0.928 . S
H239 C222 0.932 . S
C240 C241 1.264 . S
C240 C245 1.479 . S
C240 C250 1.465 . S
C241 C240 1.264 . S
C241 C243 1.339 . S
C241 H268 0.931 . S
C242 C243 1.395 . S
C242 C244 1.320 . S
C243 C241 1.339 . S
C243 C242 1.395 . S
C243 H269 0.929 . S
C244 C242 1.320 . S
C244 C245 1.405 . S
C244 H270 0.930 . S
C245 C240 1.479 . S
C245 C244 1.405 . S
C245 H271 0.931 . S
U246 O247 2.454 . S
U246 O248 2.458 . S
U246 C249 2.984 . S
U246 C250 2.847 . S
U246 C263 2.882 . S
U246 O264 2.441 . S
U246 O265 2.420 . S
U246 O266 2.455 . S
U246 O267 2.449 . S
O247 U246 2.454 . S
O247 C249 1.353 . S
O248 U246 2.458 . S
O248 C249 1.286 . S
C249 U246 2.984 . S
C249 O247 1.353 . S
C249 O248 1.286 . S
C249 C251 1.363 . S
C250 C240 1.465 . S
C250 U246 2.847 . S
C250 O264 1.249 . S
C250 O265 1.202 . S
C251 C249 1.363 . S
C251 C253 1.408 . S
C251 C256 1.342 . S
C252 C253 1.310 . S
C252 C255 1.461 . S
C252 H272 0.932 . S
C253 C251 1.408 . S
C253 C252 1.310 . S
C253 H273 0.930 . S
C254 C255 1.474 . S
C254 C256 1.285 . S
C254 H274 0.929 . S
C255 C252 1.461 . S
C255 C254 1.474 . S
C256 C251 1.342 . S
C256 C254 1.285 . S
C256 H275 0.930 . S
C257 C260 1.424 . S
C257 C262 1.245 . S
C257 C263 1.428 . S
C258 C261 1.260 . S
C258 C262 1.477 . S
C258 H276 0.932 . S
C259 C260 1.384 . S
C259 C261 1.479 . S
C259 H277 0.929 . S
C260 C257 1.424 . S
C260 C259 1.384 . S
C260 H278 0.928 . S
C261 C258 1.260 . S
C261 C259 1.479 . S
C262 C257 1.245 . S
C262 C258 1.477 . S
C262 H279 0.932 . S
C263 U246 2.882 . S
C263 C257 1.428 . S
C263 O266 1.301 . S
C263 O267 1.282 . S
O264 U246 2.441 . S
O264 C250 1.249 . S
O265 U246 2.420 . S
O265 C250 1.202 . S
O266 U246 2.455 . S
O266 C263 1.301 . S
O267 U246 2.449 . S
O267 C263 1.282 . S
H268 C241 0.931 . S
H269 C243 0.929 . S
H270 C244 0.930 . S
H271 C245 0.931 . S
H272 C252 0.932 . S
H273 C253 0.930 . S
H274 C254 0.929 . S
H275 C256 0.930 . S
H276 C258 0.932 . S
H277 C259 0.929 . S
H278 C260 0.928 . S
H279 C262 0.932 . S
C280 C281 1.264 . S
C280 C285 1.479 . S
C280 C290 1.465 . S
C281 C280 1.264 . S
C281 C283 1.339 . S
C281 H308 0.931 . S
C282 C283 1.395 . S
C282 C284 1.320 . S
C283 C281 1.339 . S
C283 C282 1.395 . S
C283 H309 0.929 . S
C284 C282 1.320 . S
C284 C285 1.405 . S
C284 H310 0.930 . S
C285 C280 1.479 . S
C285 C284 1.405 . S
C285 H311 0.931 . S
U286 O287 2.454 . S
U286 O288 2.458 . S
U286 C289 2.984 . S
U286 C290 2.847 . S
U286 C303 2.882 . S
U286 O304 2.441 . S
U286 O305 2.420 . S
U286 O306 2.455 . S
U286 O307 2.449 . S
O287 U286 2.454 . S
O287 C289 1.353 . S
O288 U286 2.458 . S
O288 C289 1.286 . S
C289 U286 2.984 . S
C289 O287 1.353 . S
C289 O288 1.286 . S
C289 C291 1.363 . S
C290 C280 1.465 . S
C290 U286 2.847 . S
C290 O304 1.249 . S
C290 O305 1.202 . S
C291 C289 1.363 . S
C291 C293 1.408 . S
C291 C296 1.342 . S
C292 C293 1.310 . S
C292 C295 1.461 . S
C292 H312 0.932 . S
C293 C291 1.408 . S
C293 C292 1.310 . S
C293 H313 0.930 . S
C294 C295 1.474 . S
C294 C296 1.285 . S
C294 H314 0.929 . S
C295 C292 1.461 . S
C295 C294 1.474 . S
C296 C291 1.342 . S
C296 C294 1.285 . S
C296 H315 0.930 . S
C297 C300 1.424 . S
C297 C302 1.245 . S
C297 C303 1.428 . S
C298 C301 1.260 . S
C298 C302 1.477 . S
C298 H316 0.932 . S
C299 C300 1.384 . S
C299 C301 1.479 . S
C299 H317 0.929 . S
C300 C297 1.424 . S
C300 C299 1.384 . S
C300 H318 0.928 . S
C301 C298 1.260 . S
C301 C299 1.479 . S
C302 C297 1.245 . S
C302 C298 1.477 . S
C302 H319 0.932 . S
C303 U286 2.882 . S
C303 C297 1.428 . S
C303 O306 1.301 . S
C303 O307 1.282 . S
O304 U286 2.441 . S
O304 C290 1.249 . S
O305 U286 2.420 . S
O305 C290 1.202 . S
O306 U286 2.455 . S
O306 C303 1.301 . S
O307 U286 2.449 . S
O307 C303 1.282 . S
H308 C281 0.931 . S
H309 C283 0.929 . S
H310 C284 0.930 . S
H311 C285 0.931 . S
H312 C292 0.932 . S
H313 C293 0.930 . S
H314 C294 0.929 . S
H315 C296 0.930 . S
H316 C298 0.932 . S
H317 C299 0.929 . S
H318 C300 0.928 . S
H319 C302 0.932 . S
C320 C321 1.264 . S
C320 C325 1.479 . S
C320 C330 1.465 . S
C321 C320 1.264 . S
C321 C323 1.339 . S
C321 H348 0.931 . S
C322 C323 1.395 . S
C322 C324 1.320 . S
C323 C321 1.339 . S
C323 C322 1.395 . S
C323 H349 0.929 . S
C324 C322 1.320 . S
C324 C325 1.405 . S
C324 H350 0.930 . S
C325 C320 1.479 . S
C325 C324 1.405 . S
C325 H351 0.931 . S
U326 O327 2.454 . S
U326 O328 2.458 . S
U326 C329 2.984 . S
U326 C330 2.847 . S
U326 C343 2.882 . S
U326 O344 2.441 . S
U326 O345 2.420 . S
U326 O346 2.455 . S
U326 O347 2.449 . S
O327 U326 2.454 . S
O327 C329 1.353 . S
O328 U326 2.458 . S
O328 C329 1.286 . S
C329 U326 2.984 . S
C329 O327 1.353 . S
C329 O328 1.286 . S
C329 C331 1.363 . S
C330 C320 1.465 . S
C330 U326 2.847 . S
C330 O344 1.249 . S
C330 O345 1.202 . S
C331 C329 1.363 . S
C331 C333 1.408 . S
C331 C336 1.342 . S
C332 C333 1.310 . S
C332 C335 1.461 . S
C332 H352 0.932 . S
C333 C331 1.408 . S
C333 C332 1.310 . S
C333 H353 0.930 . S
C334 C335 1.474 . S
C334 C336 1.285 . S
C334 H354 0.929 . S
C335 C332 1.461 . S
C335 C334 1.474 . S
C336 C331 1.342 . S
C336 C334 1.285 . S
C336 H355 0.930 . S
C337 C340 1.424 . S
C337 C342 1.245 . S
C337 C343 1.428 . S
C338 C341 1.260 . S
C338 C342 1.477 . S
C338 H356 0.932 . S
C339 C340 1.384 . S
C339 C341 1.479 . S
C339 H357 0.929 . S
C340 C337 1.424 . S
C340 C339 1.384 . S
C340 H358 0.928 . S
C341 C338 1.260 . S
C341 C339 1.479 . S
C342 C337 1.245 . S
C342 C338 1.477 . S
C342 H359 0.932 . S
C343 U326 2.882 . S
C343 C337 1.428 . S
C343 O346 1.301 . S
C343 O347 1.282 . S
O344 U326 2.441 . S
O344 C330 1.249 . S
O345 U326 2.420 . S
O345 C330 1.202 . S
O346 U326 2.455 . S
O346 C343 1.301 . S
O347 U326 2.449 . S
O347 C343 1.282 . S
H348 C321 0.931 . S
H349 C323 0.929 . S
H350 C324 0.930 . S
H351 C325 0.931 . S
H352 C332 0.932 . S
H353 C333 0.930 . S
H354 C334 0.929 . S
H355 C336 0.930 . S
H356 C338 0.932 . S
H357 C339 0.929 . S
H358 C340 0.928 . S
H359 C342 0.932 . S
C360 C361 1.264 . S
C360 C365 1.479 . S
C360 C370 1.465 . S
C361 C360 1.264 . S
C361 C363 1.339 . S
C361 H388 0.931 . S
C362 C363 1.395 . S
C362 C364 1.320 . S
C363 C361 1.339 . S
C363 C362 1.395 . S
C363 H389 0.929 . S
C364 C362 1.320 . S
C364 C365 1.405 . S
C364 H390 0.930 . S
C365 C360 1.479 . S
C365 C364 1.405 . S
C365 H391 0.931 . S
U366 O367 2.454 . S
U366 O368 2.458 . S
U366 C369 2.984 . S
U366 C370 2.847 . S
U366 C383 2.882 . S
U366 O384 2.441 . S
U366 O385 2.420 . S
U366 O386 2.455 . S
U366 O387 2.449 . S
O367 U366 2.454 . S
O367 C369 1.353 . S
O368 U366 2.458 . S
O368 C369 1.286 . S
C369 U366 2.984 . S
C369 O367 1.353 . S
C369 O368 1.286 . S
C369 C371 1.363 . S
C370 C360 1.465 . S
C370 U366 2.847 . S
C370 O384 1.249 . S
C370 O385 1.202 . S
C371 C369 1.363 . S
C371 C373 1.408 . S
C371 C376 1.342 . S
C372 C373 1.310 . S
C372 C375 1.461 . S
C372 H392 0.932 . S
C373 C371 1.408 . S
C373 C372 1.310 . S
C373 H393 0.930 . S
C374 C375 1.474 . S
C374 C376 1.285 . S
C374 H394 0.929 . S
C375 C372 1.461 . S
C375 C374 1.474 . S
C376 C371 1.342 . S
C376 C374 1.285 . S
C376 H395 0.930 . S
C377 C380 1.424 . S
C377 C382 1.245 . S
C377 C383 1.428 . S
C378 C381 1.260 . S
C378 C382 1.477 . S
C378 H396 0.932 . S
C379 C380 1.384 . S
C379 C381 1.479 . S
C379 H397 0.929 . S
C380 C377 1.424 . S
C380 C379 1.384 . S
C380 H398 0.928 . S
C381 C378 1.260 . S
C381 C379 1.479 . S
C382 C377 1.245 . S
C382 C378 1.477 . S
C382 H399 0.932 . S
C383 U366 2.882 . S
C383 C377 1.428 . S
C383 O386 1.301 . S
C383 O387 1.282 . S
O384 U366 2.441 . S
O384 C370 1.249 . S
O385 U366 2.420 . S
O385 C370 1.202 . S
O386 U366 2.455 . S
O386 C383 1.301 . S
O387 U366 2.449 . S
O387 C383 1.282 . S
H388 C361 0.931 . S
H389 C363 0.929 . S
H390 C364 0.930 . S
H391 C365 0.931 . S
H392 C372 0.932 . S
H393 C373 0.930 . S
H394 C374 0.929 . S
H395 C376 0.930 . S
H396 C378 0.932 . S
H397 C379 0.929 . S
H398 C380 0.928 . S
H399 C382 0.932 . S
C400 C401 1.264 . S
C400 C405 1.479 . S
C400 C410 1.465 . S
C401 C400 1.264 . S
C401 C403 1.339 . S
C401 H428 0.931 . S
C402 C403 1.395 . S
C402 C404 1.320 . S
C403 C401 1.339 . S
C403 C402 1.395 . S
C403 H429 0.929 . S
C404 C402 1.320 . S
C404 C405 1.405 . S
C404 H430 0.930 1_556 S
C405 C400 1.479 . S
C405 C404 1.405 . S
C405 H431 0.931 . S
U406 O407 2.454 . S
U406 O408 2.458 . S
U406 C409 2.984 . S
U406 C410 2.847 . S
U406 C423 2.882 . S
U406 O424 2.441 . S
U406 O425 2.420 . S
U406 O426 2.455 . S
U406 O427 2.449 . S
O407 U406 2.454 . S
O407 C409 1.353 . S
O408 U406 2.458 . S
O408 C409 1.286 . S
C409 U406 2.984 . S
C409 O407 1.353 . S
C409 O408 1.286 . S
C409 C411 1.363 . S
C410 C400 1.465 . S
C410 U406 2.847 . S
C410 O424 1.249 . S
C410 O425 1.202 . S
C411 C409 1.363 . S
C411 C413 1.408 . S
C411 C416 1.342 . S
C412 C413 1.312 . S
C412 C415 1.463 . S
C412 H432 0.927 1_556 S
C413 C411 1.408 . S
C413 C412 1.312 . S
C413 H433 0.930 . S
C414 C415 1.474 . S
C414 C416 1.285 . S
C414 H434 0.929 . S
C415 C412 1.463 . S
C415 C414 1.474 . S
C416 C411 1.342 . S
C416 C414 1.285 . S
C416 H435 0.930 . S
C417 C420 1.424 . S
C417 C422 1.245 . S
C417 C423 1.428 . S
C418 C421 1.260 . S
C418 C422 1.477 . S
C418 H436 0.932 . S
C419 C420 1.384 . S
C419 C421 1.479 . S
C419 H437 0.929 . S
C420 C417 1.424 . S
C420 C419 1.384 . S
C420 H438 0.928 . S
C421 C418 1.260 . S
C421 C419 1.479 . S
C422 C417 1.245 . S
C422 C418 1.477 . S
C422 H439 0.932 . S
C423 U406 2.882 . S
C423 C417 1.428 . S
C423 O426 1.301 . S
C423 O427 1.282 . S
O424 U406 2.441 . S
O424 C410 1.249 . S
O425 U406 2.420 . S
O425 C410 1.202 . S
O426 U406 2.455 . S
O426 C423 1.301 . S
O427 U406 2.449 . S
O427 C423 1.282 . S
H428 C401 0.931 . S
H429 C403 0.929 . S
H430 C404 0.930 1_554 S
H431 C405 0.931 . S
H432 C412 0.927 1_554 S
H433 C413 0.930 . S
H434 C414 0.929 . S
H435 C416 0.930 . S
H436 C418 0.932 . S
H437 C419 0.929 . S
H438 C420 0.928 . S
H439 C422 0.932 . S
C440 C441 1.264 . S
C440 C445 1.479 . S
C440 C450 1.465 . S
C441 C440 1.264 . S
C441 C443 1.339 . S
C441 H468 0.931 . S
C442 C443 1.395 . S
C442 C444 1.320 . S
C443 C441 1.339 . S
C443 C442 1.395 . S
C443 H469 0.929 . S
C444 C442 1.320 . S
C444 C445 1.405 . S
C444 H470 0.930 . S
C445 C440 1.479 . S
C445 C444 1.405 . S
C445 H471 0.931 . S
U446 O447 2.454 . S
U446 O448 2.458 . S
U446 C449 2.984 . S
U446 C450 2.847 . S
U446 C463 2.882 . S
U446 O464 2.441 . S
U446 O465 2.420 . S
U446 O466 2.455 . S
U446 O467 2.449 . S
O447 U446 2.454 . S
O447 C449 1.353 . S
O448 U446 2.458 . S
O448 C449 1.286 . S
C449 U446 2.984 . S
C449 O447 1.353 . S
C449 O448 1.286 . S
C449 C451 1.363 . S
C450 C440 1.465 . S
C450 U446 2.847 . S
C450 O464 1.249 . S
C450 O465 1.202 . S
C451 C449 1.363 . S
C451 C453 1.408 . S
C451 C456 1.342 . S
C452 C453 1.310 . S
C452 C455 1.461 . S
C452 H472 0.932 1_556 S
C453 C451 1.408 . S
C453 C452 1.310 . S
C453 H473 0.930 . S
C454 C455 1.474 . S
C454 C456 1.285 . S
C454 H474 0.929 . S
C455 C452 1.461 . S
C455 C454 1.474 . S
C456 C451 1.342 . S
C456 C454 1.285 . S
C456 H475 0.930 . S
C457 C460 1.424 . S
C457 C462 1.245 . S
C457 C463 1.428 . S
C458 C461 1.260 . S
C458 C462 1.477 . S
C458 H476 0.932 . S
C459 C460 1.384 . S
C459 C461 1.479 . S
C459 H477 0.929 . S
C460 C457 1.424 . S
C460 C459 1.384 . S
C460 H478 0.928 . S
C461 C458 1.260 . S
C461 C459 1.479 . S
C462 C457 1.245 . S
C462 C458 1.477 . S
C462 H479 0.932 . S
C463 U446 2.882 . S
C463 C457 1.428 . S
C463 O466 1.301 . S
C463 O467 1.282 . S
O464 U446 2.441 . S
O464 C450 1.249 . S
O465 U446 2.420 . S
O465 C450 1.202 . S
O466 U446 2.455 . S
O466 C463 1.301 . S
O467 U446 2.449 . S
O467 C463 1.282 . S
H468 C441 0.931 . S
H469 C443 0.929 . S
H470 C444 0.930 . S
H471 C445 0.931 . S
H472 C452 0.932 1_554 S
H473 C453 0.930 . S
H474 C454 0.929 . S
H475 C456 0.930 . S
H476 C458 0.932 . S
H477 C459 0.929 . S
H478 C460 0.928 . S
H479 C462 0.932 . S
C480 C481 1.264 . S
C480 C485 1.479 . S
C480 C490 1.465 . S
C481 C480 1.264 . S
C481 C483 1.339 . S
C481 H508 0.931 . S
C482 C483 1.395 . S
C482 C484 1.320 . S
C483 C481 1.339 . S
C483 C482 1.395 . S
C483 H509 0.929 . S
C484 C482 1.320 . S
C484 C485 1.405 . S
C484 H510 0.930 . S
C485 C480 1.479 . S
C485 C484 1.405 . S
C485 H511 0.931 . S
U486 O487 2.454 . S
U486 O488 2.458 . S
U486 C489 2.984 . S
U486 C490 2.847 . S
U486 C503 2.882 . S
U486 O504 2.441 . S
U486 O505 2.420 . S
U486 O506 2.455 . S
U486 O507 2.449 . S
O487 U486 2.454 . S
O487 C489 1.353 . S
O488 U486 2.458 . S
O488 C489 1.286 . S
C489 U486 2.984 . S
C489 O487 1.353 . S
C489 O488 1.286 . S
C489 C491 1.363 . S
C490 C480 1.465 . S
C490 U486 2.847 . S
C490 O504 1.249 . S
C490 O505 1.202 . S
C491 C489 1.363 . S
C491 C493 1.408 . S
C491 C496 1.342 . S
C492 C493 1.310 . S
C492 C495 1.461 . S
C492 H512 0.932 1_554 S
C493 C491 1.408 . S
C493 C492 1.310 . S
C493 H513 0.930 . S
C494 C495 1.474 . S
C494 C496 1.285 . S
C494 H514 0.929 . S
C495 C492 1.461 . S
C495 C494 1.474 . S
C496 C491 1.342 . S
C496 C494 1.285 . S
C496 H515 0.930 . S
C497 C500 1.424 . S
C497 C502 1.245 . S
C497 C503 1.428 . S
C498 C501 1.260 . S
C498 C502 1.477 . S
C498 H516 0.932 . S
C499 C500 1.384 . S
C499 C501 1.479 . S
C499 H517 0.929 . S
C500 C497 1.424 . S
C500 C499 1.384 . S
C500 H518 0.928 . S
C501 C498 1.260 . S
C501 C499 1.479 . S
C502 C497 1.245 . S
C502 C498 1.477 . S
C502 H519 0.932 . S
C503 U486 2.882 . S
C503 C497 1.428 . S
C503 O506 1.301 . S
C503 O507 1.282 . S
O504 U486 2.441 . S
O504 C490 1.249 . S
O505 U486 2.420 . S
O505 C490 1.202 . S
O506 U486 2.455 . S
O506 C503 1.301 . S
O507 U486 2.449 . S
O507 C503 1.282 . S
H508 C481 0.931 . S
H509 C483 0.929 . S
H510 C484 0.930 . S
H511 C485 0.931 . S
H512 C492 0.932 1_556 S
H513 C493 0.930 . S
H514 C494 0.929 . S
H515 C496 0.930 . S
H516 C498 0.932 . S
H517 C499 0.929 . S
H518 C500 0.928 . S
H519 C502 0.932 . S
C520 C521 1.264 . S
C520 C525 1.479 . S
C520 C530 1.465 . S
C521 C520 1.264 . S
C521 C523 1.339 . S
C521 H548 0.931 . S
C522 C523 1.395 . S
C522 C524 1.320 . S
C523 C521 1.339 . S
C523 C522 1.395 . S
C523 H549 0.929 . S
C524 C522 1.320 . S
C524 C525 1.405 . S
C524 H550 0.930 . S
C525 C520 1.479 . S
C525 C524 1.405 . S
C525 H551 0.931 . S
U526 O527 2.454 . S
U526 O528 2.458 . S
U526 C529 2.984 . S
U526 C530 2.847 . S
U526 C543 2.882 . S
U526 O544 2.441 . S
U526 O545 2.420 . S
U526 O546 2.455 . S
U526 O547 2.449 . S
O527 U526 2.454 . S
O527 C529 1.353 . S
O528 U526 2.458 . S
O528 C529 1.286 . S
C529 U526 2.984 . S
C529 O527 1.353 . S
C529 O528 1.286 . S
C529 C531 1.363 . S
C530 C520 1.465 . S
C530 U526 2.847 . S
C530 O544 1.249 . S
C530 O545 1.202 . S
C531 C529 1.363 . S
C531 C533 1.408 . S
C531 C536 1.342 . S
C532 C533 1.310 . S
C532 C535 1.461 . S
C532 H552 0.932 . S
C533 C531 1.408 . S
C533 C532 1.310 . S
C533 H553 0.930 . S
C534 C535 1.474 . S
C534 C536 1.285 . S
C534 H554 0.929 . S
C535 C532 1.461 . S
C535 C534 1.474 . S
C536 C531 1.342 . S
C536 C534 1.285 . S
C536 H555 0.930 . S
C537 C540 1.424 . S
C537 C542 1.245 . S
C537 C543 1.428 . S
C538 C541 1.260 . S
C538 C542 1.477 . S
C538 H556 0.932 . S
C539 C540 1.384 . S
C539 C541 1.479 . S
C539 H557 0.929 . S
C540 C537 1.424 . S
C540 C539 1.384 . S
C540 H558 0.928 . S
C541 C538 1.260 . S
C541 C539 1.479 . S
C542 C537 1.245 . S
C542 C538 1.477 . S
C542 H559 0.932 . S
C543 U526 2.882 . S
C543 C537 1.428 . S
C543 O546 1.301 . S
C543 O547 1.282 . S
O544 U526 2.441 . S
O544 C530 1.249 . S
O545 U526 2.420 . S
O545 C530 1.202 . S
O546 U526 2.455 . S
O546 C543 1.301 . S
O547 U526 2.449 . S
O547 C543 1.282 . S
H548 C521 0.931 . S
H549 C523 0.929 . S
H550 C524 0.930 . S
H551 C525 0.931 . S
H552 C532 0.932 . S
H553 C533 0.930 . S
H554 C534 0.929 . S
H555 C536 0.930 . S
H556 C538 0.932 . S
H557 C539 0.929 . S
H558 C540 0.928 . S
H559 C542 0.932 . S
C560 C561 1.264 . S
C560 C565 1.479 . S
C560 C570 1.465 . S
C561 C560 1.264 . S
C561 C563 1.339 . S
C561 H588 0.931 . S
C562 C563 1.395 . S
C562 C564 1.320 . S
C563 C561 1.339 . S
C563 C562 1.395 . S
C563 H589 0.929 . S
C564 C562 1.320 . S
C564 C565 1.405 . S
C564 H590 0.930 . S
C565 C560 1.479 . S
C565 C564 1.405 . S
C565 H591 0.931 . S
U566 O567 2.454 . S
U566 O568 2.458 . S
U566 C569 2.984 . S
U566 C570 2.847 . S
U566 C583 2.882 . S
U566 O584 2.441 . S
U566 O585 2.420 . S
U566 O586 2.455 . S
U566 O587 2.449 . S
O567 U566 2.454 . S
O567 C569 1.353 . S
O568 U566 2.458 . S
O568 C569 1.286 . S
C569 U566 2.984 . S
C569 O567 1.353 . S
C569 O568 1.286 . S
C569 C571 1.363 . S
C570 C560 1.465 . S
C570 U566 2.847 . S
C570 O584 1.249 . S
C570 O585 1.202 . S
C571 C569 1.363 . S
C571 C573 1.408 . S
C571 C576 1.342 . S
C572 C573 1.310 . S
C572 C575 1.461 . S
C572 H592 0.932 . S
C573 C571 1.408 . S
C573 C572 1.310 . S
C573 H593 0.930 . S
C574 C575 1.474 . S
C574 C576 1.285 . S
C574 H594 0.929 . S
C575 C572 1.461 . S
C575 C574 1.474 . S
C576 C571 1.342 . S
C576 C574 1.285 . S
C576 H595 0.930 . S
C577 C580 1.424 . S
C577 C582 1.245 . S
C577 C583 1.428 . S
C578 C581 1.260 . S
C578 C582 1.477 . S
C578 H596 0.932 . S
C579 C580 1.384 . S
C579 C581 1.479 . S
C579 H597 0.929 . S
C580 C577 1.424 . S
C580 C579 1.384 . S
C580 H598 0.928 . S
C581 C578 1.260 . S
C581 C579 1.479 . S
C582 C577 1.245 . S
C582 C578 1.477 . S
C582 H599 0.932 . S
C583 U566 2.882 . S
C583 C577 1.428 . S
C583 O586 1.301 . S
C583 O587 1.282 . S
O584 U566 2.441 . S
O584 C570 1.249 . S
O585 U566 2.420 . S
O585 C570 1.202 . S
O586 U566 2.455 . S
O586 C583 1.301 . S
O587 U566 2.449 . S
O587 C583 1.282 . S
H588 C561 0.931 . S
H589 C563 0.929 . S
H590 C564 0.930 . S
H591 C565 0.931 . S
H592 C572 0.932 . S
H593 C573 0.930 . S
H594 C574 0.929 . S
H595 C576 0.930 . S
H596 C578 0.932 . S
H597 C579 0.929 . S
H598 C580 0.928 . S
H599 C582 0.932 . S
C600 C601 1.264 . S
C600 C605 1.479 . S
C600 C610 1.465 . S
C601 C600 1.264 . S
C601 C603 1.339 . S
C601 H628 0.931 . S
C602 C603 1.395 . S
C602 C604 1.320 . S
C603 C601 1.339 . S
C603 C602 1.395 . S
C603 H629 0.929 . S
C604 C602 1.320 . S
C604 C605 1.405 . S
C604 H630 0.930 . S
C605 C600 1.479 . S
C605 C604 1.405 . S
C605 H631 0.931 . S
U606 O607 2.454 . S
U606 O608 2.458 . S
U606 C609 2.984 . S
U606 C610 2.847 . S
U606 C623 2.882 . S
U606 O624 2.441 . S
U606 O625 2.420 . S
U606 O626 2.455 . S
U606 O627 2.449 . S
O607 U606 2.454 . S
O607 C609 1.353 . S
O608 U606 2.458 . S
O608 C609 1.286 . S
C609 U606 2.984 . S
C609 O607 1.353 . S
C609 O608 1.286 . S
C609 C611 1.363 . S
C610 C600 1.465 . S
C610 U606 2.847 . S
C610 O624 1.249 . S
C610 O625 1.202 . S
C611 C609 1.363 . S
C611 C613 1.408 . S
C611 C616 1.342 . S
C612 C613 1.310 . S
C612 C615 1.461 . S
C612 H632 0.932 . S
C613 C611 1.408 . S
C613 C612 1.310 . S
C613 H633 0.930 . S
C614 C615 1.474 . S
C614 C616 1.285 . S
C614 H634 0.929 . S
C615 C612 1.461 . S
C615 C614 1.474 . S
C616 C611 1.342 . S
C616 C614 1.285 . S
C616 H635 0.930 . S
C617 C620 1.424 . S
C617 C622 1.245 . S
C617 C623 1.428 . S
C618 C621 1.260 . S
C618 C622 1.477 . S
C618 H636 0.932 . S
C619 C620 1.384 . S
C619 C621 1.479 . S
C619 H637 0.929 . S
C620 C617 1.424 . S
C620 C619 1.384 . S
C620 H638 0.928 . S
C621 C618 1.260 . S
C621 C619 1.479 . S
C622 C617 1.245 . S
C622 C618 1.477 . S
C622 H639 0.932 . S
C623 U606 2.882 . S
C623 C617 1.428 . S
C623 O626 1.301 . S
C623 O627 1.282 . S
O624 U606 2.441 . S
O624 C610 1.249 . S
O625 U606 2.420 . S
O625 C610 1.202 . S
O626 U606 2.455 . S
O626 C623 1.301 . S
O627 U606 2.449 . S
O627 C623 1.282 . S
H628 C601 0.931 . S
H629 C603 0.929 . S
H630 C604 0.930 . S
H631 C605 0.931 . S
H632 C612 0.932 . S
H633 C613 0.930 . S
H634 C614 0.929 . S
H635 C616 0.930 . S
H636 C618 0.932 . S
H637 C619 0.929 . S
H638 C620 0.928 . S
H639 C622 0.932 . S
C640 C641 1.264 . S
C640 C645 1.479 . S
C640 C650 1.465 . S
C641 C640 1.264 . S
C641 C643 1.339 . S
C641 H668 0.931 . S
C642 C643 1.395 . S
C642 C644 1.320 . S
C643 C641 1.339 . S
C643 C642 1.395 . S
C643 H669 0.929 . S
C644 C642 1.320 . S
C644 C645 1.405 . S
C644 H670 0.930 . S
C645 C640 1.479 . S
C645 C644 1.405 . S
C645 H671 0.931 . S
U646 O647 2.454 . S
U646 O648 2.458 . S
U646 C649 2.984 . S
U646 C650 2.847 . S
U646 C663 2.882 . S
U646 O664 2.441 . S
U646 O665 2.420 . S
U646 O666 2.455 . S
U646 O667 2.449 . S
O647 U646 2.454 . S
O647 C649 1.353 . S
O648 U646 2.458 . S
O648 C649 1.286 . S
C649 U646 2.984 . S
C649 O647 1.353 . S
C649 O648 1.286 . S
C649 C651 1.363 . S
C650 C640 1.465 . S
C650 U646 2.847 . S
C650 O664 1.249 . S
C650 O665 1.202 . S
C651 C649 1.363 . S
C651 C653 1.408 . S
C651 C656 1.342 . S
C652 C653 1.310 . S
C652 C655 1.461 . S
C652 H672 0.932 . S
C653 C651 1.408 . S
C653 C652 1.310 . S
C653 H673 0.930 . S
C654 C655 1.474 . S
C654 C656 1.285 . S
C654 H674 0.929 . S
C655 C652 1.461 . S
C655 C654 1.474 . S
C656 C651 1.342 . S
C656 C654 1.285 . S
C656 H675 0.930 . S
C657 C660 1.424 . S
C657 C662 1.245 . S
C657 C663 1.428 . S
C658 C661 1.260 . S
C658 C662 1.477 1_655 S
C658 H676 0.932 . S
C659 C660 1.384 1_655 S
C659 C661 1.479 . S
C659 H677 0.929 . S
C660 C657 1.424 . S
C660 C659 1.384 1_455 S
C660 H678 0.928 . S
C661 C658 1.260 . S
C661 C659 1.479 . S
C662 C657 1.245 . S
C662 C658 1.477 1_455 S
C662 H679 0.932 . S
C663 U646 2.882 . S
C663 C657 1.428 . S
C663 O666 1.301 . S
C663 O667 1.282 . S
O664 U646 2.441 . S
O664 C650 1.249 . S
O665 U646 2.420 . S
O665 C650 1.202 . S
O666 U646 2.455 . S
O666 C663 1.301 . S
O667 U646 2.449 . S
O667 C663 1.282 . S
H668 C641 0.931 . S
H669 C643 0.929 . S
H670 C644 0.930 . S
H671 C645 0.931 . S
H672 C652 0.932 . S
H673 C653 0.930 . S
H674 C654 0.929 . S
H675 C656 0.930 . S
H676 C658 0.932 . S
H677 C659 0.929 . S
H678 C660 0.928 . S
H679 C662 0.932 . S
C680 C681 1.264 . S
C680 C685 1.479 . S
C680 C690 1.465 . S
C681 C680 1.264 . S
C681 C683 1.339 . S
C681 H708 0.931 . S
C682 C683 1.395 . S
C682 C684 1.320 . S
C683 C681 1.339 . S
C683 C682 1.395 . S
C683 H709 0.929 . S
C684 C682 1.320 . S
C684 C685 1.405 . S
C684 H710 0.930 . S
C685 C680 1.479 . S
C685 C684 1.405 . S
C685 H711 0.931 . S
U686 O687 2.454 . S
U686 O688 2.458 . S
U686 C689 2.984 . S
U686 C690 2.847 . S
U686 C703 2.882 . S
U686 O704 2.441 . S
U686 O705 2.420 . S
U686 O706 2.455 . S
U686 O707 2.449 . S
O687 U686 2.454 . S
O687 C689 1.353 . S
O688 U686 2.458 . S
O688 C689 1.286 . S
C689 U686 2.984 . S
C689 O687 1.353 . S
C689 O688 1.286 . S
C689 C691 1.363 . S
C690 C680 1.465 . S
C690 U686 2.847 . S
C690 O704 1.249 . S
C690 O705 1.202 . S
C691 C689 1.363 . S
C691 C693 1.408 . S
C691 C696 1.342 . S
C692 C693 1.310 . S
C692 C695 1.461 . S
C692 H712 0.932 . S
C693 C691 1.408 . S
C693 C692 1.310 . S
C693 H713 0.930 . S
C694 C695 1.474 . S
C694 C696 1.285 . S
C694 H714 0.929 . S
C695 C692 1.461 . S
C695 C694 1.474 . S
C696 C691 1.342 . S
C696 C694 1.285 . S
C696 H715 0.930 . S
C697 C700 1.424 . S
C697 C702 1.245 . S
C697 C703 1.428 . S
C698 C701 1.260 . S
C698 C702 1.477 . S
C698 H716 0.932 . S
C699 C700 1.384 . S
C699 C701 1.479 . S
C699 H717 0.929 . S
C700 C697 1.424 . S
C700 C699 1.384 . S
C700 H718 0.928 . S
C701 C698 1.260 . S
C701 C699 1.479 . S
C702 C697 1.245 . S
C702 C698 1.477 . S
C702 H719 0.932 . S
C703 U686 2.882 . S
C703 C697 1.428 . S
C703 O706 1.301 . S
C703 O707 1.282 . S
O704 U686 2.441 . S
O704 C690 1.249 . S
O705 U686 2.420 . S
O705 C690 1.202 . S
O706 U686 2.455 . S
O706 C703 1.301 . S
O707 U686 2.449 . S
O707 C703 1.282 . S
H708 C681 0.931 . S
H709 C683 0.929 . S
H710 C684 0.930 . S
H711 C685 0.931 . S
H712 C692 0.932 . S
H713 C693 0.930 . S
H714 C694 0.929 . S
H715 C696 0.930 . S
H716 C698 0.932 . S
H717 C699 0.929 . S
H718 C700 0.928 . S
H719 C702 0.932 . S
C720 Eu721 2.835 . S
C720 C722 1.500 . S
C720 O740 1.257 1_545 S
C720 O741 1.260 . S
Eu721 C720 2.835 . S
Eu721 O740 2.473 1_545 S
Eu721 O741 2.480 . S
Eu721 O742 2.430 . S
Eu721 O743 2.670 1_554 S
Eu721 O744 2.394 1_545 S
Eu721 O749 2.355 1_545 S
Eu721 O751 2.374 . S
C722 C720 1.500 . S
C722 C723 1.377 . S
C722 C727 1.377 1_545 S
C723 C722 1.377 . S
C723 C724 1.395 . S
C723 H752 0.931 . S
C724 C723 1.395 . S
C724 C725 1.383 1_545 S
C724 H753 0.931 . S
C725 C724 1.383 1_565 S
C725 C726 1.394 . S
C726 C725 1.394 . S
C726 C727 1.378 . S
C726 H754 0.931 . S
C727 C722 1.377 1_565 S
C727 C726 1.378 . S
C727 H755 0.931 . S
C728 O742 1.259 . S
C728 O743 1.270 1_554 S
C729 O744 1.251 . S
C729 O745 1.202 1_554 S
C730 Eu731 2.835 . S
C730 C732 1.500 . S
C730 O746 1.257 1_565 S
C730 O747 1.260 . S
Eu731 C730 2.835 . S
Eu731 O743 2.355 1_565 S
Eu731 O745 2.411 . S
Eu731 O746 2.473 1_565 S
Eu731 O747 2.480 . S
Eu731 O748 2.430 . S
Eu731 O749 2.670 1_556 S
Eu731 O750 2.394 1_565 S
C732 C730 1.500 . S
C732 C733 1.377 . S
C732 C737 1.377 1_565 S
C733 C732 1.377 . S
C733 C734 1.395 . S
C733 H756 0.931 . S
C734 C733 1.395 . S
C734 C735 1.383 1_565 S
C734 H757 0.931 . S
C735 C734 1.383 1_545 S
C735 C736 1.394 . S
C736 C735 1.394 . S
C736 C737 1.378 . S
C736 H758 0.931 . S
C737 C732 1.377 1_545 S
C737 C736 1.378 . S
C737 H759 0.931 . S
C738 O748 1.259 1_554 S
C738 O749 1.270 . S
C739 O750 1.251 . S
C739 O751 1.251 1_556 S
O740 C720 1.257 1_565 S
O740 Eu721 2.473 1_565 S
O741 C720 1.260 . S
O741 Eu721 2.480 . S
O742 Eu721 2.430 . S
O742 C728 1.259 . S
O743 Eu721 2.670 1_556 S
O743 C728 1.270 1_556 S
O743 Eu731 2.355 1_545 S
O744 Eu721 2.394 1_565 S
O744 C729 1.251 . S
O745 C729 1.202 1_556 S
O745 Eu731 2.411 . S
O746 C730 1.257 1_545 S
O746 Eu731 2.473 1_545 S
O747 C730 1.260 . S
O747 Eu731 2.480 . S
O748 Eu731 2.430 . S
O748 C738 1.259 1_556 S
O749 Eu721 2.355 1_565 S
O749 Eu731 2.670 1_554 S
O749 C738 1.270 . S
O750 Eu731 2.394 1_545 S
O750 C739 1.251 . S
O751 Eu721 2.374 . S
O751 C739 1.251 1_554 S
H752 C723 0.931 . S
H753 C724 0.931 . S
H754 C726 0.931 . S
H755 C727 0.931 . S
H756 C733 0.931 . S
H757 C734 0.931 . S
H758 C736 0.931 . S
H759 C737 0.931 . S
C760 Eu761 2.835 . S
C760 C762 1.500 1_655 S
C760 O780 1.257 1_655 S
C760 O781 1.260 . S
Eu761 C760 2.835 . S
Eu761 O780 2.473 1_655 S
Eu761 O781 2.480 . S
Eu761 O782 2.430 . S
Eu761 O783 2.670 1_554 S
Eu761 O784 2.394 1_655 S
Eu761 O789 2.355 1_655 S
Eu761 O791 2.374 . S
C762 C760 1.500 1_455 S
C762 C763 1.377 1_455 S
C762 C767 1.377 . S
C763 C762 1.377 1_655 S
C763 C764 1.395 . S
C763 H792 0.931 . S
C764 C763 1.395 . S
C764 C765 1.383 1_655 S
C764 H793 0.931 . S
C765 C764 1.383 1_455 S
C765 C766 1.394 . S
C766 C765 1.394 . S
C766 C767 1.378 . S
C766 H794 0.931 . S
C767 C762 1.377 . S
C767 C766 1.378 . S
C767 H795 0.931 . S
C768 O782 1.259 1_556 S
C768 O783 1.270 . S
C769 O784 1.251 . S
C769 O785 1.251 . S
C770 Eu771 2.835 . S
C770 C772 1.500 1_455 S
C770 O786 1.257 1_455 S
C770 O787 1.260 . S
Eu771 C770 2.835 . S
Eu771 O783 2.355 1_455 S
Eu771 O785 2.374 1_556 S
Eu771 O786 2.473 1_455 S
Eu771 O787 2.480 . S
Eu771 O788 2.430 . S
Eu771 O789 2.670 1_556 S
Eu771 O790 2.394 1_455 S
C772 C770 1.500 1_655 S
C772 C773 1.377 1_655 S
C772 C777 1.377 . S
C773 C772 1.377 1_455 S
C773 C774 1.395 . S
C773 H796 0.931 . S
C774 C773 1.395 . S
C774 C775 1.383 1_455 S
C774 H797 0.931 . S
C775 C774 1.383 1_655 S
C775 C776 1.394 . S
C776 C775 1.394 . S
C776 C777 1.378 . S
C776 H798 0.931 . S
C777 C772 1.377 . S
C777 C776 1.378 . S
C777 H799 0.931 . S
C778 O788 1.259 1_554 S
C778 O789 1.270 . S
C779 O790 1.251 . S
C779 O791 1.251 1_556 S
O780 C760 1.257 1_455 S
O780 Eu761 2.473 1_455 S
O781 C760 1.260 . S
O781 Eu761 2.480 . S
O782 Eu761 2.430 . S
O782 C768 1.259 1_554 S
O783 Eu761 2.670 1_556 S
O783 C768 1.270 . S
O783 Eu771 2.355 1_655 S
O784 Eu761 2.394 1_455 S
O784 C769 1.251 . S
O785 C769 1.251 . S
O785 Eu771 2.374 1_554 S
O786 C770 1.257 1_655 S
O786 Eu771 2.473 1_655 S
O787 C770 1.260 . S
O787 Eu771 2.480 . S
O788 Eu771 2.430 . S
O788 C778 1.259 1_556 S
O789 Eu761 2.355 1_455 S
O789 Eu771 2.670 1_554 S
O789 C778 1.270 . S
O790 Eu771 2.394 1_655 S
O790 C779 1.251 . S
O791 Eu761 2.374 . S
O791 C779 1.251 1_554 S
H792 C763 0.931 . S
H793 C764 0.931 . S
H794 C766 0.931 . S
H795 C767 0.931 . S
H796 C773 0.931 . S
H797 C774 0.931 . S
H798 C776 0.931 . S
H799 C777 0.931 . S
C800 Eu801 2.835 . S
C800 C802 1.500 . S
C800 O820 1.257 . S
C800 O821 1.260 . S
Eu801 C800 2.835 . S
Eu801 O820 2.473 . S
Eu801 O821 2.480 . S
Eu801 O822 2.430 . S
Eu801 O823 2.670 1_556 S
Eu801 O824 2.394 . S
Eu801 O829 2.355 . S
Eu801 O831 2.374 1_556 S
C802 C800 1.500 . S
C802 C803 1.377 . S
C802 C807 1.377 . S
C803 C802 1.377 . S
C803 C804 1.395 . S
C803 H832 0.931 . S
C804 C803 1.395 . S
C804 C805 1.383 . S
C804 H833 0.931 . S
C805 C804 1.383 . S
C805 C806 1.394 . S
C806 C805 1.394 . S
C806 C807 1.378 . S
C806 H834 0.931 . S
C807 C802 1.377 . S
C807 C806 1.378 . S
C807 H835 0.931 . S
C808 O822 1.259 1_554 S
C808 O823 1.270 . S
C809 O824 1.251 . S
C809 O825 1.251 1_556 S
C810 Eu811 2.835 . S
C810 C812 1.500 . S
C810 O826 1.257 . S
C810 O827 1.260 . S
Eu811 C810 2.835 . S
Eu811 O823 2.355 . S
Eu811 O825 2.374 . S
Eu811 O826 2.473 . S
Eu811 O827 2.480 . S
Eu811 O828 2.430 . S
Eu811 O829 2.670 1_554 S
Eu811 O830 2.394 . S
C812 C810 1.500 . S
C812 C813 1.377 . S
C812 C817 1.377 . S
C813 C812 1.377 . S
C813 C814 1.395 . S
C813 H836 0.931 . S
C814 C813 1.395 . S
C814 C815 1.383 . S
C814 H837 0.931 . S
C815 C814 1.383 . S
C815 C816 1.394 . S
C816 C815 1.394 . S
C816 C817 1.378 . S
C816 H838 0.931 . S
C817 C812 1.377 . S
C817 C816 1.378 . S
C817 H839 0.931 . S
C818 O828 1.213 1_556 S
C818 O829 1.290 . S
C819 O830 1.251 . S
C819 O831 1.251 . S
O820 C800 1.257 . S
O820 Eu801 2.473 . S
O821 C800 1.260 . S
O821 Eu801 2.480 . S
O822 Eu801 2.430 . S
O822 C808 1.259 1_556 S
O823 Eu801 2.670 1_554 S
O823 C808 1.270 . S
O823 Eu811 2.355 . S
O824 Eu801 2.394 . S
O824 C809 1.251 . S
O825 C809 1.251 1_554 S
O825 Eu811 2.374 . S
O826 C810 1.257 . S
O826 Eu811 2.473 . S
O827 C810 1.260 . S
O827 Eu811 2.480 . S
O828 Eu811 2.430 . S
O828 C818 1.213 1_554 S
O829 Eu801 2.355 . S
O829 Eu811 2.670 1_556 S
O829 C818 1.290 . S
O830 Eu811 2.394 . S
O830 C819 1.251 . S
O831 Eu801 2.374 1_554 S
O831 C819 1.251 . S
H832 C803 0.931 . S
H833 C804 0.931 . S
H834 C806 0.931 . S
H835 C807 0.931 . S
H836 C813 0.931 . S
H837 C814 0.931 . S
H838 C816 0.931 . S
H839 C817 0.931 . S
C840 Eu841 2.835 . S
C840 C842 1.500 . S
C840 O860 1.257 . S
C840 O861 1.260 . S
Eu841 C840 2.835 . S
Eu841 O860 2.473 . S
Eu841 O861 2.480 . S
Eu841 O862 2.430 . S
Eu841 O863 2.670 . S
Eu841 O864 2.394 . S
Eu841 O869 2.355 . S
Eu841 O871 2.374 . S
C842 C840 1.500 . S
C842 C843 1.377 . S
C842 C847 1.377 . S
C843 C842 1.377 . S
C843 C844 1.395 . S
C843 H872 0.931 . S
C844 C843 1.395 . S
C844 C845 1.383 . S
C844 H873 0.931 . S
C845 C844 1.383 . S
C845 C846 1.394 . S
C846 C845 1.394 . S
C846 C847 1.378 . S
C846 H874 0.931 . S
C847 C842 1.377 . S
C847 C846 1.378 . S
C847 H875 0.931 . S
C848 O862 1.259 . S
C848 O863 1.270 . S
C849 O864 1.251 . S
C849 O865 1.251 . S
C850 Eu851 2.835 . S
C850 C852 1.500 . S
C850 O866 1.257 . S
C850 O867 1.260 . S
Eu851 C850 2.835 . S
Eu851 O863 2.355 . S
Eu851 O865 2.374 . S
Eu851 O866 2.473 . S
Eu851 O867 2.480 . S
Eu851 O868 2.430 . S
Eu851 O869 2.670 . S
Eu851 O870 2.394 . S
C852 C850 1.500 . S
C852 C853 1.377 . S
C852 C857 1.377 . S
C853 C852 1.377 . S
C853 C854 1.395 . S
C853 H876 0.931 . S
C854 C853 1.395 . S
C854 C855 1.383 . S
C854 H877 0.931 . S
C855 C854 1.383 . S
C855 C856 1.394 . S
C856 C855 1.394 . S
C856 C857 1.378 . S
C856 H878 0.931 . S
C857 C852 1.377 . S
C857 C856 1.378 . S
C857 H879 0.931 . S
C858 O868 1.259 . S
C858 O869 1.270 . S
C859 O870 1.251 . S
C859 O871 1.251 . S
O860 C840 1.257 . S
O860 Eu841 2.473 . S
O861 C840 1.260 . S
O861 Eu841 2.480 . S
O862 Eu841 2.430 . S
O862 C848 1.259 . S
O863 Eu841 2.670 . S
O863 C848 1.270 . S
O863 Eu851 2.355 . S
O864 Eu841 2.394 . S
O864 C849 1.251 . S
O865 C849 1.251 . S
O865 Eu851 2.374 . S
O866 C850 1.257 . S
O866 Eu851 2.473 . S
O867 C850 1.260 . S
O867 Eu851 2.480 . S
O868 Eu851 2.430 . S
O868 C858 1.259 . S
O869 Eu841 2.355 . S
O869 Eu851 2.670 . S
O869 C858 1.270 . S
O870 Eu851 2.394 . S
O870 C859 1.251 . S
O871 Eu841 2.374 . S
O871 C859 1.251 . S
H872 C843 0.931 . S
H873 C844 0.931 . S
H874 C846 0.931 . S
H875 C847 0.931 . S
H876 C853 0.931 . S
H877 C854 0.931 . S
H878 C856 0.931 . S
H879 C857 0.931 . S
C880 Eu881 2.835 . S
C880 C882 1.500 . S
C880 O900 1.257 . S
C880 O901 1.260 . S
Eu881 C880 2.835 . S
Eu881 O900 2.473 . S
Eu881 O901 2.480 . S
Eu881 O902 2.430 . S
Eu881 O903 2.670 . S
Eu881 O904 2.394 . S
Eu881 O909 2.355 . S
Eu881 O911 2.374 . S
C882 C880 1.500 . S
C882 C883 1.377 . S
C882 C887 1.377 . S
C883 C882 1.377 . S
C883 C884 1.395 . S
C883 H912 0.931 . S
C884 C883 1.395 . S
C884 C885 1.383 . S
C884 H913 0.931 . S
C885 C884 1.383 . S
C885 C886 1.394 . S
C886 C885 1.394 . S
C886 C887 1.378 . S
C886 H914 0.931 . S
C887 C882 1.377 . S
C887 C886 1.378 . S
C887 H915 0.931 . S
C888 O902 1.259 . S
C888 O903 1.270 . S
C889 O904 1.251 . S
C889 O905 1.251 . S
C890 Eu891 2.835 . S
C890 C892 1.500 . S
C890 O906 1.257 . S
C890 O907 1.260 . S
Eu891 C890 2.835 . S
Eu891 O903 2.355 . S
Eu891 O905 2.374 . S
Eu891 O906 2.473 . S
Eu891 O907 2.480 . S
Eu891 O908 2.430 . S
Eu891 O909 2.670 . S
Eu891 O910 2.394 . S
C892 C890 1.500 . S
C892 C893 1.377 . S
C892 C897 1.377 . S
C893 C892 1.377 . S
C893 C894 1.395 . S
C893 H916 0.931 . S
C894 C893 1.395 . S
C894 C895 1.383 . S
C894 H917 0.931 . S
C895 C894 1.383 . S
C895 C896 1.394 . S
C896 C895 1.394 . S
C896 C897 1.378 . S
C896 H918 0.931 . S
C897 C892 1.377 . S
C897 C896 1.378 . S
C897 H919 0.931 . S
C898 O908 1.259 . S
C898 O909 1.270 . S
C899 O910 1.251 . S
C899 O911 1.251 . S
O900 C880 1.257 . S
O900 Eu881 2.473 . S
O901 C880 1.260 . S
O901 Eu881 2.480 . S
O902 Eu881 2.430 . S
O902 C888 1.259 . S
O903 Eu881 2.670 . S
O903 C888 1.270 . S
O903 Eu891 2.355 . S
O904 Eu881 2.394 . S
O904 C889 1.251 . S
O905 C889 1.251 . S
O905 Eu891 2.374 . S
O906 C890 1.257 . S
O906 Eu891 2.473 . S
O907 C890 1.260 . S
O907 Eu891 2.480 . S
O908 Eu891 2.430 . S
O908 C898 1.259 . S
O909 Eu881 2.355 . S
O909 Eu891 2.670 . S
O909 C898 1.270 . S
O910 Eu891 2.394 . S
O910 C899 1.251 . S
O911 Eu881 2.374 . S
O911 C899 1.251 . S
H912 C883 0.931 . S
H913 C884 0.931 . S
H914 C886 0.931 . S
H915 C887 0.931 . S
H916 C893 0.931 . S
H917 C894 0.931 . S
H918 C896 0.931 . S
H919 C897 0.931 . S
C920 Eu921 2.835 . S
C920 C922 1.500 . S
C920 O940 1.257 . S
C920 O941 1.260 . S
Eu921 C920 2.835 . S
Eu921 O940 2.473 . S
Eu921 O941 2.480 . S
Eu921 O942 2.430 . S
Eu921 O943 2.670 . S
Eu921 O944 2.394 . S
Eu921 O949 2.355 . S
Eu921 O951 2.374 . S
C922 C920 1.500 . S
C922 C923 1.377 . S
C922 C927 1.377 . S
C923 C922 1.377 . S
C923 C924 1.395 . S
C923 H952 0.931 . S
C924 C923 1.395 . S
C924 C925 1.383 . S
C924 H953 0.931 . S
C925 C924 1.383 . S
C925 C926 1.394 . S
C926 C925 1.394 . S
C926 C927 1.378 . S
C926 H954 0.931 . S
C927 C922 1.377 . S
C927 C926 1.378 . S
C927 H955 0.931 . S
C928 O942 1.259 . S
C928 O943 1.270 . S
C929 O944 1.251 . S
C929 O945 1.251 . S
C930 Eu931 2.835 . S
C930 C932 1.500 . S
C930 O946 1.257 . S
C930 O947 1.260 . S
Eu931 C930 2.835 . S
Eu931 O943 2.355 . S
Eu931 O945 2.374 . S
Eu931 O946 2.473 . S
Eu931 O947 2.480 . S
Eu931 O948 2.430 . S
Eu931 O949 2.670 . S
Eu931 O950 2.394 . S
C932 C930 1.500 . S
C932 C933 1.377 . S
C932 C937 1.377 . S
C933 C932 1.377 . S
C933 C934 1.395 . S
C933 H956 0.931 . S
C934 C933 1.395 . S
C934 C935 1.383 . S
C934 H957 0.931 . S
C935 C934 1.383 . S
C935 C936 1.394 . S
C936 C935 1.394 . S
C936 C937 1.378 . S
C936 H958 0.931 . S
C937 C932 1.377 . S
C937 C936 1.378 . S
C937 H959 0.931 . S
C938 O948 1.259 . S
C938 O949 1.270 . S
C939 O950 1.251 . S
C939 O951 1.251 . S
O940 C920 1.257 . S
O940 Eu921 2.473 . S
O941 C920 1.260 . S
O941 Eu921 2.480 . S
O942 Eu921 2.430 . S
O942 C928 1.259 . S
O943 Eu921 2.670 . S
O943 C928 1.270 . S
O943 Eu931 2.355 . S
O944 Eu921 2.394 . S
O944 C929 1.251 . S
O945 C929 1.251 . S
O945 Eu931 2.374 . S
O946 C930 1.257 . S
O946 Eu931 2.473 . S
O947 C930 1.260 . S
O947 Eu931 2.480 . S
O948 Eu931 2.430 . S
O948 C938 1.259 . S
O949 Eu921 2.355 . S
O949 Eu931 2.670 . S
O949 C938 1.270 . S
O950 Eu931 2.394 . S
O950 C939 1.251 . S
O951 Eu921 2.374 . S
O951 C939 1.251 . S
H952 C923 0.931 . S
H953 C924 0.931 . S
H954 C926 0.931 . S
H955 C927 0.931 . S
H956 C933 0.931 . S
H957 C934 0.931 . S
H958 C936 0.931 . S
H959 C937 0.931 . S
C960 Eu961 2.835 . S
C960 C962 1.500 . S
C960 O980 1.257 . S
C960 O981 1.260 . S
Eu961 C960 2.835 . S
Eu961 O980 2.473 . S
Eu961 O981 2.480 . S
Eu961 O982 2.430 . S
Eu961 O983 2.670 . S
Eu961 O984 2.394 . S
Eu961 O989 2.355 . S
Eu961 O991 2.374 . S
C962 C960 1.500 . S
C962 C963 1.377 . S
C962 C967 1.377 . S
C963 C962 1.377 . S
C963 C964 1.395 . S
C963 H992 0.931 . S
C964 C963 1.395 . S
C964 C965 1.383 . S
C964 H993 0.931 . S
C965 C964 1.383 . S
C965 C966 1.394 . S
C966 C965 1.394 . S
C966 C967 1.378 . S
C966 H994 0.931 . S
C967 C962 1.377 . S
C967 C966 1.378 . S
C967 H995 0.931 . S
C968 O982 1.259 . S
C968 O983 1.270 . S
C969 O984 1.251 . S
C969 O985 1.251 . S
C970 Eu971 2.835 . S
C970 C972 1.500 . S
C970 O986 1.257 . S
C970 O987 1.260 . S
Eu971 C970 2.835 . S
Eu971 O983 2.355 . S
Eu971 O985 2.374 . S
Eu971 O986 2.473 . S
Eu971 O987 2.480 . S
Eu971 O988 2.430 . S
Eu971 O989 2.670 . S
Eu971 O990 2.394 . S
C972 C970 1.500 . S
C972 C973 1.377 . S
C972 C977 1.377 . S
C973 C972 1.377 . S
C973 C974 1.395 . S
C973 H996 0.931 . S
C974 C973 1.395 . S
C974 C975 1.383 . S
C974 H997 0.931 . S
C975 C974 1.383 . S
C975 C976 1.394 . S
C976 C975 1.394 . S
C976 C977 1.378 . S
C976 H998 0.931 . S
C977 C972 1.377 . S
C977 C976 1.378 . S
C977 H999 0.931 . S
C978 O988 1.259 . S
C978 O989 1.270 . S
C979 O990 1.251 . S
C979 O991 1.251 . S
O980 C960 1.257 . S
O980 Eu961 2.473 . S
O981 C960 1.260 . S
O981 Eu961 2.480 . S
O982 Eu961 2.430 . S
O982 C968 1.259 . S
O983 Eu961 2.670 . S
O983 C968 1.270 . S
O983 Eu971 2.355 . S
O984 Eu961 2.394 . S
O984 C969 1.251 . S
O985 C969 1.251 . S
O985 Eu971 2.374 . S
O986 C970 1.257 . S
O986 Eu971 2.473 . S
O987 C970 1.260 . S
O987 Eu971 2.480 . S
O988 Eu971 2.430 . S
O988 C978 1.259 . S
O989 Eu961 2.355 . S
O989 Eu971 2.670 . S
O989 C978 1.270 . S
O990 Eu971 2.394 . S
O990 C979 1.251 . S
O991 Eu961 2.374 . S
O991 C979 1.251 . S
H992 C963 0.931 . S
H993 C964 0.931 . S
H994 C966 0.931 . S
H995 C967 0.931 . S
H996 C973 0.931 . S
H997 C974 0.931 . S
H998 C976 0.931 . S
H999 C977 0.931 . S
C1000 Eu1001 2.835 . S
C1000 C1002 1.500 . S
C1000 O1020 1.257 . S
C1000 O1021 1.260 . S
Eu1001 C1000 2.835 . S
Eu1001 O1020 2.473 . S
Eu1001 O1021 2.480 . S
Eu1001 O1022 2.430 . S
Eu1001 O1023 2.670 . S
Eu1001 O1024 2.394 . S
Eu1001 O1029 2.355 . S
Eu1001 O1031 2.374 . S
C1002 C1000 1.500 . S
C1002 C1003 1.377 . S
C1002 C1007 1.377 . S
C1003 C1002 1.377 . S
C1003 C1004 1.395 . S
C1003 H1032 0.931 . S
C1004 C1003 1.395 . S
C1004 C1005 1.383 . S
C1004 H1033 0.931 . S
C1005 C1004 1.383 . S
C1005 C1006 1.394 . S
C1006 C1005 1.394 . S
C1006 C1007 1.378 . S
C1006 H1034 0.931 . S
C1007 C1002 1.377 . S
C1007 C1006 1.378 . S
C1007 H1035 0.931 . S
C1008 O1022 1.259 . S
C1008 O1023 1.270 . S
C1009 O1024 1.251 . S
C1009 O1025 1.251 . S
C1010 Eu1011 2.835 . S
C1010 C1012 1.500 . S
C1010 O1026 1.257 . S
C1010 O1027 1.260 . S
Eu1011 C1010 2.835 . S
Eu1011 O1023 2.355 . S
Eu1011 O1025 2.374 . S
Eu1011 O1026 2.473 . S
Eu1011 O1027 2.480 . S
Eu1011 O1028 2.430 . S
Eu1011 O1029 2.670 . S
Eu1011 O1030 2.394 . S
C1012 C1010 1.500 . S
C1012 C1013 1.377 . S
C1012 C1017 1.377 . S
C1013 C1012 1.377 . S
C1013 C1014 1.395 . S
C1013 H1036 0.931 . S
C1014 C1013 1.395 . S
C1014 C1015 1.383 . S
C1014 H1037 0.931 . S
C1015 C1014 1.383 . S
C1015 C1016 1.394 . S
C1016 C1015 1.394 . S
C1016 C1017 1.378 . S
C1016 H1038 0.931 . S
C1017 C1012 1.377 . S
C1017 C1016 1.378 . S
C1017 H1039 0.931 . S
C1018 O1028 1.259 . S
C1018 O1029 1.270 . S
C1019 O1030 1.251 . S
C1019 O1031 1.251 . S
O1020 C1000 1.257 . S
O1020 Eu1001 2.473 . S
O1021 C1000 1.260 . S
O1021 Eu1001 2.480 . S
O1022 Eu1001 2.430 . S
O1022 C1008 1.259 . S
O1023 Eu1001 2.670 . S
O1023 C1008 1.270 . S
O1023 Eu1011 2.355 . S
O1024 Eu1001 2.394 . S
O1024 C1009 1.251 . S
O1025 C1009 1.251 . S
O1025 Eu1011 2.374 . S
O1026 C1010 1.257 . S
O1026 Eu1011 2.473 . S
O1027 C1010 1.260 . S
O1027 Eu1011 2.480 . S
O1028 Eu1011 2.430 . S
O1028 C1018 1.259 . S
O1029 Eu1001 2.355 . S
O1029 Eu1011 2.670 . S
O1029 C1018 1.270 . S
O1030 Eu1011 2.394 . S
O1030 C1019 1.251 . S
O1031 Eu1001 2.374 . S
O1031 C1019 1.251 . S
H1032 C1003 0.931 . S
H1033 C1004 0.931 . S
H1034 C1006 0.931 . S
H1035 C1007 0.931 . S
H1036 C1013 0.931 . S
H1037 C1014 0.931 . S
H1038 C1016 0.931 . S
H1039 C1017 0.931 . S
C1040 Eu1041 2.835 . S
C1040 C1042 1.500 . S
C1040 O1060 1.257 . S
C1040 O1061 1.260 . S
Eu1041 C1040 2.835 . S
Eu1041 O1060 2.473 . S
Eu1041 O1061 2.480 . S
Eu1041 O1062 2.430 . S
Eu1041 O1063 2.670 . S
Eu1041 O1064 2.394 . S
Eu1041 O1069 2.355 . S
Eu1041 O1071 2.374 . S
C1042 C1040 1.500 . S
C1042 C1043 1.377 . S
C1042 C1047 1.377 . S
C1043 C1042 1.377 . S
C1043 C1044 1.395 . S
C1043 H1072 0.931 . S
C1044 C1043 1.395 . S
C1044 C1045 1.383 . S
C1044 H1073 0.931 . S
C1045 C1044 1.383 . S
C1045 C1046 1.394 . S
C1046 C1045 1.394 . S
C1046 C1047 1.378 . S
C1046 H1074 0.931 . S
C1047 C1042 1.377 . S
C1047 C1046 1.378 . S
C1047 H1075 0.931 . S
C1048 O1062 1.259 . S
C1048 O1063 1.270 . S
C1049 O1064 1.251 . S
C1049 O1065 1.251 . S
C1050 Eu1051 2.835 . S
C1050 C1052 1.500 . S
C1050 O1066 1.257 . S
C1050 O1067 1.260 . S
Eu1051 C1050 2.835 . S
Eu1051 O1063 2.355 . S
Eu1051 O1065 2.374 . S
Eu1051 O1066 2.473 . S
Eu1051 O1067 2.480 . S
Eu1051 O1068 2.430 . S
Eu1051 O1069 2.670 . S
Eu1051 O1070 2.394 . S
C1052 C1050 1.500 . S
C1052 C1053 1.377 . S
C1052 C1057 1.377 . S
C1053 C1052 1.377 . S
C1053 C1054 1.395 . S
C1053 H1076 0.931 . S
C1054 C1053 1.395 . S
C1054 C1055 1.383 . S
C1054 H1077 0.931 . S
C1055 C1054 1.383 . S
C1055 C1056 1.394 . S
C1056 C1055 1.394 . S
C1056 C1057 1.378 . S
C1056 H1078 0.931 . S
C1057 C1052 1.377 . S
C1057 C1056 1.378 . S
C1057 H1079 0.931 . S
C1058 O1068 1.259 . S
C1058 O1069 1.270 . S
C1059 O1070 1.251 . S
C1059 O1071 1.251 . S
O1060 C1040 1.257 . S
O1060 Eu1041 2.473 . S
O1061 C1040 1.260 . S
O1061 Eu1041 2.480 . S
O1062 Eu1041 2.430 . S
O1062 C1048 1.259 . S
O1063 Eu1041 2.670 . S
O1063 C1048 1.270 . S
O1063 Eu1051 2.355 . S
O1064 Eu1041 2.394 . S
O1064 C1049 1.251 . S
O1065 C1049 1.251 . S
O1065 Eu1051 2.374 . S
O1066 C1050 1.257 . S
O1066 Eu1051 2.473 . S
O1067 C1050 1.260 . S
O1067 Eu1051 2.480 . S
O1068 Eu1051 2.430 . S
O1068 C1058 1.259 . S
O1069 Eu1041 2.355 . S
O1069 Eu1051 2.670 . S
O1069 C1058 1.270 . S
O1070 Eu1051 2.394 . S
O1070 C1059 1.251 . S
O1071 Eu1041 2.374 . S
O1071 C1059 1.251 . S
H1072 C1043 0.931 . S
H1073 C1044 0.931 . S
H1074 C1046 0.931 . S
H1075 C1047 0.931 . S
H1076 C1053 0.931 . S
H1077 C1054 0.931 . S
H1078 C1056 0.931 . S
H1079 C1057 0.931 . S
C1080 C1081 1.387 . S
C1080 H1084 0.950 . S
C1080 C1089 1.390 . S
C1081 C1080 1.387 . S
C1081 C1083 1.387 . S
H1082 C1089 0.950 . S
C1083 C1081 1.387 . S
C1083 C1085 1.390 . S
C1083 H1087 0.950 . S
H1084 C1080 0.950 . S
C1085 C1083 1.390 . S
C1085 C1086 1.387 . S
C1085 H1088 0.950 1_554 S
C1086 C1085 1.387 . S
C1086 C1089 1.387 . S
H1087 C1083 0.950 . S
H1088 C1085 0.950 1_556 S
C1089 C1080 1.390 . S
C1089 H1082 0.950 . S
C1089 C1086 1.387 . S
C1090 C1091 1.387 . S
C1090 H1094 0.950 . S
C1090 C1099 1.390 . S
C1091 C1090 1.387 . S
C1091 C1093 1.387 . S
H1092 C1099 0.950 . S
C1093 C1091 1.387 . S
C1093 C1095 1.390 . S
C1093 H1097 0.950 . S
H1094 C1090 0.950 . S
C1095 C1093 1.390 . S
C1095 C1096 1.387 . S
C1095 H1098 0.950 . S
C1096 C1095 1.387 . S
C1096 C1099 1.387 . S
H1097 C1093 0.950 . S
H1098 C1095 0.950 . S
C1099 C1090 1.390 . S
C1099 H1092 0.950 . S
C1099 C1096 1.387 . S
C1100 C1101 1.387 . S
C1100 H1104 0.950 . S
C1100 C1109 1.390 . S
C1101 C1100 1.387 . S
C1101 C1103 1.387 . S
H1102 C1109 0.950 . S
C1103 C1101 1.387 . S
C1103 C1105 1.390 . S
C1103 H1107 0.942 1_554 S
H1104 C1100 0.950 . S
C1105 C1103 1.390 . S
C1105 C1106 1.387 . S
C1105 H1108 0.947 . S
C1106 C1105 1.387 . S
C1106 C1109 1.387 . S
H1107 C1103 0.942 1_556 S
H1108 C1105 0.947 . S
C1109 C1100 1.390 . S
C1109 H1102 0.950 . S
C1109 C1106 1.387 . S
C1110 C1111 1.387 . S
C1110 H1114 0.950 . S
C1110 C1119 1.390 . S
C1111 C1110 1.387 . S
C1111 C1113 1.387 1_556 S
H1112 C1119 0.950 . S
C1113 C1111 1.387 1_554 S
C1113 C1115 1.390 . S
C1113 H1117 0.950 . S
H1114 C1110 0.950 . S
C1115 C1113 1.390 . S
C1115 C1116 1.387 1_554 S
C1115 H1118 0.950 . S
C1116 C1115 1.387 1_556 S
C1116 C1119 1.387 . S
H1117 C1113 0.950 . S
H1118 C1115 0.950 . S
C1119 C1110 1.390 . S
C1119 H1112 0.950 . S
C1119 C1116 1.387 . S
C1120 C1121 1.387 . S
C1120 H1124 0.950 . S
C1120 C1129 1.390 . S
C1121 C1120 1.387 . S
C1121 C1123 1.387 . S
H1122 C1129 0.950 1_554 S
C1123 C1121 1.387 . S
C1123 C1125 1.390 . S
C1123 H1127 0.950 . S
H1124 C1120 0.950 . S
C1125 C1123 1.390 . S
C1125 C1126 1.387 . S
C1125 H1128 0.950 . S
C1126 C1125 1.387 . S
C1126 C1129 1.387 . S
H1127 C1123 0.950 . S
H1128 C1125 0.950 . S
C1129 C1120 1.390 . S
C1129 H1122 0.950 1_556 S
C1129 C1126 1.387 . S
C1130 C1131 1.387 . S
C1130 H1134 0.950 . S
C1130 C1139 1.390 . S
C1131 C1130 1.387 . S
C1131 C1133 1.387 1_556 S
H1132 C1139 0.950 . S
C1133 C1131 1.387 1_554 S
C1133 C1135 1.390 . S
C1133 H1137 0.950 . S
H1134 C1130 0.950 . S
C1135 C1133 1.390 . S
C1135 C1136 1.387 1_554 S
C1135 H1138 0.950 . S
C1136 C1135 1.387 1_556 S
C1136 C1139 1.387 . S
H1137 C1133 0.950 . S
H1138 C1135 0.950 . S
C1139 C1130 1.390 . S
C1139 H1132 0.950 . S
C1139 C1136 1.387 . S
C1140 C1141 1.387 . S
C1140 H1144 0.950 . S
C1140 C1149 1.390 . S
C1141 C1140 1.387 . S
C1141 C1143 1.387 . S
H1142 C1149 0.950 . S
C1143 C1141 1.387 . S
C1143 C1145 1.390 . S
C1143 H1147 0.950 1_556 S
H1144 C1140 0.950 . S
C1145 C1143 1.390 . S
C1145 C1146 1.387 . S
C1145 H1148 0.950 1_556 S
C1146 C1145 1.387 . S
C1146 C1149 1.387 . S
H1147 C1143 0.950 1_554 S
H1148 C1145 0.950 1_554 S
C1149 C1140 1.390 . S
C1149 H1142 0.950 . S
C1149 C1146 1.387 . S
C1150 C1151 1.387 . S
C1150 H1154 0.950 . S
C1150 C1159 1.390 . S
C1151 C1150 1.387 . S
C1151 C1153 1.387 . S
H1152 C1159 0.950 1_554 S
C1153 C1151 1.387 . S
C1153 C1155 1.390 . S
C1153 H1157 0.950 . S
H1154 C1150 0.950 . S
C1155 C1153 1.390 . S
C1155 C1156 1.387 . S
C1155 H1158 0.950 . S
C1156 C1155 1.387 . S
C1156 C1159 1.387 . S
H1157 C1153 0.950 . S
H1158 C1155 0.950 . S
C1159 C1150 1.390 . S
C1159 H1152 0.950 1_556 S
C1159 C1156 1.387 . S
C1160 C1161 1.387 . S
C1160 H1164 0.950 . S
C1160 C1169 1.390 . S
C1161 C1160 1.387 . S
C1161 C1163 1.387 1_556 S
H1162 C1169 0.950 . S
C1163 C1161 1.387 1_554 S
C1163 C1165 1.390 . S
C1163 H1167 0.950 . S
H1164 C1160 0.950 . S
C1165 C1163 1.390 . S
C1165 C1166 1.387 1_554 S
C1165 H1168 0.950 . S
C1166 C1165 1.387 1_556 S
C1166 C1169 1.387 . S
H1167 C1163 0.950 . S
H1168 C1165 0.950 . S
C1169 C1160 1.390 . S
C1169 H1162 0.950 . S
C1169 C1166 1.387 . S
C1170 C1171 1.387 . S
C1170 H1174 0.950 1_554 S
C1170 C1179 1.390 . S
C1171 C1170 1.387 . S
C1171 C1173 1.387 . S
H1172 C1179 0.950 1_556 S
C1173 C1171 1.387 . S
C1173 C1175 1.390 . S
C1173 H1177 0.950 . S
H1174 C1170 0.950 1_556 S
C1175 C1173 1.390 . S
C1175 C1176 1.387 . S
C1175 H1178 0.950 . S
C1176 C1175 1.387 . S
C1176 C1179 1.387 . S
H1177 C1173 0.950 . S
H1178 C1175 0.950 . S
C1179 C1170 1.390 . S
C1179 H1172 0.950 1_554 S
C1179 C1176 1.387 . S
C1180 C1181 1.387 . S
C1180 H1184 0.950 . S
C1180 C1189 1.390 . S
C1181 C1180 1.387 . S
C1181 C1183 1.387 . S
H1182 C1189 0.950 . S
C1183 C1181 1.387 . S
C1183 C1185 1.390 . S
C1183 H1187 0.950 . S
H1184 C1180 0.950 . S
C1185 C1183 1.390 . S
C1185 C1186 1.387 . S
C1185 H1188 0.950 . S
C1186 C1185 1.387 . S
C1186 C1189 1.387 . S
H1187 C1183 0.950 . S
H1188 C1185 0.950 . S
C1189 C1180 1.390 . S
C1189 H1182 0.950 . S
C1189 C1186 1.387 . S
C1190 C1191 1.387 . S
C1190 H1194 0.950 . S
C1190 C1199 1.390 . S
C1191 C1190 1.387 . S
C1191 C1193 1.387 . S
H1192 C1199 0.950 . S
C1193 C1191 1.387 . S
C1193 C1195 1.390 1_554 S
C1193 H1197 0.950 1_554 S
H1194 C1190 0.950 . S
C1195 C1193 1.390 1_556 S
C1195 C1196 1.384 1_556 S
C1195 H1198 0.954 . S
C1196 C1195 1.384 1_554 S
C1196 C1199 1.387 . S
H1197 C1193 0.950 1_556 S
H1198 C1195 0.954 . S
C1199 C1190 1.390 . S
C1199 H1192 0.950 . S
C1199 C1196 1.387 . S
C1200 C1201 1.387 . S
C1200 H1204 0.950 . S
C1200 C1209 1.390 . S
C1201 C1200 1.387 . S
C1201 C1203 1.387 . S
H1202 C1209 0.950 . S
C1203 C1201 1.387 . S
C1203 C1205 1.390 . S
C1203 H1207 0.950 . S
H1204 C1200 0.950 . S
C1205 C1203 1.390 . S
C1205 C1206 1.387 . S
C1205 H1208 0.950 . S
C1206 C1205 1.387 . S
C1206 C1209 1.387 . S
H1207 C1203 0.950 . S
H1208 C1205 0.950 . S
C1209 C1200 1.390 . S
C1209 H1202 0.950 . S
C1209 C1206 1.387 . S
C1210 C1211 1.387 . S
C1210 H1214 0.950 . S
C1210 C1219 1.390 . S
C1211 C1210 1.387 . S
C1211 C1213 1.387 . S
H1212 C1219 0.950 . S
C1213 C1211 1.387 . S
C1213 C1215 1.390 . S
C1213 H1217 0.950 . S
H1214 C1210 0.950 . S
C1215 C1213 1.390 . S
C1215 C1216 1.387 . S
C1215 H1218 0.950 . S
C1216 C1215 1.387 . S
C1216 C1219 1.387 . S
H1217 C1213 0.950 . S
H1218 C1215 0.950 . S
C1219 C1210 1.390 . S
C1219 H1212 0.950 . S
C1219 C1216 1.387 . S
C1220 C1221 1.387 . S
C1220 H1224 0.950 . S
C1220 C1229 1.390 . S
C1221 C1220 1.387 . S
C1221 C1223 1.387 . S
H1222 C1229 0.950 . S
C1223 C1221 1.387 . S
C1223 C1225 1.390 . S
C1223 H1227 0.950 . S
H1224 C1220 0.950 . S
C1225 C1223 1.390 . S
C1225 C1226 1.387 . S
C1225 H1228 0.950 . S
C1226 C1225 1.387 . S
C1226 C1229 1.387 . S
H1227 C1223 0.950 . S
H1228 C1225 0.950 . S
C1229 C1220 1.390 . S
C1229 H1222 0.950 . S
C1229 C1226 1.387 . S
C1230 C1231 1.387 . S
C1230 H1234 0.950 . S
C1230 C1239 1.390 . S
C1231 C1230 1.387 . S
C1231 C1233 1.387 . S
H1232 C1239 0.950 . S
C1233 C1231 1.387 . S
C1233 C1235 1.390 . S
C1233 H1237 0.950 . S
H1234 C1230 0.950 . S
C1235 C1233 1.390 . S
C1235 C1236 1.387 . S
C1235 H1238 0.950 . S
C1236 C1235 1.387 . S
C1236 C1239 1.387 . S
H1237 C1233 0.950 . S
H1238 C1235 0.950 . S
C1239 C1230 1.390 . S
C1239 H1232 0.950 . S
C1239 C1236 1.387 . S
C1240 C1241 1.387 . S
C1240 H1244 0.950 . S
C1240 C1249 1.390 . S
C1241 C1240 1.387 . S
C1241 C1243 1.387 . S
H1242 C1249 0.950 . S
C1243 C1241 1.387 . S
C1243 C1245 1.390 . S
C1243 H1247 0.950 . S
H1244 C1240 0.950 . S
C1245 C1243 1.390 . S
C1245 C1246 1.387 . S
C1245 H1248 0.950 . S
C1246 C1245 1.387 . S
C1246 C1249 1.387 . S
H1247 C1243 0.950 . S
H1248 C1245 0.950 . S
C1249 C1240 1.390 . S
C1249 H1242 0.950 . S
C1249 C1246 1.387 . S
C1250 C1251 1.387 . S
C1250 H1254 0.950 . S
C1250 C1259 1.390 . S
C1251 C1250 1.387 . S
C1251 C1253 1.387 . S
H1252 C1259 0.950 . S
C1253 C1251 1.387 . S
C1253 C1255 1.390 . S
C1253 H1257 0.950 . S
H1254 C1250 0.950 . S
C1255 C1253 1.390 . S
C1255 C1256 1.387 . S
C1255 H1258 0.950 . S
C1256 C1255 1.387 . S
C1256 C1259 1.387 . S
H1257 C1253 0.950 . S
H1258 C1255 0.950 . S
C1259 C1250 1.390 . S
C1259 H1252 0.950 . S
C1259 C1256 1.387 . S
C1260 C1261 1.387 . S
C1260 H1264 0.950 . S
C1260 C1269 1.390 . S
C1261 C1260 1.387 . S
C1261 C1263 1.387 . S
H1262 C1269 0.950 . S
C1263 C1261 1.387 . S
C1263 C1265 1.390 . S
C1263 H1267 0.950 . S
H1264 C1260 0.950 . S
C1265 C1263 1.390 . S
C1265 C1266 1.387 . S
C1265 H1268 0.950 . S
C1266 C1265 1.387 . S
C1266 C1269 1.387 . S
H1267 C1263 0.950 . S
H1268 C1265 0.950 . S
C1269 C1260 1.390 . S
C1269 H1262 0.950 . S
C1269 C1266 1.387 . S
C1270 C1271 1.387 . S
C1270 H1274 0.950 . S
C1270 C1279 1.390 . S
C1271 C1270 1.387 . S
C1271 C1273 1.387 . S
H1272 C1279 0.950 . S
C1273 C1271 1.387 . S
C1273 C1275 1.390 . S
C1273 H1277 0.950 . S
H1274 C1270 0.950 . S
C1275 C1273 1.390 . S
C1275 C1276 1.387 . S
C1275 H1278 0.950 . S
C1276 C1275 1.387 . S
C1276 C1279 1.387 . S
H1277 C1273 0.950 . S
H1278 C1275 0.950 . S
C1279 C1270 1.390 . S
C1279 H1272 0.950 . S
C1279 C1276 1.387 . S
C1280 C1281 1.387 . S
C1280 H1284 0.950 . S
C1280 C1289 1.390 . S
C1281 C1280 1.387 . S
C1281 C1283 1.387 . S
H1282 C1289 0.950 . S
C1283 C1281 1.387 . S
C1283 C1285 1.390 . S
C1283 H1287 0.950 . S
H1284 C1280 0.950 . S
C1285 C1283 1.390 . S
C1285 C1286 1.387 . S
C1285 H1288 0.950 . S
C1286 C1285 1.387 . S
C1286 C1289 1.387 . S
H1287 C1283 0.950 . S
H1288 C1285 0.950 . S
C1289 C1280 1.390 . S
C1289 H1282 0.950 . S
C1289 C1286 1.387 . S
C1290 C1291 1.387 . S
C1290 H1294 0.950 . S
C1290 C1299 1.390 . S
C1291 C1290 1.387 . S
C1291 C1293 1.387 . S
H1292 C1299 0.950 . S
C1293 C1291 1.387 . S
C1293 C1295 1.390 . S
C1293 H1297 0.950 . S
H1294 C1290 0.950 . S
C1295 C1293 1.390 . S
C1295 C1296 1.387 . S
C1295 H1298 0.950 . S
C1296 C1295 1.387 . S
C1296 C1299 1.387 . S
H1297 C1293 0.950 . S
H1298 C1295 0.950 . S
C1299 C1290 1.390 . S
C1299 H1292 0.950 . S
C1299 C1296 1.387 . S
C1300 C1301 1.387 . S
C1300 H1304 0.950 . S
C1300 C1309 1.390 . S
C1301 C1300 1.387 . S
C1301 C1303 1.387 . S
H1302 C1309 0.950 . S
C1303 C1301 1.387 . S
C1303 C1305 1.390 . S
C1303 H1307 0.950 . S
H1304 C1300 0.950 . S
C1305 C1303 1.390 . S
C1305 C1306 1.387 . S
C1305 H1308 0.950 . S
C1306 C1305 1.387 . S
C1306 C1309 1.387 . S
H1307 C1303 0.950 . S
H1308 C1305 0.950 . S
C1309 C1300 1.390 . S
C1309 H1302 0.950 . S
C1309 C1306 1.387 . S
C1310 C1311 1.387 . S
C1310 H1314 0.950 . S
C1310 C1319 1.390 . S
C1311 C1310 1.387 . S
C1311 C1313 1.387 . S
H1312 C1319 0.950 . S
C1313 C1311 1.387 . S
C1313 C1315 1.390 . S
C1313 H1317 0.950 . S
H1314 C1310 0.950 . S
C1315 C1313 1.390 . S
C1315 C1316 1.387 . S
C1315 H1318 0.950 . S
C1316 C1315 1.387 . S
C1316 C1319 1.387 . S
H1317 C1313 0.950 . S
H1318 C1315 0.950 . S
C1319 C1310 1.390 . S
C1319 H1312 0.950 . S
C1319 C1316 1.387 . S
C1320 C1321 1.387 . S
C1320 H1324 0.950 . S
C1320 C1329 1.390 . S
C1321 C1320 1.387 . S
C1321 C1323 1.387 . S
H1322 C1329 0.950 . S
C1323 C1321 1.387 . S
C1323 C1325 1.390 . S
C1323 H1327 0.950 . S
H1324 C1320 0.950 . S
C1325 C1323 1.390 . S
C1325 C1326 1.387 . S
C1325 H1328 0.950 . S
C1326 C1325 1.387 . S
C1326 C1329 1.387 . S
H1327 C1323 0.950 . S
H1328 C1325 0.950 . S
C1329 C1320 1.390 . S
C1329 H1322 0.950 . S
C1329 C1326 1.387 . S
C1330 C1331 1.387 . S
C1330 H1334 0.950 . S
C1330 C1339 1.390 . S
C1331 C1330 1.387 . S
C1331 C1333 1.387 . S
H1332 C1339 0.950 . S
C1333 C1331 1.387 . S
C1333 C1335 1.390 . S
C1333 H1337 0.950 . S
H1334 C1330 0.950 . S
C1335 C1333 1.390 . S
C1335 C1336 1.387 . S
C1335 H1338 0.950 . S
C1336 C1335 1.387 . S
C1336 C1339 1.387 . S
H1337 C1333 0.950 . S
H1338 C1335 0.950 . S
C1339 C1330 1.390 . S
C1339 H1332 0.950 . S
C1339 C1336 1.387 . S
C1340 C1341 1.387 . S
C1340 H1344 0.950 . S
C1340 C1349 1.390 . S
C1341 C1340 1.387 . S
C1341 C1343 1.387 . S
H1342 C1349 0.950 . S
C1343 C1341 1.387 . S
C1343 C1345 1.390 . S
C1343 H1347 0.950 . S
H1344 C1340 0.950 . S
C1345 C1343 1.390 . S
C1345 C1346 1.387 . S
C1345 H1348 0.950 . S
C1346 C1345 1.387 . S
C1346 C1349 1.387 . S
H1347 C1343 0.950 . S
H1348 C1345 0.950 . S
C1349 C1340 1.390 . S
C1349 H1342 0.950 . S
C1349 C1346 1.387 . S
C1350 C1351 1.387 . S
C1350 H1354 0.950 . S
C1350 C1359 1.390 . S
C1351 C1350 1.387 . S
C1351 C1353 1.387 . S
H1352 C1359 0.950 . S
C1353 C1351 1.387 . S
C1353 C1355 1.390 . S
C1353 H1357 0.950 . S
H1354 C1350 0.950 . S
C1355 C1353 1.390 . S
C1355 C1356 1.387 . S
C1355 H1358 0.950 . S
C1356 C1355 1.387 . S
C1356 C1359 1.387 . S
H1357 C1353 0.950 . S
H1358 C1355 0.950 . S
C1359 C1350 1.390 . S
C1359 H1352 0.950 . S
C1359 C1356 1.387 . S
C1360 C1361 1.387 . S
C1360 H1364 0.950 . S
C1360 C1369 1.390 . S
C1361 C1360 1.387 . S
C1361 C1363 1.387 . S
H1362 C1369 0.950 . S
C1363 C1361 1.387 . S
C1363 C1365 1.390 . S
C1363 H1367 0.950 . S
H1364 C1360 0.950 . S
C1365 C1363 1.390 . S
C1365 C1366 1.387 . S
C1365 H1368 0.950 . S
C1366 C1365 1.387 . S
C1366 C1369 1.387 . S
H1367 C1363 0.950 . S
H1368 C1365 0.950 . S
C1369 C1360 1.390 . S
C1369 H1362 0.950 . S
C1369 C1366 1.387 . S
C1370 C1371 1.387 . S
C1370 H1374 0.950 . S
C1370 C1379 1.390 . S
C1371 C1370 1.387 . S
C1371 C1373 1.387 . S
H1372 C1379 0.950 . S
C1373 C1371 1.387 . S
C1373 C1375 1.390 . S
C1373 H1377 0.950 . S
H1374 C1370 0.950 . S
C1375 C1373 1.390 . S
C1375 C1376 1.387 . S
C1375 H1378 0.950 . S
C1376 C1375 1.387 . S
C1376 C1379 1.387 . S
H1377 C1373 0.950 . S
H1378 C1375 0.950 . S
C1379 C1370 1.390 . S
C1379 H1372 0.950 . S
C1379 C1376 1.387 . S
C1380 C1381 1.387 . S
C1380 H1384 0.950 . S
C1380 C1389 1.390 . S
C1381 C1380 1.387 . S
C1381 C1383 1.387 . S
H1382 C1389 0.950 . S
C1383 C1381 1.387 . S
C1383 C1385 1.390 . S
C1383 H1387 0.950 . S
H1384 C1380 0.950 . S
C1385 C1383 1.390 . S
C1385 C1386 1.387 . S
C1385 H1388 0.950 . S
C1386 C1385 1.387 . S
C1386 C1389 1.387 . S
H1387 C1383 0.950 . S
H1388 C1385 0.950 . S
C1389 C1380 1.390 . S
C1389 H1382 0.950 . S
C1389 C1386 1.387 . S
C1390 C1391 1.387 . S
C1390 H1394 0.950 . S
C1390 C1399 1.390 . S
C1391 C1390 1.387 . S
C1391 C1393 1.387 . S
H1392 C1399 0.950 . S
C1393 C1391 1.387 . S
C1393 C1395 1.390 . S
C1393 H1397 0.950 . S
H1394 C1390 0.950 . S
C1395 C1393 1.390 . S
C1395 C1396 1.387 . S
C1395 H1398 0.950 . S
C1396 C1395 1.387 . S
C1396 C1399 1.387 . S
H1397 C1393 0.950 . S
H1398 C1395 0.950 . S
C1399 C1390 1.390 . S
C1399 H1392 0.950 . S
C1399 C1396 1.387 . S
C1400 C1401 1.387 . S
C1400 H1404 0.950 . S
C1400 C1409 1.390 . S
C1401 C1400 1.387 . S
C1401 C1403 1.387 . S
H1402 C1409 0.950 . S
C1403 C1401 1.387 . S
C1403 C1405 1.390 . S
C1403 H1407 0.950 . S
H1404 C1400 0.950 . S
C1405 C1403 1.390 . S
C1405 C1406 1.387 . S
C1405 H1408 0.950 . S
C1406 C1405 1.387 . S
C1406 C1409 1.387 . S
H1407 C1403 0.950 . S
H1408 C1405 0.950 . S
C1409 C1400 1.390 . S
C1409 H1402 0.950 . S
C1409 C1406 1.387 . S
C1410 C1411 1.387 . S
C1410 H1414 0.950 . S
C1410 C1419 1.390 . S
C1411 C1410 1.387 . S
C1411 C1413 1.387 . S
H1412 C1419 0.950 . S
C1413 C1411 1.387 . S
C1413 C1415 1.390 . S
C1413 H1417 0.950 . S
H1414 C1410 0.950 . S
C1415 C1413 1.390 . S
C1415 C1416 1.387 . S
C1415 H1418 0.950 . S
C1416 C1415 1.387 . S
C1416 C1419 1.387 . S
H1417 C1413 0.950 . S
H1418 C1415 0.950 . S
C1419 C1410 1.390 . S
C1419 H1412 0.950 . S
C1419 C1416 1.387 . S
C1420 C1421 1.387 . S
C1420 H1424 0.950 . S
C1420 C1429 1.390 . S
C1421 C1420 1.387 . S
C1421 C1423 1.387 . S
H1422 C1429 0.950 . S
C1423 C1421 1.387 . S
C1423 C1425 1.390 . S
C1423 H1427 0.950 . S
H1424 C1420 0.950 . S
C1425 C1423 1.390 . S
C1425 C1426 1.387 . S
C1425 H1428 0.950 . S
C1426 C1425 1.387 . S
C1426 C1429 1.387 . S
H1427 C1423 0.950 . S
H1428 C1425 0.950 . S
C1429 C1420 1.390 . S
C1429 H1422 0.950 . S
C1429 C1426 1.387 . S
C1430 C1431 1.387 . S
C1430 H1434 0.950 . S
C1430 C1439 1.390 . S
C1431 C1430 1.387 . S
C1431 C1433 1.387 . S
H1432 C1439 0.950 . S
C1433 C1431 1.387 . S
C1433 C1435 1.390 . S
C1433 H1437 0.950 . S
H1434 C1430 0.950 . S
C1435 C1433 1.390 . S
C1435 C1436 1.387 . S
C1435 H1438 0.950 . S
C1436 C1435 1.387 . S
C1436 C1439 1.387 . S
H1437 C1433 0.950 . S
H1438 C1435 0.950 . S
C1439 C1430 1.390 . S
C1439 H1432 0.950 . S
C1439 C1436 1.387 . S
C1440 C1441 1.387 . S
C1440 H1444 0.950 . S
C1440 C1449 1.390 . S
C1441 C1440 1.387 . S
C1441 C1443 1.387 . S
H1442 C1449 0.950 . S
C1443 C1441 1.387 . S
C1443 C1445 1.390 . S
C1443 H1447 0.950 . S
H1444 C1440 0.950 . S
C1445 C1443 1.390 . S
C1445 C1446 1.387 . S
C1445 H1448 0.947 . S
C1446 C1445 1.387 . S
C1446 C1449 1.387 . S
H1447 C1443 0.950 . S
H1448 C1445 0.947 . S
C1449 C1440 1.390 . S
C1449 H1442 0.950 . S
C1449 C1446 1.387 . S
C1450 C1451 1.394 . S
C1450 H1454 0.950 . S
C1450 C1459 1.390 . S
C1451 C1450 1.394 . S
C1451 C1453 1.388 1_455 S
H1452 C1459 0.950 . S
C1453 C1451 1.388 1_655 S
C1453 C1455 1.390 . S
C1453 H1457 0.950 . S
H1454 C1450 0.950 . S
C1455 C1453 1.390 . S
C1455 C1456 1.387 1_655 S
C1455 H1458 0.950 . S
C1456 C1455 1.387 1_455 S
C1456 C1459 1.387 . S
H1457 C1453 0.950 . S
H1458 C1455 0.950 . S
C1459 C1450 1.390 . S
C1459 H1452 0.950 . S
C1459 C1456 1.387 . S
C1460 C1461 1.387 . S
C1460 H1464 0.950 . S
C1460 C1469 1.390 . S
C1461 C1460 1.387 . S
C1461 C1463 1.387 . S
H1462 C1469 0.950 . S
C1463 C1461 1.387 . S
C1463 C1465 1.390 . S
C1463 H1467 0.950 . S
H1464 C1460 0.950 . S
C1465 C1463 1.390 . S
C1465 C1466 1.387 . S
C1465 H1468 0.950 . S
C1466 C1465 1.387 . S
C1466 C1469 1.387 . S
H1467 C1463 0.950 . S
H1468 C1465 0.950 . S
C1469 C1460 1.390 . S
C1469 H1462 0.950 . S
C1469 C1466 1.387 . S
C1470 C1471 1.387 1_655 S
C1470 H1474 0.950 . S
C1470 C1479 1.390 . S
C1471 C1470 1.387 1_455 S
C1471 C1473 1.381 . S
H1472 C1479 0.950 . S
C1473 C1471 1.381 . S
C1473 C1475 1.390 . S
C1473 H1477 0.950 . S
H1474 C1470 0.950 . S
C1475 C1473 1.390 . S
C1475 C1476 1.387 1_455 S
C1475 H1478 0.950 . S
C1476 C1475 1.387 1_655 S
C1476 C1479 1.387 . S
H1477 C1473 0.950 . S
H1478 C1475 0.950 . S
C1479 C1470 1.390 . S
C1479 H1472 0.950 . S
C1479 C1476 1.387 . S
C1480 C1481 1.387 . S
C1480 H1484 0.950 . S
C1480 C1489 1.390 . S
C1481 C1480 1.387 . S
C1481 C1483 1.387 . S
H1482 C1489 0.950 . S
C1483 C1481 1.387 . S
C1483 C1485 1.390 . S
C1483 H1487 0.950 . S
H1484 C1480 0.950 . S
C1485 C1483 1.390 . S
C1485 C1486 1.387 . S
C1485 H1488 0.950 . S
C1486 C1485 1.387 . S
C1486 C1489 1.387 . S
H1487 C1483 0.950 . S
H1488 C1485 0.950 . S
C1489 C1480 1.390 . S
C1489 H1482 0.950 . S
C1489 C1486 1.387 . S
C1490 C1491 1.387 . S
C1490 H1494 0.950 . S
C1490 C1499 1.390 . S
C1491 C1490 1.387 . S
C1491 C1493 1.387 1_545 S
H1492 C1499 0.950 . S
C1493 C1491 1.387 1_565 S
C1493 C1495 1.390 . S
C1493 H1497 0.950 . S
H1494 C1490 0.950 . S
C1495 C1493 1.390 . S
C1495 C1496 1.387 1_565 S
C1495 H1498 0.950 . S
C1496 C1495 1.387 1_545 S
C1496 C1499 1.387 . S
H1497 C1493 0.950 . S
H1498 C1495 0.950 . S
C1499 C1490 1.390 . S
C1499 H1492 0.950 . S
C1499 C1496 1.387 . S
C1500 C1501 1.387 . S
C1500 H1504 0.950 . S
C1500 C1509 1.390 . S
C1501 C1500 1.387 . S
C1501 C1503 1.387 . S
H1502 C1509 0.950 . S
C1503 C1501 1.387 . S
C1503 C1505 1.390 . S
C1503 H1507 0.950 . S
H1504 C1500 0.950 . S
C1505 C1503 1.390 . S
C1505 C1506 1.387 . S
C1505 H1508 0.950 . S
C1506 C1505 1.387 . S
C1506 C1509 1.387 . S
H1507 C1503 0.950 . S
H1508 C1505 0.950 . S
C1509 C1500 1.390 . S
C1509 H1502 0.950 . S
C1509 C1506 1.387 . S
C1510 C1511 1.387 . S
C1510 H1514 0.950 . S
C1510 C1519 1.390 . S
C1511 C1510 1.387 . S
C1511 C1513 1.387 . S
H1512 C1519 0.950 . S
C1513 C1511 1.387 . S
C1513 C1515 1.390 . S
C1513 H1517 0.950 . S
H1514 C1510 0.950 . S
C1515 C1513 1.390 . S
C1515 C1516 1.387 . S
C1515 H1518 0.950 . S
C1516 C1515 1.387 . S
C1516 C1519 1.387 . S
H1517 C1513 0.950 . S
H1518 C1515 0.950 . S
C1519 C1510 1.390 . S
C1519 H1512 0.950 . S
C1519 C1516 1.387 . S
C1520 C1521 1.387 . S
C1520 H1524 0.950 . S
C1520 C1529 1.390 . S
C1521 C1520 1.387 . S
C1521 C1523 1.387 . S
H1522 C1529 0.950 . S
C1523 C1521 1.387 . S
C1523 C1525 1.390 . S
C1523 H1527 0.950 . S
H1524 C1520 0.950 . S
C1525 C1523 1.390 . S
C1525 C1526 1.387 . S
C1525 H1528 0.950 . S
C1526 C1525 1.387 . S
C1526 C1529 1.387 . S
H1527 C1523 0.950 . S
H1528 C1525 0.950 . S
C1529 C1520 1.390 . S
C1529 H1522 0.950 . S
C1529 C1526 1.387 . S
C1530 C1531 1.387 . S
C1530 H1534 0.950 . S
C1530 C1539 1.390 . S
C1531 C1530 1.387 . S
C1531 C1533 1.387 . S
H1532 C1539 0.950 . S
C1533 C1531 1.387 . S
C1533 C1535 1.390 . S
C1533 H1537 0.950 . S
H1534 C1530 0.950 . S
C1535 C1533 1.390 . S
C1535 C1536 1.387 . S
C1535 H1538 0.950 . S
C1536 C1535 1.387 . S
C1536 C1539 1.387 . S
H1537 C1533 0.950 . S
H1538 C1535 0.950 . S
C1539 C1530 1.390 . S
C1539 H1532 0.950 . S
C1539 C1536 1.387 . S
C1540 C1541 1.387 . S
C1540 H1544 0.950 . S
C1540 C1549 1.390 . S
C1541 C1540 1.387 . S
C1541 C1543 1.387 . S
H1542 C1549 0.950 . S
C1543 C1541 1.387 . S
C1543 C1545 1.390 . S
C1543 H1547 0.950 . S
H1544 C1540 0.950 . S
C1545 C1543 1.390 . S
C1545 C1546 1.387 . S
C1545 H1548 0.950 . S
C1546 C1545 1.387 . S
C1546 C1549 1.387 . S
H1547 C1543 0.950 . S
H1548 C1545 0.950 . S
C1549 C1540 1.390 . S
C1549 H1542 0.950 . S
C1549 C1546 1.387 . S
C1550 C1551 1.387 . S
C1550 H1554 0.950 . S
C1550 C1559 1.390 . S
C1551 C1550 1.387 . S
C1551 C1553 1.387 . S
H1552 C1559 0.950 . S
C1553 C1551 1.387 . S
C1553 C1555 1.390 . S
C1553 H1557 0.950 . S
H1554 C1550 0.950 . S
C1555 C1553 1.390 . S
C1555 C1556 1.387 . S
C1555 H1558 0.950 . S
C1556 C1555 1.387 . S
C1556 C1559 1.387 . S
H1557 C1553 0.950 . S
H1558 C1555 0.950 . S
C1559 C1550 1.390 . S
C1559 H1552 0.950 . S
C1559 C1556 1.387 . S
C1560 C1561 1.387 . S
C1560 H1564 0.950 . S
C1560 C1569 1.390 . S
C1561 C1560 1.387 . S
C1561 C1563 1.387 . S
H1562 C1569 0.950 . S
C1563 C1561 1.387 . S
C1563 C1565 1.390 . S
C1563 H1567 0.950 . S
H1564 C1560 0.950 . S
C1565 C1563 1.390 . S
C1565 C1566 1.387 . S
C1565 H1568 0.950 . S
C1566 C1565 1.387 . S
C1566 C1569 1.387 . S
H1567 C1563 0.950 . S
H1568 C1565 0.950 . S
C1569 C1560 1.390 . S
C1569 H1562 0.950 . S
C1569 C1566 1.387 . S
C1570 C1571 1.387 . S
C1570 H1574 0.950 . S
C1570 C1579 1.390 . S
C1571 C1570 1.387 . S
C1571 C1573 1.387 . S
H1572 C1579 0.950 . S
C1573 C1571 1.387 . S
C1573 C1575 1.390 . S
C1573 H1577 0.950 . S
H1574 C1570 0.950 . S
C1575 C1573 1.390 . S
C1575 C1576 1.387 . S
C1575 H1578 0.950 . S
C1576 C1575 1.387 . S
C1576 C1579 1.387 . S
H1577 C1573 0.950 . S
H1578 C1575 0.950 . S
C1579 C1570 1.390 . S
C1579 H1572 0.950 . S
C1579 C1576 1.387 . S
C1580 C1581 1.387 . S
C1580 H1584 0.950 . S
C1580 C1589 1.390 . S
C1581 C1580 1.387 . S
C1581 C1583 1.387 . S
H1582 C1589 0.950 . S
C1583 C1581 1.387 . S
C1583 C1585 1.390 . S
C1583 H1587 0.950 . S
H1584 C1580 0.950 . S
C1585 C1583 1.390 . S
C1585 C1586 1.387 . S
C1585 H1588 0.950 . S
C1586 C1585 1.387 . S
C1586 C1589 1.387 . S
H1587 C1583 0.950 . S
H1588 C1585 0.950 . S
C1589 C1580 1.390 . S
C1589 H1582 0.950 . S
C1589 C1586 1.387 . S
C1590 C1591 1.387 . S
C1590 H1594 0.950 . S
C1590 C1599 1.390 . S
C1591 C1590 1.387 . S
C1591 C1593 1.387 . S
H1592 C1599 0.950 . S
C1593 C1591 1.387 . S
C1593 C1595 1.390 . S
C1593 H1597 0.950 . S
H1594 C1590 0.950 . S
C1595 C1593 1.390 . S
C1595 C1596 1.387 . S
C1595 H1598 0.950 . S
C1596 C1595 1.387 . S
C1596 C1599 1.387 . S
H1597 C1593 0.950 . S
H1598 C1595 0.950 . S
C1599 C1590 1.390 . S
C1599 H1592 0.950 . S
C1599 C1596 1.387 . S
C1600 C1601 1.387 . S
C1600 H1604 0.950 . S
C1600 C1609 1.390 . S
C1601 C1600 1.387 . S
C1601 C1603 1.387 . S
H1602 C1609 0.950 . S
C1603 C1601 1.387 . S
C1603 C1605 1.390 . S
C1603 H1607 0.950 . S
H1604 C1600 0.950 . S
C1605 C1603 1.390 . S
C1605 C1606 1.387 . S
C1605 H1608 0.950 . S
C1606 C1605 1.387 . S
C1606 C1609 1.387 . S
H1607 C1603 0.950 . S
H1608 C1605 0.950 . S
C1609 C1600 1.390 . S
C1609 H1602 0.950 . S
C1609 C1606 1.387 . S
C1610 C1611 1.387 . S
C1610 H1614 0.950 . S
C1610 C1619 1.390 . S
C1611 C1610 1.387 . S
C1611 C1613 1.387 . S
H1612 C1619 0.950 . S
C1613 C1611 1.387 . S
C1613 C1615 1.390 . S
C1613 H1617 0.950 . S
H1614 C1610 0.950 . S
C1615 C1613 1.390 . S
C1615 C1616 1.387 . S
C1615 H1618 0.950 . S
C1616 C1615 1.387 . S
C1616 C1619 1.387 . S
H1617 C1613 0.950 . S
H1618 C1615 0.950 . S
C1619 C1610 1.390 . S
C1619 H1612 0.950 . S
C1619 C1616 1.387 . S
C1081 C522 1.831 . S
C1086 C729 1.754 . S
C1091 C562 1.832 . S
C1096 C769 1.765 . S
C1101 C495 1.873 . S
C1106 C808 1.924 . S
C1111 C455 1.685 . S
C1116 C768 1.709 . S
C1126 C809 1.519 . S
C1121 C362 1.562 . S
C1131 C402 1.677 . S
C1136 C728 1.683 1_556 S
C1146 C739 1.774 . S
C1141 C442 1.717 . S
C1156 C779 1.743 . S
C1151 C375 1.781 . S
C1161 C415 1.890 . S
C1166 C818 1.933 . S
C1171 C535 1.698 . S
C1176 C778 1.710 . S
C1181 C575 1.522 . S
C1186 C819 1.494 . S
C1196 C738 1.707 . S
C1191 C482 1.546 . S
C1206 C849 1.750 . S
C1201 C42 1.829 1_455 S
C1211 C82 1.832 . S
C1216 C889 1.765 . S
C1221 C15 1.875 1_565 S
C1226 C928 1.925 . S
C1231 C695 1.683 . S
C1236 C888 1.709 . S
C1241 C602 1.562 . S
C1246 C929 1.520 . S
C1251 C642 1.675 . S
C1256 C848 1.681 . S
C1261 C682 1.718 . S
C1266 C859 1.774 . S
C1271 C615 1.781 . S
C1276 C899 1.743 . S
C1286 C938 1.928 . S
C1281 C655 1.891 . S
C1291 C55 1.698 1_565 S
C1296 C898 1.710 . S
C1306 C939 1.493 . S
C1301 C95 1.521 . S
C1311 C2 1.546 . S
C1316 C858 1.707 . S
C1326 C969 1.750 . S
C1321 C282 1.829 . S
C1331 C322 1.832 . S
C1336 C1009 1.765 . S
C1346 C1048 1.925 . S
C1341 C255 1.872 . S
C1356 C1008 1.709 . S
C1351 C215 1.685 1_545 S
C1366 C1049 1.522 . S
C1361 C122 1.564 . S
C1371 C162 1.675 . S
C1376 C968 1.681 . S
C1381 C202 1.721 1_655 S
C1386 C979 1.777 . S
C1391 C135 1.781 . S
C1396 C1019 1.744 . S
C1406 C1058 1.927 . S
C1401 C175 1.890 1_545 S
C1411 C295 1.696 . S
C1416 C1018 1.710 . S
C1421 C335 1.524 . S
C1426 C1059 1.496 . S
C1431 C242 1.551 . S
C1436 C978 1.708 . S
C1441 C621 1.361 . S
C1446 C725 1.359 . S
C1456 C765 1.891 . S
C1451 C661 1.902 1_455 S
C1461 C701 1.568 . S
C1466 C815 1.634 . S
C1471 C261 1.809 1_455 S
C1476 C775 1.904 . S
C1481 C301 1.616 . S
C1486 C805 1.615 . S
C1496 C735 1.357 . S
C1491 C341 1.361 . S
C1501 C141 1.360 . S
C1506 C845 1.358 . S
C1511 C181 1.905 . S
C1516 C885 1.890 . S
C1521 C221 1.566 . S
C1526 C935 1.633 . S
C1531 C501 1.808 . S
C1536 C895 1.904 . S
C1546 C925 1.615 . S
C1541 C541 1.616 . S
C1551 C581 1.362 . S
C1556 C855 1.358 . S
C1561 C381 1.360 . S
C1566 C965 1.358 . S
C1571 C421 1.905 . S
C1576 C1005 1.889 . S
C1586 C1055 1.634 . S
C1581 C461 1.569 . S
C1591 C21 1.812 . S
C1596 C1015 1.906 . S
C1601 C61 1.616 . S
C1606 C1045 1.614 . S
C1611 C101 1.362 . S
C1616 C975 1.358 . S
