# Generated by pormake.
# Topology tsx, (6,3)-cn, num edge types: 1
# Building blocks:
#     Node 0, Type 0, BuildingBlock: MIDCAF_clean_sbu_0, # of connection points: 6
#     Node 1, Type 0, BuildingBlock: MIDCAF_clean_sbu_0, # of connection points: 6
#     Node 2, Type 1, BuildingBlock: OLANEW_clean_sbu_2, # of connection points: 3
#     Node 3, Type 1, BuildingBlock: OLANEW_clean_sbu_2, # of connection points: 3
#     Node 4, Type 1, BuildingBlock: OLANEW_clean_sbu_2, # of connection points: 3
#     Node 5, Type 1, BuildingBlock: OLANEW_clean_sbu_2, # of connection points: 3
#     Edge 6, Type (0, 1), BuildingBlock: FUNLAD_clean_linker_1, # of connection points: 2
#     Edge 7, Type (0, 1), BuildingBlock: FUNLAD_clean_linker_1, # of connection points: 2
#     Edge 8, Type (0, 1), BuildingBlock: FUNLAD_clean_linker_1, # of connection points: 2
#     Edge 9, Type (0, 1), BuildingBlock: FUNLAD_clean_linker_1, # of connection points: 2
#     Edge 10, Type (0, 1), BuildingBlock: FUNLAD_clean_linker_1, # of connection points: 2
#     Edge 11, Type (0, 1), BuildingBlock: FUNLAD_clean_linker_1, # of connection points: 2
#     Edge 12, Type (0, 1), BuildingBlock: FUNLAD_clean_linker_1, # of connection points: 2
#     Edge 13, Type (0, 1), BuildingBlock: FUNLAD_clean_linker_1, # of connection points: 2
#     Edge 14, Type (0, 1), BuildingBlock: FUNLAD_clean_linker_1, # of connection points: 2
#     Edge 15, Type (0, 1), BuildingBlock: FUNLAD_clean_linker_1, # of connection points: 2
#     Edge 16, Type (0, 1), BuildingBlock: FUNLAD_clean_linker_1, # of connection points: 2
#     Edge 17, Type (0, 1), BuildingBlock: FUNLAD_clean_linker_1, # of connection points: 2
# Relax obj value: 0.070
# Max RMSD: 0.154
# Mean RMSD: 0.099
data_MOF--net-tsx--node1-MIDCAF_clean_sbu_0--node2-OLANEW_clean_sbu_2--edge1-FUNLAD_clean_linker_1
_symmetry_space_group_name_H-M    P1
_symmetry_Int_Tables_number       1
_symmetry_cell_setting            triclinic
loop_
_symmetry_equiv_pos_as_xyz
'x, y, z'
_cell_length_a     22.563492
_cell_length_b     23.435996
_cell_length_c     38.141105
_cell_angle_alpha  95.980317
_cell_angle_beta   94.837444
_cell_angle_gamma 89.911513
loop_
_atom_site_label
_atom_site_type_symbol
_atom_site_fract_x
_atom_site_fract_y
_atom_site_fract_z
_atom_type_partial_charge
Zn0 Zn 0.93399 0.99663 0.95436 0.0
Zn1 Zn 0.12945 0.99532 0.03959 0.0
Zn2 Zn 0.03176 0.99705 0.99779 0.0
C3 C 0.10697 0.11027 0.02963 0.0
C4 C 0.15549 0.93145 0.97887 0.0
O5 O 0.96185 0.9483 0.02002 0.0
O6 O 0.885 0.9476 0.97977 0.0
C7 C 0.95791 0.11098 0.97853 0.0
O8 O 0.06042 0.08744 0.01174 0.0
O9 O 0.14458 0.07908 0.04488 0.0
O10 O 0.17927 0.947 0.00947 0.0
O11 O 0.10209 0.94737 0.96973 0.0
O12 O 0.91918 0.07972 0.95992 0.0
O13 O 1.00399 0.08797 0.99363 0.0
O14 O 0.05281 0.95454 0.94592 0.0
O15 O 0.97031 0.96373 0.91135 0.0
C16 C 0.0238 0.94792 0.91519 0.0
O17 O 0.01027 0.95775 0.04584 0.0
O18 O 0.09681 0.9591 0.07797 0.0
C19 C 0.90833 0.93252 0.00855 0.0
C20 C 0.04206 0.94727 0.07411 0.0
Zn21 Zn 0.62715 0.51121 0.5542 0.0
Zn22 Zn 0.43072 0.51801 0.47038 0.0
Zn23 Zn 0.53114 0.5174 0.51229 0.0
C24 C 0.52009 0.46994 0.42976 0.0
C25 C 0.46082 0.6322 0.49381 0.0
O26 O 0.50768 0.48068 0.56064 0.0
O27 O 0.58996 0.49172 0.59648 0.0
C28 C 0.64651 0.4401 0.49476 0.0
O29 O 0.54974 0.47449 0.46029 0.0
O30 O 0.4671 0.48745 0.42657 0.0
O31 O 0.4184 0.6017 0.47829 0.0
O32 O 0.50803 0.6084 0.5069 0.0
O33 O 0.66774 0.44995 0.52649 0.0
O34 O 0.59773 0.46417 0.48422 0.0
O35 O 0.56434 0.60676 0.52551 0.0
O36 O 0.65382 0.59079 0.55092 0.0
C37 C 0.61607 0.62502 0.53887 0.0
O38 O 0.4608 0.46977 0.53478 0.0
O39 O 0.38319 0.46622 0.49503 0.0
C40 C 0.5359 0.47692 0.5911 0.0
C41 C 0.4076 0.45227 0.5239 0.0
O42 O 0.09906 0.02303 0.35192 0.0
Cd43 Cd 0.12358 0.04689 0.41563 0.0
O44 O 0.10748 0.11337 0.3418 0.0
Cd45 Cd 0.11395 0.14674 0.39725 0.0
O46 O 0.0497 0.1959 0.42688 0.0
C47 C 0.99947 0.19805 0.40935 0.0
O48 O 0.99193 0.17066 0.37741 0.0
C49 C 0.0981 0.06106 0.33041 0.0
C50 C 0.2046 0.97056 0.4437 0.0
O51 O 0.14856 0.96048 0.44121 0.0
O52 O 0.22289 0.01695 0.43296 0.0
O53 O 0.04137 0.04868 0.65992 0.0
Cd54 Cd 0.01607 0.07994 0.60164 0.0
O55 O 0.04467 0.95705 0.64042 0.0
Cd56 Cd 0.99113 0.96953 0.59136 0.0
O57 O 0.90217 0.9464 0.56664 0.0
C58 C 0.85715 0.97732 0.57306 0.0
O59 O 0.86485 0.02705 0.59218 0.0
C60 C 0.05379 0.99729 0.66532 0.0
C61 C 0.0936 0.16809 0.59151 0.0
O62 O 0.04322 0.17925 0.60369 0.0
O63 O 0.10705 0.11543 0.58358 0.0
O64 O 0.53298 0.4675 0.87215 0.0
Cd65 Cd 0.55602 0.48603 0.93639 0.0
O66 O 0.60019 0.53078 0.86263 0.0
Cd67 Cd 0.59623 0.57457 0.91544 0.0
O68 O 0.53545 0.63911 0.93665 0.0
C69 C 0.49301 0.65107 0.9146 0.0
O70 O 0.4893 0.62433 0.88243 0.0
C71 C 0.56336 0.49099 0.85091 0.0
C72 C 0.65281 0.42006 0.95823 0.0
O73 O 0.59943 0.40091 0.95665 0.0
O74 O 0.66095 0.4709 0.94993 0.0
O75 O 0.58389 0.51375 0.15628 0.0
Cd76 Cd 0.58827 0.51949 0.0931 0.0
O77 O 0.58784 0.41945 0.15024 0.0
Cd78 Cd 0.55682 0.41321 0.09418 0.0
O79 O 0.47955 0.37909 0.06006 0.0
C80 C 0.42944 0.40342 0.06231 0.0
O81 O 0.42605 0.45188 0.08272 0.0
C82 C 0.58951 0.4667 0.16995 0.0
C83 C 0.68028 0.59405 0.08357 0.0
O84 O 0.62658 0.61177 0.08432 0.0
O85 O 0.6905 0.54103 0.0868 0.0
H86 H 0.08881 0.1989 0.01574 0.0
C87 C 0.11977 0.17223 0.02999 0.0
H88 H 0.20258 0.16779 0.05977 0.0
H89 H 0.30474 0.37116 0.98337 0.0
H90 H 0.28493 0.3107 0.92771 0.0
H91 H 0.22328 0.22312 0.92455 0.0
H92 H 0.1802 0.19601 0.97662 0.0
C93 C 0.17196 0.19424 0.04509 0.0
C94 C 0.19229 0.25397 0.04316 0.0
C95 C 0.21688 0.26894 0.01234 0.0
C96 C 0.25406 0.31834 0.01436 0.0
C97 C 0.27775 0.33299 0.98329 0.0
C98 C 0.26643 0.29891 0.95125 0.0
C99 C 0.23162 0.24966 0.94946 0.0
C100 C 0.20716 0.23453 0.97959 0.0
H101 H 0.38055 0.32727 0.03654 0.0
C102 C 0.37511 0.37131 0.04788 0.0
H103 H 0.31437 0.4349 0.06453 0.0
H104 H 0.14064 0.24396 0.10423 0.0
H105 H 0.15663 0.30678 0.15918 0.0
H106 H 0.22353 0.39086 0.16342 0.0
H107 H 0.27454 0.41285 0.11302 0.0
C108 C 0.32007 0.39142 0.05244 0.0
C109 C 0.26803 0.35129 0.04735 0.0
C110 C 0.2374 0.34034 0.07698 0.0
C111 C 0.19939 0.29154 0.07476 0.0
C112 C 0.17057 0.2802 0.10487 0.0
C113 C 0.17917 0.31596 0.13642 0.0
C114 C 0.21679 0.36333 0.13879 0.0
C115 C 0.24587 0.37546 0.10958 0.0
H116 H 0.16991 0.88036 0.9278 0.0
C117 C 0.18895 0.89301 0.95452 0.0
H118 H 0.26143 0.88483 0.99248 0.0
H119 H 0.31085 0.64405 0.89822 0.0
H120 H 0.21199 0.61381 0.9094 0.0
H121 H 0.14252 0.68261 0.93702 0.0
H122 H 0.1711 0.78193 0.95329 0.0
C123 C 0.24166 0.87153 0.96591 0.0
C124 C 0.27777 0.83196 0.94349 0.0
C125 C 0.25992 0.77395 0.93411 0.0
C126 C 0.30036 0.73397 0.91878 0.0
C127 C 0.28194 0.67613 0.91 0.0
C128 C 0.22536 0.65818 0.91632 0.0
C129 C 0.18623 0.69693 0.93184 0.0
C130 C 0.20317 0.75405 0.9409 0.0
H131 H 0.45412 0.71651 0.95165 0.0
C132 C 0.44902 0.69483 0.92494 0.0
H133 H 0.39658 0.68607 0.87594 0.0
H134 H 0.32297 0.94121 0.95434 0.0
H135 H 0.42094 0.97173 0.94156 0.0
H136 H 0.49094 0.90224 0.91503 0.0
H137 H 0.46348 0.8018 0.90129 0.0
C138 C 0.40335 0.70845 0.9024 0.0
C139 C 0.35876 0.7518 0.91375 0.0
C140 C 0.37515 0.81045 0.92095 0.0
C141 C 0.33465 0.85051 0.93595 0.0
C142 C 0.35231 0.90883 0.94325 0.0
C143 C 0.40826 0.92698 0.93587 0.0
C144 C 0.44767 0.88786 0.92096 0.0
C145 C 0.4315 0.83026 0.91341 0.0
H146 H 0.82489 0.89495 0.02106 0.0
C147 C 0.87282 0.89516 0.02747 0.0
H148 H 0.94458 0.85134 0.05148 0.0
H149 H 0.70015 0.76396 0.12012 0.0
H150 H 0.70485 0.85707 0.15459 0.0
H151 H 0.77846 0.92991 0.14424 0.0
H152 H 0.84837 0.90964 0.09961 0.0
C153 C 0.89665 0.85554 0.04725 0.0
C154 C 0.85742 0.80962 0.05688 0.0
C155 C 0.81597 0.82242 0.08242 0.0
C156 C 0.77272 0.78083 0.08777 0.0
C157 C 0.73311 0.79431 0.11432 0.0
C158 C 0.73544 0.84756 0.13441 0.0
C159 C 0.77686 0.88857 0.12859 0.0
C160 C 0.8167 0.8764 0.1029 0.0
H161 H 0.77489 0.61793 0.08352 0.0
C162 C 0.72963 0.63335 0.07946 0.0
H163 H 0.67482 0.70241 0.06679 0.0
H164 H 0.93395 0.76971 0.00817 0.0
H165 H 0.92724 0.67852 0.97162 0.0
H166 H 0.84645 0.60982 0.97659 0.0
H167 H 0.77286 0.63127 0.01844 0.0
C168 C 0.72003 0.68658 0.07022 0.0
C169 C 0.76957 0.72713 0.06667 0.0
C170 C 0.81137 0.71425 0.04112 0.0
C171 C 0.85649 0.7549 0.03712 0.0
C172 C 0.89831 0.74073 0.01196 0.0
C173 C 0.89497 0.68856 0.99076 0.0
C174 C 0.84961 0.64982 0.99364 0.0
C175 C 0.80795 0.66246 0.01822 0.0
H176 H 0.97758 0.20046 0.00265 0.0
C177 C 0.9475 0.1736 0.98423 0.0
H178 H 0.86948 0.16967 0.94929 0.0
H179 H 0.75733 0.38244 0.03646 0.0
H180 H 0.76211 0.32543 0.0864 0.0
H181 H 0.82059 0.23628 0.08552 0.0
H182 H 0.87541 0.20411 0.0351 0.0
C183 C 0.89876 0.19639 0.96833 0.0
C184 C 0.88046 0.25726 0.97477 0.0
C185 C 0.84901 0.27538 0.00455 0.0
C186 C 0.8138 0.32581 0.00463 0.0
C187 C 0.78317 0.34345 0.03474 0.0
C188 C 0.78587 0.31136 0.06358 0.0
C189 C 0.81888 0.26121 0.0631 0.0
C190 C 0.85008 0.24315 0.03397 0.0
H191 H 0.69248 0.33863 0.97171 0.0
C192 C 0.70299 0.38268 0.96781 0.0
H193 H 0.77156 0.44298 0.96525 0.0
H194 H 0.94578 0.2409 0.91779 0.0
H195 H 0.94469 0.30025 0.86901 0.0
H196 H 0.88166 0.38635 0.86824 0.0
H197 H 0.81957 0.4138 0.91606 0.0
C198 C 0.76029 0.39956 0.97001 0.0
C199 C 0.80883 0.3569 0.97454 0.0
C200 C 0.84596 0.34262 0.94678 0.0
C201 C 0.88183 0.29268 0.94698 0.0
C202 C 0.91723 0.27812 0.91851 0.0
C203 C 0.91716 0.31187 0.89053 0.0
C204 C 0.88172 0.36039 0.89012 0.0
C205 C 0.84625 0.37567 0.91776 0.0
H206 H 0.68236 0.68913 0.53132 0.0
C207 C 0.63618 0.68396 0.53675 0.0
H208 H 0.56047 0.72752 0.55448 0.0
H209 H 0.7703 0.90422 0.61984 0.0
H210 H 0.73309 0.87464 0.67285 0.0
H211 H 0.6493 0.80615 0.66915 0.0
H212 H 0.60258 0.76646 0.61201 0.0
C213 C 0.60427 0.73094 0.54508 0.0
C214 C 0.63471 0.78765 0.54733 0.0
C215 C 0.65899 0.81312 0.58067 0.0
C216 C 0.70651 0.85349 0.58268 0.0
C217 C 0.7332 0.87457 0.61649 0.0
C218 C 0.71238 0.85772 0.64724 0.0
C219 C 0.66527 0.81909 0.64517 0.0
C220 C 0.63897 0.79659 0.61231 0.0
H221 H 0.75904 0.97986 0.57271 0.0
C222 C 0.79633 0.95359 0.56475 0.0
H223 H 0.82385 0.87176 0.54398 0.0
H224 H 0.58625 0.7579 0.48017 0.0
H225 H 0.61737 0.79266 0.42648 0.0
H226 H 0.69938 0.86317 0.42953 0.0
H227 H 0.75049 0.89967 0.48623 0.0
C228 C 0.78697 0.89834 0.55222 0.0
C229 C 0.72805 0.86943 0.55108 0.0
C230 C 0.69819 0.84949 0.51792 0.0
C231 C 0.65121 0.80871 0.51608 0.0
C232 C 0.62265 0.7885 0.48268 0.0
C233 C 0.63994 0.80824 0.45184 0.0
C234 C 0.6861 0.84799 0.45357 0.0
C235 C 0.71517 0.86843 0.48617 0.0
H236 H 0.66096 0.39313 0.44257 0.0
C237 C 0.67892 0.40185 0.46989 0.0
H238 H 0.75045 0.38866 0.50766 0.0
H239 H 0.81826 0.1624 0.40876 0.0
H240 H 0.72864 0.12044 0.42661 0.0
H241 H 0.65605 0.18062 0.45814 0.0
H242 H 0.67256 0.28317 0.47194 0.0
C243 C 0.73119 0.37908 0.4806 0.0
C244 C 0.76798 0.34464 0.45604 0.0
C245 C 0.75703 0.28509 0.44774 0.0
C246 C 0.79891 0.25044 0.42964 0.0
C247 C 0.78777 0.19076 0.42235 0.0
C248 C 0.73655 0.16613 0.43248 0.0
C249 C 0.69567 0.20001 0.45023 0.0
C250 C 0.70567 0.2588 0.45798 0.0
H251 H 0.95982 0.25611 0.45017 0.0
C252 C 0.95142 0.23306 0.42396 0.0
H253 H 0.88906 0.21471 0.37954 0.0
H254 H 0.79805 0.45858 0.46439 0.0
H255 H 0.88475 0.50151 0.44365 0.0
H256 H 0.9562 0.44177 0.41088 0.0
H257 H 0.94167 0.33877 0.39894 0.0
C258 C 0.89874 0.23849 0.4054 0.0
C259 C 0.85159 0.27559 0.4202 0.0
C260 C 0.86009 0.33587 0.42604 0.0
C261 C 0.81846 0.37037 0.44434 0.0
C262 C 0.82849 0.43035 0.45063 0.0
C263 C 0.8779 0.45556 0.43875 0.0
C264 C 0.91815 0.42193 0.42034 0.0
C265 C 0.90951 0.36279 0.41389 0.0
H266 H 0.40316 0.38821 0.56236 0.0
C267 C 0.37697 0.41139 0.54331 0.0
H268 H 0.29338 0.42164 0.51579 0.0
H269 H 0.1864 0.17788 0.50939 0.0
H270 H 0.20331 0.18465 0.44809 0.0
H271 H 0.26129 0.26508 0.43117 0.0
H272 H 0.30228 0.33936 0.47541 0.0
C273 C 0.31895 0.39878 0.53528 0.0
C274 C 0.29003 0.34762 0.5468 0.0
C275 C 0.26756 0.30367 0.5206 0.0
C276 C 0.23524 0.25665 0.53038 0.0
C277 C 0.21197 0.21422 0.50354 0.0
C278 C 0.22127 0.21756 0.46818 0.0
C279 C 0.25381 0.26287 0.45867 0.0
C280 C 0.27685 0.30544 0.4844 0.0
H281 H 0.11806 0.25893 0.59021 0.0
C282 C 0.13411 0.21517 0.5862 0.0
H283 H 0.20506 0.16191 0.5709 0.0
H284 H 0.3255 0.42495 0.60383 0.0
H285 H 0.31435 0.41445 0.66545 0.0
H286 H 0.26388 0.32954 0.68259 0.0
H287 H 0.22365 0.25488 0.63804 0.0
C288 C 0.189 0.20551 0.57585 0.0
C289 C 0.22601 0.25318 0.56637 0.0
C290 C 0.25087 0.29556 0.59278 0.0
C291 C 0.28203 0.34344 0.58296 0.0
C292 C 0.30354 0.3866 0.60977 0.0
C293 C 0.29703 0.38132 0.64529 0.0
C294 C 0.26848 0.33359 0.65494 0.0
C295 C 0.24539 0.29118 0.6291 0.0
H296 H 0.4943 0.72203 0.50476 0.0
C297 C 0.45575 0.69532 0.49591 0.0
H298 H 0.36465 0.69342 0.47785 0.0
H299 H 0.28408 0.936 0.52954 0.0
H300 H 0.26676 0.89084 0.58246 0.0
H301 H 0.30852 0.79559 0.59172 0.0
H302 H 0.36848 0.74526 0.5483 0.0
C303 C 0.40403 0.71976 0.48588 0.0
C304 C 0.39584 0.7826 0.48622 0.0
C305 C 0.36127 0.81133 0.51174 0.0
C306 C 0.33633 0.86558 0.50608 0.0
C307 C 0.30252 0.89385 0.53219 0.0
C308 C 0.29268 0.86861 0.56272 0.0
C309 C 0.31623 0.81499 0.56794 0.0
C310 C 0.3502 0.78645 0.54281 0.0
H311 H 0.2274 0.88791 0.46342 0.0
C312 C 0.24616 0.92837 0.45779 0.0
H313 H 0.32491 0.97671 0.45689 0.0
H314 H 0.47167 0.74469 0.43663 0.0
H315 H 0.49567 0.79332 0.3864 0.0
H316 H 0.45092 0.8868 0.37586 0.0
H317 H 0.3822 0.93238 0.41558 0.0
C318 C 0.3053 0.93707 0.46311 0.0
C319 C 0.34481 0.89006 0.47439 0.0
C320 C 0.38612 0.86506 0.45139 0.0
C321 C 0.41176 0.81103 0.45735 0.0
C322 C 0.451 0.78563 0.43329 0.0
C323 C 0.46516 0.81312 0.40439 0.0
C324 C 0.43999 0.86578 0.39847 0.0
C325 C 0.40058 0.89149 0.42147 0.0
H326 H 0.03567 0.89261 0.11617 0.0
C327 C 0.01547 0.92962 0.10506 0.0
H328 H 0.97823 0.0105 0.11696 0.0
H329 H 0.98857 0.92214 0.27717 0.0
H330 H 0.9016 0.86437 0.25519 0.0
H331 H 0.86654 0.85493 0.19177 0.0
H332 H 0.91802 0.9044 0.15012 0.0
C333 C 0.99326 0.97086 0.12723 0.0
C334 C 0.01433 0.97492 0.16547 0.0
C335 C 0.98567 0.94405 0.18925 0.0
C336 C 0.00694 0.94845 0.22568 0.0
C337 C 0.97522 0.91964 0.24916 0.0
C338 C 0.92511 0.88633 0.23689 0.0
C339 C 0.90532 0.88105 0.20119 0.0
C340 C 0.93508 0.90959 0.17756 0.0
H341 H 0.07506 0.08227 0.27642 0.0
C342 C 0.08259 0.04658 0.29229 0.0
H343 H 0.0828 0.95651 0.29218 0.0
H344 H 0.07834 0.04322 0.12763 0.0
H345 H 0.1719 0.09106 0.14754 0.0
H346 H 0.21778 0.0851 0.2081 0.0
H347 H 0.16879 0.0331 0.24935 0.0
C348 C 0.07674 0.99259 0.27656 0.0
C349 C 0.05855 0.9818 0.23784 0.0
C350 C 0.0903 0.00825 0.2132 0.0
C351 C 0.06629 0.00772 0.17756 0.0
C352 C 0.09597 0.03946 0.1545 0.0
C353 C 0.14968 0.0675 0.16565 0.0
C354 C 0.17531 0.06441 0.19977 0.0
C355 C 0.1463 0.03505 0.22332 0.0
H356 H 0.09896 0.9099 0.88693 0.0
C357 C 0.05431 0.92676 0.88366 0.0
H358 H 0.98458 0.95006 0.84769 0.0
H359 H 0.18429 0.98468 0.74011 0.0
H360 H 0.23721 0.04933 0.78647 0.0
H361 H 0.20779 0.05681 0.84765 0.0
H362 H 0.12697 -0.00083 0.86308 0.0
C363 C 0.02958 0.93371 0.85112 0.0
C364 C 0.05969 0.91977 0.81818 0.0
C365 C 0.10681 0.95477 0.80995 0.0
C366 C 0.12206 0.9526 0.77443 0.0
C367 C 0.16995 0.98661 0.76659 0.0
C368 C 0.20071 0.02348 0.79291 0.0
C369 C 0.18424 0.02757 0.82736 0.0
C370 C 0.13769 0.99396 0.83591 0.0
H371 H 0.06682 0.0186 0.72274 0.0
C372 C 0.07178 0.98441 0.70163 0.0
H373 H 0.09132 0.89715 0.68882 0.0
H374 H 0.97918 0.83716 0.82733 0.0
H375 H 0.93034 0.76927 0.78134 0.0
H376 H 0.95354 0.76865 0.71922 0.0
H377 H 0.02573 0.83523 0.70272 0.0
C378 C 0.08723 0.9316 0.70979 0.0
C379 C 0.08811 0.91817 0.74721 0.0
C380 C 0.04699 0.87761 0.75626 0.0
C381 C 0.03296 0.87841 0.79192 0.0
C382 C 0.99058 0.83871 0.80043 0.0
C383 C 0.9625 0.79948 0.77437 0.0
C384 C 0.97561 0.79911 0.7394 0.0
C385 C 0.01713 0.83775 0.73027 0.0
H386 H 0.45657 0.45428 0.61781 0.0
C387 C 0.50473 0.45858 0.62063 0.0
H388 H 0.5836 0.45447 0.65415 0.0
H389 H 0.44708 0.53682 0.78873 0.0
H390 H 0.42075 0.6231 0.76072 0.0
H391 H 0.43432 0.62822 0.69758 0.0
H392 H 0.47332 0.54731 0.66206 0.0
C393 C 0.5353 0.45198 0.65172 0.0
C394 C 0.5074 0.44358 0.68467 0.0
C395 C 0.48358 0.4913 0.70466 0.0
C396 C 0.47713 0.489 0.74122 0.0
C397 C 0.45393 0.53712 0.76099 0.0
C398 C 0.43846 0.58666 0.74523 0.0
C399 C 0.44602 0.58949 0.70967 0.0
C400 C 0.46852 0.54262 0.68953 0.0
H401 H 0.58188 0.49757 0.79596 0.0
C402 C 0.55325 0.47665 0.8124 0.0
H403 H 0.47785 0.4225 0.81223 0.0
H404 H 0.54022 0.34113 0.65167 0.0
H405 H 0.56119 0.25324 0.67933 0.0
H406 H 0.55172 0.25009 0.74313 0.0
H407 H 0.52111 0.33474 0.77971 0.0
C408 C 0.50751 0.44407 0.79678 0.0
C409 C 0.49588 0.43978 0.75765 0.0
C410 C 0.51198 0.38975 0.73674 0.0
C411 C 0.51778 0.39169 0.70009 0.0
C412 C 0.53585 0.34176 0.67976 0.0
C413 C 0.54772 0.29121 0.69527 0.0
C414 C 0.54235 0.28943 0.73121 0.0
C415 C 0.52492 0.33815 0.7519 0.0
H416 H 0.59335 0.42972 0.40087 0.0
C417 C 0.54923 0.44798 0.3979 0.0
H418 H 0.47955 0.47247 0.36221 0.0
H419 H 0.69245 0.47925 0.25609 0.0
H420 H 0.7425 0.54963 0.29999 0.0
H421 H 0.7048 0.57122 0.35876 0.0
H422 H 0.6182 0.52192 0.3743 0.0
C423 C 0.52399 0.45475 0.36543 0.0
C424 C 0.553 0.43736 0.33247 0.0
C425 C 0.60292 0.46816 0.32374 0.0
C426 C 0.62287 0.458 0.28927 0.0
C427 C 0.67415 0.48732 0.28146 0.0
C428 C 0.70345 0.52744 0.30645 0.0
C429 C 0.68235 0.53944 0.33958 0.0
C430 C 0.63259 0.51047 0.34823 0.0
H431 H 0.58288 0.50748 0.22403 0.0
C432 C 0.59242 0.46726 0.20869 0.0
H433 H 0.61021 0.37904 0.20991 0.0
H434 H 0.46319 0.36447 0.34283 0.0
H435 H 0.41415 0.29352 0.29903 0.0
H436 H 0.44514 0.27973 0.23824 0.0
H437 H 0.52547 0.33619 0.22096 0.0
C438 C 0.60154 0.41955 0.22512 0.0
C439 C 0.59093 0.41972 0.26316 0.0
C440 C 0.54417 0.38571 0.27275 0.0
C441 C 0.52548 0.39438 0.30755 0.0
C442 C 0.47838 0.36025 0.31652 0.0
C443 C 0.45002 0.31926 0.2917 0.0
C444 C 0.46753 0.31145 0.2575 0.0
C445 C 0.51386 0.34423 0.24794 0.0
loop_
_geom_bond_atom_site_label_1
_geom_bond_atom_site_label_2
_geom_bond_distance
_geom_bond_site_symmetry_2
_ccdc_geom_bond_type
Zn0 O6 1.920 1_545 S
Zn0 O12 1.898 . S
Zn0 O15 1.905 1_545 S
Zn1 O9 1.905 . S
Zn1 O10 1.898 1_545 S
Zn1 O18 1.920 1_545 S
Zn2 O5 2.080 1_444 S
Zn2 O8 2.114 . S
Zn2 O11 2.120 1_545 S
Zn2 O13 2.120 1_455 S
Zn2 O14 2.114 1_554 S
Zn2 O17 2.080 . S
C3 O8 1.166 . S
C3 O9 1.182 . S
C4 O10 1.177 . S
C4 O11 1.301 . S
O5 Zn2 2.080 1_666 S
O5 C19 1.305 1_556 S
O6 Zn0 1.920 1_565 S
O6 C19 1.234 1_556 S
C7 O12 1.167 . S
C7 O13 1.299 1_556 S
O8 Zn2 2.114 . S
O8 C3 1.166 . S
O9 Zn1 1.905 . S
O9 C3 1.182 . S
O10 Zn1 1.898 1_565 S
O10 C4 1.177 . S
O11 Zn2 2.120 1_565 S
O11 C4 1.301 . S
O12 Zn0 1.898 . S
O12 C7 1.167 . S
O13 Zn2 2.120 1_655 S
O13 C7 1.299 1_554 S
O14 Zn2 2.114 1_556 S
O14 C16 1.174 1_545 S
O15 Zn0 1.905 1_565 S
O15 C16 1.167 1_655 S
C16 O14 1.174 1_565 S
C16 O15 1.167 1_455 S
O17 Zn2 2.080 . S
O17 C20 1.305 1_545 S
O18 Zn1 1.920 1_565 S
O18 C20 1.234 . S
C19 O5 1.305 1_554 S
C19 O6 1.234 1_554 S
C20 O17 1.305 1_565 S
C20 O18 1.234 . S
Zn21 O27 1.920 . S
Zn21 O33 1.898 . S
Zn21 O36 1.905 . S
Zn22 O30 1.905 . S
Zn22 O31 1.898 . S
Zn22 O39 1.920 . S
Zn23 O26 2.080 . S
Zn23 O29 2.114 . S
Zn23 O32 2.120 . S
Zn23 O34 2.120 . S
Zn23 O35 2.114 . S
Zn23 O38 2.080 . S
C24 O29 1.166 . S
C24 O30 1.182 . S
C25 O31 1.167 . S
C25 O32 1.299 . S
O26 Zn23 2.080 . S
O26 C40 1.305 . S
O27 Zn21 1.920 . S
O27 C40 1.234 . S
C28 O33 1.167 . S
C28 O34 1.299 . S
O29 Zn23 2.114 . S
O29 C24 1.166 . S
O30 Zn22 1.905 . S
O30 C24 1.182 . S
O31 Zn22 1.898 . S
O31 C25 1.167 . S
O32 Zn23 2.120 . S
O32 C25 1.299 . S
O33 Zn21 1.898 . S
O33 C28 1.167 . S
O34 Zn23 2.120 . S
O34 C28 1.299 . S
O35 Zn23 2.114 . S
O35 C37 1.166 . S
O36 Zn21 1.905 . S
O36 C37 1.182 . S
C37 O35 1.166 . S
C37 O36 1.182 . S
O38 Zn23 2.080 . S
O38 C41 1.305 . S
O39 Zn22 1.920 . S
O39 C41 1.234 . S
C40 O26 1.305 . S
C40 O27 1.234 . S
C41 O38 1.305 . S
C41 O39 1.234 . S
O42 Cd43 2.300 1_565 S
O42 C49 1.275 1_565 S
Cd43 O42 2.300 1_545 S
Cd43 O51 2.381 1_545 S
Cd43 O52 2.378 1_545 S
O44 Cd45 2.385 . S
O44 C49 1.255 . S
Cd45 O44 2.385 . S
Cd45 O46 2.317 . S
O46 Cd45 2.317 . S
O46 C47 1.232 1_455 S
C47 O46 1.232 1_655 S
C47 O48 1.218 . S
O48 C47 1.218 . S
C49 O42 1.275 1_545 S
C49 O44 1.255 . S
C50 O51 1.258 . S
C50 O52 1.256 . S
O51 Cd43 2.381 1_565 S
O51 C50 1.258 . S
O52 Cd43 2.378 1_565 S
O52 C50 1.256 . S
O53 Cd54 2.300 . S
O53 C60 1.275 . S
Cd54 O53 2.300 . S
Cd54 O62 2.381 . S
Cd54 O63 2.378 . S
O55 Cd56 2.385 . S
O55 C60 1.255 1_565 S
Cd56 O55 2.385 . S
Cd56 O57 2.317 1_455 S
O57 Cd56 2.317 1_655 S
O57 C58 1.232 . S
C58 O57 1.232 . S
C58 O59 1.218 . S
O59 C58 1.218 . S
C60 O53 1.275 . S
C60 O55 1.255 1_545 S
C61 O62 1.258 . S
C61 O63 1.256 . S
O62 Cd54 2.381 . S
O62 C61 1.258 . S
O63 Cd54 2.378 . S
O63 C61 1.256 . S
O64 Cd65 2.300 . S
O64 C71 1.275 . S
Cd65 O64 2.300 . S
Cd65 O73 2.381 . S
Cd65 O74 2.378 . S
O66 Cd67 2.385 . S
O66 C71 1.255 . S
Cd67 O66 2.385 . S
Cd67 O68 2.317 . S
O68 Cd67 2.317 . S
O68 C69 1.232 . S
C69 O68 1.232 . S
C69 O70 1.218 . S
O70 C69 1.218 . S
C71 O64 1.275 . S
C71 O66 1.255 . S
C72 O73 1.258 . S
C72 O74 1.256 . S
O73 Cd65 2.381 . S
O73 C72 1.258 . S
O74 Cd65 2.378 . S
O74 C72 1.256 . S
O75 Cd76 2.300 . S
O75 C82 1.275 . S
Cd76 O75 2.300 . S
Cd76 O84 2.381 . S
Cd76 O85 2.378 . S
O77 Cd78 2.385 . S
O77 C82 1.255 . S
Cd78 O77 2.385 . S
Cd78 O79 2.317 . S
O79 Cd78 2.317 . S
O79 C80 1.232 . S
C80 O79 1.232 . S
C80 O81 1.218 . S
O81 C80 1.218 . S
C82 O75 1.275 . S
C82 O77 1.255 . S
C83 O84 1.258 . S
C83 O85 1.256 . S
O84 Cd76 2.381 . S
O84 C83 1.258 . S
O85 Cd76 2.378 . S
O85 C83 1.256 . S
H86 C87 0.951 . S
C87 H86 0.951 . S
C87 C93 1.265 . S
H88 C93 0.950 . S
H89 C97 0.949 . S
H90 C98 0.950 . S
H91 C99 0.951 . S
H92 C100 0.951 . S
C93 C87 1.265 . S
C93 H88 0.950 . S
C93 C94 1.478 . S
C94 C93 1.478 . S
C94 C95 1.397 . S
C94 C111 1.394 . S
C95 C94 1.397 . S
C95 C96 1.438 . S
C95 C100 1.429 1_554 S
C96 C95 1.438 . S
C96 C97 1.428 . S
C96 C109 1.394 . S
C97 H89 0.949 . S
C97 C96 1.428 . S
C97 C98 1.345 1_554 S
C98 H90 0.950 . S
C98 C97 1.345 1_556 S
C98 C99 1.424 . S
C99 H91 0.951 . S
C99 C98 1.424 . S
C99 C100 1.347 . S
C100 H92 0.951 . S
C100 C95 1.429 1_556 S
C100 C99 1.347 . S
H101 C102 0.951 . S
C102 H101 0.951 . S
C102 C108 1.265 . S
H103 C108 0.950 . S
H104 C112 0.949 . S
H105 C113 0.950 . S
H106 C114 0.951 . S
H107 C115 0.951 . S
C108 C102 1.265 . S
C108 H103 0.950 . S
C108 C109 1.478 . S
C109 C96 1.394 . S
C109 C108 1.478 . S
C109 C110 1.397 . S
C110 C109 1.397 . S
C110 C111 1.438 . S
C110 C115 1.429 . S
C111 C94 1.394 . S
C111 C110 1.438 . S
C111 C112 1.428 . S
C112 H104 0.949 . S
C112 C111 1.428 . S
C112 C113 1.345 . S
C113 H105 0.950 . S
C113 C112 1.345 . S
C113 C114 1.424 . S
C114 H106 0.951 . S
C114 C113 1.424 . S
C114 C115 1.347 . S
C115 H107 0.951 . S
C115 C110 1.429 . S
C115 C114 1.347 . S
H116 C117 0.951 . S
C117 H116 0.951 . S
C117 C123 1.265 . S
H118 C123 0.950 . S
H119 C127 0.949 . S
H120 C128 0.950 . S
H121 C129 0.951 . S
H122 C130 0.951 . S
C123 C117 1.265 . S
C123 H118 0.950 . S
C123 C124 1.478 . S
C124 C123 1.478 . S
C124 C125 1.397 . S
C124 C141 1.394 . S
C125 C124 1.397 . S
C125 C126 1.438 . S
C125 C130 1.429 . S
C126 C125 1.438 . S
C126 C127 1.428 . S
C126 C139 1.394 . S
C127 H119 0.949 . S
C127 C126 1.428 . S
C127 C128 1.345 . S
C128 H120 0.950 . S
C128 C127 1.345 . S
C128 C129 1.424 . S
C129 H121 0.951 . S
C129 C128 1.424 . S
C129 C130 1.347 . S
C130 H122 0.951 . S
C130 C125 1.429 . S
C130 C129 1.347 . S
H131 C132 0.951 . S
C132 H131 0.951 . S
C132 C138 1.265 . S
H133 C138 0.950 . S
H134 C142 0.949 . S
H135 C143 0.950 . S
H136 C144 0.951 . S
H137 C145 0.951 . S
C138 C132 1.265 . S
C138 H133 0.950 . S
C138 C139 1.478 . S
C139 C126 1.394 . S
C139 C138 1.478 . S
C139 C140 1.397 . S
C140 C139 1.397 . S
C140 C141 1.438 . S
C140 C145 1.429 1_556 S
C141 C124 1.394 . S
C141 C140 1.438 . S
C141 C142 1.428 1_556 S
C142 H134 0.949 . S
C142 C141 1.428 1_554 S
C142 C143 1.345 . S
C143 H135 0.950 . S
C143 C142 1.345 . S
C143 C144 1.424 . S
C144 H136 0.951 . S
C144 C143 1.424 . S
C144 C145 1.347 . S
C145 H137 0.951 . S
C145 C140 1.429 1_554 S
C145 C144 1.347 . S
H146 C147 0.951 1_556 S
C147 H146 0.951 1_554 S
C147 C153 1.265 . S
H148 C153 0.950 . S
H149 C157 0.949 . S
H150 C158 0.950 . S
H151 C159 0.951 . S
H152 C160 0.951 . S
C153 C147 1.265 . S
C153 H148 0.950 . S
C153 C154 1.478 . S
C154 C153 1.478 . S
C154 C155 1.397 . S
C154 C171 1.394 . S
C155 C154 1.397 . S
C155 C156 1.438 . S
C155 C160 1.429 . S
C156 C155 1.438 . S
C156 C157 1.428 . S
C156 C169 1.394 . S
C157 H149 0.949 . S
C157 C156 1.428 . S
C157 C158 1.345 . S
C158 H150 0.950 . S
C158 C157 1.345 . S
C158 C159 1.424 . S
C159 H151 0.951 . S
C159 C158 1.424 . S
C159 C160 1.347 . S
C160 H152 0.951 . S
C160 C155 1.429 . S
C160 C159 1.347 . S
H161 C162 0.951 . S
C162 H161 0.951 . S
C162 C168 1.265 . S
H163 C168 0.950 . S
H164 C172 0.949 . S
H165 C173 0.950 . S
H166 C174 0.951 . S
H167 C175 0.948 . S
C168 C162 1.265 . S
C168 H163 0.950 . S
C168 C169 1.478 . S
C169 C156 1.394 . S
C169 C168 1.478 . S
C169 C170 1.397 . S
C170 C169 1.397 . S
C170 C171 1.438 . S
C170 C175 1.429 . S
C171 C154 1.394 . S
C171 C170 1.438 . S
C171 C172 1.428 . S
C172 H164 0.949 . S
C172 C171 1.428 . S
C172 C173 1.345 1_554 S
C173 H165 0.950 . S
C173 C172 1.345 1_556 S
C173 C174 1.424 . S
C174 H166 0.951 . S
C174 C173 1.424 . S
C174 C175 1.347 1_556 S
C175 H167 0.948 . S
C175 C170 1.429 . S
C175 C174 1.347 1_554 S
H176 C177 0.951 . S
C177 H176 0.951 . S
C177 C183 1.265 . S
H178 C183 0.950 . S
H179 C187 0.949 . S
H180 C188 0.950 . S
H181 C189 0.951 . S
H182 C190 0.951 . S
C183 C177 1.265 . S
C183 H178 0.950 . S
C183 C184 1.478 . S
C184 C183 1.478 . S
C184 C185 1.397 1_556 S
C184 C201 1.394 . S
C185 C184 1.397 1_554 S
C185 C186 1.438 1_554 S
C185 C190 1.429 . S
C186 C185 1.438 1_556 S
C186 C187 1.428 1_556 S
C186 C199 1.394 . S
C187 H179 0.949 . S
C187 C186 1.428 1_554 S
C187 C188 1.345 . S
C188 H180 0.950 . S
C188 C187 1.345 . S
C188 C189 1.424 . S
C189 H181 0.951 . S
C189 C188 1.424 . S
C189 C190 1.347 . S
C190 H182 0.951 . S
C190 C185 1.429 . S
C190 C189 1.347 . S
H191 C192 0.951 . S
C192 H191 0.951 . S
C192 C198 1.265 . S
H193 C198 0.950 . S
H194 C202 0.949 . S
H195 C203 0.950 . S
H196 C204 0.951 . S
H197 C205 0.951 . S
C198 C192 1.265 . S
C198 H193 0.950 . S
C198 C199 1.478 . S
C199 C186 1.394 . S
C199 C198 1.478 . S
C199 C200 1.397 . S
C200 C199 1.397 . S
C200 C201 1.438 . S
C200 C205 1.429 . S
C201 C184 1.394 . S
C201 C200 1.438 . S
C201 C202 1.428 . S
C202 H194 0.949 . S
C202 C201 1.428 . S
C202 C203 1.345 . S
C203 H195 0.950 . S
C203 C202 1.345 . S
C203 C204 1.424 . S
C204 H196 0.951 . S
C204 C203 1.424 . S
C204 C205 1.347 . S
C205 H197 0.951 . S
C205 C200 1.429 . S
C205 C204 1.347 . S
H206 C207 0.951 . S
C207 H206 0.951 . S
C207 C213 1.265 . S
H208 C213 0.950 . S
H209 C217 0.949 . S
H210 C218 0.950 . S
H211 C219 0.951 . S
H212 C220 0.951 . S
C213 C207 1.265 . S
C213 H208 0.950 . S
C213 C214 1.478 . S
C214 C213 1.478 . S
C214 C215 1.397 . S
C214 C231 1.394 . S
C215 C214 1.397 . S
C215 C216 1.438 . S
C215 C220 1.429 . S
C216 C215 1.438 . S
C216 C217 1.428 . S
C216 C229 1.394 . S
C217 H209 0.949 . S
C217 C216 1.428 . S
C217 C218 1.345 . S
C218 H210 0.950 . S
C218 C217 1.345 . S
C218 C219 1.424 . S
C219 H211 0.951 . S
C219 C218 1.424 . S
C219 C220 1.347 . S
C220 H212 0.951 . S
C220 C215 1.429 . S
C220 C219 1.347 . S
H221 C222 0.951 . S
C222 H221 0.951 . S
C222 C228 1.265 . S
H223 C228 0.950 . S
H224 C232 0.949 . S
H225 C233 0.950 . S
H226 C234 0.951 . S
H227 C235 0.951 . S
C228 C222 1.265 . S
C228 H223 0.950 . S
C228 C229 1.478 . S
C229 C216 1.394 . S
C229 C228 1.478 . S
C229 C230 1.397 . S
C230 C229 1.397 . S
C230 C231 1.438 . S
C230 C235 1.429 . S
C231 C214 1.394 . S
C231 C230 1.438 . S
C231 C232 1.428 . S
C232 H224 0.949 . S
C232 C231 1.428 . S
C232 C233 1.345 . S
C233 H225 0.950 . S
C233 C232 1.345 . S
C233 C234 1.424 . S
C234 H226 0.951 . S
C234 C233 1.424 . S
C234 C235 1.347 . S
C235 H227 0.951 . S
C235 C230 1.429 . S
C235 C234 1.347 . S
H236 C237 0.951 . S
C237 H236 0.951 . S
C237 C243 1.265 . S
H238 C243 0.950 . S
H239 C247 0.949 . S
H240 C248 0.950 . S
H241 C249 0.951 . S
H242 C250 0.951 . S
C243 C237 1.265 . S
C243 H238 0.950 . S
C243 C244 1.478 . S
C244 C243 1.478 . S
C244 C245 1.397 . S
C244 C261 1.394 . S
C245 C244 1.397 . S
C245 C246 1.438 . S
C245 C250 1.429 . S
C246 C245 1.438 . S
C246 C247 1.428 . S
C246 C259 1.394 . S
C247 H239 0.949 . S
C247 C246 1.428 . S
C247 C248 1.345 . S
C248 H240 0.950 . S
C248 C247 1.345 . S
C248 C249 1.424 . S
C249 H241 0.951 . S
C249 C248 1.424 . S
C249 C250 1.347 . S
C250 H242 0.951 . S
C250 C245 1.429 . S
C250 C249 1.347 . S
H251 C252 0.951 . S
C252 H251 0.951 . S
C252 C258 1.265 . S
H253 C258 0.950 . S
H254 C262 0.949 . S
H255 C263 0.950 . S
H256 C264 0.951 . S
H257 C265 0.951 . S
C258 C252 1.265 . S
C258 H253 0.950 . S
C258 C259 1.478 . S
C259 C246 1.394 . S
C259 C258 1.478 . S
C259 C260 1.397 . S
C260 C259 1.397 . S
C260 C261 1.438 . S
C260 C265 1.429 . S
C261 C244 1.394 . S
C261 C260 1.438 . S
C261 C262 1.428 . S
C262 H254 0.949 . S
C262 C261 1.428 . S
C262 C263 1.345 . S
C263 H255 0.950 . S
C263 C262 1.345 . S
C263 C264 1.424 . S
C264 H256 0.951 . S
C264 C263 1.424 . S
C264 C265 1.347 . S
C265 H257 0.951 . S
C265 C260 1.429 . S
C265 C264 1.347 . S
H266 C267 0.951 . S
C267 H266 0.951 . S
C267 C273 1.265 . S
H268 C273 0.950 . S
H269 C277 0.949 . S
H270 C278 0.950 . S
H271 C279 0.951 . S
H272 C280 0.951 . S
C273 C267 1.265 . S
C273 H268 0.950 . S
C273 C274 1.478 . S
C274 C273 1.478 . S
C274 C275 1.397 . S
C274 C291 1.394 . S
C275 C274 1.397 . S
C275 C276 1.438 . S
C275 C280 1.429 . S
C276 C275 1.438 . S
C276 C277 1.428 . S
C276 C289 1.394 . S
C277 H269 0.949 . S
C277 C276 1.428 . S
C277 C278 1.345 . S
C278 H270 0.950 . S
C278 C277 1.345 . S
C278 C279 1.424 . S
C279 H271 0.951 . S
C279 C278 1.424 . S
C279 C280 1.347 . S
C280 H272 0.951 . S
C280 C275 1.429 . S
C280 C279 1.347 . S
H281 C282 0.951 . S
C282 H281 0.951 . S
C282 C288 1.265 . S
H283 C288 0.950 . S
H284 C292 0.949 . S
H285 C293 0.950 . S
H286 C294 0.951 . S
H287 C295 0.951 . S
C288 C282 1.265 . S
C288 H283 0.950 . S
C288 C289 1.478 . S
C289 C276 1.394 . S
C289 C288 1.478 . S
C289 C290 1.397 . S
C290 C289 1.397 . S
C290 C291 1.438 . S
C290 C295 1.429 . S
C291 C274 1.394 . S
C291 C290 1.438 . S
C291 C292 1.428 . S
C292 H284 0.949 . S
C292 C291 1.428 . S
C292 C293 1.345 . S
C293 H285 0.950 . S
C293 C292 1.345 . S
C293 C294 1.424 . S
C294 H286 0.951 . S
C294 C293 1.424 . S
C294 C295 1.347 . S
C295 H287 0.951 . S
C295 C290 1.429 . S
C295 C294 1.347 . S
H296 C297 0.951 . S
C297 H296 0.951 . S
C297 C303 1.265 . S
H298 C303 0.950 . S
H299 C307 0.949 . S
H300 C308 0.950 . S
H301 C309 0.951 . S
H302 C310 0.951 . S
C303 C297 1.265 . S
C303 H298 0.950 . S
C303 C304 1.478 . S
C304 C303 1.478 . S
C304 C305 1.397 . S
C304 C321 1.394 . S
C305 C304 1.397 . S
C305 C306 1.438 . S
C305 C310 1.429 . S
C306 C305 1.438 . S
C306 C307 1.428 . S
C306 C319 1.394 . S
C307 H299 0.949 . S
C307 C306 1.428 . S
C307 C308 1.345 . S
C308 H300 0.950 . S
C308 C307 1.345 . S
C308 C309 1.424 . S
C309 H301 0.951 . S
C309 C308 1.424 . S
C309 C310 1.347 . S
C310 H302 0.951 . S
C310 C305 1.429 . S
C310 C309 1.347 . S
H311 C312 0.951 . S
C312 H311 0.951 . S
C312 C318 1.265 . S
H313 C318 0.950 . S
H314 C322 0.949 . S
H315 C323 0.950 . S
H316 C324 0.951 . S
H317 C325 0.951 . S
C318 C312 1.265 . S
C318 H313 0.950 . S
C318 C319 1.478 . S
C319 C306 1.394 . S
C319 C318 1.478 . S
C319 C320 1.397 . S
C320 C319 1.397 . S
C320 C321 1.438 . S
C320 C325 1.429 . S
C321 C304 1.394 . S
C321 C320 1.438 . S
C321 C322 1.428 . S
C322 H314 0.949 . S
C322 C321 1.428 . S
C322 C323 1.345 . S
C323 H315 0.950 . S
C323 C322 1.345 . S
C323 C324 1.424 . S
C324 H316 0.951 . S
C324 C323 1.424 . S
C324 C325 1.347 . S
C325 H317 0.951 . S
C325 C320 1.429 . S
C325 C324 1.347 . S
H326 C327 0.951 . S
C327 H326 0.951 . S
C327 C333 1.265 1_565 S
H328 C333 0.950 1_655 S
H329 C337 0.949 . S
H330 C338 0.950 . S
H331 C339 0.951 . S
H332 C340 0.951 . S
C333 C327 1.265 1_545 S
C333 H328 0.950 1_455 S
C333 C334 1.478 . S
C334 C333 1.478 . S
C334 C335 1.397 1_545 S
C334 C351 1.394 . S
C335 C334 1.397 1_565 S
C335 C336 1.438 . S
C335 C340 1.429 1_455 S
C336 C335 1.438 . S
C336 C337 1.428 . S
C336 C349 1.394 1_565 S
C337 H329 0.949 . S
C337 C336 1.428 . S
C337 C338 1.345 1_455 S
C338 H330 0.950 . S
C338 C337 1.345 1_655 S
C338 C339 1.424 . S
C339 H331 0.951 . S
C339 C338 1.424 . S
C339 C340 1.347 . S
C340 H332 0.951 . S
C340 C335 1.429 1_655 S
C340 C339 1.347 . S
H341 C342 0.951 . S
C342 H341 0.951 . S
C342 C348 1.265 . S
H343 C348 0.950 . S
H344 C352 0.949 . S
H345 C353 0.950 . S
H346 C354 0.951 . S
H347 C355 0.951 . S
C348 C342 1.265 . S
C348 H343 0.950 . S
C348 C349 1.478 . S
C349 C336 1.394 1_545 S
C349 C348 1.478 . S
C349 C350 1.397 . S
C350 C349 1.397 . S
C350 C351 1.438 . S
C350 C355 1.429 . S
C351 C334 1.394 . S
C351 C350 1.438 . S
C351 C352 1.428 . S
C352 H344 0.949 . S
C352 C351 1.428 . S
C352 C353 1.345 . S
C353 H345 0.950 . S
C353 C352 1.345 . S
C353 C354 1.424 . S
C354 H346 0.951 . S
C354 C353 1.424 . S
C354 C355 1.347 . S
C355 H347 0.951 . S
C355 C350 1.429 . S
C355 C354 1.347 . S
H356 C357 0.951 . S
C357 H356 0.951 . S
C357 C363 1.265 1_455 S
H358 C363 0.950 . S
H359 C367 0.949 . S
H360 C368 0.950 . S
H361 C369 0.951 . S
H362 C370 0.951 . S
C363 C357 1.265 1_655 S
C363 H358 0.950 . S
C363 C364 1.478 1_655 S
C364 C363 1.478 1_455 S
C364 C365 1.397 1_465 S
C364 C381 1.394 . S
C365 C364 1.397 1_645 S
C365 C366 1.438 1_655 S
C365 C370 1.429 . S
C366 C365 1.438 1_455 S
C366 C367 1.428 1_455 S
C366 C379 1.394 1_545 S
C367 H359 0.949 . S
C367 C366 1.428 1_655 S
C367 C368 1.345 . S
C368 H360 0.950 . S
C368 C367 1.345 . S
C368 C369 1.424 . S
C369 H361 0.951 . S
C369 C368 1.424 . S
C369 C370 1.347 . S
C370 H362 0.951 . S
C370 C365 1.429 . S
C370 C369 1.347 . S
H371 C372 0.951 . S
C372 H371 0.951 . S
C372 C378 1.265 1_655 S
H373 C378 0.950 1_565 S
H374 C382 0.949 . S
H375 C383 0.950 . S
H376 C384 0.951 . S
H377 C385 0.951 . S
C378 C372 1.265 1_455 S
C378 H373 0.950 1_545 S
C378 C379 1.478 1_545 S
C379 C366 1.394 1_565 S
C379 C378 1.478 1_565 S
C379 C380 1.397 . S
C380 C379 1.397 . S
C380 C381 1.438 . S
C380 C385 1.429 . S
C381 C364 1.394 . S
C381 C380 1.438 . S
C381 C382 1.428 . S
C382 H374 0.949 . S
C382 C381 1.428 . S
C382 C383 1.345 . S
C383 H375 0.950 . S
C383 C382 1.345 . S
C383 C384 1.424 . S
C384 H376 0.951 . S
C384 C383 1.424 . S
C384 C385 1.347 . S
C385 H377 0.951 . S
C385 C380 1.429 . S
C385 C384 1.347 . S
H386 C387 0.951 . S
C387 H386 0.951 . S
C387 C393 1.265 . S
H388 C393 0.950 . S
H389 C397 0.949 . S
H390 C398 0.950 . S
H391 C399 0.951 . S
H392 C400 0.951 . S
C393 C387 1.265 . S
C393 H388 0.950 . S
C393 C394 1.478 . S
C394 C393 1.478 . S
C394 C395 1.397 . S
C394 C411 1.394 . S
C395 C394 1.397 . S
C395 C396 1.438 . S
C395 C400 1.429 . S
C396 C395 1.438 . S
C396 C397 1.428 . S
C396 C409 1.394 . S
C397 H389 0.949 . S
C397 C396 1.428 . S
C397 C398 1.345 . S
C398 H390 0.950 . S
C398 C397 1.345 . S
C398 C399 1.424 . S
C399 H391 0.951 . S
C399 C398 1.424 . S
C399 C400 1.347 . S
C400 H392 0.951 . S
C400 C395 1.429 . S
C400 C399 1.347 . S
H401 C402 0.951 . S
C402 H401 0.951 . S
C402 C408 1.265 . S
H403 C408 0.950 . S
H404 C412 0.949 . S
H405 C413 0.950 . S
H406 C414 0.951 . S
H407 C415 0.951 . S
C408 C402 1.265 . S
C408 H403 0.950 . S
C408 C409 1.478 . S
C409 C396 1.394 . S
C409 C408 1.478 . S
C409 C410 1.397 . S
C410 C409 1.397 . S
C410 C411 1.438 . S
C410 C415 1.429 . S
C411 C394 1.394 . S
C411 C410 1.438 . S
C411 C412 1.428 . S
C412 H404 0.949 . S
C412 C411 1.428 . S
C412 C413 1.345 . S
C413 H405 0.950 . S
C413 C412 1.345 . S
C413 C414 1.424 . S
C414 H406 0.951 . S
C414 C413 1.424 . S
C414 C415 1.347 . S
C415 H407 0.951 . S
C415 C410 1.429 . S
C415 C414 1.347 . S
H416 C417 0.951 . S
C417 H416 0.951 . S
C417 C423 1.265 . S
H418 C423 0.950 . S
H419 C427 0.949 . S
H420 C428 0.950 . S
H421 C429 0.951 . S
H422 C430 0.951 . S
C423 C417 1.265 . S
C423 H418 0.950 . S
C423 C424 1.478 . S
C424 C423 1.478 . S
C424 C425 1.397 . S
C424 C441 1.394 . S
C425 C424 1.397 . S
C425 C426 1.438 . S
C425 C430 1.429 . S
C426 C425 1.438 . S
C426 C427 1.428 . S
C426 C439 1.394 . S
C427 H419 0.949 . S
C427 C426 1.428 . S
C427 C428 1.345 . S
C428 H420 0.950 . S
C428 C427 1.345 . S
C428 C429 1.424 . S
C429 H421 0.951 . S
C429 C428 1.424 . S
C429 C430 1.347 . S
C430 H422 0.951 . S
C430 C425 1.429 . S
C430 C429 1.347 . S
H431 C432 0.951 . S
C432 H431 0.951 . S
C432 C438 1.265 . S
H433 C438 0.950 . S
H434 C442 0.949 . S
H435 C443 0.950 . S
H436 C444 0.951 . S
H437 C445 0.951 . S
C438 C432 1.265 . S
C438 H433 0.950 . S
C438 C439 1.478 . S
C439 C426 1.394 . S
C439 C438 1.478 . S
C439 C440 1.397 . S
C440 C439 1.397 . S
C440 C441 1.438 . S
C440 C445 1.429 . S
C441 C424 1.394 . S
C441 C440 1.438 . S
C441 C442 1.428 . S
C442 H434 0.949 . S
C442 C441 1.428 . S
C442 C443 1.345 . S
C443 H435 0.950 . S
C443 C442 1.345 . S
C443 C444 1.424 . S
C444 H436 0.951 . S
C444 C443 1.424 . S
C444 C445 1.347 . S
C445 H437 0.951 . S
C445 C440 1.429 . S
C445 C444 1.347 . S
C102 C80 1.009 . S
C87 C3 1.260 . S
C117 C4 1.478 1_556 S
C132 C69 1.524 . S
C147 C19 1.430 . S
C162 C83 1.538 . S
C177 C7 1.215 . S
C192 C72 1.257 . S
C207 C37 1.096 . S
C222 C58 1.211 . S
C237 C28 1.534 . S
C252 C47 1.516 . S
C282 C61 1.580 . S
C267 C41 1.512 . S
C312 C50 1.271 . S
C297 C25 1.186 . S
C327 C20 1.254 . S
C342 C49 1.471 . S
C357 C16 1.448 . S
C372 C60 1.523 1_655 S
C402 C71 1.381 . S
C387 C40 1.392 . S
C417 C24 1.444 . S
C432 C82 1.522 . S
