# Generated by pormake.
# Topology fgl, (4,4)-cn, num edge types: 1
# Building blocks:
#     Node 0, Type 0, BuildingBlock: ESEHIV_clean_sbu_0, # of connection points: 4
#     Node 1, Type 0, BuildingBlock: ESEHIV_clean_sbu_0, # of connection points: 4
#     Node 2, Type 0, BuildingBlock: ESEHIV_clean_sbu_0, # of connection points: 4
#     Node 3, Type 0, BuildingBlock: ESEHIV_clean_sbu_0, # of connection points: 4
#     Node 4, Type 0, BuildingBlock: ESEHIV_clean_sbu_0, # of connection points: 4
#     Node 5, Type 0, BuildingBlock: ESEHIV_clean_sbu_0, # of connection points: 4
#     Node 6, Type 0, BuildingBlock: ESEHIV_clean_sbu_0, # of connection points: 4
#     Node 7, Type 0, BuildingBlock: ESEHIV_clean_sbu_0, # of connection points: 4
#     Node 8, Type 0, BuildingBlock: ESEHIV_clean_sbu_0, # of connection points: 4
#     Node 9, Type 0, BuildingBlock: ESEHIV_clean_sbu_0, # of connection points: 4
#     Node 10, Type 0, BuildingBlock: ESEHIV_clean_sbu_0, # of connection points: 4
#     Node 11, Type 0, BuildingBlock: ESEHIV_clean_sbu_0, # of connection points: 4
#     Node 12, Type 0, BuildingBlock: ESEHIV_clean_sbu_0, # of connection points: 4
#     Node 13, Type 0, BuildingBlock: ESEHIV_clean_sbu_0, # of connection points: 4
#     Node 14, Type 0, BuildingBlock: ESEHIV_clean_sbu_0, # of connection points: 4
#     Node 15, Type 0, BuildingBlock: ESEHIV_clean_sbu_0, # of connection points: 4
#     Node 16, Type 0, BuildingBlock: ESEHIV_clean_sbu_0, # of connection points: 4
#     Node 17, Type 0, BuildingBlock: ESEHIV_clean_sbu_0, # of connection points: 4
#     Node 18, Type 1, BuildingBlock: KUFVIS_clean_sbu_0, # of connection points: 4
#     Node 19, Type 1, BuildingBlock: KUFVIS_clean_sbu_0, # of connection points: 4
#     Node 20, Type 1, BuildingBlock: KUFVIS_clean_sbu_0, # of connection points: 4
#     Node 21, Type 1, BuildingBlock: KUFVIS_clean_sbu_0, # of connection points: 4
#     Node 22, Type 1, BuildingBlock: KUFVIS_clean_sbu_0, # of connection points: 4
#     Node 23, Type 1, BuildingBlock: KUFVIS_clean_sbu_0, # of connection points: 4
#     Node 24, Type 1, BuildingBlock: KUFVIS_clean_sbu_0, # of connection points: 4
#     Node 25, Type 1, BuildingBlock: KUFVIS_clean_sbu_0, # of connection points: 4
#     Node 26, Type 1, BuildingBlock: KUFVIS_clean_sbu_0, # of connection points: 4
#     Node 27, Type 1, BuildingBlock: KUFVIS_clean_sbu_0, # of connection points: 4
#     Node 28, Type 1, BuildingBlock: KUFVIS_clean_sbu_0, # of connection points: 4
#     Node 29, Type 1, BuildingBlock: KUFVIS_clean_sbu_0, # of connection points: 4
#     Node 30, Type 1, BuildingBlock: KUFVIS_clean_sbu_0, # of connection points: 4
#     Node 31, Type 1, BuildingBlock: KUFVIS_clean_sbu_0, # of connection points: 4
#     Node 32, Type 1, BuildingBlock: KUFVIS_clean_sbu_0, # of connection points: 4
#     Node 33, Type 1, BuildingBlock: KUFVIS_clean_sbu_0, # of connection points: 4
#     Node 34, Type 1, BuildingBlock: KUFVIS_clean_sbu_0, # of connection points: 4
#     Node 35, Type 1, BuildingBlock: KUFVIS_clean_sbu_0, # of connection points: 4
#     Edge 36, Type (0, 1), BuildingBlock: UVAHIK_clean_linker_0, # of connection points: 2
#     Edge 37, Type (0, 1), BuildingBlock: UVAHIK_clean_linker_0, # of connection points: 2
#     Edge 38, Type (0, 1), BuildingBlock: UVAHIK_clean_linker_0, # of connection points: 2
#     Edge 39, Type (0, 1), BuildingBlock: UVAHIK_clean_linker_0, # of connection points: 2
#     Edge 40, Type (0, 1), BuildingBlock: UVAHIK_clean_linker_0, # of connection points: 2
#     Edge 41, Type (0, 1), BuildingBlock: UVAHIK_clean_linker_0, # of connection points: 2
#     Edge 42, Type (0, 1), BuildingBlock: UVAHIK_clean_linker_0, # of connection points: 2
#     Edge 43, Type (0, 1), BuildingBlock: UVAHIK_clean_linker_0, # of connection points: 2
#     Edge 44, Type (0, 1), BuildingBlock: UVAHIK_clean_linker_0, # of connection points: 2
#     Edge 45, Type (0, 1), BuildingBlock: UVAHIK_clean_linker_0, # of connection points: 2
#     Edge 46, Type (0, 1), BuildingBlock: UVAHIK_clean_linker_0, # of connection points: 2
#     Edge 47, Type (0, 1), BuildingBlock: UVAHIK_clean_linker_0, # of connection points: 2
#     Edge 48, Type (0, 1), BuildingBlock: UVAHIK_clean_linker_0, # of connection points: 2
#     Edge 49, Type (0, 1), BuildingBlock: UVAHIK_clean_linker_0, # of connection points: 2
#     Edge 50, Type (0, 1), BuildingBlock: UVAHIK_clean_linker_0, # of connection points: 2
#     Edge 51, Type (0, 1), BuildingBlock: UVAHIK_clean_linker_0, # of connection points: 2
#     Edge 52, Type (0, 1), BuildingBlock: UVAHIK_clean_linker_0, # of connection points: 2
#     Edge 53, Type (0, 1), BuildingBlock: UVAHIK_clean_linker_0, # of connection points: 2
#     Edge 54, Type (0, 1), BuildingBlock: UVAHIK_clean_linker_0, # of connection points: 2
#     Edge 55, Type (0, 1), BuildingBlock: UVAHIK_clean_linker_0, # of connection points: 2
#     Edge 56, Type (0, 1), BuildingBlock: UVAHIK_clean_linker_0, # of connection points: 2
#     Edge 57, Type (0, 1), BuildingBlock: UVAHIK_clean_linker_0, # of connection points: 2
#     Edge 58, Type (0, 1), BuildingBlock: UVAHIK_clean_linker_0, # of connection points: 2
#     Edge 59, Type (0, 1), BuildingBlock: UVAHIK_clean_linker_0, # of connection points: 2
#     Edge 60, Type (0, 1), BuildingBlock: UVAHIK_clean_linker_0, # of connection points: 2
#     Edge 61, Type (0, 1), BuildingBlock: UVAHIK_clean_linker_0, # of connection points: 2
#     Edge 62, Type (0, 1), BuildingBlock: UVAHIK_clean_linker_0, # of connection points: 2
#     Edge 63, Type (0, 1), BuildingBlock: UVAHIK_clean_linker_0, # of connection points: 2
#     Edge 64, Type (0, 1), BuildingBlock: UVAHIK_clean_linker_0, # of connection points: 2
#     Edge 65, Type (0, 1), BuildingBlock: UVAHIK_clean_linker_0, # of connection points: 2
#     Edge 66, Type (0, 1), BuildingBlock: UVAHIK_clean_linker_0, # of connection points: 2
#     Edge 67, Type (0, 1), BuildingBlock: UVAHIK_clean_linker_0, # of connection points: 2
#     Edge 68, Type (0, 1), BuildingBlock: UVAHIK_clean_linker_0, # of connection points: 2
#     Edge 69, Type (0, 1), BuildingBlock: UVAHIK_clean_linker_0, # of connection points: 2
#     Edge 70, Type (0, 1), BuildingBlock: UVAHIK_clean_linker_0, # of connection points: 2
#     Edge 71, Type (0, 1), BuildingBlock: UVAHIK_clean_linker_0, # of connection points: 2
#     Edge 72, Type (0, 1), BuildingBlock: UVAHIK_clean_linker_0, # of connection points: 2
#     Edge 73, Type (0, 1), BuildingBlock: UVAHIK_clean_linker_0, # of connection points: 2
#     Edge 74, Type (0, 1), BuildingBlock: UVAHIK_clean_linker_0, # of connection points: 2
#     Edge 75, Type (0, 1), BuildingBlock: UVAHIK_clean_linker_0, # of connection points: 2
#     Edge 76, Type (0, 1), BuildingBlock: UVAHIK_clean_linker_0, # of connection points: 2
#     Edge 77, Type (0, 1), BuildingBlock: UVAHIK_clean_linker_0, # of connection points: 2
#     Edge 78, Type (0, 1), BuildingBlock: UVAHIK_clean_linker_0, # of connection points: 2
#     Edge 79, Type (0, 1), BuildingBlock: UVAHIK_clean_linker_0, # of connection points: 2
#     Edge 80, Type (0, 1), BuildingBlock: UVAHIK_clean_linker_0, # of connection points: 2
#     Edge 81, Type (0, 1), BuildingBlock: UVAHIK_clean_linker_0, # of connection points: 2
#     Edge 82, Type (0, 1), BuildingBlock: UVAHIK_clean_linker_0, # of connection points: 2
#     Edge 83, Type (0, 1), BuildingBlock: UVAHIK_clean_linker_0, # of connection points: 2
#     Edge 84, Type (0, 1), BuildingBlock: UVAHIK_clean_linker_0, # of connection points: 2
#     Edge 85, Type (0, 1), BuildingBlock: UVAHIK_clean_linker_0, # of connection points: 2
#     Edge 86, Type (0, 1), BuildingBlock: UVAHIK_clean_linker_0, # of connection points: 2
#     Edge 87, Type (0, 1), BuildingBlock: UVAHIK_clean_linker_0, # of connection points: 2
#     Edge 88, Type (0, 1), BuildingBlock: UVAHIK_clean_linker_0, # of connection points: 2
#     Edge 89, Type (0, 1), BuildingBlock: UVAHIK_clean_linker_0, # of connection points: 2
#     Edge 90, Type (0, 1), BuildingBlock: UVAHIK_clean_linker_0, # of connection points: 2
#     Edge 91, Type (0, 1), BuildingBlock: UVAHIK_clean_linker_0, # of connection points: 2
#     Edge 92, Type (0, 1), BuildingBlock: UVAHIK_clean_linker_0, # of connection points: 2
#     Edge 93, Type (0, 1), BuildingBlock: UVAHIK_clean_linker_0, # of connection points: 2
#     Edge 94, Type (0, 1), BuildingBlock: UVAHIK_clean_linker_0, # of connection points: 2
#     Edge 95, Type (0, 1), BuildingBlock: UVAHIK_clean_linker_0, # of connection points: 2
#     Edge 96, Type (0, 1), BuildingBlock: UVAHIK_clean_linker_0, # of connection points: 2
#     Edge 97, Type (0, 1), BuildingBlock: UVAHIK_clean_linker_0, # of connection points: 2
#     Edge 98, Type (0, 1), BuildingBlock: UVAHIK_clean_linker_0, # of connection points: 2
#     Edge 99, Type (0, 1), BuildingBlock: UVAHIK_clean_linker_0, # of connection points: 2
#     Edge 100, Type (0, 1), BuildingBlock: UVAHIK_clean_linker_0, # of connection points: 2
#     Edge 101, Type (0, 1), BuildingBlock: UVAHIK_clean_linker_0, # of connection points: 2
#     Edge 102, Type (0, 1), BuildingBlock: UVAHIK_clean_linker_0, # of connection points: 2
#     Edge 103, Type (0, 1), BuildingBlock: UVAHIK_clean_linker_0, # of connection points: 2
#     Edge 104, Type (0, 1), BuildingBlock: UVAHIK_clean_linker_0, # of connection points: 2
#     Edge 105, Type (0, 1), BuildingBlock: UVAHIK_clean_linker_0, # of connection points: 2
#     Edge 106, Type (0, 1), BuildingBlock: UVAHIK_clean_linker_0, # of connection points: 2
#     Edge 107, Type (0, 1), BuildingBlock: UVAHIK_clean_linker_0, # of connection points: 2
# Relax obj value: 0.014
# Max RMSD: 0.133
# Mean RMSD: 0.071
data_MOF--net-fgl--node1-ESEHIV_clean_sbu_0--node2-KUFVIS_clean_sbu_0--edge1-UVAHIK_clean_linker_0
_symmetry_space_group_name_H-M    P1
_symmetry_Int_Tables_number       1
_symmetry_cell_setting            triclinic
loop_
_symmetry_equiv_pos_as_xyz
'x, y, z'
_cell_length_a     95.137167
_cell_length_b     97.765612
_cell_length_c     64.97677
_cell_angle_alpha  89.591714
_cell_angle_beta   89.684429
_cell_angle_gamma 119.88714
loop_
_atom_site_label
_atom_site_type_symbol
_atom_site_fract_x
_atom_site_fract_y
_atom_site_fract_z
_atom_type_partial_charge
Cu0 Cu 0.0355 0.55005 1.00827 0.0
N1 N 0.04888 0.56386 0.02853 0.0
N2 N 0.05509 0.57918 0.05636 0.0
C3 C 0.04415 0.57157 0.04145 0.0
C4 C 0.06727 0.57616 0.05255 0.0
C5 C 0.0634 0.56671 0.03537 0.0
O6 O 0.01974 0.5566 1.00289 0.0
C7 C 0.02416 0.52437 0.03713 0.0
O8 O 0.02692 0.53478 0.05148 0.0
H9 H 0.03244 0.57083 0.04057 0.0
H10 H 0.07037 0.5618 0.0288 0.0
N11 N 0.04657 0.5508 0.98392 0.0
N12 N 0.05177 0.54228 0.9544 0.0
C13 C 0.04297 0.5382 0.97208 0.0
C14 C 0.05812 0.56333 0.97347 0.0
C15 C 0.06134 0.55813 0.95526 0.0
C16 C 0.01415 0.557 0.98532 0.0
O17 O 0.01717 0.55048 0.96957 0.0
H18 H 0.03354 0.52634 0.97601 0.0
H19 H 0.06349 0.57543 0.97849 0.0
O20 O 0.02593 0.52856 0.01829 0.0
H21 H 0.07807 0.58023 0.06172 0.0
H22 H 0.06998 0.56548 0.94352 0.0
Cu23 Cu 0.53716 0.54627 0.02789 0.0
N24 N 0.55239 0.54855 1.00781 0.0
N25 N 0.56662 0.55761 0.97849 0.0
C26 C 0.55686 0.55913 0.99228 0.0
C27 C 0.56845 0.5456 0.98563 0.0
C28 C 0.55971 0.54007 1.0038 0.0
O29 O 0.543 0.56818 0.03448 0.0
C30 C 0.51381 0.51796 0.01276 0.0
O31 O 0.52603 0.51564 0.01628 0.0
H32 H 0.55244 0.56736 0.99072 0.0
H33 H 0.55838 0.53023 0.01299 0.0
N34 N 0.53827 0.53672 0.05242 0.0
N35 N 0.5303 0.52572 0.08371 0.0
C36 C 0.52749 0.53303 0.0679 0.0
C37 C 0.54836 0.5316 0.05859 0.0
C38 C 0.54343 0.52475 0.07791 0.0
C39 C 0.5565 0.57573 0.04391 0.0
O40 O 0.56425 0.56818 0.04865 0.0
H41 H 0.5175 0.53535 0.06727 0.0
H42 H 0.55855 0.53274 0.04974 0.0
O43 O 0.51553 0.53151 0.01681 0.0
H44 H 0.57546 0.54106 0.97816 0.0
H45 H 0.54913 0.51958 0.08701 0.0
Cu46 Cu 0.52182 0.06015 0.03596 0.0
N47 N 0.52183 0.07059 0.01185 0.0
N48 N 0.5133 0.07422 0.98144 0.0
C49 C 0.50934 0.06534 0.99877 0.0
C50 C 0.5289 0.0856 0.98381 0.0
C51 C 0.53417 0.08326 1.00257 0.0
O52 O 0.49951 0.04774 0.04555 0.0
C53 C 0.53503 0.0448 0.01238 0.0
O54 O 0.52604 0.04521 0.99739 0.0
H55 H 0.4977 0.05493 1.00176 0.0
H56 H 0.54629 0.08993 1.00863 0.0
N57 N 0.53383 0.07436 0.0564 0.0
N58 N 0.54851 0.08302 0.08491 0.0
C59 C 0.5384 0.0703 0.07387 0.0
C60 C 0.54119 0.09022 0.05639 0.0
C61 C 0.55036 0.09562 0.07399 0.0
C62 C 0.49282 0.05599 0.04915 0.0
O63 O 0.50153 0.07138 0.04672 0.0
H64 H 0.53501 0.05826 0.07786 0.0
H65 H 0.54035 0.09736 0.04421 0.0
O66 O 0.53306 0.04856 0.03044 0.0
H67 H 0.53618 0.09455 0.97245 0.0
H68 H 0.55798 0.10783 0.07825 0.0
Cu69 Cu 0.54479 0.06597 0.54232 0.0
N70 N 0.56425 0.08162 0.53081 0.0
N71 N 0.58339 0.09215 0.50636 0.0
C72 C 0.56735 0.08398 0.51047 0.0
C73 C 0.59068 0.09537 0.52483 0.0
C74 C 0.57884 0.08893 0.53991 0.0
O75 O 0.54686 0.04701 0.54407 0.0
C76 C 0.51201 0.05672 0.52941 0.0
O77 O 0.50697 0.04523 0.54309 0.0
H78 H 0.55816 0.07807 0.4989 0.0
H79 H 0.58083 0.08825 0.55614 0.0
N80 N 0.54287 0.07107 0.56942 0.0
N81 N 0.5314 0.07258 0.5988 0.0
C82 C 0.53006 0.07118 0.57813 0.0
C83 C 0.55272 0.07255 0.58507 0.0
C84 C 0.54574 0.0736 0.60318 0.0
C85 C 0.55396 0.04329 0.53031 0.0
O86 O 0.55657 0.04997 0.51203 0.0
H87 H 0.51966 0.06962 0.56958 0.0
H88 H 0.56367 0.07187 0.58358 0.0
O89 O 0.52719 0.0655 0.52615 0.0
H90 H 0.60362 0.10077 0.52716 0.0
H91 H 0.55034 0.07395 0.61849 0.0
Cu92 Cu 0.03676 0.55998 0.52307 0.0
N93 N 0.04931 0.55577 0.54166 0.0
N94 N 0.05449 0.54346 0.56729 0.0
C95 C 0.04312 0.54328 0.55476 0.0
C96 C 0.06844 0.55656 0.56185 0.0
C97 C 0.06525 0.56406 0.54593 0.0
O98 O 0.01784 0.53924 0.5191 0.0
C99 C 0.04448 0.58904 0.53812 0.0
O100 O 0.05889 0.59096 0.53405 0.0
H101 H 0.03039 0.53444 0.55547 0.0
H102 H 0.07394 0.57485 0.53817 0.0
N103 N 0.04724 0.56859 0.49775 0.0
N104 N 0.05212 0.58088 0.46706 0.0
C105 C 0.0424 0.57572 0.48392 0.0
C106 C 0.06062 0.56937 0.48947 0.0
C107 C 0.06368 0.57697 0.47056 0.0
C108 C 0.01268 0.53272 0.50176 0.0
O109 O 0.01787 0.54128 0.48484 0.0
H110 H 0.0319 0.5771 0.48629 0.0
H111 H 0.0676 0.56469 0.49663 0.0
O112 O 0.03206 0.57561 0.53486 0.0
H113 H 0.08011 0.56037 0.56879 0.0
H114 H 0.07345 0.57914 0.46004 0.0
Cu115 Cu 0.53422 0.53733 0.51826 0.0
N116 N 0.5557 0.54372 0.51182 0.0
N117 N 0.58196 0.5607 0.50626 0.0
C118 C 0.56731 0.55895 0.5108 0.0
C119 C 0.57941 0.54588 0.50428 0.0
C120 C 0.56316 0.5354 0.50777 0.0
O121 O 0.53509 0.54883 0.54306 0.0
C122 C 0.52519 0.53394 0.47827 0.0
O123 O 0.53363 0.52666 0.47939 0.0
H124 H 0.56488 0.56854 0.51306 0.0
H125 H 0.55724 0.52268 0.50726 0.0
N126 N 0.52174 0.51571 0.52324 0.0
N127 N 0.49912 0.49222 0.52325 0.0
C128 C 0.50577 0.50782 0.51963 0.0
C129 C 0.52547 0.50476 0.52952 0.0
C130 C 0.51145 0.4902 0.52965 0.0
C131 C 0.54094 0.54533 0.5585 0.0
O132 O 0.5444 0.53396 0.55651 0.0
H133 H 0.49914 0.51357 0.51463 0.0
H134 H 0.53746 0.50713 0.53367 0.0
O135 O 0.52426 0.54097 0.49424 0.0
H136 H 0.5886 0.5428 0.50073 0.0
H137 H 0.51046 0.47903 0.53394 0.0
Cu138 Cu 0.71344 0.89583 0.34283 0.0
N139 N 0.71917 0.91488 0.32941 0.0
N140 N 0.71608 0.93497 0.31883 0.0
C141 C 0.7087 0.92015 0.32652 0.0
C142 C 0.73186 0.93921 0.31668 0.0
C143 C 0.73373 0.92672 0.32313 0.0
O144 O 0.70242 0.89645 0.36867 0.0
C145 C 0.71219 0.88093 0.30686 0.0
O146 O 0.72683 0.89332 0.30718 0.0
H147 H 0.69606 0.91354 0.33112 0.0
H148 H 0.74496 0.92651 0.32381 0.0
N149 N 0.73146 0.89429 0.35085 0.0
N150 N 0.74514 0.88203 0.35931 0.0
C151 C 0.73092 0.88036 0.35294 0.0
C152 C 0.74662 0.90526 0.35611 0.0
C153 C 0.75509 0.89769 0.36147 0.0
C154 C 0.71138 0.90883 0.37917 0.0
O155 O 0.72587 0.91871 0.37178 0.0
H156 H 0.72012 0.86915 0.3502 0.0
H157 H 0.7512 0.91784 0.35625 0.0
O158 O 0.70259 0.87908 0.32191 0.0
H159 H 0.74138 0.95062 0.31127 0.0
H160 H 0.76757 0.90326 0.3664 0.0
Cu161 Cu 0.20291 0.89239 0.37151 0.0
N162 N 0.20139 0.87396 0.36099 0.0
N163 N 0.18917 0.84921 0.34925 0.0
C164 C 0.18725 0.86044 0.3587 0.0
C165 C 0.20529 0.856 0.34557 0.0
C166 C 0.2128 0.87128 0.35285 0.0
O167 O 0.18441 0.88488 0.39013 0.0
C168 C 0.1953 0.89989 0.33201 0.0
O169 O 0.18493 0.88472 0.33066 0.0
H170 H 0.17567 0.85919 0.36308 0.0
H171 H 0.22557 0.87991 0.35184 0.0
N172 N 0.22223 0.90457 0.38579 0.0
N173 N 0.24395 0.92612 0.39778 0.0
C174 C 0.23229 0.92024 0.38332 0.0
C175 C 0.22778 0.90036 0.40226 0.0
C176 C 0.24115 0.91364 0.40973 0.0
C177 C 0.18456 0.8905 0.40776 0.0
O178 O 0.1971 0.90397 0.41312 0.0
H179 H 0.23057 0.92732 0.37183 0.0
H180 H 0.22208 0.8886 0.40887 0.0
O181 O 0.20292 0.90533 0.34871 0.0
H182 H 0.21126 0.85044 0.33798 0.0
H183 H 0.24808 0.91413 0.42314 0.0
Cu184 Cu 0.18007 0.37761 0.34908 0.0
N185 N 0.17481 0.36797 0.32355 0.0
N186 N 0.1667 0.36388 0.29091 0.0
C187 C 0.16759 0.37157 0.30843 0.0
C188 C 0.17346 0.3549 0.29531 0.0
C189 C 0.17853 0.35753 0.31549 0.0
O190 O 0.16497 0.38509 0.35456 0.0
C191 C 0.20986 0.40163 0.33214 0.0
O192 O 0.20114 0.40011 0.31581 0.0
H193 H 0.16339 0.37994 0.31022 0.0
H194 H 0.1849 0.35256 0.32354 0.0
N195 N 0.17767 0.36302 0.36927 0.0
N196 N 0.18205 0.35362 0.39844 0.0
C197 C 0.18599 0.36659 0.38692 0.0
C198 C 0.16813 0.34723 0.3695 0.0
C199 C 0.17087 0.34136 0.38752 0.0
C200 C 0.16214 0.38868 0.37228 0.0
O201 O 0.17103 0.38906 0.38791 0.0
H202 H 0.19502 0.37848 0.39099 0.0
H203 H 0.15989 0.34048 0.35738 0.0
O204 O 0.2028 0.39395 0.34848 0.0
H205 H 0.17517 0.34745 0.28453 0.0
H206 H 0.16503 0.32909 0.39226 0.0
Cu207 Cu 0.20483 0.38864 0.85892 0.0
N208 N 0.22115 0.40262 0.8411 0.0
N209 N 0.2357 0.41139 0.81207 0.0
C210 C 0.22188 0.40009 0.82093 0.0
C211 C 0.24387 0.42166 0.82719 0.0
C212 C 0.23485 0.41618 0.84514 0.0
O213 O 0.2108 0.37312 0.86843 0.0
C214 C 0.17008 0.37256 0.85019 0.0
O215 O 0.16748 0.36504 0.86788 0.0
H216 H 0.2126 0.38989 0.81305 0.0
H217 H 0.2383 0.42145 0.86016 0.0
N218 N 0.20427 0.39959 0.88196 0.0
N219 N 0.19447 0.40758 0.90767 0.0
C220 C 0.19131 0.40001 0.88952 0.0
C221 C 0.21613 0.40725 0.89568 0.0
C222 C 0.21015 0.41224 0.91153 0.0
C223 C 0.21756 0.36755 0.85684 0.0
O224 O 0.21785 0.36981 0.83687 0.0
H225 H 0.17956 0.39418 0.88235 0.0
H226 H 0.22811 0.40859 0.8946 0.0
O227 O 0.1846 0.3814 0.84383 0.0
H228 H 0.25582 0.43194 0.82561 0.0
H229 H 0.21676 0.41842 0.92508 0.0
Cu230 Cu 0.67939 0.87713 0.85408 0.0
N231 N 0.66291 0.8574 0.84545 0.0
N232 N 0.65205 0.83273 0.834 0.0
C233 C 0.66569 0.84572 0.83994 0.0
C234 C 0.64014 0.83633 0.83585 0.0
C235 C 0.6469 0.85162 0.84279 0.0
O236 O 0.69066 0.87229 0.87602 0.0
C237 C 0.68194 0.88987 0.81549 0.0
O238 O 0.66638 0.88323 0.81979 0.0
H239 H 0.67756 0.84675 0.84041 0.0
H240 H 0.64059 0.85811 0.84515 0.0
N241 N 0.67173 0.88956 0.86599 0.0
N242 N 0.67298 0.91139 0.87831 0.0
C243 C 0.6813 0.90502 0.86973 0.0
C244 C 0.65682 0.88596 0.87262 0.0
C245 C 0.65754 0.89947 0.88009 0.0
C246 C 0.68163 0.86559 0.89184 0.0
O247 O 0.66672 0.86309 0.89168 0.0
H248 H 0.6941 0.91152 0.86595 0.0
H249 H 0.64623 0.87435 0.87246 0.0
O250 O 0.69122 0.88887 0.82891 0.0
H251 H 0.62756 0.82863 0.83196 0.0
H252 H 0.64757 0.9004 0.88667 0.0
Cu253 Cu 0.18853 0.88139 0.8596 0.0
N254 N 0.18913 0.86941 0.83777 0.0
N255 N 0.18164 0.85624 0.80817 0.0
C256 C 0.17823 0.86409 0.82253 0.0
C257 C 0.19518 0.85646 0.81482 0.0
C258 C 0.19982 0.86466 0.8331 0.0
O259 O 0.16567 0.8736 0.86502 0.0
C260 C 0.2043 0.9093 0.83433 0.0
O261 O 0.197 0.90002 0.81874 0.0
H262 H 0.16801 0.86607 0.82201 0.0
H263 H 0.21032 0.86717 0.84217 0.0
N264 N 0.19812 0.87886 0.88319 0.0
N265 N 0.20941 0.88473 0.91432 0.0
C266 C 0.20512 0.89002 0.89761 0.0
C267 C 0.19813 0.86604 0.89082 0.0
C268 C 0.20517 0.86966 0.91005 0.0
C269 C 0.15946 0.87143 0.88298 0.0
O270 O 0.16901 0.87715 0.89892 0.0
H271 H 0.20654 0.90167 0.89603 0.0
H272 H 0.19284 0.85473 0.8833 0.0
O273 O 0.20101 0.90367 0.85255 0.0
H274 H 0.20153 0.85145 0.80679 0.0
H275 H 0.20638 0.8616 0.92042 0.0
Cu276 Cu 0.38932 0.24104 0.69223 0.0
N277 N 0.39723 0.26154 0.68234 0.0
N278 N 0.39603 0.28315 0.67443 0.0
C279 C 0.38791 0.26824 0.68174 0.0
C280 C 0.41115 0.28597 0.6701 0.0
C281 C 0.4119 0.27258 0.67519 0.0
O282 O 0.37815 0.24045 0.71836 0.0
C283 C 0.38701 0.22933 0.65365 0.0
O284 O 0.40191 0.24122 0.65467 0.0
H285 H 0.37527 0.26215 0.68641 0.0
H286 H 0.42235 0.27102 0.67378 0.0
N287 N 0.40563 0.23639 0.69825 0.0
N288 N 0.41616 0.22061 0.70146 0.0
C289 C 0.40303 0.22166 0.6965 0.0
C290 C 0.42107 0.24514 0.70455 0.0
C291 C 0.42758 0.23531 0.70679 0.0
C292 C 0.38768 0.25108 0.73086 0.0
O293 O 0.40294 0.25986 0.72526 0.0
H294 H 0.39151 0.21176 0.69202 0.0
H295 H 0.42715 0.25768 0.70737 0.0
O296 O 0.37766 0.22662 0.66928 0.0
H297 H 0.42096 0.29693 0.66397 0.0
H298 H 0.4397 0.23868 0.7118 0.0
Cu299 Cu 0.86167 0.2047 0.6879 0.0
N300 N 0.87872 0.2085 0.66998 0.0
N301 N 0.89627 0.22083 0.64416 0.0
C302 C 0.88506 0.22087 0.65683 0.0
C303 C 0.89711 0.2079 0.64946 0.0
C304 C 0.88634 0.20035 0.66561 0.0
O305 O 0.86578 0.22631 0.69288 0.0
C306 C 0.84023 0.17595 0.67129 0.0
O307 O 0.85251 0.17412 0.67647 0.0
H308 H 0.88107 0.22947 0.65606 0.0
H309 H 0.88407 0.18959 0.6733 0.0
N310 N 0.86202 0.19528 0.71285 0.0
N311 N 0.8527 0.18369 0.74356 0.0
C312 C 0.84956 0.18945 0.72635 0.0
C313 C 0.87347 0.19299 0.72161 0.0
C314 C 0.86772 0.18577 0.74062 0.0
C315 C 0.87088 0.23328 0.71009 0.0
O316 O 0.86957 0.22486 0.72655 0.0
H317 H 0.83841 0.18955 0.72353 0.0
H318 H 0.88521 0.19651 0.71483 0.0
O319 O 0.84119 0.18927 0.67475 0.0
H320 H 0.90491 0.20419 0.64219 0.0
H321 H 0.87423 0.1827 0.7516 0.0
Cu322 Cu 0.84884 0.6903 0.67346 0.0
N323 N 0.84412 0.68053 0.64798 0.0
N324 N 0.83771 0.67716 0.61475 0.0
C325 C 0.83726 0.6841 0.6324 0.0
C326 C 0.84481 0.66858 0.61951 0.0
C327 C 0.84887 0.67078 0.64007 0.0
O328 O 0.83097 0.69304 0.68238 0.0
C329 C 0.87612 0.71731 0.65548 0.0
O330 O 0.86691 0.71466 0.63934 0.0
H331 H 0.8328 0.6923 0.63375 0.0
H332 H 0.8556 0.66631 0.64834 0.0
N333 N 0.85111 0.67783 0.69328 0.0
N334 N 0.85989 0.67257 0.72236 0.0
C335 C 0.85944 0.68376 0.71064 0.0
C336 C 0.84596 0.66227 0.69394 0.0
C337 C 0.85149 0.65899 0.71192 0.0
C338 C 0.82766 0.70364 0.677 0.0
O339 O 0.83755 0.71511 0.66454 0.0
H340 H 0.8655 0.69619 0.71424 0.0
H341 H 0.83888 0.65397 0.68215 0.0
O342 O 0.86993 0.70937 0.67193 0.0
H343 H 0.84777 0.66203 0.60864 0.0
H344 H 0.84951 0.64757 0.71688 0.0
Cu345 Cu 0.84844 0.69187 0.16482 0.0
N346 N 0.84367 0.67852 0.14235 0.0
N347 N 0.84662 0.67008 0.1117 0.0
C348 C 0.85124 0.68267 0.12395 0.0
C349 C 0.83557 0.65753 0.12278 0.0
C350 C 0.83373 0.6628 0.1417 0.0
O351 O 0.87185 0.70173 0.17071 0.0
C352 C 0.82393 0.69819 0.15592 0.0
O353 O 0.81647 0.68269 0.15598 0.0
H354 H 0.86073 0.69454 0.12018 0.0
H355 H 0.82618 0.65562 0.15437 0.0
N356 N 0.83799 0.68003 0.18825 0.0
N357 N 0.82457 0.67377 0.21815 0.0
C358 C 0.82877 0.68297 0.20116 0.0
C359 C 0.83976 0.66859 0.19742 0.0
C360 C 0.83149 0.66473 0.21601 0.0
C361 C 0.87865 0.69343 0.16766 0.0
O362 O 0.87016 0.67935 0.1597 0.0
H363 H 0.82598 0.69232 0.19872 0.0
H364 H 0.84706 0.66385 0.1914 0.0
O365 O 0.8392 0.70569 0.1592 0.0
H366 H 0.82958 0.6454 0.11779 0.0
H367 H 0.83093 0.65624 0.22726 0.0
Cu368 Cu 0.3534 0.22061 0.20488 0.0
N369 N 0.33669 0.20058 0.19729 0.0
N370 N 0.32479 0.17542 0.18733 0.0
C371 C 0.3389 0.18852 0.19182 0.0
C372 C 0.31323 0.17942 0.19007 0.0
C373 C 0.32061 0.19496 0.19613 0.0
O374 O 0.36568 0.21654 0.22626 0.0
C375 C 0.35463 0.23242 0.16604 0.0
O376 O 0.33915 0.22537 0.17088 0.0
H377 H 0.35066 0.1893 0.19148 0.0
H378 H 0.31464 0.20169 0.19919 0.0
N379 N 0.34553 0.23291 0.21689 0.0
N380 N 0.34554 0.25463 0.22765 0.0
C381 C 0.35375 0.2488 0.21737 0.0
C382 C 0.33157 0.2285 0.22719 0.0
C383 C 0.33155 0.24185 0.23385 0.0
C384 C 0.35708 0.20917 0.24212 0.0
O385 O 0.34176 0.2054 0.24237 0.0
H386 H 0.36574 0.25589 0.21071 0.0
H387 H 0.32217 0.21645 0.23003 0.0
O388 O 0.36442 0.23202 0.17917 0.0
H389 H 0.30039 0.17175 0.18757 0.0
H390 H 0.32195 0.2421 0.24255 0.0
Cu391 Cu 0.84853 0.22253 0.19708 0.0
N392 N 0.83493 0.22259 0.17663 0.0
N393 N 0.81944 0.21439 0.14862 0.0
C394 C 0.82903 0.2119 0.16153 0.0
C395 C 0.81939 0.22728 0.15592 0.0
C396 C 0.82895 0.2323 0.17327 0.0
O397 O 0.84093 0.2005 0.20259 0.0
C398 C 0.87648 0.24812 0.18317 0.0
O399 O 0.86751 0.25464 0.18666 0.0
H400 H 0.83198 0.2026 0.15995 0.0
H401 H 0.83135 0.24227 0.18274 0.0
N402 N 0.84759 0.23255 0.22099 0.0
N403 N 0.85539 0.24539 0.25081 0.0
C404 C 0.85976 0.23984 0.23445 0.0
C405 C 0.83505 0.23351 0.22898 0.0
C406 C 0.83984 0.24149 0.24737 0.0
C407 C 0.83936 0.19441 0.22038 0.0
O408 O 0.84553 0.20363 0.23633 0.0
H409 H 0.87157 0.24097 0.23223 0.0
H410 H 0.8232 0.22855 0.22209 0.0
O411 O 0.87046 0.23344 0.18664 0.0
H412 H 0.81278 0.23259 0.1494 0.0
H413 H 0.83232 0.24384 0.25763 0.0
Mn414 Mn 0.03602 0.68122 0.25813 0.0
Mn415 Mn 0.99807 0.64982 0.25974 0.0
C416 C 0.01479 0.68323 0.24348 0.0
C417 C 0.0573 0.70367 0.27315 0.0
C418 C 0.02427 0.65247 0.2302 0.0
O419 O 0.03742 0.66684 0.28013 0.0
O420 O 0.01122 0.64776 0.28211 0.0
C421 C 0.98727 0.65602 0.29967 0.0
N422 N 0.98512 0.65351 0.27905 0.0
C423 C 0.96083 0.65536 0.28005 0.0
C424 C 0.96272 0.65785 0.30132 0.0
C425 C 0.97602 0.65822 0.31116 0.0
C426 C 0.97242 0.65322 0.26941 0.0
H427 H 0.9975 0.65636 0.30728 0.0
C428 C 0.02592 0.65428 0.28834 0.0
O429 O 0.05987 0.6958 0.2591 0.0
O430 O 0.04231 0.69844 0.27867 0.0
N431 N 0.98385 0.65017 0.23927 0.0
C432 C 0.98404 0.64811 0.21856 0.0
C433 C 0.97163 0.64759 0.20641 0.0
C434 C 0.95908 0.64906 0.21568 0.0
C435 C 0.95904 0.651 0.23703 0.0
C436 C 0.97165 0.65128 0.24838 0.0
H437 H 0.99361 0.64689 0.21135 0.0
O438 O 0.02972 0.69294 0.23815 0.0
O439 O 0.01273 0.67278 0.25751 0.0
O440 O 0.03502 0.66636 0.23534 0.0
O441 O 0.01032 0.645 0.23891 0.0
C442 C 0.9471 0.65288 0.24746 0.0
C443 C 0.94803 0.65511 0.26894 0.0
H444 H 0.95409 0.6596 0.31023 0.0
H445 H 0.9776 0.66022 0.32756 0.0
H446 H 0.97174 0.64608 0.18994 0.0
H447 H 0.94957 0.64873 0.20624 0.0
H448 H 0.93726 0.65283 0.23906 0.0
H449 H 0.93888 0.65674 0.27675 0.0
Mn450 Mn 0.39704 0.44008 0.2849 0.0
Mn451 Mn 0.39453 0.47301 0.27711 0.0
C452 C 0.37449 0.44103 0.29645 0.0
C453 C 0.39299 0.41565 0.27386 0.0
C454 C 0.41497 0.47017 0.3106 0.0
O455 O 0.41429 0.45185 0.26287 0.0
O456 O 0.41126 0.47308 0.25837 0.0
C457 C 0.38145 0.46608 0.23486 0.0
N458 N 0.38017 0.46958 0.2548 0.0
C459 C 0.35558 0.46999 0.24779 0.0
C460 C 0.35668 0.46649 0.22716 0.0
C461 C 0.36964 0.46448 0.22069 0.0
C462 C 0.3677 0.47145 0.26121 0.0
H463 H 0.39139 0.46452 0.22982 0.0
C464 C 0.41805 0.46493 0.254 0.0
O465 O 0.40371 0.42376 0.28766 0.0
O466 O 0.38487 0.42188 0.26623 0.0
N467 N 0.37881 0.47463 0.29384 0.0
C468 C 0.37903 0.47711 0.31448 0.0
C469 C 0.36664 0.47893 0.32354 0.0
C470 C 0.35425 0.47837 0.31127 0.0
C471 C 0.35438 0.47599 0.29003 0.0
C472 C 0.36706 0.47427 0.28186 0.0
H473 H 0.3885 0.47752 0.32399 0.0
O474 O 0.37819 0.43104 0.30441 0.0
O475 O 0.38401 0.4501 0.28175 0.0
O476 O 0.41158 0.4561 0.30646 0.0
O477 O 0.40923 0.47758 0.30066 0.0
C478 C 0.34228 0.47498 0.2767 0.0
C479 C 0.34283 0.4719 0.25562 0.0
H480 H 0.34758 0.46522 0.21618 0.0
H481 H 0.37054 0.46171 0.20481 0.0
H482 H 0.36661 0.48073 0.33995 0.0
H483 H 0.34465 0.47966 0.31833 0.0
H484 H 0.33238 0.47636 0.28256 0.0
H485 H 0.33331 0.4709 0.2456 0.0
Mn486 Mn 0.65689 0.06325 0.28089 0.0
Mn487 Mn 0.67143 0.10253 0.27934 0.0
C488 C 0.68037 0.0795 0.26282 0.0
C489 C 0.65638 0.04147 0.29645 0.0
C490 C 0.64258 0.07924 0.25449 0.0
O491 O 0.64511 0.06664 0.30484 0.0
O492 O 0.65656 0.09319 0.30345 0.0
C493 C 0.69117 0.1114 0.31711 0.0
N494 N 0.69011 0.1128 0.29639 0.0
C495 C 0.71869 0.13139 0.29356 0.0
C496 C 0.72006 0.13022 0.31489 0.0
C497 C 0.70624 0.12017 0.32671 0.0
C498 C 0.70333 0.12246 0.28487 0.0
H499 H 0.6806 0.10361 0.32623 0.0
C500 C 0.64699 0.07967 0.31166 0.0
O501 O 0.64464 0.03977 0.28463 0.0
O502 O 0.66778 0.05575 0.29996 0.0
N503 N 0.68611 0.11289 0.2568 0.0
C504 C 0.68291 0.11192 0.23629 0.0
C505 C 0.69555 0.12086 0.22224 0.0
C506 C 0.71133 0.13073 0.22944 0.0
C507 C 0.71431 0.13162 0.25063 0.0
C508 C 0.7012 0.12254 0.26391 0.0
H509 H 0.67082 0.10429 0.23066 0.0
O510 O 0.67196 0.06465 0.25841 0.0
O511 O 0.67465 0.08434 0.27749 0.0
O512 O 0.6428 0.06679 0.26007 0.0
O513 O 0.65252 0.09301 0.26105 0.0
C514 C 0.72984 0.14088 0.25906 0.0
C515 C 0.73202 0.14077 0.28051 0.0
H516 H 0.73169 0.13687 0.32233 0.0
H517 H 0.70722 0.11914 0.34317 0.0
H518 H 0.69316 0.12008 0.20591 0.0
H519 H 0.72108 0.13748 0.21854 0.0
H520 H 0.74022 0.14795 0.24916 0.0
H521 H 0.74406 0.14776 0.28678 0.0
Mn522 Mn 0.03129 0.41619 0.76663 0.0
Mn523 Mn 0.04607 0.40432 0.72747 0.0
C524 C 0.04616 0.40369 0.7736 0.0
C525 C 0.03389 0.43557 0.79011 0.0
C526 C 0.01055 0.38669 0.74053 0.0
O527 O 0.03043 0.42897 0.74196 0.0
O528 O 0.04144 0.42097 0.71728 0.0
C529 C 0.07728 0.4338 0.72059 0.0
N530 N 0.06896 0.41805 0.72496 0.0
C531 C 0.0937 0.41707 0.72688 0.0
C532 C 0.10252 0.43325 0.72225 0.0
C533 C 0.09427 0.44166 0.71913 0.0
C534 C 0.07677 0.40985 0.72797 0.0
H535 H 0.07099 0.44033 0.71829 0.0
C536 C 0.03549 0.42947 0.72352 0.0
O537 O 0.01981 0.42402 0.78493 0.0
O538 O 0.0464 0.43607 0.78129 0.0
N539 N 0.05123 0.38841 0.73518 0.0
C540 C 0.04102 0.37312 0.74091 0.0
C541 C 0.04741 0.36323 0.74537 0.0
C542 C 0.06419 0.36912 0.7438 0.0
C543 C 0.07444 0.38485 0.73771 0.0
C544 C 0.06738 0.39412 0.73331 0.0
H545 H 0.02811 0.36854 0.74222 0.0
O546 O 0.03621 0.4038 0.78725 0.0
O547 O 0.04703 0.41082 0.75625 0.0
O548 O 0.01191 0.39564 0.75557 0.0
O549 O 0.0225 0.38916 0.72895 0.0
C550 C 0.09143 0.3918 0.73632 0.0
C551 C 0.10105 0.40789 0.73091 0.0
H552 H 0.11563 0.43938 0.72126 0.0
H553 H 0.101 0.45417 0.71567 0.0
H554 H 0.03942 0.35111 0.75011 0.0
H555 H 0.06909 0.3615 0.74749 0.0
H556 H 0.09724 0.38494 0.73971 0.0
H557 H 0.11412 0.41316 0.7302 0.0
Mn558 Mn 0.6431 0.66268 0.75254 0.0
Mn559 Mn 0.67129 0.67398 0.78986 0.0
C560 C 0.6704 0.67442 0.74397 0.0
C561 C 0.62464 0.64419 0.72967 0.0
C562 C 0.65457 0.69238 0.77864 0.0
O563 O 0.62963 0.65029 0.77772 0.0
O564 O 0.64965 0.65843 0.80108 0.0
C565 C 0.67044 0.64354 0.79604 0.0
N566 N 0.67894 0.65928 0.79163 0.0
C567 C 0.70405 0.65898 0.78988 0.0
C568 C 0.69559 0.64278 0.7945 0.0
C569 C 0.6787 0.63502 0.7975 0.0
C570 C 0.69516 0.66683 0.78849 0.0
H571 H 0.65747 0.63756 0.79845 0.0
C572 C 0.63478 0.65027 0.79583 0.0
O573 O 0.62334 0.65612 0.73577 0.0
O574 O 0.63641 0.64272 0.73733 0.0
N575 N 0.6929 0.689 0.78131 0.0
C576 C 0.69912 0.70448 0.77602 0.0
C577 C 0.7158 0.71385 0.77192 0.0
C578 C 0.72594 0.70728 0.77365 0.0
C579 C 0.71929 0.69138 0.77942 0.0
C580 C 0.70257 0.68261 0.7832 0.0
H581 H 0.6914 0.70962 0.77487 0.0
O582 O 0.66017 0.67469 0.73108 0.0
O583 O 0.66439 0.66728 0.76146 0.0
O584 O 0.6459 0.68327 0.76435 0.0
O585 O 0.66446 0.68999 0.78914 0.0
C586 C 0.72857 0.68386 0.78143 0.0
C587 C 0.72094 0.66764 0.78647 0.0
H588 H 0.70192 0.63617 0.79569 0.0
H589 H 0.67207 0.62251 0.80101 0.0
H590 H 0.72085 0.72612 0.76751 0.0
H591 H 0.7388 0.71453 0.77044 0.0
H592 H 0.74156 0.69039 0.77881 0.0
H593 H 0.72817 0.66192 0.78757 0.0
Mn594 Mn 0.39224 0.04852 0.78362 0.0
Mn595 Mn 0.36761 0.03078 0.7434 0.0
C596 C 0.36462 0.03352 0.789 0.0
C597 C 0.40987 0.04994 0.80925 0.0
C598 C 0.38324 0.06578 0.75163 0.0
O599 O 0.40767 0.0494 0.76118 0.0
O600 O 0.38998 0.03552 0.73627 0.0
C601 C 0.36817 1.00079 0.74405 0.0
N602 N 0.35967 0.00859 0.74482 0.0
C603 C 0.33434 0.98419 0.74771 0.0
C604 C 0.34282 0.97589 0.74682 0.0
C605 C 0.35981 0.98423 0.74503 0.0
C606 C 0.34332 1.00069 0.74664 0.0
H607 H 0.38123 1.00717 0.74272 0.0
C608 C 0.4044 0.04311 0.74343 0.0
O609 O 0.41066 0.06245 0.80115 0.0
O610 O 0.39876 0.03636 0.80239 0.0
N611 N 0.34558 0.02548 0.74806 0.0
C612 C 0.33928 0.03528 0.74927 0.0
C613 C 0.32243 0.02881 0.75126 0.0
C614 C 0.31224 0.01236 0.7518 0.0
C615 C 0.31899 1.00251 0.75031 0.0
C616 C 0.33585 0.00963 0.74814 0.0
H617 H 0.34705 0.04793 0.74877 0.0
O618 O 0.37367 0.04402 0.80235 0.0
O619 O 0.37205 0.0319 0.77313 0.0
O620 O 0.38966 0.0653 0.7685 0.0
O621 O 0.37493 0.05362 0.7406 0.0
C622 C 0.30967 0.98592 0.75112 0.0
C623 C 0.31734 0.97677 0.74989 0.0
H624 H 0.33642 0.96312 0.74763 0.0
H625 H 0.36644 0.9779 0.74443 0.0
H626 H 0.31731 0.03649 0.75238 0.0
H627 H 0.29926 1.00742 0.75343 0.0
H628 H 0.29661 0.98008 0.75294 0.0
H629 H 0.31007 0.96403 0.75078 0.0
Mn630 Mn 0.6936 0.99667 0.59886 0.0
Mn631 Mn 0.65634 0.9642 0.6015 0.0
C632 C 0.67126 0.99725 0.58521 0.0
C633 C 0.71406 0.02076 0.61243 0.0
C634 C 0.68191 0.96793 0.57014 0.0
O635 O 0.69635 0.98327 0.62144 0.0
O636 O 0.6709 0.96255 0.62216 0.0
C637 C 0.64686 0.96921 0.64305 0.0
N638 N 0.64387 0.967 0.62251 0.0
C639 C 0.61926 0.96807 0.62632 0.0
C640 C 0.62202 0.97025 0.64753 0.0
C641 C 0.63589 0.97085 0.65591 0.0
C642 C 0.63057 0.96642 0.61427 0.0
H643 H 0.65754 0.96975 0.64956 0.0
C644 C 0.68549 0.96992 0.62884 0.0
O645 O 0.7173 0.01293 0.59898 0.0
O646 O 0.6991 0.01425 0.61866 0.0
N647 N 0.64092 0.96423 0.58271 0.0
C648 C 0.64042 0.96279 0.56184 0.0
C649 C 0.62749 0.96239 0.551 0.0
C650 C 0.61517 0.96336 0.56173 0.0
C651 C 0.61583 0.96462 0.58322 0.0
C652 C 0.62894 0.96483 0.59321 0.0
H653 H 0.64987 0.96207 0.55349 0.0
O654 O 0.68584 1.00718 0.57888 0.0
O655 O 0.67015 0.98722 0.5993 0.0
O656 O 0.69291 0.98159 0.57598 0.0
O657 O 0.66803 0.96036 0.57899 0.0
C658 C 0.60416 0.96601 0.59508 0.0
C659 C 0.60589 0.96775 0.61661 0.0
H660 H 0.61364 0.9716 0.65749 0.0
H661 H 0.63814 0.9726 0.67225 0.0
H662 H 0.62707 0.96142 0.53441 0.0
H663 H 0.60532 0.96324 0.55329 0.0
H664 H 0.59394 0.96597 0.58777 0.0
H665 H 0.59696 0.96901 0.62553 0.0
Mn666 Mn 0.06448 0.7627 0.60004 0.0
Mn667 Mn 0.05782 0.79357 0.60278 0.0
C668 C 0.04102 0.75972 0.61529 0.0
C669 C 0.06249 0.7403 0.58448 0.0
C670 C 0.08092 0.78983 0.63092 0.0
O671 O 0.08015 0.77788 0.57812 0.0
O672 O 0.07472 0.79775 0.58171 0.0
C673 C 0.04345 0.79046 0.56157 0.0
N674 N 0.04237 0.79119 0.5824 0.0
C675 C 0.01605 0.78892 0.58004 0.0
C676 C 0.01693 0.78824 0.55855 0.0
C677 C 0.03068 0.78898 0.54929 0.0
C678 C 0.02917 0.79043 0.59148 0.0
H679 H 0.05398 0.79098 0.55439 0.0
C680 C 0.08242 0.79156 0.57331 0.0
O681 O 0.07364 0.7484 0.59778 0.0
O682 O 0.05293 0.74565 0.57937 0.0
N683 N 0.04166 0.79114 0.62245 0.0
C684 C 0.04243 0.79131 0.6434 0.0
C685 C 0.0295 0.7904 0.65504 0.0
C686 C 0.016 0.78947 0.64504 0.0
C687 C 0.01557 0.78949 0.62348 0.0
C688 C 0.02887 0.79056 0.61269 0.0
H689 H 0.05279 0.79206 0.65116 0.0
O690 O 0.04638 0.75026 0.62017 0.0
O691 O 0.04962 0.77073 0.6019 0.0
O692 O 0.07884 0.77706 0.62301 0.0
O693 O 0.07355 0.79696 0.62464 0.0
C694 C 1.00234 0.78824 0.61227 0.0
C695 C 1.00257 0.78791 0.59057 0.0
H696 H 1.00708 0.78704 0.54902 0.0
H697 H 0.03141 0.78838 0.53272 0.0
H698 H 0.02992 0.79038 0.67168 0.0
H699 H 1.006 0.78865 0.65408 0.0
H700 H 0.99184 0.78729 0.6202 0.0
H701 H 0.99224 0.78672 0.58213 0.0
Mn702 Mn 0.31278 0.38458 0.5918 0.0
Mn703 Mn 0.31823 0.41998 0.57694 0.0
C704 C 0.33291 0.39979 0.5683 0.0
C705 C 0.31884 0.36969 0.61431 0.0
C706 C 0.29059 0.38875 0.56202 0.0
O707 O 0.30057 0.38936 0.6137 0.0
O708 O 0.30687 0.41402 0.60411 0.0
C709 C 0.34108 0.44019 0.60887 0.0
N710 N 0.33755 0.43658 0.58866 0.0
C711 C 0.36342 0.45824 0.57796 0.0
C712 C 0.36728 0.46226 0.59865 0.0
C713 C 0.35608 0.45317 0.61417 0.0
C714 C 0.34822 0.44527 0.5736 0.0
H715 H 0.33255 0.43318 0.62085 0.0
C716 C 0.30026 0.40213 0.61649 0.0
O717 O 0.30562 0.36316 0.60359 0.0
O718 O 0.32804 0.38484 0.61255 0.0
N719 N 0.32938 0.42705 0.55105 0.0
C720 C 0.32433 0.42082 0.53202 0.0
C721 C 0.33447 0.42808 0.51486 0.0
C722 C 0.34965 0.44167 0.51743 0.0
C723 C 0.35456 0.44789 0.53716 0.0
C724 C 0.3439 0.44021 0.55367 0.0
H725 H 0.3127 0.41033 0.52996 0.0
O726 O 0.32728 0.38469 0.56943 0.0
O727 O 0.32652 0.40546 0.58095 0.0
O728 O 0.29485 0.3798 0.57108 0.0
O729 O 0.29825 0.40376 0.5637 0.0
C730 C 0.36977 0.46118 0.54115 0.0
C731 C 0.3742 0.46635 0.56153 0.0
H732 H 0.37889 0.47218 0.60281 0.0
H733 H 0.35901 0.45614 0.63018 0.0
H734 H 0.33062 0.42317 0.49969 0.0
H735 H 0.3575 0.44714 0.50419 0.0
H736 H 0.37826 0.46736 0.52868 0.0
H737 H 0.38604 0.47642 0.56443 0.0
Mn738 Mn 0.69616 0.76626 0.10558 0.0
Mn739 Mn 0.71403 0.75679 0.06725 0.0
C740 C 0.7128 0.75553 0.11329 0.0
C741 C 0.69589 0.78408 0.12998 0.0
C742 C 0.67828 0.73659 0.0787 0.0
O743 O 0.69454 0.77862 0.08047 0.0
O744 O 0.70814 0.77248 0.05722 0.0
C745 C 0.74405 0.78773 0.06254 0.0
N746 N 0.73667 0.77187 0.06591 0.0
C747 C 0.76238 0.77277 0.0676 0.0
C748 C 0.77026 0.7891 0.064 0.0
C749 C 0.76105 0.79662 0.06153 0.0
C750 C 0.74541 0.76454 0.06849 0.0
H751 H 0.73702 0.79355 0.06065 0.0
C752 C 0.70079 0.77993 0.06247 0.0
O753 O 0.68266 0.77198 0.12364 0.0
O754 O 0.70924 0.78628 0.12144 0.0
N755 N 0.7206 0.74181 0.07453 0.0
C756 C 0.71116 0.72607 0.07858 0.0
C757 C 0.71851 0.71683 0.08159 0.0
C758 C 0.73545 0.72381 0.08018 0.0
C759 C 0.7449 0.73999 0.07582 0.0
C760 C 0.73689 0.74858 0.07279 0.0
H761 H 0.69813 0.72059 0.07952 0.0
O762 O 0.70208 0.75464 0.12645 0.0
O763 O 0.71352 0.76264 0.09601 0.0
O764 O 0.6784 0.74511 0.09363 0.0
O765 O 0.69083 0.74023 0.06762 0.0
C766 C 0.76196 0.74798 0.07462 0.0
C767 C 0.7707 0.76437 0.07061 0.0
H768 H 0.78337 0.79601 0.06324 0.0
H769 H 0.76705 0.80923 0.05885 0.0
H770 H 0.71113 0.70434 0.08495 0.0
H771 H 0.74107 0.71665 0.08253 0.0
H772 H 0.76849 0.74166 0.07705 0.0
H773 H 0.78382 0.77041 0.07001 0.0
Mn774 Mn 0.30168 0.99653 0.11617 0.0
Mn775 Mn 0.32831 1.00691 0.15515 0.0
C776 C 0.32889 1.00637 0.10912 0.0
C777 C 0.28351 0.9775 0.0936 0.0
C778 C 0.31442 0.02723 0.1405 0.0
O779 O 0.28699 0.98589 0.14106 0.0
O780 O 0.30589 0.99276 0.16565 0.0
C781 C 0.32459 0.97548 0.16359 0.0
N782 N 0.33423 0.99103 0.15867 0.0
C783 C 0.35799 0.98827 0.15759 0.0
C784 C 0.34833 0.97225 0.16278 0.0
C785 C 0.33156 0.96582 0.16574 0.0
C786 C 0.35037 0.99731 0.15567 0.0
H787 H 0.31169 0.9705 0.16582 0.0
C788 C 0.29112 0.9857 0.15968 0.0
O789 O 0.28266 0.99005 0.09779 0.0
O790 O 0.2945 0.97579 0.10307 0.0
N791 N 0.3505 0.02057 0.1474 0.0
C792 C 0.358 0.03611 0.14182 0.0
C793 C 0.37478 0.04425 0.13791 0.0
C794 C 0.38369 0.0364 0.14001 0.0
C795 C 0.37574 0.02049 0.14614 0.0
C796 C 0.35901 0.013 0.14991 0.0
H797 H 0.35122 0.04221 0.14023 0.0
O798 O 0.31942 1.00683 0.0952 0.0
O799 O 0.32214 1.00003 0.12673 0.0
O800 O 0.30582 0.01821 0.126 0.0
O801 O 0.32314 0.02403 0.15227 0.0
C802 C 0.38372 0.0117 0.14838 0.0
C803 C 0.37484 0.99559 0.154 0.0
H804 H 0.35365 0.96475 0.1644 0.0
H805 H 0.32401 0.95345 0.16965 0.0
H806 H 0.38083 0.05654 0.13323 0.0
H807 H 0.3966 0.04268 0.13682 0.0
H808 H 0.39665 0.01718 0.14559 0.0
H809 H 0.38107 0.9889 0.1554 0.0
Mn810 Mn 0.06131 0.37572 0.09898 0.0
Mn811 Mn 0.03321 0.35721 0.0623 0.0
C812 C 0.03545 0.35702 0.10843 0.0
C813 C 0.0823 0.37714 0.11878 0.0
C814 C 0.04276 0.38991 0.07749 0.0
O815 O 0.07485 0.38103 0.07307 0.0
O816 O 0.05541 0.36813 0.0497 0.0
C817 C 0.0424 0.33323 0.05206 0.0
N818 N 0.03096 0.33688 0.05818 0.0
C819 C 0.01049 0.30944 0.06008 0.0
C820 C 0.02203 0.30539 0.05364 0.0
C821 C 0.03806 0.31734 0.04967 0.0
C822 C 0.01553 0.32547 0.0622 0.0
H823 H 0.05475 0.34237 0.04904 0.0
C824 C 0.07029 0.37683 0.0547 0.0
O825 O 0.0809 0.38955 0.11553 0.0
O826 O 0.07174 0.36415 0.1102 0.0
N827 N 0.01112 0.34595 0.07166 0.0
C828 C 1.00153 0.3518 0.07818 0.0
C829 C 0.98515 0.34136 0.083 0.0
C830 C 0.97874 0.32504 0.08082 0.0
C831 C 0.98876 0.31931 0.07372 0.0
C832 C 1.00497 0.33029 0.06905 0.0
H833 H 1.0064 0.36431 0.08001 0.0
O834 O 0.04506 0.36728 0.1216 0.0
O835 O 0.04141 0.35765 0.0901 0.0
O836 O 0.05346 0.39108 0.09031 0.0
O837 O 0.03456 0.37781 0.06628 0.0
C838 C 0.98336 0.30313 0.07138 0.0
C839 C 0.99423 0.29819 0.06465 0.0
H840 H 0.01873 0.29315 0.05181 0.0
H841 H 0.04706 0.31431 0.0448 0.0
H842 H 0.97751 0.34588 0.08848 0.0
H843 H 0.96615 0.31702 0.08476 0.0
H844 H 0.9709 0.29437 0.0749 0.0
H845 H 0.98998 0.28571 0.06312 0.0
Mn846 Mn 0.36505 0.33829 0.94723 0.0
Mn847 Mn 0.32783 0.30568 0.94971 0.0
C848 C 0.34284 0.33845 0.93238 0.0
C849 C 0.38536 0.36263 0.96036 0.0
C850 C 0.35379 0.30923 0.91919 0.0
O851 O 0.36768 0.32531 0.97055 0.0
O852 O 0.34234 0.30447 0.97076 0.0
C853 C 0.31816 0.31134 0.99077 0.0
N854 N 0.3152 0.30868 0.97028 0.0
C855 C 0.29029 0.30926 0.9735 0.0
C856 C 0.29302 0.31191 0.99466 0.0
C857 C 0.30703 0.31299 1.00331 0.0
C858 C 0.3018 0.3077 0.96178 0.0
H859 H 0.32893 0.31223 0.99749 0.0
C860 C 0.35679 0.31194 0.97784 0.0
O861 O 0.38871 0.35454 0.94746 0.0
O862 O 0.37035 0.35624 0.96634 0.0
N863 N 0.31232 0.3051 0.93057 0.0
C864 C 0.31168 0.30292 0.90982 0.0
C865 C 0.29847 0.30173 0.89878 0.0
C866 C 0.28599 0.30264 0.90918 0.0
C867 C 0.28678 0.30464 0.93057 0.0
C868 C 0.30017 0.30561 0.94079 0.0
H869 H 0.32122 0.3022 0.90172 0.0
O870 O 0.3575 0.34839 0.92635 0.0
O871 O 0.34154 0.3287 0.94699 0.0
O872 O 0.36471 0.32289 0.92513 0.0
O873 O 0.33975 0.30172 0.92764 0.0
C874 C 0.27493 0.30595 0.9421 0.0
C875 C 0.27671 0.30831 0.96354 0.0
H876 H 0.28449 0.31323 1.00437 0.0
H877 H 0.30926 0.3151 0.01961 0.0
H878 H 0.29794 0.30018 0.88227 0.0
H879 H 0.27589 0.30185 0.90059 0.0
H880 H 0.2645 0.30534 0.9346 0.0
H881 H 0.26762 0.30948 0.97221 0.0
Mn882 Mn 0.72261 0.09281 0.94595 0.0
Mn883 Mn 0.71418 0.12203 0.93791 0.0
C884 C 0.69862 0.09011 0.9584 0.0
C885 C 0.72147 0.06991 0.93374 0.0
C886 C 0.73762 0.12335 0.97053 0.0
O887 O 0.73881 0.10623 0.9237 0.0
O888 O 0.73093 0.12408 0.91748 0.0
C889 C 0.69876 0.11231 0.89715 0.0
N890 N 0.69797 0.11579 0.91723 0.0
C891 C 0.67064 0.11068 0.91332 0.0
C892 C 0.6712 0.10716 0.89256 0.0
C893 C 0.68532 0.10796 0.88445 0.0
C894 C 0.68445 0.11506 0.92519 0.0
H895 H 0.70955 0.11281 0.89089 0.0
C896 C 0.73988 0.11797 0.91366 0.0
O897 O 0.73206 0.07851 0.94747 0.0
O898 O 0.71203 0.07487 0.92696 0.0
N899 N 0.69811 0.12142 0.95636 0.0
C900 C 0.69927 0.12447 0.9769 0.0
C901 C 0.686 0.12375 0.9875 0.0
C902 C 0.67173 0.11999 0.97685 0.0
C903 C 0.6709 0.11711 0.95566 0.0
C904 C 0.68456 0.11814 0.94588 0.0
H905 H 0.71017 0.1273 0.98519 0.0
O906 O 0.70431 0.08155 0.9659 0.0
O907 O 0.70703 0.09981 0.94353 0.0
O908 O 0.73569 0.10959 0.96757 0.0
O909 O 0.73057 0.12918 0.95985 0.0
C910 C 0.65695 0.11294 0.94395 0.0
C911 C 0.65681 0.10972 0.9228 0.0
H912 H 0.66082 0.10369 0.88274 0.0
H913 H 0.68581 0.10517 0.86847 0.0
H914 H 0.68674 0.12598 1.00385 0.0
H915 H 0.66146 0.11926 0.98513 0.0
H916 H 0.64618 0.11198 0.95112 0.0
H917 H 0.64594 0.10633 0.91401 0.0
Mn918 Mn 0.98417 0.70591 0.92317 0.0
Mn919 Mn 0.98318 0.73978 0.92914 0.0
C920 C 1.00692 0.72984 0.91533 0.0
C921 C 0.98701 0.68494 0.93523 0.0
C922 C 0.96745 0.71759 0.89361 0.0
O923 O 0.96416 0.69915 0.94126 0.0
O924 O 0.96587 0.7227 0.94616 0.0
C925 C 0.99289 0.74565 0.97281 0.0
N926 N 0.99532 0.75062 0.95281 0.0
C927 C 0.01752 0.77603 0.96189 0.0
C928 C 0.01522 0.77122 0.98262 0.0
C929 C 1.0029 0.75594 0.98808 0.0
C930 C 1.00726 0.76522 0.94735 0.0
H931 H 0.98336 0.73395 0.97706 0.0
C932 C 0.95914 0.7078 0.94938 0.0
O933 O 0.97838 0.68374 0.91929 0.0
O934 O 0.99406 0.69847 0.94452 0.0
N935 N 0.99919 0.75748 0.91367 0.0
C936 C 1.00007 0.76013 0.89296 0.0
C937 C 0.01194 0.77478 0.88489 0.0
C938 C 0.02255 0.78666 0.89822 0.0
C939 C 0.02119 0.78377 0.91951 0.0
C940 C 0.00919 0.76892 0.92664 0.0
H941 H 0.99181 0.75111 0.88266 0.0
O942 O 1.00519 0.71685 0.90771 0.0
O943 O 0.99549 0.72845 0.92776 0.0
O944 O 0.97235 0.7081 0.89859 0.0
O945 O 0.97048 0.72972 0.90414 0.0
C946 C 0.03132 0.79502 0.93392 0.0
C947 C 0.0296 0.7911 0.95508 0.0
H948 H 0.02288 0.77914 0.99444 0.0
H949 H 1.00108 0.75213 1.00403 0.0
H950 H 0.01287 0.77694 0.86845 0.0
H951 H 0.03171 0.79794 0.89194 0.0
H952 H 0.04061 0.80667 0.92888 0.0
H953 H 0.03765 0.79977 0.96598 0.0
Mn954 Mn 0.38267 0.11789 0.45626 0.0
Mn955 Mn 0.40266 0.11005 0.41895 0.0
C956 C 0.39996 0.10827 0.46516 0.0
C957 C 0.38029 0.13497 0.47982 0.0
C958 C 0.36711 0.08819 0.42946 0.0
O959 O 0.38054 0.12951 0.43074 0.0
O960 O 0.39571 0.12483 0.40826 0.0
C961 C 0.43155 0.1419 0.41515 0.0
N962 N 0.42498 0.1261 0.41844 0.0
C963 C 0.45139 0.12867 0.42135 0.0
C964 C 0.45846 0.14497 0.41786 0.0
C965 C 0.44849 0.15161 0.41481 0.0
C966 C 0.43445 0.1196 0.42153 0.0
H967 H 0.42393 0.14704 0.41282 0.0
C968 C 0.38728 0.1313 0.41301 0.0
O969 O 0.36774 0.12233 0.47319 0.0
O970 O 0.39423 0.13813 0.47207 0.0
N971 N 0.4103 0.09598 0.4267 0.0
C972 C 0.40158 0.08015 0.43051 0.0
C973 C 0.40974 0.07173 0.43416 0.0
C974 C 0.42676 0.07962 0.43357 0.0
C975 C 0.43547 0.09585 0.42924 0.0
C976 C 0.42668 0.10361 0.42562 0.0
H977 H 0.3885 0.07399 0.43086 0.0
O978 O 0.38882 0.10708 0.47783 0.0
O979 O 0.40099 0.11541 0.44773 0.0
O980 O 0.36633 0.09632 0.44427 0.0
O981 O 0.37989 0.09258 0.41854 0.0
C982 C 0.45254 0.10471 0.42878 0.0
C983 C 0.46049 0.12111 0.42491 0.0
H984 H 0.47151 0.1525 0.41762 0.0
H985 H 0.45385 0.16418 0.4122 0.0
H986 H 0.40293 0.05919 0.43745 0.0
H987 H 0.43301 0.07311 0.43657 0.0
H988 H 0.45966 0.09905 0.43166 0.0
H989 H 0.47362 0.12783 0.42485 0.0
Mn990 Mn 0.97874 0.35035 0.44057 0.0
Mn991 Mn 0.00853 0.36161 0.47569 0.0
C992 C 1.00568 0.3629 0.43008 0.0
C993 C 0.95935 0.33219 0.41824 0.0
C994 C 0.99052 0.37939 0.46811 0.0
O995 O 0.96665 0.33709 0.46593 0.0
O996 O 0.98762 0.34507 0.48778 0.0
C997 C 0.00926 0.33172 0.47842 0.0
N998 N 0.01704 0.34757 0.47471 0.0
C999 C 0.04229 0.34821 0.46814 0.0
C1000 C 0.03457 0.33192 0.47201 0.0
C1001 C 0.01798 0.32364 0.47712 0.0
C1002 C 0.03298 0.35563 0.46965 0.0
H1003 H 0.9965 0.32531 0.4823 0.0
C1004 C 0.9726 0.33657 0.48332 0.0
O1005 O 0.95814 0.34376 0.42592 0.0
O1006 O 0.97171 0.33087 0.42392 0.0
N1007 N 0.0295 0.37746 0.46608 0.0
C1008 C 0.035 0.39304 0.46218 0.0
C1009 C 0.05135 0.40299 0.45674 0.0
C1010 C 0.06189 0.39685 0.45552 0.0
C1011 C 0.05599 0.3808 0.45974 0.0
C1012 C 0.03961 0.3715 0.4653 0.0
H1013 H 0.02698 0.39786 0.4632 0.0
O1014 O 0.99479 0.36316 0.41839 0.0
O1015 O 1.0005 0.35537 0.44751 0.0
O1016 O 0.98153 0.3704 0.45395 0.0
O1017 O 1.00088 0.37707 0.47759 0.0
C1018 C 0.06565 0.37364 0.45843 0.0
C1019 C 0.05879 0.35734 0.46255 0.0
H1020 H 0.04124 0.32563 0.47098 0.0
H1021 H 0.01192 0.31105 0.48004 0.0
H1022 H 0.05582 0.41536 0.4535 0.0
H1023 H 0.07449 0.40455 0.45127 0.0
H1024 H 0.07833 0.38051 0.45403 0.0
H1025 H 0.0663 0.35193 0.46123 0.0
Mn1026 Mn 0.74935 0.71592 0.43004 0.0
Mn1027 Mn 0.71697 0.70244 0.39914 0.0
C1028 C 0.72346 0.70223 0.44381 0.0
C1029 C 0.76873 0.71178 0.44601 0.0
C1030 C 0.73839 0.73707 0.40963 0.0
O1031 O 0.75871 0.71636 0.40171 0.0
O1032 O 0.73582 0.70474 0.38291 0.0
C1033 C 0.71173 0.67059 0.39021 0.0
N1034 N 0.70614 0.67993 0.39793 0.0
C1035 C 0.68055 0.6573 0.40733 0.0
C1036 C 0.686 0.64745 0.39938 0.0
C1037 C 0.70166 0.65413 0.3908 0.0
C1038 C 0.69107 0.67363 0.40617 0.0
H1039 H 0.7238 0.67567 0.38372 0.0
C1040 C 0.75115 0.71048 0.385 0.0
O1041 O 0.77119 0.72596 0.4429 0.0
O1042 O 0.75522 0.70015 0.43954 0.0
N1043 N 0.69804 0.6995 0.41358 0.0
C1044 C 0.69506 0.71057 0.42189 0.0
C1045 C 0.68012 0.7058 0.43173 0.0
C1046 C 0.6684 0.68971 0.43292 0.0
C1047 C 0.67172 0.67852 0.42422 0.0
C1048 C 0.68677 0.68399 0.41445 0.0
H1049 H 0.70405 0.72295 0.42111 0.0
O1050 O 0.7355 0.71158 0.45535 0.0
O1051 O 0.72707 0.7016 0.42472 0.0
O1052 O 0.74736 0.73523 0.42257 0.0
O1053 O 0.7271 0.72568 0.39972 0.0
C1054 C 0.66084 0.66215 0.42527 0.0
C1055 C 0.66525 0.65155 0.41685 0.0
H1056 H 0.67833 0.63474 0.39997 0.0
H1057 H 0.70599 0.6466 0.38473 0.0
H1058 H 0.67766 0.71449 0.43847 0.0
H1059 H 0.65695 0.68606 0.44071 0.0
H1060 H 0.64913 0.65757 0.43278 0.0
H1061 H 0.65688 0.63898 0.41804 0.0
C1062 C 0.02323 0.4993 0.0273 0.0
C1063 C 0.02197 0.5087 0.04264 0.0
C1064 C 0.02352 0.48559 0.03251 0.0
C1065 C 0.03229 0.46664 0.07634 0.0
H1066 H 0.01627 0.43176 0.03842 0.0
C1067 C 0.05048 0.41834 0.08207 0.0
C1068 C 0.0393 0.40305 0.07557 0.0
C1069 C 0.0472 0.43071 0.0795 0.0
C1070 C 0.0206 0.44122 0.04944 0.0
H1071 H 0.01914 0.51061 0.07544 0.0
H1072 H 0.019 0.48625 0.08453 0.0
H1073 H 0.01104 0.45319 0.03188 0.0
H1074 H 0.01563 0.3887 0.06192 0.0
H1075 H 0.00958 0.40985 0.05853 0.0
H1076 H 0.0413 0.45431 0.09433 0.0
C1077 C 0.02029 0.48977 0.06849 0.0
C1078 C 0.01782 0.45371 0.04547 0.0
C1079 C 0.0202 0.50365 0.06327 0.0
C1080 C 0.02461 0.40033 0.06698 0.0
C1081 C 0.02118 0.41256 0.06484 0.0
C1082 C 0.03485 0.45399 0.08051 0.0
C1083 C 0.02229 0.48073 0.05319 0.0
C1084 C 0.02388 0.46674 0.05863 0.0
C1085 C 0.03253 0.428 0.07072 0.0
C1086 C 0.02923 0.4412 0.06696 0.0
H1087 H 0.02472 0.50286 0.01124 0.0
H1088 H 0.02536 0.47916 0.02029 0.0
H1089 H 0.03731 0.47653 0.08674 0.0
H1090 H 0.06194 0.42084 0.08866 0.0
H1091 H 0.05636 0.44246 0.08394 0.0
C1092 C 0.57528 0.59854 0.06538 0.0
C1093 C 0.5644 0.59284 0.04887 0.0
C1094 C 0.58495 0.61471 0.06879 0.0
C1095 C 0.60377 0.65309 0.04148 0.0
H1096 H 0.616 0.66941 0.09667 0.0
C1097 C 0.66281 0.71175 0.05803 0.0
C1098 C 0.66315 0.72132 0.07436 0.0
C1099 C 0.6491 0.69699 0.05452 0.0
C1100 C 0.61263 0.66519 0.08112 0.0
H1101 H 0.55486 0.59984 0.02324 0.0
H1102 H 0.57186 0.62836 0.02919 0.0
H1103 H 0.59438 0.64233 0.09184 0.0
H1104 H 0.64889 0.72272 0.09956 0.0
H1105 H 0.62495 0.69705 0.09335 0.0
H1106 H 0.62208 0.67596 0.03077 0.0
C1107 C 0.57289 0.62017 0.03951 0.0
C1108 C 0.60029 0.64953 0.07834 0.0
C1109 C 0.563 0.60383 0.03621 0.0
C1110 C 0.64917 0.71575 0.08685 0.0
C1111 C 0.63543 0.70093 0.08336 0.0
C1112 C 0.61615 0.66877 0.04426 0.0
C1113 C 0.58418 0.62584 0.0557 0.0
C1114 C 0.59588 0.64312 0.05849 0.0
C1115 C 0.63522 0.69125 0.06723 0.0
C1116 C 0.621 0.67498 0.06415 0.0
H1117 H 0.57671 0.59043 0.07543 0.0
H1118 H 0.59357 0.61849 0.08123 0.0
H1119 H 0.60083 0.64862 0.02597 0.0
H1120 H 0.67328 0.7155 0.04805 0.0
H1121 H 0.6496 0.68988 0.04216 0.0
C1122 C 0.46595 0.03267 0.06002 0.0
C1123 C 0.47544 0.04877 0.05485 0.0
C1124 C 0.44949 0.02625 0.06525 0.0
C1125 C 0.4153 0.03344 0.05824 0.0
H1126 H 0.3973 0.00871 0.1082 0.0
C1127 C 0.3559 0.02449 0.09354 0.0
C1128 C 0.34538 0.0101 0.10328 0.0
C1129 C 0.37129 0.02779 0.08702 0.0
C1130 C 0.40206 0.01543 0.09407 0.0
H1131 H 0.47509 0.0707 0.0511 0.0
H1132 H 0.44667 0.05953 0.06001 0.0
H1133 H 0.42507 0.01665 0.0977 0.0
H1134 H 0.34194 0.98729 0.11238 0.0
H1135 H 0.36885 0.9929 0.10076 0.0
H1136 H 0.39248 0.03235 0.05451 0.0
C1137 C 0.45182 0.05184 0.05996 0.0
C1138 C 0.41796 0.01994 0.08805 0.0
C1139 C 0.46817 0.05825 0.05498 0.0
C1140 C 0.35016 0.99872 0.10556 0.0
C1141 C 0.36552 1.00193 0.09887 0.0
C1142 C 0.39944 0.02889 0.06418 0.0
C1143 C 0.44226 0.03578 0.06508 0.0
C1144 C 0.42486 0.02931 0.07032 0.0
C1145 C 0.37631 0.01654 0.08955 0.0
C1146 C 0.39273 0.02016 0.08244 0.0
H1147 H 0.47121 0.02508 0.06008 0.0
H1148 H 0.44237 0.01381 0.06912 0.0
H1149 H 0.4202 0.0404 0.04428 0.0
H1150 H 0.35229 0.0333 0.09129 0.0
H1151 H 0.37933 0.03925 0.08018 0.0
C1152 C 0.48355 0.05152 0.52358 0.0
C1153 C 0.50037 0.06107 0.52029 0.0
C1154 C 0.47275 0.0564 0.51677 0.0
C1155 C 0.47105 0.09246 0.50406 0.0
H1156 H 0.43002 0.06363 0.47896 0.0
C1157 C 0.4283 0.1136 0.47095 0.0
C1158 C 0.41152 0.10313 0.4717 0.0
C1159 C 0.4392 0.10866 0.47708 0.0
C1160 C 0.4413 0.07182 0.48625 0.0
H1161 H 0.51888 0.08317 0.50675 0.0
H1162 H 0.50008 0.09166 0.495 0.0
H1163 H 0.44866 0.05438 0.48848 0.0
H1164 H 0.39289 0.07982 0.48137 0.0
H1165 H 0.41177 0.07111 0.49222 0.0
H1166 H 0.46364 0.10982 0.50228 0.0
C1167 C 0.49525 0.08042 0.50296 0.0
C1168 C 0.45204 0.0665 0.49163 0.0
C1169 C 0.50603 0.07547 0.50957 0.0
C1170 C 0.4058 0.08796 0.48003 0.0
C1171 C 0.41666 0.08297 0.48611 0.0
C1172 C 0.46025 0.09775 0.49888 0.0
C1173 C 0.47847 0.07105 0.50668 0.0
C1174 C 0.46707 0.07674 0.50061 0.0
C1175 C 0.43356 0.09314 0.48438 0.0
C1176 C 0.44517 0.08751 0.48992 0.0
H1177 H 0.47873 0.04038 0.53182 0.0
H1178 H 0.45993 0.04891 0.52002 0.0
H1179 H 0.48241 0.10063 0.51122 0.0
H1180 H 0.43299 0.12557 0.46531 0.0
H1181 H 0.45206 0.11689 0.47544 0.0
C1182 C 1.0054 0.50628 0.51671 0.0
C1183 C 1.00441 0.51528 0.50038 0.0
C1184 C 1.00073 0.4904 0.51401 0.0
C1185 C 0.99555 0.4629 0.47179 0.0
H1186 H 0.98147 0.4322 0.51642 0.0
C1187 C 0.9815 0.3989 0.4596 0.0
C1188 C 0.98936 0.3936 0.47309 0.0
C1189 C 0.98126 0.41282 0.4635 0.0
C1190 C 0.98543 0.44068 0.50384 0.0
H1191 H 0.99646 0.51429 0.46898 0.0
H1192 H 0.98755 0.48642 0.46455 0.0
H1193 H 0.98344 0.45777 0.52213 0.0
H1194 H 1.00271 0.39864 0.50163 0.0
H1195 H 1.00203 0.42287 0.50856 0.0
H1196 H 0.99735 0.4457 0.4535 0.0
C1197 C 0.99258 0.49176 0.4792 0.0
C1198 C 0.98662 0.45537 0.50709 0.0
C1199 C 0.99751 0.50773 0.4818 0.0
C1200 C 0.99658 0.40238 0.4909 0.0
C1201 C 0.99612 0.4162 0.49493 0.0
C1202 C 0.99412 0.44816 0.46848 0.0
C1203 C 0.9947 0.48303 0.495 0.0
C1204 C 0.99192 0.4668 0.49119 0.0
C1205 C 0.98866 0.42168 0.48111 0.0
C1206 C 0.98925 0.43697 0.48452 0.0
H1207 H 0.01075 0.51173 0.53122 0.0
H1208 H 1.00273 0.48422 0.52652 0.0
H1209 H 1.00004 0.47142 0.45926 0.0
H1210 H 0.97584 0.39249 0.44572 0.0
H1211 H 0.97532 0.4167 0.45266 0.0
C1212 C 0.60964 0.5762 0.49151 0.0
C1213 C 0.59694 0.5754 0.50355 0.0
C1214 C 0.62379 0.59062 0.48805 0.0
C1215 C 0.63891 0.63311 0.48604 0.0
H1216 H 0.68105 0.63603 0.48748 0.0
C1217 C 0.69898 0.69103 0.46697 0.0
C1218 C 0.70915 0.68889 0.45331 0.0
C1219 C 0.68551 0.67787 0.47582 0.0
C1220 C 0.66936 0.63539 0.48695 0.0
H1221 H 0.58953 0.58916 0.52214 0.0
H1222 H 0.61409 0.61431 0.51576 0.0
H1223 H 0.65697 0.61142 0.49763 0.0
H1224 H 0.71418 0.67178 0.43919 0.0
H1225 H 0.69077 0.64895 0.45427 0.0
H1226 H 0.65128 0.65697 0.47475 0.0
C1227 C 0.61297 0.60377 0.50882 0.0
C1228 C 0.65559 0.6213 0.49275 0.0
C1229 C 0.59888 0.58935 0.5124 0.0
C1230 C 0.70622 0.67363 0.44934 0.0
C1231 C 0.69295 0.66059 0.4582 0.0
C1232 C 0.6527 0.64721 0.48013 0.0
C1233 C 0.62551 0.60456 0.4965 0.0
C1234 C 0.6402 0.61992 0.49198 0.0
C1235 C 0.68239 0.66252 0.47147 0.0
C1236 C 0.66802 0.64837 0.48012 0.0
H1237 H 0.60852 0.56577 0.48428 0.0
H1238 H 0.6332 0.59092 0.47829 0.0
H1239 H 0.62716 0.63232 0.48517 0.0
H1240 H 0.70127 0.70278 0.47048 0.0
H1241 H 0.67762 0.67969 0.48613 0.0
C1242 C 0.00841 0.57797 0.99751 0.0
C1243 C 1.00724 0.56747 0.98203 0.0
C1244 C 1.00451 0.58972 0.99342 0.0
C1245 C 1.00166 0.61221 0.94924 0.0
H1246 H 0.9844 0.6288 0.99014 0.0
C1247 C 0.98304 0.65814 0.92918 0.0
C1248 C 0.98873 0.67137 0.94194 0.0
C1249 C 0.98468 0.64526 0.9349 0.0
C1250 C 0.98936 0.62434 0.97866 0.0
H1251 H 0.99993 0.56036 0.95058 0.0
H1252 H 0.99255 0.5805 0.94364 0.0
H1253 H 0.98684 0.60563 0.99844 0.0
H1254 H 1.00036 0.68135 0.97093 0.0
H1255 H 1.0031 0.65853 0.98112 0.0
H1256 H 1.00392 0.63077 0.92938 0.0
C1257 C 0.99703 0.58001 0.95875 0.0
C1258 C 0.99075 0.61108 0.98337 0.0
C1259 C 1.00111 0.56835 0.96278 0.0
C1260 C 0.99592 0.67134 0.96076 0.0
C1261 C 0.9974 0.65828 0.96663 0.0
C1262 C 1.0001 0.62533 0.94449 0.0
C1263 C 0.99918 0.59117 0.97381 0.0
C1264 C 0.99693 0.60484 0.9687 0.0
C1265 C 0.99192 0.64519 0.95361 0.0
C1266 C 0.99394 0.63153 0.95912 0.0
H1267 H 0.01312 0.57765 0.01254 0.0
H1268 H 1.00645 0.59813 1.00537 0.0
H1269 H 1.00687 0.60805 0.93773 0.0
H1270 H 0.97742 0.65776 0.91458 0.0
H1271 H 0.98019 0.63526 0.92468 0.0
C1272 C 0.50029 0.49406 0.99109 0.0
C1273 C 0.49876 0.50457 1.00432 0.0
C1274 C 0.48678 0.47984 0.98545 0.0
C1275 C 0.44596 0.4501 1.00359 0.0
H1276 H 0.44333 0.43287 0.94926 0.0
C1277 C 0.39364 0.38788 0.9795 0.0
C1278 C 0.3978 0.37886 0.96667 0.0
C1279 C 0.40505 0.40359 0.98411 0.0
C1280 C 0.44393 0.43739 0.96459 0.0
H1281 H 0.48164 0.50849 0.0217 0.0
H1282 H 0.45774 0.48339 0.01181 0.0
H1283 H 0.46404 0.45994 0.95624 0.0
H1284 H 0.41743 0.37932 0.94904 0.0
H1285 H 0.4373 0.4065 0.95725 0.0
H1286 H 0.42594 0.42739 0.01199 0.0
C1287 C 0.46954 0.48627 1.0058 0.0
C1288 C 0.45581 0.453 0.96859 0.0
C1289 C 0.48318 0.50073 0.01127 0.0
C1290 C 0.41376 0.38588 0.95893 0.0
C1291 C 0.42514 0.40157 0.9635 0.0
C1292 C 0.43403 0.43442 0.99958 0.0
C1293 C 0.47123 0.47553 0.99302 0.0
C1294 C 0.45723 0.45952 0.98824 0.0
C1295 C 0.42093 0.41075 0.97596 0.0
C1296 C 0.43303 0.42773 0.98011 0.0
H1297 H 0.51213 0.49662 0.98554 0.0
H1298 H 0.48868 0.47189 0.97584 0.0
H1299 H 0.44675 0.45462 0.01896 0.0
H1300 H 0.38145 0.38291 0.98568 0.0
H1301 H 0.40127 0.41025 0.99363 0.0
C1302 C 0.55443 0.04396 0.98685 0.0
C1303 C 0.55009 0.04446 1.00744 0.0
C1304 C 0.5701 0.04719 0.98174 0.0
C1305 C 0.61148 0.06987 1.00159 0.0
H1306 H 0.62229 0.04972 0.95802 0.0
C1307 C 0.67725 0.0849 0.98445 0.0
C1308 C 0.68195 0.08606 0.96375 0.0
C1309 C 0.66106 0.07952 0.98974 0.0
C1310 C 0.61946 0.05559 0.97006 0.0
H1311 H 0.55847 0.04747 0.03898 0.0
H1312 H 0.58569 0.05288 0.03007 0.0
H1313 H 0.59393 0.03952 0.96774 0.0
H1314 H 0.67348 0.08152 0.93237 0.0
H1315 H 0.64514 0.07241 0.94147 0.0
H1316 H 0.63694 0.08605 1.00377 0.0
C1317 C 0.57708 0.05036 0.01782 0.0
C1318 C 0.60321 0.0497 0.97568 0.0
C1319 C 0.56141 0.0471 0.02293 0.0
C1320 C 0.67017 0.08126 0.94841 0.0
C1321 C 0.65394 0.07582 0.95366 0.0
C1322 C 0.62769 0.07578 0.99595 0.0
C1323 C 0.58178 0.051 0.99713 0.0
C1324 C 0.59903 0.05676 0.99155 0.0
C1325 C 0.64919 0.07485 0.97441 0.0
C1326 C 0.63189 0.0687 0.98014 0.0
H1327 H 0.54602 0.04195 0.97452 0.0
H1328 H 0.57332 0.0476 0.96565 0.0
H1329 H 0.60866 0.07581 0.01356 0.0
H1330 H 0.68612 0.08811 0.99654 0.0
H1331 H 0.65778 0.07865 1.00588 0.0
C1332 C 0.56344 0.03074 0.55679 0.0
C1333 C 0.56239 0.03442 0.53608 0.0
C1334 C 0.57361 0.02481 0.56252 0.0
C1335 C 0.59753 1.00691 0.54209 0.0
H1336 H 0.6242 0.02609 0.58988 0.0
C1337 C 0.65462 1.00188 0.55928 0.0
C1338 C 0.65768 0.9999 0.57986 0.0
C1339 C 0.6421 1.00495 0.55433 0.0
C1340 C 0.61672 0.0204 0.57667 0.0
H1341 H 0.57073 0.034 0.50508 0.0
H1342 H 0.58832 0.02366 0.51503 0.0
H1343 H 0.60338 0.03254 0.58074 0.0
H1344 H 0.65105 1.00084 0.61148 0.0
H1345 H 0.62906 1.00594 0.60299 0.0
H1346 H 0.61096 0.99484 0.53797 0.0
C1347 C 0.58127 0.02529 0.52689 0.0
C1348 C 0.60472 0.02411 0.57141 0.0
C1349 C 0.57116 0.03127 0.52117 0.0
C1350 C 0.64855 1.00179 0.59545 0.0
C1351 C 0.63609 1.00493 0.59055 0.0
C1352 C 0.60951 1.00316 0.54739 0.0
C1353 C 0.58294 0.02232 0.5477 0.0
C1354 C 0.59503 0.01753 0.55395 0.0
C1355 C 0.63261 1.00647 0.5699 0.0
C1356 C 0.61939 0.00997 0.56465 0.0
H1357 H 0.5569 0.03302 0.56873 0.0
H1358 H 0.57436 0.02243 0.57866 0.0
H1359 H 0.59018 1.00143 0.52871 0.0
H1360 H 0.6618 1.00089 0.547 0.0
H1361 H 0.64006 1.00639 0.53828 0.0
C1362 C 0.05677 0.61539 0.55449 0.0
C1363 C 0.04327 0.6028 0.5452 0.0
C1364 C 0.05675 0.62923 0.55944 0.0
C1365 C 0.03936 0.65368 0.54433 0.0
H1366 H 0.0585 0.67511 0.59529 0.0
C1367 C 0.04566 0.71427 0.56693 0.0
C1368 C 0.05988 0.72483 0.5773 0.0
C1369 C 0.04234 0.6989 0.56265 0.0
C1370 C 0.05328 0.66939 0.58087 0.0
H1371 H 0.01899 0.59475 0.53407 0.0
H1372 H 0.01899 0.61924 0.54261 0.0
H1373 H 0.05419 0.64871 0.58968 0.0
H1374 H 0.08214 0.72778 0.59036 0.0
H1375 H 0.07658 0.70128 0.58253 0.0
H1376 H 0.03882 0.67458 0.53535 0.0
C1377 C 0.02958 0.61827 0.54608 0.0
C1378 C 0.05072 0.6542 0.57772 0.0
C1379 C 0.02952 0.60423 0.54136 0.0
C1380 C 0.07101 0.71992 0.5825 0.0
C1381 C 0.06773 0.70464 0.57817 0.0
C1382 C 0.04199 0.66897 0.54746 0.0
C1383 C 0.04327 0.63096 0.55505 0.0
C1384 C 0.04403 0.64627 0.55926 0.0
C1385 C 0.05319 0.69378 0.56864 0.0
C1386 C 0.04931 0.67714 0.56561 0.0
H1387 H 0.06755 0.61467 0.55767 0.0
H1388 H 0.06755 0.63882 0.56612 0.0
H1389 H 0.03431 0.64793 0.52987 0.0
H1390 H 0.0368 0.71767 0.56279 0.0
H1391 H 0.03101 0.69086 0.55533 0.0
C1392 C 0.47224 0.48346 0.50822 0.0
C1393 C 0.4822 0.48064 0.52147 0.0
C1394 C 0.45548 0.47357 0.50861 0.0
C1395 C 0.42228 0.45993 0.52906 0.0
H1396 H 0.39884 0.41416 0.52977 0.0
C1397 C 0.36128 0.42158 0.57 0.0
C1398 C 0.34877 0.40978 0.55846 0.0
C1399 C 0.37687 0.43021 0.56175 0.0
C1400 C 0.40525 0.42694 0.52931 0.0
H1401 H 0.48242 0.46451 0.54436 0.0
H1402 H 0.453 0.44701 0.54478 0.0
H1403 H 0.428 0.42853 0.52161 0.0
H1404 H 0.34275 0.39687 0.52993 0.0
H1405 H 0.37044 0.41182 0.51551 0.0
H1406 H 0.39982 0.4584 0.53787 0.0
C1407 C 0.45828 0.45699 0.53422 0.0
C1408 C 0.42187 0.43511 0.52481 0.0
C1409 C 0.4751 0.467 0.53398 0.0
C1410 C 0.35219 0.40627 0.53881 0.0
C1411 C 0.36793 0.41473 0.53064 0.0
C1412 C 0.40579 0.45179 0.53393 0.0
C1413 C 0.44832 0.46052 0.52202 0.0
C1414 C 0.43053 0.45168 0.52488 0.0
C1415 C 0.38035 0.42676 0.5421 0.0
C1416 C 0.3972 0.43525 0.53434 0.0
H1417 H 0.47735 0.49357 0.49791 0.0
H1418 H 0.44805 0.47639 0.49884 0.0
H1419 H 0.42874 0.47271 0.52942 0.0
H1420 H 0.35909 0.42389 0.58563 0.0
H1421 H 0.38635 0.43923 0.57101 0.0
C1422 C 0.75911 0.87063 0.37908 0.0
C1423 C 0.7485 0.86945 0.36334 0.0
C1424 C 0.76115 0.85775 0.38403 0.0
C1425 C 0.75413 0.81939 0.36398 0.0
H1426 H 0.75033 0.80711 0.42153 0.0
C1427 C 0.73319 0.75588 0.3892 0.0
C1428 C 0.74142 0.75324 0.40529 0.0
C1429 C 0.73641 0.7711 0.38437 0.0
C1430 C 0.75166 0.81051 0.40543 0.0
H1431 H 0.7324 0.85422 0.33976 0.0
H1432 H 0.73574 0.83182 0.34848 0.0
H1433 H 0.75245 0.83233 0.41205 0.0
H1434 H 0.75933 0.76465 0.42917 0.0
H1435 H 0.76482 0.79132 0.42077 0.0
H1436 H 0.7528 0.79738 0.35731 0.0
C1437 C 0.74256 0.84262 0.35701 0.0
C1438 C 0.75292 0.82497 0.39999 0.0
C1439 C 0.74047 0.8554 0.35216 0.0
C1440 C 0.75278 0.76624 0.41666 0.0
C1441 C 0.75591 0.78151 0.41191 0.0
C1442 C 0.75281 0.80496 0.3694 0.0
C1443 C 0.75274 0.84354 0.37317 0.0
C1444 C 0.75374 0.82936 0.37916 0.0
C1445 C 0.74786 0.78409 0.39556 0.0
C1446 C 0.75114 0.80018 0.39014 0.0
H1447 H 0.7654 0.88129 0.38799 0.0
H1448 H 0.76917 0.85886 0.39647 0.0
H1449 H 0.7551 0.82258 0.34782 0.0
H1450 H 0.72433 0.7462 0.38012 0.0
H1451 H 0.7298 0.77268 0.37193 0.0
C1452 C 0.26041 0.94852 0.42074 0.0
C1453 C 0.25595 0.94248 0.40081 0.0
C1454 C 0.27177 0.96447 0.42373 0.0
C1455 C 0.29327 1.00365 0.396 0.0
H1456 H 0.32112 0.01558 0.44366 0.0
C1457 C 0.35113 0.06506 0.40633 0.0
C1458 C 0.35292 0.07233 0.42552 0.0
C1459 C 0.33857 0.0496 0.40313 0.0
C1460 C 0.31333 0.01244 0.43036 0.0
H1461 H 0.2601 0.94837 0.36838 0.0
H1462 H 0.28043 0.97598 0.3734 0.0
H1463 H 0.30132 0.98792 0.43828 0.0
H1464 H 0.34276 0.06897 0.45633 0.0
H1465 H 0.32105 0.04183 0.45083 0.0
H1466 H 0.30595 0.02826 0.38777 0.0
C1467 C 0.2748 0.96862 0.38687 0.0
C1468 C 0.30187 0.99654 0.42728 0.0
C1469 C 0.2632 0.95273 0.38391 0.0
C1470 C 0.34168 0.0638 0.44132 0.0
C1471 C 0.32932 0.04822 0.43824 0.0
C1472 C 0.30497 0.01952 0.3989 0.0
C1473 C 0.27924 0.9748 0.40684 0.0
C1474 C 0.29158 0.99185 0.41007 0.0
C1475 C 0.32769 0.0409 0.41915 0.0
C1476 C 0.31508 0.02409 0.41616 0.0
H1477 H 0.25483 0.94098 0.43407 0.0
H1478 H 0.27445 0.96869 0.43935 0.0
H1479 H 0.28545 1.00071 0.38278 0.0
H1480 H 0.35956 0.07127 0.39383 0.0
H1481 H 0.33767 0.04425 0.38829 0.0
C1482 C 0.13617 0.38643 0.35983 0.0
C1483 C 0.14742 0.38999 0.37574 0.0
C1484 C 0.12126 0.38553 0.3637 0.0
C1485 C 0.09844 0.39615 0.40025 0.0
H1486 H 0.06116 0.35776 0.38117 0.0
C1487 C 0.03198 0.38219 0.41306 0.0
C1488 C 0.02173 0.36718 0.42156 0.0
C1489 C 0.04741 0.38611 0.40559 0.0
C1490 C 0.07145 0.36856 0.38655 0.0
H1491 H 0.15211 0.39621 0.40794 0.0
H1492 H 0.12609 0.39475 0.41463 0.0
H1493 H 0.08842 0.36334 0.37197 0.0
H1494 H 0.01872 0.34404 0.42731 0.0
H1495 H 0.04551 0.35074 0.41414 0.0
H1496 H 0.08138 0.40122 0.41505 0.0
C1497 C 0.12884 0.39264 0.39917 0.0
C1498 C 0.08706 0.37182 0.38114 0.0
C1499 C 0.14373 0.39342 0.39535 0.0
C1500 C 0.02663 0.35582 0.42127 0.0
C1501 C 0.04189 0.35962 0.41355 0.0
C1502 C 0.08278 0.39297 0.40544 0.0
C1503 C 0.11728 0.38829 0.38351 0.0
C1504 C 0.10074 0.38554 0.38815 0.0
C1505 C 0.05256 0.37488 0.40592 0.0
C1506 C 0.06913 0.37901 0.39892 0.0
H1507 H 0.13862 0.38378 0.34451 0.0
H1508 H 0.11269 0.38235 0.35126 0.0
H1509 H 0.10875 0.40685 0.40578 0.0
H1510 H 0.02826 0.39101 0.41279 0.0
H1511 H 0.05531 0.3979 0.39958 0.0
C1512 C 0.14036 0.36374 0.84608 0.0
C1513 C 0.15658 0.37331 0.83962 0.0
C1514 C 0.12798 0.36588 0.83772 0.0
C1515 C 0.1218 0.39681 0.81474 0.0
H1516 H 0.08039 0.36282 0.79656 0.0
C1517 C 0.07492 0.40994 0.77682 0.0
C1518 C 0.05835 0.39926 0.77984 0.0
C1519 C 0.08662 0.40623 0.78341 0.0
C1520 C 0.09177 0.37247 0.80186 0.0
H1521 H 0.17233 0.39236 0.81874 0.0
H1522 H 0.15087 0.39617 0.80448 0.0
H1523 H 0.10098 0.35693 0.80922 0.0
H1524 H 0.041 0.37685 0.79354 0.0
H1525 H 0.06136 0.37039 0.80558 0.0
H1526 H 0.11263 0.41234 0.80823 0.0
C1527 C 0.14772 0.38702 0.81603 0.0
C1528 C 0.10362 0.36906 0.80902 0.0
C1529 C 0.16001 0.38474 0.82413 0.0
C1530 C 0.05371 0.38509 0.7905 0.0
C1531 C 0.06541 0.38137 0.79726 0.0
C1532 C 0.10992 0.4002 0.80791 0.0
C1533 C 0.13159 0.37781 0.82293 0.0
C1534 C 0.11882 0.38121 0.81542 0.0
C1535 C 0.08209 0.39187 0.79377 0.0
C1536 C 0.09472 0.38811 0.80124 0.0
H1537 H 0.13725 0.35485 0.85798 0.0
H1538 H 0.11569 0.35862 0.84341 0.0
H1539 H 0.13328 0.40643 0.81987 0.0
H1540 H 0.07885 0.42123 0.76932 0.0
H1541 H 0.09923 0.41461 0.78013 0.0
C1542 C 0.63672 0.80367 0.83113 0.0
C1543 C 0.65071 0.81821 0.82688 0.0
C1544 C 0.6358 0.78955 0.82499 0.0
C1545 C 0.65304 0.77306 0.78856 0.0
H1546 H 0.64029 0.73966 0.82932 0.0
C1547 C 0.64541 0.71178 0.76984 0.0
C1548 C 0.65307 0.7064 0.78351 0.0
C1549 C 0.64409 0.72505 0.77452 0.0
C1550 C 0.64386 0.74889 0.81778 0.0
H1551 H 0.67443 0.82944 0.81223 0.0
H1552 H 0.6728 0.80483 0.80141 0.0
H1553 H 0.63968 0.76362 0.83824 0.0
H1554 H 0.66522 0.71071 0.81291 0.0
H1555 H 0.66276 0.73372 0.82109 0.0
H1556 H 0.6574 0.7584 0.76818 0.0
C1557 C 0.66258 0.80433 0.80956 0.0
C1558 C 0.64337 0.76252 0.82283 0.0
C1559 C 0.66358 0.81839 0.81593 0.0
C1560 C 0.65928 0.71453 0.802 0.0
C1561 C 0.65778 0.72765 0.80678 0.0
C1562 C 0.65334 0.75934 0.78344 0.0
C1563 C 0.64875 0.78975 0.8142 0.0
C1564 C 0.64816 0.77484 0.80835 0.0
C1565 C 0.65021 0.73307 0.79308 0.0
C1566 C 0.64896 0.74721 0.79809 0.0
H1567 H 0.62667 0.80319 0.83963 0.0
H1568 H 0.62497 0.77848 0.82867 0.0
H1569 H 0.6567 0.78233 0.77707 0.0
H1570 H 0.64052 0.70582 0.75544 0.0
H1571 H 0.63813 0.72894 0.76372 0.0
C1572 C 0.2286 0.93366 0.84715 0.0
C1573 C 0.2186 0.92516 0.83066 0.0
C1574 C 0.24364 0.94712 0.84348 0.0
C1575 C 0.26931 0.97749 0.80507 0.0
H1576 H 0.30451 0.97562 0.83234 0.0
C1577 C 0.34251 1.00601 0.79528 0.0
C1578 C 0.34764 0.02215 0.79419 0.0
C1579 C 0.32651 0.9951 0.80067 0.0
C1580 C 0.29481 0.97631 0.82464 0.0
H1581 H 0.21608 0.92485 0.79748 0.0
H1582 H 0.24233 0.94849 0.79113 0.0
H1583 H 0.27653 0.95552 0.83995 0.0
H1584 H 0.34062 0.0398 0.79906 0.0
H1585 H 0.31233 0.02062 0.80807 0.0
H1586 H 0.28772 0.99827 0.78965 0.0
C1587 C 0.23852 0.94465 0.80687 0.0
C1588 C 0.27879 0.9649 0.82913 0.0
C1589 C 0.2235 0.93108 0.81052 0.0
C1590 C 0.33675 0.02734 0.79938 0.0
C1591 C 0.32063 0.0164 0.80446 0.0
C1592 C 0.28538 0.98906 0.80079 0.0
C1593 C 0.24897 0.95248 0.82328 0.0
C1594 C 0.26587 0.96528 0.81928 0.0
C1595 C 0.31535 1.00016 0.8051 0.0
C1596 C 0.29828 0.98846 0.81036 0.0
H1597 H 0.22519 0.92951 0.86288 0.0
H1598 H 0.25135 0.95307 0.85644 0.0
H1599 H 0.25959 0.97807 0.79729 0.0
H1600 H 0.35088 1.00184 0.79186 0.0
H1601 H 0.32277 0.98267 0.80098 0.0
C1602 C 0.6926 0.9379 0.30956 0.0
C1603 C 0.70874 0.94464 0.3161 0.0
C1604 C 0.685 0.94697 0.30841 0.0
C1605 C 0.68604 0.98149 0.33093 0.0
H1606 H 0.66392 0.9829 0.28171 0.0
C1607 C 0.67145 0.03079 0.31566 0.0
C1608 C 0.65815 0.02798 0.30344 0.0
C1609 C 0.67519 0.01891 0.31929 0.0
C1610 C 0.6697 0.98239 0.29577 0.0
H1611 H 0.72962 0.96613 0.32645 0.0
H1612 H 0.71629 0.98201 0.32463 0.0
H1613 H 0.67569 0.96572 0.28305 0.0
H1614 H 0.63768 0.01016 0.28659 0.0
H1615 H 0.64396 0.98915 0.29343 0.0
H1616 H 0.68002 0.99798 0.34382 0.0
C1617 C 0.70955 0.96971 0.32035 0.0
C1618 C 0.67655 0.97262 0.29644 0.0
C1619 C 0.71723 0.96069 0.32118 0.0
C1620 C 0.64803 0.01269 0.29603 0.0
C1621 C 0.65175 1.00071 0.29977 0.0
C1622 C 0.67901 0.99107 0.33039 0.0
C1623 C 0.69333 0.96289 0.31412 0.0
C1624 C 0.6851 0.97237 0.31385 0.0
C1625 C 0.66566 1.00382 0.31095 0.0
C1626 C 0.67109 0.99196 0.31261 0.0
H1627 H 0.68584 0.92557 0.30547 0.0
H1628 H 0.67249 0.94144 0.30357 0.0
H1629 H 0.6923 0.98126 0.34469 0.0
H1630 H 0.6795 0.04244 0.32163 0.0
H1631 H 0.6861 0.02188 0.32774 0.0
C1632 C 0.1611 0.82671 0.3529 0.0
C1633 C 0.17641 0.83377 0.34312 0.0
C1634 C 0.14841 0.81227 0.3462 0.0
C1635 C 0.13919 0.77671 0.31635 0.0
H1636 H 0.09671 0.77266 0.31097 0.0
C1637 C 0.08678 0.72414 0.27451 0.0
C1638 C 0.0709 0.71809 0.28216 0.0
C1639 C 0.09963 0.7379 0.28259 0.0
C1640 C 0.10841 0.77346 0.31266 0.0
H1641 H 0.19028 0.83079 0.31871 0.0
H1642 H 0.16818 0.80553 0.30719 0.0
H1643 H 0.11916 0.79705 0.32398 0.0
H1644 H 0.05612 0.72169 0.30456 0.0
H1645 H 0.07856 0.74553 0.31897 0.0
H1646 H 0.12846 0.7531 0.30516 0.0
C1647 C 0.16606 0.8112 0.32014 0.0
C1648 C 0.12132 0.78749 0.32009 0.0
C1649 C 0.17876 0.82571 0.32678 0.0
C1650 C 0.0682 0.72606 0.29825 0.0
C1651 C 0.08107 0.73981 0.30642 0.0
C1652 C 0.12626 0.76263 0.30902 0.0
C1653 C 0.15066 0.8044 0.32961 0.0
C1654 C 0.13689 0.78932 0.32197 0.0
C1655 C 0.09697 0.74597 0.29864 0.0
C1656 C 0.11069 0.76083 0.30698 0.0
H1657 H 0.15887 0.83232 0.36581 0.0
H1658 H 0.1368 0.80723 0.35411 0.0
H1659 H 0.15097 0.77764 0.31787 0.0
H1660 H 0.0893 0.71834 0.26205 0.0
H1661 H 0.11161 0.74237 0.27595 0.0
C1662 C 0.23734 0.4113 0.34759 0.0
C1663 C 0.22779 0.40979 0.33038 0.0
C1664 C 0.25399 0.41699 0.34532 0.0
C1665 C 0.28866 0.43681 0.30789 0.0
H1666 H 0.30587 0.41469 0.33934 0.0
C1667 C 0.34792 0.43765 0.2854 0.0
C1668 C 0.35864 0.43954 0.30128 0.0
C1669 C 0.33254 0.43545 0.28993 0.0
C1670 C 0.30132 0.42113 0.33062 0.0
H1671 H 0.22844 0.41369 0.2974 0.0
H1672 H 0.25724 0.4232 0.29336 0.0
H1673 H 0.2782 0.40893 0.34571 0.0
H1674 H 0.36149 0.43956 0.33428 0.0
H1675 H 0.33456 0.43578 0.34234 0.0
H1676 H 0.31162 0.44849 0.29224 0.0
C1677 C 0.25201 0.42028 0.30871 0.0
C1678 C 0.28544 0.41788 0.33432 0.0
C1679 C 0.23541 0.41474 0.31101 0.0
C1680 C 0.35351 0.43849 0.3218 0.0
C1681 C 0.33811 0.43625 0.32637 0.0
C1682 C 0.30447 0.43992 0.30404 0.0
C1683 C 0.26149 0.42118 0.32576 0.0
C1684 C 0.27882 0.42556 0.32287 0.0
C1685 C 0.32746 0.43477 0.31048 0.0
C1686 C 0.31094 0.43203 0.31525 0.0
H1687 H 0.23187 0.40768 0.36276 0.0
H1688 H 0.26094 0.41783 0.35888 0.0
H1689 H 0.28413 0.44318 0.299 0.0
H1690 H 0.35139 0.43775 0.26947 0.0
H1691 H 0.32451 0.43401 0.27735 0.0
C1692 C 0.23655 0.35683 0.85286 0.0
C1693 C 0.22758 0.3612 0.86582 0.0
C1694 C 0.24775 0.35295 0.86097 0.0
C1695 C 0.27287 0.35921 0.90738 0.0
H1696 H 0.28174 0.32872 0.88132 0.0
C1697 C 0.31933 0.3425 0.93976 0.0
C1698 C 0.32915 0.34038 0.9254 0.0
C1699 C 0.3065 0.34458 0.93321 0.0
C1700 C 0.27951 0.33737 0.88869 0.0
H1701 H 0.22297 0.36423 0.89771 0.0
H1702 H 0.24222 0.35712 0.9119 0.0
H1703 H 0.25943 0.33206 0.86911 0.0
H1704 H 0.33412 0.34 0.89297 0.0
H1705 H 0.31157 0.34343 0.88139 0.0
H1706 H 0.29297 0.36448 0.92698 0.0
C1707 C 0.24085 0.35702 0.89536 0.0
C1708 C 0.26669 0.3393 0.88167 0.0
C1709 C 0.22965 0.36094 0.88723 0.0
C1710 C 0.32643 0.34119 0.90434 0.0
C1711 C 0.31348 0.34308 0.89776 0.0
C1712 C 0.28564 0.35721 0.91447 0.0
C1713 C 0.25031 0.35326 0.88232 0.0
C1714 C 0.26328 0.35039 0.89074 0.0
C1715 C 0.30324 0.34466 0.91211 0.0
C1716 C 0.28926 0.3464 0.90507 0.0
H1717 H 0.23537 0.35693 0.8363 0.0
H1718 H 0.25487 0.35032 0.85035 0.0
H1719 H 0.27086 0.36805 0.91459 0.0
H1720 H 0.32153 0.34243 0.95609 0.0
H1721 H 0.2989 0.34576 0.94471 0.0
C1722 C 0.6951 0.93638 0.89182 0.0
C1723 C 0.67932 0.92759 0.88404 0.0
C1724 C 0.70142 0.95224 0.89695 0.0
C1725 C 0.69797 0.98673 0.88424 0.0
H1726 H 0.71575 1.0023 0.9382 0.0
C1727 C 0.70652 0.04531 0.91353 0.0
C1728 C 0.71939 0.05465 0.9267 0.0
C1729 C 0.70358 0.03047 0.9076 0.0
C1730 C 0.71115 0.99826 0.92291 0.0
H1731 H 0.65782 0.92843 0.87544 0.0
H1732 H 0.66895 0.95625 0.88406 0.0
H1733 H 0.70674 0.97488 0.92946 0.0
H1734 H 0.73952 0.05586 0.94365 0.0
H1735 H 0.73462 0.02988 0.93282 0.0
H1736 H 0.70249 0.00997 0.87742 0.0
C1737 C 0.67637 0.95083 0.8863 0.0
C1738 C 0.70591 0.98253 0.91798 0.0
C1739 C 0.66996 0.93492 0.88153 0.0
C1740 C 0.7295 0.04891 0.9335 0.0
C1741 C 0.72661 0.034 0.9274 0.0
C1742 C 0.70342 1.00247 0.88903 0.0
C1743 C 0.69217 0.95964 0.89402 0.0
C1744 C 0.69893 0.97655 0.89877 0.0
C1745 C 0.71353 0.02455 0.91446 0.0
C1746 C 0.70968 0.00835 0.90861 0.0
H1747 H 0.70251 0.93095 0.89407 0.0
H1748 H 0.71363 0.95879 0.90284 0.0
H1749 H 0.69292 0.98247 0.86918 0.0
H1750 H 0.69841 0.0493 0.9081 0.0
H1751 H 0.69317 0.02345 0.89804 0.0
C1752 C 0.13212 0.85212 0.86919 0.0
C1753 C 0.14208 0.85965 0.88613 0.0
C1754 C 0.11667 0.83902 0.87213 0.0
C1755 C 0.08484 0.81601 0.9116 0.0
H1756 H 0.0746 0.7811 0.87515 0.0
C1757 C 0.03132 0.75352 0.92869 0.0
C1758 C 0.02212 0.74476 0.91192 0.0
C1759 C 0.04585 0.76767 0.92548 0.0
C1760 C 0.07711 0.79077 0.88532 0.0
H1761 H 0.14319 0.85986 0.91948 0.0
H1762 H 0.11637 0.83698 0.92456 0.0
H1763 H 0.09924 0.80621 0.86939 0.0
H1764 H 0.02116 0.74315 0.87876 0.0
H1765 H 0.04619 0.76816 0.87293 0.0
H1766 H 0.06299 0.80047 0.92786 0.0
C1767 C 0.12042 0.84123 0.90901 0.0
C1768 C 0.09126 0.80522 0.88198 0.0
C1769 C 0.13585 0.85436 0.90608 0.0
C1770 C 0.02799 0.74991 0.89189 0.0
C1771 C 0.04239 0.76417 0.88862 0.0
C1772 C 0.07072 0.80154 0.91499 0.0
C1773 C 0.11084 0.83312 0.89204 0.0
C1774 C 0.09533 0.81802 0.89508 0.0
C1775 C 0.05147 0.77332 0.90537 0.0
C1776 C 0.06662 0.78872 0.90187 0.0
H1777 H 0.13649 0.85594 0.85361 0.0
H1778 H 0.10946 0.83327 0.85874 0.0
H1779 H 0.08752 0.82565 0.9219 0.0
H1780 H 0.02724 0.74943 0.9443 0.0
H1781 H 0.05267 0.77414 0.93876 0.0
C1782 C 0.42432 0.20301 0.71839 0.0
C1783 C 0.41685 0.20627 0.70202 0.0
C1784 C 0.42236 0.18792 0.7208 0.0
C1785 C 0.39311 0.14686 0.70751 0.0
H1786 H 0.42529 0.13826 0.73105 0.0
C1787 C 0.38107 0.08346 0.72492 0.0
C1788 C 0.38652 0.08148 0.7442 0.0
C1789 C 0.38539 0.09858 0.7176 0.0
C1790 C 0.41617 0.1405 0.72452 0.0
H1791 H 0.40277 0.19694 0.67437 0.0
H1792 H 0.39965 0.17075 0.67825 0.0
H1793 H 0.43285 0.16528 0.72153 0.0
H1794 H 0.40041 0.09391 0.7711 0.0
H1795 H 0.40771 0.11998 0.75842 0.0
H1796 H 0.37638 0.1221 0.71081 0.0
C1797 C 0.40655 0.17959 0.68962 0.0
C1798 C 0.4205 0.15596 0.71909 0.0
C1799 C 0.4084 0.19459 0.68733 0.0
C1800 C 0.39605 0.09491 0.75612 0.0
C1801 C 0.40039 0.10993 0.74879 0.0
C1802 C 0.3888 0.13139 0.71288 0.0
C1803 C 0.41302 0.17591 0.70676 0.0
C1804 C 0.40895 0.15936 0.71083 0.0
C1805 C 0.39529 0.11197 0.72938 0.0
C1806 C 0.40021 0.12809 0.7218 0.0
H1807 H 0.43079 0.21182 0.72997 0.0
H1808 H 0.42743 0.18546 0.73426 0.0
H1809 H 0.38384 0.14907 0.70149 0.0
H1810 H 0.37373 0.07339 0.71534 0.0
H1811 H 0.38127 0.09983 0.70256 0.0
C1812 C 0.89061 0.2595 0.6937 0.0
C1813 C 0.8816 0.25075 0.71103 0.0
C1814 C 0.9032 0.27518 0.69572 0.0
C1815 C 0.92095 0.30989 0.73053 0.0
H1816 H 0.96165 0.31907 0.70494 0.0
C1817 C 0.98229 0.36557 0.75153 0.0
C1818 C 0.99453 0.3724 0.73633 0.0
C1819 C 0.96779 0.35144 0.74777 0.0
C1820 C 0.95037 0.31694 0.71194 0.0
H1821 H 0.87819 0.25199 0.74383 0.0
H1822 H 0.89979 0.27932 0.74723 0.0
H1823 H 0.93741 0.29388 0.69884 0.0
H1824 H 1.00068 0.36994 0.70491 0.0
H1825 H 0.97543 0.3459 0.69813 0.0
H1826 H 0.93386 0.33298 0.74354 0.0
C1827 C 0.89725 0.27409 0.7321 0.0
C1828 C 0.9364 0.30238 0.70842 0.0
C1829 C 0.88484 0.25838 0.73014 0.0
C1830 C 0.99165 0.36497 0.71711 0.0
C1831 C 0.97713 0.35102 0.71326 0.0
C1832 C 0.93491 0.32456 0.73387 0.0
C1833 C 0.90694 0.28257 0.71505 0.0
C1834 C 0.92151 0.29859 0.71777 0.0
C1835 C 0.96503 0.34383 0.72862 0.0
C1836 C 0.9499 0.32831 0.72473 0.0
H1837 H 0.88858 0.25399 0.67878 0.0
H1838 H 0.91029 0.28141 0.6822 0.0
H1839 H 0.90967 0.30743 0.73788 0.0
H1840 H 0.9841 0.37088 0.76656 0.0
H1841 H 0.95895 0.34628 0.76014 0.0
C1842 C 0.80839 0.71424 0.68009 0.0
C1843 C 0.81214 0.70226 0.68403 0.0
C1844 C 0.7935 0.71251 0.68663 0.0
C1845 C 0.75927 0.6888 0.72302 0.0
H1846 H 0.73527 0.70227 0.68838 0.0
C1847 C 0.69214 0.66769 0.73902 0.0
C1848 C 0.68684 0.67867 0.73694 0.0
C1849 C 0.70762 0.67142 0.73229 0.0
C1850 C 0.7419 0.69859 0.69835 0.0
H1851 H 0.80303 0.67897 0.69764 0.0
H1852 H 0.77722 0.67583 0.70846 0.0
H1853 H 0.76217 0.70758 0.67746 0.0
H1854 H 0.6929 0.70167 0.72493 0.0
H1855 H 0.72028 0.70848 0.71349 0.0
H1856 H 0.73891 0.67927 0.74343 0.0
C1857 C 0.78584 0.68676 0.70087 0.0
C1858 C 0.75735 0.70168 0.69211 0.0
C1859 C 0.80067 0.68853 0.69452 0.0
C1860 C 0.69693 0.69316 0.72704 0.0
C1861 C 0.71252 0.69698 0.7204 0.0
C1862 C 0.74383 0.68556 0.72908 0.0
C1863 C 0.78205 0.69874 0.69716 0.0
C1864 C 0.76614 0.69662 0.70426 0.0
C1865 C 0.71812 0.68621 0.72316 0.0
C1866 C 0.73485 0.69029 0.7168 0.0
H1867 H 0.81696 0.72496 0.67203 0.0
H1868 H 0.79105 0.72203 0.68365 0.0
H1869 H 0.7658 0.68505 0.73305 0.0
H1870 H 0.6843 0.6562 0.74592 0.0
H1871 H 0.71132 0.66266 0.73418 0.0
C1872 C 0.79708 0.69693 0.15524 0.0
C1873 C 0.81404 0.70606 0.15306 0.0
C1874 C 0.78714 0.70342 0.15166 0.0
C1875 C 0.78638 0.74102 0.14605 0.0
H1876 H 0.7453 0.71336 0.12012 0.0
C1877 C 0.74159 0.76175 0.11766 0.0
C1878 C 0.7249 0.7509 0.11931 0.0
C1879 C 0.75306 0.75727 0.12277 0.0
C1880 C 0.75662 0.72124 0.12755 0.0
H1881 H 0.83384 0.72948 0.1459 0.0
H1882 H 0.81635 0.74091 0.13921 0.0
H1883 H 0.7644 0.70421 0.12605 0.0
H1884 H 0.70712 0.7274 0.12947 0.0
H1885 H 0.72702 0.71944 0.13826 0.0
H1886 H 0.77852 0.75815 0.14718 0.0
C1887 C 0.81078 0.72865 0.14391 0.0
C1888 C 0.76765 0.71596 0.13101 0.0
C1889 C 0.82084 0.72211 0.14768 0.0
C1890 C 0.7199 0.73584 0.12751 0.0
C1891 C 0.73134 0.73129 0.13244 0.0
C1892 C 0.77534 0.74637 0.14241 0.0
C1893 C 0.79373 0.71929 0.14553 0.0
C1894 C 0.7826 0.72563 0.14064 0.0
C1895 C 0.7481 0.74182 0.12972 0.0
C1896 C 0.76018 0.73646 0.13335 0.0
H1897 H 0.79133 0.6846 0.15972 0.0
H1898 H 0.77418 0.6959 0.15376 0.0
H1899 H 0.79769 0.7488 0.1536 0.0
H1900 H 0.74576 0.77362 0.11201 0.0
H1901 H 0.7658 0.76573 0.12048 0.0
C1902 C 0.3348 0.15934 0.17013 0.0
C1903 C 0.32256 0.16032 0.18114 0.0
C1904 C 0.33278 0.14469 0.16449 0.0
C1905 C 0.31095 0.10291 0.1797 0.0
H1906 H 0.32392 0.0961 0.12576 0.0
C1907 C 0.32075 0.05053 0.16251 0.0
C1908 C 0.31433 0.04218 0.14419 0.0
C1909 C 0.32074 0.06457 0.16627 0.0
C1910 C 0.32013 0.09779 0.14083 0.0
H1911 H 0.29861 0.14662 0.19482 0.0
H1912 H 0.29512 0.12103 0.18506 0.0
H1913 H 0.32567 0.12139 0.13343 0.0
H1914 H 0.30296 0.04225 0.11536 0.0
H1915 H 0.30314 0.06698 0.12189 0.0
H1916 H 0.30561 0.07942 0.18722 0.0
C1917 C 0.30627 0.13162 0.18078 0.0
C1918 C 0.32127 0.11231 0.14528 0.0
C1919 C 0.30821 0.14629 0.18624 0.0
C1920 C 0.30797 0.04833 0.12965 0.0
C1921 C 0.30814 0.06253 0.13333 0.0
C1922 C 0.30999 0.08848 0.17533 0.0
C1923 C 0.31855 0.13065 0.16991 0.0
C1924 C 0.31677 0.11505 0.16481 0.0
C1925 C 0.31446 0.07075 0.15174 0.0
C1926 C 0.31468 0.0858 0.15591 0.0
H1927 H 0.34591 0.16993 0.16578 0.0
H1928 H 0.34253 0.14433 0.15627 0.0
H1929 H 0.30752 0.10469 0.19494 0.0
H1930 H 0.32575 0.04619 0.17409 0.0
H1931 H 0.32588 0.07072 0.18048 0.0
C1932 C 0.90055 0.27444 0.17572 0.0
C1933 C 0.89339 0.25793 0.17595 0.0
C1934 C 0.91656 0.2839 0.1692 0.0
C1935 C 0.94831 0.28458 0.13705 0.0
H1936 H 0.97633 0.32139 0.16926 0.0
C1937 C 0.01504 0.32866 0.1139 0.0
C1938 C 0.01949 0.3446 0.11549 0.0
C1939 C 1.00022 0.31696 0.1221 0.0
C1940 C 0.96863 0.31122 0.16003 0.0
H1941 H 0.89731 0.23836 0.16932 0.0
H1942 H 0.92544 0.25505 0.15764 0.0
H1943 H 0.9492 0.30282 0.18199 0.0
H1944 H 0.0128 0.36109 0.12779 0.0
H1945 H 0.98674 0.34075 0.14165 0.0
H1946 H 0.96763 0.29325 0.1148 0.0
C1947 C 0.91858 0.26057 0.1626 0.0
C1948 C 0.95313 0.30058 0.16735 0.0
C1949 C 0.90254 0.25106 0.16935 0.0
C1950 C 0.00935 0.34879 0.12605 0.0
C1951 C 0.99456 0.33716 0.13413 0.0
C1952 C 0.96384 0.2953 0.12965 0.0
C1953 C 0.92574 0.27707 0.16263 0.0
C1954 C 0.94271 0.28734 0.15574 0.0
C1955 C 0.98982 0.32112 0.13227 0.0
C1956 C 0.97401 0.3089 0.14088 0.0
H1957 H 0.89383 0.2801 0.1807 0.0
H1958 H 0.92173 0.29659 0.1691 0.0
H1959 H 0.94045 0.27449 0.12777 0.0
H1960 H 0.02307 0.32529 0.10648 0.0
H1961 H 0.997 0.30471 0.12069 0.0
C1962 C 0.37698 0.2921 0.68465 0.0
C1963 C 0.38943 0.29344 0.67156 0.0
C1964 C 0.36939 0.30091 0.68088 0.0
C1965 C 0.37345 0.33551 0.65217 0.0
H1966 H 0.32656 0.31356 0.65767 0.0
C1967 C 0.33809 0.36798 0.63861 0.0
C1968 C 0.32441 0.36031 0.62602 0.0
C1969 C 0.34529 0.35976 0.64682 0.0
C1970 C 0.33964 0.31984 0.65601 0.0
H1971 H 0.40403 0.30542 0.64464 0.0
H1972 H 0.39068 0.32082 0.63786 0.0
H1973 H 0.3413 0.29983 0.66609 0.0
H1974 H 0.30697 0.33782 0.61311 0.0
H1975 H 0.31964 0.32345 0.62728 0.0
H1976 H 0.37177 0.35533 0.6414 0.0
C1977 C 0.38689 0.31304 0.65119 0.0
C1978 C 0.34812 0.31203 0.66105 0.0
C1979 C 0.39455 0.30424 0.65504 0.0
C1980 C 0.31747 0.34403 0.62282 0.0
C1981 C 0.32474 0.3358 0.63096 0.0
C1982 C 0.36498 0.34331 0.64713 0.0
C1983 C 0.37403 0.31126 0.66388 0.0
C1984 C 0.36511 0.31975 0.65909 0.0
C1985 C 0.33902 0.3437 0.64253 0.0
C1986 C 0.34797 0.33555 0.6489 0.0
H1987 H 0.37302 0.28412 0.69777 0.0
H1988 H 0.3598 0.29954 0.69124 0.0
H1989 H 0.38654 0.34183 0.65067 0.0
H1990 H 0.34363 0.3805 0.64151 0.0
H1991 H 0.35604 0.3661 0.65609 0.0
C1992 C 0.82832 0.15164 0.6502 0.0
C1993 C 0.82586 0.16227 0.66205 0.0
C1994 C 0.81526 0.13737 0.64377 0.0
C1995 C 0.77347 0.10766 0.65805 0.0
H1996 H 0.77386 0.09071 0.60442 0.0
C1997 C 0.72213 0.04589 0.63166 0.0
C1998 C 0.72649 0.03687 0.61914 0.0
C1999 C 0.73351 0.0615 0.63671 0.0
C2000 C 0.77362 0.09512 0.61958 0.0
H2001 H 0.80759 0.16629 0.67615 0.0
H2002 H 0.78451 0.14106 0.66496 0.0
H2003 H 0.79436 0.11763 0.61257 0.0
H2004 H 0.74648 0.03722 0.60255 0.0
H2005 H 0.76638 0.06418 0.61169 0.0
H2006 H 0.75294 0.08502 0.66524 0.0
C2007 C 0.79669 0.14391 0.66061 0.0
C2008 C 0.78536 0.11066 0.62422 0.0
C2009 C 0.80987 0.15844 0.66683 0.0
C2010 C 0.74265 0.04379 0.61217 0.0
C2011 C 0.75405 0.05937 0.61728 0.0
C2012 C 0.76173 0.09205 0.65344 0.0
C2013 C 0.79926 0.1331 0.64918 0.0
C2014 C 0.78562 0.11711 0.64361 0.0
C2015 C 0.74964 0.06857 0.62943 0.0
C2016 C 0.76176 0.08544 0.63422 0.0
H2017 H 0.84048 0.15419 0.64631 0.0
H2018 H 0.81779 0.12935 0.63523 0.0
H2019 H 0.77339 0.11214 0.67322 0.0
H2020 H 0.70978 0.04101 0.63723 0.0
H2021 H 0.72952 0.06815 0.6459 0.0
C2022 C 0.9011 0.73196 0.63354 0.0
C2023 C 0.89402 0.72628 0.65305 0.0
C2024 C 0.91757 0.73732 0.63016 0.0
C2025 C 0.95692 0.74963 0.65524 0.0
H2026 H 0.9645 0.73046 0.60755 0.0
C2027 C 0.01839 0.75224 0.64071 0.0
C2028 C 0.02424 0.75547 0.62038 0.0
C2029 C 1.00254 0.74882 0.64521 0.0
C2030 C 0.96269 0.73609 0.62079 0.0
H2031 H 0.89904 0.72302 0.68471 0.0
H2032 H 0.92778 0.73246 0.67878 0.0
H2033 H 0.93749 0.72629 0.61433 0.0
H2034 H 0.0179 0.75614 0.58862 0.0
H2035 H 0.99043 0.75045 0.59633 0.0
H2036 H 0.9822 0.75949 0.66162 0.0
C2037 C 0.92057 0.73269 0.66609 0.0
C2038 C 0.94718 0.73372 0.62465 0.0
C2039 C 0.90407 0.72725 0.66946 0.0
C2040 C 0.01375 0.75415 0.60449 0.0
C2041 C 0.99794 0.75068 0.60892 0.0
C2042 C 0.97251 0.7521 0.65129 0.0
C2043 C 0.92735 0.73722 0.64623 0.0
C2044 C 0.9441 0.74046 0.6419 0.0
C2045 C 0.9922 0.74824 0.62937 0.0
C2046 C 0.97558 0.74535 0.634 0.0
H2047 H 0.89377 0.73149 0.62057 0.0
H2048 H 0.92253 0.74104 0.61478 0.0
H2049 H 0.95493 0.75502 0.66861 0.0
H2050 H 0.02622 0.75284 0.65312 0.0
H2051 H 0.99839 0.74666 0.66108 0.0
C2052 C 0.90542 0.69552 0.16136 0.0
C2053 C 0.89533 0.69828 0.17443 0.0
C2054 C 0.91952 0.69618 0.16875 0.0
C2055 C 0.9472 0.70681 0.21427 0.0
H2056 H 0.95575 0.6753 0.19077 0.0
C2057 C 0.99187 0.68848 0.24981 0.0
C2058 C 1.00163 0.68583 0.23594 0.0
C2059 C 0.97968 0.69135 0.2426 0.0
C2060 C 0.95365 0.68426 0.19742 0.0
H2061 H 0.8923 0.70432 0.20545 0.0
H2062 H 0.91677 0.70511 0.21868 0.0
H2063 H 0.93347 0.67816 0.17789 0.0
H2064 H 1.00721 0.68533 0.20377 0.0
H2065 H 0.98573 0.68998 0.19107 0.0
H2066 H 0.96722 0.71243 0.23431 0.0
C2067 C 0.91407 0.70283 0.2025 0.0
C2068 C 0.94087 0.68601 0.18991 0.0
C2069 C 0.90005 0.70246 0.19493 0.0
C2070 C 0.99954 0.6869 0.21476 0.0
C2071 C 0.98723 0.68954 0.20753 0.0
C2072 C 0.95991 0.7049 0.22197 0.0
C2073 C 0.92374 0.69916 0.18965 0.0
C2074 C 0.9375 0.69743 0.19802 0.0
C2075 C 0.977 0.69164 0.22134 0.0
C2076 C 0.96338 0.69367 0.21352 0.0
H2077 H 0.90204 0.69221 0.1455 0.0
H2078 H 0.92684 0.69383 0.15811 0.0
H2079 H 0.94515 0.71581 0.22087 0.0
H2080 H 0.99362 0.68823 0.26624 0.0
H2081 H 0.97206 0.6929 0.25368 0.0
C2082 C 0.3621 0.28303 0.21856 0.0
C2083 C 0.35084 0.271 0.2317 0.0
C2084 C 0.36735 0.2989 0.22261 0.0
C2085 C 0.37057 0.32567 0.26463 0.0
H2086 H 0.37516 0.3542 0.22 0.0
C2087 C 0.3977 0.39265 0.27719 0.0
C2088 C 0.38964 0.39973 0.26773 0.0
C2089 C 0.39383 0.37726 0.27221 0.0
C2090 C 0.37388 0.34637 0.23265 0.0
H2091 H 0.33642 0.26635 0.25955 0.0
H2092 H 0.34538 0.29394 0.26644 0.0
H2093 H 0.36632 0.32664 0.21266 0.0
H2094 H 0.37139 0.3963 0.24531 0.0
H2095 H 0.36459 0.36948 0.2367 0.0
H2096 H 0.37778 0.34529 0.28468 0.0
C2097 C 0.35026 0.29112 0.25307 0.0
C2098 C 0.36897 0.33061 0.22841 0.0
C2099 C 0.34496 0.27526 0.24898 0.0
C2100 C 0.37785 0.39121 0.25287 0.0
C2101 C 0.37401 0.37584 0.24784 0.0
C2102 C 0.37552 0.34143 0.26885 0.0
C2103 C 0.36153 0.30314 0.23996 0.0
C2104 C 0.36715 0.32003 0.24437 0.0
C2105 C 0.38183 0.36861 0.25759 0.0
C2106 C 0.37715 0.35197 0.25294 0.0
H2107 H 0.36676 0.2802 0.205 0.0
H2108 H 0.37614 0.30785 0.21227 0.0
H2109 H 0.36948 0.3179 0.27725 0.0
H2110 H 0.40687 0.39891 0.28867 0.0
H2111 H 0.40024 0.37213 0.27981 0.0
C2112 C 0.81903 0.16828 0.20628 0.0
C2113 C 0.82701 0.17761 0.22341 0.0
C2114 C 0.80456 0.15404 0.20886 0.0
C2115 C 0.77628 0.12475 0.24703 0.0
H2116 H 0.74333 0.12626 0.21373 0.0
C2117 C 0.70941 0.09469 0.27156 0.0
C2118 C 0.69744 0.08841 0.25646 0.0
C2119 C 0.72575 0.10288 0.26597 0.0
C2120 C 0.75237 0.1254 0.22284 0.0
H2121 H 0.82705 0.17844 0.25676 0.0
H2122 H 0.80178 0.15358 0.26124 0.0
H2123 H 0.7718 0.14468 0.20663 0.0
H2124 H 0.69285 0.08441 0.22389 0.0
H2125 H 0.72162 0.0989 0.21386 0.0
H2126 H 0.75675 0.10571 0.26361 0.0
C2127 C 0.80667 0.15731 0.24583 0.0
C2128 C 0.7687 0.13597 0.21877 0.0
C2129 C 0.82115 0.17159 0.24325 0.0
C2130 C 0.70197 0.0896 0.2357 0.0
C2131 C 0.71837 0.09786 0.23003 0.0
C2132 C 0.75991 0.1141 0.25103 0.0
C2133 C 0.79784 0.14882 0.2286 0.0
C2134 C 0.78081 0.13598 0.2311 0.0
C2135 C 0.73043 0.10474 0.24512 0.0
C2136 C 0.74777 0.11457 0.23929 0.0
H2137 H 0.82335 0.17246 0.19077 0.0
H2138 H 0.79816 0.14755 0.19534 0.0
H2139 H 0.78536 0.12443 0.25667 0.0
H2140 H 0.70612 0.09339 0.28774 0.0
H2141 H 0.73469 0.10815 0.27797 0.0
C2142 C 0.05438 0.53768 0.91733 0.0
C2143 C 0.05043 0.53195 0.9377 0.0
C2144 C 0.05262 0.52755 0.90112 0.0
C2145 C 0.03188 0.48488 0.88743 0.0
H2146 H 0.06268 0.4999 0.84198 0.0
C2147 C 0.022 0.44684 0.81499 0.0
C2148 C 0.03568 0.44726 0.80595 0.0
C2149 C 0.02373 0.45744 0.83054 0.0
C2150 C 0.05401 0.49543 0.85461 0.0
H2151 H 0.04192 0.51102 0.9569 0.0
H2152 H 0.03906 0.49347 0.92882 0.0
H2153 H 0.06618 0.51751 0.87025 0.0
H2154 H 0.06194 0.45929 0.80621 0.0
H2155 H 0.06497 0.47753 0.83345 0.0
H2156 H 0.01999 0.46266 0.87211 0.0
C2157 C 0.04315 0.50573 0.92523 0.0
C2158 C 0.05591 0.50563 0.87076 0.0
C2159 C 0.04484 0.51583 0.94141 0.0
C2160 C 0.05113 0.45866 0.81273 0.0
C2161 C 0.05287 0.46921 0.82833 0.0
C2162 C 0.03001 0.47466 0.87131 0.0
C2163 C 0.04693 0.5114 0.9048 0.0
C2164 C 0.04488 0.50052 0.88746 0.0
C2165 C 0.03919 0.46872 0.83758 0.0
C2166 C 0.04106 0.47975 0.85465 0.0
H2167 H 0.05849 0.54994 0.9138 0.0
H2168 H 0.05542 0.53237 0.88563 0.0
H2169 H 0.02299 0.48051 0.89981 0.0
H2170 H 0.00991 0.43826 0.81011 0.0
H2171 H 0.0129 0.45682 0.83697 0.0
C2172 C 0.57458 0.55935 0.94179 0.0
C2173 C 0.57287 0.5665 0.9596 0.0
C2174 C 0.57997 0.56788 0.92325 0.0
C2175 C 0.60385 0.60815 0.90298 0.0
H2176 H 0.58092 0.5914 0.85192 0.0
C2177 C 0.62304 0.64713 0.83078 0.0
C2178 C 0.62338 0.64026 0.81208 0.0
C2179 C 0.61505 0.63771 0.84794 0.0
C2180 C 0.58758 0.59619 0.86598 0.0
H2181 H 0.57577 0.58823 0.97205 0.0
H2182 H 0.5854 0.6032 0.93983 0.0
H2183 H 0.57128 0.57555 0.88359 0.0
H2184 H 0.61538 0.61826 0.79624 0.0
H2185 H 0.60177 0.60162 0.82645 0.0
H2186 H 0.62044 0.62851 0.88563 0.0
C2187 C 0.58246 0.59097 0.94015 0.0
C2188 C 0.58204 0.58711 0.88411 0.0
C2189 C 0.57687 0.58239 0.95855 0.0
C2190 C 0.61501 0.62378 0.81048 0.0
C2191 C 0.60725 0.61429 0.82782 0.0
C2192 C 0.6095 0.61712 0.8849 0.0
C2193 C 0.58401 0.5838 0.92227 0.0
C2194 C 0.59005 0.59307 0.90282 0.0
C2195 C 0.60762 0.62117 0.84696 0.0
C2196 C 0.60137 0.61137 0.86615 0.0
H2197 H 0.57144 0.54707 0.94211 0.0
H2198 H 0.58115 0.5621 0.90973 0.0
H2199 H 0.61043 0.61295 0.9171 0.0
H2200 H 0.62946 0.65985 0.83232 0.0
H2201 H 0.61517 0.64347 0.86216 0.0
C2202 C 0.50563 0.08388 0.95062 0.0
C2203 C 0.50328 0.07137 0.96364 0.0
C2204 C 0.49571 0.08111 0.93355 0.0
C2205 C 0.468 0.04983 0.89839 0.0
H2206 H 0.45169 0.07846 0.88784 0.0
C2207 C 0.41891 0.03823 0.83725 0.0
C2208 C 0.42106 0.05142 0.82589 0.0
C2209 C 0.42909 0.04011 0.8538 0.0
C2210 C 0.45629 0.07045 0.89042 0.0
H2211 H 0.48896 0.04604 0.96853 0.0
H2212 H 0.47155 0.04126 0.93898 0.0
H2213 H 0.46938 0.08301 0.917 0.0
H2214 H 0.43594 0.07684 0.8224 0.0
H2215 H 0.45372 0.08006 0.85081 0.0
H2216 H 0.4549 0.03729 0.87171 0.0
C2217 C 0.48108 0.05321 0.94193 0.0
C2218 C 0.46643 0.07307 0.90713 0.0
C2219 C 0.49094 0.05599 0.95903 0.0
C2220 C 0.43383 0.06643 0.83098 0.0
C2221 C 0.44399 0.06831 0.84738 0.0
C2222 C 0.45786 0.04722 0.8816 0.0
C2223 C 0.48329 0.06574 0.92907 0.0
C2224 C 0.47248 0.06285 0.91126 0.0
C2225 C 0.4416 0.05523 0.85921 0.0
C2226 C 0.45198 0.05757 0.87735 0.0
H2227 H 0.51497 0.09585 0.9538 0.0
H2228 H 0.49783 0.09099 0.92379 0.0
H2229 H 0.47258 0.04182 0.90109 0.0
H2230 H 0.40916 0.02651 0.83367 0.0
H2231 H 0.4269 0.02981 0.86268 0.0
C2232 C 0.52332 0.0771 0.63323 0.0
C2233 C 0.51908 0.07075 0.61339 0.0
C2234 C 0.51133 0.07432 0.64788 0.0
C2235 C 0.46864 0.04606 0.66059 0.0
H2236 H 0.47172 0.07906 0.69626 0.0
C2237 C 0.41485 0.03859 0.71014 0.0
C2238 C 0.41797 0.04521 0.7299 0.0
C2239 C 0.42758 0.0414 0.69679 0.0
C2240 C 0.4708 0.06965 0.68663 0.0
H2241 H 0.49882 0.0566 0.5934 0.0
H2242 H 0.47799 0.052 0.61877 0.0
H2243 H 0.49319 0.08505 0.67102 0.0
H2244 H 0.43706 0.05967 0.75124 0.0
H2245 H 0.45927 0.06439 0.72796 0.0
H2246 H 0.44628 0.03065 0.67612 0.0
C2247 C 0.4906 0.059 0.62307 0.0
C2248 C 0.48308 0.0731 0.67213 0.0
C2249 C 0.50257 0.06183 0.60842 0.0
C2250 C 0.43418 0.05442 0.73612 0.0
C2251 C 0.44693 0.05723 0.72273 0.0
C2252 C 0.4564 0.0426 0.6751 0.0
C2253 C 0.49484 0.06505 0.64304 0.0
C2254 C 0.48205 0.06138 0.65882 0.0
C2255 C 0.44378 0.05087 0.70283 0.0
C2256 C 0.45724 0.05438 0.68817 0.0
H2257 H 0.53592 0.08413 0.63748 0.0
H2258 H 0.51499 0.07909 0.66316 0.0
H2259 H 0.46765 0.03668 0.65084 0.0
H2260 H 0.40255 0.03144 0.70477 0.0
H2261 H 0.4247 0.03648 0.68149 0.0
C2262 C 0.04145 0.516 0.58062 0.0
C2263 C 0.05207 0.53219 0.5834 0.0
C2264 C 0.03913 0.50504 0.59619 0.0
C2265 C 0.05667 0.50118 0.64652 0.0
H2266 H 0.01615 0.4615 0.6498 0.0
C2267 C 0.03818 0.45584 0.71474 0.0
C2268 C 0.03521 0.44089 0.70849 0.0
C2269 C 0.0396 0.46714 0.70013 0.0
C2270 C 0.02752 0.47256 0.64907 0.0
H2271 H 0.06826 0.54964 0.60489 0.0
H2272 H 0.06365 0.5308 0.63247 0.0
H2273 H 0.01978 0.48097 0.62357 0.0
H2274 H 0.03086 0.42593 0.68207 0.0
H2275 H 0.03262 0.4454 0.65673 0.0
H2276 H 0.06399 0.49278 0.67271 0.0
C2277 C 0.05756 0.5263 0.61801 0.0
C2278 C 0.02973 0.48373 0.63385 0.0
C2279 C 0.06017 0.5372 0.60222 0.0
C2280 C 0.03314 0.43733 0.68739 0.0
C2281 C 0.03412 0.44845 0.67288 0.0
C2282 C 0.05427 0.49016 0.66205 0.0
C2283 C 0.04705 0.50997 0.61528 0.0
C2284 C 0.04444 0.49819 0.6321 0.0
C2285 C 0.03763 0.46357 0.67904 0.0
C2286 C 0.03975 0.47566 0.66335 0.0
H2287 H 0.03518 0.51179 0.56618 0.0
H2288 H 0.03126 0.49266 0.59302 0.0
H2289 H 0.06831 0.5119 0.64566 0.0
H2290 H 0.03998 0.459 0.73084 0.0
H2291 H 0.04228 0.4787 0.70529 0.0
C2292 C 0.55191 0.54995 0.59405 0.0
C2293 C 0.54592 0.55485 0.57752 0.0
C2294 C 0.55885 0.55962 0.61098 0.0
C2295 C 0.5623 0.59267 0.64068 0.0
H2296 H 0.60473 0.59878 0.65406 0.0
C2297 C 0.60383 0.63727 0.70218 0.0
C2298 C 0.61382 0.63336 0.71373 0.0
C2299 C 0.59461 0.62772 0.68596 0.0
C2300 C 0.5928 0.59703 0.65084 0.0
H2301 H 0.54171 0.57346 0.56644 0.0
H2302 H 0.55376 0.59042 0.59649 0.0
H2303 H 0.58992 0.5822 0.6253 0.0
H2304 H 0.62145 0.61603 0.71787 0.0
H2305 H 0.60499 0.59908 0.69014 0.0
H2306 H 0.56502 0.60723 0.66656 0.0
C2307 C 0.55311 0.57905 0.59607 0.0
C2308 C 0.58435 0.5876 0.63423 0.0
C2309 C 0.54622 0.56935 0.57891 0.0
C2310 C 0.61398 0.61943 0.70915 0.0
C2311 C 0.60463 0.60979 0.69311 0.0
C2312 C 0.5707 0.60201 0.65754 0.0
C2313 C 0.55991 0.57443 0.61197 0.0
C2314 C 0.56897 0.58518 0.62907 0.0
C2315 C 0.59505 0.61394 0.68101 0.0
C2316 C 0.58602 0.6042 0.66295 0.0
H2317 H 0.55174 0.53879 0.59367 0.0
H2318 H 0.56371 0.55563 0.62317 0.0
H2319 H 0.55043 0.59094 0.63708 0.0
H2320 H 0.60349 0.64797 0.70527 0.0
H2321 H 0.58755 0.63142 0.67692 0.0
C2322 C 0.06082 0.58844 0.0925 0.0
C2323 C 0.05323 0.58747 0.07361 0.0
C2324 C 0.05819 0.59567 0.10951 0.0
C2325 C 0.02903 0.60726 0.12996 0.0
H2326 H 0.06351 0.63201 0.1681 0.0
C2327 C 0.04294 0.65276 0.20224 0.0
C2328 C 0.02801 0.64477 0.21291 0.0
C2329 C 0.04626 0.64573 0.1856 0.0
C2330 C 0.05375 0.62524 0.15754 0.0
H2331 H 0.03744 0.59401 0.05771 0.0
H2332 H 0.03298 0.60668 0.08715 0.0
H2333 H 0.06911 0.6205 0.13817 0.0
H2334 H 1.00496 0.62291 0.21437 0.0
H2335 H 0.01085 0.61061 0.18566 0.0
H2336 H 0.01377 0.61229 0.149 0.0
C2337 C 0.04066 0.60151 0.08904 0.0
C2338 C 0.05693 0.61846 0.14046 0.0
C2339 C 0.04325 0.59426 0.07208 0.0
C2340 C 0.01658 0.62948 0.20656 0.0
C2341 C 0.01992 0.62245 0.18994 0.0
C2342 C 0.02586 0.61404 0.147 0.0
C2343 C 0.04794 0.60218 0.10808 0.0
C2344 C 0.04462 0.6094 0.12639 0.0
C2345 C 0.03478 0.6305 0.17914 0.0
C2346 C 0.03817 0.62314 0.16105 0.0
H2347 H 0.06843 0.5832 0.09436 0.0
H2348 H 0.06387 0.59577 0.12395 0.0
H2349 H 0.01917 0.6002 0.11967 0.0
H2350 H 0.05205 0.66457 0.20657 0.0
H2351 H 0.05775 0.65241 0.17754 0.0
C2352 C 0.51242 0.52722 0.11022 0.0
C2353 C 0.52089 0.51996 0.10249 0.0
C2354 C 0.50266 0.5213 0.12784 0.0
C2355 C 0.47963 0.485 0.15879 0.0
H2356 H 0.4782 0.5136 0.19868 0.0
C2357 C 0.43905 0.46296 0.23238 0.0
C2358 C 0.43081 0.47107 0.23765 0.0
C2359 C 0.45098 0.46879 0.21686 0.0
C2360 C 0.47834 0.50544 0.1876 0.0
H2361 H 0.52584 0.50083 0.10741 0.0
H2362 H 0.50883 0.49049 0.13837 0.0
H2363 H 0.49755 0.5241 0.17013 0.0
H2364 H 0.42868 0.49169 0.23047 0.0
H2365 H 0.44924 0.50169 0.20346 0.0
H2366 H 0.46022 0.46635 0.17611 0.0
C2367 C 0.50969 0.50074 0.13065 0.0
C2368 C 0.48946 0.51147 0.17124 0.0
C2369 C 0.51956 0.50675 0.11303 0.0
C2370 C 0.43481 0.48514 0.22699 0.0
C2371 C 0.44671 0.49096 0.21153 0.0
C2372 C 0.46847 0.47896 0.17516 0.0
C2373 C 0.50107 0.50792 0.1382 0.0
C2374 C 0.49009 0.50135 0.15646 0.0
C2375 C 0.45497 0.48289 0.20627 0.0
C2376 C 0.46753 0.48914 0.1896 0.0
H2377 H 0.51333 0.53753 0.10265 0.0
H2378 H 0.49607 0.52703 0.13308 0.0
H2379 H 0.47968 0.47689 0.14756 0.0
H2380 H 0.43633 0.45209 0.24024 0.0
H2381 H 0.45721 0.46235 0.21333 0.0
C2382 C 0.54907 0.07072 0.11793 0.0
C2383 C 0.55679 0.08297 0.10335 0.0
C2384 C 0.55738 0.07009 0.13525 0.0
C2385 C 0.59459 0.09435 0.16591 0.0
H2386 H 0.58605 0.05345 0.18601 0.0
C2387 C 0.62553 0.08925 0.23877 0.0
C2388 C 0.63064 0.07802 0.23911 0.0
C2389 C 0.61538 0.08912 0.22328 0.0
C2390 C 0.58872 0.06499 0.1805 0.0
H2391 H 0.57924 0.10414 0.09536 0.0
H2392 H 0.59397 0.10288 0.1252 0.0
H2393 H 0.57119 0.05502 0.15663 0.0
H2394 H 0.62888 0.05766 0.2237 0.0
H2395 H 0.61161 0.05775 0.19612 0.0
H2396 H 0.61272 0.10438 0.18898 0.0
C2397 C 0.58134 0.09396 0.12368 0.0
C2398 C 0.57998 0.06588 0.1638 0.0
C2399 C 0.57294 0.0947 0.10652 0.0
C2400 C 0.62504 0.06639 0.2239 0.0
C2401 C 0.61508 0.06644 0.20813 0.0
C2402 C 0.60346 0.09346 0.1824 0.0
C2403 C 0.57371 0.0816 0.13824 0.0
C2404 C 0.58281 0.08059 0.15627 0.0
C2405 C 0.61032 0.07796 0.20745 0.0
C2406 C 0.60064 0.07877 0.18998 0.0
H2407 H 0.53656 0.06163 0.11593 0.0
H2408 H 0.55096 0.06059 0.14631 0.0
H2409 H 0.59697 0.10588 0.16079 0.0
H2410 H 0.62949 0.09824 0.25046 0.0
H2411 H 0.61161 0.0979 0.22368 0.0
C2412 C 0.60177 0.08702 0.48527 0.0
C2413 C 0.59071 0.0925 0.48683 0.0
C2414 C 0.60748 0.08556 0.46604 0.0
C2415 C 0.59813 0.08378 0.41 0.0
H2416 H 0.64089 0.08837 0.40436 0.0
C2417 C 0.63356 0.09084 0.33349 0.0
C2418 C 0.63829 0.07945 0.33063 0.0
C2419 C 0.62663 0.09161 0.35213 0.0
C2420 C 0.62889 0.08697 0.40582 0.0
H2421 H 0.57719 0.10111 0.46986 0.0
H2422 H 0.58789 0.09956 0.43618 0.0
H2423 H 0.63204 0.09283 0.43765 0.0
H2424 H 0.63933 0.05986 0.34484 0.0
H2425 H 0.62767 0.06162 0.37785 0.0
H2426 H 0.59553 0.07873 0.37768 0.0
C2427 C 0.59177 0.0958 0.44966 0.0
C2428 C 0.62373 0.08943 0.4249 0.0
C2429 C 0.58577 0.0969 0.46891 0.0
C2430 C 0.63568 0.06867 0.34661 0.0
C2431 C 0.62911 0.06971 0.36546 0.0
C2432 C 0.60347 0.08169 0.3908 0.0
C2433 C 0.60251 0.08986 0.44791 0.0
C2434 C 0.60822 0.08776 0.42734 0.0
C2435 C 0.62467 0.08127 0.36836 0.0
C2436 C 0.61883 0.08315 0.38864 0.0
H2437 H 0.60543 0.08319 0.49888 0.0
H2438 H 0.61539 0.08057 0.46545 0.0
H2439 H 0.586 0.08205 0.41123 0.0
H2440 H 0.63541 0.09927 0.32138 0.0
H2441 H 0.62332 0.10065 0.35412 0.0
C2442 C 0.03471 0.58543 0.44292 0.0
C2443 C 0.05018 0.58846 0.44891 0.0
C2444 C 0.03274 0.5926 0.42527 0.0
C2445 C 0.05438 0.62674 0.3898 0.0
H2446 H 0.01888 0.60153 0.35317 0.0
C2447 C 0.04547 0.65189 0.31239 0.0
C2448 C 0.02946 0.6469 0.30632 0.0
C2449 C 0.04858 0.64484 0.32937 0.0
C2450 C 0.02874 0.60885 0.36332 0.0
H2451 H 0.07576 0.60165 0.44102 0.0
H2452 H 0.07233 0.6142 0.4102 0.0
H2453 H 0.02311 0.5893 0.38347 0.0
H2454 H 1.00418 0.63068 0.31383 0.0
H2455 H 0.00954 0.61877 0.34339 0.0
H2456 H 0.05984 0.64638 0.36987 0.0
C2457 C 0.0617 0.60625 0.41923 0.0
C2458 C 0.03118 0.60179 0.38073 0.0
C2459 C 0.06366 0.59895 0.4368 0.0
C2460 C 0.01668 0.63477 0.3178 0.0
C2461 C 0.01978 0.62782 0.33479 0.0
C2462 C 0.05185 0.63386 0.37244 0.0
C2463 C 0.0462 0.6031 0.41317 0.0
C2464 C 0.04396 0.61064 0.39429 0.0
C2465 C 0.03576 0.63267 0.34082 0.0
C2466 C 0.03891 0.62504 0.359 0.0
H2467 H 0.02404 0.57732 0.45172 0.0
H2468 H 0.02064 0.59 0.42121 0.0
H2469 H 0.06425 0.63396 0.4 0.0
H2470 H 0.05564 0.66117 0.30394 0.0
H2471 H 0.06106 0.64881 0.33332 0.0
C2472 C 0.50328 0.53602 0.459 0.0
C2473 C 0.51539 0.53179 0.45962 0.0
C2474 C 0.49292 0.53199 0.44202 0.0
C2475 C 0.48796 0.51687 0.38799 0.0
H2476 H 0.44218 0.50067 0.39866 0.0
C2477 C 0.43745 0.47392 0.33409 0.0
C2478 C 0.42627 0.47846 0.32769 0.0
C2479 C 0.44848 0.4821 0.3497 0.0
C2480 C 0.45496 0.50529 0.39547 0.0
H2481 H 0.52644 0.52049 0.44255 0.0
H2482 H 0.5084 0.51319 0.41371 0.0
H2483 H 0.4616 0.5128 0.42654 0.0
H2484 H 0.41772 0.495 0.33301 0.0
H2485 H 0.43667 0.50893 0.3608 0.0
H2486 H 0.48112 0.50854 0.35722 0.0
C2487 C 0.50694 0.51988 0.4259 0.0
C2488 C 0.46613 0.51235 0.41138 0.0
C2489 C 0.51727 0.52397 0.44267 0.0
C2490 C 0.42618 0.4912 0.33754 0.0
C2491 C 0.43697 0.49916 0.35348 0.0
C2492 C 0.47678 0.50955 0.37227 0.0
C2493 C 0.49447 0.52363 0.42537 0.0
C2494 C 0.48276 0.51795 0.40796 0.0
C2495 C 0.44833 0.49478 0.35954 0.0
C2496 C 0.46017 0.50347 0.37593 0.0
H2497 H 0.50151 0.54202 0.47184 0.0
H2498 H 0.48359 0.53526 0.44206 0.0
H2499 H 0.50068 0.52142 0.38454 0.0
H2500 H 0.4379 0.46421 0.32678 0.0
H2501 H 0.45708 0.47845 0.3542 0.0
C2502 C 0.72049 0.87218 0.27528 0.0
C2503 C 0.70805 0.86973 0.28927 0.0
C2504 C 0.71746 0.86255 0.2582 0.0
C2505 C 0.68885 0.82378 0.23545 0.0
H2506 H 0.71292 0.84458 0.18561 0.0
C2507 C 0.68151 0.79016 0.1583 0.0
C2508 C 0.69584 0.79419 0.14717 0.0
C2509 C 0.68168 0.79908 0.1753 0.0
C2510 C 0.70619 0.8385 0.1994 0.0
H2511 H 0.6825 0.85468 0.29616 0.0
H2512 H 0.67707 0.83771 0.26588 0.0
H2513 H 0.71497 0.86019 0.21557 0.0
H2514 H 0.72158 0.81096 0.14529 0.0
H2515 H 0.72189 0.82653 0.17466 0.0
H2516 H 0.6801 0.80204 0.21905 0.0
C2517 C 0.6893 0.84724 0.26839 0.0
C2518 C 0.70736 0.84749 0.2167 0.0
C2519 C 0.69238 0.85699 0.28574 0.0
C2520 C 0.71029 0.80753 0.15336 0.0
C2521 C 0.71044 0.81651 0.17023 0.0
C2522 C 0.68762 0.81475 0.21803 0.0
C2523 C 0.70181 0.85005 0.25419 0.0
C2524 C 0.69901 0.8403 0.23519 0.0
C2525 C 0.69616 0.8124 0.18157 0.0
C2526 C 0.69652 0.82196 0.19984 0.0
H2527 H 0.73281 0.88165 0.27744 0.0
H2528 H 0.72755 0.86492 0.24814 0.0
H2529 H 0.68229 0.81776 0.24936 0.0
H2530 H 0.67015 0.77994 0.15407 0.0
H2531 H 0.67042 0.7956 0.18345 0.0
C2532 C 0.19335 0.90388 0.29411 0.0
C2533 C 0.20044 0.91003 0.31325 0.0
C2534 C 0.19997 0.91264 0.27596 0.0
C2535 C 0.23022 0.95283 0.25601 0.0
H2536 H 0.23509 0.92946 0.21119 0.0
C2537 C 0.28188 0.98097 0.19644 0.0
C2538 C 0.27832 0.97726 0.17555 0.0
C2539 C 0.27003 0.97318 0.21162 0.0
C2540 C 0.2336 0.93612 0.22342 0.0
H2541 H 0.21952 0.93058 0.32837 0.0
H2542 H 0.23117 0.94563 0.29692 0.0
H2543 H 0.21814 0.91525 0.24088 0.0
H2544 H 0.25944 0.96241 0.15426 0.0
H2545 H 0.23873 0.94846 0.18106 0.0
H2546 H 0.24641 0.97372 0.23892 0.0
C2547 C 0.22038 0.93416 0.29581 0.0
C2548 C 0.22384 0.92799 0.24045 0.0
C2549 C 0.21373 0.92545 0.31392 0.0
C2550 C 0.26256 0.96555 0.17021 0.0
C2551 C 0.25073 0.95755 0.18551 0.0
C2552 C 0.24011 0.96094 0.2391 0.0
C2553 C 0.21385 0.92773 0.27653 0.0
C2554 C 0.22234 0.93626 0.25721 0.0
C2555 C 0.25436 0.96134 0.20637 0.0
C2556 C 0.2422 0.95269 0.22287 0.0
H2557 H 0.18305 0.89207 0.29305 0.0
H2558 H 0.19443 0.90743 0.26144 0.0
H2559 H 0.22907 0.95959 0.26838 0.0
H2560 H 0.29385 0.98998 0.20112 0.0
H2561 H 0.27325 0.97621 0.22758 0.0
C2562 C 0.16075 0.37976 0.26649 0.0
C2563 C 0.16063 0.36567 0.2714 0.0
C2564 C 0.15435 0.38138 0.24796 0.0
C2565 C 0.12505 0.35769 0.20847 0.0
H2566 H 0.14439 0.39732 0.17802 0.0
C2567 C 0.09632 0.36387 0.13432 0.0
C2568 C 0.09455 0.37726 0.13275 0.0
C2569 C 0.10634 0.36297 0.14921 0.0
C2570 C 0.13882 0.38621 0.18643 0.0
H2571 H 0.15401 0.34236 0.26044 0.0
H2572 H 0.14299 0.34525 0.22788 0.0
H2573 H 0.15833 0.39453 0.20785 0.0
H2574 H 0.10246 0.40055 0.14489 0.0
H2575 H 0.11988 0.39893 0.17117 0.0
H2576 H 0.10542 0.34944 0.18737 0.0
C2577 C 0.14788 0.35498 0.23853 0.0
C2578 C 0.14679 0.38461 0.20349 0.0
C2579 C 0.15432 0.35337 0.2571 0.0
C2580 C 0.1036 0.39008 0.14574 0.0
C2581 C 0.11362 0.38916 0.16073 0.0
C2582 C 0.1171 0.35929 0.19143 0.0
C2583 C 0.14769 0.36896 0.23385 0.0
C2584 C 0.1399 0.37037 0.21483 0.0
C2585 C 0.11477 0.37543 0.16294 0.0
C2586 C 0.12381 0.37361 0.18031 0.0
H2587 H 0.1658 0.3896 0.27695 0.0
H2588 H 0.15426 0.39225 0.24494 0.0
H2589 H 0.11927 0.34667 0.21706 0.0
H2590 H 0.08964 0.35385 0.12438 0.0
H2591 H 0.10724 0.35237 0.15023 0.0
C2592 C 0.18545 0.41018 0.94254 0.0
C2593 C 0.18282 0.40838 0.9212 0.0
C2594 C 0.17338 0.40919 0.95585 0.0
C2595 C 0.12946 0.39038 0.95968 0.0
H2596 H 0.138 0.41742 1.00681 0.0
C2597 C 0.0788 0.38031 0.01749 0.0
C2598 C 0.08294 0.38211 0.03841 0.0
C2599 C 0.09081 0.38516 1.00223 0.0
C2600 C 0.13544 0.40967 0.99382 0.0
H2601 H 0.16575 0.40525 0.89711 0.0
H2602 H 0.14463 0.40319 0.92042 0.0
H2603 H 0.15965 0.42341 0.98187 0.0
H2604 H 0.10302 0.39041 0.05969 0.0
H2605 H 0.12381 0.39842 0.03322 0.0
H2606 H 0.10549 0.37627 0.97191 0.0
C2607 C 0.15598 0.40516 0.92679 0.0
C2608 C 0.14782 0.41316 0.97951 0.0
C2609 C 0.16809 0.40629 0.91346 0.0
C2610 C 0.09937 0.38893 0.04372 0.0
C2611 C 0.11135 0.39365 0.0285 0.0
C2612 C 0.11712 0.3868 0.97408 0.0
C2613 C 0.1584 0.4063 0.94814 0.0
C2614 C 0.145 0.40344 0.96244 0.0
C2615 C 0.10723 0.3918 1.00756 0.0
C2616 C 0.12001 0.39629 0.99147 0.0
H2617 H 0.19652 0.41167 0.94915 0.0
H2618 H 0.17552 0.40997 0.97227 0.0
H2619 H 0.12701 0.38255 0.9468 0.0
H2620 H 0.06627 0.3752 0.01285 0.0
H2621 H 0.08723 0.38376 0.98625 0.0
C2622 C 0.69917 0.85603 0.90916 0.0
C2623 C 0.68682 0.85993 0.91014 0.0
C2624 C 0.70217 0.84881 0.92617 0.0
C2625 C 0.69385 0.84071 0.98291 0.0
H2626 H 0.69997 0.8051 0.97225 0.0
C2627 C 0.68956 0.79686 0.04797 0.0
C2628 C 0.69999 0.79058 0.04635 0.0
C2629 C 0.68867 0.80619 0.0319 0.0
C2630 C 0.69849 0.81514 0.97562 0.0
H2631 H 0.66845 0.85988 0.93015 0.0
H2632 H 0.67365 0.84754 0.95934 0.0
H2633 H 0.69836 0.82036 0.94353 0.0
H2634 H 0.71818 0.78992 0.02662 0.0
H2635 H 0.71682 0.80611 0.99934 0.0
H2636 H 0.69391 0.83543 0.01502 0.0
C2637 C 0.68111 0.85 0.94564 0.0
C2638 C 0.69761 0.82395 0.95903 0.0
C2639 C 0.67804 0.85702 0.92873 0.0
C2640 C 0.70976 0.79425 0.02848 0.0
C2641 C 0.70893 0.80354 0.01261 0.0
C2642 C 0.69478 0.83191 0.99952 0.0
C2643 C 0.69301 0.84552 0.94459 0.0
C2644 C 0.69517 0.83683 0.96238 0.0
C2645 C 0.69823 0.80951 0.01383 0.0
C2646 C 0.69708 0.81894 0.99616 0.0
H2647 H 0.70611 0.85802 0.89508 0.0
H2648 H 0.71156 0.84568 0.92481 0.0
H2649 H 0.69217 0.85065 0.98619 0.0
H2650 H 0.68185 0.79433 0.06143 0.0
H2651 H 0.6802 0.81048 0.03345 0.0
C2652 C 0.22516 0.88935 0.94638 0.0
C2653 C 0.21578 0.89309 0.93332 0.0
C2654 C 0.2315 0.8977 0.96461 0.0
C2655 C 0.24194 0.93566 0.98913 0.0
H2656 H 0.24286 0.91453 0.0394 0.0
C2657 C 0.26274 0.96909 0.06571 0.0
C2658 C 0.27339 0.96627 0.07752 0.0
C2659 C 0.25452 0.95937 0.04912 0.0
C2660 C 0.2428 0.92063 0.02545 0.0
H2661 H 0.20518 0.90814 0.92977 0.0
H2662 H 0.21619 0.92261 0.96132 0.0
H2663 H 0.23121 0.89916 1.00834 0.0
H2664 H 0.28332 0.95071 0.0816 0.0
H2665 H 0.26911 0.93388 0.05266 0.0
H2666 H 0.25362 0.95711 1.0061 0.0
C2667 C 0.21899 0.91349 0.95729 0.0
C2668 C 0.23615 0.91182 1.00763 0.0
C2669 C 0.21268 0.90518 0.93913 0.0
C2670 C 0.27519 0.95321 0.07283 0.0
C2671 C 0.26697 0.94349 0.05627 0.0
C2672 C 0.24857 0.94445 1.00691 0.0
C2673 C 0.22858 0.90996 0.97021 0.0
C2674 C 0.23565 0.91923 0.98924 0.0
C2675 C 0.25676 0.94661 0.04397 0.0
C2676 C 0.24911 0.93706 0.0253 0.0
H2677 H 0.22786 0.88018 0.94231 0.0
H2678 H 0.23897 0.89477 0.9741 0.0
H2679 H 0.24203 0.94181 0.97516 0.0
H2680 H 0.26105 0.97903 0.06896 0.0
H2681 H 0.24654 0.96196 0.04017 0.0
C2682 C 0.71748 0.92729 0.40851 0.0
C2683 C 0.7064 0.91302 0.39904 0.0
C2684 C 0.71364 0.93212 0.42681 0.0
C2685 C 0.68701 0.91865 0.47298 0.0
H2686 H 0.70216 0.96339 0.47789 0.0
C2687 C 0.67278 0.94566 0.54474 0.0
C2688 C 0.68479 0.96066 0.55145 0.0
C2689 C 0.67478 0.93918 0.52648 0.0
C2690 C 0.69801 0.95089 0.47698 0.0
H2691 H 0.68243 0.89253 0.40203 0.0
H2692 H 0.6756 0.90105 0.43445 0.0
H2693 H 0.70578 0.95311 0.44556 0.0
H2694 H 0.70857 0.98038 0.544 0.0
H2695 H 0.71215 0.96906 0.51237 0.0
H2696 H 0.67931 0.91652 0.50455 0.0
C2697 C 0.68739 0.90846 0.42741 0.0
C2698 C 0.70003 0.94494 0.45831 0.0
C2699 C 0.69126 0.90359 0.40878 0.0
C2700 C 0.69903 0.96884 0.53945 0.0
C2701 C 0.70101 0.96236 0.52113 0.0
C2702 C 0.68497 0.92463 0.49174 0.0
C2703 C 0.69852 0.92293 0.43654 0.0
C2704 C 0.69481 0.92877 0.45606 0.0
C2705 C 0.68884 0.94749 0.51422 0.0
C2706 C 0.69064 0.9409 0.49413 0.0
H2707 H 0.72934 0.93495 0.40177 0.0
H2708 H 0.72272 0.94311 0.43347 0.0
H2709 H 0.68294 0.90618 0.47195 0.0
H2710 H 0.66159 0.93893 0.55341 0.0
H2711 H 0.66504 0.92781 0.5217 0.0
C2712 C 0.1619 0.86426 0.41987 0.0
C2713 C 0.17214 0.88048 0.42336 0.0
C2714 C 0.15173 0.8543 0.43553 0.0
C2715 C 0.13161 0.85352 0.48422 0.0
H2716 H 0.13344 0.81551 0.49621 0.0
C2717 C 0.10216 0.81755 0.55771 0.0
C2718 C 0.09422 0.80101 0.55688 0.0
C2719 C 0.11185 0.82681 0.54134 0.0
C2720 C 0.13257 0.82593 0.49292 0.0
H2721 H 0.17918 0.89901 0.44581 0.0
H2722 H 0.1611 0.88165 0.47302 0.0
H2723 H 0.14902 0.83247 0.46725 0.0
H2724 H 0.09059 0.78117 0.53845 0.0
H2725 H 0.10724 0.79735 0.50941 0.0
H2726 H 0.11494 0.84695 0.50945 0.0
C2727 C 0.16108 0.87666 0.45818 0.0
C2728 C 0.14154 0.83567 0.47634 0.0
C2729 C 0.17144 0.8866 0.44261 0.0
C2730 C 0.09665 0.7939 0.53956 0.0
C2731 C 0.10621 0.8032 0.52293 0.0
C2732 C 0.12248 0.8437 0.50061 0.0
C2733 C 0.15137 0.86036 0.45494 0.0
C2734 C 0.14128 0.84965 0.47195 0.0
C2735 C 0.11368 0.8198 0.52346 0.0
C2736 C 0.12299 0.82987 0.5054 0.0
H2737 H 0.16215 0.85911 0.40526 0.0
H2738 H 0.14423 0.84182 0.43252 0.0
H2739 H 0.13099 0.86409 0.48103 0.0
H2740 H 0.10069 0.82339 0.57098 0.0
H2741 H 0.1178 0.83951 0.54269 0.0
C2742 C 0.19086 0.34039 0.42368 0.0
C2743 C 0.18888 0.35323 0.418 0.0
C2744 C 0.19882 0.34077 0.44192 0.0
C2745 C 0.21292 0.36204 0.49139 0.0
H2746 H 0.24767 0.35236 0.4863 0.0
C2747 C 0.26943 0.39063 0.54152 0.0
C2748 C 0.27623 0.38157 0.54852 0.0
C2749 C 0.25636 0.38425 0.5281 0.0
C2750 C 0.23782 0.35482 0.48812 0.0
H2751 H 0.19282 0.37606 0.42749 0.0
H2752 H 0.20683 0.37686 0.45899 0.0
H2753 H 0.22859 0.34612 0.45816 0.0
H2754 H 0.27438 0.35855 0.54708 0.0
H2755 H 0.25153 0.34744 0.52335 0.0
H2756 H 0.22256 0.37135 0.52099 0.0
C2757 C 0.20223 0.36646 0.4495 0.0
C2758 C 0.22687 0.35122 0.47201 0.0
C2759 C 0.19439 0.36611 0.4313 0.0
C2760 C 0.26943 0.36585 0.542 0.0
C2761 C 0.2564 0.3595 0.52837 0.0
C2762 C 0.22387 0.36567 0.50744 0.0
C2763 C 0.20478 0.35392 0.45489 0.0
C2764 C 0.21462 0.35525 0.47322 0.0
C2765 C 0.24979 0.36868 0.52121 0.0
C2766 C 0.23673 0.36254 0.50571 0.0
H2767 H 0.18679 0.33033 0.41369 0.0
H2768 H 0.2005 0.33088 0.44573 0.0
H2769 H 0.2034 0.36499 0.49296 0.0
H2770 H 0.27431 0.40275 0.54624 0.0
H2771 H 0.2517 0.3917 0.52262 0.0
C2772 C 0.23677 0.39693 0.78175 0.0
C2773 C 0.24132 0.41131 0.79149 0.0
C2774 C 0.24246 0.39669 0.76202 0.0
C2775 C 0.27524 0.42113 0.72505 0.0
H2776 H 0.24745 0.38864 0.68686 0.0
C2777 C 0.29495 0.41839 0.64163 0.0
C2778 C 0.29235 0.40355 0.6354 0.0
C2779 C 0.28811 0.4199 0.65994 0.0
C2780 C 0.25535 0.39773 0.69741 0.0
H2781 H 0.25526 0.43672 0.78813 0.0
H2782 H 0.26506 0.43638 0.75335 0.0
H2783 H 0.23653 0.39062 0.72005 0.0
H2784 H 0.28021 0.37862 0.64336 0.0
H2785 H 0.26818 0.38128 0.67526 0.0
H2786 H 0.29403 0.42825 0.70227 0.0
C2787 C 0.25728 0.42526 0.76115 0.0
C2788 C 0.24913 0.39886 0.71644 0.0
C2789 C 0.25166 0.42548 0.78103 0.0
C2790 C 0.28249 0.39022 0.64771 0.0
C2791 C 0.27552 0.39172 0.66592 0.0
C2792 C 0.28141 0.42009 0.70594 0.0
C2793 C 0.25277 0.41084 0.75145 0.0
C2794 C 0.25907 0.41042 0.73062 0.0
C2795 C 0.27839 0.40659 0.67229 0.0
C2796 C 0.27158 0.40824 0.69206 0.0
H2797 H 0.22912 0.3858 0.78959 0.0
H2798 H 0.23904 0.38538 0.75526 0.0
H2799 H 0.28329 0.43003 0.73569 0.0
H2800 H 0.3025 0.42892 0.63256 0.0
H2801 H 0.29041 0.43148 0.66442 0.0
C2802 C 0.70192 0.91271 0.79275 0.0
C2803 C 0.68764 0.89803 0.79516 0.0
C2804 C 0.70523 0.9213 0.77406 0.0
C2805 C 0.69317 0.91682 0.71863 0.0
H2806 H 0.7045 0.96075 0.72079 0.0
C2807 C 0.6786 0.94662 0.65196 0.0
C2808 C 0.68936 0.9625 0.64658 0.0
C2809 C 0.68125 0.93963 0.66927 0.0
C2810 C 0.70159 0.94856 0.71982 0.0
H2811 H 0.66606 0.88067 0.77961 0.0
H2812 H 0.6719 0.89525 0.74739 0.0
H2813 H 0.70453 0.94692 0.75239 0.0
H2814 H 0.71156 0.98339 0.6555 0.0
H2815 H 0.71619 0.97113 0.68591 0.0
H2816 H 0.68984 0.91825 0.68629 0.0
C2817 C 0.6806 0.90028 0.75968 0.0
C2818 C 0.70163 0.94062 0.73799 0.0
C2819 C 0.67721 0.89189 0.77827 0.0
C2820 C 0.70304 0.97113 0.65903 0.0
C2821 C 0.70563 0.96412 0.67659 0.0
C2822 C 0.69313 0.92472 0.70056 0.0
C2823 C 0.69449 0.91524 0.75732 0.0
C2824 C 0.69696 0.92449 0.73774 0.0
C2825 C 0.69473 0.94825 0.68198 0.0
C2826 C 0.69689 0.94059 0.70093 0.0
H2827 H 0.71008 0.91786 0.80556 0.0
H2828 H 0.71608 0.93276 0.77279 0.0
H2829 H 0.68986 0.90452 0.71768 0.0
H2830 H 0.66791 0.93952 0.64289 0.0
H2831 H 0.67242 0.92749 0.67299 0.0
C2832 C 0.1728 0.83671 0.78004 0.0
C2833 C 0.1729 0.8497 0.78936 0.0
C2834 C 0.1639 0.83018 0.7621 0.0
C2835 C 0.14487 0.83937 0.71848 0.0
H2836 H 0.11821 0.79395 0.71421 0.0
C2837 C 0.0945 0.81039 0.65811 0.0
C2838 C 0.09232 0.79666 0.64838 0.0
C2839 C 0.10512 0.81678 0.67462 0.0
C2840 C 0.12575 0.80665 0.71501 0.0
H2841 H 0.16411 0.86628 0.78669 0.0
H2842 H 0.1485 0.85482 0.7558 0.0
H2843 H 0.13561 0.80528 0.74403 0.0
H2844 H 0.09975 0.77896 0.6485 0.0
H2845 H 0.11837 0.79022 0.67719 0.0
H2846 H 0.13495 0.84079 0.6896 0.0
C2847 C 0.15532 0.84968 0.76223 0.0
C2848 C 0.13574 0.81315 0.73212 0.0
C2849 C 0.16413 0.85614 0.78014 0.0
C2850 C 0.10107 0.78952 0.65562 0.0
C2851 C 0.1117 0.79592 0.67215 0.0
C2852 C 0.13491 0.8329 0.70141 0.0
C2853 C 0.15504 0.83659 0.75301 0.0
C2854 C 0.14526 0.8296 0.73419 0.0
C2855 C 0.11387 0.80965 0.68185 0.0
C2856 C 0.12507 0.81646 0.69957 0.0
H2857 H 0.17936 0.83142 0.78681 0.0
H2858 H 0.16404 0.82017 0.75529 0.0
H2859 H 0.15228 0.85208 0.71939 0.0
H2860 H 0.08792 0.81619 0.65308 0.0
H2861 H 0.10629 0.82722 0.68192 0.0
C2862 C 0.3931 0.22467 0.61785 0.0
C2863 C 0.38251 0.21917 0.63499 0.0
C2864 C 0.3906 0.21518 0.60078 0.0
C2865 C 0.36974 0.17333 0.58387 0.0
H2866 H 0.38495 0.19334 0.53032 0.0
C2867 C 0.36459 0.13863 0.50855 0.0
C2868 C 0.37884 0.14464 0.49649 0.0
C2869 C 0.36351 0.14723 0.52511 0.0
C2870 C 0.38071 0.18756 0.54517 0.0
H2871 H 0.36062 0.1992 0.64719 0.0
H2872 H 0.35593 0.18252 0.61687 0.0
H2873 H 0.38459 0.20884 0.55923 0.0
H2874 H 0.40305 0.1646 0.49233 0.0
H2875 H 0.40101 0.1798 0.52083 0.0
H2876 H 0.36561 0.15194 0.56939 0.0
C2877 C 0.3664 0.19427 0.61692 0.0
C2878 C 0.38054 0.19647 0.56187 0.0
C2879 C 0.36897 0.20388 0.63424 0.0
C2880 C 0.39188 0.15962 0.50122 0.0
C2881 C 0.39069 0.16835 0.51754 0.0
C2882 C 0.36968 0.16435 0.567 0.0
C2883 C 0.3773 0.19977 0.59995 0.0
C2884 C 0.37546 0.18963 0.58166 0.0
C2885 C 0.37654 0.16222 0.52983 0.0
C2886 C 0.3755 0.17143 0.54753 0.0
H2887 H 0.4037 0.23635 0.6177 0.0
H2888 H 0.39954 0.21987 0.58846 0.0
H2889 H 0.36586 0.16759 0.59878 0.0
H2890 H 0.35433 0.12709 0.50545 0.0
H2891 H 0.35241 0.1422 0.53413 0.0
C2892 C 0.90645 0.22705 0.60826 0.0
C2893 C 0.90475 0.23206 0.62786 0.0
C2894 C 0.91337 0.23795 0.59198 0.0
C2895 C 0.9415 0.27915 0.58025 0.0
H2896 H 0.91667 0.27381 0.53084 0.0
C2897 C 0.96454 0.32888 0.51994 0.0
C2898 C 0.96208 0.32491 0.49906 0.0
C2899 C 0.95656 0.31739 0.53521 0.0
C2900 C 0.92392 0.2754 0.54434 0.0
H2901 H 0.90934 0.2523 0.64605 0.0
H2902 H 0.92199 0.27145 0.61782 0.0
H2903 H 0.9056 0.25362 0.558 0.0
H2904 H 0.94909 0.3059 0.47767 0.0
H2905 H 0.93559 0.28558 0.50428 0.0
H2906 H 0.96008 0.30051 0.56666 0.0
C2907 C 0.91775 0.2591 0.61496 0.0
C2908 C 0.91752 0.26383 0.55991 0.0
C2909 C 0.91051 0.24818 0.63106 0.0
C2910 C 0.95103 0.3093 0.49369 0.0
C2911 C 0.94331 0.29766 0.509 0.0
C2912 C 0.94804 0.29054 0.56457 0.0
C2913 C 0.91905 0.25407 0.59521 0.0
C2914 C 0.92618 0.26572 0.5781 0.0
C2915 C 0.94626 0.30149 0.53002 0.0
C2916 C 0.93926 0.28899 0.54648 0.0
H2917 H 0.90194 0.21465 0.60542 0.0
H2918 H 0.91431 0.23382 0.57689 0.0
H2919 H 0.94848 0.28079 0.59405 0.0
H2920 H 0.97293 0.34088 0.52449 0.0
H2921 H 0.95876 0.321 0.55113 0.0
C2922 C 0.83584 0.6952 0.58971 0.0
C2923 C 0.83363 0.68023 0.59462 0.0
C2924 C 0.83156 0.6982 0.57043 0.0
C2925 C 0.80351 0.67841 0.5289 0.0
H2926 H 0.82925 0.71831 0.50004 0.0
C2927 C 0.77829 0.69356 0.458 0.0
C2928 C 0.78009 0.70872 0.45782 0.0
C2929 C 0.78739 0.68987 0.47136 0.0
C2930 C 0.8219 0.70714 0.50794 0.0
H2931 H 0.82558 0.65678 0.58311 0.0
H2932 H 0.81785 0.66197 0.54922 0.0
H2933 H 0.84041 0.71198 0.53002 0.0
H2934 H 0.7934 0.73215 0.47065 0.0
H2935 H 0.80899 0.72564 0.49441 0.0
H2936 H 0.78472 0.67381 0.50759 0.0
C2937 C 0.82292 0.67136 0.56038 0.0
C2938 C 0.82831 0.7035 0.52505 0.0
C2939 C 0.82738 0.6684 0.57968 0.0
C2940 C 0.79178 0.72037 0.47045 0.0
C2941 C 0.80077 0.71664 0.484 0.0
C2942 C 0.79706 0.68208 0.5119 0.0
C2943 C 0.82488 0.68628 0.55565 0.0
C2944 C 0.81904 0.68924 0.53595 0.0
C2945 C 0.79834 0.70121 0.48501 0.0
C2946 C 0.80604 0.69663 0.50146 0.0
H2947 H 0.84092 0.70463 0.60079 0.0
H2948 H 0.83305 0.70975 0.56732 0.0
H2949 H 0.79601 0.66743 0.53716 0.0
H2950 H 0.7695 0.68438 0.44823 0.0
H2951 H 0.78548 0.67799 0.47139 0.0
C2952 C 0.8211 0.67429 0.25573 0.0
C2953 C 0.81603 0.67498 0.23569 0.0
C2954 C 0.81402 0.67745 0.27262 0.0
C2955 C 0.77799 0.67886 0.28953 0.0
H2956 H 0.80705 0.7114 0.3268 0.0
C2957 C 0.75367 0.7059 0.34772 0.0
C2958 C 0.76019 0.70877 0.3676 0.0
C2959 C 0.76104 0.70219 0.33179 0.0
C2960 C 0.79876 0.70214 0.31673 0.0
H2961 H 0.7992 0.67869 0.21751 0.0
H2962 H 0.78661 0.68392 0.24701 0.0
H2963 H 0.81819 0.70251 0.29943 0.0
H2964 H 0.77984 0.71046 0.38623 0.0
H2965 H 0.7925 0.70363 0.35856 0.0
H2966 H 0.75854 0.67823 0.30684 0.0
C2967 C 0.79611 0.68108 0.24969 0.0
C2968 C 0.80515 0.69706 0.30108 0.0
C2969 C 0.80333 0.67818 0.23285 0.0
C2970 C 0.77459 0.70844 0.37103 0.0
C2971 C 0.78186 0.70453 0.35514 0.0
C2972 C 0.77159 0.68379 0.30529 0.0
C2973 C 0.8016 0.68105 0.26968 0.0
C2974 C 0.79482 0.68551 0.28722 0.0
C2975 C 0.77497 0.70104 0.33544 0.0
C2976 C 0.78189 0.69564 0.31893 0.0
H2977 H 0.83097 0.67199 0.25825 0.0
H2978 H 0.81838 0.67726 0.28793 0.0
H2979 H 0.76977 0.66982 0.27914 0.0
H2980 H 0.74266 0.70621 0.34454 0.0
H2981 H 0.75566 0.7 0.31667 0.0
C2982 C 0.37675 0.20199 0.25888 0.0
C2983 C 0.36332 0.20432 0.26018 0.0
C2984 C 0.38093 0.1956 0.27575 0.0
C2985 C 0.37392 0.18763 0.33263 0.0
H2986 H 0.38406 0.15455 0.32217 0.0
C2987 C 0.3741 0.14632 0.39807 0.0
C2988 C 0.38554 0.14123 0.39662 0.0
C2989 C 0.37228 0.15495 0.38185 0.0
C2990 C 0.38148 0.16392 0.32547 0.0
H2991 H 0.34422 0.20229 0.2806 0.0
H2992 H 0.35146 0.19139 0.30954 0.0
H2993 H 0.38043 0.16853 0.29334 0.0
H2994 H 0.40445 0.1419 0.37698 0.0
H2995 H 0.40148 0.15695 0.34933 0.0
H2996 H 0.37487 0.18298 0.36476 0.0
C2997 C 0.35885 0.19446 0.2957 0.0
C2998 C 0.37942 0.17198 0.30883 0.0
C2999 C 0.35462 0.20065 0.27893 0.0
C3000 C 0.39532 0.14535 0.37871 0.0
C3001 C 0.39356 0.15397 0.36264 0.0
C3002 C 0.37602 0.1796 0.34928 0.0
C3003 C 0.37191 0.1916 0.29437 0.0
C3004 C 0.37546 0.18388 0.31213 0.0
C3005 C 0.38189 0.15877 0.36376 0.0
C3006 C 0.37974 0.16753 0.346 0.0
H3007 H 0.38366 0.2046 0.24467 0.0
H3008 H 0.39116 0.1937 0.27418 0.0
H3009 H 0.37111 0.19686 0.33587 0.0
H3010 H 0.36634 0.14338 0.41154 0.0
H3011 H 0.36306 0.15831 0.38331 0.0
C3012 C 0.86207 0.26363 0.28013 0.0
C3013 C 0.86518 0.25336 0.26844 0.0
C3014 C 0.87171 0.2715 0.29703 0.0
C3015 C 0.90061 0.27034 0.33414 0.0
H3016 H 0.91384 0.31442 0.3417 0.0
C3017 C 0.94999 0.31044 0.39233 0.0
C3018 C 0.94757 0.32162 0.40285 0.0
C3019 C 0.93943 0.30141 0.37666 0.0
C3020 C 0.91009 0.30205 0.34 0.0
H3021 H 0.88072 0.24308 0.2658 0.0
H3022 H 0.89767 0.25699 0.29494 0.0
H3023 H 0.89637 0.30012 0.3131 0.0
H3024 H 0.93184 0.33169 0.40567 0.0
H3025 H 0.9134 0.31585 0.37869 0.0
H3026 H 0.91442 0.27233 0.36104 0.0
C3027 C 0.8877 0.25888 0.29113 0.0
C3028 C 0.90006 0.29385 0.32357 0.0
C3029 C 0.87809 0.25105 0.27422 0.0
C3030 C 0.93413 0.32326 0.39778 0.0
C3031 C 0.9236 0.31425 0.38218 0.0
C3032 C 0.91065 0.27856 0.3506 0.0
C3033 C 0.88469 0.26926 0.30271 0.0
C3034 C 0.89519 0.27789 0.32042 0.0
C3035 C 0.92624 0.30338 0.37119 0.0
C3036 C 0.91551 0.29452 0.35375 0.0
H3037 H 0.85231 0.26578 0.27606 0.0
H3038 H 0.86894 0.27929 0.30573 0.0
H3039 H 0.89692 0.258 0.33232 0.0
H3040 H 0.96025 0.30893 0.39585 0.0
H3041 H 0.9419 0.29324 0.36841 0.0
C3042 C 0.36613 0.24732 0.7576 0.0
C3043 C 0.38239 0.25482 0.75076 0.0
C3044 C 0.36187 0.25211 0.77596 0.0
C3045 C 0.37701 0.28695 0.81003 0.0
H3046 H 0.34906 0.25782 0.85232 0.0
C3047 C 0.37213 0.30932 0.89063 0.0
C3048 C 0.35698 0.30197 0.90079 0.0
C3049 C 0.3746 0.30292 0.87258 0.0
C3050 C 0.35674 0.26617 0.84059 0.0
H3051 H 0.40686 0.27299 0.75848 0.0
H3052 H 0.39948 0.28115 0.78973 0.0
H3053 H 0.35354 0.24764 0.82012 0.0
H3054 H 0.33258 0.28181 0.89969 0.0
H3055 H 0.3368 0.27094 0.8683 0.0
H3056 H 0.38018 0.30549 0.83013 0.0
C3057 C 0.38994 0.27175 0.78097 0.0
C3058 C 0.35928 0.26028 0.82208 0.0
C3059 C 0.39418 0.26694 0.76295 0.0
C3060 C 0.34448 0.28786 0.89248 0.0
C3061 C 0.34692 0.28152 0.8744 0.0
C3062 C 0.37439 0.29283 0.82839 0.0
C3063 C 0.37375 0.26461 0.78767 0.0
C3064 C 0.36966 0.27061 0.80667 0.0
C3065 C 0.36198 0.28901 0.864 0.0
C3066 C 0.3644 0.28256 0.84414 0.0
H3067 H 0.35673 0.23796 0.74866 0.0
H3068 H 0.34925 0.24633 0.7807 0.0
H3069 H 0.38486 0.29529 0.79838 0.0
H3070 H 0.38209 0.32014 0.89651 0.0
H3071 H 0.38649 0.30893 0.86537 0.0
C3072 C 0.83108 0.18229 0.76624 0.0
C3073 C 0.84226 0.17733 0.76145 0.0
C3074 C 0.82047 0.17578 0.783 0.0
C3075 C 0.81361 0.15348 0.83183 0.0
H3076 H 0.76938 0.14455 0.82473 0.0
C3077 C 0.76277 0.11918 0.89263 0.0
C3078 C 0.75196 0.12478 0.89656 0.0
C3079 C 0.77403 0.12546 0.87641 0.0
C3080 C 0.78173 0.14712 0.82706 0.0
H3081 H 0.85122 0.16178 0.77082 0.0
H3082 H 0.83255 0.15026 0.80015 0.0
H3083 H 0.78859 0.15555 0.79613 0.0
H3084 H 0.74467 0.14151 0.8864 0.0
H3085 H 0.76433 0.15248 0.85824 0.0
H3086 H 0.80665 0.14496 0.86281 0.0
C3087 C 0.83212 0.15933 0.79097 0.0
C3088 C 0.79276 0.15344 0.81064 0.0
C3089 C 0.84281 0.16591 0.77416 0.0
C3090 C 0.75276 0.13687 0.88387 0.0
C3091 C 0.76398 0.14311 0.86761 0.0
C3092 C 0.80254 0.14711 0.84827 0.0
C3093 C 0.82069 0.16408 0.79545 0.0
C3094 C 0.80888 0.15683 0.81285 0.0
C3095 C 0.77473 0.13746 0.86364 0.0
C3096 C 0.78649 0.14396 0.84612 0.0
H3097 H 0.83059 0.19134 0.75711 0.0
H3098 H 0.81214 0.18002 0.78627 0.0
H3099 H 0.82597 0.15609 0.83415 0.0
H3100 H 0.76254 0.10987 0.90204 0.0
H3101 H 0.78201 0.12072 0.87365 0.0
C3102 C 0.87597 0.66628 0.7464 0.0
C3103 C 0.86861 0.67521 0.74128 0.0
C3104 C 0.886 0.67016 0.76357 0.0
C3105 C 0.89711 0.69298 0.81188 0.0
H3106 H 0.93843 0.69485 0.80355 0.0
C3107 C 0.94915 0.72223 0.87035 0.0
C3108 C 0.95711 0.71378 0.87518 0.0
C3109 C 0.93839 0.71765 0.85386 0.0
C3110 C 0.92688 0.69426 0.80618 0.0
H3111 H 0.86514 0.69455 0.75079 0.0
H3112 H 0.88274 0.70144 0.7805 0.0
H3113 H 0.91858 0.68536 0.77604 0.0
H3114 H 0.96034 0.69417 0.866 0.0
H3115 H 0.94163 0.68624 0.83753 0.0
H3116 H 0.90546 0.70194 0.84202 0.0
C3117 C 0.88081 0.69145 0.77133 0.0
C3118 C 0.91549 0.68876 0.79046 0.0
C3119 C 0.87086 0.68761 0.75418 0.0
C3120 C 0.95442 0.70096 0.8628 0.0
C3121 C 0.94374 0.69644 0.84636 0.0
C3122 C 0.90851 0.69848 0.82762 0.0
C3123 C 0.88875 0.68298 0.77599 0.0
C3124 C 0.90049 0.68808 0.79311 0.0
C3125 C 0.93546 0.7046 0.84184 0.0
C3126 C 0.92353 0.69919 0.82493 0.0
H3127 H 0.87449 0.65671 0.7367 0.0
H3128 H 0.8918 0.66329 0.76696 0.0
H3129 H 0.88559 0.69244 0.81446 0.0
H3130 H 0.95096 0.73218 0.87952 0.0
H3131 H 0.93234 0.7243 0.85056 0.0
C3132 C 0.85983 0.68332 0.07905 0.0
C3133 C 0.85373 0.67004 0.09211 0.0
C3134 C 0.86824 0.68407 0.06103 0.0
C3135 C 0.89349 0.66922 0.03946 0.0
H3136 H 0.89062 0.68992 0.98984 0.0
C3137 C 0.93818 0.68482 0.97044 0.0
C3138 C 0.94478 0.70047 0.96329 0.0
C3139 C 0.92489 0.67831 0.98405 0.0
C3140 C 0.89155 0.6841 1.00358 0.0
H3141 H 0.85123 0.64691 0.09621 0.0
H3142 H 0.86592 0.64819 0.06458 0.0
H3143 H 0.8707 0.68332 0.01743 0.0
H3144 H 0.94233 0.7214 0.96459 0.0
H3145 H 0.91942 0.71012 0.98819 0.0
H3146 H 0.9147 0.67053 0.02589 0.0
C3147 C 0.86423 0.65804 0.06838 0.0
C3148 C 0.88015 0.68032 0.01937 0.0
C3149 C 0.8557 0.65725 0.08638 0.0
C3150 C 0.93763 0.70932 0.96977 0.0
C3151 C 0.92436 0.70281 0.98318 0.0
C3152 C 0.90492 0.67301 0.02365 0.0
C3153 C 0.8708 0.67157 0.05569 0.0
C3154 C 0.88128 0.67328 0.03773 0.0
C3155 C 0.91787 0.68727 0.99057 0.0
C3156 C 0.90435 0.68094 1.00582 0.0
H3157 H 0.85835 0.69328 0.08299 0.0
H3158 H 0.87329 0.69474 0.05171 0.0
H3159 H 0.89476 0.66391 0.0535 0.0
H3160 H 0.94339 0.67768 0.96576 0.0
H3161 H 0.9201 0.66628 0.98947 0.0
C3162 C 0.37351 0.25557 0.1429 0.0
C3163 C 0.35968 0.24058 0.14564 0.0
C3164 C 0.37581 0.26428 0.1245 0.0
C3165 C 0.35069 0.26685 0.0828 0.0
H3166 H 0.39077 0.29221 0.05237 0.0
C3167 C 0.34917 0.28892 1.00168 0.0
C3168 C 0.36031 0.30464 0.99604 0.0
C3169 C 0.35108 0.28218 0.01973 0.0
C3170 C 0.37951 0.28531 0.06083 0.0
H3171 H 0.33817 0.22257 0.13069 0.0
H3172 H 0.34233 0.2373 0.09888 0.0
H3173 H 0.39085 0.27842 0.0842 0.0
H3174 H 0.3827 0.32534 1.00493 0.0
H3175 H 0.38602 0.31347 0.03674 0.0
H3176 H 0.33926 0.27354 0.05977 0.0
C3177 C 0.35119 0.24268 0.11095 0.0
C3178 C 0.37956 0.2774 0.07907 0.0
C3179 C 0.34887 0.23413 0.12919 0.0
C3180 C 0.37386 0.31322 1.00872 0.0
C3181 C 0.37578 0.3064 0.02697 0.0
C3182 C 0.35064 0.27468 0.06474 0.0
C3183 C 0.36432 0.25811 0.10857 0.0
C3184 C 0.36504 0.26774 0.09004 0.0
C3185 C 0.36416 0.29089 0.03296 0.0
C3186 C 0.36494 0.28374 0.05317 0.0
H3187 H 0.38198 0.26093 0.15538 0.0
H3188 H 0.38609 0.27611 0.12319 0.0
H3189 H 0.33934 0.25996 0.09109 0.0
H3190 H 0.33869 0.28177 0.9923 0.0
H3191 H 0.3421 0.27009 0.02346 0.0
C3192 C 0.80697 0.21182 0.11439 0.0
C3193 C 0.81121 0.20517 0.13079 0.0
C3194 C 0.79949 0.20296 0.09686 0.0
C3195 C 0.7765 0.16176 0.07821 0.0
H3196 H 0.7892 0.18174 0.02434 0.0
C3197 C 0.75331 0.1263 1.00293 0.0
C3198 C 0.74789 0.13293 0.98782 0.0
C3199 C 0.76185 0.13512 0.02004 0.0
C3200 C 0.78545 0.17601 0.03928 0.0
H3201 H 0.81041 0.18375 0.14173 0.0
H3202 H 0.79781 0.16854 0.11113 0.0
H3203 H 0.802 0.19709 0.05498 0.0
H3204 H 0.74766 0.15424 0.97868 0.0
H3205 H 0.76247 0.16947 1.00834 0.0
H3206 H 0.75995 0.14068 0.06247 0.0
C3207 C 0.80013 0.18056 0.11183 0.0
C3208 C 0.79275 0.18483 0.05687 0.0
C3209 C 0.80757 0.18938 0.12932 0.0
C3210 C 0.75161 0.1487 0.98997 0.0
C3211 C 0.7602 0.15751 1.00696 0.0
C3212 C 0.76925 0.15293 0.06062 0.0
C3213 C 0.79604 0.18724 0.09532 0.0
C3214 C 0.78831 0.17784 0.07657 0.0
C3215 C 0.76526 0.15078 0.02233 0.0
C3216 C 0.77357 0.15997 0.04095 0.0
H3217 H 0.80966 0.22394 0.11491 0.0
H3218 H 0.79631 0.20843 0.08457 0.0
H3219 H 0.77261 0.15604 0.09313 0.0
H3220 H 0.75066 0.1142 1.00181 0.0
H3221 H 0.76574 0.12965 0.03151 0.0
loop_
_geom_bond_atom_site_label_1
_geom_bond_atom_site_label_2
_geom_bond_distance
_geom_bond_site_symmetry_2
_ccdc_geom_bond_type
Cu0 N1 1.999 . S
Cu0 O6 1.974 1_554 S
Cu0 N11 1.985 1_554 S
Cu0 O20 1.959 . S
N1 Cu0 1.999 . S
N1 C3 1.263 . S
N1 C5 1.389 . S
N2 C3 1.358 . S
N2 C4 1.400 . S
C3 N1 1.263 . S
C3 N2 1.358 . S
C3 H9 0.930 . S
C4 N2 1.400 . S
C4 C5 1.351 . S
C4 H21 0.930 . S
C5 N1 1.389 . S
C5 C4 1.351 . S
C5 H10 0.930 . S
O6 Cu0 1.974 1_556 S
O6 C16 1.282 . S
C7 O8 1.261 . S
C7 O20 1.251 . S
O8 C7 1.261 . S
H9 C3 0.930 . S
H10 C5 0.930 . S
N11 Cu0 1.985 1_556 S
N11 C13 1.335 . S
N11 C14 1.390 . S
N12 C13 1.345 . S
N12 C15 1.336 . S
C13 N11 1.335 . S
C13 N12 1.345 . S
C13 H18 0.930 . S
C14 N11 1.390 . S
C14 C15 1.346 . S
C14 H19 0.930 . S
C15 N12 1.336 . S
C15 C14 1.346 . S
C15 H22 0.929 . S
C16 O6 1.282 . S
C16 O17 1.216 . S
O17 C16 1.216 . S
H18 C13 0.930 . S
H19 C14 0.930 . S
O20 Cu0 1.959 . S
O20 C7 1.251 . S
H21 C4 0.930 . S
H22 C15 0.929 . S
Cu23 N24 1.999 1_554 S
Cu23 O29 1.974 . S
Cu23 N34 1.985 . S
Cu23 O43 1.971 . S
N24 Cu23 1.999 1_556 S
N24 C26 1.263 . S
N24 C28 1.389 . S
N25 C26 1.358 . S
N25 C27 1.400 . S
C26 N24 1.263 . S
C26 N25 1.358 . S
C26 H32 0.930 . S
C27 N25 1.400 . S
C27 C28 1.351 . S
C27 H44 0.930 . S
C28 N24 1.389 . S
C28 C27 1.351 . S
C28 H33 0.930 . S
O29 Cu23 1.974 . S
O29 C39 1.282 . S
C30 O31 1.260 1_556 S
C30 O43 1.250 1_556 S
O31 C30 1.260 1_554 S
H32 C26 0.930 . S
H33 C28 0.930 . S
N34 Cu23 1.985 . S
N34 C36 1.335 . S
N34 C37 1.390 . S
N35 C36 1.345 . S
N35 C38 1.336 . S
C36 N34 1.335 . S
C36 N35 1.345 . S
C36 H41 0.930 . S
C37 N34 1.390 . S
C37 C38 1.346 . S
C37 H42 0.930 . S
C38 N35 1.336 . S
C38 C37 1.346 . S
C38 H45 0.929 . S
C39 O29 1.282 . S
C39 O40 1.216 . S
O40 C39 1.216 . S
H41 C36 0.930 . S
H42 C37 0.930 . S
O43 Cu23 1.971 . S
O43 C30 1.250 1_554 S
H44 C27 0.930 . S
H45 C38 0.929 . S
Cu46 N47 1.999 1_554 S
Cu46 O52 1.974 . S
Cu46 N57 1.985 1_565 S
Cu46 O66 1.959 1_565 S
N47 Cu46 1.999 1_556 S
N47 C49 1.237 1_565 S
N47 C51 1.389 . S
N48 C49 1.354 1_565 S
N48 C50 1.400 . S
C49 N47 1.237 1_545 S
C49 N48 1.354 1_545 S
C49 H55 0.958 . S
C50 N48 1.400 . S
C50 C51 1.351 . S
C50 H67 0.930 . S
C51 N47 1.389 . S
C51 C50 1.351 . S
C51 H56 0.930 . S
O52 Cu46 1.974 . S
O52 C62 1.282 1_565 S
C53 O54 1.261 . S
C53 O66 1.251 . S
O54 C53 1.261 . S
H55 C49 0.958 . S
H56 C51 0.930 . S
N57 Cu46 1.985 1_545 S
N57 C59 1.335 . S
N57 C60 1.390 . S
N58 C59 1.345 . S
N58 C61 1.336 . S
C59 N57 1.335 . S
C59 N58 1.345 . S
C59 H64 0.930 1_545 S
C60 N57 1.390 . S
C60 C61 1.346 . S
C60 H65 0.930 . S
C61 N58 1.336 . S
C61 C60 1.346 . S
C61 H68 0.929 . S
C62 O52 1.282 1_545 S
C62 O63 1.216 . S
O63 C62 1.216 . S
H64 C59 0.930 1_565 S
H65 C60 0.930 . S
O66 Cu46 1.959 1_545 S
O66 C53 1.251 . S
H67 C50 0.930 . S
H68 C61 0.929 . S
Cu69 N70 1.999 . S
Cu69 O75 1.974 . S
Cu69 N80 1.985 . S
Cu69 O89 1.959 . S
N70 Cu69 1.999 . S
N70 C72 1.263 . S
N70 C74 1.389 . S
N71 C72 1.358 . S
N71 C73 1.400 . S
C72 N70 1.263 . S
C72 N71 1.358 . S
C72 H78 0.930 . S
C73 N71 1.400 . S
C73 C74 1.351 . S
C73 H90 0.930 . S
C74 N70 1.389 . S
C74 C73 1.351 . S
C74 H79 0.930 . S
O75 Cu69 1.974 . S
O75 C85 1.282 . S
C76 O77 1.261 . S
C76 O89 1.251 . S
O77 C76 1.261 . S
H78 C72 0.930 . S
H79 C74 0.930 . S
N80 Cu69 1.985 . S
N80 C82 1.335 . S
N80 C83 1.390 . S
N81 C82 1.345 . S
N81 C84 1.336 . S
C82 N80 1.335 . S
C82 N81 1.345 . S
C82 H87 0.930 . S
C83 N80 1.390 . S
C83 C84 1.346 . S
C83 H88 0.930 . S
C84 N81 1.336 . S
C84 C83 1.346 . S
C84 H91 0.929 . S
C85 O75 1.282 . S
C85 O86 1.216 1_545 S
O86 C85 1.216 1_565 S
H87 C82 0.930 . S
H88 C83 0.930 . S
O89 Cu69 1.959 . S
O89 C76 1.251 . S
H90 C73 0.930 . S
H91 C84 0.929 . S
Cu92 N93 1.999 . S
Cu92 O98 1.974 . S
Cu92 N103 1.985 . S
Cu92 O112 1.959 . S
N93 Cu92 1.999 . S
N93 C95 1.263 . S
N93 C97 1.389 . S
N94 C95 1.358 . S
N94 C96 1.400 . S
C95 N93 1.263 . S
C95 N94 1.358 . S
C95 H101 0.930 . S
C96 N94 1.400 . S
C96 C97 1.351 . S
C96 H113 0.930 . S
C97 N93 1.389 . S
C97 C96 1.351 . S
C97 H102 0.930 . S
O98 Cu92 1.974 . S
O98 C108 1.282 . S
C99 O100 1.261 . S
C99 O112 1.251 . S
O100 C99 1.261 . S
H101 C95 0.930 . S
H102 C97 0.930 . S
N103 Cu92 1.985 . S
N103 C105 1.335 . S
N103 C106 1.390 . S
N104 C105 1.345 . S
N104 C107 1.336 . S
C105 N103 1.335 . S
C105 N104 1.345 . S
C105 H110 0.930 . S
C106 N103 1.390 . S
C106 C107 1.346 . S
C106 H111 0.930 . S
C107 N104 1.336 . S
C107 C106 1.346 . S
C107 H114 0.929 . S
C108 O98 1.282 . S
C108 O109 1.216 . S
O109 C108 1.216 . S
H110 C105 0.930 . S
H111 C106 0.930 . S
O112 Cu92 1.959 . S
O112 C99 1.251 . S
H113 C96 0.930 . S
H114 C107 0.929 . S
Cu115 N116 1.999 . S
Cu115 O121 1.974 . S
Cu115 N126 1.985 . S
Cu115 O135 1.959 . S
N116 Cu115 1.999 . S
N116 C118 1.263 . S
N116 C120 1.389 . S
N117 C118 1.358 . S
N117 C119 1.400 . S
C118 N116 1.263 . S
C118 N117 1.358 . S
C118 H124 0.930 . S
C119 N117 1.400 . S
C119 C120 1.351 . S
C119 H136 0.930 . S
C120 N116 1.389 . S
C120 C119 1.351 . S
C120 H125 0.930 . S
O121 Cu115 1.974 . S
O121 C131 1.282 . S
C122 O123 1.261 . S
C122 O135 1.251 . S
O123 C122 1.261 . S
H124 C118 0.930 . S
H125 C120 0.930 . S
N126 Cu115 1.985 . S
N126 C128 1.335 . S
N126 C129 1.390 . S
N127 C128 1.345 . S
N127 C130 1.336 . S
C128 N126 1.335 . S
C128 N127 1.345 . S
C128 H133 0.930 . S
C129 N126 1.390 . S
C129 C130 1.346 . S
C129 H134 0.930 . S
C130 N127 1.336 . S
C130 C129 1.346 . S
C130 H137 0.929 . S
C131 O121 1.282 . S
C131 O132 1.216 . S
O132 C131 1.216 . S
H133 C128 0.930 . S
H134 C129 0.930 . S
O135 Cu115 1.959 . S
O135 C122 1.251 . S
H136 C119 0.930 . S
H137 C130 0.929 . S
Cu138 N139 1.999 . S
Cu138 O144 1.974 . S
Cu138 N149 1.985 . S
Cu138 O158 1.959 . S
N139 Cu138 1.999 . S
N139 C141 1.263 . S
N139 C143 1.389 . S
N140 C141 1.358 . S
N140 C142 1.400 . S
C141 N139 1.263 . S
C141 N140 1.358 . S
C141 H147 0.930 . S
C142 N140 1.400 . S
C142 C143 1.351 . S
C142 H159 0.930 . S
C143 N139 1.389 . S
C143 C142 1.351 . S
C143 H148 0.930 . S
O144 Cu138 1.974 . S
O144 C154 1.282 . S
C145 O146 1.261 . S
C145 O158 1.251 . S
O146 C145 1.261 . S
H147 C141 0.930 . S
H148 C143 0.930 . S
N149 Cu138 1.985 . S
N149 C151 1.335 . S
N149 C152 1.390 . S
N150 C151 1.345 . S
N150 C153 1.336 . S
C151 N149 1.335 . S
C151 N150 1.345 . S
C151 H156 0.930 . S
C152 N149 1.390 . S
C152 C153 1.346 . S
C152 H157 0.930 . S
C153 N150 1.336 . S
C153 C152 1.346 . S
C153 H160 0.929 . S
C154 O144 1.282 . S
C154 O155 1.216 . S
O155 C154 1.216 . S
H156 C151 0.930 . S
H157 C152 0.930 . S
O158 Cu138 1.959 . S
O158 C145 1.251 . S
H159 C142 0.930 . S
H160 C153 0.929 . S
Cu161 N162 1.999 . S
Cu161 O167 1.974 . S
Cu161 N172 1.985 . S
Cu161 O181 1.959 . S
N162 Cu161 1.999 . S
N162 C164 1.263 . S
N162 C166 1.389 . S
N163 C164 1.358 . S
N163 C165 1.400 . S
C164 N162 1.263 . S
C164 N163 1.358 . S
C164 H170 0.930 . S
C165 N163 1.400 . S
C165 C166 1.351 . S
C165 H182 0.930 . S
C166 N162 1.389 . S
C166 C165 1.351 . S
C166 H171 0.930 . S
O167 Cu161 1.974 . S
O167 C177 1.282 . S
C168 O169 1.261 . S
C168 O181 1.251 . S
O169 C168 1.261 . S
H170 C164 0.930 . S
H171 C166 0.930 . S
N172 Cu161 1.985 . S
N172 C174 1.335 . S
N172 C175 1.390 . S
N173 C174 1.345 . S
N173 C176 1.336 . S
C174 N172 1.335 . S
C174 N173 1.345 . S
C174 H179 0.930 . S
C175 N172 1.390 . S
C175 C176 1.346 . S
C175 H180 0.930 . S
C176 N173 1.336 . S
C176 C175 1.346 . S
C176 H183 0.929 . S
C177 O167 1.282 . S
C177 O178 1.216 . S
O178 C177 1.216 . S
H179 C174 0.930 . S
H180 C175 0.930 . S
O181 Cu161 1.959 . S
O181 C168 1.251 . S
H182 C165 0.930 . S
H183 C176 0.929 . S
Cu184 N185 1.999 . S
Cu184 O190 1.974 . S
Cu184 N195 1.985 . S
Cu184 O204 1.959 . S
N185 Cu184 1.999 . S
N185 C187 1.263 . S
N185 C189 1.389 . S
N186 C187 1.358 . S
N186 C188 1.400 . S
C187 N185 1.263 . S
C187 N186 1.358 . S
C187 H193 0.930 . S
C188 N186 1.400 . S
C188 C189 1.351 . S
C188 H205 0.930 . S
C189 N185 1.389 . S
C189 C188 1.351 . S
C189 H194 0.930 . S
O190 Cu184 1.974 . S
O190 C200 1.282 . S
C191 O192 1.261 . S
C191 O204 1.251 . S
O192 C191 1.261 . S
H193 C187 0.930 . S
H194 C189 0.930 . S
N195 Cu184 1.985 . S
N195 C197 1.335 . S
N195 C198 1.390 . S
N196 C197 1.345 . S
N196 C199 1.336 . S
C197 N195 1.335 . S
C197 N196 1.345 . S
C197 H202 0.930 . S
C198 N195 1.390 . S
C198 C199 1.346 . S
C198 H203 0.930 . S
C199 N196 1.336 . S
C199 C198 1.346 . S
C199 H206 0.929 . S
C200 O190 1.282 . S
C200 O201 1.216 . S
O201 C200 1.216 . S
H202 C197 0.930 . S
H203 C198 0.930 . S
O204 Cu184 1.959 . S
O204 C191 1.251 . S
H205 C188 0.930 . S
H206 C199 0.929 . S
Cu207 N208 1.999 . S
Cu207 O213 1.974 . S
Cu207 N218 1.985 . S
Cu207 O227 1.959 . S
N208 Cu207 1.999 . S
N208 C210 1.263 . S
N208 C212 1.389 . S
N209 C210 1.358 . S
N209 C211 1.400 . S
C210 N208 1.263 . S
C210 N209 1.358 . S
C210 H216 0.930 . S
C211 N209 1.400 . S
C211 C212 1.351 . S
C211 H228 0.930 . S
C212 N208 1.389 . S
C212 C211 1.351 . S
C212 H217 0.930 . S
O213 Cu207 1.974 . S
O213 C223 1.282 . S
C214 O215 1.261 . S
C214 O227 1.251 . S
O215 C214 1.261 . S
H216 C210 0.930 . S
H217 C212 0.930 . S
N218 Cu207 1.985 . S
N218 C220 1.335 . S
N218 C221 1.390 . S
N219 C220 1.345 . S
N219 C222 1.336 . S
C220 N218 1.335 . S
C220 N219 1.345 . S
C220 H225 0.930 . S
C221 N218 1.390 . S
C221 C222 1.346 . S
C221 H226 0.930 . S
C222 N219 1.336 . S
C222 C221 1.346 . S
C222 H229 0.929 . S
C223 O213 1.282 . S
C223 O224 1.216 . S
O224 C223 1.216 . S
H225 C220 0.930 . S
H226 C221 0.930 . S
O227 Cu207 1.959 . S
O227 C214 1.251 . S
H228 C211 0.930 . S
H229 C222 0.929 . S
Cu230 N231 1.999 . S
Cu230 O236 1.974 . S
Cu230 N241 1.985 . S
Cu230 O250 1.959 . S
N231 Cu230 1.999 . S
N231 C233 1.263 . S
N231 C235 1.389 . S
N232 C233 1.358 . S
N232 C234 1.400 . S
C233 N231 1.263 . S
C233 N232 1.358 . S
C233 H239 0.930 . S
C234 N232 1.400 . S
C234 C235 1.351 . S
C234 H251 0.930 . S
C235 N231 1.389 . S
C235 C234 1.351 . S
C235 H240 0.930 . S
O236 Cu230 1.974 . S
O236 C246 1.282 . S
C237 O238 1.261 . S
C237 O250 1.251 . S
O238 C237 1.261 . S
H239 C233 0.930 . S
H240 C235 0.930 . S
N241 Cu230 1.985 . S
N241 C243 1.335 . S
N241 C244 1.390 . S
N242 C243 1.345 . S
N242 C245 1.336 . S
C243 N241 1.335 . S
C243 N242 1.345 . S
C243 H248 0.930 . S
C244 N241 1.390 . S
C244 C245 1.346 . S
C244 H249 0.930 . S
C245 N242 1.336 . S
C245 C244 1.346 . S
C245 H252 0.929 . S
C246 O236 1.282 . S
C246 O247 1.216 . S
O247 C246 1.216 . S
H248 C243 0.930 . S
H249 C244 0.930 . S
O250 Cu230 1.959 . S
O250 C237 1.251 . S
H251 C234 0.930 . S
H252 C245 0.929 . S
Cu253 N254 1.999 . S
Cu253 O259 1.974 . S
Cu253 N264 1.985 . S
Cu253 O273 1.959 . S
N254 Cu253 1.999 . S
N254 C256 1.263 . S
N254 C258 1.389 . S
N255 C256 1.358 . S
N255 C257 1.400 . S
C256 N254 1.263 . S
C256 N255 1.358 . S
C256 H262 0.930 . S
C257 N255 1.400 . S
C257 C258 1.351 . S
C257 H274 0.930 . S
C258 N254 1.389 . S
C258 C257 1.351 . S
C258 H263 0.930 . S
O259 Cu253 1.974 . S
O259 C269 1.282 . S
C260 O261 1.261 . S
C260 O273 1.251 . S
O261 C260 1.261 . S
H262 C256 0.930 . S
H263 C258 0.930 . S
N264 Cu253 1.985 . S
N264 C266 1.335 . S
N264 C267 1.390 . S
N265 C266 1.345 . S
N265 C268 1.336 . S
C266 N264 1.335 . S
C266 N265 1.345 . S
C266 H271 0.930 . S
C267 N264 1.390 . S
C267 C268 1.346 . S
C267 H272 0.930 . S
C268 N265 1.336 . S
C268 C267 1.346 . S
C268 H275 0.929 . S
C269 O259 1.282 . S
C269 O270 1.216 . S
O270 C269 1.216 . S
H271 C266 0.930 . S
H272 C267 0.930 . S
O273 Cu253 1.959 . S
O273 C260 1.251 . S
H274 C257 0.930 . S
H275 C268 0.929 . S
Cu276 N277 1.999 . S
Cu276 O282 1.974 . S
Cu276 N287 1.985 . S
Cu276 O296 1.959 . S
N277 Cu276 1.999 . S
N277 C279 1.263 . S
N277 C281 1.389 . S
N278 C279 1.358 . S
N278 C280 1.400 . S
C279 N277 1.263 . S
C279 N278 1.358 . S
C279 H285 0.930 . S
C280 N278 1.400 . S
C280 C281 1.351 . S
C280 H297 0.930 . S
C281 N277 1.389 . S
C281 C280 1.351 . S
C281 H286 0.930 . S
O282 Cu276 1.974 . S
O282 C292 1.282 . S
C283 O284 1.261 . S
C283 O296 1.251 . S
O284 C283 1.261 . S
H285 C279 0.930 . S
H286 C281 0.930 . S
N287 Cu276 1.985 . S
N287 C289 1.335 . S
N287 C290 1.390 . S
N288 C289 1.345 . S
N288 C291 1.336 . S
C289 N287 1.335 . S
C289 N288 1.345 . S
C289 H294 0.930 . S
C290 N287 1.390 . S
C290 C291 1.346 . S
C290 H295 0.930 . S
C291 N288 1.336 . S
C291 C290 1.346 . S
C291 H298 0.929 . S
C292 O282 1.282 . S
C292 O293 1.216 . S
O293 C292 1.216 . S
H294 C289 0.930 . S
H295 C290 0.930 . S
O296 Cu276 1.959 . S
O296 C283 1.251 . S
H297 C280 0.930 . S
H298 C291 0.929 . S
Cu299 N300 1.999 . S
Cu299 O305 1.974 . S
Cu299 N310 1.985 . S
Cu299 O319 1.959 . S
N300 Cu299 1.999 . S
N300 C302 1.263 . S
N300 C304 1.389 . S
N301 C302 1.358 . S
N301 C303 1.400 . S
C302 N300 1.263 . S
C302 N301 1.358 . S
C302 H308 0.930 . S
C303 N301 1.400 . S
C303 C304 1.351 . S
C303 H320 0.930 . S
C304 N300 1.389 . S
C304 C303 1.351 . S
C304 H309 0.930 . S
O305 Cu299 1.974 . S
O305 C315 1.282 . S
C306 O307 1.261 . S
C306 O319 1.251 . S
O307 C306 1.261 . S
H308 C302 0.930 . S
H309 C304 0.930 . S
N310 Cu299 1.985 . S
N310 C312 1.335 . S
N310 C313 1.390 . S
N311 C312 1.345 . S
N311 C314 1.336 . S
C312 N310 1.335 . S
C312 N311 1.345 . S
C312 H317 0.930 . S
C313 N310 1.390 . S
C313 C314 1.346 . S
C313 H318 0.930 . S
C314 N311 1.336 . S
C314 C313 1.346 . S
C314 H321 0.929 . S
C315 O305 1.282 . S
C315 O316 1.216 . S
O316 C315 1.216 . S
H317 C312 0.930 . S
H318 C313 0.930 . S
O319 Cu299 1.959 . S
O319 C306 1.251 . S
H320 C303 0.930 . S
H321 C314 0.929 . S
Cu322 N323 1.999 . S
Cu322 O328 1.974 . S
Cu322 N333 1.985 . S
Cu322 O342 1.959 . S
N323 Cu322 1.999 . S
N323 C325 1.263 . S
N323 C327 1.389 . S
N324 C325 1.358 . S
N324 C326 1.400 . S
C325 N323 1.263 . S
C325 N324 1.358 . S
C325 H331 0.930 . S
C326 N324 1.400 . S
C326 C327 1.351 . S
C326 H343 0.930 . S
C327 N323 1.389 . S
C327 C326 1.351 . S
C327 H332 0.930 . S
O328 Cu322 1.974 . S
O328 C338 1.282 . S
C329 O330 1.261 . S
C329 O342 1.251 . S
O330 C329 1.261 . S
H331 C325 0.930 . S
H332 C327 0.930 . S
N333 Cu322 1.985 . S
N333 C335 1.335 . S
N333 C336 1.390 . S
N334 C335 1.345 . S
N334 C337 1.336 . S
C335 N333 1.335 . S
C335 N334 1.345 . S
C335 H340 0.930 . S
C336 N333 1.390 . S
C336 C337 1.346 . S
C336 H341 0.930 . S
C337 N334 1.336 . S
C337 C336 1.346 . S
C337 H344 0.929 . S
C338 O328 1.282 . S
C338 O339 1.216 . S
O339 C338 1.216 . S
H340 C335 0.930 . S
H341 C336 0.930 . S
O342 Cu322 1.959 . S
O342 C329 1.251 . S
H343 C326 0.930 . S
H344 C337 0.929 . S
Cu345 N346 1.999 . S
Cu345 O351 1.974 . S
Cu345 N356 1.985 . S
Cu345 O365 1.959 . S
N346 Cu345 1.999 . S
N346 C348 1.263 . S
N346 C350 1.389 . S
N347 C348 1.358 . S
N347 C349 1.400 . S
C348 N346 1.263 . S
C348 N347 1.358 . S
C348 H354 0.930 . S
C349 N347 1.400 . S
C349 C350 1.351 . S
C349 H366 0.930 . S
C350 N346 1.389 . S
C350 C349 1.351 . S
C350 H355 0.930 . S
O351 Cu345 1.974 . S
O351 C361 1.282 . S
C352 O353 1.261 . S
C352 O365 1.251 . S
O353 C352 1.261 . S
H354 C348 0.930 . S
H355 C350 0.930 . S
N356 Cu345 1.985 . S
N356 C358 1.335 . S
N356 C359 1.390 . S
N357 C358 1.345 . S
N357 C360 1.336 . S
C358 N356 1.335 . S
C358 N357 1.345 . S
C358 H363 0.930 . S
C359 N356 1.390 . S
C359 C360 1.346 . S
C359 H364 0.930 . S
C360 N357 1.336 . S
C360 C359 1.346 . S
C360 H367 0.929 . S
C361 O351 1.282 . S
C361 O362 1.216 . S
O362 C361 1.216 . S
H363 C358 0.930 . S
H364 C359 0.930 . S
O365 Cu345 1.959 . S
O365 C352 1.251 . S
H366 C349 0.930 . S
H367 C360 0.929 . S
Cu368 N369 1.999 . S
Cu368 O374 1.974 . S
Cu368 N379 1.985 . S
Cu368 O388 1.959 . S
N369 Cu368 1.999 . S
N369 C371 1.263 . S
N369 C373 1.389 . S
N370 C371 1.358 . S
N370 C372 1.400 . S
C371 N369 1.263 . S
C371 N370 1.358 . S
C371 H377 0.930 . S
C372 N370 1.400 . S
C372 C373 1.351 . S
C372 H389 0.930 . S
C373 N369 1.389 . S
C373 C372 1.351 . S
C373 H378 0.930 . S
O374 Cu368 1.974 . S
O374 C384 1.282 . S
C375 O376 1.261 . S
C375 O388 1.251 . S
O376 C375 1.261 . S
H377 C371 0.930 . S
H378 C373 0.930 . S
N379 Cu368 1.985 . S
N379 C381 1.335 . S
N379 C382 1.390 . S
N380 C381 1.345 . S
N380 C383 1.336 . S
C381 N379 1.335 . S
C381 N380 1.345 . S
C381 H386 0.930 . S
C382 N379 1.390 . S
C382 C383 1.346 . S
C382 H387 0.930 . S
C383 N380 1.336 . S
C383 C382 1.346 . S
C383 H390 0.929 . S
C384 O374 1.282 . S
C384 O385 1.216 . S
O385 C384 1.216 . S
H386 C381 0.930 . S
H387 C382 0.930 . S
O388 Cu368 1.959 . S
O388 C375 1.251 . S
H389 C372 0.930 . S
H390 C383 0.929 . S
Cu391 N392 1.999 . S
Cu391 O397 1.974 . S
Cu391 N402 1.985 . S
Cu391 O411 1.959 . S
N392 Cu391 1.999 . S
N392 C394 1.263 . S
N392 C396 1.389 . S
N393 C394 1.358 . S
N393 C395 1.400 . S
C394 N392 1.263 . S
C394 N393 1.358 . S
C394 H400 0.930 . S
C395 N393 1.400 . S
C395 C396 1.351 . S
C395 H412 0.930 . S
C396 N392 1.389 . S
C396 C395 1.351 . S
C396 H401 0.930 . S
O397 Cu391 1.974 . S
O397 C407 1.282 . S
C398 O399 1.261 . S
C398 O411 1.251 . S
O399 C398 1.261 . S
H400 C394 0.930 . S
H401 C396 0.930 . S
N402 Cu391 1.985 . S
N402 C404 1.335 . S
N402 C405 1.390 . S
N403 C404 1.345 . S
N403 C406 1.336 . S
C404 N402 1.335 . S
C404 N403 1.345 . S
C404 H409 0.930 . S
C405 N402 1.390 . S
C405 C406 1.346 . S
C405 H410 0.930 . S
C406 N403 1.336 . S
C406 C405 1.346 . S
C406 H413 0.929 . S
C407 O397 1.282 . S
C407 O408 1.216 . S
O408 C407 1.216 . S
H409 C404 0.930 . S
H410 C405 0.930 . S
O411 Cu391 1.959 . S
O411 C398 1.251 . S
H412 C395 0.930 . S
H413 C406 0.929 . S
Mn414 O419 2.095 . S
Mn414 O429 2.162 . S
Mn414 O430 2.297 . S
Mn414 O438 2.385 . S
Mn414 O439 2.209 1_455 S
Mn414 O440 2.094 . S
Mn415 O420 2.121 1_655 S
Mn415 N422 2.257 . S
Mn415 N431 2.282 . S
Mn415 O439 2.215 . S
Mn415 O441 2.117 1_655 S
C416 O438 1.234 1_655 S
C416 O439 1.283 . S
C417 O429 1.281 . S
C417 O430 1.236 . S
C418 O440 1.240 . S
C418 O441 1.264 . S
O419 Mn414 2.095 . S
O419 C428 1.250 . S
O420 Mn415 2.121 1_455 S
O420 C428 1.258 . S
C421 N422 1.326 . S
C421 C425 1.460 . S
C421 H427 0.929 . S
N422 Mn415 2.257 . S
N422 C421 1.326 . S
N422 C426 1.362 . S
C423 C424 1.258 . S
C423 C426 1.431 . S
C423 C443 1.449 . S
C424 C423 1.258 . S
C424 C425 1.477 . S
C424 H444 0.931 . S
C425 C421 1.460 . S
C425 C424 1.477 . S
C425 H445 0.930 . S
C426 N422 1.362 . S
C426 C423 1.431 . S
C426 C436 1.476 . S
H427 C421 0.929 . S
C428 O419 1.250 . S
C428 O420 1.258 . S
O429 Mn414 2.162 . S
O429 C417 1.281 . S
O430 Mn414 2.297 . S
O430 C417 1.236 . S
N431 Mn415 2.282 . S
N431 C432 1.328 . S
N431 C436 1.318 . S
C432 N431 1.328 . S
C432 C433 1.457 . S
C432 H437 0.929 . S
C433 C432 1.457 . S
C433 C434 1.291 . S
C433 H446 0.931 . S
C434 C433 1.291 . S
C434 C435 1.373 . S
C434 H447 0.929 . S
C435 C434 1.373 . S
C435 C436 1.396 . S
C435 C442 1.403 . S
C436 C426 1.476 . S
C436 N431 1.318 . S
C436 C435 1.396 . S
H437 C432 0.929 . S
O438 Mn414 2.385 . S
O438 C416 1.234 1_455 S
O439 Mn414 2.209 1_655 S
O439 Mn415 2.215 . S
O439 C416 1.283 . S
O440 Mn414 2.094 . S
O440 C418 1.240 . S
O441 Mn415 2.117 1_455 S
O441 C418 1.264 . S
C442 C435 1.403 . S
C442 C443 1.399 . S
C442 H448 0.929 . S
C443 C423 1.449 . S
C443 C442 1.399 . S
C443 H449 0.930 . S
H444 C424 0.931 . S
H445 C425 0.930 . S
H446 C433 0.931 . S
H447 C434 0.929 . S
H448 C442 0.929 . S
H449 C443 0.930 . S
Mn450 O455 2.095 . S
Mn450 O465 2.162 . S
Mn450 O466 2.297 . S
Mn450 O474 2.385 . S
Mn450 O475 2.209 . S
Mn450 O476 2.094 . S
Mn451 O456 2.121 . S
Mn451 N458 2.257 . S
Mn451 N467 2.282 . S
Mn451 O475 2.215 . S
Mn451 O477 2.117 . S
C452 O474 1.234 . S
C452 O475 1.283 . S
C453 O465 1.281 . S
C453 O466 1.236 . S
C454 O476 1.240 . S
C454 O477 1.264 . S
O455 Mn450 2.095 . S
O455 C464 1.250 . S
O456 Mn451 2.121 . S
O456 C464 1.258 . S
C457 N458 1.326 . S
C457 C461 1.460 . S
C457 H463 0.929 . S
N458 Mn451 2.257 . S
N458 C457 1.326 . S
N458 C462 1.362 . S
C459 C460 1.258 . S
C459 C462 1.431 . S
C459 C479 1.449 . S
C460 C459 1.258 . S
C460 C461 1.477 . S
C460 H480 0.931 . S
C461 C457 1.460 . S
C461 C460 1.477 . S
C461 H481 0.930 . S
C462 N458 1.362 . S
C462 C459 1.431 . S
C462 C472 1.476 . S
H463 C457 0.929 . S
C464 O455 1.250 . S
C464 O456 1.258 . S
O465 Mn450 2.162 . S
O465 C453 1.281 . S
O466 Mn450 2.297 . S
O466 C453 1.236 . S
N467 Mn451 2.282 . S
N467 C468 1.328 . S
N467 C472 1.318 . S
C468 N467 1.328 . S
C468 C469 1.457 . S
C468 H473 0.929 . S
C469 C468 1.457 . S
C469 C470 1.291 . S
C469 H482 0.931 . S
C470 C469 1.291 . S
C470 C471 1.373 . S
C470 H483 0.929 . S
C471 C470 1.373 . S
C471 C472 1.396 . S
C471 C478 1.403 . S
C472 C462 1.476 . S
C472 N467 1.318 . S
C472 C471 1.396 . S
H473 C468 0.929 . S
O474 Mn450 2.385 . S
O474 C452 1.234 . S
O475 Mn450 2.209 . S
O475 Mn451 2.215 . S
O475 C452 1.283 . S
O476 Mn450 2.094 . S
O476 C454 1.240 . S
O477 Mn451 2.117 . S
O477 C454 1.264 . S
C478 C471 1.403 . S
C478 C479 1.399 . S
C478 H484 0.929 . S
C479 C459 1.449 . S
C479 C478 1.399 . S
C479 H485 0.930 . S
H480 C460 0.931 . S
H481 C461 0.930 . S
H482 C469 0.931 . S
H483 C470 0.929 . S
H484 C478 0.929 . S
H485 C479 0.930 . S
Mn486 O491 2.095 . S
Mn486 O501 2.162 . S
Mn486 O502 2.297 . S
Mn486 O510 2.385 . S
Mn486 O511 2.209 . S
Mn486 O512 2.094 . S
Mn487 O492 2.121 . S
Mn487 N494 2.257 . S
Mn487 N503 2.282 . S
Mn487 O511 2.215 . S
Mn487 O513 2.117 . S
C488 O510 1.234 . S
C488 O511 1.283 . S
C489 O501 1.281 . S
C489 O502 1.236 . S
C490 O512 1.240 . S
C490 O513 1.264 . S
O491 Mn486 2.095 . S
O491 C500 1.250 . S
O492 Mn487 2.121 . S
O492 C500 1.258 . S
C493 N494 1.326 . S
C493 C497 1.460 . S
C493 H499 0.929 . S
N494 Mn487 2.257 . S
N494 C493 1.326 . S
N494 C498 1.362 . S
C495 C496 1.258 . S
C495 C498 1.431 . S
C495 C515 1.449 . S
C496 C495 1.258 . S
C496 C497 1.477 . S
C496 H516 0.931 . S
C497 C493 1.460 . S
C497 C496 1.477 . S
C497 H517 0.930 . S
C498 N494 1.362 . S
C498 C495 1.431 . S
C498 C508 1.476 . S
H499 C493 0.929 . S
C500 O491 1.250 . S
C500 O492 1.258 . S
O501 Mn486 2.162 . S
O501 C489 1.281 . S
O502 Mn486 2.297 . S
O502 C489 1.236 . S
N503 Mn487 2.282 . S
N503 C504 1.328 . S
N503 C508 1.318 . S
C504 N503 1.328 . S
C504 C505 1.457 . S
C504 H509 0.929 . S
C505 C504 1.457 . S
C505 C506 1.291 . S
C505 H518 0.931 . S
C506 C505 1.291 . S
C506 C507 1.373 . S
C506 H519 0.929 . S
C507 C506 1.373 . S
C507 C508 1.396 . S
C507 C514 1.403 . S
C508 C498 1.476 . S
C508 N503 1.318 . S
C508 C507 1.396 . S
H509 C504 0.929 . S
O510 Mn486 2.385 . S
O510 C488 1.234 . S
O511 Mn486 2.209 . S
O511 Mn487 2.215 . S
O511 C488 1.283 . S
O512 Mn486 2.094 . S
O512 C490 1.240 . S
O513 Mn487 2.117 . S
O513 C490 1.264 . S
C514 C507 1.403 . S
C514 C515 1.399 . S
C514 H520 0.929 . S
C515 C495 1.449 . S
C515 C514 1.399 . S
C515 H521 0.930 . S
H516 C496 0.931 . S
H517 C497 0.930 . S
H518 C505 0.931 . S
H519 C506 0.929 . S
H520 C514 0.929 . S
H521 C515 0.930 . S
Mn522 O527 2.095 . S
Mn522 O537 2.162 . S
Mn522 O538 2.297 . S
Mn522 O546 2.385 . S
Mn522 O547 2.209 . S
Mn522 O548 2.094 1_455 S
Mn523 O528 2.121 . S
Mn523 N530 2.257 . S
Mn523 N539 2.282 . S
Mn523 O547 2.215 . S
Mn523 O549 2.117 . S
C524 O546 1.234 . S
C524 O547 1.283 . S
C525 O537 1.281 . S
C525 O538 1.236 . S
C526 O548 1.240 . S
C526 O549 1.264 1_655 S
O527 Mn522 2.095 . S
O527 C536 1.250 . S
O528 Mn523 2.121 . S
O528 C536 1.258 . S
C529 N530 1.326 . S
C529 C533 1.460 . S
C529 H535 0.929 . S
N530 Mn523 2.257 . S
N530 C529 1.326 . S
N530 C534 1.362 . S
C531 C532 1.258 . S
C531 C534 1.431 . S
C531 C551 1.449 . S
C532 C531 1.258 . S
C532 C533 1.477 . S
C532 H552 0.931 . S
C533 C529 1.460 . S
C533 C532 1.477 . S
C533 H553 0.930 . S
C534 N530 1.362 . S
C534 C531 1.431 . S
C534 C544 1.476 . S
H535 C529 0.929 . S
C536 O527 1.250 . S
C536 O528 1.258 . S
O537 Mn522 2.162 . S
O537 C525 1.281 . S
O538 Mn522 2.297 . S
O538 C525 1.236 . S
N539 Mn523 2.282 . S
N539 C540 1.328 . S
N539 C544 1.318 . S
C540 N539 1.328 . S
C540 C541 1.457 . S
C540 H545 0.929 . S
C541 C540 1.457 . S
C541 C542 1.291 . S
C541 H554 0.931 . S
C542 C541 1.291 . S
C542 C543 1.373 . S
C542 H555 0.929 . S
C543 C542 1.373 . S
C543 C544 1.396 . S
C543 C550 1.403 . S
C544 C534 1.476 . S
C544 N539 1.318 . S
C544 C543 1.396 . S
H545 C540 0.929 . S
O546 Mn522 2.385 . S
O546 C524 1.234 . S
O547 Mn522 2.209 . S
O547 Mn523 2.215 . S
O547 C524 1.283 . S
O548 Mn522 2.094 1_655 S
O548 C526 1.240 . S
O549 Mn523 2.117 . S
O549 C526 1.264 1_455 S
C550 C543 1.403 . S
C550 C551 1.399 . S
C550 H556 0.929 . S
C551 C531 1.449 . S
C551 C550 1.399 . S
C551 H557 0.930 . S
H552 C532 0.931 . S
H553 C533 0.930 . S
H554 C541 0.931 . S
H555 C542 0.929 . S
H556 C550 0.929 . S
H557 C551 0.930 . S
Mn558 O563 2.095 . S
Mn558 O573 2.162 . S
Mn558 O574 2.297 . S
Mn558 O582 2.385 . S
Mn558 O583 2.209 . S
Mn558 O584 2.094 . S
Mn559 O564 2.121 . S
Mn559 N566 2.257 . S
Mn559 N575 2.282 . S
Mn559 O583 2.215 . S
Mn559 O585 2.117 . S
C560 O582 1.234 . S
C560 O583 1.283 . S
C561 O573 1.281 . S
C561 O574 1.236 . S
C562 O584 1.240 . S
C562 O585 1.264 . S
O563 Mn558 2.095 . S
O563 C572 1.250 . S
O564 Mn559 2.121 . S
O564 C572 1.258 . S
C565 N566 1.326 . S
C565 C569 1.460 . S
C565 H571 0.929 . S
N566 Mn559 2.257 . S
N566 C565 1.326 . S
N566 C570 1.362 . S
C567 C568 1.258 . S
C567 C570 1.431 . S
C567 C587 1.449 . S
C568 C567 1.258 . S
C568 C569 1.477 . S
C568 H588 0.931 . S
C569 C565 1.460 . S
C569 C568 1.477 . S
C569 H589 0.930 . S
C570 N566 1.362 . S
C570 C567 1.431 . S
C570 C580 1.476 . S
H571 C565 0.929 . S
C572 O563 1.250 . S
C572 O564 1.258 . S
O573 Mn558 2.162 . S
O573 C561 1.281 . S
O574 Mn558 2.297 . S
O574 C561 1.236 . S
N575 Mn559 2.282 . S
N575 C576 1.328 . S
N575 C580 1.318 . S
C576 N575 1.328 . S
C576 C577 1.457 . S
C576 H581 0.929 . S
C577 C576 1.457 . S
C577 C578 1.291 . S
C577 H590 0.931 . S
C578 C577 1.291 . S
C578 C579 1.373 . S
C578 H591 0.929 . S
C579 C578 1.373 . S
C579 C580 1.396 . S
C579 C586 1.403 . S
C580 C570 1.476 . S
C580 N575 1.318 . S
C580 C579 1.396 . S
H581 C576 0.929 . S
O582 Mn558 2.385 . S
O582 C560 1.234 . S
O583 Mn558 2.209 . S
O583 Mn559 2.215 . S
O583 C560 1.283 . S
O584 Mn558 2.094 . S
O584 C562 1.240 . S
O585 Mn559 2.117 . S
O585 C562 1.264 . S
C586 C579 1.403 . S
C586 C587 1.399 . S
C586 H592 0.929 . S
C587 C567 1.449 . S
C587 C586 1.399 . S
C587 H593 0.930 . S
H588 C568 0.931 . S
H589 C569 0.930 . S
H590 C577 0.931 . S
H591 C578 0.929 . S
H592 C586 0.929 . S
H593 C587 0.930 . S
Mn594 O599 2.095 . S
Mn594 O609 2.162 . S
Mn594 O610 2.297 . S
Mn594 O618 2.385 . S
Mn594 O619 2.209 . S
Mn594 O620 2.094 . S
Mn595 O600 2.121 . S
Mn595 N602 2.257 1_545 S
Mn595 N611 2.282 . S
Mn595 O619 2.215 . S
Mn595 O621 2.117 . S
C596 O618 1.234 . S
C596 O619 1.283 . S
C597 O609 1.281 . S
C597 O610 1.236 . S
C598 O620 1.240 . S
C598 O621 1.264 . S
O599 Mn594 2.095 . S
O599 C608 1.250 . S
O600 Mn595 2.121 . S
O600 C608 1.258 . S
C601 N602 1.326 . S
C601 C605 1.460 . S
C601 H607 0.929 . S
N602 Mn595 2.257 1_565 S
N602 C601 1.326 . S
N602 C606 1.362 . S
C603 C604 1.258 . S
C603 C606 1.431 . S
C603 C623 1.449 . S
C604 C603 1.258 . S
C604 C605 1.477 . S
C604 H624 0.931 . S
C605 C601 1.460 . S
C605 C604 1.477 . S
C605 H625 0.930 . S
C606 N602 1.362 . S
C606 C603 1.431 . S
C606 C616 1.476 1_565 S
H607 C601 0.929 . S
C608 O599 1.250 . S
C608 O600 1.258 . S
O609 Mn594 2.162 . S
O609 C597 1.281 . S
O610 Mn594 2.297 . S
O610 C597 1.236 . S
N611 Mn595 2.282 . S
N611 C612 1.328 . S
N611 C616 1.318 . S
C612 N611 1.328 . S
C612 C613 1.457 . S
C612 H617 0.929 . S
C613 C612 1.457 . S
C613 C614 1.291 . S
C613 H626 0.931 . S
C614 C613 1.291 . S
C614 C615 1.373 1_545 S
C614 H627 0.929 . S
C615 C614 1.373 1_565 S
C615 C616 1.396 1_565 S
C615 C622 1.403 . S
C616 C606 1.476 1_545 S
C616 N611 1.318 . S
C616 C615 1.396 1_545 S
H617 C612 0.929 . S
O618 Mn594 2.385 . S
O618 C596 1.234 . S
O619 Mn594 2.209 . S
O619 Mn595 2.215 . S
O619 C596 1.283 . S
O620 Mn594 2.094 . S
O620 C598 1.240 . S
O621 Mn595 2.117 . S
O621 C598 1.264 . S
C622 C615 1.403 . S
C622 C623 1.399 . S
C622 H628 0.929 . S
C623 C603 1.449 . S
C623 C622 1.399 . S
C623 H629 0.930 . S
H624 C604 0.931 . S
H625 C605 0.930 . S
H626 C613 0.931 . S
H627 C614 0.929 . S
H628 C622 0.929 . S
H629 C623 0.930 . S
Mn630 O635 2.095 1_545 S
Mn630 O645 2.162 . S
Mn630 O646 2.297 . S
Mn630 O654 2.385 . S
Mn630 O655 2.209 1_545 S
Mn630 O656 2.094 1_545 S
Mn631 O636 2.121 . S
Mn631 N638 2.257 . S
Mn631 N647 2.282 . S
Mn631 O655 2.215 . S
Mn631 O657 2.117 . S
C632 O654 1.235 . S
C632 O655 1.281 1_545 S
C633 O645 1.281 . S
C633 O646 1.236 . S
C634 O656 1.240 . S
C634 O657 1.264 . S
O635 Mn630 2.095 1_565 S
O635 C644 1.250 . S
O636 Mn631 2.121 . S
O636 C644 1.258 . S
C637 N638 1.326 . S
C637 C641 1.460 . S
C637 H643 0.929 . S
N638 Mn631 2.257 . S
N638 C637 1.326 . S
N638 C642 1.362 . S
C639 C640 1.258 . S
C639 C642 1.431 . S
C639 C659 1.449 . S
C640 C639 1.258 . S
C640 C641 1.477 . S
C640 H660 0.931 . S
C641 C637 1.460 . S
C641 C640 1.477 . S
C641 H661 0.930 . S
C642 N638 1.362 . S
C642 C639 1.431 . S
C642 C652 1.476 . S
H643 C637 0.929 . S
C644 O635 1.250 . S
C644 O636 1.258 . S
O645 Mn630 2.162 . S
O645 C633 1.281 . S
O646 Mn630 2.297 . S
O646 C633 1.236 . S
N647 Mn631 2.282 . S
N647 C648 1.328 . S
N647 C652 1.318 . S
C648 N647 1.328 . S
C648 C649 1.457 . S
C648 H653 0.929 . S
C649 C648 1.457 . S
C649 C650 1.291 . S
C649 H662 0.931 . S
C650 C649 1.291 . S
C650 C651 1.373 . S
C650 H663 0.929 . S
C651 C650 1.373 . S
C651 C652 1.396 . S
C651 C658 1.403 . S
C652 C642 1.476 . S
C652 N647 1.318 . S
C652 C651 1.396 . S
H653 C648 0.929 . S
O654 Mn630 2.385 . S
O654 C632 1.235 . S
O655 Mn630 2.209 1_565 S
O655 Mn631 2.215 . S
O655 C632 1.281 1_565 S
O656 Mn630 2.094 1_565 S
O656 C634 1.240 . S
O657 Mn631 2.117 . S
O657 C634 1.264 . S
C658 C651 1.403 . S
C658 C659 1.399 . S
C658 H664 0.929 . S
C659 C639 1.449 . S
C659 C658 1.399 . S
C659 H665 0.930 . S
H660 C640 0.931 . S
H661 C641 0.930 . S
H662 C649 0.931 . S
H663 C650 0.929 . S
H664 C658 0.929 . S
H665 C659 0.930 . S
Mn666 O671 2.095 . S
Mn666 O681 2.162 . S
Mn666 O682 2.297 . S
Mn666 O690 2.385 . S
Mn666 O691 2.209 . S
Mn666 O692 2.094 . S
Mn667 O672 2.121 . S
Mn667 N674 2.257 . S
Mn667 N683 2.282 . S
Mn667 O691 2.215 . S
Mn667 O693 2.117 . S
C668 O690 1.234 . S
C668 O691 1.283 . S
C669 O681 1.281 . S
C669 O682 1.236 . S
C670 O692 1.240 . S
C670 O693 1.264 . S
O671 Mn666 2.095 . S
O671 C680 1.250 . S
O672 Mn667 2.121 . S
O672 C680 1.258 . S
C673 N674 1.326 . S
C673 C677 1.460 . S
C673 H679 0.929 . S
N674 Mn667 2.257 . S
N674 C673 1.326 . S
N674 C678 1.362 . S
C675 C676 1.258 . S
C675 C678 1.431 . S
C675 C695 1.431 1_455 S
C676 C675 1.258 . S
C676 C677 1.477 . S
C676 H696 0.931 . S
C677 C673 1.460 . S
C677 C676 1.477 . S
C677 H697 0.930 . S
C678 N674 1.362 . S
C678 C675 1.431 . S
C678 C688 1.476 . S
H679 C673 0.929 . S
C680 O671 1.250 . S
C680 O672 1.258 . S
O681 Mn666 2.162 . S
O681 C669 1.281 . S
O682 Mn666 2.297 . S
O682 C669 1.236 . S
N683 Mn667 2.282 . S
N683 C684 1.328 . S
N683 C688 1.318 . S
C684 N683 1.328 . S
C684 C685 1.457 . S
C684 H689 0.929 . S
C685 C684 1.457 . S
C685 C686 1.291 . S
C685 H698 0.931 . S
C686 C685 1.291 . S
C686 C687 1.373 . S
C686 H699 0.929 . S
C687 C686 1.373 . S
C687 C688 1.396 . S
C687 C694 1.411 . S
C688 C678 1.476 . S
C688 N683 1.318 . S
C688 C687 1.396 . S
H689 C684 0.929 . S
O690 Mn666 2.385 . S
O690 C668 1.234 . S
O691 Mn666 2.209 . S
O691 Mn667 2.215 . S
O691 C668 1.283 . S
O692 Mn666 2.094 . S
O692 C670 1.240 . S
O693 Mn667 2.117 . S
O693 C670 1.264 . S
C694 C687 1.411 . S
C694 C695 1.394 1_455 S
C694 H700 0.922 1_455 S
C695 C675 1.431 1_655 S
C695 C694 1.394 1_655 S
C695 H701 0.953 . S
H696 C676 0.931 . S
H697 C677 0.930 . S
H698 C685 0.931 . S
H699 C686 0.929 . S
H700 C694 0.922 1_655 S
H701 C695 0.953 . S
Mn702 O707 2.095 . S
Mn702 O717 2.162 . S
Mn702 O718 2.297 . S
Mn702 O726 2.385 . S
Mn702 O727 2.209 . S
Mn702 O728 2.094 . S
Mn703 O708 2.121 . S
Mn703 N710 2.257 . S
Mn703 N719 2.282 . S
Mn703 O727 2.215 . S
Mn703 O729 2.117 . S
C704 O726 1.234 . S
C704 O727 1.283 . S
C705 O717 1.281 . S
C705 O718 1.236 . S
C706 O728 1.240 . S
C706 O729 1.264 . S
O707 Mn702 2.095 . S
O707 C716 1.250 . S
O708 Mn703 2.121 . S
O708 C716 1.258 . S
C709 N710 1.326 . S
C709 C713 1.460 . S
C709 H715 0.929 . S
N710 Mn703 2.257 . S
N710 C709 1.326 . S
N710 C714 1.362 . S
C711 C712 1.258 . S
C711 C714 1.431 . S
C711 C731 1.449 . S
C712 C711 1.258 . S
C712 C713 1.477 . S
C712 H732 0.931 . S
C713 C709 1.460 . S
C713 C712 1.477 . S
C713 H733 0.930 . S
C714 N710 1.362 . S
C714 C711 1.431 . S
C714 C724 1.476 . S
H715 C709 0.929 . S
C716 O707 1.250 . S
C716 O708 1.258 . S
O717 Mn702 2.162 . S
O717 C705 1.281 . S
O718 Mn702 2.297 . S
O718 C705 1.236 . S
N719 Mn703 2.282 . S
N719 C720 1.328 . S
N719 C724 1.318 . S
C720 N719 1.328 . S
C720 C721 1.457 . S
C720 H725 0.929 . S
C721 C720 1.457 . S
C721 C722 1.291 . S
C721 H734 0.931 . S
C722 C721 1.291 . S
C722 C723 1.373 . S
C722 H735 0.929 . S
C723 C722 1.373 . S
C723 C724 1.396 . S
C723 C730 1.403 . S
C724 C714 1.476 . S
C724 N719 1.318 . S
C724 C723 1.396 . S
H725 C720 0.929 . S
O726 Mn702 2.385 . S
O726 C704 1.234 . S
O727 Mn702 2.209 . S
O727 Mn703 2.215 . S
O727 C704 1.283 . S
O728 Mn702 2.094 . S
O728 C706 1.240 . S
O729 Mn703 2.117 . S
O729 C706 1.264 . S
C730 C723 1.403 . S
C730 C731 1.399 . S
C730 H736 0.929 . S
C731 C711 1.449 . S
C731 C730 1.399 . S
C731 H737 0.930 . S
H732 C712 0.931 . S
H733 C713 0.930 . S
H734 C721 0.931 . S
H735 C722 0.929 . S
H736 C730 0.929 . S
H737 C731 0.930 . S
Mn738 O743 2.095 . S
Mn738 O753 2.162 . S
Mn738 O754 2.297 . S
Mn738 O762 2.385 . S
Mn738 O763 2.209 . S
Mn738 O764 2.094 . S
Mn739 O744 2.121 . S
Mn739 N746 2.257 . S
Mn739 N755 2.282 . S
Mn739 O763 2.215 . S
Mn739 O765 2.117 . S
C740 O762 1.234 . S
C740 O763 1.283 . S
C741 O753 1.281 . S
C741 O754 1.236 . S
C742 O764 1.240 . S
C742 O765 1.264 . S
O743 Mn738 2.095 . S
O743 C752 1.250 . S
O744 Mn739 2.121 . S
O744 C752 1.258 . S
C745 N746 1.326 . S
C745 C749 1.460 . S
C745 H751 0.929 . S
N746 Mn739 2.257 . S
N746 C745 1.326 . S
N746 C750 1.362 . S
C747 C748 1.258 . S
C747 C750 1.431 . S
C747 C767 1.449 . S
C748 C747 1.258 . S
C748 C749 1.477 . S
C748 H768 0.931 . S
C749 C745 1.460 . S
C749 C748 1.477 . S
C749 H769 0.930 . S
C750 N746 1.362 . S
C750 C747 1.431 . S
C750 C760 1.476 . S
H751 C745 0.929 . S
C752 O743 1.250 . S
C752 O744 1.258 . S
O753 Mn738 2.162 . S
O753 C741 1.281 . S
O754 Mn738 2.297 . S
O754 C741 1.236 . S
N755 Mn739 2.282 . S
N755 C756 1.328 . S
N755 C760 1.318 . S
C756 N755 1.328 . S
C756 C757 1.457 . S
C756 H761 0.929 . S
C757 C756 1.457 . S
C757 C758 1.291 . S
C757 H770 0.931 . S
C758 C757 1.291 . S
C758 C759 1.373 . S
C758 H771 0.929 . S
C759 C758 1.373 . S
C759 C760 1.396 . S
C759 C766 1.403 . S
C760 C750 1.476 . S
C760 N755 1.318 . S
C760 C759 1.396 . S
H761 C756 0.929 . S
O762 Mn738 2.385 . S
O762 C740 1.234 . S
O763 Mn738 2.209 . S
O763 Mn739 2.215 . S
O763 C740 1.283 . S
O764 Mn738 2.094 . S
O764 C742 1.240 . S
O765 Mn739 2.117 . S
O765 C742 1.264 . S
C766 C759 1.403 . S
C766 C767 1.399 . S
C766 H772 0.929 . S
C767 C747 1.449 . S
C767 C766 1.399 . S
C767 H773 0.930 . S
H768 C748 0.931 . S
H769 C749 0.930 . S
H770 C757 0.931 . S
H771 C758 0.929 . S
H772 C766 0.929 . S
H773 C767 0.930 . S
Mn774 O779 2.095 . S
Mn774 O789 2.162 . S
Mn774 O790 2.297 . S
Mn774 O798 2.385 1_565 S
Mn774 O799 2.209 . S
Mn774 O800 2.094 1_565 S
Mn775 O780 2.121 1_545 S
Mn775 N782 2.257 1_545 S
Mn775 N791 2.282 . S
Mn775 O799 2.215 1_545 S
Mn775 O801 2.117 . S
C776 O798 1.234 1_565 S
C776 O799 1.283 . S
C777 O789 1.281 . S
C777 O790 1.236 . S
C778 O800 1.240 . S
C778 O801 1.264 . S
O779 Mn774 2.095 . S
O779 C788 1.250 . S
O780 Mn775 2.121 1_565 S
O780 C788 1.258 . S
C781 N782 1.326 . S
C781 C785 1.460 . S
C781 H787 0.929 . S
N782 Mn775 2.257 1_565 S
N782 C781 1.326 . S
N782 C786 1.362 . S
C783 C784 1.258 . S
C783 C786 1.431 . S
C783 C803 1.449 . S
C784 C783 1.258 . S
C784 C785 1.477 . S
C784 H804 0.931 . S
C785 C781 1.460 . S
C785 C784 1.477 . S
C785 H805 0.930 . S
C786 N782 1.362 . S
C786 C783 1.431 . S
C786 C796 1.476 1_565 S
H787 C781 0.929 . S
C788 O779 1.250 . S
C788 O780 1.258 . S
O789 Mn774 2.162 . S
O789 C777 1.281 . S
O790 Mn774 2.297 . S
O790 C777 1.236 . S
N791 Mn775 2.282 . S
N791 C792 1.328 . S
N791 C796 1.318 . S
C792 N791 1.328 . S
C792 C793 1.457 . S
C792 H797 0.929 . S
C793 C792 1.457 . S
C793 C794 1.291 . S
C793 H806 0.931 . S
C794 C793 1.291 . S
C794 C795 1.373 . S
C794 H807 0.929 . S
C795 C794 1.373 . S
C795 C796 1.396 . S
C795 C802 1.403 . S
C796 C786 1.476 1_545 S
C796 N791 1.318 . S
C796 C795 1.396 . S
H797 C792 0.929 . S
O798 Mn774 2.385 1_545 S
O798 C776 1.234 1_545 S
O799 Mn774 2.209 . S
O799 Mn775 2.215 1_565 S
O799 C776 1.283 . S
O800 Mn774 2.094 1_545 S
O800 C778 1.240 . S
O801 Mn775 2.117 . S
O801 C778 1.264 . S
C802 C795 1.403 . S
C802 C803 1.399 1_545 S
C802 H808 0.929 . S
C803 C783 1.449 . S
C803 C802 1.399 1_565 S
C803 H809 0.930 . S
H804 C784 0.931 . S
H805 C785 0.930 . S
H806 C793 0.931 . S
H807 C794 0.929 . S
H808 C802 0.929 . S
H809 C803 0.930 . S
Mn810 O815 2.095 . S
Mn810 O825 2.162 . S
Mn810 O826 2.297 . S
Mn810 O834 2.385 . S
Mn810 O835 2.209 . S
Mn810 O836 2.094 . S
Mn811 O816 2.121 . S
Mn811 N818 2.257 . S
Mn811 N827 2.282 . S
Mn811 O835 2.215 . S
Mn811 O837 2.117 . S
C812 O834 1.234 . S
C812 O835 1.283 . S
C813 O825 1.281 . S
C813 O826 1.236 . S
C814 O836 1.240 . S
C814 O837 1.264 . S
O815 Mn810 2.095 . S
O815 C824 1.250 . S
O816 Mn811 2.121 . S
O816 C824 1.258 . S
C817 N818 1.326 . S
C817 C821 1.460 . S
C817 H823 0.929 . S
N818 Mn811 2.257 . S
N818 C817 1.326 . S
N818 C822 1.362 . S
C819 C820 1.258 . S
C819 C822 1.431 1_655 S
C819 C839 1.449 . S
C820 C819 1.258 . S
C820 C821 1.477 1_655 S
C820 H840 0.931 . S
C821 C817 1.460 . S
C821 C820 1.477 1_455 S
C821 H841 0.930 . S
C822 N818 1.362 . S
C822 C819 1.431 1_455 S
C822 C832 1.476 1_455 S
H823 C817 0.929 . S
C824 O815 1.250 . S
C824 O816 1.258 . S
O825 Mn810 2.162 . S
O825 C813 1.281 . S
O826 Mn810 2.297 . S
O826 C813 1.236 . S
N827 Mn811 2.282 . S
N827 C828 1.328 . S
N827 C832 1.318 1_455 S
C828 N827 1.328 . S
C828 C829 1.457 1_455 S
C828 H833 0.929 . S
C829 C828 1.457 1_655 S
C829 C830 1.291 . S
C829 H842 0.931 . S
C830 C829 1.291 . S
C830 C831 1.373 . S
C830 H843 0.929 . S
C831 C830 1.373 . S
C831 C832 1.396 . S
C831 C838 1.403 . S
C832 C822 1.476 1_655 S
C832 N827 1.318 1_655 S
C832 C831 1.396 . S
H833 C828 0.929 . S
O834 Mn810 2.385 . S
O834 C812 1.234 . S
O835 Mn810 2.209 . S
O835 Mn811 2.215 . S
O835 C812 1.283 . S
O836 Mn810 2.094 . S
O836 C814 1.240 . S
O837 Mn811 2.117 . S
O837 C814 1.264 . S
C838 C831 1.403 . S
C838 C839 1.399 . S
C838 H844 0.929 . S
C839 C819 1.449 . S
C839 C838 1.399 . S
C839 H845 0.930 . S
H840 C820 0.931 . S
H841 C821 0.930 . S
H842 C829 0.931 . S
H843 C830 0.929 . S
H844 C838 0.929 . S
H845 C839 0.930 . S
Mn846 O851 2.095 . S
Mn846 O861 2.162 . S
Mn846 O862 2.297 . S
Mn846 O870 2.385 . S
Mn846 O871 2.209 . S
Mn846 O872 2.094 . S
Mn847 O852 2.121 . S
Mn847 N854 2.257 . S
Mn847 N863 2.282 . S
Mn847 O871 2.215 . S
Mn847 O873 2.117 . S
C848 O870 1.234 . S
C848 O871 1.283 . S
C849 O861 1.281 . S
C849 O862 1.236 . S
C850 O872 1.240 . S
C850 O873 1.264 . S
O851 Mn846 2.095 . S
O851 C860 1.250 . S
O852 Mn847 2.121 . S
O852 C860 1.258 . S
C853 N854 1.326 . S
C853 C857 1.460 . S
C853 H859 0.929 . S
N854 Mn847 2.257 . S
N854 C853 1.326 . S
N854 C858 1.362 . S
C855 C856 1.258 . S
C855 C858 1.431 . S
C855 C875 1.449 . S
C856 C855 1.258 . S
C856 C857 1.477 . S
C856 H876 0.931 . S
C857 C853 1.460 . S
C857 C856 1.477 . S
C857 H877 0.930 . S
C858 N854 1.362 . S
C858 C855 1.431 . S
C858 C868 1.476 . S
H859 C853 0.929 . S
C860 O851 1.250 . S
C860 O852 1.258 . S
O861 Mn846 2.162 . S
O861 C849 1.281 . S
O862 Mn846 2.297 . S
O862 C849 1.236 . S
N863 Mn847 2.282 . S
N863 C864 1.328 . S
N863 C868 1.318 . S
C864 N863 1.328 . S
C864 C865 1.457 . S
C864 H869 0.929 . S
C865 C864 1.457 . S
C865 C866 1.291 . S
C865 H878 0.931 . S
C866 C865 1.291 . S
C866 C867 1.373 . S
C866 H879 0.929 . S
C867 C866 1.373 . S
C867 C868 1.396 . S
C867 C874 1.403 . S
C868 C858 1.476 . S
C868 N863 1.318 . S
C868 C867 1.396 . S
H869 C864 0.929 . S
O870 Mn846 2.385 . S
O870 C848 1.234 . S
O871 Mn846 2.209 . S
O871 Mn847 2.215 . S
O871 C848 1.283 . S
O872 Mn846 2.094 . S
O872 C850 1.240 . S
O873 Mn847 2.117 . S
O873 C850 1.264 . S
C874 C867 1.403 . S
C874 C875 1.399 . S
C874 H880 0.929 . S
C875 C855 1.449 . S
C875 C874 1.399 . S
C875 H881 0.930 . S
H876 C856 0.931 . S
H877 C857 0.930 . S
H878 C865 0.931 . S
H879 C866 0.929 . S
H880 C874 0.929 . S
H881 C875 0.930 . S
Mn882 O887 2.095 . S
Mn882 O897 2.162 . S
Mn882 O898 2.297 . S
Mn882 O906 2.385 . S
Mn882 O907 2.209 . S
Mn882 O908 2.094 . S
Mn883 O888 2.121 . S
Mn883 N890 2.257 . S
Mn883 N899 2.282 . S
Mn883 O907 2.215 . S
Mn883 O909 2.117 . S
C884 O906 1.234 . S
C884 O907 1.283 . S
C885 O897 1.281 . S
C885 O898 1.236 . S
C886 O908 1.240 . S
C886 O909 1.264 . S
O887 Mn882 2.095 . S
O887 C896 1.250 . S
O888 Mn883 2.121 . S
O888 C896 1.258 . S
C889 N890 1.326 . S
C889 C893 1.460 . S
C889 H895 0.929 . S
N890 Mn883 2.257 . S
N890 C889 1.326 . S
N890 C894 1.362 . S
C891 C892 1.258 . S
C891 C894 1.431 . S
C891 C911 1.449 . S
C892 C891 1.258 . S
C892 C893 1.477 . S
C892 H912 0.931 . S
C893 C889 1.460 . S
C893 C892 1.477 . S
C893 H913 0.930 . S
C894 N890 1.362 . S
C894 C891 1.431 . S
C894 C904 1.476 . S
H895 C889 0.929 . S
C896 O887 1.250 . S
C896 O888 1.258 . S
O897 Mn882 2.162 . S
O897 C885 1.281 . S
O898 Mn882 2.297 . S
O898 C885 1.236 . S
N899 Mn883 2.282 . S
N899 C900 1.328 . S
N899 C904 1.318 . S
C900 N899 1.328 . S
C900 C901 1.457 . S
C900 H905 0.929 . S
C901 C900 1.457 . S
C901 C902 1.291 . S
C901 H914 0.931 1_556 S
C902 C901 1.291 . S
C902 C903 1.373 . S
C902 H915 0.929 . S
C903 C902 1.373 . S
C903 C904 1.396 . S
C903 C910 1.403 . S
C904 C894 1.476 . S
C904 N899 1.318 . S
C904 C903 1.396 . S
H905 C900 0.929 . S
O906 Mn882 2.385 . S
O906 C884 1.234 . S
O907 Mn882 2.209 . S
O907 Mn883 2.215 . S
O907 C884 1.283 . S
O908 Mn882 2.094 . S
O908 C886 1.240 . S
O909 Mn883 2.117 . S
O909 C886 1.264 . S
C910 C903 1.403 . S
C910 C911 1.399 . S
C910 H916 0.929 . S
C911 C891 1.449 . S
C911 C910 1.399 . S
C911 H917 0.930 . S
H912 C892 0.931 . S
H913 C893 0.930 . S
H914 C901 0.931 1_554 S
H915 C902 0.929 . S
H916 C910 0.929 . S
H917 C911 0.930 . S
Mn918 O923 2.095 . S
Mn918 O933 2.162 . S
Mn918 O934 2.297 . S
Mn918 O942 2.385 1_655 S
Mn918 O943 2.209 . S
Mn918 O944 2.094 . S
Mn919 O924 2.121 . S
Mn919 N926 2.257 . S
Mn919 N935 2.282 . S
Mn919 O943 2.215 . S
Mn919 O945 2.117 . S
C920 O942 1.234 . S
C920 O943 1.283 1_455 S
C921 O933 1.281 . S
C921 O934 1.236 . S
C922 O944 1.240 . S
C922 O945 1.264 . S
O923 Mn918 2.095 . S
O923 C932 1.250 . S
O924 Mn919 2.121 . S
O924 C932 1.258 . S
C925 N926 1.326 . S
C925 C929 1.460 . S
C925 H931 0.929 . S
N926 Mn919 2.257 . S
N926 C925 1.326 . S
N926 C930 1.362 . S
C927 C928 1.258 . S
C927 C930 1.431 1_455 S
C927 C947 1.449 . S
C928 C927 1.258 . S
C928 C929 1.477 1_455 S
C928 H948 0.931 . S
C929 C925 1.460 . S
C929 C928 1.477 1_655 S
C929 H949 0.930 . S
C930 N926 1.362 . S
C930 C927 1.431 1_655 S
C930 C940 1.476 . S
H931 C925 0.929 . S
C932 O923 1.250 . S
C932 O924 1.258 . S
O933 Mn918 2.162 . S
O933 C921 1.281 . S
O934 Mn918 2.297 . S
O934 C921 1.236 . S
N935 Mn919 2.282 . S
N935 C936 1.328 . S
N935 C940 1.318 . S
C936 N935 1.328 . S
C936 C937 1.461 . S
C936 H941 0.929 . S
C937 C936 1.461 . S
C937 C938 1.290 1_655 S
C937 H950 0.921 1_655 S
C938 C937 1.290 1_455 S
C938 C939 1.373 . S
C938 H951 0.929 . S
C939 C938 1.373 . S
C939 C940 1.396 1_455 S
C939 C946 1.403 . S
C940 C930 1.476 . S
C940 N935 1.318 . S
C940 C939 1.396 1_655 S
H941 C936 0.929 . S
O942 Mn918 2.385 1_455 S
O942 C920 1.234 . S
O943 Mn918 2.209 . S
O943 Mn919 2.215 . S
O943 C920 1.283 1_655 S
O944 Mn918 2.094 . S
O944 C922 1.240 . S
O945 Mn919 2.117 . S
O945 C922 1.264 . S
C946 C939 1.403 . S
C946 C947 1.399 . S
C946 H952 0.929 . S
C947 C927 1.449 . S
C947 C946 1.399 . S
C947 H953 0.930 . S
H948 C928 0.931 . S
H949 C929 0.930 . S
H950 C937 0.921 1_455 S
H951 C938 0.929 . S
H952 C946 0.929 . S
H953 C947 0.930 . S
Mn954 O959 2.095 . S
Mn954 O969 2.162 . S
Mn954 O970 2.297 . S
Mn954 O978 2.385 . S
Mn954 O979 2.209 . S
Mn954 O980 2.094 . S
Mn955 O960 2.121 . S
Mn955 N962 2.257 . S
Mn955 N971 2.282 . S
Mn955 O979 2.215 . S
Mn955 O981 2.117 . S
C956 O978 1.234 . S
C956 O979 1.283 . S
C957 O969 1.281 . S
C957 O970 1.236 . S
C958 O980 1.240 . S
C958 O981 1.264 . S
O959 Mn954 2.095 . S
O959 C968 1.250 . S
O960 Mn955 2.121 . S
O960 C968 1.258 . S
C961 N962 1.326 . S
C961 C965 1.460 . S
C961 H967 0.929 . S
N962 Mn955 2.257 . S
N962 C961 1.326 . S
N962 C966 1.362 . S
C963 C964 1.258 . S
C963 C966 1.431 . S
C963 C983 1.449 . S
C964 C963 1.258 . S
C964 C965 1.477 . S
C964 H984 0.931 . S
C965 C961 1.460 . S
C965 C964 1.477 . S
C965 H985 0.930 . S
C966 N962 1.362 . S
C966 C963 1.431 . S
C966 C976 1.476 . S
H967 C961 0.929 . S
C968 O959 1.250 . S
C968 O960 1.258 . S
O969 Mn954 2.162 . S
O969 C957 1.281 . S
O970 Mn954 2.297 . S
O970 C957 1.236 . S
N971 Mn955 2.282 . S
N971 C972 1.328 . S
N971 C976 1.318 . S
C972 N971 1.328 . S
C972 C973 1.457 . S
C972 H977 0.929 . S
C973 C972 1.457 . S
C973 C974 1.291 . S
C973 H986 0.931 . S
C974 C973 1.291 . S
C974 C975 1.373 . S
C974 H987 0.929 . S
C975 C974 1.373 . S
C975 C976 1.396 . S
C975 C982 1.403 . S
C976 C966 1.476 . S
C976 N971 1.318 . S
C976 C975 1.396 . S
H977 C972 0.929 . S
O978 Mn954 2.385 . S
O978 C956 1.234 . S
O979 Mn954 2.209 . S
O979 Mn955 2.215 . S
O979 C956 1.283 . S
O980 Mn954 2.094 . S
O980 C958 1.240 . S
O981 Mn955 2.117 . S
O981 C958 1.264 . S
C982 C975 1.403 . S
C982 C983 1.399 . S
C982 H988 0.929 . S
C983 C963 1.449 . S
C983 C982 1.399 . S
C983 H989 0.930 . S
H984 C964 0.931 . S
H985 C965 0.930 . S
H986 C973 0.931 . S
H987 C974 0.929 . S
H988 C982 0.929 . S
H989 C983 0.930 . S
Mn990 O995 2.095 . S
Mn990 O1005 2.162 . S
Mn990 O1006 2.297 . S
Mn990 O1014 2.385 . S
Mn990 O1015 2.209 . S
Mn990 O1016 2.094 . S
Mn991 O996 2.121 . S
Mn991 N998 2.257 1_655 S
Mn991 N1007 2.282 1_655 S
Mn991 O1015 2.215 . S
Mn991 O1017 2.117 . S
C992 O1014 1.234 . S
C992 O1015 1.283 . S
C993 O1005 1.281 . S
C993 O1006 1.236 . S
C994 O1016 1.240 . S
C994 O1017 1.264 . S
O995 Mn990 2.095 . S
O995 C1004 1.250 . S
O996 Mn991 2.121 . S
O996 C1004 1.258 . S
C997 N998 1.326 1_655 S
C997 C1001 1.460 1_655 S
C997 H1003 0.929 . S
N998 Mn991 2.257 1_455 S
N998 C997 1.326 1_455 S
N998 C1002 1.362 . S
C999 C1000 1.258 . S
C999 C1002 1.431 . S
C999 C1019 1.449 . S
C1000 C999 1.258 . S
C1000 C1001 1.477 . S
C1000 H1020 0.931 . S
C1001 C997 1.460 1_455 S
C1001 C1000 1.477 . S
C1001 H1021 0.930 1_455 S
C1002 N998 1.362 . S
C1002 C999 1.431 . S
C1002 C1012 1.476 . S
H1003 C997 0.929 . S
C1004 O995 1.250 . S
C1004 O996 1.258 . S
O1005 Mn990 2.162 . S
O1005 C993 1.281 . S
O1006 Mn990 2.297 . S
O1006 C993 1.236 . S
N1007 Mn991 2.282 1_455 S
N1007 C1008 1.328 . S
N1007 C1012 1.318 . S
C1008 N1007 1.328 . S
C1008 C1009 1.457 . S
C1008 H1013 0.929 . S
C1009 C1008 1.457 . S
C1009 C1010 1.291 . S
C1009 H1022 0.931 . S
C1010 C1009 1.291 . S
C1010 C1011 1.373 . S
C1010 H1023 0.929 . S
C1011 C1010 1.373 . S
C1011 C1012 1.396 . S
C1011 C1018 1.403 . S
C1012 C1002 1.476 . S
C1012 N1007 1.318 . S
C1012 C1011 1.396 . S
H1013 C1008 0.929 . S
O1014 Mn990 2.385 . S
O1014 C992 1.234 . S
O1015 Mn990 2.209 . S
O1015 Mn991 2.215 . S
O1015 C992 1.283 . S
O1016 Mn990 2.094 . S
O1016 C994 1.240 . S
O1017 Mn991 2.117 . S
O1017 C994 1.264 . S
C1018 C1011 1.403 . S
C1018 C1019 1.399 . S
C1018 H1024 0.929 . S
C1019 C999 1.449 . S
C1019 C1018 1.399 . S
C1019 H1025 0.930 . S
H1020 C1000 0.931 . S
H1021 C1001 0.930 1_655 S
H1022 C1009 0.931 . S
H1023 C1010 0.929 . S
H1024 C1018 0.929 . S
H1025 C1019 0.930 . S
Mn1026 O1031 2.095 . S
Mn1026 O1041 2.162 . S
Mn1026 O1042 2.297 . S
Mn1026 O1050 2.385 . S
Mn1026 O1051 2.209 . S
Mn1026 O1052 2.094 . S
Mn1027 O1032 2.121 . S
Mn1027 N1034 2.257 . S
Mn1027 N1043 2.282 . S
Mn1027 O1051 2.215 . S
Mn1027 O1053 2.117 . S
C1028 O1050 1.234 . S
C1028 O1051 1.283 . S
C1029 O1041 1.281 . S
C1029 O1042 1.236 . S
C1030 O1052 1.240 . S
C1030 O1053 1.264 . S
O1031 Mn1026 2.095 . S
O1031 C1040 1.250 . S
O1032 Mn1027 2.121 . S
O1032 C1040 1.258 . S
C1033 N1034 1.326 . S
C1033 C1037 1.460 . S
C1033 H1039 0.929 . S
N1034 Mn1027 2.257 . S
N1034 C1033 1.326 . S
N1034 C1038 1.362 . S
C1035 C1036 1.258 . S
C1035 C1038 1.431 . S
C1035 C1055 1.449 . S
C1036 C1035 1.258 . S
C1036 C1037 1.477 . S
C1036 H1056 0.931 . S
C1037 C1033 1.460 . S
C1037 C1036 1.477 . S
C1037 H1057 0.930 . S
C1038 N1034 1.362 . S
C1038 C1035 1.431 . S
C1038 C1048 1.476 . S
H1039 C1033 0.929 . S
C1040 O1031 1.250 . S
C1040 O1032 1.258 . S
O1041 Mn1026 2.162 . S
O1041 C1029 1.281 . S
O1042 Mn1026 2.297 . S
O1042 C1029 1.236 . S
N1043 Mn1027 2.282 . S
N1043 C1044 1.328 . S
N1043 C1048 1.318 . S
C1044 N1043 1.328 . S
C1044 C1045 1.457 . S
C1044 H1049 0.929 . S
C1045 C1044 1.457 . S
C1045 C1046 1.291 . S
C1045 H1058 0.931 . S
C1046 C1045 1.291 . S
C1046 C1047 1.373 . S
C1046 H1059 0.929 . S
C1047 C1046 1.373 . S
C1047 C1048 1.396 . S
C1047 C1054 1.403 . S
C1048 C1038 1.476 . S
C1048 N1043 1.318 . S
C1048 C1047 1.396 . S
H1049 C1044 0.929 . S
O1050 Mn1026 2.385 . S
O1050 C1028 1.234 . S
O1051 Mn1026 2.209 . S
O1051 Mn1027 2.215 . S
O1051 C1028 1.283 . S
O1052 Mn1026 2.094 . S
O1052 C1030 1.240 . S
O1053 Mn1027 2.117 . S
O1053 C1030 1.264 . S
C1054 C1047 1.403 . S
C1054 C1055 1.399 . S
C1054 H1060 0.929 . S
C1055 C1035 1.449 . S
C1055 C1054 1.399 . S
C1055 H1061 0.930 . S
H1056 C1036 0.931 . S
H1057 C1037 0.930 . S
H1058 C1045 0.931 . S
H1059 C1046 0.929 . S
H1060 C1054 0.929 . S
H1061 C1055 0.930 . S
C1062 C1063 1.349 . S
C1062 C1064 1.327 . S
C1062 H1087 0.950 . S
C1063 C1062 1.349 . S
C1063 C1079 1.349 . S
C1064 C1062 1.327 . S
C1064 C1083 1.429 . S
C1064 H1088 0.950 . S
C1065 C1082 1.574 . S
C1065 C1084 1.368 . S
C1065 H1089 0.949 . S
H1066 C1070 0.949 . S
C1067 C1068 1.349 . S
C1067 C1069 1.327 . S
C1067 H1090 0.950 . S
C1068 C1067 1.349 . S
C1068 C1080 1.349 . S
C1069 C1067 1.327 . S
C1069 C1085 1.429 . S
C1069 H1091 0.950 . S
C1070 H1066 0.949 . S
C1070 C1078 1.574 . S
C1070 C1086 1.368 . S
H1071 C1079 0.950 . S
H1072 C1077 0.950 . S
H1073 C1078 0.949 . S
H1074 C1080 0.950 . S
H1075 C1081 0.950 . S
H1076 C1082 0.949 . S
C1077 H1072 0.950 . S
C1077 C1079 1.327 . S
C1077 C1083 1.429 . S
C1078 C1070 1.574 . S
C1078 H1073 0.949 . S
C1078 C1084 1.368 . S
C1079 C1063 1.349 . S
C1079 H1071 0.950 . S
C1079 C1077 1.327 . S
C1080 C1068 1.349 . S
C1080 H1074 0.950 . S
C1080 C1081 1.327 . S
C1081 H1075 0.950 . S
C1081 C1080 1.327 . S
C1081 C1085 1.429 . S
C1082 C1065 1.574 . S
C1082 H1076 0.949 . S
C1082 C1086 1.368 . S
C1083 C1064 1.429 . S
C1083 C1077 1.429 . S
C1083 C1084 1.523 . S
C1084 C1065 1.368 . S
C1084 C1078 1.368 . S
C1084 C1083 1.523 . S
C1085 C1069 1.429 . S
C1085 C1081 1.429 . S
C1085 C1086 1.523 . S
C1086 C1070 1.368 . S
C1086 C1082 1.368 . S
C1086 C1085 1.523 . S
H1087 C1062 0.950 . S
H1088 C1064 0.950 . S
H1089 C1065 0.949 . S
H1090 C1067 0.950 . S
H1091 C1069 0.950 . S
C1092 C1093 1.349 . S
C1092 C1094 1.327 . S
C1092 H1117 0.950 . S
C1093 C1092 1.349 . S
C1093 C1109 1.349 . S
C1094 C1092 1.327 . S
C1094 C1113 1.429 . S
C1094 H1118 0.950 . S
C1095 C1112 1.574 . S
C1095 C1114 1.368 . S
C1095 H1119 0.949 . S
H1096 C1100 0.949 . S
C1097 C1098 1.349 . S
C1097 C1099 1.327 . S
C1097 H1120 0.950 . S
C1098 C1097 1.349 . S
C1098 C1110 1.349 . S
C1099 C1097 1.327 . S
C1099 C1115 1.429 . S
C1099 H1121 0.950 . S
C1100 H1096 0.949 . S
C1100 C1108 1.574 . S
C1100 C1116 1.368 . S
H1101 C1109 0.950 . S
H1102 C1107 0.950 . S
H1103 C1108 0.949 . S
H1104 C1110 0.950 . S
H1105 C1111 0.950 . S
H1106 C1112 0.949 . S
C1107 H1102 0.950 . S
C1107 C1109 1.327 . S
C1107 C1113 1.429 . S
C1108 C1100 1.574 . S
C1108 H1103 0.949 . S
C1108 C1114 1.368 . S
C1109 C1093 1.349 . S
C1109 H1101 0.950 . S
C1109 C1107 1.327 . S
C1110 C1098 1.349 . S
C1110 H1104 0.950 . S
C1110 C1111 1.327 . S
C1111 H1105 0.950 . S
C1111 C1110 1.327 . S
C1111 C1115 1.429 . S
C1112 C1095 1.574 . S
C1112 H1106 0.949 . S
C1112 C1116 1.368 . S
C1113 C1094 1.429 . S
C1113 C1107 1.429 . S
C1113 C1114 1.523 . S
C1114 C1095 1.368 . S
C1114 C1108 1.368 . S
C1114 C1113 1.523 . S
C1115 C1099 1.429 . S
C1115 C1111 1.429 . S
C1115 C1116 1.523 . S
C1116 C1100 1.368 . S
C1116 C1112 1.368 . S
C1116 C1115 1.523 . S
H1117 C1092 0.950 . S
H1118 C1094 0.950 . S
H1119 C1095 0.949 . S
H1120 C1097 0.950 . S
H1121 C1099 0.950 . S
C1122 C1123 1.330 1_565 S
C1122 C1124 1.327 . S
C1122 H1147 0.950 . S
C1123 C1122 1.330 1_545 S
C1123 C1139 1.386 . S
C1124 C1122 1.327 . S
C1124 C1143 1.496 . S
C1124 H1148 0.950 . S
C1125 C1142 1.574 . S
C1125 C1144 1.368 1_545 S
C1125 H1149 0.949 . S
H1126 C1130 0.949 . S
C1127 C1128 1.349 1_545 S
C1127 C1129 1.327 . S
C1127 H1150 0.950 . S
C1128 C1127 1.349 1_565 S
C1128 C1140 1.349 . S
C1129 C1127 1.327 . S
C1129 C1145 1.429 1_545 S
C1129 H1151 0.950 . S
C1130 H1126 0.949 . S
C1130 C1138 1.574 . S
C1130 C1146 1.368 . S
H1131 C1139 0.950 . S
H1132 C1137 0.950 . S
H1133 C1138 0.949 . S
H1134 C1140 0.950 . S
H1135 C1141 0.950 . S
H1136 C1142 0.949 . S
C1137 H1132 0.950 . S
C1137 C1139 1.327 . S
C1137 C1143 1.398 1_545 S
C1138 C1130 1.574 . S
C1138 H1133 0.949 . S
C1138 C1144 1.368 . S
C1139 C1123 1.386 . S
C1139 H1131 0.950 . S
C1139 C1137 1.327 . S
C1140 C1128 1.349 . S
C1140 H1134 0.950 . S
C1140 C1141 1.327 . S
C1141 H1135 0.950 . S
C1141 C1140 1.327 . S
C1141 C1145 1.429 . S
C1142 C1125 1.574 . S
C1142 H1136 0.949 . S
C1142 C1146 1.368 1_545 S
C1143 C1124 1.496 . S
C1143 C1137 1.398 1_565 S
C1143 C1144 1.492 . S
C1144 C1125 1.368 1_565 S
C1144 C1138 1.368 . S
C1144 C1143 1.492 . S
C1145 C1129 1.429 1_565 S
C1145 C1141 1.429 . S
C1145 C1146 1.523 . S
C1146 C1130 1.368 . S
C1146 C1142 1.368 1_565 S
C1146 C1145 1.523 . S
H1147 C1122 0.950 . S
H1148 C1124 0.950 . S
H1149 C1125 0.949 . S
H1150 C1127 0.950 . S
H1151 C1129 0.950 . S
C1152 C1153 1.349 . S
C1152 C1154 1.327 . S
C1152 H1177 0.950 . S
C1153 C1152 1.349 . S
C1153 C1169 1.349 . S
C1154 C1152 1.327 . S
C1154 C1173 1.429 . S
C1154 H1178 0.950 . S
C1155 C1172 1.574 . S
C1155 C1174 1.368 . S
C1155 H1179 0.949 . S
H1156 C1160 0.949 . S
C1157 C1158 1.349 . S
C1157 C1159 1.327 . S
C1157 H1180 0.950 . S
C1158 C1157 1.349 . S
C1158 C1170 1.349 . S
C1159 C1157 1.327 . S
C1159 C1175 1.429 . S
C1159 H1181 0.950 . S
C1160 H1156 0.949 . S
C1160 C1168 1.574 . S
C1160 C1176 1.368 . S
H1161 C1169 0.950 . S
H1162 C1167 0.950 . S
H1163 C1168 0.949 . S
H1164 C1170 0.950 . S
H1165 C1171 0.950 . S
H1166 C1172 0.949 . S
C1167 H1162 0.950 . S
C1167 C1169 1.327 . S
C1167 C1173 1.429 . S
C1168 C1160 1.574 . S
C1168 H1163 0.949 . S
C1168 C1174 1.368 . S
C1169 C1153 1.349 . S
C1169 H1161 0.950 . S
C1169 C1167 1.327 . S
C1170 C1158 1.349 . S
C1170 H1164 0.950 . S
C1170 C1171 1.327 . S
C1171 H1165 0.950 . S
C1171 C1170 1.327 . S
C1171 C1175 1.429 . S
C1172 C1155 1.574 . S
C1172 H1166 0.949 . S
C1172 C1176 1.368 . S
C1173 C1154 1.429 . S
C1173 C1167 1.429 . S
C1173 C1174 1.523 . S
C1174 C1155 1.368 . S
C1174 C1168 1.368 . S
C1174 C1173 1.523 . S
C1175 C1159 1.429 . S
C1175 C1171 1.429 . S
C1175 C1176 1.523 . S
C1176 C1160 1.368 . S
C1176 C1172 1.368 . S
C1176 C1175 1.523 . S
H1177 C1152 0.950 . S
H1178 C1154 0.950 . S
H1179 C1155 0.949 . S
H1180 C1157 0.950 . S
H1181 C1159 0.950 . S
C1182 C1183 1.349 . S
C1182 C1184 1.327 . S
C1182 H1207 0.950 . S
C1183 C1182 1.349 . S
C1183 C1199 1.349 . S
C1184 C1182 1.327 . S
C1184 C1203 1.429 . S
C1184 H1208 0.950 . S
C1185 C1202 1.574 . S
C1185 C1204 1.368 . S
C1185 H1209 0.949 . S
H1186 C1190 0.949 1_655 S
C1187 C1188 1.335 1_455 S
C1187 C1189 1.324 . S
C1187 H1210 0.968 . S
C1188 C1187 1.335 1_655 S
C1188 C1200 1.349 . S
C1189 C1187 1.324 . S
C1189 C1205 1.429 . S
C1189 H1211 0.950 . S
C1190 H1186 0.949 1_455 S
C1190 C1198 1.574 . S
C1190 C1206 1.368 . S
H1191 C1199 0.950 . S
H1192 C1197 0.950 . S
H1193 C1198 0.949 . S
H1194 C1200 0.950 . S
H1195 C1201 0.950 . S
H1196 C1202 0.949 . S
C1197 H1192 0.950 . S
C1197 C1199 1.327 . S
C1197 C1203 1.429 . S
C1198 C1190 1.574 . S
C1198 H1193 0.949 . S
C1198 C1204 1.368 . S
C1199 C1183 1.349 . S
C1199 H1191 0.950 . S
C1199 C1197 1.327 . S
C1200 C1188 1.349 . S
C1200 H1194 0.950 . S
C1200 C1201 1.327 . S
C1201 H1195 0.950 . S
C1201 C1200 1.327 . S
C1201 C1205 1.429 1_655 S
C1202 C1185 1.574 . S
C1202 H1196 0.949 . S
C1202 C1206 1.368 . S
C1203 C1184 1.429 . S
C1203 C1197 1.429 . S
C1203 C1204 1.523 . S
C1204 C1185 1.368 . S
C1204 C1198 1.368 . S
C1204 C1203 1.523 . S
C1205 C1189 1.429 . S
C1205 C1201 1.429 1_455 S
C1205 C1206 1.523 . S
C1206 C1190 1.368 . S
C1206 C1202 1.368 . S
C1206 C1205 1.523 . S
H1207 C1182 0.950 . S
H1208 C1184 0.950 . S
H1209 C1185 0.949 . S
H1210 C1187 0.968 . S
H1211 C1189 0.950 . S
C1212 C1213 1.349 . S
C1212 C1214 1.327 . S
C1212 H1237 0.950 . S
C1213 C1212 1.349 . S
C1213 C1229 1.349 . S
C1214 C1212 1.327 . S
C1214 C1233 1.429 . S
C1214 H1238 0.950 . S
C1215 C1232 1.574 . S
C1215 C1234 1.368 . S
C1215 H1239 0.949 . S
H1216 C1220 0.949 . S
C1217 C1218 1.349 . S
C1217 C1219 1.327 . S
C1217 H1240 0.950 . S
C1218 C1217 1.349 . S
C1218 C1230 1.349 . S
C1219 C1217 1.327 . S
C1219 C1235 1.429 . S
C1219 H1241 0.950 . S
C1220 H1216 0.949 . S
C1220 C1228 1.574 . S
C1220 C1236 1.368 . S
H1221 C1229 0.950 . S
H1222 C1227 0.950 . S
H1223 C1228 0.949 . S
H1224 C1230 0.950 . S
H1225 C1231 0.950 . S
H1226 C1232 0.949 . S
C1227 H1222 0.950 . S
C1227 C1229 1.327 . S
C1227 C1233 1.429 . S
C1228 C1220 1.574 . S
C1228 H1223 0.949 . S
C1228 C1234 1.368 . S
C1229 C1213 1.349 . S
C1229 H1221 0.950 . S
C1229 C1227 1.327 . S
C1230 C1218 1.349 . S
C1230 H1224 0.950 . S
C1230 C1231 1.327 . S
C1231 H1225 0.950 . S
C1231 C1230 1.327 . S
C1231 C1235 1.429 . S
C1232 C1215 1.574 . S
C1232 H1226 0.949 . S
C1232 C1236 1.368 . S
C1233 C1214 1.429 . S
C1233 C1227 1.429 . S
C1233 C1234 1.523 . S
C1234 C1215 1.368 . S
C1234 C1228 1.368 . S
C1234 C1233 1.523 . S
C1235 C1219 1.429 . S
C1235 C1231 1.429 . S
C1235 C1236 1.523 . S
C1236 C1220 1.368 . S
C1236 C1232 1.368 . S
C1236 C1235 1.523 . S
H1237 C1212 0.950 . S
H1238 C1214 0.950 . S
H1239 C1215 0.949 . S
H1240 C1217 0.950 . S
H1241 C1219 0.950 . S
C1242 C1243 1.386 . S
C1242 C1244 1.342 . S
C1242 H1267 0.899 1_556 S
C1243 C1242 1.386 . S
C1243 C1259 1.349 . S
C1244 C1242 1.342 . S
C1244 C1263 1.429 . S
C1244 H1268 0.950 1_556 S
C1245 C1262 1.574 . S
C1245 C1264 1.368 . S
C1245 H1269 0.949 . S
H1246 C1250 0.949 . S
C1247 C1248 1.349 . S
C1247 C1249 1.336 . S
C1247 H1270 0.950 . S
C1248 C1247 1.349 . S
C1248 C1260 1.349 1_655 S
C1249 C1247 1.336 . S
C1249 C1265 1.423 1_655 S
C1249 H1271 0.946 . S
C1250 H1246 0.949 . S
C1250 C1258 1.574 . S
C1250 C1266 1.368 . S
H1251 C1259 0.950 . S
H1252 C1257 0.950 . S
H1253 C1258 0.949 . S
H1254 C1260 0.950 . S
H1255 C1261 0.950 . S
H1256 C1262 0.949 . S
C1257 H1252 0.950 . S
C1257 C1259 1.327 . S
C1257 C1263 1.429 . S
C1258 C1250 1.574 . S
C1258 H1253 0.949 . S
C1258 C1264 1.368 . S
C1259 C1243 1.349 . S
C1259 H1251 0.950 . S
C1259 C1257 1.327 . S
C1260 C1248 1.349 1_455 S
C1260 H1254 0.950 . S
C1260 C1261 1.327 . S
C1261 H1255 0.950 . S
C1261 C1260 1.327 . S
C1261 C1265 1.429 . S
C1262 C1245 1.574 . S
C1262 H1256 0.949 . S
C1262 C1266 1.368 . S
C1263 C1244 1.429 . S
C1263 C1257 1.429 . S
C1263 C1264 1.523 . S
C1264 C1245 1.368 . S
C1264 C1258 1.368 . S
C1264 C1263 1.523 . S
C1265 C1249 1.423 1_455 S
C1265 C1261 1.429 . S
C1265 C1266 1.523 . S
C1266 C1250 1.368 . S
C1266 C1262 1.368 . S
C1266 C1265 1.523 . S
H1267 C1242 0.899 1_554 S
H1268 C1244 0.950 1_554 S
H1269 C1245 0.949 . S
H1270 C1247 0.950 . S
H1271 C1249 0.946 . S
C1272 C1273 1.349 . S
C1272 C1274 1.327 . S
C1272 H1297 0.950 . S
C1273 C1272 1.349 . S
C1273 C1289 1.341 1_556 S
C1274 C1272 1.327 . S
C1274 C1293 1.429 . S
C1274 H1298 0.950 . S
C1275 C1292 1.574 . S
C1275 C1294 1.368 . S
C1275 H1299 0.949 . S
H1276 C1280 0.949 . S
C1277 C1278 1.349 . S
C1277 C1279 1.327 . S
C1277 H1300 0.950 . S
C1278 C1277 1.349 . S
C1278 C1290 1.349 . S
C1279 C1277 1.327 . S
C1279 C1295 1.429 . S
C1279 H1301 0.950 . S
C1280 H1276 0.949 . S
C1280 C1288 1.574 . S
C1280 C1296 1.368 . S
H1281 C1289 0.964 . S
H1282 C1287 0.950 1_554 S
H1283 C1288 0.949 . S
H1284 C1290 0.950 . S
H1285 C1291 0.950 . S
H1286 C1292 0.949 . S
C1287 H1282 0.950 1_556 S
C1287 C1289 1.321 1_556 S
C1287 C1293 1.429 . S
C1288 C1280 1.574 . S
C1288 H1283 0.949 . S
C1288 C1294 1.368 . S
C1289 C1273 1.341 1_554 S
C1289 H1281 0.964 . S
C1289 C1287 1.321 1_554 S
C1290 C1278 1.349 . S
C1290 H1284 0.950 . S
C1290 C1291 1.327 . S
C1291 H1285 0.950 . S
C1291 C1290 1.327 . S
C1291 C1295 1.429 . S
C1292 C1275 1.574 . S
C1292 H1286 0.949 . S
C1292 C1296 1.368 . S
C1293 C1274 1.429 . S
C1293 C1287 1.429 . S
C1293 C1294 1.523 . S
C1294 C1275 1.368 . S
C1294 C1288 1.368 . S
C1294 C1293 1.523 . S
C1295 C1279 1.429 . S
C1295 C1291 1.429 . S
C1295 C1296 1.523 . S
C1296 C1280 1.368 . S
C1296 C1292 1.368 . S
C1296 C1295 1.523 . S
H1297 C1272 0.950 . S
H1298 C1274 0.950 . S
H1299 C1275 0.949 . S
H1300 C1277 0.950 . S
H1301 C1279 0.950 . S
C1302 C1303 1.349 . S
C1302 C1304 1.327 . S
C1302 H1327 0.950 . S
C1303 C1302 1.349 . S
C1303 C1319 1.349 1_556 S
C1304 C1302 1.327 . S
C1304 C1323 1.429 . S
C1304 H1328 0.950 . S
C1305 C1322 1.574 . S
C1305 C1324 1.368 . S
C1305 H1329 0.949 1_556 S
H1306 C1310 0.949 . S
C1307 C1308 1.349 . S
C1307 C1309 1.327 . S
C1307 H1330 0.950 . S
C1308 C1307 1.349 . S
C1308 C1320 1.349 . S
C1309 C1307 1.327 . S
C1309 C1325 1.429 . S
C1309 H1331 0.950 . S
C1310 H1306 0.949 . S
C1310 C1318 1.574 . S
C1310 C1326 1.368 . S
H1311 C1319 0.950 . S
H1312 C1317 0.950 . S
H1313 C1318 0.949 . S
H1314 C1320 0.950 . S
H1315 C1321 0.950 . S
H1316 C1322 0.949 . S
C1317 H1312 0.950 . S
C1317 C1319 1.327 . S
C1317 C1323 1.429 1_554 S
C1318 C1310 1.574 . S
C1318 H1313 0.949 . S
C1318 C1324 1.368 . S
C1319 C1303 1.349 1_554 S
C1319 H1311 0.950 . S
C1319 C1317 1.327 . S
C1320 C1308 1.349 . S
C1320 H1314 0.950 . S
C1320 C1321 1.327 . S
C1321 H1315 0.950 . S
C1321 C1320 1.327 . S
C1321 C1325 1.429 . S
C1322 C1305 1.574 . S
C1322 H1316 0.949 . S
C1322 C1326 1.368 . S
C1323 C1304 1.429 . S
C1323 C1317 1.429 1_556 S
C1323 C1324 1.523 . S
C1324 C1305 1.368 . S
C1324 C1318 1.368 . S
C1324 C1323 1.523 . S
C1325 C1309 1.429 . S
C1325 C1321 1.429 . S
C1325 C1326 1.523 . S
C1326 C1310 1.368 . S
C1326 C1322 1.368 . S
C1326 C1325 1.523 . S
H1327 C1302 0.950 . S
H1328 C1304 0.950 . S
H1329 C1305 0.949 1_554 S
H1330 C1307 0.950 . S
H1331 C1309 0.950 . S
C1332 C1333 1.349 . S
C1332 C1334 1.327 . S
C1332 H1357 0.950 . S
C1333 C1332 1.349 . S
C1333 C1349 1.349 1_545 S
C1334 C1332 1.327 . S
C1334 C1353 1.429 . S
C1334 H1358 0.950 . S
C1335 C1352 1.574 . S
C1335 C1354 1.368 1_565 S
C1335 H1359 0.949 . S
H1336 C1340 0.949 . S
C1337 C1338 1.349 . S
C1337 C1339 1.327 . S
C1337 H1360 0.950 . S
C1338 C1337 1.349 . S
C1338 C1350 1.348 1_565 S
C1339 C1337 1.327 . S
C1339 C1355 1.429 1_565 S
C1339 H1361 0.950 . S
C1340 H1336 0.949 . S
C1340 C1348 1.574 . S
C1340 C1356 1.368 . S
H1341 C1349 0.950 . S
H1342 C1347 0.950 . S
H1343 C1348 0.949 . S
H1344 C1350 0.950 . S
H1345 C1351 0.950 . S
H1346 C1352 0.949 . S
C1347 H1342 0.950 . S
C1347 C1349 1.327 . S
C1347 C1353 1.429 1_565 S
C1348 C1340 1.574 . S
C1348 H1343 0.949 . S
C1348 C1354 1.368 . S
C1349 C1333 1.349 1_565 S
C1349 H1341 0.950 . S
C1349 C1347 1.327 . S
C1350 C1338 1.348 1_545 S
C1350 H1344 0.950 . S
C1350 C1351 1.327 . S
C1351 H1345 0.950 . S
C1351 C1350 1.327 . S
C1351 C1355 1.429 . S
C1352 C1335 1.574 . S
C1352 H1346 0.949 . S
C1352 C1356 1.368 1_565 S
C1353 C1334 1.429 . S
C1353 C1347 1.429 1_545 S
C1353 C1354 1.523 . S
C1354 C1335 1.368 1_545 S
C1354 C1348 1.368 . S
C1354 C1353 1.523 . S
C1355 C1339 1.429 1_545 S
C1355 C1351 1.429 . S
C1355 C1356 1.523 . S
C1356 C1340 1.368 . S
C1356 C1352 1.368 1_545 S
C1356 C1355 1.523 . S
H1357 C1332 0.950 . S
H1358 C1334 0.950 . S
H1359 C1335 0.949 . S
H1360 C1337 0.950 . S
H1361 C1339 0.950 . S
C1362 C1363 1.349 . S
C1362 C1364 1.327 . S
C1362 H1387 0.950 . S
C1363 C1362 1.349 . S
C1363 C1379 1.349 . S
C1364 C1362 1.327 . S
C1364 C1383 1.429 . S
C1364 H1388 0.950 . S
C1365 C1382 1.574 . S
C1365 C1384 1.368 . S
C1365 H1389 0.949 . S
H1366 C1370 0.949 . S
C1367 C1368 1.349 . S
C1367 C1369 1.327 . S
C1367 H1390 0.950 . S
C1368 C1367 1.349 . S
C1368 C1380 1.349 . S
C1369 C1367 1.327 . S
C1369 C1385 1.429 . S
C1369 H1391 0.950 . S
C1370 H1366 0.949 . S
C1370 C1378 1.574 . S
C1370 C1386 1.368 . S
H1371 C1379 0.950 . S
H1372 C1377 0.950 . S
H1373 C1378 0.949 . S
H1374 C1380 0.950 . S
H1375 C1381 0.950 . S
H1376 C1382 0.949 . S
C1377 H1372 0.950 . S
C1377 C1379 1.327 . S
C1377 C1383 1.429 . S
C1378 C1370 1.574 . S
C1378 H1373 0.949 . S
C1378 C1384 1.368 . S
C1379 C1363 1.349 . S
C1379 H1371 0.950 . S
C1379 C1377 1.327 . S
C1380 C1368 1.349 . S
C1380 H1374 0.950 . S
C1380 C1381 1.327 . S
C1381 H1375 0.950 . S
C1381 C1380 1.327 . S
C1381 C1385 1.429 . S
C1382 C1365 1.574 . S
C1382 H1376 0.949 . S
C1382 C1386 1.368 . S
C1383 C1364 1.429 . S
C1383 C1377 1.429 . S
C1383 C1384 1.523 . S
C1384 C1365 1.368 . S
C1384 C1378 1.368 . S
C1384 C1383 1.523 . S
C1385 C1369 1.429 . S
C1385 C1381 1.429 . S
C1385 C1386 1.523 . S
C1386 C1370 1.368 . S
C1386 C1382 1.368 . S
C1386 C1385 1.523 . S
H1387 C1362 0.950 . S
H1388 C1364 0.950 . S
H1389 C1365 0.949 . S
H1390 C1367 0.950 . S
H1391 C1369 0.950 . S
C1392 C1393 1.349 . S
C1392 C1394 1.327 . S
C1392 H1417 0.950 . S
C1393 C1392 1.349 . S
C1393 C1409 1.349 . S
C1394 C1392 1.327 . S
C1394 C1413 1.429 . S
C1394 H1418 0.950 . S
C1395 C1412 1.574 . S
C1395 C1414 1.368 . S
C1395 H1419 0.949 . S
H1396 C1400 0.949 . S
C1397 C1398 1.349 . S
C1397 C1399 1.327 . S
C1397 H1420 0.950 . S
C1398 C1397 1.349 . S
C1398 C1410 1.349 . S
C1399 C1397 1.327 . S
C1399 C1415 1.429 . S
C1399 H1421 0.950 . S
C1400 H1396 0.949 . S
C1400 C1408 1.574 . S
C1400 C1416 1.368 . S
H1401 C1409 0.950 . S
H1402 C1407 0.950 . S
H1403 C1408 0.949 . S
H1404 C1410 0.950 . S
H1405 C1411 0.950 . S
H1406 C1412 0.949 . S
C1407 H1402 0.950 . S
C1407 C1409 1.327 . S
C1407 C1413 1.429 . S
C1408 C1400 1.574 . S
C1408 H1403 0.949 . S
C1408 C1414 1.368 . S
C1409 C1393 1.349 . S
C1409 H1401 0.950 . S
C1409 C1407 1.327 . S
C1410 C1398 1.349 . S
C1410 H1404 0.950 . S
C1410 C1411 1.327 . S
C1411 H1405 0.950 . S
C1411 C1410 1.327 . S
C1411 C1415 1.429 . S
C1412 C1395 1.574 . S
C1412 H1406 0.949 . S
C1412 C1416 1.368 . S
C1413 C1394 1.429 . S
C1413 C1407 1.429 . S
C1413 C1414 1.523 . S
C1414 C1395 1.368 . S
C1414 C1408 1.368 . S
C1414 C1413 1.523 . S
C1415 C1399 1.429 . S
C1415 C1411 1.429 . S
C1415 C1416 1.523 . S
C1416 C1400 1.368 . S
C1416 C1412 1.368 . S
C1416 C1415 1.523 . S
H1417 C1392 0.950 . S
H1418 C1394 0.950 . S
H1419 C1395 0.949 . S
H1420 C1397 0.950 . S
H1421 C1399 0.950 . S
C1422 C1423 1.349 . S
C1422 C1424 1.327 . S
C1422 H1447 0.950 . S
C1423 C1422 1.349 . S
C1423 C1439 1.349 . S
C1424 C1422 1.327 . S
C1424 C1443 1.429 . S
C1424 H1448 0.950 . S
C1425 C1442 1.574 . S
C1425 C1444 1.368 . S
C1425 H1449 0.949 . S
H1426 C1430 0.949 . S
C1427 C1428 1.349 . S
C1427 C1429 1.327 . S
C1427 H1450 0.950 . S
C1428 C1427 1.349 . S
C1428 C1440 1.349 . S
C1429 C1427 1.327 . S
C1429 C1445 1.429 . S
C1429 H1451 0.950 . S
C1430 H1426 0.949 . S
C1430 C1438 1.574 . S
C1430 C1446 1.368 . S
H1431 C1439 0.950 . S
H1432 C1437 0.950 . S
H1433 C1438 0.949 . S
H1434 C1440 0.950 . S
H1435 C1441 0.950 . S
H1436 C1442 0.949 . S
C1437 H1432 0.950 . S
C1437 C1439 1.327 . S
C1437 C1443 1.429 . S
C1438 C1430 1.574 . S
C1438 H1433 0.949 . S
C1438 C1444 1.368 . S
C1439 C1423 1.349 . S
C1439 H1431 0.950 . S
C1439 C1437 1.327 . S
C1440 C1428 1.349 . S
C1440 H1434 0.950 . S
C1440 C1441 1.327 . S
C1441 H1435 0.950 . S
C1441 C1440 1.327 . S
C1441 C1445 1.429 . S
C1442 C1425 1.574 . S
C1442 H1436 0.949 . S
C1442 C1446 1.368 . S
C1443 C1424 1.429 . S
C1443 C1437 1.429 . S
C1443 C1444 1.523 . S
C1444 C1425 1.368 . S
C1444 C1438 1.368 . S
C1444 C1443 1.523 . S
C1445 C1429 1.429 . S
C1445 C1441 1.429 . S
C1445 C1446 1.523 . S
C1446 C1430 1.368 . S
C1446 C1442 1.368 . S
C1446 C1445 1.523 . S
H1447 C1422 0.950 . S
H1448 C1424 0.950 . S
H1449 C1425 0.949 . S
H1450 C1427 0.950 . S
H1451 C1429 0.950 . S
C1452 C1453 1.349 . S
C1452 C1454 1.327 . S
C1452 H1477 0.950 . S
C1453 C1452 1.349 . S
C1453 C1469 1.349 . S
C1454 C1452 1.327 . S
C1454 C1473 1.429 . S
C1454 H1478 0.950 . S
C1455 C1472 1.574 . S
C1455 C1474 1.368 1_545 S
C1455 H1479 0.949 . S
H1456 C1460 0.949 . S
C1457 C1458 1.349 . S
C1457 C1459 1.327 . S
C1457 H1480 0.950 . S
C1458 C1457 1.349 . S
C1458 C1470 1.349 . S
C1459 C1457 1.327 . S
C1459 C1475 1.429 . S
C1459 H1481 0.950 . S
C1460 H1456 0.949 . S
C1460 C1468 1.574 1_545 S
C1460 C1476 1.368 . S
H1461 C1469 0.950 . S
H1462 C1467 0.950 . S
H1463 C1468 0.949 . S
H1464 C1470 0.950 . S
H1465 C1471 0.950 . S
H1466 C1472 0.949 . S
C1467 H1462 0.950 . S
C1467 C1469 1.327 . S
C1467 C1473 1.429 . S
C1468 C1460 1.574 1_565 S
C1468 H1463 0.949 . S
C1468 C1474 1.368 . S
C1469 C1453 1.349 . S
C1469 H1461 0.950 . S
C1469 C1467 1.327 . S
C1470 C1458 1.349 . S
C1470 H1464 0.950 . S
C1470 C1471 1.327 . S
C1471 H1465 0.950 . S
C1471 C1470 1.327 . S
C1471 C1475 1.429 . S
C1472 C1455 1.574 . S
C1472 H1466 0.949 . S
C1472 C1476 1.368 . S
C1473 C1454 1.429 . S
C1473 C1467 1.429 . S
C1473 C1474 1.523 . S
C1474 C1455 1.368 1_565 S
C1474 C1468 1.368 . S
C1474 C1473 1.523 . S
C1475 C1459 1.429 . S
C1475 C1471 1.429 . S
C1475 C1476 1.523 . S
C1476 C1460 1.368 . S
C1476 C1472 1.368 . S
C1476 C1475 1.523 . S
H1477 C1452 0.950 . S
H1478 C1454 0.950 . S
H1479 C1455 0.949 . S
H1480 C1457 0.950 . S
H1481 C1459 0.950 . S
C1482 C1483 1.349 . S
C1482 C1484 1.327 . S
C1482 H1507 0.950 . S
C1483 C1482 1.349 . S
C1483 C1499 1.349 . S
C1484 C1482 1.327 . S
C1484 C1503 1.429 . S
C1484 H1508 0.950 . S
C1485 C1502 1.574 . S
C1485 C1504 1.368 . S
C1485 H1509 0.949 . S
H1486 C1490 0.949 . S
C1487 C1488 1.349 . S
C1487 C1489 1.327 . S
C1487 H1510 0.950 . S
C1488 C1487 1.349 . S
C1488 C1500 1.349 . S
C1489 C1487 1.327 . S
C1489 C1505 1.429 . S
C1489 H1511 0.950 . S
C1490 H1486 0.949 . S
C1490 C1498 1.574 . S
C1490 C1506 1.368 . S
H1491 C1499 0.950 . S
H1492 C1497 0.950 . S
H1493 C1498 0.949 . S
H1494 C1500 0.950 . S
H1495 C1501 0.950 . S
H1496 C1502 0.949 . S
C1497 H1492 0.950 . S
C1497 C1499 1.327 . S
C1497 C1503 1.429 . S
C1498 C1490 1.574 . S
C1498 H1493 0.949 . S
C1498 C1504 1.368 . S
C1499 C1483 1.349 . S
C1499 H1491 0.950 . S
C1499 C1497 1.327 . S
C1500 C1488 1.349 . S
C1500 H1494 0.950 . S
C1500 C1501 1.327 . S
C1501 H1495 0.950 . S
C1501 C1500 1.327 . S
C1501 C1505 1.429 . S
C1502 C1485 1.574 . S
C1502 H1496 0.949 . S
C1502 C1506 1.368 . S
C1503 C1484 1.429 . S
C1503 C1497 1.429 . S
C1503 C1504 1.523 . S
C1504 C1485 1.368 . S
C1504 C1498 1.368 . S
C1504 C1503 1.523 . S
C1505 C1489 1.429 . S
C1505 C1501 1.429 . S
C1505 C1506 1.523 . S
C1506 C1490 1.368 . S
C1506 C1502 1.368 . S
C1506 C1505 1.523 . S
H1507 C1482 0.950 . S
H1508 C1484 0.950 . S
H1509 C1485 0.949 . S
H1510 C1487 0.950 . S
H1511 C1489 0.950 . S
C1512 C1513 1.349 . S
C1512 C1514 1.327 . S
C1512 H1537 0.950 . S
C1513 C1512 1.349 . S
C1513 C1529 1.349 . S
C1514 C1512 1.327 . S
C1514 C1533 1.429 . S
C1514 H1538 0.950 . S
C1515 C1532 1.574 . S
C1515 C1534 1.368 . S
C1515 H1539 0.949 . S
H1516 C1520 0.949 . S
C1517 C1518 1.349 . S
C1517 C1519 1.327 . S
C1517 H1540 0.950 . S
C1518 C1517 1.349 . S
C1518 C1530 1.349 . S
C1519 C1517 1.327 . S
C1519 C1535 1.429 . S
C1519 H1541 0.950 . S
C1520 H1516 0.949 . S
C1520 C1528 1.574 . S
C1520 C1536 1.368 . S
H1521 C1529 0.950 . S
H1522 C1527 0.950 . S
H1523 C1528 0.949 . S
H1524 C1530 0.950 . S
H1525 C1531 0.950 . S
H1526 C1532 0.949 . S
C1527 H1522 0.950 . S
C1527 C1529 1.327 . S
C1527 C1533 1.429 . S
C1528 C1520 1.574 . S
C1528 H1523 0.949 . S
C1528 C1534 1.368 . S
C1529 C1513 1.349 . S
C1529 H1521 0.950 . S
C1529 C1527 1.327 . S
C1530 C1518 1.349 . S
C1530 H1524 0.950 . S
C1530 C1531 1.327 . S
C1531 H1525 0.950 . S
C1531 C1530 1.327 . S
C1531 C1535 1.429 . S
C1532 C1515 1.574 . S
C1532 H1526 0.949 . S
C1532 C1536 1.368 . S
C1533 C1514 1.429 . S
C1533 C1527 1.429 . S
C1533 C1534 1.523 . S
C1534 C1515 1.368 . S
C1534 C1528 1.368 . S
C1534 C1533 1.523 . S
C1535 C1519 1.429 . S
C1535 C1531 1.429 . S
C1535 C1536 1.523 . S
C1536 C1520 1.368 . S
C1536 C1532 1.368 . S
C1536 C1535 1.523 . S
H1537 C1512 0.950 . S
H1538 C1514 0.950 . S
H1539 C1515 0.949 . S
H1540 C1517 0.950 . S
H1541 C1519 0.950 . S
C1542 C1543 1.349 . S
C1542 C1544 1.327 . S
C1542 H1567 0.950 . S
C1543 C1542 1.349 . S
C1543 C1559 1.349 . S
C1544 C1542 1.327 . S
C1544 C1563 1.429 . S
C1544 H1568 0.950 . S
C1545 C1562 1.574 . S
C1545 C1564 1.368 . S
C1545 H1569 0.949 . S
H1546 C1550 0.949 . S
C1547 C1548 1.349 . S
C1547 C1549 1.327 . S
C1547 H1570 0.950 . S
C1548 C1547 1.349 . S
C1548 C1560 1.349 . S
C1549 C1547 1.327 . S
C1549 C1565 1.429 . S
C1549 H1571 0.950 . S
C1550 H1546 0.949 . S
C1550 C1558 1.574 . S
C1550 C1566 1.368 . S
H1551 C1559 0.950 . S
H1552 C1557 0.950 . S
H1553 C1558 0.949 . S
H1554 C1560 0.950 . S
H1555 C1561 0.950 . S
H1556 C1562 0.949 . S
C1557 H1552 0.950 . S
C1557 C1559 1.327 . S
C1557 C1563 1.429 . S
C1558 C1550 1.574 . S
C1558 H1553 0.949 . S
C1558 C1564 1.368 . S
C1559 C1543 1.349 . S
C1559 H1551 0.950 . S
C1559 C1557 1.327 . S
C1560 C1548 1.349 . S
C1560 H1554 0.950 . S
C1560 C1561 1.327 . S
C1561 H1555 0.950 . S
C1561 C1560 1.327 . S
C1561 C1565 1.429 . S
C1562 C1545 1.574 . S
C1562 H1556 0.949 . S
C1562 C1566 1.368 . S
C1563 C1544 1.429 . S
C1563 C1557 1.429 . S
C1563 C1564 1.523 . S
C1564 C1545 1.368 . S
C1564 C1558 1.368 . S
C1564 C1563 1.523 . S
C1565 C1549 1.429 . S
C1565 C1561 1.429 . S
C1565 C1566 1.523 . S
C1566 C1550 1.368 . S
C1566 C1562 1.368 . S
C1566 C1565 1.523 . S
H1567 C1542 0.950 . S
H1568 C1544 0.950 . S
H1569 C1545 0.949 . S
H1570 C1547 0.950 . S
H1571 C1549 0.950 . S
C1572 C1573 1.349 . S
C1572 C1574 1.327 . S
C1572 H1597 0.950 . S
C1573 C1572 1.349 . S
C1573 C1589 1.349 . S
C1574 C1572 1.327 . S
C1574 C1593 1.429 . S
C1574 H1598 0.950 . S
C1575 C1592 1.574 . S
C1575 C1594 1.368 . S
C1575 H1599 0.949 . S
H1576 C1580 0.949 . S
C1577 C1578 1.349 . S
C1577 C1579 1.327 . S
C1577 H1600 0.950 1_565 S
C1578 C1577 1.349 . S
C1578 C1590 1.349 . S
C1579 C1577 1.327 . S
C1579 C1595 1.429 . S
C1579 H1601 0.950 . S
C1580 H1576 0.949 . S
C1580 C1588 1.574 . S
C1580 C1596 1.368 . S
H1581 C1589 0.950 . S
H1582 C1587 0.950 . S
H1583 C1588 0.949 . S
H1584 C1590 0.950 . S
H1585 C1591 0.950 . S
H1586 C1592 0.949 . S
C1587 H1582 0.950 . S
C1587 C1589 1.327 . S
C1587 C1593 1.429 . S
C1588 C1580 1.574 . S
C1588 H1583 0.949 . S
C1588 C1594 1.368 . S
C1589 C1573 1.349 . S
C1589 H1581 0.950 . S
C1589 C1587 1.327 . S
C1590 C1578 1.349 . S
C1590 H1584 0.950 . S
C1590 C1591 1.327 . S
C1591 H1585 0.950 . S
C1591 C1590 1.327 . S
C1591 C1595 1.429 . S
C1592 C1575 1.574 . S
C1592 H1586 0.949 . S
C1592 C1596 1.368 . S
C1593 C1574 1.429 . S
C1593 C1587 1.429 . S
C1593 C1594 1.523 . S
C1594 C1575 1.368 . S
C1594 C1588 1.368 . S
C1594 C1593 1.523 . S
C1595 C1579 1.429 . S
C1595 C1591 1.429 . S
C1595 C1596 1.523 . S
C1596 C1580 1.368 . S
C1596 C1592 1.368 . S
C1596 C1595 1.523 . S
H1597 C1572 0.950 . S
H1598 C1574 0.950 . S
H1599 C1575 0.949 . S
H1600 C1577 0.950 1_545 S
H1601 C1579 0.950 . S
C1602 C1603 1.349 . S
C1602 C1604 1.327 . S
C1602 H1627 0.950 . S
C1603 C1602 1.349 . S
C1603 C1619 1.349 . S
C1604 C1602 1.327 . S
C1604 C1623 1.429 . S
C1604 H1628 0.950 . S
C1605 C1622 1.574 . S
C1605 C1624 1.368 . S
C1605 H1629 0.949 . S
H1606 C1610 0.949 . S
C1607 C1608 1.349 . S
C1607 C1609 1.327 . S
C1607 H1630 0.950 . S
C1608 C1607 1.349 . S
C1608 C1620 1.349 . S
C1609 C1607 1.327 . S
C1609 C1625 1.429 . S
C1609 H1631 0.950 . S
C1610 H1606 0.949 . S
C1610 C1618 1.574 . S
C1610 C1626 1.368 . S
H1611 C1619 0.950 . S
H1612 C1617 0.950 . S
H1613 C1618 0.949 . S
H1614 C1620 0.950 . S
H1615 C1621 0.950 . S
H1616 C1622 0.949 1_545 S
C1617 H1612 0.950 . S
C1617 C1619 1.327 . S
C1617 C1623 1.429 . S
C1618 C1610 1.574 . S
C1618 H1613 0.949 . S
C1618 C1624 1.368 . S
C1619 C1603 1.349 . S
C1619 H1611 0.950 . S
C1619 C1617 1.327 . S
C1620 C1608 1.349 . S
C1620 H1614 0.950 . S
C1620 C1621 1.327 1_545 S
C1621 H1615 0.950 . S
C1621 C1620 1.327 1_565 S
C1621 C1625 1.429 1_565 S
C1622 C1605 1.574 . S
C1622 H1616 0.949 1_565 S
C1622 C1626 1.368 . S
C1623 C1604 1.429 . S
C1623 C1617 1.429 . S
C1623 C1624 1.523 . S
C1624 C1605 1.368 . S
C1624 C1618 1.368 . S
C1624 C1623 1.523 . S
C1625 C1609 1.429 . S
C1625 C1621 1.429 1_545 S
C1625 C1626 1.523 1_545 S
C1626 C1610 1.368 . S
C1626 C1622 1.368 . S
C1626 C1625 1.523 1_565 S
H1627 C1602 0.950 . S
H1628 C1604 0.950 . S
H1629 C1605 0.949 . S
H1630 C1607 0.950 . S
H1631 C1609 0.950 . S
C1632 C1633 1.349 . S
C1632 C1634 1.327 . S
C1632 H1657 0.950 . S
C1633 C1632 1.349 . S
C1633 C1649 1.349 . S
C1634 C1632 1.327 . S
C1634 C1653 1.429 . S
C1634 H1658 0.950 . S
C1635 C1652 1.574 . S
C1635 C1654 1.368 . S
C1635 H1659 0.949 . S
H1636 C1640 0.949 . S
C1637 C1638 1.349 . S
C1637 C1639 1.327 . S
C1637 H1660 0.950 . S
C1638 C1637 1.349 . S
C1638 C1650 1.349 . S
C1639 C1637 1.327 . S
C1639 C1655 1.429 . S
C1639 H1661 0.950 . S
C1640 H1636 0.949 . S
C1640 C1648 1.574 . S
C1640 C1656 1.368 . S
H1641 C1649 0.950 . S
H1642 C1647 0.950 . S
H1643 C1648 0.949 . S
H1644 C1650 0.950 . S
H1645 C1651 0.950 . S
H1646 C1652 0.949 . S
C1647 H1642 0.950 . S
C1647 C1649 1.327 . S
C1647 C1653 1.429 . S
C1648 C1640 1.574 . S
C1648 H1643 0.949 . S
C1648 C1654 1.368 . S
C1649 C1633 1.349 . S
C1649 H1641 0.950 . S
C1649 C1647 1.327 . S
C1650 C1638 1.349 . S
C1650 H1644 0.950 . S
C1650 C1651 1.327 . S
C1651 H1645 0.950 . S
C1651 C1650 1.327 . S
C1651 C1655 1.429 . S
C1652 C1635 1.574 . S
C1652 H1646 0.949 . S
C1652 C1656 1.368 . S
C1653 C1634 1.429 . S
C1653 C1647 1.429 . S
C1653 C1654 1.523 . S
C1654 C1635 1.368 . S
C1654 C1648 1.368 . S
C1654 C1653 1.523 . S
C1655 C1639 1.429 . S
C1655 C1651 1.429 . S
C1655 C1656 1.523 . S
C1656 C1640 1.368 . S
C1656 C1652 1.368 . S
C1656 C1655 1.523 . S
H1657 C1632 0.950 . S
H1658 C1634 0.950 . S
H1659 C1635 0.949 . S
H1660 C1637 0.950 . S
H1661 C1639 0.950 . S
C1662 C1663 1.349 . S
C1662 C1664 1.327 . S
C1662 H1687 0.950 . S
C1663 C1662 1.349 . S
C1663 C1679 1.349 . S
C1664 C1662 1.327 . S
C1664 C1683 1.429 . S
C1664 H1688 0.950 . S
C1665 C1682 1.574 . S
C1665 C1684 1.368 . S
C1665 H1689 0.949 . S
H1666 C1670 0.949 . S
C1667 C1668 1.349 . S
C1667 C1669 1.327 . S
C1667 H1690 0.950 . S
C1668 C1667 1.349 . S
C1668 C1680 1.349 . S
C1669 C1667 1.327 . S
C1669 C1685 1.429 . S
C1669 H1691 0.950 . S
C1670 H1666 0.949 . S
C1670 C1678 1.574 . S
C1670 C1686 1.368 . S
H1671 C1679 0.950 . S
H1672 C1677 0.950 . S
H1673 C1678 0.949 . S
H1674 C1680 0.950 . S
H1675 C1681 0.950 . S
H1676 C1682 0.949 . S
C1677 H1672 0.950 . S
C1677 C1679 1.327 . S
C1677 C1683 1.429 . S
C1678 C1670 1.574 . S
C1678 H1673 0.949 . S
C1678 C1684 1.368 . S
C1679 C1663 1.349 . S
C1679 H1671 0.950 . S
C1679 C1677 1.327 . S
C1680 C1668 1.349 . S
C1680 H1674 0.950 . S
C1680 C1681 1.327 . S
C1681 H1675 0.950 . S
C1681 C1680 1.327 . S
C1681 C1685 1.429 . S
C1682 C1665 1.574 . S
C1682 H1676 0.949 . S
C1682 C1686 1.368 . S
C1683 C1664 1.429 . S
C1683 C1677 1.429 . S
C1683 C1684 1.523 . S
C1684 C1665 1.368 . S
C1684 C1678 1.368 . S
C1684 C1683 1.523 . S
C1685 C1669 1.429 . S
C1685 C1681 1.429 . S
C1685 C1686 1.523 . S
C1686 C1670 1.368 . S
C1686 C1682 1.368 . S
C1686 C1685 1.523 . S
H1687 C1662 0.950 . S
H1688 C1664 0.950 . S
H1689 C1665 0.949 . S
H1690 C1667 0.950 . S
H1691 C1669 0.950 . S
C1692 C1693 1.349 . S
C1692 C1694 1.327 . S
C1692 H1717 0.950 . S
C1693 C1692 1.349 . S
C1693 C1709 1.349 . S
C1694 C1692 1.327 . S
C1694 C1713 1.429 . S
C1694 H1718 0.950 . S
C1695 C1712 1.574 . S
C1695 C1714 1.368 . S
C1695 H1719 0.949 . S
H1696 C1700 0.949 . S
C1697 C1698 1.349 . S
C1697 C1699 1.327 . S
C1697 H1720 0.950 . S
C1698 C1697 1.349 . S
C1698 C1710 1.349 . S
C1699 C1697 1.327 . S
C1699 C1715 1.429 . S
C1699 H1721 0.950 . S
C1700 H1696 0.949 . S
C1700 C1708 1.574 . S
C1700 C1716 1.368 . S
H1701 C1709 0.950 . S
H1702 C1707 0.950 . S
H1703 C1708 0.949 . S
H1704 C1710 0.950 . S
H1705 C1711 0.950 . S
H1706 C1712 0.949 . S
C1707 H1702 0.950 . S
C1707 C1709 1.327 . S
C1707 C1713 1.429 . S
C1708 C1700 1.574 . S
C1708 H1703 0.949 . S
C1708 C1714 1.368 . S
C1709 C1693 1.349 . S
C1709 H1701 0.950 . S
C1709 C1707 1.327 . S
C1710 C1698 1.349 . S
C1710 H1704 0.950 . S
C1710 C1711 1.327 . S
C1711 H1705 0.950 . S
C1711 C1710 1.327 . S
C1711 C1715 1.429 . S
C1712 C1695 1.574 . S
C1712 H1706 0.949 . S
C1712 C1716 1.368 . S
C1713 C1694 1.429 . S
C1713 C1707 1.429 . S
C1713 C1714 1.523 . S
C1714 C1695 1.368 . S
C1714 C1708 1.368 . S
C1714 C1713 1.523 . S
C1715 C1699 1.429 . S
C1715 C1711 1.429 . S
C1715 C1716 1.523 . S
C1716 C1700 1.368 . S
C1716 C1712 1.368 . S
C1716 C1715 1.523 . S
H1717 C1692 0.950 . S
H1718 C1694 0.950 . S
H1719 C1695 0.949 . S
H1720 C1697 0.950 . S
H1721 C1699 0.950 . S
C1722 C1723 1.349 . S
C1722 C1724 1.327 . S
C1722 H1747 0.950 . S
C1723 C1722 1.349 . S
C1723 C1739 1.349 . S
C1724 C1722 1.327 . S
C1724 C1743 1.429 . S
C1724 H1748 0.950 . S
C1725 C1742 1.574 1_565 S
C1725 C1744 1.368 . S
C1725 H1749 0.949 . S
H1726 C1730 0.978 . S
C1727 C1728 1.349 . S
C1727 C1729 1.327 . S
C1727 H1750 0.950 . S
C1728 C1727 1.349 . S
C1728 C1740 1.349 . S
C1729 C1727 1.327 . S
C1729 C1745 1.429 . S
C1729 H1751 0.950 . S
C1730 H1726 0.978 . S
C1730 C1738 1.490 1_545 S
C1730 C1746 1.426 . S
H1731 C1739 0.950 . S
H1732 C1737 0.950 . S
H1733 C1738 0.949 . S
H1734 C1740 0.950 . S
H1735 C1741 0.950 . S
H1736 C1742 0.949 . S
C1737 H1732 0.950 . S
C1737 C1739 1.327 . S
C1737 C1743 1.429 . S
C1738 C1730 1.490 1_565 S
C1738 H1733 0.949 . S
C1738 C1744 1.368 . S
C1739 C1723 1.349 . S
C1739 H1731 0.950 . S
C1739 C1737 1.327 . S
C1740 C1728 1.349 . S
C1740 H1734 0.950 . S
C1740 C1741 1.327 . S
C1741 H1735 0.950 . S
C1741 C1740 1.327 . S
C1741 C1745 1.429 . S
C1742 C1725 1.574 1_545 S
C1742 H1736 0.949 . S
C1742 C1746 1.368 . S
C1743 C1724 1.429 . S
C1743 C1737 1.429 . S
C1743 C1744 1.523 . S
C1744 C1725 1.368 . S
C1744 C1738 1.368 . S
C1744 C1743 1.523 . S
C1745 C1729 1.429 . S
C1745 C1741 1.429 . S
C1745 C1746 1.523 . S
C1746 C1730 1.426 . S
C1746 C1742 1.368 . S
C1746 C1745 1.523 . S
H1747 C1722 0.950 . S
H1748 C1724 0.950 . S
H1749 C1725 0.949 . S
H1750 C1727 0.950 . S
H1751 C1729 0.950 . S
C1752 C1753 1.349 . S
C1752 C1754 1.327 . S
C1752 H1777 0.950 . S
C1753 C1752 1.349 . S
C1753 C1769 1.349 . S
C1754 C1752 1.327 . S
C1754 C1773 1.429 . S
C1754 H1778 0.950 . S
C1755 C1772 1.574 . S
C1755 C1774 1.368 . S
C1755 H1779 0.949 . S
H1756 C1760 0.949 . S
C1757 C1758 1.349 . S
C1757 C1759 1.327 . S
C1757 H1780 0.950 . S
C1758 C1757 1.349 . S
C1758 C1770 1.349 . S
C1759 C1757 1.327 . S
C1759 C1775 1.429 . S
C1759 H1781 0.950 . S
C1760 H1756 0.949 . S
C1760 C1768 1.574 . S
C1760 C1776 1.368 . S
H1761 C1769 0.950 . S
H1762 C1767 0.950 . S
H1763 C1768 0.949 . S
H1764 C1770 0.950 . S
H1765 C1771 0.950 . S
H1766 C1772 0.949 . S
C1767 H1762 0.950 . S
C1767 C1769 1.327 . S
C1767 C1773 1.429 . S
C1768 C1760 1.574 . S
C1768 H1763 0.949 . S
C1768 C1774 1.368 . S
C1769 C1753 1.349 . S
C1769 H1761 0.950 . S
C1769 C1767 1.327 . S
C1770 C1758 1.349 . S
C1770 H1764 0.950 . S
C1770 C1771 1.327 . S
C1771 H1765 0.950 . S
C1771 C1770 1.327 . S
C1771 C1775 1.429 . S
C1772 C1755 1.574 . S
C1772 H1766 0.949 . S
C1772 C1776 1.368 . S
C1773 C1754 1.429 . S
C1773 C1767 1.429 . S
C1773 C1774 1.523 . S
C1774 C1755 1.368 . S
C1774 C1768 1.368 . S
C1774 C1773 1.523 . S
C1775 C1759 1.429 . S
C1775 C1771 1.429 . S
C1775 C1776 1.523 . S
C1776 C1760 1.368 . S
C1776 C1772 1.368 . S
C1776 C1775 1.523 . S
H1777 C1752 0.950 . S
H1778 C1754 0.950 . S
H1779 C1755 0.949 . S
H1780 C1757 0.950 . S
H1781 C1759 0.950 . S
C1782 C1783 1.349 . S
C1782 C1784 1.327 . S
C1782 H1807 0.950 . S
C1783 C1782 1.349 . S
C1783 C1799 1.349 . S
C1784 C1782 1.327 . S
C1784 C1803 1.429 . S
C1784 H1808 0.950 . S
C1785 C1802 1.574 . S
C1785 C1804 1.368 . S
C1785 H1809 0.949 . S
H1786 C1790 0.949 . S
C1787 C1788 1.349 . S
C1787 C1789 1.327 . S
C1787 H1810 0.950 . S
C1788 C1787 1.349 . S
C1788 C1800 1.349 . S
C1789 C1787 1.327 . S
C1789 C1805 1.429 . S
C1789 H1811 0.950 . S
C1790 H1786 0.949 . S
C1790 C1798 1.574 . S
C1790 C1806 1.368 . S
H1791 C1799 0.950 . S
H1792 C1797 0.950 . S
H1793 C1798 0.949 . S
H1794 C1800 0.950 . S
H1795 C1801 0.950 . S
H1796 C1802 0.949 . S
C1797 H1792 0.950 . S
C1797 C1799 1.327 . S
C1797 C1803 1.429 . S
C1798 C1790 1.574 . S
C1798 H1793 0.949 . S
C1798 C1804 1.368 . S
C1799 C1783 1.349 . S
C1799 H1791 0.950 . S
C1799 C1797 1.327 . S
C1800 C1788 1.349 . S
C1800 H1794 0.950 . S
C1800 C1801 1.327 . S
C1801 H1795 0.950 . S
C1801 C1800 1.327 . S
C1801 C1805 1.429 . S
C1802 C1785 1.574 . S
C1802 H1796 0.949 . S
C1802 C1806 1.368 . S
C1803 C1784 1.429 . S
C1803 C1797 1.429 . S
C1803 C1804 1.523 . S
C1804 C1785 1.368 . S
C1804 C1798 1.368 . S
C1804 C1803 1.523 . S
C1805 C1789 1.429 . S
C1805 C1801 1.429 . S
C1805 C1806 1.523 . S
C1806 C1790 1.368 . S
C1806 C1802 1.368 . S
C1806 C1805 1.523 . S
H1807 C1782 0.950 . S
H1808 C1784 0.950 . S
H1809 C1785 0.949 . S
H1810 C1787 0.950 . S
H1811 C1789 0.950 . S
C1812 C1813 1.349 . S
C1812 C1814 1.327 . S
C1812 H1837 0.950 . S
C1813 C1812 1.349 . S
C1813 C1829 1.349 . S
C1814 C1812 1.327 . S
C1814 C1833 1.429 . S
C1814 H1838 0.950 . S
C1815 C1832 1.574 . S
C1815 C1834 1.368 . S
C1815 H1839 0.949 . S
H1816 C1820 0.949 . S
C1817 C1818 1.349 . S
C1817 C1819 1.327 . S
C1817 H1840 0.950 . S
C1818 C1817 1.349 . S
C1818 C1830 1.349 . S
C1819 C1817 1.327 . S
C1819 C1835 1.429 . S
C1819 H1841 0.950 . S
C1820 H1816 0.949 . S
C1820 C1828 1.574 . S
C1820 C1836 1.368 . S
H1821 C1829 0.950 . S
H1822 C1827 0.950 . S
H1823 C1828 0.949 . S
H1824 C1830 0.950 . S
H1825 C1831 0.950 . S
H1826 C1832 0.949 . S
C1827 H1822 0.950 . S
C1827 C1829 1.327 . S
C1827 C1833 1.429 . S
C1828 C1820 1.574 . S
C1828 H1823 0.949 . S
C1828 C1834 1.368 . S
C1829 C1813 1.349 . S
C1829 H1821 0.950 . S
C1829 C1827 1.327 . S
C1830 C1818 1.349 . S
C1830 H1824 0.950 . S
C1830 C1831 1.327 . S
C1831 H1825 0.950 . S
C1831 C1830 1.327 . S
C1831 C1835 1.429 . S
C1832 C1815 1.574 . S
C1832 H1826 0.949 . S
C1832 C1836 1.368 . S
C1833 C1814 1.429 . S
C1833 C1827 1.429 . S
C1833 C1834 1.523 . S
C1834 C1815 1.368 . S
C1834 C1828 1.368 . S
C1834 C1833 1.523 . S
C1835 C1819 1.429 . S
C1835 C1831 1.429 . S
C1835 C1836 1.523 . S
C1836 C1820 1.368 . S
C1836 C1832 1.368 . S
C1836 C1835 1.523 . S
H1837 C1812 0.950 . S
H1838 C1814 0.950 . S
H1839 C1815 0.949 . S
H1840 C1817 0.950 . S
H1841 C1819 0.950 . S
C1842 C1843 1.349 . S
C1842 C1844 1.327 . S
C1842 H1867 0.950 . S
C1843 C1842 1.349 . S
C1843 C1859 1.349 . S
C1844 C1842 1.327 . S
C1844 C1863 1.429 . S
C1844 H1868 0.950 . S
C1845 C1862 1.574 . S
C1845 C1864 1.368 . S
C1845 H1869 0.949 . S
H1846 C1850 0.949 . S
C1847 C1848 1.349 . S
C1847 C1849 1.327 . S
C1847 H1870 0.950 . S
C1848 C1847 1.349 . S
C1848 C1860 1.349 . S
C1849 C1847 1.327 . S
C1849 C1865 1.429 . S
C1849 H1871 0.950 . S
C1850 H1846 0.949 . S
C1850 C1858 1.574 . S
C1850 C1866 1.368 . S
H1851 C1859 0.950 . S
H1852 C1857 0.950 . S
H1853 C1858 0.949 . S
H1854 C1860 0.950 . S
H1855 C1861 0.950 . S
H1856 C1862 0.949 . S
C1857 H1852 0.950 . S
C1857 C1859 1.327 . S
C1857 C1863 1.429 . S
C1858 C1850 1.574 . S
C1858 H1853 0.949 . S
C1858 C1864 1.368 . S
C1859 C1843 1.349 . S
C1859 H1851 0.950 . S
C1859 C1857 1.327 . S
C1860 C1848 1.349 . S
C1860 H1854 0.950 . S
C1860 C1861 1.327 . S
C1861 H1855 0.950 . S
C1861 C1860 1.327 . S
C1861 C1865 1.429 . S
C1862 C1845 1.574 . S
C1862 H1856 0.949 . S
C1862 C1866 1.368 . S
C1863 C1844 1.429 . S
C1863 C1857 1.429 . S
C1863 C1864 1.523 . S
C1864 C1845 1.368 . S
C1864 C1858 1.368 . S
C1864 C1863 1.523 . S
C1865 C1849 1.429 . S
C1865 C1861 1.429 . S
C1865 C1866 1.523 . S
C1866 C1850 1.368 . S
C1866 C1862 1.368 . S
C1866 C1865 1.523 . S
H1867 C1842 0.950 . S
H1868 C1844 0.950 . S
H1869 C1845 0.949 . S
H1870 C1847 0.950 . S
H1871 C1849 0.950 . S
C1872 C1873 1.349 . S
C1872 C1874 1.327 . S
C1872 H1897 0.950 . S
C1873 C1872 1.349 . S
C1873 C1889 1.349 . S
C1874 C1872 1.327 . S
C1874 C1893 1.429 . S
C1874 H1898 0.950 . S
C1875 C1892 1.574 . S
C1875 C1894 1.368 . S
C1875 H1899 0.949 . S
H1876 C1880 0.949 . S
C1877 C1878 1.349 . S
C1877 C1879 1.327 . S
C1877 H1900 0.950 . S
C1878 C1877 1.349 . S
C1878 C1890 1.349 . S
C1879 C1877 1.327 . S
C1879 C1895 1.429 . S
C1879 H1901 0.950 . S
C1880 H1876 0.949 . S
C1880 C1888 1.574 . S
C1880 C1896 1.368 . S
H1881 C1889 0.950 . S
H1882 C1887 0.950 . S
H1883 C1888 0.949 . S
H1884 C1890 0.950 . S
H1885 C1891 0.950 . S
H1886 C1892 0.949 . S
C1887 H1882 0.950 . S
C1887 C1889 1.327 . S
C1887 C1893 1.429 . S
C1888 C1880 1.574 . S
C1888 H1883 0.949 . S
C1888 C1894 1.368 . S
C1889 C1873 1.349 . S
C1889 H1881 0.950 . S
C1889 C1887 1.327 . S
C1890 C1878 1.349 . S
C1890 H1884 0.950 . S
C1890 C1891 1.327 . S
C1891 H1885 0.950 . S
C1891 C1890 1.327 . S
C1891 C1895 1.429 . S
C1892 C1875 1.574 . S
C1892 H1886 0.949 . S
C1892 C1896 1.368 . S
C1893 C1874 1.429 . S
C1893 C1887 1.429 . S
C1893 C1894 1.523 . S
C1894 C1875 1.368 . S
C1894 C1888 1.368 . S
C1894 C1893 1.523 . S
C1895 C1879 1.429 . S
C1895 C1891 1.429 . S
C1895 C1896 1.523 . S
C1896 C1880 1.368 . S
C1896 C1892 1.368 . S
C1896 C1895 1.523 . S
H1897 C1872 0.950 . S
H1898 C1874 0.950 . S
H1899 C1875 0.949 . S
H1900 C1877 0.950 . S
H1901 C1879 0.950 . S
C1902 C1903 1.349 . S
C1902 C1904 1.327 . S
C1902 H1927 0.950 . S
C1903 C1902 1.349 . S
C1903 C1919 1.349 . S
C1904 C1902 1.327 . S
C1904 C1923 1.429 . S
C1904 H1928 0.950 . S
C1905 C1922 1.574 . S
C1905 C1924 1.368 . S
C1905 H1929 0.949 . S
H1906 C1910 0.949 . S
C1907 C1908 1.349 . S
C1907 C1909 1.327 . S
C1907 H1930 0.950 . S
C1908 C1907 1.349 . S
C1908 C1920 1.349 . S
C1909 C1907 1.327 . S
C1909 C1925 1.429 . S
C1909 H1931 0.950 . S
C1910 H1906 0.949 . S
C1910 C1918 1.574 . S
C1910 C1926 1.368 . S
H1911 C1919 0.950 . S
H1912 C1917 0.950 . S
H1913 C1918 0.949 . S
H1914 C1920 0.950 . S
H1915 C1921 0.950 . S
H1916 C1922 0.949 . S
C1917 H1912 0.950 . S
C1917 C1919 1.327 . S
C1917 C1923 1.429 . S
C1918 C1910 1.574 . S
C1918 H1913 0.949 . S
C1918 C1924 1.368 . S
C1919 C1903 1.349 . S
C1919 H1911 0.950 . S
C1919 C1917 1.327 . S
C1920 C1908 1.349 . S
C1920 H1914 0.950 . S
C1920 C1921 1.327 . S
C1921 H1915 0.950 . S
C1921 C1920 1.327 . S
C1921 C1925 1.429 . S
C1922 C1905 1.574 . S
C1922 H1916 0.949 . S
C1922 C1926 1.368 . S
C1923 C1904 1.429 . S
C1923 C1917 1.429 . S
C1923 C1924 1.523 . S
C1924 C1905 1.368 . S
C1924 C1918 1.368 . S
C1924 C1923 1.523 . S
C1925 C1909 1.429 . S
C1925 C1921 1.429 . S
C1925 C1926 1.523 . S
C1926 C1910 1.368 . S
C1926 C1922 1.368 . S
C1926 C1925 1.523 . S
H1927 C1902 0.950 . S
H1928 C1904 0.950 . S
H1929 C1905 0.949 . S
H1930 C1907 0.950 . S
H1931 C1909 0.950 . S
C1932 C1933 1.349 . S
C1932 C1934 1.327 . S
C1932 H1957 0.950 . S
C1933 C1932 1.349 . S
C1933 C1949 1.349 . S
C1934 C1932 1.327 . S
C1934 C1953 1.429 . S
C1934 H1958 0.950 . S
C1935 C1952 1.574 . S
C1935 C1954 1.368 . S
C1935 H1959 0.949 . S
H1936 C1940 0.949 . S
C1937 C1938 1.349 . S
C1937 C1939 1.327 1_455 S
C1937 H1960 0.950 . S
C1938 C1937 1.349 . S
C1938 C1950 1.317 1_455 S
C1939 C1937 1.327 1_655 S
C1939 C1955 1.429 . S
C1939 H1961 0.950 . S
C1940 H1936 0.949 . S
C1940 C1948 1.574 . S
C1940 C1956 1.368 . S
H1941 C1949 0.950 . S
H1942 C1947 0.950 . S
H1943 C1948 0.949 . S
H1944 C1950 0.951 1_455 S
H1945 C1951 0.950 . S
H1946 C1952 0.949 . S
C1947 H1942 0.950 . S
C1947 C1949 1.327 . S
C1947 C1953 1.429 . S
C1948 C1940 1.574 . S
C1948 H1943 0.949 . S
C1948 C1954 1.368 . S
C1949 C1933 1.349 . S
C1949 H1941 0.950 . S
C1949 C1947 1.327 . S
C1950 C1938 1.317 1_655 S
C1950 H1944 0.951 1_655 S
C1950 C1951 1.359 . S
C1951 H1945 0.950 . S
C1951 C1950 1.359 . S
C1951 C1955 1.429 . S
C1952 C1935 1.574 . S
C1952 H1946 0.949 . S
C1952 C1956 1.368 . S
C1953 C1934 1.429 . S
C1953 C1947 1.429 . S
C1953 C1954 1.523 . S
C1954 C1935 1.368 . S
C1954 C1948 1.368 . S
C1954 C1953 1.523 . S
C1955 C1939 1.429 . S
C1955 C1951 1.429 . S
C1955 C1956 1.523 . S
C1956 C1940 1.368 . S
C1956 C1952 1.368 . S
C1956 C1955 1.523 . S
H1957 C1932 0.950 . S
H1958 C1934 0.950 . S
H1959 C1935 0.949 . S
H1960 C1937 0.950 . S
H1961 C1939 0.950 . S
C1962 C1963 1.349 . S
C1962 C1964 1.327 . S
C1962 H1987 0.950 . S
C1963 C1962 1.349 . S
C1963 C1979 1.349 . S
C1964 C1962 1.327 . S
C1964 C1983 1.429 . S
C1964 H1988 0.950 . S
C1965 C1982 1.574 . S
C1965 C1984 1.368 . S
C1965 H1989 0.949 . S
H1966 C1970 0.949 . S
C1967 C1968 1.349 . S
C1967 C1969 1.327 . S
C1967 H1990 0.950 . S
C1968 C1967 1.349 . S
C1968 C1980 1.349 . S
C1969 C1967 1.327 . S
C1969 C1985 1.429 . S
C1969 H1991 0.950 . S
C1970 H1966 0.949 . S
C1970 C1978 1.574 . S
C1970 C1986 1.368 . S
H1971 C1979 0.950 . S
H1972 C1977 0.950 . S
H1973 C1978 0.949 . S
H1974 C1980 0.950 . S
H1975 C1981 0.950 . S
H1976 C1982 0.949 . S
C1977 H1972 0.950 . S
C1977 C1979 1.327 . S
C1977 C1983 1.429 . S
C1978 C1970 1.574 . S
C1978 H1973 0.949 . S
C1978 C1984 1.368 . S
C1979 C1963 1.349 . S
C1979 H1971 0.950 . S
C1979 C1977 1.327 . S
C1980 C1968 1.349 . S
C1980 H1974 0.950 . S
C1980 C1981 1.327 . S
C1981 H1975 0.950 . S
C1981 C1980 1.327 . S
C1981 C1985 1.429 . S
C1982 C1965 1.574 . S
C1982 H1976 0.949 . S
C1982 C1986 1.368 . S
C1983 C1964 1.429 . S
C1983 C1977 1.429 . S
C1983 C1984 1.523 . S
C1984 C1965 1.368 . S
C1984 C1978 1.368 . S
C1984 C1983 1.523 . S
C1985 C1969 1.429 . S
C1985 C1981 1.429 . S
C1985 C1986 1.523 . S
C1986 C1970 1.368 . S
C1986 C1982 1.368 . S
C1986 C1985 1.523 . S
H1987 C1962 0.950 . S
H1988 C1964 0.950 . S
H1989 C1965 0.949 . S
H1990 C1967 0.950 . S
H1991 C1969 0.950 . S
C1992 C1993 1.349 . S
C1992 C1994 1.327 . S
C1992 H2017 0.950 . S
C1993 C1992 1.349 . S
C1993 C2009 1.349 . S
C1994 C1992 1.327 . S
C1994 C2013 1.429 . S
C1994 H2018 0.950 . S
C1995 C2012 1.574 . S
C1995 C2014 1.368 . S
C1995 H2019 0.949 . S
H1996 C2000 0.949 . S
C1997 C1998 1.349 . S
C1997 C1999 1.327 . S
C1997 H2020 0.950 . S
C1998 C1997 1.349 . S
C1998 C2010 1.349 . S
C1999 C1997 1.327 . S
C1999 C2015 1.429 . S
C1999 H2021 0.950 . S
C2000 H1996 0.949 . S
C2000 C2008 1.574 . S
C2000 C2016 1.368 . S
H2001 C2009 0.950 . S
H2002 C2007 0.950 . S
H2003 C2008 0.949 . S
H2004 C2010 0.950 . S
H2005 C2011 0.950 . S
H2006 C2012 0.949 . S
C2007 H2002 0.950 . S
C2007 C2009 1.327 . S
C2007 C2013 1.429 . S
C2008 C2000 1.574 . S
C2008 H2003 0.949 . S
C2008 C2014 1.368 . S
C2009 C1993 1.349 . S
C2009 H2001 0.950 . S
C2009 C2007 1.327 . S
C2010 C1998 1.349 . S
C2010 H2004 0.950 . S
C2010 C2011 1.327 . S
C2011 H2005 0.950 . S
C2011 C2010 1.327 . S
C2011 C2015 1.429 . S
C2012 C1995 1.574 . S
C2012 H2006 0.949 . S
C2012 C2016 1.368 . S
C2013 C1994 1.429 . S
C2013 C2007 1.429 . S
C2013 C2014 1.523 . S
C2014 C1995 1.368 . S
C2014 C2008 1.368 . S
C2014 C2013 1.523 . S
C2015 C1999 1.429 . S
C2015 C2011 1.429 . S
C2015 C2016 1.523 . S
C2016 C2000 1.368 . S
C2016 C2012 1.368 . S
C2016 C2015 1.523 . S
H2017 C1992 0.950 . S
H2018 C1994 0.950 . S
H2019 C1995 0.949 . S
H2020 C1997 0.950 . S
H2021 C1999 0.950 . S
C2022 C2023 1.349 . S
C2022 C2024 1.327 . S
C2022 H2047 0.950 . S
C2023 C2022 1.349 . S
C2023 C2039 1.349 . S
C2024 C2022 1.327 . S
C2024 C2043 1.429 . S
C2024 H2048 0.950 . S
C2025 C2042 1.574 . S
C2025 C2044 1.368 . S
C2025 H2049 0.949 . S
H2026 C2030 0.949 . S
C2027 C2028 1.349 . S
C2027 C2029 1.327 1_455 S
C2027 H2050 0.950 . S
C2028 C2027 1.349 . S
C2028 C2040 1.349 . S
C2029 C2027 1.327 1_655 S
C2029 C2045 1.429 . S
C2029 H2051 0.950 . S
C2030 H2026 0.949 . S
C2030 C2038 1.574 . S
C2030 C2046 1.368 . S
H2031 C2039 0.950 . S
H2032 C2037 0.950 . S
H2033 C2038 0.949 . S
H2034 C2040 0.950 . S
H2035 C2041 0.950 . S
H2036 C2042 0.949 . S
C2037 H2032 0.950 . S
C2037 C2039 1.327 . S
C2037 C2043 1.429 . S
C2038 C2030 1.574 . S
C2038 H2033 0.949 . S
C2038 C2044 1.368 . S
C2039 C2023 1.349 . S
C2039 H2031 0.950 . S
C2039 C2037 1.327 . S
C2040 C2028 1.349 . S
C2040 H2034 0.950 . S
C2040 C2041 1.327 1_455 S
C2041 H2035 0.950 . S
C2041 C2040 1.327 1_655 S
C2041 C2045 1.429 . S
C2042 C2025 1.574 . S
C2042 H2036 0.949 . S
C2042 C2046 1.368 . S
C2043 C2024 1.429 . S
C2043 C2037 1.429 . S
C2043 C2044 1.523 . S
C2044 C2025 1.368 . S
C2044 C2038 1.368 . S
C2044 C2043 1.523 . S
C2045 C2029 1.429 . S
C2045 C2041 1.429 . S
C2045 C2046 1.523 . S
C2046 C2030 1.368 . S
C2046 C2042 1.368 . S
C2046 C2045 1.523 . S
H2047 C2022 0.950 . S
H2048 C2024 0.950 . S
H2049 C2025 0.949 . S
H2050 C2027 0.950 . S
H2051 C2029 0.950 . S
C2052 C2053 1.349 . S
C2052 C2054 1.327 . S
C2052 H2077 0.950 . S
C2053 C2052 1.349 . S
C2053 C2069 1.349 . S
C2054 C2052 1.327 . S
C2054 C2073 1.429 . S
C2054 H2078 0.950 . S
C2055 C2072 1.574 . S
C2055 C2074 1.368 . S
C2055 H2079 0.949 . S
H2056 C2060 0.949 . S
C2057 C2058 1.349 . S
C2057 C2059 1.327 . S
C2057 H2080 0.950 . S
C2058 C2057 1.349 . S
C2058 C2070 1.349 . S
C2059 C2057 1.327 . S
C2059 C2075 1.429 . S
C2059 H2081 0.950 . S
C2060 H2056 0.949 . S
C2060 C2068 1.574 . S
C2060 C2076 1.368 . S
H2061 C2069 0.950 . S
H2062 C2067 0.950 . S
H2063 C2068 0.949 . S
H2064 C2070 0.950 . S
H2065 C2071 0.950 . S
H2066 C2072 0.949 . S
C2067 H2062 0.950 . S
C2067 C2069 1.327 . S
C2067 C2073 1.429 . S
C2068 C2060 1.574 . S
C2068 H2063 0.949 . S
C2068 C2074 1.368 . S
C2069 C2053 1.349 . S
C2069 H2061 0.950 . S
C2069 C2067 1.327 . S
C2070 C2058 1.349 . S
C2070 H2064 0.950 . S
C2070 C2071 1.327 . S
C2071 H2065 0.950 . S
C2071 C2070 1.327 . S
C2071 C2075 1.429 . S
C2072 C2055 1.574 . S
C2072 H2066 0.949 . S
C2072 C2076 1.368 . S
C2073 C2054 1.429 . S
C2073 C2067 1.429 . S
C2073 C2074 1.523 . S
C2074 C2055 1.368 . S
C2074 C2068 1.368 . S
C2074 C2073 1.523 . S
C2075 C2059 1.429 . S
C2075 C2071 1.429 . S
C2075 C2076 1.523 . S
C2076 C2060 1.368 . S
C2076 C2072 1.368 . S
C2076 C2075 1.523 . S
H2077 C2052 0.950 . S
H2078 C2054 0.950 . S
H2079 C2055 0.949 . S
H2080 C2057 0.950 . S
H2081 C2059 0.950 . S
C2082 C2083 1.349 . S
C2082 C2084 1.327 . S
C2082 H2107 0.950 . S
C2083 C2082 1.349 . S
C2083 C2099 1.349 . S
C2084 C2082 1.327 . S
C2084 C2103 1.429 . S
C2084 H2108 0.950 . S
C2085 C2102 1.574 . S
C2085 C2104 1.368 . S
C2085 H2109 0.949 . S
H2086 C2090 0.949 . S
C2087 C2088 1.349 . S
C2087 C2089 1.327 . S
C2087 H2110 0.950 . S
C2088 C2087 1.349 . S
C2088 C2100 1.349 . S
C2089 C2087 1.327 . S
C2089 C2105 1.429 . S
C2089 H2111 0.950 . S
C2090 H2086 0.949 . S
C2090 C2098 1.574 . S
C2090 C2106 1.368 . S
H2091 C2099 0.950 . S
H2092 C2097 0.950 . S
H2093 C2098 0.949 . S
H2094 C2100 0.950 . S
H2095 C2101 0.950 . S
H2096 C2102 0.949 . S
C2097 H2092 0.950 . S
C2097 C2099 1.327 . S
C2097 C2103 1.429 . S
C2098 C2090 1.574 . S
C2098 H2093 0.949 . S
C2098 C2104 1.368 . S
C2099 C2083 1.349 . S
C2099 H2091 0.950 . S
C2099 C2097 1.327 . S
C2100 C2088 1.349 . S
C2100 H2094 0.950 . S
C2100 C2101 1.327 . S
C2101 H2095 0.950 . S
C2101 C2100 1.327 . S
C2101 C2105 1.429 . S
C2102 C2085 1.574 . S
C2102 H2096 0.949 . S
C2102 C2106 1.368 . S
C2103 C2084 1.429 . S
C2103 C2097 1.429 . S
C2103 C2104 1.523 . S
C2104 C2085 1.368 . S
C2104 C2098 1.368 . S
C2104 C2103 1.523 . S
C2105 C2089 1.429 . S
C2105 C2101 1.429 . S
C2105 C2106 1.523 . S
C2106 C2090 1.368 . S
C2106 C2102 1.368 . S
C2106 C2105 1.523 . S
H2107 C2082 0.950 . S
H2108 C2084 0.950 . S
H2109 C2085 0.949 . S
H2110 C2087 0.950 . S
H2111 C2089 0.950 . S
C2112 C2113 1.349 . S
C2112 C2114 1.327 . S
C2112 H2137 0.950 . S
C2113 C2112 1.349 . S
C2113 C2129 1.349 . S
C2114 C2112 1.327 . S
C2114 C2133 1.429 . S
C2114 H2138 0.950 . S
C2115 C2132 1.574 . S
C2115 C2134 1.368 . S
C2115 H2139 0.949 . S
H2116 C2120 0.949 . S
C2117 C2118 1.349 . S
C2117 C2119 1.327 . S
C2117 H2140 0.950 . S
C2118 C2117 1.349 . S
C2118 C2130 1.349 . S
C2119 C2117 1.327 . S
C2119 C2135 1.429 . S
C2119 H2141 0.950 . S
C2120 H2116 0.949 . S
C2120 C2128 1.574 . S
C2120 C2136 1.368 . S
H2121 C2129 0.950 . S
H2122 C2127 0.950 . S
H2123 C2128 0.949 . S
H2124 C2130 0.950 . S
H2125 C2131 0.950 . S
H2126 C2132 0.949 . S
C2127 H2122 0.950 . S
C2127 C2129 1.327 . S
C2127 C2133 1.429 . S
C2128 C2120 1.574 . S
C2128 H2123 0.949 . S
C2128 C2134 1.368 . S
C2129 C2113 1.349 . S
C2129 H2121 0.950 . S
C2129 C2127 1.327 . S
C2130 C2118 1.349 . S
C2130 H2124 0.950 . S
C2130 C2131 1.327 . S
C2131 H2125 0.950 . S
C2131 C2130 1.327 . S
C2131 C2135 1.429 . S
C2132 C2115 1.574 . S
C2132 H2126 0.949 . S
C2132 C2136 1.368 . S
C2133 C2114 1.429 . S
C2133 C2127 1.429 . S
C2133 C2134 1.523 . S
C2134 C2115 1.368 . S
C2134 C2128 1.368 . S
C2134 C2133 1.523 . S
C2135 C2119 1.429 . S
C2135 C2131 1.429 . S
C2135 C2136 1.523 . S
C2136 C2120 1.368 . S
C2136 C2132 1.368 . S
C2136 C2135 1.523 . S
H2137 C2112 0.950 . S
H2138 C2114 0.950 . S
H2139 C2115 0.949 . S
H2140 C2117 0.950 . S
H2141 C2119 0.950 . S
C2142 C2143 1.349 . S
C2142 C2144 1.327 . S
C2142 H2167 0.950 . S
C2143 C2142 1.349 . S
C2143 C2159 1.349 . S
C2144 C2142 1.327 . S
C2144 C2163 1.429 . S
C2144 H2168 0.950 . S
C2145 C2162 1.574 . S
C2145 C2164 1.368 . S
C2145 H2169 0.949 . S
H2146 C2150 0.949 . S
C2147 C2148 1.349 . S
C2147 C2149 1.327 . S
C2147 H2170 0.950 . S
C2148 C2147 1.349 . S
C2148 C2160 1.349 . S
C2149 C2147 1.327 . S
C2149 C2165 1.429 . S
C2149 H2171 0.950 . S
C2150 H2146 0.949 . S
C2150 C2158 1.574 . S
C2150 C2166 1.368 . S
H2151 C2159 0.950 . S
H2152 C2157 0.950 . S
H2153 C2158 0.949 . S
H2154 C2160 0.950 . S
H2155 C2161 0.950 . S
H2156 C2162 0.949 . S
C2157 H2152 0.950 . S
C2157 C2159 1.327 . S
C2157 C2163 1.429 . S
C2158 C2150 1.574 . S
C2158 H2153 0.949 . S
C2158 C2164 1.368 . S
C2159 C2143 1.349 . S
C2159 H2151 0.950 . S
C2159 C2157 1.327 . S
C2160 C2148 1.349 . S
C2160 H2154 0.950 . S
C2160 C2161 1.327 . S
C2161 H2155 0.950 . S
C2161 C2160 1.327 . S
C2161 C2165 1.429 . S
C2162 C2145 1.574 . S
C2162 H2156 0.949 . S
C2162 C2166 1.368 . S
C2163 C2144 1.429 . S
C2163 C2157 1.429 . S
C2163 C2164 1.523 . S
C2164 C2145 1.368 . S
C2164 C2158 1.368 . S
C2164 C2163 1.523 . S
C2165 C2149 1.429 . S
C2165 C2161 1.429 . S
C2165 C2166 1.523 . S
C2166 C2150 1.368 . S
C2166 C2162 1.368 . S
C2166 C2165 1.523 . S
H2167 C2142 0.950 . S
H2168 C2144 0.950 . S
H2169 C2145 0.949 . S
H2170 C2147 0.950 . S
H2171 C2149 0.950 . S
C2172 C2173 1.349 . S
C2172 C2174 1.327 . S
C2172 H2197 0.950 . S
C2173 C2172 1.349 . S
C2173 C2189 1.349 . S
C2174 C2172 1.327 . S
C2174 C2193 1.429 . S
C2174 H2198 0.950 . S
C2175 C2192 1.574 . S
C2175 C2194 1.368 . S
C2175 H2199 0.949 . S
H2176 C2180 0.949 . S
C2177 C2178 1.349 . S
C2177 C2179 1.327 . S
C2177 H2200 0.950 . S
C2178 C2177 1.349 . S
C2178 C2190 1.349 . S
C2179 C2177 1.327 . S
C2179 C2195 1.429 . S
C2179 H2201 0.950 . S
C2180 H2176 0.949 . S
C2180 C2188 1.574 . S
C2180 C2196 1.368 . S
H2181 C2189 0.950 . S
H2182 C2187 0.950 . S
H2183 C2188 0.949 . S
H2184 C2190 0.950 . S
H2185 C2191 0.950 . S
H2186 C2192 0.949 . S
C2187 H2182 0.950 . S
C2187 C2189 1.327 . S
C2187 C2193 1.429 . S
C2188 C2180 1.574 . S
C2188 H2183 0.949 . S
C2188 C2194 1.368 . S
C2189 C2173 1.349 . S
C2189 H2181 0.950 . S
C2189 C2187 1.327 . S
C2190 C2178 1.349 . S
C2190 H2184 0.950 . S
C2190 C2191 1.327 . S
C2191 H2185 0.950 . S
C2191 C2190 1.327 . S
C2191 C2195 1.429 . S
C2192 C2175 1.574 . S
C2192 H2186 0.949 . S
C2192 C2196 1.368 . S
C2193 C2174 1.429 . S
C2193 C2187 1.429 . S
C2193 C2194 1.523 . S
C2194 C2175 1.368 . S
C2194 C2188 1.368 . S
C2194 C2193 1.523 . S
C2195 C2179 1.429 . S
C2195 C2191 1.429 . S
C2195 C2196 1.523 . S
C2196 C2180 1.368 . S
C2196 C2192 1.368 . S
C2196 C2195 1.523 . S
H2197 C2172 0.950 . S
H2198 C2174 0.950 . S
H2199 C2175 0.949 . S
H2200 C2177 0.950 . S
H2201 C2179 0.950 . S
C2202 C2203 1.364 . S
C2202 C2204 1.327 . S
C2202 H2227 0.950 . S
C2203 C2202 1.364 . S
C2203 C2219 1.341 1_545 S
C2204 C2202 1.327 . S
C2204 C2223 1.429 . S
C2204 H2228 0.950 . S
C2205 C2222 1.571 . S
C2205 C2224 1.364 . S
C2205 H2229 0.956 1_545 S
H2206 C2210 0.949 . S
C2207 C2208 1.349 . S
C2207 C2209 1.327 . S
C2207 H2230 0.950 . S
C2208 C2207 1.349 . S
C2208 C2220 1.349 . S
C2209 C2207 1.327 . S
C2209 C2225 1.429 . S
C2209 H2231 0.950 . S
C2210 H2206 0.949 . S
C2210 C2218 1.574 . S
C2210 C2226 1.368 . S
H2211 C2219 0.950 . S
H2212 C2217 0.950 . S
H2213 C2218 0.949 . S
H2214 C2220 0.950 . S
H2215 C2221 0.950 . S
H2216 C2222 0.949 1_565 S
C2217 H2212 0.950 . S
C2217 C2219 1.327 . S
C2217 C2223 1.429 1_565 S
C2218 C2210 1.574 . S
C2218 H2213 0.949 . S
C2218 C2224 1.368 . S
C2219 C2203 1.341 1_565 S
C2219 H2211 0.950 . S
C2219 C2217 1.327 . S
C2220 C2208 1.349 . S
C2220 H2214 0.950 . S
C2220 C2221 1.327 . S
C2221 H2215 0.950 . S
C2221 C2220 1.327 . S
C2221 C2225 1.429 . S
C2222 C2205 1.571 . S
C2222 H2216 0.949 1_545 S
C2222 C2226 1.368 . S
C2223 C2204 1.429 . S
C2223 C2217 1.429 1_545 S
C2223 C2224 1.523 . S
C2224 C2205 1.364 . S
C2224 C2218 1.368 . S
C2224 C2223 1.523 . S
C2225 C2209 1.429 . S
C2225 C2221 1.429 . S
C2225 C2226 1.523 . S
C2226 C2210 1.368 . S
C2226 C2222 1.368 . S
C2226 C2225 1.523 . S
H2227 C2202 0.950 . S
H2228 C2204 0.950 . S
H2229 C2205 0.956 1_565 S
H2230 C2207 0.950 . S
H2231 C2209 0.950 . S
C2232 C2233 1.349 . S
C2232 C2234 1.327 . S
C2232 H2257 0.950 . S
C2233 C2232 1.349 . S
C2233 C2249 1.349 . S
C2234 C2232 1.327 . S
C2234 C2253 1.429 . S
C2234 H2258 0.950 . S
C2235 C2252 1.574 . S
C2235 C2254 1.368 . S
C2235 H2259 0.949 . S
H2236 C2240 0.949 . S
C2237 C2238 1.349 . S
C2237 C2239 1.327 . S
C2237 H2260 0.950 . S
C2238 C2237 1.349 . S
C2238 C2250 1.349 . S
C2239 C2237 1.327 . S
C2239 C2255 1.429 . S
C2239 H2261 0.950 . S
C2240 H2236 0.949 . S
C2240 C2248 1.574 . S
C2240 C2256 1.368 . S
H2241 C2249 0.950 . S
H2242 C2247 0.950 . S
H2243 C2248 0.949 . S
H2244 C2250 0.950 . S
H2245 C2251 0.950 . S
H2246 C2252 0.949 . S
C2247 H2242 0.950 . S
C2247 C2249 1.327 . S
C2247 C2253 1.429 . S
C2248 C2240 1.574 . S
C2248 H2243 0.949 . S
C2248 C2254 1.368 . S
C2249 C2233 1.349 . S
C2249 H2241 0.950 . S
C2249 C2247 1.327 . S
C2250 C2238 1.349 . S
C2250 H2244 0.950 . S
C2250 C2251 1.327 . S
C2251 H2245 0.950 . S
C2251 C2250 1.327 . S
C2251 C2255 1.429 . S
C2252 C2235 1.574 . S
C2252 H2246 0.949 . S
C2252 C2256 1.368 . S
C2253 C2234 1.429 . S
C2253 C2247 1.429 . S
C2253 C2254 1.523 . S
C2254 C2235 1.368 . S
C2254 C2248 1.368 . S
C2254 C2253 1.523 . S
C2255 C2239 1.429 . S
C2255 C2251 1.429 . S
C2255 C2256 1.523 . S
C2256 C2240 1.368 . S
C2256 C2252 1.368 . S
C2256 C2255 1.523 . S
H2257 C2232 0.950 . S
H2258 C2234 0.950 . S
H2259 C2235 0.949 . S
H2260 C2237 0.950 . S
H2261 C2239 0.950 . S
C2262 C2263 1.349 . S
C2262 C2264 1.327 . S
C2262 H2287 0.950 . S
C2263 C2262 1.349 . S
C2263 C2279 1.349 . S
C2264 C2262 1.327 . S
C2264 C2283 1.429 . S
C2264 H2288 0.950 . S
C2265 C2282 1.574 . S
C2265 C2284 1.368 . S
C2265 H2289 0.949 . S
H2266 C2270 0.949 . S
C2267 C2268 1.349 . S
C2267 C2269 1.327 . S
C2267 H2290 0.950 . S
C2268 C2267 1.349 . S
C2268 C2280 1.349 . S
C2269 C2267 1.327 . S
C2269 C2285 1.429 . S
C2269 H2291 0.950 . S
C2270 H2266 0.949 . S
C2270 C2278 1.574 . S
C2270 C2286 1.368 . S
H2271 C2279 0.950 . S
H2272 C2277 0.950 . S
H2273 C2278 0.949 . S
H2274 C2280 0.950 . S
H2275 C2281 0.950 . S
H2276 C2282 0.949 . S
C2277 H2272 0.950 . S
C2277 C2279 1.327 . S
C2277 C2283 1.429 . S
C2278 C2270 1.574 . S
C2278 H2273 0.949 . S
C2278 C2284 1.368 . S
C2279 C2263 1.349 . S
C2279 H2271 0.950 . S
C2279 C2277 1.327 . S
C2280 C2268 1.349 . S
C2280 H2274 0.950 . S
C2280 C2281 1.327 . S
C2281 H2275 0.950 . S
C2281 C2280 1.327 . S
C2281 C2285 1.429 . S
C2282 C2265 1.574 . S
C2282 H2276 0.949 . S
C2282 C2286 1.368 . S
C2283 C2264 1.429 . S
C2283 C2277 1.429 . S
C2283 C2284 1.523 . S
C2284 C2265 1.368 . S
C2284 C2278 1.368 . S
C2284 C2283 1.523 . S
C2285 C2269 1.429 . S
C2285 C2281 1.429 . S
C2285 C2286 1.523 . S
C2286 C2270 1.368 . S
C2286 C2282 1.368 . S
C2286 C2285 1.523 . S
H2287 C2262 0.950 . S
H2288 C2264 0.950 . S
H2289 C2265 0.949 . S
H2290 C2267 0.950 . S
H2291 C2269 0.950 . S
C2292 C2293 1.349 . S
C2292 C2294 1.327 . S
C2292 H2317 0.950 . S
C2293 C2292 1.349 . S
C2293 C2309 1.349 . S
C2294 C2292 1.327 . S
C2294 C2313 1.429 . S
C2294 H2318 0.950 . S
C2295 C2312 1.574 . S
C2295 C2314 1.368 . S
C2295 H2319 0.949 . S
H2296 C2300 0.949 . S
C2297 C2298 1.349 . S
C2297 C2299 1.327 . S
C2297 H2320 0.950 . S
C2298 C2297 1.349 . S
C2298 C2310 1.349 . S
C2299 C2297 1.327 . S
C2299 C2315 1.429 . S
C2299 H2321 0.950 . S
C2300 H2296 0.949 . S
C2300 C2308 1.574 . S
C2300 C2316 1.368 . S
H2301 C2309 0.950 . S
H2302 C2307 0.950 . S
H2303 C2308 0.949 . S
H2304 C2310 0.950 . S
H2305 C2311 0.950 . S
H2306 C2312 0.949 . S
C2307 H2302 0.950 . S
C2307 C2309 1.327 . S
C2307 C2313 1.429 . S
C2308 C2300 1.574 . S
C2308 H2303 0.949 . S
C2308 C2314 1.368 . S
C2309 C2293 1.349 . S
C2309 H2301 0.950 . S
C2309 C2307 1.327 . S
C2310 C2298 1.349 . S
C2310 H2304 0.950 . S
C2310 C2311 1.327 . S
C2311 H2305 0.950 . S
C2311 C2310 1.327 . S
C2311 C2315 1.429 . S
C2312 C2295 1.574 . S
C2312 H2306 0.949 . S
C2312 C2316 1.368 . S
C2313 C2294 1.429 . S
C2313 C2307 1.429 . S
C2313 C2314 1.523 . S
C2314 C2295 1.368 . S
C2314 C2308 1.368 . S
C2314 C2313 1.523 . S
C2315 C2299 1.429 . S
C2315 C2311 1.429 . S
C2315 C2316 1.523 . S
C2316 C2300 1.368 . S
C2316 C2312 1.368 . S
C2316 C2315 1.523 . S
H2317 C2292 0.950 . S
H2318 C2294 0.950 . S
H2319 C2295 0.949 . S
H2320 C2297 0.950 . S
H2321 C2299 0.950 . S
C2322 C2323 1.349 . S
C2322 C2324 1.327 . S
C2322 H2347 0.950 . S
C2323 C2322 1.349 . S
C2323 C2339 1.349 . S
C2324 C2322 1.327 . S
C2324 C2343 1.429 . S
C2324 H2348 0.950 . S
C2325 C2342 1.574 . S
C2325 C2344 1.368 . S
C2325 H2349 0.949 . S
H2326 C2330 0.949 . S
C2327 C2328 1.349 . S
C2327 C2329 1.327 . S
C2327 H2350 0.950 . S
C2328 C2327 1.349 . S
C2328 C2340 1.349 . S
C2329 C2327 1.327 . S
C2329 C2345 1.429 . S
C2329 H2351 0.950 . S
C2330 H2326 0.949 . S
C2330 C2338 1.574 . S
C2330 C2346 1.368 . S
H2331 C2339 0.950 . S
H2332 C2337 0.950 . S
H2333 C2338 0.949 . S
H2334 C2340 0.950 . S
H2335 C2341 0.950 . S
H2336 C2342 0.949 . S
C2337 H2332 0.950 . S
C2337 C2339 1.327 . S
C2337 C2343 1.429 . S
C2338 C2330 1.574 . S
C2338 H2333 0.949 . S
C2338 C2344 1.368 . S
C2339 C2323 1.349 . S
C2339 H2331 0.950 . S
C2339 C2337 1.327 . S
C2340 C2328 1.349 . S
C2340 H2334 0.950 . S
C2340 C2341 1.327 . S
C2341 H2335 0.950 . S
C2341 C2340 1.327 . S
C2341 C2345 1.429 . S
C2342 C2325 1.574 . S
C2342 H2336 0.949 . S
C2342 C2346 1.368 . S
C2343 C2324 1.429 . S
C2343 C2337 1.429 . S
C2343 C2344 1.523 . S
C2344 C2325 1.368 . S
C2344 C2338 1.368 . S
C2344 C2343 1.523 . S
C2345 C2329 1.429 . S
C2345 C2341 1.429 . S
C2345 C2346 1.523 . S
C2346 C2330 1.368 . S
C2346 C2342 1.368 . S
C2346 C2345 1.523 . S
H2347 C2322 0.950 . S
H2348 C2324 0.950 . S
H2349 C2325 0.949 . S
H2350 C2327 0.950 . S
H2351 C2329 0.950 . S
C2352 C2353 1.349 . S
C2352 C2354 1.327 . S
C2352 H2377 0.950 . S
C2353 C2352 1.349 . S
C2353 C2369 1.349 . S
C2354 C2352 1.327 . S
C2354 C2373 1.429 . S
C2354 H2378 0.950 . S
C2355 C2372 1.574 . S
C2355 C2374 1.368 . S
C2355 H2379 0.949 . S
H2356 C2360 0.949 . S
C2357 C2358 1.349 . S
C2357 C2359 1.327 . S
C2357 H2380 0.950 . S
C2358 C2357 1.349 . S
C2358 C2370 1.349 . S
C2359 C2357 1.327 . S
C2359 C2375 1.429 . S
C2359 H2381 0.950 . S
C2360 H2356 0.949 . S
C2360 C2368 1.574 . S
C2360 C2376 1.368 . S
H2361 C2369 0.950 . S
H2362 C2367 0.950 . S
H2363 C2368 0.949 . S
H2364 C2370 0.950 . S
H2365 C2371 0.950 . S
H2366 C2372 0.949 . S
C2367 H2362 0.950 . S
C2367 C2369 1.327 . S
C2367 C2373 1.429 . S
C2368 C2360 1.574 . S
C2368 H2363 0.949 . S
C2368 C2374 1.368 . S
C2369 C2353 1.349 . S
C2369 H2361 0.950 . S
C2369 C2367 1.327 . S
C2370 C2358 1.349 . S
C2370 H2364 0.950 . S
C2370 C2371 1.327 . S
C2371 H2365 0.950 . S
C2371 C2370 1.327 . S
C2371 C2375 1.429 . S
C2372 C2355 1.574 . S
C2372 H2366 0.949 . S
C2372 C2376 1.368 . S
C2373 C2354 1.429 . S
C2373 C2367 1.429 . S
C2373 C2374 1.523 . S
C2374 C2355 1.368 . S
C2374 C2368 1.368 . S
C2374 C2373 1.523 . S
C2375 C2359 1.429 . S
C2375 C2371 1.429 . S
C2375 C2376 1.523 . S
C2376 C2360 1.368 . S
C2376 C2372 1.368 . S
C2376 C2375 1.523 . S
H2377 C2352 0.950 . S
H2378 C2354 0.950 . S
H2379 C2355 0.949 . S
H2380 C2357 0.950 . S
H2381 C2359 0.950 . S
C2382 C2383 1.349 1_565 S
C2382 C2384 1.327 . S
C2382 H2407 0.950 . S
C2383 C2382 1.349 1_545 S
C2383 C2399 1.349 . S
C2384 C2382 1.327 . S
C2384 C2403 1.429 1_565 S
C2384 H2408 0.950 . S
C2385 C2402 1.574 . S
C2385 C2404 1.368 . S
C2385 H2409 0.949 . S
H2386 C2390 0.949 . S
C2387 C2388 1.349 . S
C2387 C2389 1.327 . S
C2387 H2410 0.950 . S
C2388 C2387 1.349 . S
C2388 C2400 1.349 . S
C2389 C2387 1.327 . S
C2389 C2405 1.429 . S
C2389 H2411 0.950 . S
C2390 H2386 0.949 . S
C2390 C2398 1.574 . S
C2390 C2406 1.368 . S
H2391 C2399 0.950 . S
H2392 C2397 0.950 . S
H2393 C2398 0.949 1_565 S
H2394 C2400 0.950 . S
H2395 C2401 0.950 . S
H2396 C2402 0.949 . S
C2397 H2392 0.950 . S
C2397 C2399 1.327 . S
C2397 C2403 1.429 . S
C2398 C2390 1.574 . S
C2398 H2393 0.949 1_545 S
C2398 C2404 1.368 . S
C2399 C2383 1.349 . S
C2399 H2391 0.950 . S
C2399 C2397 1.327 . S
C2400 C2388 1.349 . S
C2400 H2394 0.950 . S
C2400 C2401 1.327 . S
C2401 H2395 0.950 . S
C2401 C2400 1.327 . S
C2401 C2405 1.429 . S
C2402 C2385 1.574 . S
C2402 H2396 0.949 . S
C2402 C2406 1.368 . S
C2403 C2384 1.429 1_545 S
C2403 C2397 1.429 . S
C2403 C2404 1.523 . S
C2404 C2385 1.368 . S
C2404 C2398 1.368 . S
C2404 C2403 1.523 . S
C2405 C2389 1.429 . S
C2405 C2401 1.429 . S
C2405 C2406 1.523 . S
C2406 C2390 1.368 . S
C2406 C2402 1.368 . S
C2406 C2405 1.523 . S
H2407 C2382 0.950 . S
H2408 C2384 0.950 . S
H2409 C2385 0.949 . S
H2410 C2387 0.950 . S
H2411 C2389 0.950 . S
C2412 C2413 1.349 . S
C2412 C2414 1.327 . S
C2412 H2437 0.950 . S
C2413 C2412 1.349 . S
C2413 C2429 1.349 . S
C2414 C2412 1.327 . S
C2414 C2433 1.429 . S
C2414 H2438 0.950 . S
C2415 C2432 1.574 . S
C2415 C2434 1.368 . S
C2415 H2439 0.949 . S
H2416 C2420 0.949 . S
C2417 C2418 1.349 . S
C2417 C2419 1.327 . S
C2417 H2440 0.950 . S
C2418 C2417 1.349 . S
C2418 C2430 1.349 . S
C2419 C2417 1.327 . S
C2419 C2435 1.429 . S
C2419 H2441 0.950 . S
C2420 H2416 0.949 . S
C2420 C2428 1.574 . S
C2420 C2436 1.368 . S
H2421 C2429 0.950 . S
H2422 C2427 0.950 . S
H2423 C2428 0.949 . S
H2424 C2430 0.950 . S
H2425 C2431 0.950 . S
H2426 C2432 0.949 . S
C2427 H2422 0.950 . S
C2427 C2429 1.327 . S
C2427 C2433 1.429 . S
C2428 C2420 1.574 . S
C2428 H2423 0.949 . S
C2428 C2434 1.368 . S
C2429 C2413 1.349 . S
C2429 H2421 0.950 . S
C2429 C2427 1.327 . S
C2430 C2418 1.349 . S
C2430 H2424 0.950 . S
C2430 C2431 1.327 . S
C2431 H2425 0.950 . S
C2431 C2430 1.327 . S
C2431 C2435 1.429 . S
C2432 C2415 1.574 . S
C2432 H2426 0.949 . S
C2432 C2436 1.368 . S
C2433 C2414 1.429 . S
C2433 C2427 1.429 . S
C2433 C2434 1.523 . S
C2434 C2415 1.368 . S
C2434 C2428 1.368 . S
C2434 C2433 1.523 . S
C2435 C2419 1.429 . S
C2435 C2431 1.429 . S
C2435 C2436 1.523 . S
C2436 C2420 1.368 . S
C2436 C2432 1.368 . S
C2436 C2435 1.523 . S
H2437 C2412 0.950 . S
H2438 C2414 0.950 . S
H2439 C2415 0.949 . S
H2440 C2417 0.950 . S
H2441 C2419 0.950 . S
C2442 C2443 1.349 . S
C2442 C2444 1.327 . S
C2442 H2467 0.950 . S
C2443 C2442 1.349 . S
C2443 C2459 1.349 . S
C2444 C2442 1.327 . S
C2444 C2463 1.429 . S
C2444 H2468 0.950 . S
C2445 C2462 1.574 . S
C2445 C2464 1.368 . S
C2445 H2469 0.949 . S
H2446 C2450 0.949 . S
C2447 C2448 1.349 . S
C2447 C2449 1.327 . S
C2447 H2470 0.950 . S
C2448 C2447 1.349 . S
C2448 C2460 1.349 . S
C2449 C2447 1.327 . S
C2449 C2465 1.429 . S
C2449 H2471 0.950 . S
C2450 H2446 0.949 . S
C2450 C2458 1.574 . S
C2450 C2466 1.368 . S
H2451 C2459 0.950 . S
H2452 C2457 0.950 . S
H2453 C2458 0.949 . S
H2454 C2460 0.904 1_655 S
H2455 C2461 0.950 . S
H2456 C2462 0.949 . S
C2457 H2452 0.950 . S
C2457 C2459 1.327 . S
C2457 C2463 1.429 . S
C2458 C2450 1.574 . S
C2458 H2453 0.949 . S
C2458 C2464 1.368 . S
C2459 C2443 1.349 . S
C2459 H2451 0.950 . S
C2459 C2457 1.327 . S
C2460 C2448 1.349 . S
C2460 H2454 0.904 1_455 S
C2460 C2461 1.327 . S
C2461 H2455 0.950 . S
C2461 C2460 1.327 . S
C2461 C2465 1.429 . S
C2462 C2445 1.574 . S
C2462 H2456 0.949 . S
C2462 C2466 1.368 . S
C2463 C2444 1.429 . S
C2463 C2457 1.429 . S
C2463 C2464 1.523 . S
C2464 C2445 1.368 . S
C2464 C2458 1.368 . S
C2464 C2463 1.523 . S
C2465 C2449 1.429 . S
C2465 C2461 1.429 . S
C2465 C2466 1.523 . S
C2466 C2450 1.368 . S
C2466 C2462 1.368 . S
C2466 C2465 1.523 . S
H2467 C2442 0.950 . S
H2468 C2444 0.950 . S
H2469 C2445 0.949 . S
H2470 C2447 0.950 . S
H2471 C2449 0.950 . S
C2472 C2473 1.349 . S
C2472 C2474 1.327 . S
C2472 H2497 0.950 . S
C2473 C2472 1.349 . S
C2473 C2489 1.349 . S
C2474 C2472 1.327 . S
C2474 C2493 1.429 . S
C2474 H2498 0.950 . S
C2475 C2492 1.574 . S
C2475 C2494 1.368 . S
C2475 H2499 0.949 . S
H2476 C2480 0.949 . S
C2477 C2478 1.349 . S
C2477 C2479 1.327 . S
C2477 H2500 0.950 . S
C2478 C2477 1.349 . S
C2478 C2490 1.349 . S
C2479 C2477 1.327 . S
C2479 C2495 1.429 . S
C2479 H2501 0.950 . S
C2480 H2476 0.949 . S
C2480 C2488 1.574 . S
C2480 C2496 1.368 . S
H2481 C2489 0.950 . S
H2482 C2487 0.950 . S
H2483 C2488 0.949 . S
H2484 C2490 0.950 . S
H2485 C2491 0.950 . S
H2486 C2492 0.949 . S
C2487 H2482 0.950 . S
C2487 C2489 1.327 . S
C2487 C2493 1.429 . S
C2488 C2480 1.574 . S
C2488 H2483 0.949 . S
C2488 C2494 1.368 . S
C2489 C2473 1.349 . S
C2489 H2481 0.950 . S
C2489 C2487 1.327 . S
C2490 C2478 1.349 . S
C2490 H2484 0.950 . S
C2490 C2491 1.327 . S
C2491 H2485 0.950 . S
C2491 C2490 1.327 . S
C2491 C2495 1.429 . S
C2492 C2475 1.574 . S
C2492 H2486 0.949 . S
C2492 C2496 1.368 . S
C2493 C2474 1.429 . S
C2493 C2487 1.429 . S
C2493 C2494 1.523 . S
C2494 C2475 1.368 . S
C2494 C2488 1.368 . S
C2494 C2493 1.523 . S
C2495 C2479 1.429 . S
C2495 C2491 1.429 . S
C2495 C2496 1.523 . S
C2496 C2480 1.368 . S
C2496 C2492 1.368 . S
C2496 C2495 1.523 . S
H2497 C2472 0.950 . S
H2498 C2474 0.950 . S
H2499 C2475 0.949 . S
H2500 C2477 0.950 . S
H2501 C2479 0.950 . S
C2502 C2503 1.349 . S
C2502 C2504 1.327 . S
C2502 H2527 0.950 . S
C2503 C2502 1.349 . S
C2503 C2519 1.349 . S
C2504 C2502 1.327 . S
C2504 C2523 1.429 . S
C2504 H2528 0.950 . S
C2505 C2522 1.574 . S
C2505 C2524 1.368 . S
C2505 H2529 0.949 . S
H2506 C2510 0.949 . S
C2507 C2508 1.349 . S
C2507 C2509 1.327 . S
C2507 H2530 0.950 . S
C2508 C2507 1.349 . S
C2508 C2520 1.349 . S
C2509 C2507 1.327 . S
C2509 C2525 1.429 . S
C2509 H2531 0.950 . S
C2510 H2506 0.949 . S
C2510 C2518 1.574 . S
C2510 C2526 1.368 . S
H2511 C2519 0.950 . S
H2512 C2517 0.950 . S
H2513 C2518 0.949 . S
H2514 C2520 0.950 . S
H2515 C2521 0.950 . S
H2516 C2522 0.949 . S
C2517 H2512 0.950 . S
C2517 C2519 1.327 . S
C2517 C2523 1.429 . S
C2518 C2510 1.574 . S
C2518 H2513 0.949 . S
C2518 C2524 1.368 . S
C2519 C2503 1.349 . S
C2519 H2511 0.950 . S
C2519 C2517 1.327 . S
C2520 C2508 1.349 . S
C2520 H2514 0.950 . S
C2520 C2521 1.327 . S
C2521 H2515 0.950 . S
C2521 C2520 1.327 . S
C2521 C2525 1.429 . S
C2522 C2505 1.574 . S
C2522 H2516 0.949 . S
C2522 C2526 1.368 . S
C2523 C2504 1.429 . S
C2523 C2517 1.429 . S
C2523 C2524 1.523 . S
C2524 C2505 1.368 . S
C2524 C2518 1.368 . S
C2524 C2523 1.523 . S
C2525 C2509 1.429 . S
C2525 C2521 1.429 . S
C2525 C2526 1.523 . S
C2526 C2510 1.368 . S
C2526 C2522 1.368 . S
C2526 C2525 1.523 . S
H2527 C2502 0.950 . S
H2528 C2504 0.950 . S
H2529 C2505 0.949 . S
H2530 C2507 0.950 . S
H2531 C2509 0.950 . S
C2532 C2533 1.349 . S
C2532 C2534 1.327 . S
C2532 H2557 0.950 . S
C2533 C2532 1.349 . S
C2533 C2549 1.349 . S
C2534 C2532 1.327 . S
C2534 C2553 1.429 . S
C2534 H2558 0.950 . S
C2535 C2552 1.574 . S
C2535 C2554 1.368 . S
C2535 H2559 0.949 . S
H2536 C2540 0.949 . S
C2537 C2538 1.349 . S
C2537 C2539 1.327 . S
C2537 H2560 0.950 . S
C2538 C2537 1.349 . S
C2538 C2550 1.349 . S
C2539 C2537 1.327 . S
C2539 C2555 1.429 . S
C2539 H2561 0.950 . S
C2540 H2536 0.949 . S
C2540 C2548 1.574 . S
C2540 C2556 1.368 . S
H2541 C2549 0.950 . S
H2542 C2547 0.950 . S
H2543 C2548 0.949 . S
H2544 C2550 0.950 . S
H2545 C2551 0.950 . S
H2546 C2552 0.949 . S
C2547 H2542 0.950 . S
C2547 C2549 1.327 . S
C2547 C2553 1.429 . S
C2548 C2540 1.574 . S
C2548 H2543 0.949 . S
C2548 C2554 1.368 . S
C2549 C2533 1.349 . S
C2549 H2541 0.950 . S
C2549 C2547 1.327 . S
C2550 C2538 1.349 . S
C2550 H2544 0.950 . S
C2550 C2551 1.327 . S
C2551 H2545 0.950 . S
C2551 C2550 1.327 . S
C2551 C2555 1.429 . S
C2552 C2535 1.574 . S
C2552 H2546 0.949 . S
C2552 C2556 1.368 . S
C2553 C2534 1.429 . S
C2553 C2547 1.429 . S
C2553 C2554 1.523 . S
C2554 C2535 1.368 . S
C2554 C2548 1.368 . S
C2554 C2553 1.523 . S
C2555 C2539 1.429 . S
C2555 C2551 1.429 . S
C2555 C2556 1.523 . S
C2556 C2540 1.368 . S
C2556 C2552 1.368 . S
C2556 C2555 1.523 . S
H2557 C2532 0.950 . S
H2558 C2534 0.950 . S
H2559 C2535 0.949 . S
H2560 C2537 0.950 . S
H2561 C2539 0.950 . S
C2562 C2563 1.349 . S
C2562 C2564 1.327 . S
C2562 H2587 0.950 . S
C2563 C2562 1.349 . S
C2563 C2579 1.349 . S
C2564 C2562 1.327 . S
C2564 C2583 1.429 . S
C2564 H2588 0.950 . S
C2565 C2582 1.574 . S
C2565 C2584 1.368 . S
C2565 H2589 0.949 . S
H2566 C2570 0.949 . S
C2567 C2568 1.349 . S
C2567 C2569 1.327 . S
C2567 H2590 0.950 . S
C2568 C2567 1.349 . S
C2568 C2580 1.349 . S
C2569 C2567 1.327 . S
C2569 C2585 1.429 . S
C2569 H2591 0.950 . S
C2570 H2566 0.949 . S
C2570 C2578 1.574 . S
C2570 C2586 1.368 . S
H2571 C2579 0.950 . S
H2572 C2577 0.950 . S
H2573 C2578 0.949 . S
H2574 C2580 0.950 . S
H2575 C2581 0.950 . S
H2576 C2582 0.949 . S
C2577 H2572 0.950 . S
C2577 C2579 1.327 . S
C2577 C2583 1.429 . S
C2578 C2570 1.574 . S
C2578 H2573 0.949 . S
C2578 C2584 1.368 . S
C2579 C2563 1.349 . S
C2579 H2571 0.950 . S
C2579 C2577 1.327 . S
C2580 C2568 1.349 . S
C2580 H2574 0.950 . S
C2580 C2581 1.327 . S
C2581 H2575 0.950 . S
C2581 C2580 1.327 . S
C2581 C2585 1.429 . S
C2582 C2565 1.574 . S
C2582 H2576 0.949 . S
C2582 C2586 1.368 . S
C2583 C2564 1.429 . S
C2583 C2577 1.429 . S
C2583 C2584 1.523 . S
C2584 C2565 1.368 . S
C2584 C2578 1.368 . S
C2584 C2583 1.523 . S
C2585 C2569 1.429 . S
C2585 C2581 1.429 . S
C2585 C2586 1.523 . S
C2586 C2570 1.368 . S
C2586 C2582 1.368 . S
C2586 C2585 1.523 . S
H2587 C2562 0.950 . S
H2588 C2564 0.950 . S
H2589 C2565 0.949 . S
H2590 C2567 0.950 . S
H2591 C2569 0.950 . S
C2592 C2593 1.349 . S
C2592 C2594 1.327 . S
C2592 H2617 0.950 . S
C2593 C2592 1.349 . S
C2593 C2609 1.349 . S
C2594 C2592 1.327 . S
C2594 C2613 1.429 . S
C2594 H2618 0.950 . S
C2595 C2612 1.574 . S
C2595 C2614 1.368 . S
C2595 H2619 0.949 . S
H2596 C2600 0.949 . S
C2597 C2598 1.349 . S
C2597 C2599 1.327 . S
C2597 H2620 0.950 . S
C2598 C2597 1.349 . S
C2598 C2610 1.349 . S
C2599 C2597 1.327 . S
C2599 C2615 1.429 . S
C2599 H2621 0.950 . S
C2600 H2596 0.949 . S
C2600 C2608 1.574 1_554 S
C2600 C2616 1.368 1_554 S
H2601 C2609 0.950 . S
H2602 C2607 0.950 . S
H2603 C2608 0.949 . S
H2604 C2610 0.950 . S
H2605 C2611 0.950 . S
H2606 C2612 0.949 . S
C2607 H2602 0.950 . S
C2607 C2609 1.327 . S
C2607 C2613 1.429 . S
C2608 C2600 1.574 1_556 S
C2608 H2603 0.949 . S
C2608 C2614 1.368 . S
C2609 C2593 1.349 . S
C2609 H2601 0.950 . S
C2609 C2607 1.327 . S
C2610 C2598 1.349 . S
C2610 H2604 0.950 . S
C2610 C2611 1.327 . S
C2611 H2605 0.950 . S
C2611 C2610 1.327 . S
C2611 C2615 1.429 . S
C2612 C2595 1.574 . S
C2612 H2606 0.949 . S
C2612 C2616 1.368 . S
C2613 C2594 1.429 . S
C2613 C2607 1.429 . S
C2613 C2614 1.523 . S
C2614 C2595 1.368 . S
C2614 C2608 1.368 . S
C2614 C2613 1.523 . S
C2615 C2599 1.429 . S
C2615 C2611 1.429 . S
C2615 C2616 1.523 1_554 S
C2616 C2600 1.368 1_556 S
C2616 C2612 1.368 . S
C2616 C2615 1.523 1_556 S
H2617 C2592 0.950 . S
H2618 C2594 0.950 . S
H2619 C2595 0.949 . S
H2620 C2597 0.950 . S
H2621 C2599 0.950 . S
C2622 C2623 1.349 . S
C2622 C2624 1.327 . S
C2622 H2647 0.950 . S
C2623 C2622 1.349 . S
C2623 C2639 1.349 . S
C2624 C2622 1.327 . S
C2624 C2643 1.429 . S
C2624 H2648 0.950 . S
C2625 C2642 1.574 . S
C2625 C2644 1.368 . S
C2625 H2649 0.949 . S
H2626 C2630 0.949 . S
C2627 C2628 1.349 . S
C2627 C2629 1.327 . S
C2627 H2650 0.950 . S
C2628 C2627 1.349 . S
C2628 C2640 1.349 . S
C2629 C2627 1.327 . S
C2629 C2645 1.471 . S
C2629 H2651 0.950 . S
C2630 H2626 0.949 . S
C2630 C2638 1.574 . S
C2630 C2646 1.368 . S
H2631 C2639 0.950 . S
H2632 C2637 0.950 . S
H2633 C2638 0.949 . S
H2634 C2640 0.950 . S
H2635 C2641 0.950 1_556 S
H2636 C2642 0.949 . S
C2637 H2632 0.950 . S
C2637 C2639 1.327 . S
C2637 C2643 1.429 . S
C2638 C2630 1.574 . S
C2638 H2633 0.949 . S
C2638 C2644 1.368 . S
C2639 C2623 1.349 . S
C2639 H2631 0.950 . S
C2639 C2637 1.327 . S
C2640 C2628 1.349 . S
C2640 H2634 0.950 . S
C2640 C2641 1.327 . S
C2641 H2635 0.950 1_554 S
C2641 C2640 1.327 . S
C2641 C2645 1.441 . S
C2642 C2625 1.574 . S
C2642 H2636 0.949 . S
C2642 C2646 1.368 . S
C2643 C2624 1.429 . S
C2643 C2637 1.429 . S
C2643 C2644 1.523 . S
C2644 C2625 1.368 . S
C2644 C2638 1.368 . S
C2644 C2643 1.523 . S
C2645 C2629 1.471 . S
C2645 C2641 1.441 . S
C2645 C2646 1.475 1_554 S
C2646 C2630 1.368 . S
C2646 C2642 1.368 . S
C2646 C2645 1.475 1_556 S
H2647 C2622 0.950 . S
H2648 C2624 0.950 . S
H2649 C2625 0.949 . S
H2650 C2627 0.950 . S
H2651 C2629 0.950 . S
C2652 C2653 1.349 . S
C2652 C2654 1.327 . S
C2652 H2677 0.950 . S
C2653 C2652 1.349 . S
C2653 C2669 1.349 . S
C2654 C2652 1.327 . S
C2654 C2673 1.429 . S
C2654 H2678 0.950 . S
C2655 C2672 1.574 . S
C2655 C2674 1.368 . S
C2655 H2679 0.949 . S
H2656 C2660 0.949 1_554 S
C2657 C2658 1.349 . S
C2657 C2659 1.327 . S
C2657 H2680 0.950 . S
C2658 C2657 1.349 . S
C2658 C2670 1.349 . S
C2659 C2657 1.327 . S
C2659 C2675 1.429 . S
C2659 H2681 0.950 . S
C2660 H2656 0.949 1_556 S
C2660 C2668 1.574 . S
C2660 C2676 1.370 . S
H2661 C2669 0.950 . S
H2662 C2667 0.950 . S
H2663 C2668 0.949 . S
H2664 C2670 0.950 . S
H2665 C2671 0.950 . S
H2666 C2672 0.949 . S
C2667 H2662 0.950 . S
C2667 C2669 1.327 . S
C2667 C2673 1.429 . S
C2668 C2660 1.574 . S
C2668 H2663 0.949 . S
C2668 C2674 1.368 . S
C2669 C2653 1.349 . S
C2669 H2661 0.950 . S
C2669 C2667 1.327 . S
C2670 C2658 1.349 . S
C2670 H2664 0.950 . S
C2670 C2671 1.327 . S
C2671 H2665 0.950 . S
C2671 C2670 1.327 . S
C2671 C2675 1.429 . S
C2672 C2655 1.574 . S
C2672 H2666 0.949 . S
C2672 C2676 1.376 . S
C2673 C2654 1.429 . S
C2673 C2667 1.429 . S
C2673 C2674 1.523 . S
C2674 C2655 1.368 . S
C2674 C2668 1.368 . S
C2674 C2673 1.523 . S
C2675 C2659 1.429 . S
C2675 C2671 1.429 . S
C2675 C2676 1.511 1_554 S
C2676 C2660 1.370 . S
C2676 C2672 1.376 . S
C2676 C2675 1.511 1_556 S
H2677 C2652 0.950 . S
H2678 C2654 0.950 . S
H2679 C2655 0.949 . S
H2680 C2657 0.950 . S
H2681 C2659 0.950 . S
C2682 C2683 1.349 . S
C2682 C2684 1.327 . S
C2682 H2707 0.950 . S
C2683 C2682 1.349 . S
C2683 C2699 1.349 . S
C2684 C2682 1.327 . S
C2684 C2703 1.429 . S
C2684 H2708 0.950 . S
C2685 C2702 1.574 . S
C2685 C2704 1.368 . S
C2685 H2709 0.949 . S
H2686 C2690 0.949 . S
C2687 C2688 1.349 . S
C2687 C2689 1.327 . S
C2687 H2710 0.950 . S
C2688 C2687 1.349 . S
C2688 C2700 1.349 . S
C2689 C2687 1.327 . S
C2689 C2705 1.429 . S
C2689 H2711 0.950 . S
C2690 H2686 0.949 . S
C2690 C2698 1.574 . S
C2690 C2706 1.368 . S
H2691 C2699 0.950 . S
H2692 C2697 0.950 . S
H2693 C2698 0.949 . S
H2694 C2700 0.950 . S
H2695 C2701 0.950 . S
H2696 C2702 0.949 . S
C2697 H2692 0.950 . S
C2697 C2699 1.327 . S
C2697 C2703 1.429 . S
C2698 C2690 1.574 . S
C2698 H2693 0.949 . S
C2698 C2704 1.368 . S
C2699 C2683 1.349 . S
C2699 H2691 0.950 . S
C2699 C2697 1.327 . S
C2700 C2688 1.349 . S
C2700 H2694 0.950 . S
C2700 C2701 1.327 . S
C2701 H2695 0.950 . S
C2701 C2700 1.327 . S
C2701 C2705 1.429 . S
C2702 C2685 1.574 . S
C2702 H2696 0.949 . S
C2702 C2706 1.368 . S
C2703 C2684 1.429 . S
C2703 C2697 1.429 . S
C2703 C2704 1.523 . S
C2704 C2685 1.368 . S
C2704 C2698 1.368 . S
C2704 C2703 1.523 . S
C2705 C2689 1.429 . S
C2705 C2701 1.429 . S
C2705 C2706 1.523 . S
C2706 C2690 1.368 . S
C2706 C2702 1.368 . S
C2706 C2705 1.523 . S
H2707 C2682 0.950 . S
H2708 C2684 0.950 . S
H2709 C2685 0.949 . S
H2710 C2687 0.950 . S
H2711 C2689 0.950 . S
C2712 C2713 1.349 . S
C2712 C2714 1.327 . S
C2712 H2737 0.950 . S
C2713 C2712 1.349 . S
C2713 C2729 1.349 . S
C2714 C2712 1.327 . S
C2714 C2733 1.429 . S
C2714 H2738 0.950 . S
C2715 C2732 1.574 . S
C2715 C2734 1.368 . S
C2715 H2739 0.949 . S
H2716 C2720 0.949 . S
C2717 C2718 1.349 . S
C2717 C2719 1.327 . S
C2717 H2740 0.950 . S
C2718 C2717 1.349 . S
C2718 C2730 1.349 . S
C2719 C2717 1.327 . S
C2719 C2735 1.429 . S
C2719 H2741 0.950 . S
C2720 H2716 0.949 . S
C2720 C2728 1.574 . S
C2720 C2736 1.368 . S
H2721 C2729 0.950 . S
H2722 C2727 0.950 . S
H2723 C2728 0.949 . S
H2724 C2730 0.950 . S
H2725 C2731 0.950 . S
H2726 C2732 0.949 . S
C2727 H2722 0.950 . S
C2727 C2729 1.327 . S
C2727 C2733 1.429 . S
C2728 C2720 1.574 . S
C2728 H2723 0.949 . S
C2728 C2734 1.368 . S
C2729 C2713 1.349 . S
C2729 H2721 0.950 . S
C2729 C2727 1.327 . S
C2730 C2718 1.349 . S
C2730 H2724 0.950 . S
C2730 C2731 1.327 . S
C2731 H2725 0.950 . S
C2731 C2730 1.327 . S
C2731 C2735 1.429 . S
C2732 C2715 1.574 . S
C2732 H2726 0.949 . S
C2732 C2736 1.368 . S
C2733 C2714 1.429 . S
C2733 C2727 1.429 . S
C2733 C2734 1.523 . S
C2734 C2715 1.368 . S
C2734 C2728 1.368 . S
C2734 C2733 1.523 . S
C2735 C2719 1.429 . S
C2735 C2731 1.429 . S
C2735 C2736 1.523 . S
C2736 C2720 1.368 . S
C2736 C2732 1.368 . S
C2736 C2735 1.523 . S
H2737 C2712 0.950 . S
H2738 C2714 0.950 . S
H2739 C2715 0.949 . S
H2740 C2717 0.950 . S
H2741 C2719 0.950 . S
C2742 C2743 1.349 . S
C2742 C2744 1.327 . S
C2742 H2767 0.950 . S
C2743 C2742 1.349 . S
C2743 C2759 1.349 . S
C2744 C2742 1.327 . S
C2744 C2763 1.429 . S
C2744 H2768 0.950 . S
C2745 C2762 1.574 . S
C2745 C2764 1.368 . S
C2745 H2769 0.949 . S
H2746 C2750 0.949 . S
C2747 C2748 1.349 . S
C2747 C2749 1.327 . S
C2747 H2770 0.950 . S
C2748 C2747 1.349 . S
C2748 C2760 1.349 . S
C2749 C2747 1.327 . S
C2749 C2765 1.429 . S
C2749 H2771 0.950 . S
C2750 H2746 0.949 . S
C2750 C2758 1.574 . S
C2750 C2766 1.368 . S
H2751 C2759 0.950 . S
H2752 C2757 0.950 . S
H2753 C2758 0.949 . S
H2754 C2760 0.950 . S
H2755 C2761 0.950 . S
H2756 C2762 0.949 . S
C2757 H2752 0.950 . S
C2757 C2759 1.327 . S
C2757 C2763 1.429 . S
C2758 C2750 1.574 . S
C2758 H2753 0.949 . S
C2758 C2764 1.368 . S
C2759 C2743 1.349 . S
C2759 H2751 0.950 . S
C2759 C2757 1.327 . S
C2760 C2748 1.349 . S
C2760 H2754 0.950 . S
C2760 C2761 1.327 . S
C2761 H2755 0.950 . S
C2761 C2760 1.327 . S
C2761 C2765 1.429 . S
C2762 C2745 1.574 . S
C2762 H2756 0.949 . S
C2762 C2766 1.368 . S
C2763 C2744 1.429 . S
C2763 C2757 1.429 . S
C2763 C2764 1.523 . S
C2764 C2745 1.368 . S
C2764 C2758 1.368 . S
C2764 C2763 1.523 . S
C2765 C2749 1.429 . S
C2765 C2761 1.429 . S
C2765 C2766 1.523 . S
C2766 C2750 1.368 . S
C2766 C2762 1.368 . S
C2766 C2765 1.523 . S
H2767 C2742 0.950 . S
H2768 C2744 0.950 . S
H2769 C2745 0.949 . S
H2770 C2747 0.950 . S
H2771 C2749 0.950 . S
C2772 C2773 1.349 . S
C2772 C2774 1.327 . S
C2772 H2797 0.950 . S
C2773 C2772 1.349 . S
C2773 C2789 1.349 . S
C2774 C2772 1.327 . S
C2774 C2793 1.429 . S
C2774 H2798 0.950 . S
C2775 C2792 1.574 . S
C2775 C2794 1.368 . S
C2775 H2799 0.949 . S
H2776 C2780 0.949 . S
C2777 C2778 1.349 . S
C2777 C2779 1.327 . S
C2777 H2800 0.950 . S
C2778 C2777 1.349 . S
C2778 C2790 1.349 . S
C2779 C2777 1.327 . S
C2779 C2795 1.429 . S
C2779 H2801 0.950 . S
C2780 H2776 0.949 . S
C2780 C2788 1.574 . S
C2780 C2796 1.368 . S
H2781 C2789 0.950 . S
H2782 C2787 0.950 . S
H2783 C2788 0.949 . S
H2784 C2790 0.950 . S
H2785 C2791 0.950 . S
H2786 C2792 0.949 . S
C2787 H2782 0.950 . S
C2787 C2789 1.327 . S
C2787 C2793 1.429 . S
C2788 C2780 1.574 . S
C2788 H2783 0.949 . S
C2788 C2794 1.368 . S
C2789 C2773 1.349 . S
C2789 H2781 0.950 . S
C2789 C2787 1.327 . S
C2790 C2778 1.349 . S
C2790 H2784 0.950 . S
C2790 C2791 1.327 . S
C2791 H2785 0.950 . S
C2791 C2790 1.327 . S
C2791 C2795 1.429 . S
C2792 C2775 1.574 . S
C2792 H2786 0.949 . S
C2792 C2796 1.368 . S
C2793 C2774 1.429 . S
C2793 C2787 1.429 . S
C2793 C2794 1.523 . S
C2794 C2775 1.368 . S
C2794 C2788 1.368 . S
C2794 C2793 1.523 . S
C2795 C2779 1.429 . S
C2795 C2791 1.429 . S
C2795 C2796 1.523 . S
C2796 C2780 1.368 . S
C2796 C2792 1.368 . S
C2796 C2795 1.523 . S
H2797 C2772 0.950 . S
H2798 C2774 0.950 . S
H2799 C2775 0.949 . S
H2800 C2777 0.950 . S
H2801 C2779 0.950 . S
C2802 C2803 1.349 . S
C2802 C2804 1.327 . S
C2802 H2827 0.950 . S
C2803 C2802 1.349 . S
C2803 C2819 1.349 . S
C2804 C2802 1.327 . S
C2804 C2823 1.429 . S
C2804 H2828 0.950 . S
C2805 C2822 1.574 . S
C2805 C2824 1.368 . S
C2805 H2829 0.949 . S
H2806 C2810 0.949 . S
C2807 C2808 1.349 . S
C2807 C2809 1.327 . S
C2807 H2830 0.950 . S
C2808 C2807 1.349 . S
C2808 C2820 1.349 . S
C2809 C2807 1.327 . S
C2809 C2825 1.429 . S
C2809 H2831 0.950 . S
C2810 H2806 0.949 . S
C2810 C2818 1.574 . S
C2810 C2826 1.368 . S
H2811 C2819 0.950 . S
H2812 C2817 0.950 . S
H2813 C2818 0.949 . S
H2814 C2820 0.950 . S
H2815 C2821 0.950 . S
H2816 C2822 0.949 . S
C2817 H2812 0.950 . S
C2817 C2819 1.327 . S
C2817 C2823 1.429 . S
C2818 C2810 1.574 . S
C2818 H2813 0.949 . S
C2818 C2824 1.368 . S
C2819 C2803 1.349 . S
C2819 H2811 0.950 . S
C2819 C2817 1.327 . S
C2820 C2808 1.349 . S
C2820 H2814 0.950 . S
C2820 C2821 1.327 . S
C2821 H2815 0.950 . S
C2821 C2820 1.327 . S
C2821 C2825 1.429 . S
C2822 C2805 1.574 . S
C2822 H2816 0.949 . S
C2822 C2826 1.368 . S
C2823 C2804 1.429 . S
C2823 C2817 1.429 . S
C2823 C2824 1.523 . S
C2824 C2805 1.368 . S
C2824 C2818 1.368 . S
C2824 C2823 1.523 . S
C2825 C2809 1.429 . S
C2825 C2821 1.429 . S
C2825 C2826 1.523 . S
C2826 C2810 1.368 . S
C2826 C2822 1.368 . S
C2826 C2825 1.523 . S
H2827 C2802 0.950 . S
H2828 C2804 0.950 . S
H2829 C2805 0.949 . S
H2830 C2807 0.950 . S
H2831 C2809 0.950 . S
C2832 C2833 1.349 . S
C2832 C2834 1.327 . S
C2832 H2857 0.950 . S
C2833 C2832 1.349 . S
C2833 C2849 1.349 . S
C2834 C2832 1.327 . S
C2834 C2853 1.429 . S
C2834 H2858 0.950 . S
C2835 C2852 1.574 . S
C2835 C2854 1.368 . S
C2835 H2859 0.949 . S
H2836 C2840 0.949 . S
C2837 C2838 1.349 . S
C2837 C2839 1.327 . S
C2837 H2860 0.950 . S
C2838 C2837 1.349 . S
C2838 C2850 1.349 . S
C2839 C2837 1.327 . S
C2839 C2855 1.429 . S
C2839 H2861 0.950 . S
C2840 H2836 0.949 . S
C2840 C2848 1.574 . S
C2840 C2856 1.368 . S
H2841 C2849 0.950 . S
H2842 C2847 0.950 . S
H2843 C2848 0.949 . S
H2844 C2850 0.950 . S
H2845 C2851 0.950 . S
H2846 C2852 0.949 . S
C2847 H2842 0.950 . S
C2847 C2849 1.327 . S
C2847 C2853 1.429 . S
C2848 C2840 1.574 . S
C2848 H2843 0.949 . S
C2848 C2854 1.368 . S
C2849 C2833 1.349 . S
C2849 H2841 0.950 . S
C2849 C2847 1.327 . S
C2850 C2838 1.349 . S
C2850 H2844 0.950 . S
C2850 C2851 1.327 . S
C2851 H2845 0.950 . S
C2851 C2850 1.327 . S
C2851 C2855 1.429 . S
C2852 C2835 1.574 . S
C2852 H2846 0.949 . S
C2852 C2856 1.368 . S
C2853 C2834 1.429 . S
C2853 C2847 1.429 . S
C2853 C2854 1.523 . S
C2854 C2835 1.368 . S
C2854 C2848 1.368 . S
C2854 C2853 1.523 . S
C2855 C2839 1.429 . S
C2855 C2851 1.429 . S
C2855 C2856 1.523 . S
C2856 C2840 1.368 . S
C2856 C2852 1.368 . S
C2856 C2855 1.523 . S
H2857 C2832 0.950 . S
H2858 C2834 0.950 . S
H2859 C2835 0.949 . S
H2860 C2837 0.950 . S
H2861 C2839 0.950 . S
C2862 C2863 1.349 . S
C2862 C2864 1.327 . S
C2862 H2887 0.950 . S
C2863 C2862 1.349 . S
C2863 C2879 1.349 . S
C2864 C2862 1.327 . S
C2864 C2883 1.429 . S
C2864 H2888 0.950 . S
C2865 C2882 1.574 . S
C2865 C2884 1.368 . S
C2865 H2889 0.949 . S
H2866 C2870 0.949 . S
C2867 C2868 1.349 . S
C2867 C2869 1.327 . S
C2867 H2890 0.950 . S
C2868 C2867 1.349 . S
C2868 C2880 1.349 . S
C2869 C2867 1.327 . S
C2869 C2885 1.429 . S
C2869 H2891 0.950 . S
C2870 H2866 0.949 . S
C2870 C2878 1.574 . S
C2870 C2886 1.368 . S
H2871 C2879 0.950 . S
H2872 C2877 0.950 . S
H2873 C2878 0.949 . S
H2874 C2880 0.950 . S
H2875 C2881 0.950 . S
H2876 C2882 0.949 . S
C2877 H2872 0.950 . S
C2877 C2879 1.327 . S
C2877 C2883 1.429 . S
C2878 C2870 1.574 . S
C2878 H2873 0.949 . S
C2878 C2884 1.368 . S
C2879 C2863 1.349 . S
C2879 H2871 0.950 . S
C2879 C2877 1.327 . S
C2880 C2868 1.349 . S
C2880 H2874 0.950 . S
C2880 C2881 1.327 . S
C2881 H2875 0.950 . S
C2881 C2880 1.327 . S
C2881 C2885 1.429 . S
C2882 C2865 1.574 . S
C2882 H2876 0.949 . S
C2882 C2886 1.368 . S
C2883 C2864 1.429 . S
C2883 C2877 1.429 . S
C2883 C2884 1.523 . S
C2884 C2865 1.368 . S
C2884 C2878 1.368 . S
C2884 C2883 1.523 . S
C2885 C2869 1.429 . S
C2885 C2881 1.429 . S
C2885 C2886 1.523 . S
C2886 C2870 1.368 . S
C2886 C2882 1.368 . S
C2886 C2885 1.523 . S
H2887 C2862 0.950 . S
H2888 C2864 0.950 . S
H2889 C2865 0.949 . S
H2890 C2867 0.950 . S
H2891 C2869 0.950 . S
C2892 C2893 1.349 . S
C2892 C2894 1.327 . S
C2892 H2917 0.950 . S
C2893 C2892 1.349 . S
C2893 C2909 1.349 . S
C2894 C2892 1.327 . S
C2894 C2913 1.429 . S
C2894 H2918 0.950 . S
C2895 C2912 1.574 . S
C2895 C2914 1.368 . S
C2895 H2919 0.949 . S
H2896 C2900 0.949 . S
C2897 C2898 1.349 . S
C2897 C2899 1.327 . S
C2897 H2920 0.950 . S
C2898 C2897 1.349 . S
C2898 C2910 1.349 . S
C2899 C2897 1.327 . S
C2899 C2915 1.429 . S
C2899 H2921 0.950 . S
C2900 H2896 0.949 . S
C2900 C2908 1.574 . S
C2900 C2916 1.368 . S
H2901 C2909 0.950 . S
H2902 C2907 0.950 . S
H2903 C2908 0.949 . S
H2904 C2910 0.950 . S
H2905 C2911 0.950 . S
H2906 C2912 0.949 . S
C2907 H2902 0.950 . S
C2907 C2909 1.327 . S
C2907 C2913 1.429 . S
C2908 C2900 1.574 . S
C2908 H2903 0.949 . S
C2908 C2914 1.368 . S
C2909 C2893 1.349 . S
C2909 H2901 0.950 . S
C2909 C2907 1.327 . S
C2910 C2898 1.349 . S
C2910 H2904 0.950 . S
C2910 C2911 1.327 . S
C2911 H2905 0.950 . S
C2911 C2910 1.327 . S
C2911 C2915 1.429 . S
C2912 C2895 1.574 . S
C2912 H2906 0.949 . S
C2912 C2916 1.368 . S
C2913 C2894 1.429 . S
C2913 C2907 1.429 . S
C2913 C2914 1.523 . S
C2914 C2895 1.368 . S
C2914 C2908 1.368 . S
C2914 C2913 1.523 . S
C2915 C2899 1.429 . S
C2915 C2911 1.429 . S
C2915 C2916 1.523 . S
C2916 C2900 1.368 . S
C2916 C2912 1.368 . S
C2916 C2915 1.523 . S
H2917 C2892 0.950 . S
H2918 C2894 0.950 . S
H2919 C2895 0.949 . S
H2920 C2897 0.950 . S
H2921 C2899 0.950 . S
C2922 C2923 1.349 . S
C2922 C2924 1.327 . S
C2922 H2947 0.950 . S
C2923 C2922 1.349 . S
C2923 C2939 1.349 . S
C2924 C2922 1.327 . S
C2924 C2943 1.429 . S
C2924 H2948 0.950 . S
C2925 C2942 1.574 . S
C2925 C2944 1.368 . S
C2925 H2949 0.949 . S
H2926 C2930 0.949 . S
C2927 C2928 1.349 . S
C2927 C2929 1.327 . S
C2927 H2950 0.950 . S
C2928 C2927 1.349 . S
C2928 C2940 1.349 . S
C2929 C2927 1.327 . S
C2929 C2945 1.429 . S
C2929 H2951 0.950 . S
C2930 H2926 0.949 . S
C2930 C2938 1.574 . S
C2930 C2946 1.368 . S
H2931 C2939 0.950 . S
H2932 C2937 0.950 . S
H2933 C2938 0.949 . S
H2934 C2940 0.950 . S
H2935 C2941 0.950 . S
H2936 C2942 0.949 . S
C2937 H2932 0.950 . S
C2937 C2939 1.327 . S
C2937 C2943 1.429 . S
C2938 C2930 1.574 . S
C2938 H2933 0.949 . S
C2938 C2944 1.368 . S
C2939 C2923 1.349 . S
C2939 H2931 0.950 . S
C2939 C2937 1.327 . S
C2940 C2928 1.349 . S
C2940 H2934 0.950 . S
C2940 C2941 1.327 . S
C2941 H2935 0.950 . S
C2941 C2940 1.327 . S
C2941 C2945 1.429 . S
C2942 C2925 1.574 . S
C2942 H2936 0.949 . S
C2942 C2946 1.368 . S
C2943 C2924 1.429 . S
C2943 C2937 1.429 . S
C2943 C2944 1.523 . S
C2944 C2925 1.368 . S
C2944 C2938 1.368 . S
C2944 C2943 1.523 . S
C2945 C2929 1.429 . S
C2945 C2941 1.429 . S
C2945 C2946 1.523 . S
C2946 C2930 1.368 . S
C2946 C2942 1.368 . S
C2946 C2945 1.523 . S
H2947 C2922 0.950 . S
H2948 C2924 0.950 . S
H2949 C2925 0.949 . S
H2950 C2927 0.950 . S
H2951 C2929 0.950 . S
C2952 C2953 1.349 . S
C2952 C2954 1.327 . S
C2952 H2977 0.950 . S
C2953 C2952 1.349 . S
C2953 C2969 1.349 . S
C2954 C2952 1.327 . S
C2954 C2973 1.429 . S
C2954 H2978 0.950 . S
C2955 C2972 1.574 . S
C2955 C2974 1.368 . S
C2955 H2979 0.949 . S
H2956 C2960 0.949 . S
C2957 C2958 1.349 . S
C2957 C2959 1.327 . S
C2957 H2980 0.950 . S
C2958 C2957 1.349 . S
C2958 C2970 1.349 . S
C2959 C2957 1.327 . S
C2959 C2975 1.429 . S
C2959 H2981 0.950 . S
C2960 H2956 0.949 . S
C2960 C2968 1.574 . S
C2960 C2976 1.368 . S
H2961 C2969 0.950 . S
H2962 C2967 0.950 . S
H2963 C2968 0.949 . S
H2964 C2970 0.950 . S
H2965 C2971 0.950 . S
H2966 C2972 0.949 . S
C2967 H2962 0.950 . S
C2967 C2969 1.327 . S
C2967 C2973 1.429 . S
C2968 C2960 1.574 . S
C2968 H2963 0.949 . S
C2968 C2974 1.368 . S
C2969 C2953 1.349 . S
C2969 H2961 0.950 . S
C2969 C2967 1.327 . S
C2970 C2958 1.349 . S
C2970 H2964 0.950 . S
C2970 C2971 1.327 . S
C2971 H2965 0.950 . S
C2971 C2970 1.327 . S
C2971 C2975 1.429 . S
C2972 C2955 1.574 . S
C2972 H2966 0.949 . S
C2972 C2976 1.368 . S
C2973 C2954 1.429 . S
C2973 C2967 1.429 . S
C2973 C2974 1.523 . S
C2974 C2955 1.368 . S
C2974 C2968 1.368 . S
C2974 C2973 1.523 . S
C2975 C2959 1.429 . S
C2975 C2971 1.429 . S
C2975 C2976 1.523 . S
C2976 C2960 1.368 . S
C2976 C2972 1.368 . S
C2976 C2975 1.523 . S
H2977 C2952 0.950 . S
H2978 C2954 0.950 . S
H2979 C2955 0.949 . S
H2980 C2957 0.950 . S
H2981 C2959 0.950 . S
C2982 C2983 1.349 . S
C2982 C2984 1.327 . S
C2982 H3007 0.950 . S
C2983 C2982 1.349 . S
C2983 C2999 1.349 . S
C2984 C2982 1.327 . S
C2984 C3003 1.429 . S
C2984 H3008 0.950 . S
C2985 C3002 1.574 . S
C2985 C3004 1.368 . S
C2985 H3009 0.949 . S
H2986 C2990 0.949 . S
C2987 C2988 1.349 . S
C2987 C2989 1.327 . S
C2987 H3010 0.950 . S
C2988 C2987 1.349 . S
C2988 C3000 1.349 . S
C2989 C2987 1.327 . S
C2989 C3005 1.429 . S
C2989 H3011 0.950 . S
C2990 H2986 0.949 . S
C2990 C2998 1.574 . S
C2990 C3006 1.368 . S
H2991 C2999 0.950 . S
H2992 C2997 0.950 . S
H2993 C2998 0.949 . S
H2994 C3000 0.950 . S
H2995 C3001 0.950 . S
H2996 C3002 0.949 . S
C2997 H2992 0.950 . S
C2997 C2999 1.327 . S
C2997 C3003 1.429 . S
C2998 C2990 1.574 . S
C2998 H2993 0.949 . S
C2998 C3004 1.368 . S
C2999 C2983 1.349 . S
C2999 H2991 0.950 . S
C2999 C2997 1.327 . S
C3000 C2988 1.349 . S
C3000 H2994 0.950 . S
C3000 C3001 1.327 . S
C3001 H2995 0.950 . S
C3001 C3000 1.327 . S
C3001 C3005 1.429 . S
C3002 C2985 1.574 . S
C3002 H2996 0.949 . S
C3002 C3006 1.368 . S
C3003 C2984 1.429 . S
C3003 C2997 1.429 . S
C3003 C3004 1.523 . S
C3004 C2985 1.368 . S
C3004 C2998 1.368 . S
C3004 C3003 1.523 . S
C3005 C2989 1.429 . S
C3005 C3001 1.429 . S
C3005 C3006 1.523 . S
C3006 C2990 1.368 . S
C3006 C3002 1.368 . S
C3006 C3005 1.523 . S
H3007 C2982 0.950 . S
H3008 C2984 0.950 . S
H3009 C2985 0.949 . S
H3010 C2987 0.950 . S
H3011 C2989 0.950 . S
C3012 C3013 1.349 . S
C3012 C3014 1.327 . S
C3012 H3037 0.950 . S
C3013 C3012 1.349 . S
C3013 C3029 1.349 . S
C3014 C3012 1.327 . S
C3014 C3033 1.429 . S
C3014 H3038 0.950 . S
C3015 C3032 1.574 . S
C3015 C3034 1.368 . S
C3015 H3039 0.949 . S
H3016 C3020 0.949 . S
C3017 C3018 1.349 . S
C3017 C3019 1.327 . S
C3017 H3040 0.950 . S
C3018 C3017 1.349 . S
C3018 C3030 1.349 . S
C3019 C3017 1.327 . S
C3019 C3035 1.429 . S
C3019 H3041 0.950 . S
C3020 H3016 0.949 . S
C3020 C3028 1.574 . S
C3020 C3036 1.368 . S
H3021 C3029 0.950 . S
H3022 C3027 0.950 . S
H3023 C3028 0.949 . S
H3024 C3030 0.950 . S
H3025 C3031 0.950 . S
H3026 C3032 0.949 . S
C3027 H3022 0.950 . S
C3027 C3029 1.327 . S
C3027 C3033 1.429 . S
C3028 C3020 1.574 . S
C3028 H3023 0.949 . S
C3028 C3034 1.368 . S
C3029 C3013 1.349 . S
C3029 H3021 0.950 . S
C3029 C3027 1.327 . S
C3030 C3018 1.349 . S
C3030 H3024 0.950 . S
C3030 C3031 1.327 . S
C3031 H3025 0.950 . S
C3031 C3030 1.327 . S
C3031 C3035 1.429 . S
C3032 C3015 1.574 . S
C3032 H3026 0.949 . S
C3032 C3036 1.368 . S
C3033 C3014 1.429 . S
C3033 C3027 1.429 . S
C3033 C3034 1.523 . S
C3034 C3015 1.368 . S
C3034 C3028 1.368 . S
C3034 C3033 1.523 . S
C3035 C3019 1.429 . S
C3035 C3031 1.429 . S
C3035 C3036 1.523 . S
C3036 C3020 1.368 . S
C3036 C3032 1.368 . S
C3036 C3035 1.523 . S
H3037 C3012 0.950 . S
H3038 C3014 0.950 . S
H3039 C3015 0.949 . S
H3040 C3017 0.950 . S
H3041 C3019 0.950 . S
C3042 C3043 1.349 . S
C3042 C3044 1.327 . S
C3042 H3067 0.950 . S
C3043 C3042 1.349 . S
C3043 C3059 1.349 . S
C3044 C3042 1.327 . S
C3044 C3063 1.429 . S
C3044 H3068 0.950 . S
C3045 C3062 1.574 . S
C3045 C3064 1.368 . S
C3045 H3069 0.949 . S
H3046 C3050 0.949 . S
C3047 C3048 1.349 . S
C3047 C3049 1.327 . S
C3047 H3070 0.950 . S
C3048 C3047 1.349 . S
C3048 C3060 1.349 . S
C3049 C3047 1.327 . S
C3049 C3065 1.429 . S
C3049 H3071 0.950 . S
C3050 H3046 0.949 . S
C3050 C3058 1.574 . S
C3050 C3066 1.368 . S
H3051 C3059 0.950 . S
H3052 C3057 0.950 . S
H3053 C3058 0.949 . S
H3054 C3060 0.950 . S
H3055 C3061 0.950 . S
H3056 C3062 0.949 . S
C3057 H3052 0.950 . S
C3057 C3059 1.327 . S
C3057 C3063 1.429 . S
C3058 C3050 1.574 . S
C3058 H3053 0.949 . S
C3058 C3064 1.368 . S
C3059 C3043 1.349 . S
C3059 H3051 0.950 . S
C3059 C3057 1.327 . S
C3060 C3048 1.349 . S
C3060 H3054 0.950 . S
C3060 C3061 1.327 . S
C3061 H3055 0.950 . S
C3061 C3060 1.327 . S
C3061 C3065 1.429 . S
C3062 C3045 1.574 . S
C3062 H3056 0.949 . S
C3062 C3066 1.368 . S
C3063 C3044 1.429 . S
C3063 C3057 1.429 . S
C3063 C3064 1.523 . S
C3064 C3045 1.368 . S
C3064 C3058 1.368 . S
C3064 C3063 1.523 . S
C3065 C3049 1.429 . S
C3065 C3061 1.429 . S
C3065 C3066 1.523 . S
C3066 C3050 1.368 . S
C3066 C3062 1.368 . S
C3066 C3065 1.523 . S
H3067 C3042 0.950 . S
H3068 C3044 0.950 . S
H3069 C3045 0.949 . S
H3070 C3047 0.950 . S
H3071 C3049 0.950 . S
C3072 C3073 1.349 . S
C3072 C3074 1.327 . S
C3072 H3097 0.950 . S
C3073 C3072 1.349 . S
C3073 C3089 1.349 . S
C3074 C3072 1.327 . S
C3074 C3093 1.429 . S
C3074 H3098 0.950 . S
C3075 C3092 1.574 . S
C3075 C3094 1.368 . S
C3075 H3099 0.949 . S
H3076 C3080 0.949 . S
C3077 C3078 1.349 . S
C3077 C3079 1.327 . S
C3077 H3100 0.950 . S
C3078 C3077 1.349 . S
C3078 C3090 1.349 . S
C3079 C3077 1.327 . S
C3079 C3095 1.429 . S
C3079 H3101 0.950 . S
C3080 H3076 0.949 . S
C3080 C3088 1.574 . S
C3080 C3096 1.368 . S
H3081 C3089 0.950 . S
H3082 C3087 0.950 . S
H3083 C3088 0.949 . S
H3084 C3090 0.950 . S
H3085 C3091 0.950 . S
H3086 C3092 0.949 . S
C3087 H3082 0.950 . S
C3087 C3089 1.327 . S
C3087 C3093 1.429 . S
C3088 C3080 1.574 . S
C3088 H3083 0.949 . S
C3088 C3094 1.368 . S
C3089 C3073 1.349 . S
C3089 H3081 0.950 . S
C3089 C3087 1.327 . S
C3090 C3078 1.349 . S
C3090 H3084 0.950 . S
C3090 C3091 1.327 . S
C3091 H3085 0.950 . S
C3091 C3090 1.327 . S
C3091 C3095 1.429 . S
C3092 C3075 1.574 . S
C3092 H3086 0.949 . S
C3092 C3096 1.368 . S
C3093 C3074 1.429 . S
C3093 C3087 1.429 . S
C3093 C3094 1.523 . S
C3094 C3075 1.368 . S
C3094 C3088 1.368 . S
C3094 C3093 1.523 . S
C3095 C3079 1.429 . S
C3095 C3091 1.429 . S
C3095 C3096 1.523 . S
C3096 C3080 1.368 . S
C3096 C3092 1.368 . S
C3096 C3095 1.523 . S
H3097 C3072 0.950 . S
H3098 C3074 0.950 . S
H3099 C3075 0.949 . S
H3100 C3077 0.950 . S
H3101 C3079 0.950 . S
C3102 C3103 1.349 . S
C3102 C3104 1.327 . S
C3102 H3127 0.950 . S
C3103 C3102 1.349 . S
C3103 C3119 1.349 . S
C3104 C3102 1.327 . S
C3104 C3123 1.429 . S
C3104 H3128 0.950 . S
C3105 C3122 1.574 . S
C3105 C3124 1.368 . S
C3105 H3129 0.949 . S
H3106 C3110 0.949 . S
C3107 C3108 1.349 . S
C3107 C3109 1.327 . S
C3107 H3130 0.950 . S
C3108 C3107 1.349 . S
C3108 C3120 1.349 . S
C3109 C3107 1.327 . S
C3109 C3125 1.429 . S
C3109 H3131 0.950 . S
C3110 H3106 0.949 . S
C3110 C3118 1.574 . S
C3110 C3126 1.368 . S
H3111 C3119 0.950 . S
H3112 C3117 0.950 . S
H3113 C3118 0.949 . S
H3114 C3120 0.950 . S
H3115 C3121 0.950 . S
H3116 C3122 0.949 . S
C3117 H3112 0.950 . S
C3117 C3119 1.327 . S
C3117 C3123 1.429 . S
C3118 C3110 1.574 . S
C3118 H3113 0.949 . S
C3118 C3124 1.368 . S
C3119 C3103 1.349 . S
C3119 H3111 0.950 . S
C3119 C3117 1.327 . S
C3120 C3108 1.349 . S
C3120 H3114 0.950 . S
C3120 C3121 1.327 . S
C3121 H3115 0.950 . S
C3121 C3120 1.327 . S
C3121 C3125 1.429 . S
C3122 C3105 1.574 . S
C3122 H3116 0.949 . S
C3122 C3126 1.368 . S
C3123 C3104 1.429 . S
C3123 C3117 1.429 . S
C3123 C3124 1.523 . S
C3124 C3105 1.368 . S
C3124 C3118 1.368 . S
C3124 C3123 1.523 . S
C3125 C3109 1.429 . S
C3125 C3121 1.429 . S
C3125 C3126 1.523 . S
C3126 C3110 1.368 . S
C3126 C3122 1.368 . S
C3126 C3125 1.523 . S
H3127 C3102 0.950 . S
H3128 C3104 0.950 . S
H3129 C3105 0.949 . S
H3130 C3107 0.950 . S
H3131 C3109 0.950 . S
C3132 C3133 1.349 . S
C3132 C3134 1.327 . S
C3132 H3157 0.950 . S
C3133 C3132 1.349 . S
C3133 C3149 1.349 . S
C3134 C3132 1.327 . S
C3134 C3153 1.429 . S
C3134 H3158 0.950 . S
C3135 C3152 1.574 . S
C3135 C3154 1.368 . S
C3135 H3159 0.949 . S
H3136 C3140 0.949 . S
C3137 C3138 1.349 . S
C3137 C3139 1.327 . S
C3137 H3160 0.950 . S
C3138 C3137 1.349 . S
C3138 C3150 1.349 . S
C3139 C3137 1.327 . S
C3139 C3155 1.426 1_556 S
C3139 H3161 0.950 . S
C3140 H3136 0.949 . S
C3140 C3148 1.574 . S
C3140 C3156 1.368 . S
H3141 C3149 0.950 . S
H3142 C3147 0.950 . S
H3143 C3148 0.949 . S
H3144 C3150 0.950 . S
H3145 C3151 0.950 1_554 S
H3146 C3152 0.949 . S
C3147 H3142 0.950 . S
C3147 C3149 1.327 . S
C3147 C3153 1.429 . S
C3148 C3140 1.574 . S
C3148 H3143 0.949 . S
C3148 C3154 1.368 . S
C3149 C3133 1.349 . S
C3149 H3141 0.950 . S
C3149 C3147 1.327 . S
C3150 C3138 1.349 . S
C3150 H3144 0.950 . S
C3150 C3151 1.327 . S
C3151 H3145 0.950 1_556 S
C3151 C3150 1.327 . S
C3151 C3155 1.428 1_556 S
C3152 C3135 1.574 . S
C3152 H3146 0.949 . S
C3152 C3156 1.368 . S
C3153 C3134 1.429 . S
C3153 C3147 1.429 . S
C3153 C3154 1.523 . S
C3154 C3135 1.368 . S
C3154 C3148 1.368 . S
C3154 C3153 1.523 . S
C3155 C3139 1.426 1_554 S
C3155 C3151 1.428 1_554 S
C3155 C3156 1.526 . S
C3156 C3140 1.368 . S
C3156 C3152 1.368 . S
C3156 C3155 1.526 . S
H3157 C3132 0.950 . S
H3158 C3134 0.950 . S
H3159 C3135 0.949 . S
H3160 C3137 0.950 . S
H3161 C3139 0.950 . S
C3162 C3163 1.349 . S
C3162 C3164 1.327 . S
C3162 H3187 0.950 . S
C3163 C3162 1.349 . S
C3163 C3179 1.349 . S
C3164 C3162 1.327 . S
C3164 C3183 1.429 . S
C3164 H3188 0.950 . S
C3165 C3182 1.574 . S
C3165 C3184 1.368 . S
C3165 H3189 0.949 . S
H3166 C3170 0.949 . S
C3167 C3168 1.349 1_554 S
C3167 C3169 1.327 . S
C3167 H3190 0.950 . S
C3168 C3167 1.349 1_556 S
C3168 C3180 1.349 . S
C3169 C3167 1.327 . S
C3169 C3185 1.429 . S
C3169 H3191 0.950 . S
C3170 H3166 0.949 . S
C3170 C3178 1.574 . S
C3170 C3186 1.368 . S
H3171 C3179 0.950 . S
H3172 C3177 0.950 . S
H3173 C3178 0.949 . S
H3174 C3180 0.950 . S
H3175 C3181 0.950 . S
H3176 C3182 0.949 . S
C3177 H3172 0.950 . S
C3177 C3179 1.327 . S
C3177 C3183 1.429 . S
C3178 C3170 1.574 . S
C3178 H3173 0.949 . S
C3178 C3184 1.368 . S
C3179 C3163 1.349 . S
C3179 H3171 0.950 . S
C3179 C3177 1.327 . S
C3180 C3168 1.349 . S
C3180 H3174 0.950 . S
C3180 C3181 1.327 1_556 S
C3181 H3175 0.950 . S
C3181 C3180 1.327 1_554 S
C3181 C3185 1.429 . S
C3182 C3165 1.574 . S
C3182 H3176 0.949 . S
C3182 C3186 1.368 . S
C3183 C3164 1.429 . S
C3183 C3177 1.429 . S
C3183 C3184 1.523 . S
C3184 C3165 1.368 . S
C3184 C3178 1.368 . S
C3184 C3183 1.523 . S
C3185 C3169 1.429 . S
C3185 C3181 1.429 . S
C3185 C3186 1.523 . S
C3186 C3170 1.368 . S
C3186 C3182 1.368 . S
C3186 C3185 1.523 . S
H3187 C3162 0.950 . S
H3188 C3164 0.950 . S
H3189 C3165 0.949 . S
H3190 C3167 0.950 . S
H3191 C3169 0.950 . S
C3192 C3193 1.349 . S
C3192 C3194 1.327 . S
C3192 H3217 0.950 . S
C3193 C3192 1.349 . S
C3193 C3209 1.349 . S
C3194 C3192 1.327 . S
C3194 C3213 1.429 . S
C3194 H3218 0.950 . S
C3195 C3212 1.574 . S
C3195 C3214 1.368 . S
C3195 H3219 0.949 . S
H3196 C3200 0.949 . S
C3197 C3198 1.349 . S
C3197 C3199 1.327 1_556 S
C3197 H3220 0.952 . S
C3198 C3197 1.349 . S
C3198 C3210 1.349 . S
C3199 C3197 1.327 1_554 S
C3199 C3215 1.429 . S
C3199 H3221 0.950 . S
C3200 H3196 0.949 . S
C3200 C3208 1.574 . S
C3200 C3216 1.368 . S
H3201 C3209 0.950 . S
H3202 C3207 0.950 . S
H3203 C3208 0.949 . S
H3204 C3210 0.950 . S
H3205 C3211 0.950 . S
H3206 C3212 0.949 . S
C3207 H3202 0.950 . S
C3207 C3209 1.327 . S
C3207 C3213 1.429 . S
C3208 C3200 1.574 . S
C3208 H3203 0.949 . S
C3208 C3214 1.368 . S
C3209 C3193 1.349 . S
C3209 H3201 0.950 . S
C3209 C3207 1.327 . S
C3210 C3198 1.349 . S
C3210 H3204 0.950 . S
C3210 C3211 1.327 . S
C3211 H3205 0.950 . S
C3211 C3210 1.327 . S
C3211 C3215 1.429 1_556 S
C3212 C3195 1.574 . S
C3212 H3206 0.949 . S
C3212 C3216 1.368 . S
C3213 C3194 1.429 . S
C3213 C3207 1.429 . S
C3213 C3214 1.523 . S
C3214 C3195 1.368 . S
C3214 C3208 1.368 . S
C3214 C3213 1.523 . S
C3215 C3199 1.429 . S
C3215 C3211 1.429 1_554 S
C3215 C3216 1.523 . S
C3216 C3200 1.368 . S
C3216 C3212 1.368 . S
C3216 C3215 1.523 . S
H3217 C3192 0.950 . S
H3218 C3194 0.950 . S
H3219 C3195 0.949 . S
H3220 C3197 0.952 . S
H3221 C3199 0.950 . S
C1063 C7 1.373 . S
C1068 C814 1.375 . S
C1098 C742 1.764 . S
C1093 C39 1.752 . S
C1128 C776 1.548 . S
C1123 C62 1.527 . S
C1153 C76 1.856 . S
C1158 C956 1.842 . S
C1183 C108 1.399 . S
C1188 C994 1.391 . S
C1213 N117 1.304 . S
C1218 C1028 1.303 . S
C1248 C921 1.374 . S
C1243 C16 1.356 . S
C1273 C30 1.825 . S
C1278 C849 1.828 . S
C1308 C884 1.542 . S
C1303 C53 1.550 1_556 S
C1333 C85 1.855 . S
C1338 C632 1.841 1_565 S
C1368 C669 1.635 . S
C1363 C99 1.630 . S
C1393 N127 1.254 . S
C1398 C704 1.287 . S
C1423 N150 1.113 . S
C1428 C1030 1.126 . S
C1458 C958 1.544 . S
C1453 N173 1.528 . S
C1488 C992 1.400 1_455 S
C1483 C200 1.386 . S
C1513 C214 1.683 . S
C1518 C524 1.672 . S
C1543 N232 1.450 . S
C1548 C562 1.458 . S
C1573 C260 1.460 . S
C1578 C596 1.453 1_565 S
C1608 C489 1.218 . S
C1603 N140 1.175 . S
C1633 N163 1.270 . S
C1638 C417 1.320 . S
C1668 C452 1.624 . S
C1663 C191 1.629 . S
C1698 C848 1.933 . S
C1693 C223 1.948 . S
C1728 C885 1.409 . S
C1723 N242 1.365 . S
C1758 C920 1.471 . S
C1753 C269 1.478 . S
C1783 N288 1.250 . S
C1788 C598 1.266 . S
C1813 C315 1.506 . S
C1818 C526 1.527 . S
C1843 C338 1.603 . S
C1848 C560 1.614 . S
C1873 C352 1.866 . S
C1878 C740 1.854 . S
C1908 C778 1.507 . S
C1903 N370 1.501 . S
C1938 C812 1.523 . S
C1933 C398 1.525 . S
C1968 C705 1.183 . S
C1963 N278 1.131 . S
C1993 C306 1.739 . S
C1998 C633 1.747 . S
C2023 C329 1.639 . S
C2028 C668 1.631 . S
C2058 C416 1.583 . S
C2053 C361 1.597 . S
C2083 N380 1.416 . S
C2088 C453 1.460 . S
C2118 C488 1.437 . S
C2113 C407 1.446 . S
C2148 C525 1.425 . S
C2143 N12 1.379 . S
C2173 N25 1.512 . S
C2178 C572 1.476 . S
C2208 C597 1.244 . S
C2203 N48 1.219 1_545 S
C2238 C608 1.261 . S
C2233 N81 1.288 . S
C2268 C536 1.511 . S
C2263 N94 1.514 . S
C2298 C561 1.536 . S
C2293 C131 1.521 . S
C2328 C418 1.440 . S
C2323 N2 1.428 . S
C2353 N35 1.444 . S
C2358 C464 1.448 . S
C2383 N58 1.236 . S
C2388 C490 1.274 . S
C2418 C500 1.244 . S
C2413 N71 1.233 . S
C2448 C428 1.396 . S
C2443 N104 1.398 . S
C2478 C454 1.549 . S
C2473 C122 1.552 . S
C2503 C145 2.014 . S
C2508 C741 2.025 . S
C2533 C168 1.676 . S
C2538 C788 1.625 . S
C2563 N186 1.328 . S
C2568 C813 1.344 . S
C2598 C824 1.263 . S
C2593 N219 1.288 . S
C2628 C752 1.748 . S
C2623 C246 1.803 . S
C2658 C777 1.464 . S
C2653 N265 1.438 . S
C2688 C634 1.933 . S
C2683 C154 1.935 . S
C2713 C177 1.794 . S
C2718 C680 1.730 . S
C2743 N196 1.216 . S
C2748 C706 1.246 . S
C2773 N209 1.124 . S
C2778 C716 1.144 . S
C2803 C237 1.874 . S
C2808 C644 1.837 . S
C2838 C670 1.418 . S
C2833 N255 1.383 . S
C2863 C283 1.775 . S
C2868 C957 1.780 . S
C2893 N301 1.396 . S
C2898 C1004 1.370 . S
C2923 N324 1.219 . S
C2928 C1029 1.234 . S
C2958 C1040 1.108 . S
C2953 N357 1.128 . S
C2988 C968 1.716 . S
C2983 C384 1.779 . S
C3013 N403 1.284 . S
C3018 C993 1.305 . S
C3043 C292 1.896 . S
C3048 C850 1.893 . S
C3078 C896 1.317 . S
C3073 N311 1.316 . S
C3103 N334 1.334 . S
C3108 C922 1.376 . S
C3133 N347 1.279 . S
C3138 C932 1.279 . S
C3168 C860 1.879 . S
C3163 C375 1.920 . S
C3193 N393 1.311 . S
C3198 C886 1.346 . S
