# Generated by pormake.
# Topology pyr, (3,6)-cn, num edge types: 1
# Building blocks:
#     Node 0, Type 0, BuildingBlock: OLANEW_clean_sbu_2, # of connection points: 3
#     Node 1, Type 0, BuildingBlock: OLANEW_clean_sbu_2, # of connection points: 3
#     Node 2, Type 0, BuildingBlock: OLANEW_clean_sbu_2, # of connection points: 3
#     Node 3, Type 0, BuildingBlock: OLANEW_clean_sbu_2, # of connection points: 3
#     Node 4, Type 0, BuildingBlock: OLANEW_clean_sbu_2, # of connection points: 3
#     Node 5, Type 0, BuildingBlock: OLANEW_clean_sbu_2, # of connection points: 3
#     Node 6, Type 0, BuildingBlock: OLANEW_clean_sbu_2, # of connection points: 3
#     Node 7, Type 0, BuildingBlock: OLANEW_clean_sbu_2, # of connection points: 3
#     Node 8, Type 1, BuildingBlock: PAMTUU_clean_sbu_0, # of connection points: 6
#     Node 9, Type 1, BuildingBlock: PAMTUU_clean_sbu_0, # of connection points: 6
#     Node 10, Type 1, BuildingBlock: PAMTUU_clean_sbu_0, # of connection points: 6
#     Node 11, Type 1, BuildingBlock: PAMTUU_clean_sbu_0, # of connection points: 6
#     Edge 12, Type (0, 1), BuildingBlock: TEMPAE_clean_linker_10, # of connection points: 2
#     Edge 13, Type (0, 1), BuildingBlock: TEMPAE_clean_linker_10, # of connection points: 2
#     Edge 14, Type (0, 1), BuildingBlock: TEMPAE_clean_linker_10, # of connection points: 2
#     Edge 15, Type (0, 1), BuildingBlock: TEMPAE_clean_linker_10, # of connection points: 2
#     Edge 16, Type (0, 1), BuildingBlock: TEMPAE_clean_linker_10, # of connection points: 2
#     Edge 17, Type (0, 1), BuildingBlock: TEMPAE_clean_linker_10, # of connection points: 2
#     Edge 18, Type (0, 1), BuildingBlock: TEMPAE_clean_linker_10, # of connection points: 2
#     Edge 19, Type (0, 1), BuildingBlock: TEMPAE_clean_linker_10, # of connection points: 2
#     Edge 20, Type (0, 1), BuildingBlock: TEMPAE_clean_linker_10, # of connection points: 2
#     Edge 21, Type (0, 1), BuildingBlock: TEMPAE_clean_linker_10, # of connection points: 2
#     Edge 22, Type (0, 1), BuildingBlock: TEMPAE_clean_linker_10, # of connection points: 2
#     Edge 23, Type (0, 1), BuildingBlock: TEMPAE_clean_linker_10, # of connection points: 2
#     Edge 24, Type (0, 1), BuildingBlock: TEMPAE_clean_linker_10, # of connection points: 2
#     Edge 25, Type (0, 1), BuildingBlock: TEMPAE_clean_linker_10, # of connection points: 2
#     Edge 26, Type (0, 1), BuildingBlock: TEMPAE_clean_linker_10, # of connection points: 2
#     Edge 27, Type (0, 1), BuildingBlock: TEMPAE_clean_linker_10, # of connection points: 2
#     Edge 28, Type (0, 1), BuildingBlock: TEMPAE_clean_linker_10, # of connection points: 2
#     Edge 29, Type (0, 1), BuildingBlock: TEMPAE_clean_linker_10, # of connection points: 2
#     Edge 30, Type (0, 1), BuildingBlock: TEMPAE_clean_linker_10, # of connection points: 2
#     Edge 31, Type (0, 1), BuildingBlock: TEMPAE_clean_linker_10, # of connection points: 2
#     Edge 32, Type (0, 1), BuildingBlock: TEMPAE_clean_linker_10, # of connection points: 2
#     Edge 33, Type (0, 1), BuildingBlock: TEMPAE_clean_linker_10, # of connection points: 2
#     Edge 34, Type (0, 1), BuildingBlock: TEMPAE_clean_linker_10, # of connection points: 2
#     Edge 35, Type (0, 1), BuildingBlock: TEMPAE_clean_linker_10, # of connection points: 2
# Relax obj value: 0.124
# Max RMSD: 0.184
# Mean RMSD: 0.122
data_MOF--net-pyr--node1-OLANEW_clean_sbu_2--node2-PAMTUU_clean_sbu_0--edge1-TEMPAE_clean_linker_10
_symmetry_space_group_name_H-M    P1
_symmetry_Int_Tables_number       1
_symmetry_cell_setting            triclinic
loop_
_symmetry_equiv_pos_as_xyz
'x, y, z'
_cell_length_a     41.093876
_cell_length_b     43.774651
_cell_length_c     41.50904
_cell_angle_alpha  94.293313
_cell_angle_beta   88.156474
_cell_angle_gamma 103.87549
loop_
_atom_site_label
_atom_site_type_symbol
_atom_site_fract_x
_atom_site_fract_y
_atom_site_fract_z
_atom_type_partial_charge
O0 O 0.38617 0.26969 0.13433 0.0
Cd1 Cd 0.36707 0.31877 0.14483 0.0
O2 O 0.37198 0.26117 0.18453 0.0
Cd3 Cd 0.36417 0.23951 0.23087 0.0
O4 O 0.33819 0.21167 0.26948 0.0
C5 C 0.33188 0.22445 0.29673 0.0
O6 O 0.34267 0.25511 0.30231 0.0
C7 C 0.38479 0.25258 0.15804 0.0
C8 C 0.30386 0.32212 0.12399 0.0
O9 O 0.33016 0.33072 0.10629 0.0
O10 O 0.30721 0.31062 0.15087 0.0
O11 O 0.20388 0.78276 0.79793 0.0
Cd12 Cd 0.17481 0.76002 0.74832 0.0
O13 O 0.1702 0.81278 0.81533 0.0
Cd14 Cd 0.1392 0.80177 0.77237 0.0
O15 O 0.11583 0.81767 0.73235 0.0
C16 C 0.13049 0.84492 0.72382 0.0
O17 O 0.15816 0.86003 0.73855 0.0
C18 C 0.19603 0.80234 0.81911 0.0
C19 C 0.22193 0.73658 0.71079 0.0
O20 O 0.21791 0.76433 0.7075 0.0
O21 O 0.20253 0.71948 0.7307 0.0
O22 O 0.71194 0.42183 0.87092 0.0
Cd23 Cd 0.66263 0.40642 0.83371 0.0
O24 O 0.6963 0.3768 0.89379 0.0
Cd25 Cd 0.69149 0.33676 0.92531 0.0
O26 O 0.6711 0.2903 0.94638 0.0
C27 C 0.65159 0.28742 0.97108 0.0
O28 O 0.64416 0.31285 0.98514 0.0
C29 C 0.71733 0.40335 0.89159 0.0
C30 C 0.64624 0.44352 0.78586 0.0
O31 O 0.63428 0.44459 0.81476 0.0
O32 O 0.6675 0.42653 0.77996 0.0
O33 O 0.91808 0.72962 0.35994 0.0
Cd34 Cd 0.89838 0.67316 0.3419 0.0
O35 O 0.86733 0.73357 0.37526 0.0
Cd36 Cd 0.8405 0.68469 0.36458 0.0
O37 O 0.79708 0.65189 0.38424 0.0
C38 C 0.79651 0.65033 0.41473 0.0
O39 O 0.82263 0.66623 0.4313 0.0
C40 C 0.89847 0.74603 0.37232 0.0
C41 C 0.91399 0.65084 0.27934 0.0
O42 O 0.88574 0.65773 0.28569 0.0
O43 O 0.9354 0.65575 0.30209 0.0
O44 O 0.69809 0.73836 0.7804 0.0
Cd45 Cd 0.66839 0.69641 0.81358 0.0
O46 O 0.68728 0.77234 0.81795 0.0
Cd47 Cd 0.68276 0.81634 0.8446 0.0
O48 O 0.66058 0.84394 0.88152 0.0
C49 C 0.67213 0.87311 0.88926 0.0
O50 O 0.69913 0.88846 0.87436 0.0
C51 C 0.70109 0.7669 0.79092 0.0
C52 C 0.71533 0.67341 0.84525 0.0
O53 O 0.70356 0.6606 0.81795 0.0
O54 O 0.70431 0.69668 0.85787 0.0
O55 O 0.84838 0.24981 0.35448 0.0
Cd56 Cd 0.87289 0.27197 0.40625 0.0
O57 O 0.84203 0.29284 0.33395 0.0
Cd58 Cd 0.85339 0.32128 0.37937 0.0
O59 O 0.82248 0.34566 0.41051 0.0
C60 C 0.80342 0.35795 0.3948 0.0
O61 O 0.80603 0.35654 0.36311 0.0
C62 C 0.8397 0.26331 0.33125 0.0
C63 C 0.9007 0.22618 0.42999 0.0
O64 O 0.86923 0.22464 0.43268 0.0
O65 O 0.91948 0.24998 0.41703 0.0
O66 O 0.41033 0.74531 0.23421 0.0
Cd67 Cd 0.3952 0.69039 0.25365 0.0
O68 O 0.3679 0.74234 0.20107 0.0
Cd69 Cd 0.33399 0.69464 0.19941 0.0
O70 O 0.29252 0.66021 0.17383 0.0
C71 C 0.26212 0.65614 0.18349 0.0
O72 O 0.25549 0.67151 0.21035 0.0
C73 C 0.39508 0.75787 0.21431 0.0
C74 C 0.41751 0.67269 0.31256 0.0
O75 O 0.43677 0.67678 0.28752 0.0
O76 O 0.38854 0.67854 0.31056 0.0
O77 O 0.16551 0.40058 0.76955 0.0
Cd78 Cd 0.18721 0.37511 0.72148 0.0
O79 O 0.11581 0.36736 0.76655 0.0
Cd80 Cd 0.12713 0.33425 0.72779 0.0
O81 O 0.12198 0.28798 0.70115 0.0
C82 C 0.10824 0.28182 0.67363 0.0
O83 O 0.09839 0.30424 0.66016 0.0
C84 C 0.1355 0.39161 0.78002 0.0
C85 C 0.24349 0.41271 0.69158 0.0
O86 O 0.21369 0.41337 0.68396 0.0
O87 O 0.24668 0.39473 0.71368 0.0
Tb88 Tb 0.03945 0.00936 0.51657 0.0
Tb89 Tb 0.9709 0.99994 0.56257 0.0
C90 C 0.97731 0.95336 0.50325 0.0
C91 C 0.11839 0.03964 0.46932 0.0
C92 C 0.16848 0.0864 0.44165 0.0
C93 C 0.17192 0.05519 0.44146 0.0
C94 C 0.14705 0.03203 0.45516 0.0
C95 C 0.11507 0.07086 0.47033 0.0
C96 C 0.13993 0.09409 0.4565 0.0
C97 C 0.09188 0.01445 0.48187 0.0
O98 O 0.01707 0.04722 0.50499 0.0
O99 O 0.9629 0.02618 0.52228 0.0
O100 O 0.9991 0.04796 0.57446 0.0
O101 O 0.05199 0.04475 0.55688 0.0
O102 O 0.91846 0.98507 0.56619 0.0
O103 O 0.9481 1.00556 0.60791 0.0
O104 O 0.00711 0.98288 0.58859 0.0
O105 O 0.03761 0.96924 0.5451 0.0
O106 O 0.99919 0.97646 0.49065 0.0
O107 O 0.96797 0.95553 0.53376 0.0
C108 C 0.98504 0.04697 0.50663 0.0
O109 O 0.0912 0.01213 0.51301 0.0
O110 O 0.06199 0.01143 0.47051 0.0
C111 C 0.03174 0.05937 0.57355 0.0
C112 C 0.89658 0.96972 0.61749 0.0
C113 C 0.85379 0.92707 0.65692 0.0
C114 C 0.85155 0.95866 0.65735 0.0
C115 C 0.87273 0.97972 0.6378 0.0
C116 C 0.89931 0.93836 0.61708 0.0
C117 C 0.87804 0.91717 0.63666 0.0
C118 C 0.91816 0.99262 0.59718 0.0
C119 C 0.0283 0.96724 0.57557 0.0
H120 H 0.19335 0.04842 0.42982 0.0
H121 H 0.14992 0.008 0.45416 0.0
H122 H 0.09308 0.07712 0.48136 0.0
H123 H 0.13675 0.11799 0.45725 0.0
H124 H 0.8336 0.96721 0.67303 0.0
H125 H 0.87047 1.00393 0.63854 0.0
H126 H 0.9177 0.93029 0.60154 0.0
H127 H 0.88021 0.89294 0.63556 0.0
Tb128 Tb 0.54512 0.02974 0.11538 0.0
Tb129 Tb 0.48287 0.01568 0.06504 0.0
C130 C 0.54557 0.98774 0.05028 0.0
C131 C 0.61959 0.06715 0.1661 0.0
C132 C 0.67141 0.11768 0.18956 0.0
C133 C 0.67764 0.08786 0.18138 0.0
C134 C 0.65192 0.06282 0.16985 0.0
C135 C 0.61338 0.09711 0.17346 0.0
C136 C 0.63909 0.12215 0.18531 0.0
C137 C 0.59309 0.04009 0.15428 0.0
O138 O 0.56204 0.06264 0.07798 0.0
O139 O 0.51119 0.06378 0.05704 0.0
O140 O 0.46873 0.03849 0.10966 0.0
O141 O 0.51975 0.06797 0.12547 0.0
O142 O 0.46285 0.01731 0.01938 0.0
O143 O 0.43077 1.00112 0.05995 0.0
O144 O 0.48088 0.97109 0.08658 0.0
O145 O 0.50487 0.99299 0.13441 0.0
O146 O 0.55257 0.99153 0.08124 0.0
O147 O 0.52231 0.99942 0.0384 0.0
C148 C 0.54366 0.07571 0.06041 0.0
O149 O 0.56227 0.04005 0.16299 0.0
O150 O 0.59547 0.03098 0.12389 0.0
C151 C 0.48719 0.0642 0.1239 0.0
C152 C 0.41169 0.98053 0.008 0.0
C153 C 0.36877 0.9339 0.96851 0.0
C154 C 0.37085 0.96607 0.96534 0.0
C155 C 0.39212 0.98912 0.9849 0.0
C156 C 0.41015 0.9485 0.01115 0.0
C157 C 0.38871 0.9253 0.99156 0.0
C158 C 0.43231 1.00552 0.02919 0.0
C159 C 0.4867 0.96883 0.11721 0.0
H160 H 0.70218 0.08364 0.1848 0.0
H161 H 0.65718 0.0399 0.16414 0.0
H162 H 0.58869 0.10109 0.17033 0.0
H163 H 0.63371 0.14497 0.19126 0.0
H164 H 0.35543 0.97346 0.94821 0.0
H165 H 0.3929 0.01375 0.98233 0.0
H166 H 0.4252 0.94149 0.02891 0.0
H167 H 0.38779 0.9007 0.99437 0.0
Tb168 Tb 0.51236 0.51616 0.53283 0.0
Tb169 Tb 0.51738 0.58361 0.57433 0.0
C170 C 0.48718 0.57206 0.50499 0.0
C171 C 0.54197 0.44908 0.49753 0.0
C172 C 0.59949 0.42549 0.48491 0.0
C173 C 0.57139 0.41571 0.46483 0.0
C174 C 0.54288 0.4275 0.47106 0.0
C175 C 0.56947 0.45808 0.51827 0.0
C176 C 0.59794 0.44634 0.51206 0.0
C177 C 0.51441 0.46512 0.50135 0.0
O178 O 0.56498 0.53986 0.53377 0.0
O179 O 0.55991 0.59084 0.54068 0.0
O180 O 0.55077 0.561 0.5986 0.0
O181 O 0.52517 0.50996 0.5824 0.0
O182 O 0.52586 0.63294 0.57588 0.0
O183 O 0.51388 0.60817 0.61931 0.0
O184 O 0.47321 0.55031 0.59195 0.0
O185 O 0.46112 0.51479 0.54798 0.0
O186 O 0.50187 0.54858 0.49893 0.0
O187 O 0.484 0.58379 0.53468 0.0
C188 C 0.57715 0.57007 0.53102 0.0
O189 O 0.50126 0.46657 0.53026 0.0
O190 O 0.5205 0.49228 0.48872 0.0
C191 C 0.54506 0.53056 0.6022 0.0
C192 C 0.48903 0.6506 0.61402 0.0
C193 C 0.43202 0.67432 0.63015 0.0
C194 C 0.45239 0.66846 0.65447 0.0
C195 C 0.48065 0.65683 0.64646 0.0
C196 C 0.46926 0.65723 0.58964 0.0
C197 C 0.44116 0.6691 0.59764 0.0
C198 C 0.5165 0.63476 0.60613 0.0
C199 C 0.45249 0.52702 0.57584 0.0
H200 H 0.57196 0.40001 0.44348 0.0
H201 H 0.52206 0.42067 0.45458 0.0
H202 H 0.56933 0.47499 0.53869 0.0
H203 H 0.61899 0.45407 0.52818 0.0
H204 H 0.44588 0.67181 0.67976 0.0
H205 H 0.49539 0.65171 0.66565 0.0
H206 H 0.47499 0.65261 0.56436 0.0
H207 H 0.42638 0.67384 0.57831 0.0
Tb208 Tb 1.0023 0.53943 1.00604 0.0
Tb209 Tb 1.00191 0.47693 0.04537 0.0
C210 C 0.03875 0.4887 0.97782 0.0
C211 C 0.96792 0.59406 0.9624 0.0
C212 C 0.91135 0.61097 0.93931 0.0
C213 C 0.94179 0.63371 0.94414 0.0
C214 C 0.96985 0.62528 0.95555 0.0
C215 C 0.93757 0.57135 0.95796 0.0
C216 C 0.9096 0.57968 0.94637 0.0
C217 C 0.99727 0.58527 0.97473 0.0
O218 O 0.9628 0.50063 0.9862 0.0
O219 O 0.95001 0.47167 0.03051 0.0
O220 O 0.98717 0.51072 0.08051 0.0
O221 O 0.96692 0.54011 0.04605 0.0
O222 O 0.99321 0.42755 0.04538 0.0
O223 O 0.01123 0.4574 0.08787 0.0
O224 O 0.05287 0.50628 0.04897 0.0
O225 O 0.04336 0.5546 0.04 0.0
O226 O 0.04095 0.51907 0.9827 0.0
O227 O 0.01971 0.46827 0.99627 0.0
C228 C 0.94173 0.47969 1.00252 0.0
O229 O 0.99948 0.58679 1.00606 0.0
O230 O 1.00341 0.55928 0.96147 0.0
C231 C 0.97056 0.532 0.07531 0.0
C232 C 0.03367 0.41299 0.07707 0.0
C233 C 0.08972 0.38742 0.08477 0.0
C234 C 0.07158 0.39602 0.11184 0.0
C235 C 0.04378 0.40855 0.108 0.0
C236 C 0.05143 0.4039 0.0499 0.0
C237 C 0.07905 0.39106 0.05374 0.0
C238 C 0.00621 0.42907 0.07389 0.0
C239 C 0.06192 0.53731 0.05142 0.0
H240 H 0.94384 0.6581 0.93943 0.0
H241 H 0.99301 0.64314 0.95915 0.0
H242 H 0.93551 0.54711 0.96332 0.0
H243 H 0.88675 0.56148 0.94255 0.0
H244 H 0.07901 0.39321 0.13603 0.0
H245 H 0.03057 0.41543 0.12929 0.0
H246 H 0.04445 0.40731 0.02573 0.0
H247 H 0.09272 0.3849 0.03245 0.0
C248 C 0.2952 0.17344 0.31284 0.0
C249 C 0.31041 0.20527 0.32081 0.0
C250 C 0.27308 0.15541 0.33448 0.0
C251 C 0.26615 0.16946 0.36496 0.0
C252 C 0.28203 0.20134 0.37351 0.0
C253 C 0.3039 0.21892 0.35127 0.0
C254 C 0.25656 0.12148 0.32442 0.0
C255 C 0.27545 0.217 0.40591 0.0
C256 C 0.18359 0.12989 0.40404 0.0
C257 C 0.19381 0.11022 0.42477 0.0
C258 C 0.20704 0.15017 0.38527 0.0
C259 C 0.24153 0.15082 0.38735 0.0
C260 C 0.25213 0.132 0.40922 0.0
C261 C 0.22813 0.11187 0.42764 0.0
C262 C 0.19475 0.16983 0.36215 0.0
C263 C 0.28871 0.13226 0.41232 0.0
H264 H 0.30004 0.16268 0.28937 0.0
H265 H 0.31563 0.24347 0.35766 0.0
H266 H 0.26195 0.1057 0.34219 0.0
H267 H 0.22895 0.11828 0.32406 0.0
H268 H 0.26517 0.11392 0.30014 0.0
H269 H 0.29097 0.24151 0.40945 0.0
H270 H 0.24862 0.21759 0.40812 0.0
H271 H 0.28067 0.20319 0.42565 0.0
H272 H 0.1571 0.12849 0.40146 0.0
H273 H 0.23617 0.09702 0.44397 0.0
H274 H 0.19976 0.16171 0.33692 0.0
H275 H 0.20847 0.19492 0.36579 0.0
H276 H 0.16745 0.16833 0.3651 0.0
H277 H 0.298 0.12237 0.38943 0.0
H278 H 0.29306 0.11823 0.43229 0.0
H279 H 0.30383 0.1568 0.41662 0.0
C280 C 0.24869 0.80547 0.84924 0.0
C281 C 0.21896 0.81546 0.84624 0.0
C282 C 0.27313 0.82103 0.87157 0.0
C283 C 0.26775 0.84721 0.89128 0.0
C284 C 0.23693 0.85612 0.88982 0.0
C285 C 0.21288 0.8401 0.86735 0.0
C286 C 0.30554 0.81064 0.87265 0.0
C287 C 0.23019 0.88385 0.91055 0.0
C288 C 0.32411 0.88356 0.96188 0.0
C289 C 0.34509 0.90972 0.94821 0.0
C290 C 0.29937 0.86233 0.94343 0.0
C291 C 0.29558 0.86751 0.91064 0.0
C292 C 0.31753 0.8932 0.89646 0.0
C293 C 0.34206 0.91391 0.91539 0.0
C294 C 0.27656 0.83505 0.95927 0.0
C295 C 0.31446 0.89944 0.86151 0.0
H296 H 0.25353 0.78628 0.83324 0.0
H297 H 0.18992 0.84786 0.86538 0.0
H298 H 0.3261 0.82846 0.86197 0.0
H299 H 0.3123 0.80888 0.89799 0.0
H300 H 0.30407 0.78751 0.85905 0.0
H301 H 0.20381 0.88573 0.90893 0.0
H302 H 0.2357 0.88193 0.93621 0.0
H303 H 0.24696 0.90599 0.90273 0.0
H304 H 0.3262 0.88034 0.9873 0.0
H305 H 0.35862 0.93377 0.90457 0.0
H306 H 0.27561 0.81267 0.9445 0.0
H307 H 0.25069 0.83856 0.96088 0.0
H308 H 0.28476 0.8326 0.984 0.0
H309 H 0.31593 0.87828 0.84561 0.0
H310 H 0.33431 0.91976 0.85388 0.0
H311 H 0.28967 0.90442 0.8577 0.0
C312 C 0.60637 0.47295 0.76499 0.0
C313 C 0.63408 0.45954 0.75963 0.0
C314 C 0.59266 0.48556 0.73978 0.0
C315 C 0.60708 0.48515 0.70829 0.0
C316 C 0.63566 0.4725 0.70294 0.0
C317 C 0.64866 0.45974 0.72852 0.0
C318 C 0.56208 0.49853 0.74668 0.0
C319 C 0.65217 0.47187 0.66997 0.0
C320 C 0.55204 0.48713 0.63612 0.0
C321 C 0.56125 0.51903 0.62918 0.0
C322 C 0.56668 0.4759 0.66166 0.0
C323 C 0.59154 0.4969 0.68079 0.0
C324 C 0.60122 0.52906 0.67374 0.0
C325 C 0.5859 0.53974 0.64823 0.0
C326 C 0.55529 0.4415 0.66834 0.0
C327 C 0.62782 0.55225 0.69316 0.0
H328 H 0.59473 0.47285 0.7888 0.0
H329 H 0.67005 0.44951 0.72399 0.0
H330 H 0.56698 0.52319 0.73962 0.0
H331 H 0.54081 0.4845 0.73203 0.0
H332 H 0.55443 0.4981 0.77259 0.0
H333 H 0.67527 0.4629 0.67009 0.0
H334 H 0.63444 0.45659 0.65251 0.0
H335 H 0.65873 0.49591 0.66109 0.0
H336 H 0.53304 0.47083 0.62173 0.0
H337 H 0.59343 0.56438 0.64313 0.0
H338 H 0.54521 0.43927 0.6934 0.0
H339 H 0.5769 0.43036 0.66634 0.0
H340 H 0.53564 0.42822 0.65141 0.0
H341 H 0.61981 0.55358 0.7189 0.0
H342 H 0.63307 0.57631 0.68431 0.0
H343 H 0.65143 0.54412 0.69214 0.0
C344 C 0.89452 0.62028 0.22711 0.0
C345 C 0.92097 0.63588 0.24735 0.0
C346 C 0.9005 0.6035 0.19814 0.0
C347 C 0.9338 0.60286 0.18877 0.0
C348 C 0.96068 0.61954 0.20856 0.0
C349 C 0.95392 0.63551 0.23775 0.0
C350 C 0.87109 0.58559 0.17811 0.0
C351 C 0.99661 0.62008 0.19916 0.0
C352 C 0.95237 0.53547 0.13342 0.0
C353 C 0.95781 0.54889 0.10349 0.0
C354 C 0.9434 0.55239 0.16107 0.0
C355 C 0.94056 0.58381 0.15898 0.0
C356 C 0.94544 0.59729 0.12868 0.0
C357 C 0.95365 0.57956 0.10126 0.0
C358 C 0.93766 0.53682 0.19269 0.0
C359 C 0.94329 0.63087 0.12547 0.0
H360 H 0.86896 0.62023 0.23446 0.0
H361 H 0.9745 0.64763 0.25317 0.0
H362 H 0.87404 0.59297 0.15299 0.0
H363 H 0.87021 0.55999 0.1769 0.0
H364 H 0.84682 0.58923 0.18816 0.0
H365 H 0.01472 0.63586 0.21599 0.0
H366 H 1.0007 0.59592 0.19895 0.0
H367 H 1.00207 0.62804 0.17437 0.0
H368 H 0.95541 0.51175 0.13532 0.0
H369 H 0.95816 0.59025 0.07829 0.0
H370 H 0.91301 0.53855 0.20337 0.0
H371 H 0.95716 0.54921 0.21014 0.0
H372 H 0.93841 0.51156 0.1898 0.0
H373 H 0.91879 0.63436 0.13491 0.0
H374 H 0.94642 0.63748 0.10003 0.0
H375 H 0.96306 0.64721 0.14017 0.0
C376 C 0.42312 0.22192 0.13031 0.0
C377 C 0.39927 0.22438 0.15476 0.0
C378 C 0.43786 0.19599 0.12704 0.0
C379 C 0.42895 0.17202 0.14904 0.0
C380 C 0.40496 0.17434 0.17378 0.0
C381 C 0.38996 0.20012 0.17592 0.0
C382 C 0.46266 0.19403 0.09974 0.0
C383 C 0.39483 0.14939 0.19783 0.0
C384 C 0.44008 0.09063 0.12054 0.0
C385 C 0.47134 0.09073 0.13333 0.0
C386 C 0.42599 0.11679 0.1257 0.0
C387 C 0.44312 0.14359 0.14481 0.0
C388 C 0.47411 0.14347 0.15882 0.0
C389 C 0.48809 0.11717 0.15257 0.0
C390 C 0.39332 0.11615 0.10965 0.0
C391 C 0.49273 0.17131 0.17996 0.0
H392 H 0.43041 0.2404 0.11367 0.0
H393 H 0.37043 0.20072 0.19374 0.0
H394 H 0.48702 0.1926 0.10952 0.0
H395 H 0.4534 0.17225 0.08395 0.0
H396 H 0.467 0.21465 0.08474 0.0
H397 H 0.37823 0.15611 0.21737 0.0
H398 H 0.38145 0.12682 0.18532 0.0
H399 H 0.41742 0.14512 0.20892 0.0
H400 H 0.42705 0.07051 0.10531 0.0
H401 H 0.51225 0.11744 0.1625 0.0
H402 H 0.3972 0.13527 0.09281 0.0
H403 H 0.37443 0.12049 0.128 0.0
H404 H 0.38293 0.0933 0.09589 0.0
H405 H 0.5008 0.1922 0.16549 0.0
H406 H 0.51523 0.16666 0.19091 0.0
H407 H 0.47593 0.17742 0.19959 0.0
C408 C 0.13139 0.89131 0.69198 0.0
C409 C 0.11576 0.86043 0.6994 0.0
C410 C 0.11691 0.90729 0.6705 0.0
C411 C 0.08606 0.89199 0.65593 0.0
C412 C 0.07054 0.86052 0.66261 0.0
C413 C 0.08555 0.84511 0.68433 0.0
C414 C 0.13423 0.94085 0.66402 0.0
C415 C 0.03773 0.84341 0.64736 0.0
C416 C 0.0338 0.94574 0.6288 0.0
C417 C 0.04179 0.94669 0.59571 0.0
C418 C 0.04744 0.92745 0.6485 0.0
C419 C 0.06952 0.90953 0.63479 0.0
C420 C 0.07706 0.90973 0.60129 0.0
C421 C 0.06317 0.92837 0.58215 0.0
C422 C 0.03886 0.92792 0.68417 0.0
C423 C 0.10036 0.89078 0.58579 0.0
H424 H 0.15477 0.90334 0.70342 0.0
H425 H 0.07335 0.82122 0.68985 0.0
H426 H 0.13857 0.94302 0.63769 0.0
H427 H 0.11797 0.95686 0.67238 0.0
H428 H 0.15868 0.94897 0.67639 0.0
H429 H 0.02986 0.81845 0.65366 0.0
H430 H 0.01778 0.85552 0.65548 0.0
H431 H 0.0398 0.84391 0.62068 0.0
H432 H 0.01725 0.95972 0.63953 0.0
H433 H 0.06937 0.92878 0.55658 0.0
H434 H 0.06188 0.93805 0.6983 0.0
H435 H 0.02872 0.90354 0.69143 0.0
H436 H 0.02018 0.94201 0.6908 0.0
H437 H 0.12584 0.89968 0.59585 0.0
H438 H 0.1021 0.89199 0.55913 0.0
H439 H 0.09168 0.8657 0.59137 0.0
C440 C 0.76416 0.39033 0.92159 0.0
C441 C 0.74795 0.41286 0.91189 0.0
C442 C 0.79494 0.39946 0.93797 0.0
C443 C 0.80957 0.43191 0.94564 0.0
C444 C 0.79254 0.45465 0.93702 0.0
C445 C 0.76232 0.4449 0.91989 0.0
C446 C 0.81255 0.37444 0.94578 0.0
C447 C 0.80659 0.48943 0.94531 0.0
C448 C 0.87954 0.45616 0.0082 0.0
C449 C 0.9081 0.46531 0.98847 0.0
C450 C 0.84734 0.44515 0.99471 0.0
C451 C 0.84365 0.44231 0.96064 0.0
C452 C 0.87264 0.45053 0.9407 0.0
C453 C 0.90427 0.46233 0.95481 0.0
C454 C 0.81715 0.43757 0.01695 0.0
C455 C 0.87025 0.44721 0.90432 0.0
H456 H 0.75354 0.36557 0.91512 0.0
H457 H 0.74993 0.46248 0.91263 0.0
H458 H 0.83659 0.37762 0.93201 0.0
H459 H 0.81867 0.37677 0.9718 0.0
H460 H 0.79722 0.35021 0.93972 0.0
H461 H 0.78887 0.50383 0.93972 0.0
H462 H 0.81268 0.49369 0.97136 0.0
H463 H 0.83023 0.49772 0.93151 0.0
H464 H 0.88221 0.45871 0.03422 0.0
H465 H 0.92619 0.46919 0.93935 0.0
H466 H 0.8025 0.41306 0.01129 0.0
H467 H 0.80045 0.45345 0.01314 0.0
H468 H 0.82418 0.44025 0.04281 0.0
H469 H 0.85638 0.42298 0.89625 0.0
H470 H 0.8953 0.45219 0.89224 0.0
H471 H 0.85607 0.46374 0.89617 0.0
C472 C 0.7653 0.63324 0.46553 0.0
C473 C 0.76563 0.63425 0.4318 0.0
C474 C 0.73549 0.62116 0.48255 0.0
C475 C 0.70525 0.6099 0.46545 0.0
C476 C 0.7056 0.60974 0.43131 0.0
C477 C 0.73581 0.62187 0.41488 0.0
C478 C 0.73618 0.62142 0.51893 0.0
C479 C 0.67385 0.59781 0.41224 0.0
C480 C 0.62979 0.55866 0.50642 0.0
C481 C 0.61072 0.5806 0.5158 0.0
C482 C 0.6608 0.56789 0.49036 0.0
C483 C 0.67298 0.59979 0.48337 0.0
C484 C 0.65412 0.62214 0.49318 0.0
C485 C 0.62325 0.61229 0.50932 0.0
C486 C 0.68024 0.54339 0.48046 0.0
C487 C 0.66632 0.65641 0.48617 0.0
H488 H 0.78825 0.64258 0.47881 0.0
H489 H 0.73583 0.6225 0.38882 0.0
H490 H 0.7213 0.63771 0.52987 0.0
H491 H 0.72449 0.59759 0.52694 0.0
H492 H 0.76206 0.62902 0.5284 0.0
H493 H 0.67866 0.59766 0.38574 0.0
H494 H 0.66127 0.57353 0.41841 0.0
H495 H 0.65617 0.61296 0.41868 0.0
H496 H 0.62038 0.53409 0.51131 0.0
H497 H 0.6087 0.62939 0.5164 0.0
H498 H 0.70612 0.55098 0.48984 0.0
H499 H 0.68227 0.54079 0.45373 0.0
H500 H 0.66822 0.51999 0.48938 0.0
H501 H 0.69134 0.66635 0.4969 0.0
H502 H 0.64893 0.67089 0.49583 0.0
H503 H 0.66917 0.65848 0.4597 0.0
C504 C 0.26935 0.34664 0.08964 0.0
C505 C 0.2711 0.32744 0.11483 0.0
C506 C 0.23932 0.35485 0.08305 0.0
C507 C 0.21018 0.34328 0.10183 0.0
C508 C 0.21142 0.32275 0.12632 0.0
C509 C 0.24189 0.31524 0.13267 0.0
C510 C 0.23917 0.377 0.05689 0.0
C511 C 0.1808 0.30953 0.14657 0.0
C512 C 0.14462 0.39175 0.11138 0.0
C513 C 0.12039 0.37581 0.08905 0.0
C514 C 0.17394 0.38147 0.1156 0.0
C515 C 0.17909 0.35434 0.09731 0.0
C516 C 0.15464 0.33803 0.0748 0.0
C517 C 0.12569 0.3491 0.07078 0.0
C518 C 0.19956 0.39982 0.13952 0.0
C519 C 0.15901 0.30882 0.05513 0.0
H520 H 0.29179 0.35625 0.07577 0.0
H521 H 0.24294 0.30026 0.15206 0.0
H522 H 0.21867 0.36668 0.03971 0.0
H523 H 0.23439 0.39946 0.06784 0.0
H524 H 0.26329 0.3824 0.04318 0.0
H525 H 0.18513 0.29183 0.16274 0.0
H526 H 0.1736 0.32894 0.16166 0.0
H527 H 0.1593 0.29833 0.13081 0.0
H528 H 0.14087 0.41267 0.12522 0.0
H529 H 0.10691 0.33658 0.05365 0.0
H530 H 0.22406 0.40807 0.12707 0.0
H531 H 0.20335 0.38436 0.15835 0.0
H532 H 0.19196 0.42062 0.15156 0.0
H533 H 0.18231 0.31443 0.04026 0.0
H534 H 0.13756 0.29869 0.03889 0.0
H535 H 0.16165 0.29064 0.07145 0.0
C536 C 0.64045 0.22791 0.96663 0.0
C537 C 0.63648 0.25585 0.98352 0.0
C538 C 0.62548 0.19809 0.97794 0.0
C539 C 0.60621 0.196 1.00702 0.0
C540 C 0.60229 0.22411 0.02425 0.0
C541 C 0.61731 0.25355 0.01229 0.0
C542 C 0.63014 0.16877 0.95868 0.0
C543 C 0.58224 0.22311 0.05546 0.0
C544 C 0.54231 0.11956 0.02462 0.0
C545 C 0.55989 0.10594 0.04577 0.0
C546 C 0.55721 0.14849 0.01143 0.0
C547 C 0.59046 0.16451 0.01972 0.0
C548 C 0.60837 0.15082 0.04093 0.0
C549 C 0.59299 0.12177 0.05353 0.0
C550 C 0.53722 0.16208 0.9888 0.0
C551 C 0.64368 0.16713 0.05077 0.0
H552 H 0.65505 0.2293 0.94435 0.0
H553 H 0.61403 0.27487 0.02564 0.0
H554 H 0.64256 0.15506 0.97366 0.0
H555 H 0.60537 0.15342 0.95181 0.0
H556 H 0.64545 0.17429 0.93638 0.0
H557 H 0.5817 0.24704 0.0661 0.0
H558 H 0.55608 0.2095 0.05124 0.0
H559 H 0.59304 0.21085 0.07334 0.0
H560 H 0.51678 0.10764 0.01837 0.0
H561 H 0.60688 0.1117 0.06994 0.0
H562 H 0.55113 0.16658 0.96562 0.0
H563 H 0.5336 0.18506 0.99948 0.0
H564 H 0.51221 0.14619 0.98369 0.0
H565 H 0.66014 0.17134 0.02905 0.0
H566 H 0.65442 0.15322 0.06709 0.0
H567 H 0.64397 0.1905 0.06328 0.0
C568 C 0.88969 0.79842 0.39378 0.0
C569 C 0.91167 0.77865 0.38663 0.0
C570 C 0.90029 0.82762 0.41138 0.0
C571 C 0.93362 0.83724 0.42253 0.0
C572 C 0.95628 0.8179 0.41451 0.0
C573 C 0.9451 0.78893 0.39644 0.0
C574 C 0.87549 0.84776 0.41884 0.0
C575 C 0.99198 0.82725 0.42609 0.0
C576 C 0.96894 0.92372 0.449 0.0
C577 C 0.96468 0.92385 0.48272 0.0
C578 C 0.9588 0.8958 0.42915 0.0
C579 C 0.94441 0.86713 0.44331 0.0
C580 C 0.93989 0.8671 0.47732 0.0
C581 C 0.94985 0.89548 0.4966 0.0
C582 C 0.96354 0.897 0.39299 0.0
C583 C 0.92488 0.83697 0.49339 0.0
H584 H 0.86384 0.79075 0.38617 0.0
H585 H 0.96216 0.77371 0.39127 0.0
H586 H 0.87079 0.8498 0.44529 0.0
H587 H 0.8859 0.87196 0.41116 0.0
H588 H 0.85115 0.83787 0.40669 0.0
H589 H 0.00683 0.81027 0.41675 0.0
H590 H 1.00454 0.851 0.41843 0.0
H591 H 0.99212 0.82859 0.45289 0.0
H592 H 0.98024 0.94554 0.43801 0.0
H593 H 0.9467 0.89531 0.52262 0.0
H594 H 0.93908 0.88801 0.38089 0.0
H595 H 0.9801 0.8815 0.38398 0.0
H596 H 0.97468 0.92126 0.38573 0.0
H597 H 0.89924 0.82652 0.48429 0.0
H598 H 0.92348 0.84082 0.52011 0.0
H599 H 0.94008 0.81949 0.48723 0.0
C600 C 0.25841 0.69837 0.70335 0.0
C601 C 0.24989 0.72561 0.69416 0.0
C602 C 0.28726 0.68971 0.69081 0.0
C603 C 0.30787 0.70854 0.66825 0.0
C604 C 0.29859 0.73524 0.65773 0.0
C605 C 0.26978 0.74358 0.67096 0.0
C606 C 0.29643 0.66114 0.70275 0.0
C607 C 0.31967 0.75559 0.63332 0.0
C608 C 0.39963 0.7062 0.6652 0.0
C609 C 0.40065 0.68455 0.63872 0.0
C610 C 0.36969 0.71456 0.67473 0.0
C611 C 0.3401 0.70123 0.65716 0.0
C612 C 0.3411 0.68005 0.62989 0.0
C613 C 0.37131 0.67181 0.62111 0.0
C614 C 0.36959 0.73718 0.70404 0.0
C615 C 0.3101 0.66553 0.61042 0.0
H616 H 0.24322 0.68438 0.7213 0.0
H617 H 0.26325 0.76458 0.66363 0.0
H618 H 0.30038 0.64481 0.68206 0.0
H619 H 0.32036 0.6686 0.71604 0.0
H620 H 0.27687 0.64809 0.71906 0.0
H621 H 0.30756 0.77394 0.62567 0.0
H622 H 0.34436 0.76744 0.64383 0.0
H623 H 0.32448 0.74082 0.61161 0.0
H624 H 0.42227 0.71655 0.67861 0.0
H625 H 0.37169 0.65472 0.60091 0.0
H626 H 0.35219 0.72534 0.72277 0.0
H627 H 0.3604 0.75772 0.6975 0.0
H628 H 0.39487 0.74593 0.71468 0.0
H629 H 0.29127 0.65014 0.62558 0.0
H630 H 0.3156 0.65122 0.58859 0.0
H631 H 0.29855 0.68423 0.60277 0.0
C632 C 0.72606 0.78638 0.7386 0.0
C633 C 0.72072 0.7925 0.77177 0.0
C634 C 0.7469 0.80906 0.72021 0.0
C635 C 0.76297 0.83863 0.73533 0.0
C636 C 0.75718 0.84527 0.76867 0.0
C637 C 0.73618 0.82206 0.78654 0.0
C638 C 0.7523 0.80107 0.6847 0.0
C639 C 0.77391 0.87655 0.78564 0.0
C640 C 0.84251 0.88294 0.69419 0.0
C641 C 0.83066 0.90465 0.67742 0.0
C642 C 0.82086 0.8617 0.71358 0.0
C643 C 0.78653 0.86216 0.71629 0.0
C644 C 0.77447 0.88419 0.69966 0.0
C645 C 0.79664 0.9051 0.6804 0.0
C646 C 0.83468 0.83855 0.73094 0.0
C647 C 0.73802 0.88534 0.70184 0.0
H648 H 0.71419 0.76358 0.727 0.0
H649 H 0.73299 0.82671 0.81226 0.0
H650 H 0.74582 0.81892 0.67009 0.0
H651 H 0.77913 0.8016 0.67987 0.0
H652 H 0.73704 0.7774 0.67638 0.0
H653 H 0.76525 0.87873 0.81116 0.0
H654 H 0.80147 0.87933 0.78529 0.0
H655 H 0.76882 0.89621 0.77279 0.0
H656 H 0.86883 0.88275 0.69239 0.0
H657 H 0.78717 0.9215 0.66719 0.0
H658 H 0.82206 0.81408 0.72238 0.0
H659 H 0.82945 0.84116 0.75726 0.0
H660 H 0.86214 0.84182 0.72707 0.0
H661 H 0.72215 0.86266 0.69177 0.0
H662 H 0.73292 0.90475 0.68852 0.0
H663 H 0.7303 0.88854 0.72748 0.0
C664 C 0.81521 0.21086 0.30292 0.0
C665 C 0.82238 0.24388 0.30323 0.0
C666 C 0.79317 0.19191 0.28038 0.0
C667 C 0.77823 0.20628 0.25731 0.0
C668 C 0.78743 0.23944 0.25579 0.0
C669 C 0.80932 0.25791 0.2789 0.0
C670 C 0.78404 0.15659 0.2828 0.0
C671 C 0.77255 0.25556 0.2311 0.0
C672 C 0.73086 0.14951 0.19166 0.0
C673 C 0.69812 0.14328 0.20449 0.0
C674 C 0.75707 0.1713 0.20769 0.0
C675 C 0.75036 0.18677 0.23744 0.0
C676 C 0.71709 0.18147 0.24981 0.0
C677 C 0.69134 0.15989 0.23308 0.0
C678 C 0.79209 0.17679 0.19347 0.0
C679 C 0.70893 0.19734 0.2816 0.0
H680 H 0.82536 0.19975 0.32143 0.0
H681 H 0.81492 0.28339 0.27876 0.0
H682 H 0.75748 0.14895 0.29083 0.0
H683 H 0.78645 0.14426 0.25883 0.0
H684 H 0.8 0.14895 0.30017 0.0
H685 H 0.78609 0.28066 0.22979 0.0
H686 H 0.773 0.24323 0.2068 0.0
H687 H 0.74595 0.25465 0.23759 0.0
H688 H 0.73605 0.13692 0.16933 0.0
H689 H 0.66612 0.1549 0.2432 0.0
H690 H 0.80787 0.16633 0.20851 0.0
H691 H 0.80377 0.20242 0.19349 0.0
H692 H 0.79239 0.1661 0.16836 0.0
H693 H 0.7215 0.18928 0.3015 0.0
H694 H 0.68155 0.19208 0.28689 0.0
H695 H 0.71851 0.22327 0.28149 0.0
C696 C 0.46137 0.6606 0.34761 0.0
C697 C 0.42762 0.65984 0.34214 0.0
C698 C 0.47095 0.64712 0.37458 0.0
C699 C 0.44618 0.63168 0.39639 0.0
C700 C 0.41206 0.63089 0.391 0.0
C701 C 0.40328 0.64524 0.36428 0.0
C702 C 0.50766 0.6493 0.37966 0.0
C703 C 0.38468 0.61421 0.41307 0.0
C704 C 0.46932 0.57036 0.44706 0.0
C705 C 0.47533 0.58673 0.47753 0.0
C706 C 0.45928 0.58445 0.42074 0.0
C707 C 0.4559 0.61604 0.42454 0.0
C708 C 0.46204 0.63269 0.45525 0.0
C709 C 0.47126 0.61778 0.48133 0.0
C710 C 0.45229 0.56545 0.38879 0.0
C711 C 0.45951 0.66655 0.46044 0.0
H712 H 0.48042 0.67184 0.33077 0.0
H713 H 0.3771 0.6442 0.36022 0.0
H714 H 0.515 0.66016 0.40418 0.0
H715 H 0.51237 0.62532 0.37809 0.0
H716 H 0.52397 0.66342 0.36156 0.0
H717 H 0.35936 0.61556 0.40561 0.0
H718 H 0.38528 0.58901 0.41321 0.0
H719 H 0.38885 0.62466 0.43821 0.0
H720 H 0.47226 0.54637 0.44379 0.0
H721 H 0.47617 0.63084 0.50458 0.0
H722 H 0.47001 0.57673 0.37002 0.0
H723 H 0.42661 0.56491 0.38089 0.0
H724 H 0.45464 0.54081 0.39005 0.0
H725 H 0.47724 0.68134 0.44387 0.0
H726 H 0.46516 0.6763 0.48567 0.0
H727 H 0.43394 0.66845 0.45465 0.0
C728 C 0.08881 0.40463 0.81437 0.0
C729 C 0.12334 0.40865 0.80847 0.0
C730 C 0.07663 0.41929 0.84186 0.0
C731 C 0.09949 0.43804 0.86443 0.0
C732 C 0.13441 0.44246 0.85851 0.0
C733 C 0.14593 0.42796 0.83043 0.0
C734 C 0.03922 0.41442 0.84691 0.0
C735 C 0.15957 0.46186 0.88221 0.0
C736 C 0.06593 0.49487 0.92297 0.0
C737 C 0.05676 0.47688 0.94985 0.0
C738 C 0.08047 0.4828 0.89522 0.0
C739 C 0.08661 0.45226 0.89456 0.0
C740 C 0.07859 0.43452 0.92214 0.0
C741 C 0.06345 0.44689 0.94928 0.0
C742 C 0.0881 0.50227 0.86618 0.0
C743 C 0.0853 0.40213 0.92273 0.0
H744 H 0.07116 0.38994 0.79743 0.0
H745 H 0.17264 0.43105 0.82616 0.0
H746 H 0.03129 0.40192 0.86918 0.0
H747 H 0.03248 0.43754 0.85026 0.0
H748 H 0.02484 0.40048 0.8263 0.0
H749 H 0.18584 0.4636 0.87377 0.0
H750 H 0.15553 0.48602 0.88631 0.0
H751 H 0.15605 0.45116 0.90587 0.0
H752 H 0.06065 0.51798 0.92315 0.0
H753 H 0.0567 0.43297 0.97006 0.0
H754 H 0.07232 0.49005 0.84568 0.0
H755 H 0.11464 0.50485 0.85841 0.0
H756 H 0.08337 0.52614 0.87108 0.0
H757 H 0.06925 0.38561 0.90486 0.0
H758 H 0.08023 0.39254 0.94691 0.0
H759 H 0.11176 0.40292 0.91574 0.0
C760 C 0.66573 0.92218 0.92155 0.0
C761 C 0.65483 0.88953 0.9145 0.0
C762 C 0.64886 0.93805 0.94472 0.0
C763 C 0.62048 0.92084 0.96131 0.0
C764 C 0.60974 0.8878 0.95475 0.0
C765 C 0.62699 0.87257 0.93141 0.0
C766 C 0.66102 0.97332 0.951 0.0
C767 C 0.57965 0.86861 0.97198 0.0
C768 C 0.59066 0.95827 0.039 0.0
C769 C 0.56426 0.96976 0.02793 0.0
C770 C 0.60917 0.94223 0.01764 0.0
C771 C 0.60108 0.93757 0.98444 0.0
C772 C 0.5743 0.94886 0.97318 0.0
C773 C 0.55625 0.96478 0.99502 0.0
C774 C 0.63752 0.93045 0.03053 0.0
C775 C 0.56481 0.9443 0.93798 0.0
H776 H 0.68722 0.93549 0.90868 0.0
H777 H 0.61844 0.84731 0.92628 0.0
H778 H 0.64129 0.98506 0.94441 0.0
H779 H 0.66598 0.97939 0.9771 0.0
H780 H 0.68423 0.98307 0.93704 0.0
H781 H 0.57541 0.84295 0.96515 0.0
H782 H 0.5829 0.87249 0.99851 0.0
H783 H 0.55686 0.87638 0.96617 0.0
H784 H 0.59712 0.96203 0.06433 0.0
H785 H 0.5359 0.9735 0.98613 0.0
H786 H 0.66141 0.94149 0.01834 0.0
H787 H 0.63309 0.90459 0.02517 0.0
H788 H 0.64044 0.9357 0.05703 0.0
H789 H 0.58647 0.95563 0.92287 0.0
H790 H 0.54323 0.95439 0.93315 0.0
H791 H 0.55823 0.9188 0.93021 0.0
C792 C 0.89587 0.16921 0.43606 0.0
C793 C 0.91457 0.20046 0.44031 0.0
C794 C 0.90869 0.14421 0.44506 0.0
C795 C 0.94044 0.15076 0.4598 0.0
C796 C 0.95935 0.18236 0.46438 0.0
C797 C 0.94643 0.20685 0.45396 0.0
C798 C 0.88819 0.11079 0.43889 0.0
C799 C 0.99273 0.19036 0.4811 0.0
C800 C 0.95273 0.08808 0.51328 0.0
C801 C 0.97386 0.07323 0.49409 0.0
C802 C 0.94262 0.11401 0.50281 0.0
C803 C 0.95292 0.12458 0.47186 0.0
C804 C 0.97413 0.10947 0.45225 0.0
C805 C 0.98496 0.08429 0.46393 0.0
C806 C 0.92101 0.13014 0.52494 0.0
C807 C 0.98479 0.11946 0.41873 0.0
H808 H 0.87139 0.16428 0.4251 0.0
H809 H 0.9608 0.23107 0.45732 0.0
H810 H 0.90351 0.09619 0.42549 0.0
H811 H 0.88046 0.10015 0.46219 0.0
H812 H 0.86531 0.1096 0.42484 0.0
H813 H 1.00439 0.21608 0.48259 0.0
H814 H 0.98938 0.18224 0.50596 0.0
H815 H 0.01029 0.17787 0.46812 0.0
H816 H 0.94474 0.07984 0.53693 0.0
H817 H 1.00142 0.07276 0.44922 0.0
H818 H 0.89612 0.12744 0.514 0.0
H819 H 0.93266 0.15579 0.52817 0.0
H820 H 0.91719 0.12038 0.54909 0.0
H821 H 0.9623 0.11715 0.40378 0.0
H822 H 1.00113 0.10514 0.40649 0.0
H823 H 0.99847 0.14464 0.41988 0.0
C824 C 0.20119 0.62973 0.17603 0.0
C825 C 0.2342 0.63609 0.16376 0.0
C826 C 0.17417 0.61244 0.15723 0.0
C827 C 0.18007 0.60132 0.12515 0.0
C828 C 0.21338 0.60718 0.11276 0.0
C829 C 0.24002 0.62435 0.13222 0.0
C830 C 0.13915 0.60653 0.17157 0.0
C831 C 0.2208 0.59592 0.07867 0.0
C832 C 0.11096 0.53612 0.08579 0.0
C833 C 0.09358 0.55335 0.06837 0.0
C834 C 0.13948 0.55128 0.10383 0.0
C835 C 0.15119 0.58452 0.10438 0.0
C836 C 0.13432 0.60193 0.08612 0.0
C837 C 0.10573 0.5862 0.06851 0.0
C838 C 0.15652 0.5318 0.12306 0.0
C839 C 0.14606 0.63734 0.08574 0.0
H840 H 0.19634 0.63853 0.20037 0.0
H841 H 0.26537 0.62916 0.12243 0.0
H842 H 0.12349 0.61816 0.15767 0.0
H843 H 0.12728 0.58088 0.16987 0.0
H844 H 0.13889 0.61553 0.1973 0.0
H845 H 0.2481 0.60136 0.07299 0.0
H846 H 0.21057 0.57008 0.07489 0.0
H847 H 0.20827 0.60726 0.0613 0.0
H848 H 0.10183 0.51076 0.08601 0.0
H849 H 0.09268 0.59981 0.05509 0.0
H850 H 0.1545 0.53855 0.14921 0.0
H851 H 0.1836 0.53652 0.11668 0.0
H852 H 0.14538 0.50609 0.11888 0.0
H853 H 0.14377 0.6484 0.11039 0.0
H854 H 0.13139 0.64725 0.06896 0.0
H855 H 0.17291 0.64402 0.07849 0.0
C856 C 0.26966 0.45211 0.65157 0.0
C857 C 0.27331 0.43146 0.67477 0.0
C858 C 0.29762 0.46916 0.63477 0.0
C859 C 0.33002 0.46537 0.64116 0.0
C860 C 0.33389 0.44479 0.66476 0.0
C861 C 0.30554 0.42818 0.68131 0.0
C862 C 0.29248 0.49104 0.60997 0.0
C863 C 0.36797 0.44 0.67225 0.0
C864 C 0.40005 0.48369 0.57813 0.0
C865 C 0.41959 0.51264 0.59089 0.0
C866 C 0.37045 0.46841 0.59384 0.0
C867 C 0.35993 0.48249 0.62292 0.0
C868 C 0.37888 0.51223 0.63531 0.0
C869 C 0.4085 0.52688 0.61923 0.0
C870 C 0.35101 0.43669 0.57985 0.0
C871 C 0.36836 0.52822 0.66604 0.0
H872 H 0.24488 0.45486 0.64638 0.0
H873 H 0.30865 0.41228 0.69914 0.0
H874 H 0.30781 0.51522 0.61599 0.0
H875 H 0.301 0.48313 0.58583 0.0
H876 H 0.26581 0.49202 0.60844 0.0
H877 H 0.36679 0.42341 0.69148 0.0
H878 H 0.37924 0.43064 0.65016 0.0
H879 H 0.385 0.46291 0.68011 0.0
H880 H 0.40836 0.47242 0.5563 0.0
H881 H 0.42325 0.54934 0.62922 0.0
H882 H 0.32446 0.43711 0.57646 0.0
H883 H 0.35117 0.41841 0.59693 0.0
H884 H 0.3616 0.42963 0.55627 0.0
H885 H 0.34201 0.53006 0.66438 0.0
H886 H 0.38454 0.55223 0.6713 0.0
H887 H 0.36955 0.51384 0.68669 0.0
C888 C 0.75776 0.67939 0.8886 0.0
C889 C 0.74186 0.66249 0.86109 0.0
C890 C 0.78449 0.67057 0.90258 0.0
C891 C 0.79542 0.64412 0.88881 0.0
C892 C 0.77886 0.62642 0.86161 0.0
C893 C 0.75234 0.63589 0.848 0.0
C894 C 0.8016 0.69007 0.93153 0.0
C895 C 0.78963 0.5979 0.84644 0.0
C896 C 0.88536 0.64063 0.90206 0.0
C897 C 0.8816 0.61973 0.9267 0.0
C898 C 0.85752 0.64887 0.88968 0.0
C899 C 0.82508 0.63573 0.90203 0.0
C900 C 0.82104 0.61459 0.92684 0.0
C901 C 0.84936 0.60695 0.93897 0.0
C902 C 0.86282 0.67153 0.86321 0.0
C903 C 0.78682 0.60003 0.94054 0.0
H904 H 0.74983 0.69999 0.89886 0.0
H905 H 0.74008 0.62262 0.82683 0.0
H906 H 0.80184 0.67482 0.95166 0.0
H907 H 0.8281 0.70093 0.92525 0.0
H908 H 0.78917 0.70913 0.94017 0.0
H909 H 0.77307 0.58576 0.82641 0.0
H910 H 0.81564 0.60513 0.83683 0.0
H911 H 0.78962 0.58083 0.8649 0.0
H912 H 0.91008 0.65021 0.89207 0.0
H913 H 0.84626 0.59113 0.95831 0.0
H914 H 0.85258 0.69221 0.87098 0.0
H915 H 0.84908 0.65988 0.84131 0.0
H916 H 0.88973 0.68005 0.85663 0.0
H917 H 0.77504 0.61882 0.95124 0.0
H918 H 0.78793 0.5836 0.95941 0.0
H919 H 0.77028 0.58691 0.92097 0.0
C920 C 0.38809 0.80853 0.19414 0.0
C921 C 0.40947 0.7906 0.20442 0.0
C922 C 0.4008 0.83809 0.18147 0.0
C923 C 0.43589 0.84995 0.17807 0.0
C924 C 0.45768 0.83221 0.18889 0.0
C925 C 0.44424 0.80298 0.20228 0.0
C926 C 0.37653 0.85639 0.17118 0.0
C927 C 0.4952 0.84357 0.18523 0.0
C928 C 0.46464 0.90972 0.11389 0.0
C929 C 0.47336 0.93844 0.13265 0.0
C930 C 0.45321 0.88081 0.12835 0.0
C931 C 0.44955 0.88048 0.16246 0.0
C932 C 0.45796 0.90948 0.18148 0.0
C933 C 0.47009 0.93794 0.16643 0.0
C934 C 0.44518 0.85055 0.10707 0.0
C935 C 0.45368 0.9105 0.21777 0.0
H936 H 0.36119 0.79928 0.19579 0.0
H937 H 0.46097 0.78919 0.20978 0.0
H938 H 0.38284 0.88068 0.18285 0.0
H939 H 0.37855 0.85844 0.14468 0.0
H940 H 0.35013 0.84502 0.17743 0.0
H941 H 0.5088 0.82753 0.19546 0.0
H942 H 0.50207 0.84541 0.15925 0.0
H943 H 0.50384 0.86747 0.19739 0.0
H944 H 0.46735 0.90974 0.08783 0.0
H945 H 0.4766 0.95996 0.1812 0.0
H946 H 0.41825 0.83875 0.10964 0.0
H947 H 0.45977 0.83411 0.11475 0.0
H948 H 0.45086 0.85458 0.08117 0.0
H949 H 0.42709 0.90026 0.22428 0.0
H950 H 0.46117 0.93489 0.22915 0.0
H951 H 0.46891 0.89598 0.22813 0.0
C952 C 0.1075 0.22433 0.67434 0.0
C953 C 0.101 0.24922 0.65813 0.0
C954 C 0.09843 0.19305 0.66097 0.0
C955 C 0.08262 0.18645 0.63058 0.0
C956 C 0.07693 0.21156 0.61364 0.0
C957 C 0.08612 0.24259 0.62763 0.0
C958 C 0.10485 0.16694 0.67982 0.0
C959 C 0.06031 0.20555 0.58108 0.0
C960 C 0.07874 0.10759 0.58337 0.0
C961 C 0.0457 0.09104 0.58976 0.0
C962 C 0.09128 0.13852 0.59676 0.0
C963 C 0.07039 0.15319 0.61722 0.0
C964 C 0.03731 0.13635 0.62434 0.0
C965 C 0.02536 0.10559 0.61047 0.0
C966 C 0.12661 0.15576 0.58843 0.0
C967 C 0.01427 0.15103 0.6462 0.0
H968 H 0.119 0.22916 0.69789 0.0
H969 H 0.08111 0.26162 0.61483 0.0
H970 H 0.08063 0.151 0.68645 0.0
H971 H 0.11917 0.15255 0.66473 0.0
H972 H 0.11898 0.17611 0.70228 0.0
H973 H 0.05943 0.22776 0.5702 0.0
H974 H 0.0739 0.19194 0.56418 0.0
H975 H 0.0343 0.19114 0.5836 0.0
H976 H 0.09462 0.09669 0.56725 0.0
H977 H 0.99984 0.09303 0.61568 0.0
H978 H 0.14106 0.16414 0.61082 0.0
H979 H 0.1261 0.17689 0.57544 0.0
H980 H 0.14002 0.14071 0.57304 0.0
H981 H 0.0262 0.15913 0.66992 0.0
H982 H 0.98971 0.13437 0.65032 0.0
H983 H 0.00973 0.17205 0.63543 0.0
C984 C 0.76988 0.36815 0.44437 0.0
C985 C 0.77647 0.37076 0.41118 0.0
C986 C 0.7424 0.37772 0.45927 0.0
C987 C 0.72112 0.39018 0.4405 0.0
C988 C 0.72829 0.39377 0.40724 0.0
C989 C 0.75585 0.38404 0.39301 0.0
C990 C 0.7356 0.37372 0.49485 0.0
C991 C 0.70629 0.40709 0.38642 0.0
C992 C 0.63014 0.38453 0.46467 0.0
C993 C 0.63102 0.41561 0.47634 0.0
C994 C 0.65953 0.37565 0.45405 0.0
C995 C 0.69053 0.39841 0.4551 0.0
C996 C 0.69176 0.42955 0.46786 0.0
C997 C 0.66199 0.43777 0.47831 0.0
C998 C 0.65722 0.34216 0.44069 0.0
C999 C 0.7243 0.45452 0.46929 0.0
H1000 H 0.7857 0.35793 0.45859 0.0
H1001 H 0.76082 0.3863 0.36739 0.0
H1002 H 0.73337 0.39638 0.5075 0.0
H1003 H 0.71137 0.3564 0.49824 0.0
H1004 H 0.7556 0.36541 0.50643 0.0
H1005 H 0.71611 0.40954 0.36125 0.0
H1006 H 0.68066 0.39147 0.38568 0.0
H1007 H 0.70409 0.43059 0.39691 0.0
H1008 H 0.60635 0.3672 0.46352 0.0
H1009 H 0.66284 0.46191 0.48695 0.0
H1010 H 0.6752 0.33186 0.45303 0.0
H1011 H 0.66411 0.34198 0.41462 0.0
H1012 H 0.63163 0.32684 0.44349 0.0
H1013 H 0.74366 0.446 0.4816 0.0
H1014 H 0.72139 0.47692 0.48217 0.0
H1015 H 0.73371 0.45951 0.44442 0.0
loop_
_geom_bond_atom_site_label_1
_geom_bond_atom_site_label_2
_geom_bond_distance
_geom_bond_site_symmetry_2
_ccdc_geom_bond_type
O0 Cd1 2.300 . S
O0 C7 1.275 . S
Cd1 O0 2.300 . S
Cd1 O9 2.381 . S
Cd1 O10 2.378 . S
O2 Cd3 2.385 . S
O2 C7 1.255 . S
Cd3 O2 2.385 . S
Cd3 O4 2.317 . S
O4 Cd3 2.317 . S
O4 C5 1.232 . S
C5 O4 1.232 . S
C5 O6 1.218 . S
O6 C5 1.218 . S
C7 O0 1.275 . S
C7 O2 1.255 . S
C8 O9 1.258 . S
C8 O10 1.256 . S
O9 Cd1 2.381 . S
O9 C8 1.258 . S
O10 Cd1 2.378 . S
O10 C8 1.256 . S
O11 Cd12 2.300 . S
O11 C18 1.275 . S
Cd12 O11 2.300 . S
Cd12 O20 2.381 . S
Cd12 O21 2.378 . S
O13 Cd14 2.385 . S
O13 C18 1.255 . S
Cd14 O13 2.385 . S
Cd14 O15 2.317 . S
O15 Cd14 2.317 . S
O15 C16 1.232 . S
C16 O15 1.232 . S
C16 O17 1.218 . S
O17 C16 1.218 . S
C18 O11 1.275 . S
C18 O13 1.255 . S
C19 O20 1.258 . S
C19 O21 1.256 . S
O20 Cd12 2.381 . S
O20 C19 1.258 . S
O21 Cd12 2.378 . S
O21 C19 1.256 . S
O22 Cd23 2.300 . S
O22 C29 1.275 . S
Cd23 O22 2.300 . S
Cd23 O31 2.381 . S
Cd23 O32 2.378 . S
O24 Cd25 2.385 . S
O24 C29 1.255 . S
Cd25 O24 2.385 . S
Cd25 O26 2.317 . S
O26 Cd25 2.317 . S
O26 C27 1.232 . S
C27 O26 1.232 . S
C27 O28 1.218 . S
O28 C27 1.218 . S
C29 O22 1.275 . S
C29 O24 1.255 . S
C30 O31 1.258 . S
C30 O32 1.256 . S
O31 Cd23 2.381 . S
O31 C30 1.258 . S
O32 Cd23 2.378 . S
O32 C30 1.256 . S
O33 Cd34 2.300 . S
O33 C40 1.275 . S
Cd34 O33 2.300 . S
Cd34 O42 2.381 . S
Cd34 O43 2.378 . S
O35 Cd36 2.385 . S
O35 C40 1.255 . S
Cd36 O35 2.385 . S
Cd36 O37 2.317 . S
O37 Cd36 2.317 . S
O37 C38 1.232 . S
C38 O37 1.232 . S
C38 O39 1.218 . S
O39 C38 1.218 . S
C40 O33 1.275 . S
C40 O35 1.255 . S
C41 O42 1.258 . S
C41 O43 1.256 . S
O42 Cd34 2.381 . S
O42 C41 1.258 . S
O43 Cd34 2.378 . S
O43 C41 1.256 . S
O44 Cd45 2.300 . S
O44 C51 1.275 . S
Cd45 O44 2.300 . S
Cd45 O53 2.381 . S
Cd45 O54 2.378 . S
O46 Cd47 2.385 . S
O46 C51 1.255 . S
Cd47 O46 2.385 . S
Cd47 O48 2.317 . S
O48 Cd47 2.317 . S
O48 C49 1.232 . S
C49 O48 1.232 . S
C49 O50 1.218 . S
O50 C49 1.218 . S
C51 O44 1.275 . S
C51 O46 1.255 . S
C52 O53 1.258 . S
C52 O54 1.256 . S
O53 Cd45 2.381 . S
O53 C52 1.258 . S
O54 Cd45 2.378 . S
O54 C52 1.256 . S
O55 Cd56 2.300 . S
O55 C62 1.275 . S
Cd56 O55 2.300 . S
Cd56 O64 2.381 . S
Cd56 O65 2.378 . S
O57 Cd58 2.385 . S
O57 C62 1.255 . S
Cd58 O57 2.385 . S
Cd58 O59 2.317 . S
O59 Cd58 2.317 . S
O59 C60 1.232 . S
C60 O59 1.232 . S
C60 O61 1.218 . S
O61 C60 1.218 . S
C62 O55 1.275 . S
C62 O57 1.255 . S
C63 O64 1.258 . S
C63 O65 1.256 . S
O64 Cd56 2.381 . S
O64 C63 1.258 . S
O65 Cd56 2.378 . S
O65 C63 1.256 . S
O66 Cd67 2.300 . S
O66 C73 1.275 . S
Cd67 O66 2.300 . S
Cd67 O75 2.381 . S
Cd67 O76 2.378 . S
O68 Cd69 2.385 . S
O68 C73 1.255 . S
Cd69 O68 2.385 . S
Cd69 O70 2.317 . S
O70 Cd69 2.317 . S
O70 C71 1.232 . S
C71 O70 1.232 . S
C71 O72 1.218 . S
O72 C71 1.218 . S
C73 O66 1.275 . S
C73 O68 1.255 . S
C74 O75 1.258 . S
C74 O76 1.256 . S
O75 Cd67 2.381 . S
O75 C74 1.258 . S
O76 Cd67 2.378 . S
O76 C74 1.256 . S
O77 Cd78 2.300 . S
O77 C84 1.275 . S
Cd78 O77 2.300 . S
Cd78 O86 2.381 . S
Cd78 O87 2.378 . S
O79 Cd80 2.385 . S
O79 C84 1.255 . S
Cd80 O79 2.385 . S
Cd80 O81 2.317 . S
O81 Cd80 2.317 . S
O81 C82 1.232 . S
C82 O81 1.232 . S
C82 O83 1.218 . S
O83 C82 1.218 . S
C84 O77 1.275 . S
C84 O79 1.255 . S
C85 O86 1.258 . S
C85 O87 1.256 . S
O86 Cd78 2.381 . S
O86 C85 1.258 . S
O87 Cd78 2.378 . S
O87 C85 1.256 . S
Tb88 C97 2.764 . S
Tb88 O98 2.325 1_455 S
Tb88 O101 2.303 . S
Tb88 O105 2.322 1_545 S
Tb88 O106 2.349 1_545 S
Tb88 O109 2.415 . S
Tb88 O110 2.399 . S
Tb89 O99 2.322 . S
Tb89 O100 2.349 . S
Tb89 O102 2.415 1_545 S
Tb89 O103 2.399 1_545 S
Tb89 O104 2.325 1_645 S
Tb89 O107 2.303 1_545 S
Tb89 C118 2.764 1_545 S
C90 O106 1.261 1_655 S
C90 O107 1.257 . S
C91 C94 1.358 . S
C91 C95 1.332 . S
C91 C97 1.504 . S
C92 C93 1.373 . S
C92 C96 1.308 . S
C93 C92 1.373 . S
C93 C94 1.429 . S
C93 H120 0.932 . S
C94 C91 1.358 . S
C94 C93 1.429 . S
C94 H121 0.930 . S
C95 C91 1.332 . S
C95 C96 1.394 . S
C95 H122 0.932 . S
C96 C92 1.308 . S
C96 C95 1.394 . S
C96 H123 0.929 . S
C97 Tb88 2.764 . S
C97 C91 1.504 . S
C97 O109 1.239 . S
C97 O110 1.263 . S
O98 Tb88 2.325 1_655 S
O98 C108 1.236 . S
O99 Tb89 2.322 . S
O99 C108 1.257 . S
O100 Tb89 2.349 . S
O100 C111 1.261 1_655 S
O101 Tb88 2.303 . S
O101 C111 1.257 . S
O102 Tb89 2.415 1_565 S
O102 C118 1.239 . S
O103 Tb89 2.399 1_565 S
O103 C118 1.263 . S
O104 Tb89 2.325 1_465 S
O104 C119 1.236 . S
O105 Tb88 2.322 1_565 S
O105 C119 1.257 . S
O106 Tb88 2.349 1_565 S
O106 C90 1.261 1_455 S
O107 Tb89 2.303 1_565 S
O107 C90 1.257 . S
C108 O98 1.236 . S
C108 O99 1.257 . S
O109 Tb88 2.415 . S
O109 C97 1.239 . S
O110 Tb88 2.399 . S
O110 C97 1.263 . S
C111 O100 1.261 1_455 S
C111 O101 1.257 . S
C112 C115 1.358 . S
C112 C116 1.332 . S
C112 C118 1.504 . S
C113 C114 1.373 . S
C113 C117 1.308 . S
C114 C113 1.373 . S
C114 C115 1.429 . S
C114 H124 0.932 . S
C115 C112 1.358 . S
C115 C114 1.429 . S
C115 H125 0.930 . S
C116 C112 1.332 . S
C116 C117 1.394 . S
C116 H126 0.932 . S
C117 C113 1.308 . S
C117 C116 1.394 . S
C117 H127 0.929 . S
C118 Tb89 2.764 1_565 S
C118 O102 1.239 . S
C118 O103 1.263 . S
C118 C112 1.504 . S
C119 O104 1.236 . S
C119 O105 1.257 . S
H120 C93 0.932 . S
H121 C94 0.930 . S
H122 C95 0.932 . S
H123 C96 0.929 . S
H124 C114 0.932 . S
H125 C115 0.930 . S
H126 C116 0.932 . S
H127 C117 0.929 . S
Tb128 C137 2.764 . S
Tb128 O138 2.325 . S
Tb128 O141 2.303 . S
Tb128 O145 2.322 1_545 S
Tb128 O146 2.349 . S
Tb128 O149 2.415 . S
Tb128 O150 2.399 . S
Tb129 O139 2.322 . S
Tb129 O140 2.349 . S
Tb129 O142 2.415 1_544 S
Tb129 O143 2.399 1_545 S
Tb129 O144 2.325 1_545 S
Tb129 O147 2.303 . S
Tb129 C158 2.764 1_544 S
C130 O146 1.261 1_565 S
C130 O147 1.257 1_565 S
C131 C134 1.358 . S
C131 C135 1.332 . S
C131 C137 1.504 . S
C132 C133 1.373 . S
C132 C136 1.308 . S
C133 C132 1.373 . S
C133 C134 1.429 . S
C133 H160 0.932 . S
C134 C131 1.358 . S
C134 C133 1.429 . S
C134 H161 0.930 . S
C135 C131 1.332 . S
C135 C136 1.394 . S
C135 H162 0.932 . S
C136 C132 1.308 . S
C136 C135 1.394 . S
C136 H163 0.929 . S
C137 Tb128 2.764 . S
C137 C131 1.504 . S
C137 O149 1.239 . S
C137 O150 1.263 . S
O138 Tb128 2.325 . S
O138 C148 1.236 . S
O139 Tb129 2.322 . S
O139 C148 1.257 . S
O140 Tb129 2.349 . S
O140 C151 1.261 . S
O141 Tb128 2.303 . S
O141 C151 1.257 . S
O142 Tb129 2.415 1_566 S
O142 C158 1.239 . S
O143 Tb129 2.399 1_565 S
O143 C158 1.263 1_554 S
O144 Tb129 2.325 1_565 S
O144 C159 1.236 . S
O145 Tb128 2.322 1_565 S
O145 C159 1.257 . S
O146 Tb128 2.349 . S
O146 C130 1.261 1_545 S
O147 Tb129 2.303 . S
O147 C130 1.257 1_545 S
C148 O138 1.236 . S
C148 O139 1.257 . S
O149 Tb128 2.415 . S
O149 C137 1.239 . S
O150 Tb128 2.399 . S
O150 C137 1.263 . S
C151 O140 1.261 . S
C151 O141 1.257 . S
C152 C155 1.358 . S
C152 C156 1.332 . S
C152 C158 1.504 . S
C153 C154 1.373 . S
C153 C157 1.308 . S
C154 C153 1.373 . S
C154 C155 1.429 . S
C154 H164 0.932 . S
C155 C152 1.358 . S
C155 C154 1.429 . S
C155 H165 0.930 . S
C156 C152 1.332 . S
C156 C157 1.394 . S
C156 H166 0.932 . S
C157 C153 1.308 . S
C157 C156 1.394 . S
C157 H167 0.929 . S
C158 Tb129 2.764 1_566 S
C158 O142 1.239 . S
C158 O143 1.263 1_556 S
C158 C152 1.504 . S
C159 O144 1.236 . S
C159 O145 1.257 . S
H160 C133 0.932 . S
H161 C134 0.930 . S
H162 C135 0.932 . S
H163 C136 0.929 . S
H164 C154 0.932 . S
H165 C155 0.930 . S
H166 C156 0.932 . S
H167 C157 0.929 . S
Tb168 C177 2.764 . S
Tb168 O178 2.325 . S
Tb168 O181 2.303 . S
Tb168 O185 2.322 . S
Tb168 O186 2.349 . S
Tb168 O189 2.415 . S
Tb168 O190 2.399 . S
Tb169 O179 2.322 . S
Tb169 O180 2.349 . S
Tb169 O182 2.415 . S
Tb169 O183 2.399 . S
Tb169 O184 2.325 . S
Tb169 O187 2.303 . S
Tb169 C198 2.764 . S
C170 O186 1.261 . S
C170 O187 1.257 . S
C171 C174 1.358 . S
C171 C175 1.332 . S
C171 C177 1.504 . S
C172 C173 1.373 . S
C172 C176 1.308 . S
C173 C172 1.373 . S
C173 C174 1.429 . S
C173 H200 0.932 . S
C174 C171 1.358 . S
C174 C173 1.429 . S
C174 H201 0.930 . S
C175 C171 1.332 . S
C175 C176 1.394 . S
C175 H202 0.932 . S
C176 C172 1.308 . S
C176 C175 1.394 . S
C176 H203 0.929 . S
C177 Tb168 2.764 . S
C177 C171 1.504 . S
C177 O189 1.239 . S
C177 O190 1.263 . S
O178 Tb168 2.325 . S
O178 C188 1.236 . S
O179 Tb169 2.322 . S
O179 C188 1.257 . S
O180 Tb169 2.349 . S
O180 C191 1.261 . S
O181 Tb168 2.303 . S
O181 C191 1.257 . S
O182 Tb169 2.415 . S
O182 C198 1.239 . S
O183 Tb169 2.399 . S
O183 C198 1.263 . S
O184 Tb169 2.325 . S
O184 C199 1.236 . S
O185 Tb168 2.322 . S
O185 C199 1.257 . S
O186 Tb168 2.349 . S
O186 C170 1.261 . S
O187 Tb169 2.303 . S
O187 C170 1.257 . S
C188 O178 1.236 . S
C188 O179 1.257 . S
O189 Tb168 2.415 . S
O189 C177 1.239 . S
O190 Tb168 2.399 . S
O190 C177 1.263 . S
C191 O180 1.261 . S
C191 O181 1.257 . S
C192 C195 1.358 . S
C192 C196 1.332 . S
C192 C198 1.504 . S
C193 C194 1.373 . S
C193 C197 1.308 . S
C194 C193 1.373 . S
C194 C195 1.429 . S
C194 H204 0.932 . S
C195 C192 1.358 . S
C195 C194 1.429 . S
C195 H205 0.930 . S
C196 C192 1.332 . S
C196 C197 1.394 . S
C196 H206 0.932 . S
C197 C193 1.308 . S
C197 C196 1.394 . S
C197 H207 0.929 . S
C198 Tb169 2.764 . S
C198 O182 1.239 . S
C198 O183 1.263 . S
C198 C192 1.504 . S
C199 O184 1.236 . S
C199 O185 1.257 . S
H200 C173 0.932 . S
H201 C174 0.930 . S
H202 C175 0.932 . S
H203 C176 0.929 . S
H204 C194 0.932 . S
H205 C195 0.930 . S
H206 C196 0.932 . S
H207 C197 0.929 . S
Tb208 C217 2.764 1_455 S
Tb208 O218 2.325 1_455 S
Tb208 O221 2.303 1_556 S
Tb208 O225 2.322 1_556 S
Tb208 O226 2.349 . S
Tb208 O229 2.415 1_455 S
Tb208 O230 2.399 1_455 S
Tb209 O219 2.322 1_455 S
Tb209 O220 2.349 1_455 S
Tb209 O222 2.415 . S
Tb209 O223 2.399 . S
Tb209 O224 2.325 . S
Tb209 O227 2.303 1_554 S
Tb209 C238 2.764 . S
C210 O226 1.261 . S
C210 O227 1.257 . S
C211 C214 1.358 . S
C211 C215 1.332 . S
C211 C217 1.504 . S
C212 C213 1.373 . S
C212 C216 1.308 . S
C213 C212 1.373 . S
C213 C214 1.429 . S
C213 H240 0.932 . S
C214 C211 1.358 . S
C214 C213 1.429 . S
C214 H241 0.930 . S
C215 C211 1.332 . S
C215 C216 1.394 . S
C215 H242 0.932 . S
C216 C212 1.308 . S
C216 C215 1.394 . S
C216 H243 0.929 . S
C217 Tb208 2.764 1_655 S
C217 C211 1.504 . S
C217 O229 1.239 . S
C217 O230 1.263 . S
O218 Tb208 2.325 1_655 S
O218 C228 1.236 . S
O219 Tb209 2.322 1_655 S
O219 C228 1.257 1_554 S
O220 Tb209 2.349 1_655 S
O220 C231 1.261 . S
O221 Tb208 2.303 1_554 S
O221 C231 1.257 1_455 S
O222 Tb209 2.415 . S
O222 C238 1.239 . S
O223 Tb209 2.399 . S
O223 C238 1.263 . S
O224 Tb209 2.325 . S
O224 C239 1.236 . S
O225 Tb208 2.322 1_554 S
O225 C239 1.257 . S
O226 Tb208 2.349 . S
O226 C210 1.261 . S
O227 Tb209 2.303 1_556 S
O227 C210 1.257 . S
C228 O218 1.236 . S
C228 O219 1.257 1_556 S
O229 Tb208 2.415 1_655 S
O229 C217 1.239 . S
O230 Tb208 2.399 1_655 S
O230 C217 1.263 . S
C231 O220 1.261 . S
C231 O221 1.257 1_655 S
C232 C235 1.358 . S
C232 C236 1.332 . S
C232 C238 1.504 . S
C233 C234 1.373 . S
C233 C237 1.308 . S
C234 C233 1.373 . S
C234 C235 1.429 . S
C234 H244 0.932 . S
C235 C232 1.358 . S
C235 C234 1.429 . S
C235 H245 0.930 . S
C236 C232 1.332 . S
C236 C237 1.394 . S
C236 H246 0.932 . S
C237 C233 1.308 . S
C237 C236 1.394 . S
C237 H247 0.929 . S
C238 Tb209 2.764 . S
C238 O222 1.239 . S
C238 O223 1.263 . S
C238 C232 1.504 . S
C239 O224 1.236 . S
C239 O225 1.257 . S
H240 C213 0.932 . S
H241 C214 0.930 . S
H242 C215 0.932 . S
H243 C216 0.929 . S
H244 C234 0.932 . S
H245 C235 0.930 . S
H246 C236 0.932 . S
H247 C237 0.929 . S
C248 C249 1.391 . S
C248 C250 1.394 . S
C248 H264 0.931 . S
C249 C248 1.391 . S
C249 C253 1.376 . S
C250 C248 1.394 . S
C250 C251 1.369 . S
C250 C254 1.531 . S
C251 C250 1.369 . S
C251 C252 1.410 . S
C251 C259 1.503 . S
C252 C251 1.410 . S
C252 C253 1.392 . S
C252 C255 1.511 . S
C253 C249 1.376 . S
C253 C252 1.392 . S
C253 H265 0.929 . S
C254 C250 1.531 . S
C254 H266 0.960 . S
C254 H267 0.962 . S
C254 H268 0.960 . S
C255 C252 1.511 . S
C255 H269 0.961 . S
C255 H270 0.961 . S
C255 H271 0.961 . S
C256 C257 1.370 . S
C256 C258 1.363 . S
C256 H272 0.931 . S
C257 C256 1.370 . S
C257 C261 1.408 . S
C258 C256 1.363 . S
C258 C259 1.370 . S
C258 C262 1.524 . S
C259 C251 1.503 . S
C259 C258 1.370 . S
C259 C260 1.403 . S
C260 C259 1.403 . S
C260 C261 1.404 . S
C260 C263 1.539 . S
C261 C257 1.408 . S
C261 C260 1.404 . S
C261 H273 0.930 . S
C262 C258 1.524 . S
C262 H274 0.956 . S
C262 H275 0.961 . S
C262 H276 0.961 . S
C263 C260 1.539 . S
C263 H277 0.958 . S
C263 H278 0.961 . S
C263 H279 0.960 . S
H264 C248 0.931 . S
H265 C253 0.929 . S
H266 C254 0.960 . S
H267 C254 0.962 . S
H268 C254 0.960 . S
H269 C255 0.961 . S
H270 C255 0.961 . S
H271 C255 0.961 . S
H272 C256 0.931 . S
H273 C261 0.930 . S
H274 C262 0.956 . S
H275 C262 0.961 . S
H276 C262 0.961 . S
H277 C263 0.958 . S
H278 C263 0.961 . S
H279 C263 0.960 . S
C280 C281 1.391 . S
C280 C282 1.394 . S
C280 H296 0.931 . S
C281 C280 1.391 . S
C281 C285 1.376 . S
C282 C280 1.394 . S
C282 C283 1.369 . S
C282 C286 1.531 . S
C283 C282 1.369 . S
C283 C284 1.410 . S
C283 C291 1.503 . S
C284 C283 1.410 . S
C284 C285 1.392 . S
C284 C287 1.511 . S
C285 C281 1.376 . S
C285 C284 1.392 . S
C285 H297 0.929 . S
C286 C282 1.531 . S
C286 H298 0.960 . S
C286 H299 0.962 . S
C286 H300 0.960 . S
C287 C284 1.511 . S
C287 H301 0.961 . S
C287 H302 0.961 . S
C287 H303 0.961 . S
C288 C289 1.370 . S
C288 C290 1.363 . S
C288 H304 0.931 . S
C289 C288 1.370 . S
C289 C293 1.408 . S
C290 C288 1.363 . S
C290 C291 1.370 . S
C290 C294 1.524 . S
C291 C283 1.503 . S
C291 C290 1.370 . S
C291 C292 1.403 . S
C292 C291 1.403 . S
C292 C293 1.404 . S
C292 C295 1.539 . S
C293 C289 1.408 . S
C293 C292 1.404 . S
C293 H305 0.930 . S
C294 C290 1.524 . S
C294 H306 0.956 . S
C294 H307 0.961 . S
C294 H308 0.961 . S
C295 C292 1.539 . S
C295 H309 0.958 . S
C295 H310 0.961 . S
C295 H311 0.960 . S
H296 C280 0.931 . S
H297 C285 0.929 . S
H298 C286 0.960 . S
H299 C286 0.962 . S
H300 C286 0.960 . S
H301 C287 0.961 . S
H302 C287 0.961 . S
H303 C287 0.961 . S
H304 C288 0.931 . S
H305 C293 0.930 . S
H306 C294 0.956 . S
H307 C294 0.961 . S
H308 C294 0.961 . S
H309 C295 0.958 . S
H310 C295 0.961 . S
H311 C295 0.960 . S
C312 C313 1.391 . S
C312 C314 1.394 . S
C312 H328 0.931 . S
C313 C312 1.391 . S
C313 C317 1.376 . S
C314 C312 1.394 . S
C314 C315 1.369 . S
C314 C318 1.531 . S
C315 C314 1.369 . S
C315 C316 1.410 . S
C315 C323 1.503 . S
C316 C315 1.410 . S
C316 C317 1.392 . S
C316 C319 1.511 . S
C317 C313 1.376 . S
C317 C316 1.392 . S
C317 H329 0.929 . S
C318 C314 1.531 . S
C318 H330 0.960 . S
C318 H331 0.962 . S
C318 H332 0.960 . S
C319 C316 1.511 . S
C319 H333 0.961 . S
C319 H334 0.961 . S
C319 H335 0.961 . S
C320 C321 1.370 . S
C320 C322 1.363 . S
C320 H336 0.931 . S
C321 C320 1.370 . S
C321 C325 1.408 . S
C322 C320 1.363 . S
C322 C323 1.370 . S
C322 C326 1.524 . S
C323 C315 1.503 . S
C323 C322 1.370 . S
C323 C324 1.403 . S
C324 C323 1.403 . S
C324 C325 1.404 . S
C324 C327 1.539 . S
C325 C321 1.408 . S
C325 C324 1.404 . S
C325 H337 0.930 . S
C326 C322 1.524 . S
C326 H338 0.956 . S
C326 H339 0.961 . S
C326 H340 0.961 . S
C327 C324 1.539 . S
C327 H341 0.958 . S
C327 H342 0.961 . S
C327 H343 0.960 . S
H328 C312 0.931 . S
H329 C317 0.929 . S
H330 C318 0.960 . S
H331 C318 0.962 . S
H332 C318 0.960 . S
H333 C319 0.961 . S
H334 C319 0.961 . S
H335 C319 0.961 . S
H336 C320 0.931 . S
H337 C325 0.930 . S
H338 C326 0.956 . S
H339 C326 0.961 . S
H340 C326 0.961 . S
H341 C327 0.958 . S
H342 C327 0.961 . S
H343 C327 0.960 . S
C344 C345 1.391 . S
C344 C346 1.394 . S
C344 H360 0.931 . S
C345 C344 1.391 . S
C345 C349 1.376 . S
C346 C344 1.394 . S
C346 C347 1.369 . S
C346 C350 1.531 . S
C347 C346 1.369 . S
C347 C348 1.410 . S
C347 C355 1.503 . S
C348 C347 1.410 . S
C348 C349 1.392 . S
C348 C351 1.511 1_655 S
C349 C345 1.376 . S
C349 C348 1.392 . S
C349 H361 0.929 . S
C350 C346 1.531 . S
C350 H362 0.960 . S
C350 H363 0.962 . S
C350 H364 0.960 . S
C351 C348 1.511 1_455 S
C351 H365 0.961 . S
C351 H366 0.961 . S
C351 H367 0.961 . S
C352 C353 1.370 . S
C352 C354 1.363 . S
C352 H368 0.931 . S
C353 C352 1.370 . S
C353 C357 1.408 . S
C354 C352 1.363 . S
C354 C355 1.370 . S
C354 C358 1.524 . S
C355 C347 1.503 . S
C355 C354 1.370 . S
C355 C356 1.403 . S
C356 C355 1.403 . S
C356 C357 1.404 . S
C356 C359 1.539 . S
C357 C353 1.408 . S
C357 C356 1.404 . S
C357 H369 0.930 . S
C358 C354 1.524 . S
C358 H370 0.956 . S
C358 H371 0.961 . S
C358 H372 0.961 . S
C359 C356 1.539 . S
C359 H373 0.958 . S
C359 H374 0.961 . S
C359 H375 0.960 . S
H360 C344 0.931 . S
H361 C349 0.929 . S
H362 C350 0.960 . S
H363 C350 0.962 . S
H364 C350 0.960 . S
H365 C351 0.961 . S
H366 C351 0.961 . S
H367 C351 0.961 . S
H368 C352 0.931 . S
H369 C357 0.930 . S
H370 C358 0.956 . S
H371 C358 0.961 . S
H372 C358 0.961 . S
H373 C359 0.958 . S
H374 C359 0.961 . S
H375 C359 0.960 . S
C376 C377 1.391 . S
C376 C378 1.394 . S
C376 H392 0.931 . S
C377 C376 1.391 . S
C377 C381 1.376 . S
C378 C376 1.394 . S
C378 C379 1.369 . S
C378 C382 1.531 . S
C379 C378 1.369 . S
C379 C380 1.410 . S
C379 C387 1.503 . S
C380 C379 1.410 . S
C380 C381 1.392 . S
C380 C383 1.511 . S
C381 C377 1.376 . S
C381 C380 1.392 . S
C381 H393 0.929 . S
C382 C378 1.531 . S
C382 H394 0.960 . S
C382 H395 0.962 . S
C382 H396 0.960 . S
C383 C380 1.511 . S
C383 H397 0.961 . S
C383 H398 0.961 . S
C383 H399 0.961 . S
C384 C385 1.370 . S
C384 C386 1.363 . S
C384 H400 0.931 . S
C385 C384 1.370 . S
C385 C389 1.408 . S
C386 C384 1.363 . S
C386 C387 1.370 . S
C386 C390 1.524 . S
C387 C379 1.503 . S
C387 C386 1.370 . S
C387 C388 1.403 . S
C388 C387 1.403 . S
C388 C389 1.404 . S
C388 C391 1.539 . S
C389 C385 1.408 . S
C389 C388 1.404 . S
C389 H401 0.930 . S
C390 C386 1.524 . S
C390 H402 0.956 . S
C390 H403 0.961 . S
C390 H404 0.961 . S
C391 C388 1.539 . S
C391 H405 0.958 . S
C391 H406 0.961 . S
C391 H407 0.960 . S
H392 C376 0.931 . S
H393 C381 0.929 . S
H394 C382 0.960 . S
H395 C382 0.962 . S
H396 C382 0.960 . S
H397 C383 0.961 . S
H398 C383 0.961 . S
H399 C383 0.961 . S
H400 C384 0.931 . S
H401 C389 0.930 . S
H402 C390 0.956 . S
H403 C390 0.961 . S
H404 C390 0.961 . S
H405 C391 0.958 . S
H406 C391 0.961 . S
H407 C391 0.960 . S
C408 C409 1.391 . S
C408 C410 1.394 . S
C408 H424 0.931 . S
C409 C408 1.391 . S
C409 C413 1.376 . S
C410 C408 1.394 . S
C410 C411 1.369 . S
C410 C414 1.531 . S
C411 C410 1.369 . S
C411 C412 1.410 . S
C411 C419 1.503 . S
C412 C411 1.410 . S
C412 C413 1.392 . S
C412 C415 1.511 . S
C413 C409 1.376 . S
C413 C412 1.392 . S
C413 H425 0.929 . S
C414 C410 1.531 . S
C414 H426 0.960 . S
C414 H427 0.962 . S
C414 H428 0.960 . S
C415 C412 1.511 . S
C415 H429 0.961 1_455 S
C415 H430 0.961 . S
C415 H431 0.961 1_455 S
C416 C417 1.370 . S
C416 C418 1.363 . S
C416 H432 0.931 . S
C417 C416 1.370 . S
C417 C421 1.408 . S
C418 C416 1.363 . S
C418 C419 1.370 . S
C418 C422 1.524 . S
C419 C411 1.503 . S
C419 C418 1.370 . S
C419 C420 1.403 . S
C420 C419 1.403 . S
C420 C421 1.404 . S
C420 C423 1.539 . S
C421 C417 1.408 . S
C421 C420 1.404 . S
C421 H433 0.930 . S
C422 C418 1.524 . S
C422 H434 0.956 . S
C422 H435 0.961 . S
C422 H436 0.961 . S
C423 C420 1.539 . S
C423 H437 0.958 . S
C423 H438 0.961 . S
C423 H439 0.960 . S
H424 C408 0.931 . S
H425 C413 0.929 . S
H426 C414 0.960 . S
H427 C414 0.962 . S
H428 C414 0.960 . S
H429 C415 0.961 1_655 S
H430 C415 0.961 . S
H431 C415 0.961 1_655 S
H432 C416 0.931 . S
H433 C421 0.930 . S
H434 C422 0.956 . S
H435 C422 0.961 . S
H436 C422 0.961 . S
H437 C423 0.958 . S
H438 C423 0.961 . S
H439 C423 0.960 . S
C440 C441 1.391 . S
C440 C442 1.394 . S
C440 H456 0.931 . S
C441 C440 1.391 . S
C441 C445 1.376 . S
C442 C440 1.394 . S
C442 C443 1.369 . S
C442 C446 1.531 . S
C443 C442 1.369 . S
C443 C444 1.410 . S
C443 C451 1.503 . S
C444 C443 1.410 . S
C444 C445 1.392 . S
C444 C447 1.511 . S
C445 C441 1.376 . S
C445 C444 1.392 . S
C445 H457 0.929 . S
C446 C442 1.531 . S
C446 H458 0.960 . S
C446 H459 0.962 . S
C446 H460 0.960 . S
C447 C444 1.511 . S
C447 H461 0.961 . S
C447 H462 0.961 . S
C447 H463 0.961 . S
C448 C449 1.370 . S
C448 C450 1.363 . S
C448 H464 0.931 1_556 S
C449 C448 1.370 . S
C449 C453 1.408 . S
C450 C448 1.363 . S
C450 C451 1.370 . S
C450 C454 1.519 1_556 S
C451 C443 1.503 . S
C451 C450 1.370 . S
C451 C452 1.403 . S
C452 C451 1.403 . S
C452 C453 1.404 . S
C452 C455 1.539 . S
C453 C449 1.408 . S
C453 C452 1.404 . S
C453 H465 0.930 . S
C454 C450 1.519 1_554 S
C454 H466 0.958 . S
C454 H467 0.955 1_554 S
C454 H468 0.969 . S
C455 C452 1.539 . S
C455 H469 0.958 . S
C455 H470 0.961 . S
C455 H471 0.960 . S
H456 C440 0.931 . S
H457 C445 0.929 . S
H458 C446 0.960 . S
H459 C446 0.962 . S
H460 C446 0.960 . S
H461 C447 0.961 . S
H462 C447 0.961 . S
H463 C447 0.961 . S
H464 C448 0.931 1_554 S
H465 C453 0.930 . S
H466 C454 0.958 . S
H467 C454 0.955 1_556 S
H468 C454 0.969 . S
H469 C455 0.958 . S
H470 C455 0.961 . S
H471 C455 0.960 . S
C472 C473 1.391 . S
C472 C474 1.394 . S
C472 H488 0.931 . S
C473 C472 1.391 . S
C473 C477 1.376 . S
C474 C472 1.394 . S
C474 C475 1.369 . S
C474 C478 1.531 . S
C475 C474 1.369 . S
C475 C476 1.410 . S
C475 C483 1.503 . S
C476 C475 1.410 . S
C476 C477 1.392 . S
C476 C479 1.511 . S
C477 C473 1.376 . S
C477 C476 1.392 . S
C477 H489 0.929 . S
C478 C474 1.531 . S
C478 H490 0.960 . S
C478 H491 0.962 . S
C478 H492 0.960 . S
C479 C476 1.511 . S
C479 H493 0.961 . S
C479 H494 0.961 . S
C479 H495 0.961 . S
C480 C481 1.370 . S
C480 C482 1.363 . S
C480 H496 0.931 . S
C481 C480 1.370 . S
C481 C485 1.408 . S
C482 C480 1.363 . S
C482 C483 1.370 . S
C482 C486 1.524 . S
C483 C475 1.503 . S
C483 C482 1.370 . S
C483 C484 1.403 . S
C484 C483 1.403 . S
C484 C485 1.404 . S
C484 C487 1.539 . S
C485 C481 1.408 . S
C485 C484 1.404 . S
C485 H497 0.930 . S
C486 C482 1.524 . S
C486 H498 0.956 . S
C486 H499 0.961 . S
C486 H500 0.961 . S
C487 C484 1.539 . S
C487 H501 0.958 . S
C487 H502 0.961 . S
C487 H503 0.960 . S
H488 C472 0.931 . S
H489 C477 0.929 . S
H490 C478 0.960 . S
H491 C478 0.962 . S
H492 C478 0.960 . S
H493 C479 0.961 . S
H494 C479 0.961 . S
H495 C479 0.961 . S
H496 C480 0.931 . S
H497 C485 0.930 . S
H498 C486 0.956 . S
H499 C486 0.961 . S
H500 C486 0.961 . S
H501 C487 0.958 . S
H502 C487 0.961 . S
H503 C487 0.960 . S
C504 C505 1.391 . S
C504 C506 1.394 . S
C504 H520 0.931 . S
C505 C504 1.391 . S
C505 C509 1.376 . S
C506 C504 1.394 . S
C506 C507 1.369 . S
C506 C510 1.531 . S
C507 C506 1.369 . S
C507 C508 1.410 . S
C507 C515 1.503 . S
C508 C507 1.410 . S
C508 C509 1.392 . S
C508 C511 1.511 . S
C509 C505 1.376 . S
C509 C508 1.392 . S
C509 H521 0.929 . S
C510 C506 1.531 . S
C510 H522 0.960 . S
C510 H523 0.962 . S
C510 H524 0.960 . S
C511 C508 1.511 . S
C511 H525 0.961 . S
C511 H526 0.961 . S
C511 H527 0.961 . S
C512 C513 1.370 . S
C512 C514 1.363 . S
C512 H528 0.931 . S
C513 C512 1.370 . S
C513 C517 1.408 . S
C514 C512 1.363 . S
C514 C515 1.370 . S
C514 C518 1.524 . S
C515 C507 1.503 . S
C515 C514 1.370 . S
C515 C516 1.403 . S
C516 C515 1.403 . S
C516 C517 1.404 . S
C516 C519 1.539 . S
C517 C513 1.408 . S
C517 C516 1.404 . S
C517 H529 0.930 . S
C518 C514 1.524 . S
C518 H530 0.956 . S
C518 H531 0.961 . S
C518 H532 0.961 . S
C519 C516 1.539 . S
C519 H533 0.958 . S
C519 H534 0.961 . S
C519 H535 0.960 . S
H520 C504 0.931 . S
H521 C509 0.929 . S
H522 C510 0.960 . S
H523 C510 0.962 . S
H524 C510 0.960 . S
H525 C511 0.961 . S
H526 C511 0.961 . S
H527 C511 0.961 . S
H528 C512 0.931 . S
H529 C517 0.930 . S
H530 C518 0.956 . S
H531 C518 0.961 . S
H532 C518 0.961 . S
H533 C519 0.958 . S
H534 C519 0.961 . S
H535 C519 0.960 . S
C536 C537 1.391 . S
C536 C538 1.394 . S
C536 H552 0.931 . S
C537 C536 1.391 . S
C537 C541 1.376 . S
C538 C536 1.394 . S
C538 C539 1.369 . S
C538 C542 1.531 . S
C539 C538 1.369 . S
C539 C540 1.410 . S
C539 C547 1.503 . S
C540 C539 1.410 . S
C540 C541 1.392 . S
C540 C543 1.511 1_556 S
C541 C537 1.376 . S
C541 C540 1.392 . S
C541 H553 0.929 . S
C542 C538 1.531 . S
C542 H554 0.960 . S
C542 H555 0.962 . S
C542 H556 0.960 . S
C543 C540 1.511 1_554 S
C543 H557 0.961 1_554 S
C543 H558 0.961 . S
C543 H559 0.961 . S
C544 C545 1.370 1_556 S
C544 C546 1.363 . S
C544 H560 0.931 . S
C545 C544 1.370 1_554 S
C545 C549 1.408 . S
C546 C544 1.363 . S
C546 C547 1.370 . S
C546 C550 1.524 . S
C547 C539 1.503 . S
C547 C546 1.370 . S
C547 C548 1.403 1_556 S
C548 C547 1.403 1_554 S
C548 C549 1.404 . S
C548 C551 1.539 . S
C549 C545 1.408 . S
C549 C548 1.404 . S
C549 H561 0.930 . S
C550 C546 1.524 . S
C550 H562 0.956 . S
C550 H563 0.961 . S
C550 H564 0.961 . S
C551 C548 1.539 . S
C551 H565 0.958 . S
C551 H566 0.961 . S
C551 H567 0.960 . S
H552 C536 0.931 . S
H553 C541 0.929 . S
H554 C542 0.960 . S
H555 C542 0.962 . S
H556 C542 0.960 . S
H557 C543 0.961 1_556 S
H558 C543 0.961 . S
H559 C543 0.961 . S
H560 C544 0.931 . S
H561 C549 0.930 . S
H562 C550 0.956 . S
H563 C550 0.961 . S
H564 C550 0.961 . S
H565 C551 0.958 . S
H566 C551 0.961 . S
H567 C551 0.960 . S
C568 C569 1.391 . S
C568 C570 1.394 . S
C568 H584 0.931 . S
C569 C568 1.391 . S
C569 C573 1.376 . S
C570 C568 1.394 . S
C570 C571 1.369 . S
C570 C574 1.531 . S
C571 C570 1.369 . S
C571 C572 1.410 . S
C571 C579 1.503 . S
C572 C571 1.410 . S
C572 C573 1.392 . S
C572 C575 1.511 . S
C573 C569 1.376 . S
C573 C572 1.392 . S
C573 H585 0.929 . S
C574 C570 1.531 . S
C574 H586 0.960 . S
C574 H587 0.962 . S
C574 H588 0.960 . S
C575 C572 1.511 . S
C575 H589 0.961 1_655 S
C575 H590 0.961 . S
C575 H591 0.961 . S
C576 C577 1.370 . S
C576 C578 1.363 . S
C576 H592 0.931 . S
C577 C576 1.370 . S
C577 C581 1.408 . S
C578 C576 1.363 . S
C578 C579 1.370 . S
C578 C582 1.524 . S
C579 C571 1.503 . S
C579 C578 1.370 . S
C579 C580 1.403 . S
C580 C579 1.403 . S
C580 C581 1.404 . S
C580 C583 1.539 . S
C581 C577 1.408 . S
C581 C580 1.404 . S
C581 H593 0.930 . S
C582 C578 1.524 . S
C582 H594 0.956 . S
C582 H595 0.961 . S
C582 H596 0.961 . S
C583 C580 1.539 . S
C583 H597 0.958 . S
C583 H598 0.961 . S
C583 H599 0.960 . S
H584 C568 0.931 . S
H585 C573 0.929 . S
H586 C574 0.960 . S
H587 C574 0.962 . S
H588 C574 0.960 . S
H589 C575 0.961 1_455 S
H590 C575 0.961 . S
H591 C575 0.961 . S
H592 C576 0.931 . S
H593 C581 0.930 . S
H594 C582 0.956 . S
H595 C582 0.961 . S
H596 C582 0.961 . S
H597 C583 0.958 . S
H598 C583 0.961 . S
H599 C583 0.960 . S
C600 C601 1.391 . S
C600 C602 1.394 . S
C600 H616 0.931 . S
C601 C600 1.391 . S
C601 C605 1.376 . S
C602 C600 1.394 . S
C602 C603 1.369 . S
C602 C606 1.531 . S
C603 C602 1.369 . S
C603 C604 1.410 . S
C603 C611 1.503 . S
C604 C603 1.410 . S
C604 C605 1.392 . S
C604 C607 1.511 . S
C605 C601 1.376 . S
C605 C604 1.392 . S
C605 H617 0.929 . S
C606 C602 1.531 . S
C606 H618 0.960 . S
C606 H619 0.962 . S
C606 H620 0.960 . S
C607 C604 1.511 . S
C607 H621 0.961 . S
C607 H622 0.961 . S
C607 H623 0.961 . S
C608 C609 1.370 . S
C608 C610 1.363 . S
C608 H624 0.931 . S
C609 C608 1.370 . S
C609 C613 1.408 . S
C610 C608 1.363 . S
C610 C611 1.370 . S
C610 C614 1.524 . S
C611 C603 1.503 . S
C611 C610 1.370 . S
C611 C612 1.403 . S
C612 C611 1.403 . S
C612 C613 1.404 . S
C612 C615 1.539 . S
C613 C609 1.408 . S
C613 C612 1.404 . S
C613 H625 0.930 . S
C614 C610 1.524 . S
C614 H626 0.956 . S
C614 H627 0.961 . S
C614 H628 0.961 . S
C615 C612 1.539 . S
C615 H629 0.958 . S
C615 H630 0.961 . S
C615 H631 0.960 . S
H616 C600 0.931 . S
H617 C605 0.929 . S
H618 C606 0.960 . S
H619 C606 0.962 . S
H620 C606 0.960 . S
H621 C607 0.961 . S
H622 C607 0.961 . S
H623 C607 0.961 . S
H624 C608 0.931 . S
H625 C613 0.930 . S
H626 C614 0.956 . S
H627 C614 0.961 . S
H628 C614 0.961 . S
H629 C615 0.958 . S
H630 C615 0.961 . S
H631 C615 0.960 . S
C632 C633 1.391 . S
C632 C634 1.394 . S
C632 H648 0.931 . S
C633 C632 1.391 . S
C633 C637 1.376 . S
C634 C632 1.394 . S
C634 C635 1.369 . S
C634 C638 1.531 . S
C635 C634 1.369 . S
C635 C636 1.410 . S
C635 C643 1.503 . S
C636 C635 1.410 . S
C636 C637 1.392 . S
C636 C639 1.511 . S
C637 C633 1.376 . S
C637 C636 1.392 . S
C637 H649 0.929 . S
C638 C634 1.531 . S
C638 H650 0.960 . S
C638 H651 0.962 . S
C638 H652 0.960 . S
C639 C636 1.511 . S
C639 H653 0.961 . S
C639 H654 0.961 . S
C639 H655 0.961 . S
C640 C641 1.370 . S
C640 C642 1.363 . S
C640 H656 0.931 . S
C641 C640 1.370 . S
C641 C645 1.408 . S
C642 C640 1.363 . S
C642 C643 1.370 . S
C642 C646 1.524 . S
C643 C635 1.503 . S
C643 C642 1.370 . S
C643 C644 1.403 . S
C644 C643 1.403 . S
C644 C645 1.404 . S
C644 C647 1.539 . S
C645 C641 1.408 . S
C645 C644 1.404 . S
C645 H657 0.930 . S
C646 C642 1.524 . S
C646 H658 0.956 . S
C646 H659 0.961 . S
C646 H660 0.961 . S
C647 C644 1.539 . S
C647 H661 0.958 . S
C647 H662 0.961 . S
C647 H663 0.960 . S
H648 C632 0.931 . S
H649 C637 0.929 . S
H650 C638 0.960 . S
H651 C638 0.962 . S
H652 C638 0.960 . S
H653 C639 0.961 . S
H654 C639 0.961 . S
H655 C639 0.961 . S
H656 C640 0.931 . S
H657 C645 0.930 . S
H658 C646 0.956 . S
H659 C646 0.961 . S
H660 C646 0.961 . S
H661 C647 0.958 . S
H662 C647 0.961 . S
H663 C647 0.960 . S
C664 C665 1.391 . S
C664 C666 1.394 . S
C664 H680 0.931 . S
C665 C664 1.391 . S
C665 C669 1.376 . S
C666 C664 1.394 . S
C666 C667 1.369 . S
C666 C670 1.531 . S
C667 C666 1.369 . S
C667 C668 1.410 . S
C667 C675 1.503 . S
C668 C667 1.410 . S
C668 C669 1.392 . S
C668 C671 1.511 . S
C669 C665 1.376 . S
C669 C668 1.392 . S
C669 H681 0.929 . S
C670 C666 1.531 . S
C670 H682 0.960 . S
C670 H683 0.962 . S
C670 H684 0.960 . S
C671 C668 1.511 . S
C671 H685 0.961 . S
C671 H686 0.961 . S
C671 H687 0.961 . S
C672 C673 1.370 . S
C672 C674 1.363 . S
C672 H688 0.931 . S
C673 C672 1.370 . S
C673 C677 1.408 . S
C674 C672 1.363 . S
C674 C675 1.370 . S
C674 C678 1.524 . S
C675 C667 1.503 . S
C675 C674 1.370 . S
C675 C676 1.403 . S
C676 C675 1.403 . S
C676 C677 1.404 . S
C676 C679 1.539 . S
C677 C673 1.408 . S
C677 C676 1.404 . S
C677 H689 0.930 . S
C678 C674 1.524 . S
C678 H690 0.956 . S
C678 H691 0.961 . S
C678 H692 0.961 . S
C679 C676 1.539 . S
C679 H693 0.958 . S
C679 H694 0.961 . S
C679 H695 0.960 . S
H680 C664 0.931 . S
H681 C669 0.929 . S
H682 C670 0.960 . S
H683 C670 0.962 . S
H684 C670 0.960 . S
H685 C671 0.961 . S
H686 C671 0.961 . S
H687 C671 0.961 . S
H688 C672 0.931 . S
H689 C677 0.930 . S
H690 C678 0.956 . S
H691 C678 0.961 . S
H692 C678 0.961 . S
H693 C679 0.958 . S
H694 C679 0.961 . S
H695 C679 0.960 . S
C696 C697 1.391 . S
C696 C698 1.394 . S
C696 H712 0.931 . S
C697 C696 1.391 . S
C697 C701 1.376 . S
C698 C696 1.394 . S
C698 C699 1.369 . S
C698 C702 1.531 . S
C699 C698 1.369 . S
C699 C700 1.410 . S
C699 C707 1.503 . S
C700 C699 1.410 . S
C700 C701 1.392 . S
C700 C703 1.511 . S
C701 C697 1.376 . S
C701 C700 1.392 . S
C701 H713 0.929 . S
C702 C698 1.531 . S
C702 H714 0.960 . S
C702 H715 0.962 . S
C702 H716 0.960 . S
C703 C700 1.511 . S
C703 H717 0.961 . S
C703 H718 0.961 . S
C703 H719 0.961 . S
C704 C705 1.370 . S
C704 C706 1.363 . S
C704 H720 0.931 . S
C705 C704 1.370 . S
C705 C709 1.408 . S
C706 C704 1.363 . S
C706 C707 1.370 . S
C706 C710 1.524 . S
C707 C699 1.503 . S
C707 C706 1.370 . S
C707 C708 1.403 . S
C708 C707 1.403 . S
C708 C709 1.404 . S
C708 C711 1.539 . S
C709 C705 1.408 . S
C709 C708 1.404 . S
C709 H721 0.930 . S
C710 C706 1.524 . S
C710 H722 0.956 . S
C710 H723 0.961 . S
C710 H724 0.961 . S
C711 C708 1.539 . S
C711 H725 0.958 . S
C711 H726 0.961 . S
C711 H727 0.960 . S
H712 C696 0.931 . S
H713 C701 0.929 . S
H714 C702 0.960 . S
H715 C702 0.962 . S
H716 C702 0.960 . S
H717 C703 0.961 . S
H718 C703 0.961 . S
H719 C703 0.961 . S
H720 C704 0.931 . S
H721 C709 0.930 . S
H722 C710 0.956 . S
H723 C710 0.961 . S
H724 C710 0.961 . S
H725 C711 0.958 . S
H726 C711 0.961 . S
H727 C711 0.960 . S
C728 C729 1.391 . S
C728 C730 1.394 . S
C728 H744 0.931 . S
C729 C728 1.391 . S
C729 C733 1.376 . S
C730 C728 1.394 . S
C730 C731 1.369 . S
C730 C734 1.531 . S
C731 C730 1.369 . S
C731 C732 1.410 . S
C731 C739 1.503 . S
C732 C731 1.410 . S
C732 C733 1.392 . S
C732 C735 1.511 . S
C733 C729 1.376 . S
C733 C732 1.392 . S
C733 H745 0.929 . S
C734 C730 1.531 . S
C734 H746 0.960 . S
C734 H747 0.962 . S
C734 H748 0.960 . S
C735 C732 1.511 . S
C735 H749 0.961 . S
C735 H750 0.961 . S
C735 H751 0.961 . S
C736 C737 1.370 . S
C736 C738 1.363 . S
C736 H752 0.931 . S
C737 C736 1.370 . S
C737 C741 1.408 . S
C738 C736 1.363 . S
C738 C739 1.370 . S
C738 C742 1.524 . S
C739 C731 1.503 . S
C739 C738 1.370 . S
C739 C740 1.403 . S
C740 C739 1.403 . S
C740 C741 1.404 . S
C740 C743 1.539 . S
C741 C737 1.408 . S
C741 C740 1.404 . S
C741 H753 0.930 . S
C742 C738 1.524 . S
C742 H754 0.956 . S
C742 H755 0.961 . S
C742 H756 0.961 . S
C743 C740 1.539 . S
C743 H757 0.958 . S
C743 H758 0.961 . S
C743 H759 0.960 . S
H744 C728 0.931 . S
H745 C733 0.929 . S
H746 C734 0.960 . S
H747 C734 0.962 . S
H748 C734 0.960 . S
H749 C735 0.961 . S
H750 C735 0.961 . S
H751 C735 0.961 . S
H752 C736 0.931 . S
H753 C741 0.930 . S
H754 C742 0.956 . S
H755 C742 0.961 . S
H756 C742 0.961 . S
H757 C743 0.958 . S
H758 C743 0.961 . S
H759 C743 0.960 . S
C760 C761 1.391 . S
C760 C762 1.394 . S
C760 H776 0.931 . S
C761 C760 1.391 . S
C761 C765 1.376 . S
C762 C760 1.394 . S
C762 C763 1.369 . S
C762 C766 1.531 . S
C763 C762 1.369 . S
C763 C764 1.410 . S
C763 C771 1.503 . S
C764 C763 1.410 . S
C764 C765 1.392 . S
C764 C767 1.511 . S
C765 C761 1.376 . S
C765 C764 1.392 . S
C765 H777 0.929 . S
C766 C762 1.531 . S
C766 H778 0.960 . S
C766 H779 0.962 . S
C766 H780 0.960 . S
C767 C764 1.511 . S
C767 H781 0.961 1_556 S
C767 H782 0.961 1_556 S
C767 H783 0.961 . S
C768 C769 1.370 . S
C768 C770 1.363 1_554 S
C768 H784 0.931 . S
C769 C768 1.370 . S
C769 C773 1.408 1_554 S
C770 C768 1.363 1_556 S
C770 C771 1.370 . S
C770 C774 1.529 . S
C771 C763 1.503 . S
C771 C770 1.370 . S
C771 C772 1.403 . S
C772 C771 1.403 . S
C772 C773 1.404 . S
C772 C775 1.539 . S
C773 C769 1.408 1_556 S
C773 C772 1.404 . S
C773 H785 0.930 . S
C774 C770 1.529 . S
C774 H786 0.974 . S
C774 H787 0.954 1_556 S
C774 H788 0.944 1_556 S
C775 C772 1.539 . S
C775 H789 0.958 . S
C775 H790 0.961 . S
C775 H791 0.960 . S
H776 C760 0.931 . S
H777 C765 0.929 . S
H778 C766 0.960 . S
H779 C766 0.962 . S
H780 C766 0.960 . S
H781 C767 0.961 1_554 S
H782 C767 0.961 1_554 S
H783 C767 0.961 . S
H784 C768 0.931 . S
H785 C773 0.930 . S
H786 C774 0.974 . S
H787 C774 0.954 1_554 S
H788 C774 0.944 1_554 S
H789 C775 0.958 . S
H790 C775 0.961 . S
H791 C775 0.960 . S
C792 C793 1.391 . S
C792 C794 1.394 . S
C792 H808 0.931 . S
C793 C792 1.391 . S
C793 C797 1.376 . S
C794 C792 1.394 . S
C794 C795 1.369 . S
C794 C798 1.531 . S
C795 C794 1.369 . S
C795 C796 1.410 . S
C795 C803 1.503 . S
C796 C795 1.410 . S
C796 C797 1.392 . S
C796 C799 1.511 1_655 S
C797 C793 1.376 . S
C797 C796 1.392 . S
C797 H809 0.929 . S
C798 C794 1.531 . S
C798 H810 0.960 . S
C798 H811 0.962 . S
C798 H812 0.960 . S
C799 C796 1.511 1_455 S
C799 H813 0.961 . S
C799 H814 0.961 . S
C799 H815 0.961 . S
C800 C801 1.370 . S
C800 C802 1.363 . S
C800 H816 0.931 . S
C801 C800 1.370 . S
C801 C805 1.408 . S
C802 C800 1.363 . S
C802 C803 1.370 . S
C802 C806 1.524 . S
C803 C795 1.503 . S
C803 C802 1.370 . S
C803 C804 1.403 . S
C804 C803 1.403 . S
C804 C805 1.404 . S
C804 C807 1.539 . S
C805 C801 1.408 . S
C805 C804 1.404 . S
C805 H817 0.930 . S
C806 C802 1.524 . S
C806 H818 0.956 . S
C806 H819 0.961 . S
C806 H820 0.961 . S
C807 C804 1.539 . S
C807 H821 0.958 . S
C807 H822 0.961 . S
C807 H823 0.960 . S
H808 C792 0.931 . S
H809 C797 0.929 . S
H810 C798 0.960 . S
H811 C798 0.962 . S
H812 C798 0.960 . S
H813 C799 0.961 . S
H814 C799 0.961 . S
H815 C799 0.961 . S
H816 C800 0.931 . S
H817 C805 0.930 . S
H818 C806 0.956 . S
H819 C806 0.961 . S
H820 C806 0.961 . S
H821 C807 0.958 . S
H822 C807 0.961 . S
H823 C807 0.960 . S
C824 C825 1.391 . S
C824 C826 1.394 . S
C824 H840 0.931 . S
C825 C824 1.391 . S
C825 C829 1.376 . S
C826 C824 1.394 . S
C826 C827 1.369 . S
C826 C830 1.531 . S
C827 C826 1.369 . S
C827 C828 1.410 . S
C827 C835 1.503 . S
C828 C827 1.410 . S
C828 C829 1.392 . S
C828 C831 1.511 . S
C829 C825 1.376 . S
C829 C828 1.392 . S
C829 H841 0.929 . S
C830 C826 1.531 . S
C830 H842 0.960 . S
C830 H843 0.962 . S
C830 H844 0.960 . S
C831 C828 1.511 . S
C831 H845 0.961 . S
C831 H846 0.961 . S
C831 H847 0.961 . S
C832 C833 1.370 . S
C832 C834 1.363 . S
C832 H848 0.931 . S
C833 C832 1.370 . S
C833 C837 1.408 . S
C834 C832 1.363 . S
C834 C835 1.370 . S
C834 C838 1.524 . S
C835 C827 1.503 . S
C835 C834 1.370 . S
C835 C836 1.403 . S
C836 C835 1.403 . S
C836 C837 1.404 . S
C836 C839 1.539 . S
C837 C833 1.408 . S
C837 C836 1.404 . S
C837 H849 0.928 . S
C838 C834 1.524 . S
C838 H850 0.956 . S
C838 H851 0.961 . S
C838 H852 0.961 . S
C839 C836 1.539 . S
C839 H853 0.958 . S
C839 H854 0.961 1_554 S
C839 H855 0.960 . S
H840 C824 0.931 . S
H841 C829 0.929 . S
H842 C830 0.960 . S
H843 C830 0.962 . S
H844 C830 0.960 . S
H845 C831 0.961 . S
H846 C831 0.961 . S
H847 C831 0.961 . S
H848 C832 0.931 . S
H849 C837 0.928 . S
H850 C838 0.956 . S
H851 C838 0.961 . S
H852 C838 0.961 . S
H853 C839 0.958 . S
H854 C839 0.961 1_556 S
H855 C839 0.960 . S
C856 C857 1.391 . S
C856 C858 1.394 . S
C856 H872 0.931 . S
C857 C856 1.391 . S
C857 C861 1.376 . S
C858 C856 1.394 . S
C858 C859 1.369 . S
C858 C862 1.531 . S
C859 C858 1.369 . S
C859 C860 1.410 . S
C859 C867 1.503 . S
C860 C859 1.410 . S
C860 C861 1.392 . S
C860 C863 1.511 . S
C861 C857 1.376 . S
C861 C860 1.392 . S
C861 H873 0.929 . S
C862 C858 1.531 . S
C862 H874 0.960 . S
C862 H875 0.962 . S
C862 H876 0.960 . S
C863 C860 1.511 . S
C863 H877 0.961 . S
C863 H878 0.961 . S
C863 H879 0.961 . S
C864 C865 1.370 . S
C864 C866 1.363 . S
C864 H880 0.931 . S
C865 C864 1.370 . S
C865 C869 1.408 . S
C866 C864 1.363 . S
C866 C867 1.370 . S
C866 C870 1.524 . S
C867 C859 1.503 . S
C867 C866 1.370 . S
C867 C868 1.403 . S
C868 C867 1.403 . S
C868 C869 1.404 . S
C868 C871 1.539 . S
C869 C865 1.408 . S
C869 C868 1.404 . S
C869 H881 0.930 . S
C870 C866 1.524 . S
C870 H882 0.956 . S
C870 H883 0.961 . S
C870 H884 0.961 . S
C871 C868 1.539 . S
C871 H885 0.958 . S
C871 H886 0.961 . S
C871 H887 0.960 . S
H872 C856 0.931 . S
H873 C861 0.929 . S
H874 C862 0.960 . S
H875 C862 0.962 . S
H876 C862 0.960 . S
H877 C863 0.961 . S
H878 C863 0.961 . S
H879 C863 0.961 . S
H880 C864 0.931 . S
H881 C869 0.930 . S
H882 C870 0.956 . S
H883 C870 0.961 . S
H884 C870 0.961 . S
H885 C871 0.958 . S
H886 C871 0.961 . S
H887 C871 0.960 . S
C888 C889 1.391 . S
C888 C890 1.394 . S
C888 H904 0.931 . S
C889 C888 1.391 . S
C889 C893 1.376 . S
C890 C888 1.394 . S
C890 C891 1.369 . S
C890 C894 1.531 . S
C891 C890 1.369 . S
C891 C892 1.410 . S
C891 C899 1.503 . S
C892 C891 1.410 . S
C892 C893 1.392 . S
C892 C895 1.511 . S
C893 C889 1.376 . S
C893 C892 1.392 . S
C893 H905 0.929 . S
C894 C890 1.531 . S
C894 H906 0.960 . S
C894 H907 0.962 . S
C894 H908 0.960 . S
C895 C892 1.511 . S
C895 H909 0.961 . S
C895 H910 0.961 . S
C895 H911 0.961 . S
C896 C897 1.370 . S
C896 C898 1.363 . S
C896 H912 0.931 . S
C897 C896 1.370 . S
C897 C901 1.408 . S
C898 C896 1.363 . S
C898 C899 1.370 . S
C898 C902 1.524 . S
C899 C891 1.503 . S
C899 C898 1.370 . S
C899 C900 1.403 . S
C900 C899 1.403 . S
C900 C901 1.404 . S
C900 C903 1.539 . S
C901 C897 1.408 . S
C901 C900 1.404 . S
C901 H913 0.930 . S
C902 C898 1.524 . S
C902 H914 0.956 . S
C902 H915 0.961 . S
C902 H916 0.961 . S
C903 C900 1.539 . S
C903 H917 0.958 . S
C903 H918 0.961 1_556 S
C903 H919 0.960 . S
H904 C888 0.931 . S
H905 C893 0.929 . S
H906 C894 0.960 . S
H907 C894 0.962 . S
H908 C894 0.960 . S
H909 C895 0.961 . S
H910 C895 0.961 . S
H911 C895 0.961 . S
H912 C896 0.931 . S
H913 C901 0.930 . S
H914 C902 0.956 . S
H915 C902 0.961 . S
H916 C902 0.961 . S
H917 C903 0.958 . S
H918 C903 0.961 1_554 S
H919 C903 0.960 . S
C920 C921 1.391 . S
C920 C922 1.394 . S
C920 H936 0.931 . S
C921 C920 1.391 . S
C921 C925 1.376 . S
C922 C920 1.394 . S
C922 C923 1.369 . S
C922 C926 1.531 . S
C923 C922 1.369 . S
C923 C924 1.410 . S
C923 C931 1.503 . S
C924 C923 1.410 . S
C924 C925 1.392 . S
C924 C927 1.511 . S
C925 C921 1.376 . S
C925 C924 1.392 . S
C925 H937 0.929 . S
C926 C922 1.531 . S
C926 H938 0.960 . S
C926 H939 0.962 . S
C926 H940 0.960 . S
C927 C924 1.511 . S
C927 H941 0.961 . S
C927 H942 0.961 . S
C927 H943 0.961 . S
C928 C929 1.370 . S
C928 C930 1.363 . S
C928 H944 0.931 . S
C929 C928 1.370 . S
C929 C933 1.408 . S
C930 C928 1.363 . S
C930 C931 1.370 . S
C930 C934 1.524 . S
C931 C923 1.503 . S
C931 C930 1.370 . S
C931 C932 1.403 . S
C932 C931 1.403 . S
C932 C933 1.404 . S
C932 C935 1.539 . S
C933 C929 1.408 . S
C933 C932 1.404 . S
C933 H945 0.930 . S
C934 C930 1.524 . S
C934 H946 0.956 . S
C934 H947 0.961 . S
C934 H948 0.961 . S
C935 C932 1.539 . S
C935 H949 0.958 . S
C935 H950 0.961 . S
C935 H951 0.960 . S
H936 C920 0.931 . S
H937 C925 0.929 . S
H938 C926 0.960 . S
H939 C926 0.962 . S
H940 C926 0.960 . S
H941 C927 0.961 . S
H942 C927 0.961 . S
H943 C927 0.961 . S
H944 C928 0.931 . S
H945 C933 0.930 . S
H946 C934 0.956 . S
H947 C934 0.961 . S
H948 C934 0.961 . S
H949 C935 0.958 . S
H950 C935 0.961 . S
H951 C935 0.960 . S
C952 C953 1.391 . S
C952 C954 1.394 . S
C952 H968 0.931 . S
C953 C952 1.391 . S
C953 C957 1.376 . S
C954 C952 1.394 . S
C954 C955 1.369 . S
C954 C958 1.531 . S
C955 C954 1.369 . S
C955 C956 1.410 . S
C955 C963 1.503 . S
C956 C955 1.410 . S
C956 C957 1.392 . S
C956 C959 1.511 . S
C957 C953 1.376 . S
C957 C956 1.392 . S
C957 H969 0.929 . S
C958 C954 1.531 . S
C958 H970 0.960 . S
C958 H971 0.962 . S
C958 H972 0.960 . S
C959 C956 1.511 . S
C959 H973 0.961 . S
C959 H974 0.961 . S
C959 H975 0.933 1_455 S
C960 C961 1.370 . S
C960 C962 1.363 . S
C960 H976 0.931 . S
C961 C960 1.370 . S
C961 C965 1.408 . S
C962 C960 1.363 . S
C962 C963 1.370 . S
C962 C966 1.524 . S
C963 C955 1.503 . S
C963 C962 1.370 . S
C963 C964 1.403 . S
C964 C963 1.403 . S
C964 C965 1.404 . S
C964 C967 1.539 . S
C965 C961 1.408 . S
C965 C964 1.404 . S
C965 H977 0.930 . S
C966 C962 1.524 . S
C966 H978 0.956 . S
C966 H979 0.961 . S
C966 H980 0.961 . S
C967 C964 1.539 . S
C967 H981 0.958 . S
C967 H982 0.961 1_455 S
C967 H983 0.960 . S
H968 C952 0.931 . S
H969 C957 0.929 . S
H970 C958 0.960 . S
H971 C958 0.962 . S
H972 C958 0.960 . S
H973 C959 0.961 . S
H974 C959 0.961 . S
H975 C959 0.933 1_655 S
H976 C960 0.931 . S
H977 C965 0.930 . S
H978 C966 0.956 . S
H979 C966 0.961 . S
H980 C966 0.961 . S
H981 C967 0.958 . S
H982 C967 0.961 1_655 S
H983 C967 0.960 . S
C984 C985 1.391 . S
C984 C986 1.394 . S
C984 H1000 0.931 . S
C985 C984 1.391 . S
C985 C989 1.376 . S
C986 C984 1.394 . S
C986 C987 1.369 . S
C986 C990 1.531 . S
C987 C986 1.369 . S
C987 C988 1.410 . S
C987 C995 1.503 . S
C988 C987 1.410 . S
C988 C989 1.392 . S
C988 C991 1.511 . S
C989 C985 1.376 . S
C989 C988 1.392 . S
C989 H1001 0.929 . S
C990 C986 1.531 . S
C990 H1002 0.960 . S
C990 H1003 0.962 . S
C990 H1004 0.960 . S
C991 C988 1.511 . S
C991 H1005 0.961 . S
C991 H1006 0.961 . S
C991 H1007 0.961 . S
C992 C993 1.370 . S
C992 C994 1.363 . S
C992 H1008 0.931 . S
C993 C992 1.370 . S
C993 C997 1.408 . S
C994 C992 1.363 . S
C994 C995 1.370 . S
C994 C998 1.524 . S
C995 C987 1.503 . S
C995 C994 1.370 . S
C995 C996 1.403 . S
C996 C995 1.403 . S
C996 C997 1.404 . S
C996 C999 1.539 . S
C997 C993 1.408 . S
C997 C996 1.404 . S
C997 H1009 0.930 . S
C998 C994 1.524 . S
C998 H1010 0.956 . S
C998 H1011 0.961 . S
C998 H1012 0.961 . S
C999 C996 1.539 . S
C999 H1013 0.958 . S
C999 H1014 0.961 . S
C999 H1015 0.960 . S
H1000 C984 0.931 . S
H1001 C989 0.929 . S
H1002 C990 0.960 . S
H1003 C990 0.962 . S
H1004 C990 0.960 . S
H1005 C991 0.961 . S
H1006 C991 0.961 . S
H1007 C991 0.961 . S
H1008 C992 0.931 . S
H1009 C997 0.930 . S
H1010 C998 0.956 . S
H1011 C998 0.961 . S
H1012 C998 0.961 . S
H1013 C999 0.958 . S
H1014 C999 0.961 . S
H1015 C999 0.960 . S
C249 C5 0.791 . S
C257 C92 0.989 . S
C281 C18 1.151 . S
C289 C153 1.167 . S
C321 C191 2.355 . S
C313 C30 2.385 . S
C345 C41 2.091 . S
C353 C231 2.049 . S
C385 C151 1.380 . S
C377 C7 1.334 . S
C417 C119 2.092 . S
C409 C16 2.041 . S
C449 C228 1.800 . S
C441 C29 1.712 . S
C481 C188 1.479 . S
C473 C38 1.373 . S
C505 C8 1.037 . S
C513 C233 1.097 . S
C545 C148 2.574 . S
C537 C27 2.278 . S
C569 C40 2.250 . S
C577 C90 2.235 . S
C601 C19 1.332 . S
C609 C193 1.293 . S
C641 C113 0.980 . S
C633 C51 0.917 . S
C665 C62 1.410 . S
C673 C132 1.402 . S
C697 C74 2.453 . S
C705 C170 2.457 . S
C729 C84 2.035 . S
C737 C210 2.128 . S
C761 C49 1.359 . S
C769 C130 1.670 . S
C801 C108 2.076 . S
C793 C63 2.045 . S
C833 C239 1.634 . S
C825 C71 1.448 . S
C865 C199 1.598 . S
C857 C85 1.615 . S
C889 C52 1.138 . S
C897 C212 1.164 . S
C929 C159 2.710 . S
C921 C73 2.614 . S
C961 C111 1.829 . S
C953 C82 1.595 . S
C985 C60 1.328 . S
C993 C172 1.394 . S
