# Generated by pormake.
# Topology gar, (4,6)-cn, num edge types: 1
# Building blocks:
#     Node 0, Type 0, BuildingBlock: CEKHIL_clean_sbu_0, # of connection points: 4
#     Node 1, Type 0, BuildingBlock: CEKHIL_clean_sbu_0, # of connection points: 4
#     Node 2, Type 0, BuildingBlock: CEKHIL_clean_sbu_0, # of connection points: 4
#     Node 3, Type 0, BuildingBlock: CEKHIL_clean_sbu_0, # of connection points: 4
#     Node 4, Type 0, BuildingBlock: CEKHIL_clean_sbu_0, # of connection points: 4
#     Node 5, Type 0, BuildingBlock: CEKHIL_clean_sbu_0, # of connection points: 4
#     Node 6, Type 0, BuildingBlock: CEKHIL_clean_sbu_0, # of connection points: 4
#     Node 7, Type 0, BuildingBlock: CEKHIL_clean_sbu_0, # of connection points: 4
#     Node 8, Type 0, BuildingBlock: CEKHIL_clean_sbu_0, # of connection points: 4
#     Node 9, Type 0, BuildingBlock: CEKHIL_clean_sbu_0, # of connection points: 4
#     Node 10, Type 0, BuildingBlock: CEKHIL_clean_sbu_0, # of connection points: 4
#     Node 11, Type 0, BuildingBlock: CEKHIL_clean_sbu_0, # of connection points: 4
#     Node 12, Type 0, BuildingBlock: CEKHIL_clean_sbu_0, # of connection points: 4
#     Node 13, Type 0, BuildingBlock: CEKHIL_clean_sbu_0, # of connection points: 4
#     Node 14, Type 0, BuildingBlock: CEKHIL_clean_sbu_0, # of connection points: 4
#     Node 15, Type 0, BuildingBlock: CEKHIL_clean_sbu_0, # of connection points: 4
#     Node 16, Type 0, BuildingBlock: CEKHIL_clean_sbu_0, # of connection points: 4
#     Node 17, Type 0, BuildingBlock: CEKHIL_clean_sbu_0, # of connection points: 4
#     Node 18, Type 0, BuildingBlock: CEKHIL_clean_sbu_0, # of connection points: 4
#     Node 19, Type 0, BuildingBlock: CEKHIL_clean_sbu_0, # of connection points: 4
#     Node 20, Type 0, BuildingBlock: CEKHIL_clean_sbu_0, # of connection points: 4
#     Node 21, Type 0, BuildingBlock: CEKHIL_clean_sbu_0, # of connection points: 4
#     Node 22, Type 0, BuildingBlock: CEKHIL_clean_sbu_0, # of connection points: 4
#     Node 23, Type 0, BuildingBlock: CEKHIL_clean_sbu_0, # of connection points: 4
#     Node 24, Type 1, BuildingBlock: BETDEL_clean_sbu_0, # of connection points: 6
#     Node 25, Type 1, BuildingBlock: BETDEL_clean_sbu_0, # of connection points: 6
#     Node 26, Type 1, BuildingBlock: BETDEL_clean_sbu_0, # of connection points: 6
#     Node 27, Type 1, BuildingBlock: BETDEL_clean_sbu_0, # of connection points: 6
#     Node 28, Type 1, BuildingBlock: BETDEL_clean_sbu_0, # of connection points: 6
#     Node 29, Type 1, BuildingBlock: BETDEL_clean_sbu_0, # of connection points: 6
#     Node 30, Type 1, BuildingBlock: BETDEL_clean_sbu_0, # of connection points: 6
#     Node 31, Type 1, BuildingBlock: BETDEL_clean_sbu_0, # of connection points: 6
#     Node 32, Type 1, BuildingBlock: BETDEL_clean_sbu_0, # of connection points: 6
#     Node 33, Type 1, BuildingBlock: BETDEL_clean_sbu_0, # of connection points: 6
#     Node 34, Type 1, BuildingBlock: BETDEL_clean_sbu_0, # of connection points: 6
#     Node 35, Type 1, BuildingBlock: BETDEL_clean_sbu_0, # of connection points: 6
#     Node 36, Type 1, BuildingBlock: BETDEL_clean_sbu_0, # of connection points: 6
#     Node 37, Type 1, BuildingBlock: BETDEL_clean_sbu_0, # of connection points: 6
#     Node 38, Type 1, BuildingBlock: BETDEL_clean_sbu_0, # of connection points: 6
#     Node 39, Type 1, BuildingBlock: BETDEL_clean_sbu_0, # of connection points: 6
#     Edge 40, Type (0, 1), BuildingBlock: XIVTED_clean_linker_0, # of connection points: 2
#     Edge 41, Type (0, 1), BuildingBlock: XIVTED_clean_linker_0, # of connection points: 2
#     Edge 42, Type (0, 1), BuildingBlock: XIVTED_clean_linker_0, # of connection points: 2
#     Edge 43, Type (0, 1), BuildingBlock: XIVTED_clean_linker_0, # of connection points: 2
#     Edge 44, Type (0, 1), BuildingBlock: XIVTED_clean_linker_0, # of connection points: 2
#     Edge 45, Type (0, 1), BuildingBlock: XIVTED_clean_linker_0, # of connection points: 2
#     Edge 46, Type (0, 1), BuildingBlock: XIVTED_clean_linker_0, # of connection points: 2
#     Edge 47, Type (0, 1), BuildingBlock: XIVTED_clean_linker_0, # of connection points: 2
#     Edge 48, Type (0, 1), BuildingBlock: XIVTED_clean_linker_0, # of connection points: 2
#     Edge 49, Type (0, 1), BuildingBlock: XIVTED_clean_linker_0, # of connection points: 2
#     Edge 50, Type (0, 1), BuildingBlock: XIVTED_clean_linker_0, # of connection points: 2
#     Edge 51, Type (0, 1), BuildingBlock: XIVTED_clean_linker_0, # of connection points: 2
#     Edge 52, Type (0, 1), BuildingBlock: XIVTED_clean_linker_0, # of connection points: 2
#     Edge 53, Type (0, 1), BuildingBlock: XIVTED_clean_linker_0, # of connection points: 2
#     Edge 54, Type (0, 1), BuildingBlock: XIVTED_clean_linker_0, # of connection points: 2
#     Edge 55, Type (0, 1), BuildingBlock: XIVTED_clean_linker_0, # of connection points: 2
#     Edge 56, Type (0, 1), BuildingBlock: XIVTED_clean_linker_0, # of connection points: 2
#     Edge 57, Type (0, 1), BuildingBlock: XIVTED_clean_linker_0, # of connection points: 2
#     Edge 58, Type (0, 1), BuildingBlock: XIVTED_clean_linker_0, # of connection points: 2
#     Edge 59, Type (0, 1), BuildingBlock: XIVTED_clean_linker_0, # of connection points: 2
#     Edge 60, Type (0, 1), BuildingBlock: XIVTED_clean_linker_0, # of connection points: 2
#     Edge 61, Type (0, 1), BuildingBlock: XIVTED_clean_linker_0, # of connection points: 2
#     Edge 62, Type (0, 1), BuildingBlock: XIVTED_clean_linker_0, # of connection points: 2
#     Edge 63, Type (0, 1), BuildingBlock: XIVTED_clean_linker_0, # of connection points: 2
#     Edge 64, Type (0, 1), BuildingBlock: XIVTED_clean_linker_0, # of connection points: 2
#     Edge 65, Type (0, 1), BuildingBlock: XIVTED_clean_linker_0, # of connection points: 2
#     Edge 66, Type (0, 1), BuildingBlock: XIVTED_clean_linker_0, # of connection points: 2
#     Edge 67, Type (0, 1), BuildingBlock: XIVTED_clean_linker_0, # of connection points: 2
#     Edge 68, Type (0, 1), BuildingBlock: XIVTED_clean_linker_0, # of connection points: 2
#     Edge 69, Type (0, 1), BuildingBlock: XIVTED_clean_linker_0, # of connection points: 2
#     Edge 70, Type (0, 1), BuildingBlock: XIVTED_clean_linker_0, # of connection points: 2
#     Edge 71, Type (0, 1), BuildingBlock: XIVTED_clean_linker_0, # of connection points: 2
#     Edge 72, Type (0, 1), BuildingBlock: XIVTED_clean_linker_0, # of connection points: 2
#     Edge 73, Type (0, 1), BuildingBlock: XIVTED_clean_linker_0, # of connection points: 2
#     Edge 74, Type (0, 1), BuildingBlock: XIVTED_clean_linker_0, # of connection points: 2
#     Edge 75, Type (0, 1), BuildingBlock: XIVTED_clean_linker_0, # of connection points: 2
#     Edge 76, Type (0, 1), BuildingBlock: XIVTED_clean_linker_0, # of connection points: 2
#     Edge 77, Type (0, 1), BuildingBlock: XIVTED_clean_linker_0, # of connection points: 2
#     Edge 78, Type (0, 1), BuildingBlock: XIVTED_clean_linker_0, # of connection points: 2
#     Edge 79, Type (0, 1), BuildingBlock: XIVTED_clean_linker_0, # of connection points: 2
#     Edge 80, Type (0, 1), BuildingBlock: XIVTED_clean_linker_0, # of connection points: 2
#     Edge 81, Type (0, 1), BuildingBlock: XIVTED_clean_linker_0, # of connection points: 2
#     Edge 82, Type (0, 1), BuildingBlock: XIVTED_clean_linker_0, # of connection points: 2
#     Edge 83, Type (0, 1), BuildingBlock: XIVTED_clean_linker_0, # of connection points: 2
#     Edge 84, Type (0, 1), BuildingBlock: XIVTED_clean_linker_0, # of connection points: 2
#     Edge 85, Type (0, 1), BuildingBlock: XIVTED_clean_linker_0, # of connection points: 2
#     Edge 86, Type (0, 1), BuildingBlock: XIVTED_clean_linker_0, # of connection points: 2
#     Edge 87, Type (0, 1), BuildingBlock: XIVTED_clean_linker_0, # of connection points: 2
#     Edge 88, Type (0, 1), BuildingBlock: XIVTED_clean_linker_0, # of connection points: 2
#     Edge 89, Type (0, 1), BuildingBlock: XIVTED_clean_linker_0, # of connection points: 2
#     Edge 90, Type (0, 1), BuildingBlock: XIVTED_clean_linker_0, # of connection points: 2
#     Edge 91, Type (0, 1), BuildingBlock: XIVTED_clean_linker_0, # of connection points: 2
#     Edge 92, Type (0, 1), BuildingBlock: XIVTED_clean_linker_0, # of connection points: 2
#     Edge 93, Type (0, 1), BuildingBlock: XIVTED_clean_linker_0, # of connection points: 2
#     Edge 94, Type (0, 1), BuildingBlock: XIVTED_clean_linker_0, # of connection points: 2
#     Edge 95, Type (0, 1), BuildingBlock: XIVTED_clean_linker_0, # of connection points: 2
#     Edge 96, Type (0, 1), BuildingBlock: XIVTED_clean_linker_0, # of connection points: 2
#     Edge 97, Type (0, 1), BuildingBlock: XIVTED_clean_linker_0, # of connection points: 2
#     Edge 98, Type (0, 1), BuildingBlock: XIVTED_clean_linker_0, # of connection points: 2
#     Edge 99, Type (0, 1), BuildingBlock: XIVTED_clean_linker_0, # of connection points: 2
#     Edge 100, Type (0, 1), BuildingBlock: XIVTED_clean_linker_0, # of connection points: 2
#     Edge 101, Type (0, 1), BuildingBlock: XIVTED_clean_linker_0, # of connection points: 2
#     Edge 102, Type (0, 1), BuildingBlock: XIVTED_clean_linker_0, # of connection points: 2
#     Edge 103, Type (0, 1), BuildingBlock: XIVTED_clean_linker_0, # of connection points: 2
#     Edge 104, Type (0, 1), BuildingBlock: XIVTED_clean_linker_0, # of connection points: 2
#     Edge 105, Type (0, 1), BuildingBlock: XIVTED_clean_linker_0, # of connection points: 2
#     Edge 106, Type (0, 1), BuildingBlock: XIVTED_clean_linker_0, # of connection points: 2
#     Edge 107, Type (0, 1), BuildingBlock: XIVTED_clean_linker_0, # of connection points: 2
#     Edge 108, Type (0, 1), BuildingBlock: XIVTED_clean_linker_0, # of connection points: 2
#     Edge 109, Type (0, 1), BuildingBlock: XIVTED_clean_linker_0, # of connection points: 2
#     Edge 110, Type (0, 1), BuildingBlock: XIVTED_clean_linker_0, # of connection points: 2
#     Edge 111, Type (0, 1), BuildingBlock: XIVTED_clean_linker_0, # of connection points: 2
#     Edge 112, Type (0, 1), BuildingBlock: XIVTED_clean_linker_0, # of connection points: 2
#     Edge 113, Type (0, 1), BuildingBlock: XIVTED_clean_linker_0, # of connection points: 2
#     Edge 114, Type (0, 1), BuildingBlock: XIVTED_clean_linker_0, # of connection points: 2
#     Edge 115, Type (0, 1), BuildingBlock: XIVTED_clean_linker_0, # of connection points: 2
#     Edge 116, Type (0, 1), BuildingBlock: XIVTED_clean_linker_0, # of connection points: 2
#     Edge 117, Type (0, 1), BuildingBlock: XIVTED_clean_linker_0, # of connection points: 2
#     Edge 118, Type (0, 1), BuildingBlock: XIVTED_clean_linker_0, # of connection points: 2
#     Edge 119, Type (0, 1), BuildingBlock: XIVTED_clean_linker_0, # of connection points: 2
#     Edge 120, Type (0, 1), BuildingBlock: XIVTED_clean_linker_0, # of connection points: 2
#     Edge 121, Type (0, 1), BuildingBlock: XIVTED_clean_linker_0, # of connection points: 2
#     Edge 122, Type (0, 1), BuildingBlock: XIVTED_clean_linker_0, # of connection points: 2
#     Edge 123, Type (0, 1), BuildingBlock: XIVTED_clean_linker_0, # of connection points: 2
#     Edge 124, Type (0, 1), BuildingBlock: XIVTED_clean_linker_0, # of connection points: 2
#     Edge 125, Type (0, 1), BuildingBlock: XIVTED_clean_linker_0, # of connection points: 2
#     Edge 126, Type (0, 1), BuildingBlock: XIVTED_clean_linker_0, # of connection points: 2
#     Edge 127, Type (0, 1), BuildingBlock: XIVTED_clean_linker_0, # of connection points: 2
#     Edge 128, Type (0, 1), BuildingBlock: XIVTED_clean_linker_0, # of connection points: 2
#     Edge 129, Type (0, 1), BuildingBlock: XIVTED_clean_linker_0, # of connection points: 2
#     Edge 130, Type (0, 1), BuildingBlock: XIVTED_clean_linker_0, # of connection points: 2
#     Edge 131, Type (0, 1), BuildingBlock: XIVTED_clean_linker_0, # of connection points: 2
#     Edge 132, Type (0, 1), BuildingBlock: XIVTED_clean_linker_0, # of connection points: 2
#     Edge 133, Type (0, 1), BuildingBlock: XIVTED_clean_linker_0, # of connection points: 2
#     Edge 134, Type (0, 1), BuildingBlock: XIVTED_clean_linker_0, # of connection points: 2
#     Edge 135, Type (0, 1), BuildingBlock: XIVTED_clean_linker_0, # of connection points: 2
# Relax obj value: 0.142
# Max RMSD: 0.266
# Mean RMSD: 0.142
data_MOF--net-gar--node1-CEKHIL_clean_sbu_0--node2-BETDEL_clean_sbu_0--edge1-XIVTED_clean_linker_0
_symmetry_space_group_name_H-M    P1
_symmetry_Int_Tables_number       1
_symmetry_cell_setting            triclinic
loop_
_symmetry_equiv_pos_as_xyz
'x, y, z'
_cell_length_a     56.424823
_cell_length_b     53.148175
_cell_length_c     53.974353
_cell_angle_alpha  95.228954
_cell_angle_beta   92.534573
_cell_angle_gamma 100.45276
loop_
_atom_site_label
_atom_site_type_symbol
_atom_site_fract_x
_atom_site_fract_y
_atom_site_fract_z
_atom_type_partial_charge
Co0 Co 0.03976 0.28054 0.38975 0.0
O1 O 0.07345 0.2786 0.38904 0.0
O2 O 0.04655 0.26462 0.35751 0.0
C3 C 0.0462 0.32171 0.40677 0.0
O4 O 0.0038 0.28129 0.38295 0.0
Co5 Co 0.01638 0.29185 0.43978 0.0
O6 O 0.98923 0.29763 0.41783 0.0
C7 C 0.03006 0.24136 0.42712 0.0
C8 C 0.069 0.26873 0.36608 0.0
C9 C 0.98709 0.29026 0.39457 0.0
O10 O 0.0327 0.24609 0.40423 0.0
O11 O 0.02602 0.25808 0.44423 0.0
O12 O 0.04719 0.31667 0.38286 0.0
O13 O 0.04303 0.30211 0.41941 0.0
Co14 Co 0.99412 0.77391 0.62414 0.0
O15 O 0.96072 0.77744 0.62535 0.0
O16 O 0.98215 0.76592 0.65622 0.0
C17 C 0.0058 0.81114 0.60689 0.0
O18 O 0.029 0.76929 0.63075 0.0
Co19 Co 0.02007 0.7711 0.57458 0.0
O20 O 0.04975 0.77263 0.59625 0.0
C21 C 0.98375 0.72725 0.58676 0.0
C22 C 0.96179 0.77127 0.64804 0.0
C23 C 0.04872 0.76992 0.61942 0.0
O24 O 0.9844 0.73681 0.60966 0.0
O25 O 0.99423 0.73945 0.56968 0.0
O26 O 0.00407 0.81145 0.63088 0.0
O27 O 0.99952 0.78895 0.59443 0.0
Co28 Co 0.53974 0.77618 0.8866 0.0
O29 O 0.57393 0.77624 0.88668 0.0
O30 O 0.548 0.76217 0.8543 0.0
C31 C 0.54304 0.81643 0.90558 0.0
O32 O 0.50363 0.775 0.87859 0.0
Co33 Co 0.51354 0.78278 0.93578 0.0
O34 O 0.48684 0.78856 0.9132 0.0
C35 C 0.53209 0.73536 0.92224 0.0
C36 C 0.57023 0.76678 0.8635 0.0
C37 C 0.48594 0.78247 0.88973 0.0
O38 O 0.53406 0.7409 0.89951 0.0
O39 O 0.52674 0.75086 0.93975 0.0
O40 O 0.5457 0.81307 0.88175 0.0
O41 O 0.54057 0.79595 0.91693 0.0
Co42 Co 0.49459 0.2726 0.12882 0.0
O43 O 0.46023 0.27078 0.13014 0.0
O44 O 0.48459 0.26679 0.16221 0.0
C45 C 0.50059 0.30832 0.1083 0.0
O46 O 0.53091 0.27356 0.13472 0.0
Co47 Co 0.51875 0.26955 0.078 0.0
O48 O 0.54952 0.27706 0.09883 0.0
C49 C 0.49144 0.2226 0.09648 0.0
C50 C 0.46288 0.26765 0.15357 0.0
C51 C 0.5501 0.27577 0.12232 0.0
O52 O 0.48964 0.23451 0.118 0.0
O53 O 0.50015 0.23365 0.07791 0.0
O54 O 0.49977 0.3103 0.1324 0.0
O55 O 0.49659 0.28523 0.09749 0.0
Co56 Co 0.03174 0.79645 0.14513 0.0
O57 O 0.99728 0.78588 0.13911 0.0
O58 O 0.01776 0.78277 0.17429 0.0
C59 C 0.03321 0.83436 0.12911 0.0
O60 O 0.06661 0.80638 0.15931 0.0
Co61 Co 0.067 0.80885 0.1032 0.0
O62 O 0.09131 0.82276 0.13092 0.0
C63 C 0.04477 0.75495 0.10947 0.0
C64 C 0.99699 0.78014 0.16199 0.0
C65 C 0.08742 0.8174 0.15308 0.0
O66 O 0.0372 0.76157 0.13087 0.0
O67 O 0.05469 0.7711 0.09507 0.0
O68 O 0.02722 0.83214 0.1519 0.0
O69 O 0.03689 0.81374 0.1167 0.0
Co70 Co 0.50628 0.76806 0.37266 0.0
O71 O 0.54087 0.77139 0.37536 0.0
O72 O 0.51765 0.75664 0.34105 0.0
C73 C 0.50526 0.80706 0.39241 0.0
O74 O 0.47037 0.76277 0.36206 0.0
Co75 Co 0.47563 0.77049 0.4193 0.0
O76 O 0.44935 0.77295 0.39472 0.0
C77 C 0.49598 0.72407 0.40479 0.0
C78 C 0.53919 0.76237 0.35203 0.0
C79 C 0.45069 0.76689 0.3715 0.0
O80 O 0.50292 0.73247 0.38414 0.0
O81 O 0.48639 0.73698 0.42144 0.0
O82 O 0.50929 0.80491 0.36883 0.0
O83 O 0.50362 0.78629 0.40323 0.0
Co84 Co 0.5348 0.29643 0.64902 0.0
O85 O 0.50037 0.28576 0.64304 0.0
O86 O 0.5206 0.2843 0.67877 0.0
C87 C 0.53652 0.3336 0.63153 0.0
O88 O 0.56975 0.30681 0.66312 0.0
Co89 Co 0.56983 0.30613 0.60663 0.0
O90 O 0.59399 0.32195 0.63385 0.0
C91 C 0.55016 0.25276 0.6172 0.0
C92 C 0.49988 0.28104 0.66622 0.0
C93 C 0.59042 0.31764 0.65632 0.0
O94 O 0.54001 0.26091 0.63652 0.0
O95 O 0.56141 0.26766 0.60245 0.0
O96 O 0.53058 0.33217 0.65442 0.0
O97 O 0.53992 0.3125 0.61969 0.0
Co98 Co 0.00639 0.26818 0.8747 0.0
O99 O 0.04109 0.27365 0.8787 0.0
O100 O 0.01956 0.25796 0.84361 0.0
C101 C 0.00327 0.30644 0.89467 0.0
O102 O 0.97068 0.26134 0.86265 0.0
Co103 Co 0.97358 0.26838 0.9198 0.0
O104 O 0.94793 0.27023 0.8943 0.0
C105 C 0.99662 0.2236 0.90609 0.0
C106 C 0.04069 0.26522 0.85532 0.0
C107 C 0.95037 0.26462 0.87122 0.0
O108 O 0.00418 0.23255 0.88587 0.0
O109 O 0.98573 0.2357 0.92221 0.0
O110 O 0.00803 0.30495 0.87127 0.0
O111 O 1.00191 0.2855 0.90516 0.0
Co112 Co 0.40459 0.05093 0.28856 0.0
O113 O 0.40568 0.08501 0.27816 0.0
O114 O 0.37444 0.05262 0.2718 0.0
C115 C 0.42173 0.06406 0.32703 0.0
O116 O 0.39439 0.0145 0.29705 0.0
Co117 Co 0.44723 0.02627 0.30548 0.0
O118 O 0.42299 0.9978 0.31605 0.0
C119 C 0.43829 0.03306 0.25212 0.0
C120 C 0.38348 0.07642 0.26946 0.0
C121 C 0.40114 0.99658 0.30835 0.0
O122 O 0.41771 0.03922 0.2564 0.0
O123 O 0.45313 0.0291 0.26935 0.0
O124 O 0.39879 0.06365 0.3225 0.0
O125 O 0.43348 0.05745 0.30833 0.0
Co126 Co 0.27029 0.14947 0.48677 0.0
O127 O 0.30498 0.153 0.49093 0.0
O128 O 0.27887 0.11799 0.49676 0.0
C129 C 0.27044 0.16699 0.44988 0.0
O130 O 0.2338 0.13736 0.48349 0.0
Co131 Co 0.2443 0.19571 0.48384 0.0
O132 O 0.21392 0.16981 0.47905 0.0
C133 C 0.26559 0.18587 0.53205 0.0
C134 C 0.30127 0.12935 0.49639 0.0
C135 C 0.21413 0.14607 0.48059 0.0
O136 O 0.26869 0.16353 0.52279 0.0
O137 O 0.2588 0.20244 0.51892 0.0
O138 O 0.2717 0.14287 0.45049 0.0
O139 O 0.27031 0.17986 0.47129 0.0
Co140 Co 0.14931 0.00414 0.78978 0.0
O141 O 0.14629 0.96726 0.78159 0.0
O142 O 0.17943 0.99583 0.77858 0.0
C143 C 0.1309 0.00118 0.82651 0.0
O144 O 0.16093 0.04298 0.79678 0.0
Co145 Co 0.10645 0.03258 0.79781 0.0
O146 O 0.13105 0.06444 0.80542 0.0
C147 C 0.11634 0.01264 0.74691 0.0
C148 C 0.16886 0.97184 0.77636 0.0
C149 C 0.15325 0.06401 0.80252 0.0
O150 O 0.13716 0.00835 0.75452 0.0
O151 O 0.10099 0.01936 0.76173 0.0
O152 O 0.15369 1.00001 0.82564 0.0
O153 O 0.12006 0.00315 0.80551 0.0
Co154 Co 0.24052 0.90158 0.98577 0.0
O155 O 0.2085 0.90577 0.99402 0.0
O156 O 0.2414 0.93604 0.00097 0.0
C157 C 0.23024 0.88194 0.94713 0.0
O158 O 0.27616 0.90539 0.97931 0.0
Co159 Co 0.25455 0.84806 0.97237 0.0
O160 O 0.28646 0.86787 0.9655 0.0
C161 C 0.24501 0.86499 0.02417 0.0
C162 C 0.21822 0.92927 0.00231 0.0
C163 C 0.29159 0.89212 0.97105 0.0
O164 O 0.24588 0.88836 0.01909 0.0
O165 O 0.2454 0.84629 0.00757 0.0
O166 O 0.23361 0.9069 0.95088 0.0
O167 O 0.2315 0.87003 0.96668 0.0
Co168 Co 0.26284 0.39697 0.02107 0.0
O169 O 0.2281 0.39271 0.01666 0.0
O170 O 0.25193 0.42842 0.03316 0.0
C171 C 0.2674 0.37893 0.98226 0.0
O172 O 0.29956 0.40949 0.0271 0.0
Co173 Co 0.28929 0.35046 0.01699 0.0
O174 O 0.31819 0.37723 0.01381 0.0
C175 C 0.26117 0.35999 0.06068 0.0
C176 C 0.23018 0.41649 0.02579 0.0
C177 C 0.31873 0.40084 0.0211 0.0
O178 O 0.26 0.38284 0.05491 0.0
O179 O 0.26989 0.34361 0.04669 0.0
O180 O 0.26558 0.40302 0.98576 0.0
O181 O 0.26516 0.36658 0.00171 0.0
Co182 Co 0.77923 0.13732 0.01627 0.0
O183 O 0.81307 0.13729 0.01346 0.0
O184 O 0.78625 0.10382 0.02197 0.0
C185 C 0.77502 0.15694 0.98148 0.0
O186 O 0.74279 0.12962 0.01937 0.0
Co187 Co 0.7588 0.1884 0.0208 0.0
O188 O 0.72682 0.16534 0.01769 0.0
C189 C 0.7838 0.17205 0.06431 0.0
C190 C 0.80839 0.11324 0.01745 0.0
C191 C 0.72462 0.14121 0.01896 0.0
O192 O 0.78472 0.1499 0.05293 0.0
O193 O 0.77628 0.19013 0.05403 0.0
O194 O 0.77417 0.13224 0.97981 0.0
O195 O 0.77964 0.1688 0.00348 0.0
Co196 Co 0.13909 0.50514 0.24215 0.0
O197 O 0.13895 0.47012 0.24911 0.0
O198 O 0.16895 0.49547 0.23326 0.0
C199 C 0.12446 0.51773 0.27823 0.0
O200 O 0.1476 0.54201 0.23402 0.0
Co201 Co 0.0938 0.53046 0.23899 0.0
O202 O 0.11672 0.56319 0.23671 0.0
C203 C 0.10092 0.48949 0.20102 0.0
C204 C 0.16075 0.47356 0.24145 0.0
C205 C 0.13888 0.56267 0.23358 0.0
O206 O 0.12355 0.49309 0.20775 0.0
O207 O 0.08576 0.50003 0.21327 0.0
O208 O 0.14727 0.51664 0.2775 0.0
O209 O 0.11131 0.50974 0.25797 0.0
Co210 Co 0.75943 0.89713 0.52033 0.0
O211 O 0.72468 0.89307 0.51635 0.0
O212 O 0.74888 0.92828 0.53356 0.0
C213 C 0.76406 0.8805 0.481 0.0
O214 O 0.79604 0.90965 0.52594 0.0
Co215 Co 0.7858 0.85064 0.51455 0.0
O216 O 0.81448 0.87772 0.51144 0.0
C217 C 0.75869 0.85909 0.55919 0.0
C218 C 0.72707 0.91671 0.52607 0.0
C219 C 0.81505 0.90124 0.51914 0.0
O220 O 0.75704 0.88198 0.55381 0.0
O221 O 0.7673 0.84306 0.54468 0.0
O222 O 0.76191 0.90442 0.48533 0.0
O223 O 0.76174 0.86735 0.49993 0.0
Co224 Co 0.88433 0.04379 0.2438 0.0
O225 O 0.88871 0.08086 0.25007 0.0
O226 O 0.85573 0.05597 0.23208 0.0
C227 C 0.89858 0.03636 0.28185 0.0
O228 O 0.87214 0.00498 0.2359 0.0
Co229 Co 0.92779 0.01506 0.24551 0.0
O230 O 0.90216 0.98403 0.24512 0.0
C231 C 0.92104 0.04597 0.20415 0.0
C232 C 0.86687 0.07898 0.24046 0.0
C233 C 0.88004 0.98412 0.23923 0.0
O234 O 0.89929 0.04705 0.21019 0.0
O235 O 0.93595 0.0366 0.21746 0.0
O236 O 0.87657 0.04017 0.27865 0.0
O237 O 0.91156 0.03973 0.26297 0.0
Co238 Co 0.27987 0.63254 0.50771 0.0
O239 O 0.31308 0.62893 0.50922 0.0
O240 O 0.2829 0.60072 0.52137 0.0
C241 C 0.27979 0.64409 0.46878 0.0
O242 O 0.24344 0.6294 0.50845 0.0
Co243 Co 0.2648 0.68484 0.49875 0.0
O244 O 0.23152 0.66431 0.49519 0.0
C245 C 0.28883 0.67761 0.54669 0.0
C246 C 0.30583 0.60719 0.51814 0.0
C247 C 0.22687 0.64178 0.50224 0.0
O248 O 0.28486 0.65298 0.54153 0.0
O249 O 0.28485 0.69325 0.53098 0.0
O250 O 0.27621 0.61979 0.47207 0.0
O251 O 0.28425 0.65996 0.48853 0.0
Co252 Co 0.38537 0.54053 0.74429 0.0
O253 O 0.38764 0.57722 0.75174 0.0
O254 O 0.35609 0.5512 0.73219 0.0
C255 C 0.39897 0.53265 0.78242 0.0
O256 O 0.37549 0.50162 0.73501 0.0
Co257 Co 0.43104 0.51522 0.74691 0.0
O258 O 0.40664 0.48312 0.74626 0.0
C259 C 0.42332 0.54608 0.70576 0.0
C260 C 0.36585 0.57432 0.74171 0.0
C261 C 0.38452 0.48162 0.73914 0.0
O262 O 0.40123 0.54589 0.71137 0.0
O263 O 0.43859 0.53737 0.71921 0.0
O264 O 0.37663 0.53509 0.77854 0.0
O265 O 0.41251 0.53765 0.76422 0.0
Co266 Co 0.63542 0.00348 0.74304 0.0
O267 O 0.63555 0.96815 0.74845 0.0
O268 O 0.66561 0.99471 0.73399 0.0
C269 C 0.62025 0.01399 0.77937 0.0
O270 O 0.64351 0.04093 0.73664 0.0
Co271 Co 0.58955 0.02791 0.74068 0.0
O272 O 0.61202 0.06119 0.73979 0.0
C273 C 0.59781 0.98885 0.70131 0.0
C274 C 0.65749 0.97229 0.74122 0.0
C275 C 0.63434 0.06136 0.73693 0.0
O276 O 0.62041 0.99273 0.70826 0.0
O277 O 0.58227 0.99852 0.71377 0.0
O278 O 0.64315 0.01335 0.77869 0.0
O279 O 0.60732 0.00677 0.75884 0.0
Co280 Co 0.77065 0.64916 0.98687 0.0
O281 O 0.80546 0.65449 0.99238 0.0
O282 O 0.78053 0.61829 0.99689 0.0
C283 C 0.77176 0.6675 0.95026 0.0
O284 O 0.73435 0.63477 0.98233 0.0
Co285 Co 0.74108 0.69214 0.98152 0.0
O286 O 0.71314 0.6642 0.97128 0.0
C287 C 0.75804 0.68162 0.03191 0.0
C288 C 0.80263 0.63071 0.99739 0.0
C289 C 0.71432 0.6413 0.97559 0.0
O290 O 0.76709 0.6624 0.02275 0.0
O291 O 0.74835 0.69615 0.01849 0.0
O292 O 0.77381 0.64356 0.95069 0.0
O293 O 0.76971 0.67961 0.97163 0.0
Co294 Co 0.9085 0.54773 0.7877 0.0
O295 O 0.90692 0.58111 0.77709 0.0
O296 O 0.8772 0.54711 0.77189 0.0
C297 C 0.92612 0.56229 0.82576 0.0
O298 O 0.90166 0.5111 0.79693 0.0
Co299 Co 0.95547 0.52884 0.80293 0.0
O300 O 0.93424 0.49754 0.81222 0.0
C301 C 0.94221 0.53209 0.74975 0.0
C302 C 0.88475 0.57121 0.76925 0.0
C303 C 0.91166 0.49419 0.80665 0.0
O304 O 0.92129 0.53676 0.755 0.0
O305 O 0.95864 0.53036 0.76631 0.0
O306 O 0.90288 0.5601 0.82179 0.0
O307 O 0.93785 0.55702 0.80661 0.0
Co308 Co 0.73955 0.40069 0.48619 0.0
O309 O 0.70673 0.40527 0.4893 0.0
O310 O 0.73922 0.43367 0.50413 0.0
C311 C 0.7342 0.38561 0.44579 0.0
O312 O 0.77585 0.40435 0.48567 0.0
Co313 Co 0.75502 0.34874 0.47039 0.0
O314 O 0.78692 0.37006 0.46536 0.0
C315 C 0.73946 0.35995 0.5215 0.0
C316 C 0.71588 0.42783 0.50058 0.0
C317 C 0.79188 0.39303 0.47576 0.0
O318 O 0.73936 0.3836 0.51801 0.0
O319 O 0.74317 0.34309 0.50429 0.0
O320 O 0.73836 0.4103 0.45201 0.0
O321 O 0.73256 0.37118 0.46375 0.0
Co322 Co 0.6467 0.50974 0.29086 0.0
O323 O 0.64401 0.47299 0.28158 0.0
O324 O 0.67749 0.50179 0.28152 0.0
C325 C 0.62595 0.50524 0.32621 0.0
O326 O 0.65841 0.54838 0.29968 0.0
Co327 Co 0.60402 0.5387 0.29808 0.0
O328 O 0.62865 0.56996 0.30836 0.0
C329 C 0.61723 0.52261 0.24687 0.0
C330 C 0.66705 0.47778 0.27836 0.0
C331 C 0.6509 0.56936 0.3061 0.0
O332 O 0.63675 0.51576 0.25523 0.0
O333 O 0.60159 0.52954 0.26122 0.0
O334 O 0.64874 0.50384 0.32653 0.0
O335 O 0.61651 0.50839 0.30485 0.0
Dy336 Dy 0.99385 0.01998 0.00356 0.0
C337 C 0.09531 0.036 0.03287 0.0
C338 C 0.94561 0.02064 0.99648 0.0
Dy339 Dy 0.04749 0.03684 0.02306 0.0
O340 O 0.96172 0.02662 0.9805 0.0
O341 O 0.95573 0.01315 0.01583 0.0
O342 O 0.00409 0.99401 0.97188 0.0
O343 O 0.02839 0.02716 0.98652 0.0
C344 C 0.02602 0.00704 0.97164 0.0
C345 C 0.01505 0.04981 0.05457 0.0
O346 O 0.04384 0.07067 0.00262 0.0
O347 O 1.00207 0.0629 0.00344 0.0
O348 O 0.0783 0.0302 0.0479 0.0
O349 O 0.08629 0.04344 0.01284 0.0
O350 O 0.03681 0.06321 0.05426 0.0
O351 O 0.01306 0.02961 0.03992 0.0
O352 O 0.99765 0.98625 0.02381 0.0
O353 O 0.03943 0.99378 0.02338 0.0
C354 C 0.0227 0.07768 0.99893 0.0
C355 C 0.01868 0.97914 0.02776 0.0
Dy356 Dy 0.26934 0.79033 0.23782 0.0
C357 C 0.25407 0.75143 0.33314 0.0
C358 C 0.26865 0.81176 0.19411 0.0
Dy359 Dy 0.25703 0.7759 0.29094 0.0
O360 O 0.26239 0.82182 0.21505 0.0
O361 O 0.2755 0.79009 0.19706 0.0
O362 O 0.30237 0.77158 0.23835 0.0
O363 O 0.28974 0.78589 0.27142 0.0
C364 C 0.30426 0.77271 0.26256 0.0
C365 C 0.22321 0.79466 0.2659 0.0
O366 O 0.27834 0.81551 0.30115 0.0
O367 O 0.27793 0.82861 0.26107 0.0
O368 O 0.23968 0.74466 0.31332 0.0
O369 O 0.26946 0.77209 0.33021 0.0
O370 O 0.22547 0.79699 0.29016 0.0
O371 O 0.23681 0.78029 0.25726 0.0
O372 O 0.24563 0.75163 0.23004 0.0
O373 O 0.25659 0.73844 0.26773 0.0
C374 C 0.28253 0.83351 0.28558 0.0
C375 C 0.24692 0.73313 0.24461 0.0
Dy376 Dy 0.54115 0.02173 0.51211 0.0
C377 C 0.44323 0.0403 0.51299 0.0
C378 C 0.58536 0.0068 0.51223 0.0
Dy379 Dy 0.48491 0.02146 0.51895 0.0
O380 O 0.56892 0.00171 0.49394 0.0
O381 O 0.57799 0.02088 0.53019 0.0
O382 O 0.54003 0.04796 0.48121 0.0
O383 O 0.5092 0.02234 0.48909 0.0
C384 C 0.51677 0.04059 0.4767 0.0
C385 C 0.50804 0.00134 0.55402 0.0
O386 O 0.48345 0.9859 0.49295 0.0
O387 O 0.522 0.98037 0.50574 0.0
O388 O 0.44467 0.01911 0.52302 0.0
O389 O 0.46429 0.05062 0.50628 0.0
O390 O 0.48462 0.99523 0.54979 0.0
O391 O 0.51646 0.01966 0.54191 0.0
O392 O 0.54473 0.05954 0.53521 0.0
O393 O 0.50345 0.06065 0.53637 0.0
C394 C 0.50034 0.97153 0.49429 0.0
C395 C 0.5266 0.07125 0.54146 0.0
Dy396 Dy 0.24393 0.2718 0.76174 0.0
C397 C 0.34456 0.27316 0.75038 0.0
C398 C 0.19683 0.27084 0.77262 0.0
Dy399 Dy 0.29796 0.26721 0.76405 0.0
O400 O 0.21398 0.2909 0.77576 0.0
O401 O 0.20525 0.25123 0.76293 0.0
O402 O 0.25218 0.30507 0.73843 0.0
O403 O 0.27823 0.29873 0.76493 0.0
C404 C 0.2744 0.31206 0.74755 0.0
C405 C 0.26772 0.22636 0.77767 0.0
O406 O 0.29674 0.29112 0.80005 0.0
O407 O 0.25577 0.27639 0.80277 0.0
O408 O 0.33631 0.26018 0.76852 0.0
O409 O 0.32759 0.2832 0.74047 0.0
O410 O 0.29026 0.23263 0.78592 0.0
O411 O 0.26374 0.24028 0.76086 0.0
O412 O 0.24441 0.2522 0.72316 0.0
O413 O 0.2863 0.25673 0.72352 0.0
C414 C 0.27718 0.28832 0.81302 0.0
C415 C 0.26456 0.25048 0.71182 0.0
Dy416 Dy 0.00788 0.00565 0.47819 0.0
C417 C 0.05237 0.04243 0.57892 0.0
C418 C 0.97485 0.99342 0.43861 0.0
Dy419 Dy 0.02621 0.03268 0.53403 0.0
O420 O 0.9955 0.98563 0.43995 0.0
O421 O 0.97205 0.0069 0.45925 0.0
O422 O 0.04473 0.01328 0.46173 0.0
O423 O 0.03977 0.02649 0.49795 0.0
C424 C 0.05532 0.02651 0.48205 0.0
C425 C 0.97831 0.01594 0.52411 0.0
O426 O 0.02812 0.06774 0.51396 0.0
O427 O 0.00537 0.04766 0.47778 0.0
O428 O 0.02946 0.04281 0.57559 0.0
O429 O 0.06123 0.03802 0.55748 0.0
O430 O 0.98715 0.03508 0.54077 0.0
O431 O 0.99536 0.00624 0.51565 0.0
O432 O 0.01186 0.97038 0.49703 0.0
O433 O 0.03131 0.99175 0.5345 0.0
C434 C 0.01679 0.06857 0.49198 0.0
C435 C 0.02326 0.97046 0.51928 0.0
Dy436 Dy 0.29466 0.78919 0.76085 0.0
C437 C 0.20108 0.74762 0.71156 0.0
C438 C 0.33643 0.80194 0.79063 0.0
Dy439 Dy 0.24257 0.76029 0.74175 0.0
O440 O 0.33461 0.80509 0.76703 0.0
O441 O 0.31523 0.79298 0.79807 0.0
O442 O 0.30404 0.79453 0.72118 0.0
O443 O 0.27869 0.76304 0.72922 0.0
C444 C 0.28815 0.77458 0.71185 0.0
C445 C 0.24914 0.77472 0.79084 0.0
O446 O 0.26018 0.72565 0.74372 0.0
O447 O 0.29441 0.74753 0.76757 0.0
O448 O 0.20283 0.74351 0.73493 0.0
O449 O 0.2222 0.75754 0.70455 0.0
O450 O 0.2333 0.75477 0.78138 0.0
O451 O 0.25853 0.78633 0.77346 0.0
O452 O 0.27705 0.82391 0.75875 0.0
O453 O 0.24237 0.80198 0.73566 0.0
C454 C 0.28063 0.72575 0.75711 0.0
C455 C 0.25626 0.82377 0.74592 0.0
Dy456 Dy 0.5042 0.01633 0.03085 0.0
C457 C 0.52078 0.01428 0.92588 0.0
C458 C 0.49596 0.02566 0.07968 0.0
Dy459 Dy 0.51108 0.02052 0.97467 0.0
O460 O 0.51036 0.01082 0.07122 0.0
O461 O 0.4864 0.03563 0.06152 0.0
O462 O 0.50247 0.97376 0.02541 0.0
O463 O 0.52329 0.9979 0.00245 0.0
C464 C 0.51516 0.97487 0.00587 0.0
C465 C 0.50011 0.06156 0.00091 0.0
O466 O 0.47397 0.99616 0.97265 0.0
O467 O 0.46721 0.99791 0.01518 0.0
O468 O 0.51532 0.03499 0.937 0.0
O469 O 0.51983 0.99671 0.94117 0.0
O470 O 0.51443 0.0634 0.9827 0.0
O471 O 0.49167 0.03839 0.00302 0.0
O472 O 0.5406 0.04263 0.03126 0.0
O473 O 0.54904 0.03099 0.99054 0.0
C474 C 0.46019 0.9905 0.99144 0.0
C475 C 0.55582 0.04253 0.01316 0.0
Dy476 Dy 0.26786 0.29328 0.2627 0.0
C477 C 0.26227 0.18564 0.2454 0.0
C478 C 0.26382 0.34381 0.26566 0.0
Dy479 Dy 0.25554 0.23515 0.24545 0.0
O480 O 0.26324 0.3301 0.28443 0.0
O481 O 0.2677 0.33016 0.24562 0.0
O482 O 0.28882 0.28584 0.29685 0.0
O483 O 0.25898 0.25857 0.28107 0.0
C484 C 0.27616 0.26281 0.29759 0.0
C485 C 0.2469 0.26589 0.21091 0.0
O486 O 0.21988 0.23808 0.2605 0.0
O487 O 0.2271 0.28283 0.26349 0.0
O488 O 0.2578 0.19647 0.22545 0.0
O489 O 0.26139 0.20141 0.26493 0.0
O490 O 0.23437 0.2427 0.21134 0.0
O491 O 0.26422 0.26991 0.22723 0.0
O492 O 0.30407 0.29006 0.24855 0.0
O493 O 0.29589 0.24534 0.24282 0.0
C494 C 0.2126 0.26033 0.26504 0.0
C495 C 0.31085 0.26772 0.24271 0.0
Dy496 Dy 0.50679 0.50313 0.97793 0.0
C497 C 0.56445 0.54317 0.0715 0.0
C498 C 0.4734 0.48809 0.93871 0.0
Dy499 Dy 0.53369 0.52752 0.03 0.0
O500 O 0.49437 0.48114 0.94043 0.0
O501 O 0.47048 0.50226 0.95882 0.0
O502 O 0.53864 0.51899 0.95714 0.0
O503 O 0.544 0.51157 0.99421 0.0
C504 C 0.55405 0.52201 0.97624 0.0
C505 C 0.48568 0.5093 0.03035 0.0
O506 O 0.53597 0.56266 0.00938 0.0
O507 O 0.50686 0.54521 0.9773 0.0
O508 O 0.5441 0.5508 0.06723 0.0
O509 O 0.56852 0.5282 0.0524 0.0
O510 O 0.50036 0.51174 0.04996 0.0
O511 O 0.49693 0.51957 0.01314 0.0
O512 O 0.50722 0.4677 0.99798 0.0
O513 O 0.5364 0.4863 0.02953 0.0
C514 C 0.52215 0.56491 0.98938 0.0
C515 C 0.52192 0.46605 0.01751 0.0
Dy516 Dy 0.79553 0.29534 0.26877 0.0
C517 C 0.70741 0.25326 0.20357 0.0
C518 C 0.83356 0.30967 0.30347 0.0
Dy519 Dy 0.74639 0.26811 0.23708 0.0
O520 O 0.83169 0.31955 0.2824 0.0
O521 O 0.81408 0.2931 0.30605 0.0
O522 O 0.81766 0.28677 0.23669 0.0
O523 O 0.78167 0.28968 0.22998 0.0
C524 C 0.79972 0.28296 0.22009 0.0
C525 C 0.7424 0.27979 0.28599 0.0
O526 O 0.76651 0.23515 0.23602 0.0
O527 O 0.79598 0.2529 0.26781 0.0
O528 O 0.71021 0.24329 0.22444 0.0
O529 O 0.72659 0.27001 0.20047 0.0
O530 O 0.72427 0.27562 0.26963 0.0
O531 O 0.76052 0.27383 0.27574 0.0
O532 O 0.77521 0.32848 0.26874 0.0
O533 O 0.74552 0.31013 0.23739 0.0
C534 C 0.78516 0.23348 0.25143 0.0
C535 C 0.75619 0.3297 0.25357 0.0
Dy536 Dy 0.00749 0.5221 0.52748 0.0
C537 C 0.0261 0.52173 0.42541 0.0
C538 C 0.99406 0.52543 0.57518 0.0
Dy539 Dy 0.0076 0.52697 0.47067 0.0
O540 O 0.01043 0.51289 0.56718 0.0
O541 O 0.9853 0.53632 0.55725 0.0
O542 O 0.0303 0.49144 0.52347 0.0
O543 O 0.00634 0.49598 0.49417 0.0
C544 C 0.02303 0.48458 0.50023 0.0
C545 C 0.99106 0.56373 0.49778 0.0
O546 O 0.97222 0.50023 0.47035 0.0
O547 O 0.96889 0.5059 0.51334 0.0
O548 O 0.00995 0.53581 0.43062 0.0
O549 O 0.03118 0.51014 0.44449 0.0
O550 O 0.98395 0.55684 0.47441 0.0
O551 O 0.00824 0.55299 0.50397 0.0
O552 O 0.04335 0.54849 0.52766 0.0
O553 O 0.04559 0.54482 0.48456 0.0
C554 C 0.95956 0.49726 0.49038 0.0
C555 C 0.05538 0.55261 0.50738 0.0
Dy556 Dy 0.74219 0.77046 0.26111 0.0
C557 C 0.84631 0.77035 0.25377 0.0
C558 C 0.69561 0.75843 0.27375 0.0
Dy559 Dy 0.799 0.76749 0.26432 0.0
O560 O 0.71449 0.75565 0.2871 0.0
O561 O 0.70206 0.76759 0.25291 0.0
O562 O 0.74636 0.81176 0.25137 0.0
O563 O 0.77604 0.79449 0.25635 0.0
C564 C 0.76982 0.81509 0.25127 0.0
C565 C 0.76803 0.72897 0.281 0.0
O566 O 0.79718 0.79252 0.2996 0.0
O567 O 0.75516 0.78244 0.30121 0.0
O568 O 0.83188 0.74952 0.25828 0.0
O569 O 0.83508 0.78963 0.25584 0.0
O570 O 0.7903 0.73612 0.29007 0.0
O571 O 0.7645 0.74135 0.26284 0.0
O572 O 0.74502 0.74917 0.22382 0.0
O573 O 0.7873 0.75552 0.22387 0.0
C574 C 0.77703 0.79284 0.31137 0.0
C575 C 0.76537 0.74755 0.21262 0.0
Dy576 Dy 0.7697 0.28667 0.73483 0.0
C577 C 0.75807 0.25853 0.83743 0.0
C578 C 0.76172 0.30354 0.68999 0.0
Dy579 Dy 0.76083 0.27835 0.79283 0.0
O580 O 0.76108 0.31678 0.71136 0.0
O581 O 0.76707 0.28112 0.69308 0.0
O582 O 0.80701 0.27571 0.73463 0.0
O583 O 0.78717 0.27453 0.76594 0.0
C584 C 0.80695 0.27102 0.75798 0.0
C585 C 0.72893 0.30047 0.76818 0.0
O586 O 0.78871 0.3143 0.79695 0.0
O587 O 0.78631 0.32472 0.75568 0.0
O588 O 0.74213 0.25183 0.81881 0.0
O589 O 0.77528 0.2766 0.83196 0.0
O590 O 0.73255 0.30389 0.79236 0.0
O591 O 0.74037 0.2838 0.75976 0.0
O592 O 0.74546 0.24809 0.73186 0.0
O593 O 0.75318 0.23862 0.77258 0.0
C594 C 0.79434 0.33002 0.77947 0.0
C595 C 0.74425 0.23179 0.74923 0.0
Dy596 Dy 0.7683 0.79439 0.76287 0.0
C597 C 0.76949 0.68809 0.74873 0.0
C598 C 0.76213 0.84425 0.76599 0.0
Dy599 Dy 0.75993 0.7362 0.74596 0.0
O600 O 0.76126 0.83023 0.78453 0.0
O601 O 0.76728 0.83128 0.74609 0.0
O602 O 0.78869 0.78798 0.79801 0.0
O603 O 0.76047 0.75952 0.78116 0.0
C604 C 0.77688 0.76453 0.79844 0.0
C605 C 0.75022 0.76562 0.71056 0.0
O606 O 0.72364 0.73742 0.76083 0.0
O607 O 0.72776 0.78175 0.76085 0.0
O608 O 0.7607 0.69586 0.72863 0.0
O609 O 0.77198 0.70621 0.76687 0.0
O610 O 0.73923 0.74175 0.71075 0.0
O611 O 0.76696 0.77102 0.72754 0.0
O612 O 0.80485 0.79388 0.74885 0.0
O613 O 0.80018 0.74926 0.74303 0.0
C614 C 0.71462 0.75886 0.76365 0.0
C615 C 0.81354 0.77264 0.74321 0.0
Dy616 Dy 0.49282 0.51767 0.50794 0.0
C617 C 0.59695 0.54052 0.52481 0.0
C618 C 0.44642 0.52275 0.51484 0.0
Dy619 Dy 0.54807 0.53761 0.52199 0.0
O620 O 0.45234 0.50436 0.49995 0.0
O621 O 0.46561 0.53788 0.52509 0.0
O622 O 0.49977 0.4924 0.47401 0.0
O623 O 0.52543 0.52479 0.48801 0.0
C624 C 0.52204 0.50454 0.47315 0.0
C625 C 0.51763 0.54912 0.55628 0.0
O626 O 0.54108 0.57058 0.50143 0.0
O627 O 0.49927 0.55737 0.49571 0.0
O628 O 0.58299 0.53562 0.54295 0.0
O629 O 0.58423 0.54501 0.50565 0.0
O630 O 0.53847 0.56383 0.55409 0.0
O631 O 0.51575 0.52886 0.5418 0.0
O632 O 0.50082 0.48656 0.53002 0.0
O633 O 0.54219 0.49479 0.52515 0.0
C634 C 0.51938 0.57425 0.4938 0.0
C635 C 0.52236 0.48001 0.53188 0.0
Dy636 Dy 0.04293 0.52075 0.0132 0.0
C637 C 0.94481 0.5415 0.01334 0.0
C638 C 0.08679 0.50488 0.01471 0.0
Dy639 Dy 0.98678 0.52281 0.01877 0.0
O640 O 0.07058 0.49962 0.9962 0.0
O641 O 0.07933 0.51947 0.03219 0.0
O642 O 0.04309 0.54564 0.98109 0.0
O643 O 0.01146 0.52144 0.98936 0.0
C644 C 0.0198 0.5389 0.97636 0.0
C645 C 0.00932 0.50458 0.05585 0.0
O646 O 0.98473 0.48676 0.99353 0.0
O647 O 0.02234 0.47978 0.00781 0.0
O648 O 0.96578 0.55201 0.00657 0.0
O649 O 0.94652 0.52021 0.023 0.0
O650 O 0.98596 0.49869 0.05143 0.0
O651 O 0.01805 0.52177 0.04266 0.0
O652 O 0.04709 0.55973 0.03432 0.0
O653 O 0.00623 0.56312 0.03057 0.0
C654 C 1.00081 0.47159 0.99579 0.0
C655 C 0.02933 0.57297 0.0367 0.0
H656 H 0.03916 0.20542 0.90663 0.0
H657 H 0.98442 0.1019 0.99675 0.0
H658 H 0.96399 0.18585 0.92153 0.0
H659 H 0.05661 0.10573 0.97198 0.0
H660 H 0.97838 0.13491 0.97033 0.0
H661 H 0.0472 0.16927 0.92927 0.0
C662 C 0.02428 0.19296 0.91392 0.0
C663 C 1.00091 0.19846 0.91236 0.0
C664 C 0.99562 0.12867 0.97061 0.0
C665 C 0.00995 0.1581 0.93869 0.0
C666 C 0.99916 0.10992 0.98593 0.0
C667 C 0.02102 0.10094 0.9865 0.0
C668 C 0.01405 0.13872 0.95566 0.0
C669 C 0.0395 0.11222 0.97216 0.0
C670 C 0.02889 0.17263 0.92709 0.0
C671 C 0.98227 0.1822 0.92246 0.0
N672 N 0.03557 0.13053 0.95716 0.0
N673 N 0.98723 0.16297 0.9354 0.0
H674 H 0.13486 0.8367 0.14628 0.0
H675 H 0.21963 0.79196 0.21562 0.0
H676 H 0.08774 0.80754 0.20228 0.0
H677 H 0.1844 0.81599 0.28059 0.0
H678 H 0.18837 0.80382 0.18915 0.0
H679 H 0.16961 0.83687 0.17483 0.0
C680 C 0.13174 0.83054 0.16463 0.0
C681 C 0.10828 0.82149 0.17162 0.0
C682 C 0.18772 0.80715 0.20918 0.0
C683 C 0.14811 0.8213 0.20421 0.0
C684 C 0.20555 0.80028 0.22434 0.0
C685 C 0.2048 0.80341 0.25033 0.0
C686 C 0.16862 0.81675 0.22004 0.0
C687 C 0.1857 0.81355 0.2606 0.0
C688 C 0.15163 0.8305 0.18084 0.0
C689 C 0.10549 0.81423 0.1959 0.0
N690 N 0.16804 0.8195 0.24536 0.0
N691 N 0.12522 0.81404 0.21128 0.0
H692 H 0.49791 0.85234 0.3746 0.0
H693 H 0.51697 0.9299 0.50812 0.0
H694 H 0.50461 0.81623 0.4424 0.0
H695 H 0.47588 0.95527 0.44912 0.0
H696 H 0.5157 0.88913 0.48283 0.0
H697 H 0.49297 0.8919 0.3999 0.0
C698 C 0.49831 0.85274 0.39472 0.0
C699 C 0.50181 0.8311 0.40646 0.0
C700 C 0.50668 0.90346 0.4755 0.0
C701 C 0.49634 0.87585 0.43521 0.0
C702 C 0.50738 0.92667 0.48993 0.0
C703 C 0.49639 0.94576 0.48067 0.0
C704 C 0.49543 0.89958 0.45138 0.0
C705 C 0.48431 0.94078 0.45695 0.0
C706 C 0.49533 0.87516 0.40907 0.0
C707 C 0.50202 0.83248 0.43255 0.0
N708 N 0.48445 0.91822 0.44286 0.0
N709 N 0.49957 0.85452 0.44602 0.0
H710 H 0.45464 0.27905 0.64538 0.0
H711 H 0.38394 0.25487 0.76867 0.0
H712 H 0.4923 0.27093 0.71471 0.0
H713 H 0.35891 0.29227 0.7076 0.0
H714 H 0.42212 0.2541 0.74825 0.0
H715 H 0.41712 0.27586 0.66655 0.0
C716 C 0.45499 0.27626 0.66501 0.0
C717 C 0.47671 0.27544 0.67832 0.0
C718 C 0.40823 0.26253 0.73946 0.0
C719 C 0.43368 0.27195 0.70278 0.0
C720 C 0.38654 0.26302 0.75109 0.0
C721 C 0.36833 0.27372 0.73982 0.0
C722 C 0.41138 0.27238 0.71627 0.0
C723 C 0.3725 0.28391 0.717 0.0
C724 C 0.43356 0.27462 0.67714 0.0
C725 C 0.47597 0.27176 0.70377 0.0
N726 N 0.39346 0.28283 0.70594 0.0
N727 N 0.45479 0.27024 0.71524 0.0
H728 H 0.02206 0.86108 0.62713 0.0
H729 H 0.00481 0.92076 0.49887 0.0
H730 H 0.00403 0.81427 0.55686 0.0
H731 H 0.04508 0.964 0.56386 0.0
H732 H 0.00344 0.8814 0.51966 0.0
H733 H 0.0295 0.89944 0.60442 0.0
C734 C 0.01986 0.85887 0.60696 0.0
C735 C 0.01236 0.8345 0.59389 0.0
C736 C 0.01278 0.89953 0.52919 0.0
C737 C 0.0205 0.87814 0.56784 0.0
C738 C 0.01361 0.92199 0.51729 0.0
C739 C 0.02486 0.94584 0.52963 0.0
C740 C 0.02302 0.90102 0.55366 0.0
C741 C 0.03595 0.94618 0.55359 0.0
C742 C 0.02412 0.88072 0.594 0.0
C743 C 0.00976 0.83271 0.56772 0.0
N744 N 0.03449 0.92422 0.56488 0.0
N745 N 0.01358 0.85423 0.55558 0.0
H746 H 0.44221 0.78833 0.907 0.0
H747 H 0.38231 0.80809 0.77447 0.0
H748 H 0.47903 0.78299 0.83882 0.0
H749 H 0.3425 0.7969 0.8402 0.0
H750 H 0.41915 0.80359 0.79831 0.0
H751 H 0.40666 0.79524 0.88324 0.0
C752 C 0.44284 0.7885 0.88698 0.0
C753 C 0.46374 0.78497 0.87493 0.0
C754 C 0.40239 0.8023 0.80754 0.0
C755 C 0.42285 0.79321 0.84751 0.0
C756 C 0.38141 0.8051 0.79402 0.0
C757 C 0.35935 0.80291 0.80542 0.0
C758 C 0.40128 0.79746 0.83268 0.0
C759 C 0.35914 0.79876 0.8307 0.0
C760 C 0.42246 0.79248 0.87341 0.0
C761 C 0.46331 0.78542 0.84891 0.0
N762 N 0.37974 0.79613 0.84345 0.0
N763 N 0.44324 0.78958 0.83608 0.0
H764 H 0.45197 0.18963 0.07439 0.0
H765 H 0.53409 0.10355 0.0171 0.0
H766 H 0.52307 0.19298 0.10849 0.0
H767 H 0.46066 0.06747 0.02658 0.0
H768 H 0.52966 0.13905 0.04787 0.0
H769 H 0.45263 0.14593 0.05528 0.0
C770 C 0.4672 0.18063 0.07875 0.0
C771 C 0.48732 0.1945 0.09329 0.0
C772 C 0.51459 0.12323 0.04334 0.0
C773 C 0.48881 0.14574 0.07052 0.0
C774 C 0.51703 0.10323 0.02564 0.0
C775 C 0.49762 0.08288 0.01929 0.0
C776 C 0.49239 0.12318 0.05411 0.0
C777 C 0.47595 0.08303 0.03105 0.0
C778 C 0.46768 0.15591 0.0677 0.0
C779 C 0.50706 0.18256 0.09772 0.0
N780 N 0.47371 0.1032 0.04764 0.0
N781 N 0.50762 0.15907 0.08581 0.0
H782 H 0.11606 0.29131 0.3747 0.0
H783 H 0.17372 0.22031 0.26564 0.0
H784 H 0.06793 0.23894 0.32096 0.0
H785 H 0.19735 0.30114 0.28943 0.0
H786 H 0.137 0.22108 0.28864 0.0
H787 H 0.14914 0.28877 0.3476 0.0
C788 C 0.11247 0.27902 0.35729 0.0
C789 C 0.08914 0.26532 0.35009 0.0
C790 C 0.15017 0.23862 0.28843 0.0
C791 C 0.12719 0.26225 0.319 0.0
C792 C 0.17109 0.23824 0.27537 0.0
C793 C 0.18874 0.26068 0.2756 0.0
C794 C 0.1473 0.26141 0.30232 0.0
C795 C 0.18434 0.28335 0.28859 0.0
C796 C 0.13136 0.27776 0.34176 0.0
C797 C 0.08564 0.24986 0.32717 0.0
N798 N 0.16433 0.28301 0.30173 0.0
N799 N 0.10455 0.24855 0.31244 0.0
H800 H 0.96108 0.0807 0.19753 0.0
H801 H 0.97218 0.01877 0.06141 0.0
H802 H 0.90191 0.02854 0.15684 0.0
H803 H 0.01912 0.08881 0.09248 0.0
H804 H 0.94535 0.02314 0.09518 0.0
H805 H 0.98148 0.08593 0.15875 0.0
C806 C 0.95208 0.07096 0.18021 0.0
C807 C 0.9297 0.05437 0.18028 0.0
C808 C 0.96128 0.03782 0.09443 0.0
C809 C 0.95339 0.05935 0.13595 0.0
C810 C 0.9766 0.03538 0.07505 0.0
C811 C 0.99785 0.05356 0.07397 0.0
C812 C 0.96749 0.0583 0.11328 0.0
C813 C 1.00294 0.07434 0.09259 0.0
C814 C 0.96379 0.07381 0.1581 0.0
C815 C 0.91898 0.04179 0.15747 0.0
N816 N 0.98805 0.07597 0.11165 0.0
N817 N 0.93114 0.04415 0.13627 0.0
H818 H 0.24481 0.62866 0.43046 0.0
H819 H 0.28639 0.76177 0.37291 0.0
H820 H 0.30981 0.68362 0.45351 0.0
H821 H 0.22748 0.70398 0.33866 0.0
H822 H 0.29385 0.73273 0.40339 0.0
H823 H 0.23772 0.65419 0.3958 0.0
C824 C 0.2579 0.64562 0.42769 0.0
C825 C 0.27788 0.65422 0.44464 0.0
C826 C 0.27921 0.72629 0.38929 0.0
C827 C 0.2697 0.68357 0.40607 0.0
C828 C 0.27482 0.74301 0.37204 0.0
C829 C 0.25628 0.73523 0.35339 0.0
C830 C 0.26492 0.70156 0.38793 0.0
C831 C 0.2419 0.71067 0.35294 0.0
C832 C 0.25375 0.66032 0.40821 0.0
C833 C 0.29414 0.6765 0.44078 0.0
N834 N 0.24654 0.69458 0.37 0.0
N835 N 0.28959 0.6905 0.42206 0.0
H836 H 0.6212 0.99182 0.65814 0.0
H837 H 0.49447 0.95962 0.58031 0.0
H838 H 0.5545 0.95789 0.6879 0.0
H839 H 0.55504 0.01839 0.56814 0.0
H840 H 0.5198 0.94436 0.61197 0.0
H841 H 0.60093 0.98452 0.61634 0.0
C842 C 0.60258 0.98187 0.65573 0.0
C843 C 0.58923 0.97611 0.6764 0.0
C844 C 0.52763 0.96011 0.60173 0.0
C845 C 0.56599 0.96819 0.62912 0.0
C846 C 0.5132 0.96891 0.58391 0.0
C847 C 0.52284 0.99018 0.57157 0.0
C848 C 0.55177 0.97262 0.6069 0.0
C849 C 0.54714 0.00156 0.57676 0.0
C850 C 0.59096 0.97791 0.63195 0.0
C851 C 0.56517 0.96319 0.67234 0.0
N852 N 0.56073 0.99276 0.59411 0.0
N853 N 0.55409 0.96019 0.64918 0.0
H854 H 0.25835 0.32753 0.96881 0.0
H855 H 0.30809 0.33175 0.83354 0.0
H856 H 0.28403 0.39996 0.93994 0.0
H857 H 0.24864 0.27393 0.85073 0.0
H858 H 0.30708 0.35452 0.87516 0.0
H859 H 0.26239 0.30512 0.92811 0.0
C860 C 0.265 0.33874 0.95393 0.0
C861 C 0.27077 0.36568 0.95771 0.0
C862 C 0.2944 0.33677 0.86978 0.0
C863 C 0.2757 0.34002 0.91116 0.0
C864 C 0.29509 0.32365 0.8462 0.0
C865 C 0.27845 0.30089 0.83876 0.0
C866 C 0.27734 0.32667 0.88614 0.0
C867 C 0.26176 0.29143 0.85573 0.0
C868 C 0.2672 0.32591 0.9307 0.0
C869 C 0.27926 0.37918 0.93772 0.0
N870 N 0.26173 0.30427 0.87868 0.0
N871 N 0.28161 0.36618 0.91525 0.0
H872 H 0.94074 0.01897 0.28858 0.0
H873 H 0.93111 0.00803 0.43375 0.0
H874 H 0.87746 0.03105 0.32661 0.0
H875 H 0.98464 0.9787 0.39082 0.0
H876 H 0.91015 0.01508 0.39499 0.0
H877 H 0.95649 0.00352 0.32588 0.0
C878 C 0.93007 0.0183 0.30477 0.0
C879 C 0.90775 0.02644 0.30447 0.0
C880 C 0.92625 0.00672 0.39401 0.0
C881 C 0.92588 0.00881 0.34753 0.0
C882 C 0.93818 0.0026 0.41611 0.0
C883 C 0.95969 0.99286 0.41545 0.0
C884 C 0.93611 0.0014 0.3711 0.0
C885 C 0.96811 0.98623 0.39215 0.0
C886 C 0.93907 0.00935 0.32609 0.0
C887 C 0.89477 0.02504 0.32606 0.0
N888 N 0.95649 0.99096 0.37092 0.0
N889 N 0.90413 0.01662 0.34681 0.0
H890 H 0.31695 0.72404 0.56169 0.0
H891 H 0.26069 0.72899 0.69338 0.0
H892 H 0.27476 0.65787 0.58987 0.0
H893 H 0.31778 0.78854 0.6744 0.0
H894 H 0.26527 0.70324 0.6549 0.0
H895 H 0.3189 0.74774 0.60288 0.0
C896 C 0.30858 0.71433 0.57677 0.0
C897 C 0.29548 0.68908 0.57243 0.0
C898 C 0.27685 0.7219 0.65912 0.0
C899 C 0.29708 0.71625 0.61928 0.0
C900 C 0.2741 0.73675 0.68097 0.0
C901 C 0.28893 0.76092 0.68705 0.0
C902 C 0.29439 0.73138 0.64301 0.0
C903 C 0.30594 0.77003 0.6703 0.0
C904 C 0.30961 0.7279 0.60021 0.0
C905 C 0.28506 0.6773 0.59251 0.0
N906 N 0.3082 0.75522 0.64893 0.0
N907 N 0.28569 0.69118 0.61503 0.0
H908 H 0.58249 0.03857 0.78454 0.0
H909 H 0.54702 0.97902 0.90895 0.0
H910 H 0.63064 0.00081 0.82566 0.0
H911 H 0.52366 0.04847 0.89085 0.0
H912 H 0.57356 0.98212 0.8743 0.0
H913 H 0.55753 0.0396 0.82046 0.0
C914 C 0.58801 0.03096 0.80137 0.0
C915 C 0.60856 0.01962 0.80235 0.0
C916 C 0.56253 0.9966 0.87789 0.0
C917 C 0.57982 0.01989 0.84283 0.0
C918 C 0.54716 0.99465 0.89736 0.0
C919 C 0.53316 0.01351 0.9026 0.0
C920 C 0.56354 0.01728 0.86337 0.0
C921 C 0.53416 0.03352 0.88726 0.0
C922 C 0.57377 0.03148 0.82174 0.0
C923 C 0.615 0.00991 0.8244 0.0
N924 N 0.54911 0.03488 0.86819 0.0
N925 N 0.60037 0.00982 0.84373 0.0
H926 H 0.27502 0.38297 0.10803 0.0
H927 H 0.21247 0.25914 0.17219 0.0
H928 H 0.22979 0.31665 0.06752 0.0
H929 H 0.27754 0.31009 0.20285 0.0
H930 H 0.21152 0.28558 0.13724 0.0
H931 H 0.26834 0.36238 0.1469 0.0
C932 C 0.26307 0.36448 0.10747 0.0
C933 C 0.25285 0.35147 0.08466 0.0
C934 C 0.2258 0.29115 0.15185 0.0
C935 C 0.24538 0.32777 0.12868 0.0
C936 C 0.22635 0.27607 0.17176 0.0
C937 C 0.245 0.28253 0.19057 0.0
C938 C 0.24392 0.31296 0.15084 0.0
C939 C 0.26257 0.30466 0.18903 0.0
C940 C 0.25949 0.35261 0.12954 0.0
C941 C 0.23793 0.32729 0.0848 0.0
N942 N 0.26163 0.31905 0.16953 0.0
N943 N 0.23472 0.31618 0.10641 0.0
H944 H 0.17574 0.91876 0.02466 0.0
H945 H 0.13342 0.04642 0.00341 0.0
H946 H 0.22675 0.98143 0.00117 0.0
H947 H 0.10929 0.00429 0.06509 0.0
H948 H 0.16721 0.02316 0.00028 0.0
H949 H 0.14955 0.94908 0.03733 0.0
C950 C 0.18147 0.93895 0.02236 0.0
C951 C 0.20333 0.94767 0.01184 0.0
C952 C 0.15481 0.0195 0.01485 0.0
C953 C 0.17339 0.98225 0.02582 0.0
C954 C 0.13561 0.03278 0.01668 0.0
C955 C 0.11856 0.02716 0.03447 0.0
C956 C 0.15643 1.00008 0.03048 0.0
C957 C 0.12206 0.00918 0.05111 0.0
C958 C 0.16663 0.95623 0.02971 0.0
C959 C 0.21001 0.97402 0.0093 0.0
N960 N 0.1403 0.99584 0.04835 0.0
N961 N 0.19486 0.99039 0.01581 0.0
H962 H 0.70578 0.59585 0.99731 0.0
H963 H 0.56793 0.55845 0.94547 0.0
H964 H 0.67048 0.64338 0.9528 0.0
H965 H 0.59425 0.52504 0.00864 0.0
H966 H 0.60701 0.58663 0.94508 0.0
H967 H 0.66692 0.56652 0.99855 0.0
C968 C 0.68995 0.6 0.98757 0.0
C969 C 0.69146 0.62215 0.97486 0.0
C970 C 0.60434 0.57321 0.95909 0.0
C971 C 0.64699 0.58868 0.97632 0.0
C972 C 0.58202 0.55701 0.95929 0.0
C973 C 0.57786 0.53931 0.9771 0.0
C974 C 0.62298 0.57161 0.97662 0.0
C975 C 0.59673 0.5385 0.99467 0.0
C976 C 0.66776 0.58335 0.9885 0.0
C977 C 0.67026 0.62662 0.96284 0.0
N978 N 0.61861 0.55432 0.99389 0.0
N979 N 0.64901 0.61004 0.96381 0.0
H980 H 0.71616 0.48099 0.2834 0.0
H981 H 0.71289 0.33475 0.23177 0.0
H982 H 0.65017 0.42688 0.262 0.0
H983 H 0.77228 0.37755 0.28035 0.0
H984 H 0.69204 0.37088 0.23706 0.0
H985 H 0.73894 0.44593 0.27703 0.0
C986 C 0.70645 0.46179 0.27715 0.0
C987 C 0.68115 0.45692 0.27317 0.0
C988 C 0.70967 0.37247 0.2465 0.0
C989 C 0.70724 0.41673 0.26571 0.0
C990 C 0.72179 0.35183 0.24338 0.0
C991 C 0.74461 0.35294 0.25556 0.0
C992 C 0.72036 0.3948 0.26169 0.0
C993 C 0.75483 0.37575 0.27052 0.0
C994 C 0.71949 0.44178 0.27368 0.0
C995 C 0.6696 0.43159 0.26529 0.0
N996 N 0.74268 0.3958 0.27309 0.0
N997 N 0.68272 0.41254 0.2617 0.0
H998 H 0.82966 0.38353 0.4479 0.0
H999 H 0.92478 0.49673 0.52384 0.0
H1000 H 0.81125 0.43551 0.50711 0.0
H1001 H 0.93782 0.46361 0.45079 0.0
H1002 H 0.88426 0.47078 0.51999 0.0
H1003 H 0.87081 0.40905 0.4507 0.0
C1004 C 0.83428 0.40019 0.46152 0.0
C1005 C 0.81699 0.40742 0.47726 0.0
C1006 C 0.89594 0.46924 0.50475 0.0
C1007 C 0.86379 0.43646 0.48058 0.0
C1008 C 0.9191 0.48401 0.50695 0.0
C1009 C 0.93468 0.48236 0.48758 0.0
C1010 C 0.88831 0.45241 0.48314 0.0
C1011 C 0.9263 0.46559 0.4661 0.0
C1012 C 0.85767 0.41479 0.463 0.0
C1013 C 0.8239 0.42926 0.49449 0.0
N1014 N 0.90368 0.4511 0.46449 0.0
N1015 N 0.84675 0.4429 0.49574 0.0
H1016 H 0.38605 0.12746 0.28306 0.0
H1017 H 0.27367 0.15378 0.20629 0.0
H1018 H 0.34489 0.06317 0.23566 0.0
H1019 H 0.28285 0.17064 0.28629 0.0
H1020 H 0.30466 0.1265 0.20841 0.0
H1021 H 0.35451 0.1524 0.27462 0.0
C1022 C 0.37075 0.11889 0.27032 0.0
C1023 C 0.36788 0.09327 0.26015 0.0
C1024 C 0.29951 0.13602 0.22539 0.0
C1025 C 0.33212 0.12147 0.25048 0.0
C1026 C 0.28176 0.15128 0.22426 0.0
C1027 C 0.27576 0.16445 0.24614 0.0
C1028 C 0.31159 0.1348 0.24841 0.0
C1029 C 0.28695 0.16086 0.26896 0.0
C1030 C 0.35273 0.13297 0.26574 0.0
C1031 C 0.34757 0.08289 0.24395 0.0
N1032 N 0.30469 0.1468 0.26944 0.0
N1033 N 0.3303 0.09704 0.23962 0.0
H1034 H 0.29969 0.08038 0.51002 0.0
H1035 H 0.44062 0.0848 0.49328 0.0
H1036 H 0.34927 0.14705 0.49188 0.0
H1037 H 0.3968 0.02326 0.52669 0.0
H1038 H 0.40606 0.1061 0.49009 0.0
H1039 H 0.33373 0.05775 0.51438 0.0
C1040 C 0.31772 0.09031 0.50708 0.0
C1041 C 0.32161 0.11569 0.50056 0.0
C1042 C 0.40388 0.08796 0.49817 0.0
C1043 C 0.36054 0.08981 0.50525 0.0
C1044 C 0.42364 0.07572 0.49994 0.0
C1045 C 0.42162 0.05225 0.51037 0.0
C1046 C 0.3817 0.07669 0.50677 0.0
C1047 C 0.39912 0.04136 0.51857 0.0
C1048 C 0.33712 0.07737 0.50956 0.0
C1049 C 0.34535 0.12755 0.49695 0.0
N1050 N 0.37998 0.05367 0.51658 0.0
N1051 N 0.36381 0.1145 0.49922 0.0
H1052 H 0.70033 0.57757 0.31445 0.0
H1053 H 0.72154 0.71263 0.26258 0.0
H1054 H 0.64154 0.61744 0.30107 0.0
H1055 H 0.77479 0.69432 0.31434 0.0
H1056 H 0.69278 0.67549 0.27299 0.0
H1057 H 0.72901 0.61781 0.31164 0.0
C1058 C 0.69343 0.59481 0.31125 0.0
C1059 C 0.66845 0.59407 0.30797 0.0
C1060 C 0.71066 0.67974 0.28229 0.0
C1061 C 0.70116 0.63987 0.30415 0.0
C1062 C 0.72708 0.701 0.27644 0.0
C1063 C 0.75045 0.70687 0.28798 0.0
C1064 C 0.71787 0.66362 0.29919 0.0
C1065 C 0.75686 0.6906 0.3052 0.0
C1066 C 0.70981 0.61774 0.30969 0.0
C1067 C 0.66059 0.61705 0.30383 0.0
N1068 N 0.74074 0.66948 0.31009 0.0
N1069 N 0.67686 0.63886 0.30163 0.0
H1070 H 0.86612 0.4853 0.82267 0.0
H1071 H 0.83123 0.34955 0.75238 0.0
H1072 H 0.92199 0.44651 0.79525 0.0
H1073 H 0.79856 0.36363 0.82182 0.0
H1074 H 0.86197 0.38829 0.76366 0.0
H1075 H 0.83824 0.4437 0.81971 0.0
C1076 C 0.87259 0.46793 0.81647 0.0
C1077 C 0.8963 0.46917 0.80921 0.0
C1078 C 0.84811 0.3828 0.77644 0.0
C1079 C 0.86453 0.4221 0.80503 0.0
C1080 C 0.83047 0.36096 0.76993 0.0
C1081 C 0.81232 0.35366 0.78615 0.0
C1082 C 0.84716 0.39781 0.79897 0.0
C1083 C 0.8123 0.36878 0.80884 0.0
C1084 C 0.85675 0.44433 0.81483 0.0
C1085 C 0.90387 0.44625 0.80118 0.0
N1086 N 0.82928 0.39052 0.81446 0.0
N1087 N 0.88783 0.42363 0.79874 0.0
H1088 H 0.06084 0.84964 0.09152 0.0
H1089 H 0.98452 0.95427 0.05595 0.0
H1090 H 0.00621 0.87184 0.13781 0.0
H1091 H 0.05559 0.9524 0.03015 0.0
H1092 H 0.98925 0.92029 0.0825 0.0
H1093 H 0.05716 0.88465 0.06621 0.0
C1094 C 0.04829 0.86216 0.09654 0.0
C1095 C 0.03382 0.85797 0.11676 0.0
C1096 C 0.00373 0.92729 0.07092 0.0
C1097 C 0.02906 0.89757 0.08751 0.0
C1098 C 1.00093 0.9464 0.05552 0.0
C1099 C 0.01967 0.95608 0.04075 0.0
C1100 C 0.02527 0.91761 0.07126 0.0
C1101 C 0.04069 0.94547 0.04122 0.0
C1102 C 0.04616 0.88208 0.08206 0.0
C1103 C 0.01783 0.87466 0.12248 0.0
N1104 N 0.0429 0.92676 0.05622 0.0
N1105 N 0.01561 0.89361 0.10767 0.0
H1106 H 0.90328 0.26087 0.88281 0.0
H1107 H 0.85288 0.27084 0.7441 0.0
H1108 H 0.94811 0.26253 0.81995 0.0
H1109 H 0.80803 0.25999 0.80623 0.0
H1110 H 0.88783 0.26628 0.77084 0.0
H1111 H 0.86814 0.25923 0.85453 0.0
C1112 C 0.90577 0.26081 0.86302 0.0
C1113 C 0.9288 0.26202 0.8538 0.0
C1114 C 0.87032 0.26474 0.77859 0.0
C1115 C 0.88838 0.26022 0.82116 0.0
C1116 C 0.85039 0.2673 0.76335 0.0
C1117 C 0.82765 0.26608 0.77315 0.0
C1118 C 0.86742 0.26101 0.80381 0.0
C1119 C 0.82532 0.26144 0.79812 0.0
C1120 C 0.88561 0.2598 0.84684 0.0
C1121 C 0.93074 0.26164 0.82791 0.0
N1122 N 0.84498 0.25924 0.81264 0.0
N1123 N 0.91082 0.26099 0.81251 0.0
H1124 H 0.51566 0.21298 0.62937 0.0
H1125 H 0.56978 0.10538 0.54792 0.0
H1126 H 0.58101 0.22902 0.59033 0.0
H1127 H 0.4956 0.09558 0.56781 0.0
H1128 H 0.57728 0.14858 0.57028 0.0
H1129 H 0.51134 0.16735 0.61401 0.0
C1130 C 0.52926 0.20686 0.61789 0.0
C1131 C 0.54855 0.22483 0.61086 0.0
C1132 C 0.55941 0.13686 0.56982 0.0
C1133 C 0.54377 0.1729 0.59332 0.0
C1134 C 0.55513 0.11221 0.55709 0.0
C1135 C 0.53198 0.09694 0.55574 0.0
C1136 C 0.54046 0.14615 0.58148 0.0
C1137 C 0.51367 0.10678 0.56806 0.0
C1138 C 0.52672 0.18089 0.60902 0.0
C1139 C 0.56565 0.21587 0.59591 0.0
N1140 N 0.5183 0.13076 0.58037 0.0
N1141 N 0.56281 0.19058 0.58757 0.0
H1142 H 0.54415 0.75638 0.30151 0.0
H1143 H 0.68219 0.74136 0.31766 0.0
H1144 H 0.58371 0.76063 0.3725 0.0
H1145 H 0.65347 0.76695 0.25096 0.0
H1146 H 0.64307 0.7396 0.33548 0.0
H1147 H 0.5813 0.75241 0.28046 0.0
C1148 C 0.56059 0.7563 0.31264 0.0
C1149 C 0.56092 0.75895 0.33879 0.0
C1150 C 0.64523 0.74547 0.31689 0.0
C1151 C 0.60313 0.75414 0.31493 0.0
C1152 C 0.66753 0.74638 0.30664 0.0
C1153 C 0.67109 0.75456 0.2829 0.0
C1154 C 0.62621 0.75264 0.30327 0.0
C1155 C 0.65143 0.76066 0.2694 0.0
C1156 C 0.58173 0.75413 0.30063 0.0
C1157 C 0.58267 0.75881 0.35232 0.0
N1158 N 0.62976 0.7597 0.27984 0.0
N1159 N 0.60285 0.75637 0.34024 0.0
H1160 H 0.04495 0.2303 0.47255 0.0
H1161 H 1.00025 0.07843 0.44579 0.0
H1162 H 0.01739 0.19374 0.39973 0.0
H1163 H 0.03758 0.11633 0.51451 0.0
H1164 H 0.00545 0.11992 0.42851 0.0
H1165 H 0.04232 0.18831 0.48771 0.0
C1166 C 0.03847 0.21334 0.45965 0.0
C1167 C 0.0312 0.21555 0.43485 0.0
C1168 C 0.01249 0.11911 0.44735 0.0
C1169 C 0.02786 0.16707 0.4523 0.0
C1170 C 0.0094 0.09545 0.45735 0.0
C1171 C 0.01838 0.0938 0.48178 0.0
C1172 C 0.02455 0.14137 0.46189 0.0
C1173 C 0.03023 0.11655 0.49568 0.0
C1174 C 0.03697 0.18931 0.46836 0.0
C1175 C 0.02321 0.19289 0.41897 0.0
N1176 N 0.03291 0.13932 0.48556 0.0
N1177 N 0.02149 0.16952 0.42804 0.0
H1178 H 0.59535 0.2882 0.1053 0.0
H1179 H 0.66212 0.2319 0.2162 0.0
H1180 H 0.55856 0.25847 0.16792 0.0
H1181 H 0.69942 0.27322 0.15991 0.0
H1182 H 0.62352 0.23761 0.19679 0.0
H1183 H 0.63322 0.28041 0.12381 0.0
C1184 C 0.59522 0.28024 0.12308 0.0
C1185 C 0.57362 0.27405 0.13505 0.0
C1186 C 0.64014 0.2452 0.18855 0.0
C1187 C 0.61715 0.26462 0.15625 0.0
C1188 C 0.66215 0.24169 0.19945 0.0
C1189 C 0.68399 0.25204 0.18959 0.0
C1190 C 0.63999 0.25908 0.16758 0.0
C1191 C 0.683 0.26487 0.16808 0.0
C1192 C 0.61691 0.27569 0.13361 0.0
C1193 C 0.57473 0.26374 0.15807 0.0
N1194 N 0.66142 0.2681 0.15788 0.0
N1195 N 0.59608 0.2592 0.16783 0.0
H1196 H 0.54919 0.8648 0.88888 0.0
H1197 H 0.49438 0.92521 0.00856 0.0
H1198 H 0.53006 0.82409 0.95294 0.0
H1199 H 0.54607 0.97296 0.96808 0.0
H1200 H 0.50136 0.88738 0.98284 0.0
H1201 H 0.5428 0.90477 0.9126 0.0
C1202 C 0.54364 0.86424 0.9078 0.0
C1203 C 0.53999 0.84106 0.91888 0.0
C1204 C 0.51112 0.90616 0.97949 0.0
C1205 C 0.53239 0.88613 0.94566 0.0
C1206 C 0.50715 0.92772 0.99417 0.0
C1207 C 0.51952 0.95219 0.99025 0.0
C1208 C 0.52744 0.90907 0.96061 0.0
C1209 C 0.53584 0.9544 0.9713 0.0
C1210 C 0.54008 0.88696 0.92128 0.0
C1211 C 0.53291 0.84138 0.94349 0.0
N1212 N 0.5393 0.93304 0.95702 0.0
N1213 N 0.52917 0.86345 0.95592 0.0
H1214 H 0.95202 0.74669 0.69015 0.0
H1215 H 0.83898 0.81263 0.72125 0.0
H1216 H 0.92471 0.79713 0.64242 0.0
H1217 H 0.84322 0.73699 0.74201 0.0
H1218 H 0.87632 0.81306 0.69965 0.0
H1219 H 0.91739 0.74821 0.71612 0.0
C1220 C 0.9388 0.75811 0.68519 0.0
C1221 C 0.94113 0.77165 0.66401 0.0
C1222 C 0.86918 0.7965 0.70918 0.0
C1223 C 0.902 0.77395 0.69384 0.0
C1224 C 0.848 0.79633 0.72171 0.0
C1225 C 0.83791 0.77471 0.73342 0.0
C1226 C 0.88063 0.77512 0.70871 0.0
C1227 C 0.8503 0.754 0.73312 0.0
C1228 C 0.91909 0.75894 0.69996 0.0
C1229 C 0.9235 0.7862 0.65844 0.0
N1230 N 0.87103 0.75471 0.72097 0.0
N1231 N 0.9048 0.7871 0.67334 0.0
H1232 H 0.14784 0.01551 0.87566 0.0
H1233 H 0.019 0.97119 0.93084 0.0
H1234 H 0.083 0.98402 0.82956 0.0
H1235 H 0.07118 0.03485 0.96683 0.0
H1236 H 0.04585 0.96779 0.8966 0.0
H1237 H 0.12339 0.01511 0.91254 0.0
C1238 C 0.12857 0.0083 0.87334 0.0
C1239 C 0.11741 0.99994 0.84952 0.0
C1240 C 0.05152 0.98232 0.91216 0.0
C1241 C 0.08955 0.99898 0.89141 0.0
C1242 C 0.03624 0.98422 0.93173 0.0
C1243 C 0.04288 0.00329 0.95181 0.0
C1244 C 0.07381 0.99933 0.91283 0.0
C1245 C 0.06545 0.0197 0.9519 0.0
C1246 C 0.11464 0.00816 0.89431 0.0
C1247 C 0.09233 0.99085 0.84754 0.0
N1248 N 0.08012 0.01735 0.93276 0.0
N1249 N 0.07932 0.99049 0.86814 0.0
H1250 H 0.73005 0.31087 0.53427 0.0
H1251 H 0.75264 0.35063 0.68083 0.0
H1252 H 0.74345 0.38999 0.56641 0.0
H1253 H 0.75702 0.27604 0.64445 0.0
H1254 H 0.74281 0.36464 0.64018 0.0
H1255 H 0.73231 0.29708 0.57584 0.0
C1256 C 0.73327 0.32539 0.5501 0.0
C1257 C 0.73701 0.35169 0.54681 0.0
C1258 C 0.74588 0.34522 0.64115 0.0
C1259 C 0.73977 0.33589 0.59458 0.0
C1260 C 0.75152 0.33724 0.66426 0.0
C1261 C 0.75585 0.31225 0.66582 0.0
C1262 C 0.74437 0.32795 0.61961 0.0
C1263 C 0.75401 0.29554 0.64396 0.0
C1264 C 0.73461 0.31746 0.57386 0.0
C1265 C 0.74065 0.36954 0.56808 0.0
N1266 N 0.74842 0.30371 0.62172 0.0
N1267 N 0.74222 0.36131 0.59114 0.0
H1268 H 0.40105 0.06066 0.3721 0.0
H1269 H 0.46943 0.02198 0.46458 0.0
H1270 H 0.46969 0.07732 0.33908 0.0
H1271 H 0.52908 0.07843 0.44542 0.0
H1272 H 0.44389 0.03427 0.43233 0.0
H1273 H 0.42257 0.06104 0.41273 0.0
C1274 C 0.4206 0.06471 0.37349 0.0
C1275 C 0.43366 0.06834 0.35224 0.0
C1276 C 0.46231 0.04461 0.43556 0.0
C1277 C 0.45827 0.06826 0.39813 0.0
C1278 C 0.47704 0.03744 0.4539 0.0
C1279 C 0.50136 0.04945 0.45787 0.0
C1280 C 0.47208 0.06357 0.42055 0.0
C1281 C 0.51038 0.06882 0.44299 0.0
C1282 C 0.43288 0.06467 0.39656 0.0
C1283 C 0.45898 0.07383 0.355 0.0
N1284 N 0.49579 0.07501 0.42462 0.0
N1285 N 0.47048 0.07338 0.37749 0.0
H1286 H 0.72461 0.70241 0.05714 0.0
H1287 H 0.80135 0.73091 0.18683 0.0
H1288 H 0.79103 0.67455 0.06888 0.0
H1289 H 0.72601 0.73638 0.17893 0.0
H1290 H 0.79885 0.71171 0.14369 0.0
H1291 H 0.72557 0.71604 0.10152 0.0
C1292 C 0.7394 0.69906 0.06913 0.0
C1293 C 0.7579 0.68751 0.05925 0.0
C1294 C 0.78285 0.71697 0.15145 0.0
C1295 C 0.75919 0.70336 0.11029 0.0
C1296 C 0.78426 0.72811 0.17606 0.0
C1297 C 0.76387 0.73549 0.18655 0.0
C1298 C 0.76099 0.71345 0.13704 0.0
C1299 C 0.7422 0.73108 0.17168 0.0
C1300 C 0.73987 0.70678 0.09452 0.0
C1301 C 0.77642 0.68337 0.07574 0.0
N1302 N 0.7414 0.72056 0.14765 0.0
N1303 N 0.77678 0.69162 0.10046 0.0
H1304 H 0.07137 0.99803 0.72505 0.0
H1305 H 0.0997 0.03854 0.58938 0.0
H1306 H 0.14479 0.02605 0.70777 0.0
H1307 H 0.03249 0.04087 0.62379 0.0
H1308 H 0.11732 0.02884 0.62926 0.0
H1309 H 0.05742 0.00581 0.68371 0.0
C1310 C 0.08465 0.00545 0.71234 0.0
C1311 C 0.10928 0.01164 0.72 0.0
C1312 C 0.09881 0.03174 0.62804 0.0
C1313 C 0.09325 0.02108 0.67246 0.0
C1314 C 0.08879 0.0374 0.6054 0.0
C1315 C 0.0646 0.04057 0.60333 0.0
C1316 C 0.08433 0.02876 0.64846 0.0
C1317 C 0.05121 0.03866 0.62454 0.0
C1318 C 0.07662 0.01012 0.68878 0.0
C1319 C 0.12565 0.02096 0.70258 0.0
N1320 N 0.06116 0.03264 0.64606 0.0
N1321 N 0.11731 0.02566 0.6796 0.0
H1322 H 0.70147 0.34534 0.42517 0.0
H1323 H 0.77964 0.31361 0.31245 0.0
H1324 H 0.76522 0.398 0.40923 0.0
H1325 H 0.70382 0.28216 0.31318 0.0
H1326 H 0.77674 0.34207 0.34999 0.0
H1327 H 0.70324 0.32004 0.38547 0.0
C1328 C 0.71558 0.35179 0.41295 0.0
C1329 C 0.73308 0.37378 0.42013 0.0
C1330 C 0.76078 0.32884 0.34195 0.0
C1331 C 0.73575 0.34458 0.37524 0.0
C1332 C 0.76257 0.31224 0.32082 0.0
C1333 C 0.74211 0.29516 0.31001 0.0
C1334 C 0.73839 0.32801 0.35244 0.0
C1335 C 0.7201 0.29493 0.32109 0.0
C1336 C 0.71665 0.33734 0.3904 0.0
C1337 C 0.75121 0.3813 0.40398 0.0
N1338 N 0.71883 0.311 0.34179 0.0
N1339 N 0.75232 0.36643 0.38229 0.0
H1340 H 0.41755 0.04905 0.21078 0.0
H1341 H 0.51365 0.00519 0.11945 0.0
H1342 H 0.47649 0.01332 0.23458 0.0
H1343 H 0.46234 0.05173 0.09835 0.0
H1344 H 0.49935 0.00676 0.16158 0.0
H1345 H 0.43222 0.04821 0.16881 0.0
C1346 C 0.43345 0.04088 0.20717 0.0
C1347 C 0.44583 0.0313 0.22626 0.0
C1348 C 0.4913 0.01676 0.14778 0.0
C1349 C 0.46276 0.03044 0.1784 0.0
C1350 C 0.4995 0.01591 0.1238 0.0
C1351 C 0.4891 0.02832 0.10555 0.0
C1352 C 0.47245 0.02996 0.1534 0.0
C1353 C 0.4708 0.0419 0.112 0.0
C1354 C 0.4419 0.04055 0.18325 0.0
C1355 C 0.46642 0.02105 0.22051 0.0
N1356 N 0.46294 0.04225 0.13541 0.0
N1357 N 0.47422 0.0209 0.19711 0.0
H1358 H 0.78473 0.7189 0.94738 0.0
H1359 H 0.74837 0.71832 0.8046 0.0
H1360 H 0.76248 0.64717 0.90111 0.0
H1361 H 0.80598 0.77574 0.8417 0.0
H1362 H 0.74867 0.69337 0.84053 0.0
H1363 H 0.78765 0.74175 0.90996 0.0
C1364 C 0.78036 0.70794 0.92932 0.0
C1365 C 0.77329 0.68106 0.92736 0.0
C1366 C 0.76141 0.71128 0.84066 0.0
C1367 C 0.77636 0.70725 0.88444 0.0
C1368 C 0.76139 0.7255 0.8201 0.0
C1369 C 0.77756 0.74894 0.81987 0.0
C1370 C 0.77714 0.72096 0.86157 0.0
C1371 C 0.79336 0.75768 0.84096 0.0
C1372 C 0.7822 0.72101 0.90799 0.0
C1373 C 0.76802 0.66788 0.90344 0.0
N1374 N 0.79259 0.74384 0.86106 0.0
N1375 N 0.76939 0.68114 0.88289 0.0
H1376 H 0.80929 0.06585 0.03412 0.0
H1377 H 0.92714 0.04816 0.96279 0.0
H1378 H 0.84972 0.12373 0.99343 0.0
H1379 H 0.9105 0.01183 0.02981 0.0
H1380 H 0.89179 0.06851 0.96701 0.0
H1381 H 0.84046 0.03934 0.02703 0.0
C1382 C 0.82469 0.07296 0.02376 0.0
C1383 C 0.82705 0.0971 0.01452 0.0
C1384 C 0.89569 0.05579 0.9806 0.0
C1385 C 0.8621 0.06676 0.00579 0.0
C1386 C 0.91572 0.04399 0.97808 0.0
C1387 C 0.92178 0.02841 0.99605 0.0
C1388 C 0.88147 0.05179 0.00109 0.0
C1389 C 0.90642 0.02378 0.01558 0.0
C1390 C 0.84237 0.05786 0.0197 0.0
C1391 C 0.84728 0.10538 0.00111 0.0
N1392 N 0.88698 0.03556 0.01769 0.0
N1393 N 0.8639 0.09019 0.99702 0.0
H1394 H 0.33364 0.44761 0.04956 0.0
H1395 H 0.46335 0.47411 0.99255 0.0
H1396 H 0.35833 0.39452 0.99578 0.0
H1397 H 0.45109 0.51024 0.06426 0.0
H1398 H 0.42222 0.44951 0.98981 0.0
H1399 H 0.37398 0.47523 0.05192 0.0
C1400 C 0.34744 0.44182 0.03818 0.0
C1401 C 0.34257 0.41859 0.02255 0.0
C1402 C 0.42839 0.46299 0.00608 0.0
C1403 C 0.38854 0.4502 0.02494 0.0
C1404 C 0.45181 0.47737 0.00743 0.0
C1405 C 0.46048 0.49476 0.0283 0.0
C1406 C 0.41331 0.46606 0.02573 0.0
C1407 C 0.445 0.49714 0.04772 0.0
C1408 C 0.37046 0.45752 0.03962 0.0
C1409 C 0.36122 0.41208 0.00827 0.0
N1410 N 0.42208 0.48309 0.04592 0.0
N1411 N 0.38322 0.42779 0.00972 0.0
H1412 H 0.32005 0.57516 0.72188 0.0
H1413 H 0.32095 0.71861 0.78361 0.0
H1414 H 0.38071 0.62293 0.76484 0.0
H1415 H 0.26427 0.67824 0.73047 0.0
H1416 H 0.34086 0.68162 0.77969 0.0
H1417 H 0.29775 0.61084 0.72664 0.0
C1418 C 0.32874 0.59315 0.73218 0.0
C1419 C 0.35237 0.59602 0.74291 0.0
C1420 C 0.324 0.68071 0.76895 0.0
C1421 C 0.32679 0.6368 0.74873 0.0
C1422 C 0.31247 0.70186 0.77128 0.0
C1423 C 0.29082 0.70173 0.75731 0.0
C1424 C 0.31393 0.65898 0.75252 0.0
C1425 C 0.28086 0.67928 0.74169 0.0
C1426 C 0.31596 0.61349 0.73495 0.0
C1427 C 0.36262 0.61977 0.75615 0.0
N1428 N 0.29254 0.65887 0.73963 0.0
N1429 N 0.34978 0.6391 0.75874 0.0
H1430 H 0.18685 0.65375 0.47917 0.0
H1431 H 0.09065 0.55634 0.54519 0.0
H1432 H 0.20867 0.60257 0.52976 0.0
H1433 H 0.07642 0.58308 0.47387 0.0
H1434 H 0.13281 0.57922 0.54543 0.0
H1435 H 0.14473 0.63377 0.48258 0.0
C1436 C 0.18279 0.63836 0.49104 0.0
C1437 C 0.20132 0.6297 0.50406 0.0
C1438 C 0.12032 0.58009 0.52984 0.0
C1439 C 0.15314 0.60697 0.50826 0.0
C1440 C 0.09633 0.56724 0.52979 0.0
C1441 C 0.08016 0.56772 0.50942 0.0
C1442 C 0.12784 0.59386 0.50965 0.0
C1443 C 0.08837 0.58199 0.48983 0.0
C1444 C 0.15876 0.62694 0.49295 0.0
C1445 C 0.19496 0.60965 0.51919 0.0
N1446 N 0.11159 0.59451 0.49046 0.0
N1447 N 0.17135 0.59899 0.52095 0.0
H1448 H 0.69969 0.97054 0.71885 0.0
H1449 H 0.73502 0.86385 0.80069 0.0
H1450 H 0.65221 0.93226 0.76997 0.0
H1451 H 0.76424 0.87644 0.72938 0.0
H1452 H 0.71012 0.89635 0.79488 0.0
H1453 H 0.72821 0.94203 0.7267 0.0
C1454 C 0.6952 0.956 0.73157 0.0
C1455 C 0.67353 0.95358 0.74368 0.0
C1456 C 0.72224 0.89221 0.78068 0.0
C1457 C 0.70624 0.92159 0.7532 0.0
C1458 C 0.73664 0.87395 0.78412 0.0
C1459 C 0.75158 0.86751 0.76543 0.0
C1460 C 0.72307 0.90425 0.75856 0.0
C1461 C 0.75288 0.88092 0.74419 0.0
C1462 C 0.71149 0.93986 0.73609 0.0
C1463 C 0.66862 0.93456 0.76007 0.0
N1464 N 0.73867 0.89864 0.74124 0.0
N1465 N 0.68497 0.91939 0.76452 0.0
H1466 H 0.72411 0.96414 0.54992 0.0
H1467 H 0.59728 0.96906 0.4802 0.0
H1468 H 0.68264 0.90056 0.5019 0.0
H1469 H 0.623 0.01749 0.54802 0.0
H1470 H 0.63172 0.94731 0.48451 0.0
H1471 H 0.69008 0.98709 0.54684 0.0
C1472 C 0.70783 0.95494 0.53888 0.0
C1473 C 0.70623 0.93033 0.52622 0.0
C1474 C 0.62991 0.96275 0.49843 0.0
C1475 C 0.66752 0.95669 0.52219 0.0
C1476 C 0.61033 0.9753 0.49587 0.0
C1477 C 0.6073 0.99515 0.51375 0.0
C1478 C 0.64684 0.97026 0.51885 0.0
C1479 C 0.62471 0.0023 0.53379 0.0
C1480 C 0.68845 0.96806 0.53712 0.0
C1481 C 0.6847 0.91941 0.5121 0.0
N1482 N 0.64379 0.98994 0.53578 0.0
N1483 N 0.66635 0.93271 0.51031 0.0
H1484 H 0.39664 0.4361 0.74989 0.0
H1485 H 0.26499 0.34997 0.71927 0.0
H1486 H 0.33611 0.46786 0.72338 0.0
H1487 H 0.32086 0.32902 0.76591 0.0
H1488 H 0.2919 0.39098 0.71459 0.0
H1489 H 0.37028 0.39446 0.74939 0.0
C1490 C 0.37783 0.43437 0.74375 0.0
C1491 C 0.36864 0.45576 0.73679 0.0
C1492 C 0.29826 0.3773 0.72571 0.0
C1493 C 0.33815 0.40766 0.73627 0.0
C1494 C 0.28298 0.35389 0.72831 0.0
C1495 C 0.29073 0.33608 0.74299 0.0
C1496 C 0.32153 0.38273 0.73764 0.0
C1497 C 0.31416 0.34215 0.75437 0.0
C1498 C 0.36273 0.41048 0.74358 0.0
C1499 C 0.34402 0.45202 0.729 0.0
N1500 N 0.3287 0.3649 0.75144 0.0
N1501 N 0.32961 0.42844 0.729 0.0
H1502 H 0.18806 0.57129 0.23874 0.0
H1503 H 0.20769 0.71834 0.21156 0.0
H1504 H 0.1285 0.609 0.22169 0.0
H1505 H 0.25545 0.68841 0.26105 0.0
H1506 H 0.18179 0.67561 0.20487 0.0
H1507 H 0.21598 0.61171 0.23676 0.0
C1508 C 0.18082 0.58799 0.23431 0.0
C1509 C 0.15581 0.58678 0.23058 0.0
C1510 C 0.19814 0.6784 0.2169 0.0
C1511 C 0.18786 0.63306 0.22813 0.0
C1512 C 0.21302 0.70265 0.22054 0.0
C1513 C 0.23367 0.70685 0.23696 0.0
C1514 C 0.20426 0.65825 0.22939 0.0
C1515 C 0.23961 0.68596 0.24836 0.0
C1516 C 0.19681 0.61105 0.23326 0.0
C1517 C 0.14759 0.60912 0.22492 0.0
N1518 N 0.22494 0.66254 0.24439 0.0
N1519 N 0.16361 0.63142 0.2239 0.0
H1520 H 0.53718 0.70349 0.40339 0.0
H1521 H 0.47835 0.59248 0.48461 0.0
H1522 H 0.46258 0.68767 0.4212 0.0
H1523 H 0.55438 0.60659 0.47158 0.0
H1524 H 0.47261 0.62586 0.45865 0.0
H1525 H 0.54395 0.66564 0.42404 0.0
C1526 C 0.52212 0.69155 0.41096 0.0
C1527 C 0.49931 0.6985 0.41069 0.0
C1528 C 0.49062 0.62182 0.4614 0.0
C1529 C 0.50691 0.65603 0.43462 0.0
C1530 C 0.49395 0.60273 0.47637 0.0
C1531 C 0.5169 0.59667 0.48029 0.0
C1532 C 0.51037 0.63522 0.45015 0.0
C1533 C 0.5364 0.6108 0.46918 0.0
C1534 C 0.52603 0.67024 0.42299 0.0
C1535 C 0.48044 0.68287 0.4211 0.0
N1536 N 0.53269 0.62947 0.45451 0.0
N1537 N 0.4847 0.66253 0.43277 0.0
H1538 H 0.63808 0.32959 0.64676 0.0
H1539 H 0.69413 0.32745 0.78431 0.0
H1540 H 0.59125 0.31664 0.70737 0.0
H1541 H 0.71917 0.29093 0.7184 0.0
H1542 H 0.66041 0.3373 0.75838 0.0
H1543 H 0.67285 0.33083 0.67558 0.0
C1544 C 0.63506 0.32747 0.6662 0.0
C1545 C 0.61159 0.32256 0.67454 0.0
C1546 C 0.67367 0.32757 0.74972 0.0
C1547 C 0.65149 0.32421 0.7076 0.0
C1548 C 0.69286 0.32204 0.76439 0.0
C1549 C 0.70972 0.30883 0.75334 0.0
C1550 C 0.67191 0.32035 0.72393 0.0
C1551 C 0.70707 0.30184 0.72756 0.0
C1552 C 0.65495 0.32812 0.68259 0.0
C1553 C 0.60898 0.32011 0.70006 0.0
N1554 N 0.68865 0.30782 0.71373 0.0
N1555 N 0.62873 0.32076 0.71573 0.0
H1556 H 1.00098 0.314 0.94461 0.0
H1557 H 0.97529 0.45641 0.95112 0.0
H1558 H 0.99699 0.35253 0.8779 0.0
H1559 H 0.01707 0.4291 0.00833 0.0
H1560 H 0.97318 0.41525 0.92548 0.0
H1561 H 0.99672 0.35321 0.96951 0.0
C1562 C 0.99905 0.3307 0.93514 0.0
C1563 C 0.99956 0.33012 0.90913 0.0
C1564 C 0.98256 0.4183 0.94376 0.0
C1565 C 0.99447 0.37499 0.93768 0.0
C1566 C 0.98356 0.44154 0.95846 0.0
C1567 C 0.99635 0.44598 0.98183 0.0
C1568 C 0.99395 0.39935 0.95285 0.0
C1569 C 0.00709 0.42637 0.99039 0.0
C1570 C 0.99667 0.35306 0.94943 0.0
C1571 C 0.9969 0.35232 0.89793 0.0
N1572 N 0.00559 0.40385 0.97591 0.0
N1573 N 0.99445 0.37401 0.91233 0.0
H1574 H 0.95349 0.79068 0.14704 0.0
H1575 H 0.87616 0.73496 0.25473 0.0
H1576 H 0.98852 0.75802 0.20567 0.0
H1577 H 0.86947 0.80715 0.22712 0.0
H1578 H 0.91333 0.73514 0.23225 0.0
H1579 H 0.91724 0.7876 0.17063 0.0
C1580 C 0.95342 0.78241 0.16466 0.0
C1581 C 0.97407 0.77465 0.17447 0.0
C1582 C 0.90372 0.75097 0.23136 0.0
C1583 C 0.93264 0.77106 0.20142 0.0
C1584 C 0.88265 0.75091 0.24415 0.0
C1585 C 0.8699 0.77114 0.24283 0.0
C1586 C 0.91148 0.77096 0.21662 0.0
C1587 C 0.87888 0.79129 0.22876 0.0
C1588 C 0.93282 0.7809 0.17818 0.0
C1589 C 0.97298 0.76428 0.19752 0.0
N1590 N 0.89893 0.79051 0.21591 0.0
N1591 N 0.95253 0.7627 0.21026 0.0
H1592 H 0.49193 0.30899 0.05831 0.0
H1593 H 0.54857 0.45714 0.05808 0.0
H1594 H 0.51922 0.35855 0.12512 0.0
H1595 H 0.49365 0.41843 0.00212 0.0
H1596 H 0.54429 0.41836 0.0792 0.0
H1597 H 0.49826 0.34642 0.03437 0.0
C1598 C 0.49939 0.32774 0.06792 0.0
C1599 C 0.50507 0.33074 0.09376 0.0
C1600 C 0.53326 0.41829 0.06224 0.0
C1601 C 0.51252 0.3734 0.06643 0.0
C1602 C 0.53573 0.44043 0.04998 0.0
C1603 C 0.52128 0.44123 0.02824 0.0
C1604 C 0.51643 0.39651 0.05268 0.0
C1605 C 0.50512 0.41874 0.0188 0.0
C1606 C 0.50287 0.34904 0.05424 0.0
C1607 C 0.51455 0.35543 0.10527 0.0
N1608 N 0.50309 0.39724 0.03112 0.0
N1609 N 0.51811 0.37581 0.09148 0.0
H1610 H 0.97944 0.29402 0.34435 0.0
H1611 H 0.8388 0.29583 0.35046 0.0
H1612 H 0.9433 0.2931 0.41316 0.0
H1613 H 0.8799 0.32578 0.29067 0.0
H1614 H 0.87641 0.29163 0.37278 0.0
H1615 H 0.94242 0.30151 0.3228 0.0
C1616 C 0.9637 0.29514 0.35487 0.0
C1617 C 0.9645 0.29288 0.38061 0.0
C1618 C 0.87726 0.29942 0.35491 0.0
C1619 C 0.92219 0.3015 0.35612 0.0
C1620 C 0.85581 0.30194 0.34224 0.0
C1621 C 0.85628 0.31134 0.3188 0.0
C1622 C 0.89933 0.30581 0.34382 0.0
C1623 C 0.87879 0.3187 0.30885 0.0
C1624 C 0.94267 0.29966 0.34262 0.0
C1625 C 0.94359 0.29479 0.39334 0.0
N1626 N 0.89942 0.31548 0.32126 0.0
N1627 N 0.92332 0.29884 0.38097 0.0
H1628 H 0.98904 0.68614 0.61196 0.0
H1629 H 0.95609 0.59123 0.48675 0.0
H1630 H 0.95674 0.70652 0.54455 0.0
H1631 H 0.00763 0.58239 0.54527 0.0
H1632 H 0.94554 0.62745 0.51271 0.0
H1633 H 0.98401 0.64156 0.59305 0.0
C1634 C 0.98001 0.68099 0.59358 0.0
C1635 C 0.97352 0.69993 0.57962 0.0
C1636 C 0.95886 0.61727 0.51999 0.0
C1637 C 0.96816 0.64945 0.55781 0.0
C1638 C 0.96493 0.59671 0.50517 0.0
C1639 C 0.98288 0.58402 0.51383 0.0
C1640 C 0.97079 0.62505 0.54361 0.0
C1641 C 0.9937 0.59171 0.53789 0.0
C1642 C 0.97741 0.65567 0.58268 0.0
C1643 C 0.96218 0.69241 0.55577 0.0
N1644 N 0.98762 0.61185 0.55188 0.0
N1645 N 0.96017 0.66781 0.54545 0.0
H1646 H 0.61692 0.79115 0.87184 0.0
H1647 H 0.6779 0.71724 0.76754 0.0
H1648 H 0.57021 0.73531 0.81987 0.0
H1649 H 0.69704 0.79962 0.78487 0.0
H1650 H 0.64113 0.71762 0.79064 0.0
H1651 H 0.65043 0.78814 0.84523 0.0
C1652 C 0.61376 0.77803 0.85495 0.0
C1653 C 0.59072 0.76351 0.84802 0.0
C1654 C 0.65335 0.73554 0.789 0.0
C1655 C 0.62914 0.7598 0.81764 0.0
C1656 C 0.67428 0.73537 0.77585 0.0
C1657 C 0.69066 0.75841 0.7742 0.0
C1658 C 0.64929 0.75876 0.80111 0.0
C1659 C 0.68504 0.78134 0.78548 0.0
C1660 C 0.63286 0.77647 0.83972 0.0
C1661 C 0.58769 0.74692 0.8258 0.0
N1662 N 0.66512 0.78085 0.79875 0.0
N1663 N 0.60678 0.74534 0.81141 0.0
H1664 H 0.46289 0.58157 0.69902 0.0
H1665 H 0.47683 0.51604 0.56556 0.0
H1666 H 0.40452 0.52805 0.65854 0.0
H1667 H 0.5204 0.58952 0.59276 0.0
H1668 H 0.44994 0.52059 0.59917 0.0
H1669 H 0.48359 0.58636 0.66032 0.0
C1670 C 0.45409 0.57147 0.68175 0.0
C1671 C 0.43187 0.5546 0.68187 0.0
C1672 C 0.46517 0.53592 0.59764 0.0
C1673 C 0.45594 0.55905 0.63772 0.0
C1674 C 0.48059 0.53335 0.57843 0.0
C1675 C 0.50081 0.55257 0.57617 0.0
C1676 C 0.47031 0.55754 0.61531 0.0
C1677 C 0.50498 0.57428 0.59375 0.0
C1678 C 0.46598 0.57408 0.65971 0.0
C1679 C 0.42145 0.54155 0.65914 0.0
N1680 N 0.49004 0.57604 0.61277 0.0
N1681 N 0.4338 0.54363 0.63805 0.0
H1682 H 0.75574 0.13791 0.9343 0.0
H1683 H 0.78673 0.27326 0.88005 0.0
H1684 H 0.78509 0.20851 0.98016 0.0
H1685 H 0.73092 0.21239 0.84506 0.0
H1686 H 0.78975 0.24817 0.91552 0.0
H1687 H 0.74983 0.16324 0.89931 0.0
C1688 C 0.7609 0.15866 0.93697 0.0
C1689 C 0.7709 0.17117 0.96005 0.0
C1690 C 0.77669 0.24042 0.90017 0.0
C1691 C 0.76446 0.19998 0.92046 0.0
C1692 C 0.77497 0.25472 0.88 0.0
C1693 C 0.75849 0.24486 0.85981 0.0
C1694 C 0.76215 0.21593 0.89983 0.0
C1695 C 0.74374 0.22068 0.86046 0.0
C1696 C 0.75744 0.17307 0.91713 0.0
C1697 C 0.77726 0.1981 0.96266 0.0
N1698 N 0.74607 0.20686 0.8801 0.0
N1699 N 0.7741 0.21158 0.94306 0.0
H1700 H 0.12353 0.49179 0.15743 0.0
H1701 H 0.99545 0.46291 0.08215 0.0
H1702 H 0.05731 0.4587 0.18857 0.0
H1703 H 0.05624 0.52154 0.07025 0.0
H1704 H 0.02088 0.44684 0.11316 0.0
H1705 H 0.1023 0.48539 0.11614 0.0
C1706 C 0.10482 0.48213 0.1554 0.0
C1707 C 0.0919 0.47642 0.17636 0.0
C1708 C 0.02872 0.46276 0.10314 0.0
C1709 C 0.06755 0.46963 0.12967 0.0
C1710 C 0.01423 0.47204 0.08571 0.0
C1711 C 0.02394 0.49341 0.07355 0.0
C1712 C 0.05299 0.47489 0.10806 0.0
C1713 C 0.0483 0.50459 0.0787 0.0
C1714 C 0.09264 0.47873 0.13191 0.0
C1715 C 0.06767 0.46392 0.17278 0.0
N1716 N 0.06196 0.49528 0.0956 0.0
N1717 N 0.05605 0.4615 0.14992 0.0
H1718 H 0.77999 0.9041 0.43972 0.0
H1719 H 0.75019 0.77583 0.34888 0.0
H1720 H 0.7587 0.82955 0.46607 0.0
H1721 H 0.80605 0.83774 0.33227 0.0
H1722 H 0.7492 0.79755 0.3906 0.0
H1723 H 0.78612 0.88264 0.39863 0.0
C1724 C 0.77666 0.88329 0.43688 0.0
C1725 C 0.76872 0.86857 0.45627 0.0
C1726 C 0.76184 0.80631 0.37794 0.0
C1727 C 0.77539 0.84411 0.40959 0.0
C1728 C 0.76239 0.79396 0.35414 0.0
C1729 C 0.77832 0.80498 0.33723 0.0
C1730 C 0.77688 0.83024 0.38475 0.0
C1731 C 0.79371 0.82853 0.34494 0.0
C1732 C 0.78029 0.87111 0.41355 0.0
C1733 C 0.7648 0.84167 0.45167 0.0
N1734 N 0.79239 0.84063 0.36811 0.0
N1735 N 0.7679 0.83035 0.42878 0.0
H1736 H 0.44209 0.5174 0.78994 0.0
H1737 H 0.4287 0.50024 0.93325 0.0
H1738 H 0.37627 0.52379 0.82575 0.0
H1739 H 0.48434 0.47408 0.89117 0.0
H1740 H 0.40807 0.5072 0.89428 0.0
H1741 H 0.45725 0.50076 0.82684 0.0
C1742 C 0.43075 0.51523 0.80555 0.0
C1743 C 0.40789 0.52212 0.80477 0.0
C1744 C 0.42455 0.49949 0.89351 0.0
C1745 C 0.42531 0.50314 0.84736 0.0
C1746 C 0.43628 0.49542 0.91573 0.0
C1747 C 0.45831 0.48669 0.91539 0.0
C1748 C 0.43516 0.49521 0.87083 0.0
C1749 C 0.46739 0.48081 0.89225 0.0
C1750 C 0.43941 0.50558 0.82662 0.0
C1751 C 0.39403 0.5188 0.8256 0.0
N1752 N 0.45598 0.48557 0.87092 0.0
N1753 N 0.40307 0.50978 0.84617 0.0
H1754 H 0.82727 0.18814 0.0904 0.0
H1755 H 0.76513 0.27193 0.1818 0.0
H1756 H 0.75059 0.17016 0.09821 0.0
H1757 H 0.83257 0.25304 0.20717 0.0
H1758 H 0.76132 0.2375 0.14764 0.0
H1759 H 0.83218 0.21311 0.13163 0.0
C1760 C 0.81168 0.18843 0.10137 0.0
C1761 C 0.78855 0.17693 0.09129 0.0
C1762 C 0.77682 0.24075 0.16089 0.0
C1763 C 0.79376 0.2064 0.13713 0.0
C1764 C 0.77886 0.26025 0.18036 0.0
C1765 C 0.79866 0.26472 0.19767 0.0
C1766 C 0.79517 0.22621 0.15833 0.0
C1767 C 0.81688 0.25008 0.19422 0.0
C1768 C 0.81441 0.20291 0.12463 0.0
C1769 C 0.76873 0.17854 0.10567 0.0
N1770 N 0.81479 0.2315 0.1748 0.0
N1771 N 0.77168 0.1936 0.12764 0.0
H1772 H 0.08364 0.53769 0.28139 0.0
H1773 H 0.06376 0.49781 0.41715 0.0
H1774 H 0.13896 0.51383 0.32648 0.0
H1775 H 0.0214 0.54744 0.38407 0.0
H1776 H 0.09027 0.50174 0.38279 0.0
H1777 H 0.06018 0.54143 0.31802 0.0
C1778 C 0.09103 0.53369 0.29916 0.0
C1779 C 0.11313 0.52522 0.301 0.0
C1780 C 0.07525 0.51186 0.38305 0.0
C1781 C 0.08618 0.52888 0.34269 0.0
C1782 C 0.05994 0.50941 0.40249 0.0
C1783 C 0.04033 0.52226 0.4033 0.0
C1784 C 0.07076 0.52701 0.36407 0.0
C1785 C 0.03627 0.53712 0.38396 0.0
C1786 C 0.07762 0.53581 0.32001 0.0
C1787 C 0.122 0.52043 0.32438 0.0
N1788 N 0.05135 0.539 0.36496 0.0
N1789 N 0.10825 0.52188 0.34431 0.0
H1790 H 0.77224 0.88259 0.60654 0.0
H1791 H 0.71679 0.75603 0.67084 0.0
H1792 H 0.72963 0.81433 0.5665 0.0
H1793 H 0.77814 0.81179 0.70298 0.0
H1794 H 0.71452 0.78183 0.63564 0.0
H1795 H 0.7672 0.86186 0.64552 0.0
C1796 C 0.76121 0.8636 0.6061 0.0
C1797 C 0.75125 0.85015 0.58335 0.0
C1798 C 0.72829 0.78858 0.65057 0.0
C1799 C 0.74567 0.82626 0.62755 0.0
C1800 C 0.72959 0.77384 0.67065 0.0
C1801 C 0.74759 0.78182 0.68996 0.0
C1802 C 0.74503 0.81157 0.64983 0.0
C1803 C 0.76374 0.8051 0.68871 0.0
C1804 C 0.75857 0.85165 0.62824 0.0
C1805 C 0.73755 0.82535 0.58369 0.0
N1806 N 0.76211 0.81911 0.669 0.0
N1807 N 0.73524 0.81419 0.60535 0.0
H1808 H 0.72325 0.46734 0.53817 0.0
H1809 H 0.62064 0.53332 0.48286 0.0
H1810 H 0.67434 0.43219 0.47577 0.0
H1811 H 0.62597 0.52826 0.5622 0.0
H1812 H 0.65279 0.50835 0.47798 0.0
H1813 H 0.69804 0.50043 0.54553 0.0
C1814 C 0.70722 0.46661 0.52611 0.0
C1815 C 0.70061 0.44697 0.50651 0.0
C1816 C 0.64728 0.5133 0.4965 0.0
C1817 C 0.67276 0.48493 0.5141 0.0
C1818 C 0.62912 0.5277 0.49936 0.0
C1819 C 0.62051 0.53255 0.52295 0.0
C1820 C 0.65716 0.50419 0.51742 0.0
C1821 C 0.63208 0.52473 0.54369 0.0
C1822 C 0.69301 0.48541 0.53027 0.0
C1823 C 0.67984 0.44683 0.49127 0.0
N1824 N 0.64979 0.51063 0.54044 0.0
N1825 N 0.66678 0.46571 0.49521 0.0
H1826 H 0.17104 0.1568 0.49548 0.0
H1827 H 0.09202 0.0202 0.4525 0.0
H1828 H 0.20427 0.09416 0.46651 0.0
H1829 H 0.07485 0.06733 0.51606 0.0
H1830 H 0.13154 0.04861 0.45277 0.0
H1831 H 0.13324 0.12627 0.49789 0.0
C1832 C 0.17032 0.13667 0.4894 0.0
C1833 C 0.19082 0.12801 0.4807 0.0
C1834 C 0.11918 0.05254 0.46679 0.0
C1835 C 0.14765 0.0931 0.48336 0.0
C1836 C 0.0967 0.03637 0.46668 0.0
C1837 C 0.08019 0.04147 0.48429 0.0
C1838 C 0.12488 0.07434 0.48419 0.0
C1839 C 0.08705 0.06271 0.50218 0.0
C1840 C 0.14884 0.11926 0.49103 0.0
C1841 C 0.18891 0.10164 0.47335 0.0
N1842 N 0.10876 0.07864 0.50145 0.0
N1843 N 0.16763 0.08512 0.47462 0.0
H1844 H 0.15022 0.92116 0.76123 0.0
H1845 H 0.27616 0.87304 0.76689 0.0
H1846 H 0.2179 0.97433 0.77575 0.0
H1847 H 0.21165 0.82889 0.72719 0.0
H1848 H 0.25559 0.91 0.77244 0.0
H1849 H 0.17252 0.88642 0.75133 0.0
C1850 C 0.16978 0.92556 0.76226 0.0
C1851 C 0.18217 0.95075 0.7693 0.0
C1852 C 0.24609 0.89226 0.76228 0.0
C1853 C 0.20792 0.91088 0.75827 0.0
C1854 C 0.25786 0.87116 0.75903 0.0
C1855 C 0.24572 0.84765 0.74656 0.0
C1856 C 0.22188 0.88977 0.75337 0.0
C1857 C 0.22188 0.84647 0.73696 0.0
C1858 C 0.18252 0.90571 0.75654 0.0
C1859 C 0.20757 0.95524 0.77031 0.0
N1860 N 0.21073 0.86702 0.74081 0.0
N1861 N 0.2196 0.9355 0.76509 0.0
H1862 H 0.30742 0.9413 0.95999 0.0
H1863 H 0.43845 0.95215 0.01709 0.0
H1864 H 0.3328 0.87342 0.97958 0.0
H1865 H 0.42712 0.9931 0.95349 0.0
H1866 H 0.39771 0.92646 0.00873 0.0
H1867 H 0.34948 0.96433 0.96189 0.0
C1868 C 0.32186 0.93122 0.96447 0.0
C1869 C 0.31672 0.90547 0.96965 0.0
C1870 C 0.40424 0.94098 0.99655 0.0
C1871 C 0.36443 0.93173 0.97242 0.0
C1872 C 0.42731 0.95571 0.00139 0.0
C1873 C 0.43597 0.97472 0.98596 0.0
C1874 C 0.38951 0.94585 0.97661 0.0
C1875 C 0.421 0.97851 0.96573 0.0
C1876 C 0.34575 0.94431 0.96544 0.0
C1877 C 0.33603 0.89323 0.97533 0.0
N1878 N 0.39824 0.96444 0.96182 0.0
N1879 N 0.35906 0.90663 0.97702 0.0
H1880 H 0.84239 0.55563 0.74062 0.0
H1881 H 0.79051 0.67418 0.78977 0.0
H1882 H 0.88841 0.62287 0.77908 0.0
H1883 H 0.77662 0.65219 0.71072 0.0
H1884 H 0.81869 0.64455 0.79116 0.0
H1885 H 0.81154 0.58185 0.7327 0.0
C1886 C 0.84614 0.57595 0.74702 0.0
C1887 C 0.86789 0.58717 0.7606 0.0
C1888 C 0.80918 0.64598 0.7736 0.0
C1889 C 0.83275 0.61659 0.75227 0.0
C1890 C 0.79297 0.66266 0.77277 0.0
C1891 C 0.78144 0.6658 0.75001 0.0
C1892 C 0.81358 0.63192 0.75166 0.0
C1893 C 0.78523 0.65029 0.7286 0.0
C1894 C 0.8286 0.59077 0.74246 0.0
C1895 C 0.87192 0.61351 0.76851 0.0
N1896 N 0.80119 0.63393 0.72989 0.0
N1897 N 0.85426 0.62723 0.76469 0.0
H1898 H 0.8506 0.65071 0.99495 0.0
H1899 H 0.89832 0.52269 0.02555 0.0
H1900 H 0.80251 0.58146 0.00944 0.0
H1901 H 0.94192 0.58763 0.99686 0.0
H1902 H 0.86331 0.54433 0.02289 0.0
H1903 H 0.88473 0.62869 -0.00065 0.0
C1904 C 0.84721 0.63091 0.99924 0.0
C1905 C 0.8236 0.61794 0.00178 0.0
C1906 C 0.88056 0.55379 0.01716 0.0
C1907 C 0.86278 0.59241 0.00676 0.0
C1908 C 0.9005 0.54144 0.01867 0.0
C1909 C 0.92304 0.55338 0.01141 0.0
C1910 C 0.8833 0.57832 0.00855 0.0
C1911 C 0.92489 0.57769 0.00265 0.0
C1912 C 0.86674 0.61827 0.00164 0.0
C1913 C 0.8204 0.59222 0.00729 0.0
N1914 N 0.90538 0.58934 0.00156 0.0
N1915 N 0.83973 0.5803 0.00958 0.0
H1916 H 0.20277 0.07305 0.80985 0.0
H1917 H 0.2213 0.20945 0.75895 0.0
H1918 H 0.14309 0.11147 0.79588 0.0
H1919 H 0.27564 0.1901 0.80865 0.0
H1920 H 0.19322 0.17124 0.7683 0.0
H1921 H 0.23085 0.11345 0.80607 0.0
C1922 C 0.19556 0.09001 0.80625 0.0
C1923 C 0.1705 0.08883 0.8032 0.0
C1924 C 0.21121 0.17548 0.77736 0.0
C1925 C 0.20253 0.13484 0.79829 0.0
C1926 C 0.22721 0.19736 0.77212 0.0
C1927 C 0.25067 0.20325 0.7834 0.0
C1928 C 0.21891 0.15888 0.79348 0.0
C1929 C 0.25763 0.18636 0.79968 0.0
C1930 C 0.21159 0.11303 0.80413 0.0
C1931 C 0.16221 0.11144 0.79852 0.0
N1932 N 0.24189 0.16478 0.80408 0.0
N1933 N 0.17817 0.13337 0.79586 0.0
H1934 H 0.40666 0.95065 0.32634 0.0
H1935 H 0.27886 0.87912 0.26828 0.0
H1936 H 0.3529 0.99008 0.29652 0.0
H1937 H 0.31797 0.8457 0.32315 0.0
H1938 H 0.30638 0.92015 0.27872 0.0
H1939 H 0.37532 0.91181 0.32593 0.0
C1940 C 0.38832 0.95127 0.31998 0.0
C1941 C 0.38256 0.97357 0.31105 0.0
C1942 C 0.30876 0.90399 0.28882 0.0
C1943 C 0.34685 0.92942 0.31045 0.0
C1944 C 0.29303 0.88061 0.28286 0.0
C1945 C 0.29618 0.85914 0.29493 0.0
C1946 C 0.32818 0.90573 0.30651 0.0
C1947 C 0.31486 0.86197 0.31361 0.0
C1948 C 0.37046 0.92916 0.31982 0.0
C1949 C 0.35841 0.97329 0.30319 0.0
N1950 N 0.33051 0.88479 0.31855 0.0
N1951 N 0.3416 0.95154 0.30279 0.0
H1952 H 0.51501 0.3746 0.64442 0.0
H1953 H 0.55929 0.45278 0.53071 0.0
H1954 H 0.55898 0.3454 0.58931 0.0
H1955 H 0.49167 0.45665 0.56396 0.0
H1956 H 0.56457 0.41796 0.55618 0.0
H1957 H 0.51215 0.41063 0.61979 0.0
C1958 C 0.52435 0.376 0.62735 0.0
C1959 C 0.53714 0.35702 0.61877 0.0
C1960 C 0.54855 0.42642 0.55772 0.0
C1961 C 0.53395 0.39792 0.59067 0.0
C1962 C 0.54549 0.44618 0.5432 0.0
C1963 C 0.52492 0.45746 0.54509 0.0
C1964 C 0.53118 0.41838 0.57461 0.0
C1965 C 0.50766 0.4483 0.56168 0.0
C1966 C 0.52254 0.39638 0.61323 0.0
C1967 C 0.54881 0.35961 0.59646 0.0
N1968 N 0.51129 0.42946 0.57597 0.0
N1969 N 0.54696 0.37973 0.58314 0.0
H1970 H 0.40529 0.77031 0.38521 0.0
H1971 H 0.34456 0.75515 0.24639 0.0
H1972 H 0.44524 0.75771 0.32018 0.0
H1973 H 0.31128 0.77886 0.31276 0.0
H1974 H 0.38019 0.75068 0.27251 0.0
H1975 H 0.36921 0.76802 0.35836 0.0
C1976 C 0.40653 0.76703 0.36525 0.0
C1977 C 0.4285 0.76445 0.35499 0.0
C1978 C 0.36493 0.75661 0.2813 0.0
C1979 C 0.38689 0.76183 0.3239 0.0
C1980 C 0.34462 0.75907 0.26644 0.0
C1981 C 0.32496 0.76734 0.2775 0.0
C1982 C 0.36535 0.76236 0.30729 0.0
C1983 C 0.32593 0.77227 0.30349 0.0
C1984 C 0.38582 0.7657 0.34987 0.0
C1985 C 0.42875 0.75996 0.32892 0.0
N1986 N 0.34576 0.76978 0.31745 0.0
N1987 N 0.40826 0.75893 0.31423 0.0
H1988 H 0.04662 0.71333 0.13613 0.0
H1989 H 0.01248 0.61158 0.01746 0.0
H1990 H 0.03706 0.73449 0.06152 0.0
H1991 H 0.05692 0.59545 0.07891 0.0
H1992 H 0.01631 0.65578 0.03615 0.0
H1993 H 0.04501 0.66845 0.11849 0.0
C1994 C 0.04396 0.70848 0.11615 0.0
C1995 C 0.04198 0.72755 0.10022 0.0
C1996 C 0.02544 0.6427 0.04548 0.0
C1997 C 0.04013 0.67686 0.08018 0.0
C1998 C 0.02332 0.61756 0.0348 0.0
C1999 C 0.03463 0.60014 0.04661 0.0
C2000 C 0.03852 0.65035 0.06846 0.0
C2001 C 0.04827 0.6086 0.06915 0.0
C2002 C 0.04331 0.68306 0.10613 0.0
C2003 C 0.03879 0.72042 0.07446 0.0
N2004 N 0.04965 0.6332 0.0796 0.0
N2005 N 0.03784 0.69567 0.06528 0.0
H2006 H 0.08558 0.29142 0.87115 0.0
H2007 H 0.15723 0.23184 0.76441 0.0
H2008 H 0.04741 0.23927 0.81042 0.0
H2009 H 0.18158 0.30752 0.8029 0.0
H2010 H 0.1182 0.22996 0.78361 0.0
H2011 H 0.12283 0.29285 0.84953 0.0
C2012 C 0.08506 0.28013 0.85331 0.0
C2013 C 0.06336 0.26522 0.84254 0.0
C2014 C 0.13207 0.24702 0.78762 0.0
C2015 C 0.10603 0.26669 0.81776 0.0
C2016 C 0.15427 0.2481 0.77671 0.0
C2017 C 0.17256 0.26989 0.78208 0.0
C2018 C 0.12851 0.26762 0.80438 0.0
C2019 C 0.16792 0.2904 0.7982 0.0
C2020 C 0.1063 0.2811 0.84092 0.0
C2021 C 0.06376 0.25108 0.81932 0.0
N2022 N 0.14647 0.28865 0.80899 0.0
N2023 N 0.08483 0.25201 0.80772 0.0
H2024 H 0.55301 0.72558 0.96545 0.0
H2025 H 0.50157 0.57518 0.94541 0.0
H2026 H 0.51822 0.6876 0.89579 0.0
H2027 H 0.54942 0.61161 0.0083 0.0
H2028 H 0.50734 0.61585 0.92695 0.0
H2029 H 0.55268 0.68387 0.98089 0.0
C2030 C 0.54557 0.70835 0.95326 0.0
C2031 C 0.53548 0.71001 0.92935 0.0
C2032 C 0.51662 0.61495 0.94475 0.0
C2033 C 0.53461 0.66206 0.94715 0.0
C2034 C 0.5132 0.59174 0.95548 0.0
C2035 C 0.52482 0.58995 0.97868 0.0
C2036 C 0.53165 0.63669 0.95732 0.0
C2037 C 0.53991 0.61207 0.99053 0.0
C2038 C 0.54536 0.68453 0.96212 0.0
C2039 C 0.52623 0.68712 0.9143 0.0
N2040 N 0.54277 0.63454 0.97979 0.0
N2041 N 0.52568 0.66402 0.9236 0.0
H2042 H 0.05392 0.75881 0.66806 0.0
H2043 H 0.19533 0.75642 0.6629 0.0
H2044 H 0.09422 0.7718 0.60277 0.0
H2045 H 0.15488 0.73776 0.72681 0.0
H2046 H 0.15805 0.7609 0.64031 0.0
H2047 H 0.09036 0.7508 0.68993 0.0
C2048 C 0.0704 0.76009 0.65832 0.0
C2049 C 0.07089 0.76606 0.63347 0.0
C2050 C 0.15722 0.7556 0.65919 0.0
C2051 C 0.11273 0.75671 0.65845 0.0
C2052 C 0.17851 0.75291 0.67206 0.0
C2053 C 0.17817 0.74667 0.69674 0.0
C2054 C 0.13539 0.75225 0.67114 0.0
C2055 C 0.1559 0.74248 0.70775 0.0
C2056 C 0.0912 0.75539 0.67081 0.0
C2057 C 0.09285 0.7673 0.62187 0.0
N2058 N 0.13542 0.74554 0.69494 0.0
N2059 N 0.1128 0.7627 0.63444 0.0
H2060 H 0.05873 0.33843 0.45522 0.0
H2061 H 0.0048 0.465 0.4534 0.0
H2062 H 0.03463 0.36374 0.38635 0.0
H2063 H 0.05538 0.45441 0.51212 0.0
H2064 H 0.01408 0.42751 0.42874 0.0
H2065 H 0.05632 0.38017 0.47683 0.0
C2066 C 0.05309 0.35291 0.44462 0.0
C2067 C 0.04676 0.3477 0.41902 0.0
C2068 C 0.02337 0.43359 0.44687 0.0
C2069 C 0.04366 0.39532 0.44367 0.0
C2070 C 0.0181 0.45497 0.46096 0.0
C2071 C 0.02945 0.46284 0.48477 0.0
C2072 C 0.03968 0.41966 0.45693 0.0
C2073 C 0.04623 0.44893 0.49385 0.0
C2074 C 0.05182 0.37674 0.45695 0.0
C2075 C 0.0397 0.3671 0.40611 0.0
N2076 N 0.05066 0.42781 0.48 0.0
N2077 N 0.03799 0.39004 0.41868 0.0
H2078 H 0.46203 0.28658 0.20264 0.0
H2079 H 0.32411 0.22825 0.2143 0.0
H2080 H 0.41621 0.24598 0.14018 0.0
H2081 H 0.35241 0.30535 0.24793 0.0
H2082 H 0.36207 0.2276 0.19472 0.0
H2083 H 0.42589 0.28703 0.22683 0.0
C2084 C 0.44444 0.27744 0.19419 0.0
C2085 C 0.44203 0.26613 0.16943 0.0
C2086 C 0.36004 0.24456 0.20657 0.0
C2087 C 0.40106 0.26633 0.19689 0.0
C2088 C 0.3384 0.24498 0.21791 0.0
C2089 C 0.33493 0.26698 0.2328 0.0
C2090 C 0.37873 0.26605 0.21044 0.0
C2091 C 0.35424 0.28805 0.23652 0.0
C2092 C 0.42391 0.27794 0.20788 0.0
C2093 C 0.41884 0.25489 0.1592 0.0
N2094 N 0.37542 0.28706 0.22546 0.0
N2095 N 0.39931 0.25505 0.17303 0.0
H2096 H 0.57752 0.50302 0.32702 0.0
H2097 H 0.57086 0.50681 0.4751 0.0
H2098 H 0.64031 0.50386 0.37591 0.0
H2099 H 0.50851 0.49348 0.42353 0.0
H2100 H 0.59696 0.50624 0.43986 0.0
H2101 H 0.55253 0.50037 0.3626 0.0
C2102 C 0.58613 0.50268 0.3453 0.0
C2103 C 0.61116 0.50374 0.3484 0.0
C2104 C 0.57758 0.50339 0.43622 0.0
C2105 C 0.58231 0.50067 0.38963 0.0
C2106 C 0.56274 0.50401 0.45633 0.0
C2107 C 0.53761 0.50086 0.4522 0.0
C2108 C 0.56717 0.4997 0.41171 0.0
C2109 C 0.52782 0.49606 0.42754 0.0
C2110 C 0.57174 0.50106 0.36567 0.0
C2111 C 0.62112 0.50311 0.37262 0.0
N2112 N 0.54261 0.4959 0.40826 0.0
N2113 N 0.60668 0.50174 0.39233 0.0
H2114 H 0.23465 0.81755 0.04024 0.0
H2115 H 0.25798 0.85847 0.1853 0.0
H2116 H 0.25517 0.89794 0.06764 0.0
H2117 H 0.27237 0.78783 0.14836 0.0
H2118 H 0.25035 0.87331 0.14428 0.0
H2119 H 0.24 0.80613 0.08225 0.0
C2120 C 0.24018 0.8329 0.05512 0.0
C2121 C 0.24496 0.85879 0.05029 0.0
C2122 C 0.25533 0.85467 0.1453 0.0
C2123 C 0.2511 0.84561 0.09864 0.0
C2124 C 0.25968 0.84622 0.16855 0.0
C2125 C 0.2658 0.82193 0.17003 0.0
C2126 C 0.25667 0.8384 0.12365 0.0
C2127 C 0.26774 0.80669 0.14797 0.0
C2128 C 0.2433 0.82628 0.07912 0.0
C2129 C 0.25151 0.87774 0.07053 0.0
N2130 N 0.26298 0.8151 0.12567 0.0
N2131 N 0.25458 0.87076 0.09397 0.0
H2132 H 0.90587 0.56126 0.8711 0.0
H2133 H 0.97193 0.52307 0.96543 0.0
H2134 H 0.97439 0.5735 0.83729 0.0
H2135 H 0.03382 0.57474 0.94351 0.0
H2136 H 0.94718 0.53553 0.93266 0.0
H2137 H 0.92738 0.5622 0.91174 0.0
C2138 C 0.92541 0.56436 0.87229 0.0
C2139 C 0.93837 0.56662 0.85082 0.0
C2140 C 0.96595 0.54485 0.93537 0.0
C2141 C 0.96297 0.56705 0.89681 0.0
C2142 C 0.98022 0.53755 0.95402 0.0
C2143 C 0.00493 0.54809 0.95732 0.0
C2144 C 0.97653 0.56249 0.91944 0.0
C2145 C 0.0148 0.56625 0.94157 0.0
C2146 C 0.93768 0.56464 0.89539 0.0
C2147 C 0.9637 0.57104 0.85337 0.0
N2148 N 1.00059 0.57259 0.92295 0.0
N2149 N 0.97518 0.57084 0.87592 0.0
H2150 H 0.29074 0.23019 0.55604 0.0
H2151 H 0.22913 0.21481 0.68447 0.0
H2152 H 0.24593 0.15853 0.56924 0.0
H2153 H 0.29834 0.26347 0.67881 0.0
H2154 H 0.23069 0.19683 0.64089 0.0
H2155 H 0.29027 0.2454 0.60013 0.0
C2156 C 0.28115 0.21751 0.5684 0.0
C2157 C 0.26864 0.19299 0.55919 0.0
C2158 C 0.24547 0.21144 0.64932 0.0
C2159 C 0.2672 0.21058 0.60939 0.0
C2160 C 0.24447 0.22188 0.674 0.0
C2161 C 0.26361 0.24066 0.6852 0.0
C2162 C 0.2655 0.22033 0.63576 0.0
C2163 C 0.28322 0.24895 0.67094 0.0
C2164 C 0.28077 0.22622 0.59349 0.0
C2165 C 0.25614 0.1774 0.57583 0.0
N2166 N 0.28357 0.23888 0.64698 0.0
N2167 N 0.25544 0.1866 0.60017 0.0
H2168 H 0.6462 0.51703 0.20656 0.0
H2169 H 0.5534 0.56748 0.1149 0.0
H2170 H 0.57625 0.53294 0.22495 0.0
H2171 H 0.6036 0.52213 0.08508 0.0
H2172 H 0.5689 0.56324 0.15695 0.0
H2173 H 0.63675 0.52472 0.16293 0.0
C2174 C 0.62893 0.52194 0.20154 0.0
C2175 C 0.61215 0.52447 0.21973 0.0
C2176 C 0.57675 0.55441 0.14123 0.0
C2177 C 0.60161 0.5339 0.17029 0.0
C2178 C 0.56803 0.55704 0.11719 0.0
C2179 C 0.57709 0.54501 0.09647 0.0
C2180 C 0.59474 0.53966 0.14473 0.0
C2181 C 0.59607 0.53165 0.10061 0.0
C2182 C 0.62362 0.52644 0.17672 0.0
C2183 C 0.59004 0.53096 0.21198 0.0
N2184 N 0.60417 0.52912 0.12431 0.0
N2185 N 0.5856 0.5356 0.18814 0.0
H2186 H 0.2496 0.89918 0.90461 0.0
H2187 H 0.21945 0.75989 0.82782 0.0
H2188 H 0.21086 0.83198 0.93425 0.0
H2189 H 0.27478 0.82145 0.80922 0.0
H2190 H 0.2129 0.78686 0.86529 0.0
H2191 H 0.2545 0.87221 0.86641 0.0
C2192 C 0.24172 0.87889 0.90282 0.0
C2193 C 0.22987 0.86769 0.92246 0.0
C2194 C 0.22657 0.79436 0.85304 0.0
C2195 C 0.23564 0.83684 0.87939 0.0
C2196 C 0.23042 0.77891 0.83182 0.0
C2197 C 0.24757 0.78853 0.81541 0.0
C2198 C 0.23982 0.81959 0.85764 0.0
C2199 C 0.26126 0.81336 0.82134 0.0
C2200 C 0.24475 0.86346 0.88124 0.0
C2201 C 0.22023 0.84127 0.91947 0.0
N2202 N 0.25694 0.82814 0.84185 0.0
N2203 N 0.22338 0.8267 0.89837 0.0
H2204 H 0.9786 0.51035 0.73097 0.0
H2205 H 0.9583 0.54875 0.59319 0.0
H2206 H 0.91956 0.54662 0.70867 0.0
H2207 H 0.01062 0.50345 0.61445 0.0
H2208 H 0.94398 0.54888 0.63536 0.0
H2209 H 0.99042 0.50788 0.68824 0.0
C2210 C 0.96805 0.51775 0.71705 0.0
C2211 C 0.94815 0.5289 0.72345 0.0
C2212 C 0.95855 0.53886 0.63078 0.0
C2213 C 0.96173 0.5262 0.67434 0.0
C2214 C 0.96677 0.53887 0.6068 0.0
C2215 C 0.98568 0.52613 0.60052 0.0
C2216 C 0.96943 0.52611 0.64851 0.0
C2217 C 0.99604 0.51356 0.61866 0.0
C2218 C 0.97481 0.51628 0.6926 0.0
C2219 C 0.93502 0.53788 0.70454 0.0
N2220 N 0.9878 0.51391 0.64189 0.0
N2221 N 0.94218 0.53652 0.6808 0.0
H2222 H 0.25795 0.14537 0.40167 0.0
H2223 H 0.30749 0.27309 0.33901 0.0
H2224 H 0.28522 0.21786 0.44517 0.0
H2225 H 0.2458 0.21834 0.3059 0.0
H2226 H 0.30662 0.24894 0.37576 0.0
H2227 H 0.26015 0.16788 0.36363 0.0
C2228 C 0.26443 0.16595 0.4032 0.0
C2229 C 0.27127 0.1798 0.42659 0.0
C2230 C 0.29347 0.24212 0.36027 0.0
C2231 C 0.27439 0.2054 0.38336 0.0
C2232 C 0.294 0.25581 0.33929 0.0
C2233 C 0.27691 0.24753 0.31918 0.0
C2234 C 0.27599 0.21974 0.36096 0.0
C2235 C 0.25969 0.22509 0.32067 0.0
C2236 C 0.26564 0.17875 0.38156 0.0
C2237 C 0.27957 0.20646 0.42754 0.0
N2238 N 0.25974 0.21188 0.34113 0.0
N2239 N 0.2811 0.21835 0.40625 0.0
H2240 H 0.34987 0.62182 0.54183 0.0
H2241 H 0.4034 0.50467 0.48671 0.0
H2242 H 0.30155 0.55543 0.50511 0.0
H2243 H 0.4344 0.55291 0.55308 0.0
H2244 H 0.36554 0.52128 0.49173 0.0
H2245 H 0.38142 0.5962 0.5449 0.0
C2246 C 0.34587 0.60165 0.53479 0.0
C2247 C 0.3232 0.59059 0.52337 0.0
C2248 C 0.38053 0.52771 0.50542 0.0
C2249 C 0.35935 0.56129 0.52603 0.0
C2250 C 0.40203 0.51826 0.50256 0.0
C2251 C 0.42208 0.52784 0.51924 0.0
C2252 C 0.37946 0.54689 0.5249 0.0
C2253 C 0.4195 0.5454 0.53951 0.0
C2254 C 0.36382 0.58701 0.53653 0.0
C2255 C 0.31885 0.56446 0.5143 0.0
N2256 N 0.39877 0.55464 0.54154 0.0
N2257 N 0.33698 0.5507 0.51537 0.0
H2258 H 0.85675 0.8919 0.49949 0.0
H2259 H 0.93884 0.02822 0.5477 0.0
H2260 H 0.82732 0.95199 0.53971 0.0
H2261 H 0.96011 0.9715 0.49524 0.0
H2262 H 0.89813 0.00148 0.54613 0.0
H2263 H 0.8951 0.92119 0.49948 0.0
C2264 C 0.85831 0.91127 0.50845 0.0
C2265 C 0.83862 0.91935 0.51972 0.0
C2266 C 0.91169 0.99508 0.53481 0.0
C2267 C 0.88301 0.95338 0.51968 0.0
C2268 C 0.93487 0.01034 0.53565 0.0
C2269 C 0.9529 0.00205 0.52161 0.0
C2270 C 0.90667 0.97133 0.51998 0.0
C2271 C 0.94683 0.9787 0.50639 0.0
C2272 C 0.88031 0.9281 0.50831 0.0
C2273 C 0.84196 0.94486 0.53082 0.0
N2274 N 0.92438 0.96415 0.50613 0.0
N2275 N 0.86376 0.96095 0.53063 0.0
H2276 H 0.88442 0.12788 0.2617 0.0
H2277 H 0.76976 0.18797 0.22102 0.0
H2278 H 0.82201 0.08224 0.21975 0.0
H2279 H 0.82514 0.22449 0.2773 0.0
H2280 H 0.78933 0.15016 0.21728 0.0
H2281 H 0.86407 0.16472 0.26401 0.0
C2282 C 0.86647 0.12561 0.25282 0.0
C2283 C 0.85494 0.10182 0.24054 0.0
C2284 C 0.79706 0.16644 0.23052 0.0
C2285 C 0.83134 0.14423 0.24317 0.0
C2286 C 0.78587 0.18804 0.23272 0.0
C2287 C 0.79563 0.20955 0.24963 0.0
C2288 C 0.81836 0.16643 0.2451 0.0
C2289 C 0.81674 0.20847 0.26408 0.0
C2290 C 0.85478 0.14669 0.25424 0.0
C2291 C 0.8316 0.10017 0.22944 0.0
N2292 N 0.82735 0.18744 0.2614 0.0
N2293 N 0.82057 0.12106 0.23099 0.0
H2294 H 0.68413 0.15884 0.03323 0.0
H2295 H 0.5945 0.02781 0.99213 0.0
H2296 H 0.70922 0.08916 0.00874 0.0
H2297 H 0.57499 0.08599 0.04423 0.0
H2298 H 0.63623 0.05091 0.99607 0.0
H2299 H 0.64354 0.13369 0.03524 0.0
C2300 C 0.68111 0.13825 0.02825 0.0
C2301 C 0.70009 0.1261 0.02062 0.0
C2302 C 0.62292 0.0585 0.00688 0.0
C2303 C 0.65367 0.0973 0.02287 0.0
C2304 C 0.5991 0.04539 0.00459 0.0
C2305 C 0.58133 0.0551 0.01786 0.0
C2306 C 0.62897 0.08182 0.02212 0.0
C2307 C 0.58823 0.07785 0.03381 0.0
C2308 C 0.65798 0.12392 0.02961 0.0
C2309 C 0.69515 0.09933 0.01468 0.0
N2310 N 0.61152 0.0907 0.03524 0.0
N2311 N 0.67236 0.08587 0.01567 0.0
H2312 H 0.20196 0.47008 0.21789 0.0
H2313 H 0.23811 0.36467 0.30103 0.0
H2314 H 0.15592 0.43473 0.27176 0.0
H2315 H 0.26541 0.37542 0.22858 0.0
H2316 H 0.21354 0.39754 0.29547 0.0
H2317 H 0.23013 0.44121 0.22561 0.0
C2318 C 0.19771 0.45611 0.23122 0.0
C2319 C 0.17654 0.45462 0.24411 0.0
C2320 C 0.22518 0.39292 0.28097 0.0
C2321 C 0.2089 0.42216 0.25345 0.0
C2322 C 0.23942 0.37445 0.28426 0.0
C2323 C 0.25373 0.36739 0.2652 0.0
C2324 C 0.22555 0.40454 0.25861 0.0
C2325 C 0.25458 0.38039 0.2437 0.0
C2326 C 0.21381 0.43975 0.23565 0.0
C2327 C 0.17194 0.4363 0.26125 0.0
N2328 N 0.24055 0.39831 0.24091 0.0
N2329 N 0.18811 0.42087 0.26558 0.0
H2330 H 0.18552 0.39848 0.00278 0.0
H2331 H 0.12477 0.51731 0.05009 0.0
H2332 H 0.22635 0.46441 0.04823 0.0
H2333 H 0.09894 0.4662 0.98396 0.0
H2334 H 0.16011 0.49633 0.05373 0.0
H2335 H 0.15134 0.42064 0.00025 0.0
C2336 C 0.18728 0.41758 0.01242 0.0
C2337 C 0.20894 0.42957 0.02574 0.0
C2338 C 0.14675 0.48984 0.03836 0.0
C2339 C 0.16957 0.45517 0.02289 0.0
C2340 C 0.12661 0.50179 0.03627 0.0
C2341 C 0.10895 0.49356 0.01661 0.0
C2342 C 0.14899 0.46918 0.02095 0.0
C2343 C 0.11216 0.47327 -0.00068 0.0
C2344 C 0.16774 0.43029 0.01082 0.0
C2345 C 0.21004 0.45443 0.03774 0.0
N2346 N 0.13162 0.46168 0.002 0.0
N2347 N 0.19061 0.46638 0.03611 0.0
H2348 H 0.83028 0.97549 0.23804 0.0
H2349 H 0.81679 0.82255 0.23838 0.0
H2350 H 0.89048 0.93562 0.23655 0.0
H2351 H 0.75876 0.86307 0.25349 0.0
H2352 H 0.84332 0.86342 0.23345 0.0
H2353 H 0.80289 0.93414 0.23896 0.0
C2354 C 0.83775 0.95807 0.23762 0.0
C2355 C 0.8628 0.95915 0.23733 0.0
C2356 C 0.82482 0.86344 0.23797 0.0
C2357 C 0.83151 0.91173 0.23849 0.0
C2358 C 0.80981 0.8401 0.24111 0.0
C2359 C 0.78587 0.83948 0.24715 0.0
C2360 C 0.8157 0.88642 0.24064 0.0
C2361 C 0.77725 0.86272 0.2491 0.0
C2362 C 0.82209 0.93447 0.23829 0.0
C2363 C 0.87136 0.93586 0.23693 0.0
N2364 N 0.79216 0.88525 0.24597 0.0
N2365 N 0.8558 0.91321 0.23759 0.0
H2366 H 0.62319 0.10721 0.72469 0.0
H2367 H 0.75123 0.18864 0.76986 0.0
H2368 H 0.68326 0.07166 0.74515 0.0
H2369 H 0.70545 0.21542 0.71585 0.0
H2370 H 0.72506 0.14625 0.76378 0.0
H2371 H 0.65141 0.14818 0.72407 0.0
C2372 C 0.64226 0.10798 0.72893 0.0
C2373 C 0.65087 0.08601 0.73505 0.0
C2374 C 0.72092 0.16131 0.75303 0.0
C2375 C 0.68299 0.13262 0.73463 0.0
C2376 C 0.73581 0.18547 0.7565 0.0
C2377 C 0.73047 0.20545 0.74329 0.0
C2378 C 0.70022 0.15733 0.73671 0.0
C2379 C 0.71026 0.20039 0.72624 0.0
C2380 C 0.65832 0.13127 0.72843 0.0
C2381 C 0.6758 0.08806 0.74028 0.0
N2382 N 0.69559 0.17687 0.7237 0.0
N2383 N 0.69092 0.11101 0.74024 0.0
loop_
_geom_bond_atom_site_label_1
_geom_bond_atom_site_label_2
_geom_bond_distance
_geom_bond_site_symmetry_2
_ccdc_geom_bond_type
Co0 O1 2.216 . S
Co0 O2 2.091 . S
Co0 O4 2.004 1_455 S
Co0 O10 2.021 . S
Co0 O12 2.137 . S
Co0 O13 2.244 . S
O1 Co0 2.216 . S
O1 C8 1.247 . S
O2 Co0 2.091 . S
O2 C8 1.261 . S
C3 O12 1.247 . S
C3 O13 1.272 . S
O4 Co0 2.004 1_655 S
O4 C9 1.259 . S
Co5 O6 2.061 . S
Co5 O11 2.052 1_655 S
Co5 O13 2.135 1_655 S
O6 Co5 2.061 . S
O6 C9 1.235 . S
C7 O10 1.238 . S
C7 O11 1.241 . S
C8 O1 1.247 . S
C8 O2 1.261 . S
C9 O4 1.259 . S
C9 O6 1.235 . S
O10 Co0 2.021 . S
O10 C7 1.238 . S
O11 Co5 2.052 1_455 S
O11 C7 1.241 . S
O12 Co0 2.137 . S
O12 C3 1.247 . S
O13 Co0 2.244 . S
O13 C3 1.272 . S
O13 Co5 2.135 1_455 S
Co14 O15 2.216 1_455 S
Co14 O16 2.091 1_455 S
Co14 O18 2.004 . S
Co14 O24 2.016 . S
Co14 O26 2.137 . S
Co14 O27 2.244 . S
O15 Co14 2.216 1_655 S
O15 C22 1.247 . S
O16 Co14 2.091 1_655 S
O16 C22 1.261 . S
C17 O26 1.247 . S
C17 O27 1.272 . S
O18 Co14 2.004 . S
O18 C23 1.259 . S
Co19 O20 2.061 . S
Co19 O25 2.052 . S
Co19 O27 2.135 . S
O20 Co19 2.061 . S
O20 C23 1.235 . S
C21 O24 1.249 . S
C21 O25 1.241 . S
C22 O15 1.247 . S
C22 O16 1.261 . S
C23 O18 1.259 . S
C23 O20 1.235 . S
O24 Co14 2.016 . S
O24 C21 1.249 . S
O25 Co19 2.052 . S
O25 C21 1.241 . S
O26 Co14 2.137 . S
O26 C17 1.247 . S
O27 Co14 2.244 . S
O27 C17 1.272 . S
O27 Co19 2.135 . S
Co28 O29 2.216 . S
Co28 O30 2.091 . S
Co28 O32 2.004 . S
Co28 O38 2.021 . S
Co28 O40 2.137 . S
Co28 O41 2.244 . S
O29 Co28 2.216 . S
O29 C36 1.247 . S
O30 Co28 2.091 . S
O30 C36 1.261 . S
C31 O40 1.247 . S
C31 O41 1.272 . S
O32 Co28 2.004 . S
O32 C37 1.259 . S
Co33 O34 2.061 . S
Co33 O39 2.052 . S
Co33 O41 2.135 . S
O34 Co33 2.061 . S
O34 C37 1.235 . S
C35 O38 1.238 . S
C35 O39 1.241 . S
C36 O29 1.247 . S
C36 O30 1.261 . S
C37 O32 1.259 . S
C37 O34 1.235 . S
O38 Co28 2.021 . S
O38 C35 1.238 . S
O39 Co33 2.052 . S
O39 C35 1.241 . S
O40 Co28 2.137 . S
O40 C31 1.247 . S
O41 Co28 2.244 . S
O41 C31 1.272 . S
O41 Co33 2.135 . S
Co42 O43 2.216 . S
Co42 O44 2.091 . S
Co42 O46 2.004 . S
Co42 O52 2.021 . S
Co42 O54 2.137 . S
Co42 O55 2.244 . S
O43 Co42 2.216 . S
O43 C50 1.247 . S
O44 Co42 2.091 . S
O44 C50 1.261 . S
C45 O54 1.247 . S
C45 O55 1.272 . S
O46 Co42 2.004 . S
O46 C51 1.259 . S
Co47 O48 2.061 . S
Co47 O53 2.052 . S
Co47 O55 2.135 . S
O48 Co47 2.061 . S
O48 C51 1.235 . S
C49 O52 1.238 . S
C49 O53 1.241 . S
C50 O43 1.247 . S
C50 O44 1.261 . S
C51 O46 1.259 . S
C51 O48 1.235 . S
O52 Co42 2.021 . S
O52 C49 1.238 . S
O53 Co47 2.052 . S
O53 C49 1.241 . S
O54 Co42 2.137 . S
O54 C45 1.247 . S
O55 Co42 2.244 . S
O55 C45 1.272 . S
O55 Co47 2.135 . S
Co56 O57 2.216 1_455 S
Co56 O58 2.091 1_455 S
Co56 O60 2.004 . S
Co56 O66 2.021 . S
Co56 O68 2.137 . S
Co56 O69 2.244 . S
O57 Co56 2.216 1_655 S
O57 C64 1.247 . S
O58 Co56 2.091 1_655 S
O58 C64 1.261 . S
C59 O68 1.247 . S
C59 O69 1.272 . S
O60 Co56 2.004 . S
O60 C65 1.259 . S
Co61 O62 2.061 . S
Co61 O67 2.052 . S
Co61 O69 2.135 . S
O62 Co61 2.061 . S
O62 C65 1.235 . S
C63 O66 1.238 . S
C63 O67 1.241 . S
C64 O57 1.247 . S
C64 O58 1.261 . S
C65 O60 1.259 . S
C65 O62 1.235 . S
O66 Co56 2.021 . S
O66 C63 1.238 . S
O67 Co61 2.052 . S
O67 C63 1.241 . S
O68 Co56 2.137 . S
O68 C59 1.247 . S
O69 Co56 2.244 . S
O69 C59 1.272 . S
O69 Co61 2.135 . S
Co70 O71 2.216 . S
Co70 O72 2.091 . S
Co70 O74 2.004 . S
Co70 O80 2.021 . S
Co70 O82 2.137 . S
Co70 O83 2.244 . S
O71 Co70 2.216 . S
O71 C78 1.247 . S
O72 Co70 2.091 . S
O72 C78 1.261 . S
C73 O82 1.247 . S
C73 O83 1.272 . S
O74 Co70 2.004 . S
O74 C79 1.259 . S
Co75 O76 2.061 . S
Co75 O81 2.052 . S
Co75 O83 2.135 . S
O76 Co75 2.061 . S
O76 C79 1.235 . S
C77 O80 1.238 . S
C77 O81 1.241 . S
C78 O71 1.247 . S
C78 O72 1.261 . S
C79 O74 1.259 . S
C79 O76 1.235 . S
O80 Co70 2.021 . S
O80 C77 1.238 . S
O81 Co75 2.052 . S
O81 C77 1.241 . S
O82 Co70 2.137 . S
O82 C73 1.247 . S
O83 Co70 2.244 . S
O83 C73 1.272 . S
O83 Co75 2.135 . S
Co84 O85 2.216 . S
Co84 O86 2.091 . S
Co84 O88 2.004 . S
Co84 O94 2.021 . S
Co84 O96 2.137 . S
Co84 O97 2.244 . S
O85 Co84 2.216 . S
O85 C92 1.247 . S
O86 Co84 2.091 . S
O86 C92 1.261 . S
C87 O96 1.247 . S
C87 O97 1.272 . S
O88 Co84 2.004 . S
O88 C93 1.259 . S
Co89 O90 2.061 . S
Co89 O95 2.052 . S
Co89 O97 2.135 . S
O90 Co89 2.061 . S
O90 C93 1.235 . S
C91 O94 1.238 . S
C91 O95 1.241 . S
C92 O85 1.247 . S
C92 O86 1.261 . S
C93 O88 1.259 . S
C93 O90 1.235 . S
O94 Co84 2.021 . S
O94 C91 1.238 . S
O95 Co89 2.052 . S
O95 C91 1.241 . S
O96 Co84 2.137 . S
O96 C87 1.247 . S
O97 Co84 2.244 . S
O97 C87 1.272 . S
O97 Co89 2.135 . S
Co98 O99 2.216 . S
Co98 O100 2.091 . S
Co98 O102 2.004 1_455 S
Co98 O108 2.021 . S
Co98 O110 2.137 . S
Co98 O111 2.244 1_455 S
O99 Co98 2.216 . S
O99 C106 1.247 . S
O100 Co98 2.091 . S
O100 C106 1.261 . S
C101 O110 1.247 . S
C101 O111 1.272 1_455 S
O102 Co98 2.004 1_655 S
O102 C107 1.259 . S
Co103 O104 2.061 . S
Co103 O109 2.052 . S
Co103 O111 2.135 . S
O104 Co103 2.061 . S
O104 C107 1.235 . S
C105 O108 1.238 1_655 S
C105 O109 1.241 . S
C106 O99 1.247 . S
C106 O100 1.261 . S
C107 O102 1.259 . S
C107 O104 1.235 . S
O108 Co98 2.021 . S
O108 C105 1.238 1_455 S
O109 Co103 2.052 . S
O109 C105 1.241 . S
O110 Co98 2.137 . S
O110 C101 1.247 . S
O111 Co98 2.244 1_655 S
O111 C101 1.272 1_655 S
O111 Co103 2.135 . S
Co112 O113 2.216 . S
Co112 O114 2.091 . S
Co112 O116 2.004 1_545 S
Co112 O122 2.021 . S
Co112 O124 2.137 . S
Co112 O125 2.244 . S
O113 Co112 2.216 . S
O113 C120 1.247 . S
O114 Co112 2.091 . S
O114 C120 1.261 . S
C115 O124 1.247 . S
C115 O125 1.272 . S
O116 Co112 2.004 1_565 S
O116 C121 1.259 . S
Co117 O118 2.061 . S
Co117 O123 2.052 1_565 S
Co117 O125 2.135 1_565 S
O118 Co117 2.061 . S
O118 C121 1.235 . S
C119 O122 1.238 . S
C119 O123 1.241 . S
C120 O113 1.247 . S
C120 O114 1.261 . S
C121 O116 1.259 . S
C121 O118 1.235 . S
O122 Co112 2.021 . S
O122 C119 1.238 . S
O123 Co117 2.052 1_545 S
O123 C119 1.241 . S
O124 Co112 2.137 . S
O124 C115 1.247 . S
O125 Co112 2.244 . S
O125 C115 1.272 . S
O125 Co117 2.135 1_545 S
Co126 O127 2.216 . S
Co126 O128 2.091 . S
Co126 O130 2.004 . S
Co126 O136 2.021 . S
Co126 O138 2.137 . S
Co126 O139 2.244 . S
O127 Co126 2.216 . S
O127 C134 1.247 . S
O128 Co126 2.091 . S
O128 C134 1.261 . S
C129 O138 1.247 . S
C129 O139 1.272 . S
O130 Co126 2.004 . S
O130 C135 1.259 . S
Co131 O132 2.061 . S
Co131 O137 2.052 . S
Co131 O139 2.135 . S
O132 Co131 2.061 . S
O132 C135 1.235 . S
C133 O136 1.238 . S
C133 O137 1.241 . S
C134 O127 1.247 . S
C134 O128 1.261 . S
C135 O130 1.259 . S
C135 O132 1.235 . S
O136 Co126 2.021 . S
O136 C133 1.238 . S
O137 Co131 2.052 . S
O137 C133 1.241 . S
O138 Co126 2.137 . S
O138 C129 1.247 . S
O139 Co126 2.244 . S
O139 C129 1.272 . S
O139 Co131 2.135 . S
Co140 O141 2.216 . S
Co140 O142 2.091 . S
Co140 O144 2.004 1_565 S
Co140 O150 2.021 . S
Co140 O152 2.137 . S
Co140 O153 2.244 1_565 S
O141 Co140 2.216 . S
O141 C148 1.247 . S
O142 Co140 2.091 . S
O142 C148 1.261 . S
C143 O152 1.235 1_545 S
C143 O153 1.282 . S
O144 Co140 2.004 1_545 S
O144 C149 1.259 . S
Co145 O146 2.061 . S
Co145 O151 2.052 . S
Co145 O153 2.135 . S
O146 Co145 2.061 . S
O146 C149 1.235 . S
C147 O150 1.251 . S
C147 O151 1.223 1_565 S
C148 O141 1.247 . S
C148 O142 1.261 . S
C149 O144 1.259 . S
C149 O146 1.235 . S
O150 Co140 2.021 . S
O150 C147 1.251 . S
O151 Co145 2.052 . S
O151 C147 1.223 1_545 S
O152 Co140 2.137 . S
O152 C143 1.235 1_565 S
O153 Co140 2.244 1_545 S
O153 C143 1.282 . S
O153 Co145 2.135 . S
Co154 O155 2.216 . S
Co154 O156 2.091 . S
Co154 O158 2.004 . S
Co154 O164 2.021 . S
Co154 O166 2.137 1_554 S
Co154 O167 2.244 1_554 S
O155 Co154 2.216 . S
O155 C162 1.247 . S
O156 Co154 2.091 . S
O156 C162 1.261 . S
C157 O166 1.247 . S
C157 O167 1.272 . S
O158 Co154 2.004 . S
O158 C163 1.259 . S
Co159 O160 2.061 . S
Co159 O165 2.052 . S
Co159 O167 2.135 1_554 S
O160 Co159 2.061 . S
O160 C163 1.235 . S
C161 O164 1.238 . S
C161 O165 1.241 . S
C162 O155 1.247 . S
C162 O156 1.261 . S
C163 O158 1.259 . S
C163 O160 1.235 . S
O164 Co154 2.021 . S
O164 C161 1.238 . S
O165 Co159 2.052 . S
O165 C161 1.241 . S
O166 Co154 2.137 1_556 S
O166 C157 1.247 . S
O167 Co154 2.244 1_556 S
O167 C157 1.272 . S
O167 Co159 2.135 1_556 S
Co168 O169 2.216 . S
Co168 O170 2.091 . S
Co168 O172 2.004 . S
Co168 O178 2.021 . S
Co168 O180 2.137 1_554 S
Co168 O181 2.244 1_554 S
O169 Co168 2.216 . S
O169 C176 1.247 . S
O170 Co168 2.091 . S
O170 C176 1.261 . S
C171 O180 1.247 . S
C171 O181 1.272 . S
O172 Co168 2.004 . S
O172 C177 1.259 . S
Co173 O174 2.061 . S
Co173 O179 2.052 . S
Co173 O181 2.135 1_554 S
O174 Co173 2.061 . S
O174 C177 1.235 . S
C175 O178 1.238 . S
C175 O179 1.241 . S
C176 O169 1.247 . S
C176 O170 1.261 . S
C177 O172 1.259 . S
C177 O174 1.235 . S
O178 Co168 2.021 . S
O178 C175 1.238 . S
O179 Co173 2.052 . S
O179 C175 1.241 . S
O180 Co168 2.137 1_556 S
O180 C171 1.247 . S
O181 Co168 2.244 1_556 S
O181 C171 1.272 . S
O181 Co173 2.135 1_556 S
Co182 O183 2.217 . S
Co182 O184 2.091 . S
Co182 O186 2.004 . S
Co182 O192 2.021 1_556 S
Co182 O194 2.137 . S
Co182 O195 2.244 . S
O183 Co182 2.217 . S
O183 C190 1.243 . S
O184 Co182 2.091 . S
O184 C190 1.261 . S
C185 O194 1.247 . S
C185 O195 1.272 . S
O186 Co182 2.004 . S
O186 C191 1.259 . S
Co187 O188 2.060 . S
Co187 O193 2.052 . S
Co187 O195 2.135 1_554 S
O188 Co187 2.060 . S
O188 C191 1.234 1_554 S
C189 O192 1.238 . S
C189 O193 1.241 . S
C190 O183 1.243 . S
C190 O184 1.261 . S
C191 O186 1.259 . S
C191 O188 1.234 1_556 S
O192 Co182 2.021 1_554 S
O192 C189 1.238 . S
O193 Co187 2.052 . S
O193 C189 1.241 . S
O194 Co182 2.137 . S
O194 C185 1.247 . S
O195 Co182 2.244 . S
O195 C185 1.272 . S
O195 Co187 2.135 1_556 S
Co196 O197 2.216 . S
Co196 O198 2.091 . S
Co196 O200 2.004 . S
Co196 O206 2.021 . S
Co196 O208 2.137 . S
Co196 O209 2.244 . S
O197 Co196 2.216 . S
O197 C204 1.247 . S
O198 Co196 2.091 . S
O198 C204 1.261 . S
C199 O208 1.247 . S
C199 O209 1.272 . S
O200 Co196 2.004 . S
O200 C205 1.259 . S
Co201 O202 2.061 . S
Co201 O207 2.052 . S
Co201 O209 2.135 . S
O202 Co201 2.061 . S
O202 C205 1.235 . S
C203 O206 1.238 . S
C203 O207 1.241 . S
C204 O197 1.247 . S
C204 O198 1.261 . S
C205 O200 1.259 . S
C205 O202 1.235 . S
O206 Co196 2.021 . S
O206 C203 1.238 . S
O207 Co201 2.052 . S
O207 C203 1.241 . S
O208 Co196 2.137 . S
O208 C199 1.247 . S
O209 Co196 2.244 . S
O209 C199 1.272 . S
O209 Co201 2.135 . S
Co210 O211 2.216 . S
Co210 O212 2.091 . S
Co210 O214 2.004 . S
Co210 O220 2.021 . S
Co210 O222 2.137 . S
Co210 O223 2.244 . S
O211 Co210 2.216 . S
O211 C218 1.247 . S
O212 Co210 2.091 . S
O212 C218 1.261 . S
C213 O222 1.247 . S
C213 O223 1.272 . S
O214 Co210 2.004 . S
O214 C219 1.259 . S
Co215 O216 2.061 . S
Co215 O221 2.052 . S
Co215 O223 2.135 . S
O216 Co215 2.061 . S
O216 C219 1.235 . S
C217 O220 1.238 . S
C217 O221 1.241 . S
C218 O211 1.247 . S
C218 O212 1.261 . S
C219 O214 1.259 . S
C219 O216 1.235 . S
O220 Co210 2.021 . S
O220 C217 1.238 . S
O221 Co215 2.052 . S
O221 C217 1.241 . S
O222 Co210 2.137 . S
O222 C213 1.247 . S
O223 Co210 2.244 . S
O223 C213 1.272 . S
O223 Co215 2.135 . S
Co224 O225 2.216 . S
Co224 O226 2.091 . S
Co224 O228 2.004 . S
Co224 O234 2.021 . S
Co224 O236 2.137 . S
Co224 O237 2.244 . S
O225 Co224 2.216 . S
O225 C232 1.247 . S
O226 Co224 2.091 . S
O226 C232 1.261 . S
C227 O236 1.247 . S
C227 O237 1.272 . S
O228 Co224 2.004 . S
O228 C233 1.259 1_545 S
Co229 O230 2.061 1_545 S
Co229 O235 2.052 . S
Co229 O237 2.135 . S
O230 Co229 2.061 1_565 S
O230 C233 1.235 . S
C231 O234 1.238 . S
C231 O235 1.241 . S
C232 O225 1.247 . S
C232 O226 1.261 . S
C233 O228 1.259 1_565 S
C233 O230 1.235 . S
O234 Co224 2.021 . S
O234 C231 1.238 . S
O235 Co229 2.052 . S
O235 C231 1.241 . S
O236 Co224 2.137 . S
O236 C227 1.247 . S
O237 Co224 2.244 . S
O237 C227 1.272 . S
O237 Co229 2.135 . S
Co238 O239 2.216 . S
Co238 O240 2.091 . S
Co238 O242 2.004 . S
Co238 O248 2.021 . S
Co238 O250 2.137 . S
Co238 O251 2.244 . S
O239 Co238 2.216 . S
O239 C246 1.247 . S
O240 Co238 2.091 . S
O240 C246 1.261 . S
C241 O250 1.247 . S
C241 O251 1.272 . S
O242 Co238 2.004 . S
O242 C247 1.259 . S
Co243 O244 2.061 . S
Co243 O249 2.052 . S
Co243 O251 2.135 . S
O244 Co243 2.061 . S
O244 C247 1.235 . S
C245 O248 1.238 . S
C245 O249 1.241 . S
C246 O239 1.247 . S
C246 O240 1.261 . S
C247 O242 1.259 . S
C247 O244 1.235 . S
O248 Co238 2.021 . S
O248 C245 1.238 . S
O249 Co243 2.052 . S
O249 C245 1.241 . S
O250 Co238 2.137 . S
O250 C241 1.247 . S
O251 Co238 2.244 . S
O251 C241 1.272 . S
O251 Co243 2.135 . S
Co252 O253 2.216 . S
Co252 O254 2.091 . S
Co252 O256 2.004 . S
Co252 O262 2.021 . S
Co252 O264 2.137 . S
Co252 O265 2.244 . S
O253 Co252 2.216 . S
O253 C260 1.247 . S
O254 Co252 2.091 . S
O254 C260 1.261 . S
C255 O264 1.247 . S
C255 O265 1.272 . S
O256 Co252 2.004 . S
O256 C261 1.259 . S
Co257 O258 2.061 . S
Co257 O263 2.052 . S
Co257 O265 2.135 . S
O258 Co257 2.061 . S
O258 C261 1.235 . S
C259 O262 1.238 . S
C259 O263 1.241 . S
C260 O253 1.247 . S
C260 O254 1.261 . S
C261 O256 1.259 . S
C261 O258 1.235 . S
O262 Co252 2.021 . S
O262 C259 1.238 . S
O263 Co257 2.052 . S
O263 C259 1.241 . S
O264 Co252 2.137 . S
O264 C255 1.247 . S
O265 Co252 2.244 . S
O265 C255 1.272 . S
O265 Co257 2.135 . S
Co266 O267 2.216 1_545 S
Co266 O268 2.089 . S
Co266 O270 2.004 . S
Co266 O276 2.021 . S
Co266 O278 2.137 . S
Co266 O279 2.244 . S
O267 Co266 2.216 1_565 S
O267 C274 1.247 . S
O268 Co266 2.089 . S
O268 C274 1.263 1_545 S
C269 O278 1.247 . S
C269 O279 1.272 . S
O270 Co266 2.004 . S
O270 C275 1.259 . S
Co271 O272 2.061 . S
Co271 O277 2.052 . S
Co271 O279 2.135 . S
O272 Co271 2.061 . S
O272 C275 1.235 . S
C273 O276 1.238 . S
C273 O277 1.241 . S
C274 O267 1.247 . S
C274 O268 1.263 1_565 S
C275 O270 1.259 . S
C275 O272 1.235 . S
O276 Co266 2.021 . S
O276 C273 1.238 . S
O277 Co271 2.052 . S
O277 C273 1.241 . S
O278 Co266 2.137 . S
O278 C269 1.247 . S
O279 Co266 2.244 . S
O279 C269 1.272 . S
O279 Co271 2.135 . S
Co280 O281 2.216 . S
Co280 O282 2.091 . S
Co280 O284 2.005 . S
Co280 O290 2.021 . S
Co280 O292 2.137 1_554 S
Co280 O293 2.244 1_554 S
O281 Co280 2.216 . S
O281 C288 1.247 . S
O282 Co280 2.091 . S
O282 C288 1.261 . S
C283 O292 1.247 . S
C283 O293 1.272 . S
O284 Co280 2.005 . S
O284 C289 1.259 . S
Co285 O286 2.061 . S
Co285 O291 2.052 . S
Co285 O293 2.135 1_554 S
O286 Co285 2.061 . S
O286 C289 1.235 . S
C287 O290 1.238 . S
C287 O291 1.241 . S
C288 O281 1.247 . S
C288 O282 1.261 . S
C289 O284 1.259 . S
C289 O286 1.235 . S
O290 Co280 2.021 . S
O290 C287 1.238 . S
O291 Co285 2.052 . S
O291 C287 1.241 . S
O292 Co280 2.137 1_556 S
O292 C283 1.247 . S
O293 Co280 2.244 1_556 S
O293 C283 1.272 . S
O293 Co285 2.135 1_556 S
Co294 O295 2.216 . S
Co294 O296 2.091 . S
Co294 O298 2.004 . S
Co294 O304 2.021 . S
Co294 O306 2.137 . S
Co294 O307 2.244 . S
O295 Co294 2.216 . S
O295 C302 1.247 . S
O296 Co294 2.091 . S
O296 C302 1.261 . S
C297 O306 1.247 . S
C297 O307 1.272 . S
O298 Co294 2.004 . S
O298 C303 1.259 . S
Co299 O300 2.061 . S
Co299 O305 2.052 . S
Co299 O307 2.135 . S
O300 Co299 2.061 . S
O300 C303 1.235 . S
C301 O304 1.238 . S
C301 O305 1.241 . S
C302 O295 1.247 . S
C302 O296 1.261 . S
C303 O298 1.259 . S
C303 O300 1.235 . S
O304 Co294 2.021 . S
O304 C301 1.238 . S
O305 Co299 2.052 . S
O305 C301 1.241 . S
O306 Co294 2.137 . S
O306 C297 1.247 . S
O307 Co294 2.244 . S
O307 C297 1.272 . S
O307 Co299 2.135 . S
Co308 O309 2.216 . S
Co308 O310 2.091 . S
Co308 O312 2.004 . S
Co308 O318 2.021 . S
Co308 O320 2.137 . S
Co308 O321 2.244 . S
O309 Co308 2.216 . S
O309 C316 1.247 . S
O310 Co308 2.091 . S
O310 C316 1.261 . S
C311 O320 1.247 . S
C311 O321 1.272 . S
O312 Co308 2.004 . S
O312 C317 1.259 . S
Co313 O314 2.061 . S
Co313 O319 2.052 . S
Co313 O321 2.135 . S
O314 Co313 2.061 . S
O314 C317 1.235 . S
C315 O318 1.238 . S
C315 O319 1.241 . S
C316 O309 1.247 . S
C316 O310 1.261 . S
C317 O312 1.259 . S
C317 O314 1.235 . S
O318 Co308 2.021 . S
O318 C315 1.238 . S
O319 Co313 2.052 . S
O319 C315 1.241 . S
O320 Co308 2.137 . S
O320 C311 1.247 . S
O321 Co308 2.244 . S
O321 C311 1.272 . S
O321 Co313 2.135 . S
Co322 O323 2.216 . S
Co322 O324 2.091 . S
Co322 O326 2.004 . S
Co322 O332 2.021 . S
Co322 O334 2.137 . S
Co322 O335 2.244 . S
O323 Co322 2.216 . S
O323 C330 1.247 . S
O324 Co322 2.091 . S
O324 C330 1.261 . S
C325 O334 1.247 . S
C325 O335 1.272 . S
O326 Co322 2.004 . S
O326 C331 1.259 . S
Co327 O328 2.061 . S
Co327 O333 2.052 . S
Co327 O335 2.135 . S
O328 Co327 2.061 . S
O328 C331 1.235 . S
C329 O332 1.238 . S
C329 O333 1.241 . S
C330 O323 1.247 . S
C330 O324 1.261 . S
C331 O326 1.259 . S
C331 O328 1.235 . S
O332 Co322 2.021 . S
O332 C329 1.238 . S
O333 Co327 2.052 . S
O333 C329 1.241 . S
O334 Co322 2.137 . S
O334 C325 1.247 . S
O335 Co322 2.244 . S
O335 C325 1.272 . S
O335 Co327 2.135 . S
Dy336 O340 2.398 . S
Dy336 O341 2.491 1_556 S
Dy336 O342 2.403 . S
Dy336 O343 2.664 1_655 S
Dy336 O347 2.326 . S
Dy336 O351 2.310 1_656 S
Dy336 O352 2.351 1_546 S
C337 O348 1.185 . S
C337 O349 1.355 . S
C338 O340 1.185 . S
C338 O341 1.355 1_556 S
Dy339 O343 2.310 1_554 S
Dy339 O346 2.351 . S
Dy339 O348 2.398 . S
Dy339 O349 2.491 . S
Dy339 O350 2.403 . S
Dy339 O351 2.664 . S
Dy339 O353 2.326 1_545 S
O340 Dy336 2.398 . S
O340 C338 1.185 . S
O341 Dy336 2.491 1_554 S
O341 C338 1.355 1_554 S
O342 Dy336 2.403 . S
O342 C344 1.254 1_655 S
O343 Dy336 2.664 1_455 S
O343 Dy339 2.310 1_556 S
O343 C344 1.268 . S
C344 O342 1.254 1_455 S
C344 O343 1.268 . S
C345 O350 1.254 . S
C345 O351 1.268 . S
O346 Dy339 2.351 . S
O346 C354 1.259 . S
O347 Dy336 2.326 . S
O347 C354 1.259 1_656 S
O348 C337 1.185 . S
O348 Dy339 2.398 . S
O349 C337 1.355 . S
O349 Dy339 2.491 . S
O350 Dy339 2.403 . S
O350 C345 1.254 . S
O351 Dy336 2.310 1_454 S
O351 Dy339 2.664 . S
O351 C345 1.268 . S
O352 Dy336 2.351 1_564 S
O352 C355 1.249 1_655 S
O353 Dy339 2.326 1_565 S
O353 C355 1.267 . S
C354 O346 1.259 . S
C354 O347 1.259 1_454 S
C355 O352 1.249 1_455 S
C355 O353 1.267 . S
Dy356 O360 2.398 . S
Dy356 O361 2.491 . S
Dy356 O362 2.403 . S
Dy356 O363 2.664 . S
Dy356 O367 2.326 . S
Dy356 O371 2.310 . S
Dy356 O372 2.351 . S
C357 O368 1.185 . S
C357 O369 1.355 . S
C358 O360 1.185 . S
C358 O361 1.355 . S
Dy359 O363 2.310 . S
Dy359 O366 2.351 . S
Dy359 O368 2.398 . S
Dy359 O369 2.491 . S
Dy359 O370 2.403 . S
Dy359 O371 2.664 . S
Dy359 O373 2.326 . S
O360 Dy356 2.398 . S
O360 C358 1.185 . S
O361 Dy356 2.491 . S
O361 C358 1.355 . S
O362 Dy356 2.403 . S
O362 C364 1.254 . S
O363 Dy356 2.664 . S
O363 Dy359 2.310 . S
O363 C364 1.268 . S
C364 O362 1.254 . S
C364 O363 1.268 . S
C365 O370 1.254 . S
C365 O371 1.268 . S
O366 Dy359 2.351 . S
O366 C374 1.249 . S
O367 Dy356 2.326 . S
O367 C374 1.267 . S
O368 C357 1.185 . S
O368 Dy359 2.398 . S
O369 C357 1.355 . S
O369 Dy359 2.491 . S
O370 Dy359 2.403 . S
O370 C365 1.254 . S
O371 Dy356 2.310 . S
O371 Dy359 2.664 . S
O371 C365 1.268 . S
O372 Dy356 2.351 . S
O372 C375 1.249 . S
O373 Dy359 2.326 . S
O373 C375 1.267 . S
C374 O366 1.249 . S
C374 O367 1.267 . S
C375 O372 1.249 . S
C375 O373 1.267 . S
Dy376 O380 2.398 . S
Dy376 O381 2.491 1_545 S
Dy376 O382 2.403 . S
Dy376 O383 2.664 . S
Dy376 O387 2.326 1_545 S
Dy376 O391 2.310 . S
Dy376 O392 2.351 . S
C377 O388 1.185 . S
C377 O389 1.355 . S
C378 O380 1.185 1_565 S
C378 O381 1.355 . S
Dy379 O383 2.310 . S
Dy379 O386 2.351 1_545 S
Dy379 O388 2.398 . S
Dy379 O389 2.491 . S
Dy379 O390 2.403 . S
Dy379 O391 2.664 . S
Dy379 O393 2.326 . S
O380 Dy376 2.398 . S
O380 C378 1.185 1_545 S
O381 Dy376 2.491 1_565 S
O381 C378 1.355 . S
O382 Dy376 2.403 . S
O382 C384 1.254 . S
O383 Dy376 2.664 . S
O383 Dy379 2.310 . S
O383 C384 1.268 . S
C384 O382 1.254 . S
C384 O383 1.268 . S
C385 O390 1.254 . S
C385 O391 1.268 . S
O386 Dy379 2.351 1_565 S
O386 C394 1.249 . S
O387 Dy376 2.326 1_565 S
O387 C394 1.267 . S
O388 C377 1.185 . S
O388 Dy379 2.398 . S
O389 C377 1.355 . S
O389 Dy379 2.491 . S
O390 Dy379 2.403 . S
O390 C385 1.254 . S
O391 Dy376 2.310 . S
O391 Dy379 2.664 . S
O391 C385 1.268 . S
O392 Dy376 2.351 . S
O392 C395 1.249 . S
O393 Dy379 2.326 . S
O393 C395 1.267 . S
C394 O386 1.249 . S
C394 O387 1.267 . S
C395 O392 1.249 . S
C395 O393 1.267 . S
Dy396 O400 2.398 . S
Dy396 O401 2.491 . S
Dy396 O402 2.403 . S
Dy396 O403 2.664 . S
Dy396 O407 2.326 . S
Dy396 O411 2.310 . S
Dy396 O412 2.351 . S
C397 O408 1.185 . S
C397 O409 1.355 . S
C398 O400 1.185 . S
C398 O401 1.355 . S
Dy399 O403 2.310 . S
Dy399 O406 2.351 . S
Dy399 O408 2.398 . S
Dy399 O409 2.491 . S
Dy399 O410 2.403 . S
Dy399 O411 2.664 . S
Dy399 O413 2.326 . S
O400 Dy396 2.398 . S
O400 C398 1.185 . S
O401 Dy396 2.491 . S
O401 C398 1.355 . S
O402 Dy396 2.403 . S
O402 C404 1.254 . S
O403 Dy396 2.664 . S
O403 Dy399 2.310 . S
O403 C404 1.268 . S
C404 O402 1.254 . S
C404 O403 1.268 . S
C405 O410 1.254 . S
C405 O411 1.268 . S
O406 Dy399 2.351 . S
O406 C414 1.249 . S
O407 Dy396 2.326 . S
O407 C414 1.267 . S
O408 C397 1.185 . S
O408 Dy399 2.398 . S
O409 C397 1.355 . S
O409 Dy399 2.491 . S
O410 Dy399 2.403 . S
O410 C405 1.254 . S
O411 Dy396 2.310 . S
O411 Dy399 2.664 . S
O411 C405 1.268 . S
O412 Dy396 2.351 . S
O412 C415 1.249 . S
O413 Dy399 2.326 . S
O413 C415 1.267 . S
C414 O406 1.249 . S
C414 O407 1.267 . S
C415 O412 1.249 . S
C415 O413 1.267 . S
Dy416 O420 2.398 . S
Dy416 O421 2.491 1_455 S
Dy416 O422 2.403 . S
Dy416 O423 2.664 . S
Dy416 O427 2.326 . S
Dy416 O431 2.310 1_455 S
Dy416 O432 2.351 1_545 S
C417 O428 1.185 . S
C417 O429 1.355 . S
C418 O420 1.185 1_655 S
C418 O421 1.355 . S
Dy419 O423 2.310 . S
Dy419 O426 2.351 . S
Dy419 O428 2.398 . S
Dy419 O429 2.491 . S
Dy419 O430 2.403 1_455 S
Dy419 O431 2.664 1_455 S
Dy419 O433 2.326 1_545 S
O420 Dy416 2.398 . S
O420 C418 1.185 1_455 S
O421 Dy416 2.491 1_655 S
O421 C418 1.355 . S
O422 Dy416 2.403 . S
O422 C424 1.254 . S
O423 Dy416 2.664 . S
O423 Dy419 2.310 . S
O423 C424 1.268 . S
C424 O422 1.254 . S
C424 O423 1.268 . S
C425 O430 1.254 . S
C425 O431 1.268 . S
O426 Dy419 2.351 . S
O426 C434 1.249 . S
O427 Dy416 2.326 . S
O427 C434 1.267 . S
O428 C417 1.185 . S
O428 Dy419 2.398 . S
O429 C417 1.355 . S
O429 Dy419 2.491 . S
O430 Dy419 2.403 1_655 S
O430 C425 1.254 . S
O431 Dy416 2.310 1_655 S
O431 Dy419 2.664 1_655 S
O431 C425 1.268 . S
O432 Dy416 2.351 1_565 S
O432 C435 1.249 . S
O433 Dy419 2.326 1_565 S
O433 C435 1.267 . S
C434 O426 1.249 . S
C434 O427 1.267 . S
C435 O432 1.249 . S
C435 O433 1.267 . S
Dy436 O440 2.398 . S
Dy436 O441 2.491 . S
Dy436 O442 2.403 . S
Dy436 O443 2.664 . S
Dy436 O447 2.326 . S
Dy436 O451 2.310 . S
Dy436 O452 2.351 . S
C437 O448 1.185 . S
C437 O449 1.355 . S
C438 O440 1.185 . S
C438 O441 1.355 . S
Dy439 O443 2.310 . S
Dy439 O446 2.351 . S
Dy439 O448 2.398 . S
Dy439 O449 2.491 . S
Dy439 O450 2.403 . S
Dy439 O451 2.664 . S
Dy439 O453 2.326 . S
O440 Dy436 2.398 . S
O440 C438 1.185 . S
O441 Dy436 2.491 . S
O441 C438 1.355 . S
O442 Dy436 2.403 . S
O442 C444 1.254 . S
O443 Dy436 2.664 . S
O443 Dy439 2.310 . S
O443 C444 1.268 . S
C444 O442 1.254 . S
C444 O443 1.268 . S
C445 O450 1.254 . S
C445 O451 1.268 . S
O446 Dy439 2.351 . S
O446 C454 1.249 . S
O447 Dy436 2.326 . S
O447 C454 1.267 . S
O448 C437 1.185 . S
O448 Dy439 2.398 . S
O449 C437 1.355 . S
O449 Dy439 2.491 . S
O450 Dy439 2.403 . S
O450 C445 1.254 . S
O451 Dy436 2.310 . S
O451 Dy439 2.664 . S
O451 C445 1.268 . S
O452 Dy436 2.351 . S
O452 C455 1.249 . S
O453 Dy439 2.326 . S
O453 C455 1.267 . S
C454 O446 1.249 . S
C454 O447 1.267 . S
C455 O452 1.249 . S
C455 O453 1.267 . S
Dy456 O460 2.398 1_545 S
Dy456 O461 2.491 . S
Dy456 O462 2.403 1_545 S
Dy456 O463 2.666 1_554 S
Dy456 O467 2.326 1_545 S
Dy456 O471 2.310 . S
Dy456 O472 2.351 . S
C457 O468 1.185 . S
C457 O469 1.355 . S
C458 O460 1.185 1_545 S
C458 O461 1.355 . S
Dy459 O463 2.315 . S
Dy459 O466 2.351 . S
Dy459 O468 2.398 . S
Dy459 O469 2.491 . S
Dy459 O470 2.403 . S
Dy459 O471 2.664 1_556 S
Dy459 O473 2.326 . S
O460 Dy456 2.398 1_565 S
O460 C458 1.185 1_565 S
O461 Dy456 2.491 . S
O461 C458 1.355 . S
O462 Dy456 2.403 1_565 S
O462 C464 1.254 . S
O463 Dy456 2.666 1_556 S
O463 Dy459 2.315 . S
O463 C464 1.261 1_546 S
C464 O462 1.254 . S
C464 O463 1.261 1_564 S
C465 O470 1.254 1_554 S
C465 O471 1.268 . S
O466 Dy459 2.351 . S
O466 C474 1.249 1_556 S
O467 Dy456 2.326 1_565 S
O467 C474 1.267 1_565 S
O468 C457 1.185 . S
O468 Dy459 2.398 . S
O469 C457 1.355 . S
O469 Dy459 2.491 . S
O470 Dy459 2.403 . S
O470 C465 1.254 1_556 S
O471 Dy456 2.310 . S
O471 Dy459 2.664 1_554 S
O471 C465 1.268 . S
O472 Dy456 2.351 . S
O472 C475 1.249 . S
O473 Dy459 2.326 . S
O473 C475 1.267 1_556 S
C474 O466 1.249 1_554 S
C474 O467 1.267 1_545 S
C475 O472 1.249 . S
C475 O473 1.267 1_554 S
Dy476 O480 2.398 . S
Dy476 O481 2.491 . S
Dy476 O482 2.403 . S
Dy476 O483 2.664 . S
Dy476 O487 2.326 . S
Dy476 O491 2.310 . S
Dy476 O492 2.351 . S
C477 O488 1.185 . S
C477 O489 1.355 . S
C478 O480 1.185 . S
C478 O481 1.355 . S
Dy479 O483 2.310 . S
Dy479 O486 2.351 . S
Dy479 O488 2.398 . S
Dy479 O489 2.491 . S
Dy479 O490 2.403 . S
Dy479 O491 2.664 . S
Dy479 O493 2.326 . S
O480 Dy476 2.398 . S
O480 C478 1.185 . S
O481 Dy476 2.491 . S
O481 C478 1.355 . S
O482 Dy476 2.403 . S
O482 C484 1.254 . S
O483 Dy476 2.664 . S
O483 Dy479 2.310 . S
O483 C484 1.268 . S
C484 O482 1.254 . S
C484 O483 1.268 . S
C485 O490 1.254 . S
C485 O491 1.268 . S
O486 Dy479 2.351 . S
O486 C494 1.249 . S
O487 Dy476 2.326 . S
O487 C494 1.267 . S
O488 C477 1.185 . S
O488 Dy479 2.398 . S
O489 C477 1.355 . S
O489 Dy479 2.491 . S
O490 Dy479 2.403 . S
O490 C485 1.254 . S
O491 Dy476 2.310 . S
O491 Dy479 2.664 . S
O491 C485 1.268 . S
O492 Dy476 2.351 . S
O492 C495 1.249 . S
O493 Dy479 2.326 . S
O493 C495 1.267 . S
C494 O486 1.249 . S
C494 O487 1.267 . S
C495 O492 1.249 . S
C495 O493 1.267 . S
Dy496 O500 2.398 . S
Dy496 O501 2.491 . S
Dy496 O502 2.403 . S
Dy496 O503 2.664 1_556 S
Dy496 O507 2.326 . S
Dy496 O511 2.310 1_556 S
Dy496 O512 2.333 1_556 S
C497 O508 1.185 . S
C497 O509 1.355 . S
C498 O500 1.185 . S
C498 O501 1.355 . S
Dy499 O503 2.310 . S
Dy499 O506 2.351 . S
Dy499 O508 2.398 . S
Dy499 O509 2.491 . S
Dy499 O510 2.403 . S
Dy499 O511 2.664 . S
Dy499 O513 2.326 . S
O500 Dy496 2.398 . S
O500 C498 1.185 . S
O501 Dy496 2.491 . S
O501 C498 1.355 . S
O502 Dy496 2.403 . S
O502 C504 1.254 . S
O503 Dy496 2.664 1_554 S
O503 Dy499 2.310 . S
O503 C504 1.268 1_554 S
C504 O502 1.254 . S
C504 O503 1.268 1_556 S
C505 O510 1.254 . S
C505 O511 1.268 . S
O506 Dy499 2.351 . S
O506 C514 1.249 1_554 S
O507 Dy496 2.326 . S
O507 C514 1.267 . S
O508 C497 1.185 . S
O508 Dy499 2.398 . S
O509 C497 1.355 . S
O509 Dy499 2.491 . S
O510 Dy499 2.403 . S
O510 C505 1.254 . S
O511 Dy496 2.310 1_554 S
O511 Dy499 2.664 . S
O511 C505 1.268 . S
O512 Dy496 2.333 1_554 S
O512 C515 1.275 . S
O513 Dy499 2.326 . S
O513 C515 1.267 . S
C514 O506 1.249 1_556 S
C514 O507 1.267 . S
C515 O512 1.275 . S
C515 O513 1.267 . S
Dy516 O520 2.398 . S
Dy516 O521 2.491 . S
Dy516 O522 2.403 . S
Dy516 O523 2.664 . S
Dy516 O527 2.326 . S
Dy516 O531 2.310 . S
Dy516 O532 2.351 . S
C517 O528 1.185 . S
C517 O529 1.355 . S
C518 O520 1.185 . S
C518 O521 1.355 . S
Dy519 O523 2.310 . S
Dy519 O526 2.351 . S
Dy519 O528 2.398 . S
Dy519 O529 2.491 . S
Dy519 O530 2.403 . S
Dy519 O531 2.664 . S
Dy519 O533 2.326 . S
O520 Dy516 2.398 . S
O520 C518 1.185 . S
O521 Dy516 2.491 . S
O521 C518 1.355 . S
O522 Dy516 2.403 . S
O522 C524 1.254 . S
O523 Dy516 2.664 . S
O523 Dy519 2.310 . S
O523 C524 1.268 . S
C524 O522 1.254 . S
C524 O523 1.268 . S
C525 O530 1.254 . S
C525 O531 1.268 . S
O526 Dy519 2.351 . S
O526 C534 1.249 . S
O527 Dy516 2.326 . S
O527 C534 1.267 . S
O528 C517 1.185 . S
O528 Dy519 2.398 . S
O529 C517 1.355 . S
O529 Dy519 2.491 . S
O530 Dy519 2.403 . S
O530 C525 1.254 . S
O531 Dy516 2.310 . S
O531 Dy519 2.664 . S
O531 C525 1.268 . S
O532 Dy516 2.351 . S
O532 C535 1.249 . S
O533 Dy519 2.326 . S
O533 C535 1.267 . S
C534 O526 1.249 . S
C534 O527 1.267 . S
C535 O532 1.249 . S
C535 O533 1.267 . S
Dy536 O540 2.398 1_455 S
Dy536 O541 2.491 1_455 S
Dy536 O542 2.403 . S
Dy536 O543 2.664 . S
Dy536 O547 2.326 1_455 S
Dy536 O551 2.310 . S
Dy536 O552 2.351 . S
C537 O548 1.185 . S
C537 O549 1.355 . S
C538 O540 1.185 . S
C538 O541 1.355 . S
Dy539 O543 2.310 . S
Dy539 O546 2.351 1_455 S
Dy539 O548 2.398 . S
Dy539 O549 2.491 . S
Dy539 O550 2.403 . S
Dy539 O551 2.664 . S
Dy539 O553 2.326 . S
O540 Dy536 2.398 1_655 S
O540 C538 1.185 . S
O541 Dy536 2.491 1_655 S
O541 C538 1.355 . S
O542 Dy536 2.403 . S
O542 C544 1.254 . S
O543 Dy536 2.664 . S
O543 Dy539 2.310 . S
O543 C544 1.268 . S
C544 O542 1.254 . S
C544 O543 1.268 . S
C545 O550 1.254 . S
C545 O551 1.268 . S
O546 Dy539 2.351 1_655 S
O546 C554 1.249 . S
O547 Dy536 2.326 1_655 S
O547 C554 1.267 . S
O548 C537 1.185 . S
O548 Dy539 2.398 . S
O549 C537 1.355 . S
O549 Dy539 2.491 . S
O550 Dy539 2.403 . S
O550 C545 1.254 . S
O551 Dy536 2.310 . S
O551 Dy539 2.664 . S
O551 C545 1.268 . S
O552 Dy536 2.351 . S
O552 C555 1.249 . S
O553 Dy539 2.326 . S
O553 C555 1.267 . S
C554 O546 1.249 . S
C554 O547 1.267 . S
C555 O552 1.249 . S
C555 O553 1.267 . S
Dy556 O560 2.398 . S
Dy556 O561 2.491 . S
Dy556 O562 2.403 . S
Dy556 O563 2.664 . S
Dy556 O567 2.326 . S
Dy556 O571 2.310 . S
Dy556 O572 2.351 . S
C557 O568 1.185 . S
C557 O569 1.355 . S
C558 O560 1.185 . S
C558 O561 1.355 . S
Dy559 O563 2.310 . S
Dy559 O566 2.351 . S
Dy559 O568 2.398 . S
Dy559 O569 2.491 . S
Dy559 O570 2.403 . S
Dy559 O571 2.664 . S
Dy559 O573 2.326 . S
O560 Dy556 2.398 . S
O560 C558 1.185 . S
O561 Dy556 2.491 . S
O561 C558 1.355 . S
O562 Dy556 2.403 . S
O562 C564 1.254 . S
O563 Dy556 2.664 . S
O563 Dy559 2.310 . S
O563 C564 1.268 . S
C564 O562 1.254 . S
C564 O563 1.268 . S
C565 O570 1.254 . S
C565 O571 1.268 . S
O566 Dy559 2.351 . S
O566 C574 1.249 . S
O567 Dy556 2.326 . S
O567 C574 1.267 . S
O568 C557 1.185 . S
O568 Dy559 2.398 . S
O569 C557 1.355 . S
O569 Dy559 2.491 . S
O570 Dy559 2.403 . S
O570 C565 1.254 . S
O571 Dy556 2.310 . S
O571 Dy559 2.664 . S
O571 C565 1.268 . S
O572 Dy556 2.351 . S
O572 C575 1.249 . S
O573 Dy559 2.326 . S
O573 C575 1.267 . S
C574 O566 1.249 . S
C574 O567 1.267 . S
C575 O572 1.249 . S
C575 O573 1.267 . S
Dy576 O580 2.398 . S
Dy576 O581 2.491 . S
Dy576 O582 2.403 . S
Dy576 O583 2.664 . S
Dy576 O587 2.326 . S
Dy576 O591 2.310 . S
Dy576 O592 2.351 . S
C577 O588 1.185 . S
C577 O589 1.355 . S
C578 O580 1.185 . S
C578 O581 1.355 . S
Dy579 O583 2.310 . S
Dy579 O586 2.351 . S
Dy579 O588 2.398 . S
Dy579 O589 2.491 . S
Dy579 O590 2.403 . S
Dy579 O591 2.664 . S
Dy579 O593 2.326 . S
O580 Dy576 2.398 . S
O580 C578 1.185 . S
O581 Dy576 2.491 . S
O581 C578 1.355 . S
O582 Dy576 2.403 . S
O582 C584 1.254 . S
O583 Dy576 2.664 . S
O583 Dy579 2.310 . S
O583 C584 1.268 . S
C584 O582 1.254 . S
C584 O583 1.268 . S
C585 O590 1.254 . S
C585 O591 1.268 . S
O586 Dy579 2.351 . S
O586 C594 1.249 . S
O587 Dy576 2.326 . S
O587 C594 1.267 . S
O588 C577 1.185 . S
O588 Dy579 2.398 . S
O589 C577 1.355 . S
O589 Dy579 2.491 . S
O590 Dy579 2.403 . S
O590 C585 1.254 . S
O591 Dy576 2.310 . S
O591 Dy579 2.664 . S
O591 C585 1.268 . S
O592 Dy576 2.351 . S
O592 C595 1.249 . S
O593 Dy579 2.326 . S
O593 C595 1.267 . S
C594 O586 1.249 . S
C594 O587 1.267 . S
C595 O592 1.249 . S
C595 O593 1.267 . S
Dy596 O600 2.398 . S
Dy596 O601 2.491 . S
Dy596 O602 2.403 . S
Dy596 O603 2.664 . S
Dy596 O607 2.326 . S
Dy596 O611 2.310 . S
Dy596 O612 2.351 . S
C597 O608 1.185 . S
C597 O609 1.355 . S
C598 O600 1.185 . S
C598 O601 1.355 . S
Dy599 O603 2.310 . S
Dy599 O606 2.351 . S
Dy599 O608 2.398 . S
Dy599 O609 2.491 . S
Dy599 O610 2.403 . S
Dy599 O611 2.664 . S
Dy599 O613 2.326 . S
O600 Dy596 2.398 . S
O600 C598 1.185 . S
O601 Dy596 2.491 . S
O601 C598 1.355 . S
O602 Dy596 2.403 . S
O602 C604 1.254 . S
O603 Dy596 2.664 . S
O603 Dy599 2.310 . S
O603 C604 1.268 . S
C604 O602 1.254 . S
C604 O603 1.268 . S
C605 O610 1.254 . S
C605 O611 1.268 . S
O606 Dy599 2.351 . S
O606 C614 1.249 . S
O607 Dy596 2.326 . S
O607 C614 1.267 . S
O608 C597 1.185 . S
O608 Dy599 2.398 . S
O609 C597 1.355 . S
O609 Dy599 2.491 . S
O610 Dy599 2.403 . S
O610 C605 1.254 . S
O611 Dy596 2.310 . S
O611 Dy599 2.664 . S
O611 C605 1.268 . S
O612 Dy596 2.351 . S
O612 C615 1.249 . S
O613 Dy599 2.326 . S
O613 C615 1.267 . S
C614 O606 1.249 . S
C614 O607 1.267 . S
C615 O612 1.249 . S
C615 O613 1.267 . S
Dy616 O620 2.398 . S
Dy616 O621 2.491 . S
Dy616 O622 2.403 . S
Dy616 O623 2.664 . S
Dy616 O627 2.326 . S
Dy616 O631 2.310 . S
Dy616 O632 2.351 . S
C617 O628 1.185 . S
C617 O629 1.355 . S
C618 O620 1.185 . S
C618 O621 1.355 . S
Dy619 O623 2.310 . S
Dy619 O626 2.351 . S
Dy619 O628 2.398 . S
Dy619 O629 2.491 . S
Dy619 O630 2.403 . S
Dy619 O631 2.664 . S
Dy619 O633 2.326 . S
O620 Dy616 2.398 . S
O620 C618 1.185 . S
O621 Dy616 2.491 . S
O621 C618 1.355 . S
O622 Dy616 2.403 . S
O622 C624 1.254 . S
O623 Dy616 2.664 . S
O623 Dy619 2.310 . S
O623 C624 1.268 . S
C624 O622 1.254 . S
C624 O623 1.268 . S
C625 O630 1.254 . S
C625 O631 1.268 . S
O626 Dy619 2.351 . S
O626 C634 1.249 . S
O627 Dy616 2.326 . S
O627 C634 1.267 . S
O628 C617 1.185 . S
O628 Dy619 2.398 . S
O629 C617 1.355 . S
O629 Dy619 2.491 . S
O630 Dy619 2.403 . S
O630 C625 1.254 . S
O631 Dy616 2.310 . S
O631 Dy619 2.664 . S
O631 C625 1.268 . S
O632 Dy616 2.351 . S
O632 C635 1.249 . S
O633 Dy619 2.326 . S
O633 C635 1.267 . S
C634 O626 1.249 . S
C634 O627 1.267 . S
C635 O632 1.249 . S
C635 O633 1.267 . S
Dy636 O640 2.398 1_554 S
Dy636 O641 2.491 . S
Dy636 O642 2.403 1_554 S
Dy636 O643 2.674 1_554 S
Dy636 O647 2.326 1_554 S
Dy636 O651 2.310 . S
Dy636 O652 2.351 . S
C637 O648 1.185 . S
C637 O649 1.355 . S
C638 O640 1.185 . S
C638 O641 1.355 1_556 S
Dy639 O643 2.304 1_654 S
Dy639 O646 2.351 . S
Dy639 O648 2.398 . S
Dy639 O649 2.491 . S
Dy639 O650 2.403 . S
Dy639 O651 2.664 1_655 S
Dy639 O653 2.330 . S
O640 Dy636 2.398 1_556 S
O640 C638 1.185 . S
O641 Dy636 2.491 . S
O641 C638 1.355 1_554 S
O642 Dy636 2.403 1_556 S
O642 C644 1.254 . S
O643 Dy636 2.674 1_556 S
O643 Dy639 2.304 1_456 S
O643 C644 1.271 . S
C644 O642 1.254 . S
C644 O643 1.271 . S
C645 O650 1.254 1_455 S
C645 O651 1.268 . S
O646 Dy639 2.351 . S
O646 C654 1.249 1_654 S
O647 Dy636 2.326 1_556 S
O647 C654 1.267 . S
O648 C637 1.185 . S
O648 Dy639 2.398 . S
O649 C637 1.355 . S
O649 Dy639 2.491 . S
O650 Dy639 2.403 . S
O650 C645 1.254 1_655 S
O651 Dy636 2.310 . S
O651 Dy639 2.664 1_455 S
O651 C645 1.268 . S
O652 Dy636 2.351 . S
O652 C655 1.249 . S
O653 Dy639 2.330 . S
O653 C655 1.259 1_655 S
C654 O646 1.249 1_456 S
C654 O647 1.267 . S
C655 O652 1.249 . S
C655 O653 1.259 1_455 S
H656 C662 0.930 . S
H657 C666 0.913 1_554 S
H658 C671 0.929 . S
H659 C669 0.929 . S
H660 C664 0.929 . S
H661 C670 0.929 . S
C662 H656 0.930 . S
C662 C663 1.358 1_455 S
C662 C670 1.378 . S
C663 C662 1.358 1_655 S
C663 C671 1.440 . S
C664 H660 0.929 . S
C664 C666 1.390 . S
C664 C668 1.350 1_655 S
C665 C668 1.463 . S
C665 C670 1.350 . S
C665 N673 1.427 1_455 S
C666 H657 0.913 1_556 S
C666 C664 1.390 . S
C666 C667 1.372 1_655 S
C667 C666 1.372 1_455 S
C667 C669 1.433 . S
C668 C664 1.350 1_455 S
C668 C665 1.463 . S
C668 N672 1.427 . S
C669 H659 0.929 . S
C669 C667 1.433 . S
C669 N672 1.384 . S
C670 H661 0.929 . S
C670 C662 1.378 . S
C670 C665 1.350 . S
C671 H658 0.929 . S
C671 C663 1.440 . S
C671 N673 1.384 . S
N672 C668 1.427 . S
N672 C669 1.384 . S
N673 C665 1.427 1_655 S
N673 C671 1.384 . S
H674 C680 0.930 . S
H675 C684 0.930 . S
H676 C689 0.929 . S
H677 C687 0.929 . S
H678 C682 0.929 . S
H679 C688 0.929 . S
C680 H674 0.930 . S
C680 C681 1.367 . S
C680 C688 1.378 . S
C681 C680 1.367 . S
C681 C689 1.433 . S
C682 H678 0.929 . S
C682 C684 1.378 . S
C682 C686 1.350 . S
C683 C686 1.463 . S
C683 C688 1.350 . S
C683 N691 1.427 . S
C684 H675 0.930 . S
C684 C682 1.378 . S
C684 C685 1.367 . S
C685 C684 1.367 . S
C685 C687 1.433 . S
C686 C682 1.350 . S
C686 C683 1.463 . S
C686 N690 1.427 . S
C687 H677 0.929 . S
C687 C685 1.433 . S
C687 N690 1.384 . S
C688 H679 0.929 . S
C688 C680 1.378 . S
C688 C683 1.350 . S
C689 H676 0.929 . S
C689 C681 1.433 . S
C689 N691 1.384 . S
N690 C686 1.427 . S
N690 C687 1.384 . S
N691 C683 1.427 . S
N691 C689 1.384 . S
H692 C698 0.930 . S
H693 C702 0.930 . S
H694 C707 0.929 . S
H695 C705 0.929 . S
H696 C700 0.929 . S
H697 C706 0.929 . S
C698 H692 0.930 . S
C698 C699 1.367 . S
C698 C706 1.378 . S
C699 C698 1.367 . S
C699 C707 1.433 . S
C700 H696 0.929 . S
C700 C702 1.378 . S
C700 C704 1.350 . S
C701 C704 1.463 . S
C701 C706 1.350 . S
C701 N709 1.427 . S
C702 H693 0.930 . S
C702 C700 1.378 . S
C702 C703 1.367 . S
C703 C702 1.367 . S
C703 C705 1.433 . S
C704 C700 1.350 . S
C704 C701 1.463 . S
C704 N708 1.427 . S
C705 H695 0.929 . S
C705 C703 1.433 . S
C705 N708 1.384 . S
C706 H697 0.929 . S
C706 C698 1.378 . S
C706 C701 1.350 . S
C707 H694 0.929 . S
C707 C699 1.433 . S
C707 N709 1.384 . S
N708 C704 1.427 . S
N708 C705 1.384 . S
N709 C701 1.427 . S
N709 C707 1.384 . S
H710 C716 0.930 . S
H711 C720 0.930 . S
H712 C725 0.929 . S
H713 C723 0.929 . S
H714 C718 0.929 . S
H715 C724 0.929 . S
C716 H710 0.930 . S
C716 C717 1.367 . S
C716 C724 1.378 . S
C717 C716 1.367 . S
C717 C725 1.433 . S
C718 H714 0.929 . S
C718 C720 1.378 . S
C718 C722 1.350 . S
C719 C722 1.463 . S
C719 C724 1.350 . S
C719 N727 1.427 . S
C720 H711 0.930 . S
C720 C718 1.378 . S
C720 C721 1.367 . S
C721 C720 1.367 . S
C721 C723 1.433 . S
C722 C718 1.350 . S
C722 C719 1.463 . S
C722 N726 1.427 . S
C723 H713 0.929 . S
C723 C721 1.433 . S
C723 N726 1.384 . S
C724 H715 0.929 . S
C724 C716 1.378 . S
C724 C719 1.350 . S
C725 H712 0.929 . S
C725 C717 1.433 . S
C725 N727 1.384 . S
N726 C722 1.427 . S
N726 C723 1.384 . S
N727 C719 1.427 . S
N727 C725 1.384 . S
H728 C734 0.930 . S
H729 C738 0.930 . S
H730 C743 0.929 . S
H731 C741 0.929 1_655 S
H732 C736 0.929 . S
H733 C742 0.937 . S
C734 H728 0.930 . S
C734 C735 1.367 1_655 S
C734 C742 1.378 . S
C735 C734 1.367 1_455 S
C735 C743 1.433 . S
C736 H732 0.929 . S
C736 C738 1.378 . S
C736 C740 1.350 . S
C737 C740 1.463 . S
C737 C742 1.342 1_455 S
C737 N745 1.427 . S
C738 H729 0.930 . S
C738 C736 1.378 . S
C738 C739 1.367 . S
C739 C738 1.367 . S
C739 C741 1.433 . S
C740 C736 1.350 . S
C740 C737 1.463 . S
C740 N744 1.427 . S
C741 H731 0.929 1_455 S
C741 C739 1.433 . S
C741 N744 1.384 . S
C742 H733 0.937 . S
C742 C734 1.378 . S
C742 C737 1.342 1_655 S
C743 H730 0.929 . S
C743 C735 1.433 . S
C743 N745 1.384 . S
N744 C740 1.427 . S
N744 C741 1.384 . S
N745 C737 1.427 . S
N745 C743 1.384 . S
H746 C752 0.930 . S
H747 C756 0.930 . S
H748 C761 0.929 . S
H749 C759 0.929 . S
H750 C754 0.929 . S
H751 C760 0.929 . S
C752 H746 0.930 . S
C752 C753 1.367 . S
C752 C760 1.378 . S
C753 C752 1.367 . S
C753 C761 1.433 . S
C754 H750 0.929 . S
C754 C756 1.378 . S
C754 C758 1.350 . S
C755 C758 1.463 . S
C755 C760 1.350 . S
C755 N763 1.427 . S
C756 H747 0.930 . S
C756 C754 1.378 . S
C756 C757 1.367 . S
C757 C756 1.367 . S
C757 C759 1.433 . S
C758 C754 1.350 . S
C758 C755 1.463 . S
C758 N762 1.427 . S
C759 H749 0.929 . S
C759 C757 1.433 . S
C759 N762 1.384 . S
C760 H751 0.929 . S
C760 C752 1.378 . S
C760 C755 1.350 . S
C761 H748 0.929 . S
C761 C753 1.433 . S
C761 N763 1.384 . S
N762 C758 1.427 . S
N762 C759 1.384 . S
N763 C755 1.427 . S
N763 C761 1.384 . S
H764 C770 0.930 . S
H765 C774 0.930 . S
H766 C779 0.929 . S
H767 C777 0.929 . S
H768 C772 0.929 . S
H769 C778 0.929 . S
C770 H764 0.930 . S
C770 C771 1.367 . S
C770 C778 1.378 . S
C771 C770 1.367 . S
C771 C779 1.433 . S
C772 H768 0.929 . S
C772 C774 1.378 . S
C772 C776 1.350 . S
C773 C776 1.463 . S
C773 C778 1.350 . S
C773 N781 1.427 . S
C774 H765 0.930 . S
C774 C772 1.378 . S
C774 C775 1.367 . S
C775 C774 1.367 . S
C775 C777 1.433 . S
C776 C772 1.350 . S
C776 C773 1.463 . S
C776 N780 1.427 . S
C777 H767 0.929 . S
C777 C775 1.433 . S
C777 N780 1.384 . S
C778 H769 0.929 . S
C778 C770 1.378 . S
C778 C773 1.350 . S
C779 H766 0.929 . S
C779 C771 1.433 . S
C779 N781 1.384 . S
N780 C776 1.427 . S
N780 C777 1.384 . S
N781 C773 1.427 . S
N781 C779 1.384 . S
H782 C788 0.930 . S
H783 C792 0.930 . S
H784 C797 0.929 . S
H785 C795 0.929 . S
H786 C790 0.929 . S
H787 C796 0.929 . S
C788 H782 0.930 . S
C788 C789 1.367 . S
C788 C796 1.378 . S
C789 C788 1.367 . S
C789 C797 1.433 . S
C790 H786 0.929 . S
C790 C792 1.378 . S
C790 C794 1.350 . S
C791 C794 1.463 . S
C791 C796 1.350 . S
C791 N799 1.427 . S
C792 H783 0.930 . S
C792 C790 1.378 . S
C792 C793 1.367 . S
C793 C792 1.367 . S
C793 C795 1.433 . S
C794 C790 1.350 . S
C794 C791 1.463 . S
C794 N798 1.427 . S
C795 H785 0.929 . S
C795 C793 1.433 . S
C795 N798 1.384 . S
C796 H787 0.929 . S
C796 C788 1.378 . S
C796 C791 1.350 . S
C797 H784 0.929 . S
C797 C789 1.433 . S
C797 N799 1.384 . S
N798 C794 1.427 . S
N798 C795 1.384 . S
N799 C791 1.427 . S
N799 C797 1.384 . S
H800 C806 0.930 . S
H801 C810 0.930 . S
H802 C815 0.929 . S
H803 C813 0.929 1_455 S
H804 C808 0.929 . S
H805 C814 0.929 . S
C806 H800 0.930 . S
C806 C807 1.367 . S
C806 C814 1.378 . S
C807 C806 1.367 . S
C807 C815 1.433 . S
C808 H804 0.929 . S
C808 C810 1.378 . S
C808 C812 1.350 . S
C809 C812 1.463 . S
C809 C814 1.350 . S
C809 N817 1.427 . S
C810 H801 0.930 . S
C810 C808 1.378 . S
C810 C811 1.367 . S
C811 C810 1.367 . S
C811 C813 1.433 . S
C812 C808 1.350 . S
C812 C809 1.463 . S
C812 N816 1.427 . S
C813 H803 0.929 1_655 S
C813 C811 1.433 . S
C813 N816 1.384 . S
C814 H805 0.929 . S
C814 C806 1.378 . S
C814 C809 1.350 . S
C815 H802 0.929 . S
C815 C807 1.433 . S
C815 N817 1.384 . S
N816 C812 1.427 . S
N816 C813 1.384 . S
N817 C809 1.427 . S
N817 C815 1.384 . S
H818 C824 0.930 . S
H819 C828 0.930 . S
H820 C833 0.929 . S
H821 C831 0.929 . S
H822 C826 0.929 . S
H823 C832 0.929 . S
C824 H818 0.930 . S
C824 C825 1.367 . S
C824 C832 1.378 . S
C825 C824 1.367 . S
C825 C833 1.433 . S
C826 H822 0.929 . S
C826 C828 1.378 . S
C826 C830 1.350 . S
C827 C830 1.463 . S
C827 C832 1.350 . S
C827 N835 1.427 . S
C828 H819 0.930 . S
C828 C826 1.378 . S
C828 C829 1.367 . S
C829 C828 1.367 . S
C829 C831 1.433 . S
C830 C826 1.350 . S
C830 C827 1.463 . S
C830 N834 1.427 . S
C831 H821 0.929 . S
C831 C829 1.433 . S
C831 N834 1.384 . S
C832 H823 0.929 . S
C832 C824 1.378 . S
C832 C827 1.350 . S
C833 H820 0.929 . S
C833 C825 1.433 . S
C833 N835 1.384 . S
N834 C830 1.427 . S
N834 C831 1.384 . S
N835 C827 1.427 . S
N835 C833 1.384 . S
H836 C842 0.930 . S
H837 C846 0.930 . S
H838 C851 0.929 . S
H839 C849 0.929 . S
H840 C844 0.929 . S
H841 C850 0.929 . S
C842 H836 0.930 . S
C842 C843 1.367 . S
C842 C850 1.378 . S
C843 C842 1.367 . S
C843 C851 1.433 1_545 S
C844 H840 0.929 . S
C844 C846 1.378 . S
C844 C848 1.350 1_565 S
C845 C848 1.463 . S
C845 C850 1.350 . S
C845 N853 1.427 1_545 S
C846 H837 0.930 . S
C846 C844 1.378 . S
C846 C847 1.367 1_565 S
C847 C846 1.367 1_545 S
C847 C849 1.433 . S
C848 C844 1.350 1_545 S
C848 C845 1.463 . S
C848 N852 1.427 . S
C849 H839 0.929 . S
C849 C847 1.433 . S
C849 N852 1.384 . S
C850 H841 0.929 . S
C850 C842 1.378 . S
C850 C845 1.350 . S
C851 H838 0.929 . S
C851 C843 1.433 1_565 S
C851 N853 1.384 . S
N852 C848 1.427 . S
N852 C849 1.384 . S
N853 C845 1.427 1_565 S
N853 C851 1.384 . S
H854 C860 0.930 . S
H855 C864 0.930 . S
H856 C869 0.929 . S
H857 C867 0.929 . S
H858 C862 0.929 . S
H859 C868 0.929 . S
C860 H854 0.930 . S
C860 C861 1.367 . S
C860 C868 1.378 . S
C861 C860 1.367 . S
C861 C869 1.433 . S
C862 H858 0.929 . S
C862 C864 1.378 . S
C862 C866 1.350 . S
C863 C866 1.463 . S
C863 C868 1.350 . S
C863 N871 1.427 . S
C864 H855 0.930 . S
C864 C862 1.378 . S
C864 C865 1.367 . S
C865 C864 1.367 . S
C865 C867 1.433 . S
C866 C862 1.350 . S
C866 C863 1.463 . S
C866 N870 1.427 . S
C867 H857 0.929 . S
C867 C865 1.433 . S
C867 N870 1.384 . S
C868 H859 0.929 . S
C868 C860 1.378 . S
C868 C863 1.350 . S
C869 H856 0.929 . S
C869 C861 1.433 . S
C869 N871 1.384 . S
N870 C866 1.427 . S
N870 C867 1.384 . S
N871 C863 1.427 . S
N871 C869 1.384 . S
H872 C878 0.930 . S
H873 C882 0.930 . S
H874 C887 0.929 . S
H875 C885 0.929 1_565 S
H876 C880 0.929 . S
H877 C886 0.929 . S
C878 H872 0.930 . S
C878 C879 1.367 . S
C878 C886 1.378 . S
C879 C878 1.367 . S
C879 C887 1.433 . S
C880 H876 0.929 . S
C880 C882 1.378 . S
C880 C884 1.350 . S
C881 C884 1.463 . S
C881 C886 1.350 . S
C881 N889 1.427 . S
C882 H873 0.930 . S
C882 C880 1.378 . S
C882 C883 1.367 . S
C883 C882 1.367 . S
C883 C885 1.433 . S
C884 C880 1.350 . S
C884 C881 1.463 . S
C884 N888 1.427 . S
C885 H875 0.929 1_545 S
C885 C883 1.433 . S
C885 N888 1.384 . S
C886 H877 0.929 . S
C886 C878 1.378 . S
C886 C881 1.350 . S
C887 H874 0.929 . S
C887 C879 1.433 . S
C887 N889 1.384 . S
N888 C884 1.427 . S
N888 C885 1.384 . S
N889 C881 1.427 . S
N889 C887 1.384 . S
H890 C896 0.930 . S
H891 C900 0.930 . S
H892 C905 0.929 . S
H893 C903 0.929 . S
H894 C898 0.929 . S
H895 C904 0.929 . S
C896 H890 0.930 . S
C896 C897 1.367 . S
C896 C904 1.378 . S
C897 C896 1.367 . S
C897 C905 1.433 . S
C898 H894 0.929 . S
C898 C900 1.378 . S
C898 C902 1.350 . S
C899 C902 1.463 . S
C899 C904 1.350 . S
C899 N907 1.427 . S
C900 H891 0.930 . S
C900 C898 1.378 . S
C900 C901 1.367 . S
C901 C900 1.367 . S
C901 C903 1.433 . S
C902 C898 1.350 . S
C902 C899 1.463 . S
C902 N906 1.427 . S
C903 H893 0.929 . S
C903 C901 1.433 . S
C903 N906 1.384 . S
C904 H895 0.929 . S
C904 C896 1.378 . S
C904 C899 1.350 . S
C905 H892 0.929 . S
C905 C897 1.433 . S
C905 N907 1.384 . S
N906 C902 1.427 . S
N906 C903 1.384 . S
N907 C899 1.427 . S
N907 C905 1.384 . S
H908 C914 0.930 . S
H909 C918 0.930 . S
H910 C923 0.929 1_565 S
H911 C921 0.929 . S
H912 C916 0.929 . S
H913 C922 0.929 . S
C914 H908 0.930 . S
C914 C915 1.367 . S
C914 C922 1.378 . S
C915 C914 1.367 . S
C915 C923 1.433 . S
C916 H912 0.929 . S
C916 C918 1.378 . S
C916 C920 1.350 . S
C917 C920 1.463 . S
C917 C922 1.350 . S
C917 N925 1.427 . S
C918 H909 0.930 . S
C918 C916 1.378 . S
C918 C919 1.367 . S
C919 C918 1.367 . S
C919 C921 1.433 . S
C920 C916 1.350 . S
C920 C917 1.463 . S
C920 N924 1.427 . S
C921 H911 0.929 . S
C921 C919 1.433 . S
C921 N924 1.384 . S
C922 H913 0.929 . S
C922 C914 1.378 . S
C922 C917 1.350 . S
C923 H910 0.929 1_545 S
C923 C915 1.433 . S
C923 N925 1.384 . S
N924 C920 1.427 . S
N924 C921 1.384 . S
N925 C917 1.427 . S
N925 C923 1.384 . S
H926 C932 0.930 . S
H927 C936 0.930 . S
H928 C941 0.929 . S
H929 C939 0.929 . S
H930 C934 0.929 . S
H931 C940 0.929 . S
C932 H926 0.930 . S
C932 C933 1.367 . S
C932 C940 1.378 . S
C933 C932 1.367 . S
C933 C941 1.433 . S
C934 H930 0.929 . S
C934 C936 1.378 . S
C934 C938 1.350 . S
C935 C938 1.463 . S
C935 C940 1.350 . S
C935 N943 1.427 . S
C936 H927 0.930 . S
C936 C934 1.378 . S
C936 C937 1.367 . S
C937 C936 1.367 . S
C937 C939 1.433 . S
C938 C934 1.350 . S
C938 C935 1.463 . S
C938 N942 1.427 . S
C939 H929 0.929 . S
C939 C937 1.433 . S
C939 N942 1.384 . S
C940 H931 0.929 . S
C940 C932 1.378 . S
C940 C935 1.350 . S
C941 H928 0.929 . S
C941 C933 1.433 . S
C941 N943 1.384 . S
N942 C938 1.427 . S
N942 C939 1.384 . S
N943 C935 1.427 . S
N943 C941 1.384 . S
H944 C950 0.930 . S
H945 C954 0.930 . S
H946 C959 0.929 . S
H947 C957 0.929 . S
H948 C952 0.929 1_545 S
H949 C958 0.929 . S
C950 H944 0.930 . S
C950 C951 1.367 . S
C950 C958 1.378 . S
C951 C950 1.367 . S
C951 C959 1.433 . S
C952 H948 0.929 1_565 S
C952 C954 1.378 1_565 S
C952 C956 1.350 . S
C953 C956 1.463 . S
C953 C958 1.350 . S
C953 N961 1.427 . S
C954 H945 0.930 . S
C954 C952 1.378 1_545 S
C954 C955 1.367 1_545 S
C955 C954 1.367 1_565 S
C955 C957 1.433 . S
C956 C952 1.350 . S
C956 C953 1.463 . S
C956 N960 1.427 . S
C957 H947 0.929 . S
C957 C955 1.433 . S
C957 N960 1.384 . S
C958 H949 0.929 . S
C958 C950 1.378 . S
C958 C953 1.350 . S
C959 H946 0.929 . S
C959 C951 1.433 . S
C959 N961 1.384 . S
N960 C956 1.427 . S
N960 C957 1.384 . S
N961 C953 1.427 . S
N961 C959 1.384 . S
H962 C968 0.930 . S
H963 C972 0.930 . S
H964 C977 0.929 . S
H965 C975 0.929 . S
H966 C970 0.929 . S
H967 C976 0.929 . S
C968 H962 0.930 . S
C968 C969 1.367 . S
C968 C976 1.378 . S
C969 C968 1.367 . S
C969 C977 1.433 1_554 S
C970 H966 0.929 . S
C970 C972 1.378 . S
C970 C974 1.350 1_556 S
C971 C974 1.463 . S
C971 C976 1.350 . S
C971 N979 1.427 1_554 S
C972 H963 0.930 . S
C972 C970 1.378 . S
C972 C973 1.367 1_556 S
C973 C972 1.367 1_554 S
C973 C975 1.433 . S
C974 C970 1.350 1_554 S
C974 C971 1.463 . S
C974 N978 1.427 . S
C975 H965 0.929 . S
C975 C973 1.433 . S
C975 N978 1.384 . S
C976 H967 0.929 . S
C976 C968 1.378 . S
C976 C971 1.350 . S
C977 H964 0.929 . S
C977 C969 1.433 1_556 S
C977 N979 1.384 . S
N978 C974 1.427 . S
N978 C975 1.384 . S
N979 C971 1.427 1_556 S
N979 C977 1.384 . S
H980 C986 0.930 . S
H981 C990 0.930 . S
H982 C995 0.929 . S
H983 C993 0.929 . S
H984 C988 0.929 . S
H985 C994 0.929 . S
C986 H980 0.930 . S
C986 C987 1.367 . S
C986 C994 1.378 . S
C987 C986 1.367 . S
C987 C995 1.433 . S
C988 H984 0.929 . S
C988 C990 1.378 . S
C988 C992 1.350 . S
C989 C992 1.463 . S
C989 C994 1.350 . S
C989 N997 1.427 . S
C990 H981 0.930 . S
C990 C988 1.378 . S
C990 C991 1.367 . S
C991 C990 1.367 . S
C991 C993 1.433 . S
C992 C988 1.350 . S
C992 C989 1.463 . S
C992 N996 1.427 . S
C993 H983 0.929 . S
C993 C991 1.433 . S
C993 N996 1.384 . S
C994 H985 0.929 . S
C994 C986 1.378 . S
C994 C989 1.350 . S
C995 H982 0.929 . S
C995 C987 1.433 . S
C995 N997 1.384 . S
N996 C992 1.427 . S
N996 C993 1.384 . S
N997 C989 1.427 . S
N997 C995 1.384 . S
H998 C1004 0.930 . S
H999 C1008 0.930 . S
H1000 C1013 0.929 . S
H1001 C1011 0.929 . S
H1002 C1006 0.929 . S
H1003 C1012 0.929 . S
C1004 H998 0.930 . S
C1004 C1005 1.367 . S
C1004 C1012 1.378 . S
C1005 C1004 1.367 . S
C1005 C1013 1.433 . S
C1006 H1002 0.929 . S
C1006 C1008 1.378 . S
C1006 C1010 1.350 . S
C1007 C1010 1.463 . S
C1007 C1012 1.350 . S
C1007 N1015 1.427 . S
C1008 H999 0.930 . S
C1008 C1006 1.378 . S
C1008 C1009 1.367 . S
C1009 C1008 1.367 . S
C1009 C1011 1.433 . S
C1010 C1006 1.350 . S
C1010 C1007 1.463 . S
C1010 N1014 1.427 . S
C1011 H1001 0.929 . S
C1011 C1009 1.433 . S
C1011 N1014 1.384 . S
C1012 H1003 0.929 . S
C1012 C1004 1.378 . S
C1012 C1007 1.350 . S
C1013 H1000 0.929 . S
C1013 C1005 1.433 . S
C1013 N1015 1.384 . S
N1014 C1010 1.427 . S
N1014 C1011 1.384 . S
N1015 C1007 1.427 . S
N1015 C1013 1.384 . S
H1016 C1022 0.930 . S
H1017 C1026 0.930 . S
H1018 C1031 0.929 . S
H1019 C1029 0.929 . S
H1020 C1024 0.929 . S
H1021 C1030 0.929 . S
C1022 H1016 0.930 . S
C1022 C1023 1.367 . S
C1022 C1030 1.378 . S
C1023 C1022 1.367 . S
C1023 C1031 1.433 . S
C1024 H1020 0.929 . S
C1024 C1026 1.378 . S
C1024 C1028 1.350 . S
C1025 C1028 1.463 . S
C1025 C1030 1.350 . S
C1025 N1033 1.427 . S
C1026 H1017 0.930 . S
C1026 C1024 1.378 . S
C1026 C1027 1.367 . S
C1027 C1026 1.367 . S
C1027 C1029 1.433 . S
C1028 C1024 1.350 . S
C1028 C1025 1.463 . S
C1028 N1032 1.427 . S
C1029 H1019 0.929 . S
C1029 C1027 1.433 . S
C1029 N1032 1.384 . S
C1030 H1021 0.929 . S
C1030 C1022 1.378 . S
C1030 C1025 1.350 . S
C1031 H1018 0.929 . S
C1031 C1023 1.433 . S
C1031 N1033 1.384 . S
N1032 C1028 1.427 . S
N1032 C1029 1.384 . S
N1033 C1025 1.427 . S
N1033 C1031 1.384 . S
H1034 C1040 0.930 . S
H1035 C1044 0.930 . S
H1036 C1049 0.929 . S
H1037 C1047 0.929 . S
H1038 C1042 0.929 . S
H1039 C1048 0.929 . S
C1040 H1034 0.930 . S
C1040 C1041 1.367 . S
C1040 C1048 1.378 . S
C1041 C1040 1.367 . S
C1041 C1049 1.433 . S
C1042 H1038 0.929 . S
C1042 C1044 1.378 . S
C1042 C1046 1.350 . S
C1043 C1046 1.463 . S
C1043 C1048 1.350 . S
C1043 N1051 1.427 . S
C1044 H1035 0.930 . S
C1044 C1042 1.378 . S
C1044 C1045 1.367 . S
C1045 C1044 1.367 . S
C1045 C1047 1.433 . S
C1046 C1042 1.350 . S
C1046 C1043 1.463 . S
C1046 N1050 1.427 . S
C1047 H1037 0.929 . S
C1047 C1045 1.433 . S
C1047 N1050 1.384 . S
C1048 H1039 0.929 . S
C1048 C1040 1.378 . S
C1048 C1043 1.350 . S
C1049 H1036 0.929 . S
C1049 C1041 1.433 . S
C1049 N1051 1.384 . S
N1050 C1046 1.427 . S
N1050 C1047 1.384 . S
N1051 C1043 1.427 . S
N1051 C1049 1.384 . S
H1052 C1058 0.930 . S
H1053 C1062 0.930 . S
H1054 C1067 0.929 . S
H1055 C1065 0.929 . S
H1056 C1060 0.929 . S
H1057 C1066 0.929 . S
C1058 H1052 0.930 . S
C1058 C1059 1.367 . S
C1058 C1066 1.378 . S
C1059 C1058 1.367 . S
C1059 C1067 1.433 . S
C1060 H1056 0.929 . S
C1060 C1062 1.378 . S
C1060 C1064 1.350 . S
C1061 C1064 1.463 . S
C1061 C1066 1.350 . S
C1061 N1069 1.427 . S
C1062 H1053 0.930 . S
C1062 C1060 1.378 . S
C1062 C1063 1.367 . S
C1063 C1062 1.367 . S
C1063 C1065 1.433 . S
C1064 C1060 1.350 . S
C1064 C1061 1.463 . S
C1064 N1068 1.427 . S
C1065 H1055 0.929 . S
C1065 C1063 1.433 . S
C1065 N1068 1.384 . S
C1066 H1057 0.929 . S
C1066 C1058 1.378 . S
C1066 C1061 1.350 . S
C1067 H1054 0.929 . S
C1067 C1059 1.433 . S
C1067 N1069 1.384 . S
N1068 C1064 1.427 . S
N1068 C1065 1.384 . S
N1069 C1061 1.427 . S
N1069 C1067 1.384 . S
H1070 C1076 0.930 . S
H1071 C1080 0.930 . S
H1072 C1085 0.929 . S
H1073 C1083 0.929 . S
H1074 C1078 0.929 . S
H1075 C1084 0.929 . S
C1076 H1070 0.930 . S
C1076 C1077 1.367 . S
C1076 C1084 1.378 . S
C1077 C1076 1.367 . S
C1077 C1085 1.433 . S
C1078 H1074 0.929 . S
C1078 C1080 1.378 . S
C1078 C1082 1.350 . S
C1079 C1082 1.463 . S
C1079 C1084 1.350 . S
C1079 N1087 1.427 . S
C1080 H1071 0.930 . S
C1080 C1078 1.378 . S
C1080 C1081 1.367 . S
C1081 C1080 1.367 . S
C1081 C1083 1.433 . S
C1082 C1078 1.350 . S
C1082 C1079 1.463 . S
C1082 N1086 1.427 . S
C1083 H1073 0.929 . S
C1083 C1081 1.433 . S
C1083 N1086 1.384 . S
C1084 H1075 0.929 . S
C1084 C1076 1.378 . S
C1084 C1079 1.350 . S
C1085 H1072 0.929 . S
C1085 C1077 1.433 . S
C1085 N1087 1.384 . S
N1086 C1082 1.427 . S
N1086 C1083 1.384 . S
N1087 C1079 1.427 . S
N1087 C1085 1.384 . S
H1088 C1094 0.930 . S
H1089 C1098 0.930 . S
H1090 C1103 0.929 . S
H1091 C1101 0.929 1_556 S
H1092 C1096 0.929 . S
H1093 C1102 0.929 . S
C1094 H1088 0.930 . S
C1094 C1095 1.367 . S
C1094 C1102 1.378 . S
C1095 C1094 1.367 . S
C1095 C1103 1.433 . S
C1096 H1092 0.929 . S
C1096 C1098 1.378 . S
C1096 C1100 1.350 . S
C1097 C1100 1.463 . S
C1097 C1102 1.350 . S
C1097 N1105 1.427 . S
C1098 H1089 0.930 . S
C1098 C1096 1.378 . S
C1098 C1099 1.367 . S
C1099 C1098 1.367 . S
C1099 C1101 1.433 . S
C1100 C1096 1.350 . S
C1100 C1097 1.463 . S
C1100 N1104 1.427 . S
C1101 H1091 0.929 1_554 S
C1101 C1099 1.433 . S
C1101 N1104 1.384 . S
C1102 H1093 0.929 . S
C1102 C1094 1.378 . S
C1102 C1097 1.350 . S
C1103 H1090 0.929 . S
C1103 C1095 1.433 . S
C1103 N1105 1.384 . S
N1104 C1100 1.427 . S
N1104 C1101 1.384 . S
N1105 C1097 1.427 . S
N1105 C1103 1.384 . S
H1106 C1112 0.930 . S
H1107 C1116 0.930 . S
H1108 C1121 0.929 . S
H1109 C1119 0.929 . S
H1110 C1114 0.929 . S
H1111 C1120 0.929 . S
C1112 H1106 0.930 . S
C1112 C1113 1.367 . S
C1112 C1120 1.378 . S
C1113 C1112 1.367 . S
C1113 C1121 1.433 . S
C1114 H1110 0.929 . S
C1114 C1116 1.378 . S
C1114 C1118 1.350 . S
C1115 C1118 1.463 . S
C1115 C1120 1.350 . S
C1115 N1123 1.427 . S
C1116 H1107 0.930 . S
C1116 C1114 1.378 . S
C1116 C1117 1.367 . S
C1117 C1116 1.367 . S
C1117 C1119 1.433 . S
C1118 C1114 1.350 . S
C1118 C1115 1.463 . S
C1118 N1122 1.427 . S
C1119 H1109 0.929 . S
C1119 C1117 1.433 . S
C1119 N1122 1.384 . S
C1120 H1111 0.929 . S
C1120 C1112 1.378 . S
C1120 C1115 1.350 . S
C1121 H1108 0.929 . S
C1121 C1113 1.433 . S
C1121 N1123 1.384 . S
N1122 C1118 1.427 . S
N1122 C1119 1.384 . S
N1123 C1115 1.427 . S
N1123 C1121 1.384 . S
H1124 C1130 0.930 . S
H1125 C1134 0.930 . S
H1126 C1139 0.929 . S
H1127 C1137 0.929 . S
H1128 C1132 0.929 . S
H1129 C1138 0.929 . S
C1130 H1124 0.930 . S
C1130 C1131 1.367 . S
C1130 C1138 1.378 . S
C1131 C1130 1.367 . S
C1131 C1139 1.433 . S
C1132 H1128 0.929 . S
C1132 C1134 1.378 . S
C1132 C1136 1.350 . S
C1133 C1136 1.463 . S
C1133 C1138 1.350 . S
C1133 N1141 1.427 . S
C1134 H1125 0.930 . S
C1134 C1132 1.378 . S
C1134 C1135 1.367 . S
C1135 C1134 1.367 . S
C1135 C1137 1.433 . S
C1136 C1132 1.350 . S
C1136 C1133 1.463 . S
C1136 N1140 1.427 . S
C1137 H1127 0.929 . S
C1137 C1135 1.433 . S
C1137 N1140 1.384 . S
C1138 H1129 0.929 . S
C1138 C1130 1.378 . S
C1138 C1133 1.350 . S
C1139 H1126 0.929 . S
C1139 C1131 1.433 . S
C1139 N1141 1.384 . S
N1140 C1136 1.427 . S
N1140 C1137 1.384 . S
N1141 C1133 1.427 . S
N1141 C1139 1.384 . S
H1142 C1148 0.930 . S
H1143 C1152 0.930 . S
H1144 C1157 0.929 . S
H1145 C1155 0.929 . S
H1146 C1150 0.929 . S
H1147 C1156 0.929 . S
C1148 H1142 0.930 . S
C1148 C1149 1.367 . S
C1148 C1156 1.378 . S
C1149 C1148 1.367 . S
C1149 C1157 1.433 . S
C1150 H1146 0.929 . S
C1150 C1152 1.378 . S
C1150 C1154 1.350 . S
C1151 C1154 1.463 . S
C1151 C1156 1.350 . S
C1151 N1159 1.427 . S
C1152 H1143 0.930 . S
C1152 C1150 1.378 . S
C1152 C1153 1.367 . S
C1153 C1152 1.367 . S
C1153 C1155 1.433 . S
C1154 C1150 1.350 . S
C1154 C1151 1.463 . S
C1154 N1158 1.427 . S
C1155 H1145 0.929 . S
C1155 C1153 1.433 . S
C1155 N1158 1.384 . S
C1156 H1147 0.929 . S
C1156 C1148 1.378 . S
C1156 C1151 1.350 . S
C1157 H1144 0.929 . S
C1157 C1149 1.433 . S
C1157 N1159 1.384 . S
N1158 C1154 1.427 . S
N1158 C1155 1.384 . S
N1159 C1151 1.427 . S
N1159 C1157 1.384 . S
H1160 C1166 0.930 . S
H1161 C1170 0.930 . S
H1162 C1175 0.929 . S
H1163 C1173 0.929 1_655 S
H1164 C1168 0.929 . S
H1165 C1174 0.929 . S
C1166 H1160 0.930 . S
C1166 C1167 1.367 . S
C1166 C1174 1.378 . S
C1167 C1166 1.367 . S
C1167 C1175 1.433 . S
C1168 H1164 0.929 . S
C1168 C1170 1.378 . S
C1168 C1172 1.350 . S
C1169 C1172 1.463 . S
C1169 C1174 1.350 . S
C1169 N1177 1.427 . S
C1170 H1161 0.930 . S
C1170 C1168 1.378 . S
C1170 C1171 1.367 . S
C1171 C1170 1.367 . S
C1171 C1173 1.433 . S
C1172 C1168 1.350 . S
C1172 C1169 1.463 . S
C1172 N1176 1.427 . S
C1173 H1163 0.929 1_455 S
C1173 C1171 1.433 . S
C1173 N1176 1.384 . S
C1174 H1165 0.929 . S
C1174 C1166 1.378 . S
C1174 C1169 1.350 . S
C1175 H1162 0.929 . S
C1175 C1167 1.433 . S
C1175 N1177 1.384 . S
N1176 C1172 1.427 . S
N1176 C1173 1.384 . S
N1177 C1169 1.427 . S
N1177 C1175 1.384 . S
H1178 C1184 0.930 . S
H1179 C1188 0.930 . S
H1180 C1193 0.929 . S
H1181 C1191 0.929 . S
H1182 C1186 0.929 . S
H1183 C1192 0.929 . S
C1184 H1178 0.930 . S
C1184 C1185 1.367 . S
C1184 C1192 1.378 . S
C1185 C1184 1.367 . S
C1185 C1193 1.433 . S
C1186 H1182 0.929 . S
C1186 C1188 1.378 . S
C1186 C1190 1.350 . S
C1187 C1190 1.463 . S
C1187 C1192 1.350 . S
C1187 N1195 1.427 . S
C1188 H1179 0.930 . S
C1188 C1186 1.378 . S
C1188 C1189 1.367 . S
C1189 C1188 1.367 . S
C1189 C1191 1.433 . S
C1190 C1186 1.350 . S
C1190 C1187 1.463 . S
C1190 N1194 1.427 . S
C1191 H1181 0.929 . S
C1191 C1189 1.433 . S
C1191 N1194 1.384 . S
C1192 H1183 0.929 . S
C1192 C1184 1.378 . S
C1192 C1187 1.350 . S
C1193 H1180 0.929 . S
C1193 C1185 1.433 . S
C1193 N1195 1.384 . S
N1194 C1190 1.427 . S
N1194 C1191 1.384 . S
N1195 C1187 1.427 . S
N1195 C1193 1.384 . S
H1196 C1202 0.930 . S
H1197 C1206 0.930 1_554 S
H1198 C1211 0.929 . S
H1199 C1209 0.929 . S
H1200 C1204 0.929 . S
H1201 C1210 0.929 . S
C1202 H1196 0.930 . S
C1202 C1203 1.367 . S
C1202 C1210 1.378 . S
C1203 C1202 1.367 . S
C1203 C1211 1.433 . S
C1204 H1200 0.929 . S
C1204 C1206 1.378 . S
C1204 C1208 1.350 . S
C1205 C1208 1.463 . S
C1205 C1210 1.350 . S
C1205 N1213 1.427 . S
C1206 H1197 0.930 1_556 S
C1206 C1204 1.378 . S
C1206 C1207 1.367 . S
C1207 C1206 1.367 . S
C1207 C1209 1.433 . S
C1208 C1204 1.350 . S
C1208 C1205 1.463 . S
C1208 N1212 1.427 . S
C1209 H1199 0.929 . S
C1209 C1207 1.433 . S
C1209 N1212 1.384 . S
C1210 H1201 0.929 . S
C1210 C1202 1.378 . S
C1210 C1205 1.350 . S
C1211 H1198 0.929 . S
C1211 C1203 1.433 . S
C1211 N1213 1.384 . S
N1212 C1208 1.427 . S
N1212 C1209 1.384 . S
N1213 C1205 1.427 . S
N1213 C1211 1.384 . S
H1214 C1220 0.930 . S
H1215 C1224 0.930 . S
H1216 C1229 0.929 . S
H1217 C1227 0.929 . S
H1218 C1222 0.929 . S
H1219 C1228 0.929 . S
C1220 H1214 0.930 . S
C1220 C1221 1.367 . S
C1220 C1228 1.378 . S
C1221 C1220 1.367 . S
C1221 C1229 1.433 . S
C1222 H1218 0.929 . S
C1222 C1224 1.378 . S
C1222 C1226 1.350 . S
C1223 C1226 1.463 . S
C1223 C1228 1.350 . S
C1223 N1231 1.427 . S
C1224 H1215 0.930 . S
C1224 C1222 1.378 . S
C1224 C1225 1.367 . S
C1225 C1224 1.367 . S
C1225 C1227 1.433 . S
C1226 C1222 1.350 . S
C1226 C1223 1.463 . S
C1226 N1230 1.427 . S
C1227 H1217 0.929 . S
C1227 C1225 1.433 . S
C1227 N1230 1.384 . S
C1228 H1219 0.929 . S
C1228 C1220 1.378 . S
C1228 C1223 1.350 . S
C1229 H1216 0.929 . S
C1229 C1221 1.433 . S
C1229 N1231 1.384 . S
N1230 C1226 1.427 . S
N1230 C1227 1.384 . S
N1231 C1223 1.427 . S
N1231 C1229 1.384 . S
H1232 C1238 0.930 . S
H1233 C1242 0.930 . S
H1234 C1247 0.929 . S
H1235 C1245 0.929 . S
H1236 C1240 0.929 . S
H1237 C1246 0.929 . S
C1238 H1232 0.930 . S
C1238 C1239 1.367 . S
C1238 C1246 1.378 . S
C1239 C1238 1.367 . S
C1239 C1247 1.433 1_545 S
C1240 H1236 0.929 . S
C1240 C1242 1.378 . S
C1240 C1244 1.350 1_565 S
C1241 C1244 1.463 . S
C1241 C1246 1.350 . S
C1241 N1249 1.427 1_545 S
C1242 H1233 0.930 . S
C1242 C1240 1.378 . S
C1242 C1243 1.367 1_565 S
C1243 C1242 1.367 1_545 S
C1243 C1245 1.433 . S
C1244 C1240 1.350 1_545 S
C1244 C1241 1.463 . S
C1244 N1248 1.427 . S
C1245 H1235 0.929 . S
C1245 C1243 1.433 . S
C1245 N1248 1.384 . S
C1246 H1237 0.929 . S
C1246 C1238 1.378 . S
C1246 C1241 1.350 . S
C1247 H1234 0.929 . S
C1247 C1239 1.433 1_565 S
C1247 N1249 1.384 . S
N1248 C1244 1.427 . S
N1248 C1245 1.384 . S
N1249 C1241 1.427 1_565 S
N1249 C1247 1.384 . S
H1250 C1256 0.930 . S
H1251 C1260 0.930 . S
H1252 C1265 0.929 . S
H1253 C1263 0.929 . S
H1254 C1258 0.929 . S
H1255 C1264 0.929 . S
C1256 H1250 0.930 . S
C1256 C1257 1.367 . S
C1256 C1264 1.378 . S
C1257 C1256 1.367 . S
C1257 C1265 1.433 . S
C1258 H1254 0.929 . S
C1258 C1260 1.378 . S
C1258 C1262 1.350 . S
C1259 C1262 1.463 . S
C1259 C1264 1.350 . S
C1259 N1267 1.427 . S
C1260 H1251 0.930 . S
C1260 C1258 1.378 . S
C1260 C1261 1.367 . S
C1261 C1260 1.367 . S
C1261 C1263 1.433 . S
C1262 C1258 1.350 . S
C1262 C1259 1.463 . S
C1262 N1266 1.427 . S
C1263 H1253 0.929 . S
C1263 C1261 1.433 . S
C1263 N1266 1.384 . S
C1264 H1255 0.929 . S
C1264 C1256 1.378 . S
C1264 C1259 1.350 . S
C1265 H1252 0.929 . S
C1265 C1257 1.433 . S
C1265 N1267 1.384 . S
N1266 C1262 1.427 . S
N1266 C1263 1.384 . S
N1267 C1259 1.427 . S
N1267 C1265 1.384 . S
H1268 C1274 0.930 . S
H1269 C1278 0.930 1_565 S
H1270 C1283 0.929 1_565 S
H1271 C1281 0.929 . S
H1272 C1276 0.929 1_565 S
H1273 C1282 0.929 . S
C1274 H1268 0.930 . S
C1274 C1275 1.367 . S
C1274 C1282 1.378 . S
C1275 C1274 1.367 . S
C1275 C1283 1.433 . S
C1276 H1272 0.929 1_545 S
C1276 C1278 1.378 . S
C1276 C1280 1.350 . S
C1277 C1280 1.463 . S
C1277 C1282 1.350 . S
C1277 N1285 1.427 . S
C1278 H1269 0.930 1_545 S
C1278 C1276 1.378 . S
C1278 C1279 1.367 . S
C1279 C1278 1.367 . S
C1279 C1281 1.433 . S
C1280 C1276 1.350 . S
C1280 C1277 1.463 . S
C1280 N1284 1.427 . S
C1281 H1271 0.929 . S
C1281 C1279 1.433 . S
C1281 N1284 1.384 . S
C1282 H1273 0.929 . S
C1282 C1274 1.378 . S
C1282 C1277 1.350 . S
C1283 H1270 0.929 1_545 S
C1283 C1275 1.433 . S
C1283 N1285 1.384 . S
N1284 C1280 1.427 . S
N1284 C1281 1.384 . S
N1285 C1277 1.427 . S
N1285 C1283 1.384 . S
H1286 C1292 0.930 . S
H1287 C1296 0.930 . S
H1288 C1301 0.929 . S
H1289 C1299 0.929 . S
H1290 C1294 0.929 . S
H1291 C1300 0.929 . S
C1292 H1286 0.930 . S
C1292 C1293 1.367 . S
C1292 C1300 1.378 . S
C1293 C1292 1.367 . S
C1293 C1301 1.433 . S
C1294 H1290 0.929 . S
C1294 C1296 1.378 . S
C1294 C1298 1.350 . S
C1295 C1298 1.463 . S
C1295 C1300 1.350 . S
C1295 N1303 1.427 . S
C1296 H1287 0.930 . S
C1296 C1294 1.378 . S
C1296 C1297 1.367 . S
C1297 C1296 1.367 . S
C1297 C1299 1.433 . S
C1298 C1294 1.350 . S
C1298 C1295 1.463 . S
C1298 N1302 1.427 . S
C1299 H1289 0.929 . S
C1299 C1297 1.433 . S
C1299 N1302 1.384 . S
C1300 H1291 0.929 . S
C1300 C1292 1.378 . S
C1300 C1295 1.350 . S
C1301 H1288 0.929 . S
C1301 C1293 1.433 . S
C1301 N1303 1.384 . S
N1302 C1298 1.427 . S
N1302 C1299 1.384 . S
N1303 C1295 1.427 . S
N1303 C1301 1.384 . S
H1304 C1310 0.930 . S
H1305 C1314 0.930 . S
H1306 C1319 0.929 . S
H1307 C1317 0.929 . S
H1308 C1312 0.929 . S
H1309 C1318 0.929 . S
C1310 H1304 0.930 . S
C1310 C1311 1.367 . S
C1310 C1318 1.378 . S
C1311 C1310 1.367 . S
C1311 C1319 1.433 1_565 S
C1312 H1308 0.929 . S
C1312 C1314 1.378 . S
C1312 C1316 1.350 . S
C1313 C1316 1.463 . S
C1313 C1318 1.350 1_545 S
C1313 N1321 1.427 . S
C1314 H1305 0.930 . S
C1314 C1312 1.378 . S
C1314 C1315 1.367 . S
C1315 C1314 1.367 . S
C1315 C1317 1.433 1_545 S
C1316 C1312 1.350 . S
C1316 C1313 1.463 . S
C1316 N1320 1.427 1_545 S
C1317 H1307 0.929 . S
C1317 C1315 1.433 1_565 S
C1317 N1320 1.384 . S
C1318 H1309 0.929 . S
C1318 C1310 1.378 . S
C1318 C1313 1.350 1_565 S
C1319 H1306 0.929 . S
C1319 C1311 1.433 1_545 S
C1319 N1321 1.384 . S
N1320 C1316 1.427 1_565 S
N1320 C1317 1.384 . S
N1321 C1313 1.427 . S
N1321 C1319 1.384 . S
H1322 C1328 0.930 . S
H1323 C1332 0.930 . S
H1324 C1337 0.929 . S
H1325 C1335 0.929 . S
H1326 C1330 0.929 . S
H1327 C1336 0.929 . S
C1328 H1322 0.930 . S
C1328 C1329 1.367 . S
C1328 C1336 1.378 . S
C1329 C1328 1.367 . S
C1329 C1337 1.433 . S
C1330 H1326 0.929 . S
C1330 C1332 1.378 . S
C1330 C1334 1.350 . S
C1331 C1334 1.463 . S
C1331 C1336 1.350 . S
C1331 N1339 1.427 . S
C1332 H1323 0.930 . S
C1332 C1330 1.378 . S
C1332 C1333 1.367 . S
C1333 C1332 1.367 . S
C1333 C1335 1.433 . S
C1334 C1330 1.350 . S
C1334 C1331 1.463 . S
C1334 N1338 1.427 . S
C1335 H1325 0.929 . S
C1335 C1333 1.433 . S
C1335 N1338 1.384 . S
C1336 H1327 0.929 . S
C1336 C1328 1.378 . S
C1336 C1331 1.350 . S
C1337 H1324 0.929 . S
C1337 C1329 1.433 . S
C1337 N1339 1.384 . S
N1338 C1334 1.427 . S
N1338 C1335 1.384 . S
N1339 C1331 1.427 . S
N1339 C1337 1.384 . S
H1340 C1346 0.930 . S
H1341 C1350 0.930 . S
H1342 C1355 0.929 . S
H1343 C1353 0.929 . S
H1344 C1348 0.929 . S
H1345 C1354 0.929 . S
C1346 H1340 0.930 . S
C1346 C1347 1.367 . S
C1346 C1354 1.378 . S
C1347 C1346 1.367 . S
C1347 C1355 1.433 1_545 S
C1348 H1344 0.929 . S
C1348 C1350 1.378 . S
C1348 C1352 1.350 1_565 S
C1349 C1352 1.463 . S
C1349 C1354 1.350 . S
C1349 N1357 1.427 1_545 S
C1350 H1341 0.930 . S
C1350 C1348 1.378 . S
C1350 C1351 1.367 1_565 S
C1351 C1350 1.367 1_545 S
C1351 C1353 1.433 . S
C1352 C1348 1.350 1_545 S
C1352 C1349 1.463 . S
C1352 N1356 1.427 . S
C1353 H1343 0.929 . S
C1353 C1351 1.433 . S
C1353 N1356 1.384 . S
C1354 H1345 0.929 . S
C1354 C1346 1.378 . S
C1354 C1349 1.350 . S
C1355 H1342 0.929 . S
C1355 C1347 1.433 1_565 S
C1355 N1357 1.384 . S
N1356 C1352 1.427 . S
N1356 C1353 1.384 . S
N1357 C1349 1.427 1_565 S
N1357 C1355 1.384 . S
H1358 C1364 0.930 . S
H1359 C1368 0.930 . S
H1360 C1373 0.929 . S
H1361 C1371 0.929 . S
H1362 C1366 0.929 . S
H1363 C1372 0.929 . S
C1364 H1358 0.930 . S
C1364 C1365 1.367 . S
C1364 C1372 1.378 . S
C1365 C1364 1.367 . S
C1365 C1373 1.433 . S
C1366 H1362 0.929 . S
C1366 C1368 1.378 . S
C1366 C1370 1.350 . S
C1367 C1370 1.463 . S
C1367 C1372 1.350 . S
C1367 N1375 1.427 . S
C1368 H1359 0.930 . S
C1368 C1366 1.378 . S
C1368 C1369 1.367 . S
C1369 C1368 1.367 . S
C1369 C1371 1.433 . S
C1370 C1366 1.350 . S
C1370 C1367 1.463 . S
C1370 N1374 1.427 . S
C1371 H1361 0.929 . S
C1371 C1369 1.433 . S
C1371 N1374 1.384 . S
C1372 H1363 0.929 . S
C1372 C1364 1.378 . S
C1372 C1367 1.350 . S
C1373 H1360 0.929 . S
C1373 C1365 1.433 . S
C1373 N1375 1.384 . S
N1374 C1370 1.427 . S
N1374 C1371 1.384 . S
N1375 C1367 1.427 . S
N1375 C1373 1.384 . S
H1376 C1382 0.930 . S
H1377 C1386 0.930 . S
H1378 C1391 0.929 . S
H1379 C1389 0.929 . S
H1380 C1384 0.929 . S
H1381 C1390 0.929 . S
C1382 H1376 0.930 . S
C1382 C1383 1.358 1_554 S
C1382 C1390 1.378 . S
C1383 C1382 1.358 1_556 S
C1383 C1391 1.443 . S
C1384 H1380 0.929 . S
C1384 C1386 1.378 . S
C1384 C1388 1.350 . S
C1385 C1388 1.463 . S
C1385 C1390 1.350 1_556 S
C1385 N1393 1.427 . S
C1386 H1377 0.930 . S
C1386 C1384 1.378 . S
C1386 C1387 1.367 . S
C1387 C1386 1.367 . S
C1387 C1389 1.433 1_556 S
C1388 C1384 1.350 . S
C1388 C1385 1.463 . S
C1388 N1392 1.427 1_556 S
C1389 H1379 0.929 . S
C1389 C1387 1.433 1_554 S
C1389 N1392 1.384 . S
C1390 H1381 0.929 . S
C1390 C1382 1.378 . S
C1390 C1385 1.350 1_554 S
C1391 H1378 0.929 . S
C1391 C1383 1.443 . S
C1391 N1393 1.384 . S
N1392 C1388 1.427 1_554 S
N1392 C1389 1.384 . S
N1393 C1385 1.427 . S
N1393 C1391 1.384 . S
H1394 C1400 0.930 . S
H1395 C1404 0.930 . S
H1396 C1409 0.929 . S
H1397 C1407 0.929 . S
H1398 C1402 0.929 . S
H1399 C1408 0.929 . S
C1400 H1394 0.930 . S
C1400 C1401 1.367 . S
C1400 C1408 1.378 . S
C1401 C1400 1.367 . S
C1401 C1409 1.433 1_554 S
C1402 H1398 0.929 . S
C1402 C1404 1.378 . S
C1402 C1406 1.350 1_556 S
C1403 C1406 1.463 . S
C1403 C1408 1.350 . S
C1403 N1411 1.427 1_554 S
C1404 H1395 0.930 . S
C1404 C1402 1.378 . S
C1404 C1405 1.367 1_556 S
C1405 C1404 1.367 1_554 S
C1405 C1407 1.433 . S
C1406 C1402 1.350 1_554 S
C1406 C1403 1.463 . S
C1406 N1410 1.427 . S
C1407 H1397 0.929 . S
C1407 C1405 1.433 . S
C1407 N1410 1.384 . S
C1408 H1399 0.929 . S
C1408 C1400 1.378 . S
C1408 C1403 1.350 . S
C1409 H1396 0.929 . S
C1409 C1401 1.433 1_556 S
C1409 N1411 1.384 . S
N1410 C1406 1.427 . S
N1410 C1407 1.384 . S
N1411 C1403 1.427 1_556 S
N1411 C1409 1.384 . S
H1412 C1418 0.930 . S
H1413 C1422 0.930 . S
H1414 C1427 0.929 . S
H1415 C1425 0.929 . S
H1416 C1420 0.929 . S
H1417 C1426 0.929 . S
C1418 H1412 0.930 . S
C1418 C1419 1.367 . S
C1418 C1426 1.378 . S
C1419 C1418 1.367 . S
C1419 C1427 1.433 . S
C1420 H1416 0.929 . S
C1420 C1422 1.378 . S
C1420 C1424 1.350 . S
C1421 C1424 1.463 . S
C1421 C1426 1.350 . S
C1421 N1429 1.427 . S
C1422 H1413 0.930 . S
C1422 C1420 1.378 . S
C1422 C1423 1.367 . S
C1423 C1422 1.367 . S
C1423 C1425 1.433 . S
C1424 C1420 1.350 . S
C1424 C1421 1.463 . S
C1424 N1428 1.427 . S
C1425 H1415 0.929 . S
C1425 C1423 1.433 . S
C1425 N1428 1.384 . S
C1426 H1417 0.929 . S
C1426 C1418 1.378 . S
C1426 C1421 1.350 . S
C1427 H1414 0.929 . S
C1427 C1419 1.433 . S
C1427 N1429 1.384 . S
N1428 C1424 1.427 . S
N1428 C1425 1.384 . S
N1429 C1421 1.427 . S
N1429 C1427 1.384 . S
H1430 C1436 0.930 . S
H1431 C1440 0.930 . S
H1432 C1445 0.929 . S
H1433 C1443 0.929 . S
H1434 C1438 0.929 . S
H1435 C1444 0.929 . S
C1436 H1430 0.930 . S
C1436 C1437 1.367 . S
C1436 C1444 1.378 . S
C1437 C1436 1.367 . S
C1437 C1445 1.433 . S
C1438 H1434 0.929 . S
C1438 C1440 1.378 . S
C1438 C1442 1.350 . S
C1439 C1442 1.463 . S
C1439 C1444 1.350 . S
C1439 N1447 1.427 . S
C1440 H1431 0.930 . S
C1440 C1438 1.378 . S
C1440 C1441 1.367 . S
C1441 C1440 1.367 . S
C1441 C1443 1.433 . S
C1442 C1438 1.350 . S
C1442 C1439 1.463 . S
C1442 N1446 1.427 . S
C1443 H1433 0.929 . S
C1443 C1441 1.433 . S
C1443 N1446 1.384 . S
C1444 H1435 0.929 . S
C1444 C1436 1.378 . S
C1444 C1439 1.350 . S
C1445 H1432 0.929 . S
C1445 C1437 1.433 . S
C1445 N1447 1.384 . S
N1446 C1442 1.427 . S
N1446 C1443 1.384 . S
N1447 C1439 1.427 . S
N1447 C1445 1.384 . S
H1448 C1454 0.930 . S
H1449 C1458 0.930 . S
H1450 C1463 0.929 . S
H1451 C1461 0.929 . S
H1452 C1456 0.929 . S
H1453 C1462 0.929 . S
C1454 H1448 0.930 . S
C1454 C1455 1.367 . S
C1454 C1462 1.378 . S
C1455 C1454 1.367 . S
C1455 C1463 1.433 . S
C1456 H1452 0.929 . S
C1456 C1458 1.378 . S
C1456 C1460 1.350 . S
C1457 C1460 1.463 . S
C1457 C1462 1.350 . S
C1457 N1465 1.427 . S
C1458 H1449 0.930 . S
C1458 C1456 1.378 . S
C1458 C1459 1.367 . S
C1459 C1458 1.367 . S
C1459 C1461 1.433 . S
C1460 C1456 1.350 . S
C1460 C1457 1.463 . S
C1460 N1464 1.427 . S
C1461 H1451 0.929 . S
C1461 C1459 1.433 . S
C1461 N1464 1.384 . S
C1462 H1453 0.929 . S
C1462 C1454 1.378 . S
C1462 C1457 1.350 . S
C1463 H1450 0.929 . S
C1463 C1455 1.433 . S
C1463 N1465 1.384 . S
N1464 C1460 1.427 . S
N1464 C1461 1.384 . S
N1465 C1457 1.427 . S
N1465 C1463 1.384 . S
H1466 C1472 0.930 . S
H1467 C1476 0.930 . S
H1468 C1481 0.929 . S
H1469 C1479 0.929 . S
H1470 C1474 0.929 . S
H1471 C1480 0.929 . S
C1472 H1466 0.930 . S
C1472 C1473 1.367 . S
C1472 C1480 1.378 . S
C1473 C1472 1.367 . S
C1473 C1481 1.433 . S
C1474 H1470 0.929 . S
C1474 C1476 1.378 . S
C1474 C1478 1.350 . S
C1475 C1478 1.463 . S
C1475 C1480 1.350 . S
C1475 N1483 1.427 . S
C1476 H1467 0.930 . S
C1476 C1474 1.378 . S
C1476 C1477 1.367 . S
C1477 C1476 1.367 . S
C1477 C1479 1.433 . S
C1478 C1474 1.350 . S
C1478 C1475 1.463 . S
C1478 N1482 1.427 . S
C1479 H1469 0.929 . S
C1479 C1477 1.433 . S
C1479 N1482 1.384 . S
C1480 H1471 0.929 . S
C1480 C1472 1.378 . S
C1480 C1475 1.350 . S
C1481 H1468 0.929 . S
C1481 C1473 1.433 . S
C1481 N1483 1.384 . S
N1482 C1478 1.427 . S
N1482 C1479 1.384 . S
N1483 C1475 1.427 . S
N1483 C1481 1.384 . S
H1484 C1490 0.930 . S
H1485 C1494 0.930 . S
H1486 C1499 0.929 . S
H1487 C1497 0.929 . S
H1488 C1492 0.929 . S
H1489 C1498 0.929 . S
C1490 H1484 0.930 . S
C1490 C1491 1.367 . S
C1490 C1498 1.378 . S
C1491 C1490 1.367 . S
C1491 C1499 1.433 . S
C1492 H1488 0.929 . S
C1492 C1494 1.378 . S
C1492 C1496 1.350 . S
C1493 C1496 1.463 . S
C1493 C1498 1.350 . S
C1493 N1501 1.427 . S
C1494 H1485 0.930 . S
C1494 C1492 1.378 . S
C1494 C1495 1.367 . S
C1495 C1494 1.367 . S
C1495 C1497 1.433 . S
C1496 C1492 1.350 . S
C1496 C1493 1.463 . S
C1496 N1500 1.427 . S
C1497 H1487 0.929 . S
C1497 C1495 1.433 . S
C1497 N1500 1.384 . S
C1498 H1489 0.929 . S
C1498 C1490 1.378 . S
C1498 C1493 1.350 . S
C1499 H1486 0.929 . S
C1499 C1491 1.433 . S
C1499 N1501 1.384 . S
N1500 C1496 1.427 . S
N1500 C1497 1.384 . S
N1501 C1493 1.427 . S
N1501 C1499 1.384 . S
H1502 C1508 0.930 . S
H1503 C1512 0.930 . S
H1504 C1517 0.929 . S
H1505 C1515 0.929 . S
H1506 C1510 0.929 . S
H1507 C1516 0.929 . S
C1508 H1502 0.930 . S
C1508 C1509 1.367 . S
C1508 C1516 1.378 . S
C1509 C1508 1.367 . S
C1509 C1517 1.433 . S
C1510 H1506 0.929 . S
C1510 C1512 1.378 . S
C1510 C1514 1.350 . S
C1511 C1514 1.463 . S
C1511 C1516 1.350 . S
C1511 N1519 1.427 . S
C1512 H1503 0.930 . S
C1512 C1510 1.378 . S
C1512 C1513 1.367 . S
C1513 C1512 1.367 . S
C1513 C1515 1.433 . S
C1514 C1510 1.350 . S
C1514 C1511 1.463 . S
C1514 N1518 1.427 . S
C1515 H1505 0.929 . S
C1515 C1513 1.433 . S
C1515 N1518 1.384 . S
C1516 H1507 0.929 . S
C1516 C1508 1.378 . S
C1516 C1511 1.350 . S
C1517 H1504 0.929 . S
C1517 C1509 1.433 . S
C1517 N1519 1.384 . S
N1518 C1514 1.427 . S
N1518 C1515 1.384 . S
N1519 C1511 1.427 . S
N1519 C1517 1.384 . S
H1520 C1526 0.930 . S
H1521 C1530 0.930 . S
H1522 C1535 0.929 . S
H1523 C1533 0.929 . S
H1524 C1528 0.929 . S
H1525 C1534 0.929 . S
C1526 H1520 0.930 . S
C1526 C1527 1.367 . S
C1526 C1534 1.378 . S
C1527 C1526 1.367 . S
C1527 C1535 1.433 . S
C1528 H1524 0.929 . S
C1528 C1530 1.378 . S
C1528 C1532 1.350 . S
C1529 C1532 1.463 . S
C1529 C1534 1.350 . S
C1529 N1537 1.427 . S
C1530 H1521 0.930 . S
C1530 C1528 1.378 . S
C1530 C1531 1.367 . S
C1531 C1530 1.367 . S
C1531 C1533 1.433 . S
C1532 C1528 1.350 . S
C1532 C1529 1.463 . S
C1532 N1536 1.427 . S
C1533 H1523 0.929 . S
C1533 C1531 1.433 . S
C1533 N1536 1.384 . S
C1534 H1525 0.929 . S
C1534 C1526 1.378 . S
C1534 C1529 1.350 . S
C1535 H1522 0.929 . S
C1535 C1527 1.433 . S
C1535 N1537 1.384 . S
N1536 C1532 1.427 . S
N1536 C1533 1.384 . S
N1537 C1529 1.427 . S
N1537 C1535 1.384 . S
H1538 C1544 0.930 . S
H1539 C1548 0.930 . S
H1540 C1553 0.929 . S
H1541 C1551 0.929 . S
H1542 C1546 0.929 . S
H1543 C1552 0.929 . S
C1544 H1538 0.930 . S
C1544 C1545 1.367 . S
C1544 C1552 1.378 . S
C1545 C1544 1.367 . S
C1545 C1553 1.433 . S
C1546 H1542 0.929 . S
C1546 C1548 1.378 . S
C1546 C1550 1.350 . S
C1547 C1550 1.463 . S
C1547 C1552 1.350 . S
C1547 N1555 1.427 . S
C1548 H1539 0.930 . S
C1548 C1546 1.378 . S
C1548 C1549 1.367 . S
C1549 C1548 1.367 . S
C1549 C1551 1.433 . S
C1550 C1546 1.350 . S
C1550 C1547 1.463 . S
C1550 N1554 1.427 . S
C1551 H1541 0.929 . S
C1551 C1549 1.433 . S
C1551 N1554 1.384 . S
C1552 H1543 0.929 . S
C1552 C1544 1.378 . S
C1552 C1547 1.350 . S
C1553 H1540 0.929 . S
C1553 C1545 1.433 . S
C1553 N1555 1.384 . S
N1554 C1550 1.427 . S
N1554 C1551 1.384 . S
N1555 C1547 1.427 . S
N1555 C1553 1.384 . S
H1556 C1562 0.930 . S
H1557 C1566 0.930 . S
H1558 C1571 0.929 . S
H1559 C1569 0.929 . S
H1560 C1564 0.929 . S
H1561 C1570 0.929 . S
C1562 H1556 0.930 . S
C1562 C1563 1.367 . S
C1562 C1570 1.378 . S
C1563 C1562 1.367 . S
C1563 C1571 1.433 . S
C1564 H1560 0.929 . S
C1564 C1566 1.378 . S
C1564 C1568 1.350 . S
C1565 C1568 1.463 . S
C1565 C1570 1.350 . S
C1565 N1573 1.427 . S
C1566 H1557 0.930 . S
C1566 C1564 1.378 . S
C1566 C1567 1.367 . S
C1567 C1566 1.367 . S
C1567 C1569 1.433 1_556 S
C1568 C1564 1.350 . S
C1568 C1565 1.463 . S
C1568 N1572 1.427 . S
C1569 H1559 0.929 . S
C1569 C1567 1.433 1_554 S
C1569 N1572 1.384 1_554 S
C1570 H1561 0.929 . S
C1570 C1562 1.378 . S
C1570 C1565 1.350 . S
C1571 H1558 0.929 . S
C1571 C1563 1.433 . S
C1571 N1573 1.384 . S
N1572 C1568 1.427 . S
N1572 C1569 1.384 1_556 S
N1573 C1565 1.427 . S
N1573 C1571 1.384 . S
H1574 C1580 0.930 . S
H1575 C1584 0.930 . S
H1576 C1589 0.929 . S
H1577 C1587 0.929 . S
H1578 C1582 0.929 . S
H1579 C1588 0.929 . S
C1580 H1574 0.930 . S
C1580 C1581 1.367 . S
C1580 C1588 1.378 . S
C1581 C1580 1.367 . S
C1581 C1589 1.433 . S
C1582 H1578 0.929 . S
C1582 C1584 1.378 . S
C1582 C1586 1.350 . S
C1583 C1586 1.463 . S
C1583 C1588 1.350 . S
C1583 N1591 1.427 . S
C1584 H1575 0.930 . S
C1584 C1582 1.378 . S
C1584 C1585 1.367 . S
C1585 C1584 1.367 . S
C1585 C1587 1.433 . S
C1586 C1582 1.350 . S
C1586 C1583 1.463 . S
C1586 N1590 1.427 . S
C1587 H1577 0.929 . S
C1587 C1585 1.433 . S
C1587 N1590 1.384 . S
C1588 H1579 0.929 . S
C1588 C1580 1.378 . S
C1588 C1583 1.350 . S
C1589 H1576 0.929 . S
C1589 C1581 1.433 . S
C1589 N1591 1.384 . S
N1590 C1586 1.427 . S
N1590 C1587 1.384 . S
N1591 C1583 1.427 . S
N1591 C1589 1.384 . S
H1592 C1598 0.930 . S
H1593 C1602 0.930 . S
H1594 C1607 0.929 . S
H1595 C1605 0.929 . S
H1596 C1600 0.929 . S
H1597 C1606 0.929 . S
C1598 H1592 0.930 . S
C1598 C1599 1.367 . S
C1598 C1606 1.378 . S
C1599 C1598 1.367 . S
C1599 C1607 1.433 . S
C1600 H1596 0.929 . S
C1600 C1602 1.378 . S
C1600 C1604 1.350 . S
C1601 C1604 1.463 . S
C1601 C1606 1.350 . S
C1601 N1609 1.427 . S
C1602 H1593 0.930 . S
C1602 C1600 1.378 . S
C1602 C1603 1.367 . S
C1603 C1602 1.367 . S
C1603 C1605 1.433 . S
C1604 C1600 1.350 . S
C1604 C1601 1.463 . S
C1604 N1608 1.427 . S
C1605 H1595 0.929 . S
C1605 C1603 1.433 . S
C1605 N1608 1.384 . S
C1606 H1597 0.929 . S
C1606 C1598 1.378 . S
C1606 C1601 1.350 . S
C1607 H1594 0.929 . S
C1607 C1599 1.433 . S
C1607 N1609 1.384 . S
N1608 C1604 1.427 . S
N1608 C1605 1.384 . S
N1609 C1601 1.427 . S
N1609 C1607 1.384 . S
H1610 C1616 0.930 . S
H1611 C1620 0.930 . S
H1612 C1625 0.929 . S
H1613 C1623 0.929 . S
H1614 C1618 0.929 . S
H1615 C1624 0.929 . S
C1616 H1610 0.930 . S
C1616 C1617 1.367 . S
C1616 C1624 1.378 . S
C1617 C1616 1.367 . S
C1617 C1625 1.433 . S
C1618 H1614 0.929 . S
C1618 C1620 1.378 . S
C1618 C1622 1.350 . S
C1619 C1622 1.463 . S
C1619 C1624 1.350 . S
C1619 N1627 1.427 . S
C1620 H1611 0.930 . S
C1620 C1618 1.378 . S
C1620 C1621 1.367 . S
C1621 C1620 1.367 . S
C1621 C1623 1.433 . S
C1622 C1618 1.350 . S
C1622 C1619 1.463 . S
C1622 N1626 1.427 . S
C1623 H1613 0.929 . S
C1623 C1621 1.433 . S
C1623 N1626 1.384 . S
C1624 H1615 0.929 . S
C1624 C1616 1.378 . S
C1624 C1619 1.350 . S
C1625 H1612 0.929 . S
C1625 C1617 1.433 . S
C1625 N1627 1.384 . S
N1626 C1622 1.427 . S
N1626 C1623 1.384 . S
N1627 C1619 1.427 . S
N1627 C1625 1.384 . S
H1628 C1634 0.930 . S
H1629 C1638 0.930 . S
H1630 C1643 0.929 . S
H1631 C1641 0.929 . S
H1632 C1636 0.929 . S
H1633 C1642 0.929 . S
C1634 H1628 0.930 . S
C1634 C1635 1.392 . S
C1634 C1642 1.378 . S
C1635 C1634 1.392 . S
C1635 C1643 1.418 1_455 S
C1636 H1632 0.929 . S
C1636 C1638 1.378 . S
C1636 C1640 1.350 1_655 S
C1637 C1640 1.463 . S
C1637 C1642 1.350 . S
C1637 N1645 1.427 1_455 S
C1638 H1629 0.930 . S
C1638 C1636 1.378 . S
C1638 C1639 1.367 1_655 S
C1639 C1638 1.367 1_455 S
C1639 C1641 1.433 . S
C1640 C1636 1.350 1_455 S
C1640 C1637 1.463 . S
C1640 N1644 1.427 . S
C1641 H1631 0.929 . S
C1641 C1639 1.433 . S
C1641 N1644 1.384 . S
C1642 H1633 0.929 . S
C1642 C1634 1.378 . S
C1642 C1637 1.350 . S
C1643 H1630 0.929 . S
C1643 C1635 1.418 1_655 S
C1643 N1645 1.384 . S
N1644 C1640 1.427 . S
N1644 C1641 1.384 . S
N1645 C1637 1.427 1_655 S
N1645 C1643 1.384 . S
H1646 C1652 0.930 . S
H1647 C1656 0.930 . S
H1648 C1661 0.929 . S
H1649 C1659 0.929 . S
H1650 C1654 0.929 . S
H1651 C1660 0.929 . S
C1652 H1646 0.930 . S
C1652 C1653 1.367 . S
C1652 C1660 1.378 . S
C1653 C1652 1.367 . S
C1653 C1661 1.433 . S
C1654 H1650 0.929 . S
C1654 C1656 1.378 . S
C1654 C1658 1.350 . S
C1655 C1658 1.463 . S
C1655 C1660 1.350 . S
C1655 N1663 1.427 . S
C1656 H1647 0.930 . S
C1656 C1654 1.378 . S
C1656 C1657 1.367 . S
C1657 C1656 1.367 . S
C1657 C1659 1.433 . S
C1658 C1654 1.350 . S
C1658 C1655 1.463 . S
C1658 N1662 1.427 . S
C1659 H1649 0.929 . S
C1659 C1657 1.433 . S
C1659 N1662 1.384 . S
C1660 H1651 0.929 . S
C1660 C1652 1.378 . S
C1660 C1655 1.350 . S
C1661 H1648 0.929 . S
C1661 C1653 1.433 . S
C1661 N1663 1.384 . S
N1662 C1658 1.427 . S
N1662 C1659 1.384 . S
N1663 C1655 1.427 . S
N1663 C1661 1.384 . S
H1664 C1670 0.930 . S
H1665 C1674 0.930 . S
H1666 C1679 0.929 . S
H1667 C1677 0.929 . S
H1668 C1672 0.929 . S
H1669 C1678 0.929 . S
C1670 H1664 0.930 . S
C1670 C1671 1.367 . S
C1670 C1678 1.378 . S
C1671 C1670 1.367 . S
C1671 C1679 1.433 . S
C1672 H1668 0.929 . S
C1672 C1674 1.378 . S
C1672 C1676 1.350 . S
C1673 C1676 1.463 . S
C1673 C1678 1.350 . S
C1673 N1681 1.427 . S
C1674 H1665 0.930 . S
C1674 C1672 1.378 . S
C1674 C1675 1.367 . S
C1675 C1674 1.367 . S
C1675 C1677 1.433 . S
C1676 C1672 1.350 . S
C1676 C1673 1.463 . S
C1676 N1680 1.427 . S
C1677 H1667 0.929 . S
C1677 C1675 1.433 . S
C1677 N1680 1.384 . S
C1678 H1669 0.929 . S
C1678 C1670 1.378 . S
C1678 C1673 1.350 . S
C1679 H1666 0.929 . S
C1679 C1671 1.433 . S
C1679 N1681 1.384 . S
N1680 C1676 1.427 . S
N1680 C1677 1.384 . S
N1681 C1673 1.427 . S
N1681 C1679 1.384 . S
H1682 C1688 0.930 . S
H1683 C1692 0.930 . S
H1684 C1697 0.929 . S
H1685 C1695 0.929 . S
H1686 C1690 0.929 . S
H1687 C1696 0.929 . S
C1688 H1682 0.930 . S
C1688 C1689 1.367 . S
C1688 C1696 1.378 . S
C1689 C1688 1.367 . S
C1689 C1697 1.433 . S
C1690 H1686 0.929 . S
C1690 C1692 1.378 . S
C1690 C1694 1.350 . S
C1691 C1694 1.463 . S
C1691 C1696 1.350 . S
C1691 N1699 1.427 . S
C1692 H1683 0.930 . S
C1692 C1690 1.378 . S
C1692 C1693 1.367 . S
C1693 C1692 1.367 . S
C1693 C1695 1.433 . S
C1694 C1690 1.350 . S
C1694 C1691 1.463 . S
C1694 N1698 1.427 . S
C1695 H1685 0.929 . S
C1695 C1693 1.433 . S
C1695 N1698 1.384 . S
C1696 H1687 0.929 . S
C1696 C1688 1.378 . S
C1696 C1691 1.350 . S
C1697 H1684 0.929 . S
C1697 C1689 1.433 . S
C1697 N1699 1.384 . S
N1698 C1694 1.427 . S
N1698 C1695 1.384 . S
N1699 C1691 1.427 . S
N1699 C1697 1.384 . S
H1700 C1706 0.930 . S
H1701 C1710 0.930 . S
H1702 C1715 0.929 . S
H1703 C1713 0.929 . S
H1704 C1708 0.929 . S
H1705 C1714 0.929 . S
C1706 H1700 0.930 . S
C1706 C1707 1.367 . S
C1706 C1714 1.378 . S
C1707 C1706 1.367 . S
C1707 C1715 1.433 . S
C1708 H1704 0.929 . S
C1708 C1710 1.378 . S
C1708 C1712 1.350 . S
C1709 C1712 1.463 . S
C1709 C1714 1.350 . S
C1709 N1717 1.427 . S
C1710 H1701 0.930 . S
C1710 C1708 1.378 . S
C1710 C1711 1.367 . S
C1711 C1710 1.367 . S
C1711 C1713 1.433 . S
C1712 C1708 1.350 . S
C1712 C1709 1.463 . S
C1712 N1716 1.427 . S
C1713 H1703 0.929 . S
C1713 C1711 1.433 . S
C1713 N1716 1.384 . S
C1714 H1705 0.929 . S
C1714 C1706 1.378 . S
C1714 C1709 1.350 . S
C1715 H1702 0.929 . S
C1715 C1707 1.433 . S
C1715 N1717 1.384 . S
N1716 C1712 1.427 . S
N1716 C1713 1.384 . S
N1717 C1709 1.427 . S
N1717 C1715 1.384 . S
H1718 C1724 0.930 . S
H1719 C1728 0.930 . S
H1720 C1733 0.929 . S
H1721 C1731 0.929 . S
H1722 C1726 0.929 . S
H1723 C1732 0.929 . S
C1724 H1718 0.930 . S
C1724 C1725 1.367 . S
C1724 C1732 1.378 . S
C1725 C1724 1.367 . S
C1725 C1733 1.433 . S
C1726 H1722 0.929 . S
C1726 C1728 1.378 . S
C1726 C1730 1.350 . S
C1727 C1730 1.463 . S
C1727 C1732 1.350 . S
C1727 N1735 1.427 . S
C1728 H1719 0.930 . S
C1728 C1726 1.378 . S
C1728 C1729 1.367 . S
C1729 C1728 1.367 . S
C1729 C1731 1.433 . S
C1730 C1726 1.350 . S
C1730 C1727 1.463 . S
C1730 N1734 1.427 . S
C1731 H1721 0.929 . S
C1731 C1729 1.433 . S
C1731 N1734 1.384 . S
C1732 H1723 0.929 . S
C1732 C1724 1.378 . S
C1732 C1727 1.350 . S
C1733 H1720 0.929 . S
C1733 C1725 1.433 . S
C1733 N1735 1.384 . S
N1734 C1730 1.427 . S
N1734 C1731 1.384 . S
N1735 C1727 1.427 . S
N1735 C1733 1.384 . S
H1736 C1742 0.930 . S
H1737 C1746 0.930 . S
H1738 C1751 0.929 . S
H1739 C1749 0.929 . S
H1740 C1744 0.929 . S
H1741 C1750 0.929 . S
C1742 H1736 0.930 . S
C1742 C1743 1.367 . S
C1742 C1750 1.378 . S
C1743 C1742 1.367 . S
C1743 C1751 1.433 . S
C1744 H1740 0.929 . S
C1744 C1746 1.378 . S
C1744 C1748 1.350 . S
C1745 C1748 1.463 . S
C1745 C1750 1.350 . S
C1745 N1753 1.427 . S
C1746 H1737 0.930 . S
C1746 C1744 1.378 . S
C1746 C1747 1.367 . S
C1747 C1746 1.367 . S
C1747 C1749 1.433 . S
C1748 C1744 1.350 . S
C1748 C1745 1.463 . S
C1748 N1752 1.427 . S
C1749 H1739 0.929 . S
C1749 C1747 1.433 . S
C1749 N1752 1.384 . S
C1750 H1741 0.929 . S
C1750 C1742 1.378 . S
C1750 C1745 1.350 . S
C1751 H1738 0.929 . S
C1751 C1743 1.433 . S
C1751 N1753 1.384 . S
N1752 C1748 1.427 . S
N1752 C1749 1.384 . S
N1753 C1745 1.427 . S
N1753 C1751 1.384 . S
H1754 C1760 0.930 . S
H1755 C1764 0.930 . S
H1756 C1769 0.929 . S
H1757 C1767 0.929 . S
H1758 C1762 0.929 . S
H1759 C1768 0.929 . S
C1760 H1754 0.930 . S
C1760 C1761 1.367 . S
C1760 C1768 1.378 . S
C1761 C1760 1.367 . S
C1761 C1769 1.433 . S
C1762 H1758 0.929 . S
C1762 C1764 1.378 . S
C1762 C1766 1.350 . S
C1763 C1766 1.463 . S
C1763 C1768 1.350 . S
C1763 N1771 1.427 . S
C1764 H1755 0.930 . S
C1764 C1762 1.378 . S
C1764 C1765 1.367 . S
C1765 C1764 1.367 . S
C1765 C1767 1.433 . S
C1766 C1762 1.350 . S
C1766 C1763 1.463 . S
C1766 N1770 1.427 . S
C1767 H1757 0.929 . S
C1767 C1765 1.433 . S
C1767 N1770 1.384 . S
C1768 H1759 0.929 . S
C1768 C1760 1.378 . S
C1768 C1763 1.350 . S
C1769 H1756 0.929 . S
C1769 C1761 1.433 . S
C1769 N1771 1.384 . S
N1770 C1766 1.427 . S
N1770 C1767 1.384 . S
N1771 C1763 1.427 . S
N1771 C1769 1.384 . S
H1772 C1778 0.930 . S
H1773 C1782 0.930 . S
H1774 C1787 0.929 . S
H1775 C1785 0.929 . S
H1776 C1780 0.929 . S
H1777 C1786 0.929 . S
C1778 H1772 0.930 . S
C1778 C1779 1.367 . S
C1778 C1786 1.378 . S
C1779 C1778 1.367 . S
C1779 C1787 1.433 . S
C1780 H1776 0.929 . S
C1780 C1782 1.378 . S
C1780 C1784 1.350 . S
C1781 C1784 1.463 . S
C1781 C1786 1.350 . S
C1781 N1789 1.427 . S
C1782 H1773 0.930 . S
C1782 C1780 1.378 . S
C1782 C1783 1.367 . S
C1783 C1782 1.367 . S
C1783 C1785 1.433 . S
C1784 C1780 1.350 . S
C1784 C1781 1.463 . S
C1784 N1788 1.427 . S
C1785 H1775 0.929 . S
C1785 C1783 1.433 . S
C1785 N1788 1.384 . S
C1786 H1777 0.929 . S
C1786 C1778 1.378 . S
C1786 C1781 1.350 . S
C1787 H1774 0.929 . S
C1787 C1779 1.433 . S
C1787 N1789 1.384 . S
N1788 C1784 1.427 . S
N1788 C1785 1.384 . S
N1789 C1781 1.427 . S
N1789 C1787 1.384 . S
H1790 C1796 0.930 . S
H1791 C1800 0.930 . S
H1792 C1805 0.929 . S
H1793 C1803 0.929 . S
H1794 C1798 0.929 . S
H1795 C1804 0.929 . S
C1796 H1790 0.930 . S
C1796 C1797 1.367 . S
C1796 C1804 1.378 . S
C1797 C1796 1.367 . S
C1797 C1805 1.433 . S
C1798 H1794 0.929 . S
C1798 C1800 1.378 . S
C1798 C1802 1.350 . S
C1799 C1802 1.463 . S
C1799 C1804 1.350 . S
C1799 N1807 1.427 . S
C1800 H1791 0.930 . S
C1800 C1798 1.378 . S
C1800 C1801 1.367 . S
C1801 C1800 1.367 . S
C1801 C1803 1.433 . S
C1802 C1798 1.350 . S
C1802 C1799 1.463 . S
C1802 N1806 1.427 . S
C1803 H1793 0.929 . S
C1803 C1801 1.433 . S
C1803 N1806 1.384 . S
C1804 H1795 0.929 . S
C1804 C1796 1.378 . S
C1804 C1799 1.350 . S
C1805 H1792 0.929 . S
C1805 C1797 1.433 . S
C1805 N1807 1.384 . S
N1806 C1802 1.427 . S
N1806 C1803 1.384 . S
N1807 C1799 1.427 . S
N1807 C1805 1.384 . S
H1808 C1814 0.930 . S
H1809 C1818 0.930 . S
H1810 C1823 0.929 . S
H1811 C1821 0.929 . S
H1812 C1816 0.929 . S
H1813 C1822 0.929 . S
C1814 H1808 0.930 . S
C1814 C1815 1.367 . S
C1814 C1822 1.378 . S
C1815 C1814 1.367 . S
C1815 C1823 1.433 . S
C1816 H1812 0.929 . S
C1816 C1818 1.378 . S
C1816 C1820 1.350 . S
C1817 C1820 1.463 . S
C1817 C1822 1.350 . S
C1817 N1825 1.427 . S
C1818 H1809 0.930 . S
C1818 C1816 1.378 . S
C1818 C1819 1.367 . S
C1819 C1818 1.367 . S
C1819 C1821 1.433 . S
C1820 C1816 1.350 . S
C1820 C1817 1.463 . S
C1820 N1824 1.427 . S
C1821 H1811 0.929 . S
C1821 C1819 1.433 . S
C1821 N1824 1.384 . S
C1822 H1813 0.929 . S
C1822 C1814 1.378 . S
C1822 C1817 1.350 . S
C1823 H1810 0.929 . S
C1823 C1815 1.433 . S
C1823 N1825 1.384 . S
N1824 C1820 1.427 . S
N1824 C1821 1.384 . S
N1825 C1817 1.427 . S
N1825 C1823 1.384 . S
H1826 C1832 0.930 . S
H1827 C1836 0.930 . S
H1828 C1841 0.929 . S
H1829 C1839 0.929 . S
H1830 C1834 0.929 . S
H1831 C1840 0.929 . S
C1832 H1826 0.930 . S
C1832 C1833 1.367 . S
C1832 C1840 1.378 . S
C1833 C1832 1.367 . S
C1833 C1841 1.433 . S
C1834 H1830 0.929 . S
C1834 C1836 1.378 . S
C1834 C1838 1.350 . S
C1835 C1838 1.463 . S
C1835 C1840 1.350 . S
C1835 N1843 1.427 . S
C1836 H1827 0.930 . S
C1836 C1834 1.378 . S
C1836 C1837 1.367 . S
C1837 C1836 1.367 . S
C1837 C1839 1.433 . S
C1838 C1834 1.350 . S
C1838 C1835 1.463 . S
C1838 N1842 1.427 . S
C1839 H1829 0.929 . S
C1839 C1837 1.433 . S
C1839 N1842 1.384 . S
C1840 H1831 0.929 . S
C1840 C1832 1.378 . S
C1840 C1835 1.350 . S
C1841 H1828 0.929 . S
C1841 C1833 1.433 . S
C1841 N1843 1.384 . S
N1842 C1838 1.427 . S
N1842 C1839 1.384 . S
N1843 C1835 1.427 . S
N1843 C1841 1.384 . S
H1844 C1850 0.930 . S
H1845 C1854 0.930 . S
H1846 C1859 0.929 . S
H1847 C1857 0.929 . S
H1848 C1852 0.929 . S
H1849 C1858 0.929 . S
C1850 H1844 0.930 . S
C1850 C1851 1.367 . S
C1850 C1858 1.378 . S
C1851 C1850 1.367 . S
C1851 C1859 1.433 . S
C1852 H1848 0.929 . S
C1852 C1854 1.378 . S
C1852 C1856 1.350 . S
C1853 C1856 1.463 . S
C1853 C1858 1.350 . S
C1853 N1861 1.427 . S
C1854 H1845 0.930 . S
C1854 C1852 1.378 . S
C1854 C1855 1.367 . S
C1855 C1854 1.367 . S
C1855 C1857 1.433 . S
C1856 C1852 1.350 . S
C1856 C1853 1.463 . S
C1856 N1860 1.427 . S
C1857 H1847 0.929 . S
C1857 C1855 1.433 . S
C1857 N1860 1.384 . S
C1858 H1849 0.929 . S
C1858 C1850 1.378 . S
C1858 C1853 1.350 . S
C1859 H1846 0.929 . S
C1859 C1851 1.433 . S
C1859 N1861 1.384 . S
N1860 C1856 1.427 . S
N1860 C1857 1.384 . S
N1861 C1853 1.427 . S
N1861 C1859 1.384 . S
H1862 C1868 0.930 1_556 S
H1863 C1872 0.930 . S
H1864 C1877 0.929 . S
H1865 C1875 0.929 . S
H1866 C1870 0.929 . S
H1867 C1876 0.929 1_556 S
C1868 H1862 0.930 1_554 S
C1868 C1869 1.367 . S
C1868 C1876 1.378 . S
C1869 C1868 1.367 . S
C1869 C1877 1.433 . S
C1870 H1866 0.929 . S
C1870 C1872 1.378 . S
C1870 C1874 1.350 . S
C1871 C1874 1.463 . S
C1871 C1876 1.350 . S
C1871 N1879 1.427 . S
C1872 H1863 0.930 . S
C1872 C1870 1.378 . S
C1872 C1873 1.367 1_565 S
C1873 C1872 1.367 1_545 S
C1873 C1875 1.433 1_554 S
C1874 C1870 1.350 . S
C1874 C1871 1.463 . S
C1874 N1878 1.453 . S
C1875 H1865 0.929 . S
C1875 C1873 1.433 1_556 S
C1875 N1878 1.377 1_546 S
C1876 H1867 0.929 1_554 S
C1876 C1868 1.378 . S
C1876 C1871 1.350 . S
C1877 H1864 0.929 . S
C1877 C1869 1.433 . S
C1877 N1879 1.384 . S
N1878 C1874 1.453 . S
N1878 C1875 1.377 1_564 S
N1879 C1871 1.427 . S
N1879 C1877 1.384 . S
H1880 C1886 0.930 . S
H1881 C1890 0.930 . S
H1882 C1895 0.929 . S
H1883 C1893 0.929 . S
H1884 C1888 0.929 . S
H1885 C1894 0.929 . S
C1886 H1880 0.930 . S
C1886 C1887 1.367 . S
C1886 C1894 1.378 . S
C1887 C1886 1.367 . S
C1887 C1895 1.433 . S
C1888 H1884 0.929 . S
C1888 C1890 1.378 . S
C1888 C1892 1.350 . S
C1889 C1892 1.463 . S
C1889 C1894 1.350 . S
C1889 N1897 1.427 . S
C1890 H1881 0.930 . S
C1890 C1888 1.378 . S
C1890 C1891 1.367 . S
C1891 C1890 1.367 . S
C1891 C1893 1.433 . S
C1892 C1888 1.350 . S
C1892 C1889 1.463 . S
C1892 N1896 1.427 . S
C1893 H1883 0.929 . S
C1893 C1891 1.433 . S
C1893 N1896 1.384 . S
C1894 H1885 0.929 . S
C1894 C1886 1.378 . S
C1894 C1889 1.350 . S
C1895 H1882 0.929 . S
C1895 C1887 1.433 . S
C1895 N1897 1.384 . S
N1896 C1892 1.427 . S
N1896 C1893 1.384 . S
N1897 C1889 1.427 . S
N1897 C1895 1.384 . S
H1898 C1904 0.930 . S
H1899 C1908 0.930 . S
H1900 C1913 0.929 . S
H1901 C1911 0.929 . S
H1902 C1906 0.929 . S
H1903 C1912 0.929 . S
C1904 H1898 0.930 . S
C1904 C1905 1.367 . S
C1904 C1912 1.378 . S
C1905 C1904 1.367 . S
C1905 C1913 1.433 1_554 S
C1906 H1902 0.929 . S
C1906 C1908 1.378 . S
C1906 C1910 1.350 . S
C1907 C1910 1.463 . S
C1907 C1912 1.350 . S
C1907 N1915 1.427 . S
C1908 H1899 0.930 . S
C1908 C1906 1.378 . S
C1908 C1909 1.367 . S
C1909 C1908 1.367 . S
C1909 C1911 1.433 . S
C1910 C1906 1.350 . S
C1910 C1907 1.463 . S
C1910 N1914 1.427 . S
C1911 H1901 0.929 . S
C1911 C1909 1.433 . S
C1911 N1914 1.384 . S
C1912 H1903 0.929 . S
C1912 C1904 1.378 . S
C1912 C1907 1.350 . S
C1913 H1900 0.929 . S
C1913 C1905 1.433 1_556 S
C1913 N1915 1.384 1_556 S
N1914 C1910 1.427 . S
N1914 C1911 1.384 . S
N1915 C1907 1.427 . S
N1915 C1913 1.384 1_554 S
H1916 C1922 0.930 . S
H1917 C1926 0.930 . S
H1918 C1931 0.929 . S
H1919 C1929 0.929 . S
H1920 C1924 0.929 . S
H1921 C1930 0.929 . S
C1922 H1916 0.930 . S
C1922 C1923 1.367 . S
C1922 C1930 1.378 . S
C1923 C1922 1.367 . S
C1923 C1931 1.433 . S
C1924 H1920 0.929 . S
C1924 C1926 1.378 . S
C1924 C1928 1.350 . S
C1925 C1928 1.463 . S
C1925 C1930 1.350 . S
C1925 N1933 1.427 . S
C1926 H1917 0.930 . S
C1926 C1924 1.378 . S
C1926 C1927 1.367 . S
C1927 C1926 1.367 . S
C1927 C1929 1.433 . S
C1928 C1924 1.350 . S
C1928 C1925 1.463 . S
C1928 N1932 1.427 . S
C1929 H1919 0.929 . S
C1929 C1927 1.433 . S
C1929 N1932 1.384 . S
C1930 H1921 0.929 . S
C1930 C1922 1.378 . S
C1930 C1925 1.350 . S
C1931 H1918 0.929 . S
C1931 C1923 1.433 . S
C1931 N1933 1.384 . S
N1932 C1928 1.427 . S
N1932 C1929 1.384 . S
N1933 C1925 1.427 . S
N1933 C1931 1.384 . S
H1934 C1940 0.930 . S
H1935 C1944 0.930 . S
H1936 C1949 0.929 . S
H1937 C1947 0.929 . S
H1938 C1942 0.929 . S
H1939 C1948 0.929 . S
C1940 H1934 0.930 . S
C1940 C1941 1.367 . S
C1940 C1948 1.378 . S
C1941 C1940 1.367 . S
C1941 C1949 1.433 . S
C1942 H1938 0.929 . S
C1942 C1944 1.378 . S
C1942 C1946 1.350 . S
C1943 C1946 1.463 . S
C1943 C1948 1.350 . S
C1943 N1951 1.427 . S
C1944 H1935 0.930 . S
C1944 C1942 1.378 . S
C1944 C1945 1.367 . S
C1945 C1944 1.367 . S
C1945 C1947 1.433 . S
C1946 C1942 1.350 . S
C1946 C1943 1.463 . S
C1946 N1950 1.427 . S
C1947 H1937 0.929 . S
C1947 C1945 1.433 . S
C1947 N1950 1.384 . S
C1948 H1939 0.929 . S
C1948 C1940 1.378 . S
C1948 C1943 1.350 . S
C1949 H1936 0.929 . S
C1949 C1941 1.433 . S
C1949 N1951 1.384 . S
N1950 C1946 1.427 . S
N1950 C1947 1.384 . S
N1951 C1943 1.427 . S
N1951 C1949 1.384 . S
H1952 C1958 0.930 . S
H1953 C1962 0.930 . S
H1954 C1967 0.929 . S
H1955 C1965 0.929 . S
H1956 C1960 0.929 . S
H1957 C1966 0.929 . S
C1958 H1952 0.930 . S
C1958 C1959 1.367 . S
C1958 C1966 1.378 . S
C1959 C1958 1.367 . S
C1959 C1967 1.433 . S
C1960 H1956 0.929 . S
C1960 C1962 1.378 . S
C1960 C1964 1.350 . S
C1961 C1964 1.463 . S
C1961 C1966 1.350 . S
C1961 N1969 1.427 . S
C1962 H1953 0.930 . S
C1962 C1960 1.378 . S
C1962 C1963 1.367 . S
C1963 C1962 1.367 . S
C1963 C1965 1.433 . S
C1964 C1960 1.350 . S
C1964 C1961 1.463 . S
C1964 N1968 1.427 . S
C1965 H1955 0.929 . S
C1965 C1963 1.433 . S
C1965 N1968 1.384 . S
C1966 H1957 0.929 . S
C1966 C1958 1.378 . S
C1966 C1961 1.350 . S
C1967 H1954 0.929 . S
C1967 C1959 1.433 . S
C1967 N1969 1.384 . S
N1968 C1964 1.427 . S
N1968 C1965 1.384 . S
N1969 C1961 1.427 . S
N1969 C1967 1.384 . S
H1970 C1976 0.930 . S
H1971 C1980 0.930 . S
H1972 C1985 0.929 . S
H1973 C1983 0.929 . S
H1974 C1978 0.929 . S
H1975 C1984 0.929 . S
C1976 H1970 0.930 . S
C1976 C1977 1.367 . S
C1976 C1984 1.378 . S
C1977 C1976 1.367 . S
C1977 C1985 1.433 . S
C1978 H1974 0.929 . S
C1978 C1980 1.378 . S
C1978 C1982 1.350 . S
C1979 C1982 1.463 . S
C1979 C1984 1.350 . S
C1979 N1987 1.427 . S
C1980 H1971 0.930 . S
C1980 C1978 1.378 . S
C1980 C1981 1.367 . S
C1981 C1980 1.367 . S
C1981 C1983 1.433 . S
C1982 C1978 1.350 . S
C1982 C1979 1.463 . S
C1982 N1986 1.427 . S
C1983 H1973 0.929 . S
C1983 C1981 1.433 . S
C1983 N1986 1.384 . S
C1984 H1975 0.929 . S
C1984 C1976 1.378 . S
C1984 C1979 1.350 . S
C1985 H1972 0.929 . S
C1985 C1977 1.433 . S
C1985 N1987 1.384 . S
N1986 C1982 1.427 . S
N1986 C1983 1.384 . S
N1987 C1979 1.427 . S
N1987 C1985 1.384 . S
H1988 C1994 0.930 . S
H1989 C1998 0.930 1_556 S
H1990 C2003 0.929 . S
H1991 C2001 0.929 . S
H1992 C1996 0.929 . S
H1993 C2002 0.929 . S
C1994 H1988 0.930 . S
C1994 C1995 1.367 . S
C1994 C2002 1.378 . S
C1995 C1994 1.367 . S
C1995 C2003 1.433 . S
C1996 H1992 0.929 . S
C1996 C1998 1.378 . S
C1996 C2000 1.350 . S
C1997 C2000 1.463 . S
C1997 C2002 1.350 . S
C1997 N2005 1.427 . S
C1998 H1989 0.930 1_554 S
C1998 C1996 1.378 . S
C1998 C1999 1.367 . S
C1999 C1998 1.367 . S
C1999 C2001 1.433 . S
C2000 C1996 1.350 . S
C2000 C1997 1.463 . S
C2000 N2004 1.427 . S
C2001 H1991 0.929 . S
C2001 C1999 1.433 . S
C2001 N2004 1.384 . S
C2002 H1993 0.929 . S
C2002 C1994 1.378 . S
C2002 C1997 1.350 . S
C2003 H1990 0.929 . S
C2003 C1995 1.433 . S
C2003 N2005 1.384 . S
N2004 C2000 1.427 . S
N2004 C2001 1.384 . S
N2005 C1997 1.427 . S
N2005 C2003 1.384 . S
H2006 C2012 0.930 . S
H2007 C2016 0.930 . S
H2008 C2021 0.929 . S
H2009 C2019 0.929 . S
H2010 C2014 0.929 . S
H2011 C2020 0.929 . S
C2012 H2006 0.930 . S
C2012 C2013 1.367 . S
C2012 C2020 1.378 . S
C2013 C2012 1.367 . S
C2013 C2021 1.433 . S
C2014 H2010 0.929 . S
C2014 C2016 1.378 . S
C2014 C2018 1.350 . S
C2015 C2018 1.463 . S
C2015 C2020 1.350 . S
C2015 N2023 1.427 . S
C2016 H2007 0.930 . S
C2016 C2014 1.378 . S
C2016 C2017 1.367 . S
C2017 C2016 1.367 . S
C2017 C2019 1.433 . S
C2018 C2014 1.350 . S
C2018 C2015 1.463 . S
C2018 N2022 1.427 . S
C2019 H2009 0.929 . S
C2019 C2017 1.433 . S
C2019 N2022 1.384 . S
C2020 H2011 0.929 . S
C2020 C2012 1.378 . S
C2020 C2015 1.350 . S
C2021 H2008 0.929 . S
C2021 C2013 1.433 . S
C2021 N2023 1.384 . S
N2022 C2018 1.427 . S
N2022 C2019 1.384 . S
N2023 C2015 1.427 . S
N2023 C2021 1.384 . S
H2024 C2030 0.930 . S
H2025 C2034 0.930 . S
H2026 C2039 0.929 . S
H2027 C2037 0.929 . S
H2028 C2032 0.929 . S
H2029 C2038 0.929 . S
C2030 H2024 0.930 . S
C2030 C2031 1.367 . S
C2030 C2038 1.378 . S
C2031 C2030 1.367 . S
C2031 C2039 1.433 . S
C2032 H2028 0.929 . S
C2032 C2034 1.378 . S
C2032 C2036 1.350 . S
C2033 C2036 1.463 . S
C2033 C2038 1.350 . S
C2033 N2041 1.427 . S
C2034 H2025 0.930 . S
C2034 C2032 1.378 . S
C2034 C2035 1.367 . S
C2035 C2034 1.367 . S
C2035 C2037 1.433 . S
C2036 C2032 1.350 . S
C2036 C2033 1.463 . S
C2036 N2040 1.427 . S
C2037 H2027 0.929 . S
C2037 C2035 1.433 . S
C2037 N2040 1.384 . S
C2038 H2029 0.929 . S
C2038 C2030 1.378 . S
C2038 C2033 1.350 . S
C2039 H2026 0.929 . S
C2039 C2031 1.433 . S
C2039 N2041 1.384 . S
N2040 C2036 1.427 . S
N2040 C2037 1.384 . S
N2041 C2033 1.427 . S
N2041 C2039 1.384 . S
H2042 C2048 0.930 . S
H2043 C2052 0.930 . S
H2044 C2057 0.929 . S
H2045 C2055 0.929 . S
H2046 C2050 0.929 . S
H2047 C2056 0.929 . S
C2048 H2042 0.930 . S
C2048 C2049 1.367 . S
C2048 C2056 1.378 . S
C2049 C2048 1.367 . S
C2049 C2057 1.433 . S
C2050 H2046 0.929 . S
C2050 C2052 1.378 . S
C2050 C2054 1.350 . S
C2051 C2054 1.463 . S
C2051 C2056 1.350 . S
C2051 N2059 1.427 . S
C2052 H2043 0.930 . S
C2052 C2050 1.378 . S
C2052 C2053 1.367 . S
C2053 C2052 1.367 . S
C2053 C2055 1.433 . S
C2054 C2050 1.350 . S
C2054 C2051 1.463 . S
C2054 N2058 1.427 . S
C2055 H2045 0.929 . S
C2055 C2053 1.433 . S
C2055 N2058 1.384 . S
C2056 H2047 0.929 . S
C2056 C2048 1.378 . S
C2056 C2051 1.350 . S
C2057 H2044 0.929 . S
C2057 C2049 1.433 . S
C2057 N2059 1.384 . S
N2058 C2054 1.427 . S
N2058 C2055 1.384 . S
N2059 C2051 1.427 . S
N2059 C2057 1.384 . S
H2060 C2066 0.930 . S
H2061 C2070 0.892 1_655 S
H2062 C2075 0.929 1_655 S
H2063 C2073 0.929 . S
H2064 C2068 0.929 1_655 S
H2065 C2074 0.929 . S
C2066 H2060 0.930 . S
C2066 C2067 1.367 . S
C2066 C2074 1.378 . S
C2067 C2066 1.367 . S
C2067 C2075 1.433 . S
C2068 H2064 0.929 1_455 S
C2068 C2070 1.389 . S
C2068 C2072 1.350 . S
C2069 C2072 1.463 . S
C2069 C2074 1.350 . S
C2069 N2077 1.427 . S
C2070 H2061 0.892 1_455 S
C2070 C2068 1.389 . S
C2070 C2071 1.396 . S
C2071 C2070 1.396 . S
C2071 C2073 1.433 . S
C2072 C2068 1.350 . S
C2072 C2069 1.463 . S
C2072 N2076 1.427 . S
C2073 H2063 0.929 . S
C2073 C2071 1.433 . S
C2073 N2076 1.384 . S
C2074 H2065 0.929 . S
C2074 C2066 1.378 . S
C2074 C2069 1.350 . S
C2075 H2062 0.929 1_455 S
C2075 C2067 1.433 . S
C2075 N2077 1.384 . S
N2076 C2072 1.427 . S
N2076 C2073 1.384 . S
N2077 C2069 1.427 . S
N2077 C2075 1.384 . S
H2078 C2084 0.930 . S
H2079 C2088 0.930 . S
H2080 C2093 0.929 . S
H2081 C2091 0.929 . S
H2082 C2086 0.929 . S
H2083 C2092 0.929 . S
C2084 H2078 0.930 . S
C2084 C2085 1.367 . S
C2084 C2092 1.378 . S
C2085 C2084 1.367 . S
C2085 C2093 1.433 . S
C2086 H2082 0.929 . S
C2086 C2088 1.378 . S
C2086 C2090 1.350 . S
C2087 C2090 1.463 . S
C2087 C2092 1.350 . S
C2087 N2095 1.427 . S
C2088 H2079 0.930 . S
C2088 C2086 1.378 . S
C2088 C2089 1.367 . S
C2089 C2088 1.367 . S
C2089 C2091 1.433 . S
C2090 C2086 1.350 . S
C2090 C2087 1.463 . S
C2090 N2094 1.427 . S
C2091 H2081 0.929 . S
C2091 C2089 1.433 . S
C2091 N2094 1.384 . S
C2092 H2083 0.929 . S
C2092 C2084 1.378 . S
C2092 C2087 1.350 . S
C2093 H2080 0.929 . S
C2093 C2085 1.433 . S
C2093 N2095 1.384 . S
N2094 C2090 1.427 . S
N2094 C2091 1.384 . S
N2095 C2087 1.427 . S
N2095 C2093 1.384 . S
H2096 C2102 0.930 . S
H2097 C2106 0.930 . S
H2098 C2111 0.929 . S
H2099 C2109 0.929 . S
H2100 C2104 0.929 . S
H2101 C2110 0.929 . S
C2102 H2096 0.930 . S
C2102 C2103 1.367 . S
C2102 C2110 1.378 . S
C2103 C2102 1.367 . S
C2103 C2111 1.433 . S
C2104 H2100 0.929 . S
C2104 C2106 1.378 . S
C2104 C2108 1.350 . S
C2105 C2108 1.463 . S
C2105 C2110 1.350 . S
C2105 N2113 1.427 . S
C2106 H2097 0.930 . S
C2106 C2104 1.378 . S
C2106 C2107 1.367 . S
C2107 C2106 1.367 . S
C2107 C2109 1.433 . S
C2108 C2104 1.350 . S
C2108 C2105 1.463 . S
C2108 N2112 1.427 . S
C2109 H2099 0.929 . S
C2109 C2107 1.433 . S
C2109 N2112 1.384 . S
C2110 H2101 0.929 . S
C2110 C2102 1.378 . S
C2110 C2105 1.350 . S
C2111 H2098 0.929 . S
C2111 C2103 1.433 . S
C2111 N2113 1.384 . S
N2112 C2108 1.427 . S
N2112 C2109 1.384 . S
N2113 C2105 1.427 . S
N2113 C2111 1.384 . S
H2114 C2120 0.930 . S
H2115 C2124 0.930 . S
H2116 C2129 0.929 . S
H2117 C2127 0.929 . S
H2118 C2122 0.929 . S
H2119 C2128 0.929 . S
C2120 H2114 0.930 . S
C2120 C2121 1.367 . S
C2120 C2128 1.378 . S
C2121 C2120 1.367 . S
C2121 C2129 1.433 . S
C2122 H2118 0.929 . S
C2122 C2124 1.378 . S
C2122 C2126 1.350 . S
C2123 C2126 1.463 . S
C2123 C2128 1.350 . S
C2123 N2131 1.427 . S
C2124 H2115 0.930 . S
C2124 C2122 1.378 . S
C2124 C2125 1.367 . S
C2125 C2124 1.367 . S
C2125 C2127 1.433 . S
C2126 C2122 1.350 . S
C2126 C2123 1.463 . S
C2126 N2130 1.427 . S
C2127 H2117 0.929 . S
C2127 C2125 1.433 . S
C2127 N2130 1.384 . S
C2128 H2119 0.929 . S
C2128 C2120 1.378 . S
C2128 C2123 1.350 . S
C2129 H2116 0.929 . S
C2129 C2121 1.433 . S
C2129 N2131 1.384 . S
N2130 C2126 1.427 . S
N2130 C2127 1.384 . S
N2131 C2123 1.427 . S
N2131 C2129 1.384 . S
H2132 C2138 0.930 . S
H2133 C2142 0.930 . S
H2134 C2147 0.929 . S
H2135 C2145 0.929 . S
H2136 C2140 0.929 . S
H2137 C2146 0.929 . S
C2138 H2132 0.930 . S
C2138 C2139 1.367 . S
C2138 C2146 1.378 . S
C2139 C2138 1.367 . S
C2139 C2147 1.433 . S
C2140 H2136 0.929 . S
C2140 C2142 1.378 . S
C2140 C2144 1.350 . S
C2141 C2144 1.463 . S
C2141 C2146 1.350 . S
C2141 N2149 1.427 . S
C2142 H2133 0.930 . S
C2142 C2140 1.378 . S
C2142 C2143 1.367 . S
C2143 C2142 1.367 . S
C2143 C2145 1.433 . S
C2144 C2140 1.350 . S
C2144 C2141 1.463 . S
C2144 N2148 1.427 . S
C2145 H2135 0.929 . S
C2145 C2143 1.433 . S
C2145 N2148 1.384 . S
C2146 H2137 0.929 . S
C2146 C2138 1.378 . S
C2146 C2141 1.350 . S
C2147 H2134 0.929 . S
C2147 C2139 1.433 . S
C2147 N2149 1.384 . S
N2148 C2144 1.427 . S
N2148 C2145 1.384 . S
N2149 C2141 1.427 . S
N2149 C2147 1.384 . S
H2150 C2156 0.930 . S
H2151 C2160 0.930 . S
H2152 C2165 0.929 . S
H2153 C2163 0.929 . S
H2154 C2158 0.929 . S
H2155 C2164 0.929 . S
C2156 H2150 0.930 . S
C2156 C2157 1.367 . S
C2156 C2164 1.378 . S
C2157 C2156 1.367 . S
C2157 C2165 1.433 . S
C2158 H2154 0.929 . S
C2158 C2160 1.378 . S
C2158 C2162 1.350 . S
C2159 C2162 1.463 . S
C2159 C2164 1.350 . S
C2159 N2167 1.427 . S
C2160 H2151 0.930 . S
C2160 C2158 1.378 . S
C2160 C2161 1.367 . S
C2161 C2160 1.367 . S
C2161 C2163 1.433 . S
C2162 C2158 1.350 . S
C2162 C2159 1.463 . S
C2162 N2166 1.427 . S
C2163 H2153 0.929 . S
C2163 C2161 1.433 . S
C2163 N2166 1.384 . S
C2164 H2155 0.929 . S
C2164 C2156 1.378 . S
C2164 C2159 1.350 . S
C2165 H2152 0.929 . S
C2165 C2157 1.433 . S
C2165 N2167 1.384 . S
N2166 C2162 1.427 . S
N2166 C2163 1.384 . S
N2167 C2159 1.427 . S
N2167 C2165 1.384 . S
H2168 C2174 0.930 . S
H2169 C2178 0.930 . S
H2170 C2183 0.929 . S
H2171 C2181 0.929 . S
H2172 C2176 0.929 . S
H2173 C2182 0.929 . S
C2174 H2168 0.930 . S
C2174 C2175 1.367 . S
C2174 C2182 1.378 . S
C2175 C2174 1.367 . S
C2175 C2183 1.433 . S
C2176 H2172 0.929 . S
C2176 C2178 1.378 . S
C2176 C2180 1.350 . S
C2177 C2180 1.463 . S
C2177 C2182 1.350 . S
C2177 N2185 1.427 . S
C2178 H2169 0.930 . S
C2178 C2176 1.378 . S
C2178 C2179 1.367 . S
C2179 C2178 1.367 . S
C2179 C2181 1.433 . S
C2180 C2176 1.350 . S
C2180 C2177 1.463 . S
C2180 N2184 1.427 . S
C2181 H2171 0.929 . S
C2181 C2179 1.433 . S
C2181 N2184 1.384 . S
C2182 H2173 0.929 . S
C2182 C2174 1.378 . S
C2182 C2177 1.350 . S
C2183 H2170 0.929 . S
C2183 C2175 1.433 . S
C2183 N2185 1.384 . S
N2184 C2180 1.427 . S
N2184 C2181 1.384 . S
N2185 C2177 1.427 . S
N2185 C2183 1.384 . S
H2186 C2192 0.930 . S
H2187 C2196 0.930 . S
H2188 C2201 0.929 . S
H2189 C2199 0.929 . S
H2190 C2194 0.929 . S
H2191 C2200 0.929 . S
C2192 H2186 0.930 . S
C2192 C2193 1.367 . S
C2192 C2200 1.378 . S
C2193 C2192 1.367 . S
C2193 C2201 1.433 . S
C2194 H2190 0.929 . S
C2194 C2196 1.378 . S
C2194 C2198 1.350 . S
C2195 C2198 1.463 . S
C2195 C2200 1.350 . S
C2195 N2203 1.427 . S
C2196 H2187 0.930 . S
C2196 C2194 1.378 . S
C2196 C2197 1.367 . S
C2197 C2196 1.367 . S
C2197 C2199 1.433 . S
C2198 C2194 1.350 . S
C2198 C2195 1.463 . S
C2198 N2202 1.427 . S
C2199 H2189 0.929 . S
C2199 C2197 1.433 . S
C2199 N2202 1.384 . S
C2200 H2191 0.929 . S
C2200 C2192 1.378 . S
C2200 C2195 1.350 . S
C2201 H2188 0.929 . S
C2201 C2193 1.433 . S
C2201 N2203 1.384 . S
N2202 C2198 1.427 . S
N2202 C2199 1.384 . S
N2203 C2195 1.427 . S
N2203 C2201 1.384 . S
H2204 C2210 0.930 . S
H2205 C2214 0.930 . S
H2206 C2219 0.929 . S
H2207 C2217 0.929 . S
H2208 C2212 0.929 . S
H2209 C2218 0.929 . S
C2210 H2204 0.930 . S
C2210 C2211 1.367 . S
C2210 C2218 1.378 . S
C2211 C2210 1.367 . S
C2211 C2219 1.433 . S
C2212 H2208 0.929 . S
C2212 C2214 1.378 . S
C2212 C2216 1.350 . S
C2213 C2216 1.463 . S
C2213 C2218 1.350 . S
C2213 N2221 1.427 . S
C2214 H2205 0.930 . S
C2214 C2212 1.378 . S
C2214 C2215 1.367 . S
C2215 C2214 1.367 . S
C2215 C2217 1.433 . S
C2216 C2212 1.350 . S
C2216 C2213 1.463 . S
C2216 N2220 1.427 . S
C2217 H2207 0.929 . S
C2217 C2215 1.433 . S
C2217 N2220 1.384 . S
C2218 H2209 0.929 . S
C2218 C2210 1.378 . S
C2218 C2213 1.350 . S
C2219 H2206 0.929 . S
C2219 C2211 1.433 . S
C2219 N2221 1.384 . S
N2220 C2216 1.427 . S
N2220 C2217 1.384 . S
N2221 C2213 1.427 . S
N2221 C2219 1.384 . S
H2222 C2228 0.930 . S
H2223 C2232 0.930 . S
H2224 C2237 0.929 . S
H2225 C2235 0.929 . S
H2226 C2230 0.929 . S
H2227 C2236 0.929 . S
C2228 H2222 0.930 . S
C2228 C2229 1.367 . S
C2228 C2236 1.378 . S
C2229 C2228 1.367 . S
C2229 C2237 1.433 . S
C2230 H2226 0.929 . S
C2230 C2232 1.378 . S
C2230 C2234 1.350 . S
C2231 C2234 1.463 . S
C2231 C2236 1.350 . S
C2231 N2239 1.427 . S
C2232 H2223 0.930 . S
C2232 C2230 1.378 . S
C2232 C2233 1.367 . S
C2233 C2232 1.367 . S
C2233 C2235 1.433 . S
C2234 C2230 1.350 . S
C2234 C2231 1.463 . S
C2234 N2238 1.427 . S
C2235 H2225 0.929 . S
C2235 C2233 1.433 . S
C2235 N2238 1.384 . S
C2236 H2227 0.929 . S
C2236 C2228 1.378 . S
C2236 C2231 1.350 . S
C2237 H2224 0.929 . S
C2237 C2229 1.433 . S
C2237 N2239 1.384 . S
N2238 C2234 1.427 . S
N2238 C2235 1.384 . S
N2239 C2231 1.427 . S
N2239 C2237 1.384 . S
H2240 C2246 0.930 . S
H2241 C2250 0.930 . S
H2242 C2255 0.929 . S
H2243 C2253 0.929 . S
H2244 C2248 0.929 . S
H2245 C2254 0.929 . S
C2246 H2240 0.930 . S
C2246 C2247 1.367 . S
C2246 C2254 1.378 . S
C2247 C2246 1.367 . S
C2247 C2255 1.433 . S
C2248 H2244 0.929 . S
C2248 C2250 1.378 . S
C2248 C2252 1.350 . S
C2249 C2252 1.463 . S
C2249 C2254 1.350 . S
C2249 N2257 1.427 . S
C2250 H2241 0.930 . S
C2250 C2248 1.378 . S
C2250 C2251 1.367 . S
C2251 C2250 1.367 . S
C2251 C2253 1.433 . S
C2252 C2248 1.350 . S
C2252 C2249 1.463 . S
C2252 N2256 1.427 . S
C2253 H2243 0.929 . S
C2253 C2251 1.433 . S
C2253 N2256 1.384 . S
C2254 H2245 0.929 . S
C2254 C2246 1.378 . S
C2254 C2249 1.350 . S
C2255 H2242 0.929 . S
C2255 C2247 1.433 . S
C2255 N2257 1.384 . S
N2256 C2252 1.427 . S
N2256 C2253 1.384 . S
N2257 C2249 1.427 . S
N2257 C2255 1.384 . S
H2258 C2264 0.930 . S
H2259 C2268 0.904 1_545 S
H2260 C2273 0.929 . S
H2261 C2271 0.929 . S
H2262 C2266 0.929 . S
H2263 C2272 0.929 . S
C2264 H2258 0.930 . S
C2264 C2265 1.367 . S
C2264 C2272 1.378 . S
C2265 C2264 1.367 . S
C2265 C2273 1.433 . S
C2266 H2262 0.929 . S
C2266 C2268 1.394 . S
C2266 C2270 1.350 . S
C2267 C2270 1.463 . S
C2267 C2272 1.350 . S
C2267 N2275 1.427 . S
C2268 H2259 0.904 1_565 S
C2268 C2266 1.394 . S
C2268 C2269 1.379 . S
C2269 C2268 1.379 . S
C2269 C2271 1.433 . S
C2270 C2266 1.350 . S
C2270 C2267 1.463 . S
C2270 N2274 1.427 . S
C2271 H2261 0.929 . S
C2271 C2269 1.433 . S
C2271 N2274 1.384 . S
C2272 H2263 0.929 . S
C2272 C2264 1.378 . S
C2272 C2267 1.350 . S
C2273 H2260 0.929 . S
C2273 C2265 1.433 . S
C2273 N2275 1.384 . S
N2274 C2270 1.427 . S
N2274 C2271 1.384 . S
N2275 C2267 1.427 . S
N2275 C2273 1.384 . S
H2276 C2282 0.930 . S
H2277 C2286 0.930 . S
H2278 C2291 0.929 . S
H2279 C2289 0.929 . S
H2280 C2284 0.929 . S
H2281 C2290 0.929 . S
C2282 H2276 0.930 . S
C2282 C2283 1.367 . S
C2282 C2290 1.378 . S
C2283 C2282 1.367 . S
C2283 C2291 1.433 . S
C2284 H2280 0.929 . S
C2284 C2286 1.378 . S
C2284 C2288 1.350 . S
C2285 C2288 1.463 . S
C2285 C2290 1.350 . S
C2285 N2293 1.427 . S
C2286 H2277 0.930 . S
C2286 C2284 1.378 . S
C2286 C2287 1.367 . S
C2287 C2286 1.367 . S
C2287 C2289 1.433 . S
C2288 C2284 1.350 . S
C2288 C2285 1.463 . S
C2288 N2292 1.427 . S
C2289 H2279 0.929 . S
C2289 C2287 1.433 . S
C2289 N2292 1.384 . S
C2290 H2281 0.929 . S
C2290 C2282 1.378 . S
C2290 C2285 1.350 . S
C2291 H2278 0.929 . S
C2291 C2283 1.433 . S
C2291 N2293 1.384 . S
N2292 C2288 1.427 . S
N2292 C2289 1.384 . S
N2293 C2285 1.427 . S
N2293 C2291 1.384 . S
H2294 C2300 0.930 . S
H2295 C2304 0.930 . S
H2296 C2309 0.929 . S
H2297 C2307 0.929 . S
H2298 C2302 0.929 . S
H2299 C2308 0.929 . S
C2300 H2294 0.930 . S
C2300 C2301 1.367 1_554 S
C2300 C2308 1.378 . S
C2301 C2300 1.367 1_556 S
C2301 C2309 1.433 . S
C2302 H2298 0.929 . S
C2302 C2304 1.378 . S
C2302 C2306 1.350 1_556 S
C2303 C2306 1.464 . S
C2303 C2308 1.355 . S
C2303 N2311 1.421 1_554 S
C2304 H2295 0.930 . S
C2304 C2302 1.378 . S
C2304 C2305 1.367 1_556 S
C2305 C2304 1.367 1_554 S
C2305 C2307 1.433 . S
C2306 C2302 1.350 1_554 S
C2306 C2303 1.464 . S
C2306 N2310 1.427 . S
C2307 H2297 0.929 . S
C2307 C2305 1.433 . S
C2307 N2310 1.384 . S
C2308 H2299 0.929 . S
C2308 C2300 1.378 . S
C2308 C2303 1.355 . S
C2309 H2296 0.929 . S
C2309 C2301 1.433 . S
C2309 N2311 1.384 . S
N2310 C2306 1.427 . S
N2310 C2307 1.384 . S
N2311 C2303 1.421 1_556 S
N2311 C2309 1.384 . S
H2312 C2318 0.930 . S
H2313 C2322 0.930 . S
H2314 C2327 0.929 . S
H2315 C2325 0.929 . S
H2316 C2320 0.929 . S
H2317 C2326 0.929 . S
C2318 H2312 0.930 . S
C2318 C2319 1.367 . S
C2318 C2326 1.378 . S
C2319 C2318 1.367 . S
C2319 C2327 1.433 . S
C2320 H2316 0.929 . S
C2320 C2322 1.378 . S
C2320 C2324 1.350 . S
C2321 C2324 1.463 . S
C2321 C2326 1.350 . S
C2321 N2329 1.427 . S
C2322 H2313 0.930 . S
C2322 C2320 1.378 . S
C2322 C2323 1.367 . S
C2323 C2322 1.367 . S
C2323 C2325 1.433 . S
C2324 C2320 1.350 . S
C2324 C2321 1.463 . S
C2324 N2328 1.427 . S
C2325 H2315 0.929 . S
C2325 C2323 1.433 . S
C2325 N2328 1.384 . S
C2326 H2317 0.929 . S
C2326 C2318 1.378 . S
C2326 C2321 1.350 . S
C2327 H2314 0.929 . S
C2327 C2319 1.433 . S
C2327 N2329 1.384 . S
N2328 C2324 1.427 . S
N2328 C2325 1.384 . S
N2329 C2321 1.427 . S
N2329 C2327 1.384 . S
H2330 C2336 0.930 . S
H2331 C2340 0.930 . S
H2332 C2345 0.929 . S
H2333 C2343 0.929 . S
H2334 C2338 0.929 . S
H2335 C2344 0.929 . S
C2336 H2330 0.930 . S
C2336 C2337 1.367 1_556 S
C2336 C2344 1.378 . S
C2337 C2336 1.367 1_554 S
C2337 C2345 1.433 . S
C2338 H2334 0.929 . S
C2338 C2340 1.378 . S
C2338 C2342 1.348 1_554 S
C2339 C2342 1.462 1_554 S
C2339 C2344 1.350 1_554 S
C2339 N2347 1.427 . S
C2340 H2331 0.930 . S
C2340 C2338 1.378 . S
C2340 C2341 1.367 1_554 S
C2341 C2340 1.367 1_556 S
C2341 C2343 1.433 . S
C2342 C2338 1.348 1_556 S
C2342 C2339 1.462 1_556 S
C2342 N2346 1.430 . S
C2343 H2333 0.929 . S
C2343 C2341 1.433 . S
C2343 N2346 1.384 . S
C2344 H2335 0.929 . S
C2344 C2336 1.378 . S
C2344 C2339 1.350 1_556 S
C2345 H2332 0.929 . S
C2345 C2337 1.433 . S
C2345 N2347 1.384 . S
N2346 C2342 1.430 . S
N2346 C2343 1.384 . S
N2347 C2339 1.427 . S
N2347 C2345 1.384 . S
H2348 C2354 0.930 . S
H2349 C2358 0.930 . S
H2350 C2363 0.929 . S
H2351 C2361 0.929 . S
H2352 C2356 0.929 . S
H2353 C2362 0.929 . S
C2354 H2348 0.930 . S
C2354 C2355 1.367 . S
C2354 C2362 1.378 . S
C2355 C2354 1.367 . S
C2355 C2363 1.433 . S
C2356 H2352 0.929 . S
C2356 C2358 1.378 . S
C2356 C2360 1.350 . S
C2357 C2360 1.463 . S
C2357 C2362 1.350 . S
C2357 N2365 1.427 . S
C2358 H2349 0.930 . S
C2358 C2356 1.378 . S
C2358 C2359 1.367 . S
C2359 C2358 1.367 . S
C2359 C2361 1.433 . S
C2360 C2356 1.350 . S
C2360 C2357 1.463 . S
C2360 N2364 1.427 . S
C2361 H2351 0.929 . S
C2361 C2359 1.433 . S
C2361 N2364 1.384 . S
C2362 H2353 0.929 . S
C2362 C2354 1.378 . S
C2362 C2357 1.350 . S
C2363 H2350 0.929 . S
C2363 C2355 1.433 . S
C2363 N2365 1.384 . S
N2364 C2360 1.427 . S
N2364 C2361 1.384 . S
N2365 C2357 1.427 . S
N2365 C2363 1.384 . S
H2366 C2372 0.930 . S
H2367 C2376 0.930 . S
H2368 C2381 0.929 . S
H2369 C2379 0.929 . S
H2370 C2374 0.929 . S
H2371 C2380 0.929 . S
C2372 H2366 0.930 . S
C2372 C2373 1.367 . S
C2372 C2380 1.378 . S
C2373 C2372 1.367 . S
C2373 C2381 1.433 . S
C2374 H2370 0.929 . S
C2374 C2376 1.378 . S
C2374 C2378 1.350 . S
C2375 C2378 1.463 . S
C2375 C2380 1.350 . S
C2375 N2383 1.427 . S
C2376 H2367 0.930 . S
C2376 C2374 1.378 . S
C2376 C2377 1.367 . S
C2377 C2376 1.367 . S
C2377 C2379 1.433 . S
C2378 C2374 1.350 . S
C2378 C2375 1.463 . S
C2378 N2382 1.427 . S
C2379 H2369 0.929 . S
C2379 C2377 1.433 . S
C2379 N2382 1.384 . S
C2380 H2371 0.929 . S
C2380 C2372 1.378 . S
C2380 C2375 1.350 . S
C2381 H2368 0.929 . S
C2381 C2373 1.433 . S
C2381 N2383 1.384 . S
N2382 C2378 1.427 . S
N2382 C2379 1.384 . S
N2383 C2375 1.427 . S
N2383 C2381 1.384 . S
C663 C105 1.603 . S
C667 C354 1.564 1_556 S
C681 C65 1.648 . S
C685 C365 1.645 . S
C699 C73 1.053 . S
C703 C394 1.032 . S
C721 C397 1.454 . S
C717 C92 1.457 . S
C735 C17 1.680 . S
C739 C435 1.622 . S
C757 C438 1.021 . S
C753 C37 1.008 . S
C775 C465 1.499 . S
C771 C49 1.457 . S
C789 C8 1.660 . S
C793 C494 1.593 . S
C811 C345 1.572 1_655 S
C807 C231 1.524 . S
C825 C241 0.901 . S
C829 C357 0.892 . S
C847 C385 1.589 . S
C843 C273 1.543 . S
C865 C414 1.107 . S
C861 C171 1.135 . S
C879 C227 1.013 . S
C883 C418 1.020 . S
C901 C444 1.612 . S
C897 C245 1.587 . S
C919 C457 0.773 . S
C915 C269 0.779 . S
C937 C485 1.606 . S
C933 C175 1.589 . S
C955 C337 1.516 1_565 S
C951 C162 1.542 . S
C969 C289 1.751 . S
C973 C504 1.721 1_554 S
C991 C535 1.534 . S
C987 C330 1.596 . S
C1009 C554 0.955 . S
C1005 C317 0.955 . S
C1023 C120 1.355 . S
C1027 C477 1.344 . S
C1041 C134 1.501 . S
C1045 C377 1.498 . S
C1059 C331 1.564 . S
C1063 C565 1.559 . S
C1081 C594 0.894 . S
C1077 C303 0.914 . S
C1099 C355 1.582 . S
C1095 C59 1.630 . S
C1117 C584 1.670 . S
C1113 C107 1.668 . S
C1131 C91 1.078 . S
C1135 C395 1.070 . S
C1149 C78 1.481 . S
C1153 C558 1.480 . S
C1171 C434 1.649 . S
C1167 C7 1.661 . S
C1185 C51 1.031 . S
C1189 C517 1.040 . S
C1207 C464 1.529 1_556 S
C1203 C31 1.539 . S
C1225 C615 1.618 . S
C1221 C22 1.678 . S
C1243 C344 1.591 . S
C1239 C143 1.599 . S
C1261 C578 0.927 . S
C1257 C315 0.907 . S
C1275 C115 1.618 . S
C1279 C384 1.607 . S
C1293 C287 1.139 . S
C1297 C575 1.160 . S
C1311 C147 1.014 . S
C1315 C417 1.048 . S
C1333 C525 1.637 . S
C1329 C311 1.659 . S
C1347 C119 0.813 . S
C1351 C458 0.821 . S
C1365 C283 1.642 . S
C1369 C604 1.630 . S
C1383 C190 1.550 . S
C1387 C338 1.537 . S
C1401 C177 1.772 . S
C1405 C505 1.753 . S
C1419 C260 1.603 . S
C1423 C454 1.556 . S
C1437 C247 1.007 . S
C1441 C555 0.991 . S
C1459 C598 1.362 . S
C1455 C274 1.357 . S
C1473 C218 1.512 . S
C1477 C378 1.520 . S
C1495 C404 1.587 . S
C1491 C261 1.591 . S
C1513 C375 0.915 . S
C1509 C205 0.951 . S
C1527 C77 1.596 . S
C1531 C634 1.565 . S
C1549 C585 1.645 . S
C1545 C93 1.646 . S
C1563 C101 1.055 . S
C1567 C654 1.015 . S
C1581 C64 1.457 . S
C1585 C557 1.454 . S
C1599 C45 1.680 . S
C1603 C515 1.615 . S
C1621 C518 1.013 . S
C1617 C9 1.016 . S
C1639 C545 1.502 . S
C1635 C21 1.442 . S
C1657 C614 1.603 . S
C1653 C36 1.664 . S
C1675 C625 1.571 . S
C1671 C259 1.526 . S
C1689 C185 0.896 . S
C1693 C577 0.882 . S
C1711 C645 1.585 . S
C1707 C203 1.554 . S
C1729 C574 1.120 . S
C1725 C213 1.128 . S
C1747 C498 1.019 . S
C1743 C255 1.014 . S
C1761 C189 1.597 . S
C1765 C524 1.617 . S
C1783 C537 0.773 . S
C1779 C199 0.779 . S
C1797 C217 1.581 . S
C1801 C605 1.610 . S
C1819 C617 1.515 . S
C1815 C316 1.540 . S
C1833 C135 1.750 . S
C1837 C424 1.722 . S
C1855 C455 1.539 . S
C1851 C148 1.607 . S
C1873 C474 0.942 . S
C1869 C163 0.961 . S
C1891 C597 1.347 . S
C1887 C302 1.346 . S
C1905 C288 1.507 . S
C1909 C637 1.498 . S
C1927 C405 1.559 . S
C1923 C149 1.560 . S
C1945 C374 0.908 . S
C1941 C121 0.917 . S
C1959 C87 1.627 . S
C1963 C635 1.588 . S
C1981 C364 1.672 . S
C1977 C79 1.667 . S
C1995 C63 1.074 . S
C1999 C655 1.076 . S
C2013 C106 1.480 . S
C2017 C398 1.472 . S
C2031 C35 1.660 . S
C2035 C514 1.645 . S
C2053 C437 1.033 . S
C2049 C23 1.041 . S
C2067 C3 1.540 . S
C2071 C544 1.533 . S
C2085 C50 1.673 . S
C2089 C495 1.611 . S
C2107 C624 1.593 . S
C2103 C325 1.597 . S
C2121 C161 0.901 . S
C2125 C358 0.925 . S
C2143 C644 1.607 1_655 S
C2139 C297 1.618 . S
C2157 C133 1.153 . S
C2161 C415 1.156 . S
C2175 C329 1.020 . S
C2179 C497 1.054 . S
C2197 C445 1.631 . S
C2193 C157 1.659 . S
C2211 C301 0.795 . S
C2215 C538 0.804 . S
C2233 C484 1.629 . S
C2229 C129 1.641 . S
C2251 C618 1.534 . S
C2247 C246 1.551 . S
C2269 C425 1.746 1_565 S
C2265 C219 1.769 . S
C2283 C232 1.605 . S
C2287 C534 1.550 . S
C2305 C475 1.001 . S
C2301 C191 1.001 . S
C2319 C204 1.354 . S
C2323 C478 1.361 . S
C2337 C176 1.512 . S
C2341 C638 1.511 . S
C2359 C564 1.591 . S
C2355 C233 1.591 . S
C2377 C595 0.931 . S
C2373 C275 0.947 . S
