# Generated by pormake.
# Topology ibd, (4,6)-cn, num edge types: 1
# Building blocks:
#     Node 0, Type 0, BuildingBlock: CEKHIL_clean_sbu_0, # of connection points: 4
#     Node 1, Type 0, BuildingBlock: CEKHIL_clean_sbu_0, # of connection points: 4
#     Node 2, Type 0, BuildingBlock: CEKHIL_clean_sbu_0, # of connection points: 4
#     Node 3, Type 0, BuildingBlock: CEKHIL_clean_sbu_0, # of connection points: 4
#     Node 4, Type 0, BuildingBlock: CEKHIL_clean_sbu_0, # of connection points: 4
#     Node 5, Type 0, BuildingBlock: CEKHIL_clean_sbu_0, # of connection points: 4
#     Node 6, Type 0, BuildingBlock: CEKHIL_clean_sbu_0, # of connection points: 4
#     Node 7, Type 0, BuildingBlock: CEKHIL_clean_sbu_0, # of connection points: 4
#     Node 8, Type 0, BuildingBlock: CEKHIL_clean_sbu_0, # of connection points: 4
#     Node 9, Type 0, BuildingBlock: CEKHIL_clean_sbu_0, # of connection points: 4
#     Node 10, Type 0, BuildingBlock: CEKHIL_clean_sbu_0, # of connection points: 4
#     Node 11, Type 0, BuildingBlock: CEKHIL_clean_sbu_0, # of connection points: 4
#     Node 12, Type 0, BuildingBlock: CEKHIL_clean_sbu_0, # of connection points: 4
#     Node 13, Type 0, BuildingBlock: CEKHIL_clean_sbu_0, # of connection points: 4
#     Node 14, Type 0, BuildingBlock: CEKHIL_clean_sbu_0, # of connection points: 4
#     Node 15, Type 0, BuildingBlock: CEKHIL_clean_sbu_0, # of connection points: 4
#     Node 16, Type 0, BuildingBlock: CEKHIL_clean_sbu_0, # of connection points: 4
#     Node 17, Type 0, BuildingBlock: CEKHIL_clean_sbu_0, # of connection points: 4
#     Node 18, Type 0, BuildingBlock: CEKHIL_clean_sbu_0, # of connection points: 4
#     Node 19, Type 0, BuildingBlock: CEKHIL_clean_sbu_0, # of connection points: 4
#     Node 20, Type 0, BuildingBlock: CEKHIL_clean_sbu_0, # of connection points: 4
#     Node 21, Type 0, BuildingBlock: CEKHIL_clean_sbu_0, # of connection points: 4
#     Node 22, Type 0, BuildingBlock: CEKHIL_clean_sbu_0, # of connection points: 4
#     Node 23, Type 0, BuildingBlock: CEKHIL_clean_sbu_0, # of connection points: 4
#     Node 24, Type 1, BuildingBlock: OJICUG_clean_sbu_0, # of connection points: 6
#     Node 25, Type 1, BuildingBlock: OJICUG_clean_sbu_0, # of connection points: 6
#     Node 26, Type 1, BuildingBlock: OJICUG_clean_sbu_0, # of connection points: 6
#     Node 27, Type 1, BuildingBlock: OJICUG_clean_sbu_0, # of connection points: 6
#     Node 28, Type 1, BuildingBlock: OJICUG_clean_sbu_0, # of connection points: 6
#     Node 29, Type 1, BuildingBlock: OJICUG_clean_sbu_0, # of connection points: 6
#     Node 30, Type 1, BuildingBlock: OJICUG_clean_sbu_0, # of connection points: 6
#     Node 31, Type 1, BuildingBlock: OJICUG_clean_sbu_0, # of connection points: 6
#     Node 32, Type 1, BuildingBlock: OJICUG_clean_sbu_0, # of connection points: 6
#     Node 33, Type 1, BuildingBlock: OJICUG_clean_sbu_0, # of connection points: 6
#     Node 34, Type 1, BuildingBlock: OJICUG_clean_sbu_0, # of connection points: 6
#     Node 35, Type 1, BuildingBlock: OJICUG_clean_sbu_0, # of connection points: 6
#     Node 36, Type 1, BuildingBlock: OJICUG_clean_sbu_0, # of connection points: 6
#     Node 37, Type 1, BuildingBlock: OJICUG_clean_sbu_0, # of connection points: 6
#     Node 38, Type 1, BuildingBlock: OJICUG_clean_sbu_0, # of connection points: 6
#     Node 39, Type 1, BuildingBlock: OJICUG_clean_sbu_0, # of connection points: 6
#     Edge 40, Type (0, 1), BuildingBlock: ZUJKAS_clean_linker_0, # of connection points: 2
#     Edge 41, Type (0, 1), BuildingBlock: ZUJKAS_clean_linker_0, # of connection points: 2
#     Edge 42, Type (0, 1), BuildingBlock: ZUJKAS_clean_linker_0, # of connection points: 2
#     Edge 43, Type (0, 1), BuildingBlock: ZUJKAS_clean_linker_0, # of connection points: 2
#     Edge 44, Type (0, 1), BuildingBlock: ZUJKAS_clean_linker_0, # of connection points: 2
#     Edge 45, Type (0, 1), BuildingBlock: ZUJKAS_clean_linker_0, # of connection points: 2
#     Edge 46, Type (0, 1), BuildingBlock: ZUJKAS_clean_linker_0, # of connection points: 2
#     Edge 47, Type (0, 1), BuildingBlock: ZUJKAS_clean_linker_0, # of connection points: 2
#     Edge 48, Type (0, 1), BuildingBlock: ZUJKAS_clean_linker_0, # of connection points: 2
#     Edge 49, Type (0, 1), BuildingBlock: ZUJKAS_clean_linker_0, # of connection points: 2
#     Edge 50, Type (0, 1), BuildingBlock: ZUJKAS_clean_linker_0, # of connection points: 2
#     Edge 51, Type (0, 1), BuildingBlock: ZUJKAS_clean_linker_0, # of connection points: 2
#     Edge 52, Type (0, 1), BuildingBlock: ZUJKAS_clean_linker_0, # of connection points: 2
#     Edge 53, Type (0, 1), BuildingBlock: ZUJKAS_clean_linker_0, # of connection points: 2
#     Edge 54, Type (0, 1), BuildingBlock: ZUJKAS_clean_linker_0, # of connection points: 2
#     Edge 55, Type (0, 1), BuildingBlock: ZUJKAS_clean_linker_0, # of connection points: 2
#     Edge 56, Type (0, 1), BuildingBlock: ZUJKAS_clean_linker_0, # of connection points: 2
#     Edge 57, Type (0, 1), BuildingBlock: ZUJKAS_clean_linker_0, # of connection points: 2
#     Edge 58, Type (0, 1), BuildingBlock: ZUJKAS_clean_linker_0, # of connection points: 2
#     Edge 59, Type (0, 1), BuildingBlock: ZUJKAS_clean_linker_0, # of connection points: 2
#     Edge 60, Type (0, 1), BuildingBlock: ZUJKAS_clean_linker_0, # of connection points: 2
#     Edge 61, Type (0, 1), BuildingBlock: ZUJKAS_clean_linker_0, # of connection points: 2
#     Edge 62, Type (0, 1), BuildingBlock: ZUJKAS_clean_linker_0, # of connection points: 2
#     Edge 63, Type (0, 1), BuildingBlock: ZUJKAS_clean_linker_0, # of connection points: 2
#     Edge 64, Type (0, 1), BuildingBlock: ZUJKAS_clean_linker_0, # of connection points: 2
#     Edge 65, Type (0, 1), BuildingBlock: ZUJKAS_clean_linker_0, # of connection points: 2
#     Edge 66, Type (0, 1), BuildingBlock: ZUJKAS_clean_linker_0, # of connection points: 2
#     Edge 67, Type (0, 1), BuildingBlock: ZUJKAS_clean_linker_0, # of connection points: 2
#     Edge 68, Type (0, 1), BuildingBlock: ZUJKAS_clean_linker_0, # of connection points: 2
#     Edge 69, Type (0, 1), BuildingBlock: ZUJKAS_clean_linker_0, # of connection points: 2
#     Edge 70, Type (0, 1), BuildingBlock: ZUJKAS_clean_linker_0, # of connection points: 2
#     Edge 71, Type (0, 1), BuildingBlock: ZUJKAS_clean_linker_0, # of connection points: 2
#     Edge 72, Type (0, 1), BuildingBlock: ZUJKAS_clean_linker_0, # of connection points: 2
#     Edge 73, Type (0, 1), BuildingBlock: ZUJKAS_clean_linker_0, # of connection points: 2
#     Edge 74, Type (0, 1), BuildingBlock: ZUJKAS_clean_linker_0, # of connection points: 2
#     Edge 75, Type (0, 1), BuildingBlock: ZUJKAS_clean_linker_0, # of connection points: 2
#     Edge 76, Type (0, 1), BuildingBlock: ZUJKAS_clean_linker_0, # of connection points: 2
#     Edge 77, Type (0, 1), BuildingBlock: ZUJKAS_clean_linker_0, # of connection points: 2
#     Edge 78, Type (0, 1), BuildingBlock: ZUJKAS_clean_linker_0, # of connection points: 2
#     Edge 79, Type (0, 1), BuildingBlock: ZUJKAS_clean_linker_0, # of connection points: 2
#     Edge 80, Type (0, 1), BuildingBlock: ZUJKAS_clean_linker_0, # of connection points: 2
#     Edge 81, Type (0, 1), BuildingBlock: ZUJKAS_clean_linker_0, # of connection points: 2
#     Edge 82, Type (0, 1), BuildingBlock: ZUJKAS_clean_linker_0, # of connection points: 2
#     Edge 83, Type (0, 1), BuildingBlock: ZUJKAS_clean_linker_0, # of connection points: 2
#     Edge 84, Type (0, 1), BuildingBlock: ZUJKAS_clean_linker_0, # of connection points: 2
#     Edge 85, Type (0, 1), BuildingBlock: ZUJKAS_clean_linker_0, # of connection points: 2
#     Edge 86, Type (0, 1), BuildingBlock: ZUJKAS_clean_linker_0, # of connection points: 2
#     Edge 87, Type (0, 1), BuildingBlock: ZUJKAS_clean_linker_0, # of connection points: 2
#     Edge 88, Type (0, 1), BuildingBlock: ZUJKAS_clean_linker_0, # of connection points: 2
#     Edge 89, Type (0, 1), BuildingBlock: ZUJKAS_clean_linker_0, # of connection points: 2
#     Edge 90, Type (0, 1), BuildingBlock: ZUJKAS_clean_linker_0, # of connection points: 2
#     Edge 91, Type (0, 1), BuildingBlock: ZUJKAS_clean_linker_0, # of connection points: 2
#     Edge 92, Type (0, 1), BuildingBlock: ZUJKAS_clean_linker_0, # of connection points: 2
#     Edge 93, Type (0, 1), BuildingBlock: ZUJKAS_clean_linker_0, # of connection points: 2
#     Edge 94, Type (0, 1), BuildingBlock: ZUJKAS_clean_linker_0, # of connection points: 2
#     Edge 95, Type (0, 1), BuildingBlock: ZUJKAS_clean_linker_0, # of connection points: 2
#     Edge 96, Type (0, 1), BuildingBlock: ZUJKAS_clean_linker_0, # of connection points: 2
#     Edge 97, Type (0, 1), BuildingBlock: ZUJKAS_clean_linker_0, # of connection points: 2
#     Edge 98, Type (0, 1), BuildingBlock: ZUJKAS_clean_linker_0, # of connection points: 2
#     Edge 99, Type (0, 1), BuildingBlock: ZUJKAS_clean_linker_0, # of connection points: 2
#     Edge 100, Type (0, 1), BuildingBlock: ZUJKAS_clean_linker_0, # of connection points: 2
#     Edge 101, Type (0, 1), BuildingBlock: ZUJKAS_clean_linker_0, # of connection points: 2
#     Edge 102, Type (0, 1), BuildingBlock: ZUJKAS_clean_linker_0, # of connection points: 2
#     Edge 103, Type (0, 1), BuildingBlock: ZUJKAS_clean_linker_0, # of connection points: 2
#     Edge 104, Type (0, 1), BuildingBlock: ZUJKAS_clean_linker_0, # of connection points: 2
#     Edge 105, Type (0, 1), BuildingBlock: ZUJKAS_clean_linker_0, # of connection points: 2
#     Edge 106, Type (0, 1), BuildingBlock: ZUJKAS_clean_linker_0, # of connection points: 2
#     Edge 107, Type (0, 1), BuildingBlock: ZUJKAS_clean_linker_0, # of connection points: 2
#     Edge 108, Type (0, 1), BuildingBlock: ZUJKAS_clean_linker_0, # of connection points: 2
#     Edge 109, Type (0, 1), BuildingBlock: ZUJKAS_clean_linker_0, # of connection points: 2
#     Edge 110, Type (0, 1), BuildingBlock: ZUJKAS_clean_linker_0, # of connection points: 2
#     Edge 111, Type (0, 1), BuildingBlock: ZUJKAS_clean_linker_0, # of connection points: 2
#     Edge 112, Type (0, 1), BuildingBlock: ZUJKAS_clean_linker_0, # of connection points: 2
#     Edge 113, Type (0, 1), BuildingBlock: ZUJKAS_clean_linker_0, # of connection points: 2
#     Edge 114, Type (0, 1), BuildingBlock: ZUJKAS_clean_linker_0, # of connection points: 2
#     Edge 115, Type (0, 1), BuildingBlock: ZUJKAS_clean_linker_0, # of connection points: 2
#     Edge 116, Type (0, 1), BuildingBlock: ZUJKAS_clean_linker_0, # of connection points: 2
#     Edge 117, Type (0, 1), BuildingBlock: ZUJKAS_clean_linker_0, # of connection points: 2
#     Edge 118, Type (0, 1), BuildingBlock: ZUJKAS_clean_linker_0, # of connection points: 2
#     Edge 119, Type (0, 1), BuildingBlock: ZUJKAS_clean_linker_0, # of connection points: 2
#     Edge 120, Type (0, 1), BuildingBlock: ZUJKAS_clean_linker_0, # of connection points: 2
#     Edge 121, Type (0, 1), BuildingBlock: ZUJKAS_clean_linker_0, # of connection points: 2
#     Edge 122, Type (0, 1), BuildingBlock: ZUJKAS_clean_linker_0, # of connection points: 2
#     Edge 123, Type (0, 1), BuildingBlock: ZUJKAS_clean_linker_0, # of connection points: 2
#     Edge 124, Type (0, 1), BuildingBlock: ZUJKAS_clean_linker_0, # of connection points: 2
#     Edge 125, Type (0, 1), BuildingBlock: ZUJKAS_clean_linker_0, # of connection points: 2
#     Edge 126, Type (0, 1), BuildingBlock: ZUJKAS_clean_linker_0, # of connection points: 2
#     Edge 127, Type (0, 1), BuildingBlock: ZUJKAS_clean_linker_0, # of connection points: 2
#     Edge 128, Type (0, 1), BuildingBlock: ZUJKAS_clean_linker_0, # of connection points: 2
#     Edge 129, Type (0, 1), BuildingBlock: ZUJKAS_clean_linker_0, # of connection points: 2
#     Edge 130, Type (0, 1), BuildingBlock: ZUJKAS_clean_linker_0, # of connection points: 2
#     Edge 131, Type (0, 1), BuildingBlock: ZUJKAS_clean_linker_0, # of connection points: 2
#     Edge 132, Type (0, 1), BuildingBlock: ZUJKAS_clean_linker_0, # of connection points: 2
#     Edge 133, Type (0, 1), BuildingBlock: ZUJKAS_clean_linker_0, # of connection points: 2
#     Edge 134, Type (0, 1), BuildingBlock: ZUJKAS_clean_linker_0, # of connection points: 2
#     Edge 135, Type (0, 1), BuildingBlock: ZUJKAS_clean_linker_0, # of connection points: 2
# Relax obj value: 0.370
# Max RMSD: 0.284
# Mean RMSD: 0.280
data_MOF--net-ibd--node1-CEKHIL_clean_sbu_0--node2-OJICUG_clean_sbu_0--edge1-ZUJKAS_clean_linker_0
_symmetry_space_group_name_H-M    P1
_symmetry_Int_Tables_number       1
_symmetry_cell_setting            triclinic
loop_
_symmetry_equiv_pos_as_xyz
'x, y, z'
_cell_length_a     62.658481
_cell_length_b     62.674832
_cell_length_c     62.670727
_cell_angle_alpha  90.260777
_cell_angle_beta   90.238462
_cell_angle_gamma 90.740427
loop_
_atom_site_label
_atom_site_type_symbol
_atom_site_fract_x
_atom_site_fract_y
_atom_site_fract_z
_atom_type_partial_charge
Co0 Co 0.99159 0.27032 0.37185 0.0
O1 O 0.98173 0.29266 0.35363 0.0
O2 O 0.96391 0.26267 0.36061 0.0
C3 C 0.00251 0.29197 0.39834 0.0
O4 O -0.0044 0.24415 0.39022 0.0
Co5 Co 0.03864 0.26601 0.38617 0.0
O6 O 0.02734 0.24488 0.40693 0.0
C7 C 0.02594 0.25582 0.34177 0.0
C8 C 0.96461 0.28099 0.35101 0.0
C9 C 0.00882 0.23678 0.40396 0.0
O10 O 0.00614 0.25658 0.34701 0.0
O11 O 0.0412 0.26066 0.35463 0.0
O12 O 0.98253 0.2863 0.3968 0.0
O13 O 0.01489 0.28542 0.38331 0.0
Co14 Co 3e-05 0.72718 0.61387 0.0
O15 O 0.98324 0.72513 0.63953 0.0
O16 O -0.00531 0.75526 0.62481 0.0
C17 C 0.98055 0.70369 0.59458 0.0
O18 O 0.0164 0.73645 0.58769 0.0
Co19 Co 0.02395 0.68939 0.593 0.0
O20 O 0.02809 0.70879 0.56839 0.0
C21 C 0.0419 0.71114 0.63137 0.0
C22 C 0.98383 0.74589 0.63977 0.0
C23 C 0.02526 0.72871 0.57098 0.0
O24 O 0.02727 0.72536 0.63077 0.0
O25 O 0.04231 0.69501 0.61875 0.0
O26 O 0.97435 0.72332 0.59654 0.0
O27 O -0.00271 0.69861 0.60536 0.0
Co28 Co 0.50346 0.75083 0.87933 0.0
O29 O 0.49666 0.77809 0.86734 0.0
O30 O 0.48132 0.74722 0.85828 0.0
C31 C 0.50376 0.76153 0.91343 0.0
O32 O 0.50508 0.71996 0.88851 0.0
Co33 Co 0.54561 0.74312 0.9034 0.0
O34 O 0.53181 0.71574 0.91197 0.0
C35 C 0.54623 0.74819 0.85697 0.0
C36 C 0.48267 0.76777 0.85577 0.0
C37 C 0.51537 0.70868 0.90205 0.0
O38 O 0.52577 0.74663 0.85696 0.0
O39 O 0.55738 0.749 0.87412 0.0
O40 O 0.48581 0.75687 0.90393 0.0
O41 O 0.52067 0.76129 0.90163 0.0
Co42 Co 0.50539 0.236 0.12442 0.0
O43 O 0.49151 0.23066 0.15126 0.0
O44 O 0.50011 0.26264 0.13877 0.0
C45 C 0.48477 0.21358 0.1051 0.0
O46 O 0.51856 0.24826 0.09748 0.0
Co47 Co 0.5285 0.20086 0.09858 0.0
O48 O 0.52846 0.22206 0.07525 0.0
C49 C 0.54844 0.21905 0.13763 0.0
C50 C 0.4913 0.25125 0.1537 0.0
C51 C 0.52526 0.2417 0.07926 0.0
O52 O 0.53415 0.2336 0.13852 0.0
O53 O 0.548 0.20385 0.1239 0.0
O54 O 0.47819 0.23268 0.10951 0.0
O55 O 0.50267 0.20825 0.11365 0.0
Co56 Co 0.0128 0.73322 0.11817 0.0
O57 O 0.01934 0.74562 0.09079 0.0
O58 O 0.98693 0.73715 0.10235 0.0
C59 C 0.03389 0.75505 0.13758 0.0
O60 O -0.00105 0.72171 0.14494 0.0
Co61 Co 0.04586 0.7116 0.14754 0.0
O62 O 0.023 0.71159 0.16932 0.0
C63 C 0.03128 0.69016 0.10792 0.0
C64 C -0.00117 0.74525 0.08746 0.0
C65 C 0.00386 0.7153 0.16372 0.0
O66 O 0.01623 0.70379 0.1059 0.0
O67 O 0.04565 0.69156 0.12247 0.0
O68 O 0.01505 0.7612 0.13161 0.0
O69 O 0.03987 0.7367 0.13049 0.0
Co70 Co 0.51753 0.7307 0.35969 0.0
O71 O 0.48989 0.73451 0.37229 0.0
O72 O 0.51999 0.74996 0.38352 0.0
C73 C 0.50681 0.73446 0.32585 0.0
O74 O 0.54855 0.73188 0.35063 0.0
Co75 Co 0.52765 0.6929 0.32991 0.0
O76 O 0.55371 0.70977 0.32295 0.0
C77 C 0.52094 0.68542 0.37556 0.0
C78 C 0.49951 0.74732 0.38569 0.0
C79 C 0.56003 0.72479 0.33529 0.0
O80 O 0.52234 0.70565 0.37876 0.0
O81 O 0.52119 0.67695 0.35694 0.0
O82 O 0.51072 0.7512 0.33762 0.0
O83 O 0.50802 0.71618 0.33528 0.0
Co84 Co 0.50701 0.23709 0.6263 0.0
O85 O 0.5077 0.25376 0.60043 0.0
O86 O 0.47844 0.24219 0.61671 0.0
C87 C 0.53132 0.25663 0.64455 0.0
O88 O 0.49886 0.2209 0.65306 0.0
Co89 Co 0.54538 0.21289 0.64546 0.0
O90 O 0.5271 0.20811 0.67069 0.0
C91 C 0.52201 0.19496 0.60823 0.0
C92 C 0.48694 0.25284 0.60113 0.0
C93 C 0.5072 0.21162 0.66925 0.0
O94 O 0.50824 0.20997 0.60905 0.0
O95 O 0.5383 0.19391 0.62055 0.0
O96 O 0.51161 0.2628 0.64334 0.0
O97 O 0.53599 0.23983 0.63361 0.0
Co98 Co 0.97983 0.22549 0.87904 0.0
O99 O 0.96727 0.22829 0.90685 0.0
O100 O -0.00347 0.2452 0.89582 0.0
C101 C 0.94944 0.22879 0.86037 0.0
O102 O -0.00284 0.22821 0.85209 0.0
Co103 Co 0.96902 0.18929 0.84692 0.0
O104 O 0.98421 0.20744 0.82576 0.0
C105 C -0.00267 0.1808 0.8837 0.0
C106 C 0.98234 0.24231 0.91058 0.0
C107 C -0.00331 0.2222 0.83251 0.0
O108 O -0.00269 0.20072 0.88879 0.0
O109 O 0.98605 0.1729 0.86844 0.0
O110 O 0.95947 0.24562 0.86757 0.0
O111 O 0.95713 0.2106 0.86599 0.0
Co112 Co 0.36796 0.05572 0.23018 0.0
O113 O 0.39433 0.06062 0.21504 0.0
O114 O 0.37805 0.02924 0.21909 0.0
C115 C 0.34939 0.08267 0.21631 0.0
O116 O 0.34113 0.04387 0.24381 0.0
Co117 Co 0.34958 0.08788 0.26276 0.0
O118 O 0.32484 0.06788 0.26455 0.0
C119 C 0.38615 0.06139 0.27491 0.0
C120 C 0.39406 0.04013 0.21155 0.0
C121 C 0.32576 0.04942 0.25604 0.0
O122 O 0.38422 0.05104 0.25728 0.0
O123 O 0.37501 0.07778 0.27946 0.0
O124 O 0.35157 0.06495 0.20573 0.0
O125 O 0.36025 0.08438 0.23386 0.0
Co126 Co 0.24207 0.12074 0.53967 0.0
O127 O 0.24893 0.09503 0.55478 0.0
O128 O 0.26728 0.10848 0.52767 0.0
C129 C 0.23543 0.14146 0.5681 0.0
O130 O 0.24096 0.1466 0.52055 0.0
Co131 Co 0.1975 0.14167 0.5414 0.0
O132 O 0.21076 0.16502 0.52441 0.0
C133 C 0.20349 0.10273 0.51579 0.0
C134 C 0.26494 0.09348 0.54173 0.0
C135 C 0.22919 0.16264 0.51627 0.0
O136 O 0.22374 0.10397 0.51909 0.0
O137 O 0.1901 0.11513 0.52473 0.0
O138 O 0.25501 0.13832 0.56212 0.0
O139 O 0.22095 0.13042 0.55814 0.0
Co140 Co 0.12199 0.00021 0.71366 0.0
O141 O 0.14971 0.00044 0.70048 0.0
O142 O 0.13644 0.97428 0.72035 0.0
C143 C 0.10433 0.0116 0.68484 0.0
O144 O 0.09454 0.99287 0.729 0.0
Co145 Co 0.0934 0.03961 0.71957 0.0
O146 O 0.07095 0.0194 0.72952 0.0
C147 C 0.13137 0.0339 0.74717 0.0
C148 C 0.15196 0.98157 0.7087 0.0
C149 C 0.07607 0.00023 0.73346 0.0
O150 O 0.1341 0.01495 0.73972 0.0
O151 O 0.11715 0.04656 0.74007 0.0
O152 O 0.1087 0.99148 0.68669 0.0
O153 O 0.11134 0.02412 0.69973 0.0
Co154 Co 0.20403 0.86903 0.01368 0.0
O155 O 0.20998 0.84125 0.02514 0.0
O156 O 0.23417 0.86601 0.01675 0.0
C157 C 0.17786 0.87757 0.03612 0.0
O158 O 0.20497 0.89913 0.00246 0.0
Co159 Co 0.16145 0.88085 0.99206 0.0
O160 O 0.17409 0.90978 0.98809 0.0
C161 C 0.19168 0.85329 0.96947 0.0
C162 C 0.22997 0.84709 0.02407 0.0
C163 C 0.19347 0.91325 0.99337 0.0
O164 O 0.2056 0.85729 0.98403 0.0
O165 O 0.17236 0.85962 0.97057 0.0
O166 O 0.19772 0.87953 0.04189 0.0
O167 O 0.17423 0.86874 0.0177 0.0
Co168 Co 0.26303 0.37972 0.00209 0.0
O169 O 0.28294 0.35682 0.00487 0.0
O170 O 0.26364 0.36354 0.97597 0.0
C171 C 0.28447 0.40495 0.0164 0.0
O172 O 0.24164 0.40172 0.99267 0.0
Co173 Co 0.24512 0.40411 0.0411 0.0
O174 O 0.23142 0.42281 0.01968 0.0
C175 C 0.22977 0.36053 0.03133 0.0
C176 C 0.27783 0.35185 0.98534 0.0
C177 C 0.23105 0.41751 3e-05 0.0
O178 O 0.23947 0.36108 0.01332 0.0
O179 O 0.23167 0.37518 0.04555 0.0
O180 O 0.2864 0.39961 -0.00357 0.0
O181 O 0.27077 0.394 0.0273 0.0
Co182 Co 0.75713 0.1057 0.01205 0.0
O183 O 0.77823 0.08443 0.0179 0.0
O184 O 0.76264 0.0897 0.9865 0.0
C185 C 0.77419 0.13276 0.02866 0.0
O186 O 0.73613 0.1265 -0.0007 0.0
Co187 Co 0.73198 0.1284 0.04787 0.0
O188 O 0.72408 0.14843 0.02483 0.0
C189 C 0.71996 0.08446 0.03522 0.0
C190 C 0.77649 0.07939 -0.00217 0.0
C191 C 0.72599 0.14317 0.00528 0.0
O192 O 0.73341 0.08528 0.01979 0.0
O193 O 0.71805 0.09941 0.04904 0.0
O194 O 0.77957 0.12718 0.00945 0.0
O195 O 0.76014 0.12069 0.03788 0.0
Co196 Co 0.14482 0.51652 0.21705 0.0
O197 O 0.1729 0.50452 0.2155 0.0
O198 O 0.15777 0.51698 0.24488 0.0
C199 C 0.12761 0.49109 0.19819 0.0
O200 O 0.11613 0.52856 0.22551 0.0
Co201 Co 0.12013 0.53177 0.17705 0.0
O202 O 0.09521 0.53109 0.19649 0.0
C203 C 0.15583 0.5578 0.19413 0.0
C204 C 0.17386 0.50759 0.23602 0.0
C205 C 0.09781 0.53124 0.21666 0.0
O206 O 0.15671 0.54573 0.21064 0.0
O207 O 0.14348 0.55399 0.17819 0.0
O208 O 0.13236 0.48809 0.21814 0.0
O209 O 0.1355 0.50824 0.18973 0.0
Co210 Co 0.77849 0.86648 0.51028 0.0
O211 O 0.79624 0.8417 0.50996 0.0
O212 O 0.77574 0.85239 0.48316 0.0
C213 C 0.80265 0.88918 0.52443 0.0
O214 O 0.75879 0.89099 0.5039 0.0
Co215 Co 0.76515 0.88923 0.55196 0.0
O216 O 0.75269 0.91106 0.53289 0.0
C217 C 0.74551 0.84779 0.54039 0.0
C218 C 0.7892 0.83868 0.49061 0.0
C219 C 0.75066 0.90738 0.51298 0.0
O220 O 0.75426 0.84893 0.52193 0.0
O221 O 0.7492 0.8614 0.5553 0.0
O222 O 0.80294 0.88478 0.50414 0.0
O223 O 0.7891 0.8784 0.53571 0.0
Co224 Co 0.86142 0.95817 0.23656 0.0
O225 O 0.8861 0.94024 0.23695 0.0
O226 O 0.87855 0.96482 0.26126 0.0
C227 C 0.83764 0.9322 0.22863 0.0
O228 O 0.83772 0.97909 0.24245 0.0
Co229 Co 0.83375 0.96486 0.19605 0.0
O230 O 0.81494 0.98174 0.21488 0.0
C231 C 0.87641 0.985 0.19935 0.0
C232 C 0.8913 0.95007 0.25457 0.0
C233 C 0.82077 0.98656 0.23381 0.0
O234 O 0.87745 0.97991 0.21919 0.0
O235 O 0.86119 0.97886 0.18699 0.0
O236 O 0.84393 0.93505 0.24825 0.0
O237 O 0.84693 0.94397 0.21451 0.0
Co238 Co 0.23827 0.61222 0.51573 0.0
O239 O 0.24765 0.5833 0.51958 0.0
O240 O 0.2393 0.59788 0.48855 0.0
C241 C 0.2635 0.62711 0.53676 0.0
O242 O 0.2294 0.64121 0.5046 0.0
Co243 Co 0.22314 0.64188 0.5522 0.0
O244 O 0.22675 0.66508 0.53116 0.0
C245 C 0.19416 0.60806 0.53496 0.0
C246 C 0.24647 0.58155 0.49893 0.0
C247 C 0.22729 0.66045 0.51138 0.0
O248 O 0.20765 0.6032 0.52031 0.0
O249 O 0.19794 0.62205 0.5495 0.0
O250 O 0.26781 0.6223 0.51706 0.0
O251 O 0.2447 0.62183 0.54337 0.0
Co252 Co 0.37775 0.4553 0.73571 0.0
O253 O 0.40648 0.44598 0.73164 0.0
O254 O 0.3955 0.46655 0.75829 0.0
C255 C 0.36131 0.42382 0.73009 0.0
O256 O 0.34978 0.46771 0.7456 0.0
Co257 Co 0.34452 0.45369 0.69889 0.0
O258 O 0.3239 0.46239 0.72119 0.0
C259 C 0.37718 0.48781 0.69966 0.0
C260 C 0.41099 0.45658 0.74899 0.0
C261 C 0.33026 0.46896 0.73945 0.0
O262 O 0.38356 0.48126 0.71799 0.0
O263 O 0.36285 0.47806 0.68857 0.0
O264 O 0.3698 0.42817 0.74859 0.0
O265 O 0.36513 0.43749 0.71516 0.0
Co266 Co 0.6285 0.00597 0.73601 0.0
O267 O 0.65725 -0.00417 0.73356 0.0
O268 O 0.64191 0.00614 0.76365 0.0
C269 C 0.61338 0.98014 0.71593 0.0
O270 O 0.59932 0.01593 0.74563 0.0
Co271 Co 0.60094 0.02042 0.69766 0.0
O272 O 0.5768 0.01757 0.7178 0.0
C273 C 0.63614 0.04812 0.71381 0.0
C274 C 0.65844 -0.00177 0.75415 0.0
C275 C 0.58041 0.01762 0.73781 0.0
O276 O 0.63865 0.03597 0.73012 0.0
O277 O 0.62293 0.04392 0.69867 0.0
O278 O 0.61778 0.97667 0.7359 0.0
O279 O 0.61951 -0.00161 0.70851 0.0
Co280 Co 0.73222 0.63473 0.02745 0.0
O281 O 0.73545 0.60985 0.04517 0.0
O282 O 0.76029 0.62344 0.02391 0.0
C283 C 0.71681 0.65527 0.0524 0.0
O284 O 0.73612 0.65984 0.00753 0.0
Co285 Co 0.68904 0.65454 0.01506 0.0
O286 O 0.70589 0.67726 0.00071 0.0
C287 C 0.70234 0.61411 -0.00496 0.0
C288 C 0.75471 0.60891 0.03756 0.0
C289 C 0.72595 0.6751 -0.00134 0.0
O290 O 0.721 0.61625 0.00348 0.0
O291 O 0.68697 0.6268 -0.00102 0.0
O292 O 0.73744 0.65326 0.05208 0.0
O293 O 0.70619 0.64396 0.03861 0.0
Co294 Co 0.86157 0.5339 0.73431 0.0
O295 O 0.88539 0.53496 0.71479 0.0
O296 O 0.87533 0.50691 0.73393 0.0
C297 C 0.83758 0.54931 0.71292 0.0
O298 O 0.83834 0.52527 0.75481 0.0
Co299 Co 0.83813 0.57292 0.75291 0.0
O300 O 0.81873 0.55224 0.76722 0.0
C301 C 0.88043 0.56122 0.76992 0.0
C302 C 0.88807 0.51502 0.71978 0.0
C303 C 0.82296 0.53248 0.76602 0.0
O304 O 0.88028 0.54412 0.75849 0.0
O305 O 0.86591 0.57536 0.76878 0.0
O306 O 0.84205 0.52924 0.7106 0.0
O307 O 0.84884 0.55982 0.72687 0.0
Co308 Co 0.70634 0.38263 0.51888 0.0
O309 O 0.70346 0.35755 0.53645 0.0
O310 O 0.73346 0.36924 0.52151 0.0
C311 C 0.68739 0.4041 0.54007 0.0
O312 O 0.71663 0.40737 0.50097 0.0
Co313 Co 0.66897 0.40566 0.4972 0.0
O314 O 0.69038 0.42699 0.48726 0.0
C315 C 0.68381 0.36474 0.47974 0.0
C316 C 0.72384 0.35526 0.53342 0.0
C317 C 0.71011 0.42329 0.49007 0.0
O318 O 0.69982 0.36541 0.49259 0.0
O319 O 0.66872 0.37832 0.48024 0.0
O320 O 0.70734 0.40044 0.54429 0.0
O321 O 0.67918 0.39382 0.52402 0.0
Co322 Co 0.60833 0.48896 0.23351 0.0
O323 O 0.63342 0.49266 0.21635 0.0
O324 O 0.62639 0.46466 0.23684 0.0
C325 C 0.58544 0.49892 0.20796 0.0
O326 O 0.58437 0.47872 0.25261 0.0
Co327 Co 0.57836 0.52603 0.24514 0.0
O328 O 0.55974 0.50379 0.25799 0.0
C329 C 0.62091 0.52334 0.26509 0.0
C330 C 0.639 0.47403 0.22329 0.0
C331 C 0.56657 0.4849 0.26041 0.0
O332 O 0.62281 0.50419 0.25793 0.0
O333 O 0.60532 0.53538 0.26012 0.0
O334 O 0.59234 0.47946 0.20838 0.0
O335 O 0.59334 0.51181 0.22215 0.0
Sc336 Sc 0.08203 0.13986 0.10193 0.0
Sc337 Sc 0.10748 0.10865 0.14085 0.0
Sc338 Sc 0.13172 0.1163 0.09097 0.0
O339 O 0.10704 0.12163 0.11123 0.0
C340 C 0.09185 0.11395 0.05923 0.0
C341 C 0.05872 0.10234 0.12732 0.0
C342 C 0.12508 0.07069 0.11208 0.0
C343 C 0.08813 0.1545 0.15031 0.0
C344 C 0.12213 0.16542 0.08332 0.0
C345 C 0.15594 0.12306 0.13546 0.0
O346 O 0.07952 0.12423 0.07147 0.0
O347 O 0.07515 0.09745 0.13809 0.0
O348 O 0.13113 0.08261 0.09685 0.0
O349 O 0.0815 0.15765 0.13141 0.0
O350 O 0.13448 0.14949 0.0833 0.0
O351 O 0.13978 0.11884 0.1469 0.0
O352 O 0.10273 0.16434 0.08915 0.0
O353 O 0.0977 0.13766 0.15583 0.0
O354 O 0.15554 0.12201 0.11522 0.0
O355 O 0.05865 0.11737 0.11375 0.0
O356 O 0.11114 0.11015 0.06399 0.0
O357 O 0.11695 0.07792 0.12913 0.0
Sc358 Sc 0.15986 0.87899 0.38765 0.0
Sc359 Sc 0.11963 0.85153 0.36042 0.0
Sc360 Sc 0.13808 0.90005 0.34132 0.0
O361 O 0.13923 0.87683 0.36314 0.0
C362 C 0.14488 0.9259 0.38496 0.0
C363 C 0.118 0.85861 0.40928 0.0
C364 C 0.08977 0.8902 0.34624 0.0
C365 C 0.16295 0.83069 0.37802 0.0
C366 C 0.18688 0.89746 0.34835 0.0
C367 C 0.13174 0.85779 0.31301 0.0
O368 O 0.14764 0.90943 0.3963 0.0
O369 O 0.1078 0.85645 0.39185 0.0
O370 O 0.10469 0.9041 0.34623 0.0
O371 O 0.17289 0.84833 0.38063 0.0
O372 O 0.1713 0.89692 0.33536 0.0
O373 O 0.13055 0.84525 0.32882 0.0
O374 O 0.18473 0.89398 0.36829 0.0
O375 O 0.14333 0.82969 0.37257 0.0
O376 O 0.13191 0.87802 0.31511 0.0
O377 O 0.13758 0.86443 0.41002 0.0
O378 O 0.14408 0.92523 0.36464 0.0
O379 O 0.09323 0.87031 0.34844 0.0
Sc380 Sc 0.40553 0.83685 0.61876 0.0
Sc381 Sc 0.3603 0.85775 0.59297 0.0
Sc382 Sc 0.38647 0.88722 0.63356 0.0
O383 O 0.38409 0.86062 0.61505 0.0
C384 C 0.39773 0.85049 0.66684 0.0
C385 C 0.36256 0.81026 0.61064 0.0
C386 C 0.33631 0.87849 0.63278 0.0
C387 C 0.40037 0.83884 0.56822 0.0
C388 C 0.43517 0.87843 0.62372 0.0
C389 C 0.37236 0.90709 0.58893 0.0
O390 O 0.40217 0.83664 0.65276 0.0
O391 O 0.35275 0.82546 0.60175 0.0
O392 O 0.35323 0.88604 0.6413 0.0
O393 O 0.41083 0.83467 0.58507 0.0
O394 O 0.41994 0.89103 0.62761 0.0
O395 O 0.36479 0.88974 0.58133 0.0
O396 O 0.43241 0.8585 0.62086 0.0
O397 O 0.38186 0.84699 0.56849 0.0
O398 O 0.38053 0.90847 0.60747 0.0
O399 O 0.38162 0.81206 0.61738 0.0
O400 O 0.39257 0.86948 0.66228 0.0
O401 O 0.33626 0.86812 0.61525 0.0
Sc402 Sc 0.35694 0.08418 0.85836 0.0
Sc403 Sc 0.38761 0.12379 0.88327 0.0
Sc404 Sc 0.33959 0.1077 0.90548 0.0
O405 O 0.36141 0.10518 0.88238 0.0
C406 C 0.3109 0.10113 0.86344 0.0
C407 C 0.37812 0.12442 0.83474 0.0
C408 C 0.35132 0.1556 0.89913 0.0
C409 C 0.40547 0.07899 0.86597 0.0
C410 C 0.3383 0.0589 0.89879 0.0
C411 C 0.38355 0.11264 0.93134 0.0
O412 O 0.32648 0.09746 0.85106 0.0
O413 O 0.3815 0.13504 0.85174 0.0
O414 O 0.33693 0.14124 0.90051 0.0
O415 O 0.38733 0.06981 0.8641 0.0
O416 O 0.34101 0.07436 0.91169 0.0
O417 O 0.39525 0.11359 0.91487 0.0
O418 O 0.34146 0.06065 0.87878 0.0
O419 O 0.40758 0.09867 0.87088 0.0
O420 O 0.36325 0.11285 0.93034 0.0
O421 O 0.37155 0.10509 0.83481 0.0
O422 O 0.31309 0.10282 0.88359 0.0
O423 O 0.37081 0.15134 0.89549 0.0
Sc424 Sc 0.6644 0.36766 0.89482 0.0
Sc425 Sc 0.62351 0.34582 0.86294 0.0
Sc426 Sc 0.6545 0.38863 0.84408 0.0
O427 O 0.6474 0.36738 0.86729 0.0
C428 C 0.65984 0.41667 0.88693 0.0
C429 C 0.61738 0.35633 0.91169 0.0
C430 C 0.60421 0.38867 0.84323 0.0
C431 C 0.65998 0.31828 0.88535 0.0
C432 C 0.70043 0.37845 0.86024 0.0
C433 C 0.64315 0.34691 0.8166 0.0
O434 O 0.659 0.40098 0.89969 0.0
O435 O 0.60956 0.35213 0.89343 0.0
O436 O 0.62201 0.39844 0.84155 0.0
O437 O 0.671 0.33424 0.89188 0.0
O438 O 0.68754 0.38043 0.8447 0.0
O439 O 0.63474 0.33685 0.83201 0.0
O440 O 0.69422 0.37528 0.87927 0.0
O441 O 0.64207 0.32011 0.8759 0.0
O442 O 0.64977 0.36611 0.81821 0.0
O443 O 0.63702 0.36085 0.91455 0.0
O444 O 0.66001 0.41437 0.86673 0.0
O445 O 0.60251 0.36945 0.8496 0.0
Sc446 Sc 0.90096 0.35538 0.12726 0.0
Sc447 Sc 0.87711 0.40178 0.14686 0.0
Sc448 Sc 0.86069 0.38035 0.09731 0.0
O449 O 0.8796 0.3792 0.12373 0.0
C450 C 0.90556 0.36614 0.07801 0.0
C451 C 0.92715 0.39639 0.14398 0.0
C452 C 0.87027 0.42962 0.1047 0.0
C453 C 0.88372 0.35955 0.17437 0.0
C454 C 0.86113 0.33047 0.10664 0.0
C455 C 0.82876 0.39209 0.13515 0.0
O456 O 0.91272 0.35944 0.09568 0.0
O457 O 0.91089 0.40787 0.14716 0.0
O458 O 0.86651 0.41378 0.09249 0.0
O459 O 0.89125 0.34861 0.15918 0.0
O460 O 0.85246 0.34707 0.09917 0.0
O461 O 0.84341 0.39726 0.14829 0.0
O462 O 0.87878 0.33096 0.1167 0.0
O463 O 0.87909 0.37912 0.17254 0.0
O464 O 0.8323 0.38683 0.11584 0.0
O465 O 0.92584 0.37701 0.13795 0.0
O466 O 0.88694 0.37382 0.0759 0.0
O467 O 0.87377 0.42764 0.12458 0.0
Sc468 Sc 0.86501 0.58214 0.33907 0.0
Sc469 Sc 0.89379 0.62326 0.36444 0.0
Sc470 Sc 0.8522 0.59744 0.39102 0.0
O471 O 0.87042 0.60094 0.36489 0.0
C472 C 0.81842 0.59211 0.35281 0.0
C473 C 0.87676 0.62689 0.31762 0.0
C474 C 0.85604 0.6474 0.38841 0.0
C475 C 0.91491 0.58306 0.34071 0.0
C476 C 0.8565 0.54994 0.3778 0.0
C477 C 0.89822 0.60695 0.41154 0.0
O478 O 0.83222 0.59135 0.33802 0.0
O479 O 0.8826 0.63584 0.33489 0.0
O480 O 0.84489 0.63073 0.39201 0.0
O481 O 0.89769 0.57225 0.33852 0.0
O482 O 0.8585 0.56413 0.39217 0.0
O483 O 0.90695 0.61319 0.39437 0.0
O484 O 0.85639 0.55434 0.35798 0.0
O485 O 0.91543 0.60199 0.3483 0.0
O486 O 0.87848 0.60221 0.41278 0.0
O487 O 0.87225 0.60709 0.3163 0.0
O488 O 0.82335 0.59199 0.37254 0.0
O489 O 0.87452 0.64687 0.3801 0.0
Sc490 Sc 0.8941 0.8371 0.85858 0.0
Sc491 Sc 0.8536 0.86082 0.8874 0.0
Sc492 Sc 0.87626 0.88716 0.84454 0.0
O493 O 0.87465 0.86175 0.86354 0.0
C494 C 0.9241 0.87755 0.84807 0.0
C495 C 0.89566 0.84005 0.90772 0.0
C496 C 0.86821 0.90809 0.89063 0.0
C497 C 0.85041 0.81404 0.87234 0.0
C498 C 0.88268 0.84786 0.8121 0.0
C499 C 0.82726 0.88341 0.84996 0.0
O500 O 0.92048 0.85746 0.84761 0.0
O501 O 0.87582 0.84447 0.90855 0.0
O502 O 0.87026 0.90954 0.87044 0.0
O503 O 0.87044 0.81335 0.86889 0.0
O504 O 0.88286 0.86782 0.81633 0.0
O505 O 0.82911 0.87731 0.86927 0.0
O506 O 0.88276 0.83373 0.82658 0.0
O507 O 0.84077 0.83139 0.87569 0.0
O508 O 0.84302 0.88467 0.83734 0.0
O509 O 0.90606 0.83983 0.89036 0.0
O510 O 0.90941 0.89093 0.85104 0.0
O511 O 0.86508 0.89043 0.90003 0.0
Sc512 Sc 0.85633 0.13413 0.59571 0.0
Sc513 Sc 0.8968 0.16508 0.62027 0.0
Sc514 Sc 0.87538 0.12022 0.64673 0.0
O515 O 0.87615 0.13981 0.62091 0.0
C516 C 0.82614 0.12557 0.63603 0.0
C517 C 0.8549 0.18476 0.59989 0.0
C518 C 0.88217 0.16584 0.66874 0.0
C519 C 0.89925 0.14788 0.57229 0.0
C520 C 0.86927 0.08697 0.60851 0.0
C521 C 0.92515 0.12769 0.63942 0.0
O522 O 0.82902 0.12977 0.61638 0.0
O523 O 0.87231 0.18678 0.61025 0.0
O524 O 0.87683 0.14624 0.66924 0.0
O525 O 0.88139 0.13803 0.5725 0.0
O526 O 0.87366 0.0914 0.62783 0.0
O527 O 0.92321 0.14558 0.6301 0.0
O528 O 0.86304 0.10076 0.5952 0.0
O529 O 0.9063 0.15857 0.58812 0.0
O530 O 0.90934 0.11703 0.64652 0.0
O531 O 0.84765 0.16693 0.59323 0.0
O532 O 0.84138 0.12176 0.64885 0.0
O533 O 0.88971 0.17474 0.65224 0.0
Sc534 Sc 0.62995 0.09084 0.35044 0.0
Sc535 Sc 0.65092 0.1145 0.39698 0.0
Sc536 Sc 0.60271 0.13172 0.37605 0.0
O537 O 0.62791 0.11227 0.37443 0.0
C538 C 0.61402 0.13341 0.3274 0.0
C539 C 0.67793 0.10543 0.35475 0.0
C540 C 0.64134 0.16259 0.39036 0.0
C541 C 0.64544 0.06486 0.39157 0.0
C542 C 0.58081 0.08834 0.35946 0.0
C543 C 0.60788 0.11966 0.42373 0.0
O544 O 0.61972 0.11393 0.32673 0.0
O545 O 0.67685 0.10878 0.37477 0.0
O546 O 0.62158 0.15862 0.38744 0.0
O547 O 0.64099 0.0658 0.3717 0.0
O548 O 0.58024 0.10784 0.36501 0.0
O549 O 0.62818 0.12013 0.42253 0.0
O550 O 0.5981 0.07894 0.35524 0.0
O551 O 0.64787 0.08126 0.40336 0.0
O552 O 0.59576 0.12135 0.4076 0.0
O553 O 0.66178 0.10071 0.34337 0.0
O554 O 0.60855 0.14271 0.34452 0.0
O555 O 0.65515 0.148 0.39176 0.0
Sc556 Sc 0.60959 0.85357 0.11871 0.0
Sc557 Sc 0.57232 0.84967 0.15974 0.0
Sc558 Sc 0.61176 0.88979 0.16124 0.0
O559 O 0.59789 0.86446 0.1466 0.0
C560 C 0.65113 0.86167 0.14597 0.0
C561 C 0.5976 0.81059 0.14332 0.0
C562 C 0.60012 0.86161 0.20107 0.0
C563 C 0.56099 0.84905 0.10992 0.0
C564 C 0.61644 0.90379 0.11322 0.0
C565 C 0.5617 0.89849 0.16575 0.0
O566 O 0.64088 0.85021 0.13253 0.0
O567 O 0.58823 0.81939 0.15893 0.0
O568 O 0.61288 0.87413 0.19154 0.0
O569 O 0.57896 0.85633 0.10384 0.0
O570 O 0.61263 0.90829 0.13258 0.0
O571 O 0.55557 0.87944 0.16156 0.0
O572 O 0.61754 0.88473 0.10645 0.0
O573 O 0.55728 0.84336 0.12904 0.0
O574 O 0.58128 0.90394 0.16777 0.0
O575 O 0.60326 0.82065 0.12666 0.0
O576 O 0.64319 0.87741 0.15593 0.0
O577 O 0.58382 0.85332 0.19202 0.0
Sc578 Sc 0.36705 0.63285 0.08152 0.0
Sc579 Sc 0.41571 0.66019 0.09051 0.0
Sc580 Sc 0.39306 0.62865 0.13115 0.0
O581 O 0.3919 0.6406 0.10107 0.0
C582 C 0.3436 0.63821 0.12646 0.0
C583 C 0.37371 0.68268 0.07353 0.0
C584 C 0.4107 0.67575 0.13869 0.0
C585 C 0.4054 0.63265 0.04865 0.0
C586 C 0.37725 0.58861 0.10376 0.0
C587 C 0.44124 0.62466 0.1151 0.0
O588 O 0.34363 0.63769 0.10618 0.0
O589 O 0.39309 0.68357 0.07974 0.0
O590 O 0.40039 0.65935 0.14485 0.0
O591 O 0.38682 0.62673 0.05418 0.0
O592 O 0.38571 0.59649 0.12054 0.0
O593 O 0.4399 0.63813 0.10009 0.0
O594 O 0.36978 0.59973 0.08866 0.0
O595 O 0.41695 0.64512 0.05989 0.0
O596 O 0.42612 0.62081 0.12805 0.0
O597 O 0.36281 0.66544 0.07278 0.0
O598 O 0.36023 0.6351 0.13756 0.0
O599 O 0.41825 0.67768 0.12003 0.0
Sc600 Sc 0.13115 0.60184 0.83925 0.0
Sc601 Sc 0.15803 0.61779 0.88649 0.0
Sc602 Sc 0.11702 0.64908 0.86558 0.0
O603 O 0.13547 0.62286 0.86371 0.0
C604 C 0.12763 0.64717 0.81625 0.0
C605 C 0.18152 0.60112 0.84444 0.0
C606 C 0.16307 0.66742 0.87916 0.0
C607 C 0.13777 0.57151 0.87955 0.0
C608 C 0.08322 0.61412 0.84942 0.0
C609 C 0.11879 0.63498 0.91383 0.0
O610 O 0.13007 0.62702 0.81569 0.0
O611 O 0.18158 0.60701 0.86389 0.0
O612 O 0.1436 0.66935 0.87392 0.0
O613 O 0.1321 0.57452 0.86026 0.0
O614 O 0.08807 0.63217 0.85744 0.0
O615 O 0.13728 0.62694 0.91246 0.0
O616 O 0.09709 0.60128 0.84249 0.0
O617 O 0.1467 0.58582 0.89106 0.0
O618 O 0.10919 0.643 0.89802 0.0
O619 O 0.16459 0.59962 0.83333 0.0
O620 O 0.12314 0.65728 0.83319 0.0
O621 O 0.1713 0.64953 0.88359 0.0
Sc622 Sc 0.13715 0.38442 0.61426 0.0
Sc623 Sc 0.09128 0.35651 0.63118 0.0
Sc624 Sc 0.11104 0.39987 0.66144 0.0
O625 O 0.11315 0.38026 0.63564 0.0
C626 C 0.16072 0.39171 0.65912 0.0
C627 C 0.13502 0.33409 0.61798 0.0
C628 C 0.09838 0.35441 0.6811 0.0
C629 C 0.09731 0.37375 0.58411 0.0
C630 C 0.12434 0.43212 0.62418 0.0
C631 C 0.06264 0.39519 0.64737 0.0
O632 O 0.16076 0.38875 0.63903 0.0
O633 O 0.11534 0.33332 0.62296 0.0
O634 O 0.10359 0.37401 0.68315 0.0
O635 O 0.11642 0.38028 0.58683 0.0
O636 O 0.11749 0.4283 0.64287 0.0
O637 O 0.06458 0.37672 0.63913 0.0
O638 O 0.13157 0.41776 0.61197 0.0
O639 O 0.08622 0.36529 0.59877 0.0
O640 O 0.07814 0.40566 0.65547 0.0
O641 O 0.14501 0.35146 0.61466 0.0
O642 O 0.14391 0.39553 0.66961 0.0
O643 O 0.09423 0.34576 0.66321 0.0
Sc644 Sc 0.56605 0.65911 0.6199 0.0
Sc645 Sc 0.58673 0.61903 0.65338 0.0
Sc646 Sc 0.60299 0.62221 0.59995 0.0
O647 O 0.58527 0.63347 0.62443 0.0
C648 C 0.55903 0.63241 0.57691 0.0
C649 C 0.53704 0.62817 0.64822 0.0
C650 C 0.58902 0.57877 0.62245 0.0
C651 C 0.5847 0.66829 0.6664 0.0
C652 C 0.60711 0.67258 0.59322 0.0
C653 C 0.63546 0.61927 0.63909 0.0
O654 O 0.55332 0.64658 0.59024 0.0
O655 O 0.55255 0.61767 0.65579 0.0
O656 O 0.59491 0.58956 0.60638 0.0
O657 O 0.5768 0.6747 0.64889 0.0
O658 O 0.61342 0.65359 0.5905 0.0
O659 O 0.62109 0.6189 0.65338 0.0
O660 O 0.59035 0.67704 0.60356 0.0
O661 O 0.58844 0.64881 0.67013 0.0
O662 O 0.63127 0.62039 0.61927 0.0
O663 O 0.53954 0.64382 0.63561 0.0
O664 O 0.57645 0.62243 0.57843 0.0
O665 O 0.58563 0.58711 0.64059 0.0
Sc666 Sc 0.33725 0.3618 0.39851 0.0
Sc667 Sc 0.3673 0.38249 0.35719 0.0
Sc668 Sc 0.37985 0.33325 0.37805 0.0
O669 O 0.36136 0.35906 0.3779 0.0
C670 C 0.37434 0.34124 0.42681 0.0
C671 C 0.35228 0.40869 0.39844 0.0
C672 C 0.41317 0.37168 0.37055 0.0
C673 C 0.31829 0.38073 0.35477 0.0
C674 C 0.3332 0.31364 0.38731 0.0
C675 C 0.37811 0.34059 0.32968 0.0
O676 O 0.35505 0.34721 0.42459 0.0
O677 O 0.3568 0.40767 0.37866 0.0
O678 O 0.40857 0.35178 0.37082 0.0
O679 O 0.31693 0.37713 0.37479 0.0
O680 O 0.35337 0.31172 0.38558 0.0
O681 O 0.37845 0.36074 0.33259 0.0
O682 O 0.32425 0.33163 0.38881 0.0
O683 O 0.33575 0.37953 0.34462 0.0
O684 O 0.37437 0.32759 0.34474 0.0
O685 O 0.34878 0.39213 0.40951 0.0
O686 O 0.38658 0.33785 0.4111 0.0
O687 O 0.399 0.38596 0.36941 0.0
H688 H 0.06567 0.25063 0.32475 0.0
H689 H 0.07452 0.23893 0.28875 0.0
H690 H 0.00757 0.23455 0.27286 0.0
H691 H -0.00157 0.24601 0.30896 0.0
H692 H 0.02974 0.19837 0.26299 0.0
H693 H 0.07185 0.26978 0.23153 0.0
H694 H 0.08205 0.26138 0.2569 0.0
H695 H 0.05508 0.27069 0.2549 0.0
C696 C 0.05279 0.24735 0.3136 0.0
C697 C 0.03133 0.24918 0.3198 0.0
C698 C 0.0579 0.24088 0.29295 0.0
C699 C 0.04169 0.23631 0.27808 0.0
C700 C 0.02028 0.23824 0.2841 0.0
H701 H 0.06138 0.18876 0.1478 0.0
H702 H 0.04961 0.21139 0.17741 0.0
C703 C 0.01513 0.24469 0.30477 0.0
C704 C 0.04714 0.22758 0.25692 0.0
H705 H 0.07775 0.23668 0.21285 0.0
C706 C 0.03992 0.20689 0.25187 0.0
C707 C 0.06034 0.23881 0.24242 0.0
C708 C 0.06761 0.26148 0.24659 0.0
C709 C 0.04641 0.19672 0.23313 0.0
C710 C 0.06055 0.20748 0.21926 0.0
C711 C 0.06702 0.22851 0.22373 0.0
C712 C 0.06977 0.19634 0.20086 0.0
C713 C 0.03865 0.17426 0.22853 0.0
C714 C 0.08542 0.181 0.20435 0.0
C715 C 0.09214 0.16808 0.18762 0.0
C716 C 0.08326 0.17029 0.1671 0.0
C717 C 0.06846 0.1866 0.16343 0.0
C718 C 0.06173 0.19955 0.18026 0.0
H719 H 0.02491 0.16964 0.23874 0.0
H720 H 0.03385 0.17256 0.21152 0.0
H721 H 0.05181 0.16297 0.23157 0.0
H722 H 0.09181 0.17848 0.22022 0.0
H723 H 0.10375 0.15588 0.19097 0.0
H724 H 0.03274 0.77128 0.57623 0.0
H725 H 0.04813 0.79616 0.55069 0.0
H726 H 0.05189 0.74565 0.5039 0.0
H727 H 0.03709 0.72032 0.52974 0.0
H728 H 0.08819 0.76849 0.50597 0.0
H729 H 0.01996 0.82361 0.50046 0.0
H730 H 0.02935 0.82039 0.52731 0.0
H731 H 0.01786 0.79792 0.51319 0.0
C732 C 0.03662 0.76545 0.56044 0.0
C733 C 0.03358 0.74382 0.55495 0.0
C734 C 0.04533 0.77976 0.54582 0.0
C735 C 0.05075 0.77286 0.52528 0.0
C736 C 0.04769 0.7513 0.51968 0.0
H737 H 0.07664 0.84526 0.41358 0.0
H738 H 0.06103 0.82654 0.44369 0.0
C739 C 0.03923 0.73687 0.53442 0.0
C740 C 0.06041 0.78797 0.50992 0.0
H741 H 0.05248 0.83534 0.48467 0.0
C742 C 0.08038 0.78309 0.50126 0.0
C743 C 0.05009 0.80693 0.50374 0.0
C744 C 0.02804 0.81244 0.51149 0.0
C745 C 0.09029 0.79658 0.48642 0.0
C746 C 0.08022 0.81582 0.48065 0.0
C747 C 0.06031 0.82077 0.48943 0.0
C748 C 0.089 0.82984 0.46386 0.0
C749 C 0.11102 0.78967 0.47647 0.0
C750 C 0.10959 0.83881 0.4656 0.0
C751 C 0.11874 0.84939 0.44823 0.0
C752 C 0.1073 0.85132 0.42898 0.0
C753 C 0.08604 0.84384 0.42803 0.0
C754 C 0.07703 0.83315 0.44527 0.0
H755 H 0.11393 0.77239 0.47889 0.0
H756 H 0.11113 0.79293 0.45907 0.0
H757 H 0.12446 0.79871 0.48393 0.0
H758 H 0.11885 0.83693 0.48007 0.0
H759 H 0.13505 0.85517 0.44959 0.0
H760 H 0.47875 0.81069 0.85042 0.0
H761 H 0.45786 0.82899 0.82317 0.0
H762 H 0.43607 0.76818 0.79824 0.0
H763 H 0.45641 0.74984 0.82574 0.0
H764 H 0.46416 0.8259 0.78137 0.0
H765 H 0.38118 0.80073 0.79852 0.0
H766 H 0.40264 0.79736 0.81748 0.0
H767 H 0.39837 0.7782 0.79631 0.0
C768 C 0.46925 0.80125 0.83931 0.0
C769 C 0.4692 0.77885 0.84015 0.0
C770 C 0.45728 0.81172 0.82382 0.0
C771 C 0.4451 0.79996 0.80894 0.0
C772 C 0.44483 0.77759 0.80996 0.0
H773 H 0.40137 0.81044 0.68326 0.0
H774 H 0.40975 0.80089 0.72004 0.0
C775 C 0.45664 0.76712 0.82554 0.0
C776 C 0.43462 0.81085 0.79093 0.0
H777 H 0.38815 0.81266 0.76241 0.0
C778 C 0.44742 0.82343 0.77749 0.0
C779 C 0.41277 0.80761 0.78594 0.0
C780 C 0.39792 0.79542 0.80048 0.0
C781 C 0.43927 0.8318 0.75851 0.0
C782 C 0.41776 0.82755 0.75297 0.0
C783 C 0.40467 0.81579 0.7668 0.0
C784 C 0.40945 0.83336 0.73181 0.0
C785 C 0.45397 0.84415 0.74392 0.0
C786 C 0.40594 0.85474 0.72656 0.0
C787 C 0.40114 0.86029 0.70554 0.0
C788 C 0.39996 0.84452 0.68951 0.0
C789 C 0.40241 0.823 0.69517 0.0
C790 C 0.40706 0.81748 0.71617 0.0
H791 H 0.47079 0.84421 0.74962 0.0
H792 H 0.45338 0.83726 0.72757 0.0
H793 H 0.44861 0.86093 0.7429 0.0
H794 H 0.40769 0.86715 0.73855 0.0
H795 H 0.39927 0.877 0.70172 0.0
H796 H 0.49464 0.1726 0.09513 0.0
H797 H 0.4775 0.14957 0.0683 0.0
H798 H 0.43263 0.19917 0.05406 0.0
H799 H 0.44966 0.22238 0.0809 0.0
H800 H 0.43078 0.13685 0.063 0.0
H801 H 0.4667 0.18447 -0.00274 0.0
H802 H 0.47699 0.18525 0.02422 0.0
H803 H 0.45318 0.19944 0.01758 0.0
C804 C 0.48102 0.17856 0.08639 0.0
C805 C 0.47356 0.19935 0.08992 0.0
C806 C 0.47122 0.16535 0.0712 0.0
C807 C 0.45395 0.1728 0.05926 0.0
C808 C 0.44604 0.19327 0.06316 0.0
H809 H 0.36511 0.12111 0.9699 0.0
H810 H 0.38352 0.13096 0.00291 0.0
C811 C 0.45577 0.20648 0.07844 0.0
C812 C 0.44509 0.15974 0.0417 0.0
H813 H 0.44104 0.1582 0.98756 0.0
C814 C 0.43307 0.14135 0.04647 0.0
C815 C 0.44857 0.16553 0.02026 0.0
C816 C 0.4622 0.18465 0.01439 0.0
C817 C 0.42368 0.12895 0.03015 0.0
C818 C 0.42636 0.13534 0.00871 0.0
C819 C 0.43902 0.15333 0.00403 0.0
C820 C 0.41513 0.12471 0.99077 0.0
C821 C 0.41099 0.10923 0.03594 0.0
C822 C 0.42678 0.11748 0.97316 0.0
C823 C 0.41634 0.1121 0.95417 0.0
C824 C 0.39405 0.11394 0.95246 0.0
C825 C 0.38229 0.11955 0.97066 0.0
C826 C 0.39278 0.12505 0.98963 0.0
H827 H 0.41584 0.10299 0.05178 0.0
H828 H 0.39382 0.11327 0.03675 0.0
H829 H 0.41292 0.09646 0.02379 0.0
H830 H 0.44406 0.11715 0.97376 0.0
H831 H 0.42585 0.10759 0.94052 0.0
H832 H 0.07416 0.7461 0.15088 0.0
H833 H 0.09555 0.76541 0.17758 0.0
H834 H 0.04529 0.81118 0.185 0.0
H835 H 0.0237 0.79196 0.15826 0.0
H836 H 0.10807 0.81252 0.18013 0.0
H837 H 0.05592 0.78137 0.24499 0.0
H838 H 0.0568 0.76915 0.21887 0.0
H839 H 0.04271 0.7936 0.22272 0.0
C840 C 0.06771 0.76037 0.15807 0.0
C841 C 0.04719 0.76745 0.15268 0.0
C842 C 0.08 0.77142 0.17318 0.0
C843 C 0.07189 0.78959 0.18318 0.0
C844 C 0.05171 0.7971 0.17739 0.0
H845 H 0.12314 0.8782 0.27544 0.0
H846 H 0.11256 0.86139 0.2417 0.0
C847 C 0.03942 0.78611 0.1622 0.0
C848 C 0.08384 0.79967 0.20088 0.0
H849 H 0.08311 0.80579 0.25487 0.0
C850 C 0.10271 0.81111 0.1965 0.0
C851 C 0.07684 0.79741 0.22213 0.0
C852 C 0.05705 0.78461 0.22762 0.0
C853 C 0.11463 0.82076 0.21302 0.0
C854 C 0.10734 0.81886 0.23423 0.0
C855 C 0.08863 0.80716 0.23853 0.0
C856 C 0.11835 0.82921 0.25242 0.0
C857 C 0.13496 0.83272 0.20779 0.0
C858 C 0.12565 0.81667 0.26933 0.0
C859 C 0.13153 0.82616 0.28866 0.0
C860 C 0.13008 0.84838 0.29141 0.0
C861 C 0.12439 0.86105 0.27385 0.0
C862 C 0.11844 0.85149 0.25451 0.0
H863 H 0.14085 0.82867 0.19159 0.0
H864 H 0.13195 0.85012 0.20837 0.0
H865 H 0.14763 0.82919 0.21965 0.0
H866 H 0.12564 0.79943 0.26796 0.0
H867 H 0.1361 0.81596 0.30177 0.0
H868 H 0.51504 0.77681 0.41404 0.0
H869 H 0.49564 0.79437 0.44285 0.0
H870 H 0.43807 0.76047 0.4245 0.0
H871 H 0.45733 0.74275 0.39562 0.0
H872 H 0.4558 0.81967 0.44019 0.0
H873 H 0.44976 0.7458 0.48905 0.0
H874 H 0.4688 0.74876 0.46769 0.0
H875 H 0.44115 0.74384 0.46167 0.0
C876 C 0.49824 0.77312 0.41609 0.0
C877 C 0.48772 0.75832 0.40269 0.0
C878 C 0.48719 0.78323 0.43247 0.0
C879 C 0.46553 0.77858 0.43576 0.0
C880 C 0.45485 0.7641 0.42221 0.0
H881 H 0.38199 0.84041 0.52836 0.0
H882 H 0.39698 0.82719 0.49483 0.0
C883 C 0.46587 0.75403 0.40576 0.0
C884 C 0.45439 0.78828 0.45396 0.0
H885 H 0.43422 0.7768 0.50306 0.0
C886 C 0.45091 0.81035 0.4539 0.0
C887 C 0.44826 0.77597 0.47178 0.0
C888 C 0.45225 0.75229 0.47277 0.0
C889 C 0.44155 0.82052 0.47146 0.0
C890 C 0.43555 0.8082 0.48931 0.0
C891 C 0.4388 0.78611 0.48923 0.0
C892 C 0.42705 0.81798 0.50889 0.0
C893 C 0.43872 0.84438 0.47113 0.0
C894 C 0.4391 0.81723 0.52772 0.0
C895 C 0.43066 0.82467 0.54683 0.0
C896 C 0.40988 0.83289 0.54749 0.0
C897 C 0.39805 0.8342 0.52841 0.0
C898 C 0.40657 0.82672 0.50924 0.0
H899 H 0.44707 0.85195 0.45745 0.0
H900 H 0.42147 0.84798 0.46987 0.0
H901 H 0.44481 0.85165 0.48619 0.0
H902 H 0.45496 0.81051 0.52768 0.0
H903 H 0.4403 0.82352 0.56115 0.0
H904 H 0.516 0.18296 0.70083 0.0
H905 H 0.49121 0.16832 0.72717 0.0
H906 H 0.44129 0.20826 0.70267 0.0
H907 H 0.46574 0.22258 0.67596 0.0
H908 H 0.46949 0.18758 0.75864 0.0
H909 H 0.4126 0.15009 0.70127 0.0
H910 H 0.43853 0.16005 0.6934 0.0
H911 H 0.41671 0.17811 0.69684 0.0
C912 C 0.49976 0.18866 0.70107 0.0
C913 C 0.49279 0.20379 0.68619 0.0
C914 C 0.48561 0.18024 0.71608 0.0
C915 C 0.4643 0.18685 0.71652 0.0
C916 C 0.45749 0.20247 0.70218 0.0
H917 H 0.3824 0.16678 0.82577 0.0
H918 H 0.40113 0.18251 0.79543 0.0
C919 C 0.47155 0.21075 0.68703 0.0
C920 C 0.44935 0.17776 0.73237 0.0
H921 H 0.40171 0.15123 0.73762 0.0
C922 C 0.45469 0.1796 0.75405 0.0
C923 C 0.4302 0.16709 0.72628 0.0
C924 C 0.42424 0.1635 0.70317 0.0
C925 C 0.44132 0.17124 0.76987 0.0
C926 C 0.42178 0.1613 0.76383 0.0
C927 C 0.41653 0.1592 0.74215 0.0
C928 C 0.40711 0.15227 0.77993 0.0
C929 C 0.4485 0.17267 0.79287 0.0
C930 C 0.403 0.13022 0.7804 0.0
C931 C 0.39199 0.1212 0.79755 0.0
C932 C 0.3851 0.13413 0.81449 0.0
C933 C 0.38779 0.15639 0.81308 0.0
C934 C 0.39857 0.16539 0.79584 0.0
H935 H 0.46597 0.17572 0.79424 0.0
H936 H 0.44022 0.18606 0.80082 0.0
H937 H 0.44453 0.15776 0.80157 0.0
H938 H 0.40935 0.11987 0.76814 0.0
H939 H 0.39018 0.104 0.7982 0.0
H940 H 0.0225 0.19094 0.91802 0.0
H941 H 0.04373 0.16702 0.93956 0.0
H942 H 0.02486 0.11392 0.8994 0.0
H943 H 0.0031 0.13779 0.87775 0.0
H944 H 0.01986 0.1047 0.94081 0.0
H945 H 0.10029 0.13878 0.9302 0.0
H946 H 0.0824 0.15993 0.93651 0.0
H947 H 0.07855 0.14474 0.91223 0.0
C948 C 0.02299 0.17424 0.91353 0.0
C949 C 0.01104 0.16632 0.89614 0.0
C950 C 0.03537 0.1606 0.92575 0.0
C951 C 0.03631 0.13878 0.92076 0.0
C952 C 0.02457 0.13076 0.90333 0.0
H953 H 0.11397 0.09565 0.02622 0.0
H954 H 0.10198 0.09164 0.98921 0.0
C955 C 0.0121 0.14444 0.89104 0.0
C956 C 0.04779 0.12439 0.93534 0.0
H957 H 0.09264 0.12431 0.96607 0.0
C958 C 0.03605 0.10846 0.94592 0.0
C959 C 0.06916 0.12858 0.94148 0.0
C960 C 0.08336 0.14378 0.92927 0.0
C961 C 0.04416 0.09876 0.96431 0.0
C962 C 0.06417 0.10568 0.97248 0.0
C963 C 0.07703 0.11936 0.96019 0.0
C964 C 0.07002 0.10283 -0.0048 0.0
C965 C 0.03067 0.08218 0.97547 0.0
C966 C 0.05588 0.10992 0.01096 0.0
C967 C 0.06263 0.1122 0.03204 0.0
C968 C 0.0838 0.10777 0.03781 0.0
C969 C 0.09758 0.09935 0.0223 0.0
C970 C 0.09075 0.09698 0.00114 0.0
H971 H 0.02204 0.07199 0.96363 0.0
H972 H 0.04042 0.07185 0.98593 0.0
H973 H 0.01846 0.09025 0.9853 0.0
H974 H 0.04001 0.11515 0.00677 0.0
H975 H 0.05152 0.11859 0.04355 0.0
H976 H 0.33262 0.11475 0.24066 0.0
H977 H 0.30116 0.13606 0.232 0.0
H978 H 0.29801 0.1067 0.16968 0.0
H979 H 0.32915 0.08537 0.17818 0.0
H980 H 0.28773 0.15396 0.17291 0.0
H981 H 0.24375 0.09956 0.22826 0.0
H982 H 0.26719 0.11378 0.23752 0.0
H983 H 0.26976 0.09269 0.21832 0.0
C984 C 0.32547 0.1132 0.22496 0.0
C985 C 0.33303 0.09815 0.2102 0.0
C986 C 0.30758 0.1254 0.22006 0.0
C987 C 0.2973 0.12278 0.20029 0.0
C988 C 0.30583 0.10895 0.185 0.0
H989 H 0.19607 0.1226 0.11878 0.0
H990 H 0.22959 0.12986 0.13731 0.0
C991 C 0.3235 0.09667 0.18994 0.0
C992 C 0.27601 0.13165 0.19625 0.0
H993 H 0.22378 0.11787 0.203 0.0
C994 C 0.27364 0.1466 0.17988 0.0
C995 C 0.25775 0.12219 0.2056 0.0
C996 C 0.25954 0.10612 0.22339 0.0
C997 C 0.25344 0.1511 0.17144 0.0
C998 C 0.23539 0.13978 0.17917 0.0
C999 C 0.23762 0.1264 0.19692 0.0
C1000 C 0.21492 0.13877 0.16727 0.0
C1001 C 0.25178 0.1673 0.15382 0.0
C1002 C 0.19545 0.14094 0.178 0.0
C1003 C 0.17621 0.13619 0.16756 0.0
C1004 C 0.17613 0.12929 0.14617 0.0
C1005 C 0.19559 0.12795 0.13523 0.0
C1006 C 0.21479 0.1324 0.14575 0.0
H1007 H 0.26377 0.18033 0.15611 0.0
H1008 H 0.25525 0.15947 0.13831 0.0
H1009 H 0.23564 0.17436 0.15302 0.0
H1010 H 0.19517 0.14564 0.19465 0.0
H1011 H 0.16145 0.13761 0.17636 0.0
H1012 H 0.22654 0.07932 0.48744 0.0
H1013 H 0.21327 0.05234 0.4624 0.0
H1014 H 0.14908 0.06193 0.4848 0.0
H1015 H 0.16211 0.08942 0.50956 0.0
H1016 H 0.19391 0.01564 0.47266 0.0
H1017 H 0.14049 0.06266 0.42066 0.0
H1018 H 0.15962 0.07498 0.43865 0.0
H1019 H 0.13448 0.06509 0.44854 0.0
C1020 C 0.20957 0.07582 0.48698 0.0
C1021 C 0.19538 0.08649 0.50054 0.0
C1022 C 0.20201 0.06046 0.47259 0.0
C1023 C 0.18016 0.05539 0.47152 0.0
C1024 C 0.16592 0.06601 0.48498 0.0
H1025 H 0.13327 0.9338 0.42595 0.0
H1026 H 0.13914 0.96676 0.44616 0.0
C1027 C 0.17344 0.08156 0.49926 0.0
C1028 C 0.17267 0.03776 0.45756 0.0
H1029 H 0.13809 0.02471 0.41714 0.0
C1030 C 0.18178 0.01766 0.46046 0.0
C1031 C 0.15698 0.04053 0.44152 0.0
C1032 C 0.14746 0.06202 0.43697 0.0
C1033 C 0.17552 0.00016 0.44792 0.0
C1034 C 0.15925 0.00269 0.43247 0.0
C1035 C 0.15032 0.02283 0.42926 0.0
C1036 C 0.15176 0.98445 0.41937 0.0
C1037 C 0.18664 0.97917 0.45114 0.0
C1038 C 0.15568 0.98403 0.39735 0.0
C1039 C 0.1521 0.96526 0.38567 0.0
C1040 C 0.14472 0.94672 0.39597 0.0
C1041 C 0.13931 0.94775 0.41769 0.0
C1042 C 0.14265 0.96654 0.42925 0.0
H1043 H 0.20218 0.98132 0.45953 0.0
H1044 H 0.17642 0.96855 0.461 0.0
H1045 H 0.18952 0.97107 0.43564 0.0
H1046 H 0.16263 -0.0022 0.38948 0.0
H1047 H 0.15636 0.96491 0.36894 0.0
H1048 H 0.18807 0.99334 0.68736 0.0
H1049 H 0.21731 0.97034 0.6764 0.0
H1050 H 0.18673 0.91672 0.70718 0.0
H1051 H 0.15769 0.93973 0.71869 0.0
H1052 H 0.22946 0.91756 0.71427 0.0
H1053 H 0.21257 0.92716 0.62819 0.0
H1054 H 0.21667 0.95241 0.64125 0.0
H1055 H 0.19429 0.93572 0.6486 0.0
C1056 C 0.18765 0.97669 0.69192 0.0
C1057 C 0.17053 0.96828 0.70371 0.0
C1058 C 0.20426 0.96354 0.68551 0.0
C1059 C 0.20385 0.94173 0.6905 0.0
C1060 C 0.18721 0.93347 0.70299 0.0
H1061 H 0.29621 0.86385 0.62168 0.0
H1062 H 0.26222 0.87443 0.63739 0.0
C1063 C 0.17066 0.94665 0.70956 0.0
C1064 C 0.22081 0.9276 0.68259 0.0
H1065 H 0.24706 0.91349 0.63726 0.0
C1066 C 0.23317 0.91642 0.69741 0.0
C1067 C 0.22517 0.92558 0.66055 0.0
C1068 C 0.21131 0.93566 0.64373 0.0
C1069 C 0.25066 0.90433 0.69085 0.0
C1070 C 0.25618 0.90393 0.66898 0.0
C1071 C 0.243 0.91401 0.65406 0.0
C1072 C 0.27658 0.89507 0.66139 0.0
C1073 C 0.26316 0.89233 0.70745 0.0
C1074 C 0.29588 0.90303 0.66978 0.0
C1075 C 0.31525 0.89696 0.66097 0.0
C1076 C 0.31575 0.88306 0.64329 0.0
C1077 C 0.2964 0.87464 0.63523 0.0
C1078 C 0.27697 0.88063 0.6442 0.0
H1079 H 0.25279 0.88752 0.72099 0.0
H1080 H 0.27055 0.87783 0.70061 0.0
H1081 H 0.27599 0.90288 0.71395 0.0
H1082 H 0.29598 0.91468 0.6826 0.0
H1083 H 0.32979 0.90384 0.66758 0.0
H1084 H 0.18255 0.9392 0.9601 0.0
H1085 H 0.20632 0.96498 0.94244 0.0
H1086 H 0.25341 0.95645 0.99189 0.0
H1087 H 0.22991 0.93084 0.00965 0.0
H1088 H 0.23258 0.00424 0.95958 0.0
H1089 H 0.27852 0.93404 0.93184 0.0
H1090 H 0.25102 0.93204 0.94028 0.0
H1091 H 0.27197 0.93469 0.95976 0.0
C1092 C 0.19765 0.94337 0.96759 0.0
C1093 C 0.20453 0.93279 0.98608 0.0
C1094 C 0.21123 0.95797 0.95741 0.0
C1095 C 0.23168 0.96213 0.96571 0.0
C1096 C 0.23775 0.95312 0.98517 0.0
H1097 H 0.3353 0.04638 0.94025 0.0
H1098 H 0.30942 0.02097 0.9548 0.0
C1099 C 0.22428 0.93856 -0.00471 0.0
C1100 C 0.24756 0.9742 0.95325 0.0
H1101 H 0.29436 0.9682 0.92628 0.0
C1102 C 0.24597 -0.00358 0.9521 0.0
C1103 C 0.26483 0.96377 0.94337 0.0
C1104 C 0.26672 0.9398 0.94366 0.0
C1105 C 0.26182 0.00863 0.94197 0.0
C1106 C 0.2796 -0.00173 0.93299 0.0
C1107 C 0.28074 0.976 0.93337 0.0
C1108 C 0.29753 0.0106 0.92398 0.0
C1109 C 0.25968 0.03257 0.94121 0.0
C1110 C 0.30013 0.0121 0.90184 0.0
C1111 C 0.31498 0.02658 0.89341 0.0
C1112 C 0.3273 0.03971 0.9071 0.0
C1113 C 0.32588 0.03667 0.92928 0.0
C1114 C 0.31108 0.02225 0.93764 0.0
H1115 H 0.24325 0.03769 0.94518 0.0
H1116 H 0.27089 0.03999 0.95291 0.0
H1117 H 0.26389 0.03867 0.92514 0.0
H1118 H 0.28984 0.00303 0.89113 0.0
H1119 H 0.31567 0.02856 0.87626 0.0
H1120 H 0.32468 0.00751 0.24383 0.0
H1121 H 0.30276 0.97888 0.25875 0.0
H1122 H 0.27 0.02439 0.29815 0.0
H1123 H 0.2919 0.05333 0.28339 0.0
H1124 H 0.30129 0.96994 0.30497 0.0
H1125 H 0.2223 0.98683 0.26825 0.0
H1126 H 0.2471 -0.0034 0.25711 0.0
H1127 H 0.23613 0.00919 0.28031 0.0
C1128 C 0.3126 0.01158 0.25541 0.0
C1129 C 0.31014 0.03277 0.26249 0.0
C1130 C 0.30018 -0.00486 0.26397 0.0
C1131 C 0.28491 -0.00042 0.27954 0.0
C1132 C 0.28169 0.02074 0.28603 0.0
H1133 H 0.21717 0.92118 0.3696 0.0
H1134 H 0.24469 0.94359 0.35294 0.0
C1135 C 0.2942 0.03724 0.27755 0.0
C1136 C 0.27302 0.98193 0.28971 0.0
H1137 H 0.22322 0.96026 0.29487 0.0
C1138 C 0.28423 0.9677 0.30274 0.0
C1139 C 0.25087 0.9791 0.28657 0.0
C1140 C 0.23832 0.99361 0.27218 0.0
C1141 C 0.27367 0.9508 0.31306 0.0
C1142 C 0.25142 0.94824 0.31024 0.0
C1143 C 0.24032 0.96232 0.29696 0.0
C1144 C 0.23899 0.93133 0.32105 0.0
C1145 C 0.2863 0.93573 0.32673 0.0
C1146 C 0.22737 0.91649 0.30873 0.0
C1147 C 0.21166 0.9038 0.31816 0.0
C1148 C 0.20729 0.90581 0.34005 0.0
C1149 C 0.22032 0.91921 0.35273 0.0
C1150 C 0.23602 0.93203 0.34323 0.0
H1151 H 0.3037 0.93704 0.32355 0.0
H1152 H 0.28361 0.93961 0.34379 0.0
H1153 H 0.28098 0.91897 0.32397 0.0
H1154 H 0.22951 0.91572 0.2916 0.0
H1155 H 0.20195 0.89347 0.30804 0.0
H1156 H 0.29777 0.08481 0.51459 0.0
H1157 H 0.32048 0.05328 0.5145 0.0
H1158 H 0.28761 0.02937 0.56999 0.0
H1159 H 0.26466 0.06056 0.57 0.0
H1160 H 0.34803 0.03778 0.54503 0.0
H1161 H 0.28323 0.9794 0.52829 0.0
H1162 H 0.27995 0.00776 0.52483 0.0
H1163 H 0.27705 -0.00407 0.55082 0.0
C1164 C 0.29539 0.07282 0.52678 0.0
C1165 C 0.27933 0.07505 0.54223 0.0
C1166 C 0.30836 0.05485 0.52668 0.0
C1167 C 0.3054 0.03883 0.54195 0.0
C1168 C 0.28978 0.04132 0.55772 0.0
H1169 H 0.37837 0.94804 0.60295 0.0
H1170 H 0.36605 0.98034 0.58594 0.0
C1171 C 0.27677 0.05921 0.5578 0.0
C1172 C 0.31877 0.01957 0.54183 0.0
H1173 H 0.31504 0.96542 0.54455 0.0
C1174 C 0.34092 0.02191 0.54453 0.0
C1175 C 0.30958 -0.0011 0.54046 0.0
C1176 C 0.28617 -0.00468 0.53569 0.0
C1177 C 0.35389 0.00409 0.54765 0.0
C1178 C 0.34431 0.98354 0.54856 0.0
C1179 C 0.32242 0.98116 0.54414 0.0
C1180 C 0.35581 0.9647 0.55668 0.0
C1181 C 0.37761 0.00754 0.55035 0.0
C1182 C 0.35437 0.94505 0.54588 0.0
C1183 C 0.36103 0.92635 0.55581 0.0
C1184 C 0.36927 0.92699 0.57672 0.0
C1185 C 0.37213 0.94691 0.58684 0.0
C1186 C 0.36526 0.96552 0.57701 0.0
H1187 H 0.38322 0.02144 0.54087 0.0
H1188 H 0.38121 0.01107 0.56737 0.0
H1189 H 0.38671 0.99326 0.54542 0.0
H1190 H 0.34708 0.94403 0.53019 0.0
H1191 H 0.35876 0.91129 0.54749 0.0
H1192 H 0.16824 0.01607 0.76202 0.0
H1193 H 0.19365 0.0317 0.78748 0.0
H1194 H 0.1525 0.08564 0.79637 0.0
H1195 H 0.12715 0.07036 0.77075 0.0
H1196 H 0.19288 0.09773 0.78698 0.0
H1197 H 0.19371 0.03839 0.85194 0.0
H1198 H 0.1977 0.02611 0.82638 0.0
H1199 H 0.17282 0.03902 0.83201 0.0
C1200 C 0.1644 0.03107 0.76965 0.0
C1201 C 0.14573 0.04201 0.76424 0.0
C1202 C 0.17888 0.03992 0.78431 0.0
C1203 C 0.17481 0.0597 0.79398 0.0
C1204 C 0.15588 0.07032 0.78913 0.0
H1205 H 0.27284 0.10329 0.88472 0.0
H1206 H 0.23709 0.09786 0.86973 0.0
C1207 C 0.14145 0.06155 0.77444 0.0
C1208 C 0.19128 0.0702 0.80747 0.0
H1209 H 0.22491 0.06132 0.84924 0.0
C1210 C 0.19963 0.08997 0.80085 0.0
C1211 C 0.19973 0.06032 0.82581 0.0
C1212 C 0.19036 0.0399 0.83459 0.0
C1213 C 0.21724 0.09939 0.81123 0.0
C1214 C 0.22691 0.08852 0.82835 0.0
C1215 C 0.21762 0.06952 0.83592 0.0
C1216 C 0.24789 0.09518 0.8371 0.0
C1217 C 0.22561 0.12063 0.80343 0.0
C1218 C 0.26571 0.09583 0.82364 0.0
C1219 C 0.28612 0.09893 0.8321 0.0
C1220 C 0.28913 0.10123 0.85424 0.0
C1221 C 0.27112 0.10155 0.8676 0.0
C1222 C 0.25067 0.09844 0.85909 0.0
H1223 H 0.21269 0.13008 0.79601 0.0
H1224 H 0.23293 0.13012 0.81662 0.0
H1225 H 0.23794 0.11789 0.79109 0.0
H1226 H 0.26396 0.09289 0.80668 0.0
H1227 H 0.29959 0.09862 0.82133 0.0
H1228 H 0.17389 0.87699 0.07889 0.0
H1229 H 0.15421 0.90263 0.10038 0.0
H1230 H 0.12685 0.92875 0.04295 0.0
H1231 H 0.14549 0.90221 0.02165 0.0
H1232 H 0.1672 0.94125 0.09518 0.0
H1233 H 0.07999 0.94136 0.08374 0.0
H1234 H 0.09589 0.91842 0.07716 0.0
H1235 H 0.09288 0.93986 0.05833 0.0
C1236 C 0.16281 0.88754 0.07103 0.0
C1237 C 0.16129 0.88794 0.04872 0.0
C1238 C 0.15156 0.90215 0.08329 0.0
C1239 C 0.13915 0.91774 0.07332 0.0
C1240 C 0.13596 0.91667 0.05111 0.0
H1241 H 0.14633 0.04917 0.08094 0.0
H1242 H 0.1478 0.01066 0.07558 0.0
C1243 C 0.14677 0.90161 0.03887 0.0
C1244 C 0.13436 0.9377 0.08496 0.0
H1245 H 0.09703 0.97655 0.08997 0.0
C1246 C 0.15163 0.9486 0.0946 0.0
C1247 C 0.11412 0.94741 0.0843 0.0
C1248 C 0.09465 0.93599 0.0755 0.0
C1249 C 0.14962 0.96949 0.10211 0.0
C1250 C 0.12995 0.97984 0.09962 0.0
C1251 C 0.11219 0.96854 0.09153 0.0
C1252 C 0.12842 0.003 0.10305 0.0
C1253 C 0.16888 0.98073 0.11166 0.0
C1254 C 0.11694 0.01126 0.12024 0.0
C1255 C 0.11616 0.03332 0.12348 0.0
C1256 C 0.1267 0.04735 0.10939 0.0
C1257 C 0.13809 0.03886 0.09212 0.0
C1258 C 0.13894 0.01688 0.089 0.0
H1259 H 0.18088 0.96921 0.11749 0.0
H1260 H 0.17654 0.99082 0.09928 0.0
H1261 H 0.16418 0.99126 0.12511 0.0
H1262 H 0.10875 0.00067 0.1312 0.0
H1263 H 0.1071 0.03935 0.13683 0.0
H1264 H 0.21923 0.34421 0.07019 0.0
H1265 H 0.19807 0.31199 0.07732 0.0
H1266 H 0.18671 0.30371 0.0098 0.0
H1267 H 0.20867 0.33532 0.00251 0.0
H1268 H 0.1578 0.30027 0.06984 0.0
H1269 H 0.21178 0.24731 0.02457 0.0
H1270 H 0.21849 0.27477 0.03036 0.0
H1271 H 0.20078 0.26812 0.00856 0.0
C1272 C 0.21219 0.33552 0.05689 0.0
C1273 C 0.21584 0.34202 0.03579 0.0
C1274 C 0.20008 0.31716 0.06097 0.0
C1275 C 0.19124 0.30521 0.04405 0.0
C1276 C 0.19396 0.31232 0.02303 0.0
H1277 H 0.1008 0.19986 0.06766 0.0
H1278 H 0.1162 0.23432 0.05703 0.0
C1279 C 0.20642 0.33041 0.01891 0.0
C1280 C 0.17973 0.28499 0.04845 0.0
H1281 H 0.17998 0.23164 0.03767 0.0
C1282 C 0.16262 0.28523 0.06283 0.0
C1283 C 0.18626 0.26539 0.03945 0.0
C1284 C 0.20546 0.26379 0.02505 0.0
C1285 C 0.152 0.26633 0.0687 0.0
C1286 C 0.15826 0.24682 0.05934 0.0
C1287 C 0.17513 0.24666 0.04469 0.0
C1288 C 0.14861 0.22611 0.06551 0.0
C1289 C 0.13482 0.2674 0.08547 0.0
C1290 C 0.16181 0.20989 0.07312 0.0
C1291 C 0.15317 0.19012 0.07866 0.0
C1292 C 0.1311 0.18626 0.07693 0.0
C1293 C 0.11785 0.2025 0.06933 0.0
C1294 C 0.12659 0.22221 0.0634 0.0
H1295 H 0.136 0.28236 0.09501 0.0
H1296 H 0.11895 0.267 0.07756 0.0
H1297 H 0.13571 0.25363 0.09651 0.0
H1298 H 0.17885 0.21257 0.07486 0.0
H1299 H 0.16376 0.17797 0.08462 0.0
H1300 H 0.72307 0.13565 0.96221 0.0
H1301 H 0.70954 0.15974 0.93483 0.0
H1302 H 0.69464 0.20609 0.98343 0.0
H1303 H 0.70767 0.18209 0.0109 0.0
H1304 H 0.6627 0.20106 0.95276 0.0
H1305 H 0.74266 0.21302 0.9158 0.0
H1306 H 0.73278 0.18603 0.91735 0.0
H1307 H 0.73932 0.2004 0.9414 0.0
C1308 C 0.7168 0.15093 0.9671 0.0
C1309 C 0.71662 0.15702 0.98876 0.0
C1310 C 0.70916 0.16468 0.95141 0.0
C1311 C 0.70141 0.18478 0.95712 0.0
C1312 C 0.7006 0.19062 0.97873 0.0
H1313 H 0.69443 0.3076 0.90975 0.0
H1314 H 0.70379 0.27228 0.92242 0.0
C1315 C 0.7081 0.17689 -0.00559 0.0
C1316 C 0.6948 0.20031 0.94079 0.0
H1317 H 0.71477 0.23406 0.90302 0.0
C1318 C 0.67393 0.20808 0.9416 0.0
C1319 C 0.7096 0.20936 0.92632 0.0
C1320 C 0.7324 0.20194 0.92515 0.0
C1321 C 0.66776 0.22552 0.92922 0.0
C1322 C 0.68281 0.23511 0.91535 0.0
C1323 C 0.70331 0.22656 0.91362 0.0
C1324 C 0.67859 0.25579 0.90502 0.0
C1325 C 0.64568 0.23441 0.93217 0.0
C1326 C 0.66176 0.25811 0.89043 0.0
C1327 C 0.65619 0.27838 0.88328 0.0
C1328 C 0.66752 0.29661 0.89047 0.0
C1329 C 0.68525 0.29398 0.90399 0.0
C1330 C 0.69068 0.27377 0.91121 0.0
H1331 H 0.63736 0.2273 0.94611 0.0
H1332 H 0.64645 0.25199 0.9344 0.0
H1333 H 0.63593 0.23095 0.91772 0.0
H1334 H 0.65253 0.24434 0.88514 0.0
H1335 H 0.64263 0.27981 0.87264 0.0
H1336 H 0.10775 0.4989 0.16007 0.0
H1337 H 0.07469 0.48205 0.14695 0.0
H1338 H 0.07564 0.43824 0.19979 0.0
H1339 H 0.10839 0.45512 0.2132 0.0
H1340 H 0.06157 0.43798 0.13715 0.0
H1341 H 0.01996 0.4736 0.20654 0.0
H1342 H 0.04622 0.48223 0.19824 0.0
H1343 H 0.04292 0.45817 0.21344 0.0
C1344 C 0.10111 0.48544 0.16868 0.0
C1345 C 0.11036 0.47859 0.1879 0.0
C1346 C 0.08228 0.47584 0.16115 0.0
C1347 C 0.07262 0.45926 0.17269 0.0
C1348 C 0.08275 0.4513 0.19091 0.0
H1349 H 0.96555 0.37612 0.1454 0.0
H1350 H 0.00086 0.39225 0.15056 0.0
C1351 C 0.10145 0.46093 0.19851 0.0
C1352 C 0.05109 0.45145 0.16691 0.0
H1353 H 0.00029 0.44824 0.18592 0.0
C1354 C 0.04809 0.44027 0.14769 0.0
C1355 C 0.03356 0.45497 0.18054 0.0
C1356 C 0.03569 0.46807 0.20075 0.0
C1357 C 0.02799 0.43182 0.14207 0.0
C1358 C 0.0107 0.43434 0.15629 0.0
C1359 C 0.01363 0.44614 0.17516 0.0
C1360 C 0.98944 0.42466 0.15219 0.0
C1361 C 0.02542 0.42046 0.12092 0.0
C1362 C 0.97126 0.43749 0.15201 0.0
C1363 C 0.95102 0.42831 0.14944 0.0
C1364 C 0.94858 0.4061 0.14697 0.0
C1365 C 0.96686 0.39329 0.14712 0.0
C1366 C 0.98709 0.40249 0.14987 0.0
H1367 H 0.03793 0.42553 0.10942 0.0
H1368 H 0.02697 0.40302 0.1234 0.0
H1369 H 0.00951 0.42345 0.11375 0.0
H1370 H 0.97276 0.45464 0.15394 0.0
H1371 H 0.9373 0.43865 0.1493 0.0
H1372 H 0.78252 0.83198 0.44808 0.0
H1373 H 0.79351 0.80123 0.4268 0.0
H1374 H 0.82145 0.77304 0.48288 0.0
H1375 H 0.81111 0.804 0.50409 0.0
H1376 H 0.84747 0.77073 0.44872 0.0
H1377 H 0.7658 0.74258 0.42679 0.0
H1378 H 0.77177 0.76957 0.41917 0.0
H1379 H 0.77065 0.7627 0.44697 0.0
C1380 C 0.79099 0.8192 0.45585 0.0
C1381 C 0.79591 0.82029 0.47773 0.0
C1382 C 0.79713 0.80161 0.44371 0.0
C1383 C 0.80795 0.78473 0.45337 0.0
C1384 C 0.81305 0.78591 0.47517 0.0
H1385 H 0.82423 0.65496 0.41693 0.0
H1386 H 0.81246 0.68948 0.43025 0.0
C1387 C 0.80713 0.80358 0.48725 0.0
C1388 C 0.81429 0.76585 0.44084 0.0
H1389 H 0.79459 0.72387 0.4117 0.0
C1390 C 0.83595 0.76049 0.44055 0.0
C1391 C 0.79913 0.75254 0.43034 0.0
C1392 C 0.77552 0.75698 0.43094 0.0
C1393 C 0.84287 0.74186 0.43046 0.0
C1394 C 0.82774 0.7286 0.41983 0.0
C1395 C 0.80613 0.7342 0.41972 0.0
C1396 C 0.83379 0.70798 0.41026 0.0
C1397 C 0.86615 0.73612 0.43212 0.0
C1398 C 0.84927 0.707 0.39421 0.0
C1399 C 0.85628 0.68728 0.38678 0.0
C1400 C 0.84758 0.66825 0.39502 0.0
C1401 C 0.83128 0.66933 0.4103 0.0
C1402 C 0.82451 0.68904 0.41791 0.0
H1403 H 0.87444 0.74516 0.44508 0.0
H1404 H 0.86802 0.7188 0.43514 0.0
H1405 H 0.87422 0.74003 0.41688 0.0
H1406 H 0.85621 0.72148 0.3877 0.0
H1407 H 0.86863 0.68694 0.37475 0.0
H1408 H 0.88068 -0.00168 0.15803 0.0
H1409 H 0.90983 0.01946 0.14283 0.0
H1410 H 0.94036 0.02314 0.20453 0.0
H1411 H 0.91128 0.00208 0.22003 0.0
H1412 H 0.93772 0.06306 0.18084 0.0
H1413 H 0.97127 -0.00426 0.13397 0.0
H1414 H 0.94322 0.00057 0.13062 0.0
H1415 H 0.95311 0.99162 0.15591 0.0
C1416 C 0.89354 0.00364 0.16843 0.0
C1417 C 0.89369 -0.00162 0.19026 0.0
C1418 C 0.91019 0.01566 0.15967 0.0
C1419 C 0.92724 0.02259 0.17255 0.0
C1420 C 0.92728 0.01782 0.19438 0.0
H1421 H 0.0539 0.06583 0.15041 0.0
H1422 H 0.02075 0.04717 0.15918 0.0
C1423 C 0.91068 0.00576 0.20317 0.0
C1424 C 0.94528 0.03459 0.16326 0.0
H1425 H 0.98834 0.02928 0.13064 0.0
C1426 C 0.94872 0.0558 0.16973 0.0
C1427 C 0.95956 0.02487 0.1489 0.0
C1428 C 0.9568 0.0019 0.14199 0.0
C1429 C 0.96637 0.06755 0.16239 0.0
C1430 C 0.98072 0.0578 0.14813 0.0
C1431 C 0.97711 0.03668 0.14143 0.0
C1432 C 0.00059 0.06863 0.14152 0.0
C1433 C 0.97001 0.09002 0.1705 0.0
C1434 C 0.00014 0.08662 0.12833 0.0
C1435 C 0.0191 0.09739 0.12324 0.0
C1436 C 0.03873 0.0903 0.13134 0.0
C1437 C 0.03906 0.07186 0.14405 0.0
C1438 C 0.02016 0.06111 0.14903 0.0
H1439 H 0.95922 0.09401 0.18392 0.0
H1440 H 0.98679 0.09226 0.17592 0.0
H1441 H 0.96711 0.10144 0.15736 0.0
H1442 H 0.98512 0.09246 0.12221 0.0
H1443 H 0.0183 0.11149 0.11335 0.0
H1444 H 0.29594 0.65328 0.52372 0.0
H1445 H 0.31594 0.67896 0.54566 0.0
H1446 H 0.28359 0.65594 0.6019 0.0
H1447 H 0.26289 0.6309 0.57984 0.0
H1448 H 0.28047 0.69666 0.60001 0.0
H1449 H 0.36487 0.67805 0.58619 0.0
H1450 H 0.35169 0.68088 0.56098 0.0
H1451 H 0.34359 0.65974 0.57878 0.0
C1452 C 0.29346 0.65341 0.54081 0.0
C1453 C 0.27783 0.64028 0.55011 0.0
C1454 C 0.30504 0.66794 0.55339 0.0
C1455 C 0.30152 0.66915 0.57551 0.0
C1456 C 0.28663 0.65523 0.58491 0.0
H1457 H 0.37622 0.77459 0.63158 0.0
H1458 H 0.36076 0.73862 0.62945 0.0
C1459 C 0.2748 0.64098 0.57229 0.0
C1460 C 0.31114 0.68684 0.58813 0.0
H1461 H 0.35731 0.71553 0.59428 0.0
C1462 C 0.29739 0.70047 0.59921 0.0
C1463 C 0.33325 0.69162 0.58766 0.0
C1464 C 0.34918 0.6766 0.57796 0.0
C1465 C 0.30486 0.71966 0.60819 0.0
C1466 C 0.32648 0.72564 0.60539 0.0
C1467 C 0.34061 0.71115 0.59603 0.0
C1468 C 0.33416 0.74768 0.60947 0.0
C1469 C 0.28935 0.7336 0.61998 0.0
C1470 C 0.32417 0.76472 0.59917 0.0
C1471 C 0.33283 0.78526 0.60045 0.0
C1472 C 0.35192 0.78912 0.61175 0.0
C1473 C 0.36155 0.77215 0.62266 0.0
C1474 C 0.35274 0.75159 0.62149 0.0
H1475 H 0.27691 0.72376 0.62802 0.0
H1476 H 0.29754 0.74377 0.63213 0.0
H1477 H 0.28111 0.74406 0.60841 0.0
H1478 H 0.31017 0.762 0.58928 0.0
H1479 H 0.32505 0.7979 0.59176 0.0
H1480 H 0.09715 0.53567 0.26012 0.0
H1481 H 0.06616 0.54139 0.28282 0.0
H1482 H 0.02504 0.53974 0.22747 0.0
H1483 H 0.05593 0.5342 0.20453 0.0
H1484 H 0.01877 0.57476 0.25433 0.0
H1485 H 0.01858 0.49887 0.29972 0.0
H1486 H 0.04376 0.51291 0.29968 0.0
H1487 H 0.0331 0.50232 0.27511 0.0
C1488 C 0.08153 0.53643 0.25274 0.0
C1489 C 0.07905 0.53458 0.23047 0.0
C1490 C 0.06382 0.53953 0.26578 0.0
C1491 C 0.04334 0.54068 0.25682 0.0
C1492 C 0.04076 0.53878 0.23466 0.0
H1493 H 0.92004 0.54581 0.31828 0.0
H1494 H 0.95193 0.53448 0.29921 0.0
C1495 C 0.05844 0.53569 0.22159 0.0
C1496 C 0.02472 0.54515 0.27044 0.0
H1497 H -0.00454 0.52605 0.31221 0.0
C1498 C 0.01361 0.56409 0.26694 0.0
C1499 C 0.01799 0.53106 0.28671 0.0
C1500 C 0.02883 0.51004 0.29047 0.0
C1501 C -0.00392 0.56953 0.27953 0.0
C1502 C 0.98976 0.5558 0.29626 0.0
C1503 C 0.0006 0.53664 0.29954 0.0
C1504 C 0.97156 0.56102 0.31012 0.0
C1505 C 0.98429 0.5898 0.27464 0.0
C1506 C 0.9724 0.5792 0.3232 0.0
C1507 C 0.95424 0.58577 0.33408 0.0
C1508 C 0.93492 0.5742 0.33211 0.0
C1509 C 0.93459 0.55517 0.32007 0.0
C1510 C 0.95279 0.54865 0.30916 0.0
H1511 H 0.98805 0.5959 0.25845 0.0
H1512 H 0.96676 0.58721 0.27581 0.0
H1513 H 0.989 0.60228 0.28642 0.0
H1514 H 0.98691 0.58872 0.32439 0.0
H1515 H 0.95517 0.60036 0.34339 0.0
H1516 H 0.42251 0.46533 0.7901 0.0
H1517 H 0.45727 0.45917 0.80664 0.0
H1518 H 0.48282 0.44123 0.74536 0.0
H1519 H 0.44789 0.44653 0.72893 0.0
H1520 H 0.48924 0.41141 0.77374 0.0
H1521 H 0.51433 0.48894 0.80899 0.0
H1522 H 0.48812 0.4809 0.81738 0.0
H1523 H 0.49297 0.48659 0.78967 0.0
C1524 C 0.43568 0.4605 0.78011 0.0
C1525 C 0.43254 0.45617 0.75831 0.0
C1526 C 0.45558 0.45716 0.78954 0.0
C1527 C 0.47269 0.44993 0.77719 0.0
C1528 C 0.46982 0.44681 0.75517 0.0
H1529 H 0.60169 0.42535 0.81997 0.0
H1530 H 0.56962 0.44134 0.80508 0.0
C1531 C 0.44987 0.4498 0.74582 0.0
C1532 C 0.4926 0.44285 0.78754 0.0
H1533 H 0.53247 0.45796 0.8219 0.0
C1534 C 0.4988 0.42168 0.7841 0.0
C1535 C 0.50509 0.45629 0.80096 0.0
C1536 C 0.49991 0.4795 0.80431 0.0
C1537 C 0.51698 0.41346 0.79389 0.0
C1538 C 0.5289 0.42656 0.80811 0.0
C1539 C 0.52302 0.44787 0.81128 0.0
C1540 C 0.54789 0.41841 0.81925 0.0
C1541 C 0.52342 0.39091 0.78862 0.0
C1542 C 0.54615 0.40067 0.83273 0.0
C1543 C 0.56444 0.39131 0.84106 0.0
C1544 C 0.58474 0.39977 0.83631 0.0
C1545 C 0.5863 0.41836 0.82386 0.0
C1546 C 0.56801 0.42757 0.81536 0.0
H1547 H 0.51619 0.38526 0.77335 0.0
H1548 H 0.54104 0.38963 0.78741 0.0
H1549 H 0.51784 0.38007 0.80144 0.0
H1550 H 0.53067 0.3937 0.83629 0.0
H1551 H 0.56268 0.37721 0.85086 0.0
H1552 H 0.95835 0.73084 0.67178 0.0
H1553 H 0.93724 0.75176 0.69689 0.0
H1554 H 0.96059 0.80997 0.6683 0.0
H1555 H 0.98195 0.78921 0.64331 0.0
H1556 H 0.96273 0.81012 0.71246 0.0
H1557 H 0.88232 0.78449 0.6846 0.0
H1558 H 0.89955 0.76262 0.69056 0.0
H1559 H 0.90612 0.78037 0.66903 0.0
C1560 C 0.95901 0.74809 0.67085 0.0
C1561 C 0.97177 0.75839 0.65556 0.0
C1562 C 0.94678 0.76001 0.68506 0.0
C1563 C 0.94701 0.78238 0.68411 0.0
C1564 C 0.96003 0.7927 0.66911 0.0
H1565 H 0.89379 0.87201 0.77733 0.0
H1566 H 0.90657 0.85869 0.74295 0.0
C1567 C 0.97226 0.78081 0.65491 0.0
C1568 C 0.93448 0.795 0.69949 0.0
H1569 H 0.88414 0.80183 0.71874 0.0
C1570 C 0.94551 0.80861 0.71365 0.0
C1571 C 0.91202 0.79303 0.70085 0.0
C1572 C 0.89926 0.7795 0.68531 0.0
C1573 C 0.93481 0.81941 0.72997 0.0
C1574 C 0.91242 0.81681 0.73186 0.0
C1575 C 0.90129 0.80383 0.71718 0.0
C1576 C 0.90083 0.82544 0.75042 0.0
C1577 C 0.94772 0.83259 0.74575 0.0
C1578 C 0.8921 0.81123 0.76532 0.0
C1579 C 0.88465 0.81875 0.78484 0.0
C1580 C 0.88581 0.84065 0.78982 0.0
C1581 C 0.89282 0.85504 0.77408 0.0
C1582 C 0.90027 0.84746 0.75449 0.0
H1583 H 0.96513 0.82979 0.74427 0.0
H1584 H 0.94488 0.84978 0.74288 0.0
H1585 H 0.94283 0.82893 0.76236 0.0
H1586 H 0.89224 0.79418 0.76238 0.0
H1587 H 0.87908 0.80724 0.79647 0.0
H1588 H 0.97874 0.20659 0.39408 0.0
H1589 H 0.96215 0.18091 0.41833 0.0
H1590 H 0.005 0.20145 0.46863 0.0
H1591 H 0.02216 0.22674 0.44423 0.0
H1592 H -0.0049 0.15732 0.46975 0.0
H1593 H 0.92235 0.20691 0.46229 0.0
H1594 H 0.93191 0.19569 0.43779 0.0
H1595 H 0.94781 0.21534 0.4518 0.0
C1596 C 0.98489 0.20535 0.4102 0.0
C1597 C 0.00147 0.21892 0.41742 0.0
C1598 C 0.97539 0.19069 0.42401 0.0
C1599 C 0.98201 0.1897 0.44537 0.0
C1600 C -0.00039 0.20207 0.4522 0.0
H1601 H 0.9408 0.16051 0.56813 0.0
H1602 H 0.96099 0.16462 0.53533 0.0
C1603 C 0.00937 0.21653 0.43827 0.0
C1604 C 0.96913 0.17782 0.46118 0.0
H1605 H 0.92093 0.17853 0.48623 0.0
C1606 C 0.97879 0.16174 0.47321 0.0
C1607 C 0.94783 0.18363 0.46561 0.0
C1608 C 0.93686 0.20143 0.45385 0.0
C1609 C 0.96787 0.15172 0.49001 0.0
C1610 C 0.94692 0.15819 0.49496 0.0
C1611 C 0.93694 0.1735 0.48227 0.0
C1612 C 0.93606 0.15173 0.51484 0.0
C1613 C 0.97898 0.13463 0.50257 0.0
C1614 C 0.91528 0.14307 0.51424 0.0
C1615 C 0.90352 0.14089 0.53304 0.0
C1616 C 0.91229 0.14763 0.55267 0.0
C1617 C 0.93347 0.15536 0.55327 0.0
C1618 C 0.94519 0.15744 0.53454 0.0
H1619 H 0.99111 0.12644 0.4927 0.0
H1620 H 0.98737 0.14209 0.51639 0.0
H1621 H 0.96743 0.12256 0.50867 0.0
H1622 H 0.90789 0.1388 0.49913 0.0
H1623 H 0.88728 0.13481 0.53205 0.0
H1624 H 0.55465 0.24716 0.17087 0.0
H1625 H 0.57596 0.24106 0.20292 0.0
H1626 H 0.59989 0.18297 0.17526 0.0
H1627 H 0.57937 0.18923 0.14308 0.0
H1628 H 0.56517 0.20762 0.22565 0.0
H1629 H 0.65115 0.2017 0.20878 0.0
H1630 H 0.63287 0.2144 0.19059 0.0
H1631 H 0.6361 0.18585 0.19006 0.0
C1632 C 0.56503 0.23348 0.1713 0.0
C1633 C 0.5649 0.21841 0.1546 0.0
C1634 C 0.57727 0.23007 0.18962 0.0
C1635 C 0.58953 0.21156 0.19151 0.0
C1636 C 0.59092 0.19757 0.17407 0.0
H1637 H 0.61676 0.11928 0.28591 0.0
H1638 H 0.61393 0.14086 0.25348 0.0
C1639 C 0.57888 0.20106 0.15571 0.0
C1640 C 0.59682 0.20439 0.21275 0.0
H1641 H 0.63796 0.18011 0.23855 0.0
C1642 C 0.58126 0.20214 0.22865 0.0
C1643 C 0.61773 0.19702 0.21658 0.0
C1644 C 0.63543 0.20009 0.20061 0.0
C1645 C 0.58564 0.19161 0.24776 0.0
C1646 C 0.60623 0.18334 0.25114 0.0
C1647 C 0.62212 0.18633 0.23571 0.0
C1648 C 0.61101 0.17084 0.2704 0.0
C1649 C 0.56788 0.18848 0.26372 0.0
C1650 C 0.61076 0.18072 0.29045 0.0
C1651 C 0.61208 0.1685 0.30889 0.0
C1652 C 0.61386 0.14615 0.30761 0.0
C1653 C 0.61522 0.13641 0.28742 0.0
C1654 C 0.61375 0.1487 0.26892 0.0
H1655 H 0.55201 0.19237 0.25692 0.0
H1656 H 0.5674 0.17174 0.26947 0.0
H1657 H 0.57081 0.19905 0.27771 0.0
H1658 H 0.60885 0.19783 0.29183 0.0
H1659 H 0.6114 0.17661 0.32417 0.0
H1660 H 0.47151 0.77972 0.93574 0.0
H1661 H 0.4742 0.79775 0.97041 0.0
H1662 H 0.53992 0.77861 0.97578 0.0
H1663 H 0.53761 0.76158 0.94065 0.0
H1664 H 0.48267 0.78735 0.01012 0.0
H1665 H 0.54633 0.84172 0.98184 0.0
H1666 H 0.53175 0.82419 0.96398 0.0
H1667 H 0.55437 0.81456 0.97882 0.0
C1668 C 0.48647 0.77925 0.94443 0.0
C1669 C 0.50448 0.76961 0.93547 0.0
C1670 C 0.48798 0.78955 0.9642 0.0
C1671 C 0.50745 0.79009 0.97535 0.0
C1672 C 0.52498 0.77908 0.96706 0.0
H1673 H 0.53941 0.81185 0.10427 0.0
H1674 H 0.52088 0.80031 0.0719 0.0
C1675 C 0.52362 0.76921 0.94711 0.0
C1676 C 0.50976 0.80268 -0.00472 0.0
H1677 H 0.54292 0.83855 0.01986 0.0
C1678 C 0.49564 0.7988 0.01221 0.0
C1679 C 0.52611 0.81827 -0.00226 0.0
C1680 C 0.5403 0.82511 0.97952 0.0
C1681 C 0.49834 0.80911 0.032 0.0
C1682 C 0.51611 0.82298 0.03512 0.0
C1683 C 0.52939 0.82777 0.01773 0.0
C1684 C 0.52271 0.83118 0.05644 0.0
C1685 C 0.48209 0.80498 0.04924 0.0
C1686 C 0.52985 0.85243 0.0588 0.0
C1687 C 0.54127 0.85876 0.07696 0.0
C1688 C 0.54509 0.84413 0.09334 0.0
C1689 C 0.53632 0.82348 0.09193 0.0
C1690 C 0.52554 0.81693 0.07345 0.0
H1691 H 0.46596 0.80233 0.04221 0.0
H1692 H 0.48635 0.79024 0.05793 0.0
H1693 H 0.48133 0.81842 0.06079 0.0
H1694 H 0.52783 0.86376 0.04596 0.0
H1695 H 0.54796 0.87477 0.07779 0.0
H1696 H 0.93717 0.26405 0.83816 0.0
H1697 H 0.91367 0.26466 0.80682 0.0
H1698 H 0.90088 0.19729 0.81424 0.0
H1699 H 0.92411 0.1966 0.84544 0.0
H1700 H 0.92502 0.24095 0.77248 0.0
H1701 H 0.84297 0.21841 0.795 0.0
H1702 H 0.86205 0.22928 0.81399 0.0
H1703 H 0.86174 0.20119 0.80767 0.0
C1704 C 0.92883 0.24953 0.83344 0.0
C1705 C 0.93263 0.2302 0.84401 0.0
C1706 C 0.91535 0.24994 0.81563 0.0
C1707 C 0.9053 0.2311 0.8084 0.0
C1708 C 0.90802 0.21213 0.81985 0.0
H1709 H 0.87871 0.1517 0.70971 0.0
H1710 H 0.87939 0.17322 0.74224 0.0
C1711 C 0.92154 0.21169 0.83752 0.0
C1712 C 0.8958 0.22988 0.78683 0.0
H1713 H 0.85481 0.2056 0.75985 0.0
C1714 C 0.90936 0.23393 0.76954 0.0
C1715 C 0.87536 0.2208 0.78314 0.0
C1716 C 0.85964 0.2174 0.80098 0.0
C1717 C 0.90409 0.22682 0.74896 0.0
C1718 C 0.88444 0.21589 0.74561 0.0
C1719 C 0.86995 0.2138 0.76252 0.0
C1720 C 0.8804 0.20355 0.72583 0.0
C1721 C 0.92049 0.22929 0.7315 0.0
C1722 C 0.88005 0.21351 0.70586 0.0
C1723 C 0.88011 0.20123 0.68722 0.0
C1724 C 0.88009 0.1788 0.68831 0.0
C1725 C 0.87889 0.16893 0.70834 0.0
C1726 C 0.87914 0.18121 0.72694 0.0
H1727 H 0.93614 0.23518 0.73769 0.0
H1728 H 0.923 0.21383 0.72322 0.0
H1729 H 0.91473 0.24092 0.71957 0.0
H1730 H 0.88054 0.23075 0.70469 0.0
H1731 H 0.88058 0.2093 0.67197 0.0
H1732 H 0.52622 0.15186 0.61053 0.0
H1733 H 0.53296 0.12768 0.5805 0.0
H1734 H 0.52425 0.17991 0.53672 0.0
H1735 H 0.51573 0.20344 0.5665 0.0
H1736 H 0.51315 0.14496 0.51795 0.0
H1737 H 0.59135 0.13125 0.5578 0.0
H1738 H 0.56863 0.12102 0.57189 0.0
H1739 H 0.57213 0.1494 0.56853 0.0
C1740 C 0.52503 0.15786 0.59438 0.0
C1741 C 0.52073 0.17945 0.59067 0.0
C1742 C 0.52914 0.14415 0.57729 0.0
C1743 C 0.53008 0.1522 0.55643 0.0
C1744 C 0.52385 0.17334 0.55267 0.0
H1745 H 0.61967 0.14093 0.45977 0.0
H1746 H 0.59922 0.14374 0.49275 0.0
C1747 C 0.51896 0.18681 0.56968 0.0
C1748 C 0.53993 0.1399 0.53883 0.0
H1749 H 0.58731 0.11877 0.52306 0.0
C1750 C 0.5293 0.13902 0.51908 0.0
C1751 C 0.56106 0.13216 0.54036 0.0
C1752 C 0.57405 0.13362 0.5607 0.0
C1753 C 0.53972 0.13233 0.50049 0.0
C1754 C 0.56106 0.12519 0.50195 0.0
C1755 C 0.57102 0.12434 0.522 0.0
C1756 C 0.57433 0.1214 0.4828 0.0
C1757 C 0.52826 0.1346 0.47938 0.0
C1758 C 0.56759 0.10739 0.46652 0.0
C1759 C 0.57894 0.10632 0.44743 0.0
C1760 C 0.59766 0.11858 0.44472 0.0
C1761 C 0.60532 0.13129 0.46158 0.0
C1762 C 0.59362 0.13287 0.48039 0.0
H1763 H 0.51406 0.14496 0.4807 0.0
H1764 H 0.53903 0.14147 0.46711 0.0
H1765 H 0.52267 0.11866 0.47381 0.0
H1766 H 0.55324 0.09777 0.46829 0.0
H1767 H 0.57293 0.09618 0.43464 0.0
H1768 H 0.58089 0.72583 0.2973 0.0
H1769 H 0.60585 0.75316 0.28584 0.0
H1770 H 0.60968 0.77799 0.35016 0.0
H1771 H 0.58364 0.75106 0.36154 0.0
H1772 H 0.59716 0.80734 0.32695 0.0
H1773 H 0.66435 0.77529 0.28296 0.0
H1774 H 0.64171 0.76047 0.27335 0.0
H1775 H 0.64929 0.75872 0.30118 0.0
C1776 C 0.58764 0.73654 0.30922 0.0
C1777 C 0.57991 0.7366 0.3302 0.0
C1778 C 0.60224 0.75213 0.30268 0.0
C1779 C 0.60981 0.76777 0.31711 0.0
C1780 C 0.60404 0.7662 0.33868 0.0
H1781 H 0.63887 0.8635 0.22156 0.0
H1782 H 0.648 0.84719 0.25587 0.0
C1783 C 0.58909 0.75083 0.34516 0.0
C1784 C 0.61882 0.78802 0.30854 0.0
H1785 H 0.64434 0.80501 0.26375 0.0
C1786 C 0.60824 0.807 0.31371 0.0
C1787 C 0.63389 0.78826 0.29179 0.0
C1788 C 0.64808 0.76956 0.28727 0.0
C1789 C 0.60955 0.82481 0.30038 0.0
C1790 C 0.62123 0.82333 0.28123 0.0
C1791 C 0.63468 0.80586 0.27805 0.0
C1792 C 0.61574 0.83658 0.26258 0.0
C1793 C 0.59684 0.84432 0.30592 0.0
C1794 C 0.59458 0.83615 0.2551 0.0
C1795 C 0.58936 0.84526 0.2356 0.0
C1796 C 0.60521 0.85495 0.22306 0.0
C1797 C 0.62627 0.85627 0.23096 0.0
C1798 C 0.63153 0.84696 0.25052 0.0
H1799 H 0.59688 0.84704 0.32345 0.0
H1800 H 0.60326 0.85881 0.29793 0.0
H1801 H 0.57999 0.84178 0.30087 0.0
H1802 H 0.58221 0.82771 0.26381 0.0
H1803 H 0.57301 0.84399 0.22999 0.0
H1804 H 0.01929 0.76317 0.05328 0.0
H1805 H 0.0028 0.78104 0.02272 0.0
H1806 H 0.94034 0.76668 0.0479 0.0
H1807 H 0.95655 0.74886 0.07837 0.0
H1808 H 0.97095 0.76326 0.99265 0.0
H1809 H 0.94187 0.83286 0.03891 0.0
H1810 H 0.96275 0.81574 0.04855 0.0
H1811 H 0.93534 0.80715 0.04989 0.0
C1812 C 0.00205 0.76374 0.05223 0.0
C1813 C 0.9892 0.75472 0.06826 0.0
C1814 C 0.99269 0.77396 0.03482 0.0
C1815 C 0.97041 0.77544 0.03335 0.0
C1816 C 0.95758 0.76599 0.04901 0.0
H1817 H 0.87826 0.82742 0.94579 0.0
H1818 H 0.89717 0.81262 0.97653 0.0
C1819 C 0.96688 0.75571 0.06633 0.0
C1820 C 0.96042 0.78669 0.01533 0.0
H1821 H 0.92936 0.82933 0.00325 0.0
C1822 C 0.962 0.7778 -0.00514 0.0
C1823 C 0.94871 0.80557 0.01845 0.0
C1824 C 0.94715 0.81605 0.04009 0.0
C1825 C 0.95162 0.78702 0.97739 0.0
C1826 C 0.93979 0.80587 0.9805 0.0
C1827 C 0.93842 0.81487 0.00096 0.0
C1828 C 0.92857 0.81632 0.96267 0.0
C1829 C 0.95286 0.77612 0.95591 0.0
C1830 C 0.94006 0.82395 0.94509 0.0
C1831 C 0.92935 0.83228 0.92753 0.0
C1832 C 0.90693 0.83338 0.92731 0.0
C1833 C 0.89552 0.82676 0.94544 0.0
C1834 C 0.90628 0.81827 0.96298 0.0
H1835 H 0.95773 0.7592 0.95738 0.0
H1836 H 0.93727 0.7766 0.94745 0.0
H1837 H 0.96491 0.7845 0.94596 0.0
H1838 H 0.95731 0.82309 0.9448 0.0
H1839 H 0.93865 0.83753 0.91396 0.0
H1840 H 0.66259 -0.00411 0.79746 0.0
H1841 H 0.69074 0.97797 0.81752 0.0
H1842 H 0.72322 0.96377 0.75871 0.0
H1843 H 0.69527 0.98168 0.73855 0.0
H1844 H 0.70119 0.93433 0.81184 0.0
H1845 H 0.77087 0.98774 0.79778 0.0
H1846 H 0.74368 -0.00379 0.79391 0.0
H1847 H 0.75669 0.98055 0.7738 0.0
C1848 C 0.67595 0.98931 0.78883 0.0
C1849 C 0.67675 0.99017 0.76643 0.0
C1850 C 0.69194 0.97903 0.80031 0.0
C1851 C 0.70907 0.96971 0.78958 0.0
C1852 C 0.71027 0.97117 0.76729 0.0
H1853 H 0.81477 0.8893 0.80879 0.0
H1854 H 0.78408 0.90927 0.79623 0.0
C1855 C 0.69427 0.98135 0.7558 0.0
C1856 C 0.72494 0.95709 0.80138 0.0
H1857 H 0.77843 0.95247 0.80984 0.0
C1858 C 0.71806 0.9384 0.81172 0.0
C1859 C 0.74687 0.96256 0.8012 0.0
C1860 C 0.75499 0.98297 0.79126 0.0
C1861 C 0.73275 0.92442 0.82096 0.0
C1862 C 0.75475 0.92948 0.81996 0.0
C1863 C 0.76152 0.94858 0.81037 0.0
C1864 C 0.77127 0.9148 0.82773 0.0
C1865 C 0.72479 0.90396 0.83089 0.0
C1866 C 0.77379 0.91075 0.84959 0.0
C1867 C 0.79133 0.8992 0.85687 0.0
C1868 C 0.80666 0.89181 0.84236 0.0
C1869 C 0.80336 0.89494 0.82039 0.0
C1870 C 0.78585 0.90635 0.81318 0.0
H1871 H 0.70769 0.90076 0.82721 0.0
H1872 H 0.73432 0.89025 0.82522 0.0
H1873 H 0.72667 0.90502 0.84848 0.0
H1874 H 0.76279 0.91736 0.86108 0.0
H1875 H 0.7935 0.89716 0.87389 0.0
H1876 H 0.80367 0.9025 0.56589 0.0
H1877 H 0.82239 0.93386 0.58047 0.0
H1878 H 0.84944 0.94676 0.51863 0.0
H1879 H 0.83069 0.9155 0.50384 0.0
H1880 H 0.86873 0.94816 0.57904 0.0
H1881 H 0.81108 -0.00089 0.53533 0.0
H1882 H 0.80609 0.97111 0.54004 0.0
H1883 H 0.82467 0.97928 0.51986 0.0
C1884 C 0.8138 0.91186 0.55545 0.0
C1885 C 0.81551 0.90676 0.53367 0.0
C1886 C 0.82457 0.92966 0.56384 0.0
C1887 C 0.83713 0.94257 0.55055 0.0
C1888 C 0.8397 0.93695 0.52905 0.0
H1889 H 0.87786 0.07323 0.56838 0.0
H1890 H 0.87488 0.03682 0.55466 0.0
C1891 C 0.82895 0.91916 0.52064 0.0
C1892 C 0.84562 0.96308 0.55864 0.0
H1893 H 0.83747 0.01657 0.55568 0.0
C1894 C 0.86207 0.96319 0.5739 0.0
C1895 C 0.83674 0.98251 0.55188 0.0
C1896 C 0.81856 0.98315 0.53599 0.0
C1897 C 0.87002 0.98245 0.58252 0.0
C1898 C 0.86091 0.00189 0.57595 0.0
C1899 C 0.84456 0.00165 0.56056 0.0
C1900 C 0.86718 0.02279 0.58522 0.0
C1901 C 0.88818 0.98182 0.59837 0.0
C1902 C 0.86453 0.02686 0.6071 0.0
C1903 C 0.86648 0.04768 0.61504 0.0
C1904 C 0.87062 0.0647 0.60109 0.0
C1905 C 0.87436 0.06041 0.57943 0.0
C1906 C 0.87277 0.03963 0.57159 0.0
H1907 H 0.89757 0.967 0.5966 0.0
H1908 H 0.89906 -0.0042 0.59653 0.0
H1909 H 0.8816 0.9821 0.61478 0.0
H1910 H 0.85973 0.01419 0.61782 0.0
H1911 H 0.86346 0.05059 0.6318 0.0
H1912 H 0.82315 -0.00502 0.2766 0.0
H1913 H 0.80243 0.02071 0.297 0.0
H1914 H 0.7699 0.0396 0.23946 0.0
H1915 H 0.7901 0.01351 0.21899 0.0
H1916 H 0.79864 0.06443 0.29406 0.0
H1917 H 0.72094 0.02363 0.27838 0.0
H1918 H 0.74612 0.01144 0.27233 0.0
H1919 H 0.73499 0.03087 0.25455 0.0
C1920 C 0.81152 0.00454 0.26827 0.0
C1921 C 0.80807 0.00199 0.2462 0.0
C1922 C 0.79979 0.01931 0.27996 0.0
C1923 C 0.78446 0.03184 0.26979 0.0
C1924 C 0.78134 0.02974 0.24769 0.0
H1925 H 0.68742 0.11599 0.314 0.0
H1926 H 0.71743 0.10264 0.29338 0.0
C1927 C 0.7929 0.01482 0.23601 0.0
C1928 C 0.77127 0.04663 0.28245 0.0
H1929 H 0.71978 0.05706 0.29582 0.0
C1930 C 0.78139 0.06287 0.29448 0.0
C1931 C 0.7488 0.0444 0.28307 0.0
C1932 C 0.73706 0.02653 0.27157 0.0
C1933 C 0.76951 0.07714 0.30691 0.0
C1934 C 0.74708 0.07499 0.30726 0.0
C1935 C 0.73702 0.05879 0.29525 0.0
C1936 C 0.73335 0.08865 0.3205 0.0
C1937 C 0.78089 0.09448 0.31942 0.0
C1938 C 0.73307 0.08622 0.34276 0.0
C1939 C 0.71594 0.09397 0.35465 0.0
C1940 C 0.69885 0.10391 0.34427 0.0
C1941 C 0.70035 0.10823 0.32234 0.0
C1942 C 0.71747 0.10065 0.31055 0.0
H1943 H 0.79772 0.0966 0.31426 0.0
H1944 H 0.7725 0.10988 0.31767 0.0
H1945 H 0.78086 0.09026 0.3366 0.0
H1946 H 0.74505 0.07673 0.35067 0.0
H1947 H 0.71508 0.09031 0.3715 0.0
H1948 H 0.69156 0.0752 0.06696 0.0
H1949 H 0.66963 0.04308 0.07085 0.0
H1950 H 0.694 0.0185 0.0115 0.0
H1951 H 0.71641 0.05049 0.00756 0.0
H1952 H 0.63801 0.0241 0.04401 0.0
H1953 H 0.7088 0.97219 0.055 0.0
H1954 H 0.71088 0.0009 0.0561 0.0
H1955 H 0.70763 0.98753 0.03087 0.0
C1956 C 0.69228 0.06304 0.05466 0.0
C1957 C 0.70598 0.06534 0.03708 0.0
C1958 C 0.67963 0.04473 0.05687 0.0
C1959 C 0.68039 0.02837 0.04158 0.0
C1960 C 0.69346 0.03085 0.02363 0.0
H1961 H 0.63027 0.90112 0.07184 0.0
H1962 H 0.64212 0.9305 0.04903 0.0
C1963 C 0.70623 0.04915 0.02143 0.0
C1964 C 0.66834 0.00834 0.04535 0.0
H1965 H 0.67519 0.95677 0.06068 0.0
C1966 C 0.64607 0.00925 0.04732 0.0
C1967 C 0.67892 0.98898 0.04944 0.0
C1968 C 0.70288 0.98722 0.0479 0.0
C1969 C 0.63418 0.99155 0.05435 0.0
C1970 C 0.64494 0.97266 0.05984 0.0
C1971 C 0.66701 0.97131 0.05647 0.0
C1972 C 0.63439 0.95524 0.07179 0.0
C1973 C 0.6103 0.99341 0.0564 0.0
C1974 C 0.62589 0.95947 0.09202 0.0
C1975 C 0.6192 0.94279 0.10512 0.0
C1976 C 0.62104 0.92149 0.0983 0.0
C1977 C 0.62869 0.91733 0.07762 0.0
C1978 C 0.63542 0.93408 0.06453 0.0
H1979 H 0.60389 0.00513 0.04485 0.0
H1980 H 0.60213 0.97778 0.05377 0.0
H1981 H 0.60643 -0.00085 0.07269 0.0
H1982 H 0.62542 0.97565 0.09815 0.0
H1983 H 0.61332 0.94659 0.1209 0.0
H1984 H 0.63144 0.08196 0.68693 0.0
H1985 H 0.65966 0.10642 0.67519 0.0
H1986 H 0.7027 0.07977 0.72151 0.0
H1987 H 0.67454 0.05544 0.73361 0.0
H1988 H 0.70878 0.12557 0.71276 0.0
H1989 H 0.70517 0.07383 0.64015 0.0
H1990 H 0.68104 0.08708 0.64758 0.0
H1991 H 0.69165 0.06671 0.66449 0.0
C1992 C 0.64673 0.0817 0.69505 0.0
C1993 C 0.65093 0.06641 0.71085 0.0
C1994 C 0.6628 0.09571 0.68833 0.0
C1995 C 0.68331 0.09449 0.69717 0.0
C1996 C 0.68694 0.08084 0.71445 0.0
H1997 H 0.81358 0.11384 0.67599 0.0
H1998 H 0.77751 0.11158 0.68989 0.0
C1999 C 0.67082 0.06692 0.72132 0.0
C2000 C 0.7017 0.10455 0.68634 0.0
H2001 H 0.73323 0.09849 0.64258 0.0
C2002 C 0.714 0.11995 0.69726 0.0
C2003 C 0.70836 0.09718 0.66608 0.0
C2004 C 0.69601 0.0802 0.65387 0.0
C2005 C 0.73326 0.12769 0.68873 0.0
C2006 C 0.74052 0.11937 0.66905 0.0
C2007 C 0.72761 0.10485 0.65764 0.0
C2008 C 0.76243 0.12331 0.66118 0.0
C2009 C 0.74582 0.14437 0.70104 0.0
C2010 C 0.76596 0.13018 0.64018 0.0
C2011 C 0.78667 0.13114 0.63197 0.0
C2012 C 0.80417 0.12515 0.64463 0.0
C2013 C 0.80053 0.11863 0.66577 0.0
C2014 C 0.77989 0.11759 0.67389 0.0
H2015 H 0.7351 0.15449 0.71075 0.0
H2016 H 0.75693 0.13635 0.71216 0.0
H2017 H 0.75529 0.15479 0.69025 0.0
H2018 H 0.75265 0.1344 0.63002 0.0
H2019 H 0.7889 0.13634 0.61566 0.0
H2020 H 0.7291 0.94305 0.52574 0.0
H2021 H 0.70757 0.96659 0.50355 0.0
H2022 H 0.72201 0.92857 0.44807 0.0
H2023 H 0.7433 0.90483 0.47001 0.0
H2024 H 0.7218 0.99009 0.46855 0.0
H2025 H 0.65682 0.9335 0.44493 0.0
H2026 H 0.67475 0.92847 0.46693 0.0
H2027 H 0.68333 0.92416 0.43995 0.0
C2028 C 0.72765 0.93963 0.50884 0.0
C2029 C 0.73791 0.922 0.49969 0.0
C2030 C 0.7153 0.95306 0.49621 0.0
C2031 C 0.71291 0.94905 0.47427 0.0
C2032 C 0.72324 0.93162 0.46506 0.0
H2033 H 0.66264 0.02927 0.3732 0.0
H2034 H 0.67716 -0.00153 0.39234 0.0
C2035 C 0.73557 0.91818 0.47764 0.0
C2036 C 0.70063 0.96383 0.46081 0.0
H2037 H 0.65743 0.96718 0.42755 0.0
C2038 C 0.7077 0.98509 0.45964 0.0
C2039 C 0.68233 0.95716 0.44912 0.0
C2040 C 0.6737 0.93462 0.45037 0.0
C2041 C 0.69699 -8e-05 0.44703 0.0
C2042 C 0.67861 0.99332 0.4355 0.0
C2043 C 0.67159 0.97204 0.43642 0.0
C2044 C 0.66615 0.0089 0.4233 0.0
C2045 C 0.70534 0.0226 0.44611 0.0
C2046 C 0.65443 0.02423 0.43435 0.0
C2047 C 0.64632 0.04174 0.42359 0.0
C2048 C 0.64969 0.04411 0.40156 0.0
C2049 C 0.6598 0.02776 0.39017 0.0
C2050 C 0.6681 0.01024 0.40105 0.0
H2051 H 0.72178 0.02414 0.4527 0.0
H2052 H 0.70534 0.02847 0.42942 0.0
H2053 H 0.69476 0.03305 0.45558 0.0
H2054 H 0.65269 0.0233 0.45152 0.0
H2055 H 0.63835 0.054 0.4327 0.0
H2056 H 0.81977 0.92698 0.18949 0.0
H2057 H 0.79096 0.90266 0.17913 0.0
H2058 H 0.78875 0.87769 0.24315 0.0
H2059 H 0.81744 0.90263 0.25388 0.0
H2060 H 0.78675 0.85851 0.17995 0.0
H2061 H 0.72807 0.89794 0.23349 0.0
H2062 H 0.75396 0.9096 0.22825 0.0
H2063 H 0.75149 0.88714 0.24579 0.0
C2064 C 0.8132 0.91633 0.20141 0.0
C2065 C 0.82064 0.91688 0.22257 0.0
C2066 C 0.79684 0.90232 0.19541 0.0
C2067 C 0.78764 0.8885 0.2104 0.0
C2068 C 0.79546 0.88847 0.23143 0.0
H2069 H 0.66149 0.83781 0.17982 0.0
H2070 H 0.69687 0.8357 0.19649 0.0
C2071 C 0.8118 0.90269 0.23752 0.0
C2072 C 0.76893 0.87541 0.20389 0.0
H2073 H 0.71478 0.87374 0.20834 0.0
C2074 C 0.77102 0.86144 0.18644 0.0
C2075 C 0.74849 0.87917 0.2125 0.0
C2076 C 0.7452 0.89435 0.23095 0.0
C2077 C 0.75303 0.85232 0.17642 0.0
C2078 C 0.73255 0.85742 0.18402 0.0
C2079 C 0.73057 0.86989 0.20255 0.0
C2080 C 0.71299 0.85312 0.17141 0.0
C2081 C 0.75605 0.83803 0.15728 0.0
C2082 C 0.71053 0.86297 0.15145 0.0
C2083 C 0.69038 0.86416 0.14196 0.0
C2084 C 0.67259 0.85546 0.15233 0.0
C2085 C 0.67522 0.8443 0.17148 0.0
C2086 C 0.69534 0.84311 0.18098 0.0
H2087 H 0.77164 0.82982 0.15803 0.0
H2088 H 0.74306 0.82586 0.15601 0.0
H2089 H 0.75589 0.84787 0.1426 0.0
H2090 H 0.72382 0.87129 0.14408 0.0
H2091 H 0.68847 0.87319 0.12739 0.0
H2092 H 0.81706 0.06982 0.00952 0.0
H2093 H 0.84139 0.04548 0.99143 0.0
H2094 H 0.79129 0.02822 0.94682 0.0
H2095 H 0.76753 0.05363 0.96395 0.0
H2096 H 0.84235 0.00592 0.98649 0.0
H2097 H 0.83713 0.03861 0.90554 0.0
H2098 H 0.82604 0.05234 0.92819 0.0
H2099 H 0.81064 0.03213 0.91409 0.0
C2100 C 0.81135 0.06085 -0.00422 0.0
C2101 C 0.79054 0.06361 0.98797 0.0
C2102 C 0.82526 0.04702 0.98541 0.0
C2103 C 0.81843 0.03546 0.96732 0.0
C2104 C 0.79729 0.03764 0.96011 0.0
H2105 H 0.8481 0.91294 0.92849 0.0
H2106 H 0.84176 0.94577 0.94779 0.0
C2107 C 0.78361 0.05192 0.97008 0.0
C2108 C 0.83285 0.02016 0.95668 0.0
H2109 H 0.84566 0.00066 0.90761 0.0
C2110 C 0.84346 0.00508 0.96924 0.0
C2111 C 0.83521 0.01946 0.93422 0.0
C2112 C 0.82685 0.03672 0.91983 0.0
C2113 C 0.85472 0.98831 0.95988 0.0
C2114 C 0.85441 0.98592 0.9374 0.0
C2115 C 0.84548 0.00206 0.92487 0.0
C2116 C 0.86068 0.96577 0.92676 0.0
C2117 C 0.86649 0.9732 0.97429 0.0
C2118 C 0.87294 0.96596 0.90801 0.0
C2119 C 0.87599 0.94711 0.89641 0.0
C2120 C 0.86707 0.92776 0.90357 0.0
C2121 C 0.85549 0.92752 0.92271 0.0
C2122 C 0.85204 0.94633 0.93395 0.0
H2123 H 0.87334 0.98189 0.98827 0.0
H2124 H 0.85513 0.96104 0.98053 0.0
H2125 H 0.87961 0.96502 0.96582 0.0
H2126 H 0.87964 0.98077 0.90203 0.0
H2127 H 0.88499 0.94773 0.88171 0.0
H2128 H 0.76917 0.67816 0.99393 0.0
H2129 H 0.78902 0.69959 0.96819 0.0
H2130 H 0.73012 0.7254 0.94438 0.0
H2131 H 0.71003 0.70423 0.97036 0.0
H2132 H 0.78588 0.69848 0.92371 0.0
H2133 H 0.76664 0.77859 0.95622 0.0
H2134 H 0.76201 0.75438 0.97106 0.0
H2135 H 0.74383 0.76195 0.95025 0.0
C2136 C 0.76039 0.68855 0.98339 0.0
C2137 C 0.73797 0.68954 0.98429 0.0
C2138 C 0.77179 0.7007 0.96861 0.0
C2139 C 0.76106 0.71413 0.95447 0.0
C2140 C 0.73872 0.71535 0.95539 0.0
H2141 H 0.80832 0.80691 0.86444 0.0
H2142 H 0.78594 0.7792 0.8805 0.0
C2143 C 0.72727 0.70325 0.97026 0.0
C2144 C 0.77335 0.72668 0.93868 0.0
H2145 H 0.78596 0.77759 0.92407 0.0
C2146 C 0.78588 0.71579 0.92371 0.0
C2147 C 0.77332 0.74922 0.93877 0.0
C2148 C 0.76089 0.76178 0.95503 0.0
C2149 C 0.79837 0.7269 0.90876 0.0
C2150 C 0.79844 0.74944 0.90899 0.0
C2151 C 0.78572 0.76028 0.92381 0.0
C2152 C 0.81227 0.76243 0.89487 0.0
C2153 C 0.81122 0.71448 0.89277 0.0
C2154 C 0.8346 0.76152 0.8967 0.0
C2155 C 0.84749 0.77725 0.8873 0.0
C2156 C 0.83812 0.79424 0.87629 0.0
C2157 C 0.81593 0.79403 0.87295 0.0
C2158 C 0.80312 0.77824 0.88213 0.0
H2159 H 0.80483 0.69798 0.89065 0.0
H2160 H 0.81143 0.72253 0.87703 0.0
H2161 H 0.82792 0.71337 0.89858 0.0
H2162 H 0.84198 0.74967 0.90675 0.0
H2163 H 0.86452 0.77717 0.89032 0.0
H2164 H 0.27247 0.85649 0.02513 0.0
H2165 H 0.30154 0.83288 0.03511 0.0
H2166 H 0.256 0.78225 0.04735 0.0
H2167 H 0.22672 0.80586 0.03766 0.0
H2168 H 0.288 0.78854 0.07962 0.0
H2169 H 0.32214 0.7827 -0.00216 0.0
H2170 H 0.31845 0.80913 0.00836 0.0
H2171 H 0.29561 0.79245 0.00268 0.0
C2172 C 0.26862 0.84033 0.02997 0.0
C2173 C 0.24734 0.83293 0.03054 0.0
C2174 C 0.28525 0.82689 0.03557 0.0
C2175 C 0.28085 0.80584 0.04167 0.0
C2176 C 0.25963 0.79849 0.04261 0.0
H2177 H 0.33148 0.68721 0.06466 0.0
H2178 H 0.31236 0.72 0.05818 0.0
C2179 C 0.24296 0.81195 0.03705 0.0
C2180 C 0.29831 0.79129 0.04699 0.0
H2181 H 0.3386 0.76269 0.02482 0.0
C2182 C 0.29927 0.7831 0.06774 0.0
C2183 C 0.31301 0.78441 0.03142 0.0
C2184 C 0.31228 0.79246 0.00877 0.0
C2185 C 0.31405 0.76746 0.07312 0.0
C2186 C 0.32802 0.75986 0.05729 0.0
C2187 C 0.32787 0.7688 0.03686 0.0
C2188 C 0.34032 0.74041 0.06074 0.0
C2189 C 0.31409 0.75846 0.0954 0.0
C2190 C 0.36247 0.74119 0.06386 0.0
C2191 C 0.3736 0.72237 0.06767 0.0
C2192 C 0.36265 0.70262 0.06814 0.0
C2193 C 0.34049 0.70207 0.0644 0.0
C2194 C 0.32946 0.72079 0.06078 0.0
H2195 H 0.30591 0.76914 0.10687 0.0
H2196 H 0.3056 0.74281 0.09531 0.0
H2197 H 0.33067 0.75583 0.10103 0.0
H2198 H 0.37101 0.75633 0.06371 0.0
H2199 H 0.39066 0.72332 0.07046 0.0
H2200 H 0.91732 0.53857 0.77347 0.0
H2201 H 0.94817 0.54697 0.79598 0.0
H2202 H 0.91501 0.60052 0.823 0.0
H2203 H 0.88417 0.5925 0.80033 0.0
H2204 H 0.95339 0.61152 0.80675 0.0
H2205 H 0.96249 0.54133 0.8589 0.0
H2206 H 0.95978 0.53378 0.83138 0.0
H2207 H 0.93803 0.54673 0.84467 0.0
C2208 C 0.91642 0.55193 0.78444 0.0
C2209 C 0.89836 0.565 0.78492 0.0
C2210 C 0.934 0.55657 0.79746 0.0
C2211 C 0.93372 0.57417 0.81137 0.0
C2212 C 0.91544 0.58677 0.81247 0.0
H2213 H 0.04888 0.63456 0.86662 0.0
H2214 H 0.01111 0.62528 0.86195 0.0
C2215 C 0.89789 0.58221 0.79939 0.0
C2216 C 0.9535 0.58104 0.82246 0.0
H2217 H -0.00563 0.56282 0.85319 0.0
C2218 C 0.96216 0.6011 0.81731 0.0
C2219 C 0.9648 0.56738 0.83623 0.0
C2220 C 0.95567 0.5462 0.8433 0.0
C2221 C 0.98253 0.60731 0.82436 0.0
C2222 C -0.00565 0.59316 0.83717 0.0
C2223 C 0.98524 0.57356 0.84329 0.0
C2224 C 0.01697 0.59749 0.84235 0.0
C2225 C 0.99175 0.62838 0.81695 0.0
C2226 C 0.03267 0.58446 0.83349 0.0
C2227 C 0.05422 0.58961 0.83618 0.0
C2228 C 0.06043 0.60795 0.84775 0.0
C2229 C 0.04463 0.62051 0.85734 0.0
C2230 C 0.02305 0.61524 0.85473 0.0
H2231 H 0.98198 0.63564 0.80412 0.0
H2232 H 0.99244 0.63972 0.83059 0.0
H2233 H 0.00825 0.62634 0.81093 0.0
H2234 H 0.02823 0.57067 0.82388 0.0
H2235 H 0.06595 0.57951 0.82869 0.0
H2236 H 0.26001 0.17602 0.57981 0.0
H2237 H 0.24725 0.20916 0.59602 0.0
H2238 H 0.1844 0.18104 0.60238 0.0
H2239 H 0.197 0.14803 0.58641 0.0
H2240 H 0.21519 0.231 0.57507 0.0
H2241 H 0.19103 0.21432 0.65825 0.0
H2242 H 0.20931 0.19761 0.64374 0.0
H2243 H 0.18098 0.19473 0.63966 0.0
C2244 C 0.24367 0.17671 0.58531 0.0
C2245 C 0.22942 0.15958 0.58171 0.0
C2246 C 0.23641 0.19562 0.59454 0.0
C2247 C 0.21494 0.19745 0.60055 0.0
C2248 C 0.20112 0.17982 0.59827 0.0
H2249 H 0.11981 0.29274 0.61823 0.0
H2250 H 0.14073 0.26005 0.61544 0.0
C2251 C 0.2083 0.16103 0.58895 0.0
C2252 C 0.20597 0.21852 0.60568 0.0
H2253 H 0.17459 0.24455 0.64146 0.0
C2254 C 0.20667 0.23416 0.58977 0.0
C2255 C 0.19467 0.22241 0.62474 0.0
C2256 C 0.1941 0.20644 0.64266 0.0
C2257 C 0.19552 0.25325 0.59195 0.0
C2258 C 0.18373 0.25693 0.61077 0.0
C2259 C 0.18355 0.24158 0.627 0.0
C2260 C 0.17123 0.27654 0.61363 0.0
C2261 C 0.19569 0.26888 0.57367 0.0
C2262 C 0.18153 0.29648 0.61387 0.0
C2263 C 0.16969 0.31509 0.6152 0.0
C2264 C 0.14727 0.31412 0.6166 0.0
C2265 C 0.13701 0.29404 0.61702 0.0
C2266 C 0.14893 0.27538 0.61553 0.0
H2267 H 0.20105 0.26136 0.55855 0.0
H2268 H 0.17958 0.27561 0.57106 0.0
H2269 H 0.20686 0.28225 0.57748 0.0
H2270 H 0.19877 0.29766 0.61286 0.0
H2271 H 0.1782 0.33024 0.61521 0.0
H2272 H 0.04072 0.01113 0.75659 0.0
H2273 H 0.01792 0.98721 0.77773 0.0
H2274 H 0.05441 0.93325 0.75677 0.0
H2275 H 0.07731 0.95687 0.73574 0.0
H2276 H 0.00536 0.93069 0.75525 0.0
H2277 H 0.0421 0.95414 0.83306 0.0
H2278 H 0.03492 0.97524 0.81508 0.0
H2279 H 0.05587 0.95737 0.80797 0.0
C2280 C 0.04375 0.99416 0.75631 0.0
C2281 C 0.0609 0.98591 0.74461 0.0
C2282 C 0.03082 0.98057 0.76847 0.0
C2283 C 0.03475 0.95858 0.76893 0.0
C2284 C 0.0513 0.95021 0.75668 0.0
H2285 H 0.95625 0.85717 0.82666 0.0
H2286 H 0.98675 0.8744 0.80901 0.0
C2287 C 0.06434 0.96376 0.74471 0.0
C2288 C 0.02172 0.94428 0.78239 0.0
H2289 H 0.01195 0.93112 0.8342 0.0
C2290 C 0.00683 0.93059 0.7725 0.0
C2291 C 0.02393 0.94425 0.80481 0.0
C2292 C 0.04014 0.95841 0.81598 0.0
C2293 C 0.99329 0.91742 0.7846 0.0
C2294 C -0.00476 0.91757 0.80714 0.0
C2295 C 0.01063 0.93088 0.81693 0.0
C2296 C 0.97977 0.90605 0.82085 0.0
C2297 C 0.97634 0.90432 0.77317 0.0
C2298 C 0.96683 0.91784 0.83461 0.0
C2299 C 0.94973 0.90804 0.84495 0.0
C2300 C 0.94515 0.88624 0.84166 0.0
C2301 C 0.95928 0.87402 0.82941 0.0
C2302 C 0.97655 0.88388 0.81911 0.0
H2303 H 0.97414 0.90949 0.75637 0.0
H2304 H 0.98108 0.88732 0.77295 0.0
H2305 H 0.96077 0.90545 0.78147 0.0
H2306 H 0.96916 0.93492 0.83638 0.0
H2307 H 0.93935 0.91787 0.85454 0.0
H2308 H 0.71532 0.33709 0.46889 0.0
H2309 H 0.7121 0.30539 0.44635 0.0
H2310 H 0.64626 0.32006 0.43334 0.0
H2311 H 0.64941 0.35209 0.45549 0.0
H2312 H 0.68504 0.27331 0.4567 0.0
H2313 H 0.66669 0.30106 0.37494 0.0
H2314 H 0.67776 0.31853 0.39528 0.0
H2315 H 0.64962 0.31243 0.39478 0.0
C2316 C 0.70024 0.33381 0.46094 0.0
C2317 C 0.68253 0.34699 0.46418 0.0
C2318 C 0.69848 0.31574 0.44798 0.0
C2319 C 0.67902 0.3105 0.43802 0.0
C2320 C 0.66157 0.32408 0.44047 0.0
H2321 H 0.61639 0.19805 0.39234 0.0
H2322 H 0.62772 0.23448 0.40106 0.0
C2323 C 0.66335 0.34228 0.45332 0.0
C2324 C 0.67613 0.2894 0.42776 0.0
H2325 H 0.65845 0.26424 0.38249 0.0
C2326 C 0.67959 0.27131 0.44035 0.0
C2327 C 0.66885 0.28691 0.4065 0.0
C2328 C 0.66571 0.30577 0.39202 0.0
C2329 C 0.67521 0.25078 0.43254 0.0
C2330 C 0.6675 0.24828 0.41145 0.0
C2331 C 0.66444 0.2663 0.39864 0.0
C2332 C 0.66128 0.22707 0.4031 0.0
C2333 C 0.678 0.23198 0.44725 0.0
C2334 C 0.67654 0.21108 0.40076 0.0
C2335 C 0.67013 0.19019 0.39598 0.0
C2336 C 0.64836 0.18502 0.39333 0.0
C2337 C 0.63326 0.20142 0.39447 0.0
C2338 C 0.6397 0.22227 0.39933 0.0
H2339 H 0.67999 0.23702 0.46417 0.0
H2340 H 0.66407 0.22089 0.4461 0.0
H2341 H 0.69244 0.22309 0.44252 0.0
H2342 H 0.69331 0.21463 0.40335 0.0
H2343 H 0.68221 0.17803 0.39492 0.0
H2344 H 0.92122 0.52752 0.69407 0.0
H2345 H 0.94748 0.50443 0.67695 0.0
H2346 H 0.91634 0.44904 0.70394 0.0
H2347 H 0.89068 0.47192 0.72159 0.0
H2348 H 0.95782 0.44789 0.71021 0.0
H2349 H 0.94251 0.4663 0.62524 0.0
H2350 H 0.94837 0.4898 0.64073 0.0
H2351 H 0.92466 0.47429 0.64627 0.0
C2352 C 0.91999 0.51042 0.69626 0.0
C2353 C 0.90399 0.50153 0.70921 0.0
C2354 C 0.93482 0.49723 0.6863 0.0
C2355 C 0.93358 0.47497 0.68883 0.0
C2356 C 0.91752 0.46614 0.70167 0.0
H2357 H 0.02338 0.37546 0.64956 0.0
H2358 H 0.9891 0.39281 0.65662 0.0
C2359 C 0.90292 0.47928 0.71181 0.0
C2360 C 0.94989 0.46091 0.67945 0.0
H2361 H 0.97534 0.44834 0.63308 0.0
C2362 C 0.96138 0.44772 0.69328 0.0
C2363 C 0.95441 0.46061 0.65734 0.0
C2364 C 0.94168 0.47335 0.64151 0.0
C2365 C 0.97791 0.43494 0.68576 0.0
C2366 C 0.98303 0.43538 0.66386 0.0
C2367 C 0.97121 0.44805 0.64986 0.0
C2368 C 0.00233 0.42485 0.65596 0.0
C2369 C 0.99047 0.42176 0.70139 0.0
C2370 C 0.02073 0.43727 0.65268 0.0
C2371 C 0.04017 0.4275 0.64893 0.0
C2372 C 0.04149 0.40513 0.64821 0.0
C2373 C 0.02276 0.39272 0.65006 0.0
C2374 C 0.00325 0.40256 0.65409 0.0
H2375 H 0.98538 0.42438 0.71815 0.0
H2376 H 0.98835 0.40458 0.69748 0.0
H2377 H 0.00776 0.42569 0.70014 0.0
H2378 H 0.02024 0.45449 0.65412 0.0
H2379 H 0.05433 0.43747 0.64727 0.0
H2380 H 0.56489 0.5365 0.20747 0.0
H2381 H 0.54481 0.55188 0.17818 0.0
H2382 H 0.55515 0.49546 0.14008 0.0
H2383 H 0.57525 0.47965 0.16978 0.0
H2384 H 0.56081 0.5592 0.13511 0.0
H2385 H 0.48924 0.5054 0.13864 0.0
H2386 H 0.50747 0.50712 0.16097 0.0
H2387 H 0.51563 0.49446 0.13667 0.0
C2388 C 0.56278 0.52725 0.19296 0.0
C2389 C 0.57157 0.50689 0.19088 0.0
C2390 C 0.55145 0.53611 0.17618 0.0
C2391 C 0.54873 0.52487 0.15696 0.0
C2392 C 0.55712 0.50433 0.15484 0.0
H2393 H 0.46953 0.61454 0.08345 0.0
H2394 H 0.49789 0.58784 0.08535 0.0
C2395 C 0.56845 0.49532 0.17181 0.0
C2396 C 0.5365 0.5351 0.13978 0.0
H2397 H 0.48473 0.53943 0.12402 0.0
C2398 C 0.54436 0.55458 0.13186 0.0
C2399 C 0.51522 0.52878 0.13545 0.0
C2400 C 0.50623 0.50781 0.14331 0.0
C2401 C 0.53066 0.56923 0.12226 0.0
C2402 C 0.50877 0.56397 0.12047 0.0
C2403 C 0.50157 0.54336 0.12567 0.0
C2404 C 0.49267 0.58078 0.11869 0.0
C2405 C 0.5391 0.59106 0.1164 0.0
C2406 C 0.48082 0.58581 0.1369 0.0
C2407 C 0.46479 0.60087 0.13591 0.0
C2408 C 0.46033 0.61128 0.11666 0.0
C2409 C 0.4728 0.60688 0.09856 0.0
C2410 C 0.48886 0.59159 0.09955 0.0
H2411 H 0.55668 0.59245 0.11848 0.0
H2412 H 0.53507 0.59455 0.09953 0.0
H2413 H 0.53141 0.60335 0.12651 0.0
H2414 H 0.48378 0.57777 0.15189 0.0
H2415 H 0.45554 0.604 0.15014 0.0
H2416 H 0.58796 0.75929 0.84815 0.0
H2417 H 0.6053 0.75939 0.81308 0.0
H2418 H 0.54643 0.73721 0.78407 0.0
H2419 H 0.52903 0.73781 0.81842 0.0
H2420 H 0.61346 0.72831 0.78763 0.0
H2421 H 0.56226 0.78116 0.74185 0.0
H2422 H 0.56156 0.78075 0.77066 0.0
H2423 H 0.54468 0.76291 0.7551 0.0
C2424 C 0.5787 0.75472 0.8342 0.0
C2425 C 0.55708 0.74864 0.83607 0.0
C2426 C 0.58859 0.7549 0.81418 0.0
C2427 C 0.577 0.749 0.79579 0.0
C2428 C 0.5555 0.74279 0.79779 0.0
H2429 H 0.58917 0.66005 0.70859 0.0
H2430 H 0.59495 0.68523 0.73744 0.0
C2431 C 0.54561 0.74284 0.81759 0.0
C2432 C 0.58747 0.7466 0.77477 0.0
H2433 H 0.57349 0.74796 0.7223 0.0
C2434 C 0.60521 0.73324 0.77326 0.0
C2435 C 0.57764 0.75386 0.75583 0.0
C2436 C 0.56066 0.7707 0.75603 0.0
C2437 C 0.61108 0.72436 0.75362 0.0
C2438 C 0.59827 0.7282 0.7354 0.0
C2439 C 0.58283 0.74421 0.73636 0.0
C2440 C 0.59749 0.71307 0.71713 0.0
C2441 C 0.63014 0.70993 0.75291 0.0
C2442 C 0.59609 0.72026 0.69596 0.0
C2443 C 0.59203 0.70578 0.67929 0.0
C2444 C 0.58946 0.68389 0.68356 0.0
C2445 C 0.59131 0.67676 0.70469 0.0
C2446 C 0.59498 0.69119 0.72125 0.0
H2447 H 0.6432 0.7165 0.76312 0.0
H2448 H 0.62566 0.69407 0.75944 0.0
H2449 H 0.63624 0.70788 0.73642 0.0
H2450 H 0.59766 0.7371 0.69238 0.0
H2451 H 0.59081 0.71171 0.66313 0.0
H2452 H 0.53963 0.2343 0.03878 0.0
H2453 H 0.55186 0.26061 0.01285 0.0
H2454 H 0.53581 0.31152 0.05615 0.0
H2455 H 0.52335 0.28532 0.08231 0.0
H2456 H 0.52451 0.31814 0.01091 0.0
H2457 H 0.60859 0.29479 0.02437 0.0
H2458 H 0.59089 0.27273 0.01851 0.0
H2459 H 0.5874 0.28791 0.04263 0.0
C2460 C 0.53851 0.25107 0.0428 0.0
C2461 C 0.53078 0.25767 0.06277 0.0
C2462 C 0.54552 0.26607 0.02795 0.0
C2463 C 0.54501 0.28792 0.03279 0.0
C2464 C 0.5364 0.29468 0.05223 0.0
H2465 H 0.62628 0.36741 0.95315 0.0
H2466 H 0.60644 0.3565 0.98483 0.0
C2467 C 0.52936 0.27967 0.06715 0.0
C2468 C 0.5546 0.30345 0.01791 0.0
H2469 H 0.60161 0.31564 0.99352 0.0
C2470 C 0.54141 0.31788 0.00725 0.0
C2471 C 0.57671 0.30335 0.01361 0.0
C2472 C 0.59179 0.28902 0.02552 0.0
C2473 C 0.54964 0.33142 0.99141 0.0
C2474 C 0.5715 0.33018 0.98601 0.0
C2475 C 0.58483 0.31657 -0.00242 0.0
C2476 C 0.58072 0.34109 0.96721 0.0
C2477 C 0.53482 0.34671 0.98046 0.0
C2478 C 0.57248 0.33668 0.94679 0.0
C2479 C 0.5837 0.34301 0.92866 0.0
C2480 C 0.60359 0.35353 0.93061 0.0
C2481 C 0.61112 0.35914 0.95108 0.0
C2482 C 0.59977 0.35297 0.96921 0.0
H2483 H 0.52155 0.35135 0.99116 0.0
H2484 H 0.54342 0.36136 0.97521 0.0
H2485 H 0.52767 0.33877 0.96623 0.0
H2486 H 0.55809 0.3271 0.94481 0.0
H2487 H 0.5774 0.33841 0.91316 0.0
H2488 H 0.96478 0.31472 0.32413 0.0
H2489 H 0.93598 0.32653 0.3012 0.0
H2490 H 0.89495 0.27637 0.32531 0.0
H2491 H 0.92427 0.26389 0.34794 0.0
H2492 H 0.89212 0.27718 0.28429 0.0
H2493 H 0.88352 0.35988 0.31048 0.0
H2494 H 0.91142 0.35603 0.30621 0.0
H2495 H 0.89769 0.34069 0.32643 0.0
C2496 C 0.94957 0.30633 0.32476 0.0
C2497 C 0.94675 0.2884 0.33779 0.0
C2498 C 0.93298 0.31328 0.31186 0.0
C2499 C 0.91304 0.30278 0.31204 0.0
C2500 C 0.91009 0.28492 0.32518 0.0
H2501 H 0.85676 0.37102 0.20664 0.0
H2502 H 0.85354 0.35445 0.24185 0.0
C2503 C 0.92686 0.27776 0.33798 0.0
C2504 C 0.89655 0.30922 0.29647 0.0
H2505 H 0.88101 0.35415 0.2709 0.0
C2506 C 0.889 0.29396 0.28172 0.0
C2507 C 0.89137 0.3309 0.29355 0.0
C2508 C 0.89624 0.34769 0.31025 0.0
C2509 C 0.87937 0.30024 0.26258 0.0
C2510 C 0.8782 0.32226 0.25785 0.0
C2511 C 0.88263 0.33725 0.27404 0.0
C2512 C 0.87687 0.33001 0.23559 0.0
C2513 C 0.87175 0.28323 0.24715 0.0
C2514 C 0.89094 0.32177 0.22032 0.0
C2515 C 0.8926 0.331 0.20025 0.0
C2516 C 0.88068 0.34908 0.19516 0.0
C2517 C 0.8663 0.35719 0.21024 0.0
C2518 C 0.86434 0.34766 0.23028 0.0
H2519 H 0.86402 0.26986 0.25592 0.0
H2520 H 0.86023 0.28954 0.23532 0.0
H2521 H 0.88565 0.27656 0.23859 0.0
H2522 H 0.90149 0.3088 0.22422 0.0
H2523 H 0.90394 0.32449 0.18904 0.0
H2524 H 0.95154 0.71235 0.56327 0.0
H2525 H 0.93814 0.68784 0.53571 0.0
H2526 H 0.97441 0.63676 0.56338 0.0
H2527 H 0.98832 0.66132 0.59062 0.0
H2528 H 0.98046 0.63879 0.52151 0.0
H2529 H 0.89398 0.64073 0.53767 0.0
H2530 H 0.9046 0.66722 0.53452 0.0
H2531 H 0.91357 0.651 0.5564 0.0
C2532 C 0.95641 0.69583 0.56363 0.0
C2533 C 0.97095 0.68872 0.57903 0.0
C2534 C 0.94865 0.6818 0.54798 0.0
C2535 C 0.95501 0.66039 0.54773 0.0
C2536 C 0.96922 0.65319 0.56337 0.0
H2537 H 0.88963 0.58624 0.44884 0.0
H2538 H 0.90618 0.59319 0.4836 0.0
C2539 C 0.97714 0.66724 0.57889 0.0
C2540 C 0.94807 0.64602 0.5302 0.0
H2541 H 0.90407 0.63027 0.50194 0.0
C2542 C 0.96374 0.63656 0.51744 0.0
C2543 C 0.92627 0.64263 0.52523 0.0
C2544 C 0.90866 0.65074 0.53935 0.0
C2545 C 0.9582 0.62504 0.49897 0.0
C2546 C 0.93649 0.62349 0.49286 0.0
C2547 C 0.92077 0.63167 0.50645 0.0
C2548 C 0.92971 0.61562 0.47156 0.0
C2549 C 0.97571 0.61499 0.48605 0.0
C2550 C 0.93794 0.62534 0.45314 0.0
C2551 C 0.92873 0.62118 0.43324 0.0
C2552 C 0.91078 0.60761 0.43149 0.0
C2553 C 0.90335 0.59691 0.44974 0.0
C2554 C 0.91279 0.60085 0.4696 0.0
H2555 H 0.98917 0.61018 0.49649 0.0
H2556 H 0.96983 0.60076 0.47707 0.0
H2557 H 0.98205 0.62685 0.47452 0.0
H2558 H 0.9506 0.63722 0.45428 0.0
H2559 H 0.93472 0.62978 0.41952 0.0
H2560 H 0.57269 0.24531 0.651 0.0
H2561 H 0.59786 0.2602 0.67722 0.0
H2562 H 0.55075 0.30566 0.69708 0.0
H2563 H 0.52535 0.29073 0.67105 0.0
H2564 H 0.61415 0.30321 0.68475 0.0
H2565 H 0.56553 0.27082 0.75133 0.0
H2566 H 0.56187 0.26222 0.72402 0.0
H2567 H 0.55093 0.28706 0.73294 0.0
C2568 C 0.56772 0.25857 0.66085 0.0
C2569 C 0.54696 0.2667 0.6592 0.0
C2570 C 0.58216 0.2671 0.67573 0.0
C2571 C 0.57603 0.28382 0.68918 0.0
C2572 C 0.55563 0.29256 0.68696 0.0
H2573 H 0.63981 0.36617 0.77779 0.0
H2574 H 0.62828 0.34906 0.74455 0.0
C2575 C 0.54117 0.28403 0.67211 0.0
C2576 C 0.59038 0.2912 0.7065 0.0
H2577 H 0.59362 0.29476 0.76062 0.0
C2578 C 0.60982 0.30128 0.70138 0.0
C2579 C 0.58485 0.28816 0.7281 0.0
C2580 C 0.56476 0.2763 0.73451 0.0
C2581 C 0.62356 0.30917 0.71744 0.0
C2582 C 0.61745 0.30709 0.73904 0.0
C2583 C 0.59832 0.29637 0.74406 0.0
C2584 C 0.62969 0.31689 0.7569 0.0
C2585 C 0.64441 0.31958 0.71116 0.0
C2586 C 0.63494 0.30448 0.77471 0.0
C2587 C 0.64111 0.31425 0.79383 0.0
C2588 C 0.64232 0.3366 0.7954 0.0
C2589 C 0.63912 0.34891 0.777 0.0
C2590 C 0.63262 0.33912 0.75793 0.0
H2591 H 0.6499 0.31369 0.69538 0.0
H2592 H 0.64217 0.33707 0.70989 0.0
H2593 H 0.65707 0.31664 0.7232 0.0
H2594 H 0.63283 0.2873 0.77424 0.0
H2595 H 0.64367 0.30437 0.80773 0.0
H2596 H -0.00046 0.28216 0.91391 0.0
H2597 H 0.99102 0.30911 0.94062 0.0
H2598 H 0.95434 0.26228 0.97564 0.0
H2599 H 0.96184 0.23555 0.94823 0.0
H2600 H 0.93161 0.29589 0.96808 0.0
H2601 H 0.01012 0.32353 -0.00048 0.0
H2602 H 0.00784 0.32577 0.97109 0.0
H2603 H 0.00716 0.29983 0.9833 0.0
C2604 C 0.99014 0.27747 0.92761 0.0
C2605 C 0.98127 0.25681 0.92903 0.0
C2606 C 0.98535 0.2929 0.94292 0.0
C2607 C 0.97215 0.28772 0.96021 0.0
C2608 C 0.9645 0.26665 0.96236 0.0
H2609 H 0.94324 0.34508 0.07621 0.0
H2610 H 0.96052 0.33125 0.04473 0.0
C2611 C 0.96885 0.25136 0.94679 0.0
C2612 C 0.96433 0.30453 0.97477 0.0
H2613 H 0.97993 0.34343 0.00997 0.0
C2614 C 0.94218 0.30627 0.97728 0.0
C2615 C 0.97817 0.31824 0.9865 0.0
C2616 C 0.00214 0.31666 0.98514 0.0
C2617 C 0.93343 0.32045 0.99206 0.0
C2618 C 0.94724 0.33409 0.00396 0.0
C2619 C 0.96938 0.33314 0.00064 0.0
C2620 C 0.93932 0.34659 0.02233 0.0
C2621 C 0.9096 0.31959 -0.00434 0.0
C2622 C 0.92234 0.36089 0.02027 0.0
C2623 C 0.9119 0.36846 0.03844 0.0
C2624 C 0.91871 0.36224 0.05887 0.0
C2625 C 0.93725 0.34992 0.06076 0.0
C2626 C 0.94731 0.34206 0.0427 0.0
H2627 H 0.90205 0.30517 0.98834 0.0
H2628 H 0.90589 0.31958 0.01297 0.0
H2629 H 0.90217 0.33378 0.98835 0.0
H2630 H 0.91641 0.36521 0.00465 0.0
H2631 H 0.89795 0.37829 0.03645 0.0
H2632 H 0.96228 0.72746 0.16003 0.0
H2633 H 0.93295 0.71981 0.18449 0.0
H2634 H 0.97616 0.68639 0.22595 0.0
H2635 H 0.00568 0.69438 0.2019 0.0
H2636 H 0.9166 0.68202 0.1957 0.0
H2637 H 0.94572 0.72387 0.26789 0.0
H2638 H 0.95732 0.72839 0.24196 0.0
H2639 H 0.96578 0.70627 0.25809 0.0
C2640 C 0.96561 0.71866 0.17447 0.0
C2641 C 0.98635 0.71154 0.17904 0.0
C2642 C 0.94881 0.71434 0.18842 0.0
C2643 C 0.95244 0.70286 0.20719 0.0
C2644 C 0.97312 0.69579 0.21183 0.0
H2645 H 0.88701 0.61303 0.27782 0.0
H2646 H 0.89909 0.6352 0.24834 0.0
C2647 C 0.98997 0.70025 0.198 0.0
C2648 C 0.9345 0.69694 0.22132 0.0
H2649 H 0.92129 0.69412 0.27381 0.0
C2650 C 0.91733 0.68504 0.21275 0.0
C2651 C 0.93504 0.70149 0.24341 0.0
C2652 C 0.95185 0.71593 0.2533 0.0
C2653 C 0.9017 0.67598 0.226 0.0
C2654 C 0.9037 0.67844 0.24836 0.0
C2655 C 0.91984 0.69189 0.25669 0.0
C2656 C 0.89133 0.66522 0.2636 0.0
C2657 C 0.88353 0.66352 0.2159 0.0
C2658 C 0.8825 0.67461 0.28188 0.0
C2659 C 0.87614 0.66193 0.29901 0.0
C2660 C 0.87823 0.63965 0.298 0.0
C2661 C 0.88508 0.63015 0.27895 0.0
C2662 C 0.89185 0.64286 0.26198 0.0
H2663 H 0.87909 0.67049 0.20025 0.0
H2664 H 0.88865 0.6469 0.21289 0.0
H2665 H 0.8692 0.66316 0.22627 0.0
H2666 H 0.88191 0.69181 0.28348 0.0
H2667 H 0.87073 0.66962 0.3135 0.0
H2668 H 0.52699 0.64216 0.37831 0.0
H2669 H 0.52405 0.62002 0.41042 0.0
H2670 H 0.50599 0.67533 0.447 0.0
H2671 H 0.50881 0.69739 0.41535 0.0
H2672 H 0.54911 0.62795 0.44617 0.0
H2673 H 0.46423 0.6298 0.46865 0.0
H2674 H 0.4733 0.63525 0.44183 0.0
H2675 H 0.47383 0.65597 0.46186 0.0
C2676 C 0.5221 0.64949 0.39316 0.0
C2677 C 0.51838 0.67156 0.39437 0.0
C2678 C 0.5203 0.63681 0.4114 0.0
C2679 C 0.51432 0.64597 0.43092 0.0
C2680 C 0.51002 0.66784 0.43196 0.0
H2681 H 0.53226 0.65992 0.55694 0.0
H2682 H 0.51703 0.65564 0.52122 0.0
C2683 C 0.51201 0.6805 0.4139 0.0
C2684 C 0.51576 0.63391 0.45102 0.0
H2685 H 0.48981 0.62819 0.49837 0.0
C2686 C 0.53602 0.62721 0.45744 0.0
C2687 C 0.49859 0.63293 0.46553 0.0
C2688 C 0.47621 0.63868 0.459 0.0
C2689 C 0.5402 0.62203 0.47874 0.0
C2690 C 0.52341 0.62305 0.49379 0.0
C2691 C 0.50266 0.62759 0.48684 0.0
C2692 C 0.52797 0.62326 0.51694 0.0
C2693 C 0.56297 0.61761 0.48525 0.0
C2694 C 0.5381 0.60607 0.52676 0.0
C2695 C 0.54721 0.60865 0.54697 0.0
C2696 C 0.54583 0.6283 0.5578 0.0
C2697 C 0.53367 0.64467 0.54889 0.0
C2698 C 0.5249 0.64221 0.52852 0.0
H2699 H 0.57444 0.62061 0.4721 0.0
H2700 H 0.56775 0.62772 0.49911 0.0
H2701 H 0.56433 0.60066 0.49 0.0
H2702 H 0.54013 0.59115 0.51827 0.0
H2703 H 0.55614 0.5956 0.55372 0.0
H2704 H 0.8126 0.53146 0.68179 0.0
H2705 H 0.7805 0.54642 0.66572 0.0
H2706 H 0.78864 0.60334 0.70406 0.0
H2707 H 0.82103 0.58874 0.71976 0.0
H2708 H 0.74509 0.55607 0.68764 0.0
H2709 H 0.77515 0.62818 0.64604 0.0
H2710 H 0.79257 0.60732 0.65511 0.0
H2711 H 0.7833 0.62725 0.67351 0.0
C2712 C 0.80772 0.54729 0.68655 0.0
C2713 C 0.81922 0.55891 0.70207 0.0
C2714 C 0.78943 0.55582 0.67734 0.0
C2715 C 0.78237 0.57608 0.68352 0.0
C2716 C 0.7941 0.5879 0.69869 0.0
H2717 H 0.65157 0.61682 0.6797 0.0
H2718 H 0.688 0.608 0.69012 0.0
C2719 C 0.81249 0.57945 0.70779 0.0
C2720 C 0.76163 0.58389 0.67573 0.0
H2721 H 0.73737 0.62593 0.65168 0.0
C2722 C 0.74343 0.57126 0.67962 0.0
C2723 C 0.75957 0.60363 0.66513 0.0
C2724 C 0.77872 0.61728 0.6595 0.0
C2725 C 0.72311 0.57804 0.67359 0.0
C2726 C 0.72093 0.59821 0.66389 0.0
C2727 C 0.73915 0.61064 0.65949 0.0
C2728 C 0.69979 0.60628 0.65777 0.0
C2729 C 0.70418 0.56342 0.67742 0.0
C2730 C 0.69476 0.60921 0.6362 0.0
C2731 C 0.67401 0.61437 0.63016 0.0
C2732 C 0.65797 0.61668 0.64565 0.0
C2733 C 0.66345 0.61491 0.66735 0.0
C2734 C 0.68422 0.60982 0.67335 0.0
H2735 H 0.70913 0.54666 0.68 0.0
H2736 H 0.69562 0.56881 0.6919 0.0
H2737 H 0.69285 0.56377 0.66376 0.0
H2738 H 0.70666 0.60665 0.62399 0.0
H2739 H 0.67042 0.61576 0.61332 0.0
H2740 H 0.66831 0.60802 0.96812 0.0
H2741 H 0.66011 0.57661 0.94624 0.0
H2742 H 0.71821 0.54719 0.96761 0.0
H2743 H 0.72684 0.57873 0.9892 0.0
H2744 H 0.71061 0.54116 0.92451 0.0
H2745 H 0.6386 0.52106 0.97221 0.0
H2746 H 0.63847 0.54724 0.96071 0.0
H2747 H 0.658 0.54087 0.98072 0.0
C2748 C 0.67942 0.59492 0.96811 0.0
C2749 C 0.69813 0.59579 0.9806 0.0
C2750 C 0.67466 0.57697 0.95564 0.0
C2751 C 0.68833 0.55944 0.95567 0.0
C2752 C 0.7074 0.56055 0.96746 0.0
H2753 H 0.66358 0.42788 0.92899 0.0
H2754 H 0.66976 0.46339 0.94388 0.0
C2755 C 0.71229 0.57858 0.97981 0.0
C2756 C 0.68247 0.53961 0.94405 0.0
H2757 H 0.64542 0.49925 0.9423 0.0
C2758 C 0.69633 0.53201 0.9283 0.0
C2759 C 0.66391 0.52766 0.94924 0.0
C2760 C 0.64896 0.53447 0.96677 0.0
C2761 C 0.69225 0.51258 0.91773 0.0
C2762 C 0.67359 0.50074 0.92281 0.0
C2763 C 0.6596 0.5085 0.93834 0.0
C2764 C 0.66908 0.47947 0.91341 0.0
C2765 C 0.70833 0.50455 0.90182 0.0
C2766 C 0.66622 0.4768 0.89134 0.0
C2767 C 0.66278 0.45644 0.8827 0.0
C2768 C 0.66195 0.43844 0.89604 0.0
C2769 C 0.66415 0.44133 0.91821 0.0
C2770 C 0.66769 0.46164 0.92678 0.0
H2771 H 0.72392 0.51308 0.90333 0.0
H2772 H 0.71099 0.48719 0.90387 0.0
H2773 H 0.70218 0.50712 0.88541 0.0
H2774 H 0.66677 0.49044 0.8808 0.0
H2775 H 0.66102 0.45482 0.86557 0.0
H2776 H 0.65247 0.43371 0.23188 0.0
H2777 H 0.68355 0.41575 0.2169 0.0
H2778 H 0.69958 0.47235 0.18119 0.0
H2779 H 0.66867 0.49046 0.19609 0.0
H2780 H 0.69318 0.40951 0.17134 0.0
H2781 H 0.75444 0.45707 0.21576 0.0
H2782 H 0.72684 0.45564 0.22388 0.0
H2783 H 0.73467 0.47247 0.20207 0.0
C2784 C 0.66271 0.44237 0.22096 0.0
C2785 C 0.65823 0.46351 0.21521 0.0
C2786 C 0.68034 0.43206 0.21236 0.0
C2787 C 0.69378 0.44282 0.19808 0.0
C2788 C 0.68941 0.46391 0.19236 0.0
H2789 H 0.79285 0.40239 0.1126 0.0
H2790 H 0.75798 0.41129 0.1277 0.0
C2791 C 0.67178 0.4742 0.20088 0.0
C2792 C 0.71251 0.43208 0.18913 0.0
H2793 H 0.76677 0.43478 0.18793 0.0
C2794 C 0.70931 0.41487 0.17503 0.0
C2795 C 0.73342 0.43909 0.19421 0.0
C2796 C 0.73766 0.45696 0.20994 0.0
C2797 C 0.72667 0.40471 0.16541 0.0
C2798 C 0.74756 0.41219 0.16999 0.0
C2799 C 0.75068 0.42914 0.18442 0.0
C2800 C 0.76665 0.40293 0.16007 0.0
C2801 C 0.72258 0.38606 0.15061 0.0
C2802 C 0.78278 0.39492 0.1732 0.0
C2803 C 0.80264 0.39017 0.16472 0.0
C2804 C 0.80669 0.39328 0.14291 0.0
C2805 C 0.79006 0.39979 0.12944 0.0
C2806 C 0.77016 0.40479 0.13803 0.0
H2807 H 0.70639 0.37902 0.15292 0.0
H2808 H 0.72378 0.39156 0.13385 0.0
H2809 H 0.73462 0.37345 0.15307 0.0
H2810 H 0.78034 0.39337 0.19024 0.0
H2811 H 0.81514 0.38491 0.1754 0.0
H2812 H 0.7039 0.45379 0.45937 0.0
H2813 H 0.73137 0.47145 0.43775 0.0
H2814 H 0.78045 0.43953 0.47338 0.0
H2815 H 0.75334 0.42179 0.49494 0.0
H2816 H 0.76585 0.49786 0.45056 0.0
H2817 H 0.79388 0.42402 0.41086 0.0
H2818 H 0.76885 0.42529 0.42498 0.0
H2819 H 0.79348 0.42275 0.43949 0.0
C2820 C 0.72054 0.4507 0.46275 0.0
C2821 C 0.72639 0.43623 0.47876 0.0
C2822 C 0.73618 0.46069 0.45031 0.0
C2823 C 0.75785 0.45629 0.45363 0.0
C2824 C 0.76377 0.44264 0.47019 0.0
H2825 H 0.86582 0.53063 0.41542 0.0
H2826 H 0.84365 0.50335 0.4325 0.0
C2827 C 0.74822 0.43267 0.48261 0.0
C2828 C 0.77439 0.46635 0.44016 0.0
H2829 H 0.8152 0.45544 0.40591 0.0
C2830 C 0.77654 0.48861 0.4407 0.0
C2831 C 0.78821 0.45417 0.42723 0.0
C2832 C 0.78593 0.43024 0.42539 0.0
C2833 C 0.79251 0.49904 0.42901 0.0
C2834 C 0.80676 0.48684 0.41665 0.0
C2835 C 0.80436 0.46462 0.41566 0.0
C2836 C 0.82401 0.49741 0.40462 0.0
C2837 C 0.79412 0.52309 0.43 0.0
C2838 C 0.82119 0.50176 0.38288 0.0
C2839 C 0.83393 0.51726 0.373 0.0
C2840 C 0.84939 0.52864 0.38493 0.0
C2841 C 0.85387 0.52224 0.40593 0.0
C2842 C 0.84123 0.50668 0.41572 0.0
H2843 H 0.77987 0.53029 0.4375 0.0
H2844 H 0.80839 0.52785 0.43952 0.0
H2845 H 0.79605 0.52981 0.41374 0.0
H2846 H 0.80792 0.49466 0.37413 0.0
H2847 H 0.83009 0.52189 0.35682 0.0
H2848 H 0.80612 0.5382 0.80584 0.0
H2849 H 0.79217 0.51012 0.82943 0.0
H2850 H 0.79915 0.46387 0.77879 0.0
H2851 H 0.8137 0.49152 0.75561 0.0
H2852 H 0.75862 0.48422 0.82716 0.0
H2853 H 0.83061 0.43461 0.82574 0.0
H2854 H 0.83055 0.46155 0.81566 0.0
H2855 H 0.82167 0.43956 0.79906 0.0
C2856 C 0.8044 0.52206 0.79975 0.0
C2857 C 0.8111 0.51692 0.77903 0.0
C2858 C 0.79667 0.50604 0.81326 0.0
C2859 C 0.79545 0.48477 0.8061 0.0
C2860 C 0.80086 0.47997 0.78495 0.0
H2861 H 0.72245 0.37818 0.82279 0.0
H2862 H 0.75201 0.40241 0.81444 0.0
C2863 C 0.80886 0.49583 0.77163 0.0
C2864 C 0.78762 0.46754 0.82021 0.0
H2865 H 0.79725 0.41589 0.83413 0.0
C2866 C 0.7673 0.4695 0.82921 0.0
C2867 C 0.79912 0.44843 0.82312 0.0
C2868 C 0.8218 0.44603 0.81557 0.0
C2869 C 0.75743 0.45223 0.83947 0.0
C2870 C 0.76822 0.43258 0.84069 0.0
C2871 C 0.78906 0.43099 0.83299 0.0
C2872 C 0.75662 0.41307 0.84701 0.0
C2873 C 0.73496 0.45465 0.84773 0.0
C2874 C 0.75077 0.40991 0.86832 0.0
C2875 C 0.73397 0.39593 0.87318 0.0
C2876 C 0.72272 0.38533 0.85668 0.0
C2877 C 0.73065 0.38636 0.83577 0.0
C2878 C 0.74755 0.40018 0.83097 0.0
H2879 H 0.72843 0.47071 0.84448 0.0
H2880 H 0.72424 0.44246 0.84029 0.0
H2881 H 0.73479 0.45203 0.86524 0.0
H2882 H 0.75774 0.41973 0.88086 0.0
H2883 H 0.72831 0.3954 0.88948 0.0
H2884 H 0.79541 0.60338 0.02359 0.0
H2885 H 0.81986 0.57481 0.03301 0.0
H2886 H 0.77254 0.54797 0.07523 0.0
H2887 H 0.74783 0.57636 0.0657 0.0
H2888 H 0.83641 0.56263 0.07289 0.0
H2889 H 0.78753 0.49819 0.03533 0.0
H2890 H 0.78306 0.5261 0.03021 0.0
H2891 H 0.77308 0.514 0.05421 0.0
C2892 C 0.79019 0.5914 0.03489 0.0
C2893 C 0.76963 0.592 0.04379 0.0
C2894 C 0.80421 0.57514 0.04027 0.0
C2895 C 0.79788 0.55917 0.05457 0.0
C2896 C 0.77755 0.55998 0.06387 0.0
H2897 H 0.86477 0.46683 0.12682 0.0
H2898 H 0.85127 0.50018 0.11267 0.0
C2899 C 0.7635 0.57623 0.05847 0.0
C2900 C 0.81241 0.54148 0.05957 0.0
H2901 H 0.81592 0.48732 0.05794 0.0
C2902 C 0.83208 0.54615 0.06948 0.0
C2903 C 0.80688 0.52009 0.05465 0.0
C2904 C 0.78659 0.51425 0.04282 0.0
C2905 C 0.84601 0.52982 0.0754 0.0
C2906 C 0.8399 0.50834 0.07157 0.0
C2907 C 0.82059 0.5038 0.06094 0.0
C2908 C 0.85235 0.49011 0.07961 0.0
C2909 C 0.86708 0.53572 0.0857 0.0
C2910 C 0.85789 0.47348 0.06571 0.0
C2911 C 0.86534 0.45423 0.07378 0.0
C2912 C 0.86737 0.45127 0.09592 0.0
C2913 C 0.86346 0.46857 0.10968 0.0
C2914 C 0.85582 0.48775 0.1016 0.0
H2915 H 0.87245 0.55198 0.08094 0.0
H2916 H 0.86521 0.5357 0.1033 0.0
H2917 H 0.87967 0.52418 0.08141 0.0
H2918 H 0.85535 0.47499 0.04867 0.0
H2919 H 0.86839 0.44129 0.06273 0.0
H2920 H 0.62843 0.56527 0.27518 0.0
H2921 H 0.65977 0.5804 0.29327 0.0
H2922 H 0.68353 0.51708 0.30416 0.0
H2923 H 0.65255 0.50176 0.2856 0.0
H2924 H 0.67888 0.57612 0.33317 0.0
H2925 H 0.73016 0.54516 0.26837 0.0
H2926 H 0.70144 0.54511 0.26649 0.0
H2927 H 0.71479 0.52469 0.28135 0.0
C2928 C 0.64017 0.55452 0.28165 0.0
C2929 C 0.6382 0.53231 0.27861 0.0
C2930 C 0.65804 0.56322 0.29202 0.0
C2931 C 0.67412 0.54986 0.29959 0.0
C2932 C 0.67148 0.52765 0.29794 0.0
H2933 H 0.78504 0.57727 0.37654 0.0
H2934 H 0.74856 0.57042 0.36429 0.0
C2935 C 0.65376 0.51894 0.28737 0.0
C2936 C 0.69436 0.55913 0.30772 0.0
H2937 H 0.7479 0.55975 0.29865 0.0
C2938 C 0.694 0.57267 0.32562 0.0
C2939 C 0.71393 0.55501 0.29745 0.0
C2940 C 0.71515 0.54189 0.27723 0.0
C2941 C 0.71292 0.58172 0.33393 0.0
C2942 C 0.73261 0.57667 0.32428 0.0
C2943 C 0.7328 0.56355 0.30609 0.0
C2944 C 0.75342 0.58406 0.33296 0.0
C2945 C 0.71159 0.59672 0.35274 0.0
C2946 C 0.76827 0.59405 0.31945 0.0
C2947 C 0.78924 0.59753 0.32624 0.0
C2948 C 0.79568 0.59126 0.34674 0.0
C2949 C 0.78049 0.58242 0.3607 0.0
C2950 C 0.75957 0.57863 0.35377 0.0
H2951 H 0.6957 0.60433 0.35361 0.0
H2952 H 0.71394 0.58759 0.36768 0.0
H2953 H 0.72407 0.60944 0.35197 0.0
H2954 H 0.76384 0.59835 0.30332 0.0
H2955 H 0.80058 0.60454 0.31521 0.0
H2956 H 0.69604 0.4175 0.58065 0.0
H2957 H 0.67388 0.44004 0.60333 0.0
H2958 H 0.62778 0.44511 0.55228 0.0
H2959 H 0.64933 0.42183 0.53001 0.0
H2960 H 0.66452 0.47923 0.59769 0.0
H2961 H 0.58809 0.43503 0.60043 0.0
H2962 H 0.61222 0.42298 0.59073 0.0
H2963 H 0.59581 0.43867 0.5732 0.0
C2964 C 0.68107 0.4233 0.57438 0.0
C2965 C 0.67436 0.41799 0.55361 0.0
C2966 C 0.66837 0.43604 0.58738 0.0
C2967 C 0.64887 0.44383 0.57973 0.0
C2968 C 0.6423 0.43863 0.55887 0.0
H2969 H 0.5834 0.5551 0.58631 0.0
H2970 H 0.5941 0.51812 0.58119 0.0
C2971 C 0.65479 0.42559 0.54603 0.0
C2972 C 0.63662 0.45939 0.59246 0.0
H2973 H 0.58581 0.47387 0.60507 0.0
C2974 C 0.64741 0.47774 0.59988 0.0
C2975 C 0.61429 0.4574 0.59551 0.0
C2976 C 0.60203 0.43731 0.58974 0.0
C2977 C 0.63628 0.49485 0.60867 0.0
C2978 C 0.61379 0.49356 0.60998 0.0
C2979 C 0.60307 0.47475 0.60388 0.0
C2980 C 0.60143 0.51286 0.61448 0.0
C2981 C 0.64847 0.51481 0.61515 0.0
C2982 C 0.6009 0.52157 0.63511 0.0
C2983 C 0.59469 0.5427 0.63811 0.0
C2984 C 0.58925 0.55533 0.62045 0.0
C2985 C 0.58776 0.5458 0.60016 0.0
C2986 C 0.59374 0.52466 0.59722 0.0
H2987 H 0.66588 0.51351 0.61223 0.0
H2988 H 0.64239 0.52874 0.6062 0.0
H2989 H 0.64602 0.51799 0.6324 0.0
H2990 H 0.60686 0.5126 0.64857 0.0
H2991 H 0.59599 0.54963 0.65394 0.0
H2992 H 0.72447 0.83851 0.57753 0.0
H2993 H 0.7005 0.80827 0.58438 0.0
H2994 H 0.70875 0.78613 0.51974 0.0
H2995 H 0.73264 0.81633 0.51258 0.0
H2996 H 0.66543 0.78656 0.53436 0.0
H2997 H 0.72031 0.74557 0.59022 0.0
H2998 H 0.71539 0.77307 0.59656 0.0
H2999 H 0.72919 0.76641 0.57241 0.0
C3000 C 0.72121 0.82725 0.56474 0.0
C3001 C 0.73059 0.82981 0.54454 0.0
C3002 C 0.70757 0.80995 0.56872 0.0
C3003 C 0.70314 0.79491 0.55262 0.0
C3004 C 0.7121 0.79758 0.53236 0.0
H3005 H 0.64534 0.67006 0.57239 0.0
H3006 H 0.66812 0.69957 0.5605 0.0
C3007 C 0.72577 0.81484 0.52835 0.0
C3008 C 0.68916 0.77634 0.55694 0.0
H3009 H 0.68502 0.73161 0.58747 0.0
C3010 C 0.6697 0.77447 0.5459 0.0
C3011 C 0.69501 0.76052 0.57177 0.0
C3012 C 0.71619 0.7613 0.58331 0.0
C3013 C 0.65561 0.75736 0.54972 0.0
C3014 C 0.66114 0.74196 0.56512 0.0
C3015 C 0.68082 0.74357 0.57577 0.0
C3016 C 0.64657 0.72421 0.5708 0.0
C3017 C 0.63504 0.75581 0.5372 0.0
C3018 C 0.62693 0.7284 0.58047 0.0
C3019 C 0.61386 0.71161 0.58732 0.0
C3020 C 0.62029 0.69032 0.5847 0.0
C3021 C 0.63987 0.68623 0.57465 0.0
C3022 C 0.65292 0.70305 0.56784 0.0
H3023 H 0.6357 0.76555 0.52244 0.0
H3024 H 0.6313 0.73899 0.53276 0.0
H3025 H 0.62179 0.76179 0.54718 0.0
H3026 H 0.62196 0.74466 0.58323 0.0
H3027 H 0.59893 0.71536 0.59504 0.0
H3028 H 0.22336 0.65641 0.46802 0.0
H3029 H 0.21573 0.6844 0.44226 0.0
H3030 H 0.2167 0.7313 0.49283 0.0
H3031 H 0.22399 0.70339 0.51885 0.0
H3032 H 0.18094 0.73329 0.46768 0.0
H3033 H 0.2537 0.73143 0.41754 0.0
H3034 H 0.24073 0.70591 0.42057 0.0
H3035 H 0.25233 0.71905 0.44347 0.0
C3036 C 0.2222 0.6727 0.47369 0.0
C3037 C 0.22421 0.67763 0.49555 0.0
C3038 C 0.21797 0.68871 0.45888 0.0
C3039 C 0.21592 0.70994 0.46561 0.0
C3040 C 0.21832 0.71499 0.48733 0.0
H3041 H 0.203 0.82655 0.39516 0.0
H3042 H 0.21667 0.79571 0.41423 0.0
C3043 C 0.22247 0.699 0.50217 0.0
C3044 C 0.20969 0.72665 0.45029 0.0
H3045 H 0.22472 0.75192 0.40447 0.0
C3046 C 0.19053 0.7374 0.45388 0.0
C3047 C 0.22233 0.73204 0.4324 0.0
C3048 C 0.24352 0.72166 0.42831 0.0
C3049 C 0.18356 0.75334 0.44001 0.0
C3050 C 0.19589 0.75833 0.42179 0.0
C3051 C 0.21517 0.74776 0.41827 0.0
C3052 C 0.18943 0.77537 0.40698 0.0
C3053 C 0.1633 0.76505 0.44525 0.0
C3054 C 0.17013 0.7737 0.39566 0.0
C3055 C 0.1622 0.79131 0.38476 0.0
C3056 C 0.17351 0.81087 0.38499 0.0
C3057 C 0.19376 0.81183 0.39479 0.0
C3058 C 0.20163 0.79421 0.40572 0.0
H3059 H 0.15841 0.76265 0.4621 0.0
H3060 H 0.16527 0.78244 0.44238 0.0
H3061 H 0.15018 0.75901 0.43482 0.0
H3062 H 0.16071 0.7591 0.39613 0.0
H3063 H 0.14667 0.7899 0.3772 0.0
H3064 H 0.60141 0.98479 0.67451 0.0
H3065 H 0.57516 0.96335 0.65472 0.0
H3066 H 0.56844 0.92117 0.70853 0.0
H3067 H 0.59457 0.94275 0.72864 0.0
H3068 H 0.57063 0.91816 0.64404 0.0
H3069 H 0.50903 0.94893 0.69965 0.0
H3070 H 0.53552 0.96042 0.69818 0.0
H3071 H 0.53115 0.93568 0.71193 0.0
C3072 C 0.59456 0.9708 0.68206 0.0
C3073 C 0.59971 0.96562 0.70324 0.0
C3074 C 0.5797 0.9585 0.67067 0.0
C3075 C 0.56979 0.94089 0.6803 0.0
C3076 C 0.57585 0.93488 0.70097 0.0
H3077 H 0.47212 0.85622 0.62893 0.0
H3078 H 0.50694 0.871 0.63923 0.0
C3079 C 0.59072 0.9472 0.71241 0.0
C3080 C 0.55144 0.93047 0.66961 0.0
H3081 H 0.4974 0.92516 0.67282 0.0
C3082 C 0.5546 0.91955 0.6503 0.0
C3083 C 0.5306 0.93274 0.67774 0.0
C3084 C 0.52622 0.94521 0.69792 0.0
C3085 C 0.53728 0.91068 0.6389 0.0
C3086 C 0.51649 0.9128 0.64719 0.0
C3087 C 0.51342 0.92367 0.66652 0.0
C3088 C 0.49739 0.90392 0.63638 0.0
C3089 C 0.54123 0.89955 0.61793 0.0
C3090 C 0.48072 0.91757 0.63085 0.0
C3091 C 0.46077 0.90922 0.62523 0.0
C3092 C 0.45716 0.88705 0.62506 0.0
C3093 C 0.47439 0.87338 0.62891 0.0
C3094 C 0.49434 0.88178 0.6347 0.0
H3095 H 0.55727 0.90353 0.61145 0.0
H3096 H 0.54027 0.88203 0.62033 0.0
H3097 H 0.52893 0.90389 0.60595 0.0
H3098 H 0.48283 0.93473 0.63207 0.0
H3099 H 0.44789 0.92017 0.6221 0.0
H3100 H 0.30966 0.32664 0.00018 0.0
H3101 H 0.32516 0.29568 0.98255 0.0
H3102 H 0.28349 0.30462 0.92844 0.0
H3103 H 0.26814 0.33587 0.94581 0.0
H3104 H 0.30314 0.25954 0.97122 0.0
H3105 H 0.34136 0.29584 0.90015 0.0
H3106 H 0.33301 0.31143 0.92288 0.0
H3107 H 0.31379 0.30261 0.90326 0.0
C3108 C 0.30393 0.32215 0.98444 0.0
C3109 C 0.28767 0.33363 0.97437 0.0
C3110 C 0.31284 0.3045 0.97438 0.0
C3111 C 0.30568 0.29807 0.95409 0.0
C3112 C 0.28958 0.30963 0.94389 0.0
H3113 H 0.3111 0.17151 0.90198 0.0
H3114 H 0.30093 0.20708 0.91372 0.0
C3115 C 0.28071 0.32736 0.95391 0.0
C3116 C 0.3138 0.27824 0.94445 0.0
H3117 H 0.33803 0.25779 0.90028 0.0
C3118 C 0.31091 0.25918 0.95578 0.0
C3119 C 0.32406 0.2779 0.92439 0.0
C3120 C 0.32845 0.29806 0.91203 0.0
C3121 C 0.31761 0.23968 0.9474 0.0
C3122 C 0.3271 0.2392 0.92699 0.0
C3123 C 0.3305 0.25828 0.91583 0.0
C3124 C 0.33337 0.21885 0.91711 0.0
C3125 C 0.31454 0.21971 0.96049 0.0
C3126 C 0.35497 0.2141 0.91427 0.0
C3127 C 0.3609 0.19375 0.90749 0.0
C3128 C 0.34525 0.17791 0.9035 0.0
C3129 C 0.32358 0.18322 0.90522 0.0
C3130 C 0.31771 0.20353 0.91191 0.0
H3131 H 0.31178 0.22345 0.9776 0.0
H3132 H 0.30042 0.21069 0.95439 0.0
H3133 H 0.32864 0.20924 0.95924 0.0
H3134 H 0.36724 0.22584 0.91815 0.0
H3135 H 0.37772 0.19021 0.90623 0.0
H3136 H 0.40348 0.51568 0.72084 0.0
H3137 H 0.421 0.5474 0.70694 0.0
H3138 H 0.39022 0.53742 0.64595 0.0
H3139 H 0.37257 0.5052 0.65972 0.0
H3140 H 0.43325 0.54183 0.64292 0.0
H3141 H 0.40286 0.60743 0.69257 0.0
H3142 H 0.41055 0.58557 0.70913 0.0
H3143 H 0.38906 0.58201 0.69017 0.0
C3144 C 0.40017 0.52027 0.70452 0.0
C3145 C 0.38675 0.50776 0.69134 0.0
C3146 C 0.40998 0.53865 0.6967 0.0
C3147 C 0.40652 0.54504 0.67558 0.0
C3148 C 0.39281 0.5329 0.66242 0.0
H3149 H 0.49943 0.64262 0.63126 0.0
H3150 H 0.46389 0.62627 0.63502 0.0
C3151 C 0.38285 0.51446 0.67028 0.0
C3152 C 0.4198 0.5625 0.66679 0.0
H3153 H 0.4402 0.61138 0.68067 0.0
C3154 C 0.43427 0.55735 0.65061 0.0
C3155 C 0.421 0.58282 0.67668 0.0
C3156 C 0.40484 0.58984 0.69294 0.0
C3157 C 0.45132 0.57109 0.64573 0.0
C3158 C 0.45388 0.59027 0.6574 0.0
C3159 C 0.43826 0.59645 0.672 0.0
C3160 C 0.4743 0.60203 0.65699 0.0
C3161 C 0.46748 0.5643 0.62936 0.0
C3162 C 0.49155 0.59405 0.66863 0.0
C3163 C 0.51177 0.60324 0.66658 0.0
C3164 C 0.51509 0.62059 0.65279 0.0
C3165 C 0.49744 0.62925 0.64198 0.0
C3166 C 0.47715 0.61998 0.64407 0.0
H3167 H 0.46115 0.55133 0.61888 0.0
H3168 H 0.47239 0.57805 0.61931 0.0
H3169 H 0.48192 0.5584 0.63766 0.0
H3170 H 0.48948 0.58019 0.67873 0.0
H3171 H 0.52492 0.59623 0.67523 0.0
H3172 H 0.8076 0.15721 0.01522 0.0
H3173 H 0.8216 0.19 0.03152 0.0
H3174 H 0.7736 0.18584 0.08056 0.0
H3175 H 0.75995 0.15259 0.06471 0.0
H3176 H 0.80183 0.22704 0.03684 0.0
H3177 H 0.82686 0.19604 0.11574 0.0
H3178 H 0.81982 0.17871 0.09368 0.0
H3179 H 0.79931 0.19077 0.10951 0.0
C3180 C 0.80014 0.16319 0.02958 0.0
C3181 C 0.78275 0.15235 0.03875 0.0
C3182 C 0.80814 0.18191 0.03887 0.0
C3183 C 0.79884 0.19019 0.05742 0.0
C3184 C 0.78136 0.17945 0.06656 0.0
H3185 H 0.8197 0.3228 0.09484 0.0
H3186 H 0.8034 0.28861 0.08467 0.0
C3187 C 0.77349 0.16055 0.0574 0.0
C3188 C 0.80692 0.21059 0.06649 0.0
H3189 H 0.82798 0.2337 0.11143 0.0
C3190 C 0.80758 0.22849 0.05315 0.0
C3191 C 0.81458 0.21236 0.0877 0.0
C3192 C 0.81533 0.19341 0.10245 0.0
C3193 C 0.81579 0.24813 0.06036 0.0
C3194 C 0.82291 0.25007 0.08174 0.0
C3195 C 0.82225 0.23219 0.09513 0.0
C3196 C 0.83197 0.27034 0.09014 0.0
C3197 C 0.81736 0.26639 0.04478 0.0
C3198 C 0.85308 0.27118 0.09766 0.0
C3199 C 0.86236 0.29064 0.10381 0.0
C3200 C 0.85069 0.3096 0.10241 0.0
C3201 C 0.82923 0.30853 0.09578 0.0
C3202 C 0.8199 0.28903 0.08988 0.0
H3203 H 0.81667 0.26071 0.02796 0.0
H3204 H 0.80376 0.27727 0.0473 0.0
H3205 H 0.83241 0.27566 0.04713 0.0
H3206 H 0.86261 0.25689 0.0981 0.0
H3207 H 0.87891 0.29092 0.1089 0.0
H3208 H 0.58181 0.02066 0.7814 0.0
H3209 H 0.55207 0.02649 0.80569 0.0
H3210 H 0.5083 0.02618 0.7524 0.0
H3211 H 0.53793 0.02061 0.72789 0.0
H3212 H 0.50418 0.06108 0.7789 0.0
H3213 H 0.50426 0.98624 0.82589 0.0
H3214 H 0.52977 -0.00042 0.82465 0.0
H3215 H 0.5179 0.98886 0.80068 0.0
C3216 C 0.56585 0.02166 0.77481 0.0
C3217 C 0.56229 0.02029 0.75265 0.0
C3218 C 0.54885 0.0248 0.78877 0.0
C3219 C 0.52798 0.02645 0.78086 0.0
C3220 C 0.52431 0.02481 0.75881 0.0
H3221 H 0.4074 0.03999 0.84604 0.0
H3222 H 0.43814 0.02533 0.82737 0.0
C3223 C 0.54128 0.02169 0.74483 0.0
C3224 C 0.51021 0.03167 0.79536 0.0
H3225 H 0.48287 0.01454 0.83926 0.0
C3226 C 0.49946 0.05085 0.79203 0.0
C3227 C 0.50402 0.0182 0.81237 0.0
C3228 C 0.51444 -0.00304 0.81605 0.0
C3229 C 0.48288 0.05715 0.80547 0.0
C3230 C 0.47717 0.04406 0.82291 0.0
C3231 C 0.48758 0.02464 0.82604 0.0
C3232 C 0.46 0.05035 0.83762 0.0
C3233 C 0.47145 0.07769 0.80079 0.0
C3234 C 0.4625 0.06863 0.85038 0.0
C3235 C 0.445 0.0771 0.86102 0.0
C3236 C 0.42471 0.06738 0.85908 0.0
C3237 C 0.42274 0.04797 0.84779 0.0
C3238 C 0.44029 0.03954 0.8371 0.0
H3239 H 0.47467 0.08347 0.78436 0.0
H3240 H 0.45394 0.07559 0.80274 0.0
H3241 H 0.47697 0.0902 0.8122 0.0
H3242 H 0.47772 0.07699 0.85116 0.0
H3243 H 0.44717 0.09191 0.86979 0.0
H3244 H 0.90503 0.96655 0.29271 0.0
H3245 H 0.93797 0.9581 0.31194 0.0
H3246 H 0.95453 0.91321 0.26255 0.0
H3247 H 0.92175 0.92156 0.24319 0.0
H3248 H 0.95256 0.91648 0.32649 0.0
H3249 H 0.00663 0.95518 0.26783 0.0
H3250 H 0.97845 0.96073 0.26911 0.0
H3251 H 0.98752 0.93675 0.25641 0.0
C3252 C 0.9157 0.95488 0.28595 0.0
C3253 C 0.9109 0.94479 0.26639 0.0
C3254 C 0.93443 0.95006 0.29698 0.0
C3255 C 0.94868 0.93523 0.2885 0.0
C3256 C 0.9438 0.92491 0.26916 0.0
H3257 H 0.05396 0.86557 0.33902 0.0
H3258 H 0.01873 0.87776 0.32799 0.0
C3259 C 0.92506 0.92966 0.25817 0.0
C3260 C 0.96881 0.93058 0.29971 0.0
H3261 H 0.02281 0.93311 0.29385 0.0
C3262 C 0.96796 0.92024 0.3195 0.0
C3263 C 0.98877 0.93586 0.29064 0.0
C3264 C 0.99051 0.94792 0.26992 0.0
C3265 C 0.98671 0.91429 0.33013 0.0
C3266 C 0.00666 0.91864 0.32052 0.0
C3267 C 0.00746 0.92966 0.3011 0.0
C3268 C 0.02698 0.91136 0.32983 0.0
C3269 C 0.98504 0.90344 0.3515 0.0
C3270 C 0.04324 0.92622 0.33454 0.0
C3271 C 0.06342 0.91934 0.34066 0.0
C3272 C 0.06776 0.8974 0.34206 0.0
C3273 C 0.05117 0.88256 0.33812 0.0
C3274 C 0.03097 0.88949 0.33195 0.0
H3275 H 0.96951 0.90666 0.35929 0.0
H3276 H 0.98627 0.88593 0.34919 0.0
H3277 H -0.00186 0.90873 0.36235 0.0
H3278 H 0.04046 0.94317 0.33292 0.0
H3279 H 0.07576 0.93123 0.34371 0.0
H3280 H 0.48541 0.29376 0.16108 0.0
H3281 H 0.4647 0.31004 0.18973 0.0
H3282 H 0.45157 0.24776 0.21597 0.0
H3283 H 0.47196 0.23131 0.1872 0.0
H3284 H 0.41529 0.27285 0.2114 0.0
H3285 H 0.48064 0.31761 0.25265 0.0
H3286 H 0.47852 0.32275 0.22456 0.0
H3287 H 0.48566 0.29661 0.23359 0.0
C3288 C 0.47832 0.28354 0.17309 0.0
C3289 C 0.48034 0.26126 0.17192 0.0
C3290 C 0.46655 0.29288 0.18948 0.0
C3291 C 0.45679 0.28011 0.20507 0.0
C3292 C 0.45902 0.25788 0.2041 0.0
H3293 H 0.38096 0.29866 0.31755 0.0
H3294 H 0.39804 0.2846 0.28563 0.0
C3295 C 0.47073 0.24853 0.1877 0.0
C3296 C 0.44357 0.28981 0.22195 0.0
H3297 H 0.44546 0.32408 0.26438 0.0
C3298 C 0.42187 0.28404 0.22301 0.0
C3299 C 0.4522 0.30446 0.23699 0.0
C3300 C 0.47557 0.31062 0.23708 0.0
C3301 C 0.40852 0.29262 0.2387 0.0
C3302 C 0.4172 0.3071 0.25386 0.0
C3303 C 0.43884 0.31305 0.25264 0.0
C3304 C 0.40448 0.31556 0.27177 0.0
C3305 C 0.3852 0.28629 0.23879 0.0
C3306 C 0.40229 0.33765 0.27449 0.0
C3307 C 0.39259 0.34579 0.29278 0.0
C3308 C 0.38508 0.33196 0.30881 0.0
C3309 C 0.38651 0.30979 0.30555 0.0
C3310 C 0.39619 0.30169 0.28725 0.0
H3311 H 0.37989 0.28011 0.22296 0.0
H3312 H 0.38262 0.27346 0.25067 0.0
H3313 H 0.37508 0.3 0.24326 0.0
H3314 H 0.40865 0.34861 0.26273 0.0
H3315 H 0.39179 0.36294 0.29472 0.0
H3316 H 0.487 0.68417 0.87903 0.0
H3317 H 0.46596 0.65387 0.89221 0.0
H3318 H 0.50151 0.65584 0.95129 0.0
H3319 H 0.52301 0.68557 0.93803 0.0
H3320 H 0.48747 0.61419 0.93979 0.0
H3321 H 0.42178 0.67349 0.93503 0.0
H3322 H 0.43464 0.66565 0.91073 0.0
H3323 H 0.44911 0.68124 0.93024 0.0
C3324 C 0.49071 0.67776 0.89461 0.0
C3325 C 0.5063 0.68759 0.90774 0.0
C3326 C 0.47868 0.66044 0.90209 0.0
C3327 C 0.4818 0.65302 0.92292 0.0
C3328 C 0.49879 0.66139 0.93517 0.0
H3329 H 0.44713 0.62972 0.0381 0.0
H3330 H 0.46193 0.62423 0.0029 0.0
C3331 C 0.51102 0.67848 0.9276 0.0
C3332 C 0.4655 0.63963 0.93366 0.0
H3333 H 0.41783 0.64564 0.95874 0.0
C3334 C 0.47192 0.62065 0.94344 0.0
C3335 C 0.44501 0.64784 0.93808 0.0
C3336 C 0.43713 0.66819 0.92809 0.0
C3337 C 0.45942 0.61105 0.95934 0.0
C3338 C 0.44034 0.62097 0.96577 0.0
C3339 C 0.43259 0.63817 0.95394 0.0
C3340 C 0.43147 0.61797 0.98742 0.0
C3341 C 0.46751 0.5913 0.97016 0.0
C3342 C 0.40934 0.61602 0.99067 0.0
C3343 C 0.40073 0.61949 0.01096 0.0
C3344 C 0.41416 0.62527 0.02812 0.0
C3345 C 0.43635 0.62562 0.0251 0.0
C3346 C 0.44489 0.62205 0.00499 0.0
H3347 H 0.47538 0.58069 0.95842 0.0
H3348 H 0.47968 0.59593 0.9823 0.0
H3349 H 0.45444 0.58226 0.97812 0.0
H3350 H 0.39868 0.61315 0.97729 0.0
H3351 H 0.38356 0.619 0.01289 0.0
H3352 H 0.04934 0.74398 0.65976 0.0
H3353 H 0.07489 0.74456 0.6894 0.0
H3354 H 0.09745 0.68265 0.67014 0.0
H3355 H 0.07274 0.68222 0.64036 0.0
H3356 H 0.07179 0.71774 0.72046 0.0
H3357 H 0.15257 0.70896 0.68828 0.0
H3358 H 0.13049 0.71727 0.67178 0.0
H3359 H 0.13558 0.68929 0.67593 0.0
C3360 C 0.0601 0.73072 0.66157 0.0
C3361 C 0.05879 0.71293 0.64784 0.0
C3362 C 0.07479 0.73115 0.67842 0.0
C3363 C 0.08836 0.71381 0.6818 0.0
C3364 C 0.0877 0.69654 0.66751 0.0
H3365 H 0.12591 0.63218 0.77514 0.0
H3366 H 0.1218 0.65346 0.74278 0.0
C3367 C 0.07323 0.69617 0.65061 0.0
C3368 C 0.10012 0.71158 0.70217 0.0
H3369 H 0.14574 0.69045 0.7226 0.0
C3370 C 0.08822 0.71252 0.72105 0.0
C3371 C 0.12158 0.70485 0.70296 0.0
C3372 C 0.13579 0.70529 0.68361 0.0
C3373 C 0.09642 0.70481 0.74027 0.0
C3374 C 0.11714 0.69614 0.74057 0.0
C3375 C 0.12974 0.69686 0.72217 0.0
C3376 C 0.12454 0.68388 0.7591 0.0
C3377 C 0.08223 0.7044 0.7597 0.0
C3378 C 0.12829 0.69405 0.7787 0.0
C3379 C 0.13041 0.68199 0.79719 0.0
C3380 C 0.12891 0.65955 0.79631 0.0
C3381 C 0.12695 0.64941 0.77636 0.0
C3382 C 0.12472 0.66153 0.75787 0.0
H3383 H 0.06571 0.70951 0.75605 0.0
H3384 H 0.08151 0.68809 0.76654 0.0
H3385 H 0.08895 0.7153 0.77208 0.0
H3386 H 0.12838 0.71131 0.77985 0.0
H3387 H 0.13234 0.69029 0.81229 0.0
H3388 H 0.98013 0.30857 0.43166 0.0
H3389 H -0.00576 0.33041 0.46115 0.0
H3390 H 0.05738 0.32706 0.43425 0.0
H3391 H 0.04344 0.30552 0.40469 0.0
H3392 H 0.02506 0.31644 0.48914 0.0
H3393 H 0.0525 0.39047 0.44906 0.0
H3394 H 0.034 0.37174 0.43675 0.0
H3395 H 0.06216 0.36656 0.43678 0.0
C3396 C -0.00302 0.31267 0.43196 0.0
C3397 C 0.01072 0.30532 0.41597 0.0
C3398 C 0.00497 0.32521 0.4487 0.0
C3399 C 0.02674 0.33067 0.44958 0.0
C3400 C 0.04043 0.3235 0.43352 0.0
H3401 H 0.11655 0.36897 0.54536 0.0
H3402 H 0.09824 0.36267 0.51114 0.0
C3403 C 0.03247 0.31099 0.4168 0.0
C3404 C 0.03565 0.34174 0.46847 0.0
H3405 H 0.06612 0.38452 0.4844 0.0
C3406 C 0.03374 0.33149 0.48819 0.0
C3407 C 0.04711 0.36126 0.46702 0.0
C3408 C 0.04893 0.37327 0.44629 0.0
C3409 C 0.04366 0.33984 0.50646 0.0
C3410 C 0.05541 0.3592 0.505 0.0
C3411 C 0.05704 0.36971 0.48537 0.0
C3412 C 0.06666 0.36805 0.52377 0.0
C3413 C 0.04213 0.32743 0.52703 0.0
C3414 C 0.05496 0.37422 0.5417 0.0
C3415 C 0.06526 0.37744 0.56118 0.0
C3416 C 0.08745 0.37491 0.56286 0.0
C3417 C 0.09942 0.37093 0.54442 0.0
C3418 C 0.08901 0.36738 0.52492 0.0
H3419 H 0.03649 0.31075 0.52432 0.0
H3420 H 0.05784 0.32703 0.53527 0.0
H3421 H 0.03061 0.33531 0.53781 0.0
H3422 H 0.03771 0.37511 0.54094 0.0
H3423 H 0.05575 0.38087 0.57515 0.0
H3424 H 0.48734 0.76872 0.30779 0.0
H3425 H 0.4665 0.76863 0.27452 0.0
H3426 H 0.48584 0.70398 0.26195 0.0
H3427 H 0.50605 0.70373 0.29533 0.0
H3428 H 0.47402 0.76074 0.23115 0.0
H3429 H 0.42085 0.69935 0.26585 0.0
H3430 H 0.44007 0.71425 0.28167 0.0
H3431 H 0.4481 0.691 0.26685 0.0
C3432 C 0.48742 0.75465 0.29769 0.0
C3433 C 0.49794 0.73608 0.3042 0.0
C3434 C 0.47551 0.75462 0.27877 0.0
C3435 C 0.47419 0.73609 0.26619 0.0
C3436 C 0.48621 0.71823 0.27181 0.0
H3437 H 0.44787 0.69791 0.14306 0.0
H3438 H 0.45902 0.71945 0.17359 0.0
C3439 C 0.49781 0.71813 0.29079 0.0
C3440 C 0.45928 0.73455 0.24796 0.0
H3441 H 0.4212 0.70122 0.22742 0.0
C3442 C 0.46214 0.74802 0.23037 0.0
C3443 C 0.44311 0.71864 0.24737 0.0
C3444 C 0.43767 0.70518 0.26657 0.0
C3445 C 0.45058 0.74457 0.21139 0.0
C3446 C 0.43645 0.72678 0.20989 0.0
C3447 C 0.43223 0.71467 0.22824 0.0
C3448 C 0.4282 0.7184 0.18923 0.0
C3449 C 0.45396 0.7598 0.19312 0.0
C3450 C 0.40711 0.71058 0.18762 0.0
C3451 C 0.40102 0.69741 0.17057 0.0
C3452 C 0.41574 0.6924 0.15457 0.0
C3453 C 0.4362 0.70171 0.15516 0.0
C3454 C 0.4425 0.7143 0.17253 0.0
H3455 H 0.45643 0.77634 0.19917 0.0
H3456 H 0.4686 0.75535 0.18434 0.0
H3457 H 0.44022 0.75962 0.18186 0.0
H3458 H 0.39575 0.71352 0.20025 0.0
H3459 H 0.38507 0.69051 0.17031 0.0
H3460 H 0.00492 0.68204 0.07376 0.0
H3461 H 0.01432 0.66253 0.04145 0.0
H3462 H 0.07295 0.64255 0.07109 0.0
H3463 H 0.06356 0.66151 0.10356 0.0
H3464 H 0.04989 0.67834 0.02232 0.0
H3465 H 0.05863 0.5913 0.03353 0.0
H3466 H 0.04303 0.60763 0.0513 0.0
H3467 H 0.0716 0.60677 0.05409 0.0
C3468 C 0.01944 0.67285 0.07372 0.0
C3469 C 0.03376 0.67381 0.09105 0.0
C3470 C 0.02474 0.66163 0.05525 0.0
C3471 C 0.04436 0.65117 0.05385 0.0
C3472 C 0.05759 0.65023 0.0719 0.0
H3473 H 0.13535 0.62822 0.95391 0.0
H3474 H 0.11606 0.62965 0.98791 0.0
C3475 C 0.05226 0.66132 0.09043 0.0
C3476 C 0.05314 0.6458 0.03269 0.0
H3477 H 0.07778 0.60687 0.00397 0.0
C3478 C 0.05561 0.66259 0.01816 0.0
C3479 C 0.06099 0.62538 0.02754 0.0
C3480 C 0.05826 0.60669 0.04238 0.0
C3481 C 0.06622 0.65973 -0.00118 0.0
C3482 C 0.07424 0.63939 0.99369 0.0
C3483 C 0.07159 0.62244 0.00805 0.0
C3484 C 0.08538 0.63575 0.97336 0.0
C3485 C 0.0694 0.67873 0.98437 0.0
C3486 C 0.07434 0.63824 0.9541 0.0
C3487 C 0.08526 0.63777 0.93482 0.0
C3488 C 0.10744 0.63454 0.93443 0.0
C3489 C 0.11831 0.63094 0.95373 0.0
C3490 C 0.10733 0.63161 0.97311 0.0
H3491 H 0.06687 0.69406 0.9929 0.0
H3492 H 0.0857 0.67894 0.97749 0.0
H3493 H 0.05775 0.67772 0.971 0.0
H3494 H 0.05733 0.64115 0.95402 0.0
H3495 H 0.07629 0.64014 0.92023 0.0
H3496 H 0.03133 0.24692 0.84252 0.0
H3497 H 0.05291 0.26866 0.81851 0.0
H3498 H 0.01647 0.24488 0.76474 0.0
H3499 H -0.00548 0.223 0.78875 0.0
H3500 H 0.07766 0.25731 0.78105 0.0
H3501 H 0.00989 0.31143 0.76469 0.0
H3502 H 0.00994 0.29307 0.7868 0.0
H3503 H 0.00461 0.28349 0.76024 0.0
C3504 C 0.02794 0.24615 0.82557 0.0
C3505 C 0.01104 0.23342 0.81754 0.0
C3506 C 0.04037 0.25852 0.8119 0.0
C3507 C 0.03606 0.25851 0.78999 0.0
C3508 C 0.01982 0.24519 0.78171 0.0
H3509 H 0.10035 0.31124 0.68333 0.0
H3510 H 0.08858 0.28867 0.71265 0.0
C3511 C 0.00739 0.23267 0.79541 0.0
C3512 C 0.04788 0.27335 0.77605 0.0
H3513 H 0.04165 0.31756 0.74531 0.0
C3514 C 0.06986 0.27052 0.77324 0.0
C3515 C 0.03766 0.29081 0.76637 0.0
C3516 C 0.01426 0.29509 0.76975 0.0
C3517 C 0.08182 0.28441 0.76033 0.0
C3518 C 0.07141 0.30138 0.75 0.0
C3519 C 0.04956 0.30454 0.75334 0.0
C3520 C 0.08227 0.31495 0.73412 0.0
C3521 C 0.10543 0.28081 0.75781 0.0
C3522 C 0.08295 0.33723 0.73664 0.0
C3523 C 0.08965 0.35025 0.71983 0.0
C3524 C 0.09539 0.3411 0.70021 0.0
C3525 C 0.09584 0.31874 0.69823 0.0
C3526 C 0.08931 0.3058 0.71503 0.0
H3527 H 0.112 0.27146 0.7713 0.0
H3528 H 0.10819 0.27168 0.74288 0.0
H3529 H 0.11433 0.2962 0.75673 0.0
H3530 H 0.07741 0.34453 0.75127 0.0
H3531 H 0.08909 0.36741 0.72177 0.0
H3532 H 0.44364 0.25604 0.60127 0.0
H3533 H 0.4211 0.27423 0.57539 0.0
H3534 H 0.47689 0.29224 0.53928 0.0
H3535 H 0.49967 0.27437 0.56538 0.0
H3536 H 0.44795 0.32568 0.54549 0.0
H3537 H 0.4068 0.25219 0.51555 0.0
H3538 H 0.40549 0.25638 0.54387 0.0
H3539 H 0.43078 0.25134 0.53155 0.0
C3540 C 0.45114 0.26381 0.58778 0.0
C3541 C 0.47343 0.26366 0.58526 0.0
C3542 C 0.43821 0.27413 0.57299 0.0
C3543 C 0.4473 0.2843 0.55529 0.0
C3544 C 0.46957 0.2844 0.55283 0.0
H3545 H 0.41603 0.34157 0.43867 0.0
H3546 H 0.43117 0.33054 0.47262 0.0
C3547 C 0.48255 0.27415 0.56769 0.0
C3548 C 0.43365 0.29482 0.53927 0.0
H3549 H 0.3958 0.28486 0.50106 0.0
C3550 C 0.43645 0.31679 0.53585 0.0
C3551 C 0.41851 0.28321 0.52689 0.0
C3552 C 0.41526 0.25945 0.52946 0.0
C3553 C 0.42486 0.32738 0.52 0.0
C3554 C 0.41032 0.31561 0.50711 0.0
C3555 C 0.40688 0.29384 0.51109 0.0
C3556 C 0.40066 0.32481 0.48773 0.0
C3557 C 0.42848 0.35101 0.51696 0.0
C3558 C 0.37841 0.32524 0.48496 0.0
C3559 C 0.36962 0.33159 0.46543 0.0
C3560 C 0.38303 0.33715 0.44834 0.0
C3561 C 0.40526 0.33726 0.45148 0.0
C3562 C 0.41397 0.33115 0.47095 0.0
H3563 H 0.43452 0.35875 0.53183 0.0
H3564 H 0.44064 0.35353 0.50436 0.0
H3565 H 0.41357 0.35898 0.51192 0.0
H3566 H 0.36791 0.32019 0.49771 0.0
H3567 H 0.35244 0.33124 0.46343 0.0
H3568 H 0.17749 0.50782 0.2794 0.0
H3569 H 0.20229 0.48712 0.301 0.0
H3570 H 0.2331 0.46487 0.24382 0.0
H3571 H 0.20848 0.4856 0.22208 0.0
H3572 H 0.20502 0.44215 0.29734 0.0
H3573 H 0.28325 0.4821 0.28321 0.0
H3574 H 0.25813 0.49493 0.278 0.0
H3575 H 0.26844 0.47585 0.25934 0.0
C3576 C 0.18985 0.49891 0.27143 0.0
C3577 C 0.19101 0.49827 0.24904 0.0
C3578 C 0.20393 0.48705 0.2838 0.0
C3579 C 0.21951 0.47456 0.27398 0.0
C3580 C 0.22135 0.47465 0.25169 0.0
H3581 H 0.3121 0.38242 0.31176 0.0
H3582 H 0.286 0.40381 0.29273 0.0
C3583 C 0.20724 0.48647 0.2393 0.0
C3584 C 0.23263 0.46001 0.28688 0.0
H3585 H 0.28402 0.44785 0.2994 0.0
C3586 C 0.2223 0.44346 0.29799 0.0
C3587 C 0.25511 0.46179 0.28755 0.0
C3588 C 0.26692 0.47973 0.27655 0.0
C3589 C 0.23394 0.42823 0.30932 0.0
C3590 C 0.25644 0.42985 0.30974 0.0
C3591 C 0.26674 0.4466 0.29889 0.0
C3592 C 0.26981 0.41437 0.32122 0.0
C3593 C 0.22216 0.4102 0.3202 0.0
C3594 C 0.26885 0.41268 0.34352 0.0
C3595 C 0.28369 0.40032 0.35449 0.0
C3596 C 0.29986 0.38973 0.34329 0.0
C3597 C 0.29994 0.3905 0.32087 0.0
C3598 C 0.28507 0.40274 0.30995 0.0
H3599 H 0.20554 0.40838 0.31416 0.0
H3600 H 0.23056 0.39488 0.31789 0.0
H3601 H 0.22145 0.41353 0.33759 0.0
H3602 H 0.25736 0.42178 0.35252 0.0
H3603 H 0.28332 0.40019 0.37177 0.0
H3604 H 0.2803 0.42166 0.05627 0.0
H3605 H 0.30228 0.44958 0.07303 0.0
H3606 H 0.34099 0.45349 0.01637 0.0
H3607 H 0.31871 0.42591 -0.00074 0.0
H3608 H 0.34611 0.45204 0.08185 0.0
H3609 H 0.32069 0.51443 0.02463 0.0
H3610 H 0.30734 0.48885 0.02642 0.0
H3611 H 0.33226 0.49135 0.01246 0.0
C3612 C 0.29345 0.42852 0.04735 0.0
C3613 C 0.29767 0.42184 0.02638 0.0
C3614 C 0.30606 0.44434 0.057 0.0
C3615 C 0.32309 0.45368 0.04585 0.0
C3616 C 0.32767 0.44668 0.02509 0.0
H3617 H 0.39693 0.56706 0.07267 0.0
H3618 H 0.38865 0.53064 0.06091 0.0
C3619 C 0.31494 0.43097 0.01535 0.0
C3620 C 0.33539 0.47142 0.05567 0.0
H3621 H 0.34645 0.52443 0.05023 0.0
C3622 C 0.34633 0.46788 0.07493 0.0
C3623 C 0.33548 0.49201 0.04661 0.0
C3624 C 0.32317 0.49702 0.0265 0.0
C3625 C 0.35742 0.48452 0.08539 0.0
C3626 C 0.35734 0.5051 0.07636 0.0
C3627 C 0.34664 0.50851 0.05698 0.0
C3628 C 0.3671 0.5239 0.08698 0.0
C3629 C 0.36913 0.48 0.1059 0.0
C3630 C 0.35852 0.53171 0.10614 0.0
C3631 C 0.36348 0.55246 0.11302 0.0
C3632 C 0.37679 0.56551 0.10061 0.0
C3633 C 0.38667 0.5571 0.08246 0.0
C3634 C 0.38197 0.53637 0.07576 0.0
H3635 H 0.37245 0.46273 0.10768 0.0
H3636 H 0.38445 0.48909 0.10672 0.0
H3637 H 0.35916 0.48503 0.11957 0.0
H3638 H 0.34669 0.52248 0.11478 0.0
H3639 H 0.35553 0.55887 0.12692 0.0
H3640 H 0.29008 0.48243 0.72934 0.0
H3641 H 0.26781 0.50647 0.75018 0.0
H3642 H 0.31398 0.50625 0.80134 0.0
H3643 H 0.3365 0.48224 0.78069 0.0
H3644 H 0.26632 0.50209 0.81207 0.0
H3645 H 0.28987 0.57082 0.76107 0.0
H3646 H 0.28156 0.5468 0.74737 0.0
H3647 H 0.30561 0.54694 0.76302 0.0
C3648 C 0.29539 0.48718 0.74516 0.0
C3649 C 0.31521 0.4806 0.75324 0.0
C3650 C 0.28268 0.50099 0.75697 0.0
C3651 C 0.28951 0.50831 0.77706 0.0
C3652 C 0.30861 0.50084 0.78575 0.0
H3653 H 0.21905 0.59124 0.86469 0.0
H3654 H 0.24859 0.57091 0.84968 0.0
C3655 C 0.32141 0.48713 0.77391 0.0
C3656 C 0.27712 0.52453 0.78851 0.0
H3657 H 0.26195 0.5765 0.78576 0.0
C3658 C 0.26549 0.51844 0.80656 0.0
C3659 C 0.2763 0.54579 0.78119 0.0
C3660 C 0.2891 0.55314 0.76219 0.0
C3661 C 0.25209 0.5329 0.81694 0.0
C3662 C 0.25083 0.55408 0.80928 0.0
C3663 C 0.26308 0.5603 0.79164 0.0
C3664 C 0.23512 0.56923 0.81786 0.0
C3665 C 0.23861 0.52509 0.8353 0.0
C3666 C 0.21856 0.57613 0.80459 0.0
C3667 C 0.20185 0.5879 0.813 0.0
C3668 C 0.20137 0.59297 0.83488 0.0
C3669 C 0.21886 0.58748 0.84781 0.0
C3670 C 0.23565 0.57569 0.83932 0.0
H3671 H 0.23846 0.50741 0.8365 0.0
H3672 H 0.24514 0.53171 0.85047 0.0
H3673 H 0.22191 0.53056 0.8336 0.0
H3674 H 0.218 0.57148 0.78792 0.0
H3675 H 0.18879 0.59209 0.80252 0.0
H3676 H 0.18576 0.56806 0.51938 0.0
H3677 H 0.15761 0.54399 0.53154 0.0
H3678 H 0.12923 0.59533 0.56718 0.0
H3679 H 0.15766 0.61945 0.5554 0.0
H3680 H 0.14155 0.56459 0.59251 0.0
H3681 H 0.09577 0.52718 0.5271 0.0
H3682 H 0.12354 0.52702 0.52045 0.0
H3683 H 0.11015 0.55214 0.52376 0.0
C3684 C 0.17307 0.57446 0.52909 0.0
C3685 C 0.17419 0.59548 0.53685 0.0
C3686 C 0.15681 0.5607 0.53592 0.0
C3687 C 0.14126 0.56786 0.55029 0.0
C3688 C 0.14105 0.58948 0.55611 0.0
H3689 H 0.09988 0.46539 0.63842 0.0
H3690 H 0.09631 0.50064 0.62184 0.0
C3691 C 0.15739 0.60319 0.54945 0.0
C3692 C 0.12901 0.552 0.56286 0.0
H3693 H 0.10468 0.50339 0.55738 0.0
C3694 C 0.13274 0.55156 0.58499 0.0
C3695 C 0.11732 0.53517 0.55312 0.0
C3696 C 0.11129 0.53557 0.52982 0.0
C3697 C 0.12757 0.5335 0.59708 0.0
C3698 C 0.11818 0.51563 0.58674 0.0
C3699 C 0.11216 0.51706 0.56518 0.0
C3700 C 0.11881 0.49428 0.59655 0.0
C3701 C 0.13417 0.53285 0.62026 0.0
C3702 C 0.13253 0.47916 0.58776 0.0
C3703 C 0.13461 0.45923 0.59708 0.0
C3704 C 0.123 0.45393 0.6155 0.0
C3705 C 0.10925 0.46913 0.62441 0.0
C3706 C 0.10709 0.48918 0.61492 0.0
H3707 H 0.14282 0.5476 0.62538 0.0
H3708 H 0.11979 0.53096 0.63038 0.0
H3709 H 0.14462 0.51898 0.62319 0.0
H3710 H 0.1419 0.48291 0.57373 0.0
H3711 H 0.14535 0.44794 0.5898 0.0
H3712 H 0.16734 0.58018 0.15864 0.0
H3713 H 0.19704 0.60538 0.15536 0.0
H3714 H 0.20791 0.60263 0.22329 0.0
H3715 H 0.17859 0.57671 0.22668 0.0
H3716 H 0.21079 0.64437 0.17224 0.0
H3717 H 0.26203 0.57747 0.19929 0.0
H3718 H 0.23412 0.57361 0.19326 0.0
H3719 H 0.24221 0.5864 0.21777 0.0
C3720 C 0.17576 0.58519 0.17298 0.0
C3721 C 0.17097 0.57602 0.19284 0.0
C3722 C 0.19269 0.59971 0.17108 0.0
C3723 C 0.20496 0.60546 0.18901 0.0
C3724 C 0.19893 0.59797 0.20919 0.0
H3725 H 0.33743 0.64341 0.16937 0.0
H3726 H 0.30354 0.64249 0.18839 0.0
C3727 C 0.18218 0.58317 0.21107 0.0
C3728 C 0.2256 0.61668 0.18582 0.0
H3729 H 0.27904 0.60729 0.18519 0.0
C3730 C 0.22578 0.6365 0.17544 0.0
C3731 C 0.24513 0.60639 0.19009 0.0
C3732 C 0.246 0.58474 0.20057 0.0
C3733 C 0.24493 0.64573 0.16817 0.0
C3734 C 0.26422 0.6347 0.17117 0.0
C3735 C 0.26419 0.61571 0.18292 0.0
C3736 C 0.28409 0.64054 0.15983 0.0
C3737 C 0.24425 0.66685 0.15678 0.0
C3738 C 0.28436 0.6403 0.13744 0.0
C3739 C 0.30371 0.64075 0.12648 0.0
C3740 C 0.32315 0.64118 0.13776 0.0
C3741 C 0.32277 0.6428 0.16017 0.0
C3742 C 0.3034 0.64243 0.17109 0.0
H3743 H 0.23073 0.67661 0.16251 0.0
H3744 H 0.25935 0.67607 0.15902 0.0
H3745 H 0.24183 0.66394 0.13945 0.0
H3746 H 0.26968 0.63832 0.12842 0.0
H3747 H 0.3034 0.63957 0.10923 0.0
H3748 H 0.22047 0.40647 0.95906 0.0
H3749 H 0.19669 0.42509 0.93472 0.0
H3750 H 0.18594 0.47326 0.9827 0.0
H3751 H 0.20939 0.45453 0.00743 0.0
H3752 H 0.14827 0.45903 0.96095 0.0
H3753 H 0.21387 0.48056 0.9049 0.0
H3754 H 0.21039 0.45268 0.91062 0.0
H3755 H 0.21905 0.47068 0.93138 0.0
C3756 C 0.21314 0.42108 0.96447 0.0
C3757 C 0.21703 0.42915 0.98516 0.0
C3758 C 0.19953 0.43165 0.95051 0.0
C3759 C 0.18977 0.45062 0.95686 0.0
C3760 C 0.19334 0.45858 0.97755 0.0
H3761 H 0.13419 0.56147 0.92142 0.0
H3762 H 0.14036 0.52686 0.93744 0.0
C3763 C 0.20684 0.44794 0.9916 0.0
C3764 C 0.17652 0.46277 0.94176 0.0
H3765 H 0.18012 0.49412 0.89764 0.0
C3766 C 0.15511 0.46648 0.94691 0.0
C3767 C 0.18542 0.47215 0.9233 0.0
C3768 C 0.20847 0.469 0.9172 0.0
C3769 C 0.14266 0.48031 0.93468 0.0
C3770 C 0.15203 0.49087 0.91711 0.0
C3771 C 0.17294 0.48593 0.91108 0.0
C3772 C 0.14234 0.50988 0.90735 0.0
C3773 C 0.11984 0.48405 0.94109 0.0
C3774 C 0.14083 0.51178 0.88507 0.0
C3775 C 0.13742 0.53172 0.87581 0.0
C3776 C 0.13585 0.54999 0.88877 0.0
C3777 C 0.13556 0.54768 0.91105 0.0
C3778 C 0.13882 0.52781 0.92025 0.0
H3779 H 0.11275 0.46954 0.94851 0.0
H3780 H 0.11942 0.49707 0.95314 0.0
H3781 H 0.10986 0.48867 0.92722 0.0
H3782 H 0.1437 0.49813 0.87486 0.0
H3783 H 0.13771 0.53307 0.85859 0.0
H3784 H 0.33864 0.40402 0.7616 0.0
H3785 H 0.30436 0.38531 0.75709 0.0
H3786 H 0.31076 0.3896 0.68871 0.0
H3787 H 0.34483 0.40822 0.6931 0.0
H3788 H 0.27351 0.40912 0.73755 0.0
H3789 H 0.28042 0.33216 0.69532 0.0
H3790 H 0.30231 0.34406 0.71027 0.0
H3791 H 0.29701 0.35222 0.68325 0.0
C3792 C 0.33311 0.40019 0.74562 0.0
C3793 C 0.34414 0.4078 0.72766 0.0
C3794 C 0.31357 0.38947 0.74309 0.0
C3795 C 0.30512 0.38596 0.72259 0.0
C3796 C 0.31718 0.39175 0.70467 0.0
H3797 H 0.20113 0.39175 0.64297 0.0
H3798 H 0.23446 0.38667 0.66247 0.0
C3799 C 0.33655 0.4026 0.70719 0.0
C3800 C 0.28219 0.38116 0.71964 0.0
H3801 H 0.24831 0.35267 0.68744 0.0
C3802 C 0.26777 0.39636 0.72718 0.0
C3803 C 0.27488 0.36456 0.70608 0.0
C3804 C 0.28948 0.34721 0.69846 0.0
C3805 C 0.24669 0.39672 0.71974 0.0
C3806 C 0.23983 0.38109 0.70479 0.0
C3807 C 0.25373 0.36476 0.69874 0.0
C3808 C 0.21936 0.38302 0.69327 0.0
C3809 C 0.23257 0.41488 0.72651 0.0
C3810 C 0.19989 0.38261 0.70418 0.0
C3811 C 0.18083 0.3859 0.69314 0.0
C3812 C 0.18095 0.3893 0.67095 0.0
C3813 C 0.2005 0.38928 0.66005 0.0
C3814 C 0.21953 0.38623 0.67114 0.0
H3815 H 0.24163 0.42764 0.73513 0.0
H3816 H 0.22463 0.42206 0.71245 0.0
H3817 H 0.21999 0.40871 0.73734 0.0
H3818 H 0.19943 0.3798 0.72121 0.0
H3819 H 0.166 0.38545 0.70194 0.0
H3820 H 0.25079 0.57611 0.45595 0.0
H3821 H 0.27034 0.54807 0.43757 0.0
H3822 H 0.28225 0.5172 0.49776 0.0
H3823 H 0.26306 0.54546 0.51634 0.0
H3824 H 0.31877 0.52319 0.47385 0.0
H3825 H 0.25436 0.48644 0.42428 0.0
H3826 H 0.2571 0.5148 0.4212 0.0
H3827 H 0.24891 0.50399 0.44645 0.0
C3828 C 0.25721 0.56314 0.46525 0.0
C3829 C 0.25537 0.56298 0.4876 0.0
C3830 C 0.26835 0.54709 0.4547 0.0
C3831 C 0.27761 0.53047 0.46628 0.0
C3832 C 0.2752 0.5299 0.48853 0.0
H3833 H 0.34909 0.41816 0.44085 0.0
H3834 H 0.33367 0.45007 0.45659 0.0
C3835 C 0.26414 0.54599 0.49911 0.0
C3836 C 0.29089 0.5144 0.45539 0.0
H3837 H 0.28966 0.47538 0.41725 0.0
C3838 C 0.3124 0.5127 0.4615 0.0
C3839 C 0.28259 0.50088 0.43916 0.0
C3840 C 0.25943 0.50143 0.43248 0.0
C3841 C 0.32583 0.49778 0.45183 0.0
C3842 C 0.31745 0.4841 0.43581 0.0
C3843 C 0.29606 0.48604 0.42944 0.0
C3844 C 0.33 0.46654 0.42656 0.0
C3845 C 0.34888 0.49682 0.45875 0.0
C3846 C 0.33341 0.46539 0.40447 0.0
C3847 C 0.34228 0.44714 0.39538 0.0
C3848 C 0.34753 0.42961 0.40824 0.0
C3849 C 0.34517 0.43135 0.43049 0.0
C3850 C 0.33645 0.44963 0.43955 0.0
H3851 H 0.35425 0.51194 0.46653 0.0
H3852 H 0.35075 0.48375 0.47047 0.0
H3853 H 0.35944 0.49351 0.44497 0.0
H3854 H 0.32843 0.47827 0.39419 0.0
H3855 H 0.34376 0.44627 0.37819 0.0
H3856 H 0.20785 0.19615 0.49813 0.0
H3857 H 0.22095 0.22013 0.47014 0.0
H3858 H 0.28153 0.18827 0.47066 0.0
H3859 H 0.26869 0.16423 0.49825 0.0
H3860 H 0.25573 0.24768 0.4715 0.0
H3861 H 0.26625 0.18776 0.40741 0.0
H3862 H 0.25068 0.18244 0.43104 0.0
H3863 H 0.2793 0.18038 0.43177 0.0
C3864 C 0.22396 0.19425 0.49228 0.0
C3865 C 0.23715 0.17815 0.50034 0.0
C3866 C 0.23136 0.20789 0.47623 0.0
C3867 C 0.25198 0.20554 0.46795 0.0
C3868 C 0.26532 0.18989 0.47635 0.0
H3869 H 0.34608 0.27413 0.40015 0.0
H3870 H 0.32341 0.24642 0.41598 0.0
C3871 C 0.25798 0.17628 0.4923 0.0
C3872 C 0.26024 0.22019 0.45142 0.0
H3873 H 0.28533 0.22111 0.40314 0.0
C3874 C 0.26182 0.24198 0.45636 0.0
C3875 C 0.26817 0.21262 0.4317 0.0
C3876 C 0.26583 0.18955 0.42505 0.0
C3877 C 0.27221 0.25627 0.44263 0.0
C3878 C 0.28092 0.24855 0.42332 0.0
C3879 C 0.27865 0.22691 0.41798 0.0
C3880 C 0.29382 0.26261 0.40946 0.0
C3881 C 0.27474 0.27933 0.44941 0.0
C3882 C 0.2845 0.28015 0.39947 0.0
C3883 C 0.29738 0.29603 0.39049 0.0
C3884 C 0.31977 0.29451 0.39129 0.0
C3885 C 0.32891 0.27581 0.39934 0.0
C3886 C 0.31599 0.25998 0.40843 0.0
H3887 H 0.27042 0.28183 0.4664 0.0
H3888 H 0.29144 0.28496 0.44704 0.0
H3889 H 0.26419 0.28935 0.43946 0.0
H3890 H 0.26737 0.28221 0.39981 0.0
H3891 H 0.28983 0.31009 0.38411 0.0
H3892 H 0.71271 0.33139 0.56814 0.0
H3893 H 0.73432 0.30419 0.58576 0.0
H3894 H 0.78311 0.31245 0.53797 0.0
H3895 H 0.76212 0.3401 0.52097 0.0
H3896 H 0.74796 0.26708 0.57302 0.0
H3897 H 0.81859 0.31746 0.59067 0.0
H3898 H 0.79363 0.32857 0.58192 0.0
H3899 H 0.81254 0.31865 0.56276 0.0
C3900 C 0.72808 0.32738 0.5615 0.0
C3901 C 0.73589 0.33794 0.54336 0.0
C3902 C 0.74042 0.31194 0.57159 0.0
C3903 C 0.76062 0.30678 0.56356 0.0
C3904 C 0.76798 0.31678 0.54496 0.0
H3905 H 0.82722 0.19089 0.56717 0.0
H3906 H 0.80376 0.22107 0.56166 0.0
C3907 C 0.75587 0.33241 0.53512 0.0
C3908 C 0.77371 0.29022 0.57382 0.0
H3909 H 0.82491 0.27933 0.58836 0.0
C3910 C 0.76469 0.26985 0.57676 0.0
C3911 C 0.79537 0.29396 0.57935 0.0
C3912 C 0.80548 0.31594 0.57874 0.0
C3913 C 0.77714 0.25278 0.58362 0.0
C3914 C 0.79933 0.25604 0.58683 0.0
C3915 C 0.80801 0.27672 0.5854 0.0
C3916 C 0.81399 0.23805 0.59019 0.0
C3917 C 0.76638 0.2314 0.58713 0.0
C3918 C 0.82846 0.23815 0.60737 0.0
C3919 C 0.84237 0.22112 0.61022 0.0
C3920 C 0.84185 0.20372 0.596 0.0
C3921 C 0.82774 0.20396 0.57854 0.0
C3922 C 0.81416 0.22109 0.57551 0.0
H3923 H 0.74948 0.23337 0.59196 0.0
H3924 H 0.7664 0.22218 0.57197 0.0
H3925 H 0.7747 0.22203 0.59957 0.0
H3926 H 0.82877 0.25123 0.61872 0.0
H3927 H 0.85305 0.22128 0.62386 0.0
H3928 H 0.40819 0.02405 0.27419 0.0
H3929 H 0.43887 0.0147 0.29617 0.0
H3930 H 0.4325 0.07348 0.33155 0.0
H3931 H 0.40156 0.08274 0.31002 0.0
H3932 H 0.47388 0.03814 0.29437 0.0
H3933 H 0.44986 0.03387 0.37858 0.0
H3934 H 0.43073 0.03186 0.35697 0.0
H3935 H 0.4395 0.05761 0.36684 0.0
C3936 C 0.41301 0.03479 0.28697 0.0
C3937 C 0.40264 0.05434 0.29015 0.0
C3938 C 0.43046 0.02931 0.29961 0.0
C3939 C 0.43784 0.04325 0.31565 0.0
C3940 C 0.42676 0.06218 0.31965 0.0
H3941 H 0.54065 0.10362 0.36503 0.0
H3942 H 0.50696 0.08542 0.3575 0.0
C3943 C 0.4092 0.0676 0.30713 0.0
C3944 C 0.45916 0.0403 0.3253 0.0
H3945 H 0.48633 0.04758 0.37204 0.0
C3946 C 0.47666 0.03945 0.31142 0.0
C3947 C 0.46273 0.04181 0.34753 0.0
C3948 C 0.44464 0.0411 0.3633 0.0
C3949 C 0.49754 0.04254 0.31895 0.0
C3950 C 0.50092 0.04621 0.34099 0.0
C3951 C 0.48362 0.04494 0.35511 0.0
C3952 C 0.5213 0.05539 0.34885 0.0
C3953 C 0.51552 0.04384 0.303 0.0
C3954 C 0.54051 0.0443 0.34703 0.0
C3955 C 0.55995 0.0548 0.35105 0.0
C3956 C 0.56039 0.07646 0.3571 0.0
C3957 C 0.54097 0.08703 0.36016 0.0
C3958 C 0.52165 0.07659 0.35604 0.0
H3959 H 0.50969 0.04306 0.28625 0.0
H3960 H 0.52477 0.05893 0.3052 0.0
H3961 H 0.52652 0.03036 0.30555 0.0
H3962 H 0.5405 0.02782 0.34177 0.0
H3963 H 0.57461 0.04609 0.34885 0.0
H3964 H 0.67583 0.66851 0.05049 0.0
H3965 H 0.65686 0.69021 0.07638 0.0
H3966 H 0.71329 0.69355 0.11605 0.0
H3967 H 0.73271 0.6724 0.08959 0.0
H3968 H 0.64728 0.68312 0.11769 0.0
H3969 H 0.69918 0.75564 0.11078 0.0
H3970 H 0.7011 0.7335 0.09246 0.0
H3971 H 0.71228 0.73167 0.11884 0.0
C3972 C 0.68428 0.67398 0.06464 0.0
C3973 C 0.7058 0.66896 0.06794 0.0
C3974 C 0.67337 0.68628 0.07951 0.0
C3975 C 0.68368 0.69365 0.0981 0.0
C3976 C 0.70513 0.6884 0.10163 0.0
H3977 H 0.62232 0.79321 0.17419 0.0
H3978 H 0.64302 0.76035 0.17041 0.0
C3979 C 0.71619 0.67631 0.08653 0.0
C3980 C 0.67172 0.70722 0.11324 0.0
H3981 H 0.66841 0.75845 0.13143 0.0
C3982 C 0.65209 0.69949 0.12103 0.0
C3983 C 0.6781 0.72851 0.11778 0.0
C3984 C 0.69872 0.73795 0.10945 0.0
C3985 C 0.63802 0.71292 0.13188 0.0
C3986 C 0.6438 0.73451 0.1351 0.0
C3987 C 0.66413 0.74179 0.12896 0.0
C3988 C 0.62787 0.75072 0.14076 0.0
C3989 C 0.61664 0.70425 0.13889 0.0
C3990 C 0.61212 0.75573 0.12568 0.0
C3991 C 0.60064 0.77453 0.12762 0.0
C3992 C 0.60448 0.78838 0.14487 0.0
C3993 C 0.61885 0.78248 0.16099 0.0
C3994 C 0.63071 0.76383 0.1588 0.0
H3995 H 0.61701 0.68667 0.14107 0.0
H3996 H 0.61154 0.71186 0.15405 0.0
H3997 H 0.60453 0.70777 0.12647 0.0
H3998 H 0.60999 0.74604 0.11145 0.0
H3999 H 0.58983 0.77898 0.1149 0.0
H4000 H 0.57462 0.44263 0.26701 0.0
H4001 H 0.55535 0.41797 0.29034 0.0
H4002 H 0.51175 0.46784 0.30734 0.0
H4003 H 0.53087 0.49275 0.28412 0.0
H4004 H 0.53181 0.44185 0.34303 0.0
H4005 H 0.49271 0.39458 0.27774 0.0
H4006 H 0.52095 0.40001 0.27622 0.0
H4007 H 0.50249 0.42145 0.2735 0.0
C4008 C 0.56088 0.44839 0.27563 0.0
C4009 C 0.55425 0.46969 0.27364 0.0
C4010 C 0.54994 0.43426 0.28895 0.0
C4011 C 0.53223 0.44118 0.30048 0.0
C4012 C 0.52549 0.46232 0.29855 0.0
H4013 H 0.42974 0.41169 0.37618 0.0
H4014 H 0.46394 0.42488 0.36336 0.0
C4015 C 0.53635 0.47647 0.28518 0.0
C4016 C 0.52035 0.42637 0.31437 0.0
H4017 H 0.48242 0.38702 0.31275 0.0
C4018 C 0.52123 0.42961 0.33651 0.0
C4019 C 0.50693 0.41023 0.30574 0.0
C4020 C 0.50552 0.40627 0.282 0.0
C4021 C 0.50812 0.41775 0.35026 0.0
C4022 C 0.49349 0.40272 0.3415 0.0
C4023 C 0.49368 0.39853 0.31946 0.0
C4024 C 0.47553 0.39382 0.354 0.0
C4025 C 0.50966 0.42186 0.37395 0.0
C4026 C 0.47081 0.37187 0.35347 0.0
C4027 C 0.45104 0.36425 0.36062 0.0
C4028 C 0.43566 0.37857 0.36814 0.0
C4029 C 0.44117 0.40028 0.37029 0.0
C4030 C 0.46088 0.40783 0.36318 0.0
H4031 H 0.52618 0.42662 0.3786 0.0
H4032 H 0.49903 0.43522 0.37825 0.0
H4033 H 0.50483 0.40758 0.38327 0.0
H4034 H 0.48188 0.36081 0.34632 0.0
H4035 H 0.44729 0.34742 0.35877 0.0
H4036 H 0.16615 0.8345 0.93896 0.0
H4037 H 0.17609 0.80592 0.9145 0.0
H4038 H 0.24169 0.81182 0.93492 0.0
H4039 H 0.23199 0.84032 0.95959 0.0
H4040 H 0.20973 0.79869 0.8811 0.0
H4041 H 0.21979 0.75239 0.95637 0.0
H4042 H 0.20656 0.77777 0.95638 0.0
H4043 H 0.23493 0.77668 0.95283 0.0
C4044 C 0.18278 0.83013 0.93791 0.0
C4045 C 0.19816 0.83931 0.95162 0.0
C4046 C 0.18846 0.81387 0.92382 0.0
C4047 C 0.20955 0.80664 0.9232 0.0
C4048 C 0.2253 0.8171 0.93538 0.0
H4049 H 0.20512 0.67174 0.89167 0.0
H4050 H 0.22532 0.70514 0.89678 0.0
C4051 C 0.21966 0.8333 0.94952 0.0
C4052 C 0.21387 0.78606 0.91273 0.0
H4053 H 0.2147 0.73322 0.92493 0.0
C4054 C 0.21144 0.78434 0.89054 0.0
C4055 C 0.21662 0.76745 0.92507 0.0
C4056 C 0.21959 0.76847 0.94899 0.0
C4057 C 0.20968 0.7643 0.88062 0.0
C4058 C 0.2096 0.74572 0.89337 0.0
C4059 C 0.21453 0.74746 0.91517 0.0
C4060 C 0.19979 0.7254 0.88587 0.0
C4061 C 0.20676 0.7633 0.85674 0.0
C4062 C 0.17888 0.72568 0.87784 0.0
C4063 C 0.16737 0.70677 0.87497 0.0
C4064 C 0.17636 0.68707 0.88037 0.0
C4065 C 0.19767 0.68666 0.88752 0.0
C4066 C 0.20928 0.70571 0.8903 0.0
H4067 H 0.21665 0.77581 0.84889 0.0
H4068 H 0.2111 0.74747 0.85015 0.0
H4069 H 0.18983 0.7665 0.85271 0.0
H4070 H 0.17087 0.74062 0.875 0.0
H4071 H 0.15106 0.70777 0.86928 0.0
H4072 H 0.43354 0.05638 0.20164 0.0
H4073 H 0.4641 0.03648 0.18795 0.0
H4074 H 0.42499 0.97943 0.18415 0.0
H4075 H 0.39455 -0.00092 0.19763 0.0
H4076 H 0.48047 0.00126 0.20976 0.0
H4077 H 0.45711 0.9786 0.12738 0.0
H4078 H 0.44472 0.00019 0.14174 0.0
H4079 H 0.43653 0.97301 0.14647 0.0
C4080 C 0.43138 0.03972 0.19743 0.0
C4081 C 0.41173 0.02924 0.20077 0.0
C4082 C 0.44881 0.02839 0.18963 0.0
C4083 C 0.44668 0.00658 0.1848 0.0
C4084 C 0.42684 -0.00365 0.18735 0.0
H4085 H 0.51818 0.89366 0.16723 0.0
H4086 H 0.49166 0.92174 0.17067 0.0
C4087 C 0.40951 0.00758 0.19524 0.0
C4088 C 0.46555 0.99372 0.17961 0.0
H4089 H 0.48395 0.95703 0.14404 0.0
C4090 C 0.48152 0.99189 0.19521 0.0
C4091 C 0.4667 0.98148 0.16067 0.0
C4092 C 0.45044 0.98355 0.14301 0.0
C4093 C 0.49804 0.97721 0.19293 0.0
C4094 C 0.49874 0.96436 0.17433 0.0
C4095 C 0.48325 0.96682 0.15833 0.0
C4096 C 0.51487 0.9476 0.17166 0.0
C4097 C 0.51394 0.9748 0.21089 0.0
C4098 C 0.53663 0.95293 0.17087 0.0
C4099 C 0.55182 0.93695 0.1691 0.0
C4100 C 0.5455 0.91533 0.16787 0.0
C4101 C 0.52361 0.91011 0.16825 0.0
C4102 C 0.50844 0.92612 0.17013 0.0
H4103 H 0.50836 0.98237 0.2259 0.0
H4104 H 0.51707 0.9577 0.21404 0.0
H4105 H 0.52925 0.9826 0.20636 0.0
H4106 H 0.54187 0.96945 0.17161 0.0
H4107 H 0.56852 0.9416 0.16857 0.0
H4108 H 0.06481 -0.00333 0.67424 0.0
H4109 H 0.0373 0.01718 0.65596 0.0
H4110 H 0.08406 0.06604 0.64105 0.0
H4111 H 0.11119 0.04604 0.66032 0.0
H4112 H 0.0536 0.08183 0.6635 0.0
H4113 H 0.01597 0.03469 0.59871 0.0
H4114 H 0.01704 0.01927 0.62268 0.0
H4115 H 0.0415 0.02776 0.61003 0.0
C4116 C 0.0693 0.01133 0.66622 0.0
C4117 C 0.08993 0.01991 0.66856 0.0
C4118 C 0.05363 0.02303 0.6557 0.0
C4119 C 0.05864 0.04314 0.64701 0.0
C4120 C 0.07985 0.05058 0.6476 0.0
H4121 H 0.96277 0.1423 0.62204 0.0
H4122 H -0.00314 0.12357 0.62077 0.0
C4123 C 0.09532 0.03916 0.65854 0.0
C4124 C 0.04136 0.05804 0.64147 0.0
H4125 H 0.99335 0.06116 0.61591 0.0
C4126 C 0.04073 0.07756 0.6526 0.0
C4127 C 0.02454 0.05248 0.62733 0.0
C4128 C 0.02493 0.03249 0.61386 0.0
C4129 C 0.02313 0.09098 0.65103 0.0
C4130 C 0.00575 0.08469 0.63801 0.0
C4131 C 0.00676 0.06579 0.62599 0.0
C4132 C 0.98549 0.09629 0.63863 0.0
C4133 C 0.0226 0.11112 0.6643 0.0
C4134 C 0.9681 0.08717 0.64933 0.0
C4135 C 0.94876 0.09781 0.65028 0.0
C4136 C 0.94641 0.11776 0.64038 0.0
C4137 C 0.96407 0.12704 0.62995 0.0
C4138 C 0.9835 0.11634 0.62908 0.0
H4139 H 0.03682 0.11289 0.67484 0.0
H4140 H 0.02195 0.12518 0.65362 0.0
H4141 H 0.00803 0.11121 0.67433 0.0
H4142 H 0.9695 0.07176 0.65695 0.0
H4143 H 0.93556 0.09014 0.65845 0.0
loop_
_geom_bond_atom_site_label_1
_geom_bond_atom_site_label_2
_geom_bond_distance
_geom_bond_site_symmetry_2
_ccdc_geom_bond_type
Co0 O1 2.216 1_655 S
Co0 O2 2.091 . S
Co0 O4 2.004 . S
Co0 O10 2.021 1_655 S
Co0 O12 2.142 . S
Co0 O13 2.244 1_655 S
O1 Co0 2.216 1_455 S
O1 C8 1.247 1_455 S
O2 Co0 2.091 . S
O2 C8 1.261 . S
C3 O12 1.211 1_455 S
C3 O13 1.272 . S
O4 Co0 2.004 . S
O4 C9 1.259 . S
Co5 O6 2.061 . S
Co5 O11 2.052 . S
Co5 O13 2.135 . S
O6 Co5 2.061 . S
O6 C9 1.235 1_455 S
C7 O10 1.238 . S
C7 O11 1.241 . S
C8 O1 1.247 1_655 S
C8 O2 1.261 . S
C9 O4 1.259 . S
C9 O6 1.235 1_655 S
O10 Co0 2.021 1_455 S
O10 C7 1.238 . S
O11 Co5 2.052 . S
O11 C7 1.241 . S
O12 Co0 2.142 . S
O12 C3 1.211 1_655 S
O13 Co0 2.244 1_455 S
O13 C3 1.272 . S
O13 Co5 2.135 . S
Co14 O15 2.216 . S
Co14 O16 2.091 . S
Co14 O18 2.004 1_655 S
Co14 O24 2.021 1_655 S
Co14 O26 2.137 . S
Co14 O27 2.244 . S
O15 Co14 2.216 . S
O15 C22 1.247 . S
O16 Co14 2.091 . S
O16 C22 1.261 . S
C17 O26 1.247 . S
C17 O27 1.272 . S
O18 Co14 2.004 1_455 S
O18 C23 1.259 . S
Co19 O20 2.061 . S
Co19 O25 2.052 . S
Co19 O27 2.135 1_455 S
O20 Co19 2.061 . S
O20 C23 1.235 . S
C21 O24 1.238 . S
C21 O25 1.241 . S
C22 O15 1.247 . S
C22 O16 1.261 . S
C23 O18 1.259 . S
C23 O20 1.235 . S
O24 Co14 2.021 1_455 S
O24 C21 1.238 . S
O25 Co19 2.052 . S
O25 C21 1.241 . S
O26 Co14 2.137 . S
O26 C17 1.247 . S
O27 Co14 2.244 . S
O27 C17 1.272 . S
O27 Co19 2.135 1_655 S
Co28 O29 2.216 . S
Co28 O30 2.091 . S
Co28 O32 2.004 . S
Co28 O38 2.021 . S
Co28 O40 2.137 . S
Co28 O41 2.244 . S
O29 Co28 2.216 . S
O29 C36 1.247 . S
O30 Co28 2.091 . S
O30 C36 1.261 . S
C31 O40 1.247 . S
C31 O41 1.272 . S
O32 Co28 2.004 . S
O32 C37 1.259 . S
Co33 O34 2.061 . S
Co33 O39 2.052 . S
Co33 O41 2.135 . S
O34 Co33 2.061 . S
O34 C37 1.235 . S
C35 O38 1.238 . S
C35 O39 1.241 . S
C36 O29 1.247 . S
C36 O30 1.261 . S
C37 O32 1.259 . S
C37 O34 1.235 . S
O38 Co28 2.021 . S
O38 C35 1.238 . S
O39 Co33 2.052 . S
O39 C35 1.241 . S
O40 Co28 2.137 . S
O40 C31 1.247 . S
O41 Co28 2.244 . S
O41 C31 1.272 . S
O41 Co33 2.135 . S
Co42 O43 2.216 . S
Co42 O44 2.091 . S
Co42 O46 2.004 . S
Co42 O52 2.021 . S
Co42 O54 2.137 . S
Co42 O55 2.244 . S
O43 Co42 2.216 . S
O43 C50 1.247 . S
O44 Co42 2.091 . S
O44 C50 1.261 . S
C45 O54 1.247 . S
C45 O55 1.272 . S
O46 Co42 2.004 . S
O46 C51 1.259 . S
Co47 O48 2.061 . S
Co47 O53 2.052 . S
Co47 O55 2.135 . S
O48 Co47 2.061 . S
O48 C51 1.235 . S
C49 O52 1.238 . S
C49 O53 1.241 . S
C50 O43 1.247 . S
C50 O44 1.261 . S
C51 O46 1.259 . S
C51 O48 1.235 . S
O52 Co42 2.021 . S
O52 C49 1.238 . S
O53 Co47 2.052 . S
O53 C49 1.241 . S
O54 Co42 2.137 . S
O54 C45 1.247 . S
O55 Co42 2.244 . S
O55 C45 1.272 . S
O55 Co47 2.135 . S
Co56 O57 2.216 1_655 S
Co56 O58 2.091 . S
Co56 O60 2.004 . S
Co56 O66 2.021 1_655 S
Co56 O68 2.137 . S
Co56 O69 2.244 1_655 S
O57 Co56 2.216 1_455 S
O57 C64 1.247 1_455 S
O58 Co56 2.091 . S
O58 C64 1.261 . S
C59 O68 1.247 1_455 S
C59 O69 1.272 . S
O60 Co56 2.004 . S
O60 C65 1.259 . S
Co61 O62 2.061 . S
Co61 O67 2.052 . S
Co61 O69 2.135 . S
O62 Co61 2.061 . S
O62 C65 1.235 1_455 S
C63 O66 1.238 . S
C63 O67 1.241 . S
C64 O57 1.247 1_655 S
C64 O58 1.261 . S
C65 O60 1.259 . S
C65 O62 1.235 1_655 S
O66 Co56 2.021 1_455 S
O66 C63 1.238 . S
O67 Co61 2.052 . S
O67 C63 1.241 . S
O68 Co56 2.137 . S
O68 C59 1.247 1_655 S
O69 Co56 2.244 1_455 S
O69 C59 1.272 . S
O69 Co61 2.135 . S
Co70 O71 2.216 . S
Co70 O72 2.091 . S
Co70 O74 2.004 . S
Co70 O80 2.021 . S
Co70 O82 2.137 . S
Co70 O83 2.244 . S
O71 Co70 2.216 . S
O71 C78 1.247 . S
O72 Co70 2.091 . S
O72 C78 1.261 . S
C73 O82 1.247 . S
C73 O83 1.272 . S
O74 Co70 2.004 . S
O74 C79 1.259 . S
Co75 O76 2.061 . S
Co75 O81 2.052 . S
Co75 O83 2.135 . S
O76 Co75 2.061 . S
O76 C79 1.235 . S
C77 O80 1.238 . S
C77 O81 1.241 . S
C78 O71 1.247 . S
C78 O72 1.261 . S
C79 O74 1.259 . S
C79 O76 1.235 . S
O80 Co70 2.021 . S
O80 C77 1.238 . S
O81 Co75 2.052 . S
O81 C77 1.241 . S
O82 Co70 2.137 . S
O82 C73 1.247 . S
O83 Co70 2.244 . S
O83 C73 1.272 . S
O83 Co75 2.135 . S
Co84 O85 2.216 . S
Co84 O86 2.091 . S
Co84 O88 2.004 . S
Co84 O94 2.021 . S
Co84 O96 2.137 . S
Co84 O97 2.244 . S
O85 Co84 2.216 . S
O85 C92 1.247 . S
O86 Co84 2.091 . S
O86 C92 1.261 . S
C87 O96 1.247 . S
C87 O97 1.272 . S
O88 Co84 2.004 . S
O88 C93 1.259 . S
Co89 O90 2.061 . S
Co89 O95 2.052 . S
Co89 O97 2.135 . S
O90 Co89 2.061 . S
O90 C93 1.235 . S
C91 O94 1.238 . S
C91 O95 1.241 . S
C92 O85 1.247 . S
C92 O86 1.261 . S
C93 O88 1.259 . S
C93 O90 1.235 . S
O94 Co84 2.021 . S
O94 C91 1.238 . S
O95 Co89 2.052 . S
O95 C91 1.241 . S
O96 Co84 2.137 . S
O96 C87 1.247 . S
O97 Co84 2.244 . S
O97 C87 1.272 . S
O97 Co89 2.135 . S
Co98 O99 2.216 . S
Co98 O100 2.091 . S
Co98 O102 2.004 1_655 S
Co98 O108 2.021 1_655 S
Co98 O110 2.137 . S
Co98 O111 2.244 . S
O99 Co98 2.216 . S
O99 C106 1.247 . S
O100 Co98 2.091 . S
O100 C106 1.261 . S
C101 O110 1.247 . S
C101 O111 1.272 . S
O102 Co98 2.004 1_455 S
O102 C107 1.259 . S
Co103 O104 2.061 . S
Co103 O109 2.052 . S
Co103 O111 2.135 1_455 S
O104 Co103 2.061 . S
O104 C107 1.235 . S
C105 O108 1.238 . S
C105 O109 1.241 . S
C106 O99 1.247 . S
C106 O100 1.261 . S
C107 O102 1.259 . S
C107 O104 1.235 . S
O108 Co98 2.021 1_455 S
O108 C105 1.238 . S
O109 Co103 2.052 . S
O109 C105 1.241 . S
O110 Co98 2.137 . S
O110 C101 1.247 . S
O111 Co98 2.244 . S
O111 C101 1.272 . S
O111 Co103 2.135 1_655 S
Co112 O113 2.216 1_565 S
Co112 O114 2.091 . S
Co112 O116 2.004 . S
Co112 O122 2.021 1_565 S
Co112 O124 2.138 1_565 S
Co112 O125 2.244 1_565 S
O113 Co112 2.216 1_545 S
O113 C120 1.247 1_545 S
O114 Co112 2.091 . S
O114 C120 1.261 . S
C115 O124 1.247 . S
C115 O125 1.272 . S
O116 Co112 2.004 . S
O116 C121 1.259 . S
Co117 O118 2.061 . S
Co117 O123 2.052 . S
Co117 O125 2.135 . S
O118 Co117 2.061 . S
O118 C121 1.235 1_545 S
C119 O122 1.238 . S
C119 O123 1.241 . S
C120 O113 1.247 1_565 S
C120 O114 1.261 . S
C121 O116 1.259 . S
C121 O118 1.235 1_565 S
O122 Co112 2.021 1_545 S
O122 C119 1.238 . S
O123 Co117 2.052 . S
O123 C119 1.241 . S
O124 Co112 2.138 1_545 S
O124 C115 1.247 . S
O125 Co112 2.244 1_545 S
O125 C115 1.272 . S
O125 Co117 2.135 . S
Co126 O127 2.216 . S
Co126 O128 2.091 . S
Co126 O130 2.004 . S
Co126 O136 2.021 . S
Co126 O138 2.137 . S
Co126 O139 2.244 . S
O127 Co126 2.216 . S
O127 C134 1.247 . S
O128 Co126 2.091 . S
O128 C134 1.261 . S
C129 O138 1.247 . S
C129 O139 1.272 . S
O130 Co126 2.004 . S
O130 C135 1.259 . S
Co131 O132 2.061 . S
Co131 O137 2.052 . S
Co131 O139 2.135 . S
O132 Co131 2.061 . S
O132 C135 1.235 . S
C133 O136 1.238 . S
C133 O137 1.241 . S
C134 O127 1.247 . S
C134 O128 1.261 . S
C135 O130 1.259 . S
C135 O132 1.235 . S
O136 Co126 2.021 . S
O136 C133 1.238 . S
O137 Co131 2.052 . S
O137 C133 1.241 . S
O138 Co126 2.137 . S
O138 C129 1.247 . S
O139 Co126 2.244 . S
O139 C129 1.272 . S
O139 Co131 2.135 . S
Co140 O141 2.216 1_565 S
Co140 O142 2.091 . S
Co140 O144 2.004 . S
Co140 O150 2.021 1_565 S
Co140 O152 2.137 . S
Co140 O153 2.244 1_565 S
O141 Co140 2.216 1_545 S
O141 C148 1.247 1_545 S
O142 Co140 2.091 . S
O142 C148 1.261 . S
C143 O152 1.247 1_545 S
C143 O153 1.272 . S
O144 Co140 2.004 . S
O144 C149 1.259 . S
Co145 O146 2.061 . S
Co145 O151 2.052 . S
Co145 O153 2.135 . S
O146 Co145 2.061 . S
O146 C149 1.235 1_545 S
C147 O150 1.238 . S
C147 O151 1.241 . S
C148 O141 1.247 1_565 S
C148 O142 1.261 . S
C149 O144 1.259 . S
C149 O146 1.235 1_565 S
O150 Co140 2.021 1_545 S
O150 C147 1.238 . S
O151 Co145 2.052 . S
O151 C147 1.241 . S
O152 Co140 2.137 . S
O152 C143 1.247 1_565 S
O153 Co140 2.244 1_545 S
O153 C143 1.272 . S
O153 Co145 2.135 . S
Co154 O155 2.216 . S
Co154 O156 2.091 . S
Co154 O158 2.004 1_554 S
Co154 O164 2.021 1_554 S
Co154 O166 2.137 . S
Co154 O167 2.244 . S
O155 Co154 2.216 . S
O155 C162 1.247 . S
O156 Co154 2.091 . S
O156 C162 1.261 . S
C157 O166 1.247 . S
C157 O167 1.272 . S
O158 Co154 2.004 1_556 S
O158 C163 1.259 . S
Co159 O160 2.061 . S
Co159 O165 2.052 . S
Co159 O167 2.135 1_556 S
O160 Co159 2.061 . S
O160 C163 1.235 . S
C161 O164 1.238 . S
C161 O165 1.241 . S
C162 O155 1.247 . S
C162 O156 1.261 . S
C163 O158 1.259 . S
C163 O160 1.235 . S
O164 Co154 2.021 1_556 S
O164 C161 1.238 . S
O165 Co159 2.052 . S
O165 C161 1.241 . S
O166 Co154 2.137 . S
O166 C157 1.247 . S
O167 Co154 2.244 . S
O167 C157 1.272 . S
O167 Co159 2.135 1_554 S
Co168 O169 2.216 1_556 S
Co168 O170 2.091 . S
Co168 O172 2.004 . S
Co168 O178 2.021 1_556 S
Co168 O180 2.137 . S
Co168 O181 2.244 1_556 S
O169 Co168 2.216 1_554 S
O169 C176 1.247 1_554 S
O170 Co168 2.091 . S
O170 C176 1.261 . S
C171 O180 1.247 1_554 S
C171 O181 1.272 . S
O172 Co168 2.004 . S
O172 C177 1.259 . S
Co173 O174 2.061 . S
Co173 O179 2.052 . S
Co173 O181 2.135 . S
O174 Co173 2.061 . S
O174 C177 1.235 1_554 S
C175 O178 1.238 . S
C175 O179 1.241 . S
C176 O169 1.247 1_556 S
C176 O170 1.261 . S
C177 O172 1.259 . S
C177 O174 1.235 1_556 S
O178 Co168 2.021 1_554 S
O178 C175 1.238 . S
O179 Co173 2.052 . S
O179 C175 1.241 . S
O180 Co168 2.137 . S
O180 C171 1.247 1_556 S
O181 Co168 2.244 1_554 S
O181 C171 1.272 . S
O181 Co173 2.135 . S
Co182 O183 2.216 1_556 S
Co182 O184 2.091 . S
Co182 O186 2.004 . S
Co182 O192 2.021 1_556 S
Co182 O194 2.137 . S
Co182 O195 2.244 1_556 S
O183 Co182 2.216 1_554 S
O183 C190 1.247 1_554 S
O184 Co182 2.091 . S
O184 C190 1.261 . S
C185 O194 1.247 1_554 S
C185 O195 1.272 . S
O186 Co182 2.004 . S
O186 C191 1.259 . S
Co187 O188 2.061 . S
Co187 O193 2.052 . S
Co187 O195 2.135 . S
O188 Co187 2.061 . S
O188 C191 1.235 1_554 S
C189 O192 1.238 . S
C189 O193 1.241 . S
C190 O183 1.247 1_556 S
C190 O184 1.261 . S
C191 O186 1.259 . S
C191 O188 1.235 1_556 S
O192 Co182 2.021 1_554 S
O192 C189 1.238 . S
O193 Co187 2.052 . S
O193 C189 1.241 . S
O194 Co182 2.137 . S
O194 C185 1.247 1_556 S
O195 Co182 2.244 1_554 S
O195 C185 1.272 . S
O195 Co187 2.135 . S
Co196 O197 2.216 . S
Co196 O198 2.091 . S
Co196 O200 2.004 . S
Co196 O206 2.021 . S
Co196 O208 2.137 . S
Co196 O209 2.244 . S
O197 Co196 2.216 . S
O197 C204 1.247 . S
O198 Co196 2.091 . S
O198 C204 1.261 . S
C199 O208 1.247 . S
C199 O209 1.272 . S
O200 Co196 2.004 . S
O200 C205 1.259 . S
Co201 O202 2.061 . S
Co201 O207 2.052 . S
Co201 O209 2.135 . S
O202 Co201 2.061 . S
O202 C205 1.235 . S
C203 O206 1.238 . S
C203 O207 1.241 . S
C204 O197 1.247 . S
C204 O198 1.261 . S
C205 O200 1.259 . S
C205 O202 1.235 . S
O206 Co196 2.021 . S
O206 C203 1.238 . S
O207 Co201 2.052 . S
O207 C203 1.241 . S
O208 Co196 2.137 . S
O208 C199 1.247 . S
O209 Co196 2.244 . S
O209 C199 1.272 . S
O209 Co201 2.135 . S
Co210 O211 2.216 . S
Co210 O212 2.091 . S
Co210 O214 2.004 . S
Co210 O220 2.021 . S
Co210 O222 2.137 . S
Co210 O223 2.244 . S
O211 Co210 2.216 . S
O211 C218 1.247 . S
O212 Co210 2.091 . S
O212 C218 1.261 . S
C213 O222 1.247 . S
C213 O223 1.272 . S
O214 Co210 2.004 . S
O214 C219 1.259 . S
Co215 O216 2.061 . S
Co215 O221 2.052 . S
Co215 O223 2.135 . S
O216 Co215 2.061 . S
O216 C219 1.235 . S
C217 O220 1.238 . S
C217 O221 1.241 . S
C218 O211 1.247 . S
C218 O212 1.261 . S
C219 O214 1.259 . S
C219 O216 1.235 . S
O220 Co210 2.021 . S
O220 C217 1.238 . S
O221 Co215 2.052 . S
O221 C217 1.241 . S
O222 Co210 2.137 . S
O222 C213 1.247 . S
O223 Co210 2.244 . S
O223 C213 1.272 . S
O223 Co215 2.135 . S
Co224 O225 2.216 . S
Co224 O226 2.091 . S
Co224 O228 2.004 1_565 S
Co224 O234 2.021 1_565 S
Co224 O236 2.137 . S
Co224 O237 2.244 . S
O225 Co224 2.216 . S
O225 C232 1.247 . S
O226 Co224 2.091 . S
O226 C232 1.261 . S
C227 O236 1.247 . S
C227 O237 1.272 . S
O228 Co224 2.004 1_545 S
O228 C233 1.259 . S
Co229 O230 2.061 . S
Co229 O235 2.052 . S
Co229 O237 2.135 1_545 S
O230 Co229 2.061 . S
O230 C233 1.235 . S
C231 O234 1.238 . S
C231 O235 1.241 . S
C232 O225 1.247 . S
C232 O226 1.261 . S
C233 O228 1.259 . S
C233 O230 1.235 . S
O234 Co224 2.021 1_545 S
O234 C231 1.238 . S
O235 Co229 2.052 . S
O235 C231 1.241 . S
O236 Co224 2.137 . S
O236 C227 1.247 . S
O237 Co224 2.244 . S
O237 C227 1.272 . S
O237 Co229 2.135 1_565 S
Co238 O239 2.216 . S
Co238 O240 2.091 . S
Co238 O242 2.004 . S
Co238 O248 2.021 . S
Co238 O250 2.137 . S
Co238 O251 2.244 . S
O239 Co238 2.216 . S
O239 C246 1.247 . S
O240 Co238 2.091 . S
O240 C246 1.261 . S
C241 O250 1.247 . S
C241 O251 1.272 . S
O242 Co238 2.004 . S
O242 C247 1.259 . S
Co243 O244 2.061 . S
Co243 O249 2.052 . S
Co243 O251 2.135 . S
O244 Co243 2.061 . S
O244 C247 1.235 . S
C245 O248 1.238 . S
C245 O249 1.241 . S
C246 O239 1.247 . S
C246 O240 1.261 . S
C247 O242 1.259 . S
C247 O244 1.235 . S
O248 Co238 2.021 . S
O248 C245 1.238 . S
O249 Co243 2.052 . S
O249 C245 1.241 . S
O250 Co238 2.137 . S
O250 C241 1.247 . S
O251 Co238 2.244 . S
O251 C241 1.272 . S
O251 Co243 2.135 . S
Co252 O253 2.216 . S
Co252 O254 2.091 . S
Co252 O256 2.004 . S
Co252 O262 2.021 . S
Co252 O264 2.137 . S
Co252 O265 2.244 . S
O253 Co252 2.216 . S
O253 C260 1.247 . S
O254 Co252 2.091 . S
O254 C260 1.261 . S
C255 O264 1.247 . S
C255 O265 1.272 . S
O256 Co252 2.004 . S
O256 C261 1.259 . S
Co257 O258 2.061 . S
Co257 O263 2.052 . S
Co257 O265 2.135 . S
O258 Co257 2.061 . S
O258 C261 1.235 . S
C259 O262 1.238 . S
C259 O263 1.241 . S
C260 O253 1.247 . S
C260 O254 1.261 . S
C261 O256 1.259 . S
C261 O258 1.235 . S
O262 Co252 2.021 . S
O262 C259 1.238 . S
O263 Co257 2.052 . S
O263 C259 1.241 . S
O264 Co252 2.137 . S
O264 C255 1.247 . S
O265 Co252 2.244 . S
O265 C255 1.272 . S
O265 Co257 2.135 . S
Co266 O267 2.216 . S
Co266 O268 2.091 . S
Co266 O270 2.004 1_565 S
Co266 O276 2.021 1_565 S
Co266 O278 2.137 . S
Co266 O279 2.244 . S
O267 Co266 2.216 . S
O267 C274 1.247 . S
O268 Co266 2.091 . S
O268 C274 1.261 . S
C269 O278 1.247 . S
C269 O279 1.272 . S
O270 Co266 2.004 1_545 S
O270 C275 1.259 . S
Co271 O272 2.061 . S
Co271 O277 2.052 . S
Co271 O279 2.135 1_545 S
O272 Co271 2.061 . S
O272 C275 1.235 . S
C273 O276 1.238 . S
C273 O277 1.241 . S
C274 O267 1.247 . S
C274 O268 1.261 . S
C275 O270 1.259 . S
C275 O272 1.235 . S
O276 Co266 2.021 1_545 S
O276 C273 1.238 . S
O277 Co271 2.052 . S
O277 C273 1.241 . S
O278 Co266 2.137 . S
O278 C269 1.247 . S
O279 Co266 2.244 . S
O279 C269 1.272 . S
O279 Co271 2.135 1_565 S
Co280 O281 2.216 . S
Co280 O282 2.091 . S
Co280 O284 2.004 1_554 S
Co280 O290 2.021 1_554 S
Co280 O292 2.137 . S
Co280 O293 2.244 . S
O281 Co280 2.216 . S
O281 C288 1.247 . S
O282 Co280 2.091 . S
O282 C288 1.261 . S
C283 O292 1.247 . S
C283 O293 1.272 . S
O284 Co280 2.004 1_556 S
O284 C289 1.259 . S
Co285 O286 2.061 . S
Co285 O291 2.052 . S
Co285 O293 2.135 1_556 S
O286 Co285 2.061 . S
O286 C289 1.235 . S
C287 O290 1.238 . S
C287 O291 1.241 . S
C288 O281 1.247 . S
C288 O282 1.261 . S
C289 O284 1.259 . S
C289 O286 1.235 . S
O290 Co280 2.021 1_556 S
O290 C287 1.238 . S
O291 Co285 2.052 . S
O291 C287 1.241 . S
O292 Co280 2.137 . S
O292 C283 1.247 . S
O293 Co280 2.244 . S
O293 C283 1.272 . S
O293 Co285 2.135 1_554 S
Co294 O295 2.216 . S
Co294 O296 2.091 . S
Co294 O298 2.004 . S
Co294 O304 2.021 . S
Co294 O306 2.137 . S
Co294 O307 2.244 . S
O295 Co294 2.216 . S
O295 C302 1.247 . S
O296 Co294 2.091 . S
O296 C302 1.261 . S
C297 O306 1.247 . S
C297 O307 1.272 . S
O298 Co294 2.004 . S
O298 C303 1.259 . S
Co299 O300 2.061 . S
Co299 O305 2.052 . S
Co299 O307 2.135 . S
O300 Co299 2.061 . S
O300 C303 1.235 . S
C301 O304 1.238 . S
C301 O305 1.241 . S
C302 O295 1.247 . S
C302 O296 1.261 . S
C303 O298 1.259 . S
C303 O300 1.235 . S
O304 Co294 2.021 . S
O304 C301 1.238 . S
O305 Co299 2.052 . S
O305 C301 1.241 . S
O306 Co294 2.137 . S
O306 C297 1.247 . S
O307 Co294 2.244 . S
O307 C297 1.272 . S
O307 Co299 2.135 . S
Co308 O309 2.216 . S
Co308 O310 2.091 . S
Co308 O312 2.004 . S
Co308 O318 2.021 . S
Co308 O320 2.137 . S
Co308 O321 2.244 . S
O309 Co308 2.216 . S
O309 C316 1.247 . S
O310 Co308 2.091 . S
O310 C316 1.261 . S
C311 O320 1.247 . S
C311 O321 1.272 . S
O312 Co308 2.004 . S
O312 C317 1.259 . S
Co313 O314 2.061 . S
Co313 O319 2.052 . S
Co313 O321 2.135 . S
O314 Co313 2.061 . S
O314 C317 1.235 . S
C315 O318 1.238 . S
C315 O319 1.241 . S
C316 O309 1.247 . S
C316 O310 1.261 . S
C317 O312 1.259 . S
C317 O314 1.235 . S
O318 Co308 2.021 . S
O318 C315 1.238 . S
O319 Co313 2.052 . S
O319 C315 1.241 . S
O320 Co308 2.137 . S
O320 C311 1.247 . S
O321 Co308 2.244 . S
O321 C311 1.272 . S
O321 Co313 2.135 . S
Co322 O323 2.216 . S
Co322 O324 2.091 . S
Co322 O326 2.004 . S
Co322 O332 2.021 . S
Co322 O334 2.137 . S
Co322 O335 2.244 . S
O323 Co322 2.216 . S
O323 C330 1.247 . S
O324 Co322 2.091 . S
O324 C330 1.261 . S
C325 O334 1.247 . S
C325 O335 1.272 . S
O326 Co322 2.004 . S
O326 C331 1.259 . S
Co327 O328 2.061 . S
Co327 O333 2.052 . S
Co327 O335 2.135 . S
O328 Co327 2.061 . S
O328 C331 1.235 . S
C329 O332 1.238 . S
C329 O333 1.241 . S
C330 O323 1.247 . S
C330 O324 1.261 . S
C331 O326 1.259 . S
C331 O328 1.235 . S
O332 Co322 2.021 . S
O332 C329 1.238 . S
O333 Co327 2.052 . S
O333 C329 1.241 . S
O334 Co322 2.137 . S
O334 C325 1.247 . S
O335 Co322 2.244 . S
O335 C325 1.272 . S
O335 Co327 2.135 . S
Sc336 O339 2.025 . S
Sc336 O346 2.105 . S
Sc336 O349 2.105 . S
Sc336 O352 2.105 . S
Sc336 O355 2.105 . S
Sc337 O339 2.025 . S
Sc337 O347 2.105 . S
Sc337 O351 2.105 . S
Sc337 O353 2.105 . S
Sc337 O357 2.105 . S
Sc338 O339 2.025 . S
Sc338 O348 2.105 . S
Sc338 O350 2.105 . S
Sc338 O354 2.105 . S
Sc338 O356 2.105 . S
O339 Sc336 2.025 . S
O339 Sc337 2.025 . S
O339 Sc338 2.025 . S
C340 O346 1.268 . S
C340 O356 1.268 . S
C341 O347 1.268 . S
C341 O355 1.268 . S
C342 O348 1.268 . S
C342 O357 1.268 . S
C343 O349 1.268 . S
C343 O353 1.268 . S
C344 O350 1.268 . S
C344 O352 1.268 . S
C345 O351 1.268 . S
C345 O354 1.268 . S
O346 Sc336 2.105 . S
O346 C340 1.268 . S
O347 Sc337 2.105 . S
O347 C341 1.268 . S
O348 Sc338 2.105 . S
O348 C342 1.268 . S
O349 Sc336 2.105 . S
O349 C343 1.268 . S
O350 Sc338 2.105 . S
O350 C344 1.268 . S
O351 Sc337 2.105 . S
O351 C345 1.268 . S
O352 Sc336 2.105 . S
O352 C344 1.268 . S
O353 Sc337 2.105 . S
O353 C343 1.268 . S
O354 Sc338 2.105 . S
O354 C345 1.268 . S
O355 Sc336 2.105 . S
O355 C341 1.268 . S
O356 Sc338 2.105 . S
O356 C340 1.268 . S
O357 Sc337 2.105 . S
O357 C342 1.268 . S
Sc358 O361 2.025 . S
Sc358 O368 2.105 . S
Sc358 O371 2.105 . S
Sc358 O374 2.105 . S
Sc358 O377 2.105 . S
Sc359 O361 2.025 . S
Sc359 O369 2.105 . S
Sc359 O373 2.105 . S
Sc359 O375 2.105 . S
Sc359 O379 2.105 . S
Sc360 O361 2.025 . S
Sc360 O370 2.105 . S
Sc360 O372 2.105 . S
Sc360 O376 2.105 . S
Sc360 O378 2.105 . S
O361 Sc358 2.025 . S
O361 Sc359 2.025 . S
O361 Sc360 2.025 . S
C362 O368 1.268 . S
C362 O378 1.268 . S
C363 O369 1.268 . S
C363 O377 1.268 . S
C364 O370 1.268 . S
C364 O379 1.268 . S
C365 O371 1.268 . S
C365 O375 1.268 . S
C366 O372 1.268 . S
C366 O374 1.268 . S
C367 O373 1.268 . S
C367 O376 1.268 . S
O368 Sc358 2.105 . S
O368 C362 1.268 . S
O369 Sc359 2.105 . S
O369 C363 1.268 . S
O370 Sc360 2.105 . S
O370 C364 1.268 . S
O371 Sc358 2.105 . S
O371 C365 1.268 . S
O372 Sc360 2.105 . S
O372 C366 1.268 . S
O373 Sc359 2.105 . S
O373 C367 1.268 . S
O374 Sc358 2.105 . S
O374 C366 1.268 . S
O375 Sc359 2.105 . S
O375 C365 1.268 . S
O376 Sc360 2.105 . S
O376 C367 1.268 . S
O377 Sc358 2.105 . S
O377 C363 1.268 . S
O378 Sc360 2.105 . S
O378 C362 1.268 . S
O379 Sc359 2.105 . S
O379 C364 1.268 . S
Sc380 O383 2.025 . S
Sc380 O390 2.105 . S
Sc380 O393 2.105 . S
Sc380 O396 2.105 . S
Sc380 O399 2.105 . S
Sc381 O383 2.025 . S
Sc381 O391 2.105 . S
Sc381 O395 2.105 . S
Sc381 O397 2.105 . S
Sc381 O401 2.105 . S
Sc382 O383 2.025 . S
Sc382 O392 2.105 . S
Sc382 O394 2.105 . S
Sc382 O398 2.105 . S
Sc382 O400 2.105 . S
O383 Sc380 2.025 . S
O383 Sc381 2.025 . S
O383 Sc382 2.025 . S
C384 O390 1.268 . S
C384 O400 1.268 . S
C385 O391 1.268 . S
C385 O399 1.268 . S
C386 O392 1.268 . S
C386 O401 1.268 . S
C387 O393 1.268 . S
C387 O397 1.268 . S
C388 O394 1.268 . S
C388 O396 1.268 . S
C389 O395 1.268 . S
C389 O398 1.268 . S
O390 Sc380 2.105 . S
O390 C384 1.268 . S
O391 Sc381 2.105 . S
O391 C385 1.268 . S
O392 Sc382 2.105 . S
O392 C386 1.268 . S
O393 Sc380 2.105 . S
O393 C387 1.268 . S
O394 Sc382 2.105 . S
O394 C388 1.268 . S
O395 Sc381 2.105 . S
O395 C389 1.268 . S
O396 Sc380 2.105 . S
O396 C388 1.268 . S
O397 Sc381 2.105 . S
O397 C387 1.268 . S
O398 Sc382 2.105 . S
O398 C389 1.268 . S
O399 Sc380 2.105 . S
O399 C385 1.268 . S
O400 Sc382 2.105 . S
O400 C384 1.268 . S
O401 Sc381 2.105 . S
O401 C386 1.268 . S
Sc402 O405 2.025 . S
Sc402 O412 2.105 . S
Sc402 O415 2.105 . S
Sc402 O418 2.105 . S
Sc402 O421 2.105 . S
Sc403 O405 2.025 . S
Sc403 O413 2.105 . S
Sc403 O417 2.105 . S
Sc403 O419 2.105 . S
Sc403 O423 2.105 . S
Sc404 O405 2.025 . S
Sc404 O414 2.105 . S
Sc404 O416 2.105 . S
Sc404 O420 2.105 . S
Sc404 O422 2.105 . S
O405 Sc402 2.025 . S
O405 Sc403 2.025 . S
O405 Sc404 2.025 . S
C406 O412 1.268 . S
C406 O422 1.268 . S
C407 O413 1.268 . S
C407 O421 1.268 . S
C408 O414 1.268 . S
C408 O423 1.268 . S
C409 O415 1.268 . S
C409 O419 1.268 . S
C410 O416 1.268 . S
C410 O418 1.268 . S
C411 O417 1.268 . S
C411 O420 1.268 . S
O412 Sc402 2.105 . S
O412 C406 1.268 . S
O413 Sc403 2.105 . S
O413 C407 1.268 . S
O414 Sc404 2.105 . S
O414 C408 1.268 . S
O415 Sc402 2.105 . S
O415 C409 1.268 . S
O416 Sc404 2.105 . S
O416 C410 1.268 . S
O417 Sc403 2.105 . S
O417 C411 1.268 . S
O418 Sc402 2.105 . S
O418 C410 1.268 . S
O419 Sc403 2.105 . S
O419 C409 1.268 . S
O420 Sc404 2.105 . S
O420 C411 1.268 . S
O421 Sc402 2.105 . S
O421 C407 1.268 . S
O422 Sc404 2.105 . S
O422 C406 1.268 . S
O423 Sc403 2.105 . S
O423 C408 1.268 . S
Sc424 O427 2.025 . S
Sc424 O434 2.105 . S
Sc424 O437 2.105 . S
Sc424 O440 2.105 . S
Sc424 O443 2.105 . S
Sc425 O427 2.025 . S
Sc425 O435 2.105 . S
Sc425 O439 2.105 . S
Sc425 O441 2.105 . S
Sc425 O445 2.105 . S
Sc426 O427 2.025 . S
Sc426 O436 2.105 . S
Sc426 O438 2.105 . S
Sc426 O442 2.105 . S
Sc426 O444 2.105 . S
O427 Sc424 2.025 . S
O427 Sc425 2.025 . S
O427 Sc426 2.025 . S
C428 O434 1.268 . S
C428 O444 1.268 . S
C429 O435 1.268 . S
C429 O443 1.268 . S
C430 O436 1.268 . S
C430 O445 1.268 . S
C431 O437 1.268 . S
C431 O441 1.268 . S
C432 O438 1.268 . S
C432 O440 1.268 . S
C433 O439 1.268 . S
C433 O442 1.268 . S
O434 Sc424 2.105 . S
O434 C428 1.268 . S
O435 Sc425 2.105 . S
O435 C429 1.268 . S
O436 Sc426 2.105 . S
O436 C430 1.268 . S
O437 Sc424 2.105 . S
O437 C431 1.268 . S
O438 Sc426 2.105 . S
O438 C432 1.268 . S
O439 Sc425 2.105 . S
O439 C433 1.268 . S
O440 Sc424 2.105 . S
O440 C432 1.268 . S
O441 Sc425 2.105 . S
O441 C431 1.268 . S
O442 Sc426 2.105 . S
O442 C433 1.268 . S
O443 Sc424 2.105 . S
O443 C429 1.268 . S
O444 Sc426 2.105 . S
O444 C428 1.268 . S
O445 Sc425 2.105 . S
O445 C430 1.268 . S
Sc446 O449 2.025 . S
Sc446 O456 2.105 . S
Sc446 O459 2.105 . S
Sc446 O462 2.105 . S
Sc446 O465 2.105 . S
Sc447 O449 2.025 . S
Sc447 O457 2.105 . S
Sc447 O461 2.105 . S
Sc447 O463 2.105 . S
Sc447 O467 2.105 . S
Sc448 O449 2.025 . S
Sc448 O458 2.105 . S
Sc448 O460 2.105 . S
Sc448 O464 2.105 . S
Sc448 O466 2.105 . S
O449 Sc446 2.025 . S
O449 Sc447 2.025 . S
O449 Sc448 2.025 . S
C450 O456 1.268 . S
C450 O466 1.268 . S
C451 O457 1.268 . S
C451 O465 1.268 . S
C452 O458 1.268 . S
C452 O467 1.268 . S
C453 O459 1.268 . S
C453 O463 1.268 . S
C454 O460 1.268 . S
C454 O462 1.268 . S
C455 O461 1.268 . S
C455 O464 1.268 . S
O456 Sc446 2.105 . S
O456 C450 1.268 . S
O457 Sc447 2.105 . S
O457 C451 1.268 . S
O458 Sc448 2.105 . S
O458 C452 1.268 . S
O459 Sc446 2.105 . S
O459 C453 1.268 . S
O460 Sc448 2.105 . S
O460 C454 1.268 . S
O461 Sc447 2.105 . S
O461 C455 1.268 . S
O462 Sc446 2.105 . S
O462 C454 1.268 . S
O463 Sc447 2.105 . S
O463 C453 1.268 . S
O464 Sc448 2.105 . S
O464 C455 1.268 . S
O465 Sc446 2.105 . S
O465 C451 1.268 . S
O466 Sc448 2.105 . S
O466 C450 1.268 . S
O467 Sc447 2.105 . S
O467 C452 1.268 . S
Sc468 O471 2.025 . S
Sc468 O478 2.105 . S
Sc468 O481 2.105 . S
Sc468 O484 2.105 . S
Sc468 O487 2.105 . S
Sc469 O471 2.025 . S
Sc469 O479 2.105 . S
Sc469 O483 2.105 . S
Sc469 O485 2.105 . S
Sc469 O489 2.105 . S
Sc470 O471 2.025 . S
Sc470 O480 2.105 . S
Sc470 O482 2.105 . S
Sc470 O486 2.105 . S
Sc470 O488 2.105 . S
O471 Sc468 2.025 . S
O471 Sc469 2.025 . S
O471 Sc470 2.025 . S
C472 O478 1.268 . S
C472 O488 1.268 . S
C473 O479 1.268 . S
C473 O487 1.268 . S
C474 O480 1.268 . S
C474 O489 1.268 . S
C475 O481 1.268 . S
C475 O485 1.268 . S
C476 O482 1.268 . S
C476 O484 1.268 . S
C477 O483 1.268 . S
C477 O486 1.268 . S
O478 Sc468 2.105 . S
O478 C472 1.268 . S
O479 Sc469 2.105 . S
O479 C473 1.268 . S
O480 Sc470 2.105 . S
O480 C474 1.268 . S
O481 Sc468 2.105 . S
O481 C475 1.268 . S
O482 Sc470 2.105 . S
O482 C476 1.268 . S
O483 Sc469 2.105 . S
O483 C477 1.268 . S
O484 Sc468 2.105 . S
O484 C476 1.268 . S
O485 Sc469 2.105 . S
O485 C475 1.268 . S
O486 Sc470 2.105 . S
O486 C477 1.268 . S
O487 Sc468 2.105 . S
O487 C473 1.268 . S
O488 Sc470 2.105 . S
O488 C472 1.268 . S
O489 Sc469 2.105 . S
O489 C474 1.268 . S
Sc490 O493 2.025 . S
Sc490 O500 2.105 . S
Sc490 O503 2.105 . S
Sc490 O506 2.105 . S
Sc490 O509 2.105 . S
Sc491 O493 2.025 . S
Sc491 O501 2.105 . S
Sc491 O505 2.105 . S
Sc491 O507 2.105 . S
Sc491 O511 2.105 . S
Sc492 O493 2.025 . S
Sc492 O502 2.105 . S
Sc492 O504 2.105 . S
Sc492 O508 2.105 . S
Sc492 O510 2.105 . S
O493 Sc490 2.025 . S
O493 Sc491 2.025 . S
O493 Sc492 2.025 . S
C494 O500 1.268 . S
C494 O510 1.268 . S
C495 O501 1.268 . S
C495 O509 1.268 . S
C496 O502 1.268 . S
C496 O511 1.268 . S
C497 O503 1.268 . S
C497 O507 1.268 . S
C498 O504 1.268 . S
C498 O506 1.268 . S
C499 O505 1.268 . S
C499 O508 1.268 . S
O500 Sc490 2.105 . S
O500 C494 1.268 . S
O501 Sc491 2.105 . S
O501 C495 1.268 . S
O502 Sc492 2.105 . S
O502 C496 1.268 . S
O503 Sc490 2.105 . S
O503 C497 1.268 . S
O504 Sc492 2.105 . S
O504 C498 1.268 . S
O505 Sc491 2.105 . S
O505 C499 1.268 . S
O506 Sc490 2.105 . S
O506 C498 1.268 . S
O507 Sc491 2.105 . S
O507 C497 1.268 . S
O508 Sc492 2.105 . S
O508 C499 1.268 . S
O509 Sc490 2.105 . S
O509 C495 1.268 . S
O510 Sc492 2.105 . S
O510 C494 1.268 . S
O511 Sc491 2.105 . S
O511 C496 1.268 . S
Sc512 O515 2.025 . S
Sc512 O522 2.105 . S
Sc512 O525 2.105 . S
Sc512 O528 2.105 . S
Sc512 O531 2.105 . S
Sc513 O515 2.025 . S
Sc513 O523 2.105 . S
Sc513 O527 2.105 . S
Sc513 O529 2.105 . S
Sc513 O533 2.105 . S
Sc514 O515 2.025 . S
Sc514 O524 2.105 . S
Sc514 O526 2.105 . S
Sc514 O530 2.105 . S
Sc514 O532 2.105 . S
O515 Sc512 2.025 . S
O515 Sc513 2.025 . S
O515 Sc514 2.025 . S
C516 O522 1.268 . S
C516 O532 1.268 . S
C517 O523 1.268 . S
C517 O531 1.268 . S
C518 O524 1.268 . S
C518 O533 1.268 . S
C519 O525 1.268 . S
C519 O529 1.268 . S
C520 O526 1.268 . S
C520 O528 1.268 . S
C521 O527 1.268 . S
C521 O530 1.268 . S
O522 Sc512 2.105 . S
O522 C516 1.268 . S
O523 Sc513 2.105 . S
O523 C517 1.268 . S
O524 Sc514 2.105 . S
O524 C518 1.268 . S
O525 Sc512 2.105 . S
O525 C519 1.268 . S
O526 Sc514 2.105 . S
O526 C520 1.268 . S
O527 Sc513 2.105 . S
O527 C521 1.268 . S
O528 Sc512 2.105 . S
O528 C520 1.268 . S
O529 Sc513 2.105 . S
O529 C519 1.268 . S
O530 Sc514 2.105 . S
O530 C521 1.268 . S
O531 Sc512 2.105 . S
O531 C517 1.268 . S
O532 Sc514 2.105 . S
O532 C516 1.268 . S
O533 Sc513 2.105 . S
O533 C518 1.268 . S
Sc534 O537 2.025 . S
Sc534 O544 2.105 . S
Sc534 O547 2.105 . S
Sc534 O550 2.105 . S
Sc534 O553 2.105 . S
Sc535 O537 2.025 . S
Sc535 O545 2.105 . S
Sc535 O549 2.105 . S
Sc535 O551 2.105 . S
Sc535 O555 2.105 . S
Sc536 O537 2.025 . S
Sc536 O546 2.105 . S
Sc536 O548 2.105 . S
Sc536 O552 2.105 . S
Sc536 O554 2.105 . S
O537 Sc534 2.025 . S
O537 Sc535 2.025 . S
O537 Sc536 2.025 . S
C538 O544 1.268 . S
C538 O554 1.268 . S
C539 O545 1.268 . S
C539 O553 1.268 . S
C540 O546 1.268 . S
C540 O555 1.268 . S
C541 O547 1.268 . S
C541 O551 1.268 . S
C542 O548 1.268 . S
C542 O550 1.268 . S
C543 O549 1.268 . S
C543 O552 1.268 . S
O544 Sc534 2.105 . S
O544 C538 1.268 . S
O545 Sc535 2.105 . S
O545 C539 1.268 . S
O546 Sc536 2.105 . S
O546 C540 1.268 . S
O547 Sc534 2.105 . S
O547 C541 1.268 . S
O548 Sc536 2.105 . S
O548 C542 1.268 . S
O549 Sc535 2.105 . S
O549 C543 1.268 . S
O550 Sc534 2.105 . S
O550 C542 1.268 . S
O551 Sc535 2.105 . S
O551 C541 1.268 . S
O552 Sc536 2.105 . S
O552 C543 1.268 . S
O553 Sc534 2.105 . S
O553 C539 1.268 . S
O554 Sc536 2.105 . S
O554 C538 1.268 . S
O555 Sc535 2.105 . S
O555 C540 1.268 . S
Sc556 O559 2.025 . S
Sc556 O566 2.105 . S
Sc556 O569 2.105 . S
Sc556 O572 2.105 . S
Sc556 O575 2.105 . S
Sc557 O559 2.025 . S
Sc557 O567 2.105 . S
Sc557 O571 2.105 . S
Sc557 O573 2.105 . S
Sc557 O577 2.105 . S
Sc558 O559 2.025 . S
Sc558 O568 2.105 . S
Sc558 O570 2.105 . S
Sc558 O574 2.105 . S
Sc558 O576 2.105 . S
O559 Sc556 2.025 . S
O559 Sc557 2.025 . S
O559 Sc558 2.025 . S
C560 O566 1.268 . S
C560 O576 1.268 . S
C561 O567 1.268 . S
C561 O575 1.268 . S
C562 O568 1.268 . S
C562 O577 1.268 . S
C563 O569 1.268 . S
C563 O573 1.268 . S
C564 O570 1.268 . S
C564 O572 1.268 . S
C565 O571 1.268 . S
C565 O574 1.268 . S
O566 Sc556 2.105 . S
O566 C560 1.268 . S
O567 Sc557 2.105 . S
O567 C561 1.268 . S
O568 Sc558 2.105 . S
O568 C562 1.268 . S
O569 Sc556 2.105 . S
O569 C563 1.268 . S
O570 Sc558 2.105 . S
O570 C564 1.268 . S
O571 Sc557 2.105 . S
O571 C565 1.268 . S
O572 Sc556 2.105 . S
O572 C564 1.268 . S
O573 Sc557 2.105 . S
O573 C563 1.268 . S
O574 Sc558 2.105 . S
O574 C565 1.268 . S
O575 Sc556 2.105 . S
O575 C561 1.268 . S
O576 Sc558 2.105 . S
O576 C560 1.268 . S
O577 Sc557 2.105 . S
O577 C562 1.268 . S
Sc578 O581 2.025 . S
Sc578 O588 2.105 . S
Sc578 O591 2.105 . S
Sc578 O594 2.105 . S
Sc578 O597 2.105 . S
Sc579 O581 2.025 . S
Sc579 O589 2.105 . S
Sc579 O593 2.105 . S
Sc579 O595 2.105 . S
Sc579 O599 2.105 . S
Sc580 O581 2.025 . S
Sc580 O590 2.105 . S
Sc580 O592 2.105 . S
Sc580 O596 2.105 . S
Sc580 O598 2.105 . S
O581 Sc578 2.025 . S
O581 Sc579 2.025 . S
O581 Sc580 2.025 . S
C582 O588 1.268 . S
C582 O598 1.268 . S
C583 O589 1.268 . S
C583 O597 1.268 . S
C584 O590 1.268 . S
C584 O599 1.268 . S
C585 O591 1.268 . S
C585 O595 1.268 . S
C586 O592 1.268 . S
C586 O594 1.268 . S
C587 O593 1.268 . S
C587 O596 1.268 . S
O588 Sc578 2.105 . S
O588 C582 1.268 . S
O589 Sc579 2.105 . S
O589 C583 1.268 . S
O590 Sc580 2.105 . S
O590 C584 1.268 . S
O591 Sc578 2.105 . S
O591 C585 1.268 . S
O592 Sc580 2.105 . S
O592 C586 1.268 . S
O593 Sc579 2.105 . S
O593 C587 1.268 . S
O594 Sc578 2.105 . S
O594 C586 1.268 . S
O595 Sc579 2.105 . S
O595 C585 1.268 . S
O596 Sc580 2.105 . S
O596 C587 1.268 . S
O597 Sc578 2.105 . S
O597 C583 1.268 . S
O598 Sc580 2.105 . S
O598 C582 1.268 . S
O599 Sc579 2.105 . S
O599 C584 1.268 . S
Sc600 O603 2.025 . S
Sc600 O610 2.105 . S
Sc600 O613 2.105 . S
Sc600 O616 2.105 . S
Sc600 O619 2.105 . S
Sc601 O603 2.025 . S
Sc601 O611 2.105 . S
Sc601 O615 2.105 . S
Sc601 O617 2.105 . S
Sc601 O621 2.105 . S
Sc602 O603 2.025 . S
Sc602 O612 2.105 . S
Sc602 O614 2.105 . S
Sc602 O618 2.105 . S
Sc602 O620 2.105 . S
O603 Sc600 2.025 . S
O603 Sc601 2.025 . S
O603 Sc602 2.025 . S
C604 O610 1.268 . S
C604 O620 1.268 . S
C605 O611 1.268 . S
C605 O619 1.268 . S
C606 O612 1.268 . S
C606 O621 1.268 . S
C607 O613 1.268 . S
C607 O617 1.268 . S
C608 O614 1.268 . S
C608 O616 1.268 . S
C609 O615 1.268 . S
C609 O618 1.268 . S
O610 Sc600 2.105 . S
O610 C604 1.268 . S
O611 Sc601 2.105 . S
O611 C605 1.268 . S
O612 Sc602 2.105 . S
O612 C606 1.268 . S
O613 Sc600 2.105 . S
O613 C607 1.268 . S
O614 Sc602 2.105 . S
O614 C608 1.268 . S
O615 Sc601 2.105 . S
O615 C609 1.268 . S
O616 Sc600 2.105 . S
O616 C608 1.268 . S
O617 Sc601 2.105 . S
O617 C607 1.268 . S
O618 Sc602 2.105 . S
O618 C609 1.268 . S
O619 Sc600 2.105 . S
O619 C605 1.268 . S
O620 Sc602 2.105 . S
O620 C604 1.268 . S
O621 Sc601 2.105 . S
O621 C606 1.268 . S
Sc622 O625 2.025 . S
Sc622 O632 2.105 . S
Sc622 O635 2.105 . S
Sc622 O638 2.105 . S
Sc622 O641 2.105 . S
Sc623 O625 2.025 . S
Sc623 O633 2.105 . S
Sc623 O637 2.105 . S
Sc623 O639 2.105 . S
Sc623 O643 2.105 . S
Sc624 O625 2.025 . S
Sc624 O634 2.105 . S
Sc624 O636 2.105 . S
Sc624 O640 2.105 . S
Sc624 O642 2.105 . S
O625 Sc622 2.025 . S
O625 Sc623 2.025 . S
O625 Sc624 2.025 . S
C626 O632 1.268 . S
C626 O642 1.268 . S
C627 O633 1.268 . S
C627 O641 1.268 . S
C628 O634 1.268 . S
C628 O643 1.268 . S
C629 O635 1.268 . S
C629 O639 1.268 . S
C630 O636 1.268 . S
C630 O638 1.268 . S
C631 O637 1.268 . S
C631 O640 1.268 . S
O632 Sc622 2.105 . S
O632 C626 1.268 . S
O633 Sc623 2.105 . S
O633 C627 1.268 . S
O634 Sc624 2.105 . S
O634 C628 1.268 . S
O635 Sc622 2.105 . S
O635 C629 1.268 . S
O636 Sc624 2.105 . S
O636 C630 1.268 . S
O637 Sc623 2.105 . S
O637 C631 1.268 . S
O638 Sc622 2.105 . S
O638 C630 1.268 . S
O639 Sc623 2.105 . S
O639 C629 1.268 . S
O640 Sc624 2.105 . S
O640 C631 1.268 . S
O641 Sc622 2.105 . S
O641 C627 1.268 . S
O642 Sc624 2.105 . S
O642 C626 1.268 . S
O643 Sc623 2.105 . S
O643 C628 1.268 . S
Sc644 O647 2.025 . S
Sc644 O654 2.105 . S
Sc644 O657 2.105 . S
Sc644 O660 2.105 . S
Sc644 O663 2.105 . S
Sc645 O647 2.025 . S
Sc645 O655 2.105 . S
Sc645 O659 2.105 . S
Sc645 O661 2.105 . S
Sc645 O665 2.105 . S
Sc646 O647 2.025 . S
Sc646 O656 2.105 . S
Sc646 O658 2.105 . S
Sc646 O662 2.105 . S
Sc646 O664 2.105 . S
O647 Sc644 2.025 . S
O647 Sc645 2.025 . S
O647 Sc646 2.025 . S
C648 O654 1.268 . S
C648 O664 1.268 . S
C649 O655 1.268 . S
C649 O663 1.268 . S
C650 O656 1.268 . S
C650 O665 1.268 . S
C651 O657 1.268 . S
C651 O661 1.268 . S
C652 O658 1.268 . S
C652 O660 1.268 . S
C653 O659 1.268 . S
C653 O662 1.268 . S
O654 Sc644 2.105 . S
O654 C648 1.268 . S
O655 Sc645 2.105 . S
O655 C649 1.268 . S
O656 Sc646 2.105 . S
O656 C650 1.268 . S
O657 Sc644 2.105 . S
O657 C651 1.268 . S
O658 Sc646 2.105 . S
O658 C652 1.268 . S
O659 Sc645 2.105 . S
O659 C653 1.268 . S
O660 Sc644 2.105 . S
O660 C652 1.268 . S
O661 Sc645 2.105 . S
O661 C651 1.268 . S
O662 Sc646 2.105 . S
O662 C653 1.268 . S
O663 Sc644 2.105 . S
O663 C649 1.268 . S
O664 Sc646 2.105 . S
O664 C648 1.268 . S
O665 Sc645 2.105 . S
O665 C650 1.268 . S
Sc666 O669 2.025 . S
Sc666 O676 2.105 . S
Sc666 O679 2.105 . S
Sc666 O682 2.105 . S
Sc666 O685 2.105 . S
Sc667 O669 2.025 . S
Sc667 O677 2.105 . S
Sc667 O681 2.105 . S
Sc667 O683 2.105 . S
Sc667 O687 2.105 . S
Sc668 O669 2.025 . S
Sc668 O678 2.105 . S
Sc668 O680 2.105 . S
Sc668 O684 2.105 . S
Sc668 O686 2.105 . S
O669 Sc666 2.025 . S
O669 Sc667 2.025 . S
O669 Sc668 2.025 . S
C670 O676 1.268 . S
C670 O686 1.268 . S
C671 O677 1.268 . S
C671 O685 1.268 . S
C672 O678 1.268 . S
C672 O687 1.268 . S
C673 O679 1.268 . S
C673 O683 1.268 . S
C674 O680 1.268 . S
C674 O682 1.268 . S
C675 O681 1.268 . S
C675 O684 1.268 . S
O676 Sc666 2.105 . S
O676 C670 1.268 . S
O677 Sc667 2.105 . S
O677 C671 1.268 . S
O678 Sc668 2.105 . S
O678 C672 1.268 . S
O679 Sc666 2.105 . S
O679 C673 1.268 . S
O680 Sc668 2.105 . S
O680 C674 1.268 . S
O681 Sc667 2.105 . S
O681 C675 1.268 . S
O682 Sc666 2.105 . S
O682 C674 1.268 . S
O683 Sc667 2.105 . S
O683 C673 1.268 . S
O684 Sc668 2.105 . S
O684 C675 1.268 . S
O685 Sc666 2.105 . S
O685 C671 1.268 . S
O686 Sc668 2.105 . S
O686 C670 1.268 . S
O687 Sc667 2.105 . S
O687 C672 1.268 . S
H688 C696 0.929 . S
H689 C698 0.930 . S
H690 C700 0.930 . S
H691 C703 0.929 . S
H692 C706 0.930 . S
H693 C708 0.960 . S
H694 C708 0.960 . S
H695 C708 0.960 . S
C696 H688 0.929 . S
C696 C697 1.377 . S
C696 C698 1.384 . S
C697 C696 1.377 . S
C697 C703 1.390 . S
C698 H689 0.930 . S
C698 C696 1.384 . S
C698 C699 1.372 . S
C699 C698 1.372 . S
C699 C700 1.400 . S
C699 C704 1.490 . S
C700 H690 0.930 . S
C700 C699 1.400 . S
C700 C703 1.386 . S
H701 C717 0.930 . S
H702 C718 0.931 . S
C703 H691 0.929 . S
C703 C697 1.390 . S
C703 C700 1.386 . S
C704 C699 1.490 . S
C704 C706 1.395 . S
C704 C707 1.403 . S
H705 C711 0.930 . S
C706 H692 0.930 . S
C706 C704 1.395 . S
C706 C709 1.403 . S
C707 C704 1.403 . S
C707 C708 1.524 . S
C707 C711 1.400 . S
C708 H693 0.960 . S
C708 H694 0.960 . S
C708 H695 0.960 . S
C708 C707 1.524 . S
C709 C706 1.403 . S
C709 C710 1.392 . S
C709 C713 1.495 . S
C710 C709 1.392 . S
C710 C711 1.385 . S
C710 C712 1.478 . S
C711 H705 0.930 . S
C711 C707 1.400 . S
C711 C710 1.385 . S
C712 C710 1.478 . S
C712 C714 1.381 . S
C712 C718 1.383 . S
C713 C709 1.495 . S
C713 H719 0.959 . S
C713 H720 0.961 . S
C713 H721 0.960 . S
C714 C712 1.381 . S
C714 C715 1.394 . S
C714 H722 0.930 . S
C715 C714 1.394 . S
C715 C716 1.383 . S
C715 H723 0.929 . S
C716 C715 1.383 . S
C716 C717 1.377 . S
C717 H701 0.930 . S
C717 C716 1.377 . S
C717 C718 1.379 . S
C718 H702 0.931 . S
C718 C712 1.383 . S
C718 C717 1.379 . S
H719 C713 0.959 . S
H720 C713 0.961 . S
H721 C713 0.960 . S
H722 C714 0.930 . S
H723 C715 0.929 . S
H724 C732 0.929 . S
H725 C734 0.930 . S
H726 C736 0.930 . S
H727 C739 0.929 . S
H728 C742 0.930 . S
H729 C744 0.960 . S
H730 C744 0.960 . S
H731 C744 0.960 . S
C732 H724 0.929 . S
C732 C733 1.377 . S
C732 C734 1.384 . S
C733 C732 1.377 . S
C733 C739 1.390 . S
C734 H725 0.930 . S
C734 C732 1.384 . S
C734 C735 1.372 . S
C735 C734 1.372 . S
C735 C736 1.400 . S
C735 C740 1.490 . S
C736 H726 0.930 . S
C736 C735 1.400 . S
C736 C739 1.386 . S
H737 C753 0.930 . S
H738 C754 0.931 . S
C739 H727 0.929 . S
C739 C733 1.390 . S
C739 C736 1.386 . S
C740 C735 1.490 . S
C740 C742 1.395 . S
C740 C743 1.403 . S
H741 C747 0.930 . S
C742 H728 0.930 . S
C742 C740 1.395 . S
C742 C745 1.403 . S
C743 C740 1.403 . S
C743 C744 1.524 . S
C743 C747 1.400 . S
C744 H729 0.960 . S
C744 H730 0.960 . S
C744 H731 0.960 . S
C744 C743 1.524 . S
C745 C742 1.403 . S
C745 C746 1.392 . S
C745 C749 1.495 . S
C746 C745 1.392 . S
C746 C747 1.385 . S
C746 C748 1.478 . S
C747 H741 0.930 . S
C747 C743 1.400 . S
C747 C746 1.385 . S
C748 C746 1.478 . S
C748 C750 1.381 . S
C748 C754 1.383 . S
C749 C745 1.495 . S
C749 H755 0.959 . S
C749 H756 0.961 . S
C749 H757 0.960 . S
C750 C748 1.381 . S
C750 C751 1.394 . S
C750 H758 0.930 . S
C751 C750 1.394 . S
C751 C752 1.383 . S
C751 H759 0.929 . S
C752 C751 1.383 . S
C752 C753 1.377 . S
C753 H737 0.930 . S
C753 C752 1.377 . S
C753 C754 1.379 . S
C754 H738 0.931 . S
C754 C748 1.383 . S
C754 C753 1.379 . S
H755 C749 0.959 . S
H756 C749 0.961 . S
H757 C749 0.960 . S
H758 C750 0.930 . S
H759 C751 0.929 . S
H760 C768 0.929 . S
H761 C770 0.930 . S
H762 C772 0.930 . S
H763 C775 0.929 . S
H764 C778 0.930 . S
H765 C780 0.960 . S
H766 C780 0.960 . S
H767 C780 0.960 . S
C768 H760 0.929 . S
C768 C769 1.377 . S
C768 C770 1.384 . S
C769 C768 1.377 . S
C769 C775 1.390 . S
C770 H761 0.930 . S
C770 C768 1.384 . S
C770 C771 1.372 . S
C771 C770 1.372 . S
C771 C772 1.400 . S
C771 C776 1.490 . S
C772 H762 0.930 . S
C772 C771 1.400 . S
C772 C775 1.386 . S
H773 C789 0.930 . S
H774 C790 0.931 . S
C775 H763 0.929 . S
C775 C769 1.390 . S
C775 C772 1.386 . S
C776 C771 1.490 . S
C776 C778 1.395 . S
C776 C779 1.403 . S
H777 C783 0.930 . S
C778 H764 0.930 . S
C778 C776 1.395 . S
C778 C781 1.403 . S
C779 C776 1.403 . S
C779 C780 1.524 . S
C779 C783 1.400 . S
C780 H765 0.960 . S
C780 H766 0.960 . S
C780 H767 0.960 . S
C780 C779 1.524 . S
C781 C778 1.403 . S
C781 C782 1.392 . S
C781 C785 1.495 . S
C782 C781 1.392 . S
C782 C783 1.385 . S
C782 C784 1.478 . S
C783 H777 0.930 . S
C783 C779 1.400 . S
C783 C782 1.385 . S
C784 C782 1.478 . S
C784 C786 1.381 . S
C784 C790 1.383 . S
C785 C781 1.495 . S
C785 H791 0.959 . S
C785 H792 0.961 . S
C785 H793 0.960 . S
C786 C784 1.381 . S
C786 C787 1.394 . S
C786 H794 0.930 . S
C787 C786 1.394 . S
C787 C788 1.383 . S
C787 H795 0.929 . S
C788 C787 1.383 . S
C788 C789 1.377 . S
C789 H773 0.930 . S
C789 C788 1.377 . S
C789 C790 1.379 . S
C790 H774 0.931 . S
C790 C784 1.383 . S
C790 C789 1.379 . S
H791 C785 0.959 . S
H792 C785 0.961 . S
H793 C785 0.960 . S
H794 C786 0.930 . S
H795 C787 0.929 . S
H796 C804 0.929 . S
H797 C806 0.930 . S
H798 C808 0.930 . S
H799 C811 0.929 . S
H800 C814 0.930 . S
H801 C816 0.960 1_556 S
H802 C816 0.960 . S
H803 C816 0.960 . S
C804 H796 0.929 . S
C804 C805 1.377 . S
C804 C806 1.384 . S
C805 C804 1.377 . S
C805 C811 1.390 . S
C806 H797 0.930 . S
C806 C804 1.384 . S
C806 C807 1.372 . S
C807 C806 1.372 . S
C807 C808 1.400 . S
C807 C812 1.490 . S
C808 H798 0.930 . S
C808 C807 1.400 . S
C808 C811 1.386 . S
H809 C825 0.930 . S
H810 C826 0.931 . S
C811 H799 0.929 . S
C811 C805 1.390 . S
C811 C808 1.386 . S
C812 C807 1.490 . S
C812 C814 1.395 . S
C812 C815 1.403 . S
H813 C819 0.930 . S
C814 H800 0.930 . S
C814 C812 1.395 . S
C814 C817 1.403 . S
C815 C812 1.403 . S
C815 C816 1.524 . S
C815 C819 1.400 1_554 S
C816 H801 0.960 1_554 S
C816 H802 0.960 . S
C816 H803 0.960 . S
C816 C815 1.524 . S
C817 C814 1.403 . S
C817 C818 1.392 1_554 S
C817 C821 1.495 . S
C818 C817 1.392 1_556 S
C818 C819 1.385 . S
C818 C820 1.478 . S
C819 H813 0.930 . S
C819 C815 1.400 1_556 S
C819 C818 1.385 . S
C820 C818 1.478 . S
C820 C822 1.381 . S
C820 C826 1.383 . S
C821 C817 1.495 . S
C821 H827 0.959 . S
C821 H828 0.961 . S
C821 H829 0.960 . S
C822 C820 1.381 . S
C822 C823 1.394 . S
C822 H830 0.930 . S
C823 C822 1.394 . S
C823 C824 1.383 . S
C823 H831 0.929 . S
C824 C823 1.383 . S
C824 C825 1.377 . S
C825 H809 0.930 . S
C825 C824 1.377 . S
C825 C826 1.379 . S
C826 H810 0.931 . S
C826 C820 1.383 . S
C826 C825 1.379 . S
H827 C821 0.959 . S
H828 C821 0.961 . S
H829 C821 0.960 . S
H830 C822 0.930 . S
H831 C823 0.929 . S
H832 C840 0.929 . S
H833 C842 0.930 . S
H834 C844 0.930 . S
H835 C847 0.929 . S
H836 C850 0.930 . S
H837 C852 0.960 . S
H838 C852 0.960 . S
H839 C852 0.960 . S
C840 H832 0.929 . S
C840 C841 1.377 . S
C840 C842 1.384 . S
C841 C840 1.377 . S
C841 C847 1.390 . S
C842 H833 0.930 . S
C842 C840 1.384 . S
C842 C843 1.372 . S
C843 C842 1.372 . S
C843 C844 1.400 . S
C843 C848 1.490 . S
C844 H834 0.930 . S
C844 C843 1.400 . S
C844 C847 1.386 . S
H845 C861 0.930 . S
H846 C862 0.931 . S
C847 H835 0.929 . S
C847 C841 1.390 . S
C847 C844 1.386 . S
C848 C843 1.490 . S
C848 C850 1.395 . S
C848 C851 1.403 . S
H849 C855 0.930 . S
C850 H836 0.930 . S
C850 C848 1.395 . S
C850 C853 1.403 . S
C851 C848 1.403 . S
C851 C852 1.524 . S
C851 C855 1.400 . S
C852 H837 0.960 . S
C852 H838 0.960 . S
C852 H839 0.960 . S
C852 C851 1.524 . S
C853 C850 1.403 . S
C853 C854 1.392 . S
C853 C857 1.495 . S
C854 C853 1.392 . S
C854 C855 1.385 . S
C854 C856 1.478 . S
C855 H849 0.930 . S
C855 C851 1.400 . S
C855 C854 1.385 . S
C856 C854 1.478 . S
C856 C858 1.381 . S
C856 C862 1.383 . S
C857 C853 1.495 . S
C857 H863 0.959 . S
C857 H864 0.961 . S
C857 H865 0.960 . S
C858 C856 1.381 . S
C858 C859 1.394 . S
C858 H866 0.930 . S
C859 C858 1.394 . S
C859 C860 1.383 . S
C859 H867 0.929 . S
C860 C859 1.383 . S
C860 C861 1.377 . S
C861 H845 0.930 . S
C861 C860 1.377 . S
C861 C862 1.379 . S
C862 H846 0.931 . S
C862 C856 1.383 . S
C862 C861 1.379 . S
H863 C857 0.959 . S
H864 C857 0.961 . S
H865 C857 0.960 . S
H866 C858 0.930 . S
H867 C859 0.929 . S
H868 C876 0.929 . S
H869 C878 0.930 . S
H870 C880 0.930 . S
H871 C883 0.929 . S
H872 C886 0.930 . S
H873 C888 0.960 . S
H874 C888 0.960 . S
H875 C888 0.960 . S
C876 H868 0.929 . S
C876 C877 1.377 . S
C876 C878 1.384 . S
C877 C876 1.377 . S
C877 C883 1.390 . S
C878 H869 0.930 . S
C878 C876 1.384 . S
C878 C879 1.372 . S
C879 C878 1.372 . S
C879 C880 1.400 . S
C879 C884 1.490 . S
C880 H870 0.930 . S
C880 C879 1.400 . S
C880 C883 1.386 . S
H881 C897 0.930 . S
H882 C898 0.931 . S
C883 H871 0.929 . S
C883 C877 1.390 . S
C883 C880 1.386 . S
C884 C879 1.490 . S
C884 C886 1.395 . S
C884 C887 1.403 . S
H885 C891 0.930 . S
C886 H872 0.930 . S
C886 C884 1.395 . S
C886 C889 1.403 . S
C887 C884 1.403 . S
C887 C888 1.524 . S
C887 C891 1.400 . S
C888 H873 0.960 . S
C888 H874 0.960 . S
C888 H875 0.960 . S
C888 C887 1.524 . S
C889 C886 1.403 . S
C889 C890 1.392 . S
C889 C893 1.495 . S
C890 C889 1.392 . S
C890 C891 1.385 . S
C890 C892 1.478 . S
C891 H885 0.930 . S
C891 C887 1.400 . S
C891 C890 1.385 . S
C892 C890 1.478 . S
C892 C894 1.381 . S
C892 C898 1.383 . S
C893 C889 1.495 . S
C893 H899 0.959 . S
C893 H900 0.961 . S
C893 H901 0.960 . S
C894 C892 1.381 . S
C894 C895 1.394 . S
C894 H902 0.930 . S
C895 C894 1.394 . S
C895 C896 1.383 . S
C895 H903 0.929 . S
C896 C895 1.383 . S
C896 C897 1.377 . S
C897 H881 0.930 . S
C897 C896 1.377 . S
C897 C898 1.379 . S
C898 H882 0.931 . S
C898 C892 1.383 . S
C898 C897 1.379 . S
H899 C893 0.959 . S
H900 C893 0.961 . S
H901 C893 0.960 . S
H902 C894 0.930 . S
H903 C895 0.929 . S
H904 C912 0.929 . S
H905 C914 0.930 . S
H906 C916 0.930 . S
H907 C919 0.929 . S
H908 C922 0.930 . S
H909 C924 0.960 . S
H910 C924 0.960 . S
H911 C924 0.960 . S
C912 H904 0.929 . S
C912 C913 1.377 . S
C912 C914 1.384 . S
C913 C912 1.377 . S
C913 C919 1.390 . S
C914 H905 0.930 . S
C914 C912 1.384 . S
C914 C915 1.372 . S
C915 C914 1.372 . S
C915 C916 1.400 . S
C915 C920 1.490 . S
C916 H906 0.930 . S
C916 C915 1.400 . S
C916 C919 1.386 . S
H917 C933 0.930 . S
H918 C934 0.931 . S
C919 H907 0.929 . S
C919 C913 1.390 . S
C919 C916 1.386 . S
C920 C915 1.490 . S
C920 C922 1.395 . S
C920 C923 1.403 . S
H921 C927 0.930 . S
C922 H908 0.930 . S
C922 C920 1.395 . S
C922 C925 1.403 . S
C923 C920 1.403 . S
C923 C924 1.524 . S
C923 C927 1.400 . S
C924 H909 0.960 . S
C924 H910 0.960 . S
C924 H911 0.960 . S
C924 C923 1.524 . S
C925 C922 1.403 . S
C925 C926 1.392 . S
C925 C929 1.495 . S
C926 C925 1.392 . S
C926 C927 1.385 . S
C926 C928 1.478 . S
C927 H921 0.930 . S
C927 C923 1.400 . S
C927 C926 1.385 . S
C928 C926 1.478 . S
C928 C930 1.381 . S
C928 C934 1.383 . S
C929 C925 1.495 . S
C929 H935 0.959 . S
C929 H936 0.961 . S
C929 H937 0.960 . S
C930 C928 1.381 . S
C930 C931 1.394 . S
C930 H938 0.930 . S
C931 C930 1.394 . S
C931 C932 1.383 . S
C931 H939 0.929 . S
C932 C931 1.383 . S
C932 C933 1.377 . S
C933 H917 0.930 . S
C933 C932 1.377 . S
C933 C934 1.379 . S
C934 H918 0.931 . S
C934 C928 1.383 . S
C934 C933 1.379 . S
H935 C929 0.959 . S
H936 C929 0.961 . S
H937 C929 0.960 . S
H938 C930 0.930 . S
H939 C931 0.929 . S
H940 C948 0.929 . S
H941 C950 0.930 . S
H942 C952 0.930 . S
H943 C955 0.929 . S
H944 C958 0.930 . S
H945 C960 0.960 . S
H946 C960 0.960 . S
H947 C960 0.960 . S
C948 H940 0.929 . S
C948 C949 1.377 . S
C948 C950 1.384 . S
C949 C948 1.377 . S
C949 C955 1.390 . S
C950 H941 0.930 . S
C950 C948 1.384 . S
C950 C951 1.372 . S
C951 C950 1.372 . S
C951 C952 1.400 . S
C951 C956 1.490 . S
C952 H942 0.930 . S
C952 C951 1.400 . S
C952 C955 1.386 . S
H953 C969 0.930 . S
H954 C970 0.931 . S
C955 H943 0.929 . S
C955 C949 1.390 . S
C955 C952 1.386 . S
C956 C951 1.490 . S
C956 C958 1.395 . S
C956 C959 1.403 . S
H957 C963 0.930 . S
C958 H944 0.930 . S
C958 C956 1.395 . S
C958 C961 1.403 . S
C959 C956 1.403 . S
C959 C960 1.524 . S
C959 C963 1.400 1_556 S
C960 H945 0.960 . S
C960 H946 0.960 . S
C960 H947 0.960 . S
C960 C959 1.524 . S
C961 C958 1.403 . S
C961 C962 1.392 1_556 S
C961 C965 1.495 . S
C962 C961 1.392 1_554 S
C962 C963 1.385 . S
C962 C964 1.478 . S
C963 H957 0.930 . S
C963 C959 1.400 1_554 S
C963 C962 1.385 . S
C964 C962 1.478 . S
C964 C966 1.381 . S
C964 C970 1.383 . S
C965 C961 1.495 . S
C965 H971 0.959 . S
C965 H972 0.961 . S
C965 H973 0.960 1_556 S
C966 C964 1.381 . S
C966 C967 1.394 . S
C966 H974 0.930 . S
C967 C966 1.394 . S
C967 C968 1.383 . S
C967 H975 0.929 . S
C968 C967 1.383 . S
C968 C969 1.377 . S
C969 H953 0.930 . S
C969 C968 1.377 . S
C969 C970 1.379 . S
C970 H954 0.931 . S
C970 C964 1.383 . S
C970 C969 1.379 . S
H971 C965 0.959 . S
H972 C965 0.961 . S
H973 C965 0.960 1_554 S
H974 C966 0.930 . S
H975 C967 0.929 . S
H976 C984 0.929 . S
H977 C986 0.930 . S
H978 C988 0.930 . S
H979 C991 0.929 . S
H980 C994 0.930 . S
H981 C996 0.960 . S
H982 C996 0.960 . S
H983 C996 0.960 . S
C984 H976 0.929 . S
C984 C985 1.377 . S
C984 C986 1.384 . S
C985 C984 1.377 . S
C985 C991 1.390 . S
C986 H977 0.930 . S
C986 C984 1.384 . S
C986 C987 1.372 . S
C987 C986 1.372 . S
C987 C988 1.400 . S
C987 C992 1.490 . S
C988 H978 0.930 . S
C988 C987 1.400 . S
C988 C991 1.386 . S
H989 C1005 0.930 . S
H990 C1006 0.931 . S
C991 H979 0.929 . S
C991 C985 1.390 . S
C991 C988 1.386 . S
C992 C987 1.490 . S
C992 C994 1.395 . S
C992 C995 1.403 . S
H993 C999 0.930 . S
C994 H980 0.930 . S
C994 C992 1.395 . S
C994 C997 1.403 . S
C995 C992 1.403 . S
C995 C996 1.524 . S
C995 C999 1.400 . S
C996 H981 0.960 . S
C996 H982 0.960 . S
C996 H983 0.960 . S
C996 C995 1.524 . S
C997 C994 1.403 . S
C997 C998 1.392 . S
C997 C1001 1.495 . S
C998 C997 1.392 . S
C998 C999 1.385 . S
C998 C1000 1.478 . S
C999 H993 0.930 . S
C999 C995 1.400 . S
C999 C998 1.385 . S
C1000 C998 1.478 . S
C1000 C1002 1.381 . S
C1000 C1006 1.383 . S
C1001 C997 1.495 . S
C1001 H1007 0.959 . S
C1001 H1008 0.961 . S
C1001 H1009 0.960 . S
C1002 C1000 1.381 . S
C1002 C1003 1.394 . S
C1002 H1010 0.930 . S
C1003 C1002 1.394 . S
C1003 C1004 1.383 . S
C1003 H1011 0.929 . S
C1004 C1003 1.383 . S
C1004 C1005 1.377 . S
C1005 H989 0.930 . S
C1005 C1004 1.377 . S
C1005 C1006 1.379 . S
C1006 H990 0.931 . S
C1006 C1000 1.383 . S
C1006 C1005 1.379 . S
H1007 C1001 0.959 . S
H1008 C1001 0.961 . S
H1009 C1001 0.960 . S
H1010 C1002 0.930 . S
H1011 C1003 0.929 . S
H1012 C1020 0.929 . S
H1013 C1022 0.930 . S
H1014 C1024 0.930 . S
H1015 C1027 0.929 . S
H1016 C1030 0.930 . S
H1017 C1032 0.960 . S
H1018 C1032 0.960 . S
H1019 C1032 0.960 . S
C1020 H1012 0.929 . S
C1020 C1021 1.377 . S
C1020 C1022 1.384 . S
C1021 C1020 1.377 . S
C1021 C1027 1.390 . S
C1022 H1013 0.930 . S
C1022 C1020 1.384 . S
C1022 C1023 1.372 . S
C1023 C1022 1.372 . S
C1023 C1024 1.400 . S
C1023 C1028 1.490 . S
C1024 H1014 0.930 . S
C1024 C1023 1.400 . S
C1024 C1027 1.386 . S
H1025 C1041 0.930 . S
H1026 C1042 0.931 . S
C1027 H1015 0.929 . S
C1027 C1021 1.390 . S
C1027 C1024 1.386 . S
C1028 C1023 1.490 . S
C1028 C1030 1.395 . S
C1028 C1031 1.403 . S
H1029 C1035 0.930 . S
C1030 H1016 0.930 . S
C1030 C1028 1.395 . S
C1030 C1033 1.403 1_545 S
C1031 C1028 1.403 . S
C1031 C1032 1.524 . S
C1031 C1035 1.400 . S
C1032 H1017 0.960 . S
C1032 H1018 0.960 . S
C1032 H1019 0.960 . S
C1032 C1031 1.524 . S
C1033 C1030 1.403 1_565 S
C1033 C1034 1.392 . S
C1033 C1037 1.495 . S
C1034 C1033 1.392 . S
C1034 C1035 1.385 1_565 S
C1034 C1036 1.478 . S
C1035 H1029 0.930 . S
C1035 C1031 1.400 . S
C1035 C1034 1.385 1_545 S
C1036 C1034 1.478 . S
C1036 C1038 1.381 . S
C1036 C1042 1.383 . S
C1037 C1033 1.495 . S
C1037 H1043 0.959 . S
C1037 H1044 0.961 . S
C1037 H1045 0.960 . S
C1038 C1036 1.381 . S
C1038 C1039 1.394 . S
C1038 H1046 0.930 . S
C1039 C1038 1.394 . S
C1039 C1040 1.383 . S
C1039 H1047 0.929 . S
C1040 C1039 1.383 . S
C1040 C1041 1.377 . S
C1041 H1025 0.930 . S
C1041 C1040 1.377 . S
C1041 C1042 1.379 . S
C1042 H1026 0.931 . S
C1042 C1036 1.383 . S
C1042 C1041 1.379 . S
H1043 C1037 0.959 . S
H1044 C1037 0.961 . S
H1045 C1037 0.960 . S
H1046 C1038 0.930 . S
H1047 C1039 0.929 . S
H1048 C1056 0.937 . S
H1049 C1058 0.930 . S
H1050 C1060 0.930 . S
H1051 C1063 0.929 . S
H1052 C1066 0.930 . S
H1053 C1068 0.960 . S
H1054 C1068 0.960 . S
H1055 C1068 0.960 . S
C1056 H1048 0.937 . S
C1056 C1057 1.377 . S
C1056 C1058 1.384 . S
C1057 C1056 1.377 . S
C1057 C1063 1.390 . S
C1058 H1049 0.930 . S
C1058 C1056 1.384 . S
C1058 C1059 1.372 . S
C1059 C1058 1.372 . S
C1059 C1060 1.400 . S
C1059 C1064 1.490 . S
C1060 H1050 0.930 . S
C1060 C1059 1.400 . S
C1060 C1063 1.386 . S
H1061 C1077 0.930 . S
H1062 C1078 0.931 . S
C1063 H1051 0.929 . S
C1063 C1057 1.390 . S
C1063 C1060 1.386 . S
C1064 C1059 1.490 . S
C1064 C1066 1.395 . S
C1064 C1067 1.403 . S
H1065 C1071 0.930 . S
C1066 H1052 0.930 . S
C1066 C1064 1.395 . S
C1066 C1069 1.403 . S
C1067 C1064 1.403 . S
C1067 C1068 1.524 . S
C1067 C1071 1.400 . S
C1068 H1053 0.960 . S
C1068 H1054 0.960 . S
C1068 H1055 0.960 . S
C1068 C1067 1.524 . S
C1069 C1066 1.403 . S
C1069 C1070 1.392 . S
C1069 C1073 1.495 . S
C1070 C1069 1.392 . S
C1070 C1071 1.385 . S
C1070 C1072 1.478 . S
C1071 H1065 0.930 . S
C1071 C1067 1.400 . S
C1071 C1070 1.385 . S
C1072 C1070 1.478 . S
C1072 C1074 1.381 . S
C1072 C1078 1.383 . S
C1073 C1069 1.495 . S
C1073 H1079 0.959 . S
C1073 H1080 0.961 . S
C1073 H1081 0.960 . S
C1074 C1072 1.381 . S
C1074 C1075 1.394 . S
C1074 H1082 0.930 . S
C1075 C1074 1.394 . S
C1075 C1076 1.383 . S
C1075 H1083 0.929 . S
C1076 C1075 1.383 . S
C1076 C1077 1.377 . S
C1077 H1061 0.930 . S
C1077 C1076 1.377 . S
C1077 C1078 1.379 . S
C1078 H1062 0.931 . S
C1078 C1072 1.383 . S
C1078 C1077 1.379 . S
H1079 C1073 0.959 . S
H1080 C1073 0.961 . S
H1081 C1073 0.960 . S
H1082 C1074 0.930 . S
H1083 C1075 0.929 . S
H1084 C1092 0.929 . S
H1085 C1094 0.930 . S
H1086 C1096 0.930 . S
H1087 C1099 0.929 . S
H1088 C1102 0.930 . S
H1089 C1104 0.960 . S
H1090 C1104 0.960 . S
H1091 C1104 0.960 . S
C1092 H1084 0.929 . S
C1092 C1093 1.377 . S
C1092 C1094 1.384 . S
C1093 C1092 1.377 . S
C1093 C1099 1.390 . S
C1094 H1085 0.930 . S
C1094 C1092 1.384 . S
C1094 C1095 1.372 . S
C1095 C1094 1.372 . S
C1095 C1096 1.400 . S
C1095 C1100 1.490 . S
C1096 H1086 0.930 . S
C1096 C1095 1.400 . S
C1096 C1099 1.386 . S
H1097 C1113 0.930 . S
H1098 C1114 0.931 . S
C1099 H1087 0.929 . S
C1099 C1093 1.390 . S
C1099 C1096 1.386 . S
C1100 C1095 1.490 . S
C1100 C1102 1.395 . S
C1100 C1103 1.403 . S
H1101 C1107 0.942 . S
C1102 H1088 0.930 . S
C1102 C1100 1.395 . S
C1102 C1105 1.403 1_565 S
C1103 C1100 1.403 . S
C1103 C1104 1.524 . S
C1103 C1107 1.400 . S
C1104 H1089 0.960 . S
C1104 H1090 0.960 . S
C1104 H1091 0.960 . S
C1104 C1103 1.524 . S
C1105 C1102 1.403 1_545 S
C1105 C1106 1.392 . S
C1105 C1109 1.495 . S
C1106 C1105 1.392 . S
C1106 C1107 1.385 1_545 S
C1106 C1108 1.478 . S
C1107 H1101 0.942 . S
C1107 C1103 1.400 . S
C1107 C1106 1.385 1_565 S
C1108 C1106 1.478 . S
C1108 C1110 1.381 . S
C1108 C1114 1.383 . S
C1109 C1105 1.495 . S
C1109 H1115 0.959 . S
C1109 H1116 0.961 . S
C1109 H1117 0.960 . S
C1110 C1108 1.381 . S
C1110 C1111 1.394 . S
C1110 H1118 0.930 . S
C1111 C1110 1.394 . S
C1111 C1112 1.383 . S
C1111 H1119 0.929 . S
C1112 C1111 1.383 . S
C1112 C1113 1.377 . S
C1113 H1097 0.930 . S
C1113 C1112 1.377 . S
C1113 C1114 1.379 . S
C1114 H1098 0.931 . S
C1114 C1108 1.383 . S
C1114 C1113 1.379 . S
H1115 C1109 0.959 . S
H1116 C1109 0.961 . S
H1117 C1109 0.960 . S
H1118 C1110 0.930 . S
H1119 C1111 0.929 . S
H1120 C1128 0.929 . S
H1121 C1130 0.930 . S
H1122 C1132 0.930 . S
H1123 C1135 0.929 1_545 S
H1124 C1138 0.930 . S
H1125 C1140 0.960 . S
H1126 C1140 0.960 . S
H1127 C1140 0.960 . S
C1128 H1120 0.929 . S
C1128 C1129 1.377 . S
C1128 C1130 1.384 . S
C1129 C1128 1.377 . S
C1129 C1135 1.390 . S
C1130 H1121 0.930 . S
C1130 C1128 1.384 . S
C1130 C1131 1.372 . S
C1131 C1130 1.372 . S
C1131 C1132 1.400 . S
C1131 C1136 1.490 . S
C1132 H1122 0.930 . S
C1132 C1131 1.400 . S
C1132 C1135 1.386 . S
H1133 C1149 0.930 . S
H1134 C1150 0.931 . S
C1135 H1123 0.929 1_565 S
C1135 C1129 1.390 . S
C1135 C1132 1.386 . S
C1136 C1131 1.490 . S
C1136 C1138 1.395 . S
C1136 C1139 1.403 . S
H1137 C1143 0.930 . S
C1138 H1124 0.930 . S
C1138 C1136 1.395 . S
C1138 C1141 1.403 . S
C1139 C1136 1.403 . S
C1139 C1140 1.524 . S
C1139 C1143 1.400 . S
C1140 H1125 0.960 . S
C1140 H1126 0.960 . S
C1140 H1127 0.960 . S
C1140 C1139 1.524 . S
C1141 C1138 1.403 . S
C1141 C1142 1.392 . S
C1141 C1145 1.495 . S
C1142 C1141 1.392 . S
C1142 C1143 1.385 . S
C1142 C1144 1.478 . S
C1143 H1137 0.930 . S
C1143 C1139 1.400 . S
C1143 C1142 1.385 . S
C1144 C1142 1.478 . S
C1144 C1146 1.381 . S
C1144 C1150 1.383 . S
C1145 C1141 1.495 . S
C1145 H1151 0.959 . S
C1145 H1152 0.961 . S
C1145 H1153 0.960 . S
C1146 C1144 1.381 . S
C1146 C1147 1.394 . S
C1146 H1154 0.930 . S
C1147 C1146 1.394 . S
C1147 C1148 1.383 . S
C1147 H1155 0.929 . S
C1148 C1147 1.383 . S
C1148 C1149 1.377 . S
C1149 H1133 0.930 . S
C1149 C1148 1.377 . S
C1149 C1150 1.379 . S
C1150 H1134 0.931 . S
C1150 C1144 1.383 . S
C1150 C1149 1.379 . S
H1151 C1145 0.959 . S
H1152 C1145 0.961 . S
H1153 C1145 0.960 . S
H1154 C1146 0.930 . S
H1155 C1147 0.929 . S
H1156 C1164 0.929 . S
H1157 C1166 0.930 . S
H1158 C1168 0.930 . S
H1159 C1171 0.929 . S
H1160 C1174 0.930 . S
H1161 C1176 0.960 . S
H1162 C1176 0.960 . S
H1163 C1176 0.960 . S
C1164 H1156 0.929 . S
C1164 C1165 1.377 . S
C1164 C1166 1.384 . S
C1165 C1164 1.377 . S
C1165 C1171 1.390 . S
C1166 H1157 0.930 . S
C1166 C1164 1.384 . S
C1166 C1167 1.372 . S
C1167 C1166 1.372 . S
C1167 C1168 1.400 . S
C1167 C1172 1.490 . S
C1168 H1158 0.930 . S
C1168 C1167 1.400 . S
C1168 C1171 1.386 . S
H1169 C1185 0.930 . S
H1170 C1186 0.931 . S
C1171 H1159 0.929 . S
C1171 C1165 1.390 . S
C1171 C1168 1.386 . S
C1172 C1167 1.490 . S
C1172 C1174 1.395 . S
C1172 C1175 1.403 . S
H1173 C1179 0.926 1_565 S
C1174 H1160 0.930 . S
C1174 C1172 1.395 . S
C1174 C1177 1.403 . S
C1175 C1172 1.403 . S
C1175 C1176 1.524 . S
C1175 C1179 1.406 . S
C1176 H1161 0.960 . S
C1176 H1162 0.960 . S
C1176 H1163 0.960 . S
C1176 C1175 1.524 . S
C1177 C1174 1.403 . S
C1177 C1178 1.392 1_545 S
C1177 C1181 1.483 1_545 S
C1178 C1177 1.392 1_565 S
C1178 C1179 1.383 1_565 S
C1178 C1180 1.478 . S
C1179 H1173 0.926 1_545 S
C1179 C1175 1.406 . S
C1179 C1178 1.383 1_545 S
C1180 C1178 1.478 . S
C1180 C1182 1.381 . S
C1180 C1186 1.383 . S
C1181 C1177 1.483 1_565 S
C1181 H1187 0.927 1_565 S
C1181 H1188 0.960 . S
C1181 H1189 1.009 . S
C1182 C1180 1.381 . S
C1182 C1183 1.394 . S
C1182 H1190 0.930 . S
C1183 C1182 1.394 . S
C1183 C1184 1.383 . S
C1183 H1191 0.929 . S
C1184 C1183 1.383 . S
C1184 C1185 1.377 . S
C1185 H1169 0.930 . S
C1185 C1184 1.377 . S
C1185 C1186 1.379 . S
C1186 H1170 0.931 . S
C1186 C1180 1.383 . S
C1186 C1185 1.379 . S
H1187 C1181 0.927 1_545 S
H1188 C1181 0.960 . S
H1189 C1181 1.009 . S
H1190 C1182 0.930 . S
H1191 C1183 0.929 . S
H1192 C1200 0.929 . S
H1193 C1202 0.930 . S
H1194 C1204 0.930 . S
H1195 C1207 0.929 . S
H1196 C1210 0.930 . S
H1197 C1212 0.960 . S
H1198 C1212 0.960 . S
H1199 C1212 0.960 . S
C1200 H1192 0.929 . S
C1200 C1201 1.377 . S
C1200 C1202 1.384 . S
C1201 C1200 1.377 . S
C1201 C1207 1.390 . S
C1202 H1193 0.930 . S
C1202 C1200 1.384 . S
C1202 C1203 1.372 . S
C1203 C1202 1.372 . S
C1203 C1204 1.400 . S
C1203 C1208 1.490 . S
C1204 H1194 0.930 . S
C1204 C1203 1.400 . S
C1204 C1207 1.386 . S
H1205 C1221 0.930 . S
H1206 C1222 0.931 . S
C1207 H1195 0.929 . S
C1207 C1201 1.390 . S
C1207 C1204 1.386 . S
C1208 C1203 1.490 . S
C1208 C1210 1.395 . S
C1208 C1211 1.403 . S
H1209 C1215 0.930 . S
C1210 H1196 0.930 . S
C1210 C1208 1.395 . S
C1210 C1213 1.403 . S
C1211 C1208 1.403 . S
C1211 C1212 1.524 . S
C1211 C1215 1.400 . S
C1212 H1197 0.960 . S
C1212 H1198 0.960 . S
C1212 H1199 0.960 . S
C1212 C1211 1.524 . S
C1213 C1210 1.403 . S
C1213 C1214 1.392 . S
C1213 C1217 1.495 . S
C1214 C1213 1.392 . S
C1214 C1215 1.385 . S
C1214 C1216 1.478 . S
C1215 H1209 0.930 . S
C1215 C1211 1.400 . S
C1215 C1214 1.385 . S
C1216 C1214 1.478 . S
C1216 C1218 1.381 . S
C1216 C1222 1.383 . S
C1217 C1213 1.495 . S
C1217 H1223 0.959 . S
C1217 H1224 0.961 . S
C1217 H1225 0.960 . S
C1218 C1216 1.381 . S
C1218 C1219 1.394 . S
C1218 H1226 0.930 . S
C1219 C1218 1.394 . S
C1219 C1220 1.383 . S
C1219 H1227 0.929 . S
C1220 C1219 1.383 . S
C1220 C1221 1.377 . S
C1221 H1205 0.930 . S
C1221 C1220 1.377 . S
C1221 C1222 1.379 . S
C1222 H1206 0.931 . S
C1222 C1216 1.383 . S
C1222 C1221 1.379 . S
H1223 C1217 0.959 . S
H1224 C1217 0.961 . S
H1225 C1217 0.960 . S
H1226 C1218 0.930 . S
H1227 C1219 0.929 . S
H1228 C1236 0.929 . S
H1229 C1238 0.930 . S
H1230 C1240 0.930 . S
H1231 C1243 0.929 . S
H1232 C1246 0.930 . S
H1233 C1248 0.960 . S
H1234 C1248 0.960 . S
H1235 C1248 0.960 . S
C1236 H1228 0.929 . S
C1236 C1237 1.377 . S
C1236 C1238 1.384 . S
C1237 C1236 1.377 . S
C1237 C1243 1.390 . S
C1238 H1229 0.930 . S
C1238 C1236 1.384 . S
C1238 C1239 1.372 . S
C1239 C1238 1.372 . S
C1239 C1240 1.400 . S
C1239 C1244 1.490 . S
C1240 H1230 0.930 . S
C1240 C1239 1.400 . S
C1240 C1243 1.386 . S
H1241 C1257 0.930 . S
H1242 C1258 0.931 . S
C1243 H1231 0.929 . S
C1243 C1237 1.390 . S
C1243 C1240 1.386 . S
C1244 C1239 1.490 . S
C1244 C1246 1.395 . S
C1244 C1247 1.403 . S
H1245 C1251 0.930 . S
C1246 H1232 0.930 . S
C1246 C1244 1.395 . S
C1246 C1249 1.403 1_565 S
C1247 C1244 1.403 . S
C1247 C1248 1.524 . S
C1247 C1251 1.400 . S
C1248 H1233 0.960 . S
C1248 H1234 0.960 . S
C1248 H1235 0.960 . S
C1248 C1247 1.524 . S
C1249 C1246 1.403 1_545 S
C1249 C1250 1.392 . S
C1249 C1253 1.495 . S
C1250 C1249 1.392 . S
C1250 C1251 1.385 1_545 S
C1250 C1252 1.478 . S
C1251 H1245 0.930 . S
C1251 C1247 1.400 . S
C1251 C1250 1.385 1_565 S
C1252 C1250 1.478 . S
C1252 C1254 1.381 . S
C1252 C1258 1.383 . S
C1253 C1249 1.495 . S
C1253 H1259 0.959 . S
C1253 H1260 0.961 . S
C1253 H1261 0.960 . S
C1254 C1252 1.381 . S
C1254 C1255 1.394 . S
C1254 H1262 0.930 . S
C1255 C1254 1.394 . S
C1255 C1256 1.383 . S
C1255 H1263 0.929 . S
C1256 C1255 1.383 . S
C1256 C1257 1.377 . S
C1257 H1241 0.930 . S
C1257 C1256 1.377 . S
C1257 C1258 1.379 . S
C1258 H1242 0.931 . S
C1258 C1252 1.383 . S
C1258 C1257 1.379 . S
H1259 C1253 0.959 . S
H1260 C1253 0.961 . S
H1261 C1253 0.960 . S
H1262 C1254 0.930 . S
H1263 C1255 0.929 . S
H1264 C1272 0.929 . S
H1265 C1274 0.930 . S
H1266 C1276 0.930 . S
H1267 C1279 0.943 . S
H1268 C1282 0.930 . S
H1269 C1284 0.960 . S
H1270 C1284 0.960 . S
H1271 C1284 0.960 . S
C1272 H1264 0.929 . S
C1272 C1273 1.377 . S
C1272 C1274 1.384 . S
C1273 C1272 1.377 . S
C1273 C1279 1.390 . S
C1274 H1265 0.930 . S
C1274 C1272 1.384 . S
C1274 C1275 1.372 . S
C1275 C1274 1.372 . S
C1275 C1276 1.400 . S
C1275 C1280 1.490 . S
C1276 H1266 0.930 . S
C1276 C1275 1.400 . S
C1276 C1279 1.386 . S
H1277 C1293 0.930 . S
H1278 C1294 0.931 . S
C1279 H1267 0.943 . S
C1279 C1273 1.390 . S
C1279 C1276 1.386 . S
C1280 C1275 1.490 . S
C1280 C1282 1.395 . S
C1280 C1283 1.403 . S
H1281 C1287 0.930 . S
C1282 H1268 0.930 . S
C1282 C1280 1.395 . S
C1282 C1285 1.403 . S
C1283 C1280 1.403 . S
C1283 C1284 1.524 . S
C1283 C1287 1.400 . S
C1284 H1269 0.960 . S
C1284 H1270 0.960 . S
C1284 H1271 0.960 . S
C1284 C1283 1.524 . S
C1285 C1282 1.403 . S
C1285 C1286 1.392 . S
C1285 C1289 1.495 . S
C1286 C1285 1.392 . S
C1286 C1287 1.385 . S
C1286 C1288 1.478 . S
C1287 H1281 0.930 . S
C1287 C1283 1.400 . S
C1287 C1286 1.385 . S
C1288 C1286 1.478 . S
C1288 C1290 1.381 . S
C1288 C1294 1.383 . S
C1289 C1285 1.495 . S
C1289 H1295 0.959 . S
C1289 H1296 0.961 . S
C1289 H1297 0.960 . S
C1290 C1288 1.381 . S
C1290 C1291 1.394 . S
C1290 H1298 0.930 . S
C1291 C1290 1.394 . S
C1291 C1292 1.383 . S
C1291 H1299 0.929 . S
C1292 C1291 1.383 . S
C1292 C1293 1.377 . S
C1293 H1277 0.930 . S
C1293 C1292 1.377 . S
C1293 C1294 1.379 . S
C1294 H1278 0.931 . S
C1294 C1288 1.383 . S
C1294 C1293 1.379 . S
H1295 C1289 0.959 . S
H1296 C1289 0.961 . S
H1297 C1289 0.960 . S
H1298 C1290 0.930 . S
H1299 C1291 0.929 . S
H1300 C1308 0.929 . S
H1301 C1310 0.930 . S
H1302 C1312 0.930 . S
H1303 C1315 0.929 . S
H1304 C1318 0.930 . S
H1305 C1320 0.960 . S
H1306 C1320 0.960 . S
H1307 C1320 0.960 . S
C1308 H1300 0.929 . S
C1308 C1309 1.377 . S
C1308 C1310 1.384 . S
C1309 C1308 1.377 . S
C1309 C1315 1.390 . S
C1310 H1301 0.930 . S
C1310 C1308 1.384 . S
C1310 C1311 1.372 . S
C1311 C1310 1.372 . S
C1311 C1312 1.400 . S
C1311 C1316 1.490 . S
C1312 H1302 0.930 . S
C1312 C1311 1.400 . S
C1312 C1315 1.386 . S
H1313 C1329 0.930 . S
H1314 C1330 0.931 . S
C1315 H1303 0.929 . S
C1315 C1309 1.390 . S
C1315 C1312 1.386 . S
C1316 C1311 1.490 . S
C1316 C1318 1.395 . S
C1316 C1319 1.403 . S
H1317 C1323 0.930 . S
C1318 H1304 0.930 . S
C1318 C1316 1.395 . S
C1318 C1321 1.403 . S
C1319 C1316 1.403 . S
C1319 C1320 1.524 . S
C1319 C1323 1.400 . S
C1320 H1305 0.960 . S
C1320 H1306 0.960 . S
C1320 H1307 0.960 . S
C1320 C1319 1.524 . S
C1321 C1318 1.403 . S
C1321 C1322 1.392 . S
C1321 C1325 1.495 . S
C1322 C1321 1.392 . S
C1322 C1323 1.385 . S
C1322 C1324 1.478 . S
C1323 H1317 0.930 . S
C1323 C1319 1.400 . S
C1323 C1322 1.385 . S
C1324 C1322 1.478 . S
C1324 C1326 1.381 . S
C1324 C1330 1.383 . S
C1325 C1321 1.495 . S
C1325 H1331 0.959 . S
C1325 H1332 0.961 . S
C1325 H1333 0.960 . S
C1326 C1324 1.381 . S
C1326 C1327 1.394 . S
C1326 H1334 0.930 . S
C1327 C1326 1.394 . S
C1327 C1328 1.383 . S
C1327 H1335 0.929 . S
C1328 C1327 1.383 . S
C1328 C1329 1.377 . S
C1329 H1313 0.930 . S
C1329 C1328 1.377 . S
C1329 C1330 1.379 . S
C1330 H1314 0.931 . S
C1330 C1324 1.383 . S
C1330 C1329 1.379 . S
H1331 C1325 0.959 . S
H1332 C1325 0.961 . S
H1333 C1325 0.960 . S
H1334 C1326 0.930 . S
H1335 C1327 0.929 . S
H1336 C1344 0.929 . S
H1337 C1346 0.930 . S
H1338 C1348 0.930 . S
H1339 C1351 0.929 . S
H1340 C1354 0.930 . S
H1341 C1356 0.960 1_655 S
H1342 C1356 0.960 . S
H1343 C1356 0.960 . S
C1344 H1336 0.929 . S
C1344 C1345 1.377 . S
C1344 C1346 1.384 . S
C1345 C1344 1.377 . S
C1345 C1351 1.390 . S
C1346 H1337 0.930 . S
C1346 C1344 1.384 . S
C1346 C1347 1.372 . S
C1347 C1346 1.372 . S
C1347 C1348 1.400 . S
C1347 C1352 1.490 . S
C1348 H1338 0.930 . S
C1348 C1347 1.400 . S
C1348 C1351 1.386 . S
H1349 C1365 0.930 . S
H1350 C1366 0.931 . S
C1351 H1339 0.929 . S
C1351 C1345 1.390 . S
C1351 C1348 1.386 . S
C1352 C1347 1.490 . S
C1352 C1354 1.395 . S
C1352 C1355 1.403 . S
H1353 C1359 0.930 . S
C1354 H1340 0.930 . S
C1354 C1352 1.395 . S
C1354 C1357 1.403 . S
C1355 C1352 1.403 . S
C1355 C1356 1.524 . S
C1355 C1359 1.400 1_455 S
C1356 H1341 0.960 1_455 S
C1356 H1342 0.960 . S
C1356 H1343 0.960 . S
C1356 C1355 1.524 . S
C1357 C1354 1.403 . S
C1357 C1358 1.392 1_455 S
C1357 C1361 1.495 . S
C1358 C1357 1.392 1_655 S
C1358 C1359 1.385 . S
C1358 C1360 1.478 . S
C1359 H1353 0.930 . S
C1359 C1355 1.400 1_655 S
C1359 C1358 1.385 . S
C1360 C1358 1.478 . S
C1360 C1362 1.381 . S
C1360 C1366 1.383 . S
C1361 C1357 1.495 . S
C1361 H1367 0.959 . S
C1361 H1368 0.961 . S
C1361 H1369 0.960 . S
C1362 C1360 1.381 . S
C1362 C1363 1.394 . S
C1362 H1370 0.930 . S
C1363 C1362 1.394 . S
C1363 C1364 1.383 . S
C1363 H1371 0.929 . S
C1364 C1363 1.383 . S
C1364 C1365 1.377 . S
C1365 H1349 0.930 . S
C1365 C1364 1.377 . S
C1365 C1366 1.379 . S
C1366 H1350 0.931 . S
C1366 C1360 1.383 . S
C1366 C1365 1.379 . S
H1367 C1361 0.959 . S
H1368 C1361 0.961 . S
H1369 C1361 0.960 . S
H1370 C1362 0.930 . S
H1371 C1363 0.929 . S
H1372 C1380 0.929 . S
H1373 C1382 0.930 . S
H1374 C1384 0.930 . S
H1375 C1387 0.929 . S
H1376 C1390 0.930 . S
H1377 C1392 0.960 . S
H1378 C1392 0.960 . S
H1379 C1392 0.960 . S
C1380 H1372 0.929 . S
C1380 C1381 1.377 . S
C1380 C1382 1.384 . S
C1381 C1380 1.377 . S
C1381 C1387 1.390 . S
C1382 H1373 0.930 . S
C1382 C1380 1.384 . S
C1382 C1383 1.372 . S
C1383 C1382 1.372 . S
C1383 C1384 1.400 . S
C1383 C1388 1.490 . S
C1384 H1374 0.930 . S
C1384 C1383 1.400 . S
C1384 C1387 1.386 . S
H1385 C1401 0.930 . S
H1386 C1402 0.931 . S
C1387 H1375 0.929 . S
C1387 C1381 1.390 . S
C1387 C1384 1.386 . S
C1388 C1383 1.490 . S
C1388 C1390 1.395 . S
C1388 C1391 1.403 . S
H1389 C1395 0.930 . S
C1390 H1376 0.930 . S
C1390 C1388 1.395 . S
C1390 C1393 1.403 . S
C1391 C1388 1.403 . S
C1391 C1392 1.524 . S
C1391 C1395 1.400 . S
C1392 H1377 0.960 . S
C1392 H1378 0.960 . S
C1392 H1379 0.960 . S
C1392 C1391 1.524 . S
C1393 C1390 1.403 . S
C1393 C1394 1.392 . S
C1393 C1397 1.495 . S
C1394 C1393 1.392 . S
C1394 C1395 1.385 . S
C1394 C1396 1.478 . S
C1395 H1389 0.930 . S
C1395 C1391 1.400 . S
C1395 C1394 1.385 . S
C1396 C1394 1.478 . S
C1396 C1398 1.381 . S
C1396 C1402 1.383 . S
C1397 C1393 1.495 . S
C1397 H1403 0.959 . S
C1397 H1404 0.961 . S
C1397 H1405 0.960 . S
C1398 C1396 1.381 . S
C1398 C1399 1.394 . S
C1398 H1406 0.930 . S
C1399 C1398 1.394 . S
C1399 C1400 1.383 . S
C1399 H1407 0.929 . S
C1400 C1399 1.383 . S
C1400 C1401 1.377 . S
C1401 H1385 0.930 . S
C1401 C1400 1.377 . S
C1401 C1402 1.379 . S
C1402 H1386 0.931 . S
C1402 C1396 1.383 . S
C1402 C1401 1.379 . S
H1403 C1397 0.959 . S
H1404 C1397 0.961 . S
H1405 C1397 0.960 . S
H1406 C1398 0.930 . S
H1407 C1399 0.929 . S
H1408 C1416 0.929 . S
H1409 C1418 0.930 . S
H1410 C1420 0.930 . S
H1411 C1423 0.929 . S
H1412 C1426 0.930 . S
H1413 C1428 0.960 1_455 S
H1414 C1428 0.960 . S
H1415 C1428 0.960 . S
C1416 H1408 0.929 . S
C1416 C1417 1.377 . S
C1416 C1418 1.384 . S
C1417 C1416 1.377 . S
C1417 C1423 1.390 . S
C1418 H1409 0.930 . S
C1418 C1416 1.384 . S
C1418 C1419 1.372 . S
C1419 C1418 1.372 . S
C1419 C1420 1.400 . S
C1419 C1424 1.490 . S
C1420 H1410 0.930 . S
C1420 C1419 1.400 . S
C1420 C1423 1.386 . S
H1421 C1437 0.930 . S
H1422 C1438 0.931 . S
C1423 H1411 0.929 . S
C1423 C1417 1.390 . S
C1423 C1420 1.386 . S
C1424 C1419 1.490 . S
C1424 C1426 1.395 . S
C1424 C1427 1.403 . S
H1425 C1431 0.930 . S
C1426 H1412 0.930 . S
C1426 C1424 1.395 . S
C1426 C1429 1.403 . S
C1427 C1424 1.403 . S
C1427 C1428 1.524 . S
C1427 C1431 1.400 1_655 S
C1428 H1413 0.960 1_655 S
C1428 H1414 0.960 . S
C1428 H1415 0.960 . S
C1428 C1427 1.524 . S
C1429 C1426 1.403 . S
C1429 C1430 1.392 1_655 S
C1429 C1433 1.495 . S
C1430 C1429 1.392 1_455 S
C1430 C1431 1.385 . S
C1430 C1432 1.478 . S
C1431 H1425 0.930 . S
C1431 C1427 1.400 1_455 S
C1431 C1430 1.385 . S
C1432 C1430 1.478 . S
C1432 C1434 1.381 . S
C1432 C1438 1.383 . S
C1433 C1429 1.495 . S
C1433 H1439 0.959 . S
C1433 H1440 0.961 . S
C1433 H1441 0.960 . S
C1434 C1432 1.381 . S
C1434 C1435 1.394 . S
C1434 H1442 0.930 . S
C1435 C1434 1.394 . S
C1435 C1436 1.383 . S
C1435 H1443 0.929 . S
C1436 C1435 1.383 . S
C1436 C1437 1.377 . S
C1437 H1421 0.930 . S
C1437 C1436 1.377 . S
C1437 C1438 1.379 . S
C1438 H1422 0.931 . S
C1438 C1432 1.383 . S
C1438 C1437 1.379 . S
H1439 C1433 0.959 . S
H1440 C1433 0.961 . S
H1441 C1433 0.960 . S
H1442 C1434 0.930 . S
H1443 C1435 0.929 . S
H1444 C1452 0.929 . S
H1445 C1454 0.930 . S
H1446 C1456 0.930 . S
H1447 C1459 0.929 . S
H1448 C1462 0.930 . S
H1449 C1464 0.960 . S
H1450 C1464 0.960 . S
H1451 C1464 0.960 . S
C1452 H1444 0.929 . S
C1452 C1453 1.377 . S
C1452 C1454 1.384 . S
C1453 C1452 1.377 . S
C1453 C1459 1.390 . S
C1454 H1445 0.930 . S
C1454 C1452 1.384 . S
C1454 C1455 1.372 . S
C1455 C1454 1.372 . S
C1455 C1456 1.400 . S
C1455 C1460 1.490 . S
C1456 H1446 0.930 . S
C1456 C1455 1.400 . S
C1456 C1459 1.386 . S
H1457 C1473 0.930 . S
H1458 C1474 0.931 . S
C1459 H1447 0.929 . S
C1459 C1453 1.390 . S
C1459 C1456 1.386 . S
C1460 C1455 1.490 . S
C1460 C1462 1.395 . S
C1460 C1463 1.403 . S
H1461 C1467 0.930 . S
C1462 H1448 0.930 . S
C1462 C1460 1.395 . S
C1462 C1465 1.403 . S
C1463 C1460 1.403 . S
C1463 C1464 1.524 . S
C1463 C1467 1.400 . S
C1464 H1449 0.960 . S
C1464 H1450 0.960 . S
C1464 H1451 0.960 . S
C1464 C1463 1.524 . S
C1465 C1462 1.403 . S
C1465 C1466 1.392 . S
C1465 C1469 1.495 . S
C1466 C1465 1.392 . S
C1466 C1467 1.385 . S
C1466 C1468 1.478 . S
C1467 H1461 0.930 . S
C1467 C1463 1.400 . S
C1467 C1466 1.385 . S
C1468 C1466 1.478 . S
C1468 C1470 1.381 . S
C1468 C1474 1.383 . S
C1469 C1465 1.495 . S
C1469 H1475 0.959 . S
C1469 H1476 0.961 . S
C1469 H1477 0.960 . S
C1470 C1468 1.381 . S
C1470 C1471 1.394 . S
C1470 H1478 0.930 . S
C1471 C1470 1.394 . S
C1471 C1472 1.383 . S
C1471 H1479 0.929 . S
C1472 C1471 1.383 . S
C1472 C1473 1.377 . S
C1473 H1457 0.930 . S
C1473 C1472 1.377 . S
C1473 C1474 1.379 . S
C1474 H1458 0.931 . S
C1474 C1468 1.383 . S
C1474 C1473 1.379 . S
H1475 C1469 0.959 . S
H1476 C1469 0.961 . S
H1477 C1469 0.960 . S
H1478 C1470 0.930 . S
H1479 C1471 0.929 . S
H1480 C1488 0.929 . S
H1481 C1490 0.930 . S
H1482 C1492 0.930 . S
H1483 C1495 0.929 . S
H1484 C1498 0.930 . S
H1485 C1500 0.933 1_655 S
H1486 C1500 0.960 . S
H1487 C1500 0.960 . S
C1488 H1480 0.929 . S
C1488 C1489 1.377 . S
C1488 C1490 1.384 . S
C1489 C1488 1.377 . S
C1489 C1495 1.390 . S
C1490 H1481 0.930 . S
C1490 C1488 1.384 . S
C1490 C1491 1.372 . S
C1491 C1490 1.372 . S
C1491 C1492 1.400 . S
C1491 C1496 1.490 . S
C1492 H1482 0.930 . S
C1492 C1491 1.400 . S
C1492 C1495 1.386 . S
H1493 C1509 0.930 . S
H1494 C1510 0.931 . S
C1495 H1483 0.929 . S
C1495 C1489 1.390 . S
C1495 C1492 1.386 . S
C1496 C1491 1.490 . S
C1496 C1498 1.395 . S
C1496 C1499 1.403 . S
H1497 C1503 0.930 . S
C1498 H1484 0.930 . S
C1498 C1496 1.395 . S
C1498 C1501 1.403 . S
C1499 C1496 1.403 . S
C1499 C1500 1.524 . S
C1499 C1503 1.400 1_455 S
C1500 H1485 0.933 1_455 S
C1500 H1486 0.960 . S
C1500 H1487 0.960 . S
C1500 C1499 1.524 . S
C1501 C1498 1.403 . S
C1501 C1502 1.392 1_455 S
C1501 C1505 1.495 . S
C1502 C1501 1.392 1_655 S
C1502 C1503 1.385 . S
C1502 C1504 1.478 . S
C1503 H1497 0.930 . S
C1503 C1499 1.400 1_655 S
C1503 C1502 1.385 . S
C1504 C1502 1.478 . S
C1504 C1506 1.381 . S
C1504 C1510 1.383 . S
C1505 C1501 1.495 . S
C1505 H1511 0.959 . S
C1505 H1512 0.961 . S
C1505 H1513 0.960 . S
C1506 C1504 1.381 . S
C1506 C1507 1.394 . S
C1506 H1514 0.930 . S
C1507 C1506 1.394 . S
C1507 C1508 1.383 . S
C1507 H1515 0.929 . S
C1508 C1507 1.383 . S
C1508 C1509 1.377 . S
C1509 H1493 0.930 . S
C1509 C1508 1.377 . S
C1509 C1510 1.379 . S
C1510 H1494 0.931 . S
C1510 C1504 1.383 . S
C1510 C1509 1.379 . S
H1511 C1505 0.959 . S
H1512 C1505 0.961 . S
H1513 C1505 0.960 . S
H1514 C1506 0.930 . S
H1515 C1507 0.929 . S
H1516 C1524 0.929 . S
H1517 C1526 0.930 . S
H1518 C1528 0.930 . S
H1519 C1531 0.929 . S
H1520 C1534 0.930 . S
H1521 C1536 0.960 . S
H1522 C1536 0.960 . S
H1523 C1536 0.960 . S
C1524 H1516 0.929 . S
C1524 C1525 1.377 . S
C1524 C1526 1.384 . S
C1525 C1524 1.377 . S
C1525 C1531 1.390 . S
C1526 H1517 0.930 . S
C1526 C1524 1.384 . S
C1526 C1527 1.372 . S
C1527 C1526 1.372 . S
C1527 C1528 1.400 . S
C1527 C1532 1.490 . S
C1528 H1518 0.930 . S
C1528 C1527 1.400 . S
C1528 C1531 1.386 . S
H1529 C1545 0.930 . S
H1530 C1546 0.931 . S
C1531 H1519 0.929 . S
C1531 C1525 1.390 . S
C1531 C1528 1.386 . S
C1532 C1527 1.490 . S
C1532 C1534 1.395 . S
C1532 C1535 1.403 . S
H1533 C1539 0.930 . S
C1534 H1520 0.930 . S
C1534 C1532 1.395 . S
C1534 C1537 1.403 . S
C1535 C1532 1.403 . S
C1535 C1536 1.524 . S
C1535 C1539 1.400 . S
C1536 H1521 0.960 . S
C1536 H1522 0.960 . S
C1536 H1523 0.960 . S
C1536 C1535 1.524 . S
C1537 C1534 1.403 . S
C1537 C1538 1.392 . S
C1537 C1541 1.495 . S
C1538 C1537 1.392 . S
C1538 C1539 1.385 . S
C1538 C1540 1.478 . S
C1539 H1533 0.930 . S
C1539 C1535 1.400 . S
C1539 C1538 1.385 . S
C1540 C1538 1.478 . S
C1540 C1542 1.381 . S
C1540 C1546 1.383 . S
C1541 C1537 1.495 . S
C1541 H1547 0.959 . S
C1541 H1548 0.961 . S
C1541 H1549 0.960 . S
C1542 C1540 1.381 . S
C1542 C1543 1.394 . S
C1542 H1550 0.930 . S
C1543 C1542 1.394 . S
C1543 C1544 1.383 . S
C1543 H1551 0.929 . S
C1544 C1543 1.383 . S
C1544 C1545 1.377 . S
C1545 H1529 0.930 . S
C1545 C1544 1.377 . S
C1545 C1546 1.379 . S
C1546 H1530 0.931 . S
C1546 C1540 1.383 . S
C1546 C1545 1.379 . S
H1547 C1541 0.959 . S
H1548 C1541 0.961 . S
H1549 C1541 0.960 . S
H1550 C1542 0.930 . S
H1551 C1543 0.929 . S
H1552 C1560 0.929 . S
H1553 C1562 0.930 . S
H1554 C1564 0.930 . S
H1555 C1567 0.929 . S
H1556 C1570 0.930 . S
H1557 C1572 0.960 . S
H1558 C1572 0.960 . S
H1559 C1572 0.960 . S
C1560 H1552 0.929 . S
C1560 C1561 1.377 . S
C1560 C1562 1.384 . S
C1561 C1560 1.377 . S
C1561 C1567 1.390 . S
C1562 H1553 0.930 . S
C1562 C1560 1.384 . S
C1562 C1563 1.372 . S
C1563 C1562 1.372 . S
C1563 C1564 1.400 . S
C1563 C1568 1.490 . S
C1564 H1554 0.930 . S
C1564 C1563 1.400 . S
C1564 C1567 1.386 . S
H1565 C1581 0.930 . S
H1566 C1582 0.931 . S
C1567 H1555 0.929 . S
C1567 C1561 1.390 . S
C1567 C1564 1.386 . S
C1568 C1563 1.490 . S
C1568 C1570 1.395 . S
C1568 C1571 1.403 . S
H1569 C1575 0.930 . S
C1570 H1556 0.930 . S
C1570 C1568 1.395 . S
C1570 C1573 1.403 . S
C1571 C1568 1.403 . S
C1571 C1572 1.524 . S
C1571 C1575 1.400 . S
C1572 H1557 0.960 . S
C1572 H1558 0.960 . S
C1572 H1559 0.960 . S
C1572 C1571 1.524 . S
C1573 C1570 1.403 . S
C1573 C1574 1.392 . S
C1573 C1577 1.495 . S
C1574 C1573 1.392 . S
C1574 C1575 1.385 . S
C1574 C1576 1.478 . S
C1575 H1569 0.930 . S
C1575 C1571 1.400 . S
C1575 C1574 1.385 . S
C1576 C1574 1.478 . S
C1576 C1578 1.381 . S
C1576 C1582 1.383 . S
C1577 C1573 1.495 . S
C1577 H1583 0.959 . S
C1577 H1584 0.961 . S
C1577 H1585 0.960 . S
C1578 C1576 1.381 . S
C1578 C1579 1.394 . S
C1578 H1586 0.930 . S
C1579 C1578 1.394 . S
C1579 C1580 1.383 . S
C1579 H1587 0.929 . S
C1580 C1579 1.383 . S
C1580 C1581 1.377 . S
C1581 H1565 0.930 . S
C1581 C1580 1.377 . S
C1581 C1582 1.379 . S
C1582 H1566 0.931 . S
C1582 C1576 1.383 . S
C1582 C1581 1.379 . S
H1583 C1577 0.959 . S
H1584 C1577 0.961 . S
H1585 C1577 0.960 . S
H1586 C1578 0.930 . S
H1587 C1579 0.929 . S
H1588 C1596 0.929 . S
H1589 C1598 0.930 . S
H1590 C1600 0.930 . S
H1591 C1603 0.929 . S
H1592 C1606 0.930 . S
H1593 C1608 0.960 . S
H1594 C1608 0.960 . S
H1595 C1608 0.960 . S
C1596 H1588 0.929 . S
C1596 C1597 1.377 . S
C1596 C1598 1.384 . S
C1597 C1596 1.377 . S
C1597 C1603 1.390 . S
C1598 H1589 0.930 . S
C1598 C1596 1.384 . S
C1598 C1599 1.372 . S
C1599 C1598 1.372 . S
C1599 C1600 1.400 . S
C1599 C1604 1.490 . S
C1600 H1590 0.930 . S
C1600 C1599 1.400 . S
C1600 C1603 1.386 . S
H1601 C1617 0.930 . S
H1602 C1618 0.931 . S
C1603 H1591 0.929 . S
C1603 C1597 1.390 . S
C1603 C1600 1.386 . S
C1604 C1599 1.490 . S
C1604 C1606 1.395 . S
C1604 C1607 1.403 . S
H1605 C1611 0.930 . S
C1606 H1592 0.930 . S
C1606 C1604 1.395 . S
C1606 C1609 1.403 . S
C1607 C1604 1.403 . S
C1607 C1608 1.524 . S
C1607 C1611 1.400 . S
C1608 H1593 0.960 . S
C1608 H1594 0.960 . S
C1608 H1595 0.960 . S
C1608 C1607 1.524 . S
C1609 C1606 1.403 . S
C1609 C1610 1.392 . S
C1609 C1613 1.495 . S
C1610 C1609 1.392 . S
C1610 C1611 1.385 . S
C1610 C1612 1.478 . S
C1611 H1605 0.930 . S
C1611 C1607 1.400 . S
C1611 C1610 1.385 . S
C1612 C1610 1.478 . S
C1612 C1614 1.381 . S
C1612 C1618 1.383 . S
C1613 C1609 1.495 . S
C1613 H1619 0.959 . S
C1613 H1620 0.961 . S
C1613 H1621 0.960 . S
C1614 C1612 1.381 . S
C1614 C1615 1.394 . S
C1614 H1622 0.930 . S
C1615 C1614 1.394 . S
C1615 C1616 1.383 . S
C1615 H1623 0.929 . S
C1616 C1615 1.383 . S
C1616 C1617 1.377 . S
C1617 H1601 0.930 . S
C1617 C1616 1.377 . S
C1617 C1618 1.379 . S
C1618 H1602 0.931 . S
C1618 C1612 1.383 . S
C1618 C1617 1.379 . S
H1619 C1613 0.959 . S
H1620 C1613 0.961 . S
H1621 C1613 0.960 . S
H1622 C1614 0.930 . S
H1623 C1615 0.929 . S
H1624 C1632 0.929 . S
H1625 C1634 0.930 . S
H1626 C1636 0.930 . S
H1627 C1639 0.929 . S
H1628 C1642 0.930 . S
H1629 C1644 0.960 . S
H1630 C1644 0.960 . S
H1631 C1644 0.960 . S
C1632 H1624 0.929 . S
C1632 C1633 1.377 . S
C1632 C1634 1.384 . S
C1633 C1632 1.377 . S
C1633 C1639 1.390 . S
C1634 H1625 0.930 . S
C1634 C1632 1.384 . S
C1634 C1635 1.372 . S
C1635 C1634 1.372 . S
C1635 C1636 1.400 . S
C1635 C1640 1.490 . S
C1636 H1626 0.930 . S
C1636 C1635 1.400 . S
C1636 C1639 1.386 . S
H1637 C1653 0.930 . S
H1638 C1654 0.931 . S
C1639 H1627 0.929 . S
C1639 C1633 1.390 . S
C1639 C1636 1.386 . S
C1640 C1635 1.490 . S
C1640 C1642 1.395 . S
C1640 C1643 1.403 . S
H1641 C1647 0.930 . S
C1642 H1628 0.930 . S
C1642 C1640 1.395 . S
C1642 C1645 1.403 . S
C1643 C1640 1.403 . S
C1643 C1644 1.524 . S
C1643 C1647 1.400 . S
C1644 H1629 0.960 . S
C1644 H1630 0.960 . S
C1644 H1631 0.960 . S
C1644 C1643 1.524 . S
C1645 C1642 1.403 . S
C1645 C1646 1.392 . S
C1645 C1649 1.495 . S
C1646 C1645 1.392 . S
C1646 C1647 1.385 . S
C1646 C1648 1.478 . S
C1647 H1641 0.930 . S
C1647 C1643 1.400 . S
C1647 C1646 1.385 . S
C1648 C1646 1.478 . S
C1648 C1650 1.381 . S
C1648 C1654 1.383 . S
C1649 C1645 1.495 . S
C1649 H1655 0.959 . S
C1649 H1656 0.961 . S
C1649 H1657 0.960 . S
C1650 C1648 1.381 . S
C1650 C1651 1.394 . S
C1650 H1658 0.930 . S
C1651 C1650 1.394 . S
C1651 C1652 1.383 . S
C1651 H1659 0.929 . S
C1652 C1651 1.383 . S
C1652 C1653 1.377 . S
C1653 H1637 0.930 . S
C1653 C1652 1.377 . S
C1653 C1654 1.379 . S
C1654 H1638 0.931 . S
C1654 C1648 1.383 . S
C1654 C1653 1.379 . S
H1655 C1649 0.959 . S
H1656 C1649 0.961 . S
H1657 C1649 0.960 . S
H1658 C1650 0.930 . S
H1659 C1651 0.929 . S
H1660 C1668 0.929 . S
H1661 C1670 0.930 . S
H1662 C1672 0.930 . S
H1663 C1675 0.929 . S
H1664 C1678 0.930 . S
H1665 C1680 0.960 . S
H1666 C1680 0.960 . S
H1667 C1680 0.960 . S
C1668 H1660 0.929 . S
C1668 C1669 1.377 . S
C1668 C1670 1.384 . S
C1669 C1668 1.377 . S
C1669 C1675 1.390 . S
C1670 H1661 0.930 . S
C1670 C1668 1.384 . S
C1670 C1671 1.372 . S
C1671 C1670 1.372 . S
C1671 C1672 1.400 . S
C1671 C1676 1.490 . S
C1672 H1662 0.930 . S
C1672 C1671 1.400 . S
C1672 C1675 1.386 . S
H1673 C1689 0.930 . S
H1674 C1690 0.931 . S
C1675 H1663 0.929 . S
C1675 C1669 1.390 . S
C1675 C1672 1.386 . S
C1676 C1671 1.490 . S
C1676 C1678 1.395 . S
C1676 C1679 1.403 . S
H1677 C1683 0.936 . S
C1678 H1664 0.930 . S
C1678 C1676 1.395 . S
C1678 C1681 1.365 1_556 S
C1679 C1676 1.403 . S
C1679 C1680 1.524 . S
C1679 C1683 1.400 . S
C1680 H1665 0.960 . S
C1680 H1666 0.960 . S
C1680 H1667 0.960 . S
C1680 C1679 1.524 . S
C1681 C1678 1.365 1_554 S
C1681 C1682 1.406 . S
C1681 C1685 1.521 . S
C1682 C1681 1.406 . S
C1682 C1683 1.385 1_554 S
C1682 C1684 1.478 . S
C1683 H1677 0.936 . S
C1683 C1679 1.400 . S
C1683 C1682 1.385 1_556 S
C1684 C1682 1.478 . S
C1684 C1686 1.381 . S
C1684 C1690 1.383 . S
C1685 C1681 1.521 . S
C1685 H1691 0.959 . S
C1685 H1692 0.961 . S
C1685 H1693 0.960 . S
C1686 C1684 1.381 . S
C1686 C1687 1.394 . S
C1686 H1694 0.930 . S
C1687 C1686 1.394 . S
C1687 C1688 1.383 . S
C1687 H1695 0.929 . S
C1688 C1687 1.383 . S
C1688 C1689 1.377 . S
C1689 H1673 0.930 . S
C1689 C1688 1.377 . S
C1689 C1690 1.379 . S
C1690 H1674 0.931 . S
C1690 C1684 1.383 . S
C1690 C1689 1.379 . S
H1691 C1685 0.959 . S
H1692 C1685 0.961 . S
H1693 C1685 0.960 . S
H1694 C1686 0.930 . S
H1695 C1687 0.929 . S
H1696 C1704 0.929 . S
H1697 C1706 0.930 . S
H1698 C1708 0.930 . S
H1699 C1711 0.929 . S
H1700 C1714 0.930 . S
H1701 C1716 0.960 . S
H1702 C1716 0.960 . S
H1703 C1716 0.960 . S
C1704 H1696 0.929 . S
C1704 C1705 1.377 . S
C1704 C1706 1.384 . S
C1705 C1704 1.377 . S
C1705 C1711 1.390 . S
C1706 H1697 0.930 . S
C1706 C1704 1.384 . S
C1706 C1707 1.372 . S
C1707 C1706 1.372 . S
C1707 C1708 1.400 . S
C1707 C1712 1.490 . S
C1708 H1698 0.930 . S
C1708 C1707 1.400 . S
C1708 C1711 1.386 . S
H1709 C1725 0.930 . S
H1710 C1726 0.931 . S
C1711 H1699 0.929 . S
C1711 C1705 1.390 . S
C1711 C1708 1.386 . S
C1712 C1707 1.490 . S
C1712 C1714 1.395 . S
C1712 C1715 1.403 . S
H1713 C1719 0.930 . S
C1714 H1700 0.930 . S
C1714 C1712 1.395 . S
C1714 C1717 1.403 . S
C1715 C1712 1.403 . S
C1715 C1716 1.524 . S
C1715 C1719 1.400 . S
C1716 H1701 0.960 . S
C1716 H1702 0.960 . S
C1716 H1703 0.960 . S
C1716 C1715 1.524 . S
C1717 C1714 1.403 . S
C1717 C1718 1.392 . S
C1717 C1721 1.495 . S
C1718 C1717 1.392 . S
C1718 C1719 1.385 . S
C1718 C1720 1.478 . S
C1719 H1713 0.930 . S
C1719 C1715 1.400 . S
C1719 C1718 1.385 . S
C1720 C1718 1.478 . S
C1720 C1722 1.381 . S
C1720 C1726 1.383 . S
C1721 C1717 1.495 . S
C1721 H1727 0.959 . S
C1721 H1728 0.961 . S
C1721 H1729 0.960 . S
C1722 C1720 1.381 . S
C1722 C1723 1.394 . S
C1722 H1730 0.930 . S
C1723 C1722 1.394 . S
C1723 C1724 1.383 . S
C1723 H1731 0.929 . S
C1724 C1723 1.383 . S
C1724 C1725 1.377 . S
C1725 H1709 0.930 . S
C1725 C1724 1.377 . S
C1725 C1726 1.379 . S
C1726 H1710 0.931 . S
C1726 C1720 1.383 . S
C1726 C1725 1.379 . S
H1727 C1721 0.959 . S
H1728 C1721 0.961 . S
H1729 C1721 0.960 . S
H1730 C1722 0.930 . S
H1731 C1723 0.929 . S
H1732 C1740 0.929 . S
H1733 C1742 0.930 . S
H1734 C1744 0.930 . S
H1735 C1747 0.929 . S
H1736 C1750 0.930 . S
H1737 C1752 0.960 . S
H1738 C1752 0.960 . S
H1739 C1752 0.960 . S
C1740 H1732 0.929 . S
C1740 C1741 1.377 . S
C1740 C1742 1.384 . S
C1741 C1740 1.377 . S
C1741 C1747 1.390 . S
C1742 H1733 0.930 . S
C1742 C1740 1.384 . S
C1742 C1743 1.372 . S
C1743 C1742 1.372 . S
C1743 C1744 1.400 . S
C1743 C1748 1.490 . S
C1744 H1734 0.930 . S
C1744 C1743 1.400 . S
C1744 C1747 1.386 . S
H1745 C1761 0.930 . S
H1746 C1762 0.931 . S
C1747 H1735 0.929 . S
C1747 C1741 1.390 . S
C1747 C1744 1.386 . S
C1748 C1743 1.490 . S
C1748 C1750 1.395 . S
C1748 C1751 1.403 . S
H1749 C1755 0.930 . S
C1750 H1736 0.930 . S
C1750 C1748 1.395 . S
C1750 C1753 1.403 . S
C1751 C1748 1.403 . S
C1751 C1752 1.524 . S
C1751 C1755 1.400 . S
C1752 H1737 0.960 . S
C1752 H1738 0.960 . S
C1752 H1739 0.960 . S
C1752 C1751 1.524 . S
C1753 C1750 1.403 . S
C1753 C1754 1.392 . S
C1753 C1757 1.495 . S
C1754 C1753 1.392 . S
C1754 C1755 1.385 . S
C1754 C1756 1.478 . S
C1755 H1749 0.930 . S
C1755 C1751 1.400 . S
C1755 C1754 1.385 . S
C1756 C1754 1.478 . S
C1756 C1758 1.381 . S
C1756 C1762 1.383 . S
C1757 C1753 1.495 . S
C1757 H1763 0.959 . S
C1757 H1764 0.961 . S
C1757 H1765 0.960 . S
C1758 C1756 1.381 . S
C1758 C1759 1.394 . S
C1758 H1766 0.930 . S
C1759 C1758 1.394 . S
C1759 C1760 1.383 . S
C1759 H1767 0.929 . S
C1760 C1759 1.383 . S
C1760 C1761 1.377 . S
C1761 H1745 0.930 . S
C1761 C1760 1.377 . S
C1761 C1762 1.379 . S
C1762 H1746 0.931 . S
C1762 C1756 1.383 . S
C1762 C1761 1.379 . S
H1763 C1757 0.959 . S
H1764 C1757 0.961 . S
H1765 C1757 0.960 . S
H1766 C1758 0.930 . S
H1767 C1759 0.929 . S
H1768 C1776 0.929 . S
H1769 C1778 0.930 . S
H1770 C1780 0.930 . S
H1771 C1783 0.929 . S
H1772 C1786 0.930 . S
H1773 C1788 0.960 . S
H1774 C1788 0.960 . S
H1775 C1788 0.960 . S
C1776 H1768 0.929 . S
C1776 C1777 1.377 . S
C1776 C1778 1.384 . S
C1777 C1776 1.377 . S
C1777 C1783 1.390 . S
C1778 H1769 0.930 . S
C1778 C1776 1.384 . S
C1778 C1779 1.372 . S
C1779 C1778 1.372 . S
C1779 C1780 1.400 . S
C1779 C1784 1.490 . S
C1780 H1770 0.930 . S
C1780 C1779 1.400 . S
C1780 C1783 1.386 . S
H1781 C1797 0.930 . S
H1782 C1798 0.931 . S
C1783 H1771 0.929 . S
C1783 C1777 1.390 . S
C1783 C1780 1.386 . S
C1784 C1779 1.490 . S
C1784 C1786 1.395 . S
C1784 C1787 1.403 . S
H1785 C1791 0.930 . S
C1786 H1772 0.930 . S
C1786 C1784 1.395 . S
C1786 C1789 1.403 . S
C1787 C1784 1.403 . S
C1787 C1788 1.524 . S
C1787 C1791 1.400 . S
C1788 H1773 0.960 . S
C1788 H1774 0.960 . S
C1788 H1775 0.960 . S
C1788 C1787 1.524 . S
C1789 C1786 1.403 . S
C1789 C1790 1.392 . S
C1789 C1793 1.495 . S
C1790 C1789 1.392 . S
C1790 C1791 1.385 . S
C1790 C1792 1.478 . S
C1791 H1785 0.930 . S
C1791 C1787 1.400 . S
C1791 C1790 1.385 . S
C1792 C1790 1.478 . S
C1792 C1794 1.381 . S
C1792 C1798 1.383 . S
C1793 C1789 1.495 . S
C1793 H1799 0.959 . S
C1793 H1800 0.961 . S
C1793 H1801 0.960 . S
C1794 C1792 1.381 . S
C1794 C1795 1.394 . S
C1794 H1802 0.930 . S
C1795 C1794 1.394 . S
C1795 C1796 1.383 . S
C1795 H1803 0.929 . S
C1796 C1795 1.383 . S
C1796 C1797 1.377 . S
C1797 H1781 0.930 . S
C1797 C1796 1.377 . S
C1797 C1798 1.379 . S
C1798 H1782 0.931 . S
C1798 C1792 1.383 . S
C1798 C1797 1.379 . S
H1799 C1793 0.959 . S
H1800 C1793 0.961 . S
H1801 C1793 0.960 . S
H1802 C1794 0.930 . S
H1803 C1795 0.929 . S
H1804 C1812 0.929 1_455 S
H1805 C1814 0.930 . S
H1806 C1816 0.930 . S
H1807 C1819 0.929 . S
H1808 C1822 0.930 . S
H1809 C1824 0.960 . S
H1810 C1824 0.960 . S
H1811 C1824 0.960 . S
C1812 H1804 0.929 1_655 S
C1812 C1813 1.377 . S
C1812 C1814 1.384 . S
C1813 C1812 1.377 . S
C1813 C1819 1.390 . S
C1814 H1805 0.930 . S
C1814 C1812 1.384 . S
C1814 C1815 1.372 . S
C1815 C1814 1.372 . S
C1815 C1816 1.400 . S
C1815 C1820 1.490 . S
C1816 H1806 0.930 . S
C1816 C1815 1.400 . S
C1816 C1819 1.386 . S
H1817 C1833 0.930 . S
H1818 C1834 0.931 . S
C1819 H1807 0.929 . S
C1819 C1813 1.390 . S
C1819 C1816 1.386 . S
C1820 C1815 1.490 . S
C1820 C1822 1.395 . S
C1820 C1823 1.403 . S
H1821 C1827 0.930 . S
C1822 H1808 0.930 . S
C1822 C1820 1.395 . S
C1822 C1825 1.403 1_554 S
C1823 C1820 1.403 . S
C1823 C1824 1.524 . S
C1823 C1827 1.400 . S
C1824 H1809 0.960 . S
C1824 H1810 0.960 . S
C1824 H1811 0.960 . S
C1824 C1823 1.524 . S
C1825 C1822 1.403 1_556 S
C1825 C1826 1.392 . S
C1825 C1829 1.495 . S
C1826 C1825 1.392 . S
C1826 C1827 1.385 1_556 S
C1826 C1828 1.478 . S
C1827 H1821 0.930 . S
C1827 C1823 1.400 . S
C1827 C1826 1.385 1_554 S
C1828 C1826 1.478 . S
C1828 C1830 1.381 . S
C1828 C1834 1.383 . S
C1829 C1825 1.495 . S
C1829 H1835 0.959 . S
C1829 H1836 0.961 . S
C1829 H1837 0.960 . S
C1830 C1828 1.381 . S
C1830 C1831 1.394 . S
C1830 H1838 0.930 . S
C1831 C1830 1.394 . S
C1831 C1832 1.383 . S
C1831 H1839 0.929 . S
C1832 C1831 1.383 . S
C1832 C1833 1.377 . S
C1833 H1817 0.930 . S
C1833 C1832 1.377 . S
C1833 C1834 1.379 . S
C1834 H1818 0.931 . S
C1834 C1828 1.383 . S
C1834 C1833 1.379 . S
H1835 C1829 0.959 . S
H1836 C1829 0.961 . S
H1837 C1829 0.960 . S
H1838 C1830 0.930 . S
H1839 C1831 0.929 . S
H1840 C1848 0.929 . S
H1841 C1850 0.930 . S
H1842 C1852 0.930 . S
H1843 C1855 0.929 . S
H1844 C1858 0.930 . S
H1845 C1860 0.960 . S
H1846 C1860 0.960 . S
H1847 C1860 0.960 . S
C1848 H1840 0.929 . S
C1848 C1849 1.377 . S
C1848 C1850 1.384 . S
C1849 C1848 1.377 . S
C1849 C1855 1.390 . S
C1850 H1841 0.930 . S
C1850 C1848 1.384 . S
C1850 C1851 1.372 . S
C1851 C1850 1.372 . S
C1851 C1852 1.400 . S
C1851 C1856 1.490 . S
C1852 H1842 0.930 . S
C1852 C1851 1.400 . S
C1852 C1855 1.386 . S
H1853 C1869 0.930 . S
H1854 C1870 0.931 . S
C1855 H1843 0.929 . S
C1855 C1849 1.390 . S
C1855 C1852 1.386 . S
C1856 C1851 1.490 . S
C1856 C1858 1.395 . S
C1856 C1859 1.403 . S
H1857 C1863 0.930 . S
C1858 H1844 0.930 . S
C1858 C1856 1.395 . S
C1858 C1861 1.403 . S
C1859 C1856 1.403 . S
C1859 C1860 1.524 . S
C1859 C1863 1.400 . S
C1860 H1845 0.960 . S
C1860 H1846 0.960 . S
C1860 H1847 0.960 . S
C1860 C1859 1.524 . S
C1861 C1858 1.403 . S
C1861 C1862 1.392 . S
C1861 C1865 1.495 . S
C1862 C1861 1.392 . S
C1862 C1863 1.385 . S
C1862 C1864 1.478 . S
C1863 H1857 0.930 . S
C1863 C1859 1.400 . S
C1863 C1862 1.385 . S
C1864 C1862 1.478 . S
C1864 C1866 1.381 . S
C1864 C1870 1.383 . S
C1865 C1861 1.495 . S
C1865 H1871 0.959 . S
C1865 H1872 0.961 . S
C1865 H1873 0.960 . S
C1866 C1864 1.381 . S
C1866 C1867 1.394 . S
C1866 H1874 0.930 . S
C1867 C1866 1.394 . S
C1867 C1868 1.383 . S
C1867 H1875 0.929 . S
C1868 C1867 1.383 . S
C1868 C1869 1.377 . S
C1869 H1853 0.930 . S
C1869 C1868 1.377 . S
C1869 C1870 1.379 . S
C1870 H1854 0.931 . S
C1870 C1864 1.383 . S
C1870 C1869 1.379 . S
H1871 C1865 0.959 . S
H1872 C1865 0.961 . S
H1873 C1865 0.960 . S
H1874 C1866 0.930 . S
H1875 C1867 0.929 . S
H1876 C1884 0.929 . S
H1877 C1886 0.930 . S
H1878 C1888 0.930 . S
H1879 C1891 0.929 . S
H1880 C1894 0.930 . S
H1881 C1896 0.960 1_545 S
H1882 C1896 0.960 . S
H1883 C1896 0.960 . S
C1884 H1876 0.929 . S
C1884 C1885 1.377 . S
C1884 C1886 1.384 . S
C1885 C1884 1.377 . S
C1885 C1891 1.390 . S
C1886 H1877 0.930 . S
C1886 C1884 1.384 . S
C1886 C1887 1.372 . S
C1887 C1886 1.372 . S
C1887 C1888 1.400 . S
C1887 C1892 1.490 . S
C1888 H1878 0.930 . S
C1888 C1887 1.400 . S
C1888 C1891 1.386 . S
H1889 C1905 0.930 . S
H1890 C1906 0.931 . S
C1891 H1879 0.929 . S
C1891 C1885 1.390 . S
C1891 C1888 1.386 . S
C1892 C1887 1.490 . S
C1892 C1894 1.395 . S
C1892 C1895 1.403 . S
H1893 C1899 0.930 . S
C1894 H1880 0.930 . S
C1894 C1892 1.395 . S
C1894 C1897 1.403 . S
C1895 C1892 1.403 . S
C1895 C1896 1.524 . S
C1895 C1899 1.400 1_565 S
C1896 H1881 0.960 1_565 S
C1896 H1882 0.960 . S
C1896 H1883 0.960 . S
C1896 C1895 1.524 . S
C1897 C1894 1.403 . S
C1897 C1898 1.392 1_565 S
C1897 C1901 1.495 . S
C1898 C1897 1.392 1_545 S
C1898 C1899 1.385 . S
C1898 C1900 1.478 . S
C1899 H1893 0.930 . S
C1899 C1895 1.400 1_545 S
C1899 C1898 1.385 . S
C1900 C1898 1.478 . S
C1900 C1902 1.381 . S
C1900 C1906 1.383 . S
C1901 C1897 1.495 . S
C1901 H1907 0.959 . S
C1901 H1908 0.961 . S
C1901 H1909 0.960 . S
C1902 C1900 1.381 . S
C1902 C1903 1.394 . S
C1902 H1910 0.930 . S
C1903 C1902 1.394 . S
C1903 C1904 1.383 . S
C1903 H1911 0.929 . S
C1904 C1903 1.383 . S
C1904 C1905 1.377 . S
C1905 H1889 0.930 . S
C1905 C1904 1.377 . S
C1905 C1906 1.379 . S
C1906 H1890 0.931 . S
C1906 C1900 1.383 . S
C1906 C1905 1.379 . S
H1907 C1901 0.959 . S
H1908 C1901 0.961 . S
H1909 C1901 0.960 . S
H1910 C1902 0.930 . S
H1911 C1903 0.929 . S
H1912 C1920 0.929 . S
H1913 C1922 0.930 . S
H1914 C1924 0.930 . S
H1915 C1927 0.929 . S
H1916 C1930 0.930 . S
H1917 C1932 0.960 . S
H1918 C1932 0.960 . S
H1919 C1932 0.960 . S
C1920 H1912 0.929 . S
C1920 C1921 1.377 . S
C1920 C1922 1.384 . S
C1921 C1920 1.377 . S
C1921 C1927 1.390 . S
C1922 H1913 0.930 . S
C1922 C1920 1.384 . S
C1922 C1923 1.372 . S
C1923 C1922 1.372 . S
C1923 C1924 1.400 . S
C1923 C1928 1.490 . S
C1924 H1914 0.930 . S
C1924 C1923 1.400 . S
C1924 C1927 1.386 . S
H1925 C1941 0.930 . S
H1926 C1942 0.931 . S
C1927 H1915 0.929 . S
C1927 C1921 1.390 . S
C1927 C1924 1.386 . S
C1928 C1923 1.490 . S
C1928 C1930 1.395 . S
C1928 C1931 1.403 . S
H1929 C1935 0.930 . S
C1930 H1916 0.930 . S
C1930 C1928 1.395 . S
C1930 C1933 1.403 . S
C1931 C1928 1.403 . S
C1931 C1932 1.524 . S
C1931 C1935 1.400 . S
C1932 H1917 0.960 . S
C1932 H1918 0.960 . S
C1932 H1919 0.960 . S
C1932 C1931 1.524 . S
C1933 C1930 1.403 . S
C1933 C1934 1.392 . S
C1933 C1937 1.495 . S
C1934 C1933 1.392 . S
C1934 C1935 1.385 . S
C1934 C1936 1.478 . S
C1935 H1929 0.930 . S
C1935 C1931 1.400 . S
C1935 C1934 1.385 . S
C1936 C1934 1.478 . S
C1936 C1938 1.381 . S
C1936 C1942 1.383 . S
C1937 C1933 1.495 . S
C1937 H1943 0.959 . S
C1937 H1944 0.961 . S
C1937 H1945 0.960 . S
C1938 C1936 1.381 . S
C1938 C1939 1.394 . S
C1938 H1946 0.930 . S
C1939 C1938 1.394 . S
C1939 C1940 1.383 . S
C1939 H1947 0.929 . S
C1940 C1939 1.383 . S
C1940 C1941 1.377 . S
C1941 H1925 0.930 . S
C1941 C1940 1.377 . S
C1941 C1942 1.379 . S
C1942 H1926 0.931 . S
C1942 C1936 1.383 . S
C1942 C1941 1.379 . S
H1943 C1937 0.959 . S
H1944 C1937 0.961 . S
H1945 C1937 0.960 . S
H1946 C1938 0.930 . S
H1947 C1939 0.929 . S
H1948 C1956 0.929 . S
H1949 C1958 0.930 . S
H1950 C1960 0.930 . S
H1951 C1963 0.929 1_556 S
H1952 C1966 0.930 . S
H1953 C1968 0.960 1_565 S
H1954 C1968 0.960 . S
H1955 C1968 0.960 . S
C1956 H1948 0.929 . S
C1956 C1957 1.377 . S
C1956 C1958 1.384 . S
C1957 C1956 1.377 . S
C1957 C1963 1.390 . S
C1958 H1949 0.930 . S
C1958 C1956 1.384 . S
C1958 C1959 1.372 . S
C1959 C1958 1.372 . S
C1959 C1960 1.400 . S
C1959 C1964 1.490 . S
C1960 H1950 0.930 . S
C1960 C1959 1.400 . S
C1960 C1963 1.386 . S
H1961 C1977 0.930 . S
H1962 C1978 0.931 . S
C1963 H1951 0.929 1_554 S
C1963 C1957 1.390 . S
C1963 C1960 1.386 . S
C1964 C1959 1.490 . S
C1964 C1966 1.395 . S
C1964 C1967 1.403 . S
H1965 C1971 0.930 . S
C1966 H1952 0.930 . S
C1966 C1964 1.395 . S
C1966 C1969 1.403 . S
C1967 C1964 1.403 . S
C1967 C1968 1.524 . S
C1967 C1971 1.400 1_545 S
C1968 H1953 0.960 1_545 S
C1968 H1954 0.960 . S
C1968 H1955 0.960 . S
C1968 C1967 1.524 . S
C1969 C1966 1.403 . S
C1969 C1970 1.392 1_545 S
C1969 C1973 1.495 . S
C1970 C1969 1.392 1_565 S
C1970 C1971 1.385 . S
C1970 C1972 1.478 . S
C1971 H1965 0.930 . S
C1971 C1967 1.400 1_565 S
C1971 C1970 1.385 . S
C1972 C1970 1.478 . S
C1972 C1974 1.381 . S
C1972 C1978 1.383 . S
C1973 C1969 1.495 . S
C1973 H1979 0.959 . S
C1973 H1980 0.961 . S
C1973 H1981 0.960 . S
C1974 C1972 1.381 . S
C1974 C1975 1.394 . S
C1974 H1982 0.930 . S
C1975 C1974 1.394 . S
C1975 C1976 1.383 . S
C1975 H1983 0.929 . S
C1976 C1975 1.383 . S
C1976 C1977 1.377 . S
C1977 H1961 0.930 . S
C1977 C1976 1.377 . S
C1977 C1978 1.379 . S
C1978 H1962 0.931 . S
C1978 C1972 1.383 . S
C1978 C1977 1.379 . S
H1979 C1973 0.959 . S
H1980 C1973 0.961 . S
H1981 C1973 0.960 . S
H1982 C1974 0.930 . S
H1983 C1975 0.929 . S
H1984 C1992 0.929 . S
H1985 C1994 0.930 . S
H1986 C1996 0.930 . S
H1987 C1999 0.929 . S
H1988 C2002 0.930 . S
H1989 C2004 0.960 . S
H1990 C2004 0.960 . S
H1991 C2004 0.960 . S
C1992 H1984 0.929 . S
C1992 C1993 1.377 . S
C1992 C1994 1.384 . S
C1993 C1992 1.377 . S
C1993 C1999 1.390 . S
C1994 H1985 0.930 . S
C1994 C1992 1.384 . S
C1994 C1995 1.372 . S
C1995 C1994 1.372 . S
C1995 C1996 1.400 . S
C1995 C2000 1.490 . S
C1996 H1986 0.930 . S
C1996 C1995 1.400 . S
C1996 C1999 1.386 . S
H1997 C2013 0.930 . S
H1998 C2014 0.931 . S
C1999 H1987 0.929 . S
C1999 C1993 1.390 . S
C1999 C1996 1.386 . S
C2000 C1995 1.490 . S
C2000 C2002 1.395 . S
C2000 C2003 1.403 . S
H2001 C2007 0.930 . S
C2002 H1988 0.930 . S
C2002 C2000 1.395 . S
C2002 C2005 1.403 . S
C2003 C2000 1.403 . S
C2003 C2004 1.524 . S
C2003 C2007 1.400 . S
C2004 H1989 0.960 . S
C2004 H1990 0.960 . S
C2004 H1991 0.960 . S
C2004 C2003 1.524 . S
C2005 C2002 1.403 . S
C2005 C2006 1.392 . S
C2005 C2009 1.495 . S
C2006 C2005 1.392 . S
C2006 C2007 1.385 . S
C2006 C2008 1.478 . S
C2007 H2001 0.930 . S
C2007 C2003 1.400 . S
C2007 C2006 1.385 . S
C2008 C2006 1.478 . S
C2008 C2010 1.381 . S
C2008 C2014 1.383 . S
C2009 C2005 1.495 . S
C2009 H2015 0.959 . S
C2009 H2016 0.961 . S
C2009 H2017 0.960 . S
C2010 C2008 1.381 . S
C2010 C2011 1.394 . S
C2010 H2018 0.930 . S
C2011 C2010 1.394 . S
C2011 C2012 1.383 . S
C2011 H2019 0.929 . S
C2012 C2011 1.383 . S
C2012 C2013 1.377 . S
C2013 H1997 0.930 . S
C2013 C2012 1.377 . S
C2013 C2014 1.379 . S
C2014 H1998 0.931 . S
C2014 C2008 1.383 . S
C2014 C2013 1.379 . S
H2015 C2009 0.959 . S
H2016 C2009 0.961 . S
H2017 C2009 0.960 . S
H2018 C2010 0.930 . S
H2019 C2011 0.929 . S
H2020 C2028 0.929 . S
H2021 C2030 0.930 . S
H2022 C2032 0.930 . S
H2023 C2035 0.929 . S
H2024 C2038 0.930 . S
H2025 C2040 0.960 . S
H2026 C2040 0.960 . S
H2027 C2040 0.960 . S
C2028 H2020 0.929 . S
C2028 C2029 1.377 . S
C2028 C2030 1.384 . S
C2029 C2028 1.377 . S
C2029 C2035 1.390 . S
C2030 H2021 0.930 . S
C2030 C2028 1.384 . S
C2030 C2031 1.372 . S
C2031 C2030 1.372 . S
C2031 C2032 1.400 . S
C2031 C2036 1.490 . S
C2032 H2022 0.930 . S
C2032 C2031 1.400 . S
C2032 C2035 1.386 . S
H2033 C2049 0.930 . S
H2034 C2050 0.931 . S
C2035 H2023 0.929 . S
C2035 C2029 1.390 . S
C2035 C2032 1.386 . S
C2036 C2031 1.490 . S
C2036 C2038 1.395 . S
C2036 C2039 1.403 . S
H2037 C2043 0.942 . S
C2038 H2024 0.930 . S
C2038 C2036 1.395 . S
C2038 C2041 1.403 1_565 S
C2039 C2036 1.403 . S
C2039 C2040 1.524 . S
C2039 C2043 1.400 . S
C2040 H2025 0.960 . S
C2040 H2026 0.960 . S
C2040 H2027 0.960 . S
C2040 C2039 1.524 . S
C2041 C2038 1.403 1_545 S
C2041 C2042 1.392 . S
C2041 C2045 1.495 . S
C2042 C2041 1.392 . S
C2042 C2043 1.385 1_545 S
C2042 C2044 1.478 . S
C2043 H2037 0.942 . S
C2043 C2039 1.400 . S
C2043 C2042 1.385 1_565 S
C2044 C2042 1.478 . S
C2044 C2046 1.381 . S
C2044 C2050 1.383 . S
C2045 C2041 1.495 . S
C2045 H2051 0.959 . S
C2045 H2052 0.961 . S
C2045 H2053 0.960 . S
C2046 C2044 1.381 . S
C2046 C2047 1.394 . S
C2046 H2054 0.930 . S
C2047 C2046 1.394 . S
C2047 C2048 1.383 . S
C2047 H2055 0.929 . S
C2048 C2047 1.383 . S
C2048 C2049 1.377 . S
C2049 H2033 0.930 . S
C2049 C2048 1.377 . S
C2049 C2050 1.379 . S
C2050 H2034 0.931 . S
C2050 C2044 1.383 . S
C2050 C2049 1.379 . S
H2051 C2045 0.959 . S
H2052 C2045 0.961 . S
H2053 C2045 0.960 . S
H2054 C2046 0.930 . S
H2055 C2047 0.929 . S
H2056 C2064 0.929 . S
H2057 C2066 0.930 . S
H2058 C2068 0.930 . S
H2059 C2071 0.929 . S
H2060 C2074 0.930 . S
H2061 C2076 0.960 . S
H2062 C2076 0.960 . S
H2063 C2076 0.960 . S
C2064 H2056 0.929 . S
C2064 C2065 1.377 . S
C2064 C2066 1.384 . S
C2065 C2064 1.377 . S
C2065 C2071 1.390 . S
C2066 H2057 0.930 . S
C2066 C2064 1.384 . S
C2066 C2067 1.372 . S
C2067 C2066 1.372 . S
C2067 C2068 1.400 . S
C2067 C2072 1.490 . S
C2068 H2058 0.930 . S
C2068 C2067 1.400 . S
C2068 C2071 1.386 . S
H2069 C2085 0.930 . S
H2070 C2086 0.931 . S
C2071 H2059 0.929 . S
C2071 C2065 1.390 . S
C2071 C2068 1.386 . S
C2072 C2067 1.490 . S
C2072 C2074 1.395 . S
C2072 C2075 1.403 . S
H2073 C2079 0.930 . S
C2074 H2060 0.930 . S
C2074 C2072 1.395 . S
C2074 C2077 1.403 . S
C2075 C2072 1.403 . S
C2075 C2076 1.524 . S
C2075 C2079 1.400 . S
C2076 H2061 0.960 . S
C2076 H2062 0.960 . S
C2076 H2063 0.960 . S
C2076 C2075 1.524 . S
C2077 C2074 1.403 . S
C2077 C2078 1.392 . S
C2077 C2081 1.495 . S
C2078 C2077 1.392 . S
C2078 C2079 1.385 . S
C2078 C2080 1.478 . S
C2079 H2073 0.930 . S
C2079 C2075 1.400 . S
C2079 C2078 1.385 . S
C2080 C2078 1.478 . S
C2080 C2082 1.381 . S
C2080 C2086 1.383 . S
C2081 C2077 1.495 . S
C2081 H2087 0.959 . S
C2081 H2088 0.961 . S
C2081 H2089 0.960 . S
C2082 C2080 1.381 . S
C2082 C2083 1.394 . S
C2082 H2090 0.930 . S
C2083 C2082 1.394 . S
C2083 C2084 1.383 . S
C2083 H2091 0.929 . S
C2084 C2083 1.383 . S
C2084 C2085 1.377 . S
C2085 H2069 0.930 . S
C2085 C2084 1.377 . S
C2085 C2086 1.379 . S
C2086 H2070 0.931 . S
C2086 C2080 1.383 . S
C2086 C2085 1.379 . S
H2087 C2081 0.959 . S
H2088 C2081 0.961 . S
H2089 C2081 0.960 . S
H2090 C2082 0.930 . S
H2091 C2083 0.929 . S
H2092 C2100 0.929 . S
H2093 C2102 0.930 . S
H2094 C2104 0.930 . S
H2095 C2107 0.929 . S
H2096 C2110 0.930 . S
H2097 C2112 0.960 . S
H2098 C2112 0.960 . S
H2099 C2112 0.960 . S
C2100 H2092 0.929 . S
C2100 C2101 1.377 . S
C2100 C2102 1.384 . S
C2101 C2100 1.377 . S
C2101 C2107 1.390 . S
C2102 H2093 0.930 . S
C2102 C2100 1.384 . S
C2102 C2103 1.372 . S
C2103 C2102 1.372 . S
C2103 C2104 1.400 . S
C2103 C2108 1.490 . S
C2104 H2094 0.930 . S
C2104 C2103 1.400 . S
C2104 C2107 1.386 . S
H2105 C2121 0.930 . S
H2106 C2122 0.931 . S
C2107 H2095 0.929 . S
C2107 C2101 1.390 . S
C2107 C2104 1.386 . S
C2108 C2103 1.490 . S
C2108 C2110 1.395 . S
C2108 C2111 1.403 . S
H2109 C2115 0.930 . S
C2110 H2096 0.930 . S
C2110 C2108 1.395 . S
C2110 C2113 1.403 1_545 S
C2111 C2108 1.403 . S
C2111 C2112 1.524 . S
C2111 C2115 1.400 . S
C2112 H2097 0.960 . S
C2112 H2098 0.960 . S
C2112 H2099 0.960 . S
C2112 C2111 1.524 . S
C2113 C2110 1.403 1_565 S
C2113 C2114 1.392 . S
C2113 C2117 1.495 . S
C2114 C2113 1.392 . S
C2114 C2115 1.385 1_565 S
C2114 C2116 1.478 . S
C2115 H2109 0.930 . S
C2115 C2111 1.400 . S
C2115 C2114 1.385 1_545 S
C2116 C2114 1.478 . S
C2116 C2118 1.381 . S
C2116 C2122 1.383 . S
C2117 C2113 1.495 . S
C2117 H2123 0.959 . S
C2117 H2124 0.961 . S
C2117 H2125 0.960 . S
C2118 C2116 1.381 . S
C2118 C2119 1.394 . S
C2118 H2126 0.930 . S
C2119 C2118 1.394 . S
C2119 C2120 1.383 . S
C2119 H2127 0.929 . S
C2120 C2119 1.383 . S
C2120 C2121 1.377 . S
C2121 H2105 0.930 . S
C2121 C2120 1.377 . S
C2121 C2122 1.379 . S
C2122 H2106 0.931 . S
C2122 C2116 1.383 . S
C2122 C2121 1.379 . S
H2123 C2117 0.959 . S
H2124 C2117 0.961 . S
H2125 C2117 0.960 . S
H2126 C2118 0.930 . S
H2127 C2119 0.929 . S
H2128 C2136 0.929 . S
H2129 C2138 0.930 . S
H2130 C2140 0.930 . S
H2131 C2143 0.929 . S
H2132 C2146 0.930 . S
H2133 C2148 0.960 . S
H2134 C2148 0.960 . S
H2135 C2148 0.960 . S
C2136 H2128 0.929 . S
C2136 C2137 1.377 . S
C2136 C2138 1.384 . S
C2137 C2136 1.377 . S
C2137 C2143 1.390 . S
C2138 H2129 0.930 . S
C2138 C2136 1.384 . S
C2138 C2139 1.372 . S
C2139 C2138 1.372 . S
C2139 C2140 1.400 . S
C2139 C2144 1.490 . S
C2140 H2130 0.930 . S
C2140 C2139 1.400 . S
C2140 C2143 1.386 . S
H2141 C2157 0.930 . S
H2142 C2158 0.931 . S
C2143 H2131 0.929 . S
C2143 C2137 1.390 . S
C2143 C2140 1.386 . S
C2144 C2139 1.490 . S
C2144 C2146 1.395 . S
C2144 C2147 1.403 . S
H2145 C2151 0.930 . S
C2146 H2132 0.930 . S
C2146 C2144 1.395 . S
C2146 C2149 1.403 . S
C2147 C2144 1.403 . S
C2147 C2148 1.524 . S
C2147 C2151 1.400 . S
C2148 H2133 0.960 . S
C2148 H2134 0.960 . S
C2148 H2135 0.960 . S
C2148 C2147 1.524 . S
C2149 C2146 1.403 . S
C2149 C2150 1.392 . S
C2149 C2153 1.495 . S
C2150 C2149 1.392 . S
C2150 C2151 1.385 . S
C2150 C2152 1.478 . S
C2151 H2145 0.930 . S
C2151 C2147 1.400 . S
C2151 C2150 1.385 . S
C2152 C2150 1.478 . S
C2152 C2154 1.381 . S
C2152 C2158 1.383 . S
C2153 C2149 1.495 . S
C2153 H2159 0.959 . S
C2153 H2160 0.961 . S
C2153 H2161 0.960 . S
C2154 C2152 1.381 . S
C2154 C2155 1.394 . S
C2154 H2162 0.930 . S
C2155 C2154 1.394 . S
C2155 C2156 1.383 . S
C2155 H2163 0.929 . S
C2156 C2155 1.383 . S
C2156 C2157 1.377 . S
C2157 H2141 0.930 . S
C2157 C2156 1.377 . S
C2157 C2158 1.379 . S
C2158 H2142 0.931 . S
C2158 C2152 1.383 . S
C2158 C2157 1.379 . S
H2159 C2153 0.959 . S
H2160 C2153 0.961 . S
H2161 C2153 0.960 . S
H2162 C2154 0.930 . S
H2163 C2155 0.929 . S
H2164 C2172 0.929 . S
H2165 C2174 0.930 . S
H2166 C2176 0.930 . S
H2167 C2179 0.929 . S
H2168 C2182 0.930 . S
H2169 C2184 0.960 . S
H2170 C2184 0.960 . S
H2171 C2184 0.960 . S
C2172 H2164 0.929 . S
C2172 C2173 1.377 . S
C2172 C2174 1.384 . S
C2173 C2172 1.377 . S
C2173 C2179 1.390 . S
C2174 H2165 0.930 . S
C2174 C2172 1.384 . S
C2174 C2175 1.372 . S
C2175 C2174 1.372 . S
C2175 C2176 1.400 . S
C2175 C2180 1.490 . S
C2176 H2166 0.930 . S
C2176 C2175 1.400 . S
C2176 C2179 1.386 . S
H2177 C2193 0.930 . S
H2178 C2194 0.931 . S
C2179 H2167 0.929 . S
C2179 C2173 1.390 . S
C2179 C2176 1.386 . S
C2180 C2175 1.490 . S
C2180 C2182 1.395 . S
C2180 C2183 1.403 . S
H2181 C2187 0.930 . S
C2182 H2168 0.930 . S
C2182 C2180 1.395 . S
C2182 C2185 1.403 . S
C2183 C2180 1.403 . S
C2183 C2184 1.524 . S
C2183 C2187 1.400 . S
C2184 H2169 0.960 . S
C2184 H2170 0.960 . S
C2184 H2171 0.960 . S
C2184 C2183 1.524 . S
C2185 C2182 1.403 . S
C2185 C2186 1.392 . S
C2185 C2189 1.495 . S
C2186 C2185 1.392 . S
C2186 C2187 1.385 . S
C2186 C2188 1.478 . S
C2187 H2181 0.930 . S
C2187 C2183 1.400 . S
C2187 C2186 1.385 . S
C2188 C2186 1.478 . S
C2188 C2190 1.381 . S
C2188 C2194 1.383 . S
C2189 C2185 1.495 . S
C2189 H2195 0.959 . S
C2189 H2196 0.961 . S
C2189 H2197 0.960 . S
C2190 C2188 1.381 . S
C2190 C2191 1.394 . S
C2190 H2198 0.930 . S
C2191 C2190 1.394 . S
C2191 C2192 1.383 . S
C2191 H2199 0.929 . S
C2192 C2191 1.383 . S
C2192 C2193 1.377 . S
C2193 H2177 0.930 . S
C2193 C2192 1.377 . S
C2193 C2194 1.379 . S
C2194 H2178 0.931 . S
C2194 C2188 1.383 . S
C2194 C2193 1.379 . S
H2195 C2189 0.959 . S
H2196 C2189 0.961 . S
H2197 C2189 0.960 . S
H2198 C2190 0.930 . S
H2199 C2191 0.929 . S
H2200 C2208 0.929 . S
H2201 C2210 0.930 . S
H2202 C2212 0.930 . S
H2203 C2215 0.929 . S
H2204 C2218 0.930 . S
H2205 C2220 0.960 . S
H2206 C2220 0.960 . S
H2207 C2220 0.960 . S
C2208 H2200 0.929 . S
C2208 C2209 1.377 . S
C2208 C2210 1.384 . S
C2209 C2208 1.377 . S
C2209 C2215 1.390 . S
C2210 H2201 0.930 . S
C2210 C2208 1.384 . S
C2210 C2211 1.372 . S
C2211 C2210 1.372 . S
C2211 C2212 1.400 . S
C2211 C2216 1.490 . S
C2212 H2202 0.930 . S
C2212 C2211 1.400 . S
C2212 C2215 1.386 . S
H2213 C2229 0.930 . S
H2214 C2230 0.931 . S
C2215 H2203 0.929 . S
C2215 C2209 1.390 . S
C2215 C2212 1.386 . S
C2216 C2211 1.490 . S
C2216 C2218 1.395 . S
C2216 C2219 1.403 . S
H2217 C2223 0.930 1_455 S
C2218 H2204 0.930 . S
C2218 C2216 1.395 . S
C2218 C2221 1.403 . S
C2219 C2216 1.403 . S
C2219 C2220 1.524 . S
C2219 C2223 1.400 . S
C2220 H2205 0.960 . S
C2220 H2206 0.960 . S
C2220 H2207 0.960 . S
C2220 C2219 1.524 . S
C2221 C2218 1.403 . S
C2221 C2222 1.392 1_655 S
C2221 C2225 1.495 1_655 S
C2222 C2221 1.392 1_455 S
C2222 C2223 1.385 1_455 S
C2222 C2224 1.478 . S
C2223 H2217 0.930 1_655 S
C2223 C2219 1.400 . S
C2223 C2222 1.385 1_655 S
C2224 C2222 1.478 . S
C2224 C2226 1.381 . S
C2224 C2230 1.383 . S
C2225 C2221 1.495 1_455 S
C2225 H2231 0.980 . S
C2225 H2232 0.961 . S
C2225 H2233 0.960 . S
C2226 C2224 1.381 . S
C2226 C2227 1.394 . S
C2226 H2234 0.930 . S
C2227 C2226 1.394 . S
C2227 C2228 1.383 . S
C2227 H2235 0.929 . S
C2228 C2227 1.383 . S
C2228 C2229 1.377 . S
C2229 H2213 0.930 . S
C2229 C2228 1.377 . S
C2229 C2230 1.379 . S
C2230 H2214 0.931 . S
C2230 C2224 1.383 . S
C2230 C2229 1.379 . S
H2231 C2225 0.980 . S
H2232 C2225 0.961 . S
H2233 C2225 0.960 . S
H2234 C2226 0.930 . S
H2235 C2227 0.929 . S
H2236 C2244 0.929 . S
H2237 C2246 0.930 . S
H2238 C2248 0.930 . S
H2239 C2251 0.929 . S
H2240 C2254 0.930 . S
H2241 C2256 0.960 . S
H2242 C2256 0.960 . S
H2243 C2256 0.960 . S
C2244 H2236 0.929 . S
C2244 C2245 1.377 . S
C2244 C2246 1.384 . S
C2245 C2244 1.377 . S
C2245 C2251 1.390 . S
C2246 H2237 0.930 . S
C2246 C2244 1.384 . S
C2246 C2247 1.372 . S
C2247 C2246 1.372 . S
C2247 C2248 1.400 . S
C2247 C2252 1.490 . S
C2248 H2238 0.930 . S
C2248 C2247 1.400 . S
C2248 C2251 1.386 . S
H2249 C2265 0.930 . S
H2250 C2266 0.931 . S
C2251 H2239 0.929 . S
C2251 C2245 1.390 . S
C2251 C2248 1.386 . S
C2252 C2247 1.490 . S
C2252 C2254 1.395 . S
C2252 C2255 1.403 . S
H2253 C2259 0.930 . S
C2254 H2240 0.930 . S
C2254 C2252 1.395 . S
C2254 C2257 1.403 . S
C2255 C2252 1.403 . S
C2255 C2256 1.524 . S
C2255 C2259 1.400 . S
C2256 H2241 0.960 . S
C2256 H2242 0.960 . S
C2256 H2243 0.960 . S
C2256 C2255 1.524 . S
C2257 C2254 1.403 . S
C2257 C2258 1.392 . S
C2257 C2261 1.495 . S
C2258 C2257 1.392 . S
C2258 C2259 1.385 . S
C2258 C2260 1.478 . S
C2259 H2253 0.930 . S
C2259 C2255 1.400 . S
C2259 C2258 1.385 . S
C2260 C2258 1.478 . S
C2260 C2262 1.381 . S
C2260 C2266 1.383 . S
C2261 C2257 1.495 . S
C2261 H2267 0.959 . S
C2261 H2268 0.961 . S
C2261 H2269 0.960 . S
C2262 C2260 1.381 . S
C2262 C2263 1.394 . S
C2262 H2270 0.930 . S
C2263 C2262 1.394 . S
C2263 C2264 1.383 . S
C2263 H2271 0.929 . S
C2264 C2263 1.383 . S
C2264 C2265 1.377 . S
C2265 H2249 0.930 . S
C2265 C2264 1.377 . S
C2265 C2266 1.379 . S
C2266 H2250 0.931 . S
C2266 C2260 1.383 . S
C2266 C2265 1.379 . S
H2267 C2261 0.959 . S
H2268 C2261 0.961 . S
H2269 C2261 0.960 . S
H2270 C2262 0.930 . S
H2271 C2263 0.929 . S
H2272 C2280 0.929 . S
H2273 C2282 0.930 . S
H2274 C2284 0.930 . S
H2275 C2287 0.929 . S
H2276 C2290 0.930 . S
H2277 C2292 0.960 . S
H2278 C2292 0.960 . S
H2279 C2292 0.960 . S
C2280 H2272 0.929 . S
C2280 C2281 1.377 . S
C2280 C2282 1.384 . S
C2281 C2280 1.377 . S
C2281 C2287 1.390 . S
C2282 H2273 0.930 . S
C2282 C2280 1.384 . S
C2282 C2283 1.372 . S
C2283 C2282 1.372 . S
C2283 C2284 1.400 . S
C2283 C2288 1.490 . S
C2284 H2274 0.930 . S
C2284 C2283 1.400 . S
C2284 C2287 1.386 . S
H2285 C2301 0.930 . S
H2286 C2302 0.931 . S
C2287 H2275 0.929 . S
C2287 C2281 1.390 . S
C2287 C2284 1.386 . S
C2288 C2283 1.490 . S
C2288 C2290 1.395 . S
C2288 C2291 1.403 . S
H2289 C2295 0.930 . S
C2290 H2276 0.930 . S
C2290 C2288 1.395 . S
C2290 C2293 1.403 1_455 S
C2291 C2288 1.403 . S
C2291 C2292 1.524 . S
C2291 C2295 1.400 . S
C2292 H2277 0.960 . S
C2292 H2278 0.960 . S
C2292 H2279 0.960 . S
C2292 C2291 1.524 . S
C2293 C2290 1.403 1_655 S
C2293 C2294 1.392 . S
C2293 C2297 1.495 . S
C2294 C2293 1.392 . S
C2294 C2295 1.385 1_655 S
C2294 C2296 1.478 . S
C2295 H2289 0.930 . S
C2295 C2291 1.400 . S
C2295 C2294 1.385 1_455 S
C2296 C2294 1.478 . S
C2296 C2298 1.381 . S
C2296 C2302 1.383 . S
C2297 C2293 1.495 . S
C2297 H2303 0.959 . S
C2297 H2304 0.961 . S
C2297 H2305 0.960 . S
C2298 C2296 1.381 . S
C2298 C2299 1.394 . S
C2298 H2306 0.930 . S
C2299 C2298 1.394 . S
C2299 C2300 1.383 . S
C2299 H2307 0.929 . S
C2300 C2299 1.383 . S
C2300 C2301 1.377 . S
C2301 H2285 0.930 . S
C2301 C2300 1.377 . S
C2301 C2302 1.379 . S
C2302 H2286 0.931 . S
C2302 C2296 1.383 . S
C2302 C2301 1.379 . S
H2303 C2297 0.959 . S
H2304 C2297 0.961 . S
H2305 C2297 0.960 . S
H2306 C2298 0.930 . S
H2307 C2299 0.929 . S
H2308 C2316 0.929 . S
H2309 C2318 0.930 . S
H2310 C2320 0.930 . S
H2311 C2323 0.929 . S
H2312 C2326 0.930 . S
H2313 C2328 0.960 . S
H2314 C2328 0.960 . S
H2315 C2328 0.960 . S
C2316 H2308 0.929 . S
C2316 C2317 1.377 . S
C2316 C2318 1.384 . S
C2317 C2316 1.377 . S
C2317 C2323 1.390 . S
C2318 H2309 0.930 . S
C2318 C2316 1.384 . S
C2318 C2319 1.372 . S
C2319 C2318 1.372 . S
C2319 C2320 1.400 . S
C2319 C2324 1.490 . S
C2320 H2310 0.930 . S
C2320 C2319 1.400 . S
C2320 C2323 1.386 . S
H2321 C2337 0.930 . S
H2322 C2338 0.931 . S
C2323 H2311 0.929 . S
C2323 C2317 1.390 . S
C2323 C2320 1.386 . S
C2324 C2319 1.490 . S
C2324 C2326 1.395 . S
C2324 C2327 1.403 . S
H2325 C2331 0.930 . S
C2326 H2312 0.930 . S
C2326 C2324 1.395 . S
C2326 C2329 1.403 . S
C2327 C2324 1.403 . S
C2327 C2328 1.524 . S
C2327 C2331 1.400 . S
C2328 H2313 0.960 . S
C2328 H2314 0.960 . S
C2328 H2315 0.960 . S
C2328 C2327 1.524 . S
C2329 C2326 1.403 . S
C2329 C2330 1.392 . S
C2329 C2333 1.495 . S
C2330 C2329 1.392 . S
C2330 C2331 1.385 . S
C2330 C2332 1.478 . S
C2331 H2325 0.930 . S
C2331 C2327 1.400 . S
C2331 C2330 1.385 . S
C2332 C2330 1.478 . S
C2332 C2334 1.381 . S
C2332 C2338 1.383 . S
C2333 C2329 1.495 . S
C2333 H2339 0.959 . S
C2333 H2340 0.961 . S
C2333 H2341 0.960 . S
C2334 C2332 1.381 . S
C2334 C2335 1.394 . S
C2334 H2342 0.930 . S
C2335 C2334 1.394 . S
C2335 C2336 1.383 . S
C2335 H2343 0.929 . S
C2336 C2335 1.383 . S
C2336 C2337 1.377 . S
C2337 H2321 0.930 . S
C2337 C2336 1.377 . S
C2337 C2338 1.379 . S
C2338 H2322 0.931 . S
C2338 C2332 1.383 . S
C2338 C2337 1.379 . S
H2339 C2333 0.959 . S
H2340 C2333 0.961 . S
H2341 C2333 0.960 . S
H2342 C2334 0.930 . S
H2343 C2335 0.929 . S
H2344 C2352 0.929 . S
H2345 C2354 0.930 . S
H2346 C2356 0.930 . S
H2347 C2359 0.929 . S
H2348 C2362 0.930 . S
H2349 C2364 0.960 . S
H2350 C2364 0.960 . S
H2351 C2364 0.960 . S
C2352 H2344 0.929 . S
C2352 C2353 1.377 . S
C2352 C2354 1.384 . S
C2353 C2352 1.377 . S
C2353 C2359 1.390 . S
C2354 H2345 0.930 . S
C2354 C2352 1.384 . S
C2354 C2355 1.372 . S
C2355 C2354 1.372 . S
C2355 C2356 1.400 . S
C2355 C2360 1.490 . S
C2356 H2346 0.930 . S
C2356 C2355 1.400 . S
C2356 C2359 1.386 . S
H2357 C2373 0.930 . S
H2358 C2374 0.931 . S
C2359 H2347 0.929 . S
C2359 C2353 1.390 . S
C2359 C2356 1.386 . S
C2360 C2355 1.490 . S
C2360 C2362 1.395 . S
C2360 C2363 1.403 . S
H2361 C2367 0.920 1_455 S
C2362 H2348 0.930 . S
C2362 C2360 1.395 . S
C2362 C2365 1.403 1_655 S
C2363 C2360 1.403 . S
C2363 C2364 1.524 . S
C2363 C2367 1.434 . S
C2364 H2349 0.960 . S
C2364 H2350 0.960 . S
C2364 H2351 0.960 . S
C2364 C2363 1.524 . S
C2365 C2362 1.403 1_455 S
C2365 C2366 1.392 . S
C2365 C2369 1.495 . S
C2366 C2365 1.392 . S
C2366 C2367 1.361 1_455 S
C2366 C2368 1.478 . S
C2367 H2361 0.920 1_655 S
C2367 C2363 1.434 . S
C2367 C2366 1.361 1_655 S
C2368 C2366 1.478 . S
C2368 C2370 1.381 . S
C2368 C2374 1.383 . S
C2369 C2365 1.495 . S
C2369 H2375 0.959 . S
C2369 H2376 0.961 . S
C2369 H2377 0.960 . S
C2370 C2368 1.381 . S
C2370 C2371 1.394 . S
C2370 H2378 0.930 . S
C2371 C2370 1.394 . S
C2371 C2372 1.383 . S
C2371 H2379 0.929 . S
C2372 C2371 1.383 . S
C2372 C2373 1.377 . S
C2373 H2357 0.930 . S
C2373 C2372 1.377 . S
C2373 C2374 1.379 . S
C2374 H2358 0.931 . S
C2374 C2368 1.383 . S
C2374 C2373 1.379 . S
H2375 C2369 0.959 . S
H2376 C2369 0.961 . S
H2377 C2369 0.960 . S
H2378 C2370 0.930 . S
H2379 C2371 0.929 . S
H2380 C2388 0.929 . S
H2381 C2390 0.930 . S
H2382 C2392 0.930 . S
H2383 C2395 0.929 . S
H2384 C2398 0.930 . S
H2385 C2400 0.960 . S
H2386 C2400 0.960 . S
H2387 C2400 0.960 . S
C2388 H2380 0.929 . S
C2388 C2389 1.377 . S
C2388 C2390 1.384 . S
C2389 C2388 1.377 . S
C2389 C2395 1.390 . S
C2390 H2381 0.930 . S
C2390 C2388 1.384 . S
C2390 C2391 1.372 . S
C2391 C2390 1.372 . S
C2391 C2392 1.400 . S
C2391 C2396 1.490 . S
C2392 H2382 0.930 . S
C2392 C2391 1.400 . S
C2392 C2395 1.386 . S
H2393 C2409 0.930 . S
H2394 C2410 0.931 . S
C2395 H2383 0.929 . S
C2395 C2389 1.390 . S
C2395 C2392 1.386 . S
C2396 C2391 1.490 . S
C2396 C2398 1.395 . S
C2396 C2399 1.403 . S
H2397 C2403 0.930 . S
C2398 H2384 0.930 . S
C2398 C2396 1.395 . S
C2398 C2401 1.403 . S
C2399 C2396 1.403 . S
C2399 C2400 1.524 . S
C2399 C2403 1.400 . S
C2400 H2385 0.960 . S
C2400 H2386 0.960 . S
C2400 H2387 0.960 . S
C2400 C2399 1.524 . S
C2401 C2398 1.403 . S
C2401 C2402 1.392 . S
C2401 C2405 1.495 . S
C2402 C2401 1.392 . S
C2402 C2403 1.385 . S
C2402 C2404 1.478 . S
C2403 H2397 0.930 . S
C2403 C2399 1.400 . S
C2403 C2402 1.385 . S
C2404 C2402 1.478 . S
C2404 C2406 1.381 . S
C2404 C2410 1.383 . S
C2405 C2401 1.495 . S
C2405 H2411 0.959 . S
C2405 H2412 0.961 . S
C2405 H2413 0.960 . S
C2406 C2404 1.381 . S
C2406 C2407 1.394 . S
C2406 H2414 0.930 . S
C2407 C2406 1.394 . S
C2407 C2408 1.383 . S
C2407 H2415 0.929 . S
C2408 C2407 1.383 . S
C2408 C2409 1.377 . S
C2409 H2393 0.930 . S
C2409 C2408 1.377 . S
C2409 C2410 1.379 . S
C2410 H2394 0.931 . S
C2410 C2404 1.383 . S
C2410 C2409 1.379 . S
H2411 C2405 0.959 . S
H2412 C2405 0.961 . S
H2413 C2405 0.960 . S
H2414 C2406 0.930 . S
H2415 C2407 0.929 . S
H2416 C2424 0.929 . S
H2417 C2426 0.930 . S
H2418 C2428 0.930 . S
H2419 C2431 0.929 . S
H2420 C2434 0.930 . S
H2421 C2436 0.960 . S
H2422 C2436 0.960 . S
H2423 C2436 0.960 . S
C2424 H2416 0.929 . S
C2424 C2425 1.377 . S
C2424 C2426 1.384 . S
C2425 C2424 1.377 . S
C2425 C2431 1.390 . S
C2426 H2417 0.930 . S
C2426 C2424 1.384 . S
C2426 C2427 1.372 . S
C2427 C2426 1.372 . S
C2427 C2428 1.400 . S
C2427 C2432 1.490 . S
C2428 H2418 0.930 . S
C2428 C2427 1.400 . S
C2428 C2431 1.386 . S
H2429 C2445 0.930 . S
H2430 C2446 0.931 . S
C2431 H2419 0.929 . S
C2431 C2425 1.390 . S
C2431 C2428 1.386 . S
C2432 C2427 1.490 . S
C2432 C2434 1.395 . S
C2432 C2435 1.403 . S
H2433 C2439 0.930 . S
C2434 H2420 0.930 . S
C2434 C2432 1.395 . S
C2434 C2437 1.403 . S
C2435 C2432 1.403 . S
C2435 C2436 1.524 . S
C2435 C2439 1.400 . S
C2436 H2421 0.960 . S
C2436 H2422 0.960 . S
C2436 H2423 0.960 . S
C2436 C2435 1.524 . S
C2437 C2434 1.403 . S
C2437 C2438 1.392 . S
C2437 C2441 1.495 . S
C2438 C2437 1.392 . S
C2438 C2439 1.385 . S
C2438 C2440 1.478 . S
C2439 H2433 0.930 . S
C2439 C2435 1.400 . S
C2439 C2438 1.385 . S
C2440 C2438 1.478 . S
C2440 C2442 1.381 . S
C2440 C2446 1.383 . S
C2441 C2437 1.495 . S
C2441 H2447 0.959 . S
C2441 H2448 0.961 . S
C2441 H2449 0.960 . S
C2442 C2440 1.381 . S
C2442 C2443 1.394 . S
C2442 H2450 0.930 . S
C2443 C2442 1.394 . S
C2443 C2444 1.383 . S
C2443 H2451 0.929 . S
C2444 C2443 1.383 . S
C2444 C2445 1.377 . S
C2445 H2429 0.930 . S
C2445 C2444 1.377 . S
C2445 C2446 1.379 . S
C2446 H2430 0.931 . S
C2446 C2440 1.383 . S
C2446 C2445 1.379 . S
H2447 C2441 0.959 . S
H2448 C2441 0.961 . S
H2449 C2441 0.960 . S
H2450 C2442 0.930 . S
H2451 C2443 0.929 . S
H2452 C2460 0.929 . S
H2453 C2462 0.930 . S
H2454 C2464 0.930 . S
H2455 C2467 0.929 . S
H2456 C2470 0.930 . S
H2457 C2472 0.960 . S
H2458 C2472 0.960 . S
H2459 C2472 0.960 . S
C2460 H2452 0.929 . S
C2460 C2461 1.377 . S
C2460 C2462 1.384 . S
C2461 C2460 1.377 . S
C2461 C2467 1.390 . S
C2462 H2453 0.930 . S
C2462 C2460 1.384 . S
C2462 C2463 1.372 . S
C2463 C2462 1.372 . S
C2463 C2464 1.400 . S
C2463 C2468 1.490 . S
C2464 H2454 0.930 . S
C2464 C2463 1.400 . S
C2464 C2467 1.386 . S
H2465 C2481 0.930 . S
H2466 C2482 0.931 . S
C2467 H2455 0.929 . S
C2467 C2461 1.390 . S
C2467 C2464 1.386 . S
C2468 C2463 1.490 . S
C2468 C2470 1.395 . S
C2468 C2471 1.403 . S
H2469 C2475 0.930 . S
C2470 H2456 0.930 . S
C2470 C2468 1.395 . S
C2470 C2473 1.403 1_554 S
C2471 C2468 1.403 . S
C2471 C2472 1.524 . S
C2471 C2475 1.400 . S
C2472 H2457 0.960 . S
C2472 H2458 0.960 . S
C2472 H2459 0.960 . S
C2472 C2471 1.524 . S
C2473 C2470 1.403 1_556 S
C2473 C2474 1.392 . S
C2473 C2477 1.495 . S
C2474 C2473 1.392 . S
C2474 C2475 1.385 1_556 S
C2474 C2476 1.478 . S
C2475 H2469 0.930 . S
C2475 C2471 1.400 . S
C2475 C2474 1.385 1_554 S
C2476 C2474 1.478 . S
C2476 C2478 1.381 . S
C2476 C2482 1.383 . S
C2477 C2473 1.495 . S
C2477 H2483 0.959 . S
C2477 H2484 0.961 . S
C2477 H2485 0.960 . S
C2478 C2476 1.381 . S
C2478 C2479 1.394 . S
C2478 H2486 0.930 . S
C2479 C2478 1.394 . S
C2479 C2480 1.383 . S
C2479 H2487 0.929 . S
C2480 C2479 1.383 . S
C2480 C2481 1.377 . S
C2481 H2465 0.930 . S
C2481 C2480 1.377 . S
C2481 C2482 1.379 . S
C2482 H2466 0.931 . S
C2482 C2476 1.383 . S
C2482 C2481 1.379 . S
H2483 C2477 0.959 . S
H2484 C2477 0.961 . S
H2485 C2477 0.960 . S
H2486 C2478 0.930 . S
H2487 C2479 0.929 . S
H2488 C2496 0.929 . S
H2489 C2498 0.930 . S
H2490 C2500 0.930 . S
H2491 C2503 0.929 . S
H2492 C2506 0.930 . S
H2493 C2508 0.960 . S
H2494 C2508 0.960 . S
H2495 C2508 0.960 . S
C2496 H2488 0.929 . S
C2496 C2497 1.377 . S
C2496 C2498 1.384 . S
C2497 C2496 1.377 . S
C2497 C2503 1.390 . S
C2498 H2489 0.930 . S
C2498 C2496 1.384 . S
C2498 C2499 1.372 . S
C2499 C2498 1.372 . S
C2499 C2500 1.400 . S
C2499 C2504 1.490 . S
C2500 H2490 0.930 . S
C2500 C2499 1.400 . S
C2500 C2503 1.386 . S
H2501 C2517 0.930 . S
H2502 C2518 0.931 . S
C2503 H2491 0.929 . S
C2503 C2497 1.390 . S
C2503 C2500 1.386 . S
C2504 C2499 1.490 . S
C2504 C2506 1.395 . S
C2504 C2507 1.403 . S
H2505 C2511 0.930 . S
C2506 H2492 0.930 . S
C2506 C2504 1.395 . S
C2506 C2509 1.403 . S
C2507 C2504 1.403 . S
C2507 C2508 1.524 . S
C2507 C2511 1.400 . S
C2508 H2493 0.960 . S
C2508 H2494 0.960 . S
C2508 H2495 0.960 . S
C2508 C2507 1.524 . S
C2509 C2506 1.403 . S
C2509 C2510 1.392 . S
C2509 C2513 1.495 . S
C2510 C2509 1.392 . S
C2510 C2511 1.385 . S
C2510 C2512 1.478 . S
C2511 H2505 0.930 . S
C2511 C2507 1.400 . S
C2511 C2510 1.385 . S
C2512 C2510 1.478 . S
C2512 C2514 1.381 . S
C2512 C2518 1.383 . S
C2513 C2509 1.495 . S
C2513 H2519 0.959 . S
C2513 H2520 0.961 . S
C2513 H2521 0.960 . S
C2514 C2512 1.381 . S
C2514 C2515 1.394 . S
C2514 H2522 0.930 . S
C2515 C2514 1.394 . S
C2515 C2516 1.383 . S
C2515 H2523 0.929 . S
C2516 C2515 1.383 . S
C2516 C2517 1.377 . S
C2517 H2501 0.930 . S
C2517 C2516 1.377 . S
C2517 C2518 1.379 . S
C2518 H2502 0.931 . S
C2518 C2512 1.383 . S
C2518 C2517 1.379 . S
H2519 C2513 0.959 . S
H2520 C2513 0.961 . S
H2521 C2513 0.960 . S
H2522 C2514 0.930 . S
H2523 C2515 0.929 . S
H2524 C2532 0.929 . S
H2525 C2534 0.930 . S
H2526 C2536 0.930 . S
H2527 C2539 0.929 . S
H2528 C2542 0.930 . S
H2529 C2544 0.960 . S
H2530 C2544 0.960 . S
H2531 C2544 0.960 . S
C2532 H2524 0.929 . S
C2532 C2533 1.377 . S
C2532 C2534 1.384 . S
C2533 C2532 1.377 . S
C2533 C2539 1.390 . S
C2534 H2525 0.930 . S
C2534 C2532 1.384 . S
C2534 C2535 1.372 . S
C2535 C2534 1.372 . S
C2535 C2536 1.400 . S
C2535 C2540 1.490 . S
C2536 H2526 0.930 . S
C2536 C2535 1.400 . S
C2536 C2539 1.386 . S
H2537 C2553 0.930 . S
H2538 C2554 0.931 . S
C2539 H2527 0.929 . S
C2539 C2533 1.390 . S
C2539 C2536 1.386 . S
C2540 C2535 1.490 . S
C2540 C2542 1.395 . S
C2540 C2543 1.403 . S
H2541 C2547 0.930 . S
C2542 H2528 0.930 . S
C2542 C2540 1.395 . S
C2542 C2545 1.403 . S
C2543 C2540 1.403 . S
C2543 C2544 1.524 . S
C2543 C2547 1.400 . S
C2544 H2529 0.960 . S
C2544 H2530 0.960 . S
C2544 H2531 0.960 . S
C2544 C2543 1.524 . S
C2545 C2542 1.403 . S
C2545 C2546 1.392 . S
C2545 C2549 1.495 . S
C2546 C2545 1.392 . S
C2546 C2547 1.385 . S
C2546 C2548 1.478 . S
C2547 H2541 0.930 . S
C2547 C2543 1.400 . S
C2547 C2546 1.385 . S
C2548 C2546 1.478 . S
C2548 C2550 1.381 . S
C2548 C2554 1.383 . S
C2549 C2545 1.495 . S
C2549 H2555 0.959 . S
C2549 H2556 0.961 . S
C2549 H2557 0.960 . S
C2550 C2548 1.381 . S
C2550 C2551 1.394 . S
C2550 H2558 0.930 . S
C2551 C2550 1.394 . S
C2551 C2552 1.383 . S
C2551 H2559 0.929 . S
C2552 C2551 1.383 . S
C2552 C2553 1.377 . S
C2553 H2537 0.930 . S
C2553 C2552 1.377 . S
C2553 C2554 1.379 . S
C2554 H2538 0.931 . S
C2554 C2548 1.383 . S
C2554 C2553 1.379 . S
H2555 C2549 0.959 . S
H2556 C2549 0.961 . S
H2557 C2549 0.960 . S
H2558 C2550 0.930 . S
H2559 C2551 0.929 . S
H2560 C2568 0.929 . S
H2561 C2570 0.930 . S
H2562 C2572 0.930 . S
H2563 C2575 0.929 . S
H2564 C2578 0.930 . S
H2565 C2580 0.960 . S
H2566 C2580 0.960 . S
H2567 C2580 0.960 . S
C2568 H2560 0.929 . S
C2568 C2569 1.377 . S
C2568 C2570 1.384 . S
C2569 C2568 1.377 . S
C2569 C2575 1.390 . S
C2570 H2561 0.930 . S
C2570 C2568 1.384 . S
C2570 C2571 1.372 . S
C2571 C2570 1.372 . S
C2571 C2572 1.400 . S
C2571 C2576 1.490 . S
C2572 H2562 0.930 . S
C2572 C2571 1.400 . S
C2572 C2575 1.386 . S
H2573 C2589 0.930 . S
H2574 C2590 0.931 . S
C2575 H2563 0.929 . S
C2575 C2569 1.390 . S
C2575 C2572 1.386 . S
C2576 C2571 1.490 . S
C2576 C2578 1.395 . S
C2576 C2579 1.403 . S
H2577 C2583 0.930 . S
C2578 H2564 0.930 . S
C2578 C2576 1.395 . S
C2578 C2581 1.403 . S
C2579 C2576 1.403 . S
C2579 C2580 1.524 . S
C2579 C2583 1.400 . S
C2580 H2565 0.960 . S
C2580 H2566 0.960 . S
C2580 H2567 0.960 . S
C2580 C2579 1.524 . S
C2581 C2578 1.403 . S
C2581 C2582 1.392 . S
C2581 C2585 1.495 . S
C2582 C2581 1.392 . S
C2582 C2583 1.385 . S
C2582 C2584 1.478 . S
C2583 H2577 0.930 . S
C2583 C2579 1.400 . S
C2583 C2582 1.385 . S
C2584 C2582 1.478 . S
C2584 C2586 1.381 . S
C2584 C2590 1.383 . S
C2585 C2581 1.495 . S
C2585 H2591 0.959 . S
C2585 H2592 0.961 . S
C2585 H2593 0.960 . S
C2586 C2584 1.381 . S
C2586 C2587 1.394 . S
C2586 H2594 0.930 . S
C2587 C2586 1.394 . S
C2587 C2588 1.383 . S
C2587 H2595 0.929 . S
C2588 C2587 1.383 . S
C2588 C2589 1.377 . S
C2589 H2573 0.930 . S
C2589 C2588 1.377 . S
C2589 C2590 1.379 . S
C2590 H2574 0.931 . S
C2590 C2584 1.383 . S
C2590 C2589 1.379 . S
H2591 C2585 0.959 . S
H2592 C2585 0.961 . S
H2593 C2585 0.960 . S
H2594 C2586 0.930 . S
H2595 C2587 0.929 . S
H2596 C2604 0.929 . S
H2597 C2606 0.930 . S
H2598 C2608 0.930 . S
H2599 C2611 0.929 . S
H2600 C2614 0.930 . S
H2601 C2616 0.960 . S
H2602 C2616 0.960 . S
H2603 C2616 0.960 . S
C2604 H2596 0.929 . S
C2604 C2605 1.377 . S
C2604 C2606 1.384 . S
C2605 C2604 1.377 . S
C2605 C2611 1.390 . S
C2606 H2597 0.930 . S
C2606 C2604 1.384 . S
C2606 C2607 1.372 . S
C2607 C2606 1.372 . S
C2607 C2608 1.400 . S
C2607 C2612 1.490 . S
C2608 H2598 0.930 . S
C2608 C2607 1.400 . S
C2608 C2611 1.386 . S
H2609 C2625 0.930 . S
H2610 C2626 0.931 . S
C2611 H2599 0.929 . S
C2611 C2605 1.390 . S
C2611 C2608 1.386 . S
C2612 C2607 1.490 . S
C2612 C2614 1.395 . S
C2612 C2615 1.403 . S
H2613 C2619 0.930 . S
C2614 H2600 0.930 . S
C2614 C2612 1.395 . S
C2614 C2617 1.398 1_556 S
C2615 C2612 1.403 . S
C2615 C2616 1.524 . S
C2615 C2619 1.400 1_556 S
C2616 H2601 0.960 . S
C2616 H2602 0.960 . S
C2616 H2603 0.960 . S
C2616 C2615 1.524 . S
C2617 C2614 1.398 1_554 S
C2617 C2618 1.395 . S
C2617 C2621 1.498 . S
C2618 C2617 1.395 . S
C2618 C2619 1.385 . S
C2618 C2620 1.478 . S
C2619 H2613 0.930 . S
C2619 C2615 1.400 1_554 S
C2619 C2618 1.385 . S
C2620 C2618 1.478 . S
C2620 C2622 1.381 . S
C2620 C2626 1.383 . S
C2621 C2617 1.498 . S
C2621 H2627 0.958 . S
C2621 H2628 0.961 . S
C2621 H2629 0.960 . S
C2622 C2620 1.381 . S
C2622 C2623 1.394 . S
C2622 H2630 0.930 . S
C2623 C2622 1.394 . S
C2623 C2624 1.383 . S
C2623 H2631 0.929 . S
C2624 C2623 1.383 . S
C2624 C2625 1.377 . S
C2625 H2609 0.930 . S
C2625 C2624 1.377 . S
C2625 C2626 1.379 . S
C2626 H2610 0.931 . S
C2626 C2620 1.383 . S
C2626 C2625 1.379 . S
H2627 C2621 0.958 . S
H2628 C2621 0.961 . S
H2629 C2621 0.960 . S
H2630 C2622 0.930 . S
H2631 C2623 0.929 . S
H2632 C2640 0.929 . S
H2633 C2642 0.930 . S
H2634 C2644 0.930 . S
H2635 C2647 0.929 . S
H2636 C2650 0.930 . S
H2637 C2652 0.960 . S
H2638 C2652 0.960 . S
H2639 C2652 0.960 . S
C2640 H2632 0.929 . S
C2640 C2641 1.377 . S
C2640 C2642 1.384 . S
C2641 C2640 1.377 . S
C2641 C2647 1.390 . S
C2642 H2633 0.930 . S
C2642 C2640 1.384 . S
C2642 C2643 1.372 . S
C2643 C2642 1.372 . S
C2643 C2644 1.400 . S
C2643 C2648 1.490 . S
C2644 H2634 0.930 . S
C2644 C2643 1.400 . S
C2644 C2647 1.386 . S
H2645 C2661 0.930 . S
H2646 C2662 0.931 . S
C2647 H2635 0.929 . S
C2647 C2641 1.390 . S
C2647 C2644 1.386 . S
C2648 C2643 1.490 . S
C2648 C2650 1.395 . S
C2648 C2651 1.403 . S
H2649 C2655 0.930 . S
C2650 H2636 0.930 . S
C2650 C2648 1.395 . S
C2650 C2653 1.403 . S
C2651 C2648 1.403 . S
C2651 C2652 1.524 . S
C2651 C2655 1.400 . S
C2652 H2637 0.960 . S
C2652 H2638 0.960 . S
C2652 H2639 0.960 . S
C2652 C2651 1.524 . S
C2653 C2650 1.403 . S
C2653 C2654 1.392 . S
C2653 C2657 1.495 . S
C2654 C2653 1.392 . S
C2654 C2655 1.385 . S
C2654 C2656 1.478 . S
C2655 H2649 0.930 . S
C2655 C2651 1.400 . S
C2655 C2654 1.385 . S
C2656 C2654 1.478 . S
C2656 C2658 1.381 . S
C2656 C2662 1.383 . S
C2657 C2653 1.495 . S
C2657 H2663 0.959 . S
C2657 H2664 0.961 . S
C2657 H2665 0.960 . S
C2658 C2656 1.381 . S
C2658 C2659 1.394 . S
C2658 H2666 0.930 . S
C2659 C2658 1.394 . S
C2659 C2660 1.383 . S
C2659 H2667 0.929 . S
C2660 C2659 1.383 . S
C2660 C2661 1.377 . S
C2661 H2645 0.930 . S
C2661 C2660 1.377 . S
C2661 C2662 1.379 . S
C2662 H2646 0.931 . S
C2662 C2656 1.383 . S
C2662 C2661 1.379 . S
H2663 C2657 0.959 . S
H2664 C2657 0.961 . S
H2665 C2657 0.960 . S
H2666 C2658 0.930 . S
H2667 C2659 0.929 . S
H2668 C2676 0.929 . S
H2669 C2678 0.930 . S
H2670 C2680 0.930 . S
H2671 C2683 0.929 . S
H2672 C2686 0.930 . S
H2673 C2688 0.960 . S
H2674 C2688 0.960 . S
H2675 C2688 0.960 . S
C2676 H2668 0.929 . S
C2676 C2677 1.377 . S
C2676 C2678 1.384 . S
C2677 C2676 1.377 . S
C2677 C2683 1.390 . S
C2678 H2669 0.930 . S
C2678 C2676 1.384 . S
C2678 C2679 1.372 . S
C2679 C2678 1.372 . S
C2679 C2680 1.400 . S
C2679 C2684 1.490 . S
C2680 H2670 0.930 . S
C2680 C2679 1.400 . S
C2680 C2683 1.386 . S
H2681 C2697 0.930 . S
H2682 C2698 0.931 . S
C2683 H2671 0.929 . S
C2683 C2677 1.390 . S
C2683 C2680 1.386 . S
C2684 C2679 1.490 . S
C2684 C2686 1.395 . S
C2684 C2687 1.403 . S
H2685 C2691 0.930 . S
C2686 H2672 0.930 . S
C2686 C2684 1.395 . S
C2686 C2689 1.403 . S
C2687 C2684 1.403 . S
C2687 C2688 1.524 . S
C2687 C2691 1.400 . S
C2688 H2673 0.960 . S
C2688 H2674 0.960 . S
C2688 H2675 0.960 . S
C2688 C2687 1.524 . S
C2689 C2686 1.403 . S
C2689 C2690 1.392 . S
C2689 C2693 1.495 . S
C2690 C2689 1.392 . S
C2690 C2691 1.385 . S
C2690 C2692 1.478 . S
C2691 H2685 0.930 . S
C2691 C2687 1.400 . S
C2691 C2690 1.385 . S
C2692 C2690 1.478 . S
C2692 C2694 1.381 . S
C2692 C2698 1.383 . S
C2693 C2689 1.495 . S
C2693 H2699 0.959 . S
C2693 H2700 0.961 . S
C2693 H2701 0.960 . S
C2694 C2692 1.381 . S
C2694 C2695 1.394 . S
C2694 H2702 0.930 . S
C2695 C2694 1.394 . S
C2695 C2696 1.383 . S
C2695 H2703 0.929 . S
C2696 C2695 1.383 . S
C2696 C2697 1.377 . S
C2697 H2681 0.930 . S
C2697 C2696 1.377 . S
C2697 C2698 1.379 . S
C2698 H2682 0.931 . S
C2698 C2692 1.383 . S
C2698 C2697 1.379 . S
H2699 C2693 0.959 . S
H2700 C2693 0.961 . S
H2701 C2693 0.960 . S
H2702 C2694 0.930 . S
H2703 C2695 0.929 . S
H2704 C2712 0.929 . S
H2705 C2714 0.930 . S
H2706 C2716 0.930 . S
H2707 C2719 0.929 . S
H2708 C2722 0.930 . S
H2709 C2724 0.960 . S
H2710 C2724 0.960 . S
H2711 C2724 0.960 . S
C2712 H2704 0.929 . S
C2712 C2713 1.377 . S
C2712 C2714 1.384 . S
C2713 C2712 1.377 . S
C2713 C2719 1.390 . S
C2714 H2705 0.930 . S
C2714 C2712 1.384 . S
C2714 C2715 1.372 . S
C2715 C2714 1.372 . S
C2715 C2716 1.400 . S
C2715 C2720 1.490 . S
C2716 H2706 0.930 . S
C2716 C2715 1.400 . S
C2716 C2719 1.386 . S
H2717 C2733 0.930 . S
H2718 C2734 0.931 . S
C2719 H2707 0.929 . S
C2719 C2713 1.390 . S
C2719 C2716 1.386 . S
C2720 C2715 1.490 . S
C2720 C2722 1.395 . S
C2720 C2723 1.403 . S
H2721 C2727 0.930 . S
C2722 H2708 0.930 . S
C2722 C2720 1.395 . S
C2722 C2725 1.403 . S
C2723 C2720 1.403 . S
C2723 C2724 1.524 . S
C2723 C2727 1.400 . S
C2724 H2709 0.960 . S
C2724 H2710 0.960 . S
C2724 H2711 0.960 . S
C2724 C2723 1.524 . S
C2725 C2722 1.403 . S
C2725 C2726 1.392 . S
C2725 C2729 1.495 . S
C2726 C2725 1.392 . S
C2726 C2727 1.385 . S
C2726 C2728 1.478 . S
C2727 H2721 0.930 . S
C2727 C2723 1.400 . S
C2727 C2726 1.385 . S
C2728 C2726 1.478 . S
C2728 C2730 1.381 . S
C2728 C2734 1.383 . S
C2729 C2725 1.495 . S
C2729 H2735 0.959 . S
C2729 H2736 0.961 . S
C2729 H2737 0.960 . S
C2730 C2728 1.381 . S
C2730 C2731 1.394 . S
C2730 H2738 0.930 . S
C2731 C2730 1.394 . S
C2731 C2732 1.383 . S
C2731 H2739 0.929 . S
C2732 C2731 1.383 . S
C2732 C2733 1.377 . S
C2733 H2717 0.930 . S
C2733 C2732 1.377 . S
C2733 C2734 1.379 . S
C2734 H2718 0.931 . S
C2734 C2728 1.383 . S
C2734 C2733 1.379 . S
H2735 C2729 0.959 . S
H2736 C2729 0.961 . S
H2737 C2729 0.960 . S
H2738 C2730 0.930 . S
H2739 C2731 0.929 . S
H2740 C2748 0.929 . S
H2741 C2750 0.930 . S
H2742 C2752 0.930 . S
H2743 C2755 0.929 . S
H2744 C2758 0.930 . S
H2745 C2760 0.960 . S
H2746 C2760 0.960 . S
H2747 C2760 0.960 . S
C2748 H2740 0.929 . S
C2748 C2749 1.377 . S
C2748 C2750 1.384 . S
C2749 C2748 1.377 . S
C2749 C2755 1.390 . S
C2750 H2741 0.930 . S
C2750 C2748 1.384 . S
C2750 C2751 1.372 . S
C2751 C2750 1.372 . S
C2751 C2752 1.400 . S
C2751 C2756 1.490 . S
C2752 H2742 0.930 . S
C2752 C2751 1.400 . S
C2752 C2755 1.386 . S
H2753 C2769 0.930 . S
H2754 C2770 0.931 . S
C2755 H2743 0.929 . S
C2755 C2749 1.390 . S
C2755 C2752 1.386 . S
C2756 C2751 1.490 . S
C2756 C2758 1.395 . S
C2756 C2759 1.403 . S
H2757 C2763 0.930 . S
C2758 H2744 0.930 . S
C2758 C2756 1.395 . S
C2758 C2761 1.403 . S
C2759 C2756 1.403 . S
C2759 C2760 1.524 . S
C2759 C2763 1.400 . S
C2760 H2745 0.960 . S
C2760 H2746 0.960 . S
C2760 H2747 0.960 . S
C2760 C2759 1.524 . S
C2761 C2758 1.403 . S
C2761 C2762 1.392 . S
C2761 C2765 1.495 . S
C2762 C2761 1.392 . S
C2762 C2763 1.385 . S
C2762 C2764 1.478 . S
C2763 H2757 0.930 . S
C2763 C2759 1.400 . S
C2763 C2762 1.385 . S
C2764 C2762 1.478 . S
C2764 C2766 1.381 . S
C2764 C2770 1.383 . S
C2765 C2761 1.495 . S
C2765 H2771 0.959 . S
C2765 H2772 0.961 . S
C2765 H2773 0.960 . S
C2766 C2764 1.381 . S
C2766 C2767 1.394 . S
C2766 H2774 0.930 . S
C2767 C2766 1.394 . S
C2767 C2768 1.383 . S
C2767 H2775 0.929 . S
C2768 C2767 1.383 . S
C2768 C2769 1.377 . S
C2769 H2753 0.930 . S
C2769 C2768 1.377 . S
C2769 C2770 1.379 . S
C2770 H2754 0.931 . S
C2770 C2764 1.383 . S
C2770 C2769 1.379 . S
H2771 C2765 0.959 . S
H2772 C2765 0.961 . S
H2773 C2765 0.960 . S
H2774 C2766 0.930 . S
H2775 C2767 0.929 . S
H2776 C2784 0.929 . S
H2777 C2786 0.930 . S
H2778 C2788 0.930 . S
H2779 C2791 0.929 . S
H2780 C2794 0.930 . S
H2781 C2796 0.960 . S
H2782 C2796 0.960 . S
H2783 C2796 0.960 . S
C2784 H2776 0.929 . S
C2784 C2785 1.377 . S
C2784 C2786 1.384 . S
C2785 C2784 1.377 . S
C2785 C2791 1.390 . S
C2786 H2777 0.930 . S
C2786 C2784 1.384 . S
C2786 C2787 1.372 . S
C2787 C2786 1.372 . S
C2787 C2788 1.400 . S
C2787 C2792 1.490 . S
C2788 H2778 0.930 . S
C2788 C2787 1.400 . S
C2788 C2791 1.386 . S
H2789 C2805 0.930 . S
H2790 C2806 0.931 . S
C2791 H2779 0.929 . S
C2791 C2785 1.390 . S
C2791 C2788 1.386 . S
C2792 C2787 1.490 . S
C2792 C2794 1.395 . S
C2792 C2795 1.403 . S
H2793 C2799 0.930 . S
C2794 H2780 0.930 . S
C2794 C2792 1.395 . S
C2794 C2797 1.403 . S
C2795 C2792 1.403 . S
C2795 C2796 1.524 . S
C2795 C2799 1.400 . S
C2796 H2781 0.960 . S
C2796 H2782 0.960 . S
C2796 H2783 0.960 . S
C2796 C2795 1.524 . S
C2797 C2794 1.403 . S
C2797 C2798 1.392 . S
C2797 C2801 1.495 . S
C2798 C2797 1.392 . S
C2798 C2799 1.385 . S
C2798 C2800 1.478 . S
C2799 H2793 0.930 . S
C2799 C2795 1.400 . S
C2799 C2798 1.385 . S
C2800 C2798 1.478 . S
C2800 C2802 1.381 . S
C2800 C2806 1.383 . S
C2801 C2797 1.495 . S
C2801 H2807 0.959 . S
C2801 H2808 0.961 . S
C2801 H2809 0.960 . S
C2802 C2800 1.381 . S
C2802 C2803 1.394 . S
C2802 H2810 0.930 . S
C2803 C2802 1.394 . S
C2803 C2804 1.383 . S
C2803 H2811 0.929 . S
C2804 C2803 1.383 . S
C2804 C2805 1.377 . S
C2805 H2789 0.930 . S
C2805 C2804 1.377 . S
C2805 C2806 1.379 . S
C2806 H2790 0.931 . S
C2806 C2800 1.383 . S
C2806 C2805 1.379 . S
H2807 C2801 0.959 . S
H2808 C2801 0.961 . S
H2809 C2801 0.960 . S
H2810 C2802 0.930 . S
H2811 C2803 0.929 . S
H2812 C2820 0.929 . S
H2813 C2822 0.930 . S
H2814 C2824 0.930 . S
H2815 C2827 0.929 . S
H2816 C2830 0.930 . S
H2817 C2832 0.960 . S
H2818 C2832 0.960 . S
H2819 C2832 0.960 . S
C2820 H2812 0.929 . S
C2820 C2821 1.377 . S
C2820 C2822 1.384 . S
C2821 C2820 1.377 . S
C2821 C2827 1.390 . S
C2822 H2813 0.930 . S
C2822 C2820 1.384 . S
C2822 C2823 1.372 . S
C2823 C2822 1.372 . S
C2823 C2824 1.400 . S
C2823 C2828 1.490 . S
C2824 H2814 0.930 . S
C2824 C2823 1.400 . S
C2824 C2827 1.386 . S
H2825 C2841 0.930 . S
H2826 C2842 0.931 . S
C2827 H2815 0.929 . S
C2827 C2821 1.390 . S
C2827 C2824 1.386 . S
C2828 C2823 1.490 . S
C2828 C2830 1.395 . S
C2828 C2831 1.403 . S
H2829 C2835 0.930 . S
C2830 H2816 0.930 . S
C2830 C2828 1.395 . S
C2830 C2833 1.403 . S
C2831 C2828 1.403 . S
C2831 C2832 1.524 . S
C2831 C2835 1.400 . S
C2832 H2817 0.960 . S
C2832 H2818 0.960 . S
C2832 H2819 0.960 . S
C2832 C2831 1.524 . S
C2833 C2830 1.403 . S
C2833 C2834 1.392 . S
C2833 C2837 1.495 . S
C2834 C2833 1.392 . S
C2834 C2835 1.385 . S
C2834 C2836 1.478 . S
C2835 H2829 0.930 . S
C2835 C2831 1.400 . S
C2835 C2834 1.385 . S
C2836 C2834 1.478 . S
C2836 C2838 1.381 . S
C2836 C2842 1.383 . S
C2837 C2833 1.495 . S
C2837 H2843 0.959 . S
C2837 H2844 0.961 . S
C2837 H2845 0.960 . S
C2838 C2836 1.381 . S
C2838 C2839 1.394 . S
C2838 H2846 0.930 . S
C2839 C2838 1.394 . S
C2839 C2840 1.383 . S
C2839 H2847 0.929 . S
C2840 C2839 1.383 . S
C2840 C2841 1.377 . S
C2841 H2825 0.930 . S
C2841 C2840 1.377 . S
C2841 C2842 1.379 . S
C2842 H2826 0.931 . S
C2842 C2836 1.383 . S
C2842 C2841 1.379 . S
H2843 C2837 0.959 . S
H2844 C2837 0.961 . S
H2845 C2837 0.960 . S
H2846 C2838 0.930 . S
H2847 C2839 0.929 . S
H2848 C2856 0.929 . S
H2849 C2858 0.930 . S
H2850 C2860 0.930 . S
H2851 C2863 0.929 . S
H2852 C2866 0.930 . S
H2853 C2868 0.960 . S
H2854 C2868 0.960 . S
H2855 C2868 0.960 . S
C2856 H2848 0.929 . S
C2856 C2857 1.377 . S
C2856 C2858 1.384 . S
C2857 C2856 1.377 . S
C2857 C2863 1.390 . S
C2858 H2849 0.930 . S
C2858 C2856 1.384 . S
C2858 C2859 1.372 . S
C2859 C2858 1.372 . S
C2859 C2860 1.400 . S
C2859 C2864 1.490 . S
C2860 H2850 0.930 . S
C2860 C2859 1.400 . S
C2860 C2863 1.386 . S
H2861 C2877 0.930 . S
H2862 C2878 0.931 . S
C2863 H2851 0.929 . S
C2863 C2857 1.390 . S
C2863 C2860 1.386 . S
C2864 C2859 1.490 . S
C2864 C2866 1.395 . S
C2864 C2867 1.403 . S
H2865 C2871 0.930 . S
C2866 H2852 0.930 . S
C2866 C2864 1.395 . S
C2866 C2869 1.403 . S
C2867 C2864 1.403 . S
C2867 C2868 1.524 . S
C2867 C2871 1.400 . S
C2868 H2853 0.960 . S
C2868 H2854 0.960 . S
C2868 H2855 0.960 . S
C2868 C2867 1.524 . S
C2869 C2866 1.403 . S
C2869 C2870 1.392 . S
C2869 C2873 1.495 . S
C2870 C2869 1.392 . S
C2870 C2871 1.385 . S
C2870 C2872 1.478 . S
C2871 H2865 0.930 . S
C2871 C2867 1.400 . S
C2871 C2870 1.385 . S
C2872 C2870 1.478 . S
C2872 C2874 1.381 . S
C2872 C2878 1.383 . S
C2873 C2869 1.495 . S
C2873 H2879 0.959 . S
C2873 H2880 0.961 . S
C2873 H2881 0.960 . S
C2874 C2872 1.381 . S
C2874 C2875 1.394 . S
C2874 H2882 0.930 . S
C2875 C2874 1.394 . S
C2875 C2876 1.383 . S
C2875 H2883 0.929 . S
C2876 C2875 1.383 . S
C2876 C2877 1.377 . S
C2877 H2861 0.930 . S
C2877 C2876 1.377 . S
C2877 C2878 1.379 . S
C2878 H2862 0.931 . S
C2878 C2872 1.383 . S
C2878 C2877 1.379 . S
H2879 C2873 0.959 . S
H2880 C2873 0.961 . S
H2881 C2873 0.960 . S
H2882 C2874 0.930 . S
H2883 C2875 0.929 . S
H2884 C2892 0.929 . S
H2885 C2894 0.930 . S
H2886 C2896 0.930 . S
H2887 C2899 0.929 . S
H2888 C2902 0.930 . S
H2889 C2904 0.960 . S
H2890 C2904 0.960 . S
H2891 C2904 0.960 . S
C2892 H2884 0.929 . S
C2892 C2893 1.377 . S
C2892 C2894 1.384 . S
C2893 C2892 1.377 . S
C2893 C2899 1.390 . S
C2894 H2885 0.930 . S
C2894 C2892 1.384 . S
C2894 C2895 1.372 . S
C2895 C2894 1.372 . S
C2895 C2896 1.400 . S
C2895 C2900 1.490 . S
C2896 H2886 0.930 . S
C2896 C2895 1.400 . S
C2896 C2899 1.386 . S
H2897 C2913 0.930 . S
H2898 C2914 0.931 . S
C2899 H2887 0.929 . S
C2899 C2893 1.390 . S
C2899 C2896 1.386 . S
C2900 C2895 1.490 . S
C2900 C2902 1.395 . S
C2900 C2903 1.403 . S
H2901 C2907 0.930 . S
C2902 H2888 0.930 . S
C2902 C2900 1.395 . S
C2902 C2905 1.403 . S
C2903 C2900 1.403 . S
C2903 C2904 1.524 . S
C2903 C2907 1.400 . S
C2904 H2889 0.960 . S
C2904 H2890 0.960 . S
C2904 H2891 0.960 . S
C2904 C2903 1.524 . S
C2905 C2902 1.403 . S
C2905 C2906 1.392 . S
C2905 C2909 1.495 . S
C2906 C2905 1.392 . S
C2906 C2907 1.385 . S
C2906 C2908 1.478 . S
C2907 H2901 0.930 . S
C2907 C2903 1.400 . S
C2907 C2906 1.385 . S
C2908 C2906 1.478 . S
C2908 C2910 1.381 . S
C2908 C2914 1.383 . S
C2909 C2905 1.495 . S
C2909 H2915 0.959 . S
C2909 H2916 0.961 . S
C2909 H2917 0.960 . S
C2910 C2908 1.381 . S
C2910 C2911 1.394 . S
C2910 H2918 0.930 . S
C2911 C2910 1.394 . S
C2911 C2912 1.383 . S
C2911 H2919 0.929 . S
C2912 C2911 1.383 . S
C2912 C2913 1.377 . S
C2913 H2897 0.930 . S
C2913 C2912 1.377 . S
C2913 C2914 1.379 . S
C2914 H2898 0.931 . S
C2914 C2908 1.383 . S
C2914 C2913 1.379 . S
H2915 C2909 0.959 . S
H2916 C2909 0.961 . S
H2917 C2909 0.960 . S
H2918 C2910 0.930 . S
H2919 C2911 0.929 . S
H2920 C2928 0.929 . S
H2921 C2930 0.930 . S
H2922 C2932 0.930 . S
H2923 C2935 0.929 . S
H2924 C2938 0.930 . S
H2925 C2940 0.960 . S
H2926 C2940 0.960 . S
H2927 C2940 0.960 . S
C2928 H2920 0.929 . S
C2928 C2929 1.377 . S
C2928 C2930 1.384 . S
C2929 C2928 1.377 . S
C2929 C2935 1.390 . S
C2930 H2921 0.930 . S
C2930 C2928 1.384 . S
C2930 C2931 1.372 . S
C2931 C2930 1.372 . S
C2931 C2932 1.400 . S
C2931 C2936 1.490 . S
C2932 H2922 0.930 . S
C2932 C2931 1.400 . S
C2932 C2935 1.386 . S
H2933 C2949 0.930 . S
H2934 C2950 0.931 . S
C2935 H2923 0.929 . S
C2935 C2929 1.390 . S
C2935 C2932 1.386 . S
C2936 C2931 1.490 . S
C2936 C2938 1.395 . S
C2936 C2939 1.403 . S
H2937 C2943 0.930 . S
C2938 H2924 0.930 . S
C2938 C2936 1.395 . S
C2938 C2941 1.403 . S
C2939 C2936 1.403 . S
C2939 C2940 1.524 . S
C2939 C2943 1.400 . S
C2940 H2925 0.960 . S
C2940 H2926 0.960 . S
C2940 H2927 0.960 . S
C2940 C2939 1.524 . S
C2941 C2938 1.403 . S
C2941 C2942 1.392 . S
C2941 C2945 1.495 . S
C2942 C2941 1.392 . S
C2942 C2943 1.385 . S
C2942 C2944 1.478 . S
C2943 H2937 0.930 . S
C2943 C2939 1.400 . S
C2943 C2942 1.385 . S
C2944 C2942 1.478 . S
C2944 C2946 1.381 . S
C2944 C2950 1.383 . S
C2945 C2941 1.495 . S
C2945 H2951 0.959 . S
C2945 H2952 0.961 . S
C2945 H2953 0.960 . S
C2946 C2944 1.381 . S
C2946 C2947 1.394 . S
C2946 H2954 0.930 . S
C2947 C2946 1.394 . S
C2947 C2948 1.383 . S
C2947 H2955 0.929 . S
C2948 C2947 1.383 . S
C2948 C2949 1.377 . S
C2949 H2933 0.930 . S
C2949 C2948 1.377 . S
C2949 C2950 1.379 . S
C2950 H2934 0.931 . S
C2950 C2944 1.383 . S
C2950 C2949 1.379 . S
H2951 C2945 0.959 . S
H2952 C2945 0.961 . S
H2953 C2945 0.960 . S
H2954 C2946 0.930 . S
H2955 C2947 0.929 . S
H2956 C2964 0.929 . S
H2957 C2966 0.930 . S
H2958 C2968 0.930 . S
H2959 C2971 0.929 . S
H2960 C2974 0.930 . S
H2961 C2976 0.960 . S
H2962 C2976 0.960 . S
H2963 C2976 0.960 . S
C2964 H2956 0.929 . S
C2964 C2965 1.377 . S
C2964 C2966 1.384 . S
C2965 C2964 1.377 . S
C2965 C2971 1.390 . S
C2966 H2957 0.930 . S
C2966 C2964 1.384 . S
C2966 C2967 1.372 . S
C2967 C2966 1.372 . S
C2967 C2968 1.400 . S
C2967 C2972 1.490 . S
C2968 H2958 0.930 . S
C2968 C2967 1.400 . S
C2968 C2971 1.386 . S
H2969 C2985 0.930 . S
H2970 C2986 0.931 . S
C2971 H2959 0.929 . S
C2971 C2965 1.390 . S
C2971 C2968 1.386 . S
C2972 C2967 1.490 . S
C2972 C2974 1.395 . S
C2972 C2975 1.403 . S
H2973 C2979 0.930 . S
C2974 H2960 0.930 . S
C2974 C2972 1.395 . S
C2974 C2977 1.403 . S
C2975 C2972 1.403 . S
C2975 C2976 1.524 . S
C2975 C2979 1.400 . S
C2976 H2961 0.960 . S
C2976 H2962 0.960 . S
C2976 H2963 0.960 . S
C2976 C2975 1.524 . S
C2977 C2974 1.403 . S
C2977 C2978 1.392 . S
C2977 C2981 1.495 . S
C2978 C2977 1.392 . S
C2978 C2979 1.385 . S
C2978 C2980 1.478 . S
C2979 H2973 0.930 . S
C2979 C2975 1.400 . S
C2979 C2978 1.385 . S
C2980 C2978 1.478 . S
C2980 C2982 1.381 . S
C2980 C2986 1.383 . S
C2981 C2977 1.495 . S
C2981 H2987 0.959 . S
C2981 H2988 0.961 . S
C2981 H2989 0.960 . S
C2982 C2980 1.381 . S
C2982 C2983 1.394 . S
C2982 H2990 0.930 . S
C2983 C2982 1.394 . S
C2983 C2984 1.383 . S
C2983 H2991 0.929 . S
C2984 C2983 1.383 . S
C2984 C2985 1.377 . S
C2985 H2969 0.930 . S
C2985 C2984 1.377 . S
C2985 C2986 1.379 . S
C2986 H2970 0.931 . S
C2986 C2980 1.383 . S
C2986 C2985 1.379 . S
H2987 C2981 0.959 . S
H2988 C2981 0.961 . S
H2989 C2981 0.960 . S
H2990 C2982 0.930 . S
H2991 C2983 0.929 . S
H2992 C3000 0.929 . S
H2993 C3002 0.930 . S
H2994 C3004 0.930 . S
H2995 C3007 0.929 . S
H2996 C3010 0.930 . S
H2997 C3012 0.960 . S
H2998 C3012 0.960 . S
H2999 C3012 0.960 . S
C3000 H2992 0.929 . S
C3000 C3001 1.377 . S
C3000 C3002 1.384 . S
C3001 C3000 1.377 . S
C3001 C3007 1.390 . S
C3002 H2993 0.930 . S
C3002 C3000 1.384 . S
C3002 C3003 1.372 . S
C3003 C3002 1.372 . S
C3003 C3004 1.400 . S
C3003 C3008 1.490 . S
C3004 H2994 0.930 . S
C3004 C3003 1.400 . S
C3004 C3007 1.386 . S
H3005 C3021 0.930 . S
H3006 C3022 0.931 . S
C3007 H2995 0.929 . S
C3007 C3001 1.390 . S
C3007 C3004 1.386 . S
C3008 C3003 1.490 . S
C3008 C3010 1.395 . S
C3008 C3011 1.403 . S
H3009 C3015 0.930 . S
C3010 H2996 0.930 . S
C3010 C3008 1.395 . S
C3010 C3013 1.403 . S
C3011 C3008 1.403 . S
C3011 C3012 1.524 . S
C3011 C3015 1.400 . S
C3012 H2997 0.960 . S
C3012 H2998 0.960 . S
C3012 H2999 0.960 . S
C3012 C3011 1.524 . S
C3013 C3010 1.403 . S
C3013 C3014 1.392 . S
C3013 C3017 1.495 . S
C3014 C3013 1.392 . S
C3014 C3015 1.385 . S
C3014 C3016 1.478 . S
C3015 H3009 0.930 . S
C3015 C3011 1.400 . S
C3015 C3014 1.385 . S
C3016 C3014 1.478 . S
C3016 C3018 1.381 . S
C3016 C3022 1.383 . S
C3017 C3013 1.495 . S
C3017 H3023 0.959 . S
C3017 H3024 0.961 . S
C3017 H3025 0.960 . S
C3018 C3016 1.381 . S
C3018 C3019 1.394 . S
C3018 H3026 0.930 . S
C3019 C3018 1.394 . S
C3019 C3020 1.383 . S
C3019 H3027 0.929 . S
C3020 C3019 1.383 . S
C3020 C3021 1.377 . S
C3021 H3005 0.930 . S
C3021 C3020 1.377 . S
C3021 C3022 1.379 . S
C3022 H3006 0.931 . S
C3022 C3016 1.383 . S
C3022 C3021 1.379 . S
H3023 C3017 0.959 . S
H3024 C3017 0.961 . S
H3025 C3017 0.960 . S
H3026 C3018 0.930 . S
H3027 C3019 0.929 . S
H3028 C3036 0.929 . S
H3029 C3038 0.930 . S
H3030 C3040 0.930 . S
H3031 C3043 0.929 . S
H3032 C3046 0.930 . S
H3033 C3048 0.960 . S
H3034 C3048 0.960 . S
H3035 C3048 0.960 . S
C3036 H3028 0.929 . S
C3036 C3037 1.377 . S
C3036 C3038 1.384 . S
C3037 C3036 1.377 . S
C3037 C3043 1.390 . S
C3038 H3029 0.930 . S
C3038 C3036 1.384 . S
C3038 C3039 1.372 . S
C3039 C3038 1.372 . S
C3039 C3040 1.400 . S
C3039 C3044 1.490 . S
C3040 H3030 0.930 . S
C3040 C3039 1.400 . S
C3040 C3043 1.386 . S
H3041 C3057 0.930 . S
H3042 C3058 0.931 . S
C3043 H3031 0.929 . S
C3043 C3037 1.390 . S
C3043 C3040 1.386 . S
C3044 C3039 1.490 . S
C3044 C3046 1.395 . S
C3044 C3047 1.403 . S
H3045 C3051 0.930 . S
C3046 H3032 0.930 . S
C3046 C3044 1.395 . S
C3046 C3049 1.403 . S
C3047 C3044 1.403 . S
C3047 C3048 1.524 . S
C3047 C3051 1.400 . S
C3048 H3033 0.960 . S
C3048 H3034 0.960 . S
C3048 H3035 0.960 . S
C3048 C3047 1.524 . S
C3049 C3046 1.403 . S
C3049 C3050 1.392 . S
C3049 C3053 1.495 . S
C3050 C3049 1.392 . S
C3050 C3051 1.385 . S
C3050 C3052 1.478 . S
C3051 H3045 0.930 . S
C3051 C3047 1.400 . S
C3051 C3050 1.385 . S
C3052 C3050 1.478 . S
C3052 C3054 1.381 . S
C3052 C3058 1.383 . S
C3053 C3049 1.495 . S
C3053 H3059 0.959 . S
C3053 H3060 0.961 . S
C3053 H3061 0.960 . S
C3054 C3052 1.381 . S
C3054 C3055 1.394 . S
C3054 H3062 0.930 . S
C3055 C3054 1.394 . S
C3055 C3056 1.383 . S
C3055 H3063 0.929 . S
C3056 C3055 1.383 . S
C3056 C3057 1.377 . S
C3057 H3041 0.930 . S
C3057 C3056 1.377 . S
C3057 C3058 1.379 . S
C3058 H3042 0.931 . S
C3058 C3052 1.383 . S
C3058 C3057 1.379 . S
H3059 C3053 0.959 . S
H3060 C3053 0.961 . S
H3061 C3053 0.960 . S
H3062 C3054 0.930 . S
H3063 C3055 0.929 . S
H3064 C3072 0.929 . S
H3065 C3074 0.930 . S
H3066 C3076 0.930 . S
H3067 C3079 0.929 . S
H3068 C3082 0.930 . S
H3069 C3084 0.960 . S
H3070 C3084 0.960 . S
H3071 C3084 0.960 . S
C3072 H3064 0.929 . S
C3072 C3073 1.377 . S
C3072 C3074 1.384 . S
C3073 C3072 1.377 . S
C3073 C3079 1.390 . S
C3074 H3065 0.930 . S
C3074 C3072 1.384 . S
C3074 C3075 1.372 . S
C3075 C3074 1.372 . S
C3075 C3076 1.400 . S
C3075 C3080 1.490 . S
C3076 H3066 0.930 . S
C3076 C3075 1.400 . S
C3076 C3079 1.386 . S
H3077 C3093 0.930 . S
H3078 C3094 0.931 . S
C3079 H3067 0.929 . S
C3079 C3073 1.390 . S
C3079 C3076 1.386 . S
C3080 C3075 1.490 . S
C3080 C3082 1.395 . S
C3080 C3083 1.403 . S
H3081 C3087 0.930 . S
C3082 H3068 0.930 . S
C3082 C3080 1.395 . S
C3082 C3085 1.403 . S
C3083 C3080 1.403 . S
C3083 C3084 1.524 . S
C3083 C3087 1.400 . S
C3084 H3069 0.960 . S
C3084 H3070 0.960 . S
C3084 H3071 0.960 . S
C3084 C3083 1.524 . S
C3085 C3082 1.403 . S
C3085 C3086 1.392 . S
C3085 C3089 1.495 . S
C3086 C3085 1.392 . S
C3086 C3087 1.385 . S
C3086 C3088 1.478 . S
C3087 H3081 0.930 . S
C3087 C3083 1.400 . S
C3087 C3086 1.385 . S
C3088 C3086 1.478 . S
C3088 C3090 1.381 . S
C3088 C3094 1.383 . S
C3089 C3085 1.495 . S
C3089 H3095 0.959 . S
C3089 H3096 0.961 . S
C3089 H3097 0.960 . S
C3090 C3088 1.381 . S
C3090 C3091 1.394 . S
C3090 H3098 0.930 . S
C3091 C3090 1.394 . S
C3091 C3092 1.383 . S
C3091 H3099 0.929 . S
C3092 C3091 1.383 . S
C3092 C3093 1.377 . S
C3093 H3077 0.930 . S
C3093 C3092 1.377 . S
C3093 C3094 1.379 . S
C3094 H3078 0.931 . S
C3094 C3088 1.383 . S
C3094 C3093 1.379 . S
H3095 C3089 0.959 . S
H3096 C3089 0.961 . S
H3097 C3089 0.960 . S
H3098 C3090 0.930 . S
H3099 C3091 0.929 . S
H3100 C3108 0.929 . S
H3101 C3110 0.930 . S
H3102 C3112 0.930 . S
H3103 C3115 0.929 . S
H3104 C3118 0.930 . S
H3105 C3120 0.960 . S
H3106 C3120 0.960 . S
H3107 C3120 0.960 . S
C3108 H3100 0.929 . S
C3108 C3109 1.377 . S
C3108 C3110 1.384 . S
C3109 C3108 1.377 . S
C3109 C3115 1.390 . S
C3110 H3101 0.930 . S
C3110 C3108 1.384 . S
C3110 C3111 1.372 . S
C3111 C3110 1.372 . S
C3111 C3112 1.400 . S
C3111 C3116 1.490 . S
C3112 H3102 0.930 . S
C3112 C3111 1.400 . S
C3112 C3115 1.386 . S
H3113 C3129 0.930 . S
H3114 C3130 0.931 . S
C3115 H3103 0.929 . S
C3115 C3109 1.390 . S
C3115 C3112 1.386 . S
C3116 C3111 1.490 . S
C3116 C3118 1.395 . S
C3116 C3119 1.403 . S
H3117 C3123 0.930 . S
C3118 H3104 0.930 . S
C3118 C3116 1.395 . S
C3118 C3121 1.403 . S
C3119 C3116 1.403 . S
C3119 C3120 1.524 . S
C3119 C3123 1.400 . S
C3120 H3105 0.960 . S
C3120 H3106 0.960 . S
C3120 H3107 0.960 . S
C3120 C3119 1.524 . S
C3121 C3118 1.403 . S
C3121 C3122 1.392 . S
C3121 C3125 1.495 . S
C3122 C3121 1.392 . S
C3122 C3123 1.385 . S
C3122 C3124 1.478 . S
C3123 H3117 0.930 . S
C3123 C3119 1.400 . S
C3123 C3122 1.385 . S
C3124 C3122 1.478 . S
C3124 C3126 1.381 . S
C3124 C3130 1.383 . S
C3125 C3121 1.495 . S
C3125 H3131 0.959 . S
C3125 H3132 0.961 . S
C3125 H3133 0.960 . S
C3126 C3124 1.381 . S
C3126 C3127 1.394 . S
C3126 H3134 0.930 . S
C3127 C3126 1.394 . S
C3127 C3128 1.383 . S
C3127 H3135 0.929 . S
C3128 C3127 1.383 . S
C3128 C3129 1.377 . S
C3129 H3113 0.930 . S
C3129 C3128 1.377 . S
C3129 C3130 1.379 . S
C3130 H3114 0.931 . S
C3130 C3124 1.383 . S
C3130 C3129 1.379 . S
H3131 C3125 0.959 . S
H3132 C3125 0.961 . S
H3133 C3125 0.960 . S
H3134 C3126 0.930 . S
H3135 C3127 0.929 . S
H3136 C3144 0.929 . S
H3137 C3146 0.930 . S
H3138 C3148 0.930 . S
H3139 C3151 0.929 . S
H3140 C3154 0.930 . S
H3141 C3156 0.960 . S
H3142 C3156 0.960 . S
H3143 C3156 0.960 . S
C3144 H3136 0.929 . S
C3144 C3145 1.377 . S
C3144 C3146 1.384 . S
C3145 C3144 1.377 . S
C3145 C3151 1.390 . S
C3146 H3137 0.930 . S
C3146 C3144 1.384 . S
C3146 C3147 1.372 . S
C3147 C3146 1.372 . S
C3147 C3148 1.400 . S
C3147 C3152 1.490 . S
C3148 H3138 0.930 . S
C3148 C3147 1.400 . S
C3148 C3151 1.386 . S
H3149 C3165 0.930 . S
H3150 C3166 0.931 . S
C3151 H3139 0.929 . S
C3151 C3145 1.390 . S
C3151 C3148 1.386 . S
C3152 C3147 1.490 . S
C3152 C3154 1.395 . S
C3152 C3155 1.403 . S
H3153 C3159 0.930 . S
C3154 H3140 0.930 . S
C3154 C3152 1.395 . S
C3154 C3157 1.403 . S
C3155 C3152 1.403 . S
C3155 C3156 1.524 . S
C3155 C3159 1.400 . S
C3156 H3141 0.960 . S
C3156 H3142 0.960 . S
C3156 H3143 0.960 . S
C3156 C3155 1.524 . S
C3157 C3154 1.403 . S
C3157 C3158 1.392 . S
C3157 C3161 1.495 . S
C3158 C3157 1.392 . S
C3158 C3159 1.385 . S
C3158 C3160 1.478 . S
C3159 H3153 0.930 . S
C3159 C3155 1.400 . S
C3159 C3158 1.385 . S
C3160 C3158 1.478 . S
C3160 C3162 1.381 . S
C3160 C3166 1.383 . S
C3161 C3157 1.495 . S
C3161 H3167 0.959 . S
C3161 H3168 0.961 . S
C3161 H3169 0.960 . S
C3162 C3160 1.381 . S
C3162 C3163 1.394 . S
C3162 H3170 0.930 . S
C3163 C3162 1.394 . S
C3163 C3164 1.383 . S
C3163 H3171 0.929 . S
C3164 C3163 1.383 . S
C3164 C3165 1.377 . S
C3165 H3149 0.930 . S
C3165 C3164 1.377 . S
C3165 C3166 1.379 . S
C3166 H3150 0.931 . S
C3166 C3160 1.383 . S
C3166 C3165 1.379 . S
H3167 C3161 0.959 . S
H3168 C3161 0.961 . S
H3169 C3161 0.960 . S
H3170 C3162 0.930 . S
H3171 C3163 0.929 . S
H3172 C3180 0.929 . S
H3173 C3182 0.930 . S
H3174 C3184 0.930 . S
H3175 C3187 0.929 . S
H3176 C3190 0.930 . S
H3177 C3192 0.960 . S
H3178 C3192 0.960 . S
H3179 C3192 0.960 . S
C3180 H3172 0.929 . S
C3180 C3181 1.377 . S
C3180 C3182 1.384 . S
C3181 C3180 1.377 . S
C3181 C3187 1.390 . S
C3182 H3173 0.930 . S
C3182 C3180 1.384 . S
C3182 C3183 1.372 . S
C3183 C3182 1.372 . S
C3183 C3184 1.400 . S
C3183 C3188 1.490 . S
C3184 H3174 0.930 . S
C3184 C3183 1.400 . S
C3184 C3187 1.386 . S
H3185 C3201 0.930 . S
H3186 C3202 0.931 . S
C3187 H3175 0.929 . S
C3187 C3181 1.390 . S
C3187 C3184 1.386 . S
C3188 C3183 1.490 . S
C3188 C3190 1.395 . S
C3188 C3191 1.403 . S
H3189 C3195 0.930 . S
C3190 H3176 0.930 . S
C3190 C3188 1.395 . S
C3190 C3193 1.403 . S
C3191 C3188 1.403 . S
C3191 C3192 1.524 . S
C3191 C3195 1.400 . S
C3192 H3177 0.960 . S
C3192 H3178 0.960 . S
C3192 H3179 0.960 . S
C3192 C3191 1.524 . S
C3193 C3190 1.403 . S
C3193 C3194 1.392 . S
C3193 C3197 1.495 . S
C3194 C3193 1.392 . S
C3194 C3195 1.385 . S
C3194 C3196 1.478 . S
C3195 H3189 0.930 . S
C3195 C3191 1.400 . S
C3195 C3194 1.385 . S
C3196 C3194 1.478 . S
C3196 C3198 1.381 . S
C3196 C3202 1.383 . S
C3197 C3193 1.495 . S
C3197 H3203 0.959 . S
C3197 H3204 0.961 . S
C3197 H3205 0.960 . S
C3198 C3196 1.381 . S
C3198 C3199 1.394 . S
C3198 H3206 0.930 . S
C3199 C3198 1.394 . S
C3199 C3200 1.383 . S
C3199 H3207 0.929 . S
C3200 C3199 1.383 . S
C3200 C3201 1.377 . S
C3201 H3185 0.930 . S
C3201 C3200 1.377 . S
C3201 C3202 1.379 . S
C3202 H3186 0.931 . S
C3202 C3196 1.383 . S
C3202 C3201 1.379 . S
H3203 C3197 0.959 . S
H3204 C3197 0.961 . S
H3205 C3197 0.960 . S
H3206 C3198 0.930 . S
H3207 C3199 0.929 . S
H3208 C3216 0.929 . S
H3209 C3218 0.930 . S
H3210 C3220 0.930 . S
H3211 C3223 0.929 . S
H3212 C3226 0.930 . S
H3213 C3228 0.960 . S
H3214 C3228 0.960 . S
H3215 C3228 0.960 . S
C3216 H3208 0.929 . S
C3216 C3217 1.377 . S
C3216 C3218 1.384 . S
C3217 C3216 1.377 . S
C3217 C3223 1.390 . S
C3218 H3209 0.930 . S
C3218 C3216 1.384 . S
C3218 C3219 1.372 . S
C3219 C3218 1.372 . S
C3219 C3220 1.400 . S
C3219 C3224 1.490 . S
C3220 H3210 0.930 . S
C3220 C3219 1.400 . S
C3220 C3223 1.386 . S
H3221 C3237 0.930 . S
H3222 C3238 0.931 . S
C3223 H3211 0.929 . S
C3223 C3217 1.390 . S
C3223 C3220 1.386 . S
C3224 C3219 1.490 . S
C3224 C3226 1.395 . S
C3224 C3227 1.403 . S
H3225 C3231 0.930 . S
C3226 H3212 0.930 . S
C3226 C3224 1.395 . S
C3226 C3229 1.403 . S
C3227 C3224 1.403 . S
C3227 C3228 1.524 . S
C3227 C3231 1.400 . S
C3228 H3213 0.960 . S
C3228 H3214 0.960 . S
C3228 H3215 0.960 . S
C3228 C3227 1.524 . S
C3229 C3226 1.403 . S
C3229 C3230 1.392 . S
C3229 C3233 1.495 . S
C3230 C3229 1.392 . S
C3230 C3231 1.385 . S
C3230 C3232 1.478 . S
C3231 H3225 0.930 . S
C3231 C3227 1.400 . S
C3231 C3230 1.385 . S
C3232 C3230 1.478 . S
C3232 C3234 1.381 . S
C3232 C3238 1.383 . S
C3233 C3229 1.495 . S
C3233 H3239 0.959 . S
C3233 H3240 0.961 . S
C3233 H3241 0.960 . S
C3234 C3232 1.381 . S
C3234 C3235 1.394 . S
C3234 H3242 0.930 . S
C3235 C3234 1.394 . S
C3235 C3236 1.383 . S
C3235 H3243 0.929 . S
C3236 C3235 1.383 . S
C3236 C3237 1.377 . S
C3237 H3221 0.930 . S
C3237 C3236 1.377 . S
C3237 C3238 1.379 . S
C3238 H3222 0.931 . S
C3238 C3232 1.383 . S
C3238 C3237 1.379 . S
H3239 C3233 0.959 . S
H3240 C3233 0.961 . S
H3241 C3233 0.960 . S
H3242 C3234 0.930 . S
H3243 C3235 0.929 . S
H3244 C3252 0.929 . S
H3245 C3254 0.930 . S
H3246 C3256 0.930 . S
H3247 C3259 0.929 . S
H3248 C3262 0.930 . S
H3249 C3264 0.960 . S
H3250 C3264 0.960 . S
H3251 C3264 0.960 . S
C3252 H3244 0.929 . S
C3252 C3253 1.377 . S
C3252 C3254 1.384 . S
C3253 C3252 1.377 . S
C3253 C3259 1.390 . S
C3254 H3245 0.930 . S
C3254 C3252 1.384 . S
C3254 C3255 1.372 . S
C3255 C3254 1.372 . S
C3255 C3256 1.400 . S
C3255 C3260 1.490 . S
C3256 H3246 0.930 . S
C3256 C3255 1.400 . S
C3256 C3259 1.386 . S
H3257 C3273 0.930 . S
H3258 C3274 0.931 . S
C3259 H3247 0.929 . S
C3259 C3253 1.390 . S
C3259 C3256 1.386 . S
C3260 C3255 1.490 . S
C3260 C3262 1.395 . S
C3260 C3263 1.403 . S
H3261 C3267 0.930 . S
C3262 H3248 0.930 . S
C3262 C3260 1.395 . S
C3262 C3265 1.403 . S
C3263 C3260 1.403 . S
C3263 C3264 1.524 . S
C3263 C3267 1.400 1_655 S
C3264 H3249 0.960 . S
C3264 H3250 0.960 . S
C3264 H3251 0.960 . S
C3264 C3263 1.524 . S
C3265 C3262 1.403 . S
C3265 C3266 1.392 1_655 S
C3265 C3269 1.495 1_655 S
C3266 C3265 1.392 1_455 S
C3266 C3267 1.385 . S
C3266 C3268 1.478 . S
C3267 H3261 0.930 . S
C3267 C3263 1.400 1_455 S
C3267 C3266 1.385 . S
C3268 C3266 1.478 . S
C3268 C3270 1.381 . S
C3268 C3274 1.383 . S
C3269 C3265 1.495 1_455 S
C3269 H3275 0.959 1_455 S
C3269 H3276 0.961 . S
C3269 H3277 0.960 . S
C3270 C3268 1.381 . S
C3270 C3271 1.394 . S
C3270 H3278 0.930 . S
C3271 C3270 1.394 . S
C3271 C3272 1.383 . S
C3271 H3279 0.929 . S
C3272 C3271 1.383 . S
C3272 C3273 1.377 . S
C3273 H3257 0.930 . S
C3273 C3272 1.377 . S
C3273 C3274 1.379 . S
C3274 H3258 0.931 . S
C3274 C3268 1.383 . S
C3274 C3273 1.379 . S
H3275 C3269 0.959 1_655 S
H3276 C3269 0.961 . S
H3277 C3269 0.960 . S
H3278 C3270 0.930 . S
H3279 C3271 0.929 . S
H3280 C3288 0.929 . S
H3281 C3290 0.930 . S
H3282 C3292 0.930 . S
H3283 C3295 0.929 . S
H3284 C3298 0.930 . S
H3285 C3300 0.960 . S
H3286 C3300 0.960 . S
H3287 C3300 0.960 . S
C3288 H3280 0.929 . S
C3288 C3289 1.377 . S
C3288 C3290 1.384 . S
C3289 C3288 1.377 . S
C3289 C3295 1.390 . S
C3290 H3281 0.930 . S
C3290 C3288 1.384 . S
C3290 C3291 1.372 . S
C3291 C3290 1.372 . S
C3291 C3292 1.400 . S
C3291 C3296 1.490 . S
C3292 H3282 0.930 . S
C3292 C3291 1.400 . S
C3292 C3295 1.386 . S
H3293 C3309 0.930 . S
H3294 C3310 0.931 . S
C3295 H3283 0.929 . S
C3295 C3289 1.390 . S
C3295 C3292 1.386 . S
C3296 C3291 1.490 . S
C3296 C3298 1.395 . S
C3296 C3299 1.403 . S
H3297 C3303 0.930 . S
C3298 H3284 0.930 . S
C3298 C3296 1.395 . S
C3298 C3301 1.403 . S
C3299 C3296 1.403 . S
C3299 C3300 1.524 . S
C3299 C3303 1.400 . S
C3300 H3285 0.960 . S
C3300 H3286 0.960 . S
C3300 H3287 0.960 . S
C3300 C3299 1.524 . S
C3301 C3298 1.403 . S
C3301 C3302 1.392 . S
C3301 C3305 1.495 . S
C3302 C3301 1.392 . S
C3302 C3303 1.385 . S
C3302 C3304 1.478 . S
C3303 H3297 0.930 . S
C3303 C3299 1.400 . S
C3303 C3302 1.385 . S
C3304 C3302 1.478 . S
C3304 C3306 1.381 . S
C3304 C3310 1.383 . S
C3305 C3301 1.495 . S
C3305 H3311 0.959 . S
C3305 H3312 0.961 . S
C3305 H3313 0.960 . S
C3306 C3304 1.381 . S
C3306 C3307 1.394 . S
C3306 H3314 0.930 . S
C3307 C3306 1.394 . S
C3307 C3308 1.383 . S
C3307 H3315 0.929 . S
C3308 C3307 1.383 . S
C3308 C3309 1.377 . S
C3309 H3293 0.930 . S
C3309 C3308 1.377 . S
C3309 C3310 1.379 . S
C3310 H3294 0.931 . S
C3310 C3304 1.383 . S
C3310 C3309 1.379 . S
H3311 C3305 0.959 . S
H3312 C3305 0.961 . S
H3313 C3305 0.960 . S
H3314 C3306 0.930 . S
H3315 C3307 0.929 . S
H3316 C3324 0.929 . S
H3317 C3326 0.930 . S
H3318 C3328 0.930 . S
H3319 C3331 0.929 . S
H3320 C3334 0.930 . S
H3321 C3336 0.960 1_554 S
H3322 C3336 0.960 . S
H3323 C3336 0.960 . S
C3324 H3316 0.929 . S
C3324 C3325 1.377 . S
C3324 C3326 1.384 . S
C3325 C3324 1.377 . S
C3325 C3331 1.390 . S
C3326 H3317 0.930 . S
C3326 C3324 1.384 . S
C3326 C3327 1.372 . S
C3327 C3326 1.372 . S
C3327 C3328 1.400 . S
C3327 C3332 1.490 . S
C3328 H3318 0.930 . S
C3328 C3327 1.400 . S
C3328 C3331 1.386 . S
H3329 C3345 0.930 . S
H3330 C3346 0.931 . S
C3331 H3319 0.929 . S
C3331 C3325 1.390 . S
C3331 C3328 1.386 . S
C3332 C3327 1.490 . S
C3332 C3334 1.395 . S
C3332 C3335 1.403 . S
H3333 C3339 0.930 . S
C3334 H3320 0.930 . S
C3334 C3332 1.395 . S
C3334 C3337 1.403 . S
C3335 C3332 1.403 . S
C3335 C3336 1.524 . S
C3335 C3339 1.400 1_556 S
C3336 H3321 0.960 1_556 S
C3336 H3322 0.960 . S
C3336 H3323 0.960 . S
C3336 C3335 1.524 . S
C3337 C3334 1.403 . S
C3337 C3338 1.392 1_556 S
C3337 C3341 1.495 . S
C3338 C3337 1.392 1_554 S
C3338 C3339 1.385 . S
C3338 C3340 1.478 . S
C3339 H3333 0.930 . S
C3339 C3335 1.400 1_554 S
C3339 C3338 1.385 . S
C3340 C3338 1.478 . S
C3340 C3342 1.381 . S
C3340 C3346 1.383 . S
C3341 C3337 1.495 . S
C3341 H3347 0.959 . S
C3341 H3348 0.961 1_556 S
C3341 H3349 0.960 . S
C3342 C3340 1.381 . S
C3342 C3343 1.394 . S
C3342 H3350 0.930 . S
C3343 C3342 1.394 . S
C3343 C3344 1.383 . S
C3343 H3351 0.929 . S
C3344 C3343 1.383 . S
C3344 C3345 1.377 . S
C3345 H3329 0.930 . S
C3345 C3344 1.377 . S
C3345 C3346 1.379 . S
C3346 H3330 0.931 . S
C3346 C3340 1.383 . S
C3346 C3345 1.379 . S
H3347 C3341 0.959 . S
H3348 C3341 0.961 1_554 S
H3349 C3341 0.960 . S
H3350 C3342 0.930 . S
H3351 C3343 0.929 . S
H3352 C3360 0.929 . S
H3353 C3362 0.930 . S
H3354 C3364 0.930 . S
H3355 C3367 0.929 . S
H3356 C3370 0.930 . S
H3357 C3372 0.960 . S
H3358 C3372 0.960 . S
H3359 C3372 0.960 . S
C3360 H3352 0.929 . S
C3360 C3361 1.377 . S
C3360 C3362 1.384 . S
C3361 C3360 1.377 . S
C3361 C3367 1.390 . S
C3362 H3353 0.930 . S
C3362 C3360 1.384 . S
C3362 C3363 1.372 . S
C3363 C3362 1.372 . S
C3363 C3364 1.400 . S
C3363 C3368 1.490 . S
C3364 H3354 0.930 . S
C3364 C3363 1.400 . S
C3364 C3367 1.386 . S
H3365 C3381 0.930 . S
H3366 C3382 0.931 . S
C3367 H3355 0.929 . S
C3367 C3361 1.390 . S
C3367 C3364 1.386 . S
C3368 C3363 1.490 . S
C3368 C3370 1.395 . S
C3368 C3371 1.403 . S
H3369 C3375 0.930 . S
C3370 H3356 0.930 . S
C3370 C3368 1.395 . S
C3370 C3373 1.403 . S
C3371 C3368 1.403 . S
C3371 C3372 1.524 . S
C3371 C3375 1.400 . S
C3372 H3357 0.960 . S
C3372 H3358 0.960 . S
C3372 H3359 0.960 . S
C3372 C3371 1.524 . S
C3373 C3370 1.403 . S
C3373 C3374 1.392 . S
C3373 C3377 1.495 . S
C3374 C3373 1.392 . S
C3374 C3375 1.385 . S
C3374 C3376 1.478 . S
C3375 H3369 0.930 . S
C3375 C3371 1.400 . S
C3375 C3374 1.385 . S
C3376 C3374 1.478 . S
C3376 C3378 1.381 . S
C3376 C3382 1.383 . S
C3377 C3373 1.495 . S
C3377 H3383 0.959 . S
C3377 H3384 0.961 . S
C3377 H3385 0.960 . S
C3378 C3376 1.381 . S
C3378 C3379 1.394 . S
C3378 H3386 0.930 . S
C3379 C3378 1.394 . S
C3379 C3380 1.383 . S
C3379 H3387 0.929 . S
C3380 C3379 1.383 . S
C3380 C3381 1.377 . S
C3381 H3365 0.930 . S
C3381 C3380 1.377 . S
C3381 C3382 1.379 . S
C3382 H3366 0.931 . S
C3382 C3376 1.383 . S
C3382 C3381 1.379 . S
H3383 C3377 0.959 . S
H3384 C3377 0.961 . S
H3385 C3377 0.960 . S
H3386 C3378 0.930 . S
H3387 C3379 0.929 . S
H3388 C3396 0.929 . S
H3389 C3398 0.930 . S
H3390 C3400 0.930 . S
H3391 C3403 0.929 . S
H3392 C3406 0.930 . S
H3393 C3408 0.960 . S
H3394 C3408 0.960 . S
H3395 C3408 0.960 . S
C3396 H3388 0.929 . S
C3396 C3397 1.377 . S
C3396 C3398 1.384 . S
C3397 C3396 1.377 . S
C3397 C3403 1.390 . S
C3398 H3389 0.930 . S
C3398 C3396 1.384 . S
C3398 C3399 1.372 . S
C3399 C3398 1.372 . S
C3399 C3400 1.400 . S
C3399 C3404 1.490 . S
C3400 H3390 0.930 . S
C3400 C3399 1.400 . S
C3400 C3403 1.386 . S
H3401 C3417 0.930 . S
H3402 C3418 0.931 . S
C3403 H3391 0.929 . S
C3403 C3397 1.390 . S
C3403 C3400 1.386 . S
C3404 C3399 1.490 . S
C3404 C3406 1.395 . S
C3404 C3407 1.403 . S
H3405 C3411 0.930 . S
C3406 H3392 0.930 . S
C3406 C3404 1.395 . S
C3406 C3409 1.403 . S
C3407 C3404 1.403 . S
C3407 C3408 1.524 . S
C3407 C3411 1.400 . S
C3408 H3393 0.960 . S
C3408 H3394 0.960 . S
C3408 H3395 0.960 . S
C3408 C3407 1.524 . S
C3409 C3406 1.403 . S
C3409 C3410 1.392 . S
C3409 C3413 1.495 . S
C3410 C3409 1.392 . S
C3410 C3411 1.385 . S
C3410 C3412 1.478 . S
C3411 H3405 0.930 . S
C3411 C3407 1.400 . S
C3411 C3410 1.385 . S
C3412 C3410 1.478 . S
C3412 C3414 1.381 . S
C3412 C3418 1.383 . S
C3413 C3409 1.495 . S
C3413 H3419 0.959 . S
C3413 H3420 0.961 . S
C3413 H3421 0.960 . S
C3414 C3412 1.381 . S
C3414 C3415 1.394 . S
C3414 H3422 0.930 . S
C3415 C3414 1.394 . S
C3415 C3416 1.383 . S
C3415 H3423 0.929 . S
C3416 C3415 1.383 . S
C3416 C3417 1.377 . S
C3417 H3401 0.930 . S
C3417 C3416 1.377 . S
C3417 C3418 1.379 . S
C3418 H3402 0.931 . S
C3418 C3412 1.383 . S
C3418 C3417 1.379 . S
H3419 C3413 0.959 . S
H3420 C3413 0.961 . S
H3421 C3413 0.960 . S
H3422 C3414 0.930 . S
H3423 C3415 0.929 . S
H3424 C3432 0.929 . S
H3425 C3434 0.930 . S
H3426 C3436 0.930 . S
H3427 C3439 0.929 . S
H3428 C3442 0.930 . S
H3429 C3444 0.960 . S
H3430 C3444 0.960 . S
H3431 C3444 0.960 . S
C3432 H3424 0.929 . S
C3432 C3433 1.377 . S
C3432 C3434 1.384 . S
C3433 C3432 1.377 . S
C3433 C3439 1.390 . S
C3434 H3425 0.930 . S
C3434 C3432 1.384 . S
C3434 C3435 1.372 . S
C3435 C3434 1.372 . S
C3435 C3436 1.400 . S
C3435 C3440 1.490 . S
C3436 H3426 0.930 . S
C3436 C3435 1.400 . S
C3436 C3439 1.386 . S
H3437 C3453 0.930 . S
H3438 C3454 0.931 . S
C3439 H3427 0.929 . S
C3439 C3433 1.390 . S
C3439 C3436 1.386 . S
C3440 C3435 1.490 . S
C3440 C3442 1.395 . S
C3440 C3443 1.403 . S
H3441 C3447 0.930 . S
C3442 H3428 0.930 . S
C3442 C3440 1.395 . S
C3442 C3445 1.403 . S
C3443 C3440 1.403 . S
C3443 C3444 1.524 . S
C3443 C3447 1.400 . S
C3444 H3429 0.960 . S
C3444 H3430 0.960 . S
C3444 H3431 0.960 . S
C3444 C3443 1.524 . S
C3445 C3442 1.403 . S
C3445 C3446 1.392 . S
C3445 C3449 1.495 . S
C3446 C3445 1.392 . S
C3446 C3447 1.385 . S
C3446 C3448 1.478 . S
C3447 H3441 0.930 . S
C3447 C3443 1.400 . S
C3447 C3446 1.385 . S
C3448 C3446 1.478 . S
C3448 C3450 1.381 . S
C3448 C3454 1.383 . S
C3449 C3445 1.495 . S
C3449 H3455 0.959 . S
C3449 H3456 0.961 . S
C3449 H3457 0.960 . S
C3450 C3448 1.381 . S
C3450 C3451 1.394 . S
C3450 H3458 0.930 . S
C3451 C3450 1.394 . S
C3451 C3452 1.383 . S
C3451 H3459 0.929 . S
C3452 C3451 1.383 . S
C3452 C3453 1.377 . S
C3453 H3437 0.930 . S
C3453 C3452 1.377 . S
C3453 C3454 1.379 . S
C3454 H3438 0.931 . S
C3454 C3448 1.383 . S
C3454 C3453 1.379 . S
H3455 C3449 0.959 . S
H3456 C3449 0.961 . S
H3457 C3449 0.960 . S
H3458 C3450 0.930 . S
H3459 C3451 0.929 . S
H3460 C3468 0.929 . S
H3461 C3470 0.930 . S
H3462 C3472 0.930 . S
H3463 C3475 0.929 . S
H3464 C3478 0.930 . S
H3465 C3480 0.960 . S
H3466 C3480 0.960 . S
H3467 C3480 0.960 . S
C3468 H3460 0.929 . S
C3468 C3469 1.377 . S
C3468 C3470 1.384 . S
C3469 C3468 1.377 . S
C3469 C3475 1.390 . S
C3470 H3461 0.930 . S
C3470 C3468 1.384 . S
C3470 C3471 1.372 . S
C3471 C3470 1.372 . S
C3471 C3472 1.400 . S
C3471 C3476 1.490 . S
C3472 H3462 0.930 . S
C3472 C3471 1.400 . S
C3472 C3475 1.386 . S
H3473 C3489 0.930 . S
H3474 C3490 0.931 . S
C3475 H3463 0.929 . S
C3475 C3469 1.390 . S
C3475 C3472 1.386 . S
C3476 C3471 1.490 . S
C3476 C3478 1.395 . S
C3476 C3479 1.403 . S
H3477 C3483 0.930 . S
C3478 H3464 0.930 . S
C3478 C3476 1.395 . S
C3478 C3481 1.403 . S
C3479 C3476 1.403 . S
C3479 C3480 1.524 . S
C3479 C3483 1.400 . S
C3480 H3465 0.960 . S
C3480 H3466 0.960 . S
C3480 H3467 0.960 . S
C3480 C3479 1.524 . S
C3481 C3478 1.403 . S
C3481 C3482 1.392 1_554 S
C3481 C3485 1.495 1_554 S
C3482 C3481 1.392 1_556 S
C3482 C3483 1.385 1_556 S
C3482 C3484 1.478 . S
C3483 H3477 0.930 . S
C3483 C3479 1.400 . S
C3483 C3482 1.385 1_554 S
C3484 C3482 1.478 . S
C3484 C3486 1.381 . S
C3484 C3490 1.383 . S
C3485 C3481 1.495 1_556 S
C3485 H3491 0.959 . S
C3485 H3492 0.961 . S
C3485 H3493 0.960 . S
C3486 C3484 1.381 . S
C3486 C3487 1.394 . S
C3486 H3494 0.930 . S
C3487 C3486 1.394 . S
C3487 C3488 1.383 . S
C3487 H3495 0.929 . S
C3488 C3487 1.383 . S
C3488 C3489 1.377 . S
C3489 H3473 0.930 . S
C3489 C3488 1.377 . S
C3489 C3490 1.379 . S
C3490 H3474 0.931 . S
C3490 C3484 1.383 . S
C3490 C3489 1.379 . S
H3491 C3485 0.959 . S
H3492 C3485 0.961 . S
H3493 C3485 0.960 . S
H3494 C3486 0.930 . S
H3495 C3487 0.929 . S
H3496 C3504 0.929 . S
H3497 C3506 0.930 . S
H3498 C3508 0.930 . S
H3499 C3511 0.929 . S
H3500 C3514 0.930 . S
H3501 C3516 0.960 . S
H3502 C3516 0.960 . S
H3503 C3516 0.960 . S
C3504 H3496 0.929 . S
C3504 C3505 1.377 . S
C3504 C3506 1.384 . S
C3505 C3504 1.377 . S
C3505 C3511 1.390 . S
C3506 H3497 0.930 . S
C3506 C3504 1.384 . S
C3506 C3507 1.372 . S
C3507 C3506 1.372 . S
C3507 C3508 1.400 . S
C3507 C3512 1.490 . S
C3508 H3498 0.930 . S
C3508 C3507 1.400 . S
C3508 C3511 1.386 . S
H3509 C3525 0.930 . S
H3510 C3526 0.931 . S
C3511 H3499 0.929 . S
C3511 C3505 1.390 . S
C3511 C3508 1.386 . S
C3512 C3507 1.490 . S
C3512 C3514 1.395 . S
C3512 C3515 1.403 . S
H3513 C3519 0.930 . S
C3514 H3500 0.930 . S
C3514 C3512 1.395 . S
C3514 C3517 1.403 . S
C3515 C3512 1.403 . S
C3515 C3516 1.524 . S
C3515 C3519 1.400 . S
C3516 H3501 0.960 . S
C3516 H3502 0.960 . S
C3516 H3503 0.960 . S
C3516 C3515 1.524 . S
C3517 C3514 1.403 . S
C3517 C3518 1.392 . S
C3517 C3521 1.495 . S
C3518 C3517 1.392 . S
C3518 C3519 1.385 . S
C3518 C3520 1.478 . S
C3519 H3513 0.930 . S
C3519 C3515 1.400 . S
C3519 C3518 1.385 . S
C3520 C3518 1.478 . S
C3520 C3522 1.381 . S
C3520 C3526 1.383 . S
C3521 C3517 1.495 . S
C3521 H3527 0.959 . S
C3521 H3528 0.961 . S
C3521 H3529 0.960 . S
C3522 C3520 1.381 . S
C3522 C3523 1.394 . S
C3522 H3530 0.930 . S
C3523 C3522 1.394 . S
C3523 C3524 1.383 . S
C3523 H3531 0.929 . S
C3524 C3523 1.383 . S
C3524 C3525 1.377 . S
C3525 H3509 0.930 . S
C3525 C3524 1.377 . S
C3525 C3526 1.379 . S
C3526 H3510 0.931 . S
C3526 C3520 1.383 . S
C3526 C3525 1.379 . S
H3527 C3521 0.959 . S
H3528 C3521 0.961 . S
H3529 C3521 0.960 . S
H3530 C3522 0.930 . S
H3531 C3523 0.929 . S
H3532 C3540 0.929 . S
H3533 C3542 0.930 . S
H3534 C3544 0.930 . S
H3535 C3547 0.929 . S
H3536 C3550 0.930 . S
H3537 C3552 0.960 . S
H3538 C3552 0.960 . S
H3539 C3552 0.960 . S
C3540 H3532 0.929 . S
C3540 C3541 1.377 . S
C3540 C3542 1.384 . S
C3541 C3540 1.377 . S
C3541 C3547 1.390 . S
C3542 H3533 0.930 . S
C3542 C3540 1.384 . S
C3542 C3543 1.372 . S
C3543 C3542 1.372 . S
C3543 C3544 1.400 . S
C3543 C3548 1.490 . S
C3544 H3534 0.930 . S
C3544 C3543 1.400 . S
C3544 C3547 1.386 . S
H3545 C3561 0.930 . S
H3546 C3562 0.931 . S
C3547 H3535 0.929 . S
C3547 C3541 1.390 . S
C3547 C3544 1.386 . S
C3548 C3543 1.490 . S
C3548 C3550 1.395 . S
C3548 C3551 1.403 . S
H3549 C3555 0.930 . S
C3550 H3536 0.930 . S
C3550 C3548 1.395 . S
C3550 C3553 1.403 . S
C3551 C3548 1.403 . S
C3551 C3552 1.524 . S
C3551 C3555 1.400 . S
C3552 H3537 0.960 . S
C3552 H3538 0.960 . S
C3552 H3539 0.960 . S
C3552 C3551 1.524 . S
C3553 C3550 1.403 . S
C3553 C3554 1.392 . S
C3553 C3557 1.495 . S
C3554 C3553 1.392 . S
C3554 C3555 1.385 . S
C3554 C3556 1.478 . S
C3555 H3549 0.930 . S
C3555 C3551 1.400 . S
C3555 C3554 1.385 . S
C3556 C3554 1.478 . S
C3556 C3558 1.381 . S
C3556 C3562 1.383 . S
C3557 C3553 1.495 . S
C3557 H3563 0.959 . S
C3557 H3564 0.961 . S
C3557 H3565 0.960 . S
C3558 C3556 1.381 . S
C3558 C3559 1.394 . S
C3558 H3566 0.930 . S
C3559 C3558 1.394 . S
C3559 C3560 1.383 . S
C3559 H3567 0.929 . S
C3560 C3559 1.383 . S
C3560 C3561 1.377 . S
C3561 H3545 0.930 . S
C3561 C3560 1.377 . S
C3561 C3562 1.379 . S
C3562 H3546 0.931 . S
C3562 C3556 1.383 . S
C3562 C3561 1.379 . S
H3563 C3557 0.959 . S
H3564 C3557 0.961 . S
H3565 C3557 0.960 . S
H3566 C3558 0.930 . S
H3567 C3559 0.929 . S
H3568 C3576 0.929 . S
H3569 C3578 0.930 . S
H3570 C3580 0.930 . S
H3571 C3583 0.929 . S
H3572 C3586 0.930 . S
H3573 C3588 0.960 . S
H3574 C3588 0.960 . S
H3575 C3588 0.960 . S
C3576 H3568 0.929 . S
C3576 C3577 1.377 . S
C3576 C3578 1.384 . S
C3577 C3576 1.377 . S
C3577 C3583 1.390 . S
C3578 H3569 0.930 . S
C3578 C3576 1.384 . S
C3578 C3579 1.372 . S
C3579 C3578 1.372 . S
C3579 C3580 1.400 . S
C3579 C3584 1.490 . S
C3580 H3570 0.930 . S
C3580 C3579 1.400 . S
C3580 C3583 1.386 . S
H3581 C3597 0.930 . S
H3582 C3598 0.931 . S
C3583 H3571 0.929 . S
C3583 C3577 1.390 . S
C3583 C3580 1.386 . S
C3584 C3579 1.490 . S
C3584 C3586 1.395 . S
C3584 C3587 1.403 . S
H3585 C3591 0.930 . S
C3586 H3572 0.930 . S
C3586 C3584 1.395 . S
C3586 C3589 1.403 . S
C3587 C3584 1.403 . S
C3587 C3588 1.524 . S
C3587 C3591 1.400 . S
C3588 H3573 0.960 . S
C3588 H3574 0.960 . S
C3588 H3575 0.960 . S
C3588 C3587 1.524 . S
C3589 C3586 1.403 . S
C3589 C3590 1.392 . S
C3589 C3593 1.495 . S
C3590 C3589 1.392 . S
C3590 C3591 1.385 . S
C3590 C3592 1.478 . S
C3591 H3585 0.930 . S
C3591 C3587 1.400 . S
C3591 C3590 1.385 . S
C3592 C3590 1.478 . S
C3592 C3594 1.381 . S
C3592 C3598 1.383 . S
C3593 C3589 1.495 . S
C3593 H3599 0.959 . S
C3593 H3600 0.961 . S
C3593 H3601 0.960 . S
C3594 C3592 1.381 . S
C3594 C3595 1.394 . S
C3594 H3602 0.930 . S
C3595 C3594 1.394 . S
C3595 C3596 1.383 . S
C3595 H3603 0.929 . S
C3596 C3595 1.383 . S
C3596 C3597 1.377 . S
C3597 H3581 0.930 . S
C3597 C3596 1.377 . S
C3597 C3598 1.379 . S
C3598 H3582 0.931 . S
C3598 C3592 1.383 . S
C3598 C3597 1.379 . S
H3599 C3593 0.959 . S
H3600 C3593 0.961 . S
H3601 C3593 0.960 . S
H3602 C3594 0.930 . S
H3603 C3595 0.929 . S
H3604 C3612 0.929 . S
H3605 C3614 0.930 . S
H3606 C3616 0.930 . S
H3607 C3619 0.929 1_556 S
H3608 C3622 0.930 . S
H3609 C3624 0.960 . S
H3610 C3624 0.960 . S
H3611 C3624 0.960 . S
C3612 H3604 0.929 . S
C3612 C3613 1.377 . S
C3612 C3614 1.384 . S
C3613 C3612 1.377 . S
C3613 C3619 1.390 . S
C3614 H3605 0.930 . S
C3614 C3612 1.384 . S
C3614 C3615 1.372 . S
C3615 C3614 1.372 . S
C3615 C3616 1.400 . S
C3615 C3620 1.490 . S
C3616 H3606 0.930 . S
C3616 C3615 1.400 . S
C3616 C3619 1.386 . S
H3617 C3633 0.930 . S
H3618 C3634 0.931 . S
C3619 H3607 0.929 1_554 S
C3619 C3613 1.390 . S
C3619 C3616 1.386 . S
C3620 C3615 1.490 . S
C3620 C3622 1.395 . S
C3620 C3623 1.403 . S
H3621 C3627 0.930 . S
C3622 H3608 0.930 . S
C3622 C3620 1.395 . S
C3622 C3625 1.403 . S
C3623 C3620 1.403 . S
C3623 C3624 1.524 . S
C3623 C3627 1.400 . S
C3624 H3609 0.960 . S
C3624 H3610 0.960 . S
C3624 H3611 0.960 . S
C3624 C3623 1.524 . S
C3625 C3622 1.403 . S
C3625 C3626 1.392 . S
C3625 C3629 1.495 . S
C3626 C3625 1.392 . S
C3626 C3627 1.385 . S
C3626 C3628 1.478 . S
C3627 H3621 0.930 . S
C3627 C3623 1.400 . S
C3627 C3626 1.385 . S
C3628 C3626 1.478 . S
C3628 C3630 1.381 . S
C3628 C3634 1.383 . S
C3629 C3625 1.495 . S
C3629 H3635 0.959 . S
C3629 H3636 0.961 . S
C3629 H3637 0.960 . S
C3630 C3628 1.381 . S
C3630 C3631 1.394 . S
C3630 H3638 0.930 . S
C3631 C3630 1.394 . S
C3631 C3632 1.383 . S
C3631 H3639 0.929 . S
C3632 C3631 1.383 . S
C3632 C3633 1.377 . S
C3633 H3617 0.930 . S
C3633 C3632 1.377 . S
C3633 C3634 1.379 . S
C3634 H3618 0.931 . S
C3634 C3628 1.383 . S
C3634 C3633 1.379 . S
H3635 C3629 0.959 . S
H3636 C3629 0.961 . S
H3637 C3629 0.960 . S
H3638 C3630 0.930 . S
H3639 C3631 0.929 . S
H3640 C3648 0.929 . S
H3641 C3650 0.930 . S
H3642 C3652 0.930 . S
H3643 C3655 0.929 . S
H3644 C3658 0.930 . S
H3645 C3660 0.960 . S
H3646 C3660 0.960 . S
H3647 C3660 0.960 . S
C3648 H3640 0.929 . S
C3648 C3649 1.377 . S
C3648 C3650 1.384 . S
C3649 C3648 1.377 . S
C3649 C3655 1.390 . S
C3650 H3641 0.930 . S
C3650 C3648 1.384 . S
C3650 C3651 1.372 . S
C3651 C3650 1.372 . S
C3651 C3652 1.400 . S
C3651 C3656 1.490 . S
C3652 H3642 0.930 . S
C3652 C3651 1.400 . S
C3652 C3655 1.386 . S
H3653 C3669 0.930 . S
H3654 C3670 0.931 . S
C3655 H3643 0.929 . S
C3655 C3649 1.390 . S
C3655 C3652 1.386 . S
C3656 C3651 1.490 . S
C3656 C3658 1.395 . S
C3656 C3659 1.403 . S
H3657 C3663 0.930 . S
C3658 H3644 0.930 . S
C3658 C3656 1.395 . S
C3658 C3661 1.403 . S
C3659 C3656 1.403 . S
C3659 C3660 1.524 . S
C3659 C3663 1.400 . S
C3660 H3645 0.960 . S
C3660 H3646 0.960 . S
C3660 H3647 0.960 . S
C3660 C3659 1.524 . S
C3661 C3658 1.403 . S
C3661 C3662 1.392 . S
C3661 C3665 1.495 . S
C3662 C3661 1.392 . S
C3662 C3663 1.385 . S
C3662 C3664 1.478 . S
C3663 H3657 0.930 . S
C3663 C3659 1.400 . S
C3663 C3662 1.385 . S
C3664 C3662 1.478 . S
C3664 C3666 1.381 . S
C3664 C3670 1.383 . S
C3665 C3661 1.495 . S
C3665 H3671 0.959 . S
C3665 H3672 0.961 . S
C3665 H3673 0.960 . S
C3666 C3664 1.381 . S
C3666 C3667 1.394 . S
C3666 H3674 0.930 . S
C3667 C3666 1.394 . S
C3667 C3668 1.383 . S
C3667 H3675 0.929 . S
C3668 C3667 1.383 . S
C3668 C3669 1.377 . S
C3669 H3653 0.930 . S
C3669 C3668 1.377 . S
C3669 C3670 1.379 . S
C3670 H3654 0.931 . S
C3670 C3664 1.383 . S
C3670 C3669 1.379 . S
H3671 C3665 0.959 . S
H3672 C3665 0.961 . S
H3673 C3665 0.960 . S
H3674 C3666 0.930 . S
H3675 C3667 0.929 . S
H3676 C3684 0.929 . S
H3677 C3686 0.930 . S
H3678 C3688 0.930 . S
H3679 C3691 0.929 . S
H3680 C3694 0.930 . S
H3681 C3696 0.960 . S
H3682 C3696 0.960 . S
H3683 C3696 0.960 . S
C3684 H3676 0.929 . S
C3684 C3685 1.377 . S
C3684 C3686 1.384 . S
C3685 C3684 1.377 . S
C3685 C3691 1.390 . S
C3686 H3677 0.930 . S
C3686 C3684 1.384 . S
C3686 C3687 1.372 . S
C3687 C3686 1.372 . S
C3687 C3688 1.400 . S
C3687 C3692 1.490 . S
C3688 H3678 0.930 . S
C3688 C3687 1.400 . S
C3688 C3691 1.386 . S
H3689 C3705 0.930 . S
H3690 C3706 0.931 . S
C3691 H3679 0.929 . S
C3691 C3685 1.390 . S
C3691 C3688 1.386 . S
C3692 C3687 1.490 . S
C3692 C3694 1.395 . S
C3692 C3695 1.403 . S
H3693 C3699 0.930 . S
C3694 H3680 0.930 . S
C3694 C3692 1.395 . S
C3694 C3697 1.403 . S
C3695 C3692 1.403 . S
C3695 C3696 1.524 . S
C3695 C3699 1.400 . S
C3696 H3681 0.960 . S
C3696 H3682 0.960 . S
C3696 H3683 0.960 . S
C3696 C3695 1.524 . S
C3697 C3694 1.403 . S
C3697 C3698 1.392 . S
C3697 C3701 1.495 . S
C3698 C3697 1.392 . S
C3698 C3699 1.385 . S
C3698 C3700 1.478 . S
C3699 H3693 0.930 . S
C3699 C3695 1.400 . S
C3699 C3698 1.385 . S
C3700 C3698 1.478 . S
C3700 C3702 1.381 . S
C3700 C3706 1.383 . S
C3701 C3697 1.495 . S
C3701 H3707 0.959 . S
C3701 H3708 0.961 . S
C3701 H3709 0.960 . S
C3702 C3700 1.381 . S
C3702 C3703 1.394 . S
C3702 H3710 0.930 . S
C3703 C3702 1.394 . S
C3703 C3704 1.383 . S
C3703 H3711 0.929 . S
C3704 C3703 1.383 . S
C3704 C3705 1.377 . S
C3705 H3689 0.930 . S
C3705 C3704 1.377 . S
C3705 C3706 1.379 . S
C3706 H3690 0.931 . S
C3706 C3700 1.383 . S
C3706 C3705 1.379 . S
H3707 C3701 0.959 . S
H3708 C3701 0.961 . S
H3709 C3701 0.960 . S
H3710 C3702 0.930 . S
H3711 C3703 0.929 . S
H3712 C3720 0.929 . S
H3713 C3722 0.930 . S
H3714 C3724 0.930 . S
H3715 C3727 0.929 . S
H3716 C3730 0.930 . S
H3717 C3732 0.960 . S
H3718 C3732 0.960 . S
H3719 C3732 0.960 . S
C3720 H3712 0.929 . S
C3720 C3721 1.377 . S
C3720 C3722 1.384 . S
C3721 C3720 1.377 . S
C3721 C3727 1.390 . S
C3722 H3713 0.930 . S
C3722 C3720 1.384 . S
C3722 C3723 1.372 . S
C3723 C3722 1.372 . S
C3723 C3724 1.400 . S
C3723 C3728 1.490 . S
C3724 H3714 0.930 . S
C3724 C3723 1.400 . S
C3724 C3727 1.386 . S
H3725 C3741 0.930 . S
H3726 C3742 0.931 . S
C3727 H3715 0.929 . S
C3727 C3721 1.390 . S
C3727 C3724 1.386 . S
C3728 C3723 1.490 . S
C3728 C3730 1.395 . S
C3728 C3731 1.403 . S
H3729 C3735 0.930 . S
C3730 H3716 0.930 . S
C3730 C3728 1.395 . S
C3730 C3733 1.403 . S
C3731 C3728 1.403 . S
C3731 C3732 1.524 . S
C3731 C3735 1.400 . S
C3732 H3717 0.960 . S
C3732 H3718 0.960 . S
C3732 H3719 0.960 . S
C3732 C3731 1.524 . S
C3733 C3730 1.403 . S
C3733 C3734 1.392 . S
C3733 C3737 1.495 . S
C3734 C3733 1.392 . S
C3734 C3735 1.385 . S
C3734 C3736 1.478 . S
C3735 H3729 0.930 . S
C3735 C3731 1.400 . S
C3735 C3734 1.385 . S
C3736 C3734 1.478 . S
C3736 C3738 1.381 . S
C3736 C3742 1.383 . S
C3737 C3733 1.495 . S
C3737 H3743 0.959 . S
C3737 H3744 0.961 . S
C3737 H3745 0.960 . S
C3738 C3736 1.381 . S
C3738 C3739 1.394 . S
C3738 H3746 0.930 . S
C3739 C3738 1.394 . S
C3739 C3740 1.383 . S
C3739 H3747 0.929 . S
C3740 C3739 1.383 . S
C3740 C3741 1.377 . S
C3741 H3725 0.930 . S
C3741 C3740 1.377 . S
C3741 C3742 1.379 . S
C3742 H3726 0.931 . S
C3742 C3736 1.383 . S
C3742 C3741 1.379 . S
H3743 C3737 0.959 . S
H3744 C3737 0.961 . S
H3745 C3737 0.960 . S
H3746 C3738 0.930 . S
H3747 C3739 0.929 . S
H3748 C3756 0.929 . S
H3749 C3758 0.930 . S
H3750 C3760 0.930 . S
H3751 C3763 0.929 1_554 S
H3752 C3766 0.930 . S
H3753 C3768 0.960 . S
H3754 C3768 0.960 . S
H3755 C3768 0.960 . S
C3756 H3748 0.929 . S
C3756 C3757 1.377 . S
C3756 C3758 1.384 . S
C3757 C3756 1.377 . S
C3757 C3763 1.390 . S
C3758 H3749 0.930 . S
C3758 C3756 1.384 . S
C3758 C3759 1.372 . S
C3759 C3758 1.372 . S
C3759 C3760 1.400 . S
C3759 C3764 1.490 . S
C3760 H3750 0.930 . S
C3760 C3759 1.400 . S
C3760 C3763 1.386 . S
H3761 C3777 0.930 . S
H3762 C3778 0.931 . S
C3763 H3751 0.929 1_556 S
C3763 C3757 1.390 . S
C3763 C3760 1.386 . S
C3764 C3759 1.490 . S
C3764 C3766 1.395 . S
C3764 C3767 1.403 . S
H3765 C3771 0.930 . S
C3766 H3752 0.930 . S
C3766 C3764 1.395 . S
C3766 C3769 1.403 . S
C3767 C3764 1.403 . S
C3767 C3768 1.524 . S
C3767 C3771 1.400 . S
C3768 H3753 0.960 . S
C3768 H3754 0.960 . S
C3768 H3755 0.960 . S
C3768 C3767 1.524 . S
C3769 C3766 1.403 . S
C3769 C3770 1.392 . S
C3769 C3773 1.495 . S
C3770 C3769 1.392 . S
C3770 C3771 1.385 . S
C3770 C3772 1.478 . S
C3771 H3765 0.930 . S
C3771 C3767 1.400 . S
C3771 C3770 1.385 . S
C3772 C3770 1.478 . S
C3772 C3774 1.381 . S
C3772 C3778 1.383 . S
C3773 C3769 1.495 . S
C3773 H3779 0.959 . S
C3773 H3780 0.961 . S
C3773 H3781 0.960 . S
C3774 C3772 1.381 . S
C3774 C3775 1.394 . S
C3774 H3782 0.930 . S
C3775 C3774 1.394 . S
C3775 C3776 1.383 . S
C3775 H3783 0.929 . S
C3776 C3775 1.383 . S
C3776 C3777 1.377 . S
C3777 H3761 0.930 . S
C3777 C3776 1.377 . S
C3777 C3778 1.379 . S
C3778 H3762 0.931 . S
C3778 C3772 1.383 . S
C3778 C3777 1.379 . S
H3779 C3773 0.959 . S
H3780 C3773 0.961 . S
H3781 C3773 0.960 . S
H3782 C3774 0.930 . S
H3783 C3775 0.929 . S
H3784 C3792 0.929 . S
H3785 C3794 0.930 . S
H3786 C3796 0.930 . S
H3787 C3799 0.929 . S
H3788 C3802 0.930 . S
H3789 C3804 0.960 . S
H3790 C3804 0.960 . S
H3791 C3804 0.960 . S
C3792 H3784 0.929 . S
C3792 C3793 1.377 . S
C3792 C3794 1.384 . S
C3793 C3792 1.377 . S
C3793 C3799 1.390 . S
C3794 H3785 0.930 . S
C3794 C3792 1.384 . S
C3794 C3795 1.372 . S
C3795 C3794 1.372 . S
C3795 C3796 1.400 . S
C3795 C3800 1.490 . S
C3796 H3786 0.930 . S
C3796 C3795 1.400 . S
C3796 C3799 1.386 . S
H3797 C3813 0.930 . S
H3798 C3814 0.931 . S
C3799 H3787 0.929 . S
C3799 C3793 1.390 . S
C3799 C3796 1.386 . S
C3800 C3795 1.490 . S
C3800 C3802 1.395 . S
C3800 C3803 1.403 . S
H3801 C3807 0.930 . S
C3802 H3788 0.930 . S
C3802 C3800 1.395 . S
C3802 C3805 1.403 . S
C3803 C3800 1.403 . S
C3803 C3804 1.524 . S
C3803 C3807 1.400 . S
C3804 H3789 0.960 . S
C3804 H3790 0.960 . S
C3804 H3791 0.960 . S
C3804 C3803 1.524 . S
C3805 C3802 1.403 . S
C3805 C3806 1.392 . S
C3805 C3809 1.495 . S
C3806 C3805 1.392 . S
C3806 C3807 1.385 . S
C3806 C3808 1.478 . S
C3807 H3801 0.930 . S
C3807 C3803 1.400 . S
C3807 C3806 1.385 . S
C3808 C3806 1.478 . S
C3808 C3810 1.381 . S
C3808 C3814 1.383 . S
C3809 C3805 1.495 . S
C3809 H3815 0.959 . S
C3809 H3816 0.961 . S
C3809 H3817 0.960 . S
C3810 C3808 1.381 . S
C3810 C3811 1.394 . S
C3810 H3818 0.930 . S
C3811 C3810 1.394 . S
C3811 C3812 1.383 . S
C3811 H3819 0.929 . S
C3812 C3811 1.383 . S
C3812 C3813 1.377 . S
C3813 H3797 0.930 . S
C3813 C3812 1.377 . S
C3813 C3814 1.379 . S
C3814 H3798 0.931 . S
C3814 C3808 1.383 . S
C3814 C3813 1.379 . S
H3815 C3809 0.959 . S
H3816 C3809 0.961 . S
H3817 C3809 0.960 . S
H3818 C3810 0.930 . S
H3819 C3811 0.929 . S
H3820 C3828 0.929 . S
H3821 C3830 0.930 . S
H3822 C3832 0.930 . S
H3823 C3835 0.929 . S
H3824 C3838 0.930 . S
H3825 C3840 0.960 . S
H3826 C3840 0.960 . S
H3827 C3840 0.960 . S
C3828 H3820 0.929 . S
C3828 C3829 1.377 . S
C3828 C3830 1.384 . S
C3829 C3828 1.377 . S
C3829 C3835 1.390 . S
C3830 H3821 0.930 . S
C3830 C3828 1.384 . S
C3830 C3831 1.372 . S
C3831 C3830 1.372 . S
C3831 C3832 1.400 . S
C3831 C3836 1.490 . S
C3832 H3822 0.930 . S
C3832 C3831 1.400 . S
C3832 C3835 1.386 . S
H3833 C3849 0.930 . S
H3834 C3850 0.931 . S
C3835 H3823 0.929 . S
C3835 C3829 1.390 . S
C3835 C3832 1.386 . S
C3836 C3831 1.490 . S
C3836 C3838 1.395 . S
C3836 C3839 1.403 . S
H3837 C3843 0.930 . S
C3838 H3824 0.930 . S
C3838 C3836 1.395 . S
C3838 C3841 1.403 . S
C3839 C3836 1.403 . S
C3839 C3840 1.524 . S
C3839 C3843 1.400 . S
C3840 H3825 0.960 . S
C3840 H3826 0.960 . S
C3840 H3827 0.960 . S
C3840 C3839 1.524 . S
C3841 C3838 1.403 . S
C3841 C3842 1.392 . S
C3841 C3845 1.495 . S
C3842 C3841 1.392 . S
C3842 C3843 1.385 . S
C3842 C3844 1.478 . S
C3843 H3837 0.930 . S
C3843 C3839 1.400 . S
C3843 C3842 1.385 . S
C3844 C3842 1.478 . S
C3844 C3846 1.381 . S
C3844 C3850 1.383 . S
C3845 C3841 1.495 . S
C3845 H3851 0.959 . S
C3845 H3852 0.961 . S
C3845 H3853 0.960 . S
C3846 C3844 1.381 . S
C3846 C3847 1.394 . S
C3846 H3854 0.930 . S
C3847 C3846 1.394 . S
C3847 C3848 1.383 . S
C3847 H3855 0.929 . S
C3848 C3847 1.383 . S
C3848 C3849 1.377 . S
C3849 H3833 0.930 . S
C3849 C3848 1.377 . S
C3849 C3850 1.379 . S
C3850 H3834 0.931 . S
C3850 C3844 1.383 . S
C3850 C3849 1.379 . S
H3851 C3845 0.959 . S
H3852 C3845 0.961 . S
H3853 C3845 0.960 . S
H3854 C3846 0.930 . S
H3855 C3847 0.929 . S
H3856 C3864 0.929 . S
H3857 C3866 0.930 . S
H3858 C3868 0.930 . S
H3859 C3871 0.929 . S
H3860 C3874 0.930 . S
H3861 C3876 0.960 . S
H3862 C3876 0.960 . S
H3863 C3876 0.960 . S
C3864 H3856 0.929 . S
C3864 C3865 1.377 . S
C3864 C3866 1.384 . S
C3865 C3864 1.377 . S
C3865 C3871 1.390 . S
C3866 H3857 0.930 . S
C3866 C3864 1.384 . S
C3866 C3867 1.372 . S
C3867 C3866 1.372 . S
C3867 C3868 1.400 . S
C3867 C3872 1.490 . S
C3868 H3858 0.930 . S
C3868 C3867 1.400 . S
C3868 C3871 1.386 . S
H3869 C3885 0.930 . S
H3870 C3886 0.931 . S
C3871 H3859 0.929 . S
C3871 C3865 1.390 . S
C3871 C3868 1.386 . S
C3872 C3867 1.490 . S
C3872 C3874 1.395 . S
C3872 C3875 1.403 . S
H3873 C3879 0.930 . S
C3874 H3860 0.930 . S
C3874 C3872 1.395 . S
C3874 C3877 1.403 . S
C3875 C3872 1.403 . S
C3875 C3876 1.524 . S
C3875 C3879 1.400 . S
C3876 H3861 0.960 . S
C3876 H3862 0.960 . S
C3876 H3863 0.960 . S
C3876 C3875 1.524 . S
C3877 C3874 1.403 . S
C3877 C3878 1.392 . S
C3877 C3881 1.495 . S
C3878 C3877 1.392 . S
C3878 C3879 1.385 . S
C3878 C3880 1.478 . S
C3879 H3873 0.930 . S
C3879 C3875 1.400 . S
C3879 C3878 1.385 . S
C3880 C3878 1.478 . S
C3880 C3882 1.381 . S
C3880 C3886 1.383 . S
C3881 C3877 1.495 . S
C3881 H3887 0.959 . S
C3881 H3888 0.961 . S
C3881 H3889 0.960 . S
C3882 C3880 1.381 . S
C3882 C3883 1.394 . S
C3882 H3890 0.930 . S
C3883 C3882 1.394 . S
C3883 C3884 1.383 . S
C3883 H3891 0.929 . S
C3884 C3883 1.383 . S
C3884 C3885 1.377 . S
C3885 H3869 0.930 . S
C3885 C3884 1.377 . S
C3885 C3886 1.379 . S
C3886 H3870 0.931 . S
C3886 C3880 1.383 . S
C3886 C3885 1.379 . S
H3887 C3881 0.959 . S
H3888 C3881 0.961 . S
H3889 C3881 0.960 . S
H3890 C3882 0.930 . S
H3891 C3883 0.929 . S
H3892 C3900 0.929 . S
H3893 C3902 0.930 . S
H3894 C3904 0.930 . S
H3895 C3907 0.929 . S
H3896 C3910 0.930 . S
H3897 C3912 0.960 . S
H3898 C3912 0.960 . S
H3899 C3912 0.960 . S
C3900 H3892 0.929 . S
C3900 C3901 1.377 . S
C3900 C3902 1.384 . S
C3901 C3900 1.377 . S
C3901 C3907 1.390 . S
C3902 H3893 0.930 . S
C3902 C3900 1.384 . S
C3902 C3903 1.372 . S
C3903 C3902 1.372 . S
C3903 C3904 1.400 . S
C3903 C3908 1.490 . S
C3904 H3894 0.930 . S
C3904 C3903 1.400 . S
C3904 C3907 1.386 . S
H3905 C3921 0.930 . S
H3906 C3922 0.931 . S
C3907 H3895 0.929 . S
C3907 C3901 1.390 . S
C3907 C3904 1.386 . S
C3908 C3903 1.490 . S
C3908 C3910 1.395 . S
C3908 C3911 1.403 . S
H3909 C3915 0.930 . S
C3910 H3896 0.930 . S
C3910 C3908 1.395 . S
C3910 C3913 1.403 . S
C3911 C3908 1.403 . S
C3911 C3912 1.524 . S
C3911 C3915 1.400 . S
C3912 H3897 0.960 . S
C3912 H3898 0.960 . S
C3912 H3899 0.960 . S
C3912 C3911 1.524 . S
C3913 C3910 1.403 . S
C3913 C3914 1.392 . S
C3913 C3917 1.495 . S
C3914 C3913 1.392 . S
C3914 C3915 1.385 . S
C3914 C3916 1.478 . S
C3915 H3909 0.930 . S
C3915 C3911 1.400 . S
C3915 C3914 1.385 . S
C3916 C3914 1.478 . S
C3916 C3918 1.381 . S
C3916 C3922 1.383 . S
C3917 C3913 1.495 . S
C3917 H3923 0.959 . S
C3917 H3924 0.961 . S
C3917 H3925 0.960 . S
C3918 C3916 1.381 . S
C3918 C3919 1.394 . S
C3918 H3926 0.930 . S
C3919 C3918 1.394 . S
C3919 C3920 1.383 . S
C3919 H3927 0.929 . S
C3920 C3919 1.383 . S
C3920 C3921 1.377 . S
C3921 H3905 0.930 . S
C3921 C3920 1.377 . S
C3921 C3922 1.379 . S
C3922 H3906 0.931 . S
C3922 C3916 1.383 . S
C3922 C3921 1.379 . S
H3923 C3917 0.959 . S
H3924 C3917 0.961 . S
H3925 C3917 0.960 . S
H3926 C3918 0.930 . S
H3927 C3919 0.929 . S
H3928 C3936 0.899 1_565 S
H3929 C3938 0.930 . S
H3930 C3940 0.930 . S
H3931 C3943 0.929 . S
H3932 C3946 0.930 . S
H3933 C3948 0.960 . S
H3934 C3948 0.960 . S
H3935 C3948 0.960 . S
C3936 H3928 0.899 1_545 S
C3936 C3937 1.377 . S
C3936 C3938 1.384 . S
C3937 C3936 1.377 . S
C3937 C3943 1.390 . S
C3938 H3929 0.930 . S
C3938 C3936 1.384 . S
C3938 C3939 1.372 . S
C3939 C3938 1.372 . S
C3939 C3940 1.400 . S
C3939 C3944 1.490 . S
C3940 H3930 0.930 . S
C3940 C3939 1.400 . S
C3940 C3943 1.386 . S
H3941 C3957 0.930 . S
H3942 C3958 0.931 . S
C3943 H3931 0.929 . S
C3943 C3937 1.390 . S
C3943 C3940 1.386 . S
C3944 C3939 1.490 . S
C3944 C3946 1.395 . S
C3944 C3947 1.403 . S
H3945 C3951 0.930 . S
C3946 H3932 0.930 . S
C3946 C3944 1.395 . S
C3946 C3949 1.403 . S
C3947 C3944 1.403 . S
C3947 C3948 1.524 . S
C3947 C3951 1.400 . S
C3948 H3933 0.960 . S
C3948 H3934 0.960 . S
C3948 H3935 0.960 . S
C3948 C3947 1.524 . S
C3949 C3946 1.403 . S
C3949 C3950 1.392 . S
C3949 C3953 1.495 . S
C3950 C3949 1.392 . S
C3950 C3951 1.385 . S
C3950 C3952 1.478 . S
C3951 H3945 0.930 . S
C3951 C3947 1.400 . S
C3951 C3950 1.385 . S
C3952 C3950 1.478 . S
C3952 C3954 1.381 . S
C3952 C3958 1.383 . S
C3953 C3949 1.495 . S
C3953 H3959 0.959 . S
C3953 H3960 0.961 . S
C3953 H3961 0.960 . S
C3954 C3952 1.381 . S
C3954 C3955 1.394 . S
C3954 H3962 0.930 . S
C3955 C3954 1.394 . S
C3955 C3956 1.383 . S
C3955 H3963 0.929 . S
C3956 C3955 1.383 . S
C3956 C3957 1.377 . S
C3957 H3941 0.930 . S
C3957 C3956 1.377 . S
C3957 C3958 1.379 . S
C3958 H3942 0.931 . S
C3958 C3952 1.383 . S
C3958 C3957 1.379 . S
H3959 C3953 0.959 . S
H3960 C3953 0.961 . S
H3961 C3953 0.960 . S
H3962 C3954 0.930 . S
H3963 C3955 0.929 . S
H3964 C3972 0.929 . S
H3965 C3974 0.930 . S
H3966 C3976 0.930 . S
H3967 C3979 0.929 . S
H3968 C3982 0.930 . S
H3969 C3984 0.960 . S
H3970 C3984 0.960 . S
H3971 C3984 0.960 . S
C3972 H3964 0.929 . S
C3972 C3973 1.377 . S
C3972 C3974 1.384 . S
C3973 C3972 1.377 . S
C3973 C3979 1.390 . S
C3974 H3965 0.930 . S
C3974 C3972 1.384 . S
C3974 C3975 1.372 . S
C3975 C3974 1.372 . S
C3975 C3976 1.400 . S
C3975 C3980 1.490 . S
C3976 H3966 0.930 . S
C3976 C3975 1.400 . S
C3976 C3979 1.386 . S
H3977 C3993 0.930 . S
H3978 C3994 0.931 . S
C3979 H3967 0.929 . S
C3979 C3973 1.390 . S
C3979 C3976 1.386 . S
C3980 C3975 1.490 . S
C3980 C3982 1.395 . S
C3980 C3983 1.403 . S
H3981 C3987 0.930 . S
C3982 H3968 0.930 . S
C3982 C3980 1.395 . S
C3982 C3985 1.403 . S
C3983 C3980 1.403 . S
C3983 C3984 1.524 . S
C3983 C3987 1.400 . S
C3984 H3969 0.960 . S
C3984 H3970 0.960 . S
C3984 H3971 0.960 . S
C3984 C3983 1.524 . S
C3985 C3982 1.403 . S
C3985 C3986 1.392 . S
C3985 C3989 1.495 . S
C3986 C3985 1.392 . S
C3986 C3987 1.385 . S
C3986 C3988 1.478 . S
C3987 H3981 0.930 . S
C3987 C3983 1.400 . S
C3987 C3986 1.385 . S
C3988 C3986 1.478 . S
C3988 C3990 1.381 . S
C3988 C3994 1.383 . S
C3989 C3985 1.495 . S
C3989 H3995 0.959 . S
C3989 H3996 0.961 . S
C3989 H3997 0.960 . S
C3990 C3988 1.381 . S
C3990 C3991 1.394 . S
C3990 H3998 0.930 . S
C3991 C3990 1.394 . S
C3991 C3992 1.383 . S
C3991 H3999 0.929 . S
C3992 C3991 1.383 . S
C3992 C3993 1.377 . S
C3993 H3977 0.930 . S
C3993 C3992 1.377 . S
C3993 C3994 1.379 . S
C3994 H3978 0.931 . S
C3994 C3988 1.383 . S
C3994 C3993 1.379 . S
H3995 C3989 0.959 . S
H3996 C3989 0.961 . S
H3997 C3989 0.960 . S
H3998 C3990 0.930 . S
H3999 C3991 0.929 . S
H4000 C4008 0.929 . S
H4001 C4010 0.930 . S
H4002 C4012 0.930 . S
H4003 C4015 0.929 . S
H4004 C4018 0.930 . S
H4005 C4020 0.960 . S
H4006 C4020 0.960 . S
H4007 C4020 0.960 . S
C4008 H4000 0.929 . S
C4008 C4009 1.377 . S
C4008 C4010 1.384 . S
C4009 C4008 1.377 . S
C4009 C4015 1.390 . S
C4010 H4001 0.930 . S
C4010 C4008 1.384 . S
C4010 C4011 1.372 . S
C4011 C4010 1.372 . S
C4011 C4012 1.400 . S
C4011 C4016 1.490 . S
C4012 H4002 0.930 . S
C4012 C4011 1.400 . S
C4012 C4015 1.386 . S
H4013 C4029 0.930 . S
H4014 C4030 0.931 . S
C4015 H4003 0.929 . S
C4015 C4009 1.390 . S
C4015 C4012 1.386 . S
C4016 C4011 1.490 . S
C4016 C4018 1.395 . S
C4016 C4019 1.403 . S
H4017 C4023 0.930 . S
C4018 H4004 0.930 . S
C4018 C4016 1.395 . S
C4018 C4021 1.403 . S
C4019 C4016 1.403 . S
C4019 C4020 1.524 . S
C4019 C4023 1.400 . S
C4020 H4005 0.960 . S
C4020 H4006 0.960 . S
C4020 H4007 0.960 . S
C4020 C4019 1.524 . S
C4021 C4018 1.403 . S
C4021 C4022 1.392 . S
C4021 C4025 1.495 . S
C4022 C4021 1.392 . S
C4022 C4023 1.385 . S
C4022 C4024 1.478 . S
C4023 H4017 0.930 . S
C4023 C4019 1.400 . S
C4023 C4022 1.385 . S
C4024 C4022 1.478 . S
C4024 C4026 1.381 . S
C4024 C4030 1.383 . S
C4025 C4021 1.495 . S
C4025 H4031 0.959 . S
C4025 H4032 0.961 . S
C4025 H4033 0.960 . S
C4026 C4024 1.381 . S
C4026 C4027 1.394 . S
C4026 H4034 0.930 . S
C4027 C4026 1.394 . S
C4027 C4028 1.383 . S
C4027 H4035 0.929 . S
C4028 C4027 1.383 . S
C4028 C4029 1.377 . S
C4029 H4013 0.930 . S
C4029 C4028 1.377 . S
C4029 C4030 1.379 . S
C4030 H4014 0.931 . S
C4030 C4024 1.383 . S
C4030 C4029 1.379 . S
H4031 C4025 0.959 . S
H4032 C4025 0.961 . S
H4033 C4025 0.960 . S
H4034 C4026 0.930 . S
H4035 C4027 0.929 . S
H4036 C4044 0.929 . S
H4037 C4046 0.930 . S
H4038 C4048 0.930 . S
H4039 C4051 0.929 . S
H4040 C4054 0.930 . S
H4041 C4056 0.960 . S
H4042 C4056 0.960 . S
H4043 C4056 0.960 . S
C4044 H4036 0.929 . S
C4044 C4045 1.377 . S
C4044 C4046 1.384 . S
C4045 C4044 1.377 . S
C4045 C4051 1.390 . S
C4046 H4037 0.930 . S
C4046 C4044 1.384 . S
C4046 C4047 1.372 . S
C4047 C4046 1.372 . S
C4047 C4048 1.400 . S
C4047 C4052 1.490 . S
C4048 H4038 0.930 . S
C4048 C4047 1.400 . S
C4048 C4051 1.386 . S
H4049 C4065 0.930 . S
H4050 C4066 0.931 . S
C4051 H4039 0.929 . S
C4051 C4045 1.390 . S
C4051 C4048 1.386 . S
C4052 C4047 1.490 . S
C4052 C4054 1.395 . S
C4052 C4055 1.403 . S
H4053 C4059 0.930 . S
C4054 H4040 0.930 . S
C4054 C4052 1.395 . S
C4054 C4057 1.403 . S
C4055 C4052 1.403 . S
C4055 C4056 1.524 . S
C4055 C4059 1.400 . S
C4056 H4041 0.960 . S
C4056 H4042 0.960 . S
C4056 H4043 0.960 . S
C4056 C4055 1.524 . S
C4057 C4054 1.403 . S
C4057 C4058 1.392 . S
C4057 C4061 1.495 . S
C4058 C4057 1.392 . S
C4058 C4059 1.385 . S
C4058 C4060 1.478 . S
C4059 H4053 0.930 . S
C4059 C4055 1.400 . S
C4059 C4058 1.385 . S
C4060 C4058 1.478 . S
C4060 C4062 1.381 . S
C4060 C4066 1.383 . S
C4061 C4057 1.495 . S
C4061 H4067 0.959 . S
C4061 H4068 0.961 . S
C4061 H4069 0.960 . S
C4062 C4060 1.381 . S
C4062 C4063 1.394 . S
C4062 H4070 0.930 . S
C4063 C4062 1.394 . S
C4063 C4064 1.383 . S
C4063 H4071 0.929 . S
C4064 C4063 1.383 . S
C4064 C4065 1.377 . S
C4065 H4049 0.930 . S
C4065 C4064 1.377 . S
C4065 C4066 1.379 . S
C4066 H4050 0.931 . S
C4066 C4060 1.383 . S
C4066 C4065 1.379 . S
H4067 C4061 0.959 . S
H4068 C4061 0.961 . S
H4069 C4061 0.960 . S
H4070 C4062 0.930 . S
H4071 C4063 0.929 . S
H4072 C4080 0.929 1_545 S
H4073 C4082 0.930 . S
H4074 C4084 0.930 . S
H4075 C4087 0.929 . S
H4076 C4090 0.930 . S
H4077 C4092 0.960 . S
H4078 C4092 0.960 . S
H4079 C4092 0.960 . S
C4080 H4072 0.929 1_565 S
C4080 C4081 1.377 . S
C4080 C4082 1.384 . S
C4081 C4080 1.377 . S
C4081 C4087 1.390 . S
C4082 H4073 0.930 . S
C4082 C4080 1.384 . S
C4082 C4083 1.372 . S
C4083 C4082 1.372 . S
C4083 C4084 1.400 . S
C4083 C4088 1.490 . S
C4084 H4074 0.930 . S
C4084 C4083 1.400 . S
C4084 C4087 1.386 . S
H4085 C4101 0.930 . S
H4086 C4102 0.931 . S
C4087 H4075 0.929 . S
C4087 C4081 1.390 . S
C4087 C4084 1.386 . S
C4088 C4083 1.490 . S
C4088 C4090 1.395 . S
C4088 C4091 1.403 . S
H4089 C4095 0.930 . S
C4090 H4076 0.930 . S
C4090 C4088 1.395 . S
C4090 C4093 1.403 . S
C4091 C4088 1.403 . S
C4091 C4092 1.524 . S
C4091 C4095 1.400 . S
C4092 H4077 0.960 . S
C4092 H4078 0.960 . S
C4092 H4079 0.960 . S
C4092 C4091 1.524 . S
C4093 C4090 1.403 . S
C4093 C4094 1.392 . S
C4093 C4097 1.495 . S
C4094 C4093 1.392 . S
C4094 C4095 1.385 . S
C4094 C4096 1.478 . S
C4095 H4089 0.930 . S
C4095 C4091 1.400 . S
C4095 C4094 1.385 . S
C4096 C4094 1.478 . S
C4096 C4098 1.381 . S
C4096 C4102 1.383 . S
C4097 C4093 1.495 . S
C4097 H4103 0.959 . S
C4097 H4104 0.961 . S
C4097 H4105 0.960 . S
C4098 C4096 1.381 . S
C4098 C4099 1.394 . S
C4098 H4106 0.930 . S
C4099 C4098 1.394 . S
C4099 C4100 1.383 . S
C4099 H4107 0.929 . S
C4100 C4099 1.383 . S
C4100 C4101 1.377 . S
C4101 H4085 0.930 . S
C4101 C4100 1.377 . S
C4101 C4102 1.379 . S
C4102 H4086 0.931 . S
C4102 C4096 1.383 . S
C4102 C4101 1.379 . S
H4103 C4097 0.959 . S
H4104 C4097 0.961 . S
H4105 C4097 0.960 . S
H4106 C4098 0.930 . S
H4107 C4099 0.929 . S
H4108 C4116 0.929 . S
H4109 C4118 0.930 . S
H4110 C4120 0.930 . S
H4111 C4123 0.929 . S
H4112 C4126 0.930 . S
H4113 C4128 0.960 . S
H4114 C4128 0.960 . S
H4115 C4128 0.960 . S
C4116 H4108 0.929 . S
C4116 C4117 1.377 . S
C4116 C4118 1.384 . S
C4117 C4116 1.377 . S
C4117 C4123 1.390 . S
C4118 H4109 0.930 . S
C4118 C4116 1.384 . S
C4118 C4119 1.372 . S
C4119 C4118 1.372 . S
C4119 C4120 1.400 . S
C4119 C4124 1.490 . S
C4120 H4110 0.930 . S
C4120 C4119 1.400 . S
C4120 C4123 1.386 . S
H4121 C4137 0.930 . S
H4122 C4138 0.931 . S
C4123 H4111 0.929 . S
C4123 C4117 1.390 . S
C4123 C4120 1.386 . S
C4124 C4119 1.490 . S
C4124 C4126 1.395 . S
C4124 C4127 1.403 . S
H4125 C4131 0.930 1_655 S
C4126 H4112 0.930 . S
C4126 C4124 1.395 . S
C4126 C4129 1.403 . S
C4127 C4124 1.403 . S
C4127 C4128 1.524 . S
C4127 C4131 1.400 . S
C4128 H4113 0.960 . S
C4128 H4114 0.960 . S
C4128 H4115 0.960 . S
C4128 C4127 1.524 . S
C4129 C4126 1.403 . S
C4129 C4130 1.392 1_455 S
C4129 C4133 1.495 1_455 S
C4130 C4129 1.392 1_655 S
C4130 C4131 1.385 1_655 S
C4130 C4132 1.478 . S
C4131 H4125 0.930 1_455 S
C4131 C4127 1.400 . S
C4131 C4130 1.385 1_455 S
C4132 C4130 1.478 . S
C4132 C4134 1.381 . S
C4132 C4138 1.383 . S
C4133 C4129 1.495 1_655 S
C4133 H4139 0.959 1_655 S
C4133 H4140 0.963 . S
C4133 H4141 0.960 . S
C4134 C4132 1.381 . S
C4134 C4135 1.394 . S
C4134 H4142 0.930 . S
C4135 C4134 1.394 . S
C4135 C4136 1.383 . S
C4135 H4143 0.929 . S
C4136 C4135 1.383 . S
C4136 C4137 1.377 . S
C4137 H4121 0.930 . S
C4137 C4136 1.377 . S
C4137 C4138 1.379 . S
C4138 H4122 0.931 . S
C4138 C4132 1.383 . S
C4138 C4137 1.379 . S
H4139 C4133 0.959 1_455 S
H4140 C4133 0.963 . S
H4141 C4133 0.960 . S
H4142 C4134 0.930 . S
H4143 C4135 0.929 . S
C716 C343 0.998 . S
C697 C7 1.085 . S
C733 C23 1.031 . S
C752 C363 0.954 . S
C788 C384 0.898 . S
C769 C36 0.958 . S
C824 C411 1.040 . S
C805 C45 1.039 . S
C860 C367 1.049 . S
C841 C59 1.039 . S
C877 C78 0.949 . S
C896 C387 0.967 . S
C932 C407 0.955 . S
C913 C93 1.031 . S
C949 C105 1.089 . S
C968 C340 1.087 . S
C985 C115 1.098 . S
C1004 C345 1.064 . S
C1040 C362 0.960 . S
C1021 C133 1.029 . S
C1076 C386 0.964 . S
C1057 C148 0.991 . S
C1112 C410 0.917 . S
C1093 C163 1.000 . S
C1148 C366 0.989 . S
C1129 C121 0.991 . S
C1184 C389 0.998 . S
C1165 C134 0.986 . S
C1201 C147 1.027 . S
C1220 C406 1.035 . S
C1256 C342 1.032 . S
C1237 C157 1.104 . S
C1273 C175 1.069 . S
C1292 C344 1.051 . S
C1309 C191 1.042 . S
C1328 C431 0.994 . S
C1364 C451 0.983 . S
C1345 C199 1.009 . S
C1400 C474 0.913 . S
C1381 C218 0.979 . S
C1417 C231 1.068 . S
C1436 C341 1.039 . S
C1453 C241 1.011 . S
C1472 C385 1.000 . S
C1508 C475 0.996 . S
C1489 C205 1.041 . S
C1544 C430 0.914 . S
C1525 C260 0.979 . S
C1580 C498 0.838 . S
C1561 C22 0.908 . S
C1616 C519 1.063 . S
C1597 C9 1.052 . S
C1633 C49 1.055 . S
C1652 C538 0.976 . S
C1669 C31 1.001 . S
C1688 C563 0.991 . S
C1705 C101 0.995 . S
C1724 C518 0.926 . S
C1741 C91 1.051 . S
C1760 C543 1.026 . S
C1796 C562 0.993 . S
C1777 C79 1.041 . S
C1813 C64 0.910 . S
C1832 C495 0.844 . S
C1849 C274 0.901 . S
C1868 C499 0.901 . S
C1904 C520 0.971 . S
C1885 C213 0.998 . S
C1940 C539 1.029 . S
C1921 C233 1.051 . S
C1976 C564 1.045 . S
C1957 C189 1.035 . S
C2012 C516 1.044 . S
C1993 C273 1.036 . S
C2048 C541 1.045 . S
C2029 C219 1.062 . S
C2084 C560 1.012 . S
C2065 C227 1.002 . S
C2101 C190 0.908 . S
C2120 C496 0.883 . S
C2156 C497 0.898 . S
C2137 C289 0.925 . S
C2173 C162 1.021 . S
C2192 C583 1.032 . S
C2228 C608 0.934 . S
C2209 C301 1.007 . S
C2245 C129 1.049 . S
C2264 C627 0.993 . S
C2300 C494 0.869 . S
C2281 C149 0.929 . S
C2336 C540 0.932 . S
C2317 C315 1.006 . S
C2372 C631 0.951 . S
C2353 C302 1.022 . S
C2389 C325 1.043 . S
C2408 C587 1.007 . S
C2425 C35 1.084 . S
C2444 C651 1.071 . S
C2461 C51 1.026 . S
C2480 C429 0.996 . S
C2516 C453 0.946 . S
C2497 C8 0.957 . S
C2533 C17 1.042 . S
C2552 C477 1.027 . S
C2569 C87 1.039 . S
C2588 C433 1.047 . S
C2605 C106 0.953 . S
C2624 C450 0.878 . S
C2660 C473 1.034 . S
C2641 C65 1.020 . S
C2696 C648 1.040 . S
C2677 C77 1.082 . S
C2732 C653 1.023 . S
C2713 C297 1.105 . S
C2768 C428 0.947 . S
C2749 C287 1.024 . S
C2804 C455 0.959 . S
C2785 C330 0.982 . S
C2821 C317 0.999 . S
C2840 C476 0.934 . S
C2876 C432 0.919 . S
C2857 C303 1.000 . S
C2893 C288 0.981 . S
C2912 C452 0.977 . S
C2948 C472 1.006 . S
C2929 C329 1.024 . S
C2965 C311 1.105 . S
C2984 C650 1.012 . S
C3020 C652 1.016 . S
C3001 C217 1.068 . S
C3037 C247 1.043 . S
C3056 C365 0.984 . S
C3092 C388 0.987 . S
C3073 C269 1.009 . S
C3109 C176 0.982 . S
C3128 C408 0.898 . S
C3164 C649 1.026 . S
C3145 C259 1.076 . S
C3200 C454 0.932 . S
C3181 C185 1.013 . S
C3236 C409 0.987 . S
C3217 C275 1.042 . S
C3272 C364 0.992 . S
C3253 C232 0.980 . S
C3289 C50 0.906 . S
C3308 C675 0.933 . S
C3325 C37 1.050 . S
C3344 C585 1.066 . S
C3361 C21 1.052 . S
C3380 C604 1.022 . S
C3416 C629 0.958 . S
C3397 C3 1.000 . S
C3452 C584 0.976 . S
C3433 C73 1.001 . S
C3469 C63 1.055 . S
C3488 C609 0.976 . S
C3524 C628 1.066 . S
C3505 C107 1.050 . S
C3541 C92 0.906 . S
C3560 C670 0.933 . S
C3596 C673 0.902 . S
C3577 C204 0.901 . S
C3613 C171 1.001 . S
C3632 C586 1.008 . S
C3649 C261 1.052 . S
C3668 C605 0.994 . S
C3704 C630 0.973 . S
C3685 C245 1.043 . S
C3740 C582 1.021 . S
C3721 C203 1.039 . S
C3757 C177 1.057 . S
C3776 C607 1.070 . S
C3812 C626 0.950 . S
C3793 C255 1.003 . S
C3848 C671 0.927 . S
C3829 C246 0.905 . S
C3884 C674 0.896 . S
C3865 C135 0.935 . S
C3920 C517 1.021 . S
C3901 C316 1.023 . S
C3937 C119 1.005 . S
C3956 C542 0.939 . S
C3973 C283 1.045 . S
C3992 C561 1.043 . S
C4028 C672 0.947 . S
C4009 C331 0.931 . S
C4064 C606 1.008 . S
C4045 C161 1.002 . S
C4100 C565 0.977 . S
C4081 C120 1.025 . S
C4136 C521 0.984 . S
C4117 C143 1.042 . S
