# Generated by pormake.
# Topology nia, (6,6)-cn, num edge types: 1
# Building blocks:
#     Node 0, Type 0, BuildingBlock: CUKXOW_clean_sbu_0, # of connection points: 6
#     Node 1, Type 0, BuildingBlock: CUKXOW_clean_sbu_0, # of connection points: 6
#     Node 2, Type 1, BuildingBlock: MIDCAF_clean_sbu_0, # of connection points: 6
#     Node 3, Type 1, BuildingBlock: MIDCAF_clean_sbu_0, # of connection points: 6
#     Edge 4, Type (0, 1), BuildingBlock: FUNLAD_clean_linker_1, # of connection points: 2
#     Edge 5, Type (0, 1), BuildingBlock: FUNLAD_clean_linker_1, # of connection points: 2
#     Edge 6, Type (0, 1), BuildingBlock: FUNLAD_clean_linker_1, # of connection points: 2
#     Edge 7, Type (0, 1), BuildingBlock: FUNLAD_clean_linker_1, # of connection points: 2
#     Edge 8, Type (0, 1), BuildingBlock: FUNLAD_clean_linker_1, # of connection points: 2
#     Edge 9, Type (0, 1), BuildingBlock: FUNLAD_clean_linker_1, # of connection points: 2
#     Edge 10, Type (0, 1), BuildingBlock: FUNLAD_clean_linker_1, # of connection points: 2
#     Edge 11, Type (0, 1), BuildingBlock: FUNLAD_clean_linker_1, # of connection points: 2
#     Edge 12, Type (0, 1), BuildingBlock: FUNLAD_clean_linker_1, # of connection points: 2
#     Edge 13, Type (0, 1), BuildingBlock: FUNLAD_clean_linker_1, # of connection points: 2
#     Edge 14, Type (0, 1), BuildingBlock: FUNLAD_clean_linker_1, # of connection points: 2
#     Edge 15, Type (0, 1), BuildingBlock: FUNLAD_clean_linker_1, # of connection points: 2
# Relax obj value: 0.196
# Max RMSD: 0.252
# Mean RMSD: 0.209
data_MOF--net-nia--node1-CUKXOW_clean_sbu_0--node2-MIDCAF_clean_sbu_0--edge1-FUNLAD_clean_linker_1
_symmetry_space_group_name_H-M    P1
_symmetry_Int_Tables_number       1
_symmetry_cell_setting            triclinic
loop_
_symmetry_equiv_pos_as_xyz
'x, y, z'
_cell_length_a     25.489593
_cell_length_b     25.576644
_cell_length_c     30.982671
_cell_angle_alpha  88.243058
_cell_angle_beta   87.122041
_cell_angle_gamma 125.82949
loop_
_atom_site_label
_atom_site_type_symbol
_atom_site_fract_x
_atom_site_fract_y
_atom_site_fract_z
_atom_type_partial_charge
Tb0 Tb 0.03156 0.07426 0.0513 0.0
C1 C 0.11239 0.07929 0.97231 0.0
Tb2 Tb 0.9754 0.95553 1.00681 0.0
O3 O 0.10855 0.07092 0.07456 0.0
O4 O 0.01837 0.98482 0.06662 0.0
O5 O 0.09743 0.11427 0.99257 0.0
C6 C 0.95373 0.86368 0.95636 0.0
O7 O 0.07605 0.01568 0.97933 0.0
C8 C 0.9299 0.02117 0.98719 0.0
C9 C 0.89431 0.94576 0.08862 0.0
O10 O 0.96045 0.91596 0.94383 0.0
O11 O 0.95783 0.86159 0.99798 0.0
O12 O 0.8952 0.95875 0.99112 0.0
O13 O 0.98853 0.04484 0.99202 0.0
O14 O 0.90275 0.9114 0.06176 0.0
O15 O 0.93683 0.00956 0.08874 0.0
C16 C 0.05431 0.17741 0.08854 0.0
O17 O 0.0951 0.16324 0.08313 0.0
O18 O 0.00057 0.13418 0.07244 0.0
C19 C 0.07598 0.00882 0.07493 0.0
Tb20 Tb 0.94488 0.98301 0.5094 0.0
C21 C 0.95433 0.90406 0.58565 0.0
Tb22 Tb 0.06506 0.04588 0.55525 0.0
O23 O -0.00138 0.99181 0.44874 0.0
O24 O 0.02533 0.97824 0.50777 0.0
O25 O 0.91485 0.91222 0.56492 0.0
C26 C 0.18338 0.10543 0.5821 0.0
O27 O 0.01798 0.94761 0.58164 0.0
C28 C 0.97036 0.04092 0.59866 0.0
C29 C 0.05518 0.12764 0.48188 0.0
O30 O 0.14686 0.12494 0.58654 0.0
O31 O 0.15401 0.05283 0.56191 0.0
O32 O 0.01387 0.03794 0.61586 0.0
O33 O 0.98394 0.05051 0.55808 0.0
O34 O 0.09426 0.11962 0.50294 0.0
O35 O -0.00832 0.08225 0.4834 0.0
C36 C 0.82775 0.91864 0.47909 0.0
O37 O 0.86333 0.89805 0.48175 0.0
O38 O 0.85716 0.97506 0.49455 0.0
C39 C 0.041 0.98894 0.46774 0.0
Zn40 Zn 0.31299 0.71776 0.19253 0.0
Zn41 Zn 0.27414 0.70613 0.3658 0.0
Zn42 Zn 0.29795 0.71277 0.27981 0.0
C43 C 0.41132 0.78084 0.34355 0.0
C44 C 0.21832 0.57966 0.34447 0.0
O45 O 0.25526 0.75844 0.25045 0.0
O46 O 0.27861 0.76877 0.17953 0.0
C47 C 0.43559 0.77541 0.22255 0.0
O48 O 0.39498 0.76436 0.30489 0.0
O49 O 0.36869 0.76417 0.37423 0.0
O50 O 0.22681 0.61058 0.37761 0.0
O51 O 0.23946 0.60993 0.30652 0.0
O52 O 0.40739 0.75872 0.18793 0.0
O53 O 0.40295 0.76402 0.25916 0.0
O54 O 0.23767 0.61289 0.26134 0.0
O55 O 0.25169 0.62283 0.18966 0.0
C56 C 0.22453 0.58765 0.2246 0.0
O57 O 0.25566 0.76547 0.29583 0.0
O58 O 0.22783 0.74729 0.36639 0.0
C59 C 0.25212 0.77634 0.21191 0.0
C60 C 0.23114 0.77352 0.33014 0.0
Zn61 Zn 0.67571 0.28746 0.86579 0.0
Zn62 Zn 0.74391 0.3415 0.70021 0.0
Zn63 Zn 0.70371 0.31509 0.78159 0.0
C64 C 0.77455 0.45624 0.72881 0.0
C65 C 0.60633 0.25086 0.71014 0.0
O66 O 0.7503 0.2705 0.80625 0.0
O67 O 0.72004 0.24635 0.87635 0.0
C68 C 0.75044 0.42231 0.84975 0.0
O69 O 0.75239 0.42038 0.76469 0.0
O70 O 0.77665 0.43311 0.6939 0.0
O71 O 0.65481 0.27529 0.68281 0.0
O72 O 0.61378 0.26293 0.75024 0.0
O73 O 0.72088 0.37828 0.88008 0.0
O74 O 0.7493 0.40841 0.81005 0.0
O75 O 0.59571 0.255 0.79548 0.0
O76 O 0.58047 0.23522 0.86672 0.0
C77 C 0.55749 0.22995 0.83063 0.0
O78 O 0.7568 0.27359 0.75992 0.0
O79 O 0.80463 0.31809 0.69438 0.0
C80 C 0.75199 0.2476 0.84335 0.0
C81 C 0.79304 0.28015 0.72644 0.0
H82 H 0.15091 0.00219 0.09953 0.0
C83 C 0.09951 0.97387 0.09443 0.0
H84 H 0.00981 0.88122 0.10242 0.0
H85 H 0.164 0.75431 0.10605 0.0
H86 H 0.1058 0.71278 0.04178 0.0
H87 H 0.04016 0.74774 1.01592 0.0
H88 H 0.03181 0.82404 0.05448 0.0
C89 C 0.06113 0.91083 0.10771 0.0
C90 C 0.09025 0.88057 0.12771 0.0
C91 C 0.09465 0.83607 0.10487 0.0
C92 C 0.13372 0.81713 0.11933 0.0
C93 C 0.13649 0.77183 0.09603 0.0
C94 C 0.10301 0.74728 0.05915 0.0
C95 C 0.06602 0.76692 0.0446 0.0
C96 C 0.06173 0.81082 0.06702 0.0
H97 H 0.17629 0.78994 0.23082 0.0
C98 C 0.21235 0.80019 0.2051 0.0
H99 H 0.25174 0.8383 0.14112 0.0
H100 H 0.07717 0.95184 0.18513 0.0
H101 H 0.1353 -0.00542 0.2496 0.0
H102 H 0.21365 0.97308 0.27006 0.0
H103 H 0.23275 0.90734 0.22733 0.0
C104 C 0.21661 0.82971 0.16705 0.0
C105 C 0.16943 0.84379 0.15619 0.0
C106 C 0.16215 0.8858 0.18041 0.0
C107 C 0.12044 0.90202 0.16698 0.0
C108 C 0.11063 0.94063 0.19297 0.0
C109 C 0.14342 0.96519 0.23006 0.0
C110 C 0.18727 0.9528 0.2417 0.0
C111 C 0.19709 0.91406 0.21713 0.0
H112 H 0.26505 0.18042 0.61632 0.0
C113 C 0.24502 0.13501 0.60151 0.0
H114 H 0.25234 0.05808 0.59182 0.0
H115 H 0.54202 0.3076 0.64743 0.0
H116 H 0.55176 0.3603 0.57801 0.0
H117 H 0.46173 0.30805 0.53048 0.0
H118 H 0.36111 0.20339 0.55252 0.0
C119 C 0.27395 0.10524 0.60436 0.0
C120 C 0.33126 0.1324 0.62972 0.0
C121 C 0.39052 0.19239 0.61544 0.0
C122 C 0.44317 0.22121 0.64198 0.0
C123 C 0.50096 0.28261 0.62798 0.0
C124 C 0.50716 0.31353 0.58826 0.0
C125 C 0.45643 0.28422 0.56157 0.0
C126 C 0.39873 0.22433 0.57478 0.0
H127 H 0.53609 0.18303 0.66647 0.0
C128 C 0.54184 0.2105 0.69423 0.0
H129 H 0.50159 0.24832 0.73181 0.0
H130 H 0.22379 0.01729 0.66684 0.0
H131 H 0.21571 0.96305 0.73518 0.0
H132 H 0.30987 0.0101 0.77897 0.0
H133 H 0.41245 0.11175 0.75459 0.0
C134 C 0.49465 0.21617 0.70704 0.0
C135 C 0.4375 0.18828 0.68156 0.0
C136 C 0.37896 0.1276 0.69532 0.0
C137 C 0.32534 0.09989 0.66959 0.0
C138 C 0.26644 0.04023 0.68482 0.0
C139 C 0.26111 0.00857 0.72401 0.0
C140 C 0.31407 0.03507 0.74869 0.0
C141 C 0.37255 0.09368 0.73452 0.0
H142 H 0.11721 0.26752 0.11931 0.0
C143 C 0.06739 0.23223 0.11174 0.0
H144 H 0.97089 0.20421 0.1182 0.0
H145 H 0.18303 0.42619 0.24955 0.0
H146 H 0.17026 0.33553 0.28825 0.0
H147 H 0.09499 0.2247 0.26611 0.0
H148 H 0.033 0.20454 0.20345 0.0
C149 C 0.02084 0.23854 0.12576 0.0
C150 C 0.03936 0.29515 0.1504 0.0
C151 C 0.07117 0.30557 0.18876 0.0
C152 C 0.11179 0.36895 0.20291 0.0
C153 C 0.14877 0.37891 0.23844 0.0
C154 C 0.1423 0.32714 0.26092 0.0
C155 C 0.10008 0.26473 0.2483 0.0
C156 C 0.06514 0.25385 0.21238 0.0
H157 H 0.14178 0.48985 0.25113 0.0
C158 C 0.1751 0.51766 0.22277 0.0
H159 H 0.20179 0.51766 0.15737 0.0
H160 H 0.96868 0.28572 0.08378 0.0
H161 H 0.96703 0.3724 0.05106 0.0
H162 H 0.03305 0.48175 0.07741 0.0
H163 H 0.10084 0.50509 0.13687 0.0
C164 C 0.16948 0.48899 0.186 0.0
C165 C 0.11638 0.42058 0.18 0.0
C166 C 0.07543 0.40739 0.14627 0.0
C167 C 0.03695 0.34442 0.13128 0.0
C168 C -0.00131 0.33292 0.09632 0.0
C169 C -0.0027 0.38215 0.07733 0.0
C170 C 0.03442 0.44371 0.09222 0.0
C171 C 0.07328 0.45654 0.1262 0.0
H172 H 0.9811 0.11374 0.63989 0.0
C173 C 0.94656 0.07321 0.62174 0.0
H174 H 0.8516 0.01576 0.60238 0.0
H175 H 0.89734 0.22096 0.75578 0.0
H176 H 0.927 0.16505 0.80137 0.0
H177 H 0.92268 0.07217 0.77602 0.0
H178 H 0.89214 0.03718 0.70375 0.0
C179 C 0.88592 0.05594 0.62081 0.0
C180 C 0.86794 0.09641 0.64084 0.0
C181 C 0.87871 0.11149 0.6848 0.0
C182 C 0.87585 0.16144 0.70073 0.0
C183 C 0.89488 0.18088 0.74285 0.0
C184 C 0.91239 0.14938 0.76934 0.0
C185 C 0.91042 0.09742 0.75495 0.0
C186 C 0.89345 0.07824 0.7133 0.0
H187 H 0.7864 0.19187 0.74337 0.0
C188 C 0.81259 0.23631 0.72243 0.0
H189 H 0.87883 0.28952 0.66806 0.0
H190 H 0.83993 0.07676 0.55582 0.0
H191 H 0.80305 0.12714 0.51185 0.0
H192 H 0.78658 0.20517 0.54186 0.0
H193 H 0.80828 0.23424 0.61577 0.0
C194 C 0.85377 0.2453 0.68918 0.0
C195 C 0.85606 0.19188 0.674 0.0
C196 C 0.83972 0.17272 0.63127 0.0
C197 C 0.84685 0.12589 0.61442 0.0
C198 C 0.83403 0.11082 0.57078 0.0
C199 C 0.81277 0.13944 0.54504 0.0
C200 C 0.80366 0.18346 0.5619 0.0
C201 C 0.81675 0.2 0.60443 0.0
H202 H 0.79678 0.86085 0.1136 0.0
C203 C 0.83235 0.91244 0.1161 0.0
H204 H 0.84915 -0.00281 0.1399 0.0
H205 H 0.5528 0.88124 0.12313 0.0
H206 H 0.60386 0.9552 0.05875 0.0
H207 H 0.72042 0.01116 0.03714 0.0
H208 H 0.78666 -0.00617 0.07993 0.0
C209 C 0.81527 0.9451 0.13882 0.0
C210 C 0.74608 0.91422 0.15413 0.0
C211 C 0.70801 0.92496 0.1288 0.0
C212 C 0.64061 0.89189 0.14089 0.0
C213 C 0.60394 0.904 0.11504 0.0
C214 C 0.6327 0.94662 0.07808 0.0
C215 C 0.69831 0.97819 0.06595 0.0
C216 C 0.73577 0.96773 0.09086 0.0
H217 H 0.53296 0.84029 0.24576 0.0
C218 C 0.50673 0.81002 0.2201 0.0
H219 H 0.51166 0.77639 0.15993 0.0
H220 H 0.80757 0.89162 0.21323 0.0
H221 H 0.75737 0.81935 0.2788 0.0
H222 H 0.63928 0.75675 0.29768 0.0
H223 H 0.57087 0.76659 0.25172 0.0
C224 C 0.53879 0.80622 0.18588 0.0
C225 C 0.61103 0.84755 0.17811 0.0
C226 C 0.6498 0.839 0.20455 0.0
C227 C 0.71766 0.87336 0.19287 0.0
C228 C 0.7557 0.86563 0.22033 0.0
C229 C 0.72751 0.82442 0.25798 0.0
C230 C 0.66102 0.78922 0.26864 0.0
C231 C 0.62229 0.79569 0.24211 0.0
H232 H 0.96371 0.83474 0.62111 0.0
C233 C 0.92882 0.84408 0.61273 0.0
H234 H 0.83039 0.80904 0.61837 0.0
H235 H 0.73411 0.51699 0.6368 0.0
H236 H 0.68198 0.51949 0.57421 0.0
H237 H 0.70362 0.62175 0.54489 0.0
H238 H 0.77676 0.72182 0.57822 0.0
C239 C 0.86597 0.80074 0.62671 0.0
C240 C 0.84359 0.73746 0.6492 0.0
C241 C 0.80047 0.67937 0.6293 0.0
C242 C 0.7892 0.6207 0.64558 0.0
C243 C 0.74568 0.56324 0.62515 0.0
C244 C 0.71514 0.5639 0.58932 0.0
C245 C 0.72723 0.62144 0.57287 0.0
C246 C 0.76943 0.67864 0.59239 0.0
H247 H 0.77254 0.53557 0.75351 0.0
C248 C 0.79077 0.52217 0.72695 0.0
H249 H 0.83721 0.54726 0.66394 0.0
H250 H 0.91254 0.83527 0.70239 0.0
H251 H 0.96141 0.83196 0.76693 0.0
H252 H 0.94922 0.73256 0.79179 0.0
H253 H 0.88713 0.63557 0.75299 0.0
C254 C 0.82081 0.56214 0.6908 0.0
C255 C 0.82181 0.62024 0.68126 0.0
C256 C 0.86014 0.67696 0.70364 0.0
C257 C 0.86973 0.73526 0.68812 0.0
C258 C 0.90599 0.7906 0.71191 0.0
C259 C 0.93386 0.78918 0.74909 0.0
C260 C 0.9268 0.73312 0.76318 0.0
C261 C 0.89074 0.67762 0.7407 0.0
H262 H 0.10075 0.95307 0.46666 0.0
C263 C 0.08261 0.97355 0.44621 0.0
H264 H 0.07558 -0.00116 0.38259 0.0
H265 H 0.28385 0.91558 0.39747 0.0
H266 H 0.34759 0.00938 0.43922 0.0
H267 H 0.31293 0.07984 0.45337 0.0
H268 H 0.21374 0.05625 0.42632 0.0
C269 C 0.09468 0.97932 0.4029 0.0
C270 C 0.12715 0.95178 0.38254 0.0
C271 C 0.18676 0.96805 0.39664 0.0
C272 C 0.20753 0.92846 0.38751 0.0
C273 C 0.26579 0.94407 0.4036 0.0
C274 C 0.303 -0.00205 0.42736 0.0
C275 C 0.28346 0.03758 0.43537 0.0
C276 C 0.2262 0.02319 0.42009 0.0
H277 H 0.21892 0.84338 0.297 0.0
C278 C 0.20993 0.81626 0.32748 0.0
H279 H 0.17705 0.80016 0.39363 0.0
H280 H 0.02098 0.91889 0.33982 0.0
H281 H 0.96539 0.83393 0.29066 0.0
H282 H 0.00206 0.76578 0.27428 0.0
H283 H 0.09443 0.78212 0.30711 0.0
C284 C 0.18352 0.82504 0.36257 0.0
C285 C 0.17004 0.87426 0.36285 0.0
C286 C 0.11591 0.86392 0.34325 0.0
C287 C 0.09458 0.90312 0.35292 0.0
C288 C 0.03942 0.8908 0.33378 0.0
C289 C 0.00698 0.8421 0.30542 0.0
C290 C 0.02764 0.80374 0.29618 0.0
C291 C 0.08094 0.81379 0.31517 0.0
H292 H 0.21442 0.15944 0.9519 0.0
C293 C 0.17389 0.11141 0.94471 0.0
H294 H 0.1404 0.03216 0.90705 0.0
H295 H 0.44983 0.27597 0.83362 0.0
H296 H 0.41006 0.3399 0.81831 0.0
H297 H 0.29474 0.29481 0.83535 0.0
H298 H 0.21883 0.18582 0.86885 0.0
C299 C 0.18192 0.07973 0.91414 0.0
C300 C 0.24752 0.10258 0.89469 0.0
C301 C 0.29038 0.16493 0.87281 0.0
C302 C 0.35624 0.18977 0.86103 0.0
C303 C 0.399 0.25386 0.8421 0.0
C304 C 0.37679 0.29119 0.83317 0.0
C305 C 0.31191 0.26588 0.84289 0.0
C306 C 0.26898 0.2035 0.86245 0.0
H307 H 0.46666 0.19427 0.79937 0.0
C308 C 0.48698 0.19868 0.82995 0.0
H309 H 0.46858 0.18348 0.89804 0.0
H310 H 0.17637 0.97713 0.93098 0.0
H311 H 0.21338 0.9096 0.93842 0.0
H312 H 0.32546 0.95065 0.91332 0.0
H313 H 0.40148 0.06034 0.88097 0.0
C314 C 0.44875 0.17995 0.86714 0.0
C315 C 0.37812 0.15088 0.86923 0.0
C316 C 0.33336 0.08608 0.88643 0.0
C317 C 0.26824 0.06199 0.89971 0.0
C318 C 0.22591 -0.00204 0.91912 0.0
C319 C 0.2466 0.95848 0.92381 0.0
C320 C 0.30972 0.98162 0.90979 0.0
C321 C 0.35287 0.0447 0.89147 0.0
H322 H 0.13277 0.23102 0.46656 0.0
C323 C 0.08395 0.19182 0.45948 0.0
H324 H 0.00269 0.16554 0.42614 0.0
H325 H 0.05615 0.43948 0.41821 0.0
H326 H 0.94937 0.37053 0.45691 0.0
H327 H 0.90112 0.25631 0.47821 0.0
H328 H 0.95875 0.21004 0.46069 0.0
C329 C 0.05181 0.20433 0.43288 0.0
C330 C 0.07919 0.27217 0.41656 0.0
C331 C 0.04472 0.29855 0.4273 0.0
C332 C 0.07323 0.36497 0.41597 0.0
C333 C 0.03739 0.38975 0.42677 0.0
C334 C 0.97594 0.35067 0.44887 0.0
C335 C 0.94873 0.28634 0.4608 0.0
C336 C 0.98245 0.26035 0.45034 0.0
H337 H 0.17722 0.48296 0.32041 0.0
C338 C 0.18567 0.50887 0.34935 0.0
H339 H 0.17618 0.50203 0.41773 0.0
H340 H 0.15242 0.2346 0.38216 0.0
H341 H 0.26169 0.30477 0.3471 0.0
H342 H 0.31611 0.4222 0.33501 0.0
H343 H 0.26099 0.46976 0.35663 0.0
C344 C 0.16895 0.47666 0.38862 0.0
C345 C 0.13669 0.40552 0.39471 0.0
C346 C 0.17066 0.37889 0.3831 0.0
C347 C 0.14092 0.31176 0.39265 0.0
C348 C 0.17423 0.28578 0.37813 0.0
C349 C 0.23676 0.32543 0.3576 0.0
C350 C 0.26727 0.39149 0.35062 0.0
C351 C 0.2348 0.41813 0.36299 0.0
H352 H 0.85337 0.0312 0.97143 0.0
C353 C 0.90566 0.05587 0.96862 0.0
H354 H -0.00357 0.13764 0.94158 0.0
H355 H 0.74971 0.10332 0.84141 0.0
H356 H 0.7326 0.00672 0.81503 0.0
H357 H 0.80116 0.97269 0.83578 0.0
H358 H 0.88666 0.03478 0.88371 0.0
C359 C 0.94411 0.11254 0.94495 0.0
C360 C 0.91517 0.14184 0.92336 0.0
C361 C 0.86833 0.10745 0.89298 0.0
C362 C 0.83092 0.12881 0.87936 0.0
C363 C 0.78104 0.0907 0.85176 0.0
C364 C 0.77046 0.03485 0.83648 0.0
C365 C 0.80888 0.01554 0.8483 0.0
C366 C 0.85744 0.05132 0.87608 0.0
H367 H 0.82188 0.22762 0.81969 0.0
C368 C 0.79327 0.22502 0.84798 0.0
H369 H 0.77142 0.20398 0.91563 0.0
H370 H 0.0079 0.22392 0.97656 0.0
H371 H 0.03268 0.32643 0.99721 0.0
H372 H 0.97231 0.36693 0.97002 0.0
H373 H 0.88586 0.30447 0.92281 0.0
C374 C 0.79781 0.20397 0.88696 0.0
C375 C 0.84305 0.18647 0.89436 0.0
C376 C 0.89455 0.2243 0.92102 0.0
C377 C 0.93039 0.20174 0.93582 0.0
C378 C 0.97972 0.23921 0.9639 0.0
C379 C -0.00557 0.29813 0.97603 0.0
C380 C 0.96033 0.32085 0.96083 0.0
C381 C 0.91075 0.28446 0.93382 0.0
H382 H 0.74759 0.83754 0.44696 0.0
C383 C 0.76776 0.88589 0.45683 0.0
H384 H 0.76326 0.96555 0.45287 0.0
H385 H 0.6142 0.89836 0.28578 0.0
H386 H 0.7221 0.98916 0.25752 0.0
H387 H 0.81499 0.03332 0.30222 0.0
H388 H 0.80009 0.98712 0.3753 0.0
C389 C 0.74091 0.91575 0.44543 0.0
C390 C 0.68579 0.88515 0.4174 0.0
C391 C 0.69553 0.91237 0.3746 0.0
C392 C 0.64242 0.88597 0.34836 0.0
C393 C 0.65307 0.91556 0.30645 0.0
C394 C 0.7148 0.9679 0.29 0.0
C395 C 0.76704 -0.00726 0.31516 0.0
C396 C 0.75776 0.9658 0.35709 0.0
H397 H 0.49077 0.84878 0.38176 0.0
C398 C 0.47926 0.81898 0.35447 0.0
H399 H 0.51074 0.77487 0.31486 0.0
H400 H 0.64926 0.82183 0.49843 0.0
H401 H 0.54399 0.7239 0.52312 0.0
H402 H 0.45488 0.67205 0.4749 0.0
H403 H 0.47027 0.71878 0.40198 0.0
C404 C 0.52221 0.80802 0.33988 0.0
C405 C 0.58013 0.8312 0.36444 0.0
C406 C 0.57155 0.80115 0.40607 0.0
C407 C 0.62382 0.82926 0.43311 0.0
C408 C 0.61222 0.80107 0.47578 0.0
C409 C 0.5518 0.74501 0.49052 0.0
C410 C 0.50157 0.71595 0.46344 0.0
C411 C 0.51099 0.74351 0.42173 0.0
H412 H 0.93805 0.82402 0.8929 0.0
C413 C 0.94044 0.81443 0.92693 0.0
H414 H 0.93 0.74716 0.97429 0.0
H415 H 0.74987 0.56616 0.81969 0.0
H416 H 0.68233 0.60212 0.83753 0.0
H417 H 0.71433 0.68368 0.89076 0.0
H418 H 0.81421 0.73063 0.92544 0.0
C419 C 0.92648 0.75728 0.94065 0.0
C420 C 0.90549 0.70652 0.90979 0.0
C421 C 0.84528 0.67794 0.8913 0.0
C422 C 0.82509 0.6287 0.86239 0.0
C423 C 0.76624 0.60246 0.84286 0.0
C424 C 0.72723 0.62279 0.85272 0.0
C425 C 0.74537 0.66885 0.88254 0.0
C426 C 0.80337 0.69594 0.90192 0.0
H427 H 0.76825 0.49565 0.89315 0.0
C428 C 0.78313 0.489 0.86146 0.0
H429 H 0.85147 0.53591 0.80671 0.0
H430 H 0.02691 0.75707 0.93515 0.0
H431 H 0.09424 0.72131 0.91598 0.0
H432 H 0.05628 0.63206 0.86828 0.0
H433 H 0.95086 0.57836 0.83919 0.0
C434 C 0.83183 0.54086 0.83694 0.0
C435 C 0.86274 0.60522 0.85435 0.0
C436 C 0.92456 0.63642 0.87046 0.0
C437 C 0.94607 0.68732 0.89828 0.0
C438 C 0.00792 0.71759 0.91429 0.0
C439 C 0.04707 0.69764 0.90345 0.0
C440 C 0.02569 0.64737 0.8766 0.0
C441 C 0.96509 0.61683 0.86025 0.0
loop_
_geom_bond_atom_site_label_1
_geom_bond_atom_site_label_2
_geom_bond_distance
_geom_bond_site_symmetry_2
_ccdc_geom_bond_type
Tb0 O3 2.453 1_545 S
Tb0 O4 2.596 1_545 S
Tb0 O5 2.374 1_554 S
Tb0 O13 2.343 1_454 S
Tb0 O15 2.353 1_455 S
Tb0 O17 2.427 . S
Tb0 O18 2.513 . S
C1 O5 1.251 . S
C1 O7 1.263 . S
Tb2 O4 2.343 1_656 S
Tb2 O7 2.353 1_665 S
Tb2 O10 2.427 . S
Tb2 O11 2.513 . S
Tb2 O12 2.453 1_565 S
Tb2 O13 2.596 1_565 S
Tb2 O14 2.374 1_556 S
O3 Tb0 2.453 1_565 S
O3 C19 1.245 . S
O4 Tb0 2.596 1_565 S
O4 Tb2 2.343 1_454 S
O4 C19 1.259 . S
O5 Tb0 2.374 1_556 S
O5 C1 1.251 . S
C6 O10 1.275 . S
C6 O11 1.246 . S
O7 C1 1.263 . S
O7 Tb2 2.353 1_445 S
C8 O12 1.245 . S
C8 O13 1.259 . S
C9 O14 1.250 . S
C9 O15 1.263 1_565 S
O10 Tb2 2.427 . S
O10 C6 1.275 . S
O11 Tb2 2.513 . S
O11 C6 1.246 . S
O12 Tb2 2.453 1_545 S
O12 C8 1.245 . S
O13 Tb0 2.343 1_656 S
O13 Tb2 2.596 1_545 S
O13 C8 1.259 . S
O14 Tb2 2.374 1_554 S
O14 C9 1.250 . S
O15 Tb0 2.353 1_655 S
O15 C9 1.263 1_545 S
C16 O17 1.275 . S
C16 O18 1.246 . S
O17 Tb0 2.427 . S
O17 C16 1.275 . S
O18 Tb0 2.513 . S
O18 C16 1.246 . S
C19 O3 1.245 . S
C19 O4 1.259 . S
Tb20 O23 2.453 1_655 S
Tb20 O24 2.596 1_665 S
Tb20 O25 2.374 . S
Tb20 O33 2.343 1_565 S
Tb20 O35 2.353 1_665 S
Tb20 O37 2.427 1_565 S
Tb20 O38 2.513 . S
C21 O25 1.251 . S
C21 O27 1.263 . S
Tb22 O24 2.343 . S
Tb22 O27 2.353 1_445 S
Tb22 O30 2.427 . S
Tb22 O31 2.513 . S
Tb22 O32 2.453 1_455 S
Tb22 O33 2.596 1_455 S
Tb22 O34 2.374 . S
O23 Tb20 2.453 1_455 S
O23 C39 1.245 . S
O24 Tb20 2.596 1_445 S
O24 Tb22 2.343 . S
O24 C39 1.259 1_545 S
O25 Tb20 2.374 . S
O25 C21 1.251 . S
C26 O30 1.275 . S
C26 O31 1.246 . S
O27 C21 1.263 . S
O27 Tb22 2.353 1_665 S
C28 O32 1.245 . S
C28 O33 1.259 . S
C29 O34 1.250 . S
C29 O35 1.263 . S
O30 Tb22 2.427 . S
O30 C26 1.275 . S
O31 Tb22 2.513 . S
O31 C26 1.246 . S
O32 Tb22 2.453 1_655 S
O32 C28 1.245 . S
O33 Tb20 2.343 1_545 S
O33 Tb22 2.596 1_655 S
O33 C28 1.259 . S
O34 Tb22 2.374 . S
O34 C29 1.250 . S
O35 Tb20 2.353 1_445 S
O35 C29 1.263 . S
C36 O37 1.275 1_565 S
C36 O38 1.246 . S
O37 Tb20 2.427 1_545 S
O37 C36 1.275 1_545 S
O38 Tb20 2.513 . S
O38 C36 1.246 . S
C39 O23 1.245 . S
C39 O24 1.259 1_565 S
Zn40 O46 1.920 . S
Zn40 O52 1.898 . S
Zn40 O55 1.905 . S
Zn41 O49 1.905 . S
Zn41 O50 1.898 . S
Zn41 O58 1.920 . S
Zn42 O45 2.080 . S
Zn42 O48 2.114 . S
Zn42 O51 2.120 . S
Zn42 O53 2.120 . S
Zn42 O54 2.114 . S
Zn42 O57 2.080 . S
C43 O48 1.166 . S
C43 O49 1.182 . S
C44 O50 1.167 . S
C44 O51 1.299 . S
O45 Zn42 2.080 . S
O45 C59 1.305 . S
O46 Zn40 1.920 . S
O46 C59 1.234 . S
C47 O52 1.167 . S
C47 O53 1.299 . S
O48 Zn42 2.114 . S
O48 C43 1.166 . S
O49 Zn41 1.905 . S
O49 C43 1.182 . S
O50 Zn41 1.898 . S
O50 C44 1.167 . S
O51 Zn42 2.120 . S
O51 C44 1.299 . S
O52 Zn40 1.898 . S
O52 C47 1.167 . S
O53 Zn42 2.120 . S
O53 C47 1.299 . S
O54 Zn42 2.114 . S
O54 C56 1.166 . S
O55 Zn40 1.905 . S
O55 C56 1.182 . S
C56 O54 1.166 . S
C56 O55 1.182 . S
O57 Zn42 2.080 . S
O57 C60 1.305 . S
O58 Zn41 1.920 . S
O58 C60 1.234 . S
C59 O45 1.305 . S
C59 O46 1.234 . S
C60 O57 1.305 . S
C60 O58 1.234 . S
Zn61 O67 1.920 . S
Zn61 O73 1.898 . S
Zn61 O76 1.905 . S
Zn62 O70 1.905 . S
Zn62 O71 1.898 . S
Zn62 O79 1.920 . S
Zn63 O66 2.080 . S
Zn63 O69 2.114 . S
Zn63 O72 2.120 . S
Zn63 O74 2.120 . S
Zn63 O75 2.114 . S
Zn63 O78 2.080 . S
C64 O69 1.166 . S
C64 O70 1.182 . S
C65 O71 1.167 . S
C65 O72 1.299 . S
O66 Zn63 2.080 . S
O66 C80 1.305 . S
O67 Zn61 1.920 . S
O67 C80 1.234 . S
C68 O73 1.167 . S
C68 O74 1.299 . S
O69 Zn63 2.114 . S
O69 C64 1.166 . S
O70 Zn62 1.905 . S
O70 C64 1.182 . S
O71 Zn62 1.898 . S
O71 C65 1.167 . S
O72 Zn63 2.120 . S
O72 C65 1.299 . S
O73 Zn61 1.898 . S
O73 C68 1.167 . S
O74 Zn63 2.120 . S
O74 C68 1.299 . S
O75 Zn63 2.114 . S
O75 C77 1.166 . S
O76 Zn61 1.905 . S
O76 C77 1.182 . S
C77 O75 1.166 . S
C77 O76 1.182 . S
O78 Zn63 2.080 . S
O78 C81 1.305 . S
O79 Zn62 1.920 . S
O79 C81 1.234 . S
C80 O66 1.305 . S
C80 O67 1.234 . S
C81 O78 1.305 . S
C81 O79 1.234 . S
H82 C83 0.951 . S
C83 H82 0.951 . S
C83 C89 1.265 . S
H84 C89 0.950 . S
H85 C93 0.949 . S
H86 C94 0.950 . S
H87 C95 0.951 1_655 S
H88 C96 0.950 1_655 S
C89 C83 1.265 . S
C89 H84 0.950 . S
C89 C90 1.478 . S
C90 C89 1.478 . S
C90 C91 1.397 . S
C90 C107 1.394 . S
C91 C90 1.397 . S
C91 C92 1.438 . S
C91 C96 1.429 . S
C92 C91 1.438 . S
C92 C93 1.428 . S
C92 C105 1.394 . S
C93 H85 0.949 . S
C93 C92 1.428 . S
C93 C94 1.345 . S
C94 H86 0.950 . S
C94 C93 1.345 . S
C94 C95 1.424 . S
C95 H87 0.951 1_455 S
C95 C94 1.424 . S
C95 C96 1.347 . S
C96 H88 0.950 1_455 S
C96 C91 1.429 . S
C96 C95 1.347 . S
H97 C98 0.951 . S
C98 H97 0.951 . S
C98 C104 1.265 . S
H99 C104 0.950 . S
H100 C108 0.949 . S
H101 C109 0.950 . S
H102 C110 0.951 1_545 S
H103 C111 0.951 . S
C104 C98 1.265 . S
C104 H99 0.950 . S
C104 C105 1.478 . S
C105 C92 1.394 . S
C105 C104 1.478 . S
C105 C106 1.397 . S
C106 C105 1.397 . S
C106 C107 1.438 . S
C106 C111 1.429 . S
C107 C90 1.394 . S
C107 C106 1.438 . S
C107 C108 1.428 . S
C108 H100 0.949 . S
C108 C107 1.428 . S
C108 C109 1.345 1_565 S
C109 H101 0.950 . S
C109 C108 1.345 1_545 S
C109 C110 1.424 1_545 S
C110 H102 0.951 1_565 S
C110 C109 1.424 1_565 S
C110 C111 1.347 . S
C111 H103 0.951 . S
C111 C106 1.429 . S
C111 C110 1.347 . S
H112 C113 0.951 . S
C113 H112 0.951 . S
C113 C119 1.265 . S
H114 C119 0.950 . S
H115 C123 0.949 . S
H116 C124 0.950 . S
H117 C125 0.951 . S
H118 C126 0.951 . S
C119 C113 1.265 . S
C119 H114 0.950 . S
C119 C120 1.478 . S
C120 C119 1.478 . S
C120 C121 1.397 . S
C120 C137 1.394 . S
C121 C120 1.397 . S
C121 C122 1.438 . S
C121 C126 1.429 . S
C122 C121 1.438 . S
C122 C123 1.428 . S
C122 C135 1.394 . S
C123 H115 0.949 . S
C123 C122 1.428 . S
C123 C124 1.345 . S
C124 H116 0.950 . S
C124 C123 1.345 . S
C124 C125 1.424 . S
C125 H117 0.951 . S
C125 C124 1.424 . S
C125 C126 1.347 . S
C126 H118 0.951 . S
C126 C121 1.429 . S
C126 C125 1.347 . S
H127 C128 0.951 . S
C128 H127 0.951 . S
C128 C134 1.265 . S
H129 C134 0.950 . S
H130 C138 0.949 . S
H131 C139 0.950 1_565 S
H132 C140 0.951 . S
H133 C141 0.951 . S
C134 C128 1.265 . S
C134 H129 0.950 . S
C134 C135 1.478 . S
C135 C122 1.394 . S
C135 C134 1.478 . S
C135 C136 1.397 . S
C136 C135 1.397 . S
C136 C137 1.438 . S
C136 C141 1.429 . S
C137 C120 1.394 . S
C137 C136 1.438 . S
C137 C138 1.428 . S
C138 H130 0.949 . S
C138 C137 1.428 . S
C138 C139 1.345 . S
C139 H131 0.950 1_545 S
C139 C138 1.345 . S
C139 C140 1.424 . S
C140 H132 0.951 . S
C140 C139 1.424 . S
C140 C141 1.347 . S
C141 H133 0.951 . S
C141 C136 1.429 . S
C141 C140 1.347 . S
H142 C143 0.951 . S
C143 H142 0.951 . S
C143 C149 1.265 . S
H144 C149 0.950 . S
H145 C153 0.949 . S
H146 C154 0.950 . S
H147 C155 0.951 . S
H148 C156 0.951 . S
C149 C143 1.265 . S
C149 H144 0.950 . S
C149 C150 1.478 . S
C150 C149 1.478 . S
C150 C151 1.397 . S
C150 C167 1.394 . S
C151 C150 1.397 . S
C151 C152 1.438 . S
C151 C156 1.429 . S
C152 C151 1.438 . S
C152 C153 1.428 . S
C152 C165 1.394 . S
C153 H145 0.949 . S
C153 C152 1.428 . S
C153 C154 1.345 . S
C154 H146 0.950 . S
C154 C153 1.345 . S
C154 C155 1.424 . S
C155 H147 0.951 . S
C155 C154 1.424 . S
C155 C156 1.347 . S
C156 H148 0.951 . S
C156 C151 1.429 . S
C156 C155 1.347 . S
H157 C158 0.951 . S
C158 H157 0.951 . S
C158 C164 1.265 . S
H159 C164 0.950 . S
H160 C168 0.949 . S
H161 C169 0.950 1_556 S
H162 C170 0.951 . S
H163 C171 0.951 . S
C164 C158 1.265 . S
C164 H159 0.950 . S
C164 C165 1.478 . S
C165 C152 1.394 . S
C165 C164 1.478 . S
C165 C166 1.397 . S
C166 C165 1.397 . S
C166 C167 1.438 . S
C166 C171 1.429 . S
C167 C150 1.394 . S
C167 C166 1.438 . S
C167 C168 1.428 . S
C168 H160 0.949 . S
C168 C167 1.428 . S
C168 C169 1.345 . S
C169 H161 0.950 1_554 S
C169 C168 1.345 . S
C169 C170 1.424 . S
C170 H162 0.951 . S
C170 C169 1.424 . S
C170 C171 1.347 . S
C171 H163 0.951 . S
C171 C166 1.429 . S
C171 C170 1.347 . S
H172 C173 0.951 . S
C173 H172 0.951 . S
C173 C179 1.265 . S
H174 C179 0.950 . S
H175 C183 0.949 . S
H176 C184 0.950 . S
H177 C185 0.951 1_565 S
H178 C186 0.951 . S
C179 C173 1.265 . S
C179 H174 0.950 . S
C179 C180 1.478 . S
C180 C179 1.478 . S
C180 C181 1.397 . S
C180 C197 1.394 . S
C181 C180 1.397 . S
C181 C182 1.438 . S
C181 C186 1.429 . S
C182 C181 1.438 . S
C182 C183 1.428 . S
C182 C195 1.394 . S
C183 H175 0.949 . S
C183 C182 1.428 . S
C183 C184 1.345 . S
C184 H176 0.950 . S
C184 C183 1.345 . S
C184 C185 1.424 . S
C185 H177 0.951 1_545 S
C185 C184 1.424 . S
C185 C186 1.347 . S
C186 H178 0.951 . S
C186 C181 1.429 . S
C186 C185 1.347 . S
H187 C188 0.951 . S
C188 H187 0.951 . S
C188 C194 1.265 . S
H189 C194 0.950 . S
H190 C198 0.949 . S
H191 C199 0.950 . S
H192 C200 0.951 . S
H193 C201 0.951 . S
C194 C188 1.265 . S
C194 H189 0.950 . S
C194 C195 1.478 . S
C195 C182 1.394 . S
C195 C194 1.478 . S
C195 C196 1.397 . S
C196 C195 1.397 . S
C196 C197 1.438 . S
C196 C201 1.429 . S
C197 C180 1.394 . S
C197 C196 1.438 . S
C197 C198 1.428 . S
C198 H190 0.949 . S
C198 C197 1.428 . S
C198 C199 1.345 . S
C199 H191 0.950 . S
C199 C198 1.345 . S
C199 C200 1.424 . S
C200 H192 0.951 . S
C200 C199 1.424 . S
C200 C201 1.347 . S
C201 H193 0.951 . S
C201 C196 1.429 . S
C201 C200 1.347 . S
H202 C203 0.951 . S
C203 H202 0.951 . S
C203 C209 1.265 . S
H204 C209 0.950 1_545 S
H205 C213 0.949 . S
H206 C214 0.950 . S
H207 C215 0.968 . S
H208 C216 0.951 . S
C209 C203 1.265 . S
C209 H204 0.950 1_565 S
C209 C210 1.478 . S
C210 C209 1.478 . S
C210 C211 1.397 . S
C210 C227 1.394 . S
C211 C210 1.397 . S
C211 C212 1.438 . S
C211 C216 1.429 . S
C212 C211 1.438 . S
C212 C213 1.428 . S
C212 C225 1.394 . S
C213 H205 0.949 . S
C213 C212 1.428 . S
C213 C214 1.345 . S
C214 H206 0.950 . S
C214 C213 1.345 . S
C214 C215 1.424 . S
C215 H207 0.968 . S
C215 C214 1.424 . S
C215 C216 1.347 . S
C216 H208 0.951 . S
C216 C211 1.429 . S
C216 C215 1.347 . S
H217 C218 0.951 . S
C218 H217 0.951 . S
C218 C224 1.265 . S
H219 C224 0.950 . S
H220 C228 0.949 . S
H221 C229 0.950 . S
H222 C230 0.951 . S
H223 C231 0.951 . S
C224 C218 1.265 . S
C224 H219 0.950 . S
C224 C225 1.478 . S
C225 C212 1.394 . S
C225 C224 1.478 . S
C225 C226 1.397 . S
C226 C225 1.397 . S
C226 C227 1.438 . S
C226 C231 1.429 . S
C227 C210 1.394 . S
C227 C226 1.438 . S
C227 C228 1.428 . S
C228 H220 0.949 . S
C228 C227 1.428 . S
C228 C229 1.345 . S
C229 H221 0.950 . S
C229 C228 1.345 . S
C229 C230 1.424 . S
C230 H222 0.951 . S
C230 C229 1.424 . S
C230 C231 1.347 . S
C231 H223 0.951 . S
C231 C226 1.429 . S
C231 C230 1.347 . S
H232 C233 0.951 . S
C233 H232 0.951 . S
C233 C239 1.265 . S
H234 C239 0.950 . S
H235 C243 0.949 . S
H236 C244 0.950 . S
H237 C245 0.951 . S
H238 C246 0.951 . S
C239 C233 1.265 . S
C239 H234 0.950 . S
C239 C240 1.478 . S
C240 C239 1.478 . S
C240 C241 1.397 . S
C240 C257 1.394 . S
C241 C240 1.397 . S
C241 C242 1.438 . S
C241 C246 1.429 . S
C242 C241 1.438 . S
C242 C243 1.428 . S
C242 C255 1.394 . S
C243 H235 0.949 . S
C243 C242 1.428 . S
C243 C244 1.345 . S
C244 H236 0.950 . S
C244 C243 1.345 . S
C244 C245 1.424 . S
C245 H237 0.951 . S
C245 C244 1.424 . S
C245 C246 1.347 . S
C246 H238 0.951 . S
C246 C241 1.429 . S
C246 C245 1.347 . S
H247 C248 0.951 . S
C248 H247 0.951 . S
C248 C254 1.265 . S
H249 C254 0.950 . S
H250 C258 0.949 . S
H251 C259 0.950 . S
H252 C260 0.951 . S
H253 C261 0.951 . S
C254 C248 1.265 . S
C254 H249 0.950 . S
C254 C255 1.478 . S
C255 C242 1.394 . S
C255 C254 1.478 . S
C255 C256 1.397 . S
C256 C255 1.397 . S
C256 C257 1.438 . S
C256 C261 1.429 . S
C257 C240 1.394 . S
C257 C256 1.438 . S
C257 C258 1.428 . S
C258 H250 0.949 . S
C258 C257 1.428 . S
C258 C259 1.345 . S
C259 H251 0.950 . S
C259 C258 1.345 . S
C259 C260 1.424 . S
C260 H252 0.951 . S
C260 C259 1.424 . S
C260 C261 1.347 . S
C261 H253 0.951 . S
C261 C256 1.429 . S
C261 C260 1.347 . S
H262 C263 0.951 . S
C263 H262 0.951 . S
C263 C269 1.265 . S
H264 C269 0.950 1_545 S
H265 C273 0.949 . S
H266 C274 0.950 . S
H267 C275 0.951 . S
H268 C276 0.951 . S
C269 C263 1.265 . S
C269 H264 0.950 1_565 S
C269 C270 1.478 . S
C270 C269 1.478 . S
C270 C271 1.397 . S
C270 C287 1.394 . S
C271 C270 1.397 . S
C271 C272 1.438 . S
C271 C276 1.429 . S
C272 C271 1.438 . S
C272 C273 1.428 . S
C272 C285 1.394 . S
C273 H265 0.949 . S
C273 C272 1.428 . S
C273 C274 1.345 . S
C274 H266 0.950 . S
C274 C273 1.345 . S
C274 C275 1.424 . S
C275 H267 0.951 . S
C275 C274 1.424 . S
C275 C276 1.347 . S
C276 H268 0.951 . S
C276 C271 1.429 . S
C276 C275 1.347 . S
H277 C278 0.951 . S
C278 H277 0.951 . S
C278 C284 1.265 . S
H279 C284 0.950 . S
H280 C288 0.949 . S
H281 C289 0.950 . S
H282 C290 0.951 . S
H283 C291 0.951 . S
C284 C278 1.265 . S
C284 H279 0.950 . S
C284 C285 1.478 . S
C285 C272 1.394 . S
C285 C284 1.478 . S
C285 C286 1.397 . S
C286 C285 1.397 . S
C286 C287 1.438 . S
C286 C291 1.429 . S
C287 C270 1.394 . S
C287 C286 1.438 . S
C287 C288 1.428 . S
C288 H280 0.949 . S
C288 C287 1.428 . S
C288 C289 1.345 . S
C289 H281 0.950 . S
C289 C288 1.345 . S
C289 C290 1.424 . S
C290 H282 0.951 . S
C290 C289 1.424 . S
C290 C291 1.347 . S
C291 H283 0.951 . S
C291 C286 1.429 . S
C291 C290 1.347 . S
H292 C293 0.951 . S
C293 H292 0.951 . S
C293 C299 1.265 . S
H294 C299 0.950 . S
H295 C303 0.949 . S
H296 C304 0.950 . S
H297 C305 0.951 . S
H298 C306 0.951 . S
C299 C293 1.265 . S
C299 H294 0.950 . S
C299 C300 1.478 . S
C300 C299 1.478 . S
C300 C301 1.397 . S
C300 C317 1.394 . S
C301 C300 1.397 . S
C301 C302 1.438 . S
C301 C306 1.429 . S
C302 C301 1.438 . S
C302 C303 1.428 . S
C302 C315 1.394 . S
C303 H295 0.949 . S
C303 C302 1.428 . S
C303 C304 1.345 . S
C304 H296 0.950 . S
C304 C303 1.345 . S
C304 C305 1.424 . S
C305 H297 0.951 . S
C305 C304 1.424 . S
C305 C306 1.347 . S
C306 H298 0.951 . S
C306 C301 1.429 . S
C306 C305 1.347 . S
H307 C308 0.951 . S
C308 H307 0.951 . S
C308 C314 1.265 . S
H309 C314 0.950 . S
H310 C318 0.949 . S
H311 C319 0.950 1_565 S
H312 C320 0.951 . S
H313 C321 0.951 . S
C314 C308 1.265 . S
C314 H309 0.950 . S
C314 C315 1.478 . S
C315 C302 1.394 . S
C315 C314 1.478 . S
C315 C316 1.397 . S
C316 C315 1.397 . S
C316 C317 1.438 . S
C316 C321 1.429 . S
C317 C300 1.394 . S
C317 C316 1.438 . S
C317 C318 1.428 . S
C318 H310 0.949 . S
C318 C317 1.428 . S
C318 C319 1.345 . S
C319 H311 0.950 1_545 S
C319 C318 1.345 . S
C319 C320 1.424 . S
C320 H312 0.951 . S
C320 C319 1.424 . S
C320 C321 1.347 . S
C321 H313 0.951 . S
C321 C316 1.429 . S
C321 C320 1.347 . S
H322 C323 0.951 . S
C323 H322 0.951 . S
C323 C329 1.265 . S
H324 C329 0.950 . S
H325 C333 0.949 . S
H326 C334 0.950 . S
H327 C335 0.951 . S
H328 C336 0.951 . S
C329 C323 1.265 . S
C329 H324 0.950 . S
C329 C330 1.478 . S
C330 C329 1.478 . S
C330 C331 1.397 . S
C330 C347 1.394 . S
C331 C330 1.397 . S
C331 C332 1.438 . S
C331 C336 1.429 . S
C332 C331 1.438 . S
C332 C333 1.428 . S
C332 C345 1.394 . S
C333 H325 0.949 . S
C333 C332 1.428 . S
C333 C334 1.345 . S
C334 H326 0.950 . S
C334 C333 1.345 . S
C334 C335 1.424 . S
C335 H327 0.951 . S
C335 C334 1.424 . S
C335 C336 1.347 . S
C336 H328 0.951 . S
C336 C331 1.429 . S
C336 C335 1.347 . S
H337 C338 0.951 . S
C338 H337 0.951 . S
C338 C344 1.265 . S
H339 C344 0.950 . S
H340 C348 0.949 . S
H341 C349 0.950 . S
H342 C350 0.951 . S
H343 C351 0.951 . S
C344 C338 1.265 . S
C344 H339 0.950 . S
C344 C345 1.478 . S
C345 C332 1.394 . S
C345 C344 1.478 . S
C345 C346 1.397 . S
C346 C345 1.397 . S
C346 C347 1.438 . S
C346 C351 1.429 . S
C347 C330 1.394 . S
C347 C346 1.438 . S
C347 C348 1.428 . S
C348 H340 0.949 . S
C348 C347 1.428 . S
C348 C349 1.345 . S
C349 H341 0.950 . S
C349 C348 1.345 . S
C349 C350 1.424 . S
C350 H342 0.951 . S
C350 C349 1.424 . S
C350 C351 1.347 . S
C351 H343 0.951 . S
C351 C346 1.429 . S
C351 C350 1.347 . S
H352 C353 0.951 . S
C353 H352 0.951 . S
C353 C359 1.265 . S
H354 C359 0.950 . S
H355 C363 0.949 . S
H356 C364 0.950 . S
H357 C365 0.951 1_565 S
H358 C366 0.951 . S
C359 C353 1.265 . S
C359 H354 0.950 . S
C359 C360 1.478 . S
C360 C359 1.478 . S
C360 C361 1.397 . S
C360 C377 1.394 . S
C361 C360 1.397 . S
C361 C362 1.438 . S
C361 C366 1.429 . S
C362 C361 1.438 . S
C362 C363 1.428 . S
C362 C375 1.394 . S
C363 H355 0.949 . S
C363 C362 1.428 . S
C363 C364 1.345 . S
C364 H356 0.950 . S
C364 C363 1.345 . S
C364 C365 1.424 . S
C365 H357 0.951 1_545 S
C365 C364 1.424 . S
C365 C366 1.347 . S
C366 H358 0.951 . S
C366 C361 1.429 . S
C366 C365 1.347 . S
H367 C368 0.951 . S
C368 H367 0.951 . S
C368 C374 1.265 . S
H369 C374 0.950 . S
H370 C378 0.949 . S
H371 C379 0.950 . S
H372 C380 0.951 . S
H373 C381 0.951 . S
C374 C368 1.265 . S
C374 H369 0.950 . S
C374 C375 1.478 . S
C375 C362 1.394 . S
C375 C374 1.478 . S
C375 C376 1.397 . S
C376 C375 1.397 . S
C376 C377 1.438 . S
C376 C381 1.429 . S
C377 C360 1.394 . S
C377 C376 1.438 . S
C377 C378 1.428 . S
C378 H370 0.949 . S
C378 C377 1.428 . S
C378 C379 1.345 . S
C379 H371 0.950 . S
C379 C378 1.345 . S
C379 C380 1.424 . S
C380 H372 0.951 . S
C380 C379 1.424 . S
C380 C381 1.347 . S
C381 H373 0.951 . S
C381 C376 1.429 . S
C381 C380 1.347 . S
H382 C383 0.951 . S
C383 H382 0.951 . S
C383 C389 1.265 . S
H384 C389 0.950 . S
H385 C393 0.949 . S
H386 C394 0.950 1_545 S
H387 C395 0.951 . S
H388 C396 0.951 1_545 S
C389 C383 1.265 . S
C389 H384 0.950 . S
C389 C390 1.478 . S
C390 C389 1.478 . S
C390 C391 1.397 . S
C390 C407 1.394 . S
C391 C390 1.397 . S
C391 C392 1.438 . S
C391 C396 1.429 . S
C392 C391 1.438 . S
C392 C393 1.428 . S
C392 C405 1.394 . S
C393 H385 0.949 . S
C393 C392 1.428 . S
C393 C394 1.345 . S
C394 H386 0.950 1_565 S
C394 C393 1.345 . S
C394 C395 1.424 1_565 S
C395 H387 0.951 . S
C395 C394 1.424 1_545 S
C395 C396 1.347 1_545 S
C396 H388 0.951 1_565 S
C396 C391 1.429 . S
C396 C395 1.347 1_565 S
H397 C398 0.951 . S
C398 H397 0.951 . S
C398 C404 1.265 . S
H399 C404 0.950 . S
H400 C408 0.949 . S
H401 C409 0.950 . S
H402 C410 0.951 . S
H403 C411 0.951 . S
C404 C398 1.265 . S
C404 H399 0.950 . S
C404 C405 1.478 . S
C405 C392 1.394 . S
C405 C404 1.478 . S
C405 C406 1.397 . S
C406 C405 1.397 . S
C406 C407 1.438 . S
C406 C411 1.429 . S
C407 C390 1.394 . S
C407 C406 1.438 . S
C407 C408 1.428 . S
C408 H400 0.949 . S
C408 C407 1.428 . S
C408 C409 1.345 . S
C409 H401 0.950 . S
C409 C408 1.345 . S
C409 C410 1.424 . S
C410 H402 0.951 . S
C410 C409 1.424 . S
C410 C411 1.347 . S
C411 H403 0.951 . S
C411 C406 1.429 . S
C411 C410 1.347 . S
H412 C413 0.951 . S
C413 H412 0.951 . S
C413 C419 1.265 . S
H414 C419 0.950 . S
H415 C423 0.949 . S
H416 C424 0.950 . S
H417 C425 0.951 1_554 S
H418 C426 0.951 . S
C419 C413 1.265 . S
C419 H414 0.950 . S
C419 C420 1.478 . S
C420 C419 1.478 . S
C420 C421 1.397 . S
C420 C437 1.394 . S
C421 C420 1.397 . S
C421 C422 1.438 . S
C421 C426 1.429 . S
C422 C421 1.438 . S
C422 C423 1.428 . S
C422 C435 1.394 . S
C423 H415 0.949 . S
C423 C422 1.428 . S
C423 C424 1.345 . S
C424 H416 0.950 . S
C424 C423 1.345 . S
C424 C425 1.424 . S
C425 H417 0.951 1_556 S
C425 C424 1.424 . S
C425 C426 1.347 . S
C426 H418 0.951 . S
C426 C421 1.429 . S
C426 C425 1.347 . S
H427 C428 0.951 . S
C428 H427 0.951 . S
C428 C434 1.265 . S
H429 C434 0.950 . S
H430 C438 0.949 . S
H431 C439 0.950 1_455 S
H432 C440 0.951 . S
H433 C441 0.951 . S
C434 C428 1.265 . S
C434 H429 0.950 . S
C434 C435 1.478 . S
C435 C422 1.394 . S
C435 C434 1.478 . S
C435 C436 1.397 . S
C436 C435 1.397 . S
C436 C437 1.438 . S
C436 C441 1.429 . S
C437 C420 1.394 . S
C437 C436 1.438 . S
C437 C438 1.428 . S
C438 H430 0.949 . S
C438 C437 1.428 . S
C438 C439 1.345 . S
C439 H431 0.950 1_655 S
C439 C438 1.345 . S
C439 C440 1.424 . S
C440 H432 0.951 . S
C440 C439 1.424 . S
C440 C441 1.347 . S
C441 H433 0.951 . S
C441 C436 1.429 . S
C441 C440 1.347 . S
C83 C19 1.491 . S
C98 C59 1.498 . S
C113 C26 1.190 . S
C128 C65 1.127 . S
C143 C16 1.138 . S
C158 C56 1.147 . S
C173 C28 1.471 . S
C188 C81 1.450 . S
C203 C9 1.803 . S
C218 C47 1.694 . S
C248 C64 1.581 . S
C233 C21 1.680 . S
C263 C39 1.440 . S
C278 C60 1.449 . S
C308 C77 1.624 . S
C293 C1 1.672 . S
C338 C44 1.692 . S
C323 C29 1.802 . S
C368 C80 1.543 . S
C353 C8 1.557 . S
C398 C43 1.077 . S
C383 C36 1.113 . S
C428 C68 1.148 . S
C413 C6 1.189 . S
