# Generated by pormake.
# Topology tsx, (6,3)-cn, num edge types: 1
# Building blocks:
#     Node 0, Type 0, BuildingBlock: VOLQOD_clean_sbu_1, # of connection points: 6
#     Node 1, Type 0, BuildingBlock: VOLQOD_clean_sbu_1, # of connection points: 6
#     Node 2, Type 1, BuildingBlock: OLANEW_clean_sbu_2, # of connection points: 3
#     Node 3, Type 1, BuildingBlock: OLANEW_clean_sbu_2, # of connection points: 3
#     Node 4, Type 1, BuildingBlock: OLANEW_clean_sbu_2, # of connection points: 3
#     Node 5, Type 1, BuildingBlock: OLANEW_clean_sbu_2, # of connection points: 3
#     Edge 6, Type (0, 1), BuildingBlock: XIVTED_clean_linker_0, # of connection points: 2
#     Edge 7, Type (0, 1), BuildingBlock: XIVTED_clean_linker_0, # of connection points: 2
#     Edge 8, Type (0, 1), BuildingBlock: XIVTED_clean_linker_0, # of connection points: 2
#     Edge 9, Type (0, 1), BuildingBlock: XIVTED_clean_linker_0, # of connection points: 2
#     Edge 10, Type (0, 1), BuildingBlock: XIVTED_clean_linker_0, # of connection points: 2
#     Edge 11, Type (0, 1), BuildingBlock: XIVTED_clean_linker_0, # of connection points: 2
#     Edge 12, Type (0, 1), BuildingBlock: XIVTED_clean_linker_0, # of connection points: 2
#     Edge 13, Type (0, 1), BuildingBlock: XIVTED_clean_linker_0, # of connection points: 2
#     Edge 14, Type (0, 1), BuildingBlock: XIVTED_clean_linker_0, # of connection points: 2
#     Edge 15, Type (0, 1), BuildingBlock: XIVTED_clean_linker_0, # of connection points: 2
#     Edge 16, Type (0, 1), BuildingBlock: XIVTED_clean_linker_0, # of connection points: 2
#     Edge 17, Type (0, 1), BuildingBlock: XIVTED_clean_linker_0, # of connection points: 2
# Relax obj value: 0.029
# Max RMSD: 0.075
# Mean RMSD: 0.070
data_MOF--net-tsx--node1-VOLQOD_clean_sbu_1--node2-OLANEW_clean_sbu_2--edge1-XIVTED_clean_linker_0
_symmetry_space_group_name_H-M    P1
_symmetry_Int_Tables_number       1
_symmetry_cell_setting            triclinic
loop_
_symmetry_equiv_pos_as_xyz
'x, y, z'
_cell_length_a     23.801744
_cell_length_b     23.992677
_cell_length_c     40.22514
_cell_angle_alpha  95.682315
_cell_angle_beta   90.712401
_cell_angle_gamma 90.156111
loop_
_atom_site_label
_atom_site_type_symbol
_atom_site_fract_x
_atom_site_fract_y
_atom_site_fract_z
_atom_type_partial_charge
O0 O 0.03246 0.00971 0.06573 0.0
Zn1 Zn 0.04984 0.0046 0.0168 0.0
O2 O -0.01887 0.01019 -0.00983 0.0
Zn3 Zn 0.97139 0.94202 0.95923 0.0
Zn4 Zn 0.91611 0.01984 0.01959 0.0
Zn5 Zn -0.01219 0.07533 0.96503 0.0
O6 O 0.9732 0.95979 0.91084 0.0
O7 O -0.01149 0.05162 0.91582 0.0
O8 O 0.0886 0.93112 0.00526 0.0
O9 O 0.03427 0.88794 0.96544 0.0
O10 O 0.8999 0.90052 0.96872 0.0
O11 O 0.86409 0.95351 0.01166 0.0
O12 O 0.871 0.08859 0.01083 0.0
O13 O 0.10498 0.06602 0.00964 0.0
O14 O 0.9225 0.12716 0.97347 0.0
O15 O 0.05924 0.11878 0.97608 0.0
C16 C -0.01223 0.01768 0.08258 0.0
C17 C -0.01825 0.00538 0.89778 0.0
C18 C 0.86234 0.90987 -0.00911 0.0
C19 C 0.07743 0.8889 -0.01549 0.0
C20 C 0.87926 0.12714 -0.00823 0.0
C21 C 0.10253 0.10891 -0.00659 0.0
O22 O 0.94035 0.02378 0.06828 0.0
O23 O 0.52668 0.48364 0.56088 0.0
Zn24 Zn 0.5478 0.47977 0.51257 0.0
O25 O 0.48224 0.4927 0.48465 0.0
Zn26 Zn 0.46744 0.42546 0.45379 0.0
Zn27 Zn 0.41679 0.50993 0.51286 0.0
Zn28 Zn 0.49757 0.55647 0.45954 0.0
O29 O 0.47111 0.44317 0.40546 0.0
O30 O 0.49924 0.53203 0.41045 0.0
O31 O 0.58244 0.40443 0.49995 0.0
O32 O 0.52646 0.36681 0.45923 0.0
O33 O 0.39299 0.38967 0.46385 0.0
O34 O 0.35983 0.4476 0.50549 0.0
O35 O 0.37866 0.58186 0.5023 0.0
O36 O 0.60779 0.53793 0.50848 0.0
O37 O 0.43714 0.61459 0.46624 0.0
O38 O 0.57194 0.59316 0.47261 0.0
C39 C 0.48302 0.49996 0.57697 0.0
C40 C 0.4866 0.48701 0.39242 0.0
C41 C 0.35553 0.40303 0.48558 0.0
C42 C 0.56921 0.36403 0.47834 0.0
C43 C 0.39241 0.61904 0.48331 0.0
C44 C 0.61151 0.58044 0.49202 0.0
O45 O 0.43873 0.5146 0.56195 0.0
O46 O 0.04755 -0.00074 0.34663 0.0
Cd47 Cd 0.05423 0.00282 0.40772 0.0
O48 O 0.95537 -0.00776 0.34632 0.0
Cd49 Cd 0.94478 0.00541 0.40026 0.0
O50 O 0.88833 0.05532 0.43336 0.0
C51 C 0.83658 0.04955 0.4256 0.0
O52 O 0.822 0.01161 0.40116 0.0
C53 C 0.00117 -0.00595 0.33055 0.0
C54 C 0.12657 0.92176 0.42927 0.0
O55 O 0.07374 0.9121 0.42561 0.0
O56 O 0.14511 0.96962 0.4227 0.0
O57 O 0.006 0.04444 0.63459 0.0
Cd58 Cd -0.00156 0.04776 0.57387 0.0
O59 O 0.00728 0.95233 0.63049 0.0
Cd60 Cd -0.00943 0.93918 0.57689 0.0
O61 O 0.93655 0.88464 0.54368 0.0
C62 C 0.94076 0.83276 0.54723 0.0
O63 O -0.0204 0.81661 0.56767 0.0
C64 C 0.00929 -0.00096 0.64837 0.0
C65 C 0.07254 0.12426 0.54945 0.0
O66 O 0.02428 0.13975 0.56066 0.0
O67 O 0.08597 0.07264 0.54993 0.0
O68 O 0.50721 0.45916 0.84121 0.0
Cd69 Cd 0.50377 0.46149 0.90227 0.0
O70 O 0.47072 0.54356 0.84365 0.0
Cd71 Cd 0.45911 0.55526 0.89745 0.0
O72 O 0.40382 0.59791 0.93416 0.0
C73 C 0.35226 0.5843 0.93125 0.0
O74 O 0.33763 0.5424 0.90929 0.0
C75 C 0.49007 0.50068 0.82656 0.0
C76 C 0.58493 0.39457 0.92894 0.0
O77 O 0.53536 0.3756 0.92186 0.0
O78 O 0.59606 0.44505 0.9233 0.0
O79 O 0.52725 0.52726 0.12968 0.0
Cd80 Cd 0.52455 0.5289 0.06876 0.0
O81 O 0.53043 0.43526 0.1266 0.0
Cd82 Cd 0.51868 0.42059 0.07263 0.0
O83 O 0.46501 0.36658 0.03898 0.0
C84 C 0.41738 0.3839 0.02989 0.0
O85 O 0.40403 0.4366 0.03785 0.0
C86 C 0.53009 0.48241 0.14404 0.0
C87 C 0.59494 0.61072 0.04662 0.0
O88 O 0.54476 0.62247 0.05608 0.0
O89 O 0.612 0.56029 0.04772 0.0
H90 H 0.20929 0.09151 0.01606 0.0
H91 H 0.31117 0.40525 0.00727 0.0
H92 H 0.10646 0.21493 0.9734 0.0
H93 H 0.42418 0.26949 0.02282 0.0
H94 H 0.23565 0.33696 -0.00603 0.0
H95 H 0.28826 0.15695 0.0191 0.0
C96 C 0.20329 0.13237 0.0073 0.0
C97 C 0.15102 0.14785 -0.00535 0.0
C98 C 0.27718 0.32213 -0.00011 0.0
C99 C 0.24141 0.2231 -0.0019 0.0
C100 C 0.32033 0.36108 0.00744 0.0
C101 C 0.37396 0.34314 0.01653 0.0
C102 C 0.28759 0.26495 0.00185 0.0
C103 C 0.38345 0.28534 0.01617 0.0
C104 C 0.24854 0.16961 0.00886 0.0
C105 C 0.14595 0.20124 0.9834 0.0
N106 N 0.34051 0.2484 0.00943 0.0
N107 N 0.19044 0.23715 -0.01433 0.0
H108 H 0.18032 0.88004 0.01499 0.0
H109 H 0.2382 0.57444 0.92409 0.0
H110 H 0.06162 0.78652 0.94902 0.0
H111 H 0.36725 0.67957 0.97413 0.0
H112 H 0.16827 0.64469 0.94233 0.0
H113 H 0.24462 0.80057 0.00855 0.0
C114 C 0.16758 0.84273 -0.00069 0.0
C115 C 0.11569 0.84022 0.98221 0.0
C116 C 0.21181 0.65213 0.94962 0.0
C117 C 0.18902 0.74908 0.97493 0.0
C118 C 0.25178 0.6119 0.93935 0.0
C119 C 0.30883 0.62154 0.94715 0.0
C120 C 0.22897 0.70234 0.96785 0.0
C121 C 0.32381 0.67068 0.96722 0.0
C122 C 0.20434 0.79739 -0.00433 0.0
C123 C 0.1014 0.79063 0.96238 0.0
N124 N 0.28418 0.70957 0.97658 0.0
N125 N 0.13797 0.74715 0.95918 0.0
H126 H 0.76391 0.92334 0.02513 0.0
H127 H 0.69711 0.59674 0.01623 0.0
H128 H 0.8604 0.79928 0.96558 0.0
H129 H 0.57776 0.72396 0.05084 0.0
H130 H 0.7591 0.66987 -0.00106 0.0
H131 H 0.6963 0.85074 0.03589 0.0
C132 C 0.77066 0.8809 0.01407 0.0
C133 C 0.81807 0.86739 -0.0055 0.0
C134 C 0.71919 0.68172 0.01013 0.0
C135 C 0.74105 0.78381 0.00714 0.0
C136 C 0.68388 0.64003 0.02014 0.0
C137 C 0.63225 0.65427 0.03515 0.0
C138 C 0.70311 0.73815 0.01553 0.0
C139 C 0.61718 0.71104 0.03942 0.0
C140 C 0.73197 0.83946 0.02021 0.0
C141 C 0.82443 0.81166 0.98074 0.0
N142 N 0.65262 0.7509 0.02991 0.0
N143 N 0.7867 0.7718 -0.01238 0.0
H144 H 0.76854 0.12586 0.01009 0.0
H145 H 0.69735 0.41639 0.93706 0.0
H146 H 0.89174 0.22759 0.96605 0.0
H147 H 0.57151 0.29175 0.95213 0.0
H148 H 0.76931 0.35503 0.95721 0.0
H149 H 0.69615 0.19423 -0.00121 0.0
C150 C 0.78053 0.1629 -0.00152 0.0
C151 C 0.83621 0.17081 -0.01123 0.0
C152 C 0.72591 0.34123 0.95623 0.0
C153 C 0.75374 0.24895 0.9758 0.0
C154 C 0.68479 0.37625 0.94478 0.0
C155 C 0.62839 0.35894 0.94261 0.0
C156 C 0.71054 0.28869 0.96588 0.0
C157 C 0.61456 0.30654 0.95309 0.0
C158 C 0.73915 0.20168 -0.00813 0.0
C159 C 0.84927 0.2195 0.97369 0.0
N160 N 0.65538 0.27319 0.96422 0.0
N161 N 0.80835 0.25661 0.96761 0.0
H162 H 0.63071 0.68137 0.46725 0.0
H163 H 0.93519 0.72049 0.55318 0.0
H164 H 0.70916 0.5604 0.52544 0.0
H165 H 0.84786 0.85299 0.50901 0.0
H166 H 0.85798 0.6568 0.53586 0.0
H167 H 0.71456 0.74052 0.47579 0.0
C168 C 0.6656 0.66708 0.48168 0.0
C169 C 0.66264 0.61595 0.49586 0.0
C170 C 0.85583 0.69969 0.52973 0.0
C171 C 0.75878 0.68338 0.50556 0.0
C172 C 0.90005 0.73611 0.53951 0.0
C173 C 0.89776 0.79239 0.53286 0.0
C174 C 0.80884 0.71957 0.51315 0.0
C175 C 0.85124 0.81004 0.51487 0.0
C176 C 0.71344 0.70091 0.48654 0.0
C177 C 0.70926 0.59961 0.51424 0.0
N178 N 0.80837 0.77385 0.50586 0.0
N179 N 0.75526 0.63326 0.51861 0.0
H180 H 0.54931 0.26531 0.43963 0.0
H181 H 0.85313 0.13997 0.47225 0.0
H182 H 0.67079 0.34729 0.50879 0.0
H183 H 0.72431 0.05225 0.41104 0.0
H184 H 0.78515 0.21329 0.48928 0.0
H185 H 0.61117 0.1844 0.43164 0.0
C186 C 0.58889 0.26626 0.45326 0.0
C187 C 0.60501 0.31345 0.47471 0.0
C188 C 0.77164 0.17769 0.4724 0.0
C189 C 0.67629 0.22074 0.46559 0.0
C190 C 0.8104 0.13573 0.46272 0.0
C191 C 0.79457 0.09018 0.43989 0.0
C192 C 0.71678 0.17416 0.459 0.0
C193 C 0.73858 0.08681 0.42846 0.0
C194 C 0.62419 0.21991 0.44875 0.0
C195 C 0.65668 0.31197 0.49188 0.0
N196 N 0.70193 0.1285 0.43787 0.0
N197 N 0.69068 0.26657 0.48674 0.0
H198 H 0.25841 0.42438 0.52023 0.0
H199 H 0.17125 0.10277 0.51624 0.0
H200 H 0.34598 0.29207 0.46174 0.0
H201 H 0.06313 0.23845 0.55338 0.0
H202 H 0.23658 0.17107 0.49673 0.0
H203 H 0.18671 0.35689 0.53283 0.0
C204 C 0.26232 0.38122 0.50975 0.0
C205 C 0.30851 0.36388 0.49 0.0
C206 C 0.1984 0.18586 0.50897 0.0
C207 C 0.22673 0.2861 0.50474 0.0
C208 C 0.16118 0.14691 0.52025 0.0
C209 C 0.11175 0.16493 0.53664 0.0
C210 C 0.18645 0.24332 0.51444 0.0
C211 C 0.10076 0.22264 0.54094 0.0
C212 C 0.22129 0.34268 0.51697 0.0
C213 C 0.31112 0.30739 0.47703 0.0
N214 N 0.13798 0.25976 0.53015 0.0
N215 N 0.27116 0.2704 0.48494 0.0
H216 H 0.41697 0.7161 0.45614 0.0
H217 H 0.09969 0.82153 0.45261 0.0
H218 H 0.28159 0.63121 0.50108 0.0
H219 H 0.24152 0.92395 0.43109 0.0
H220 H 0.16471 0.74999 0.46912 0.0
H221 H 0.35268 0.79155 0.44564 0.0
C222 C 0.37376 0.71344 0.46399 0.0
C223 C 0.35465 0.66705 0.47942 0.0
C224 C 0.18155 0.78826 0.46096 0.0
C225 C 0.28049 0.75334 0.46713 0.0
C226 C 0.14448 0.82904 0.45141 0.0
C227 C 0.16519 0.87873 0.4403 0.0
C228 C 0.23976 0.79696 0.45904 0.0
C229 C 0.22364 0.88629 0.43943 0.0
C230 C 0.33706 0.75665 0.45803 0.0
C231 C 0.2982 0.66617 0.48917 0.0
N232 N 0.25882 0.84571 0.44844 0.0
N233 N 0.26297 0.70841 0.48258 0.0
H234 H 0.08186 0.012 0.12213 0.0
H235 H 0.90857 -0.01094 0.28941 0.0
H236 H 0.90086 0.02014 0.12697 0.0
H237 H 0.08963 -0.00018 0.28759 0.0
H238 H 0.9055 -0.00423 0.22939 0.0
H239 H 0.0859 0.00459 0.18221 0.0
C240 C 0.04292 0.0125 0.13581 0.0
C241 C -0.00912 0.01668 0.11936 0.0
C242 C 0.94594 -0.00345 0.24206 0.0
C243 C -0.00467 0.00772 0.18826 0.0
C244 C 0.9478 -0.00753 0.27639 0.0
C245 C -0.0005 -0.00605 0.29369 0.0
C246 C -0.00388 0.00203 0.2247 0.0
C247 C 0.04884 -0.00149 0.27534 0.0
C248 C 0.04532 0.00818 0.17015 0.0
C249 C 0.94193 0.01711 0.13851 0.0
N250 N 0.04592 0.00248 0.24185 0.0
N251 N 0.94537 0.01247 0.17188 0.0
H252 H -0.00734 0.09527 0.86134 0.0
H253 H 0.01274 0.90936 0.68545 0.0
H254 H -0.01894 0.91469 0.85019 0.0
H255 H 0.0086 0.09017 0.69558 0.0
H256 H 0.00706 0.91062 0.746 0.0
H257 H 0.00289 0.0941 0.80105 0.0
C258 C -0.00788 0.05529 0.84624 0.0
C259 C -0.0141 0.00494 0.86098 0.0
C260 C 0.0076 0.95005 0.73502 0.0
C261 C -0.00202 0.00344 0.79168 0.0
C262 C 0.01108 0.94943 0.70039 0.0
C263 C 0.01098 -0.0002 0.68528 0.0
C264 C 0.00405 0.00139 0.75486 0.0
C265 C 0.00875 0.05032 0.70606 0.0
C266 C -0.00196 0.05472 0.81175 0.0
C267 C -0.01444 0.95454 0.84 0.0
N268 N 0.00518 0.04981 0.73976 0.0
N269 N -0.00838 0.95509 0.80645 0.0
H270 H 0.4092 0.55175 0.62177 0.0
H271 H 0.54451 0.42677 0.78122 0.0
H272 H 0.5581 0.44898 0.61612 0.0
H273 H 0.43608 0.57134 0.78786 0.0
H274 H 0.54297 0.42612 0.72015 0.0
H275 H 0.41113 0.55117 0.68256 0.0
C276 C 0.44226 0.52905 0.63328 0.0
C277 C 0.48366 0.50057 0.61381 0.0
C278 C 0.51968 0.458 0.73508 0.0
C279 C 0.48582 0.49935 0.6833 0.0
C280 C 0.52043 0.4583 0.76988 0.0
C281 C 0.49055 0.49926 0.78969 0.0
C282 C 0.48817 0.49841 0.72006 0.0
C283 C 0.46002 0.53914 0.77364 0.0
C284 C 0.44343 0.52887 0.66798 0.0
C285 C 0.52553 0.47185 0.63014 0.0
N286 N 0.45942 0.53754 0.73981 0.0
N287 N 0.5254 0.47176 0.66392 0.0
H288 H 0.47792 0.39624 0.34522 0.0
H289 H 0.53055 0.57483 0.19031 0.0
H290 H 0.50839 0.57469 0.35574 0.0
H291 H 0.52492 0.39406 0.18202 0.0
H292 H 0.52019 0.57611 0.25083 0.0
H293 H 0.49112 0.39513 0.28496 0.0
C294 C 0.48712 0.43522 0.33489 0.0
C295 C 0.49206 0.48561 0.35566 0.0
C296 C 0.52152 0.53617 0.23575 0.0
C297 C 0.50744 0.4846 0.28665 0.0
C298 C 0.52756 0.53542 0.20119 0.0
C299 C 0.52855 0.48428 0.18097 0.0
C300 C 0.51603 0.48546 0.2502 0.0
C301 C 0.5244 0.43452 0.19654 0.0
C302 C 0.49492 0.43452 0.30048 0.0
C303 C 0.50428 0.53479 0.34079 0.0
N304 N 0.51802 0.43638 0.23014 0.0
N305 N 0.51147 0.53304 0.30725 0.0
loop_
_geom_bond_atom_site_label_1
_geom_bond_atom_site_label_2
_geom_bond_distance
_geom_bond_site_symmetry_2
_ccdc_geom_bond_type
O0 Zn1 1.950 1_565 S
O0 C16 1.220 1_565 S
Zn1 O0 1.950 1_545 S
Zn1 O2 1.949 . S
Zn1 O8 1.916 1_545 S
Zn1 O13 1.927 . S
O2 Zn1 1.949 . S
O2 Zn3 1.923 1_444 S
O2 Zn4 1.950 1_455 S
O2 Zn5 1.945 1_554 S
Zn3 O2 1.923 1_666 S
Zn3 O6 1.933 . S
Zn3 O9 1.941 1_655 S
Zn3 O10 1.965 . S
Zn4 O2 1.950 1_655 S
Zn4 O11 1.938 1_545 S
Zn4 O12 1.906 . S
Zn4 O22 1.953 . S
Zn5 O2 1.945 1_556 S
Zn5 O7 1.932 . S
Zn5 O14 1.977 1_455 S
Zn5 O15 1.910 . S
O6 Zn3 1.933 . S
O6 C17 1.226 1_665 S
O7 Zn5 1.932 . S
O7 C17 1.307 . S
O8 Zn1 1.916 1_565 S
O8 C19 1.253 1_554 S
O9 Zn3 1.941 1_455 S
O9 C19 1.283 . S
O10 Zn3 1.965 . S
O10 C18 1.303 1_556 S
O11 Zn4 1.938 1_565 S
O11 C18 1.247 . S
O12 Zn4 1.906 . S
O12 C20 1.304 1_554 S
O13 Zn1 1.927 . S
O13 C21 1.311 . S
O14 Zn5 1.977 1_655 S
O14 C20 1.272 . S
O15 Zn5 1.910 . S
O15 C21 1.231 1_556 S
C16 O0 1.220 1_545 S
C16 O22 1.298 1_455 S
C17 O6 1.226 1_445 S
C17 O7 1.307 . S
C18 O10 1.303 1_554 S
C18 O11 1.247 . S
C19 O8 1.253 1_556 S
C19 O9 1.283 . S
C20 O12 1.304 1_556 S
C20 O14 1.272 . S
C21 O13 1.311 . S
C21 O15 1.231 1_554 S
O22 Zn4 1.953 . S
O22 C16 1.298 1_655 S
O23 Zn24 1.953 . S
O23 C39 1.225 . S
Zn24 O23 1.953 . S
Zn24 O25 1.949 . S
Zn24 O31 1.919 . S
Zn24 O36 1.924 . S
O25 Zn24 1.949 . S
O25 Zn26 1.923 . S
O25 Zn27 1.950 . S
O25 Zn28 1.945 . S
Zn26 O25 1.923 . S
Zn26 O29 1.933 . S
Zn26 O32 1.941 . S
Zn26 O33 1.965 . S
Zn27 O25 1.950 . S
Zn27 O34 1.938 . S
Zn27 O35 1.906 . S
Zn27 O45 1.953 . S
Zn28 O25 1.945 . S
Zn28 O30 1.932 . S
Zn28 O37 1.977 . S
Zn28 O38 1.910 . S
O29 Zn26 1.933 . S
O29 C40 1.226 . S
O30 Zn28 1.932 . S
O30 C40 1.307 . S
O31 Zn24 1.919 . S
O31 C42 1.253 . S
O32 Zn26 1.941 . S
O32 C42 1.283 . S
O33 Zn26 1.965 . S
O33 C41 1.303 . S
O34 Zn27 1.938 . S
O34 C41 1.247 . S
O35 Zn27 1.906 . S
O35 C43 1.304 . S
O36 Zn24 1.924 . S
O36 C44 1.311 . S
O37 Zn28 1.977 . S
O37 C43 1.272 . S
O38 Zn28 1.910 . S
O38 C44 1.231 . S
C39 O23 1.225 . S
C39 O45 1.298 . S
C40 O29 1.226 . S
C40 O30 1.307 . S
C41 O33 1.303 . S
C41 O34 1.247 . S
C42 O31 1.253 . S
C42 O32 1.283 . S
C43 O35 1.304 . S
C43 O37 1.272 . S
C44 O36 1.311 . S
C44 O38 1.231 . S
O45 Zn27 1.953 . S
O45 C39 1.298 . S
O46 Cd47 2.300 . S
O46 C53 1.275 1_565 S
Cd47 O46 2.300 . S
Cd47 O55 2.381 . S
Cd47 O56 2.378 . S
O48 Cd49 2.385 . S
O48 C53 1.255 . S
Cd49 O48 2.385 . S
Cd49 O50 2.317 1_455 S
O50 Cd49 2.317 1_655 S
O50 C51 1.232 . S
C51 O50 1.232 . S
C51 O52 1.218 . S
O52 C51 1.218 . S
C53 O46 1.275 1_545 S
C53 O48 1.255 . S
C54 O55 1.258 . S
C54 O56 1.256 . S
O55 Cd47 2.381 . S
O55 C54 1.258 . S
O56 Cd47 2.378 . S
O56 C54 1.256 . S
O57 Cd58 2.300 . S
O57 C64 1.275 1_545 S
Cd58 O57 2.300 . S
Cd58 O66 2.381 . S
Cd58 O67 2.378 . S
O59 Cd60 2.385 . S
O59 C64 1.255 . S
Cd60 O59 2.385 . S
Cd60 O61 2.317 1_455 S
O61 Cd60 2.317 1_655 S
O61 C62 1.232 . S
C62 O61 1.232 . S
C62 O63 1.218 . S
O63 C62 1.218 . S
C64 O57 1.275 1_565 S
C64 O59 1.255 . S
C65 O66 1.258 . S
C65 O67 1.256 . S
O66 Cd58 2.381 . S
O66 C65 1.258 . S
O67 Cd58 2.378 . S
O67 C65 1.256 . S
O68 Cd69 2.300 . S
O68 C75 1.275 . S
Cd69 O68 2.300 . S
Cd69 O77 2.381 . S
Cd69 O78 2.378 . S
O70 Cd71 2.385 . S
O70 C75 1.255 . S
Cd71 O70 2.385 . S
Cd71 O72 2.317 . S
O72 Cd71 2.317 . S
O72 C73 1.232 . S
C73 O72 1.232 . S
C73 O74 1.218 . S
O74 C73 1.218 . S
C75 O68 1.275 . S
C75 O70 1.255 . S
C76 O77 1.258 . S
C76 O78 1.256 . S
O77 Cd69 2.381 . S
O77 C76 1.258 . S
O78 Cd69 2.378 . S
O78 C76 1.256 . S
O79 Cd80 2.300 . S
O79 C86 1.275 . S
Cd80 O79 2.300 . S
Cd80 O88 2.381 . S
Cd80 O89 2.378 . S
O81 Cd82 2.385 . S
O81 C86 1.255 . S
Cd82 O81 2.385 . S
Cd82 O83 2.317 . S
O83 Cd82 2.317 . S
O83 C84 1.232 . S
C84 O83 1.232 . S
C84 O85 1.218 . S
O85 C84 1.218 . S
C86 O79 1.275 . S
C86 O81 1.255 . S
C87 O88 1.258 . S
C87 O89 1.256 . S
O88 Cd80 2.381 . S
O88 C87 1.258 . S
O89 Cd80 2.378 . S
O89 C87 1.256 . S
H90 C96 0.930 . S
H91 C100 0.930 . S
H92 C105 0.929 . S
H93 C103 0.929 . S
H94 C98 0.929 . S
H95 C104 0.929 . S
C96 H90 0.930 . S
C96 C97 1.367 . S
C96 C104 1.378 . S
C97 C96 1.367 . S
C97 C105 1.433 . S
C98 H94 0.929 . S
C98 C100 1.378 . S
C98 C102 1.350 . S
C99 C102 1.463 . S
C99 C104 1.350 . S
C99 N107 1.427 . S
C100 H91 0.930 . S
C100 C98 1.378 . S
C100 C101 1.367 . S
C101 C100 1.367 . S
C101 C103 1.433 . S
C102 C98 1.350 . S
C102 C99 1.463 . S
C102 N106 1.427 . S
C103 H93 0.929 . S
C103 C101 1.433 . S
C103 N106 1.384 . S
C104 H95 0.929 . S
C104 C96 1.378 . S
C104 C99 1.350 . S
C105 H92 0.929 . S
C105 C97 1.433 . S
C105 N107 1.384 . S
N106 C102 1.427 . S
N106 C103 1.384 . S
N107 C99 1.427 . S
N107 C105 1.384 . S
H108 C114 0.930 . S
H109 C118 0.930 . S
H110 C123 0.929 . S
H111 C121 0.929 . S
H112 C116 0.929 . S
H113 C122 0.929 . S
C114 H108 0.930 . S
C114 C115 1.367 . S
C114 C122 1.378 . S
C115 C114 1.367 . S
C115 C123 1.433 . S
C116 H112 0.929 . S
C116 C118 1.378 . S
C116 C120 1.350 . S
C117 C120 1.463 . S
C117 C122 1.350 . S
C117 N125 1.427 . S
C118 H109 0.930 . S
C118 C116 1.378 . S
C118 C119 1.367 . S
C119 C118 1.367 . S
C119 C121 1.433 . S
C120 C116 1.350 . S
C120 C117 1.463 . S
C120 N124 1.427 . S
C121 H111 0.929 . S
C121 C119 1.433 . S
C121 N124 1.384 . S
C122 H113 0.929 . S
C122 C114 1.378 . S
C122 C117 1.350 . S
C123 H110 0.929 . S
C123 C115 1.433 . S
C123 N125 1.384 . S
N124 C120 1.427 . S
N124 C121 1.384 . S
N125 C117 1.427 . S
N125 C123 1.384 . S
H126 C132 0.930 . S
H127 C136 0.930 . S
H128 C141 0.929 . S
H129 C139 0.929 . S
H130 C134 0.929 . S
H131 C140 0.929 . S
C132 H126 0.930 . S
C132 C133 1.367 . S
C132 C140 1.378 . S
C133 C132 1.367 . S
C133 C141 1.433 . S
C134 H130 0.929 . S
C134 C136 1.378 . S
C134 C138 1.350 . S
C135 C138 1.463 . S
C135 C140 1.350 . S
C135 N143 1.427 . S
C136 H127 0.930 . S
C136 C134 1.378 . S
C136 C137 1.367 . S
C137 C136 1.367 . S
C137 C139 1.433 . S
C138 C134 1.350 . S
C138 C135 1.463 . S
C138 N142 1.427 . S
C139 H129 0.929 . S
C139 C137 1.433 . S
C139 N142 1.384 . S
C140 H131 0.929 . S
C140 C132 1.378 . S
C140 C135 1.350 . S
C141 H128 0.929 . S
C141 C133 1.433 . S
C141 N143 1.384 . S
N142 C138 1.427 . S
N142 C139 1.384 . S
N143 C135 1.427 . S
N143 C141 1.384 . S
H144 C150 0.930 . S
H145 C154 0.930 . S
H146 C159 0.929 1_554 S
H147 C157 0.929 . S
H148 C152 0.929 . S
H149 C158 0.929 . S
C150 H144 0.930 . S
C150 C151 1.367 . S
C150 C158 1.378 . S
C151 C150 1.367 . S
C151 C159 1.433 . S
C152 H148 0.929 . S
C152 C154 1.378 . S
C152 C156 1.350 . S
C153 C156 1.463 . S
C153 C158 1.350 . S
C153 N161 1.427 . S
C154 H145 0.930 . S
C154 C152 1.378 . S
C154 C155 1.367 . S
C155 C154 1.367 . S
C155 C157 1.433 . S
C156 C152 1.350 . S
C156 C153 1.463 . S
C156 N160 1.427 . S
C157 H147 0.929 . S
C157 C155 1.433 . S
C157 N160 1.384 . S
C158 H149 0.929 . S
C158 C150 1.378 . S
C158 C153 1.350 . S
C159 H146 0.929 1_556 S
C159 C151 1.433 . S
C159 N161 1.384 . S
N160 C156 1.427 . S
N160 C157 1.384 . S
N161 C153 1.427 . S
N161 C159 1.384 . S
H162 C168 0.930 . S
H163 C172 0.930 . S
H164 C177 0.929 . S
H165 C175 0.929 . S
H166 C170 0.929 . S
H167 C176 0.929 . S
C168 H162 0.930 . S
C168 C169 1.367 . S
C168 C176 1.378 . S
C169 C168 1.367 . S
C169 C177 1.433 . S
C170 H166 0.929 . S
C170 C172 1.378 . S
C170 C174 1.350 . S
C171 C174 1.463 . S
C171 C176 1.350 . S
C171 N179 1.427 . S
C172 H163 0.930 . S
C172 C170 1.378 . S
C172 C173 1.367 . S
C173 C172 1.367 . S
C173 C175 1.433 . S
C174 C170 1.350 . S
C174 C171 1.463 . S
C174 N178 1.427 . S
C175 H165 0.929 . S
C175 C173 1.433 . S
C175 N178 1.384 . S
C176 H167 0.929 . S
C176 C168 1.378 . S
C176 C171 1.350 . S
C177 H164 0.929 . S
C177 C169 1.433 . S
C177 N179 1.384 . S
N178 C174 1.427 . S
N178 C175 1.384 . S
N179 C171 1.427 . S
N179 C177 1.384 . S
H180 C186 0.930 . S
H181 C190 0.930 . S
H182 C195 0.929 . S
H183 C193 0.929 . S
H184 C188 0.929 . S
H185 C194 0.929 . S
C186 H180 0.930 . S
C186 C187 1.367 . S
C186 C194 1.378 . S
C187 C186 1.367 . S
C187 C195 1.433 . S
C188 H184 0.929 . S
C188 C190 1.378 . S
C188 C192 1.350 . S
C189 C192 1.463 . S
C189 C194 1.350 . S
C189 N197 1.427 . S
C190 H181 0.930 . S
C190 C188 1.378 . S
C190 C191 1.367 . S
C191 C190 1.367 . S
C191 C193 1.433 . S
C192 C188 1.350 . S
C192 C189 1.463 . S
C192 N196 1.427 . S
C193 H183 0.929 . S
C193 C191 1.433 . S
C193 N196 1.384 . S
C194 H185 0.929 . S
C194 C186 1.378 . S
C194 C189 1.350 . S
C195 H182 0.929 . S
C195 C187 1.433 . S
C195 N197 1.384 . S
N196 C192 1.427 . S
N196 C193 1.384 . S
N197 C189 1.427 . S
N197 C195 1.384 . S
H198 C204 0.930 . S
H199 C208 0.930 . S
H200 C213 0.929 . S
H201 C211 0.929 . S
H202 C206 0.929 . S
H203 C212 0.929 . S
C204 H198 0.930 . S
C204 C205 1.367 . S
C204 C212 1.378 . S
C205 C204 1.367 . S
C205 C213 1.433 . S
C206 H202 0.929 . S
C206 C208 1.378 . S
C206 C210 1.350 . S
C207 C210 1.463 . S
C207 C212 1.350 . S
C207 N215 1.427 . S
C208 H199 0.930 . S
C208 C206 1.378 . S
C208 C209 1.367 . S
C209 C208 1.367 . S
C209 C211 1.433 . S
C210 C206 1.350 . S
C210 C207 1.463 . S
C210 N214 1.427 . S
C211 H201 0.929 . S
C211 C209 1.433 . S
C211 N214 1.384 . S
C212 H203 0.929 . S
C212 C204 1.378 . S
C212 C207 1.350 . S
C213 H200 0.929 . S
C213 C205 1.433 . S
C213 N215 1.384 . S
N214 C210 1.427 . S
N214 C211 1.384 . S
N215 C207 1.427 . S
N215 C213 1.384 . S
H216 C222 0.930 . S
H217 C226 0.930 . S
H218 C231 0.929 . S
H219 C229 0.929 . S
H220 C224 0.929 . S
H221 C230 0.929 . S
C222 H216 0.930 . S
C222 C223 1.367 . S
C222 C230 1.378 . S
C223 C222 1.367 . S
C223 C231 1.433 . S
C224 H220 0.929 . S
C224 C226 1.378 . S
C224 C228 1.350 . S
C225 C228 1.463 . S
C225 C230 1.350 . S
C225 N233 1.427 . S
C226 H217 0.930 . S
C226 C224 1.378 . S
C226 C227 1.367 . S
C227 C226 1.367 . S
C227 C229 1.433 . S
C228 C224 1.350 . S
C228 C225 1.463 . S
C228 N232 1.427 . S
C229 H219 0.929 . S
C229 C227 1.433 . S
C229 N232 1.384 . S
C230 H221 0.929 . S
C230 C222 1.378 . S
C230 C225 1.350 . S
C231 H218 0.929 . S
C231 C223 1.433 . S
C231 N233 1.384 . S
N232 C228 1.427 . S
N232 C229 1.384 . S
N233 C225 1.427 . S
N233 C231 1.384 . S
H234 C240 0.930 . S
H235 C244 0.930 . S
H236 C249 0.929 . S
H237 C247 0.929 . S
H238 C242 0.929 . S
H239 C248 0.929 . S
C240 H234 0.930 . S
C240 C241 1.367 1_665 S
C240 C248 1.378 . S
C241 C240 1.367 1_445 S
C241 C249 1.433 . S
C242 H238 0.929 . S
C242 C244 1.378 . S
C242 C246 1.352 . S
C243 C246 1.463 . S
C243 C248 1.350 1_445 S
C243 N251 1.427 . S
C244 H235 0.930 . S
C244 C242 1.378 . S
C244 C245 1.367 1_455 S
C245 C244 1.367 1_655 S
C245 C247 1.433 1_545 S
C246 C242 1.352 . S
C246 C243 1.463 . S
C246 N250 1.425 1_445 S
C247 H237 0.929 . S
C247 C245 1.433 1_565 S
C247 N250 1.384 . S
C248 H239 0.929 . S
C248 C240 1.378 . S
C248 C243 1.350 1_665 S
C249 H236 0.929 . S
C249 C241 1.433 . S
C249 N251 1.384 . S
N250 C246 1.425 1_665 S
N250 C247 1.384 . S
N251 C243 1.427 . S
N251 C249 1.384 . S
H252 C258 0.930 . S
H253 C262 0.930 . S
H254 C267 0.929 . S
H255 C265 0.929 . S
H256 C260 0.929 . S
H257 C266 0.929 . S
C258 H252 0.930 . S
C258 C259 1.367 . S
C258 C266 1.378 . S
C259 C258 1.367 . S
C259 C267 1.433 1_445 S
C260 H256 0.929 . S
C260 C262 1.378 . S
C260 C264 1.350 1_655 S
C261 C264 1.463 1_545 S
C261 C266 1.356 . S
C261 N269 1.420 1_445 S
C262 H253 0.930 . S
C262 C260 1.378 . S
C262 C263 1.367 1_655 S
C263 C262 1.367 1_455 S
C263 C265 1.433 1_565 S
C264 C260 1.350 1_455 S
C264 C261 1.463 1_565 S
C264 N268 1.427 1_565 S
C265 H255 0.929 . S
C265 C263 1.433 1_545 S
C265 N268 1.384 . S
C266 H257 0.929 . S
C266 C258 1.378 . S
C266 C261 1.356 . S
C267 H254 0.929 . S
C267 C259 1.433 1_665 S
C267 N269 1.384 . S
N268 C264 1.427 1_545 S
N268 C265 1.384 . S
N269 C261 1.420 1_665 S
N269 C267 1.384 . S
H270 C276 0.930 . S
H271 C280 0.930 . S
H272 C285 0.929 . S
H273 C283 0.929 . S
H274 C278 0.929 . S
H275 C284 0.929 . S
C276 H270 0.930 . S
C276 C277 1.367 . S
C276 C284 1.378 . S
C277 C276 1.367 . S
C277 C285 1.433 . S
C278 H274 0.929 . S
C278 C280 1.378 . S
C278 C282 1.350 . S
C279 C282 1.463 . S
C279 C284 1.350 . S
C279 N287 1.427 . S
C280 H271 0.930 . S
C280 C278 1.378 . S
C280 C281 1.367 . S
C281 C280 1.367 . S
C281 C283 1.433 . S
C282 C278 1.350 . S
C282 C279 1.463 . S
C282 N286 1.427 . S
C283 H273 0.929 . S
C283 C281 1.433 . S
C283 N286 1.384 . S
C284 H275 0.929 . S
C284 C276 1.378 . S
C284 C279 1.350 . S
C285 H272 0.929 . S
C285 C277 1.433 . S
C285 N287 1.384 . S
N286 C282 1.427 . S
N286 C283 1.384 . S
N287 C279 1.427 . S
N287 C285 1.384 . S
H288 C294 0.930 . S
H289 C298 0.930 . S
H290 C303 0.929 . S
H291 C301 0.929 . S
H292 C296 0.929 . S
H293 C302 0.929 . S
C294 H288 0.930 . S
C294 C295 1.367 . S
C294 C302 1.378 . S
C295 C294 1.367 . S
C295 C303 1.433 . S
C296 H292 0.929 . S
C296 C298 1.378 . S
C296 C300 1.350 . S
C297 C300 1.463 . S
C297 C302 1.350 . S
C297 N305 1.427 . S
C298 H289 0.930 . S
C298 C296 1.378 . S
C298 C299 1.367 . S
C299 C298 1.367 . S
C299 C301 1.433 . S
C300 C296 1.350 . S
C300 C297 1.463 . S
C300 N304 1.427 . S
C301 H291 0.929 . S
C301 C299 1.433 . S
C301 N304 1.384 . S
C302 H293 0.929 . S
C302 C294 1.378 . S
C302 C297 1.350 . S
C303 H290 0.929 . S
C303 C295 1.433 . S
C303 N305 1.384 . S
N304 C300 1.427 . S
N304 C301 1.384 . S
N305 C297 1.427 . S
N305 C303 1.384 . S
C101 C84 1.332 . S
C97 C21 1.502 . S
C115 C19 1.498 . S
C119 C73 1.314 . S
C133 C18 1.404 . S
C137 C87 1.403 . S
C151 C20 1.424 . S
C155 C76 1.411 . S
C169 C44 1.501 . S
C173 C62 1.309 . S
C187 C42 1.495 . S
C191 C51 1.289 . S
C209 C65 1.402 . S
C205 C41 1.404 . S
C227 C54 1.414 . S
C223 C43 1.416 . S
C241 C16 1.517 . S
C245 C53 1.460 1_655 S
C259 C17 1.486 . S
C263 C64 1.438 . S
C281 C75 1.454 . S
C277 C39 1.519 . S
C295 C40 1.486 . S
C299 C86 1.428 . S
