# Generated by pormake.
# Topology iac, (4,6)-cn, num edge types: 1
# Building blocks:
#     Node 0, Type 0, BuildingBlock: UXUYUI_clean_sbu_0, # of connection points: 4
#     Node 1, Type 0, BuildingBlock: UXUYUI_clean_sbu_0, # of connection points: 4
#     Node 2, Type 0, BuildingBlock: UXUYUI_clean_sbu_0, # of connection points: 4
#     Node 3, Type 0, BuildingBlock: UXUYUI_clean_sbu_0, # of connection points: 4
#     Node 4, Type 0, BuildingBlock: UXUYUI_clean_sbu_0, # of connection points: 4
#     Node 5, Type 0, BuildingBlock: UXUYUI_clean_sbu_0, # of connection points: 4
#     Node 6, Type 0, BuildingBlock: UXUYUI_clean_sbu_0, # of connection points: 4
#     Node 7, Type 0, BuildingBlock: UXUYUI_clean_sbu_0, # of connection points: 4
#     Node 8, Type 0, BuildingBlock: UXUYUI_clean_sbu_0, # of connection points: 4
#     Node 9, Type 0, BuildingBlock: UXUYUI_clean_sbu_0, # of connection points: 4
#     Node 10, Type 0, BuildingBlock: UXUYUI_clean_sbu_0, # of connection points: 4
#     Node 11, Type 0, BuildingBlock: UXUYUI_clean_sbu_0, # of connection points: 4
#     Node 12, Type 0, BuildingBlock: UXUYUI_clean_sbu_0, # of connection points: 4
#     Node 13, Type 0, BuildingBlock: UXUYUI_clean_sbu_0, # of connection points: 4
#     Node 14, Type 0, BuildingBlock: UXUYUI_clean_sbu_0, # of connection points: 4
#     Node 15, Type 0, BuildingBlock: UXUYUI_clean_sbu_0, # of connection points: 4
#     Node 16, Type 0, BuildingBlock: UXUYUI_clean_sbu_0, # of connection points: 4
#     Node 17, Type 0, BuildingBlock: UXUYUI_clean_sbu_0, # of connection points: 4
#     Node 18, Type 0, BuildingBlock: UXUYUI_clean_sbu_0, # of connection points: 4
#     Node 19, Type 0, BuildingBlock: UXUYUI_clean_sbu_0, # of connection points: 4
#     Node 20, Type 0, BuildingBlock: UXUYUI_clean_sbu_0, # of connection points: 4
#     Node 21, Type 0, BuildingBlock: UXUYUI_clean_sbu_0, # of connection points: 4
#     Node 22, Type 0, BuildingBlock: UXUYUI_clean_sbu_0, # of connection points: 4
#     Node 23, Type 0, BuildingBlock: UXUYUI_clean_sbu_0, # of connection points: 4
#     Node 24, Type 1, BuildingBlock: FUNLAD_clean_sbu_0, # of connection points: 6
#     Node 25, Type 1, BuildingBlock: FUNLAD_clean_sbu_0, # of connection points: 6
#     Node 26, Type 1, BuildingBlock: FUNLAD_clean_sbu_0, # of connection points: 6
#     Node 27, Type 1, BuildingBlock: FUNLAD_clean_sbu_0, # of connection points: 6
#     Node 28, Type 1, BuildingBlock: FUNLAD_clean_sbu_0, # of connection points: 6
#     Node 29, Type 1, BuildingBlock: FUNLAD_clean_sbu_0, # of connection points: 6
#     Node 30, Type 1, BuildingBlock: FUNLAD_clean_sbu_0, # of connection points: 6
#     Node 31, Type 1, BuildingBlock: FUNLAD_clean_sbu_0, # of connection points: 6
#     Node 32, Type 1, BuildingBlock: FUNLAD_clean_sbu_0, # of connection points: 6
#     Node 33, Type 1, BuildingBlock: FUNLAD_clean_sbu_0, # of connection points: 6
#     Node 34, Type 1, BuildingBlock: FUNLAD_clean_sbu_0, # of connection points: 6
#     Node 35, Type 1, BuildingBlock: FUNLAD_clean_sbu_0, # of connection points: 6
#     Node 36, Type 1, BuildingBlock: FUNLAD_clean_sbu_0, # of connection points: 6
#     Node 37, Type 1, BuildingBlock: FUNLAD_clean_sbu_0, # of connection points: 6
#     Node 38, Type 1, BuildingBlock: FUNLAD_clean_sbu_0, # of connection points: 6
#     Node 39, Type 1, BuildingBlock: FUNLAD_clean_sbu_0, # of connection points: 6
#     Edge 40, Type (0, 1), BuildingBlock: OJICUG_clean_linker_0, # of connection points: 2
#     Edge 41, Type (0, 1), BuildingBlock: OJICUG_clean_linker_0, # of connection points: 2
#     Edge 42, Type (0, 1), BuildingBlock: OJICUG_clean_linker_0, # of connection points: 2
#     Edge 43, Type (0, 1), BuildingBlock: OJICUG_clean_linker_0, # of connection points: 2
#     Edge 44, Type (0, 1), BuildingBlock: OJICUG_clean_linker_0, # of connection points: 2
#     Edge 45, Type (0, 1), BuildingBlock: OJICUG_clean_linker_0, # of connection points: 2
#     Edge 46, Type (0, 1), BuildingBlock: OJICUG_clean_linker_0, # of connection points: 2
#     Edge 47, Type (0, 1), BuildingBlock: OJICUG_clean_linker_0, # of connection points: 2
#     Edge 48, Type (0, 1), BuildingBlock: OJICUG_clean_linker_0, # of connection points: 2
#     Edge 49, Type (0, 1), BuildingBlock: OJICUG_clean_linker_0, # of connection points: 2
#     Edge 50, Type (0, 1), BuildingBlock: OJICUG_clean_linker_0, # of connection points: 2
#     Edge 51, Type (0, 1), BuildingBlock: OJICUG_clean_linker_0, # of connection points: 2
#     Edge 52, Type (0, 1), BuildingBlock: OJICUG_clean_linker_0, # of connection points: 2
#     Edge 53, Type (0, 1), BuildingBlock: OJICUG_clean_linker_0, # of connection points: 2
#     Edge 54, Type (0, 1), BuildingBlock: OJICUG_clean_linker_0, # of connection points: 2
#     Edge 55, Type (0, 1), BuildingBlock: OJICUG_clean_linker_0, # of connection points: 2
#     Edge 56, Type (0, 1), BuildingBlock: OJICUG_clean_linker_0, # of connection points: 2
#     Edge 57, Type (0, 1), BuildingBlock: OJICUG_clean_linker_0, # of connection points: 2
#     Edge 58, Type (0, 1), BuildingBlock: OJICUG_clean_linker_0, # of connection points: 2
#     Edge 59, Type (0, 1), BuildingBlock: OJICUG_clean_linker_0, # of connection points: 2
#     Edge 60, Type (0, 1), BuildingBlock: OJICUG_clean_linker_0, # of connection points: 2
#     Edge 61, Type (0, 1), BuildingBlock: OJICUG_clean_linker_0, # of connection points: 2
#     Edge 62, Type (0, 1), BuildingBlock: OJICUG_clean_linker_0, # of connection points: 2
#     Edge 63, Type (0, 1), BuildingBlock: OJICUG_clean_linker_0, # of connection points: 2
#     Edge 64, Type (0, 1), BuildingBlock: OJICUG_clean_linker_0, # of connection points: 2
#     Edge 65, Type (0, 1), BuildingBlock: OJICUG_clean_linker_0, # of connection points: 2
#     Edge 66, Type (0, 1), BuildingBlock: OJICUG_clean_linker_0, # of connection points: 2
#     Edge 67, Type (0, 1), BuildingBlock: OJICUG_clean_linker_0, # of connection points: 2
#     Edge 68, Type (0, 1), BuildingBlock: OJICUG_clean_linker_0, # of connection points: 2
#     Edge 69, Type (0, 1), BuildingBlock: OJICUG_clean_linker_0, # of connection points: 2
#     Edge 70, Type (0, 1), BuildingBlock: OJICUG_clean_linker_0, # of connection points: 2
#     Edge 71, Type (0, 1), BuildingBlock: OJICUG_clean_linker_0, # of connection points: 2
#     Edge 72, Type (0, 1), BuildingBlock: OJICUG_clean_linker_0, # of connection points: 2
#     Edge 73, Type (0, 1), BuildingBlock: OJICUG_clean_linker_0, # of connection points: 2
#     Edge 74, Type (0, 1), BuildingBlock: OJICUG_clean_linker_0, # of connection points: 2
#     Edge 75, Type (0, 1), BuildingBlock: OJICUG_clean_linker_0, # of connection points: 2
#     Edge 76, Type (0, 1), BuildingBlock: OJICUG_clean_linker_0, # of connection points: 2
#     Edge 77, Type (0, 1), BuildingBlock: OJICUG_clean_linker_0, # of connection points: 2
#     Edge 78, Type (0, 1), BuildingBlock: OJICUG_clean_linker_0, # of connection points: 2
#     Edge 79, Type (0, 1), BuildingBlock: OJICUG_clean_linker_0, # of connection points: 2
#     Edge 80, Type (0, 1), BuildingBlock: OJICUG_clean_linker_0, # of connection points: 2
#     Edge 81, Type (0, 1), BuildingBlock: OJICUG_clean_linker_0, # of connection points: 2
#     Edge 82, Type (0, 1), BuildingBlock: OJICUG_clean_linker_0, # of connection points: 2
#     Edge 83, Type (0, 1), BuildingBlock: OJICUG_clean_linker_0, # of connection points: 2
#     Edge 84, Type (0, 1), BuildingBlock: OJICUG_clean_linker_0, # of connection points: 2
#     Edge 85, Type (0, 1), BuildingBlock: OJICUG_clean_linker_0, # of connection points: 2
#     Edge 86, Type (0, 1), BuildingBlock: OJICUG_clean_linker_0, # of connection points: 2
#     Edge 87, Type (0, 1), BuildingBlock: OJICUG_clean_linker_0, # of connection points: 2
#     Edge 88, Type (0, 1), BuildingBlock: OJICUG_clean_linker_0, # of connection points: 2
#     Edge 89, Type (0, 1), BuildingBlock: OJICUG_clean_linker_0, # of connection points: 2
#     Edge 90, Type (0, 1), BuildingBlock: OJICUG_clean_linker_0, # of connection points: 2
#     Edge 91, Type (0, 1), BuildingBlock: OJICUG_clean_linker_0, # of connection points: 2
#     Edge 92, Type (0, 1), BuildingBlock: OJICUG_clean_linker_0, # of connection points: 2
#     Edge 93, Type (0, 1), BuildingBlock: OJICUG_clean_linker_0, # of connection points: 2
#     Edge 94, Type (0, 1), BuildingBlock: OJICUG_clean_linker_0, # of connection points: 2
#     Edge 95, Type (0, 1), BuildingBlock: OJICUG_clean_linker_0, # of connection points: 2
#     Edge 96, Type (0, 1), BuildingBlock: OJICUG_clean_linker_0, # of connection points: 2
#     Edge 97, Type (0, 1), BuildingBlock: OJICUG_clean_linker_0, # of connection points: 2
#     Edge 98, Type (0, 1), BuildingBlock: OJICUG_clean_linker_0, # of connection points: 2
#     Edge 99, Type (0, 1), BuildingBlock: OJICUG_clean_linker_0, # of connection points: 2
#     Edge 100, Type (0, 1), BuildingBlock: OJICUG_clean_linker_0, # of connection points: 2
#     Edge 101, Type (0, 1), BuildingBlock: OJICUG_clean_linker_0, # of connection points: 2
#     Edge 102, Type (0, 1), BuildingBlock: OJICUG_clean_linker_0, # of connection points: 2
#     Edge 103, Type (0, 1), BuildingBlock: OJICUG_clean_linker_0, # of connection points: 2
#     Edge 104, Type (0, 1), BuildingBlock: OJICUG_clean_linker_0, # of connection points: 2
#     Edge 105, Type (0, 1), BuildingBlock: OJICUG_clean_linker_0, # of connection points: 2
#     Edge 106, Type (0, 1), BuildingBlock: OJICUG_clean_linker_0, # of connection points: 2
#     Edge 107, Type (0, 1), BuildingBlock: OJICUG_clean_linker_0, # of connection points: 2
#     Edge 108, Type (0, 1), BuildingBlock: OJICUG_clean_linker_0, # of connection points: 2
#     Edge 109, Type (0, 1), BuildingBlock: OJICUG_clean_linker_0, # of connection points: 2
#     Edge 110, Type (0, 1), BuildingBlock: OJICUG_clean_linker_0, # of connection points: 2
#     Edge 111, Type (0, 1), BuildingBlock: OJICUG_clean_linker_0, # of connection points: 2
#     Edge 112, Type (0, 1), BuildingBlock: OJICUG_clean_linker_0, # of connection points: 2
#     Edge 113, Type (0, 1), BuildingBlock: OJICUG_clean_linker_0, # of connection points: 2
#     Edge 114, Type (0, 1), BuildingBlock: OJICUG_clean_linker_0, # of connection points: 2
#     Edge 115, Type (0, 1), BuildingBlock: OJICUG_clean_linker_0, # of connection points: 2
#     Edge 116, Type (0, 1), BuildingBlock: OJICUG_clean_linker_0, # of connection points: 2
#     Edge 117, Type (0, 1), BuildingBlock: OJICUG_clean_linker_0, # of connection points: 2
#     Edge 118, Type (0, 1), BuildingBlock: OJICUG_clean_linker_0, # of connection points: 2
#     Edge 119, Type (0, 1), BuildingBlock: OJICUG_clean_linker_0, # of connection points: 2
#     Edge 120, Type (0, 1), BuildingBlock: OJICUG_clean_linker_0, # of connection points: 2
#     Edge 121, Type (0, 1), BuildingBlock: OJICUG_clean_linker_0, # of connection points: 2
#     Edge 122, Type (0, 1), BuildingBlock: OJICUG_clean_linker_0, # of connection points: 2
#     Edge 123, Type (0, 1), BuildingBlock: OJICUG_clean_linker_0, # of connection points: 2
#     Edge 124, Type (0, 1), BuildingBlock: OJICUG_clean_linker_0, # of connection points: 2
#     Edge 125, Type (0, 1), BuildingBlock: OJICUG_clean_linker_0, # of connection points: 2
#     Edge 126, Type (0, 1), BuildingBlock: OJICUG_clean_linker_0, # of connection points: 2
#     Edge 127, Type (0, 1), BuildingBlock: OJICUG_clean_linker_0, # of connection points: 2
#     Edge 128, Type (0, 1), BuildingBlock: OJICUG_clean_linker_0, # of connection points: 2
#     Edge 129, Type (0, 1), BuildingBlock: OJICUG_clean_linker_0, # of connection points: 2
#     Edge 130, Type (0, 1), BuildingBlock: OJICUG_clean_linker_0, # of connection points: 2
#     Edge 131, Type (0, 1), BuildingBlock: OJICUG_clean_linker_0, # of connection points: 2
#     Edge 132, Type (0, 1), BuildingBlock: OJICUG_clean_linker_0, # of connection points: 2
#     Edge 133, Type (0, 1), BuildingBlock: OJICUG_clean_linker_0, # of connection points: 2
#     Edge 134, Type (0, 1), BuildingBlock: OJICUG_clean_linker_0, # of connection points: 2
#     Edge 135, Type (0, 1), BuildingBlock: OJICUG_clean_linker_0, # of connection points: 2
# Relax obj value: 0.367
# Max RMSD: 0.286
# Mean RMSD: 0.189
data_MOF--net-iac--node1-UXUYUI_clean_sbu_0--node2-FUNLAD_clean_sbu_0--edge1-OJICUG_clean_linker_0
_symmetry_space_group_name_H-M    P1
_symmetry_Int_Tables_number       1
_symmetry_cell_setting            triclinic
loop_
_symmetry_equiv_pos_as_xyz
'x, y, z'
_cell_length_a     53.54676
_cell_length_b     51.635296
_cell_length_c     57.087553
_cell_angle_alpha  89.873978
_cell_angle_beta   92.072507
_cell_angle_gamma 89.791491
loop_
_atom_site_label
_atom_site_type_symbol
_atom_site_fract_x
_atom_site_fract_y
_atom_site_fract_z
_atom_type_partial_charge
Li0 Li 0.06625 0.23158 0.14835 0.0
Li1 Li 0.08012 0.18987 0.1636 0.0
Li2 Li 0.06177 0.19223 0.12545 0.0
Li3 Li 0.03794 0.19812 0.16069 0.0
C4 C 0.10397 0.22068 0.11782 0.0
N5 N 0.12656 0.24491 0.08094 0.0
C6 C 0.12986 0.21915 0.11573 0.0
C7 C 0.08958 0.23456 0.10111 0.0
C8 C 0.14093 0.23152 0.09697 0.0
C9 C 0.10135 0.24668 0.08262 0.0
C10 C 0.04981 0.22804 0.19826 0.0
C11 C 0.02691 0.2226 0.23365 0.0
N12 N 0.02318 0.24863 0.23456 0.0
C13 C 0.04609 0.25478 0.19987 0.0
C14 C 0.04051 0.21187 0.21561 0.0
C15 C 0.03248 0.2648 0.21823 0.0
C16 C 0.04968 0.28105 0.14089 0.0
N17 N 0.07108 0.26727 0.14447 0.0
C18 C 0.09553 0.30215 0.13055 0.0
C19 C 0.09388 0.27772 0.14086 0.0
C20 C 0.07347 0.3159 0.12461 0.0
C21 C 0.05048 0.30574 0.13133 0.0
H22 H 0.0319 0.27222 0.14431 0.0
H23 H 0.11061 0.26627 0.14406 0.0
C24 C 0.12907 0.17663 0.17119 0.0
N25 N 0.1069 0.17719 0.18192 0.0
C26 C 0.15006 0.1875 0.18236 0.0
C27 C 0.12543 0.19526 0.2164 0.0
C28 C 0.10518 0.18385 0.20474 0.0
C29 C 0.14765 0.19907 0.20446 0.0
H30 H 0.1296 0.17146 0.15286 0.0
H31 H 0.08716 0.18448 0.21257 0.0
C32 C 0.01404 0.21492 0.1192 0.0
N33 N 0.96942 0.20659 0.09459 0.0
C34 C 0.00427 0.1899 0.11723 0.0
C35 C 0.0011 0.23568 0.10864 0.0
C36 C 0.98169 0.1861 0.10472 0.0
C37 C 0.97858 0.23107 0.09628 0.0
C38 C 0.06361 0.14364 0.16051 0.0
C39 C 0.07431 0.12424 0.14703 0.0
C40 C 0.06235 0.14019 0.18473 0.0
C41 C 0.08443 0.10224 0.15811 0.0
C42 C 0.07272 0.11796 0.19519 0.0
N43 N 0.08355 0.09966 0.18178 0.0
C44 C 0.08087 0.16203 0.09059 0.0
C45 C 0.04965 0.19109 0.07616 0.0
C46 C 0.08178 0.15007 0.06885 0.0
N47 N 0.0637 0.1808 0.09422 0.0
C48 C 0.05028 0.18007 0.05394 0.0
C49 C 0.06517 0.15803 0.05053 0.0
H50 H 0.09311 0.15563 0.10492 0.0
H51 H 0.03741 0.20732 0.07904 0.0
C52 C 0.99376 0.21797 0.175 0.0
N53 N 0.00666 0.19533 0.17438 0.0
C54 C 0.97227 0.21978 0.18779 0.0
C55 C 0.97702 0.17451 0.19822 0.0
C56 C -0.00147 0.17357 0.18511 0.0
C57 C 0.96403 0.19807 0.20012 0.0
H58 H 0.00085 0.23495 0.16637 0.0
H59 H 0.00921 0.15583 0.18424 0.0
O60 O 0.09294 0.20863 0.13617 0.0
O61 O 0.06309 0.2179 0.18027 0.0
O62 O 0.03603 0.21926 0.13152 0.0
O63 O 0.05408 0.16566 0.15006 0.0
H64 H 0.14135 0.20862 0.12851 0.0
H65 H 0.06957 0.23624 0.1025 0.0
H66 H 0.16095 0.2305 0.09517 0.0
H67 H 0.09043 0.25755 0.06964 0.0
H68 H 0.0193 0.21022 0.24692 0.0
H69 H 0.05384 0.2678 0.1873 0.0
H70 H 0.0433 0.1912 0.21501 0.0
H71 H 0.0294 0.28545 0.21954 0.0
H72 H 0.11366 0.30924 0.12579 0.0
H73 H 0.0331 0.31611 0.12799 0.0
H74 H 0.16714 0.18912 0.17289 0.0
H75 H 0.12247 0.20375 0.2334 0.0
H76 H 0.01395 0.17357 0.12524 0.0
H77 H 0.00842 0.25515 0.10989 0.0
H78 H 0.97392 0.16686 0.10306 0.0
H79 H 0.96838 0.24696 0.08801 0.0
H80 H 0.07459 0.12594 0.1282 0.0
H81 H 0.05379 0.15471 0.19539 0.0
H82 H 0.0929 0.08716 0.14789 0.0
H83 H 0.07219 0.11528 0.21397 0.0
H84 H 0.09384 0.13335 0.06725 0.0
H85 H 0.03788 0.18753 0.0401 0.0
H86 H 0.96247 0.23814 0.18836 0.0
H87 H 0.97117 0.15735 0.20745 0.0
Li88 Li 0.01255 0.76281 0.37895 0.0
Li89 Li 0.03603 0.78662 0.4113 0.0
Li90 Li 0.05939 0.76028 0.37961 0.0
Li91 Li 0.03579 0.7377 0.41054 0.0
C92 C 0.02466 0.80567 0.35896 0.0
N93 N 0.99729 0.83173 0.32431 0.0
C94 C 0.01081 0.82767 0.3645 0.0
C95 C 0.02467 0.79698 0.33581 0.0
C96 C 0.99709 0.84058 0.34673 0.0
C97 C 0.01069 0.81039 0.31854 0.0
C98 C 0.99671 0.76035 0.43455 0.0
C99 C -0.00022 0.76199 0.47676 0.0
N100 N 0.97523 0.75546 0.47759 0.0
C101 C 0.97155 0.75363 0.43579 0.0
C102 C 0.01096 0.76457 0.45516 0.0
C103 C 0.96102 0.75128 0.45773 0.0
C104 C 0.97537 0.75257 0.34057 0.0
N105 N 0.98029 0.76517 0.36117 0.0
C106 C 0.93811 0.7815 0.36064 0.0
C107 C 0.96219 0.77964 0.37111 0.0
C108 C 0.93235 0.76854 0.33948 0.0
C109 C 0.95157 0.75414 0.32935 0.0
H110 H 0.98976 0.74098 0.33293 0.0
H111 H 0.96638 0.78958 0.38744 0.0
C112 C 0.05588 0.82745 0.44184 0.0
N113 N 0.035 0.81798 0.43056 0.0
C114 C 0.05466 0.85001 0.4555 0.0
C115 C 0.01072 0.85335 0.4451 0.0
C116 C 0.01262 0.83038 0.43217 0.0
C117 C 0.0319 0.86342 0.45708 0.0
H118 H 0.0736 0.81768 0.44005 0.0
H119 H 0.99622 0.82256 0.42315 0.0
C120 C 0.04542 0.71361 0.36188 0.0
N121 N 0.0683 0.67791 0.3336 0.0
C122 C 0.05971 0.69344 0.37187 0.0
C123 C 0.04261 0.71545 0.33751 0.0
C124 C 0.07116 0.67563 0.35729 0.0
C125 C 0.05438 0.69727 0.32351 0.0
C126 C 0.08179 0.74991 0.43021 0.0
C127 C 0.09472 0.7278 0.42331 0.0
C128 C 0.08602 0.75972 0.45282 0.0
C129 C 0.1115 0.71574 0.43917 0.0
C130 C 0.10298 0.7471 0.46818 0.0
N131 N 0.11524 0.72554 0.4611 0.0
C132 C 0.11291 0.7614 0.3739 0.0
C133 C 0.0908 0.75815 0.33759 0.0
C134 C 0.13584 0.76075 0.3627 0.0
N135 N 0.09079 0.75972 0.36145 0.0
C136 C 0.11338 0.75784 0.32559 0.0
C137 C 0.1366 0.75911 0.33807 0.0
H138 H 0.11294 0.76343 0.3927 0.0
H139 H 0.07329 0.7574 0.32764 0.0
C140 C 0.02135 0.68557 0.42074 0.0
N141 N 0.03336 0.7064 0.43034 0.0
C142 C 0.01947 0.66231 0.43332 0.0
C143 C 0.04163 0.68228 0.46594 0.0
C144 C 0.04285 0.70525 0.4528 0.0
C145 C 0.03004 0.66011 0.45623 0.0
H146 H 0.01334 0.68692 0.40311 0.0
H147 H 0.05152 0.72207 0.46066 0.0
O148 O 0.03751 0.79222 0.37622 0.0
O149 O 0.00731 0.7628 0.41324 0.0
O150 O 0.03407 0.7313 0.37587 0.0
O151 O 0.06514 0.76189 0.41492 0.0
H152 H 0.01058 0.83466 0.38232 0.0
H153 H 0.03501 0.77981 0.33129 0.0
H154 H 0.98623 0.85759 0.35078 0.0
H155 H 0.01039 0.80376 0.30057 0.0
H156 H 0.0106 0.76517 0.49285 0.0
H157 H 0.96028 0.75029 0.41996 0.0
H158 H 0.03046 0.76973 0.45447 0.0
H159 H 0.94154 0.74613 0.45898 0.0
H160 H 0.92415 0.79311 0.36905 0.0
H161 H 0.94809 0.74358 0.3132 0.0
H162 H 0.07149 0.85728 0.46426 0.0
H163 H 0.99281 0.86309 0.44586 0.0
H164 H 0.0619 0.69146 0.39067 0.0
H165 H 0.03181 0.73099 0.32943 0.0
H166 H 0.0823 0.65997 0.36481 0.0
H167 H 0.0525 0.69862 0.30461 0.0
H168 H 0.09201 0.7202 0.4058 0.0
H169 H 0.07611 0.77666 0.45862 0.0
H170 H 0.1216 0.69861 0.43402 0.0
H171 H 0.10632 0.75441 0.48575 0.0
H172 H 0.15283 0.76137 0.37353 0.0
H173 H 0.11248 0.75709 0.30665 0.0
H174 H 0.00968 0.64625 0.42508 0.0
H175 H 0.05019 0.68188 0.4834 0.0
Li176 Li 0.57168 0.6931 0.66533 0.0
Li177 Li 0.55123 0.72846 0.64388 0.0
Li178 Li 0.5281 0.69212 0.65934 0.0
Li179 Li 0.55498 0.68684 0.62602 0.0
C180 C 0.53266 0.72779 0.69348 0.0
N181 N 0.50072 0.74583 0.72681 0.0
C182 C 0.52051 0.75163 0.69033 0.0
C183 C 0.52855 0.71315 0.71362 0.0
C184 C 0.50444 0.76041 0.70738 0.0
C185 C 0.5123 0.72258 0.73023 0.0
C186 C 0.59723 0.72876 0.62862 0.0
C187 C 0.60862 0.75973 0.59917 0.0
N188 N 0.62682 0.76906 0.61406 0.0
C189 C 0.61603 0.73871 0.64364 0.0
C190 C 0.59351 0.73934 0.60618 0.0
C191 C 0.63082 0.75903 0.63593 0.0
C192 C 0.62121 0.67998 0.67641 0.0
N193 N 0.59919 0.68726 0.68551 0.0
C194 C 0.61975 0.70425 0.71959 0.0
C195 C 0.59796 0.69785 0.70713 0.0
C196 C 0.64289 0.6998 0.7095 0.0
C197 C 0.6436 0.68604 0.68832 0.0
H198 H 0.62147 0.67218 0.65885 0.0
H199 H 0.58024 0.70397 0.71359 0.0
C200 C 0.53763 0.77197 0.61819 0.0
N201 N 0.55184 0.76403 0.63701 0.0
C202 C 0.54158 0.79612 0.60832 0.0
C203 C 0.57301 0.80457 0.63889 0.0
C204 C 0.56851 0.78005 0.64812 0.0
C205 C 0.56012 0.81224 0.61819 0.0
H206 H 0.52406 0.75908 0.61018 0.0
H207 H 0.57937 0.77315 0.66323 0.0
C208 C 0.56647 0.64365 0.66165 0.0
N209 N 0.59796 0.60479 0.67839 0.0
C210 C 0.58249 0.63107 0.64654 0.0
C211 C 0.56638 0.6364 0.68525 0.0
C212 C 0.59832 0.6115 0.65536 0.0
C213 C 0.58241 0.61667 0.69334 0.0
C214 C 0.5103 0.70303 0.60835 0.0
C215 C 0.48907 0.68749 0.60978 0.0
C216 C 0.51722 0.71238 0.5865 0.0
C217 C 0.47512 0.6816 0.58934 0.0
C218 C 0.5028 0.70601 0.56648 0.0
N219 N 0.48222 0.69089 0.5683 0.0
C220 C 0.48072 0.70429 0.67085 0.0
C221 C 0.49506 0.66538 0.6892 0.0
C222 C 0.46049 0.7054 0.68532 0.0
N223 N 0.49788 0.68503 0.67362 0.0
C224 C 0.47486 0.66565 0.70404 0.0
C225 C 0.45798 0.68648 0.7027 0.0
H226 H 0.4838 0.7198 0.65853 0.0
H227 H 0.5093 0.65058 0.69119 0.0
C228 C 0.58179 0.67451 0.58577 0.0
N229 N 0.5603 0.67053 0.59728 0.0
C230 C 0.58552 0.6623 0.56438 0.0
C231 C 0.5449 0.64237 0.56735 0.0
C232 C 0.54224 0.65441 0.58879 0.0
C233 C 0.56673 0.64629 0.55491 0.0
H234 H 0.59627 0.68664 0.59343 0.0
H235 H 0.52589 0.65076 0.59883 0.0
O236 O 0.54854 0.71889 0.67698 0.0
O237 O 0.58225 0.70911 0.63595 0.0
O238 O 0.55095 0.66298 0.65339 0.0
O239 O 0.52413 0.70915 0.6282 0.0
H240 H 0.52331 0.7632 0.67486 0.0
H241 H 0.53746 0.69447 0.71622 0.0
H242 H 0.49489 0.77879 0.70514 0.0
H243 H 0.5088 0.71135 0.74578 0.0
H244 H 0.60579 0.76823 0.58194 0.0
H245 H 0.61891 0.73121 0.66121 0.0
H246 H 0.57885 0.73213 0.59442 0.0
H247 H 0.64537 0.76696 0.64741 0.0
H248 H 0.61829 0.71501 0.73575 0.0
H249 H 0.66113 0.68194 0.68018 0.0
H250 H 0.53081 0.80183 0.59272 0.0
H251 H 0.58729 0.81673 0.64702 0.0
H252 H 0.58282 0.6364 0.62823 0.0
H253 H 0.55424 0.64607 0.69723 0.0
H254 H 0.61086 0.60163 0.64389 0.0
H255 H 0.58245 0.61078 0.7115 0.0
H256 H 0.48351 0.67984 0.62643 0.0
H257 H 0.53378 0.72411 0.58496 0.0
H258 H 0.45868 0.66956 0.59021 0.0
H259 H 0.50803 0.71301 0.54947 0.0
H260 H 0.44756 0.72155 0.68366 0.0
H261 H 0.47332 0.65076 0.7173 0.0
H262 H 0.60291 0.66493 0.55557 0.0
H263 H 0.53047 0.62919 0.56102 0.0
Li264 Li 0.51279 0.26123 0.87755 0.0
Li265 Li 0.53589 0.28704 0.90948 0.0
Li266 Li 0.56002 0.26032 0.87794 0.0
Li267 Li 0.53589 0.23848 0.90893 0.0
C268 C 0.52356 0.30779 0.85985 0.0
N269 N 0.49519 0.33999 0.83072 0.0
C270 C 0.50363 0.3218 0.8687 0.0
C271 C 0.52923 0.31032 0.83626 0.0
C272 C 0.48945 0.33793 0.85366 0.0
C273 C 0.51463 0.32667 0.8218 0.0
C274 C 0.49539 0.25143 0.92963 0.0
C275 C 0.492 0.24254 0.97087 0.0
N276 N 0.47298 0.22585 0.9658 0.0
C277 C 0.47583 0.23417 0.92481 0.0
C278 C 0.50359 0.25565 0.95282 0.0
C279 C 0.46472 0.22144 0.94335 0.0
C280 C 0.47773 0.25595 0.83603 0.0
N281 N 0.48072 0.2629 0.85899 0.0
C282 C 0.43689 0.27328 0.86 0.0
C283 C 0.4608 0.27178 0.87084 0.0
C284 C 0.43305 0.26568 0.83648 0.0
C285 C 0.45409 0.25717 0.82446 0.0
H286 H 0.49353 0.24929 0.82654 0.0
H287 H 0.46341 0.27777 0.8889 0.0
C288 C 0.55481 0.33577 0.92765 0.0
N289 N 0.53526 0.319 0.92799 0.0
C290 C 0.55413 0.35923 0.94007 0.0
C291 C 0.5134 0.34777 0.95335 0.0
C292 C 0.51474 0.32467 0.94049 0.0
C293 C 0.53319 0.36562 0.9532 0.0
H294 H 0.57091 0.33104 0.91754 0.0
H295 H 0.49917 0.31139 0.94025 0.0
C296 C 0.5349 0.21954 0.85298 0.0
N297 N 0.53462 0.19688 0.80915 0.0
C298 C 0.52908 0.19332 0.85037 0.0
C299 C 0.54075 0.23418 0.83333 0.0
C300 C 0.52898 0.18223 0.82806 0.0
C301 C 0.54047 0.2224 0.81131 0.0
C302 C 0.58414 0.25171 0.92593 0.0
C303 C 0.59608 0.22964 0.91763 0.0
C304 C 0.59178 0.26233 0.9475 0.0
C305 C 0.61551 0.21842 0.93118 0.0
C306 C 0.61129 0.25053 0.96052 0.0
N307 N 0.62264 0.229 0.95216 0.0
C308 C 0.60528 0.28179 0.85922 0.0
C309 C 0.60012 0.23735 0.85069 0.0
C310 C 0.62823 0.28206 0.84792 0.0
N311 N 0.59162 0.25965 0.86049 0.0
C312 C 0.62273 0.23689 0.83884 0.0
C313 C 0.63735 0.2594 0.83743 0.0
H314 H 0.59849 0.29931 0.86722 0.0
H315 H 0.58951 0.21969 0.85224 0.0
C316 C 0.52017 0.18758 0.92077 0.0
N317 N 0.53458 0.2074 0.92912 0.0
C318 C 0.51779 0.16465 0.9337 0.0
C319 C 0.54484 0.18273 0.96402 0.0
C320 C 0.54652 0.20546 0.95056 0.0
C321 C 0.53047 0.16166 0.95561 0.0
H322 H 0.51019 0.18969 0.90408 0.0
H323 H 0.55735 0.22154 0.95737 0.0
O324 O 0.53709 0.2913 0.87417 0.0
O325 O 0.50704 0.26345 0.9117 0.0
O326 O 0.53597 0.23044 0.87482 0.0
O327 O 0.56492 0.26282 0.9131 0.0
H328 H 0.49896 0.31995 0.88692 0.0
H329 H 0.54478 0.29984 0.82919 0.0
H330 H 0.47385 0.34874 0.86022 0.0
H331 H 0.51875 0.32878 0.80348 0.0
H332 H 0.49823 0.24552 0.9889 0.0
H333 H 0.46952 0.2304 0.90692 0.0
H334 H 0.51901 0.26861 0.9568 0.0
H335 H 0.44963 0.20796 0.93989 0.0
H336 H 0.42158 0.28054 0.87 0.0
H337 H 0.45227 0.25095 0.80638 0.0
H338 H 0.56997 0.37217 0.93951 0.0
H339 H 0.49672 0.35188 0.96287 0.0
H340 H 0.52489 0.18156 0.86541 0.0
H341 H 0.54551 0.25439 0.83508 0.0
H342 H 0.52452 0.16196 0.82579 0.0
H343 H 0.54493 0.23353 0.79596 0.0
H344 H 0.59022 0.22114 0.90102 0.0
H345 H 0.58264 0.27941 0.95413 0.0
H346 H 0.62488 0.20126 0.92503 0.0
H347 H 0.61738 0.25846 0.97729 0.0
H348 H 0.63867 0.29995 0.84727 0.0
H349 H 0.62904 0.21885 0.83138 0.0
H350 H 0.50588 0.1495 0.92657 0.0
H351 H 0.55511 0.18159 0.98067 0.0
Li352 Li 0.14682 0.02112 0.27282 0.0
Li353 Li 0.17988 0.03941 0.24984 0.0
Li354 Li 0.14423 0.01724 0.23105 0.0
Li355 Li 0.17671 0.99331 0.253 0.0
C356 C 0.13032 0.06722 0.26069 0.0
N357 N 0.10261 0.10233 0.28549 0.0
C358 C 0.14192 0.08866 0.27123 0.0
C359 C 0.10462 0.06366 0.26274 0.0
C360 C 0.12758 0.1062 0.28368 0.0
C361 C 0.09095 0.08161 0.27538 0.0
C362 C 0.19898 0.00527 0.2935 0.0
C363 C 0.23957 0.98715 0.30354 0.0
N364 N 0.2302 0.97652 0.32319 0.0
C365 C 0.18976 0.9942 0.3138 0.0
C366 C 0.2241 0.0018 0.28834 0.0
C367 C 0.20586 0.97974 0.32859 0.0
C368 C 0.10771 0.01516 0.30538 0.0
N369 N 0.12969 0.0269 0.30085 0.0
C370 C 0.12995 0.04877 0.33766 0.0
C371 C 0.1408 0.04357 0.31635 0.0
C372 C 0.1074 0.03673 0.34303 0.0
C373 C 0.09609 0.01993 0.32648 0.0
H374 H 0.09936 0.00193 0.29274 0.0
H375 H 0.15827 0.05265 0.31218 0.0
C376 C 0.19794 0.0865 0.23195 0.0
N377 N 0.2016 0.06807 0.24877 0.0
C378 C 0.21151 0.1095 0.23311 0.0
C379 C 0.23248 0.09388 0.26867 0.0
C380 C 0.21866 0.07114 0.26673 0.0
C381 C 0.22856 0.1136 0.25199 0.0
H382 H 0.18368 0.08384 0.21829 0.0
H383 H 0.22072 0.05648 0.28016 0.0
C384 C 0.12318 0.97387 0.24303 0.0
N385 N 0.08958 0.94374 0.21745 0.0
C386 C 0.13136 0.95161 0.23168 0.0
C387 C 0.0979 0.98075 0.24149 0.0
C388 C 0.11408 0.93664 0.21882 0.0
C389 C 0.08122 0.96529 0.22841 0.0
C390 C 0.19571 0.02536 0.20904 0.0
C391 C 0.18589 0.03813 0.18913 0.0
C392 C 0.22152 0.02538 0.21375 0.0
C393 C 0.20208 0.05077 0.17426 0.0
C394 C 0.23708 0.03829 0.19848 0.0
N395 N 0.22712 0.0506 0.17921 0.0
C396 C 0.10406 0.03362 0.20029 0.0
C397 C 0.12827 -0.00164 0.18714 0.0
C398 C 0.08968 0.03358 0.17939 0.0
N399 N 0.123 0.01626 0.20366 0.0
C400 C 0.11452 0.99778 0.16593 0.0
C401 C 0.09519 0.01587 0.16165 0.0
H402 H 0.10047 0.04787 0.21357 0.0
H403 H 0.14354 0.98488 0.19028 0.0
C404 C 0.19166 0.94531 0.27277 0.0
N405 N 0.1954 0.96203 0.25483 0.0
C406 C 0.20584 0.92266 0.27494 0.0
C407 C 0.22669 0.93434 0.23957 0.0
C408 C 0.21234 0.95695 0.23827 0.0
C409 C 0.22361 0.91698 0.25817 0.0
H410 H 0.17769 0.94963 0.28541 0.0
H411 H 0.21466 0.9704 0.224 0.0
O412 O 0.14409 0.04964 0.24868 0.0
O413 O 0.18346 0.01923 0.27863 0.0
O414 O 0.13987 0.98903 0.25536 0.0
O415 O 0.18017 0.01301 0.22392 0.0
H416 H 0.1618 0.09166 0.26998 0.0
H417 H 0.09539 0.04698 0.25502 0.0
H418 H 0.13633 0.12284 0.29196 0.0
H419 H 0.07108 0.07901 0.27722 0.0
H420 H 0.259 0.98418 0.29969 0.0
H421 H 0.17035 0.99645 0.31799 0.0
H422 H 0.2315 0.01007 0.27262 0.0
H423 H 0.19896 0.97098 0.34432 0.0
H424 H 0.13914 0.06201 0.34985 0.0
H425 H 0.07884 0.01004 0.3301 0.0
H426 H 0.20764 0.12449 0.22016 0.0
H427 H 0.24547 0.09639 0.28347 0.0
H428 H 0.15087 0.94606 0.23261 0.0
H429 H 0.0913 0.99803 0.25001 0.0
H430 H 0.12015 0.91941 0.20987 0.0
H431 H 0.06163 0.97047 0.22692 0.0
H432 H 0.16597 0.03852 0.18528 0.0
H433 H 0.22943 0.01576 0.22916 0.0
H434 H 0.19473 0.06079 0.15883 0.0
H435 H 0.25707 0.03856 0.20196 0.0
H436 H 0.07495 0.04781 0.17686 0.0
H437 H 0.11913 0.98343 0.15296 0.0
H438 H 0.20261 0.90948 0.28929 0.0
H439 H 0.24017 0.93056 0.22628 0.0
Li440 Li 0.2641 0.91931 0.55398 0.0
Li441 Li 0.28488 0.88343 0.57392 0.0
Li442 Li 0.31149 0.91807 0.55506 0.0
Li443 Li 0.28734 0.88521 0.53219 0.0
C444 C 0.28364 0.94425 0.59284 0.0
N445 N 0.27522 0.99068 0.61526 0.0
C446 C 0.26991 0.94482 0.6132 0.0
C447 C 0.29312 0.96728 0.58391 0.0
C448 C 0.26583 0.96849 0.62427 0.0
C449 C 0.28866 0.99056 0.59549 0.0
C450 C 0.24239 0.86209 0.55905 0.0
C451 C 0.23689 0.81691 0.56855 0.0
N452 N 0.2149 0.82273 0.57853 0.0
C453 C 0.21948 0.86749 0.56903 0.0
C454 C 0.25091 0.8365 0.55848 0.0
C455 C 0.20595 0.8474 0.57891 0.0
C456 C 0.22858 0.95774 0.53579 0.0
N457 N 0.23455 0.94152 0.55397 0.0
C458 C 0.19491 0.95013 0.57073 0.0
C459 C 0.21863 0.93852 0.57181 0.0
C460 C 0.18764 0.96578 0.55139 0.0
C461 C 0.20544 0.97032 0.53433 0.0
H462 H 0.24124 0.96053 0.5219 0.0
H463 H 0.22385 0.926 0.5864 0.0
C464 C 0.29784 0.84005 0.60298 0.0
N465 N 0.2824 0.86089 0.60049 0.0
C466 C 0.29547 0.82294 0.62177 0.0
C467 C 0.26173 0.8494 0.63547 0.0
C468 C 0.26448 0.86573 0.61618 0.0
C469 C 0.27735 0.82755 0.63855 0.0
H470 H 0.31197 0.83661 0.59033 0.0
H471 H 0.25225 0.88229 0.61366 0.0
C472 C 0.28291 0.93949 0.50985 0.0
N473 N 0.27181 0.97238 0.47262 0.0
C474 C 0.26938 0.93044 0.49014 0.0
C475 C 0.29056 0.96537 0.5107 0.0
C476 C 0.26404 0.94734 0.47147 0.0
C477 C 0.28481 0.98166 0.49169 0.0
C478 C 0.3311 0.86308 0.54372 0.0
C479 C 0.35261 0.87269 0.53359 0.0
C480 C 0.32549 0.83675 0.54146 0.0
C481 C 0.36771 0.85603 0.52099 0.0
C482 C 0.34102 0.8207 0.52869 0.0
N483 N 0.36163 0.8306 0.51877 0.0
C484 C 0.359 0.93834 0.57201 0.0
C485 C 0.34862 0.94438 0.53166 0.0
C486 C 0.38308 0.94801 0.5688 0.0
N487 N 0.34243 0.93651 0.55346 0.0
C488 C 0.37221 0.95449 0.52776 0.0
C489 C 0.38996 0.95598 0.54635 0.0
H490 H 0.35386 0.93136 0.58905 0.0
H491 H 0.3358 0.94133 0.51693 0.0
C492 C 0.27744 0.84597 0.49728 0.0
N493 N 0.29066 0.86748 0.50341 0.0
C494 C 0.28179 0.8335 0.4761 0.0
C495 C 0.31294 0.86579 0.46797 0.0
C496 C 0.30816 0.87745 0.48932 0.0
C497 C 0.29967 0.84354 0.46114 0.0
H498 H 0.26355 0.83852 0.50876 0.0
H499 H 0.31849 0.8945 0.49478 0.0
O500 O 0.28807 0.92122 0.58191 0.0
O501 O 0.25632 0.88164 0.54986 0.0
O502 O 0.28841 0.92322 0.5283 0.0
O503 O 0.3157 0.87933 0.55566 0.0
H504 H 0.26252 0.92718 0.62042 0.0
H505 H 0.30383 0.96718 0.56823 0.0
H506 H 0.25524 0.96921 0.64003 0.0
H507 H 0.29591 0.00853 0.58878 0.0
H508 H 0.24349 0.79709 0.56844 0.0
H509 H 0.21205 0.88689 0.56902 0.0
H510 H 0.26826 0.83181 0.55053 0.0
H511 H 0.1883 0.85141 0.58682 0.0
H512 H 0.18213 0.94581 0.58445 0.0
H513 H 0.20146 0.983 0.51954 0.0
H514 H 0.30771 0.80624 0.62299 0.0
H515 H 0.24778 0.85422 0.64801 0.0
H516 H 0.26291 0.91063 0.48932 0.0
H517 H 0.30072 0.97284 0.52593 0.0
H518 H 0.25365 0.94058 0.45608 0.0
H519 H 0.29063 0.00169 0.49212 0.0
H520 H 0.35767 0.89276 0.53532 0.0
H521 H 0.3093 0.82868 0.54936 0.0
H522 H 0.38428 0.86334 0.51297 0.0
H523 H 0.33669 0.80036 0.52668 0.0
H524 H 0.39629 0.94888 0.5836 0.0
H525 H 0.37691 0.95986 0.51011 0.0
H526 H 0.27098 0.81652 0.47126 0.0
H527 H 0.327 0.87398 0.457 0.0
Li528 Li 0.38649 0.98602 0.74044 0.0
Li529 Li 0.41793 0.00908 0.76412 0.0
Li530 Li 0.38308 0.03326 0.74027 0.0
Li531 Li 0.41712 0.01135 0.72176 0.0
C532 C 0.36518 0.9972 0.78195 0.0
N533 N 0.33299 0.97209 0.81108 0.0
C534 C 0.37435 0.97867 0.79796 0.0
C535 C 0.33971 0.00326 0.781 0.0
C536 C 0.35775 0.96606 0.81244 0.0
C537 C 0.32372 0.9903 0.79583 0.0
C538 C 0.43343 0.96201 0.72871 0.0
C539 C 0.46815 0.93426 0.71985 0.0
N540 N 0.45477 0.92466 0.70113 0.0
C541 C 0.42004 0.95193 0.70936 0.0
C542 C 0.45769 0.95316 0.734 0.0
C543 C 0.43115 0.93302 0.69566 0.0
C544 C 0.34568 0.94837 0.7357 0.0
N545 N 0.36941 0.9536 0.74357 0.0
C546 C 0.37224 0.91259 0.76308 0.0
C547 C 0.38271 0.93618 0.7569 0.0
C548 C 0.34774 0.90664 0.75544 0.0
C549 C 0.33445 0.92484 0.74141 0.0
H550 H 0.33524 0.96249 0.7254 0.0
H551 H 0.40128 0.941 0.7635 0.0
C552 C 0.43812 0.02671 0.80773 0.0
N553 N 0.43701 0.00675 0.7923 0.0
C554 C 0.45104 0.02374 0.82926 0.0
C555 C 0.46161 0.97993 0.81829 0.0
C556 C 0.44833 0.98368 0.79712 0.0
C557 C 0.46296 3e-05 0.83482 0.0
H558 H 0.42855 0.0447 0.80347 0.0
H559 H 0.44663 0.96801 0.78467 0.0
C560 C 0.35844 0.00541 0.70139 0.0
N561 N 0.31295 0.99794 0.67796 0.0
C562 C 0.35745 0.99398 0.6792 0.0
C563 C 0.33629 0.01305 0.71163 0.0
C564 C 0.33427 0.99036 0.66764 0.0
C565 C 0.31348 0.00911 0.69953 0.0
C566 C 0.43688 0.05603 0.73442 0.0
C567 C 0.42986 0.07195 0.71546 0.0
C568 C 0.46179 0.05533 0.74258 0.0
C569 C 0.44804 0.0867 0.70472 0.0
C570 C 0.4794 0.07043 0.73139 0.0
N571 N 0.47223 0.08563 0.71283 0.0
C572 C 0.35769 0.07303 0.76229 0.0
C573 C 0.35495 0.07583 0.72083 0.0
C574 C 0.34441 0.09616 0.76427 0.0
N575 N 0.36278 0.06347 0.74084 0.0
C576 C 0.34147 0.09903 0.72199 0.0
C577 C 0.33623 0.10964 0.74396 0.0
H578 H 0.36448 0.06292 0.77788 0.0
H579 H 0.35946 0.06784 0.70399 0.0
C580 C 0.46424 0.00953 0.70103 0.0
N581 N 0.43947 0.01399 0.69661 0.0
C582 C 0.48123 0.01208 0.68321 0.0
C583 C 0.44693 0.02416 0.65666 0.0
C584 C 0.43057 0.02119 0.67497 0.0
C585 C 0.47264 0.01956 0.66068 0.0
H586 H 0.47085 0.00431 0.71853 0.0
H587 H 0.4108 0.0248 0.67202 0.0
O588 O 0.38114 0.00963 0.76754 0.0
O589 O 0.42316 0.98097 0.74207 0.0
O590 O 0.38108 0.00968 0.71258 0.0
O591 O 0.41951 0.04089 0.74473 0.0
H592 H 0.39403 0.97386 0.79903 0.0
H593 H 0.33235 0.01795 0.7691 0.0
H594 H 0.36455 0.9515 0.82476 0.0
H595 H 0.30395 0.99477 0.79526 0.0
H596 H 0.48694 0.9273 0.72369 0.0
H597 H 0.40134 0.95875 0.70487 0.0
H598 H 0.46847 0.96104 0.74869 0.0
H599 H 0.42102 0.92504 0.68062 0.0
H600 H 0.38306 0.89946 0.77428 0.0
H601 H 0.3156 0.92096 0.73491 0.0
H602 H 0.45116 0.03963 0.8416 0.0
H603 H 0.47069 0.96145 0.82164 0.0
H604 H 0.37445 0.98807 0.67096 0.0
H605 H 0.33665 0.02177 0.72878 0.0
H606 H 0.33322 0.98159 0.65044 0.0
H607 H 0.29621 0.01489 0.7073 0.0
H608 H 0.41064 0.07259 0.70892 0.0
H609 H 0.46747 0.04305 0.75723 0.0
H610 H 0.44295 0.09894 0.68989 0.0
H611 H 0.49879 0.06999 0.7374 0.0
H612 H 0.34132 0.10379 0.78159 0.0
H613 H 0.33537 0.10859 0.70587 0.0
H614 H 0.50091 0.00858 0.68708 0.0
H615 H 0.4395 0.02963 0.63945 0.0
Li616 Li 0.31169 0.12977 0.05932 0.0
Li617 Li 0.31844 0.08693 0.04309 0.0
Li618 Li 0.29845 0.12114 0.01899 0.0
Li619 Li 0.27708 0.10026 0.05172 0.0
C620 C 0.35712 0.12724 0.03386 0.0
N621 N 0.40693 0.14108 0.03692 0.0
C622 C 0.37386 0.11351 0.04864 0.0
C623 C 0.36572 0.148 0.02065 0.0
C624 C 0.39899 0.12077 0.04988 0.0
C625 C 0.39095 0.15474 0.02249 0.0
C626 C 0.29775 0.08403 0.09422 0.0
C627 C 0.28567 0.04593 0.11559 0.0
N628 N 0.28198 0.06082 0.13479 0.0
C629 C 0.29391 0.09891 0.1142 0.0
C630 C 0.29355 0.0573 0.0949 0.0
C631 C 0.28587 0.08683 0.13451 0.0
C632 C 0.30337 0.16828 0.09006 0.0
N633 N 0.32257 0.15739 0.07872 0.0
C634 C 0.35029 0.1909 0.09204 0.0
C635 C 0.34587 0.16793 0.07973 0.0
C636 C 0.33044 0.20303 0.10309 0.0
C637 C 0.30687 0.19117 0.10235 0.0
H638 H 0.2851 0.15942 0.08901 0.0
H639 H 0.36095 0.159 0.07074 0.0
C640 C 0.35069 0.0553 0.02008 0.0
N641 N 0.3399 0.05871 0.04097 0.0
C642 C 0.37008 0.0376 0.01815 0.0
C643 C 0.36536 0.02583 0.05883 0.0
C644 C 0.34639 0.04414 0.06006 0.0
C645 C 0.37842 0.02356 0.03807 0.0
H646 H 0.34547 0.06773 0.00542 0.0
H647 H 0.33832 0.04801 0.07669 0.0
C648 C 0.27448 0.16297 0.03876 0.0
N649 N 0.26587 0.21435 0.02747 0.0
C650 C 0.25049 0.17346 0.0401 0.0
C651 C 0.29409 0.17857 0.03159 0.0
C652 C 0.24651 0.19948 0.03431 0.0
C653 C 0.28937 0.20452 0.02602 0.0
C654 C 0.28812 0.06238 0.01078 0.0
C655 C 0.29525 0.06143 0.98749 0.0
C656 C 0.28041 0.0398 0.02189 0.0
C657 C 0.29486 0.03772 0.97575 0.0
C658 C 0.28023 0.01647 0.00953 0.0
N659 N 0.28742 0.01592 0.98692 0.0
C660 C 0.31074 0.1385 0.97389 0.0
C661 C 0.26824 0.14176 0.98414 0.0
C662 C 0.3052 0.15028 0.95231 0.0
N663 N 0.29231 0.13487 0.98926 0.0
C664 C 0.26194 0.15386 0.963 0.0
C665 C 0.2806 0.1584 0.94696 0.0
H666 H 0.32966 0.13252 0.97851 0.0
H667 H 0.25402 0.13825 0.99672 0.0
C668 C 0.237 0.0712 0.07281 0.0
N669 N 0.2451 0.08698 0.05562 0.0
C670 C 0.21757 0.05389 0.06782 0.0
C671 C 0.21326 0.07227 0.02885 0.0
C672 C 0.23283 0.08885 0.03449 0.0
C673 C 0.20643 0.05346 0.04513 0.0
H674 H 0.24641 0.07075 0.08977 0.0
H675 H 0.23978 0.10166 0.02123 0.0
O676 O 0.33249 0.12033 0.03206 0.0
O677 O 0.30639 0.09545 0.07443 0.0
O678 O 0.27846 0.13735 0.04384 0.0
O679 O 0.28841 0.0854 0.02253 0.0
H680 H 0.36752 0.09764 0.05924 0.0
H681 H 0.353 0.15891 0.00921 0.0
H682 H 0.41215 0.11033 0.06123 0.0
H683 H 0.39783 0.17084 0.01245 0.0
H684 H 0.28224 0.02532 0.1163 0.0
H685 H 0.29728 0.11953 0.1141 0.0
H686 H 0.29577 0.04552 0.07948 0.0
H687 H 0.28282 0.09813 0.15009 0.0
H688 H 0.36881 0.19928 0.0926 0.0
H689 H 0.29125 0.19939 0.11136 0.0
H690 H 0.37992 0.03692 0.00193 0.0
H691 H 0.37125 0.01533 0.07453 0.0
H692 H 0.23509 0.16154 0.04542 0.0
H693 H 0.31273 0.1707 0.03026 0.0
H694 H 0.22802 0.20785 0.03521 0.0
H695 H 0.30437 0.21683 0.02049 0.0
H696 H 0.30117 0.0788 0.97864 0.0
H697 H 0.27464 0.04029 0.03985 0.0
H698 H 0.30046 0.03665 0.95776 0.0
H699 H 0.27435 -0.00119 0.0179 0.0
H700 H 0.32002 0.15362 0.94025 0.0
H701 H 0.24275 0.15966 0.95923 0.0
H702 H 0.21243 0.04005 0.08107 0.0
H703 H 0.20441 0.07338 0.01151 0.0
Li704 Li 0.76231 0.41986 0.05117 0.0
Li705 Li 0.78219 0.38704 0.07479 0.0
Li706 Li 0.80794 0.42205 0.05364 0.0
Li707 Li 0.78479 0.38665 0.03135 0.0
C708 C 0.77313 0.44488 0.09149 0.0
N709 N 0.74988 0.48447 0.11486 0.0
C710 C 0.75145 0.43996 0.10364 0.0
C711 C 0.78315 0.46983 0.09138 0.0
C712 C 0.7399 0.46028 0.11527 0.0
C713 C 0.77108 0.48961 0.1033 0.0
C714 C 0.7458 0.35743 0.05145 0.0
C715 C 0.75144 0.31132 0.04704 0.0
N716 N 0.72769 0.30741 0.05389 0.0
C717 C 0.72139 0.35291 0.0584 0.0
C718 C 0.76091 0.33644 0.04572 0.0
C719 C 0.71261 0.32752 0.05956 0.0
C720 C 0.71094 0.42552 0.0427 0.0
N721 N 0.73149 0.4399 0.04838 0.0
C722 C 0.70618 0.4783 0.0498 0.0
C723 C 0.72958 0.46598 0.05158 0.0
C724 C 0.68464 0.46353 0.04498 0.0
C725 C 0.68728 0.43687 0.0412 0.0
H726 H 0.71289 0.40513 0.03924 0.0
H727 H 0.74612 0.47727 0.05554 0.0
C728 C 0.80091 0.35668 0.11379 0.0
N729 N 0.78008 0.36614 0.10239 0.0
C730 C 0.79879 0.34038 0.13323 0.0
C731 C 0.7539 0.34447 0.12922 0.0
C732 C 0.75691 0.36082 0.11003 0.0
C733 C 0.775 0.33386 0.14111 0.0
H734 H 0.81918 0.36175 0.10778 0.0
H735 H 0.74067 0.36926 0.10118 0.0
C736 C 0.77301 0.44244 0.0122 0.0
N737 N 0.74574 0.47913 0.98686 0.0
C738 C 0.75452 0.43473 0.99581 0.0
C739 C 0.7777 0.46879 0.01568 0.0
C740 C 0.74089 0.45358 0.9832 0.0
C741 C 0.76371 0.48704 0.00267 0.0
C742 C 0.83132 0.36579 0.05451 0.0
C743 C 0.85441 0.37324 0.04605 0.0
C744 C 0.82807 0.34031 0.06216 0.0
C745 C 0.8737 0.35503 0.04505 0.0
C746 C 0.84781 0.32267 0.0609 0.0
N747 N 0.87002 0.33032 0.05243 0.0
C748 C 0.85683 0.43819 0.06969 0.0
C749 C 0.84427 0.45049 0.03101 0.0
C750 C 0.88121 0.44677 0.06609 0.0
N751 N 0.83907 0.4399 0.0521 0.0
C752 C 0.86823 0.45956 0.02676 0.0
C753 C 0.88724 0.45729 0.04425 0.0
H754 H 0.8524 0.42902 0.08607 0.0
H755 H 0.83014 0.45075 0.01701 0.0
C756 C 0.7674 0.35962 0.9906 0.0
N757 N 0.78801 0.36712 0.00342 0.0
C758 C 0.77 0.34728 0.96906 0.0
C759 C 0.8149 0.35002 0.97472 0.0
C760 C 0.81142 0.36278 0.99582 0.0
C761 C 0.79402 0.34244 0.96098 0.0
H762 H 0.74899 0.36375 0.99687 0.0
H763 H 0.82741 0.36994 0.00573 0.0
O764 O 0.78479 0.42528 0.08012 0.0
O765 O 0.75473 0.38227 0.0505 0.0
O766 O 0.78611 0.42429 0.0251 0.0
O767 O 0.81229 0.38353 0.05585 0.0
H768 H 0.74355 0.4207 0.10391 0.0
H769 H 0.8 0.47385 0.08212 0.0
H770 H 0.72301 0.45683 0.12462 0.0
H771 H 0.77856 0.50904 0.10332 0.0
H772 H 0.76299 0.29494 0.04262 0.0
H773 H 0.70944 0.36879 0.06329 0.0
H774 H 0.77971 0.33942 0.04021 0.0
H775 H 0.69383 0.32379 0.06504 0.0
H776 H 0.70488 0.49898 0.05265 0.0
H777 H 0.67117 0.42493 0.03691 0.0
H778 H 0.81565 0.33332 0.14217 0.0
H779 H 0.73517 0.34004 0.1345 0.0
H780 H 0.75054 0.41442 0.99305 0.0
H781 H 0.79172 0.47508 0.02855 0.0
H782 H 0.72643 0.44791 0.97054 0.0
H783 H 0.76704 0.50751 0.00527 0.0
H784 H 0.85734 0.39277 0.03991 0.0
H785 H 0.8106 0.33417 0.06924 0.0
H786 H 0.89157 0.36053 0.03837 0.0
H787 H 0.8455 0.30291 0.06674 0.0
H788 H 0.89527 0.44481 0.0801 0.0
H789 H 0.8721 0.46715 0.00958 0.0
H790 H 0.7535 0.34177 0.95874 0.0
H791 H 0.83366 0.34703 0.96873 0.0
Li792 Li 0.91688 0.5118 0.26986 0.0
Li793 Li 0.88272 0.48835 0.24639 0.0
Li794 Li 0.9158 0.51484 0.22622 0.0
Li795 Li 0.88306 0.53567 0.24791 0.0
C796 C 0.94214 0.47125 0.24294 0.0
N797 N 0.98722 0.44705 0.23545 0.0
C798 C 0.94281 0.44487 0.23761 0.0
C799 C 0.96437 0.48534 0.24448 0.0
C800 C 0.9658 0.43298 0.23389 0.0
C801 C 0.98698 0.47276 0.24061 0.0
C802 C 0.86284 0.52272 0.28772 0.0
C803 C 0.82066 0.53777 0.29261 0.0
N804 N 0.82793 0.54873 0.31338 0.0
C805 C 0.86987 0.53397 0.30918 0.0
C806 C 0.838 0.52445 0.27941 0.0
C807 C 0.85195 0.54708 0.32188 0.0
C808 C 0.9426 0.52825 0.3117 0.0
N809 N 0.93769 0.50797 0.29717 0.0
C810 C 0.96169 0.47942 0.32216 0.0
C811 C 0.94668 0.48386 0.30211 0.0
C812 C 0.9669 0.49983 0.33781 0.0
C813 C 0.95708 0.52456 0.3323 0.0
H814 H 0.93488 0.54715 0.30748 0.0
H815 H 0.94201 0.46791 0.29059 0.0
C816 C 0.8681 0.43698 0.23323 0.0
N817 N 0.86439 0.45706 0.24808 0.0
C818 C 0.85752 0.41278 0.23766 0.0
C819 C 0.83906 0.43074 0.2721 0.0
C820 C 0.85002 0.45443 0.26707 0.0
C821 C 0.84308 0.40937 0.25756 0.0
H822 H 0.87999 0.43951 0.21848 0.0
H823 H 0.84791 0.47042 0.27896 0.0
C824 C 0.93341 0.56434 0.24917 0.0
N825 N 0.96209 0.60864 0.24747 0.0
C826 C 0.92388 0.58664 0.23807 0.0
C827 C 0.9575 0.56461 0.25944 0.0
C828 C 0.93868 0.60883 0.23739 0.0
C829 C 0.97171 0.58719 0.25838 0.0
C830 C 0.86006 0.51698 0.20384 0.0
C831 C 0.86404 0.53139 0.18358 0.0
C832 C 0.83649 0.50652 0.20755 0.0
C833 C 0.84417 0.53539 0.16741 0.0
C834 C 0.81711 0.51097 0.19096 0.0
N835 N 0.82132 0.52519 0.17142 0.0
C836 C 0.94196 0.49509 0.18761 0.0
C837 C 0.94662 0.54015 0.19379 0.0
C838 C 0.95811 0.49601 0.16892 0.0
N839 N 0.93675 0.51694 0.19978 0.0
C840 C 0.96287 0.54197 0.17532 0.0
C841 C 0.9689 0.51971 0.16261 0.0
H842 H 0.93359 0.4769 0.19244 0.0
H843 H 0.94196 0.55736 0.20329 0.0
C844 C 0.86935 0.58285 0.26775 0.0
N845 N 0.86321 0.56683 0.24957 0.0
C846 C 0.85643 0.60608 0.27066 0.0
C847 C 0.8314 0.59641 0.23576 0.0
C848 C 0.84453 0.57313 0.23374 0.0
C849 C 0.83729 0.61316 0.25444 0.0
H850 H 0.88447 0.57761 0.27993 0.0
H851 H 0.83974 0.56032 0.21946 0.0
O852 O 0.91979 0.48325 0.24645 0.0
O853 O 0.88024 0.51033 0.27476 0.0
O854 O 0.91916 0.54247 0.25022 0.0
O855 O 0.87934 0.5126 0.21968 0.0
H856 H 0.92575 0.4337 0.23637 0.0
H857 H 0.96411 0.50579 0.24846 0.0
H858 H 0.96662 0.41256 0.22976 0.0
H859 H 0.00432 0.48343 0.24168 0.0
H860 H 0.80143 0.53945 0.28629 0.0
H861 H 0.88898 0.53273 0.3159 0.0
H862 H 0.83228 0.51591 0.26279 0.0
H863 H 0.85715 0.55601 0.33847 0.0
H864 H 0.96904 0.46012 0.32528 0.0
H865 H 0.96 0.54084 0.34398 0.0
H866 H 0.86088 0.39686 0.22586 0.0
H867 H 0.82843 0.42895 0.28779 0.0
H868 H 0.90539 0.5867 0.22978 0.0
H869 H 0.96516 0.54759 0.26817 0.0
H870 H 0.93158 0.62618 0.22879 0.0
H871 H 0.99039 0.58766 0.26625 0.0
H872 H 0.88227 0.53943 0.18042 0.0
H873 H 0.83321 0.49511 0.22304 0.0
H874 H 0.84692 0.54657 0.15168 0.0
H875 H 0.79874 0.50307 0.1936 0.0
H876 H 0.96177 0.47843 0.15931 0.0
H877 H 0.97078 0.56063 0.17119 0.0
H878 H 0.86175 0.61865 0.28515 0.0
H879 H 0.81666 0.60118 0.22296 0.0
Li880 Li 0.81004 0.61892 0.55356 0.0
Li881 Li 0.82626 0.57975 0.53414 0.0
Li882 Li 0.80538 0.61236 0.51236 0.0
Li883 Li 0.78314 0.58346 0.53674 0.0
C884 C 0.85149 0.63307 0.51879 0.0
N885 N 0.8811 0.66692 0.49451 0.0
C886 C 0.86028 0.62621 0.49687 0.0
C887 C 0.85779 0.65722 0.52831 0.0
C888 C 0.87519 0.64357 0.48488 0.0
C889 C 0.87277 0.67404 0.51579 0.0
C890 C 0.79422 0.57117 0.58083 0.0
C891 C 0.77401 0.53441 0.59806 0.0
N892 N 0.7656 0.54996 0.61531 0.0
C893 C 0.78545 0.58676 0.59879 0.0
C894 C 0.78854 0.54474 0.5805 0.0
C895 C 0.77099 0.57567 0.61604 0.0
C896 C 0.79878 0.66254 0.58001 0.0
N897 N 0.81607 0.64379 0.57659 0.0
C898 C 0.84465 0.66322 0.60419 0.0
C899 C 0.8386 0.64359 0.5883 0.0
C900 C 0.82727 0.68306 0.60789 0.0
C901 C 0.80408 0.68259 0.59562 0.0
H902 H 0.7809 0.66186 0.57066 0.0
H903 H 0.85198 0.62841 0.58492 0.0
C904 C 0.86813 0.55515 0.51822 0.0
N905 N 0.85163 0.55518 0.53563 0.0
C906 C 0.88638 0.5362 0.51762 0.0
C907 C 0.87072 0.5179 0.55332 0.0
C908 C 0.85238 0.53708 0.55297 0.0
C909 C 0.88803 0.51755 0.53552 0.0
H910 H 0.86707 0.56979 0.50477 0.0
H911 H 0.83908 0.53781 0.56669 0.0
C912 C 0.76267 0.63647 0.52151 0.0
N913 N 0.73143 0.66665 0.49305 0.0
C914 C 0.74305 0.62509 0.50846 0.0
C915 C 0.76625 0.66325 0.52025 0.0
C916 C 0.7275 0.64067 0.49414 0.0
C917 C 0.75029 0.67815 0.50572 0.0
C918 C 0.81234 0.55621 0.49561 0.0
C919 C 0.82374 0.56238 0.47466 0.0
C920 C 0.81251 0.5305 0.50346 0.0
C921 C 0.83534 0.54282 0.46208 0.0
C922 C 0.82433 0.51151 0.49038 0.0
N923 N 0.83542 0.51802 0.47015 0.0
C924 C 0.80732 0.65609 0.48217 0.0
C925 C 0.78567 0.61908 0.46769 0.0
C926 C 0.79886 0.67057 0.46292 0.0
N927 N 0.80055 0.63087 0.48418 0.0
C928 C 0.77667 0.63285 0.44822 0.0
C929 C 0.78296 0.65903 0.44593 0.0
H930 H 0.81795 0.66545 0.49611 0.0
H931 H 0.77966 0.59935 0.47034 0.0
C932 C 0.73687 0.56605 0.55531 0.0
N933 N 0.75397 0.56355 0.53842 0.0
C934 C 0.71618 0.54967 0.55527 0.0
C935 C 0.73106 0.52913 0.52033 0.0
C936 C 0.75113 0.54591 0.52094 0.0
C937 C 0.71329 0.53089 0.53758 0.0
H938 H 0.73931 0.58069 0.5687 0.0
H939 H 0.76409 0.54517 0.50704 0.0
O940 O 0.83719 0.61619 0.53106 0.0
O941 O 0.80834 0.5817 0.56373 0.0
O942 O 0.77857 0.6214 0.53506 0.0
O943 O 0.80106 0.57517 0.50837 0.0
H944 H 0.85523 0.60796 0.48891 0.0
H945 H 0.85112 0.66306 0.54513 0.0
H946 H 0.88198 0.63852 0.46786 0.0
H947 H 0.87774 0.69277 0.52297 0.0
H948 H 0.76929 0.51406 0.59789 0.0
H949 H 0.78965 0.60721 0.59937 0.0
H950 H 0.79486 0.53243 0.56657 0.0
H951 H 0.764 0.58753 0.62998 0.0
H952 H 0.86265 0.66291 0.61348 0.0
H953 H 0.78993 0.69717 0.59854 0.0
H954 H 0.89999 0.53712 0.50405 0.0
H955 H 0.87198 0.50417 0.56769 0.0
H956 H 0.74009 0.6044 0.50909 0.0
H957 H 0.7816 0.67235 0.52988 0.0
H958 H 0.71237 0.63209 0.4838 0.0
H959 H 0.75305 0.69884 0.50435 0.0
H960 H 0.82393 0.58207 0.46825 0.0
H961 H 0.80401 0.52534 0.51973 0.0
H962 H 0.84436 0.54738 0.44594 0.0
H963 H 0.82481 0.49163 0.49639 0.0
H964 H 0.80424 0.69071 0.46162 0.0
H965 H 0.76414 0.62342 0.43563 0.0
H966 H 0.70249 0.55182 0.56865 0.0
H967 H 0.72891 0.51567 0.50586 0.0
Li968 Li 0.6847 0.54207 0.74937 0.0
Li969 Li 0.65063 0.52354 0.77142 0.0
Li970 Li 0.68056 0.49549 0.75046 0.0
Li971 Li 0.64974 0.52101 0.72927 0.0
C972 C 0.71139 0.51777 0.78564 0.0
N973 N 0.76029 0.5149 0.8026 0.0
C974 C 0.71689 0.52055 0.8096 0.0
C975 C 0.73074 0.51359 0.77027 0.0
C976 C 0.74175 0.51901 0.81785 0.0
C977 C 0.75534 0.51219 0.7792 0.0
C978 C 0.6306 0.57012 0.75129 0.0
C979 C 0.58804 0.58051 0.76021 0.0
N980 N 0.59345 0.60616 0.75868 0.0
C981 C 0.63568 0.59657 0.74956 0.0
C982 C 0.60656 0.562 0.75649 0.0
C983 C 0.61666 0.6145 0.7534 0.0
C984 C 0.72848 0.57244 0.74001 0.0
N985 N 0.7072 0.56985 0.75206 0.0
C986 C 0.71622 0.608 0.77409 0.0
C987 C 0.70104 0.58685 0.76899 0.0
C988 C 0.73831 0.61152 0.76193 0.0
C989 C 0.74444 0.59335 0.74468 0.0
H990 H 0.7332 0.55819 0.72703 0.0
H991 H 0.68419 0.58388 0.77854 0.0
C992 C 0.62231 0.50758 0.80953 0.0
N993 N 0.63294 0.52822 0.7991 0.0
C994 C 0.60993 0.5108 0.83043 0.0
C995 C 0.61919 0.55657 0.82904 0.0
C996 C 0.63195 0.55232 0.80855 0.0
C997 C 0.60808 0.53563 0.84048 0.0
H998 H 0.62381 0.48856 0.80177 0.0
H999 H 0.64103 0.5683 0.8001 0.0
C1000 C 0.69144 0.53103 0.70268 0.0
N1001 N 0.70203 0.55831 0.66252 0.0
C1002 C 0.67968 0.55479 0.69784 0.0
C1003 C 0.70863 0.52122 0.68709 0.0
C1004 C 0.68525 0.56825 0.67744 0.0
C1005 C 0.71374 0.5353 0.66689 0.0
C1006 C 0.62691 0.47681 0.74063 0.0
C1007 C 0.63518 0.4559 0.72744 0.0
C1008 C 0.60131 0.4816 0.74201 0.0
C1009 C 0.61765 0.44038 0.71546 0.0
C1010 C 0.58437 0.46564 0.72976 0.0
N1011 N 0.59283 0.44555 0.71684 0.0
C1012 C 0.70038 0.45119 0.7731 0.0
C1013 C 0.71007 0.45495 0.73303 0.0
C1014 C 0.71385 0.42804 0.77509 0.0
N1015 N 0.69873 0.46401 0.7523 0.0
C1016 C 0.72368 0.43184 0.7342 0.0
C1017 C 0.72565 0.41802 0.75543 0.0
H1018 H 0.69116 0.45896 0.78812 0.0
H1019 H 0.70844 0.46565 0.71675 0.0
C1020 C 0.61032 0.53874 0.69713 0.0
N1021 N 0.62864 0.52087 0.70147 0.0
C1022 C 0.59585 0.53791 0.67627 0.0
C1023 C 0.61936 0.50032 0.66474 0.0
C1024 C 0.63345 0.502 0.6857 0.0
C1025 C 0.60039 0.51859 0.65964 0.0
H1026 H 0.60711 0.55395 0.70957 0.0
H1027 H 0.6484 0.48829 0.68938 0.0
O1028 O 0.68716 0.51944 0.77732 0.0
O1029 O 0.64938 0.55239 0.74875 0.0
O1030 O 0.68632 0.51728 0.72248 0.0
O1031 O 0.6438 0.49232 0.75235 0.0
H1032 H 0.7021 0.52388 0.82169 0.0
H1033 H 0.72685 0.51156 0.75165 0.0
H1034 H 0.74629 0.52112 0.83636 0.0
H1035 H 0.7705 0.50897 0.76751 0.0
H1036 H 0.5694 0.57449 0.76442 0.0
H1037 H 0.65414 0.60321 0.74539 0.0
H1038 H 0.60234 0.54163 0.75795 0.0
H1039 H 0.62034 0.63504 0.75218 0.0
H1040 H 0.71034 0.62172 0.78712 0.0
H1041 H 0.76137 0.59518 0.73502 0.0
H1042 H 0.60237 0.49387 0.83878 0.0
H1043 H 0.61804 0.57611 0.83572 0.0
H1044 H 0.66636 0.56284 0.70958 0.0
H1045 H 0.71797 0.50292 0.69056 0.0
H1046 H 0.67624 0.5866 0.67348 0.0
H1047 H 0.72701 0.52792 0.65468 0.0
H1048 H 0.65491 0.45185 0.72624 0.0
H1049 H 0.59456 0.49742 0.75244 0.0
H1050 H 0.6238 0.42425 0.70504 0.0
H1051 H 0.5645 0.4692 0.73058 0.0
H1052 H 0.71456 0.41785 0.7917 0.0
H1053 H 0.73266 0.42494 0.7187 0.0
H1054 H 0.58171 0.55263 0.67299 0.0
H1055 H 0.62336 0.48483 0.65268 0.0
Li1056 Li 0.98259 0.81062 0.88278 0.0
Li1057 Li 0.00462 0.82894 0.91741 0.0
Li1058 Li 0.02458 0.82141 0.88038 0.0
Li1059 Li 0.01338 0.78441 0.90481 0.0
C1060 C 0.00549 0.86689 0.8755 0.0
N1061 N 0.02589 0.90869 0.85286 0.0
C1062 C 0.01935 0.88529 0.88826 0.0
C1063 C 0.00187 0.86981 0.85127 0.0
C1064 C 0.02948 0.90632 0.87648 0.0
C1065 C 0.01245 0.89101 0.84013 0.0
C1066 C 0.96716 0.79471 0.93366 0.0
C1067 C 0.96137 0.78019 0.97328 0.0
N1068 N 0.93662 0.78604 0.97088 0.0
C1069 C 0.94163 0.80045 0.93155 0.0
C1070 C 0.9771 0.78442 0.95468 0.0
C1071 C 0.92653 0.796 0.95058 0.0
C1072 C 0.93982 0.78425 0.87188 0.0
N1073 N 0.95121 0.80733 0.86851 0.0
C1074 C 0.91748 0.82226 0.84382 0.0
C1075 C 0.94056 0.82642 0.85513 0.0
C1076 C 0.90547 0.79844 0.84679 0.0
C1077 C 0.91669 0.77937 0.86116 0.0
H1078 H 0.94898 0.76956 0.88268 0.0
H1079 H 0.95012 0.84463 0.85304 0.0
C1080 C 0.02182 0.85783 0.95602 0.0
N1081 N 0.00102 0.84899 0.94446 0.0
C1082 C 0.01978 0.87139 0.97689 0.0
C1083 C 0.9749 0.86637 0.97359 0.0
C1084 C 0.97782 0.85345 0.95248 0.0
C1085 C 0.99605 0.87576 0.98606 0.0
H1086 H 0.03999 0.85454 0.94888 0.0
H1087 H 0.96154 0.84713 0.94244 0.0
C1088 C 0.99713 0.77344 0.8539 0.0
N1089 N 0.97124 0.7437 0.82098 0.0
C1090 C 0.9954 0.74663 0.85686 0.0
C1091 C 0.98607 0.78502 0.83389 0.0
C1092 C 0.98216 0.73195 0.84009 0.0
C1093 C 0.97292 0.76969 0.81755 0.0
C1094 C 0.056 0.80371 0.92756 0.0
C1095 C 0.07971 0.79839 0.91924 0.0
C1096 C 0.05132 0.79942 0.95118 0.0
C1097 C 0.09835 0.78882 0.93473 0.0
C1098 C 0.07043 0.78978 0.9661 0.0
N1099 N 0.09336 0.78473 0.95763 0.0
C1100 C 0.07086 0.84326 0.86847 0.0
C1101 C 0.04536 0.82761 0.8368 0.0
C1102 C 0.09085 0.84645 0.85372 0.0
N1103 N 0.0491 0.83292 0.85993 0.0
C1104 C 0.06464 0.83081 0.82141 0.0
C1105 C 0.08814 0.83901 0.83009 0.0
H1106 H 0.07318 0.8474 0.88698 0.0
H1107 H 0.02782 0.81961 0.83051 0.0
C1108 C 0.99633 0.73839 0.92017 0.0
N1109 N 0.01829 0.7507 0.91679 0.0
C1110 C 0.99598 0.71518 0.93239 0.0
C1111 C 0.04118 0.71619 0.93542 0.0
C1112 C 0.04061 0.73979 0.92339 0.0
C1113 C 0.01855 0.70425 0.9406 0.0
H1114 H 0.97893 0.74707 0.91396 0.0
H1115 H 0.05785 0.74958 0.91992 0.0
O1116 O 0.99589 0.84589 0.88665 0.0
O1117 O 0.98222 0.79885 0.91511 0.0
O1118 O 0.00992 0.78812 0.87028 0.0
O1119 O 0.03757 0.81321 0.91266 0.0
H1120 H 0.02237 0.88325 0.90702 0.0
H1121 H 0.99144 0.85559 0.84108 0.0
H1122 H 0.04029 0.92069 0.88611 0.0
H1123 H 0.01008 0.89332 0.82134 0.0
H1124 H 0.96882 0.7722 0.98963 0.0
H1125 H 0.93361 0.80868 0.91554 0.0
H1126 H 0.99669 0.77948 0.95656 0.0
H1127 H 0.90678 0.80051 0.94922 0.0
H1128 H 0.90911 0.83739 0.83291 0.0
H1129 H 0.90796 0.7607 0.86357 0.0
H1130 H 0.03663 0.87913 0.9852 0.0
H1131 H 0.95624 0.86937 0.97979 0.0
H1132 H 0.00434 0.73716 0.87185 0.0
H1133 H 0.987 0.80574 0.83129 0.0
H1134 H 0.98062 0.71121 0.84225 0.0
H1135 H 0.96396 0.77849 0.80221 0.0
H1136 H 0.08363 0.80138 0.90098 0.0
H1137 H 0.03317 0.80356 0.95796 0.0
H1138 H 0.11677 0.78457 0.92852 0.0
H1139 H 0.06704 0.78636 0.98441 0.0
H1140 H 0.10872 0.85268 0.86117 0.0
H1141 H 0.06168 0.8253 0.80322 0.0
H1142 H 0.97827 0.70604 0.93573 0.0
H1143 H 0.05891 0.70789 0.94136 0.0
Li1144 Li 0.03039 0.286 0.63929 0.0
Li1145 Li 0.05241 0.26073 0.67265 0.0
Li1146 Li 0.02795 0.23767 0.64162 0.0
Li1147 Li 0.00576 0.26189 0.67127 0.0
C1148 C 0.07244 0.2455 0.62467 0.0
N1149 N 0.10031 0.21335 0.59706 0.0
C1150 C 0.0892 0.22772 0.63505 0.0
C1151 C 0.0698 0.2469 0.60025 0.0
C1152 C 0.10314 0.21165 0.62079 0.0
C1153 C 0.08408 0.23048 0.58659 0.0
C1154 C 0.04292 0.30702 0.68982 0.0
C1155 C 0.05756 0.31664 0.72927 0.0
N1156 N 0.07128 0.33656 0.72098 0.0
C1157 C 0.05711 0.32762 0.68167 0.0
C1158 C 0.04307 0.3015 0.71379 0.0
C1159 C 0.07133 0.34232 0.69771 0.0
C1160 C 0.01647 0.33705 0.62364 0.0
N1161 N 0.03272 0.31721 0.62019 0.0
C1162 C 0.05356 0.34236 0.59134 0.0
C1163 C 0.05111 0.31954 0.60445 0.0
C1164 C 0.03727 0.36332 0.59475 0.0
C1165 C 0.01848 0.36035 0.61117 0.0
H1166 H 0.00213 0.33491 0.63637 0.0
H1167 H 0.06424 0.30387 0.60233 0.0
C1168 C 0.08993 0.24309 0.70796 0.0
N1169 N 0.08434 0.26071 0.69074 0.0
C1170 C 0.11397 0.24218 0.71877 0.0
C1171 C 0.12607 0.27766 0.6942 0.0
C1172 C 0.10192 0.27782 0.68384 0.0
C1173 C 0.13268 0.25946 0.7118 0.0
H1174 H 0.07597 0.22922 0.71289 0.0
H1175 H 0.09732 0.29138 0.66986 0.0
C1176 C 0.98725 0.25493 0.61649 0.0
N1177 N 0.96127 0.23811 0.57671 0.0
C1178 C 0.97255 0.23265 0.61729 0.0
C1179 C 0.98871 0.26867 0.59546 0.0
C1180 C 0.95958 0.22444 0.59698 0.0
C1181 C 0.97543 0.25986 0.57554 0.0
C1182 C 0.01535 0.21788 0.69178 0.0
C1183 C -0.00154 0.19892 0.68399 0.0
C1184 C 0.01772 0.2236 0.71566 0.0
C1185 C 0.98412 0.18602 0.70029 0.0
C1186 C 0.00302 0.2103 0.7314 0.0
N1187 N 0.98666 0.19195 0.72346 0.0
C1188 C 0.03731 0.18392 0.63426 0.0
C1189 C 0.02396 0.20498 0.59921 0.0
C1190 C 0.03973 0.16038 0.62235 0.0
N1191 N 0.02921 0.20566 0.62275 0.0
C1192 C 0.02596 0.18177 0.58661 0.0
C1193 C 0.03382 0.15885 0.59814 0.0
H1194 H 0.04222 0.18489 0.65278 0.0
H1195 H 0.01846 0.2225 0.59001 0.0
C1196 C 0.97129 0.28151 0.70649 0.0
N1197 N 0.9744 0.26376 0.68916 0.0
C1198 C 0.94851 0.28334 0.71808 0.0
C1199 C 0.93238 0.24857 0.69404 0.0
C1200 C 0.95537 0.24741 0.68298 0.0
C1201 C 0.92838 0.26689 0.71179 0.0
H1202 H 0.98634 0.29463 0.71115 0.0
H1203 H 0.9579 0.2334 0.66929 0.0
O1204 O 0.05807 0.26082 0.63836 0.0
O1205 O 0.02932 0.29205 0.67435 0.0
O1206 O -7e-05 0.26348 0.63619 0.0
O1207 O 0.02911 0.23117 0.67604 0.0
H1208 H 0.09123 0.22614 0.65392 0.0
H1209 H 0.05645 0.26008 0.59192 0.0
H1210 H 0.11613 0.19774 0.62858 0.0
H1211 H 0.08211 0.23123 0.56768 0.0
H1212 H 0.05794 0.31252 0.74787 0.0
H1213 H 0.05732 0.33206 0.66315 0.0
H1214 H 0.03226 0.28557 0.72036 0.0
H1215 H 0.08248 0.35826 0.69166 0.0
H1216 H 0.06852 0.34386 0.57915 0.0
H1217 H 0.00539 0.37589 0.61431 0.0
H1218 H 0.11802 0.22752 0.73195 0.0
H1219 H 0.13946 0.29171 0.68835 0.0
H1220 H 0.97157 0.22148 0.63325 0.0
H1221 H -2e-05 0.28596 0.59452 0.0
H1222 H 0.94827 0.20714 0.59731 0.0
H1223 H 0.97641 0.27029 0.55915 0.0
H1224 H 0.99619 0.19446 0.66553 0.0
H1225 H 0.03066 0.23827 0.72196 0.0
H1226 H 0.97087 0.1714 0.69451 0.0
H1227 H 0.00458 0.21459 0.74994 0.0
H1228 H 0.04653 0.14361 0.63207 0.0
H1229 H 0.0211 0.18181 0.56804 0.0
H1230 H 0.94652 0.29799 0.73142 0.0
H1231 H 0.91788 0.23504 0.68871 0.0
Li1232 Li 0.47391 0.30817 0.38161 0.0
Li1233 Li 0.49349 0.3325 0.41363 0.0
Li1234 Li 0.51629 0.31917 0.37969 0.0
Li1235 Li 0.5035 0.28742 0.40856 0.0
C1236 C 0.49666 0.36363 0.36814 0.0
N1237 N 0.51721 0.4035 0.34299 0.0
C1238 C 0.5081 0.38441 0.37986 0.0
C1239 C 0.49557 0.36316 0.34364 0.0
C1240 C 0.51838 0.4044 0.36682 0.0
C1241 C 0.50611 0.38349 0.33124 0.0
C1242 C 0.45422 0.30809 0.43193 0.0
C1243 C 0.44399 0.3133 0.4725 0.0
N1244 N 0.42036 0.32042 0.46566 0.0
C1245 C 0.4298 0.31547 0.42533 0.0
C1246 C 0.46136 0.30697 0.45574 0.0
C1247 C 0.41297 0.32161 0.44264 0.0
C1248 C 0.43191 0.27957 0.37218 0.0
N1249 N 0.44402 0.3013 0.36552 0.0
C1250 C 0.41368 0.30956 0.33504 0.0
C1251 C 0.43539 0.31646 0.34755 0.0
C1252 C 0.4009 0.28708 0.34143 0.0
C1253 C 0.41005 0.27206 0.36032 0.0
H1254 H 0.43949 0.26799 0.38658 0.0
H1255 H 0.44549 0.33367 0.34284 0.0
C1256 C 0.50849 0.36151 0.45222 0.0
N1257 N 0.48877 0.35726 0.43721 0.0
C1258 C 0.50542 0.37589 0.47244 0.0
C1259 C 0.46185 0.38198 0.46106 0.0
C1260 C 0.46597 0.36795 0.44068 0.0
C1261 C 0.48169 0.38581 0.47749 0.0
H1262 H 0.52658 0.35344 0.44863 0.0
H1263 H 0.45074 0.3647 0.42811 0.0
C1264 C 0.49049 0.26681 0.35965 0.0
N1265 N 0.46594 0.23126 0.33094 0.0
C1266 C 0.48615 0.24168 0.36769 0.0
C1267 C 0.48244 0.27376 0.33689 0.0
C1268 C 0.47372 0.22401 0.35293 0.0
C1269 C 0.47 0.25556 0.3227 0.0
C1270 C 0.54553 0.30486 0.42653 0.0
C1271 C 0.56731 0.29629 0.41613 0.0
C1272 C 0.54244 0.30044 0.45042 0.0
C1273 C 0.5857 0.28358 0.42986 0.0
C1274 C 0.56123 0.28759 0.46353 0.0
N1275 N 0.5823 0.27951 0.45307 0.0
C1276 C 0.56262 0.34097 0.36813 0.0
C1277 C 0.54124 0.31832 0.33748 0.0
C1278 C 0.58399 0.34264 0.35491 0.0
N1279 N 0.5423 0.3279 0.3596 0.0
C1280 C 0.56192 0.31998 0.32351 0.0
C1281 C 0.58411 0.33102 0.33266 0.0
H1282 H 0.56283 0.34849 0.38581 0.0
H1283 H 0.52479 0.30828 0.33108 0.0
C1284 C 0.49141 0.24834 0.4389 0.0
N1285 N 0.50989 0.25612 0.42485 0.0
C1286 C 0.49369 0.22544 0.45149 0.0
C1287 C 0.53366 0.21805 0.43416 0.0
C1288 C 0.53065 0.24139 0.42196 0.0
C1289 C 0.51501 0.21005 0.44924 0.0
H1290 H 0.47451 0.25953 0.43993 0.0
H1291 H 0.5446 0.24753 0.40994 0.0
O1292 O 0.48673 0.34376 0.38061 0.0
O1293 O 0.47103 0.30194 0.41524 0.0
O1294 O 0.50245 0.28449 0.37397 0.0
O1295 O 0.52723 0.31729 0.41338 0.0
H1296 H 0.50913 0.38504 0.39881 0.0
H1297 H 0.48704 0.34707 0.3343 0.0
H1298 H 0.52731 0.4206 0.37564 0.0
H1299 H 0.50553 0.38332 0.31228 0.0
H1300 H 0.44933 0.31263 0.49095 0.0
H1301 H 0.42393 0.31682 0.40706 0.0
H1302 H 0.4802 0.30148 0.46121 0.0
H1303 H 0.39406 0.32744 0.43776 0.0
H1304 H 0.40682 0.32172 0.3207 0.0
H1305 H 0.40062 0.25458 0.36558 0.0
H1306 H 0.52168 0.37942 0.48378 0.0
H1307 H 0.4433 0.38943 0.46396 0.0
H1308 H 0.49218 0.2358 0.38515 0.0
H1309 H 0.48501 0.29323 0.33046 0.0
H1310 H 0.47021 0.20454 0.359 0.0
H1311 H 0.46341 0.26081 0.30519 0.0
H1312 H 0.56987 0.29902 0.39761 0.0
H1313 H 0.52561 0.30664 0.45873 0.0
H1314 H 0.6026 0.27679 0.42203 0.0
H1315 H 0.55903 0.28397 0.48202 0.0
H1316 H 0.6007 0.35125 0.36274 0.0
H1317 H 0.56096 0.31138 0.30621 0.0
H1318 H 0.47857 0.21946 0.46236 0.0
H1319 H 0.55024 0.20639 0.43182 0.0
Li1320 Li 0.5304 0.7871 0.14077 0.0
Li1321 Li 0.55294 0.76324 0.17297 0.0
Li1322 Li 0.52874 0.73917 0.14058 0.0
Li1323 Li 0.50493 0.76317 0.17189 0.0
C1324 C 0.57276 0.77409 0.12248 0.0
N1325 N 0.60055 0.79991 0.08997 0.0
C1326 C 0.59383 0.78826 0.12977 0.0
C1327 C 0.56583 0.77309 0.09866 0.0
C1328 C 0.60765 0.80115 0.11306 0.0
C1329 C 0.5801 0.78628 0.0825 0.0
C1330 C 0.53573 0.80721 0.19507 0.0
C1331 C 0.5296 0.81918 0.23529 0.0
N1332 N 0.54933 0.83563 0.23445 0.0
C1333 C 0.55594 0.82424 0.19461 0.0
C1334 C 0.52242 0.80468 0.21556 0.0
C1335 C 0.56252 0.83844 0.21469 0.0
C1336 C 0.51439 0.82319 0.10361 0.0
N1337 N 0.53164 0.8186 0.12128 0.0
C1338 C 0.5522 0.85862 0.11265 0.0
C1339 C 0.55034 0.83585 0.12585 0.0
C1340 C 0.53459 0.86409 0.0944 0.0
C1341 C 0.51557 0.8458 0.08988 0.0
H1342 H 0.49954 0.80943 0.10023 0.0
H1343 H 0.56405 0.83192 0.1397 0.0
C1344 C 0.60383 0.74927 0.1811 0.0
N1345 N 0.58469 0.7613 0.19185 0.0
C1346 C 0.62786 0.74812 0.19172 0.0
C1347 C 0.61221 0.77069 0.22505 0.0
C1348 C 0.58845 0.77153 0.2137 0.0
C1349 C 0.63254 0.75919 0.21394 0.0
H1350 H 0.60056 0.74086 0.16393 0.0
H1351 H 0.57317 0.78062 0.2224 0.0
C1352 C 0.48469 0.75111 0.12131 0.0
N1353 N 0.45432 0.72306 0.09063 0.0
C1354 C 0.46485 0.73669 0.1297 0.0
C1355 C 0.48906 0.75132 0.09733 0.0
C1356 C 0.4497 0.72264 0.1139 0.0
C1357 C 0.47351 0.73698 0.0821 0.0
C1358 C 0.52865 0.71882 0.19531 0.0
C1359 C 0.523 0.69245 0.19418 0.0
C1360 C 0.53414 0.7303 0.21702 0.0
C1361 C 0.52277 0.67799 0.21489 0.0
C1362 C 0.53376 0.71519 0.23733 0.0
N1363 N 0.52812 0.68956 0.23585 0.0
C1364 C 0.54797 0.70349 0.10653 0.0
C1365 C 0.5116 0.68878 0.12459 0.0
C1366 C 0.54944 0.68045 0.09361 0.0
N1367 N 0.52921 0.70736 0.12166 0.0
C1368 C 0.51243 0.66539 0.11211 0.0
C1369 C 0.53163 0.6608 0.09637 0.0
H1370 H 0.5622 0.71807 0.10479 0.0
H1371 H 0.49702 0.69193 0.13689 0.0
C1372 C 0.45507 0.78082 0.18061 0.0
N1373 N 0.47326 0.76449 0.18923 0.0
C1374 C 0.4319 0.7828 0.19136 0.0
C1375 C 0.44635 0.75154 0.22015 0.0
C1376 C 0.46915 0.7499 0.20867 0.0
C1377 C 0.42714 0.76807 0.21151 0.0
H1378 H 0.45848 0.79228 0.16518 0.0
H1379 H 0.48342 0.73679 0.21535 0.0
O1380 O 0.55868 0.76174 0.1386 0.0
O1381 O 0.52877 0.79332 0.17552 0.0
O1382 O 0.5 0.76462 0.13655 0.0
O1383 O 0.52901 0.73324 0.17522 0.0
H1384 H 0.59922 0.78971 0.14815 0.0
H1385 H 0.54946 0.76242 0.09272 0.0
H1386 H 0.62393 0.81227 0.11847 0.0
H1387 H 0.57489 0.78574 0.06402 0.0
H1388 H 0.51949 0.81735 0.25127 0.0
H1389 H 0.56673 0.82617 0.1791 0.0
H1390 H 0.50675 0.79162 0.21629 0.0
H1391 H 0.5782 0.85159 0.21461 0.0
H1392 H 0.56748 0.87175 0.11666 0.0
H1393 H 0.50137 0.84917 0.07622 0.0
H1394 H 0.64263 0.73855 0.18255 0.0
H1395 H 0.61473 0.77957 0.24213 0.0
H1396 H 0.46135 0.7361 0.14823 0.0
H1397 H 0.50436 0.76232 0.09055 0.0
H1398 H 0.43433 0.71132 0.12016 0.0
H1399 H 0.47673 0.7369 0.0635 0.0
H1400 H 0.5188 0.68325 0.1775 0.0
H1401 H 0.53829 0.75071 0.21818 0.0
H1402 H 0.51837 0.65757 0.2143 0.0
H1403 H 0.53787 0.72385 0.25426 0.0
H1404 H 0.56483 0.67779 0.08205 0.0
H1405 H 0.4981 0.65106 0.11477 0.0
H1406 H 0.41791 0.796 0.18404 0.0
H1407 H 0.44363 0.7395 0.23539 0.0
Li1408 Li 0.90328 0.00138 0.82009 0.0
Li1409 Li 0.87028 0.98307 0.79615 0.0
Li1410 Li 0.90605 -0.00012 0.77722 0.0
Li1411 Li 0.87472 0.02934 0.79568 0.0
C1412 C 0.92735 0.95772 0.80327 0.0
N1413 N 0.97235 0.9325 0.81183 0.0
C1414 C 0.9278 0.93115 0.80802 0.0
C1415 C 0.94977 0.97145 0.80287 0.0
C1416 C 0.95075 0.91875 0.81232 0.0
C1417 C 0.97233 0.95835 0.80721 0.0
C1418 C 0.8588 0.9946 0.84247 0.0
C1419 C 0.83564 0.9941 0.87794 0.0
N1420 N 0.84357 0.96943 0.88225 0.0
C1421 C 0.8667 0.96923 0.84725 0.0
C1422 C 0.84314 0.00715 0.85792 0.0
C1423 C 0.85882 0.95686 0.86745 0.0
C1424 C 0.9266 0.02473 0.85886 0.0
N1425 N 0.92202 0.00121 0.84904 0.0
C1426 C 0.94414 0.97991 0.88075 0.0
C1427 C 0.93026 0.97896 0.85958 0.0
C1428 C 0.94907 0.00396 0.89132 0.0
C1429 C 0.94008 0.02657 0.88017 0.0
H1430 H 0.91968 0.04208 0.85013 0.0
H1431 H 0.92592 0.96043 0.85173 0.0
C1432 C 0.85368 0.93546 0.78029 0.0
N1433 N 0.8465 0.95608 0.79313 0.0
C1434 C 0.83683 0.91574 0.77487 0.0
C1435 C 0.80561 0.93842 0.79664 0.0
C1436 C 0.82308 0.95793 0.80147 0.0
C1437 C 0.81238 0.91716 0.78291 0.0
H1438 H 0.8724 0.93469 0.7738 0.0
H1439 H 0.81781 0.97482 0.81135 0.0
C1440 C 0.92848 0.0483 0.79284 0.0
N1441 N 0.96201 0.08625 0.78091 0.0
C1442 C 0.92123 0.06783 0.777 0.0
C1443 C 0.95267 0.04832 0.80291 0.0
C1444 C 0.93849 0.08677 0.7711 0.0
C1445 C 0.96938 0.0676 0.79657 0.0
C1446 C 0.85465 0.99373 0.75284 0.0
C1447 C 0.86404 0.97829 0.73507 0.0
C1448 C 0.82881 0.99553 0.75531 0.0
C1449 C 0.84745 0.96476 0.7202 0.0
C1450 C 0.81283 0.98164 0.74012 0.0
N1451 N 0.8224 0.96667 0.72302 0.0
C1452 C 0.93663 0.97221 0.74574 0.0
C1453 C 0.93052 0.01662 0.73678 0.0
C1454 C 0.95065 0.96885 0.72581 0.0
N1455 N 0.92718 0.99591 0.75103 0.0
C1456 C 0.94434 0.01413 0.71664 0.0
C1457 C 0.95462 0.98998 0.71089 0.0
H1458 H 0.93278 0.95565 0.75657 0.0
H1459 H 0.92176 0.03489 0.74058 0.0
C1460 C 0.86756 0.08157 0.80822 0.0
N1461 N 0.85877 0.06217 0.79419 0.0
C1462 C 0.85628 0.10602 0.80725 0.0
C1463 C 0.8267 0.08975 0.77791 0.0
C1464 C 0.83881 0.06581 0.77918 0.0
C1465 C 0.83551 0.11042 0.79191 0.0
H1466 H 0.88356 0.07812 0.81995 0.0
H1467 H 0.83232 0.05015 0.76811 0.0
O1468 O 0.90496 0.97021 0.79972 0.0
O1469 O 0.86629 0.00727 0.82285 0.0
O1470 O 0.91173 0.02981 0.79913 0.0
O1471 O 0.87068 0.00667 0.76792 0.0
H1472 H 0.91057 0.9203 0.80855 0.0
H1473 H 0.94972 0.99195 0.79915 0.0
H1474 H 0.95141 0.89821 0.81612 0.0
H1475 H 0.98983 0.96874 0.80694 0.0
H1476 H 0.82351 0.00357 0.89005 0.0
H1477 H 0.87875 0.95913 0.83551 0.0
H1478 H 0.83687 0.02679 0.85447 0.0
H1479 H 0.8648 0.93724 0.87136 0.0
H1480 H 0.95046 0.96205 0.88903 0.0
H1481 H 0.94359 0.04547 0.88777 0.0
H1482 H 0.84296 0.89939 0.76467 0.0
H1483 H 0.78694 0.94016 0.80317 0.0
H1484 H 0.90254 0.0682 0.76913 0.0
H1485 H 0.95847 0.03369 0.8156 0.0
H1486 H 0.93318 0.10188 0.75873 0.0
H1487 H 0.98819 0.06779 0.80416 0.0
H1488 H 0.88392 0.97659 0.73284 0.0
H1489 H 0.82117 0.00689 0.76926 0.0
H1490 H 0.85449 0.95266 0.70645 0.0
H1491 H 0.79283 0.98263 0.74203 0.0
H1492 H 0.95815 0.94986 0.72207 0.0
H1493 H 0.94625 0.0308 0.7053 0.0
H1494 H 0.86409 0.12138 0.81807 0.0
H1495 H 0.81056 0.09195 0.7661 0.0
Li1496 Li 0.78145 0.14022 0.51836 0.0
Li1497 Li 0.80594 0.10556 0.49882 0.0
Li1498 Li 0.78299 0.14006 0.47551 0.0
Li1499 Li 0.76093 0.10765 0.49656 0.0
C1500 C 0.83198 0.15111 0.51241 0.0
N1501 N 0.87329 0.16484 0.53997 0.0
C1502 C 0.83789 0.13752 0.53311 0.0
C1503 C 0.84702 0.17174 0.50579 0.0
C1504 C 0.85888 0.14474 0.54677 0.0
C1505 C 0.86783 0.17838 0.51995 0.0
C1506 C 0.77351 0.0803 0.53396 0.0
C1507 C 0.76456 0.03467 0.53047 0.0
N1508 N 0.75305 0.03539 0.55131 0.0
C1509 C 0.76184 0.08051 0.55547 0.0
C1510 C 0.77505 0.05714 0.52144 0.0
C1511 C 0.75152 0.05764 0.56389 0.0
C1512 C 0.75728 0.15328 0.55784 0.0
N1513 N 0.77728 0.16065 0.54549 0.0
C1514 C 0.78686 0.19418 0.57313 0.0
C1515 C 0.79182 0.18099 0.55241 0.0
C1516 C 0.76693 0.1861 0.58671 0.0
C1517 C 0.7519 0.16557 0.57873 0.0
H1518 H 0.74558 0.13766 0.55145 0.0
H1519 H 0.80727 0.1869 0.54198 0.0
C1520 C 0.85514 0.09365 0.48657 0.0
N1521 N 0.83654 0.08603 0.5006 0.0
C1522 C 0.87867 0.08181 0.48842 0.0
C1523 C 0.86329 0.05392 0.51864 0.0
C1524 C 0.84022 0.06662 0.51649 0.0
C1525 C 0.88314 0.06165 0.50472 0.0
H1526 H 0.85189 0.10949 0.47439 0.0
H1527 H 0.82548 0.06128 0.52793 0.0
C1528 C 0.74669 0.17045 0.49391 0.0
N1529 N 0.73214 0.22181 0.49125 0.0
C1530 C 0.72138 0.17696 0.49137 0.0
C1531 C 0.76461 0.19009 0.4951 0.0
C1532 C 0.7144 0.20304 0.49006 0.0
C1533 C 0.75688 0.21592 0.49372 0.0
C1534 C 0.77117 0.08548 0.45555 0.0
C1535 C 0.74954 0.09401 0.44341 0.0
C1536 C 0.77963 0.06012 0.45253 0.0
C1537 C 0.73655 0.07686 0.42855 0.0
C1538 C 0.76613 0.04357 0.43749 0.0
N1539 N 0.74504 0.05221 0.42593 0.0
C1540 C 0.80676 0.17071 0.44178 0.0
C1541 C 0.76278 0.16814 0.43629 0.0
C1542 C 0.80828 0.187 0.42228 0.0
N1543 N 0.78426 0.16163 0.44833 0.0
C1544 C 0.76343 0.18431 0.41666 0.0
C1545 C 0.78641 0.19399 0.40934 0.0
H1546 H 0.82354 0.1653 0.45173 0.0
H1547 H 0.74509 0.16079 0.44194 0.0
C1548 C 0.71416 0.10352 0.51262 0.0
N1549 N 0.72974 0.08961 0.49917 0.0
C1550 C 0.69125 0.09352 0.51883 0.0
C1551 C 0.70039 0.05472 0.49716 0.0
C1552 C 0.72334 0.06555 0.49134 0.0
C1553 C 0.68401 0.06881 0.51113 0.0
H1554 H 0.71983 0.12232 0.51906 0.0
H1555 H 0.73619 0.05445 0.48118 0.0
O1556 O 0.81145 0.14457 0.49877 0.0
O1557 O 0.78333 0.10258 0.52511 0.0
O1558 O 0.75365 0.14494 0.49506 0.0
O1559 O 0.78424 0.10199 0.47005 0.0
H1560 H 0.8264 0.12163 0.53865 0.0
H1561 H 0.8426 0.18257 0.48992 0.0
H1562 H 0.86368 0.13438 0.5628 0.0
H1563 H 0.87963 0.19431 0.51504 0.0
H1564 H 0.76546 0.01668 0.52085 0.0
H1565 H 0.7609 0.09804 0.5657 0.0
H1566 H 0.784 0.05663 0.50477 0.0
H1567 H 0.74235 0.05757 0.58047 0.0
H1568 H 0.79882 0.21001 0.57881 0.0
H1569 H 0.73616 0.15909 0.58858 0.0
H1570 H 0.89335 0.089 0.47764 0.0
H1571 H 0.86552 0.03832 0.53124 0.0
H1572 H 0.70728 0.162 0.49036 0.0
H1573 H 0.78428 0.18553 0.497 0.0
H1574 H 0.69487 0.20834 0.48807 0.0
H1575 H 0.77055 0.2313 0.49461 0.0
H1576 H 0.74272 0.11355 0.44566 0.0
H1577 H 0.79646 0.05331 0.4617 0.0
H1578 H 0.71969 0.08314 0.41914 0.0
H1579 H 0.77241 0.02386 0.435 0.0
H1580 H 0.82638 0.19418 0.41751 0.0
H1581 H 0.74612 0.18876 0.40708 0.0
H1582 H 0.67955 0.10491 0.53 0.0
H1583 H 0.6955 0.03561 0.49076 0.0
Li1584 Li 0.64396 0.00895 0.32989 0.0
Li1585 Li 0.67251 0.03711 0.30831 0.0
Li1586 Li 0.64124 0.011 0.28761 0.0
Li1587 Li 0.67778 0.99089 0.30761 0.0
C1588 C 0.61917 0.05289 0.32225 0.0
N1589 N 0.58606 0.07944 0.34948 0.0
C1590 C 0.6271 0.07464 0.33497 0.0
C1591 C 0.59437 0.04473 0.32326 0.0
C1592 C 0.61007 0.0878 0.34864 0.0
C1593 C 0.57793 0.05838 0.33718 0.0
C1594 C 0.6983 0.00131 0.34855 0.0
C1595 C 0.74131 0.98918 0.35649 0.0
N1596 N 0.734 0.97313 0.37386 0.0
C1597 C 0.6912 0.98476 0.36651 0.0
C1598 C 0.72355 0.00363 0.34351 0.0
C1599 C 0.70954 0.97066 0.3791 0.0
C1600 C 0.61098 0.9831 0.35991 0.0
N1601 N 0.62521 0.00465 0.35745 0.0
C1602 C 0.61233 0.02091 0.39425 0.0
C1603 C 0.62655 0.02314 0.37435 0.0
C1604 C 0.59713 -0.0009 0.39708 0.0
C1605 C 0.5968 0.97982 0.3798 0.0
H1606 H 0.61063 0.96843 0.34643 0.0
H1607 H 0.63856 0.0397 0.37228 0.0
C1608 C 0.67394 0.0868 0.29106 0.0
N1609 N 0.68737 0.07028 0.3052 0.0
C1610 C 0.68398 0.11044 0.28447 0.0
C1611 C 0.72142 0.10002 0.30757 0.0
C1612 C 0.71058 0.07649 0.31379 0.0
C1613 C 0.70815 0.11721 0.29249 0.0
H1614 H 0.65569 0.0811 0.28418 0.0
H1615 H 0.72095 0.06286 0.3248 0.0
C1616 C 0.62747 0.96343 0.29497 0.0
N1617 N 0.59736 0.93167 0.26729 0.0
C1618 C 0.63814 0.94436 0.28112 0.0
C1619 C 0.6015 0.9663 0.29481 0.0
C1620 C 0.62259 0.92849 0.26724 0.0
C1621 C 0.5866 0.95008 0.28066 0.0
C1622 C 0.69048 0.0299 0.26649 0.0
C1623 C 0.67861 0.04318 0.24781 0.0
C1624 C 0.71603 0.03354 0.27118 0.0
C1625 C 0.6925 0.05996 0.2342 0.0
C1626 C 0.72926 0.05053 0.25718 0.0
N1627 N 0.71732 0.06328 0.23914 0.0
C1628 C 0.60301 0.03111 0.25782 0.0
C1629 C 0.6254 0.9959 0.24204 0.0
C1630 C 0.59012 0.03508 0.23643 0.0
N1631 N 0.62035 0.0119 0.26014 0.0
C1632 C 0.61279 -0.00099 0.2204 0.0
C1633 C 0.59519 0.0191 0.21732 0.0
H1634 H 0.59989 0.04403 0.27229 0.0
H1635 H 0.64001 0.98148 0.2441 0.0
C1636 C 0.6942 0.94122 0.31996 0.0
N1637 N 0.70015 0.96218 0.30691 0.0
C1638 C 0.70819 0.91846 0.31874 0.0
C1639 C 0.73484 0.93959 0.29133 0.0
C1640 C 0.72013 0.96188 0.2929 0.0
C1641 C 0.72867 0.91726 0.30402 0.0
H1642 H 0.678 0.94193 0.33073 0.0
H1643 H 0.72431 0.97867 0.28248 0.0
O1644 O 0.63563 0.0395 0.30903 0.0
O1645 O 0.68059 0.01493 0.33576 0.0
O1646 O 0.64236 0.97941 0.30843 0.0
O1647 O 0.67705 0.01389 0.28042 0.0
H1648 H 0.64627 0.08112 0.33453 0.0
H1649 H 0.58796 0.0279 0.31356 0.0
H1650 H 0.61597 0.10459 0.35867 0.0
H1651 H 0.55873 0.05219 0.33825 0.0
H1652 H 0.7609 0.99067 0.35271 0.0
H1653 H 0.67174 0.98266 0.37057 0.0
H1654 H 0.72933 0.01621 0.32956 0.0
H1655 H 0.70432 0.95771 0.393 0.0
H1656 H 0.6134 0.03596 0.40744 0.0
H1657 H 0.58537 0.9627 0.38146 0.0
H1658 H 0.67321 0.12291 0.27261 0.0
H1659 H 0.74001 0.10466 0.31438 0.0
H1660 H 0.6582 0.94201 0.28084 0.0
H1661 H 0.59296 0.98104 0.30537 0.0
H1662 H 0.63058 0.91371 0.25636 0.0
H1663 H 0.56648 0.95216 0.28029 0.0
H1664 H 0.65883 0.04085 0.24401 0.0
H1665 H 0.72545 0.02389 0.28583 0.0
H1666 H 0.68352 0.07045 0.21977 0.0
H1667 H 0.74898 0.05372 0.26078 0.0
H1668 H 0.57663 0.05071 0.23474 0.0
H1669 H 0.61754 0.98656 0.20597 0.0
H1670 H 0.70233 0.9017 0.32852 0.0
H1671 H 0.75061 0.93976 0.28 0.0
Li1672 Li 0.74155 0.93588 0.00238 0.0
Li1673 Li 0.75727 0.90003 0.02843 0.0
Li1674 Li 0.77995 0.91328 0.99331 0.0
Li1675 Li 0.74057 0.89305 0.98994 0.0
C1676 C 0.77954 0.95281 0.03662 0.0
N1677 N 0.79356 0.99172 0.06753 0.0
C1678 C 0.76831 0.95484 0.05826 0.0
C1679 C 0.79816 0.9704 0.03085 0.0
C1680 C 0.77555 0.97472 0.07359 0.0
C1681 C 0.80494 0.98995 0.04668 0.0
C1682 C 0.70099 0.8945 0.01542 0.0
C1683 C 0.6752 0.85832 0.02566 0.0
N1684 N 0.6565 0.86774 0.01125 0.0
C1685 C 0.68151 0.90392 0.00081 0.0
C1686 C 0.69782 0.8716 0.02805 0.0
C1687 C 0.65916 0.89007 -0.00109 0.0
C1688 C 0.71619 0.98166 0.98509 0.0
N1689 N 0.72351 0.96716 0.00405 0.0
C1690 C 0.69573 0.99003 0.02828 0.0
C1691 C 0.71435 0.97161 0.02552 0.0
C1692 C 0.68634 0.00379 0.0086 0.0
C1693 C 0.69813 0.00084 0.9872 0.0
H1694 H 0.72252 0.97708 0.96789 0.0
H1695 H 0.71966 0.95907 0.04001 0.0
C1696 C 0.78597 0.87608 0.06211 0.0
N1697 N 0.76326 0.88743 0.05861 0.0
C1698 C 0.79257 0.8651 0.08367 0.0
C1699 C 0.7522 0.87791 0.0977 0.0
C1700 C 0.74639 0.88875 0.07577 0.0
C1701 C 0.77551 0.86574 0.10171 0.0
H1702 H 0.79875 0.87512 0.04795 0.0
H1703 H 0.72846 0.89797 0.07232 0.0
C1704 C 0.75951 0.94346 0.95755 0.0
N1705 N 0.77562 0.98405 0.93032 0.0
C1706 C 0.75698 0.94223 0.93313 0.0
C1707 C 0.7703 0.96534 0.9681 0.0
C1708 C 0.76525 0.96293 0.91967 0.0
C1709 C 0.77825 0.98568 0.95405 0.0
C1710 C 0.78167 0.85985 0.98994 0.0
C1711 C 0.78429 0.86489 0.96609 0.0
C1712 C 0.789 0.83583 -0.00078 0.0
C1713 C 0.79415 0.84569 0.95187 0.0
C1714 C 0.79881 0.81715 0.98442 0.0
N1715 N 0.80114 0.82242 0.96125 0.0
C1716 C 0.82705 0.91133 0.00675 0.0
C1717 C 0.82246 0.93536 0.97138 0.0
C1718 C 0.84836 0.92504 0.01334 0.0
N1719 N 0.81369 0.91808 0.98704 0.0
C1720 C 0.84359 0.94996 0.97746 0.0
C1721 C 0.85567 0.94589 -0.00057 0.0
H1722 H 0.81924 0.8979 0.01898 0.0
H1723 H 0.81176 0.93989 0.95552 0.0
C1724 C 0.712 0.87408 0.9515 0.0
N1725 N 0.7223 0.86801 0.97287 0.0
C1726 C 0.70293 0.85447 0.93682 0.0
C1727 C 0.71359 0.8232 0.96727 0.0
C1728 C 0.72232 0.84341 0.98137 0.0
C1729 C 0.70487 0.82856 0.9443 0.0
H1730 H 0.71237 0.89388 0.9453 0.0
H1731 H 0.73066 0.8393 -0.00148 0.0
O1732 O 0.77303 0.93318 0.02151 0.0
O1733 O 0.72307 0.90763 0.01734 0.0
O1734 O 0.75183 0.92301 0.97078 0.0
O1735 O 0.77152 0.87805 0.00419 0.0
H1736 H 0.75407 0.9413 0.06316 0.0
H1737 H 0.80733 0.96897 0.01434 0.0
H1738 H 0.76688 0.97658 0.09033 0.0
H1739 H 0.81929 0.0037 0.04239 0.0
H1740 H 0.67253 0.84048 0.03522 0.0
H1741 H 0.68371 0.92166 0.99096 0.0
H1742 H 0.71279 0.86401 0.03935 0.0
H1743 H 0.64393 0.89705 0.9876 0.0
H1744 H 0.68696 0.99118 0.04504 0.0
H1745 H 0.69156 0.01121 0.97164 0.0
H1746 H 0.81049 0.85545 0.08594 0.0
H1747 H 0.73863 0.87885 0.11129 0.0
H1748 H 0.74879 0.92537 0.92467 0.0
H1749 H 0.77231 0.96675 0.98689 0.0
H1750 H 0.76345 0.96219 0.90075 0.0
H1751 H 0.78658 0.00273 0.96203 0.0
H1752 H 0.77867 0.88333 0.95856 0.0
H1753 H 0.78699 0.83164 0.01765 0.0
H1754 H 0.79621 0.84928 0.93337 0.0
H1755 H 0.80451 0.79845 0.99135 0.0
H1756 H 0.85713 0.92135 0.03042 0.0
H1757 H 0.84917 0.96555 0.96608 0.0
H1758 H 0.69669 0.85931 0.91908 0.0
H1759 H 0.71541 0.80345 0.97356 0.0
Li1760 Li 0.281 0.6419 0.01741 0.0
Li1761 Li 0.30402 0.60584 -0.00245 0.0
Li1762 Li 0.27985 0.64105 0.97506 0.0
Li1763 Li 0.2582 0.60869 0.997 0.0
C1764 C 0.32443 0.6615 0.00898 0.0
N1765 N 0.35291 0.69588 0.0355 0.0
C1766 C 0.34556 0.65279 0.02182 0.0
C1767 C 0.31782 0.68769 0.00959 0.0
C1768 C 0.35972 0.67048 0.03511 0.0
C1769 C 0.33243 0.70476 0.02314 0.0
C1770 C 0.26967 0.58764 0.03822 0.0
C1771 C 0.25511 0.54453 0.04642 0.0
N1772 N 0.24244 0.55391 0.06482 0.0
C1773 C 0.25659 0.59685 0.05727 0.0
C1774 C 0.26901 0.56127 0.03277 0.0
C1775 C 0.24291 0.57948 0.07049 0.0
C1776 C 0.2588 0.67755 0.04702 0.0
N1777 N 0.2795 0.66259 0.04472 0.0
C1778 C 0.29414 0.67329 0.08348 0.0
C1779 C 0.29703 0.66014 0.0624 0.0
C1780 C 0.27273 0.68859 0.08646 0.0
C1781 C 0.25501 0.6908 0.06785 0.0
H1782 H 0.2448 0.67857 0.03295 0.0
H1783 H 0.31283 0.64735 0.06041 0.0
C1784 C 0.35302 0.59457 0.98487 0.0
N1785 N 0.33434 0.586 -0.00164 0.0
C1786 C 0.37659 0.58283 0.98634 0.0
C1787 C 0.361 0.55284 0.0148 0.0
C1788 C 0.33782 0.56545 0.01305 0.0
C1789 C 0.38103 0.56176 0.00166 0.0
H1790 H 0.34984 0.61119 0.97357 0.0
H1791 H 0.32282 0.55915 0.02381 0.0
C1792 C 0.23607 0.6616 0.98308 0.0
N1793 N 0.2045 0.69294 0.95607 0.0
C1794 C 0.21613 0.65079 0.97003 0.0
C1795 C 0.2399 0.68835 0.98245 0.0
C1796 C 0.20037 0.66697 0.9565 0.0
C1797 C 0.22377 0.70386 0.96864 0.0
C1798 C 0.27028 0.58124 0.95889 0.0
C1799 C 0.24954 0.58373 0.94346 0.0
C1800 C 0.28113 0.55688 0.96281 0.0
C1801 C 0.23992 0.56171 0.93223 0.0
C1802 C 0.27095 0.53533 0.95126 0.0
N1803 N 0.25073 0.53817 0.93634 0.0
C1804 C 0.29965 0.67983 0.94597 0.0
C1805 C 0.26224 0.66114 0.93055 0.0
C1806 C 0.3006 0.69662 0.92679 0.0
N1807 N 0.28057 0.66267 0.94761 0.0
C1808 C 0.2623 0.67776 0.9112 0.0
C1809 C 0.28166 0.69582 0.90914 0.0
H1810 H 0.31421 0.68049 0.95954 0.0
H1811 H 0.2475 0.6471 0.93196 0.0
C1812 C 0.21198 0.60513 0.01528 0.0
N1813 N 0.22712 0.59082 0.00168 0.0
C1814 C 0.18922 0.5954 0.02227 0.0
C1815 C 0.19778 0.55589 0.00145 0.0
C1816 C 0.2206 0.56643 0.99488 0.0
C1817 C 0.18169 0.57052 0.01528 0.0
H1818 H 0.21789 0.6241 0.02119 0.0
H1819 H 0.23319 0.5549 0.98485 0.0
O1820 O 0.31009 0.64443 0.99613 0.0
O1821 O 0.28258 0.60447 0.02468 0.0
O1822 O 0.25189 0.64609 0.99628 0.0
O1823 O 0.28034 0.60261 0.96966 0.0
H1824 H 0.35083 0.63255 0.02175 0.0
H1825 H 0.30142 0.69472 -0.0001 0.0
H1826 H 0.37607 0.664 0.04519 0.0
H1827 H 0.32746 0.72506 0.02386 0.0
H1828 H 0.25424 0.52412 0.04227 0.0
H1829 H 0.25676 0.61722 0.06165 0.0
H1830 H 0.27863 0.5539 0.01783 0.0
H1831 H 0.23258 0.58635 0.0852 0.0
H1832 H 0.30802 0.67078 0.09758 0.0
H1833 H 0.23831 0.70245 0.06948 0.0
H1834 H 0.39137 0.59087 0.97616 0.0
H1835 H 0.3632 0.53646 0.02656 0.0
H1836 H 0.21303 0.63011 0.97006 0.0
H1837 H 0.25529 0.69701 0.99238 0.0
H1838 H 0.18494 0.65886 0.94624 0.0
H1839 H 0.22659 0.72457 0.9679 0.0
H1840 H 0.2409 0.60242 0.94027 0.0
H1841 H 0.29726 0.55465 0.97462 0.0
H1842 H 0.22385 0.56331 0.92027 0.0
H1843 H 0.27913 0.51635 0.95414 0.0
H1844 H 0.31588 0.71022 0.92587 0.0
H1845 H 0.24759 0.67614 0.89775 0.0
H1846 H 0.17782 0.60716 0.03341 0.0
H1847 H 0.19274 0.5366 0.99563 0.0
Li1848 Li 0.17655 0.53385 0.80746 0.0
Li1849 Li 0.14428 0.50767 0.83039 0.0
Li1850 Li 0.1776 0.48619 0.80754 0.0
Li1851 Li 0.14365 0.50884 0.78771 0.0
C1852 C 0.20346 0.51119 0.84823 0.0
N1853 N 0.24739 0.51338 0.87506 0.0
C1854 C 0.20363 0.5046 0.872 0.0
C1855 C 0.22556 0.51912 0.83816 0.0
C1856 C 0.22605 0.50575 0.88525 0.0
C1857 C 0.2476 0.52006 0.852 0.0
C1858 C 0.1218 0.55302 0.79824 0.0
C1859 C 0.07877 0.56038 0.78596 0.0
N1860 N 0.08583 0.58129 0.7733 0.0
C1861 C 0.12862 0.57461 0.78515 0.0
C1862 C 0.09666 0.54585 0.79869 0.0
C1863 C 0.11016 0.58864 0.77265 0.0
C1864 C 0.20658 0.56843 0.78409 0.0
N1865 N 0.1941 0.56553 0.80423 0.0
C1866 C 0.20086 0.61003 0.81397 0.0
C1867 C 0.19124 0.5856 0.81928 0.0
C1868 C 0.21348 0.61366 0.79302 0.0
C1869 C 0.21659 0.59235 0.77819 0.0
H1870 H 0.20789 0.55245 0.77205 0.0
H1871 H 0.1807 0.58289 0.8349 0.0
C1872 C 0.13153 0.48689 0.87418 0.0
N1873 N 0.12577 0.50568 0.85815 0.0
C1874 C 0.11775 0.48451 0.89441 0.0
C1875 C 0.09175 0.52017 0.88071 0.0
C1876 C 0.10643 0.52228 0.86111 0.0
C1877 C 0.09745 0.50129 0.89797 0.0
H1878 H 0.14691 0.47379 0.87124 0.0
H1879 H 0.10225 0.53708 0.84817 0.0
C1880 C 0.19376 0.49817 0.76473 0.0
N1881 N 0.22325 0.47305 0.73305 0.0
C1882 C 0.18275 0.48506 0.7456 0.0
C1883 C 0.2198 0.49857 0.76763 0.0
C1884 C 0.19797 0.47248 0.7298 0.0
C1885 C 0.23437 0.48571 0.75147 0.0
C1886 C 0.12063 0.46433 0.80115 0.0
C1887 C 0.12153 0.44836 0.78144 0.0
C1888 C 0.09853 0.466 0.8134 0.0
C1889 C 0.10031 0.43438 0.7743 0.0
C1890 C 0.07771 0.45171 0.80571 0.0
N1891 N 0.07902 0.43632 0.78649 0.0
C1892 C 0.21632 0.44979 0.82376 0.0
C1893 C 0.19459 0.44013 0.78803 0.0
C1894 C 0.23082 0.42728 0.82189 0.0
N1895 N 0.19872 0.45589 0.80679 0.0
C1896 C 0.20887 0.41787 0.78523 0.0
C1897 C 0.22729 0.41121 0.80225 0.0
H1898 H 0.21907 0.46213 0.83884 0.0
H1899 H 0.18015 0.44482 0.77513 0.0
C1900 C 0.13344 0.52847 0.74369 0.0
N1901 N 0.123 0.51288 0.75985 0.0
C1902 C 0.12054 0.5345 0.72278 0.0
C1903 C 0.08585 0.50899 0.73568 0.0
C1904 C 0.09941 0.50358 0.75647 0.0
C1905 C 0.09652 0.52451 0.71847 0.0
H1906 H 0.1519 0.53633 0.74712 0.0
H1907 H 0.09081 0.49251 0.76999 0.0
O1908 O 0.18162 0.51032 0.83507 0.0
O1909 O 0.1397 0.53863 0.81007 0.0
O1910 O 0.17916 0.51053 0.78051 0.0
O1911 O 0.14137 0.47778 0.80873 0.0
H1912 H 0.18664 0.49863 0.88013 0.0
H1913 H 0.22568 0.52463 0.81991 0.0
H1914 H 0.22647 0.50059 0.90363 0.0
H1915 H 0.26486 0.52614 0.84442 0.0
H1916 H 0.05929 0.55491 0.78599 0.0
H1917 H 0.14798 0.58034 0.7844 0.0
H1918 H 0.09109 0.52884 0.80827 0.0
H1919 H 0.1152 0.60532 0.76236 0.0
H1920 H 0.19822 0.62593 0.82598 0.0
H1921 H 0.22582 0.59434 0.76172 0.0
H1922 H 0.12328 0.46993 0.90724 0.0
H1923 H 0.07605 0.53323 0.88217 0.0
H1924 H 0.16267 0.48404 0.74322 0.0
H1925 H 0.22872 0.50858 0.78224 0.0
H1926 H 0.18968 0.46213 0.71504 0.0
H1927 H 0.25453 0.48579 0.75358 0.0
H1928 H 0.13823 0.44705 0.77149 0.0
H1929 H 0.09737 0.4782 0.82866 0.0
H1930 H 0.10073 0.42206 0.75902 0.0
H1931 H 0.06051 0.45287 0.81502 0.0
H1932 H 0.24476 0.42261 0.83548 0.0
H1933 H 0.20519 0.40568 0.77008 0.0
H1934 H 0.12951 0.54641 0.70992 0.0
H1935 H 0.06714 0.50134 0.73318 0.0
Li1936 Li 0.25133 0.44082 0.50236 0.0
Li1937 Li 0.26905 0.4046 0.52545 0.0
Li1938 Li 0.29232 0.42472 0.49255 0.0
Li1939 Li 0.25506 0.3982 0.48498 0.0
C1940 C 0.28364 0.4602 0.53784 0.0
N1941 N 0.2877 0.50082 0.56921 0.0
C1942 C 0.27262 0.45855 0.55961 0.0
C1943 C 0.29711 0.48237 0.5322 0.0
C1944 C 0.27474 0.47933 0.57516 0.0
C1945 C 0.29886 0.50273 0.54825 0.0
C1946 C 0.21854 0.39135 0.52155 0.0
C1947 C 0.20762 0.34789 0.53272 0.0
N1948 N 0.18585 0.35695 0.54121 0.0
C1949 C 0.19608 0.40025 0.5304 0.0
C1950 C 0.22438 0.36498 0.52273 0.0
C1951 C 0.17979 0.38255 0.54027 0.0
C1952 C 0.22358 0.4863 0.4881 0.0
N1953 N 0.23039 0.46978 0.5058 0.0
C1954 C 0.20079 0.48876 0.53079 0.0
C1955 C 0.21988 0.47114 0.52703 0.0
C1956 C 0.19236 0.50502 0.51237 0.0
C1957 C 0.20507 0.50476 0.49131 0.0
H1958 H 0.23092 0.4841 0.47094 0.0
H1959 H 0.22489 0.45707 0.54042 0.0
C1960 C 0.29809 0.37869 0.55802 0.0
N1961 N 0.27487 0.38899 0.55469 0.0
C1962 C 0.30467 0.36608 0.57889 0.0
C1963 C 0.26344 0.37562 0.59278 0.0
C1964 C 0.25757 0.38787 0.57149 0.0
C1965 C 0.2872 0.36443 0.59651 0.0
H1966 H 0.31148 0.38023 0.54436 0.0
H1967 H 0.23933 0.3965 0.56838 0.0
C1968 C 0.26874 0.45225 0.45564 0.0
N1969 N 0.28032 0.49236 0.42582 0.0
C1970 C 0.26601 0.44907 0.43138 0.0
C1971 C 0.27745 0.4758 0.46471 0.0
C1972 C 0.27196 0.46959 0.41659 0.0
C1973 C 0.28313 0.49587 0.44937 0.0
C1974 C 0.29932 0.36613 0.49322 0.0
C1975 C 0.31683 0.36748 0.47568 0.0
C1976 C 0.2946 0.34236 0.50393 0.0
C1977 C 0.32887 0.34486 0.46873 0.0
C1978 C 0.30703 0.32019 0.49649 0.0
N1979 N 0.32374 0.32188 0.47917 0.0
C1980 C 0.33775 0.43557 0.50823 0.0
C1981 C 0.33104 0.4521 0.46969 0.0
C1982 C 0.35529 0.45462 0.51334 0.0
N1983 N 0.32478 0.43602 0.4874 0.0
C1984 C 0.34825 0.47188 0.47419 0.0
C1985 C 0.35915 0.47425 0.49684 0.0
H1986 H 0.3321 0.4226 0.52196 0.0
H1987 H 0.32078 0.45154 0.45307 0.0
C1988 C 0.21567 0.36681 0.46539 0.0
N1989 N 0.24021 0.37351 0.46465 0.0
C1990 C 0.20627 0.34666 0.45138 0.0
C1991 C 0.24728 0.34185 0.43546 0.0
C1992 C 0.25574 0.36209 0.44953 0.0
C1993 C 0.2224 0.33359 0.43662 0.0
H1994 H 0.2034 0.37692 0.4769 0.0
H1995 H 0.27471 0.36874 0.44838 0.0
O1996 O 0.28197 0.43987 0.52249 0.0
O1997 O 0.23473 0.40848 0.51198 0.0
O1998 O 0.26343 0.43214 0.47029 0.0
O1999 O 0.28767 0.38817 0.50049 0.0
H2000 H 0.26229 0.44152 0.56437 0.0
H2001 H 0.30631 0.48386 0.51572 0.0
H2002 H 0.2661 0.47836 0.59198 0.0
H2003 H 0.30916 0.52002 0.54407 0.0
H2004 H 0.21189 0.32741 0.53369 0.0
H2005 H 0.19125 0.42062 0.52961 0.0
H2006 H 0.24158 0.35782 0.51583 0.0
H2007 H 0.16233 0.38916 0.54716 0.0
H2008 H 0.19119 0.48771 0.54713 0.0
H2009 H 0.19919 0.517 0.47668 0.0
H2010 H 0.32324 0.3579 0.58131 0.0
H2011 H 0.24947 0.37454 0.606 0.0
H2012 H 0.25943 0.4309 0.42407 0.0
H2013 H 0.27959 0.47856 0.4834 0.0
H2014 H 0.26996 0.46739 0.39778 0.0
H2015 H 0.28984 0.5142 0.4562 0.0
H2016 H 0.32089 0.38577 0.46737 0.0
H2017 H 0.28169 0.34103 0.518 0.0
H2018 H 0.34232 0.34558 0.45505 0.0
H2019 H 0.30349 0.30166 0.50457 0.0
H2020 H 0.36415 0.45521 0.53069 0.0
H2021 H 0.35123 0.48634 0.46082 0.0
H2022 H 0.1868 0.34123 0.45222 0.0
H2023 H 0.26002 0.33304 0.42347 0.0
Li2024 Li 0.41039 0.50512 0.31732 0.0
Li2025 Li 0.37624 0.48647 0.29634 0.0
Li2026 Li 0.41134 0.50333 0.27574 0.0
Li2027 Li 0.38027 0.5331 0.29367 0.0
C2028 C 0.42638 0.45909 0.31191 0.0
N2029 N 0.45728 0.43087 0.34234 0.0
C2030 C 0.41619 0.44161 0.32764 0.0
C2031 C 0.4523 0.4621 0.31158 0.0
C2032 C 0.43212 0.42753 0.34288 0.0
C2033 C 0.4676 0.44771 0.32714 0.0
C2034 C 0.35304 0.50642 0.33356 0.0
C2035 C 0.31176 0.51823 0.34552 0.0
N2036 N 0.31027 0.49546 0.35741 0.0
C2037 C 0.35109 0.48314 0.34594 0.0
C2038 C 0.33322 0.52413 0.33337 0.0
C2039 C 0.32932 0.47796 0.35786 0.0
C2040 C 0.45333 0.51472 0.34711 0.0
N2041 N 0.42991 0.5046 0.34589 0.0
C2042 C 0.43226 0.49419 0.38666 0.0
C2043 C 0.41935 0.49431 0.36506 0.0
C2044 C 0.45633 0.50478 0.38855 0.0
C2045 C 0.46706 0.51484 0.3684 0.0
H2046 H 0.46124 0.52295 0.33166 0.0
H2047 H 0.40081 0.48637 0.36365 0.0
C2048 C 0.36085 0.43637 0.28697 0.0
N2049 N 0.35198 0.45958 0.29418 0.0
C2050 C 0.34447 0.41618 0.28178 0.0
C2051 C 0.31 0.44384 0.29206 0.0
C2052 C 0.32707 0.46373 0.29664 0.0
C2053 C 0.31874 0.41992 0.28416 0.0
H2054 H 0.38061 0.43384 0.28444 0.0
H2055 H 0.32031 0.48269 0.30127 0.0
C2056 C 0.43436 0.54798 0.28313 0.0
N2057 N 0.46757 0.57481 0.25624 0.0
C2058 C 0.42668 0.57045 0.27116 0.0
C2059 C 0.45899 0.53925 0.28151 0.0
C2060 C 0.44374 0.58373 0.25766 0.0
C2061 C 0.47547 0.55304 0.26779 0.0
C2062 C 0.36061 0.49434 0.2524 0.0
C2063 C 0.37115 0.47456 0.23924 0.0
C2064 C 0.33478 0.49852 0.25075 0.0
C2065 C 0.35572 0.45941 0.22459 0.0
C2066 C 0.31999 0.48295 0.23589 0.0
N2067 N 0.33067 0.46388 0.22323 0.0
C2068 C 0.44542 0.47774 0.24641 0.0
C2069 C 0.42851 0.51728 0.23162 0.0
C2070 C 0.45852 0.47404 0.22595 0.0
N2071 N 0.43092 0.49918 0.24887 0.0
C2072 C 0.44152 0.51455 0.21106 0.0
C2073 C 0.45669 0.49266 0.20802 0.0
H2074 H 0.44639 0.46325 0.26009 0.0
H2075 H 0.41621 0.53369 0.23375 0.0
C2076 C 0.369 0.58381 0.3077 0.0
N2077 N 0.3634 0.56522 0.29159 0.0
C2078 C 0.35645 0.60756 0.3068 0.0
C2079 C 0.33229 0.59223 0.27305 0.0
C2080 C 0.34566 0.56904 0.27434 0.0
C2081 C 0.33767 0.61203 0.28934 0.0
H2082 H 0.38335 0.5802 0.32116 0.0
H2083 H 0.3419 0.5541 0.26154 0.0
O2084 O 0.41105 0.47347 0.29718 0.0
O2085 O 0.37438 0.51219 0.32212 0.0
O2086 O 0.41784 0.53457 0.29627 0.0
O2087 O 0.37537 0.50887 0.2674 0.0
H2088 H 0.39618 0.43907 0.32821 0.0
H2089 H 0.46052 0.4757 0.29969 0.0
H2090 H 0.42449 0.41399 0.3552 0.0
H2091 H 0.48767 0.45002 0.32719 0.0
H2092 H 0.29629 0.53176 0.3455 0.0
H2093 H 0.36594 0.46892 0.34592 0.0
H2094 H 0.33436 0.54228 0.32402 0.0
H2095 H 0.32751 0.45995 0.36736 0.0
H2096 H 0.42347 0.48599 0.40176 0.0
H2097 H 0.48551 0.52338 0.36925 0.0
H2098 H 0.3518 0.39787 0.27578 0.0
H2099 H 0.29021 0.44736 0.2938 0.0
H2100 H 0.40771 0.57749 0.27211 0.0
H2101 H 0.46522 0.52176 0.2904 0.0
H2102 H 0.43802 0.60109 0.24824 0.0
H2103 H 0.49451 0.54638 0.26624 0.0
H2104 H 0.39095 0.47055 0.24061 0.0
H2105 H 0.32607 0.51311 0.26131 0.0
H2106 H 0.36366 0.44398 0.21441 0.0
H2107 H 0.29997 0.48587 0.23461 0.0
H2108 H 0.47 0.45689 0.2242 0.0
H2109 H 0.43927 0.52909 0.19743 0.0
H2110 H 0.36173 0.62233 0.31943 0.0
H2111 H 0.31781 0.59447 0.25947 0.0
C2112 C 0.00163 0.00992 0.98134 0.0
N2113 N 0.97141 0.03427 0.04435 0.0
C2114 C 0.95626 0.0459 0.02781 0.0
C2115 C 0.93113 0.03909 0.02605 0.0
C2116 C 0.92219 0.02072 0.04181 0.0
C2117 C 0.93674 0.01476 0.06208 0.0
C2118 C 0.96186 0.02156 0.06285 0.0
Zn2119 Zn 0.00494 0.02154 0.03368 0.0
C2120 C 0.00811 0.96463 0.03515 0.0
N2121 N 0.07342 0.99365 0.00894 0.0
C2122 C 0.08645 0.0071 0.99297 0.0
C2123 C 0.08486 0.97609 0.02359 0.0
C2124 C 0.11077 0.97487 0.02539 0.0
C2125 C 0.12465 0.99221 0.01224 0.0
C2126 C 0.11247 0.00661 0.99429 0.0
Zn2127 Zn 0.03981 0.00719 0.01857 0.0
O2128 O 0.98991 0.01811 -0.00118 0.0
C2129 C 0.03596 0.06416 0.01636 0.0
O2130 O 0.02439 0.0032 0.98415 0.0
H2131 H 0.07423 0.96563 0.03623 0.0
H2132 H 0.9643 0.0565 0.01359 0.0
H2133 H 0.07689 0.02075 0.98134 0.0
O2134 O 0.01575 0.05924 0.02643 0.0
O2135 O 0.05048 0.04573 0.01114 0.0
H2136 H 0.97425 0.01271 0.07595 0.0
O2137 O 0.05522 0.01111 0.05306 0.0
O2138 O 0.02055 0.02453 0.06826 0.0
O2139 O 0.02879 0.9696 0.02608 0.0
O2140 O 0.99357 0.98303 0.0402 0.0
C2141 C 0.04348 0.0184 0.0708 0.0
H2142 H 0.92033 0.0446 0.01041 0.0
H2143 H 0.9301 0.00124 0.07498 0.0
H2144 H 0.11967 0.96332 0.03922 0.0
H2145 H 0.12262 0.02019 0.98374 0.0
C2146 C 0.32976 0.77063 0.25585 0.0
N2147 N 0.26109 0.75189 0.22303 0.0
C2148 C 0.26936 0.76762 0.20581 0.0
C2149 C 0.26803 0.75966 0.18252 0.0
C2150 C 0.25813 0.73528 0.17686 0.0
C2151 C 0.24785 0.72032 0.19468 0.0
C2152 C 0.24961 0.72903 0.21786 0.0
Zn2153 Zn 0.27294 0.76048 0.25647 0.0
C2154 C 0.2927 0.71372 0.28154 0.0
N2155 N 0.30251 0.77875 0.32445 0.0
C2156 C 0.31714 0.79985 0.32849 0.0
C2157 C 0.29277 0.76523 0.34242 0.0
C2158 C 0.29605 0.77391 0.36541 0.0
C2159 C 0.30967 0.79665 0.37004 0.0
C2160 C 0.32112 0.80908 0.35129 0.0
Zn2161 Zn 0.29019 0.76988 0.29127 0.0
O2162 O 0.31014 0.76603 0.24331 0.0
C2163 C 0.27046 0.81671 0.26615 0.0
O2164 O 0.32756 0.77357 0.27786 0.0
H2165 H 0.28115 0.74852 0.3388 0.0
H2166 H 0.27864 0.78559 0.21026 0.0
H2167 H 0.32466 0.8103 0.31391 0.0
O2168 O 0.26415 0.79987 0.25091 0.0
O2169 O 0.28246 0.80964 0.2847 0.0
H2170 H 0.24336 0.71675 0.23184 0.0
O2171 O 0.25281 0.76616 0.30404 0.0
O2172 O 0.23572 0.75484 0.27019 0.0
O2173 O 0.29759 0.73012 0.29759 0.0
O2174 O 0.28211 0.72122 0.26244 0.0
C2175 C 0.23338 0.75977 0.29191 0.0
H2176 H 0.27583 0.77191 0.16922 0.0
H2177 H 0.24015 0.70133 0.191 0.0
H2178 H 0.28663 0.76378 0.37915 0.0
H2179 H 0.33222 0.82636 0.35407 0.0
C2180 C 0.52974 0.0202 0.57738 0.0
N2181 N 0.55964 0.95468 0.54693 0.0
C2182 C 0.57583 0.95363 0.56583 0.0
C2183 C 0.58143 0.93001 0.57661 0.0
C2184 C 0.57013 0.90738 0.56789 0.0
C2185 C 0.55474 0.90886 0.54745 0.0
C2186 C 0.54973 0.93289 0.53717 0.0
Zn2187 Zn 0.54696 0.98962 0.53606 0.0
C2188 C 0.49074 0.98961 0.52896 0.0
N2189 N 0.51951 0.06314 0.51623 0.0
C2190 C 0.52887 0.08392 0.52816 0.0
C2191 C 0.50619 0.06592 0.49565 0.0
C2192 C 0.50344 0.09029 0.48539 0.0
C2193 C 0.5144 0.11181 0.49658 0.0
C2194 C 0.52644 0.10864 0.51862 0.0
Zn2195 Zn 0.53113 0.02767 0.52654 0.0
O2196 O 0.54077 -0.00058 0.57174 0.0
C2197 C 0.58711 0.02807 0.53353 0.0
O2198 O 0.52417 0.03674 0.56157 0.0
H2199 H 0.49895 0.04905 0.48653 0.0
H2200 H 0.58341 0.97128 0.57329 0.0
H2201 H 0.53962 0.08115 0.54438 0.0
O2202 O 0.58402 0.00421 0.53786 0.0
O2203 O 0.56804 0.04228 0.52952 0.0
H2204 H 0.53685 0.9343 0.52219 0.0
O2205 O 0.53801 0.01847 0.49147 0.0
O2206 O 0.55292 0.97999 0.50024 0.0
O2207 O 0.49436 0.01311 0.52342 0.0
O2208 O 0.50946 0.97523 0.53424 0.0
C2209 C 0.54787 0.99742 0.48499 0.0
H2210 H 0.59364 0.9296 0.59216 0.0
H2211 H 0.54539 0.89191 0.5403 0.0
H2212 H 0.49368 0.09217 0.46852 0.0
H2213 H 0.53522 0.12481 0.52769 0.0
C2214 C 0.29544 0.21199 0.75841 0.0
N2215 N 0.26574 0.24048 0.81967 0.0
C2216 C 0.25389 0.21724 0.82001 0.0
C2217 C 0.2517 0.20398 0.84108 0.0
C2218 C 0.26144 0.21508 0.86181 0.0
C2219 C 0.27167 0.24 0.86123 0.0
C2220 C 0.27383 0.25239 0.83975 0.0
Zn2221 Zn 0.27644 0.25493 0.78886 0.0
C2222 C 0.33254 0.26613 0.79188 0.0
N2223 N 0.30165 0.28315 0.72465 0.0
C2224 C 0.29337 0.27124 0.70464 0.0
C2225 C 0.31367 0.30629 0.72415 0.0
C2226 C 0.31602 0.31935 0.70297 0.0
C2227 C 0.30612 0.30825 0.68227 0.0
C2228 C 0.29556 0.28347 0.68308 0.0
Zn2229 Zn 0.29102 0.26871 0.75559 0.0
O2230 O 0.28518 0.21673 0.77766 0.0
C2231 C 0.23476 0.25749 0.75292 0.0
O2232 O 0.3002 0.23068 0.74482 0.0
H2233 H 0.32013 0.31532 0.74033 0.0
H2234 H 0.24753 0.20825 0.80378 0.0
H2235 H 0.28365 0.25296 0.70553 0.0
O2236 O 0.23895 0.25153 0.77434 0.0
O2237 O 0.25311 0.26473 0.74092 0.0
H2238 H 0.28342 0.27074 0.83897 0.0
O2239 O 0.28176 0.30681 0.76653 0.0
O2240 O 0.26783 0.29299 0.79986 0.0
O2241 O 0.32862 0.27259 0.7705 0.0
O2242 O 0.3141 0.2584 0.80346 0.0
C2243 C 0.27205 0.31161 0.78602 0.0
H2244 H 0.2436 0.18478 0.84106 0.0
H2245 H 0.27956 0.24896 0.87695 0.0
H2246 H 0.32445 0.33839 0.70289 0.0
H2247 H 0.2875 0.27445 0.66746 0.0
C2248 C 0.08443 -3e-05 0.53769 0.0
N2249 N 0.04755 0.03372 0.47901 0.0
C2250 C 0.06826 0.04851 0.47655 0.0
C2251 C 0.077 0.05369 0.45426 0.0
C2252 C 0.06442 0.04334 0.43435 0.0
C2253 C 0.04225 0.02949 0.43744 0.0
C2254 C 0.0341 0.02494 0.45999 0.0
Zn2255 Zn 0.03861 0.0199 0.51114 0.0
C2256 C 0.02964 0.96145 0.50748 0.0
N2257 N 0.02073 0.98786 0.57729 0.0
C2258 C 0.03539 0.99538 0.596 0.0
C2259 C -0.00138 0.97561 0.58028 0.0
C2260 C 0.98964 0.97224 0.60278 0.0
C2261 C 0.00364 0.98145 0.62233 0.0
C2262 C 0.02727 0.99215 0.61874 0.0
Zn2263 Zn 0.02982 0.0013 0.54498 0.0
O2264 O 0.07706 0.01107 0.51875 0.0
C2265 C 0.03836 0.05967 0.54877 0.0
O2266 O 0.06847 0.9939 0.55269 0.0
H2267 H 0.9872 0.96988 0.56518 0.0
H2268 H 0.07866 0.05528 0.49192 0.0
H2269 H 0.05276 0.00536 0.59331 0.0
O2270 O 0.04271 0.05791 0.52701 0.0
O2271 O 0.03302 0.03917 0.55989 0.0
H2272 H 0.01773 0.01314 0.46233 0.0
O2273 O 0.99116 0.00947 0.53679 0.0
O2274 O 0.0004 0.02829 0.50377 0.0
O2275 O 0.02675 0.96317 0.52949 0.0
O2276 O 0.0341 0.98195 0.49596 0.0
C2277 C 0.98416 0.02159 0.51825 0.0
H2278 H 0.09392 0.06488 0.4527 0.0
H2279 H 0.03204 0.02085 0.42274 0.0
H2280 H 0.97124 0.96403 0.60464 0.0
H2281 H 0.03895 -0.00097 0.63329 0.0
C2282 C 0.27262 0.77167 0.72626 0.0
N2283 N 0.32791 0.73291 0.76607 0.0
C2284 C 0.32835 0.71556 0.74822 0.0
C2285 C 0.3506 0.70344 0.74269 0.0
C2286 C 0.37262 0.7093 0.75563 0.0
C2287 C 0.37139 0.72628 0.77476 0.0
C2288 C 0.34867 0.73799 0.77968 0.0
Zn2289 Zn 0.29555 0.75188 0.77129 0.0
C2290 C 0.30227 0.80824 0.77698 0.0
N2291 N 0.22676 0.78985 0.78134 0.0
C2292 C 0.20702 0.78563 0.7662 0.0
C2293 C 0.225 0.8062 0.79984 0.0
C2294 C 0.20232 0.8182 0.80431 0.0
C2295 C 0.18134 0.81348 0.78947 0.0
C2296 C 0.18408 0.79748 0.76984 0.0
Zn2297 Zn 0.25935 0.77108 0.77645 0.0
O2298 O 0.29145 0.75937 0.73474 0.0
C2299 C 0.25281 0.71463 0.77084 0.0
O2300 O 0.25531 0.77811 0.73974 0.0
H2301 H 0.24104 0.8094 0.8115 0.0
H2302 H 0.31158 0.7118 0.73768 0.0
H2303 H 0.20892 0.77263 0.75155 0.0
O2304 O 0.27619 0.71637 0.76829 0.0
O2305 O 0.24013 0.73517 0.77364 0.0
H2306 H 0.34775 0.75171 0.79391 0.0
O2307 O 0.26371 0.76361 0.81324 0.0
O2308 O 0.29976 0.74483 0.80765 0.0
O2309 O 0.27879 0.80689 0.77933 0.0
O2310 O 0.31467 0.78749 0.77436 0.0
C2311 C 0.28272 0.7513 0.82141 0.0
H2312 H 0.35079 0.69085 0.72755 0.0
H2313 H 0.38797 0.73118 0.78522 0.0
H2314 H 0.20103 0.83004 0.81985 0.0
H2315 H 0.16849 0.79359 0.75776 0.0
C2316 C 0.53686 0.96244 0.04334 0.0
N2317 N 0.53938 0.03423 0.07666 0.0
C2318 C 0.52526 0.02137 0.09226 0.0
C2319 C 0.53131 0.02223 0.11613 0.0
C2320 C 0.5523 0.03616 0.12415 0.0
C2321 C 0.56536 0.05106 0.10801 0.0
C2322 C 0.55854 0.04977 0.08412 0.0
Zn2323 Zn 0.53512 0.02247 0.04248 0.0
C2324 C 0.58254 0.01644 0.0195 0.0
N2325 N 0.52508 0.9908 0.97398 0.0
C2326 C 0.50561 0.97518 0.9676 0.0
C2327 C 0.53891 0.00269 0.95758 0.0
C2328 C 0.53218 0.00071 0.93387 0.0
C2329 C 0.51062 0.98693 0.9269 0.0
C2330 C 0.4979 0.9731 0.94404 0.0
Zn2331 Zn 0.52971 0.00314 0.00786 0.0
O2332 O 0.53897 0.98322 0.0552 0.0
C2333 C 0.48228 0.00927 0.03062 0.0
O2334 O 0.53308 0.96416 0.02122 0.0
H2335 H 0.55414 0.01529 0.96289 0.0
H2336 H 0.51043 0.00867 0.08618 0.0
H2337 H 0.49487 0.96582 0.98086 0.0
O2338 O 0.49648 0.01996 0.04596 0.0
O2339 O 0.4913 0.00103 0.01185 0.0
H2340 H 0.56967 0.05968 0.07149 0.0
O2341 O 0.52628 0.04229 0.99501 0.0
O2342 O 0.53132 0.06154 0.02905 0.0
O2343 O 0.56822 0.00547 0.00439 0.0
O2344 O 0.5737 0.02493 0.03831 0.0
C2345 C 0.52799 0.06314 0.00684 0.0
H2346 H 0.52052 0.0108 0.12805 0.0
H2347 H 0.58174 0.06202 0.11353 0.0
H2348 H 0.54302 0.01109 0.92127 0.0
H2349 H 0.48112 0.96226 0.9396 0.0
C2350 C 0.26135 0.21861 0.26398 0.0
N2351 N 0.29461 0.27141 0.21967 0.0
C2352 C 0.31275 0.25309 0.21829 0.0
C2353 C 0.32612 0.25058 0.19804 0.0
C2354 C 0.32108 0.26734 0.17897 0.0
C2355 C 0.30378 0.28758 0.18174 0.0
C2356 C 0.29042 0.28905 0.20224 0.0
Zn2357 Zn 0.27432 0.27143 0.24885 0.0
C2358 C 0.22074 0.27085 0.24049 0.0
N2359 N 0.23495 0.27209 0.31177 0.0
C2360 C 0.2379 0.25269 0.32778 0.0
C2361 C 0.2194 0.29239 0.31546 0.0
C2362 C 0.2083 0.29525 0.33696 0.0
C2363 C 0.2128 0.2767 0.35475 0.0
C2364 C 0.22646 0.25432 0.34928 0.0
Zn2365 Zn 0.25494 0.27201 0.28225 0.0
O2366 O 0.27287 0.23057 0.24827 0.0
C2367 C 0.30839 0.26926 0.29124 0.0
O2368 O 0.25203 0.23132 0.28055 0.0
H2369 H 0.21669 0.30722 0.30221 0.0
H2370 H 0.31619 0.23964 0.2326 0.0
H2371 H 0.25007 0.23648 0.32441 0.0
O2372 O 0.30764 0.27061 0.26904 0.0
O2373 O 0.28819 0.26887 0.30215 0.0
H2374 H 0.27619 0.30377 0.20393 0.0
O2375 O 0.25849 0.31297 0.28358 0.0
O2376 O 0.27554 0.31193 0.24933 0.0
O2377 O 0.22192 0.2744 0.26248 0.0
O2378 O 0.24064 0.27122 0.22904 0.0
C2379 C 0.26839 0.3248 0.26676 0.0
H2380 H 0.33889 0.23439 0.19691 0.0
H2381 H 0.2996 0.30131 0.16777 0.0
H2382 H 0.19809 0.31296 0.34004 0.0
H2383 H 0.22979 0.23904 0.36202 0.0
C2384 C 0.58333 0.50233 0.03468 0.0
N2385 N 0.54684 0.53738 0.97643 0.0
C2386 C 0.56969 0.54796 0.97321 0.0
C2387 C 0.57817 0.55165 0.95061 0.0
C2388 C 0.56274 0.54502 0.93105 0.0
C2389 C 0.53834 0.53652 0.93504 0.0
C2390 C 0.53095 0.53232 0.95788 0.0
Zn2391 Zn 0.53809 0.52309 0.00857 0.0
C2392 C 0.5292 0.46436 0.00346 0.0
N2393 N 0.51968 0.48916 0.07367 0.0
C2394 C 0.53459 0.49708 0.09206 0.0
C2395 C 0.49794 0.47636 0.07714 0.0
C2396 C 0.4896 0.47283 0.09987 0.0
C2397 C 0.50377 0.4827 0.11902 0.0
C2398 C 0.52701 0.49395 0.11495 0.0
Zn2399 Zn 0.5281 0.50321 0.04145 0.0
O2400 O 0.57677 0.51535 0.01656 0.0
C2401 C 0.53694 0.56199 0.0464 0.0
O2402 O 0.56664 0.49478 0.04839 0.0
H2403 H 0.48629 0.47039 0.06226 0.0
H2404 H 0.58203 0.55206 0.98813 0.0
H2405 H 0.55166 0.50746 0.08898 0.0
O2406 O 0.54116 0.56082 0.0246 0.0
O2407 O 0.53191 0.54113 0.05715 0.0
H2408 H 0.51296 0.52363 0.96063 0.0
O2409 O 0.48966 0.5117 0.03417 0.0
O2410 O 0.49925 0.53055 0.0013 0.0
O2411 O 0.5242 0.4656 0.02511 0.0
O2412 O 0.53503 0.48513 0.99291 0.0
C2413 C 0.48283 0.52381 0.01562 0.0
H2414 H 0.59719 0.55811 0.9487 0.0
H2415 H 0.52535 0.53197 0.92069 0.0
H2416 H 0.47149 0.46414 0.10228 0.0
H2417 H 0.53863 0.5015 0.12927 0.0
C2418 C 0.77032 0.27508 0.22725 0.0
N2419 N 0.82792 0.23485 0.26243 0.0
C2420 C 0.82872 0.21976 0.24299 0.0
C2421 C 0.85142 0.20988 0.23581 0.0
C2422 C 0.87347 0.21541 0.24888 0.0
C2423 C 0.87184 0.2298 0.26964 0.0
C2424 C 0.84876 0.23954 0.27604 0.0
Zn2425 Zn 0.79526 0.25224 0.26988 0.0
C2426 C 0.80168 0.30894 0.27827 0.0
N2427 N 0.72695 0.28894 0.2851 0.0
C2428 C 0.70697 0.28383 0.27048 0.0
C2429 C 0.72482 0.30443 0.30416 0.0
C2430 C 0.70159 0.31463 0.30967 0.0
C2431 C 0.68047 0.30878 0.29537 0.0
C2432 C 0.68349 0.29369 0.27525 0.0
Zn2433 Zn 0.75996 0.27172 0.27825 0.0
O2434 O 0.78905 0.26137 0.23376 0.0
C2435 C 0.75334 0.21508 0.26975 0.0
O2436 O 0.75444 0.28134 0.24226 0.0
H2437 H 0.74103 0.30827 0.31547 0.0
H2438 H 0.81186 0.21621 0.23252 0.0
H2439 H 0.70912 0.27152 0.25538 0.0
O2440 O 0.7766 0.21632 0.2663 0.0
O2441 O 0.74142 0.23577 0.27394 0.0
H2442 H 0.84761 0.25153 0.29147 0.0
O2443 O 0.76596 0.26211 0.31436 0.0
O2444 O 0.80131 0.24339 0.30596 0.0
O2445 O 0.7786 0.30734 0.28247 0.0
O2446 O 0.81372 0.28846 0.27349 0.0
C2447 C 0.78526 0.24923 0.32095 0.0
H2448 H 0.85178 0.1992 0.21952 0.0
H2449 H 0.88833 0.23419 0.28043 0.0
H2450 H 0.69999 0.32595 0.3255 0.0
H2451 H 0.66772 0.28899 0.26363 0.0
C2452 C 0.04488 0.46175 0.54502 0.0
N2453 N 0.04287 0.53412 0.57736 0.0
C2454 C 0.0281 0.52199 0.59288 0.0
C2455 C 0.0328 0.52444 0.61687 0.0
C2456 C 0.05344 0.5388 0.62515 0.0
C2457 C 0.06724 0.5528 0.6089 0.0
C2458 C 0.06152 0.55025 0.58491 0.0
Zn2459 Zn 0.0402 0.52132 0.5434 0.0
C2460 C 0.08866 0.5179 0.52142 0.0
N2461 N 0.03368 0.48855 0.47492 0.0
C2462 C 0.01469 0.47231 0.46852 0.0
C2463 C 0.04715 0.50083 0.45849 0.0
C2464 C 0.04038 0.49876 0.43477 0.0
C2465 C 0.01899 0.48464 0.42783 0.0
C2466 C 0.00681 0.47029 0.44501 0.0
Zn2467 Zn 0.03714 0.50157 0.50876 0.0
O2468 O 0.04512 0.48264 0.55682 0.0
C2469 C 0.98904 0.50412 0.53102 0.0
O2470 O 0.04277 0.46315 0.52273 0.0
H2471 H 0.06203 0.51389 0.46377 0.0
H2472 H 0.0137 0.50877 0.58685 0.0
H2473 H 0.00428 0.4625 0.48175 0.0
O2474 O 0.00185 0.51671 0.54616 0.0
O2475 O -0.00099 0.49654 0.51249 0.0
H2476 H 0.07311 0.5597 0.57236 0.0
O2477 O 0.03136 0.54026 0.49534 0.0
O2478 O 0.03489 0.55989 0.52931 0.0
O2479 O 0.07532 0.50656 0.50578 0.0
O2480 O 0.07888 0.5255 0.54012 0.0
C2481 C 0.03178 0.56122 0.50707 0.0
H2482 H 0.02129 0.5138 0.62875 0.0
H2483 H 0.08339 0.56407 0.61448 0.0
H2484 H 0.05098 0.50944 0.4222 0.0
H2485 H 0.99021 0.45913 0.44076 0.0
C2486 C 0.79383 0.71462 0.26598 0.0
N2487 N 0.76294 0.74702 0.32479 0.0
C2488 C 0.74807 0.72575 0.3249 0.0
C2489 C 0.744 0.71289 0.34582 0.0
C2490 C 0.75563 0.72197 0.36659 0.0
C2491 C 0.76886 0.74538 0.36628 0.0
C2492 C 0.77232 0.7577 0.34496 0.0
Zn2493 Zn 0.77493 0.75961 0.29394 0.0
C2494 C 0.83107 0.76995 0.29677 0.0
N2495 N 0.80055 0.78354 0.22867 0.0
C2496 C 0.79174 0.7705 0.20946 0.0
C2497 C 0.81155 0.80712 0.22687 0.0
C2498 C 0.81149 0.81977 0.20528 0.0
C2499 C 0.80008 0.80782 0.18563 0.0
C2500 C 0.79144 0.78233 0.18758 0.0
Zn2501 Zn 0.78964 0.77103 0.2601 0.0
O2502 O 0.78353 0.7207 0.2849 0.0
C2503 C 0.73356 0.76061 0.25716 0.0
O2504 O 0.79847 0.73229 0.25128 0.0
H2505 H 0.81841 0.81706 0.24245 0.0
H2506 H 0.7408 0.71768 0.30859 0.0
H2507 H 0.78297 0.75183 0.21137 0.0
O2508 O 0.73745 0.75609 0.27889 0.0
O2509 O 0.75212 0.76678 0.24505 0.0
H2510 H 0.784 0.77471 0.34433 0.0
O2511 O 0.78055 0.80997 0.26926 0.0
O2512 O 0.76675 0.79805 0.30324 0.0
O2513 O 0.82708 0.77511 0.27511 0.0
O2514 O 0.81259 0.76334 0.30888 0.0
C2515 C 0.77098 0.81586 0.28859 0.0
H2516 H 0.73344 0.69503 0.34551 0.0
H2517 H 0.77827 0.75287 0.38193 0.0
H2518 H 0.81837 0.83944 0.20441 0.0
H2519 H 0.78296 0.77234 0.17265 0.0
C2520 C 0.83056 0.2707 0.75565 0.0
N2521 N 0.76152 0.25028 0.72353 0.0
C2522 C 0.77097 0.26415 0.70563 0.0
C2523 C 0.76814 0.25546 0.68262 0.0
C2524 C 0.75511 0.2324 0.6778 0.0
C2525 C 0.74382 0.2196 0.69647 0.0
C2526 C 0.74748 0.22879 0.71935 0.0
Zn2527 Zn 0.77371 0.25985 0.75661 0.0
C2528 C 0.79412 0.21385 0.78245 0.0
N2529 N 0.80319 0.28044 0.82411 0.0
C2530 C 0.81354 0.30413 0.82807 0.0
C2531 C 0.79657 0.26494 0.84217 0.0
C2532 C 0.79886 0.27375 0.86521 0.0
C2533 C 0.80752 0.2989 0.86955 0.0
C2534 C 0.81564 0.31392 0.85082 0.0
Zn2535 Zn 0.79108 0.27048 0.79108 0.0
O2536 O 0.81105 0.26479 0.74341 0.0
C2537 C 0.77047 0.3164 0.7648 0.0
O2538 O 0.82826 0.27505 0.77745 0.0
H2539 H 0.78792 0.2464 0.83866 0.0
H2540 H 0.78209 0.2812 0.70932 0.0
H2541 H 0.81869 0.31613 0.81349 0.0
O2542 O 0.76479 0.29909 0.74981 0.0
O2543 O 0.7822 0.30992 0.78366 0.0
H2544 H 0.74015 0.21806 0.73386 0.0
O2545 O 0.7539 0.266 0.80441 0.0
O2546 O 0.73661 0.25475 0.77063 0.0
O2547 O 0.7996 0.23084 0.79785 0.0
O2548 O 0.78274 0.2207 0.76353 0.0
C2549 C 0.73441 0.25958 0.79238 0.0
H2550 H 0.77748 0.26594 0.66905 0.0
H2551 H 0.73308 0.2021 0.6936 0.0
H2552 H 0.79222 0.26178 0.87928 0.0
H2553 H 0.8225 0.33342 0.85367 0.0
C2554 C 0.77504 0.71375 0.77514 0.0
N2555 N 0.79932 0.76591 0.72576 0.0
C2556 C 0.82266 0.75536 0.72697 0.0
C2557 C 0.83464 0.74883 0.7066 0.0
C2558 C 0.82202 0.75206 0.68482 0.0
C2559 C 0.79902 0.76536 0.68399 0.0
C2560 C 0.78805 0.77236 0.70484 0.0
Zn2561 Zn 0.77964 0.76699 0.7555 0.0
C2562 C 0.72641 0.75688 0.74818 0.0
N2563 N 0.74107 0.76678 0.81889 0.0
C2564 C 0.74713 0.75019 0.83674 0.0
C2565 C 0.72256 0.78464 0.82079 0.0
C2566 C 0.71086 0.78789 0.84196 0.0
C2567 C 0.71787 0.7722 0.86129 0.0
C2568 C 0.73539 0.75227 0.85806 0.0
Zn2569 Zn 0.76054 0.76633 0.7891 0.0
O2570 O 0.78482 0.72654 0.75886 0.0
C2571 C 0.81348 0.77463 0.79745 0.0
O2572 O 0.7636 0.72574 0.79094 0.0
H2573 H 0.71763 0.79725 0.8062 0.0
H2574 H 0.83137 0.75018 0.74369 0.0
H2575 H 0.76174 0.73594 0.83479 0.0
O2576 O 0.81255 0.77454 0.77524 0.0
O2577 O 0.79382 0.77048 0.80856 0.0
H2578 H 0.76967 0.78113 0.70426 0.0
O2579 O 0.75836 0.80746 0.78663 0.0
O2580 O 0.77449 0.80703 0.75188 0.0
O2581 O 0.72723 0.76144 0.77 0.0
O2582 O 0.7461 0.75897 0.73661 0.0
C2583 C 0.76604 0.8197 0.76894 0.0
H2584 H 0.8527 0.73933 0.70806 0.0
H2585 H 0.78847 0.76828 0.66767 0.0
H2586 H 0.69773 0.80373 0.84342 0.0
H2587 H 0.74096 0.73924 0.87219 0.0
C2588 C 0.50645 0.50963 0.47964 0.0
N2589 N 0.47894 0.54318 0.53971 0.0
C2590 C 0.4697 0.56041 0.52351 0.0
C2591 C 0.44395 0.56314 0.52004 0.0
C2592 C 0.42819 0.54739 0.53302 0.0
C2593 C 0.4383 0.53469 0.55305 0.0
C2594 C 0.46414 0.53272 0.55604 0.0
Zn2595 Zn 0.50986 0.52295 0.53141 0.0
C2596 C 0.50243 0.46679 0.53396 0.0
N2597 N 0.57297 0.48168 0.50963 0.0
C2598 C 0.58596 0.49051 0.49127 0.0
C2599 C 0.58378 0.46616 0.52643 0.0
C2600 C 0.60967 0.46371 0.52793 0.0
C2601 C 0.62377 0.47726 0.51183 0.0
C2602 C 0.61184 0.48827 0.49193 0.0
Zn2603 Zn 0.54235 0.5018 0.5182 0.0
O2604 O 0.49556 0.52068 0.49633 0.0
C2605 C 0.54906 0.55788 0.51407 0.0
O2606 O 0.52769 0.49923 0.48356 0.0
H2607 H 0.57291 0.45917 0.54072 0.0
H2608 H 0.48188 0.56876 0.51084 0.0
H2609 H 0.57686 0.50275 0.47811 0.0
O2610 O 0.52795 0.5572 0.52344 0.0
O2611 O 0.56055 0.53695 0.51004 0.0
H2612 H 0.47202 0.51941 0.56899 0.0
O2613 O 0.557 0.50482 0.55287 0.0
O2614 O 0.52451 0.52486 0.56659 0.0
O2615 O 0.52438 0.46732 0.52632 0.0
O2616 O 0.49132 0.48787 0.53824 0.0
C2617 C 0.54623 0.51523 0.56993 0.0
H2618 H 0.43677 0.57386 0.5049 0.0
H2619 H 0.42687 0.52265 0.56389 0.0
H2620 H 0.61848 0.45515 0.5435 0.0
H2621 H 0.6224 0.49892 0.47927 0.0
C2622 C 0.02494 0.52064 0.07821 0.0
N2623 N 0.05801 0.45615 0.04805 0.0
C2624 C 0.07145 0.45561 0.06871 0.0
C2625 C 0.07788 0.4321 0.07923 0.0
C2626 C 0.07083 0.40887 0.06814 0.0
C2627 C 0.05881 0.41008 0.04583 0.0
C2628 C 0.05223 0.43408 0.03619 0.0
Zn2629 Zn 0.04438 0.49067 0.03689 0.0
C2630 C 0.98885 0.48953 0.02805 0.0
N2631 N 0.01643 0.56408 0.01704 0.0
C2632 C 0.02456 0.58569 0.02852 0.0
C2633 C 0.00417 0.56548 0.99579 0.0
C2634 C 0.00186 0.58912 0.9842 0.0
C2635 C 0.01181 0.61136 0.99489 0.0
C2636 C 0.02223 0.60983 0.0177 0.0
Zn2637 Zn 0.02887 0.52912 0.02816 0.0
O2638 O 0.03601 0.49999 0.07226 0.0
C2639 C 0.08419 0.53055 0.03684 0.0
O2640 O 0.0201 0.53785 0.0628 0.0
H2641 H 0.99785 0.548 0.98707 0.0
H2642 H 0.07613 0.47347 0.07766 0.0
H2643 H 0.03447 0.58399 0.0453 0.0
O2644 O 0.08099 0.50652 0.04038 0.0
O2645 O 0.06521 0.54485 0.03266 0.0
H2646 H 0.04167 0.43506 0.01969 0.0
O2647 O 0.03781 0.52038 0.99345 0.0
O2648 O 0.05239 0.48161 0.00141 0.0
O2649 O 0.99263 0.5133 0.0236 0.0
O2650 O 0.00745 0.47496 0.03334 0.0
C2651 C 0.04806 0.49968 0.98666 0.0
H2652 H 0.08692 0.43228 0.09649 0.0
H2653 H 0.05361 0.39269 0.03631 0.0
H2654 H 0.99352 0.58985 0.96663 0.0
H2655 H 0.03012 0.62676 0.02632 0.0
C2656 C 0.03363 0.13506 0.02543 0.0
C2657 C 0.05898 0.13971 0.03121 0.0
H2658 H 0.00635 0.10676 0.01559 0.0
C2659 C 0.07695 0.12179 0.02383 0.0
H2660 H 0.01913 0.14845 0.03031 0.0
C2661 C 0.06942 0.09745 0.01569 0.0
C2662 C 0.04393 0.09123 0.01455 0.0
H2663 H 0.0967 0.1253 0.02708 0.0
H2664 H 0.08353 0.08274 0.0131 0.0
C2665 C 0.02617 0.11091 0.01717 0.0
C2666 C 0.16422 0.74699 0.30385 0.0
C2667 C 0.16129 0.75924 0.32575 0.0
H2668 H 0.18879 0.73755 0.27597 0.0
C2669 C 0.18246 0.77169 0.3359 0.0
H2670 H 0.14876 0.73685 0.29536 0.0
C2671 C 0.20554 0.7715 0.32499 0.0
C2672 C 0.20844 0.75929 0.30322 0.0
H2673 H 0.1813 0.78207 0.35226 0.0
H2674 H 0.22115 0.78136 0.3336 0.0
C2675 C 0.18736 0.74719 0.2927 0.0
C2676 C 0.56684 0.86002 0.61815 0.0
C2677 C 0.56639 0.83641 0.60611 0.0
H2678 H 0.56814 0.90124 0.61531 0.0
C2679 C 0.57037 0.83605 0.58195 0.0
H2680 H 0.56381 0.86067 0.6368 0.0
C2681 C 0.57316 0.85912 0.56967 0.0
C2682 C 0.57188 0.88294 0.58136 0.0
H2683 H 0.57062 0.81791 0.57244 0.0
H2684 H 0.57549 0.85835 0.55092 0.0
C2685 C 0.56946 0.88317 0.60584 0.0
C2686 C 0.38612 0.25973 0.83761 0.0
C2687 C 0.40729 0.26622 0.82488 0.0
H2688 H 0.34641 0.25462 0.83742 0.0
C2689 C 0.4035 0.27305 0.80107 0.0
H2690 H 0.38811 0.25395 0.85583 0.0
C2691 C 0.37936 0.27336 0.7904 0.0
C2692 C 0.35827 0.26674 0.80318 0.0
H2693 H 0.41917 0.27846 0.79067 0.0
H2694 H 0.37726 0.27866 0.77207 0.0
C2695 C 0.36207 0.25997 0.82696 0.0
C2696 C 0.0374 0.88941 0.49439 0.0
C2697 C 0.03041 0.88823 0.47041 0.0
H2698 H 0.04193 0.91326 0.52512 0.0
C2699 C 0.02231 0.9111 0.45904 0.0
H2700 H 0.04366 0.87208 0.50362 0.0
C2701 C 0.02187 0.93471 0.47117 0.0
C2702 C 0.02881 0.93597 0.49516 0.0
H2703 H 0.01689 0.91081 0.44058 0.0
H2704 H 0.01607 0.95206 0.46171 0.0
C2705 C 0.03626 0.91294 0.50672 0.0
C2706 C 0.43667 0.71384 0.73151 0.0
C2707 C 0.43867 0.68992 0.72013 0.0
H2708 H 0.41421 0.73863 0.75189 0.0
C2709 C 0.42084 0.67067 0.72379 0.0
H2710 H 0.45046 0.72884 0.72914 0.0
C2711 C 0.4 0.67621 0.73699 0.0
C2712 C 0.39697 0.70097 0.74678 0.0
H2713 H 0.42219 0.65203 0.71525 0.0
H2714 H 0.38567 0.66162 0.73855 0.0
C2715 C 0.41605 0.71932 0.74476 0.0
C2716 C 0.52992 0.13602 0.99391 0.0
C2717 C 0.52911 0.1366 0.96915 0.0
H2718 H 0.53007 0.11273 0.02525 0.0
C2719 C 0.5273 0.11276 0.95726 0.0
H2720 H 0.53097 0.15385 0.00383 0.0
C2721 C 0.52643 0.08928 0.96956 0.0
C2722 C 0.52751 0.08864 0.99424 0.0
H2723 H 0.52713 0.11205 0.93831 0.0
H2724 H 0.52534 0.07148 0.95956 0.0
C2725 C 0.52919 0.11238 0.00627 0.0
C2726 C 0.17879 0.23449 0.19797 0.0
C2727 C 0.1662 0.21817 0.21346 0.0
H2728 H 0.20589 0.26464 0.19439 0.0
C2729 C 0.1698 0.22186 0.23767 0.0
H2730 H 0.17588 0.23284 0.17917 0.0
C2731 C 0.18557 0.24115 0.24622 0.0
C2732 C 0.19909 0.25659 0.23082 0.0
H2733 H 0.16082 0.20952 0.25018 0.0
H2734 H 0.18843 0.24265 0.26505 0.0
C2735 C 0.19542 0.25326 0.20659 0.0
C2736 C 0.05587 0.02216 0.13659 0.0
C2737 C 0.0817 0.01697 0.13844 0.0
H2738 H 0.02346 0.02677 0.11375 0.0
C2739 C 0.09479 0.01315 0.11783 0.0
H2740 H 0.0452 0.02504 0.15212 0.0
C2741 C 0.08236 0.01396 0.09596 0.0
C2742 C 0.05651 0.01879 0.09409 0.0
H2743 H 0.11477 0.00973 0.11853 0.0
H2744 H 0.09308 0.01073 0.08049 0.0
C2745 C 0.0434 0.02309 0.11462 0.0
C2746 C 0.30658 0.80452 0.43606 0.0
C2747 C 0.30388 0.83147 0.43812 0.0
H2748 H 0.31159 0.77239 0.41308 0.0
C2749 C 0.30474 0.84695 0.41792 0.0
H2750 H 0.30634 0.7922 0.45143 0.0
C2751 C 0.30745 0.83567 0.39598 0.0
C2752 C 0.30962 0.80864 0.39372 0.0
H2753 H 0.30244 0.86776 0.41899 0.0
H2754 H 0.30683 0.84816 0.38071 0.0
C2755 C 0.30958 0.79323 0.4141 0.0
C2756 C 0.48804 0.04255 0.6253 0.0
C2757 C 0.49017 0.02183 0.64123 0.0
H2758 H 0.49949 0.05875 0.59294 0.0
C2759 C 0.50817 0.00249 0.63763 0.0
H2760 H 0.47467 0.05799 0.62787 0.0
C2761 C 0.52251 0.00293 0.61763 0.0
C2762 C 0.5192 0.02279 0.6009 0.0
H2763 H 0.51022 0.98625 0.6496 0.0
H2764 H 0.53519 0.98697 0.61469 0.0
C2765 C 0.50247 0.0431 0.6054 0.0
C2766 C 0.26159 0.19597 0.92549 0.0
C2767 C 0.27443 0.17223 0.925 0.0
H2768 H 0.2473 0.22832 0.90552 0.0
C2769 C 0.28163 0.162 0.90354 0.0
H2770 H 0.25602 0.20422 0.94194 0.0
C2771 C 0.27632 0.17552 0.88282 0.0
C2772 C 0.26407 0.19959 0.88336 0.0
H2773 H 0.29145 0.14365 0.90284 0.0
H2774 H 0.28257 0.16762 0.86646 0.0
C2775 C 0.25662 0.20969 0.90479 0.0
C2776 C 0.07063 0.04448 0.36824 0.0
C2777 C 0.09645 0.04066 0.36625 0.0
H2778 H 0.0403 0.04932 0.39127 0.0
C2779 C 0.1118 0.03964 0.38671 0.0
H2780 H 0.05841 0.04571 0.35274 0.0
C2781 C 0.10147 0.04149 0.40874 0.0
C2782 C 0.07554 0.04458 0.41086 0.0
H2783 H 0.13173 0.03639 0.38574 0.0
H2784 H 0.11377 0.03935 0.42411 0.0
C2785 C 0.06029 0.04654 0.39031 0.0
C2786 C 0.25239 0.8066 0.67025 0.0
C2787 C 0.27544 0.81042 0.65959 0.0
H2788 H 0.23333 0.79122 0.69959 0.0
C2789 C 0.29693 0.79871 0.66995 0.0
H2790 H 0.23528 0.81463 0.66257 0.0
C2791 C 0.29561 0.78457 0.69077 0.0
C2792 C 0.27286 0.78213 0.70208 0.0
H2793 H 0.31511 0.8014 0.66264 0.0
H2794 H 0.31276 0.7768 0.69868 0.0
C2795 C 0.25117 0.79285 0.69135 0.0
C2796 C 0.48977 0.01645 0.8685 0.0
C2797 C 0.47625 0.99611 0.85786 0.0
H2798 H 0.51067 0.02972 0.89854 0.0
C2799 C 0.47518 0.97218 0.86963 0.0
H2800 H 0.49133 0.03502 0.85982 0.0
C2801 C 0.487 0.96883 0.89166 0.0
C2802 C 0.49998 0.9894 0.90256 0.0
H2803 H 0.46469 0.95615 0.86211 0.0
H2804 H 0.48574 0.95017 0.90023 0.0
C2805 C 0.50132 0.0132 0.89059 0.0
C2806 C 0.35345 0.22806 0.13427 0.0
C2807 C 0.33407 0.22676 0.11713 0.0
H2808 H 0.36547 0.24397 0.16727 0.0
C2809 C 0.3151 0.24557 0.11692 0.0
H2810 H 0.36867 0.21417 0.13454 0.0
C2811 C 0.31273 0.26195 0.13601 0.0
C2812 C 0.32961 0.25997 0.1554 0.0
H2813 H 0.30044 0.24556 0.10332 0.0
H2814 H 0.29592 0.27358 0.13662 0.0
C2815 C 0.35141 0.24495 0.15317 0.0
C2816 C 0.18793 0.02312 0.01517 0.0
C2817 C 0.1881 0.03341 0.03802 0.0
H2818 H 0.16753 0.00135 0.98895 0.0
C2819 C 0.16968 0.02569 0.05335 0.0
H2820 H 0.20242 0.02805 0.0032 0.0
C2821 C 0.15026 0.00981 0.04539 0.0
C2822 C 0.14882 0.00156 0.0219 0.0
H2823 H 0.16927 0.03329 0.071 0.0
H2824 H 0.13525 0.00589 0.05711 0.0
C2825 C 0.16827 0.00752 0.00708 0.0
C2826 C 0.65369 0.49641 0.02894 0.0
C2827 C 0.65934 0.47542 0.04393 0.0
H2828 H 0.62508 0.52131 0.01403 0.0
C2829 C 0.64019 0.46459 0.05695 0.0
H2830 H 0.66811 0.505 0.01864 0.0
C2831 C 0.61575 0.47408 0.05461 0.0
C2832 C 0.60977 0.49434 0.03887 0.0
H2833 H 0.6441 0.44848 0.06873 0.0
H2834 H 0.60138 0.4649 0.06458 0.0
C2835 C 0.62907 0.50564 0.02626 0.0
C2836 C 0.80877 0.38148 0.27248 0.0
C2837 C 0.83288 0.38361 0.26372 0.0
H2838 H 0.7802 0.35637 0.28438 0.0
C2839 C 0.84734 0.36103 0.26143 0.0
H2840 H 0.79707 0.39846 0.27432 0.0
C2841 C 0.83768 0.33683 0.26728 0.0
C2842 C 0.81332 0.33467 0.27548 0.0
H2843 H 0.86616 0.36206 0.25516 0.0
H2844 H 0.84909 0.31975 0.26478 0.0
C2845 C 0.79912 0.35732 0.27831 0.0
C2846 C 0.92126 0.49159 0.51795 0.0
C2847 C 0.91113 0.50248 0.53801 0.0
H2848 H 0.95465 0.48409 0.49974 0.0
C2849 C 0.92658 0.5071 0.55788 0.0
H2850 H 0.90946 0.48755 0.50258 0.0
C2851 C 0.95233 0.50562 0.55617 0.0
C2852 C 0.96262 0.49918 0.53468 0.0
H2853 H 0.9191 0.51529 0.57363 0.0
H2854 H 0.96406 0.51171 0.571 0.0
C2855 C 0.94706 0.49006 0.51623 0.0
C2856 C 0.23889 0.15136 0.27763 0.0
C2857 C 0.24005 0.13931 0.25565 0.0
H2858 H 0.24486 0.18596 0.29751 0.0
C2859 C 0.25039 0.15278 0.23697 0.0
H2860 H 0.23073 0.14151 0.29226 0.0
C2861 C 0.25868 0.17821 0.24003 0.0
C2862 C 0.25638 0.19067 0.26172 0.0
H2863 H 0.25157 0.14383 0.2199 0.0
H2864 H 0.26583 0.18845 0.22512 0.0
C2865 C 0.24687 0.17684 0.28061 0.0
C2866 C 0.43648 0.95005 0.55027 0.0
C2867 C 0.4158 0.96456 0.54182 0.0
H2868 H 0.47634 0.94618 0.5523 0.0
C2869 C 0.41995 0.98671 0.52814 0.0
H2870 H 0.43384 0.93268 0.56056 0.0
C2871 C 0.44426 0.99448 0.52342 0.0
C2872 C 0.46497 0.98005 0.53196 0.0
H2873 H 0.40435 0.99826 0.52139 0.0
H2874 H 0.44683 0.01195 0.51325 0.0
C2875 C 0.4608 0.95761 0.54526 0.0
C2876 C 0.82146 0.65526 0.23759 0.0
C2877 C 0.82408 0.63824 0.25677 0.0
H2878 H 0.80988 0.69289 0.22544 0.0
C2879 C 0.815 0.64582 0.27849 0.0
H2880 H 0.82841 0.64991 0.22067 0.0
C2881 C 0.80412 0.67022 0.28116 0.0
C2882 C 0.80246 0.68772 0.26225 0.0
H2883 H 0.81658 0.63295 0.29349 0.0
H2884 H 0.79782 0.67568 0.29829 0.0
C2885 C 0.81093 0.67986 0.24034 0.0
C2886 C 0.75403 0.38638 0.77689 0.0
C2887 C 0.73913 0.39283 0.75693 0.0
H2888 H 0.77594 0.35731 0.79492 0.0
C2889 C 0.7363 0.37458 0.7388 0.0
H2890 H 0.75691 0.40017 0.791 0.0
C2891 C 0.74733 0.3501 0.74097 0.0
C2892 C 0.76146 0.34331 0.76131 0.0
H2893 H 0.72477 0.37885 0.72329 0.0
H2894 H 0.74413 0.33624 0.72697 0.0
C2895 C 0.76511 0.36189 0.77905 0.0
C2896 C 0.01307 0.8951 0.02349 0.0
C2897 C 0.99352 0.89322 0.00645 0.0
H2898 H 0.03311 0.92043 0.04699 0.0
C2899 C 0.9742 0.9118 0.00637 0.0
H2900 H 0.02762 0.88049 0.02483 0.0
C2901 C 0.97676 0.93403 0.02002 0.0
C2902 C -0.00107 0.93811 0.03325 0.0
H2903 H 0.95865 0.911 0.99375 0.0
H2904 H 0.96333 0.9496 0.01726 0.0
C2905 C 0.01599 0.91769 0.03657 0.0
C2906 C 0.88092 0.26462 0.71002 0.0
C2907 C 0.90333 0.26893 0.72316 0.0
H2908 H 0.84097 0.262 0.70963 0.0
C2909 C 0.90139 0.27487 0.74717 0.0
H2910 H 0.88132 0.26053 0.69145 0.0
C2911 C 0.87794 0.2759 0.75769 0.0
C2912 C 0.85564 0.27113 0.74454 0.0
H2913 H 0.91806 0.27814 0.75805 0.0
H2914 H 0.87734 0.28007 0.77625 0.0
C2915 C 0.85758 0.26569 0.72049 0.0
C2916 C 0.51061 0.18375 0.48546 0.0
C2917 C 0.51675 0.18516 0.46178 0.0
H2918 H 0.50471 0.15925 0.515 0.0
C2919 C 0.52255 0.16241 0.44973 0.0
H2920 H 0.50618 0.20112 0.49512 0.0
C2921 C 0.52159 0.13852 0.46105 0.0
C2922 C 0.51497 0.13707 0.48461 0.0
H2923 H 0.52711 0.16303 0.4314 0.0
H2924 H 0.52613 0.12118 0.45141 0.0
C2925 C 0.50979 0.1599 0.49681 0.0
C2926 C 0.67958 0.763 0.21152 0.0
C2927 C 0.65845 0.75911 0.22513 0.0
H2928 H 0.71944 0.76659 0.21074 0.0
C2929 C 0.66242 0.75533 0.24945 0.0
H2930 H 0.67741 0.76635 0.19283 0.0
C2931 C 0.68669 0.75545 0.25978 0.0
C2932 C 0.70774 0.75954 0.24615 0.0
H2933 H 0.64676 0.752 0.26054 0.0
H2934 H 0.68891 0.75252 0.27853 0.0
C2935 C 0.70379 0.76328 0.22186 0.0
C2936 C 0.04279 0.13232 0.56175 0.0
C2937 C 0.03556 0.13351 0.58527 0.0
H2938 H 0.04953 0.10837 0.5318 0.0
C2939 C 0.02977 0.11008 0.59649 0.0
H2940 H 0.04773 0.14978 0.55251 0.0
C2941 C 0.03114 0.08637 0.58471 0.0
C2942 C 0.03818 0.08516 0.5612 0.0
H2943 H 0.02365 0.10998 0.61435 0.0
H2944 H 0.02628 0.06893 0.59407 0.0
C2945 C 0.04404 0.10849 0.54988 0.0
C2946 C 0.61267 0.303 0.31014 0.0
C2947 C 0.60791 0.32704 0.32062 0.0
H2948 H 0.63922 0.27844 0.29424 0.0
C2949 C 0.62682 0.34588 0.32134 0.0
H2950 H 0.59884 0.28775 0.30981 0.0
C2951 C 0.65027 0.34039 0.31246 0.0
C2952 C 0.65513 0.31602 0.30265 0.0
H2953 H 0.62365 0.36466 0.32912 0.0
H2954 H 0.66469 0.35504 0.31356 0.0
C2955 C 0.63594 0.29759 0.30124 0.0
C2956 C 0.54239 0.91226 0.09232 0.0
C2957 C 0.53577 0.88903 0.08084 0.0
H2958 H 0.548 0.95315 0.0897 0.0
C2959 C 0.53019 0.89007 0.05652 0.0
H2960 H 0.54646 0.91247 0.11103 0.0
C2961 C 0.53112 0.91365 0.04412 0.0
C2962 C 0.53747 0.93687 0.05576 0.0
H2963 H 0.52525 0.87261 0.04699 0.0
H2964 H 0.5265 0.91374 0.0255 0.0
C2965 C 0.54318 0.93574 0.08002 0.0
C2966 C 0.87926 0.79715 0.81011 0.0
C2967 C 0.88168 0.793 0.83434 0.0
H2968 H 0.85568 0.79418 0.7793 0.0
C2969 C 0.86167 0.7827 0.84646 0.0
H2970 H 0.89465 0.80481 0.80045 0.0
C2971 C 0.83939 0.77666 0.83445 0.0
C2972 C 0.837 0.78057 0.81013 0.0
H2973 H 0.86325 0.77946 0.86521 0.0
H2974 H 0.82413 0.76881 0.84416 0.0
C2975 C 0.8571 0.79085 0.79804 0.0
C2976 C 0.98543 0.99198 0.91822 0.0
C2977 C 0.96282 0.00547 0.91424 0.0
H2978 H 0.01575 0.9831 0.94255 0.0
C2979 C 0.95323 0.02041 0.93237 0.0
H2980 H 0.99325 0.9804 0.90446 0.0
C2981 C 0.96587 0.02173 0.95412 0.0
C2982 C 0.98859 0.00844 0.95813 0.0
H2983 H 0.93571 0.03079 0.92982 0.0
H2984 H 0.95786 0.03331 0.96779 0.0
C2985 C 0.99833 0.99363 0.93993 0.0
C2986 C 0.76015 0.22505 0.61182 0.0
C2987 C 0.76239 0.19811 0.60963 0.0
H2988 H 0.75472 0.25702 0.63482 0.0
C2989 C 0.76057 0.18244 0.6296 0.0
H2990 H 0.76116 0.23746 0.59657 0.0
C2991 C 0.75743 0.19354 0.65156 0.0
C2992 C 0.75562 0.2206 0.65402 0.0
H2993 H 0.76243 0.16159 0.62834 0.0
H2994 H 0.75742 0.18086 0.66668 0.0
C2995 C 0.75652 0.23618 0.63376 0.0
C2996 C 0.56673 0.01764 0.42462 0.0
C2997 C 0.58175 0.99678 0.41803 0.0
H2998 H 0.5436 0.03382 0.4505 0.0
C2999 C 0.58304 0.97455 0.43229 0.0
H3000 H 0.56514 0.03484 0.41375 0.0
C3001 C 0.5708 0.97394 0.4536 0.0
C3002 C 0.55684 0.99545 0.46079 0.0
H3003 H 0.5945 0.95818 0.42754 0.0
H3004 H 0.57319 0.95714 0.46486 0.0
C3005 C 0.55427 0.01692 0.44564 0.0
C3006 C 0.76378 0.83601 0.13381 0.0
C3007 C 0.78156 0.85219 0.12395 0.0
H3008 H 0.75581 0.80933 0.16109 0.0
C3009 C 0.80557 0.85399 0.13462 0.0
H3010 H 0.74522 0.83407 0.12581 0.0
C3011 C 0.81179 0.83949 0.15465 0.0
C3012 C 0.79413 0.82288 0.16418 0.0
H3013 H 0.81956 0.86652 0.12741 0.0
H3014 H 0.83045 0.841 0.1625 0.0
C3015 C 0.77 0.82151 0.15374 0.0
C3016 C 0.98457 0.00637 0.68155 0.0
C3017 C 0.96856 0.98677 0.68902 0.0
H3018 H 0.00783 0.02024 0.65473 0.0
C3019 C 0.96527 0.96458 0.67498 0.0
H3020 H 0.9878 0.02355 0.69206 0.0
C3021 C 0.9772 0.96241 0.65367 0.0
C3022 C 0.99267 0.98238 0.6459 0.0
H3023 H 0.95288 0.9492 0.68009 0.0
H3024 H 0.97408 0.94521 0.64316 0.0
C3025 C 0.9964 0.00425 0.66025 0.0
C3026 C 0.76867 0.22866 0.38227 0.0
C3027 C 0.78757 0.21042 0.38788 0.0
H3028 H 0.75326 0.25554 0.35696 0.0
C3029 C 0.80701 0.20713 0.37221 0.0
H3030 H 0.75367 0.23211 0.39412 0.0
C3031 C 0.80696 0.22083 0.35105 0.0
C3032 C 0.78741 0.23812 0.34495 0.0
H3033 H 0.82176 0.19313 0.37578 0.0
H3034 H 0.82174 0.21703 0.33905 0.0
C3035 C 0.76857 0.24232 0.36105 0.0
C3036 C 0.57382 0.00308 0.18055 0.0
C3037 C 0.583 0.02389 0.194 0.0
H3038 H 0.55708 0.99071 0.14799 0.0
C3039 C 0.58135 0.0491 0.18465 0.0
H3040 H 0.57474 0.98348 0.18734 0.0
C3041 C 0.57113 0.05332 0.16204 0.0
C3042 C 0.56212 0.03242 0.14854 0.0
H3043 H 0.58854 0.06548 0.19457 0.0
H3044 H 0.57033 0.07285 0.1551 0.0
C3045 C 0.56347 0.00729 0.15811 0.0
C3046 C 0.72459 0.79157 0.9246 0.0
C3047 C 0.70369 0.80776 0.92665 0.0
H3048 H 0.7457 0.76793 0.90228 0.0
C3049 C 0.68472 0.80739 0.90907 0.0
H3050 H 0.73964 0.79165 0.93781 0.0
C3051 C 0.6879 0.79315 0.8886 0.0
C3052 C 0.71043 0.77971 0.8852 0.0
H3053 H 0.66828 0.81951 0.91045 0.0
H3054 H 0.67353 0.79428 0.87481 0.0
C3055 C 0.72802 0.77782 0.90405 0.0
C3056 C 0.89436 0.95727 0.02247 0.0
C3057 C 0.87292 0.96529 0.00966 0.0
H3058 H 0.9264 0.96852 0.04298 0.0
C3059 C 0.86662 0.99177 0.00884 0.0
H3060 H 0.89961 0.937 0.02337 0.0
C3061 C 0.88181 0.00997 0.02041 0.0
C3062 C 0.90338 0.0019 0.03311 0.0
H3063 H 0.84975 -0.00165 -0.00042 0.0
H3064 H 0.87693 0.03032 0.01919 0.0
C3065 C 0.90941 0.97535 0.03406 0.0
C3066 C 0.41532 0.54081 0.02676 0.0
C3067 C 0.40661 0.55013 0.00472 0.0
H3068 H 0.44593 0.52499 0.04738 0.0
C3069 C 0.42299 0.54925 0.98596 0.0
H3070 H 0.40359 0.54152 0.0418 0.0
C3071 C 0.44757 0.54026 0.98936 0.0
C3072 C 0.4563 0.53148 0.0115 0.0
H3073 H 0.41694 0.55567 0.9686 0.0
H3074 H 0.45979 0.54035 0.97464 0.0
C3075 C 0.43975 0.53144 0.03005 0.0
C3076 C 0.20841 0.66198 0.78924 0.0
C3077 C 0.22294 0.63956 0.78626 0.0
H3078 H 0.20616 0.70329 0.78615 0.0
C3079 C 0.24651 0.64197 0.77644 0.0
H3080 H 0.18999 0.6607 0.79639 0.0
C3081 C 0.25567 0.66628 0.77038 0.0
C3082 C 0.24145 0.68878 0.77392 0.0
H3083 H 0.25821 0.6251 0.77401 0.0
H3084 H 0.27423 0.66746 0.76351 0.0
C3085 C 0.21753 0.68633 0.78306 0.0
C3086 C 0.15762 0.5252 0.53436 0.0
C3087 C 0.16709 0.51647 0.51311 0.0
H3088 H 0.12488 0.53236 0.55384 0.0
C3089 C 0.15059 0.51318 0.49363 0.0
H3090 H 0.16997 0.52841 0.54952 0.0
C3091 C 0.12503 0.51548 0.49608 0.0
C3092 C 0.11545 0.52103 0.51803 0.0
H3093 H 0.15704 0.50635 0.47697 0.0
H3094 H 0.11276 0.51118 0.48109 0.0
C3095 C 0.13188 0.52741 0.53684 0.0
C3096 C 0.78134 0.88437 0.79577 0.0
C3097 C 0.79475 0.89572 0.77774 0.0
H3098 H 0.76097 0.85128 0.80693 0.0
C3099 C 0.79364 0.88442 0.75537 0.0
H3100 H 0.78177 0.89274 0.81316 0.0
C3101 C 0.78172 0.86071 0.75175 0.0
C3102 C 0.77075 0.84784 0.77048 0.0
H3103 H 0.80331 0.89314 0.74101 0.0
H3104 H 0.78282 0.85158 0.73475 0.0
C3105 C 0.76938 0.86061 0.79216 0.0
C3106 C 0.63831 0.07447 0.51778 0.0
C3107 C 0.65943 0.05821 0.51768 0.0
H3108 H 0.59921 0.07789 0.52327 0.0
C3109 C 0.65684 0.03211 0.52423 0.0
H3110 H 0.63953 0.09459 0.51256 0.0
C3111 C 0.63354 0.02245 0.5304 0.0
C3112 C 0.61238 0.03869 0.53007 0.0
H3113 H 0.67281 0.01918 0.52466 0.0
H3114 H 0.63203 0.00214 0.5349 0.0
C3115 C 0.61513 0.06487 0.52393 0.0
C3116 C 0.2434 0.36849 0.81745 0.0
C3117 C 0.24194 0.38711 0.79949 0.0
H3118 H 0.25404 0.32979 0.82728 0.0
C3119 C 0.25262 0.38159 0.77794 0.0
H3120 H 0.23519 0.37226 0.83418 0.0
C3121 C 0.26353 0.35747 0.77402 0.0
C3122 C 0.26372 0.33822 0.79148 0.0
H3123 H 0.25192 0.39573 0.76388 0.0
H3124 H 0.27089 0.35359 0.75695 0.0
C3125 C 0.25407 0.34417 0.81344 0.0
C3126 C 0.31958 0.6519 0.30786 0.0
C3127 C 0.32437 0.63739 0.28763 0.0
H3128 H 0.30576 0.68748 0.32183 0.0
C3129 C 0.31696 0.64768 0.2656 0.0
H3130 H 0.32446 0.64443 0.32516 0.0
C3131 C 0.30554 0.67195 0.26381 0.0
C3132 C 0.30173 0.6868 0.28394 0.0
H3133 H 0.3207 0.63745 0.24957 0.0
H3134 H 0.3007 0.67953 0.24651 0.0
C3135 C 0.30861 0.67646 0.30601 0.0
C3136 C 0.58862 0.61016 0.53631 0.0
C3137 C 0.57072 0.63005 0.53429 0.0
H3138 H 0.59575 0.57004 0.53002 0.0
C3139 C 0.5513 0.6282 0.51723 0.0
H3140 H 0.60386 0.61135 0.54928 0.0
C3141 C 0.54652 0.60452 0.50642 0.0
C3142 C 0.56138 0.58295 0.5125 0.0
H3143 H 0.53752 0.64355 0.51522 0.0
H3144 H 0.52915 0.60214 0.49633 0.0
C3145 C 0.58397 0.58648 0.52527 0.0
C3146 C 0.68319 0.27128 0.83629 0.0
C3147 C 0.66217 0.25915 0.8257 0.0
H3148 H 0.72209 0.28055 0.83447 0.0
C3149 C 0.66522 0.24678 0.80395 0.0
H3150 H 0.68177 0.28077 0.85309 0.0
C3151 C 0.68845 0.24693 0.79301 0.0
C3152 C 0.70949 0.25897 0.80373 0.0
H3153 H 0.64948 0.23733 0.79517 0.0
H3154 H 0.68996 0.23747 0.77621 0.0
C3155 C 0.70646 0.271 0.82561 0.0
C3156 C 0.05479 0.3432 0.09238 0.0
C3157 C 0.07392 0.33926 0.10953 0.0
H3158 H 0.03847 0.3682 0.06646 0.0
C3159 C 0.09337 0.35738 0.11161 0.0
H3160 H 0.03993 0.32923 0.08968 0.0
C3161 C 0.09314 0.37943 0.09737 0.0
C3162 C 0.07328 0.38394 0.08101 0.0
H3163 H 0.10848 0.35486 0.12455 0.0
H3164 H 0.10831 0.39313 0.09948 0.0
C3165 C 0.0543 0.36535 0.07853 0.0
C3166 C 0.88521 0.76792 0.34232 0.0
C3167 C 0.90638 0.76955 0.32844 0.0
H3168 H 0.8452 0.76663 0.34341 0.0
C3169 C 0.90244 0.77189 0.30398 0.0
H3170 H 0.88738 0.76581 0.36117 0.0
C3171 C 0.87812 0.77257 0.29376 0.0
C3172 C 0.85698 0.77058 0.30765 0.0
H3173 H 0.91819 0.77343 0.29269 0.0
H3174 H 0.8759 0.77428 0.27488 0.0
C3175 C 0.86093 0.76828 0.3321 0.0
C3176 C 0.54024 0.41398 0.956 0.0
C3177 C 0.5318 0.3909 0.96617 0.0
H3178 H 0.54574 0.45489 0.95943 0.0
C3179 C 0.52197 0.39231 0.98873 0.0
H3180 H 0.54761 0.41384 0.93858 0.0
C3181 C 0.52096 0.41601 0.00084 0.0
C3182 C 0.52946 0.43906 0.99062 0.0
H3183 H 0.51543 0.37497 0.99724 0.0
H3184 H 0.51357 0.41625 0.01825 0.0
C3185 C 0.53898 0.43765 0.96796 0.0
C3186 C 0.93946 0.22274 0.22892 0.0
C3187 C 0.94223 0.20051 0.21511 0.0
H3188 H 0.91555 0.24499 0.25015 0.0
C3189 C 0.92344 0.18162 0.21475 0.0
H3190 H 0.95393 0.23735 0.22995 0.0
C3191 C 0.90154 0.18572 0.22683 0.0
C3192 C 0.89809 0.20879 0.2394 0.0
H3193 H 0.92515 0.16425 0.20432 0.0
H3194 H 0.88701 0.17119 0.22572 0.0
C3195 C 0.9176 0.2269 0.24083 0.0
C3196 C 0.03055 0.611 0.45759 0.0
C3197 C 0.02951 0.63482 0.46953 0.0
H3198 H 0.03185 0.56964 0.45979 0.0
C3199 C 0.0285 0.63406 0.49423 0.0
H3200 H 0.03187 0.61044 0.43873 0.0
C3201 C 0.0289 0.61034 0.50648 0.0
C3202 C 0.0301 0.58665 0.49442 0.0
H3203 H 0.02728 0.65179 0.5042 0.0
H3204 H 0.02836 0.61059 0.52543 0.0
C3205 C 0.03071 0.5874 0.46979 0.0
C3206 C 0.66894 0.7156 0.74356 0.0
C3207 C 0.6653 0.71308 0.71924 0.0
H3208 H 0.69049 0.73225 0.77167 0.0
C3209 C 0.68158 0.7259 0.70428 0.0
H3210 H 0.65688 0.70576 0.75552 0.0
C3211 C 0.70111 0.74098 0.71355 0.0
C3212 C 0.70435 0.74382 0.73789 0.0
H3213 H 0.67888 0.72484 0.68541 0.0
H3214 H 0.71364 0.75037 0.70173 0.0
C3215 C 0.68806 0.73103 0.75278 0.0
C3216 C 0.56054 0.5244 0.63507 0.0
C3217 C 0.58614 0.51797 0.63676 0.0
H3218 H 0.52772 0.52862 0.6126 0.0
C3219 C 0.59827 0.51104 0.61627 0.0
H3220 H 0.55053 0.52961 0.65052 0.0
C3221 C 0.58517 0.51011 0.59476 0.0
C3222 C 0.5596 0.51639 0.59304 0.0
H3223 H 0.61807 0.50661 0.61671 0.0
H3224 H 0.59526 0.50468 0.57939 0.0
C3225 C 0.54741 0.52371 0.61338 0.0
C3226 C 0.7866 0.34293 0.91769 0.0
C3227 C 0.79745 0.33099 0.93769 0.0
H3228 H 0.7819 0.34226 0.88028 0.0
C3229 C 0.81229 0.30875 0.9352 0.0
H3230 H 0.77529 0.36024 0.91924 0.0
C3231 C 0.81583 0.2983 0.91299 0.0
C3232 C 0.80513 0.3104 0.89298 0.0
H3233 H 0.82086 0.29933 0.95046 0.0
H3234 H 0.82696 0.28088 0.91139 0.0
C3235 C 0.7906 0.33284 0.89549 0.0
C3236 C 0.00278 0.5015 0.13795 0.0
C3237 C 0.98558 0.52139 0.14238 0.0
H3238 H 0.02919 0.48591 0.11445 0.0
C3239 C 0.98376 0.54251 0.12679 0.0
H3240 H 0.00504 0.48522 0.14985 0.0
C3241 C 0.99787 0.54311 0.10669 0.0
C3242 C 0.01405 0.52254 0.10162 0.0
H3243 H 0.97059 0.55808 0.12952 0.0
H3244 H 0.99514 0.55912 0.09456 0.0
C3245 C 0.01686 0.50206 0.1178 0.0
C3246 C 0.76442 0.69979 0.42921 0.0
C3247 C 0.77289 0.67431 0.42595 0.0
H3248 H 0.75157 0.73493 0.41275 0.0
C3249 C 0.77262 0.6638 0.40333 0.0
H3250 H 0.76393 0.70811 0.4466 0.0
C3251 C 0.76532 0.67896 0.38413 0.0
C3252 C 0.75818 0.70491 0.38722 0.0
H3253 H 0.77924 0.64428 0.40034 0.0
H3254 H 0.76678 0.6708 0.36677 0.0
C3255 C 0.75716 0.71503 0.40995 0.0
C3256 C 0.60331 0.55859 0.87906 0.0
C3257 C 0.59523 0.53947 0.86297 0.0
H3258 H 0.59877 0.5763 0.9124 0.0
C3259 C 0.57518 0.52355 0.86889 0.0
H3260 H 0.61885 0.57113 0.87541 0.0
C3261 C 0.56437 0.52575 0.89066 0.0
C3262 C 0.57278 0.54448 0.90699 0.0
H3263 H 0.5679 0.50903 0.85685 0.0
H3264 H 0.54995 0.51205 0.89483 0.0
C3265 C 0.59203 0.56128 0.90062 0.0
C3266 C 0.75342 0.3218 0.17804 0.0
C3267 C 0.77223 0.31686 0.16204 0.0
H3268 H 0.7377 0.31217 0.21081 0.0
C3269 C 0.7888 0.29608 0.16664 0.0
H3270 H 0.74047 0.33777 0.17533 0.0
C3271 C 0.78734 0.28147 0.18723 0.0
C3272 C 0.76916 0.28718 0.20365 0.0
H3273 H 0.80318 0.2913 0.1545 0.0
H3274 H 0.80097 0.26624 0.19063 0.0
C3275 C 0.75183 0.30708 0.1985 0.0
C3276 C 0.98046 0.4713 0.37191 0.0
C3277 C 0.9818 0.49515 0.36 0.0
H3278 H 0.99195 0.44874 0.40182 0.0
C3279 C 0.99699 0.51472 0.36985 0.0
H3280 H 0.96878 0.45577 0.36515 0.0
C3281 C 0.00954 0.51101 0.39144 0.0
C3282 C 0.00779 0.48737 0.40363 0.0
H3283 H -0.00099 0.53315 0.36106 0.0
H3284 H 0.01989 0.52717 0.39886 0.0
C3285 C 0.9935 0.46737 0.39327 0.0
C3286 C 0.82513 0.72865 0.62244 0.0
C3287 C 0.83194 0.70264 0.62625 0.0
H3288 H 0.81779 0.7654 0.63805 0.0
C3289 C 0.84007 0.69463 0.64871 0.0
H3290 H 0.81923 0.73535 0.60511 0.0
C3291 C 0.83894 0.71159 0.66752 0.0
C3292 C 0.82986 0.73702 0.66421 0.0
H3293 H 0.84528 0.67465 0.65214 0.0
H3294 H 0.84312 0.70387 0.68487 0.0
C3295 C 0.82427 0.74578 0.64128 0.0
C3296 C 0.69151 0.48919 0.52822 0.0
C3297 C 0.69039 0.51542 0.53489 0.0
H3298 H 0.67085 0.45613 0.51541 0.0
C3299 C 0.6672 0.52795 0.53553 0.0
H3300 H 0.7093 0.47917 0.52774 0.0
C3301 C 0.64564 0.51496 0.52836 0.0
C3302 C 0.64693 0.48928 0.52049 0.0
H3303 H 0.66584 0.54821 0.54025 0.0
H3304 H 0.62793 0.52522 0.52831 0.0
C3305 C 0.66977 0.47609 0.5211 0.0
C3306 C 0.15067 0.97967 0.52548 0.0
C3307 C 0.16144 0.97599 0.54818 0.0
H3308 H 0.11836 0.99049 0.50449 0.0
C3309 C 0.14653 0.98121 0.56751 0.0
H3310 H 0.16096 0.97523 0.51002 0.0
C3311 C 0.12157 0.98917 0.56418 0.0
C3312 C 0.11108 0.99274 0.54149 0.0
H3313 H 0.15403 0.97917 0.58527 0.0
H3314 H 0.11051 0.99263 0.57939 0.0
C3315 C 0.12601 0.98825 0.52222 0.0
C3316 C 0.31105 0.88039 0.7682 0.0
C3317 C 0.33627 0.88162 0.76223 0.0
H3318 H 0.28063 0.85637 0.77803 0.0
C3319 C 0.35057 0.8587 0.76285 0.0
H3320 H 0.29962 0.89773 0.76831 0.0
C3321 C 0.33981 0.83507 0.76875 0.0
C3322 C 0.31443 0.83372 0.77409 0.0
H3323 H 0.36998 0.85886 0.75814 0.0
H3324 H 0.35124 0.81774 0.76839 0.0
C3325 C 0.30025 0.85672 0.77407 0.0
C3326 C 0.42024 0.0188 0.05752 0.0
C3327 C 0.40381 0.01246 0.03867 0.0
H3328 H 0.45809 0.02278 0.06966 0.0
C3329 C 0.4133 0.00078 0.01864 0.0
H3330 H 0.41364 0.02801 0.07317 0.0
C3331 C 0.43903 0.99831 0.01644 0.0
C3332 C 0.45544 0.00738 0.03431 0.0
H3333 H 0.40097 0.99532 0.00404 0.0
H3334 H 0.44602 0.99076 0.00023 0.0
C3335 C 0.44584 0.01624 0.05536 0.0
C3336 C 0.75566 0.64578 0.78897 0.0
C3337 C 0.75359 0.63507 0.76633 0.0
H3338 H 0.76435 0.67933 0.80962 0.0
C3339 C 0.76353 0.64879 0.74755 0.0
H3340 H 0.74894 0.63537 0.80396 0.0
C3341 C 0.77304 0.6737 0.75095 0.0
C3342 C 0.77242 0.68544 0.77311 0.0
H3343 H 0.76225 0.64119 0.72988 0.0
H3344 H 0.77883 0.68451 0.7358 0.0
C3345 C 0.76474 0.67085 0.79229 0.0
C3346 C 0.91799 0.48817 0.02721 0.0
C3347 C 0.9133 0.46504 0.0393 0.0
H3348 H 0.94541 0.51391 0.01397 0.0
C3349 C 0.93366 0.44916 0.04623 0.0
H3350 H 0.90274 0.50087 0.02169 0.0
C3351 C 0.95816 0.45648 0.04157 0.0
C3352 C 0.96288 0.47999 0.03007 0.0
H3353 H 0.93065 0.431 0.05523 0.0
H3354 H 0.97343 0.44406 0.0476 0.0
C3355 C 0.94247 0.49561 0.02275 0.0
C3356 C 0.30683 0.1398 0.76397 0.0
C3357 C 0.32348 0.1352 0.74592 0.0
H3358 H 0.28481 0.16752 0.78197 0.0
C3359 C 0.32906 0.15572 0.73073 0.0
H3360 H 0.30168 0.12435 0.77569 0.0
C3361 C 0.3191 0.18046 0.73415 0.0
C3362 C 0.30346 0.18527 0.75292 0.0
H3363 H 0.34197 0.15299 0.71677 0.0
H3364 H 0.32445 0.19601 0.72262 0.0
C3365 C 0.29701 0.16454 0.76748 0.0
C3366 C 0.24924 0.88437 0.28106 0.0
C3367 C 0.23806 0.89252 0.25965 0.0
H3368 H 0.26882 0.85413 0.2998 0.0
C3369 C 0.23966 0.87653 0.23989 0.0
H3370 H 0.24849 0.89649 0.29649 0.0
C3371 C 0.25117 0.85227 0.24177 0.0
C3372 C 0.26154 0.84367 0.2634 0.0
H3373 H 0.2311 0.88233 0.2232 0.0
H3374 H 0.2513 0.83995 0.22644 0.0
C3375 C 0.26104 0.86023 0.28289 0.0
C3376 C 0.49471 0.39871 0.51842 0.0
C3377 C 0.47885 0.40239 0.49846 0.0
H3378 H 0.51485 0.41745 0.54662 0.0
C3379 C 0.46392 0.42485 0.49704 0.0
H3380 H 0.50548 0.38104 0.52079 0.0
C3381 C 0.46819 0.44504 0.51284 0.0
C3382 C 0.48802 0.44325 0.52952 0.0
H3383 H 0.45119 0.42835 0.48221 0.0
H3384 H 0.45889 0.46342 0.5094 0.0
C3385 C 0.49967 0.41927 0.53364 0.0
C3386 C 0.40062 0.76939 0.2477 0.0
C3387 C 0.40225 0.76956 0.22308 0.0
H3388 H 0.37688 0.77005 0.27733 0.0
C3389 C 0.37975 0.77088 0.20954 0.0
H3390 H 0.41745 0.76863 0.25879 0.0
C3391 C 0.35647 0.77156 0.22018 0.0
C3392 C 0.35481 0.77128 0.24478 0.0
H3393 H 0.38005 0.77077 0.19058 0.0
H3394 H 0.33967 0.77213 0.20903 0.0
C3395 C 0.37729 0.7704 0.25838 0.0
C3396 C 0.00528 0.68105 0.97612 0.0
C3397 C 0.01806 0.68082 0.95507 0.0
H3398 H 0.9935 0.65888 0.00554 0.0
C3399 C 0.02908 0.65789 0.94739 0.0
H3400 H 0.9967 0.6987 0.98225 0.0
C3401 C 0.02676 0.63518 0.96035 0.0
C3402 C 0.01381 0.63534 0.98131 0.0
H3403 H 0.03889 0.65744 0.93112 0.0
H3404 H 0.03519 0.6175 0.9541 0.0
C3405 C 0.00341 0.65845 0.98934 0.0
C3406 C 0.17972 0.26371 0.70866 0.0
C3407 C 0.15892 0.25829 0.72234 0.0
H3408 H 0.21953 0.2676 0.70732 0.0
C3409 C 0.16357 0.25187 0.74613 0.0
H3410 H 0.1772 0.26821 0.6902 0.0
C3411 C 0.18806 0.25123 0.75593 0.0
C3412 C 0.20874 0.25701 0.74228 0.0
H3413 H 0.14822 0.24784 0.7574 0.0
H3414 H 0.19074 0.24654 0.77435 0.0
C3415 C 0.20417 0.26313 0.71847 0.0
C3416 C 0.5408 0.63453 0.06 0.0
C3417 C 0.53342 0.6355 0.08346 0.0
H3418 H 0.54765 0.6109 0.02991 0.0
C3419 C 0.52789 0.61196 0.0946 0.0
H3420 H 0.54503 0.65219 0.05071 0.0
C3421 C 0.52948 0.58829 0.08269 0.0
C3422 C 0.53654 0.58732 0.05917 0.0
H3423 H 0.52255 0.61173 0.11272 0.0
H3424 H 0.52494 0.5707 0.09197 0.0
C3425 C 0.54224 0.6108 0.048 0.0
C3426 C 0.1304 0.85289 0.81709 0.0
C3427 C 0.11045 0.83532 0.8159 0.0
H3428 H 0.16846 0.86017 0.80893 0.0
C3429 C 0.11313 0.81213 0.80339 0.0
H3430 H 0.12872 0.87103 0.82642 0.0
C3431 C 0.13577 0.80583 0.79363 0.0
C3432 C 0.15628 0.82259 0.79606 0.0
H3433 H 0.0983 0.79792 0.8025 0.0
H3434 H 0.13758 0.78698 0.78557 0.0
C3435 C 0.15312 0.84663 0.80716 0.0
C3436 C 0.04438 0.38894 0.55762 0.0
C3437 C 0.04025 0.38837 0.58187 0.0
H3438 H 0.04892 0.41237 0.52686 0.0
C3439 C 0.03887 0.41207 0.59384 0.0
H3440 H 0.04546 0.37105 0.54784 0.0
C3441 C 0.04121 0.43564 0.58194 0.0
C3442 C 0.04469 0.43633 0.55759 0.0
H3443 H 0.03606 0.41241 0.61253 0.0
H3444 H 0.03973 0.45342 0.59185 0.0
C3445 C 0.04635 0.41263 0.54559 0.0
C3446 C 0.35624 0.27405 0.34091 0.0
C3447 C 0.3778 0.27969 0.32865 0.0
H3448 H 0.31707 0.26619 0.33854 0.0
C3449 C 0.37691 0.27944 0.3041 0.0
H3450 H 0.3566 0.27417 0.3599 0.0
C3451 C 0.35446 0.27476 0.2919 0.0
C3452 C 0.33253 0.27051 0.30412 0.0
H3453 H 0.3935 0.28335 0.29437 0.0
H3454 H 0.35416 0.27542 0.27292 0.0
C3455 C 0.33369 0.26955 0.32871 0.0
C3456 C 0.45683 0.51502 0.43122 0.0
C3457 C 0.46957 0.50621 0.41169 0.0
H3458 H 0.45863 0.52319 0.46785 0.0
C3459 C 0.49476 0.49878 0.41451 0.0
H3460 H 0.43748 0.52117 0.42949 0.0
C3461 C 0.50688 0.4998 0.43661 0.0
C3462 C 0.49406 0.50859 0.45615 0.0
H3463 H 0.50494 0.49179 0.39972 0.0
H3464 H 0.52625 0.49375 0.43838 0.0
C3465 C 0.46897 0.5163 0.45317 0.0
C3466 C 0.28799 0.71494 0.12071 0.0
C3467 C 0.26852 0.70146 0.10913 0.0
H3468 H 0.29987 0.73623 0.15115 0.0
C3469 C 0.24519 0.69982 0.1196 0.0
H3470 H 0.3061 0.71662 0.11298 0.0
C3471 C 0.24158 0.71106 0.14149 0.0
C3472 C 0.26114 0.72443 0.15312 0.0
H3473 H 0.22992 0.68932 0.11111 0.0
H3474 H 0.22355 0.70927 0.14934 0.0
C3475 C 0.28432 0.72639 0.14243 0.0
C3476 C 0.07983 0.47646 0.93202 0.0
C3477 C 0.08301 0.49999 0.91988 0.0
H3478 H 0.06625 0.45773 0.96271 0.0
C3479 C 0.07291 0.52272 0.92931 0.0
H3480 H 0.08685 0.45843 0.92518 0.0
C3481 C 0.0604 0.52208 0.95027 0.0
C3482 C 0.0581 0.49884 0.96285 0.0
H3483 H 0.07536 0.54136 0.92104 0.0
H3484 H 0.05353 0.54021 0.95712 0.0
C3485 C 0.06773 0.47594 0.95341 0.0
C3486 C 0.28839 0.36203 0.64016 0.0
C3487 C 0.29368 0.35073 0.61857 0.0
H3488 H 0.2886 0.35739 0.67739 0.0
C3489 C 0.30473 0.32604 0.61811 0.0
H3490 H 0.28006 0.38115 0.64092 0.0
C3491 C 0.30966 0.31247 0.63892 0.0
C3492 C 0.30388 0.32356 0.66048 0.0
H3493 H 0.30885 0.31691 0.60161 0.0
H3494 H 0.31757 0.29317 0.63816 0.0
C3495 C 0.29357 0.34859 0.66097 0.0
C3496 C 0.48319 0.51009 0.17659 0.0
C3497 C 0.47011 0.48925 0.18602 0.0
H3498 H 0.50402 0.52426 0.1481 0.0
C3499 C 0.46913 0.46562 0.17381 0.0
H3500 H 0.48438 0.52844 0.18571 0.0
C3501 C 0.48042 0.46318 0.15218 0.0
C3502 C 0.49317 0.48421 0.14261 0.0
H3503 H 0.45901 0.44931 0.18065 0.0
H3504 H 0.47903 0.44495 0.14288 0.0
C3505 C 0.49465 0.50758 0.15517 0.0
C3506 C 0.30498 0.71585 0.87638 0.0
C3507 C 0.28259 0.71291 0.88821 0.0
H3508 H 0.32264 0.73053 0.84606 0.0
C3509 C 0.26088 0.72531 0.87918 0.0
H3510 H 0.32199 0.70644 0.88283 0.0
C3511 C 0.2613 0.73938 0.85821 0.0
C3512 C 0.28337 0.74105 0.84568 0.0
H3513 H 0.24343 0.72367 0.88809 0.0
H3514 H 0.24402 0.74783 0.85125 0.0
C3515 C 0.30533 0.72964 0.85529 0.0
C3516 C 0.07173 0.50847 0.6837 0.0
C3517 C 0.08333 0.52914 0.6956 0.0
H3518 H 0.05378 0.49518 0.65213 0.0
C3519 C 0.08369 0.55364 0.6848 0.0
H3520 H 0.07155 0.48928 0.6914 0.0
C3521 C 0.07325 0.55717 0.6622 0.0
C3522 C 0.06231 0.53624 0.65 0.0
H3523 H 0.09231 0.57 0.69372 0.0
H3524 H 0.074 0.57618 0.6542 0.0
C3525 C 0.06145 0.51193 0.66116 0.0
C3526 C 0.22894 0.29118 0.41752 0.0
C3527 C 0.21355 0.31278 0.42079 0.0
H3528 H 0.2409 0.26256 0.39392 0.0
C3529 C 0.19284 0.31686 0.40547 0.0
H3530 H 0.24461 0.28721 0.42956 0.0
C3531 C 0.19009 0.30209 0.38507 0.0
C3532 C 0.20843 0.28364 0.37957 0.0
H3533 H 0.18035 0.33311 0.40791 0.0
H3534 H 0.17512 0.30699 0.37258 0.0
C3535 C 0.22654 0.27681 0.39702 0.0
C3536 C 0.39066 0.50862 0.48949 0.0
C3537 C 0.37305 0.49772 0.50406 0.0
H3538 H 0.42148 0.53411 0.48707 0.0
C3539 C 0.36966 0.50853 0.52635 0.0
H3540 H 0.39344 0.50094 0.47213 0.0
C3541 C 0.38571 0.52773 0.535 0.0
C3542 C 0.40542 0.53636 0.52149 0.0
H3543 H 0.35548 0.50115 0.53762 0.0
H3544 H 0.38403 0.53419 0.55291 0.0
C3545 C 0.40661 0.5279 0.49808 0.0
C3546 C 0.91747 0.04107 0.53007 0.0
C3547 C 0.90851 0.04957 0.50783 0.0
H3548 H 0.9481 0.02524 0.5507 0.0
C3549 C 0.92438 0.0472 0.48879 0.0
H3550 H 0.90616 0.04293 0.54531 0.0
C3551 C 0.94873 0.03756 0.49206 0.0
C3552 C 0.95771 0.02958 0.51437 0.0
H3553 H 0.9181 0.05291 0.47129 0.0
H3554 H 0.9606 0.03654 0.47712 0.0
C3555 C 0.94166 0.031 0.53324 0.0
C3556 C 0.70498 0.16483 0.28398 0.0
C3557 C 0.71938 0.14201 0.28499 0.0
H3558 H 0.70427 0.20572 0.27799 0.0
C3559 C 0.74453 0.1431 0.27883 0.0
H3560 H 0.68557 0.16467 0.28873 0.0
C3561 C 0.75526 0.16666 0.27256 0.0
C3562 C 0.74108 0.18965 0.27244 0.0
H3563 H 0.75598 0.12576 0.27899 0.0
H3564 H 0.77488 0.16696 0.26859 0.0
C3565 C 0.7157 0.18838 0.2778 0.0
C3566 C 0.64373 0.00843 0.99061 0.0
C3567 C 0.6608 0.01467 0.00901 0.0
H3568 H 0.6056 0.00405 0.97961 0.0
C3569 C 0.65183 0.02577 0.02956 0.0
H3570 H 0.64977 -0.00035 0.97456 0.0
C3571 C 0.62617 0.02767 0.03268 0.0
C3572 C 0.60927 0.01868 0.01519 0.0
H3573 H 0.66459 0.03122 0.04385 0.0
H3574 H 0.61966 0.03476 0.04924 0.0
C3575 C 0.61823 0.01046 0.99367 0.0
C3576 C 0.30279 0.38666 0.25615 0.0
C3577 C 0.30139 0.39875 0.27802 0.0
H3578 H 0.29261 0.35406 0.23509 0.0
C3579 C 0.2854 0.38874 0.2947 0.0
H3580 H 0.31477 0.39436 0.24292 0.0
C3581 C 0.27275 0.36549 0.29034 0.0
C3582 C 0.27587 0.35217 0.26916 0.0
H3583 H 0.28404 0.3979 0.31167 0.0
H3584 H 0.26191 0.35717 0.30411 0.0
C3585 C 0.29001 0.36367 0.25168 0.0
C3586 C 0.15416 0.53425 0.02882 0.0
C3587 C 0.15704 0.56031 0.02224 0.0
H3588 H 0.129 0.50446 0.03913 0.0
C3589 C 0.13604 0.57677 0.02228 0.0
H3590 H 0.17001 0.52115 0.02933 0.0
C3591 C 0.11269 0.56735 0.0282 0.0
C3592 C 0.10963 0.54115 0.03415 0.0
H3593 H 0.13745 0.59687 0.01706 0.0
H3594 H 0.09686 0.58048 0.02735 0.0
C3595 C 0.13071 0.52478 0.03474 0.0
C3596 C 0.7504 0.88525 0.27847 0.0
C3597 C 0.74225 0.89236 0.30074 0.0
H3598 H 0.76612 0.85569 0.25725 0.0
C3599 C 0.74567 0.8747 0.3194 0.0
H3600 H 0.7478 0.89811 0.26357 0.0
C3601 C 0.75577 0.85012 0.31564 0.0
C3602 C 0.763 0.84276 0.29319 0.0
H3603 H 0.74015 0.87966 0.3369 0.0
H3604 H 0.75748 0.83672 0.33024 0.0
C3605 C 0.7608 0.86081 0.27478 0.0
C3606 C 0.82214 0.1528 0.8096 0.0
C3607 C 0.82358 0.1365 0.78994 0.0
H3608 H 0.81164 0.19001 0.82272 0.0
C3609 C 0.81399 0.14558 0.76815 0.0
H3610 H 0.82886 0.14635 0.82676 0.0
C3611 C 0.80357 0.17031 0.766 0.0
C3612 C 0.80284 0.18681 0.78548 0.0
H3613 H 0.81515 0.13391 0.7525 0.0
H3614 H 0.79687 0.1768 0.74883 0.0
C3615 C 0.81204 0.17775 0.80736 0.0
loop_
_geom_bond_atom_site_label_1
_geom_bond_atom_site_label_2
_geom_bond_distance
_geom_bond_site_symmetry_2
_ccdc_geom_bond_type
Li0 N17 1.990 . S
Li0 O60 1.956 . S
Li0 O61 1.970 . S
Li0 O62 1.961 . S
Li1 N25 1.990 . S
Li1 O60 1.970 . S
Li1 O61 1.956 . S
Li1 O63 1.961 . S
Li2 N47 1.990 . S
Li2 O60 1.961 . S
Li2 O62 1.956 . S
Li2 O63 1.970 . S
Li3 N53 1.990 . S
Li3 O61 1.961 . S
Li3 O62 1.970 . S
Li3 O63 1.956 . S
C4 C6 1.348 . S
C4 C7 1.356 . S
C4 O60 1.325 . S
N5 C8 1.314 . S
N5 C9 1.279 . S
C6 C4 1.348 . S
C6 C8 1.353 . S
C6 H64 0.929 . S
C7 C4 1.356 . S
C7 C9 1.358 . S
C7 H65 0.930 . S
C8 N5 1.314 . S
C8 C6 1.353 . S
C8 H66 0.930 . S
C9 N5 1.279 . S
C9 C7 1.358 . S
C9 H67 0.930 . S
C10 C13 1.348 . S
C10 C14 1.356 . S
C10 O61 1.325 . S
C11 N12 1.279 . S
C11 C14 1.358 . S
C11 H68 0.930 . S
N12 C11 1.279 . S
N12 C15 1.314 . S
C13 C10 1.348 . S
C13 C15 1.353 . S
C13 H69 0.929 . S
C14 C10 1.356 . S
C14 C11 1.358 . S
C14 H70 0.930 . S
C15 N12 1.314 . S
C15 C13 1.353 . S
C15 H71 0.930 . S
C16 N17 1.314 . S
C16 C21 1.353 . S
C16 H22 0.930 . S
N17 Li0 1.990 . S
N17 C16 1.314 . S
N17 C19 1.279 . S
C18 C19 1.358 . S
C18 C20 1.356 . S
C18 H72 0.930 . S
C19 N17 1.279 . S
C19 C18 1.358 . S
C19 H23 0.930 . S
C20 C18 1.356 . S
C20 C21 1.348 . S
C21 C16 1.353 . S
C21 C20 1.348 . S
C21 H73 0.929 . S
H22 C16 0.930 . S
H23 C19 0.930 . S
C24 N25 1.314 . S
C24 C26 1.353 . S
C24 H30 0.930 . S
N25 Li1 1.990 . S
N25 C24 1.314 . S
N25 C28 1.279 . S
C26 C24 1.353 . S
C26 C29 1.348 . S
C26 H74 0.929 . S
C27 C28 1.358 . S
C27 C29 1.356 . S
C27 H75 0.930 . S
C28 N25 1.279 . S
C28 C27 1.358 . S
C28 H31 0.930 . S
C29 C26 1.348 . S
C29 C27 1.356 . S
H30 C24 0.930 . S
H31 C28 0.930 . S
C32 C34 1.348 1_455 S
C32 C35 1.356 . S
C32 O62 1.325 . S
N33 C36 1.314 . S
N33 C37 1.279 . S
C34 C32 1.348 1_655 S
C34 C36 1.353 . S
C34 H76 0.929 . S
C35 C32 1.356 . S
C35 C37 1.358 1_455 S
C35 H77 0.930 . S
C36 N33 1.314 . S
C36 C34 1.353 . S
C36 H78 0.930 . S
C37 N33 1.279 . S
C37 C35 1.358 1_655 S
C37 H79 0.930 . S
C38 C39 1.348 . S
C38 C40 1.356 . S
C38 O63 1.325 . S
C39 C38 1.348 . S
C39 C41 1.353 . S
C39 H80 0.929 . S
C40 C38 1.356 . S
C40 C42 1.358 . S
C40 H81 0.930 . S
C41 C39 1.353 . S
C41 N43 1.314 . S
C41 H82 0.930 . S
C42 C40 1.358 . S
C42 N43 1.279 . S
C42 H83 0.930 . S
N43 C41 1.314 . S
N43 C42 1.279 . S
C44 C46 1.353 . S
C44 N47 1.314 . S
C44 H50 0.930 . S
C45 N47 1.279 . S
C45 C48 1.358 . S
C45 H51 0.930 . S
C46 C44 1.353 . S
C46 C49 1.348 . S
C46 H84 0.929 . S
N47 Li2 1.990 . S
N47 C44 1.314 . S
N47 C45 1.279 . S
C48 C45 1.358 . S
C48 C49 1.356 . S
C48 H85 0.930 . S
C49 C46 1.348 . S
C49 C48 1.356 . S
H50 C44 0.930 . S
H51 C45 0.930 . S
C52 N53 1.314 1_655 S
C52 C54 1.353 . S
C52 H58 0.930 1_655 S
N53 Li3 1.990 . S
N53 C52 1.314 1_455 S
N53 C56 1.279 . S
C54 C52 1.353 . S
C54 C57 1.348 . S
C54 H86 0.929 . S
C55 C56 1.358 1_655 S
C55 C57 1.356 . S
C55 H87 0.930 . S
C56 N53 1.279 . S
C56 C55 1.358 1_455 S
C56 H59 0.930 . S
C57 C54 1.348 . S
C57 C55 1.356 . S
H58 C52 0.930 1_455 S
H59 C56 0.930 . S
O60 Li0 1.956 . S
O60 Li1 1.970 . S
O60 Li2 1.961 . S
O60 C4 1.325 . S
O61 Li0 1.970 . S
O61 Li1 1.956 . S
O61 Li3 1.961 . S
O61 C10 1.325 . S
O62 Li0 1.961 . S
O62 Li2 1.956 . S
O62 Li3 1.970 . S
O62 C32 1.325 . S
O63 Li1 1.961 . S
O63 Li2 1.970 . S
O63 Li3 1.956 . S
O63 C38 1.325 . S
H64 C6 0.929 . S
H65 C7 0.930 . S
H66 C8 0.930 . S
H67 C9 0.930 . S
H68 C11 0.930 . S
H69 C13 0.929 . S
H70 C14 0.930 . S
H71 C15 0.930 . S
H72 C18 0.930 . S
H73 C21 0.929 . S
H74 C26 0.929 . S
H75 C27 0.930 . S
H76 C34 0.929 . S
H77 C35 0.930 . S
H78 C36 0.930 . S
H79 C37 0.930 . S
H80 C39 0.929 . S
H81 C40 0.930 . S
H82 C41 0.930 . S
H83 C42 0.930 . S
H84 C46 0.929 . S
H85 C48 0.930 . S
H86 C54 0.929 . S
H87 C55 0.930 . S
Li88 N105 1.990 1_455 S
Li88 O148 1.956 . S
Li88 O149 1.970 . S
Li88 O150 1.961 . S
Li89 N113 1.990 . S
Li89 O148 1.970 . S
Li89 O149 1.956 . S
Li89 O151 1.961 . S
Li90 N135 1.990 . S
Li90 O148 1.961 . S
Li90 O150 1.956 . S
Li90 O151 1.970 . S
Li91 N141 1.990 . S
Li91 O149 1.961 . S
Li91 O150 1.970 . S
Li91 O151 1.956 . S
C92 C94 1.348 . S
C92 C95 1.356 . S
C92 O148 1.325 . S
N93 C96 1.314 . S
N93 C97 1.279 . S
C94 C92 1.348 . S
C94 C96 1.353 . S
C94 H152 0.929 . S
C95 C92 1.356 . S
C95 C97 1.358 . S
C95 H153 0.930 . S
C96 N93 1.314 . S
C96 C94 1.353 . S
C96 H154 0.930 . S
C97 N93 1.279 . S
C97 C95 1.358 . S
C97 H155 0.930 . S
C98 C101 1.348 . S
C98 C102 1.356 . S
C98 O149 1.325 1_655 S
C99 N100 1.279 . S
C99 C102 1.358 . S
C99 H156 0.930 . S
N100 C99 1.279 . S
N100 C103 1.314 . S
C101 C98 1.348 . S
C101 C103 1.353 . S
C101 H157 0.929 . S
C102 C98 1.356 . S
C102 C99 1.358 . S
C102 H158 0.930 1_655 S
C103 N100 1.314 . S
C103 C101 1.353 . S
C103 H159 0.930 . S
C104 N105 1.314 . S
C104 C109 1.353 . S
C104 H110 0.930 . S
N105 Li88 1.990 1_655 S
N105 C104 1.314 . S
N105 C107 1.279 . S
C106 C107 1.358 . S
C106 C108 1.356 . S
C106 H160 0.930 . S
C107 N105 1.279 . S
C107 C106 1.358 . S
C107 H111 0.930 . S
C108 C106 1.356 . S
C108 C109 1.348 . S
C109 C104 1.353 . S
C109 C108 1.348 . S
C109 H161 0.929 . S
H110 C104 0.930 . S
H111 C107 0.930 . S
C112 N113 1.314 . S
C112 C114 1.353 . S
C112 H118 0.930 . S
N113 Li89 1.990 . S
N113 C112 1.314 . S
N113 C116 1.279 . S
C114 C112 1.353 . S
C114 C117 1.348 . S
C114 H162 0.929 . S
C115 C116 1.358 . S
C115 C117 1.356 . S
C115 H163 0.930 1_455 S
C116 N113 1.279 . S
C116 C115 1.358 . S
C116 H119 0.930 1_455 S
C117 C114 1.348 . S
C117 C115 1.356 . S
H118 C112 0.930 . S
H119 C116 0.930 1_655 S
C120 C122 1.348 . S
C120 C123 1.356 . S
C120 O150 1.325 . S
N121 C124 1.314 . S
N121 C125 1.279 . S
C122 C120 1.348 . S
C122 C124 1.353 . S
C122 H164 0.929 . S
C123 C120 1.356 . S
C123 C125 1.358 . S
C123 H165 0.930 . S
C124 N121 1.314 . S
C124 C122 1.353 . S
C124 H166 0.930 . S
C125 N121 1.279 . S
C125 C123 1.358 . S
C125 H167 0.930 . S
C126 C127 1.348 . S
C126 C128 1.356 . S
C126 O151 1.325 . S
C127 C126 1.348 . S
C127 C129 1.353 . S
C127 H168 0.929 . S
C128 C126 1.356 . S
C128 C130 1.358 . S
C128 H169 0.930 . S
C129 C127 1.353 . S
C129 N131 1.314 . S
C129 H170 0.930 . S
C130 C128 1.358 . S
C130 N131 1.279 . S
C130 H171 0.930 . S
N131 C129 1.314 . S
N131 C130 1.279 . S
C132 C134 1.353 . S
C132 N135 1.314 . S
C132 H138 0.930 . S
C133 N135 1.279 . S
C133 C136 1.358 . S
C133 H139 0.930 . S
C134 C132 1.353 . S
C134 C137 1.348 . S
C134 H172 0.929 . S
N135 Li90 1.990 . S
N135 C132 1.314 . S
N135 C133 1.279 . S
C136 C133 1.358 . S
C136 C137 1.356 . S
C136 H173 0.930 . S
C137 C134 1.348 . S
C137 C136 1.356 . S
H138 C132 0.930 . S
H139 C133 0.930 . S
C140 N141 1.314 . S
C140 C142 1.353 . S
C140 H146 0.919 1_455 S
N141 Li91 1.990 . S
N141 C140 1.314 . S
N141 C144 1.279 . S
C142 C140 1.353 . S
C142 C145 1.348 . S
C142 H174 0.929 1_455 S
C143 C144 1.358 . S
C143 C145 1.356 . S
C143 H175 0.930 . S
C144 N141 1.279 . S
C144 C143 1.358 . S
C144 H147 0.930 . S
C145 C142 1.348 . S
C145 C143 1.356 . S
H146 C140 0.919 1_655 S
H147 C144 0.930 . S
O148 Li88 1.956 . S
O148 Li89 1.970 . S
O148 Li90 1.961 . S
O148 C92 1.325 . S
O149 Li88 1.970 . S
O149 Li89 1.956 . S
O149 Li91 1.961 . S
O149 C98 1.325 1_455 S
O150 Li88 1.961 . S
O150 Li90 1.956 . S
O150 Li91 1.970 . S
O150 C120 1.325 . S
O151 Li89 1.961 . S
O151 Li90 1.970 . S
O151 Li91 1.956 . S
O151 C126 1.325 . S
H152 C94 0.929 . S
H153 C95 0.930 . S
H154 C96 0.930 . S
H155 C97 0.930 . S
H156 C99 0.930 . S
H157 C101 0.929 . S
H158 C102 0.930 1_455 S
H159 C103 0.930 . S
H160 C106 0.930 . S
H161 C109 0.929 . S
H162 C114 0.929 . S
H163 C115 0.930 1_655 S
H164 C122 0.929 . S
H165 C123 0.930 . S
H166 C124 0.930 . S
H167 C125 0.930 . S
H168 C127 0.929 . S
H169 C128 0.930 . S
H170 C129 0.930 . S
H171 C130 0.930 . S
H172 C134 0.929 . S
H173 C136 0.930 . S
H174 C142 0.929 1_655 S
H175 C143 0.930 . S
Li176 N193 1.990 . S
Li176 O236 1.956 . S
Li176 O237 1.970 . S
Li176 O238 1.961 . S
Li177 N201 1.990 . S
Li177 O236 1.970 . S
Li177 O237 1.956 . S
Li177 O239 1.961 . S
Li178 N223 1.990 . S
Li178 O236 1.961 . S
Li178 O238 1.956 . S
Li178 O239 1.970 . S
Li179 N229 1.990 . S
Li179 O237 1.961 . S
Li179 O238 1.970 . S
Li179 O239 1.956 . S
C180 C182 1.348 . S
C180 C183 1.356 . S
C180 O236 1.325 . S
N181 C184 1.314 . S
N181 C185 1.279 . S
C182 C180 1.348 . S
C182 C184 1.353 . S
C182 H240 0.929 . S
C183 C180 1.356 . S
C183 C185 1.358 . S
C183 H241 0.930 . S
C184 N181 1.314 . S
C184 C182 1.353 . S
C184 H242 0.930 . S
C185 N181 1.279 . S
C185 C183 1.358 . S
C185 H243 0.930 . S
C186 C189 1.348 . S
C186 C190 1.356 . S
C186 O237 1.325 . S
C187 N188 1.279 . S
C187 C190 1.358 . S
C187 H244 0.930 . S
N188 C187 1.279 . S
N188 C191 1.314 . S
C189 C186 1.348 . S
C189 C191 1.353 . S
C189 H245 0.929 . S
C190 C186 1.356 . S
C190 C187 1.358 . S
C190 H246 0.930 . S
C191 N188 1.314 . S
C191 C189 1.353 . S
C191 H247 0.930 . S
C192 N193 1.314 . S
C192 C197 1.353 . S
C192 H198 0.930 . S
N193 Li176 1.990 . S
N193 C192 1.314 . S
N193 C195 1.279 . S
C194 C195 1.358 . S
C194 C196 1.356 . S
C194 H248 0.930 . S
C195 N193 1.279 . S
C195 C194 1.358 . S
C195 H199 0.930 . S
C196 C194 1.356 . S
C196 C197 1.348 . S
C197 C192 1.353 . S
C197 C196 1.348 . S
C197 H249 0.929 . S
H198 C192 0.930 . S
H199 C195 0.930 . S
C200 N201 1.314 . S
C200 C202 1.353 . S
C200 H206 0.930 . S
N201 Li177 1.990 . S
N201 C200 1.314 . S
N201 C204 1.279 . S
C202 C200 1.353 . S
C202 C205 1.348 . S
C202 H250 0.929 . S
C203 C204 1.358 . S
C203 C205 1.356 . S
C203 H251 0.930 . S
C204 N201 1.279 . S
C204 C203 1.358 . S
C204 H207 0.930 . S
C205 C202 1.348 . S
C205 C203 1.356 . S
H206 C200 0.930 . S
H207 C204 0.930 . S
C208 C210 1.348 . S
C208 C211 1.356 . S
C208 O238 1.325 . S
N209 C212 1.314 . S
N209 C213 1.279 . S
C210 C208 1.348 . S
C210 C212 1.353 . S
C210 H252 0.929 . S
C211 C208 1.356 . S
C211 C213 1.358 . S
C211 H253 0.930 . S
C212 N209 1.314 . S
C212 C210 1.353 . S
C212 H254 0.930 . S
C213 N209 1.279 . S
C213 C211 1.358 . S
C213 H255 0.930 . S
C214 C215 1.348 . S
C214 C216 1.356 . S
C214 O239 1.325 . S
C215 C214 1.348 . S
C215 C217 1.353 . S
C215 H256 0.929 . S
C216 C214 1.356 . S
C216 C218 1.358 . S
C216 H257 0.930 . S
C217 C215 1.353 . S
C217 N219 1.314 . S
C217 H258 0.930 . S
C218 C216 1.358 . S
C218 N219 1.279 . S
C218 H259 0.930 . S
N219 C217 1.314 . S
N219 C218 1.279 . S
C220 C222 1.353 . S
C220 N223 1.314 . S
C220 H226 0.930 . S
C221 N223 1.279 . S
C221 C224 1.358 . S
C221 H227 0.930 . S
C222 C220 1.353 . S
C222 C225 1.348 . S
C222 H260 0.929 . S
N223 Li178 1.990 . S
N223 C220 1.314 . S
N223 C221 1.279 . S
C224 C221 1.358 . S
C224 C225 1.356 . S
C224 H261 0.930 . S
C225 C222 1.348 . S
C225 C224 1.356 . S
H226 C220 0.930 . S
H227 C221 0.930 . S
C228 N229 1.314 . S
C228 C230 1.353 . S
C228 H234 0.930 . S
N229 Li179 1.990 . S
N229 C228 1.314 . S
N229 C232 1.279 . S
C230 C228 1.353 . S
C230 C233 1.348 . S
C230 H262 0.929 . S
C231 C232 1.358 . S
C231 C233 1.356 . S
C231 H263 0.930 . S
C232 N229 1.279 . S
C232 C231 1.358 . S
C232 H235 0.930 . S
C233 C230 1.348 . S
C233 C231 1.356 . S
H234 C228 0.930 . S
H235 C232 0.930 . S
O236 Li176 1.956 . S
O236 Li177 1.970 . S
O236 Li178 1.961 . S
O236 C180 1.325 . S
O237 Li176 1.970 . S
O237 Li177 1.956 . S
O237 Li179 1.961 . S
O237 C186 1.325 . S
O238 Li176 1.961 . S
O238 Li178 1.956 . S
O238 Li179 1.970 . S
O238 C208 1.325 . S
O239 Li177 1.961 . S
O239 Li178 1.970 . S
O239 Li179 1.956 . S
O239 C214 1.325 . S
H240 C182 0.929 . S
H241 C183 0.930 . S
H242 C184 0.930 . S
H243 C185 0.930 . S
H244 C187 0.930 . S
H245 C189 0.929 . S
H246 C190 0.930 . S
H247 C191 0.930 . S
H248 C194 0.930 . S
H249 C197 0.929 . S
H250 C202 0.929 . S
H251 C203 0.930 . S
H252 C210 0.929 . S
H253 C211 0.930 . S
H254 C212 0.930 . S
H255 C213 0.930 . S
H256 C215 0.929 . S
H257 C216 0.930 . S
H258 C217 0.930 . S
H259 C218 0.930 . S
H260 C222 0.929 . S
H261 C224 0.930 . S
H262 C230 0.929 . S
H263 C231 0.930 . S
Li264 N281 1.990 . S
Li264 O324 1.956 . S
Li264 O325 1.970 . S
Li264 O326 1.961 . S
Li265 N289 1.990 . S
Li265 O324 1.970 . S
Li265 O325 1.956 . S
Li265 O327 1.961 . S
Li266 N311 1.990 . S
Li266 O324 1.961 . S
Li266 O326 1.956 . S
Li266 O327 1.970 . S
Li267 N317 1.990 . S
Li267 O325 1.961 . S
Li267 O326 1.970 . S
Li267 O327 1.956 . S
C268 C270 1.348 . S
C268 C271 1.356 . S
C268 O324 1.325 . S
N269 C272 1.314 . S
N269 C273 1.279 . S
C270 C268 1.348 . S
C270 C272 1.353 . S
C270 H328 0.929 . S
C271 C268 1.356 . S
C271 C273 1.358 . S
C271 H329 0.930 . S
C272 N269 1.314 . S
C272 C270 1.353 . S
C272 H330 0.930 . S
C273 N269 1.279 . S
C273 C271 1.358 . S
C273 H331 0.930 . S
C274 C277 1.348 . S
C274 C278 1.356 . S
C274 O325 1.325 . S
C275 N276 1.279 . S
C275 C278 1.358 . S
C275 H332 0.930 . S
N276 C275 1.279 . S
N276 C279 1.314 . S
C277 C274 1.348 . S
C277 C279 1.353 . S
C277 H333 0.929 . S
C278 C274 1.356 . S
C278 C275 1.358 . S
C278 H334 0.930 . S
C279 N276 1.314 . S
C279 C277 1.353 . S
C279 H335 0.930 . S
C280 N281 1.314 . S
C280 C285 1.353 . S
C280 H286 0.930 . S
N281 Li264 1.990 . S
N281 C280 1.314 . S
N281 C283 1.279 . S
C282 C283 1.358 . S
C282 C284 1.356 . S
C282 H336 0.930 . S
C283 N281 1.279 . S
C283 C282 1.358 . S
C283 H287 0.930 . S
C284 C282 1.356 . S
C284 C285 1.348 . S
C285 C280 1.353 . S
C285 C284 1.348 . S
C285 H337 0.929 . S
H286 C280 0.930 . S
H287 C283 0.930 . S
C288 N289 1.314 . S
C288 C290 1.353 . S
C288 H294 0.930 . S
N289 Li265 1.990 . S
N289 C288 1.314 . S
N289 C292 1.279 . S
C290 C288 1.353 . S
C290 C293 1.348 . S
C290 H338 0.929 . S
C291 C292 1.358 . S
C291 C293 1.356 . S
C291 H339 0.930 . S
C292 N289 1.279 . S
C292 C291 1.358 . S
C292 H295 0.930 . S
C293 C290 1.348 . S
C293 C291 1.356 . S
H294 C288 0.930 . S
H295 C292 0.930 . S
C296 C298 1.348 . S
C296 C299 1.356 . S
C296 O326 1.325 . S
N297 C300 1.314 . S
N297 C301 1.279 . S
C298 C296 1.348 . S
C298 C300 1.353 . S
C298 H340 0.929 . S
C299 C296 1.356 . S
C299 C301 1.358 . S
C299 H341 0.930 . S
C300 N297 1.314 . S
C300 C298 1.353 . S
C300 H342 0.930 . S
C301 N297 1.279 . S
C301 C299 1.358 . S
C301 H343 0.930 . S
C302 C303 1.348 . S
C302 C304 1.356 . S
C302 O327 1.325 . S
C303 C302 1.348 . S
C303 C305 1.353 . S
C303 H344 0.929 . S
C304 C302 1.356 . S
C304 C306 1.358 . S
C304 H345 0.930 . S
C305 C303 1.353 . S
C305 N307 1.314 . S
C305 H346 0.930 . S
C306 C304 1.358 . S
C306 N307 1.279 . S
C306 H347 0.930 . S
N307 C305 1.314 . S
N307 C306 1.279 . S
C308 C310 1.353 . S
C308 N311 1.314 . S
C308 H314 0.930 . S
C309 N311 1.279 . S
C309 C312 1.358 . S
C309 H315 0.930 . S
C310 C308 1.353 . S
C310 C313 1.348 . S
C310 H348 0.929 . S
N311 Li266 1.990 . S
N311 C308 1.314 . S
N311 C309 1.279 . S
C312 C309 1.358 . S
C312 C313 1.356 . S
C312 H349 0.930 . S
C313 C310 1.348 . S
C313 C312 1.356 . S
H314 C308 0.930 . S
H315 C309 0.930 . S
C316 N317 1.314 . S
C316 C318 1.353 . S
C316 H322 0.930 . S
N317 Li267 1.990 . S
N317 C316 1.314 . S
N317 C320 1.279 . S
C318 C316 1.353 . S
C318 C321 1.348 . S
C318 H350 0.929 . S
C319 C320 1.358 . S
C319 C321 1.356 . S
C319 H351 0.930 . S
C320 N317 1.279 . S
C320 C319 1.358 . S
C320 H323 0.930 . S
C321 C318 1.348 . S
C321 C319 1.356 . S
H322 C316 0.930 . S
H323 C320 0.930 . S
O324 Li264 1.956 . S
O324 Li265 1.970 . S
O324 Li266 1.961 . S
O324 C268 1.325 . S
O325 Li264 1.970 . S
O325 Li265 1.956 . S
O325 Li267 1.961 . S
O325 C274 1.325 . S
O326 Li264 1.961 . S
O326 Li266 1.956 . S
O326 Li267 1.970 . S
O326 C296 1.325 . S
O327 Li265 1.961 . S
O327 Li266 1.970 . S
O327 Li267 1.956 . S
O327 C302 1.325 . S
H328 C270 0.929 . S
H329 C271 0.930 . S
H330 C272 0.930 . S
H331 C273 0.930 . S
H332 C275 0.930 . S
H333 C277 0.929 . S
H334 C278 0.930 . S
H335 C279 0.930 . S
H336 C282 0.930 . S
H337 C285 0.929 . S
H338 C290 0.929 . S
H339 C291 0.930 . S
H340 C298 0.929 . S
H341 C299 0.930 . S
H342 C300 0.930 . S
H343 C301 0.930 . S
H344 C303 0.929 . S
H345 C304 0.930 . S
H346 C305 0.930 . S
H347 C306 0.930 . S
H348 C310 0.929 . S
H349 C312 0.930 . S
H350 C318 0.929 . S
H351 C319 0.930 . S
Li352 N369 1.990 . S
Li352 O412 1.956 . S
Li352 O413 1.970 . S
Li352 O414 1.961 1_545 S
Li353 N377 1.990 . S
Li353 O412 1.970 . S
Li353 O413 1.956 . S
Li353 O415 1.961 . S
Li354 N399 1.990 . S
Li354 O412 1.961 . S
Li354 O414 1.956 1_545 S
Li354 O415 1.970 . S
Li355 N405 1.990 . S
Li355 O413 1.961 1_565 S
Li355 O414 1.970 . S
Li355 O415 1.956 1_565 S
C356 C358 1.348 . S
C356 C359 1.356 . S
C356 O412 1.325 . S
N357 C360 1.314 . S
N357 C361 1.279 . S
C358 C356 1.348 . S
C358 C360 1.353 . S
C358 H416 0.929 . S
C359 C356 1.356 . S
C359 C361 1.358 . S
C359 H417 0.930 . S
C360 N357 1.314 . S
C360 C358 1.353 . S
C360 H418 0.930 . S
C361 N357 1.279 . S
C361 C359 1.358 . S
C361 H419 0.930 . S
C362 C365 1.348 . S
C362 C366 1.356 . S
C362 O413 1.325 . S
C363 N364 1.279 . S
C363 C366 1.358 . S
C363 H420 0.930 . S
N364 C363 1.279 . S
N364 C367 1.314 . S
C365 C362 1.348 . S
C365 C367 1.353 . S
C365 H421 0.929 . S
C366 C362 1.356 . S
C366 C363 1.358 . S
C366 H422 0.930 . S
C367 N364 1.314 . S
C367 C365 1.353 . S
C367 H423 0.930 . S
C368 N369 1.319 . S
C368 C373 1.353 1_545 S
C368 H374 0.924 1_545 S
N369 Li352 1.990 . S
N369 C368 1.319 . S
N369 C371 1.279 . S
C370 C371 1.358 . S
C370 C372 1.356 . S
C370 H424 0.930 . S
C371 N369 1.279 . S
C371 C370 1.358 . S
C371 H375 0.930 . S
C372 C370 1.356 . S
C372 C373 1.348 1_545 S
C373 C368 1.353 1_565 S
C373 C372 1.348 1_565 S
C373 H425 0.929 . S
H374 C368 0.924 1_565 S
H375 C371 0.930 . S
C376 N377 1.314 . S
C376 C378 1.353 . S
C376 H382 0.930 . S
N377 Li353 1.990 . S
N377 C376 1.314 . S
N377 C380 1.279 . S
C378 C376 1.353 . S
C378 C381 1.348 . S
C378 H426 0.929 . S
C379 C380 1.358 . S
C379 C381 1.356 . S
C379 H427 0.930 . S
C380 N377 1.279 . S
C380 C379 1.358 . S
C380 H383 0.930 . S
C381 C378 1.348 . S
C381 C379 1.356 . S
H382 C376 0.930 . S
H383 C380 0.930 . S
C384 C386 1.348 . S
C384 C387 1.356 . S
C384 O414 1.325 . S
N385 C388 1.314 . S
N385 C389 1.279 . S
C386 C384 1.348 . S
C386 C388 1.353 . S
C386 H428 0.929 . S
C387 C384 1.356 . S
C387 C389 1.358 . S
C387 H429 0.930 . S
C388 N385 1.314 . S
C388 C386 1.353 . S
C388 H430 0.930 . S
C389 N385 1.279 . S
C389 C387 1.358 . S
C389 H431 0.930 . S
C390 C391 1.348 . S
C390 C392 1.356 . S
C390 O415 1.325 . S
C391 C390 1.348 . S
C391 C393 1.353 . S
C391 H432 0.929 . S
C392 C390 1.356 . S
C392 C394 1.358 . S
C392 H433 0.930 . S
C393 C391 1.353 . S
C393 N395 1.314 . S
C393 H434 0.930 . S
C394 C392 1.358 . S
C394 N395 1.279 . S
C394 H435 0.930 . S
N395 C393 1.314 . S
N395 C394 1.279 . S
C396 C398 1.353 . S
C396 N399 1.314 . S
C396 H402 0.930 . S
C397 N399 1.279 1_565 S
C397 C400 1.358 . S
C397 H403 0.930 . S
C398 C396 1.353 . S
C398 C401 1.348 . S
C398 H436 0.929 . S
N399 Li354 1.990 . S
N399 C396 1.314 . S
N399 C397 1.279 1_545 S
C400 C397 1.358 . S
C400 C401 1.356 1_565 S
C400 H437 0.930 . S
C401 C398 1.348 . S
C401 C400 1.356 1_545 S
H402 C396 0.930 . S
H403 C397 0.930 . S
C404 N405 1.314 . S
C404 C406 1.353 . S
C404 H410 0.930 . S
N405 Li355 1.990 . S
N405 C404 1.314 . S
N405 C408 1.279 . S
C406 C404 1.353 . S
C406 C409 1.348 . S
C406 H438 0.929 . S
C407 C408 1.358 . S
C407 C409 1.356 . S
C407 H439 0.930 . S
C408 N405 1.279 . S
C408 C407 1.358 . S
C408 H411 0.930 . S
C409 C406 1.348 . S
C409 C407 1.356 . S
H410 C404 0.930 . S
H411 C408 0.930 . S
O412 Li352 1.956 . S
O412 Li353 1.970 . S
O412 Li354 1.961 . S
O412 C356 1.325 . S
O413 Li352 1.970 . S
O413 Li353 1.956 . S
O413 Li355 1.961 1_545 S
O413 C362 1.325 . S
O414 Li352 1.961 1_565 S
O414 Li354 1.956 1_565 S
O414 Li355 1.970 . S
O414 C384 1.325 . S
O415 Li353 1.961 . S
O415 Li354 1.970 . S
O415 Li355 1.956 1_545 S
O415 C390 1.325 . S
H416 C358 0.929 . S
H417 C359 0.930 . S
H418 C360 0.930 . S
H419 C361 0.930 . S
H420 C363 0.930 . S
H421 C365 0.929 . S
H422 C366 0.930 . S
H423 C367 0.930 . S
H424 C370 0.930 . S
H425 C373 0.929 . S
H426 C378 0.929 . S
H427 C379 0.930 . S
H428 C386 0.929 . S
H429 C387 0.930 . S
H430 C388 0.930 . S
H431 C389 0.930 . S
H432 C391 0.929 . S
H433 C392 0.930 . S
H434 C393 0.930 . S
H435 C394 0.930 . S
H436 C398 0.929 . S
H437 C400 0.930 . S
H438 C406 0.929 . S
H439 C407 0.930 . S
Li440 N457 1.990 . S
Li440 O500 1.956 . S
Li440 O501 1.970 . S
Li440 O502 1.961 . S
Li441 N465 1.990 . S
Li441 O500 1.970 . S
Li441 O501 1.956 . S
Li441 O503 1.961 . S
Li442 N487 1.990 . S
Li442 O500 1.961 . S
Li442 O502 1.956 . S
Li442 O503 1.970 . S
Li443 N493 1.990 . S
Li443 O501 1.961 . S
Li443 O502 1.970 . S
Li443 O503 1.956 . S
C444 C446 1.348 . S
C444 C447 1.356 . S
C444 O500 1.325 . S
N445 C448 1.314 . S
N445 C449 1.279 . S
C446 C444 1.348 . S
C446 C448 1.353 . S
C446 H504 0.929 . S
C447 C444 1.356 . S
C447 C449 1.358 . S
C447 H505 0.930 . S
C448 N445 1.314 . S
C448 C446 1.353 . S
C448 H506 0.930 . S
C449 N445 1.279 . S
C449 C447 1.358 . S
C449 H507 0.930 . S
C450 C453 1.348 . S
C450 C454 1.356 . S
C450 O501 1.325 . S
C451 N452 1.279 . S
C451 C454 1.358 . S
C451 H508 0.930 . S
N452 C451 1.279 . S
N452 C455 1.314 . S
C453 C450 1.348 . S
C453 C455 1.353 . S
C453 H509 0.929 . S
C454 C450 1.356 . S
C454 C451 1.358 . S
C454 H510 0.930 . S
C455 N452 1.314 . S
C455 C453 1.353 . S
C455 H511 0.930 . S
C456 N457 1.314 . S
C456 C461 1.353 . S
C456 H462 0.930 . S
N457 Li440 1.990 . S
N457 C456 1.314 . S
N457 C459 1.279 . S
C458 C459 1.358 . S
C458 C460 1.356 . S
C458 H512 0.930 . S
C459 N457 1.279 . S
C459 C458 1.358 . S
C459 H463 0.930 . S
C460 C458 1.356 . S
C460 C461 1.348 . S
C461 C456 1.353 . S
C461 C460 1.348 . S
C461 H513 0.929 . S
H462 C456 0.930 . S
H463 C459 0.930 . S
C464 N465 1.314 . S
C464 C466 1.353 . S
C464 H470 0.930 . S
N465 Li441 1.990 . S
N465 C464 1.314 . S
N465 C468 1.279 . S
C466 C464 1.353 . S
C466 C469 1.348 . S
C466 H514 0.929 . S
C467 C468 1.358 . S
C467 C469 1.356 . S
C467 H515 0.930 . S
C468 N465 1.279 . S
C468 C467 1.358 . S
C468 H471 0.930 . S
C469 C466 1.348 . S
C469 C467 1.356 . S
H470 C464 0.930 . S
H471 C468 0.930 . S
C472 C474 1.348 . S
C472 C475 1.356 . S
C472 O502 1.325 . S
N473 C476 1.314 . S
N473 C477 1.279 . S
C474 C472 1.348 . S
C474 C476 1.353 . S
C474 H516 0.929 . S
C475 C472 1.356 . S
C475 C477 1.358 . S
C475 H517 0.930 . S
C476 N473 1.314 . S
C476 C474 1.353 . S
C476 H518 0.930 . S
C477 N473 1.279 . S
C477 C475 1.358 . S
C477 H519 0.930 . S
C478 C479 1.348 . S
C478 C480 1.356 . S
C478 O503 1.325 . S
C479 C478 1.348 . S
C479 C481 1.353 . S
C479 H520 0.929 . S
C480 C478 1.356 . S
C480 C482 1.358 . S
C480 H521 0.930 . S
C481 C479 1.353 . S
C481 N483 1.314 . S
C481 H522 0.930 . S
C482 C480 1.358 . S
C482 N483 1.279 . S
C482 H523 0.930 . S
N483 C481 1.314 . S
N483 C482 1.279 . S
C484 C486 1.353 . S
C484 N487 1.314 . S
C484 H490 0.930 . S
C485 N487 1.279 . S
C485 C488 1.358 . S
C485 H491 0.930 . S
C486 C484 1.353 . S
C486 C489 1.348 . S
C486 H524 0.929 . S
N487 Li442 1.990 . S
N487 C484 1.314 . S
N487 C485 1.279 . S
C488 C485 1.358 . S
C488 C489 1.356 . S
C488 H525 0.930 . S
C489 C486 1.348 . S
C489 C488 1.356 . S
H490 C484 0.930 . S
H491 C485 0.930 . S
C492 N493 1.314 . S
C492 C494 1.353 . S
C492 H498 0.930 . S
N493 Li443 1.990 . S
N493 C492 1.314 . S
N493 C496 1.279 . S
C494 C492 1.353 . S
C494 C497 1.348 . S
C494 H526 0.929 . S
C495 C496 1.358 . S
C495 C497 1.356 . S
C495 H527 0.930 . S
C496 N493 1.279 . S
C496 C495 1.358 . S
C496 H499 0.930 . S
C497 C494 1.348 . S
C497 C495 1.356 . S
H498 C492 0.930 . S
H499 C496 0.930 . S
O500 Li440 1.956 . S
O500 Li441 1.970 . S
O500 Li442 1.961 . S
O500 C444 1.325 . S
O501 Li440 1.970 . S
O501 Li441 1.956 . S
O501 Li443 1.961 . S
O501 C450 1.325 . S
O502 Li440 1.961 . S
O502 Li442 1.956 . S
O502 Li443 1.970 . S
O502 C472 1.325 . S
O503 Li441 1.961 . S
O503 Li442 1.970 . S
O503 Li443 1.956 . S
O503 C478 1.325 . S
H504 C446 0.929 . S
H505 C447 0.930 . S
H506 C448 0.930 . S
H507 C449 0.930 . S
H508 C451 0.930 . S
H509 C453 0.929 . S
H510 C454 0.930 . S
H511 C455 0.930 . S
H512 C458 0.930 . S
H513 C461 0.929 . S
H514 C466 0.929 . S
H515 C467 0.930 . S
H516 C474 0.929 . S
H517 C475 0.930 . S
H518 C476 0.930 . S
H519 C477 0.930 . S
H520 C479 0.929 . S
H521 C480 0.930 . S
H522 C481 0.930 . S
H523 C482 0.930 . S
H524 C486 0.929 . S
H525 C488 0.930 . S
H526 C494 0.929 . S
H527 C495 0.930 . S
Li528 N545 1.990 . S
Li528 O588 1.956 1_565 S
Li528 O589 1.970 . S
Li528 O590 1.961 1_565 S
Li529 N553 1.990 . S
Li529 O588 1.970 . S
Li529 O589 1.956 1_545 S
Li529 O591 1.961 . S
Li530 N575 1.990 . S
Li530 O588 1.961 . S
Li530 O590 1.956 . S
Li530 O591 1.970 . S
Li531 N581 1.990 . S
Li531 O589 1.961 1_545 S
Li531 O590 1.970 . S
Li531 O591 1.956 . S
C532 C534 1.348 . S
C532 C535 1.356 . S
C532 O588 1.325 . S
N533 C536 1.314 . S
N533 C537 1.279 . S
C534 C532 1.348 . S
C534 C536 1.353 . S
C534 H592 0.929 1_545 S
C535 C532 1.356 . S
C535 C537 1.358 . S
C535 H593 0.930 . S
C536 N533 1.314 . S
C536 C534 1.353 . S
C536 H594 0.926 1_545 S
C537 N533 1.279 . S
C537 C535 1.358 . S
C537 H595 0.930 . S
C538 C541 1.348 . S
C538 C542 1.356 . S
C538 O589 1.325 . S
C539 N540 1.279 . S
C539 C542 1.358 . S
C539 H596 0.930 . S
N540 C539 1.279 . S
N540 C543 1.314 . S
C541 C538 1.348 . S
C541 C543 1.353 . S
C541 H597 0.929 . S
C542 C538 1.356 . S
C542 C539 1.358 . S
C542 H598 0.930 . S
C543 N540 1.314 . S
C543 C541 1.353 . S
C543 H599 0.930 . S
C544 N545 1.314 . S
C544 C549 1.353 . S
C544 H550 0.930 . S
N545 Li528 1.990 . S
N545 C544 1.314 . S
N545 C547 1.279 . S
C546 C547 1.358 . S
C546 C548 1.356 . S
C546 H600 0.930 . S
C547 N545 1.279 . S
C547 C546 1.358 . S
C547 H551 0.930 . S
C548 C546 1.356 . S
C548 C549 1.348 . S
C549 C544 1.353 . S
C549 C548 1.348 . S
C549 H601 0.929 . S
H550 C544 0.930 . S
H551 C547 0.930 . S
C552 N553 1.314 . S
C552 C554 1.353 . S
C552 H558 0.930 . S
N553 Li529 1.990 . S
N553 C552 1.314 . S
N553 C556 1.279 1_545 S
C554 C552 1.353 . S
C554 C557 1.348 . S
C554 H602 0.929 . S
C555 C556 1.358 . S
C555 C557 1.356 1_565 S
C555 H603 0.930 . S
C556 N553 1.279 1_565 S
C556 C555 1.358 . S
C556 H559 0.930 . S
C557 C554 1.348 . S
C557 C555 1.356 1_545 S
H558 C552 0.930 . S
H559 C556 0.930 . S
C560 C562 1.348 . S
C560 C563 1.356 . S
C560 O590 1.325 . S
N561 C564 1.314 . S
N561 C565 1.279 . S
C562 C560 1.348 . S
C562 C564 1.353 . S
C562 H604 0.929 . S
C563 C560 1.356 . S
C563 C565 1.358 . S
C563 H605 0.930 . S
C564 N561 1.314 . S
C564 C562 1.353 . S
C564 H606 0.930 . S
C565 N561 1.279 . S
C565 C563 1.358 . S
C565 H607 0.930 . S
C566 C567 1.348 . S
C566 C568 1.356 . S
C566 O591 1.325 . S
C567 C566 1.348 . S
C567 C569 1.353 . S
C567 H608 0.929 . S
C568 C566 1.356 . S
C568 C570 1.358 . S
C568 H609 0.930 . S
C569 C567 1.353 . S
C569 N571 1.314 . S
C569 H610 0.930 . S
C570 C568 1.358 . S
C570 N571 1.279 . S
C570 H611 0.930 . S
N571 C569 1.314 . S
N571 C570 1.279 . S
C572 C574 1.353 . S
C572 N575 1.314 . S
C572 H578 0.930 . S
C573 N575 1.279 . S
C573 C576 1.358 . S
C573 H579 0.930 . S
C574 C572 1.353 . S
C574 C577 1.348 . S
C574 H612 0.929 . S
N575 Li530 1.990 . S
N575 C572 1.314 . S
N575 C573 1.279 . S
C576 C573 1.358 . S
C576 C577 1.356 . S
C576 H613 0.930 . S
C577 C574 1.348 . S
C577 C576 1.356 . S
H578 C572 0.930 . S
H579 C573 0.930 . S
C580 N581 1.314 1_565 S
C580 C582 1.353 . S
C580 H586 0.930 . S
N581 Li531 1.990 . S
N581 C580 1.314 1_545 S
N581 C584 1.279 . S
C582 C580 1.353 . S
C582 C585 1.348 1_565 S
C582 H614 0.929 . S
C583 C584 1.358 . S
C583 C585 1.356 . S
C583 H615 0.930 . S
C584 N581 1.279 . S
C584 C583 1.358 . S
C584 H587 0.930 . S
C585 C582 1.348 1_545 S
C585 C583 1.356 . S
H586 C580 0.930 . S
H587 C584 0.930 . S
O588 Li528 1.956 1_545 S
O588 Li529 1.970 . S
O588 Li530 1.961 . S
O588 C532 1.325 . S
O589 Li528 1.970 . S
O589 Li529 1.956 1_565 S
O589 Li531 1.961 1_565 S
O589 C538 1.325 . S
O590 Li528 1.961 1_545 S
O590 Li530 1.956 . S
O590 Li531 1.970 . S
O590 C560 1.325 . S
O591 Li529 1.961 . S
O591 Li530 1.970 . S
O591 Li531 1.956 . S
O591 C566 1.325 . S
H592 C534 0.929 1_565 S
H593 C535 0.930 . S
H594 C536 0.926 1_565 S
H595 C537 0.930 . S
H596 C539 0.930 . S
H597 C541 0.929 . S
H598 C542 0.930 . S
H599 C543 0.930 . S
H600 C546 0.930 . S
H601 C549 0.929 . S
H602 C554 0.929 . S
H603 C555 0.930 . S
H604 C562 0.929 . S
H605 C563 0.930 . S
H606 C564 0.930 . S
H607 C565 0.930 . S
H608 C567 0.929 . S
H609 C568 0.930 . S
H610 C569 0.930 . S
H611 C570 0.930 . S
H612 C574 0.929 . S
H613 C576 0.930 . S
H614 C582 0.929 . S
H615 C583 0.930 . S
Li616 N633 1.990 . S
Li616 O676 1.956 . S
Li616 O677 1.970 . S
Li616 O678 1.961 . S
Li617 N641 1.990 . S
Li617 O676 1.970 . S
Li617 O677 1.956 . S
Li617 O679 1.961 . S
Li618 N663 1.990 1_554 S
Li618 O676 1.961 . S
Li618 O678 1.956 . S
Li618 O679 1.970 . S
Li619 N669 1.990 . S
Li619 O677 1.961 . S
Li619 O678 1.970 . S
Li619 O679 1.956 . S
C620 C622 1.348 . S
C620 C623 1.356 . S
C620 O676 1.325 . S
N621 C624 1.314 . S
N621 C625 1.279 . S
C622 C620 1.348 . S
C622 C624 1.353 . S
C622 H680 0.929 . S
C623 C620 1.356 . S
C623 C625 1.358 . S
C623 H681 0.930 . S
C624 N621 1.314 . S
C624 C622 1.353 . S
C624 H682 0.930 . S
C625 N621 1.279 . S
C625 C623 1.358 . S
C625 H683 0.930 . S
C626 C629 1.348 . S
C626 C630 1.356 . S
C626 O677 1.325 . S
C627 N628 1.279 . S
C627 C630 1.358 . S
C627 H684 0.930 . S
N628 C627 1.279 . S
N628 C631 1.314 . S
C629 C626 1.348 . S
C629 C631 1.353 . S
C629 H685 0.929 . S
C630 C626 1.356 . S
C630 C627 1.358 . S
C630 H686 0.930 . S
C631 N628 1.314 . S
C631 C629 1.353 . S
C631 H687 0.930 . S
C632 N633 1.314 . S
C632 C637 1.353 . S
C632 H638 0.930 . S
N633 Li616 1.990 . S
N633 C632 1.314 . S
N633 C635 1.279 . S
C634 C635 1.358 . S
C634 C636 1.356 . S
C634 H688 0.930 . S
C635 N633 1.279 . S
C635 C634 1.358 . S
C635 H639 0.930 . S
C636 C634 1.356 . S
C636 C637 1.348 . S
C637 C632 1.353 . S
C637 C636 1.348 . S
C637 H689 0.929 . S
H638 C632 0.930 . S
H639 C635 0.930 . S
C640 N641 1.314 . S
C640 C642 1.353 . S
C640 H646 0.930 1_554 S
N641 Li617 1.990 . S
N641 C640 1.314 . S
N641 C644 1.279 . S
C642 C640 1.353 . S
C642 C645 1.348 . S
C642 H690 0.929 1_554 S
C643 C644 1.358 . S
C643 C645 1.356 . S
C643 H691 0.930 . S
C644 N641 1.279 . S
C644 C643 1.358 . S
C644 H647 0.930 . S
C645 C642 1.348 . S
C645 C643 1.356 . S
H646 C640 0.930 1_556 S
H647 C644 0.930 . S
C648 C650 1.348 . S
C648 C651 1.356 . S
C648 O678 1.325 . S
N649 C652 1.314 . S
N649 C653 1.279 . S
C650 C648 1.348 . S
C650 C652 1.353 . S
C650 H692 0.929 . S
C651 C648 1.356 . S
C651 C653 1.358 . S
C651 H693 0.930 . S
C652 N649 1.314 . S
C652 C650 1.353 . S
C652 H694 0.930 . S
C653 N649 1.279 . S
C653 C651 1.358 . S
C653 H695 0.930 . S
C654 C655 1.348 . S
C654 C656 1.356 . S
C654 O679 1.325 1_556 S
C655 C654 1.348 . S
C655 C657 1.353 . S
C655 H696 0.929 . S
C656 C654 1.356 . S
C656 C658 1.358 . S
C656 H697 0.930 . S
C657 C655 1.353 . S
C657 N659 1.314 . S
C657 H698 0.930 . S
C658 C656 1.358 . S
C658 N659 1.279 . S
C658 H699 0.930 . S
N659 C657 1.314 . S
N659 C658 1.279 . S
C660 C662 1.353 . S
C660 N663 1.314 . S
C660 H666 0.930 . S
C661 N663 1.279 . S
C661 C664 1.358 . S
C661 H667 0.930 . S
C662 C660 1.353 . S
C662 C665 1.348 . S
C662 H700 0.929 . S
N663 Li618 1.990 1_556 S
N663 C660 1.314 . S
N663 C661 1.279 . S
C664 C661 1.358 . S
C664 C665 1.356 . S
C664 H701 0.930 . S
C665 C662 1.348 . S
C665 C664 1.356 . S
H666 C660 0.930 . S
H667 C661 0.930 . S
C668 N669 1.314 . S
C668 C670 1.353 . S
C668 H674 0.930 . S
N669 Li619 1.990 . S
N669 C668 1.314 . S
N669 C672 1.279 . S
C670 C668 1.353 . S
C670 C673 1.348 . S
C670 H702 0.929 . S
C671 C672 1.358 . S
C671 C673 1.356 . S
C671 H703 0.930 1_554 S
C672 N669 1.279 . S
C672 C671 1.358 . S
C672 H675 0.930 1_554 S
C673 C670 1.348 . S
C673 C671 1.356 . S
H674 C668 0.930 . S
H675 C672 0.930 1_556 S
O676 Li616 1.956 . S
O676 Li617 1.970 . S
O676 Li618 1.961 . S
O676 C620 1.325 . S
O677 Li616 1.970 . S
O677 Li617 1.956 . S
O677 Li619 1.961 . S
O677 C626 1.325 . S
O678 Li616 1.961 . S
O678 Li618 1.956 . S
O678 Li619 1.970 . S
O678 C648 1.325 . S
O679 Li617 1.961 . S
O679 Li618 1.970 . S
O679 Li619 1.956 . S
O679 C654 1.325 1_554 S
H680 C622 0.929 . S
H681 C623 0.930 . S
H682 C624 0.930 . S
H683 C625 0.930 . S
H684 C627 0.930 . S
H685 C629 0.929 . S
H686 C630 0.930 . S
H687 C631 0.930 . S
H688 C634 0.930 . S
H689 C637 0.929 . S
H690 C642 0.929 1_556 S
H691 C643 0.930 . S
H692 C650 0.929 . S
H693 C651 0.930 . S
H694 C652 0.930 . S
H695 C653 0.930 . S
H696 C655 0.929 . S
H697 C656 0.930 . S
H698 C657 0.930 . S
H699 C658 0.930 . S
H700 C662 0.929 . S
H701 C664 0.930 . S
H702 C670 0.929 . S
H703 C671 0.930 1_556 S
Li704 N721 1.990 . S
Li704 O764 1.956 . S
Li704 O765 1.970 . S
Li704 O766 1.961 . S
Li705 N729 1.990 . S
Li705 O764 1.970 . S
Li705 O765 1.956 . S
Li705 O767 1.961 . S
Li706 N751 1.990 . S
Li706 O764 1.961 . S
Li706 O766 1.956 . S
Li706 O767 1.970 . S
Li707 N757 1.990 . S
Li707 O765 1.961 . S
Li707 O766 1.970 . S
Li707 O767 1.956 . S
C708 C710 1.348 . S
C708 C711 1.356 . S
C708 O764 1.325 . S
N709 C712 1.314 . S
N709 C713 1.279 . S
C710 C708 1.348 . S
C710 C712 1.353 . S
C710 H768 0.929 . S
C711 C708 1.356 . S
C711 C713 1.358 . S
C711 H769 0.930 . S
C712 N709 1.314 . S
C712 C710 1.353 . S
C712 H770 0.930 . S
C713 N709 1.279 . S
C713 C711 1.358 . S
C713 H771 0.930 . S
C714 C717 1.348 . S
C714 C718 1.356 . S
C714 O765 1.325 . S
C715 N716 1.279 . S
C715 C718 1.358 . S
C715 H772 0.930 . S
N716 C715 1.279 . S
N716 C719 1.314 . S
C717 C714 1.348 . S
C717 C719 1.353 . S
C717 H773 0.929 . S
C718 C714 1.356 . S
C718 C715 1.358 . S
C718 H774 0.930 . S
C719 N716 1.314 . S
C719 C717 1.353 . S
C719 H775 0.930 . S
C720 N721 1.314 . S
C720 C725 1.353 . S
C720 H726 0.930 . S
N721 Li704 1.990 . S
N721 C720 1.314 . S
N721 C723 1.279 . S
C722 C723 1.358 . S
C722 C724 1.356 . S
C722 H776 0.930 . S
C723 N721 1.279 . S
C723 C722 1.358 . S
C723 H727 0.930 . S
C724 C722 1.356 . S
C724 C725 1.348 . S
C725 C720 1.353 . S
C725 C724 1.348 . S
C725 H777 0.929 . S
H726 C720 0.930 . S
H727 C723 0.930 . S
C728 N729 1.314 . S
C728 C730 1.353 . S
C728 H734 0.930 . S
N729 Li705 1.990 . S
N729 C728 1.314 . S
N729 C732 1.279 . S
C730 C728 1.353 . S
C730 C733 1.348 . S
C730 H778 0.929 . S
C731 C732 1.358 . S
C731 C733 1.356 . S
C731 H779 0.930 . S
C732 N729 1.279 . S
C732 C731 1.358 . S
C732 H735 0.930 . S
C733 C730 1.348 . S
C733 C731 1.356 . S
H734 C728 0.930 . S
H735 C732 0.930 . S
C736 C738 1.348 1_554 S
C736 C739 1.356 . S
C736 O766 1.325 . S
N737 C740 1.314 . S
N737 C741 1.279 . S
C738 C736 1.348 1_556 S
C738 C740 1.353 . S
C738 H780 0.929 . S
C739 C736 1.356 . S
C739 C741 1.358 1_554 S
C739 H781 0.930 . S
C740 N737 1.314 . S
C740 C738 1.353 . S
C740 H782 0.930 . S
C741 N737 1.279 . S
C741 C739 1.358 1_556 S
C741 H783 0.930 . S
C742 C743 1.348 . S
C742 C744 1.356 . S
C742 O767 1.325 . S
C743 C742 1.348 . S
C743 C745 1.353 . S
C743 H784 0.929 . S
C744 C742 1.356 . S
C744 C746 1.358 . S
C744 H785 0.930 . S
C745 C743 1.353 . S
C745 N747 1.314 . S
C745 H786 0.930 . S
C746 C744 1.358 . S
C746 N747 1.279 . S
C746 H787 0.930 . S
N747 C745 1.314 . S
N747 C746 1.279 . S
C748 C750 1.353 . S
C748 N751 1.314 . S
C748 H754 0.930 . S
C749 N751 1.279 . S
C749 C752 1.358 . S
C749 H755 0.930 . S
C750 C748 1.353 . S
C750 C753 1.348 . S
C750 H788 0.929 . S
N751 Li706 1.990 . S
N751 C748 1.314 . S
N751 C749 1.279 . S
C752 C749 1.358 . S
C752 C753 1.356 . S
C752 H789 0.930 . S
C753 C750 1.348 . S
C753 C752 1.356 . S
H754 C748 0.930 . S
H755 C749 0.930 . S
C756 N757 1.314 1_556 S
C756 C758 1.353 . S
C756 H762 0.930 . S
N757 Li707 1.990 . S
N757 C756 1.314 1_554 S
N757 C760 1.279 1_554 S
C758 C756 1.353 . S
C758 C761 1.348 . S
C758 H790 0.929 . S
C759 C760 1.358 . S
C759 C761 1.356 . S
C759 H791 0.930 . S
C760 N757 1.279 1_556 S
C760 C759 1.358 . S
C760 H763 0.930 1_556 S
C761 C758 1.348 . S
C761 C759 1.356 . S
H762 C756 0.930 . S
H763 C760 0.930 1_554 S
O764 Li704 1.956 . S
O764 Li705 1.970 . S
O764 Li706 1.961 . S
O764 C708 1.325 . S
O765 Li704 1.970 . S
O765 Li705 1.956 . S
O765 Li707 1.961 . S
O765 C714 1.325 . S
O766 Li704 1.961 . S
O766 Li706 1.956 . S
O766 Li707 1.970 . S
O766 C736 1.325 . S
O767 Li705 1.961 . S
O767 Li706 1.970 . S
O767 Li707 1.956 . S
O767 C742 1.325 . S
H768 C710 0.929 . S
H769 C711 0.930 . S
H770 C712 0.930 . S
H771 C713 0.930 . S
H772 C715 0.930 . S
H773 C717 0.929 . S
H774 C718 0.930 . S
H775 C719 0.930 . S
H776 C722 0.930 . S
H777 C725 0.929 . S
H778 C730 0.929 . S
H779 C731 0.930 . S
H780 C738 0.929 . S
H781 C739 0.930 . S
H782 C740 0.930 . S
H783 C741 0.930 . S
H784 C743 0.929 . S
H785 C744 0.930 . S
H786 C745 0.930 . S
H787 C746 0.930 . S
H788 C750 0.929 . S
H789 C752 0.930 . S
H790 C758 0.929 . S
H791 C759 0.930 . S
Li792 N809 1.990 . S
Li792 O852 1.956 . S
Li792 O853 1.970 . S
Li792 O854 1.961 . S
Li793 N817 1.990 . S
Li793 O852 1.970 . S
Li793 O853 1.956 . S
Li793 O855 1.961 . S
Li794 N839 1.990 . S
Li794 O852 1.961 . S
Li794 O854 1.956 . S
Li794 O855 1.970 . S
Li795 N845 1.990 . S
Li795 O853 1.961 . S
Li795 O854 1.970 . S
Li795 O855 1.956 . S
C796 C798 1.348 . S
C796 C799 1.356 . S
C796 O852 1.325 . S
N797 C800 1.314 . S
N797 C801 1.279 . S
C798 C796 1.348 . S
C798 C800 1.353 . S
C798 H856 0.929 . S
C799 C796 1.356 . S
C799 C801 1.358 . S
C799 H857 0.930 . S
C800 N797 1.314 . S
C800 C798 1.353 . S
C800 H858 0.930 . S
C801 N797 1.279 . S
C801 C799 1.358 . S
C801 H859 0.930 . S
C802 C805 1.348 . S
C802 C806 1.356 . S
C802 O853 1.325 . S
C803 N804 1.279 . S
C803 C806 1.358 . S
C803 H860 0.930 . S
N804 C803 1.279 . S
N804 C807 1.314 . S
C805 C802 1.348 . S
C805 C807 1.353 . S
C805 H861 0.929 . S
C806 C802 1.356 . S
C806 C803 1.358 . S
C806 H862 0.930 . S
C807 N804 1.314 . S
C807 C805 1.353 . S
C807 H863 0.930 . S
C808 N809 1.314 . S
C808 C813 1.353 . S
C808 H814 0.930 . S
N809 Li792 1.990 . S
N809 C808 1.314 . S
N809 C811 1.279 . S
C810 C811 1.358 . S
C810 C812 1.356 . S
C810 H864 0.930 . S
C811 N809 1.279 . S
C811 C810 1.358 . S
C811 H815 0.930 . S
C812 C810 1.356 . S
C812 C813 1.348 . S
C813 C808 1.353 . S
C813 C812 1.348 . S
C813 H865 0.929 . S
H814 C808 0.930 . S
H815 C811 0.930 . S
C816 N817 1.314 . S
C816 C818 1.353 . S
C816 H822 0.930 . S
N817 Li793 1.990 . S
N817 C816 1.314 . S
N817 C820 1.279 . S
C818 C816 1.353 . S
C818 C821 1.348 . S
C818 H866 0.929 . S
C819 C820 1.358 . S
C819 C821 1.356 . S
C819 H867 0.930 . S
C820 N817 1.279 . S
C820 C819 1.358 . S
C820 H823 0.930 . S
C821 C818 1.348 . S
C821 C819 1.356 . S
H822 C816 0.930 . S
H823 C820 0.930 . S
C824 C826 1.348 . S
C824 C827 1.356 . S
C824 O854 1.325 . S
N825 C828 1.314 . S
N825 C829 1.279 . S
C826 C824 1.348 . S
C826 C828 1.353 . S
C826 H868 0.929 . S
C827 C824 1.356 . S
C827 C829 1.358 . S
C827 H869 0.930 . S
C828 N825 1.314 . S
C828 C826 1.353 . S
C828 H870 0.930 . S
C829 N825 1.279 . S
C829 C827 1.358 . S
C829 H871 0.930 . S
C830 C831 1.348 . S
C830 C832 1.356 . S
C830 O855 1.325 . S
C831 C830 1.348 . S
C831 C833 1.353 . S
C831 H872 0.929 . S
C832 C830 1.356 . S
C832 C834 1.358 . S
C832 H873 0.930 . S
C833 C831 1.353 . S
C833 N835 1.314 . S
C833 H874 0.930 . S
C834 C832 1.358 . S
C834 N835 1.279 . S
C834 H875 0.930 . S
N835 C833 1.314 . S
N835 C834 1.279 . S
C836 C838 1.353 . S
C836 N839 1.314 . S
C836 H842 0.930 . S
C837 N839 1.279 . S
C837 C840 1.358 . S
C837 H843 0.930 . S
C838 C836 1.353 . S
C838 C841 1.348 . S
C838 H876 0.929 . S
N839 Li794 1.990 . S
N839 C836 1.314 . S
N839 C837 1.279 . S
C840 C837 1.358 . S
C840 C841 1.356 . S
C840 H877 0.930 . S
C841 C838 1.348 . S
C841 C840 1.356 . S
H842 C836 0.930 . S
H843 C837 0.930 . S
C844 N845 1.314 . S
C844 C846 1.353 . S
C844 H850 0.930 . S
N845 Li795 1.990 . S
N845 C844 1.314 . S
N845 C848 1.279 . S
C846 C844 1.353 . S
C846 C849 1.348 . S
C846 H878 0.929 . S
C847 C848 1.358 . S
C847 C849 1.356 . S
C847 H879 0.930 . S
C848 N845 1.279 . S
C848 C847 1.358 . S
C848 H851 0.930 . S
C849 C846 1.348 . S
C849 C847 1.356 . S
H850 C844 0.930 . S
H851 C848 0.930 . S
O852 Li792 1.956 . S
O852 Li793 1.970 . S
O852 Li794 1.961 . S
O852 C796 1.325 . S
O853 Li792 1.970 . S
O853 Li793 1.956 . S
O853 Li795 1.961 . S
O853 C802 1.325 . S
O854 Li792 1.961 . S
O854 Li794 1.956 . S
O854 Li795 1.970 . S
O854 C824 1.325 . S
O855 Li793 1.961 . S
O855 Li794 1.970 . S
O855 Li795 1.956 . S
O855 C830 1.325 . S
H856 C798 0.929 . S
H857 C799 0.930 . S
H858 C800 0.930 . S
H859 C801 0.930 . S
H860 C803 0.930 . S
H861 C805 0.929 . S
H862 C806 0.930 . S
H863 C807 0.930 . S
H864 C810 0.930 . S
H865 C813 0.929 . S
H866 C818 0.929 . S
H867 C819 0.930 . S
H868 C826 0.929 . S
H869 C827 0.930 . S
H870 C828 0.930 . S
H871 C829 0.930 . S
H872 C831 0.929 . S
H873 C832 0.930 . S
H874 C833 0.930 . S
H875 C834 0.930 . S
H876 C838 0.929 . S
H877 C840 0.930 . S
H878 C846 0.929 . S
H879 C847 0.930 . S
Li880 N897 1.990 . S
Li880 O940 1.956 . S
Li880 O941 1.970 . S
Li880 O942 1.961 . S
Li881 N905 1.990 . S
Li881 O940 1.970 . S
Li881 O941 1.956 . S
Li881 O943 1.961 . S
Li882 N927 1.990 . S
Li882 O940 1.961 . S
Li882 O942 1.956 . S
Li882 O943 1.970 . S
Li883 N933 1.990 . S
Li883 O941 1.961 . S
Li883 O942 1.970 . S
Li883 O943 1.956 . S
C884 C886 1.348 . S
C884 C887 1.356 . S
C884 O940 1.325 . S
N885 C888 1.314 . S
N885 C889 1.279 . S
C886 C884 1.348 . S
C886 C888 1.353 . S
C886 H944 0.929 . S
C887 C884 1.356 . S
C887 C889 1.358 . S
C887 H945 0.930 . S
C888 N885 1.314 . S
C888 C886 1.353 . S
C888 H946 0.930 . S
C889 N885 1.279 . S
C889 C887 1.358 . S
C889 H947 0.930 . S
C890 C893 1.348 . S
C890 C894 1.356 . S
C890 O941 1.325 . S
C891 N892 1.279 . S
C891 C894 1.358 . S
C891 H948 0.930 . S
N892 C891 1.279 . S
N892 C895 1.314 . S
C893 C890 1.348 . S
C893 C895 1.353 . S
C893 H949 0.929 . S
C894 C890 1.356 . S
C894 C891 1.358 . S
C894 H950 0.930 . S
C895 N892 1.314 . S
C895 C893 1.353 . S
C895 H951 0.930 . S
C896 N897 1.314 . S
C896 C901 1.353 . S
C896 H902 0.930 . S
N897 Li880 1.990 . S
N897 C896 1.314 . S
N897 C899 1.279 . S
C898 C899 1.358 . S
C898 C900 1.356 . S
C898 H952 0.930 . S
C899 N897 1.279 . S
C899 C898 1.358 . S
C899 H903 0.930 . S
C900 C898 1.356 . S
C900 C901 1.348 . S
C901 C896 1.353 . S
C901 C900 1.348 . S
C901 H953 0.929 . S
H902 C896 0.930 . S
H903 C899 0.930 . S
C904 N905 1.314 . S
C904 C906 1.353 . S
C904 H910 0.930 . S
N905 Li881 1.990 . S
N905 C904 1.314 . S
N905 C908 1.279 . S
C906 C904 1.353 . S
C906 C909 1.348 . S
C906 H954 0.929 . S
C907 C908 1.358 . S
C907 C909 1.356 . S
C907 H955 0.930 . S
C908 N905 1.279 . S
C908 C907 1.358 . S
C908 H911 0.930 . S
C909 C906 1.348 . S
C909 C907 1.356 . S
H910 C904 0.930 . S
H911 C908 0.930 . S
C912 C914 1.348 . S
C912 C915 1.356 . S
C912 O942 1.325 . S
N913 C916 1.314 . S
N913 C917 1.279 . S
C914 C912 1.348 . S
C914 C916 1.353 . S
C914 H956 0.929 . S
C915 C912 1.356 . S
C915 C917 1.358 . S
C915 H957 0.930 . S
C916 N913 1.314 . S
C916 C914 1.353 . S
C916 H958 0.930 . S
C917 N913 1.279 . S
C917 C915 1.358 . S
C917 H959 0.930 . S
C918 C919 1.348 . S
C918 C920 1.356 . S
C918 O943 1.325 . S
C919 C918 1.348 . S
C919 C921 1.353 . S
C919 H960 0.929 . S
C920 C918 1.356 . S
C920 C922 1.358 . S
C920 H961 0.930 . S
C921 C919 1.353 . S
C921 N923 1.314 . S
C921 H962 0.930 . S
C922 C920 1.358 . S
C922 N923 1.279 . S
C922 H963 0.930 . S
N923 C921 1.314 . S
N923 C922 1.279 . S
C924 C926 1.353 . S
C924 N927 1.314 . S
C924 H930 0.930 . S
C925 N927 1.279 . S
C925 C928 1.358 . S
C925 H931 0.930 . S
C926 C924 1.353 . S
C926 C929 1.348 . S
C926 H964 0.929 . S
N927 Li882 1.990 . S
N927 C924 1.314 . S
N927 C925 1.279 . S
C928 C925 1.358 . S
C928 C929 1.356 . S
C928 H965 0.930 . S
C929 C926 1.348 . S
C929 C928 1.356 . S
H930 C924 0.930 . S
H931 C925 0.930 . S
C932 N933 1.314 . S
C932 C934 1.353 . S
C932 H938 0.930 . S
N933 Li883 1.990 . S
N933 C932 1.314 . S
N933 C936 1.279 . S
C934 C932 1.353 . S
C934 C937 1.348 . S
C934 H966 0.929 . S
C935 C936 1.358 . S
C935 C937 1.356 . S
C935 H967 0.930 . S
C936 N933 1.279 . S
C936 C935 1.358 . S
C936 H939 0.930 . S
C937 C934 1.348 . S
C937 C935 1.356 . S
H938 C932 0.930 . S
H939 C936 0.930 . S
O940 Li880 1.956 . S
O940 Li881 1.970 . S
O940 Li882 1.961 . S
O940 C884 1.325 . S
O941 Li880 1.970 . S
O941 Li881 1.956 . S
O941 Li883 1.961 . S
O941 C890 1.325 . S
O942 Li880 1.961 . S
O942 Li882 1.956 . S
O942 Li883 1.970 . S
O942 C912 1.325 . S
O943 Li881 1.961 . S
O943 Li882 1.970 . S
O943 Li883 1.956 . S
O943 C918 1.325 . S
H944 C886 0.929 . S
H945 C887 0.930 . S
H946 C888 0.930 . S
H947 C889 0.930 . S
H948 C891 0.930 . S
H949 C893 0.929 . S
H950 C894 0.930 . S
H951 C895 0.930 . S
H952 C898 0.930 . S
H953 C901 0.929 . S
H954 C906 0.929 . S
H955 C907 0.930 . S
H956 C914 0.929 . S
H957 C915 0.930 . S
H958 C916 0.930 . S
H959 C917 0.930 . S
H960 C919 0.929 . S
H961 C920 0.930 . S
H962 C921 0.930 . S
H963 C922 0.930 . S
H964 C926 0.929 . S
H965 C928 0.930 . S
H966 C934 0.929 . S
H967 C935 0.930 . S
Li968 N985 1.990 . S
Li968 O1028 1.956 . S
Li968 O1029 1.970 . S
Li968 O1030 1.961 . S
Li969 N993 1.990 . S
Li969 O1028 1.970 . S
Li969 O1029 1.956 . S
Li969 O1031 1.961 . S
Li970 N1015 1.990 . S
Li970 O1028 1.961 . S
Li970 O1030 1.956 . S
Li970 O1031 1.970 . S
Li971 N1021 1.990 . S
Li971 O1029 1.961 . S
Li971 O1030 1.970 . S
Li971 O1031 1.956 . S
C972 C974 1.348 . S
C972 C975 1.356 . S
C972 O1028 1.325 . S
N973 C976 1.314 . S
N973 C977 1.279 . S
C974 C972 1.348 . S
C974 C976 1.353 . S
C974 H1032 0.929 . S
C975 C972 1.356 . S
C975 C977 1.358 . S
C975 H1033 0.930 . S
C976 N973 1.314 . S
C976 C974 1.353 . S
C976 H1034 0.930 . S
C977 N973 1.279 . S
C977 C975 1.358 . S
C977 H1035 0.930 . S
C978 C981 1.348 . S
C978 C982 1.356 . S
C978 O1029 1.325 . S
C979 N980 1.279 . S
C979 C982 1.358 . S
C979 H1036 0.930 . S
N980 C979 1.279 . S
N980 C983 1.314 . S
C981 C978 1.348 . S
C981 C983 1.353 . S
C981 H1037 0.929 . S
C982 C978 1.356 . S
C982 C979 1.358 . S
C982 H1038 0.930 . S
C983 N980 1.314 . S
C983 C981 1.353 . S
C983 H1039 0.930 . S
C984 N985 1.314 . S
C984 C989 1.353 . S
C984 H990 0.930 . S
N985 Li968 1.990 . S
N985 C984 1.314 . S
N985 C987 1.279 . S
C986 C987 1.358 . S
C986 C988 1.356 . S
C986 H1040 0.930 . S
C987 N985 1.279 . S
C987 C986 1.358 . S
C987 H991 0.930 . S
C988 C986 1.356 . S
C988 C989 1.348 . S
C989 C984 1.353 . S
C989 C988 1.348 . S
C989 H1041 0.929 . S
H990 C984 0.930 . S
H991 C987 0.930 . S
C992 N993 1.314 . S
C992 C994 1.353 . S
C992 H998 0.930 . S
N993 Li969 1.990 . S
N993 C992 1.314 . S
N993 C996 1.279 . S
C994 C992 1.353 . S
C994 C997 1.348 . S
C994 H1042 0.929 . S
C995 C996 1.358 . S
C995 C997 1.356 . S
C995 H1043 0.930 . S
C996 N993 1.279 . S
C996 C995 1.358 . S
C996 H999 0.930 . S
C997 C994 1.348 . S
C997 C995 1.356 . S
H998 C992 0.930 . S
H999 C996 0.930 . S
C1000 C1002 1.348 . S
C1000 C1003 1.356 . S
C1000 O1030 1.325 . S
N1001 C1004 1.314 . S
N1001 C1005 1.279 . S
C1002 C1000 1.348 . S
C1002 C1004 1.353 . S
C1002 H1044 0.929 . S
C1003 C1000 1.356 . S
C1003 C1005 1.358 . S
C1003 H1045 0.930 . S
C1004 N1001 1.314 . S
C1004 C1002 1.353 . S
C1004 H1046 0.930 . S
C1005 N1001 1.279 . S
C1005 C1003 1.358 . S
C1005 H1047 0.930 . S
C1006 C1007 1.348 . S
C1006 C1008 1.356 . S
C1006 O1031 1.325 . S
C1007 C1006 1.348 . S
C1007 C1009 1.353 . S
C1007 H1048 0.929 . S
C1008 C1006 1.356 . S
C1008 C1010 1.358 . S
C1008 H1049 0.930 . S
C1009 C1007 1.353 . S
C1009 N1011 1.314 . S
C1009 H1050 0.930 . S
C1010 C1008 1.358 . S
C1010 N1011 1.279 . S
C1010 H1051 0.930 . S
N1011 C1009 1.314 . S
N1011 C1010 1.279 . S
C1012 C1014 1.353 . S
C1012 N1015 1.314 . S
C1012 H1018 0.930 . S
C1013 N1015 1.279 . S
C1013 C1016 1.358 . S
C1013 H1019 0.930 . S
C1014 C1012 1.353 . S
C1014 C1017 1.348 . S
C1014 H1052 0.929 . S
N1015 Li970 1.990 . S
N1015 C1012 1.314 . S
N1015 C1013 1.279 . S
C1016 C1013 1.358 . S
C1016 C1017 1.356 . S
C1016 H1053 0.930 . S
C1017 C1014 1.348 . S
C1017 C1016 1.356 . S
H1018 C1012 0.930 . S
H1019 C1013 0.930 . S
C1020 N1021 1.314 . S
C1020 C1022 1.353 . S
C1020 H1026 0.930 . S
N1021 Li971 1.990 . S
N1021 C1020 1.314 . S
N1021 C1024 1.279 . S
C1022 C1020 1.353 . S
C1022 C1025 1.348 . S
C1022 H1054 0.929 . S
C1023 C1024 1.358 . S
C1023 C1025 1.356 . S
C1023 H1055 0.930 . S
C1024 N1021 1.279 . S
C1024 C1023 1.358 . S
C1024 H1027 0.930 . S
C1025 C1022 1.348 . S
C1025 C1023 1.356 . S
H1026 C1020 0.930 . S
H1027 C1024 0.930 . S
O1028 Li968 1.956 . S
O1028 Li969 1.970 . S
O1028 Li970 1.961 . S
O1028 C972 1.325 . S
O1029 Li968 1.970 . S
O1029 Li969 1.956 . S
O1029 Li971 1.961 . S
O1029 C978 1.325 . S
O1030 Li968 1.961 . S
O1030 Li970 1.956 . S
O1030 Li971 1.970 . S
O1030 C1000 1.325 . S
O1031 Li969 1.961 . S
O1031 Li970 1.970 . S
O1031 Li971 1.956 . S
O1031 C1006 1.325 . S
H1032 C974 0.929 . S
H1033 C975 0.930 . S
H1034 C976 0.930 . S
H1035 C977 0.930 . S
H1036 C979 0.930 . S
H1037 C981 0.929 . S
H1038 C982 0.930 . S
H1039 C983 0.930 . S
H1040 C986 0.930 . S
H1041 C989 0.929 . S
H1042 C994 0.929 . S
H1043 C995 0.930 . S
H1044 C1002 0.929 . S
H1045 C1003 0.930 . S
H1046 C1004 0.930 . S
H1047 C1005 0.930 . S
H1048 C1007 0.929 . S
H1049 C1008 0.930 . S
H1050 C1009 0.930 . S
H1051 C1010 0.930 . S
H1052 C1014 0.929 . S
H1053 C1016 0.930 . S
H1054 C1022 0.929 . S
H1055 C1023 0.930 . S
Li1056 N1073 1.990 . S
Li1056 O1116 1.948 1_655 S
Li1056 O1117 1.970 . S
Li1056 O1118 1.961 . S
Li1057 N1081 1.990 1_655 S
Li1057 O1116 1.970 1_655 S
Li1057 O1117 1.957 . S
Li1057 O1119 1.960 1_655 S
Li1058 N1103 1.990 . S
Li1058 O1116 1.969 . S
Li1058 O1118 1.956 1_455 S
Li1058 O1119 1.970 . S
Li1059 N1109 1.990 . S
Li1059 O1117 1.961 1_455 S
Li1059 O1118 1.970 1_455 S
Li1059 O1119 1.956 . S
C1060 C1062 1.358 . S
C1060 C1063 1.350 1_655 S
C1060 O1116 1.325 1_655 S
N1061 C1064 1.314 . S
N1061 C1065 1.279 1_655 S
C1062 C1060 1.358 . S
C1062 C1064 1.353 . S
C1062 H1120 0.929 . S
C1063 C1060 1.350 1_455 S
C1063 C1065 1.358 . S
C1063 H1121 0.930 . S
C1064 N1061 1.314 . S
C1064 C1062 1.353 . S
C1064 H1122 0.930 . S
C1065 N1061 1.279 1_455 S
C1065 C1063 1.358 . S
C1065 H1123 0.930 . S
C1066 C1069 1.348 . S
C1066 C1070 1.356 . S
C1066 O1117 1.325 . S
C1067 N1068 1.279 . S
C1067 C1070 1.358 . S
C1067 H1124 0.930 . S
N1068 C1067 1.279 . S
N1068 C1071 1.314 . S
C1069 C1066 1.348 . S
C1069 C1071 1.353 . S
C1069 H1125 0.929 . S
C1070 C1066 1.356 . S
C1070 C1067 1.358 . S
C1070 H1126 0.930 . S
C1071 N1068 1.314 . S
C1071 C1069 1.353 . S
C1071 H1127 0.930 . S
C1072 N1073 1.314 . S
C1072 C1077 1.353 . S
C1072 H1078 0.930 . S
N1073 Li1056 1.990 . S
N1073 C1072 1.314 . S
N1073 C1075 1.279 . S
C1074 C1075 1.358 . S
C1074 C1076 1.356 . S
C1074 H1128 0.930 . S
C1075 N1073 1.279 . S
C1075 C1074 1.358 . S
C1075 H1079 0.930 . S
C1076 C1074 1.356 . S
C1076 C1077 1.348 . S
C1077 C1072 1.353 . S
C1077 C1076 1.348 . S
C1077 H1129 0.929 . S
H1078 C1072 0.930 . S
H1079 C1075 0.930 . S
C1080 N1081 1.312 . S
C1080 C1082 1.353 . S
C1080 H1086 0.930 . S
N1081 Li1057 1.990 1_455 S
N1081 C1080 1.312 . S
N1081 C1084 1.281 1_455 S
C1082 C1080 1.353 . S
C1082 C1085 1.348 . S
C1082 H1130 0.929 . S
C1083 C1084 1.358 . S
C1083 C1085 1.356 1_655 S
C1083 H1131 0.930 . S
C1084 N1081 1.281 1_655 S
C1084 C1083 1.358 . S
C1084 H1087 0.930 . S
C1085 C1082 1.348 . S
C1085 C1083 1.356 1_455 S
H1086 C1080 0.930 . S
H1087 C1084 0.930 . S
C1088 C1090 1.337 1_655 S
C1088 C1091 1.363 . S
C1088 O1118 1.327 . S
N1089 C1092 1.316 . S
N1089 C1093 1.277 1_455 S
C1090 C1088 1.337 1_455 S
C1090 C1092 1.353 . S
C1090 H1132 0.929 . S
C1091 C1088 1.363 . S
C1091 C1093 1.358 . S
C1091 H1133 0.930 . S
C1092 N1089 1.316 . S
C1092 C1090 1.353 . S
C1092 H1134 0.930 . S
C1093 N1089 1.277 1_655 S
C1093 C1091 1.358 . S
C1093 H1135 0.930 . S
C1094 C1095 1.348 . S
C1094 C1096 1.356 . S
C1094 O1119 1.325 . S
C1095 C1094 1.348 . S
C1095 C1097 1.353 . S
C1095 H1136 0.929 . S
C1096 C1094 1.356 . S
C1096 C1098 1.358 . S
C1096 H1137 0.930 . S
C1097 C1095 1.353 . S
C1097 N1099 1.314 . S
C1097 H1138 0.930 . S
C1098 C1096 1.358 . S
C1098 N1099 1.279 . S
C1098 H1139 0.930 . S
N1099 C1097 1.314 . S
N1099 C1098 1.279 . S
C1100 C1102 1.353 . S
C1100 N1103 1.314 . S
C1100 H1106 0.930 . S
C1101 N1103 1.279 . S
C1101 C1104 1.358 . S
C1101 H1107 0.930 . S
C1102 C1100 1.353 . S
C1102 C1105 1.348 . S
C1102 H1140 0.929 . S
N1103 Li1058 1.990 . S
N1103 C1100 1.314 . S
N1103 C1101 1.279 . S
C1104 C1101 1.358 . S
C1104 C1105 1.356 . S
C1104 H1141 0.930 . S
C1105 C1102 1.348 . S
C1105 C1104 1.356 . S
H1106 C1100 0.930 . S
H1107 C1101 0.930 . S
C1108 N1109 1.314 1_655 S
C1108 C1110 1.353 . S
C1108 H1114 0.930 . S
N1109 Li1059 1.990 . S
N1109 C1108 1.314 1_455 S
N1109 C1112 1.279 . S
C1110 C1108 1.353 . S
C1110 C1113 1.348 1_655 S
C1110 H1142 0.929 . S
C1111 C1112 1.358 . S
C1111 C1113 1.356 . S
C1111 H1143 0.930 . S
C1112 N1109 1.279 . S
C1112 C1111 1.358 . S
C1112 H1115 0.930 . S
C1113 C1110 1.348 1_455 S
C1113 C1111 1.356 . S
H1114 C1108 0.930 . S
H1115 C1112 0.930 . S
O1116 Li1056 1.948 1_455 S
O1116 Li1057 1.970 1_455 S
O1116 Li1058 1.969 . S
O1116 C1060 1.325 1_455 S
O1117 Li1056 1.970 . S
O1117 Li1057 1.957 . S
O1117 Li1059 1.961 1_655 S
O1117 C1066 1.325 . S
O1118 Li1056 1.961 . S
O1118 Li1058 1.956 1_655 S
O1118 Li1059 1.970 1_655 S
O1118 C1088 1.327 . S
O1119 Li1057 1.960 1_455 S
O1119 Li1058 1.970 . S
O1119 Li1059 1.956 . S
O1119 C1094 1.325 . S
H1120 C1062 0.929 . S
H1121 C1063 0.930 . S
H1122 C1064 0.930 . S
H1123 C1065 0.930 . S
H1124 C1067 0.930 . S
H1125 C1069 0.929 . S
H1126 C1070 0.930 . S
H1127 C1071 0.930 . S
H1128 C1074 0.930 . S
H1129 C1077 0.929 . S
H1130 C1082 0.929 . S
H1131 C1083 0.930 . S
H1132 C1090 0.929 . S
H1133 C1091 0.930 . S
H1134 C1092 0.930 . S
H1135 C1093 0.930 . S
H1136 C1095 0.929 . S
H1137 C1096 0.930 . S
H1138 C1097 0.930 . S
H1139 C1098 0.930 . S
H1140 C1102 0.929 . S
H1141 C1104 0.930 . S
H1142 C1110 0.929 . S
H1143 C1111 0.930 . S
Li1144 N1161 1.990 . S
Li1144 O1204 1.956 . S
Li1144 O1205 1.970 . S
Li1144 O1206 1.961 . S
Li1145 N1169 1.990 . S
Li1145 O1204 1.970 . S
Li1145 O1205 1.956 . S
Li1145 O1207 1.961 . S
Li1146 N1191 1.990 . S
Li1146 O1204 1.961 . S
Li1146 O1206 1.956 . S
Li1146 O1207 1.970 . S
Li1147 N1197 1.990 1_455 S
Li1147 O1205 1.961 . S
Li1147 O1206 1.970 . S
Li1147 O1207 1.956 . S
C1148 C1150 1.348 . S
C1148 C1151 1.356 . S
C1148 O1204 1.325 . S
N1149 C1152 1.314 . S
N1149 C1153 1.279 . S
C1150 C1148 1.348 . S
C1150 C1152 1.353 . S
C1150 H1208 0.929 . S
C1151 C1148 1.356 . S
C1151 C1153 1.358 . S
C1151 H1209 0.930 . S
C1152 N1149 1.314 . S
C1152 C1150 1.353 . S
C1152 H1210 0.930 . S
C1153 N1149 1.279 . S
C1153 C1151 1.358 . S
C1153 H1211 0.930 . S
C1154 C1157 1.348 . S
C1154 C1158 1.356 . S
C1154 O1205 1.325 . S
C1155 N1156 1.279 . S
C1155 C1158 1.358 . S
C1155 H1212 0.930 . S
N1156 C1155 1.279 . S
N1156 C1159 1.314 . S
C1157 C1154 1.348 . S
C1157 C1159 1.353 . S
C1157 H1213 0.929 . S
C1158 C1154 1.356 . S
C1158 C1155 1.358 . S
C1158 H1214 0.930 . S
C1159 N1156 1.314 . S
C1159 C1157 1.353 . S
C1159 H1215 0.930 . S
C1160 N1161 1.314 . S
C1160 C1165 1.353 . S
C1160 H1166 0.930 1_455 S
N1161 Li1144 1.990 . S
N1161 C1160 1.314 . S
N1161 C1163 1.279 . S
C1162 C1163 1.358 . S
C1162 C1164 1.356 . S
C1162 H1216 0.930 . S
C1163 N1161 1.279 . S
C1163 C1162 1.358 . S
C1163 H1167 0.930 . S
C1164 C1162 1.356 . S
C1164 C1165 1.348 . S
C1165 C1160 1.353 . S
C1165 C1164 1.348 . S
C1165 H1217 0.929 1_455 S
H1166 C1160 0.930 1_655 S
H1167 C1163 0.930 . S
C1168 N1169 1.314 . S
C1168 C1170 1.353 . S
C1168 H1174 0.930 . S
N1169 Li1145 1.990 . S
N1169 C1168 1.314 . S
N1169 C1172 1.279 . S
C1170 C1168 1.353 . S
C1170 C1173 1.348 . S
C1170 H1218 0.929 . S
C1171 C1172 1.358 . S
C1171 C1173 1.356 . S
C1171 H1219 0.930 . S
C1172 N1169 1.279 . S
C1172 C1171 1.358 . S
C1172 H1175 0.930 . S
C1173 C1170 1.348 . S
C1173 C1171 1.356 . S
H1174 C1168 0.930 . S
H1175 C1172 0.930 . S
C1176 C1178 1.348 . S
C1176 C1179 1.356 . S
C1176 O1206 1.325 1_655 S
N1177 C1180 1.314 . S
N1177 C1181 1.279 . S
C1178 C1176 1.348 . S
C1178 C1180 1.353 . S
C1178 H1220 0.929 . S
C1179 C1176 1.356 . S
C1179 C1181 1.358 . S
C1179 H1221 0.932 . S
C1180 N1177 1.314 . S
C1180 C1178 1.353 . S
C1180 H1222 0.930 . S
C1181 N1177 1.279 . S
C1181 C1179 1.358 . S
C1181 H1223 0.930 . S
C1182 C1183 1.348 . S
C1182 C1184 1.356 . S
C1182 O1207 1.325 . S
C1183 C1182 1.348 . S
C1183 C1185 1.353 . S
C1183 H1224 0.929 . S
C1184 C1182 1.356 . S
C1184 C1186 1.358 . S
C1184 H1225 0.930 . S
C1185 C1183 1.353 . S
C1185 N1187 1.314 . S
C1185 H1226 0.930 . S
C1186 C1184 1.358 . S
C1186 N1187 1.279 . S
C1186 H1227 0.930 . S
N1187 C1185 1.314 . S
N1187 C1186 1.279 . S
C1188 C1190 1.353 . S
C1188 N1191 1.314 . S
C1188 H1194 0.930 . S
C1189 N1191 1.279 . S
C1189 C1192 1.358 . S
C1189 H1195 0.930 1_455 S
C1190 C1188 1.353 . S
C1190 C1193 1.348 . S
C1190 H1228 0.929 . S
N1191 Li1146 1.990 . S
N1191 C1188 1.314 . S
N1191 C1189 1.279 . S
C1192 C1189 1.358 . S
C1192 C1193 1.356 . S
C1192 H1229 0.930 1_455 S
C1193 C1190 1.348 . S
C1193 C1192 1.356 . S
H1194 C1188 0.930 . S
H1195 C1189 0.930 1_655 S
C1196 N1197 1.314 . S
C1196 C1198 1.353 . S
C1196 H1202 0.930 . S
N1197 Li1147 1.990 1_655 S
N1197 C1196 1.314 . S
N1197 C1200 1.279 . S
C1198 C1196 1.353 . S
C1198 C1201 1.348 . S
C1198 H1230 0.929 . S
C1199 C1200 1.358 . S
C1199 C1201 1.356 . S
C1199 H1231 0.930 . S
C1200 N1197 1.279 . S
C1200 C1199 1.358 . S
C1200 H1203 0.930 . S
C1201 C1198 1.348 . S
C1201 C1199 1.356 . S
H1202 C1196 0.930 . S
H1203 C1200 0.930 . S
O1204 Li1144 1.956 . S
O1204 Li1145 1.970 . S
O1204 Li1146 1.961 . S
O1204 C1148 1.325 . S
O1205 Li1144 1.970 . S
O1205 Li1145 1.956 . S
O1205 Li1147 1.961 . S
O1205 C1154 1.325 . S
O1206 Li1144 1.961 . S
O1206 Li1146 1.956 . S
O1206 Li1147 1.970 . S
O1206 C1176 1.325 1_455 S
O1207 Li1145 1.961 . S
O1207 Li1146 1.970 . S
O1207 Li1147 1.956 . S
O1207 C1182 1.325 . S
H1208 C1150 0.929 . S
H1209 C1151 0.930 . S
H1210 C1152 0.930 . S
H1211 C1153 0.930 . S
H1212 C1155 0.930 . S
H1213 C1157 0.929 . S
H1214 C1158 0.930 . S
H1215 C1159 0.930 . S
H1216 C1162 0.930 . S
H1217 C1165 0.929 1_655 S
H1218 C1170 0.929 . S
H1219 C1171 0.930 . S
H1220 C1178 0.929 . S
H1221 C1179 0.932 . S
H1222 C1180 0.930 . S
H1223 C1181 0.930 . S
H1224 C1183 0.929 . S
H1225 C1184 0.930 . S
H1226 C1185 0.930 . S
H1227 C1186 0.930 . S
H1228 C1190 0.929 . S
H1229 C1192 0.930 1_655 S
H1230 C1198 0.929 . S
H1231 C1199 0.930 . S
Li1232 N1249 1.990 . S
Li1232 O1292 1.956 . S
Li1232 O1293 1.970 . S
Li1232 O1294 1.961 . S
Li1233 N1257 1.990 . S
Li1233 O1292 1.970 . S
Li1233 O1293 1.956 . S
Li1233 O1295 1.961 . S
Li1234 N1279 1.990 . S
Li1234 O1292 1.961 . S
Li1234 O1294 1.956 . S
Li1234 O1295 1.970 . S
Li1235 N1285 1.990 . S
Li1235 O1293 1.961 . S
Li1235 O1294 1.970 . S
Li1235 O1295 1.956 . S
C1236 C1238 1.348 . S
C1236 C1239 1.356 . S
C1236 O1292 1.325 . S
N1237 C1240 1.314 . S
N1237 C1241 1.279 . S
C1238 C1236 1.348 . S
C1238 C1240 1.353 . S
C1238 H1296 0.929 . S
C1239 C1236 1.356 . S
C1239 C1241 1.358 . S
C1239 H1297 0.930 . S
C1240 N1237 1.314 . S
C1240 C1238 1.353 . S
C1240 H1298 0.930 . S
C1241 N1237 1.279 . S
C1241 C1239 1.358 . S
C1241 H1299 0.930 . S
C1242 C1245 1.348 . S
C1242 C1246 1.356 . S
C1242 O1293 1.325 . S
C1243 N1244 1.279 . S
C1243 C1246 1.358 . S
C1243 H1300 0.930 . S
N1244 C1243 1.279 . S
N1244 C1247 1.314 . S
C1245 C1242 1.348 . S
C1245 C1247 1.353 . S
C1245 H1301 0.929 . S
C1246 C1242 1.356 . S
C1246 C1243 1.358 . S
C1246 H1302 0.930 . S
C1247 N1244 1.314 . S
C1247 C1245 1.353 . S
C1247 H1303 0.930 . S
C1248 N1249 1.314 . S
C1248 C1253 1.353 . S
C1248 H1254 0.930 . S
N1249 Li1232 1.990 . S
N1249 C1248 1.314 . S
N1249 C1251 1.279 . S
C1250 C1251 1.358 . S
C1250 C1252 1.356 . S
C1250 H1304 0.930 . S
C1251 N1249 1.279 . S
C1251 C1250 1.358 . S
C1251 H1255 0.930 . S
C1252 C1250 1.356 . S
C1252 C1253 1.348 . S
C1253 C1248 1.353 . S
C1253 C1252 1.348 . S
C1253 H1305 0.929 . S
H1254 C1248 0.930 . S
H1255 C1251 0.930 . S
C1256 N1257 1.314 . S
C1256 C1258 1.353 . S
C1256 H1262 0.930 . S
N1257 Li1233 1.990 . S
N1257 C1256 1.314 . S
N1257 C1260 1.279 . S
C1258 C1256 1.353 . S
C1258 C1261 1.348 . S
C1258 H1306 0.929 . S
C1259 C1260 1.358 . S
C1259 C1261 1.356 . S
C1259 H1307 0.930 . S
C1260 N1257 1.279 . S
C1260 C1259 1.358 . S
C1260 H1263 0.930 . S
C1261 C1258 1.348 . S
C1261 C1259 1.356 . S
H1262 C1256 0.930 . S
H1263 C1260 0.930 . S
C1264 C1266 1.348 . S
C1264 C1267 1.356 . S
C1264 O1294 1.325 . S
N1265 C1268 1.314 . S
N1265 C1269 1.279 . S
C1266 C1264 1.348 . S
C1266 C1268 1.353 . S
C1266 H1308 0.929 . S
C1267 C1264 1.356 . S
C1267 C1269 1.358 . S
C1267 H1309 0.930 . S
C1268 N1265 1.314 . S
C1268 C1266 1.353 . S
C1268 H1310 0.930 . S
C1269 N1265 1.279 . S
C1269 C1267 1.358 . S
C1269 H1311 0.930 . S
C1270 C1271 1.348 . S
C1270 C1272 1.356 . S
C1270 O1295 1.325 . S
C1271 C1270 1.348 . S
C1271 C1273 1.353 . S
C1271 H1312 0.929 . S
C1272 C1270 1.356 . S
C1272 C1274 1.358 . S
C1272 H1313 0.930 . S
C1273 C1271 1.353 . S
C1273 N1275 1.314 . S
C1273 H1314 0.930 . S
C1274 C1272 1.358 . S
C1274 N1275 1.279 . S
C1274 H1315 0.930 . S
N1275 C1273 1.314 . S
N1275 C1274 1.279 . S
C1276 C1278 1.353 . S
C1276 N1279 1.314 . S
C1276 H1282 0.930 . S
C1277 N1279 1.279 . S
C1277 C1280 1.358 . S
C1277 H1283 0.930 . S
C1278 C1276 1.353 . S
C1278 C1281 1.348 . S
C1278 H1316 0.929 . S
N1279 Li1234 1.990 . S
N1279 C1276 1.314 . S
N1279 C1277 1.279 . S
C1280 C1277 1.358 . S
C1280 C1281 1.356 . S
C1280 H1317 0.930 . S
C1281 C1278 1.348 . S
C1281 C1280 1.356 . S
H1282 C1276 0.930 . S
H1283 C1277 0.930 . S
C1284 N1285 1.314 . S
C1284 C1286 1.353 . S
C1284 H1290 0.930 . S
N1285 Li1235 1.990 . S
N1285 C1284 1.314 . S
N1285 C1288 1.279 . S
C1286 C1284 1.353 . S
C1286 C1289 1.348 . S
C1286 H1318 0.929 . S
C1287 C1288 1.358 . S
C1287 C1289 1.356 . S
C1287 H1319 0.930 . S
C1288 N1285 1.279 . S
C1288 C1287 1.358 . S
C1288 H1291 0.930 . S
C1289 C1286 1.348 . S
C1289 C1287 1.356 . S
H1290 C1284 0.930 . S
H1291 C1288 0.930 . S
O1292 Li1232 1.956 . S
O1292 Li1233 1.970 . S
O1292 Li1234 1.961 . S
O1292 C1236 1.325 . S
O1293 Li1232 1.970 . S
O1293 Li1233 1.956 . S
O1293 Li1235 1.961 . S
O1293 C1242 1.325 . S
O1294 Li1232 1.961 . S
O1294 Li1234 1.956 . S
O1294 Li1235 1.970 . S
O1294 C1264 1.325 . S
O1295 Li1233 1.961 . S
O1295 Li1234 1.970 . S
O1295 Li1235 1.956 . S
O1295 C1270 1.325 . S
H1296 C1238 0.929 . S
H1297 C1239 0.930 . S
H1298 C1240 0.930 . S
H1299 C1241 0.930 . S
H1300 C1243 0.930 . S
H1301 C1245 0.929 . S
H1302 C1246 0.930 . S
H1303 C1247 0.930 . S
H1304 C1250 0.930 . S
H1305 C1253 0.929 . S
H1306 C1258 0.929 . S
H1307 C1259 0.930 . S
H1308 C1266 0.929 . S
H1309 C1267 0.930 . S
H1310 C1268 0.930 . S
H1311 C1269 0.930 . S
H1312 C1271 0.929 . S
H1313 C1272 0.930 . S
H1314 C1273 0.930 . S
H1315 C1274 0.930 . S
H1316 C1278 0.929 . S
H1317 C1280 0.930 . S
H1318 C1286 0.929 . S
H1319 C1287 0.930 . S
Li1320 N1337 1.990 . S
Li1320 O1380 1.956 . S
Li1320 O1381 1.970 . S
Li1320 O1382 1.961 . S
Li1321 N1345 1.990 . S
Li1321 O1380 1.970 . S
Li1321 O1381 1.956 . S
Li1321 O1383 1.961 . S
Li1322 N1367 1.990 . S
Li1322 O1380 1.961 . S
Li1322 O1382 1.956 . S
Li1322 O1383 1.970 . S
Li1323 N1373 1.990 . S
Li1323 O1381 1.961 . S
Li1323 O1382 1.970 . S
Li1323 O1383 1.956 . S
C1324 C1326 1.348 . S
C1324 C1327 1.356 . S
C1324 O1380 1.325 . S
N1325 C1328 1.314 . S
N1325 C1329 1.279 . S
C1326 C1324 1.348 . S
C1326 C1328 1.353 . S
C1326 H1384 0.929 . S
C1327 C1324 1.356 . S
C1327 C1329 1.358 . S
C1327 H1385 0.930 . S
C1328 N1325 1.314 . S
C1328 C1326 1.353 . S
C1328 H1386 0.930 . S
C1329 N1325 1.279 . S
C1329 C1327 1.358 . S
C1329 H1387 0.930 . S
C1330 C1333 1.348 . S
C1330 C1334 1.356 . S
C1330 O1381 1.325 . S
C1331 N1332 1.279 . S
C1331 C1334 1.358 . S
C1331 H1388 0.930 . S
N1332 C1331 1.279 . S
N1332 C1335 1.314 . S
C1333 C1330 1.348 . S
C1333 C1335 1.353 . S
C1333 H1389 0.929 . S
C1334 C1330 1.356 . S
C1334 C1331 1.358 . S
C1334 H1390 0.930 . S
C1335 N1332 1.314 . S
C1335 C1333 1.353 . S
C1335 H1391 0.930 . S
C1336 N1337 1.314 . S
C1336 C1341 1.353 . S
C1336 H1342 0.930 . S
N1337 Li1320 1.990 . S
N1337 C1336 1.314 . S
N1337 C1339 1.279 . S
C1338 C1339 1.358 . S
C1338 C1340 1.356 . S
C1338 H1392 0.930 . S
C1339 N1337 1.279 . S
C1339 C1338 1.358 . S
C1339 H1343 0.930 . S
C1340 C1338 1.356 . S
C1340 C1341 1.348 . S
C1341 C1336 1.353 . S
C1341 C1340 1.348 . S
C1341 H1393 0.929 . S
H1342 C1336 0.930 . S
H1343 C1339 0.930 . S
C1344 N1345 1.314 . S
C1344 C1346 1.353 . S
C1344 H1350 0.930 . S
N1345 Li1321 1.990 . S
N1345 C1344 1.314 . S
N1345 C1348 1.279 . S
C1346 C1344 1.353 . S
C1346 C1349 1.348 . S
C1346 H1394 0.929 . S
C1347 C1348 1.358 . S
C1347 C1349 1.356 . S
C1347 H1395 0.930 . S
C1348 N1345 1.279 . S
C1348 C1347 1.358 . S
C1348 H1351 0.930 . S
C1349 C1346 1.348 . S
C1349 C1347 1.356 . S
H1350 C1344 0.930 . S
H1351 C1348 0.930 . S
C1352 C1354 1.348 . S
C1352 C1355 1.356 . S
C1352 O1382 1.325 . S
N1353 C1356 1.314 . S
N1353 C1357 1.279 . S
C1354 C1352 1.348 . S
C1354 C1356 1.353 . S
C1354 H1396 0.929 . S
C1355 C1352 1.356 . S
C1355 C1357 1.358 . S
C1355 H1397 0.930 . S
C1356 N1353 1.314 . S
C1356 C1354 1.353 . S
C1356 H1398 0.930 . S
C1357 N1353 1.279 . S
C1357 C1355 1.358 . S
C1357 H1399 0.930 . S
C1358 C1359 1.348 . S
C1358 C1360 1.356 . S
C1358 O1383 1.325 . S
C1359 C1358 1.348 . S
C1359 C1361 1.353 . S
C1359 H1400 0.929 . S
C1360 C1358 1.356 . S
C1360 C1362 1.358 . S
C1360 H1401 0.930 . S
C1361 C1359 1.353 . S
C1361 N1363 1.314 . S
C1361 H1402 0.930 . S
C1362 C1360 1.358 . S
C1362 N1363 1.279 . S
C1362 H1403 0.930 . S
N1363 C1361 1.314 . S
N1363 C1362 1.279 . S
C1364 C1366 1.353 . S
C1364 N1367 1.314 . S
C1364 H1370 0.930 . S
C1365 N1367 1.279 . S
C1365 C1368 1.358 . S
C1365 H1371 0.930 . S
C1366 C1364 1.353 . S
C1366 C1369 1.348 . S
C1366 H1404 0.929 . S
N1367 Li1322 1.990 . S
N1367 C1364 1.314 . S
N1367 C1365 1.279 . S
C1368 C1365 1.358 . S
C1368 C1369 1.356 . S
C1368 H1405 0.930 . S
C1369 C1366 1.348 . S
C1369 C1368 1.356 . S
H1370 C1364 0.930 . S
H1371 C1365 0.930 . S
C1372 N1373 1.314 . S
C1372 C1374 1.353 . S
C1372 H1378 0.930 . S
N1373 Li1323 1.990 . S
N1373 C1372 1.314 . S
N1373 C1376 1.279 . S
C1374 C1372 1.353 . S
C1374 C1377 1.348 . S
C1374 H1406 0.929 . S
C1375 C1376 1.358 . S
C1375 C1377 1.356 . S
C1375 H1407 0.930 . S
C1376 N1373 1.279 . S
C1376 C1375 1.358 . S
C1376 H1379 0.930 . S
C1377 C1374 1.348 . S
C1377 C1375 1.356 . S
H1378 C1372 0.930 . S
H1379 C1376 0.930 . S
O1380 Li1320 1.956 . S
O1380 Li1321 1.970 . S
O1380 Li1322 1.961 . S
O1380 C1324 1.325 . S
O1381 Li1320 1.970 . S
O1381 Li1321 1.956 . S
O1381 Li1323 1.961 . S
O1381 C1330 1.325 . S
O1382 Li1320 1.961 . S
O1382 Li1322 1.956 . S
O1382 Li1323 1.970 . S
O1382 C1352 1.325 . S
O1383 Li1321 1.961 . S
O1383 Li1322 1.970 . S
O1383 Li1323 1.956 . S
O1383 C1358 1.325 . S
H1384 C1326 0.929 . S
H1385 C1327 0.930 . S
H1386 C1328 0.930 . S
H1387 C1329 0.930 . S
H1388 C1331 0.930 . S
H1389 C1333 0.929 . S
H1390 C1334 0.930 . S
H1391 C1335 0.930 . S
H1392 C1338 0.930 . S
H1393 C1341 0.929 . S
H1394 C1346 0.929 . S
H1395 C1347 0.930 . S
H1396 C1354 0.929 . S
H1397 C1355 0.930 . S
H1398 C1356 0.930 . S
H1399 C1357 0.930 . S
H1400 C1359 0.929 . S
H1401 C1360 0.930 . S
H1402 C1361 0.930 . S
H1403 C1362 0.930 . S
H1404 C1366 0.929 . S
H1405 C1368 0.930 . S
H1406 C1374 0.929 . S
H1407 C1375 0.930 . S
Li1408 N1425 1.990 . S
Li1408 O1468 1.956 1_545 S
Li1408 O1469 1.970 . S
Li1408 O1470 1.961 . S
Li1409 N1433 1.990 . S
Li1409 O1468 1.970 . S
Li1409 O1469 1.956 1_565 S
Li1409 O1471 1.961 1_565 S
Li1410 N1455 1.990 . S
Li1410 O1468 1.961 1_545 S
Li1410 O1470 1.956 . S
Li1410 O1471 1.970 . S
Li1411 N1461 1.990 . S
Li1411 O1469 1.961 . S
Li1411 O1470 1.970 . S
Li1411 O1471 1.956 . S
C1412 C1414 1.348 . S
C1412 C1415 1.356 . S
C1412 O1468 1.325 . S
N1413 C1416 1.314 . S
N1413 C1417 1.279 . S
C1414 C1412 1.348 . S
C1414 C1416 1.353 . S
C1414 H1472 0.929 . S
C1415 C1412 1.356 . S
C1415 C1417 1.358 . S
C1415 H1473 0.930 . S
C1416 N1413 1.314 . S
C1416 C1414 1.353 . S
C1416 H1474 0.930 . S
C1417 N1413 1.279 . S
C1417 C1415 1.358 . S
C1417 H1475 0.930 . S
C1418 C1421 1.348 1_545 S
C1418 C1422 1.356 . S
C1418 O1469 1.325 . S
C1419 N1420 1.279 . S
C1419 C1422 1.358 . S
C1419 H1476 0.930 . S
N1420 C1419 1.279 . S
N1420 C1423 1.314 1_545 S
C1421 C1418 1.348 1_565 S
C1421 C1423 1.353 . S
C1421 H1477 0.929 . S
C1422 C1418 1.356 . S
C1422 C1419 1.358 . S
C1422 H1478 0.930 . S
C1423 N1420 1.314 1_565 S
C1423 C1421 1.353 . S
C1423 H1479 0.930 . S
C1424 N1425 1.314 . S
C1424 C1429 1.353 . S
C1424 H1430 0.930 . S
N1425 Li1408 1.990 . S
N1425 C1424 1.314 . S
N1425 C1427 1.279 1_545 S
C1426 C1427 1.358 . S
C1426 C1428 1.356 1_565 S
C1426 H1480 0.930 . S
C1427 N1425 1.279 1_565 S
C1427 C1426 1.358 . S
C1427 H1431 0.930 . S
C1428 C1426 1.356 1_545 S
C1428 C1429 1.348 . S
C1429 C1424 1.353 . S
C1429 C1428 1.348 . S
C1429 H1481 0.929 . S
H1430 C1424 0.930 . S
H1431 C1427 0.930 . S
C1432 N1433 1.314 . S
C1432 C1434 1.353 . S
C1432 H1438 0.930 . S
N1433 Li1409 1.990 . S
N1433 C1432 1.314 . S
N1433 C1436 1.279 . S
C1434 C1432 1.353 . S
C1434 C1437 1.348 . S
C1434 H1482 0.929 . S
C1435 C1436 1.358 . S
C1435 C1437 1.356 . S
C1435 H1483 0.930 . S
C1436 N1433 1.279 . S
C1436 C1435 1.358 . S
C1436 H1439 0.930 . S
C1437 C1434 1.348 . S
C1437 C1435 1.356 . S
H1438 C1432 0.930 . S
H1439 C1436 0.930 . S
C1440 C1442 1.348 . S
C1440 C1443 1.356 . S
C1440 O1470 1.325 . S
N1441 C1444 1.314 . S
N1441 C1445 1.279 . S
C1442 C1440 1.348 . S
C1442 C1444 1.353 . S
C1442 H1484 0.929 . S
C1443 C1440 1.356 . S
C1443 C1445 1.358 . S
C1443 H1485 0.930 . S
C1444 N1441 1.314 . S
C1444 C1442 1.353 . S
C1444 H1486 0.930 . S
C1445 N1441 1.279 . S
C1445 C1443 1.358 . S
C1445 H1487 0.930 . S
C1446 C1447 1.348 . S
C1446 C1448 1.356 . S
C1446 O1471 1.325 . S
C1447 C1446 1.348 . S
C1447 C1449 1.353 . S
C1447 H1488 0.929 . S
C1448 C1446 1.356 . S
C1448 C1450 1.358 . S
C1448 H1489 0.930 1_545 S
C1449 C1447 1.353 . S
C1449 N1451 1.314 . S
C1449 H1490 0.930 . S
C1450 C1448 1.358 . S
C1450 N1451 1.279 . S
C1450 H1491 0.930 1_545 S
N1451 C1449 1.314 . S
N1451 C1450 1.279 . S
C1452 C1454 1.353 . S
C1452 N1455 1.314 1_565 S
C1452 H1458 0.930 . S
C1453 N1455 1.279 . S
C1453 C1456 1.358 . S
C1453 H1459 0.930 . S
C1454 C1452 1.353 . S
C1454 C1457 1.348 1_565 S
C1454 H1492 0.929 . S
N1455 Li1410 1.990 . S
N1455 C1452 1.314 1_545 S
N1455 C1453 1.279 . S
C1456 C1453 1.358 . S
C1456 C1457 1.356 . S
C1456 H1493 0.930 . S
C1457 C1454 1.348 1_545 S
C1457 C1456 1.356 . S
H1458 C1452 0.930 . S
H1459 C1453 0.930 . S
C1460 N1461 1.314 . S
C1460 C1462 1.353 . S
C1460 H1466 0.930 . S
N1461 Li1411 1.990 . S
N1461 C1460 1.314 . S
N1461 C1464 1.279 . S
C1462 C1460 1.353 . S
C1462 C1465 1.348 . S
C1462 H1494 0.929 . S
C1463 C1464 1.358 . S
C1463 C1465 1.356 . S
C1463 H1495 0.930 . S
C1464 N1461 1.279 . S
C1464 C1463 1.358 . S
C1464 H1467 0.930 . S
C1465 C1462 1.348 . S
C1465 C1463 1.356 . S
H1466 C1460 0.930 . S
H1467 C1464 0.930 . S
O1468 Li1408 1.956 1_565 S
O1468 Li1409 1.970 . S
O1468 Li1410 1.961 1_565 S
O1468 C1412 1.325 . S
O1469 Li1408 1.970 . S
O1469 Li1409 1.956 1_545 S
O1469 Li1411 1.961 . S
O1469 C1418 1.325 . S
O1470 Li1408 1.961 . S
O1470 Li1410 1.956 . S
O1470 Li1411 1.970 . S
O1470 C1440 1.325 . S
O1471 Li1409 1.961 1_545 S
O1471 Li1410 1.970 . S
O1471 Li1411 1.956 . S
O1471 C1446 1.325 . S
H1472 C1414 0.929 . S
H1473 C1415 0.930 . S
H1474 C1416 0.930 . S
H1475 C1417 0.930 . S
H1476 C1419 0.930 . S
H1477 C1421 0.929 . S
H1478 C1422 0.930 . S
H1479 C1423 0.930 . S
H1480 C1426 0.930 . S
H1481 C1429 0.929 . S
H1482 C1434 0.929 . S
H1483 C1435 0.930 . S
H1484 C1442 0.929 . S
H1485 C1443 0.930 . S
H1486 C1444 0.930 . S
H1487 C1445 0.930 . S
H1488 C1447 0.929 . S
H1489 C1448 0.930 1_565 S
H1490 C1449 0.930 . S
H1491 C1450 0.930 1_565 S
H1492 C1454 0.929 . S
H1493 C1456 0.930 . S
H1494 C1462 0.929 . S
H1495 C1463 0.930 . S
Li1496 N1513 1.990 . S
Li1496 O1556 1.956 . S
Li1496 O1557 1.970 . S
Li1496 O1558 1.961 . S
Li1497 N1521 1.990 . S
Li1497 O1556 1.970 . S
Li1497 O1557 1.956 . S
Li1497 O1559 1.961 . S
Li1498 N1543 1.990 . S
Li1498 O1556 1.961 . S
Li1498 O1558 1.956 . S
Li1498 O1559 1.970 . S
Li1499 N1549 1.990 . S
Li1499 O1557 1.961 . S
Li1499 O1558 1.970 . S
Li1499 O1559 1.956 . S
C1500 C1502 1.348 . S
C1500 C1503 1.356 . S
C1500 O1556 1.325 . S
N1501 C1504 1.314 . S
N1501 C1505 1.279 . S
C1502 C1500 1.348 . S
C1502 C1504 1.353 . S
C1502 H1560 0.929 . S
C1503 C1500 1.356 . S
C1503 C1505 1.358 . S
C1503 H1561 0.930 . S
C1504 N1501 1.314 . S
C1504 C1502 1.353 . S
C1504 H1562 0.930 . S
C1505 N1501 1.279 . S
C1505 C1503 1.358 . S
C1505 H1563 0.930 . S
C1506 C1509 1.348 . S
C1506 C1510 1.356 . S
C1506 O1557 1.325 . S
C1507 N1508 1.279 . S
C1507 C1510 1.358 . S
C1507 H1564 0.930 . S
N1508 C1507 1.279 . S
N1508 C1511 1.314 . S
C1509 C1506 1.348 . S
C1509 C1511 1.353 . S
C1509 H1565 0.929 . S
C1510 C1506 1.356 . S
C1510 C1507 1.358 . S
C1510 H1566 0.930 . S
C1511 N1508 1.314 . S
C1511 C1509 1.353 . S
C1511 H1567 0.930 . S
C1512 N1513 1.314 . S
C1512 C1517 1.353 . S
C1512 H1518 0.930 . S
N1513 Li1496 1.990 . S
N1513 C1512 1.314 . S
N1513 C1515 1.279 . S
C1514 C1515 1.358 . S
C1514 C1516 1.356 . S
C1514 H1568 0.930 . S
C1515 N1513 1.279 . S
C1515 C1514 1.358 . S
C1515 H1519 0.930 . S
C1516 C1514 1.356 . S
C1516 C1517 1.348 . S
C1517 C1512 1.353 . S
C1517 C1516 1.348 . S
C1517 H1569 0.929 . S
H1518 C1512 0.930 . S
H1519 C1515 0.930 . S
C1520 N1521 1.314 . S
C1520 C1522 1.353 . S
C1520 H1526 0.930 . S
N1521 Li1497 1.990 . S
N1521 C1520 1.314 . S
N1521 C1524 1.279 . S
C1522 C1520 1.353 . S
C1522 C1525 1.348 . S
C1522 H1570 0.929 . S
C1523 C1524 1.358 . S
C1523 C1525 1.356 . S
C1523 H1571 0.930 . S
C1524 N1521 1.279 . S
C1524 C1523 1.358 . S
C1524 H1527 0.930 . S
C1525 C1522 1.348 . S
C1525 C1523 1.356 . S
H1526 C1520 0.930 . S
H1527 C1524 0.930 . S
C1528 C1530 1.348 . S
C1528 C1531 1.356 . S
C1528 O1558 1.325 . S
N1529 C1532 1.314 . S
N1529 C1533 1.279 . S
C1530 C1528 1.348 . S
C1530 C1532 1.353 . S
C1530 H1572 0.929 . S
C1531 C1528 1.356 . S
C1531 C1533 1.358 . S
C1531 H1573 0.930 . S
C1532 N1529 1.314 . S
C1532 C1530 1.353 . S
C1532 H1574 0.930 . S
C1533 N1529 1.279 . S
C1533 C1531 1.358 . S
C1533 H1575 0.930 . S
C1534 C1535 1.348 . S
C1534 C1536 1.356 . S
C1534 O1559 1.325 . S
C1535 C1534 1.348 . S
C1535 C1537 1.353 . S
C1535 H1576 0.929 . S
C1536 C1534 1.356 . S
C1536 C1538 1.358 . S
C1536 H1577 0.930 . S
C1537 C1535 1.353 . S
C1537 N1539 1.314 . S
C1537 H1578 0.930 . S
C1538 C1536 1.358 . S
C1538 N1539 1.279 . S
C1538 H1579 0.930 . S
N1539 C1537 1.314 . S
N1539 C1538 1.279 . S
C1540 C1542 1.353 . S
C1540 N1543 1.314 . S
C1540 H1546 0.930 . S
C1541 N1543 1.279 . S
C1541 C1544 1.358 . S
C1541 H1547 0.930 . S
C1542 C1540 1.353 . S
C1542 C1545 1.348 . S
C1542 H1580 0.929 . S
N1543 Li1498 1.990 . S
N1543 C1540 1.314 . S
N1543 C1541 1.279 . S
C1544 C1541 1.358 . S
C1544 C1545 1.356 . S
C1544 H1581 0.930 . S
C1545 C1542 1.348 . S
C1545 C1544 1.356 . S
H1546 C1540 0.930 . S
H1547 C1541 0.930 . S
C1548 N1549 1.314 . S
C1548 C1550 1.353 . S
C1548 H1554 0.930 . S
N1549 Li1499 1.990 . S
N1549 C1548 1.314 . S
N1549 C1552 1.279 . S
C1550 C1548 1.353 . S
C1550 C1553 1.348 . S
C1550 H1582 0.929 . S
C1551 C1552 1.358 . S
C1551 C1553 1.356 . S
C1551 H1583 0.930 . S
C1552 N1549 1.279 . S
C1552 C1551 1.358 . S
C1552 H1555 0.930 . S
C1553 C1550 1.348 . S
C1553 C1551 1.356 . S
H1554 C1548 0.930 . S
H1555 C1552 0.930 . S
O1556 Li1496 1.956 . S
O1556 Li1497 1.970 . S
O1556 Li1498 1.961 . S
O1556 C1500 1.325 . S
O1557 Li1496 1.970 . S
O1557 Li1497 1.956 . S
O1557 Li1499 1.961 . S
O1557 C1506 1.325 . S
O1558 Li1496 1.961 . S
O1558 Li1498 1.956 . S
O1558 Li1499 1.970 . S
O1558 C1528 1.325 . S
O1559 Li1497 1.961 . S
O1559 Li1498 1.970 . S
O1559 Li1499 1.956 . S
O1559 C1534 1.325 . S
H1560 C1502 0.929 . S
H1561 C1503 0.930 . S
H1562 C1504 0.930 . S
H1563 C1505 0.930 . S
H1564 C1507 0.930 . S
H1565 C1509 0.929 . S
H1566 C1510 0.930 . S
H1567 C1511 0.930 . S
H1568 C1514 0.930 . S
H1569 C1517 0.929 . S
H1570 C1522 0.929 . S
H1571 C1523 0.930 . S
H1572 C1530 0.929 . S
H1573 C1531 0.930 . S
H1574 C1532 0.930 . S
H1575 C1533 0.930 . S
H1576 C1535 0.929 . S
H1577 C1536 0.930 . S
H1578 C1537 0.930 . S
H1579 C1538 0.930 . S
H1580 C1542 0.929 . S
H1581 C1544 0.930 . S
H1582 C1550 0.929 . S
H1583 C1551 0.930 . S
Li1584 N1601 1.990 . S
Li1584 O1644 1.956 . S
Li1584 O1645 1.970 . S
Li1584 O1646 1.961 1_545 S
Li1585 N1609 1.990 . S
Li1585 O1644 1.970 . S
Li1585 O1645 1.956 . S
Li1585 O1647 1.961 . S
Li1586 N1631 1.990 . S
Li1586 O1644 1.961 . S
Li1586 O1646 1.956 1_545 S
Li1586 O1647 1.970 . S
Li1587 N1637 1.990 . S
Li1587 O1645 1.961 1_565 S
Li1587 O1646 1.970 . S
Li1587 O1647 1.956 1_565 S
C1588 C1590 1.348 . S
C1588 C1591 1.356 . S
C1588 O1644 1.325 . S
N1589 C1592 1.314 . S
N1589 C1593 1.279 . S
C1590 C1588 1.348 . S
C1590 C1592 1.353 . S
C1590 H1648 0.929 . S
C1591 C1588 1.356 . S
C1591 C1593 1.358 . S
C1591 H1649 0.930 . S
C1592 N1589 1.314 . S
C1592 C1590 1.353 . S
C1592 H1650 0.930 . S
C1593 N1589 1.279 . S
C1593 C1591 1.358 . S
C1593 H1651 0.930 . S
C1594 C1597 1.348 . S
C1594 C1598 1.356 . S
C1594 O1645 1.325 . S
C1595 N1596 1.279 . S
C1595 C1598 1.358 . S
C1595 H1652 0.930 . S
N1596 C1595 1.279 . S
N1596 C1599 1.314 . S
C1597 C1594 1.348 . S
C1597 C1599 1.353 . S
C1597 H1653 0.929 . S
C1598 C1594 1.356 . S
C1598 C1595 1.358 . S
C1598 H1654 0.930 . S
C1599 N1596 1.314 . S
C1599 C1597 1.353 . S
C1599 H1655 0.930 . S
C1600 N1601 1.314 1_565 S
C1600 C1605 1.353 . S
C1600 H1606 0.930 . S
N1601 Li1584 1.990 . S
N1601 C1600 1.314 1_545 S
N1601 C1603 1.279 . S
C1602 C1603 1.358 . S
C1602 C1604 1.356 . S
C1602 H1656 0.930 . S
C1603 N1601 1.279 . S
C1603 C1602 1.358 . S
C1603 H1607 0.930 . S
C1604 C1602 1.356 . S
C1604 C1605 1.348 1_545 S
C1605 C1600 1.353 . S
C1605 C1604 1.348 1_565 S
C1605 H1657 0.929 . S
H1606 C1600 0.930 . S
H1607 C1603 0.930 . S
C1608 N1609 1.314 . S
C1608 C1610 1.353 . S
C1608 H1614 0.930 . S
N1609 Li1585 1.990 . S
N1609 C1608 1.314 . S
N1609 C1612 1.279 . S
C1610 C1608 1.353 . S
C1610 C1613 1.348 . S
C1610 H1658 0.929 . S
C1611 C1612 1.358 . S
C1611 C1613 1.356 . S
C1611 H1659 0.930 . S
C1612 N1609 1.279 . S
C1612 C1611 1.358 . S
C1612 H1615 0.930 . S
C1613 C1610 1.348 . S
C1613 C1611 1.356 . S
H1614 C1608 0.930 . S
H1615 C1612 0.930 . S
C1616 C1618 1.348 . S
C1616 C1619 1.356 . S
C1616 O1646 1.325 . S
N1617 C1620 1.314 . S
N1617 C1621 1.279 . S
C1618 C1616 1.348 . S
C1618 C1620 1.353 . S
C1618 H1660 0.929 . S
C1619 C1616 1.356 . S
C1619 C1621 1.358 . S
C1619 H1661 0.930 . S
C1620 N1617 1.314 . S
C1620 C1618 1.353 . S
C1620 H1662 0.930 . S
C1621 N1617 1.279 . S
C1621 C1619 1.358 . S
C1621 H1663 0.930 . S
C1622 C1623 1.348 . S
C1622 C1624 1.356 . S
C1622 O1647 1.325 . S
C1623 C1622 1.348 . S
C1623 C1625 1.353 . S
C1623 H1664 0.929 . S
C1624 C1622 1.356 . S
C1624 C1626 1.358 . S
C1624 H1665 0.930 . S
C1625 C1623 1.353 . S
C1625 N1627 1.314 . S
C1625 H1666 0.930 . S
C1626 C1624 1.358 . S
C1626 N1627 1.279 . S
C1626 H1667 0.930 . S
N1627 C1625 1.314 . S
N1627 C1626 1.279 . S
C1628 C1630 1.353 . S
C1628 N1631 1.314 . S
C1628 H1634 0.930 . S
C1629 N1631 1.279 1_565 S
C1629 C1632 1.358 . S
C1629 H1635 0.930 . S
C1630 C1628 1.353 . S
C1630 C1633 1.348 . S
C1630 H1668 0.929 . S
N1631 Li1586 1.990 . S
N1631 C1628 1.314 . S
N1631 C1629 1.279 1_545 S
C1632 C1629 1.358 . S
C1632 C1633 1.356 1_565 S
C1632 H1669 0.930 . S
C1633 C1630 1.348 . S
C1633 C1632 1.356 1_545 S
H1634 C1628 0.930 . S
H1635 C1629 0.930 . S
C1636 N1637 1.314 . S
C1636 C1638 1.353 . S
C1636 H1642 0.930 . S
N1637 Li1587 1.990 . S
N1637 C1636 1.314 . S
N1637 C1640 1.279 . S
C1638 C1636 1.353 . S
C1638 C1641 1.348 . S
C1638 H1670 0.929 . S
C1639 C1640 1.358 . S
C1639 C1641 1.356 . S
C1639 H1671 0.930 . S
C1640 N1637 1.279 . S
C1640 C1639 1.358 . S
C1640 H1643 0.930 . S
C1641 C1638 1.348 . S
C1641 C1639 1.356 . S
H1642 C1636 0.930 . S
H1643 C1640 0.930 . S
O1644 Li1584 1.956 . S
O1644 Li1585 1.970 . S
O1644 Li1586 1.961 . S
O1644 C1588 1.325 . S
O1645 Li1584 1.970 . S
O1645 Li1585 1.956 . S
O1645 Li1587 1.961 1_545 S
O1645 C1594 1.325 . S
O1646 Li1584 1.961 1_565 S
O1646 Li1586 1.956 1_565 S
O1646 Li1587 1.970 . S
O1646 C1616 1.325 . S
O1647 Li1585 1.961 . S
O1647 Li1586 1.970 . S
O1647 Li1587 1.956 1_545 S
O1647 C1622 1.325 . S
H1648 C1590 0.929 . S
H1649 C1591 0.930 . S
H1650 C1592 0.930 . S
H1651 C1593 0.930 . S
H1652 C1595 0.930 . S
H1653 C1597 0.929 . S
H1654 C1598 0.930 . S
H1655 C1599 0.930 . S
H1656 C1602 0.930 . S
H1657 C1605 0.929 . S
H1658 C1610 0.929 . S
H1659 C1611 0.930 . S
H1660 C1618 0.929 . S
H1661 C1619 0.930 . S
H1662 C1620 0.930 . S
H1663 C1621 0.930 . S
H1664 C1623 0.929 . S
H1665 C1624 0.930 . S
H1666 C1625 0.930 . S
H1667 C1626 0.930 . S
H1668 C1630 0.929 . S
H1669 C1632 0.930 . S
H1670 C1638 0.929 . S
H1671 C1639 0.930 . S
Li1672 N1689 1.990 . S
Li1672 O1732 1.956 . S
Li1672 O1733 1.970 . S
Li1672 O1734 1.964 . S
Li1673 N1697 1.990 . S
Li1673 O1732 1.970 . S
Li1673 O1733 1.956 . S
Li1673 O1735 1.961 . S
Li1674 N1719 1.990 . S
Li1674 O1732 1.961 . S
Li1674 O1734 1.959 . S
Li1674 O1735 1.970 . S
Li1675 N1725 1.990 1_554 S
Li1675 O1733 1.961 . S
Li1675 O1734 1.971 . S
Li1675 O1735 1.956 . S
C1676 C1678 1.348 . S
C1676 C1679 1.356 . S
C1676 O1732 1.325 . S
N1677 C1680 1.314 . S
N1677 C1681 1.279 . S
C1678 C1676 1.348 . S
C1678 C1680 1.353 . S
C1678 H1736 0.929 . S
C1679 C1676 1.356 . S
C1679 C1681 1.358 . S
C1679 H1737 0.930 . S
C1680 N1677 1.314 . S
C1680 C1678 1.353 . S
C1680 H1738 0.930 . S
C1681 N1677 1.279 . S
C1681 C1679 1.358 . S
C1681 H1739 0.930 1_565 S
C1682 C1685 1.348 . S
C1682 C1686 1.356 . S
C1682 O1733 1.325 . S
C1683 N1684 1.279 . S
C1683 C1686 1.358 . S
C1683 H1740 0.930 . S
N1684 C1683 1.279 . S
N1684 C1687 1.314 . S
C1685 C1682 1.348 . S
C1685 C1687 1.353 . S
C1685 H1741 0.929 . S
C1686 C1682 1.356 . S
C1686 C1683 1.358 . S
C1686 H1742 0.930 . S
C1687 N1684 1.314 . S
C1687 C1685 1.353 . S
C1687 H1743 0.930 . S
C1688 N1689 1.314 . S
C1688 C1693 1.353 . S
C1688 H1694 0.930 1_554 S
N1689 Li1672 1.990 . S
N1689 C1688 1.314 . S
N1689 C1691 1.279 . S
C1690 C1691 1.358 . S
C1690 C1692 1.356 . S
C1690 H1744 0.930 . S
C1691 N1689 1.279 . S
C1691 C1690 1.358 . S
C1691 H1695 0.930 . S
C1692 C1690 1.356 . S
C1692 C1693 1.348 . S
C1693 C1688 1.353 . S
C1693 C1692 1.348 . S
C1693 H1745 0.929 1_554 S
H1694 C1688 0.930 1_556 S
H1695 C1691 0.930 . S
C1696 N1697 1.314 . S
C1696 C1698 1.353 . S
C1696 H1702 0.930 . S
N1697 Li1673 1.990 . S
N1697 C1696 1.314 . S
N1697 C1700 1.279 . S
C1698 C1696 1.353 . S
C1698 C1701 1.348 . S
C1698 H1746 0.929 . S
C1699 C1700 1.358 . S
C1699 C1701 1.356 . S
C1699 H1747 0.930 . S
C1700 N1697 1.279 . S
C1700 C1699 1.358 . S
C1700 H1703 0.930 . S
C1701 C1698 1.348 . S
C1701 C1699 1.356 . S
H1702 C1696 0.930 . S
H1703 C1700 0.930 . S
C1704 C1706 1.348 . S
C1704 C1707 1.356 . S
C1704 O1734 1.322 1_556 S
N1705 C1708 1.314 . S
N1705 C1709 1.279 . S
C1706 C1704 1.348 . S
C1706 C1708 1.353 . S
C1706 H1748 0.929 . S
C1707 C1704 1.356 . S
C1707 C1709 1.358 . S
C1707 H1749 0.930 . S
C1708 N1705 1.314 . S
C1708 C1706 1.353 . S
C1708 H1750 0.930 . S
C1709 N1705 1.279 . S
C1709 C1707 1.358 . S
C1709 H1751 0.930 1_565 S
C1710 C1711 1.348 . S
C1710 C1712 1.356 . S
C1710 O1735 1.325 . S
C1711 C1710 1.348 . S
C1711 C1713 1.353 . S
C1711 H1752 0.929 . S
C1712 C1710 1.356 . S
C1712 C1714 1.358 . S
C1712 H1753 0.930 . S
C1713 C1711 1.353 . S
C1713 N1715 1.314 . S
C1713 H1754 0.930 . S
C1714 C1712 1.358 . S
C1714 N1715 1.279 . S
C1714 H1755 0.930 . S
N1715 C1713 1.314 . S
N1715 C1714 1.279 . S
C1716 C1718 1.353 . S
C1716 N1719 1.314 . S
C1716 H1722 0.930 . S
C1717 N1719 1.279 . S
C1717 C1720 1.358 . S
C1717 H1723 0.930 1_554 S
C1718 C1716 1.353 . S
C1718 C1721 1.348 . S
C1718 H1756 0.929 . S
N1719 Li1674 1.990 . S
N1719 C1716 1.314 . S
N1719 C1717 1.279 . S
C1720 C1717 1.358 . S
C1720 C1721 1.356 . S
C1720 H1757 0.930 1_554 S
C1721 C1718 1.348 . S
C1721 C1720 1.356 . S
H1722 C1716 0.930 . S
H1723 C1717 0.930 1_556 S
C1724 N1725 1.314 . S
C1724 C1726 1.353 . S
C1724 H1730 0.930 . S
N1725 Li1675 1.990 1_556 S
N1725 C1724 1.314 . S
N1725 C1728 1.279 . S
C1726 C1724 1.353 . S
C1726 C1729 1.348 . S
C1726 H1758 0.929 . S
C1727 C1728 1.358 . S
C1727 C1729 1.356 . S
C1727 H1759 0.930 . S
C1728 N1725 1.279 . S
C1728 C1727 1.358 . S
C1728 H1731 0.930 . S
C1729 C1726 1.348 . S
C1729 C1727 1.356 . S
H1730 C1724 0.930 . S
H1731 C1728 0.930 . S
O1732 Li1672 1.956 . S
O1732 Li1673 1.970 . S
O1732 Li1674 1.961 . S
O1732 C1676 1.325 . S
O1733 Li1672 1.970 . S
O1733 Li1673 1.956 . S
O1733 Li1675 1.961 . S
O1733 C1682 1.325 . S
O1734 Li1672 1.964 . S
O1734 Li1674 1.959 . S
O1734 Li1675 1.971 . S
O1734 C1704 1.322 1_554 S
O1735 Li1673 1.961 . S
O1735 Li1674 1.970 . S
O1735 Li1675 1.956 . S
O1735 C1710 1.325 . S
H1736 C1678 0.929 . S
H1737 C1679 0.930 . S
H1738 C1680 0.930 . S
H1739 C1681 0.930 1_545 S
H1740 C1683 0.930 . S
H1741 C1685 0.929 . S
H1742 C1686 0.930 . S
H1743 C1687 0.930 . S
H1744 C1690 0.930 . S
H1745 C1693 0.929 1_556 S
H1746 C1698 0.929 . S
H1747 C1699 0.930 . S
H1748 C1706 0.929 . S
H1749 C1707 0.930 . S
H1750 C1708 0.930 . S
H1751 C1709 0.930 1_545 S
H1752 C1711 0.929 . S
H1753 C1712 0.930 . S
H1754 C1713 0.930 . S
H1755 C1714 0.930 . S
H1756 C1718 0.929 . S
H1757 C1720 0.930 1_556 S
H1758 C1726 0.929 . S
H1759 C1727 0.930 . S
Li1760 N1777 1.990 . S
Li1760 O1820 1.960 1_554 S
Li1760 O1821 1.970 . S
Li1760 O1822 1.966 . S
Li1761 N1785 1.990 . S
Li1761 O1820 1.971 1_554 S
Li1761 O1821 1.956 . S
Li1761 O1823 1.961 1_554 S
Li1762 N1807 1.990 . S
Li1762 O1820 1.958 . S
Li1762 O1822 1.951 1_556 S
Li1762 O1823 1.970 . S
Li1763 N1813 1.990 . S
Li1763 O1821 1.961 1_556 S
Li1763 O1822 1.970 1_556 S
Li1763 O1823 1.956 . S
C1764 C1766 1.362 . S
C1764 C1767 1.348 1_554 S
C1764 O1820 1.325 1_554 S
N1765 C1768 1.314 . S
N1765 C1769 1.279 1_554 S
C1766 C1764 1.362 . S
C1766 C1768 1.353 . S
C1766 H1824 0.929 . S
C1767 C1764 1.348 1_556 S
C1767 C1769 1.358 . S
C1767 H1825 0.930 . S
C1768 N1765 1.314 . S
C1768 C1766 1.353 . S
C1768 H1826 0.930 . S
C1769 N1765 1.279 1_556 S
C1769 C1767 1.358 . S
C1769 H1827 0.930 . S
C1770 C1773 1.348 . S
C1770 C1774 1.356 . S
C1770 O1821 1.325 . S
C1771 N1772 1.279 . S
C1771 C1774 1.358 . S
C1771 H1828 0.930 . S
N1772 C1771 1.279 . S
N1772 C1775 1.314 . S
C1773 C1770 1.348 . S
C1773 C1775 1.353 . S
C1773 H1829 0.929 . S
C1774 C1770 1.356 . S
C1774 C1771 1.358 . S
C1774 H1830 0.930 . S
C1775 N1772 1.314 . S
C1775 C1773 1.353 . S
C1775 H1831 0.930 . S
C1776 N1777 1.314 . S
C1776 C1781 1.353 . S
C1776 H1782 0.930 . S
N1777 Li1760 1.990 . S
N1777 C1776 1.314 . S
N1777 C1779 1.279 . S
C1778 C1779 1.358 . S
C1778 C1780 1.356 . S
C1778 H1832 0.930 . S
C1779 N1777 1.279 . S
C1779 C1778 1.358 . S
C1779 H1783 0.930 . S
C1780 C1778 1.356 . S
C1780 C1781 1.348 . S
C1781 C1776 1.353 . S
C1781 C1780 1.348 . S
C1781 H1833 0.929 . S
H1782 C1776 0.930 . S
H1783 C1779 0.930 . S
C1784 N1785 1.314 1_556 S
C1784 C1786 1.353 . S
C1784 H1790 0.930 . S
N1785 Li1761 1.990 . S
N1785 C1784 1.314 1_554 S
N1785 C1788 1.279 . S
C1786 C1784 1.353 . S
C1786 C1789 1.348 1_556 S
C1786 H1834 0.929 . S
C1787 C1788 1.358 . S
C1787 C1789 1.356 . S
C1787 H1835 0.930 . S
C1788 N1785 1.279 . S
C1788 C1787 1.358 . S
C1788 H1791 0.930 . S
C1789 C1786 1.348 1_554 S
C1789 C1787 1.356 . S
H1790 C1784 0.930 . S
H1791 C1788 0.930 . S
C1792 C1794 1.358 . S
C1792 C1795 1.350 1_556 S
C1792 O1822 1.325 1_556 S
N1793 C1796 1.314 . S
N1793 C1797 1.279 1_556 S
C1794 C1792 1.358 . S
C1794 C1796 1.353 . S
C1794 H1836 0.929 . S
C1795 C1792 1.350 1_554 S
C1795 C1797 1.358 . S
C1795 H1837 0.930 . S
C1796 N1793 1.314 . S
C1796 C1794 1.353 . S
C1796 H1838 0.930 . S
C1797 N1793 1.279 1_554 S
C1797 C1795 1.358 . S
C1797 H1839 0.930 . S
C1798 C1799 1.348 . S
C1798 C1800 1.356 . S
C1798 O1823 1.325 . S
C1799 C1798 1.348 . S
C1799 C1801 1.353 . S
C1799 H1840 0.929 . S
C1800 C1798 1.356 . S
C1800 C1802 1.358 . S
C1800 H1841 0.930 . S
C1801 C1799 1.353 . S
C1801 N1803 1.314 . S
C1801 H1842 0.930 . S
C1802 C1800 1.358 . S
C1802 N1803 1.279 . S
C1802 H1843 0.930 . S
N1803 C1801 1.314 . S
N1803 C1802 1.279 . S
C1804 C1806 1.353 . S
C1804 N1807 1.314 . S
C1804 H1810 0.930 . S
C1805 N1807 1.279 . S
C1805 C1808 1.358 . S
C1805 H1811 0.930 . S
C1806 C1804 1.353 . S
C1806 C1809 1.348 . S
C1806 H1844 0.929 . S
N1807 Li1762 1.990 . S
N1807 C1804 1.314 . S
N1807 C1805 1.279 . S
C1808 C1805 1.358 . S
C1808 C1809 1.356 . S
C1808 H1845 0.930 . S
C1809 C1806 1.348 . S
C1809 C1808 1.356 . S
H1810 C1804 0.930 . S
H1811 C1805 0.930 . S
C1812 N1813 1.314 1_554 S
C1812 C1814 1.353 . S
C1812 H1818 0.930 . S
N1813 Li1763 1.990 . S
N1813 C1812 1.314 1_556 S
N1813 C1816 1.279 . S
C1814 C1812 1.353 . S
C1814 C1817 1.348 1_554 S
C1814 H1846 0.929 . S
C1815 C1816 1.358 . S
C1815 C1817 1.356 . S
C1815 H1847 0.930 . S
C1816 N1813 1.279 . S
C1816 C1815 1.358 . S
C1816 H1819 0.930 . S
C1817 C1814 1.348 1_556 S
C1817 C1815 1.356 . S
H1818 C1812 0.930 . S
H1819 C1816 0.930 . S
O1820 Li1760 1.960 1_556 S
O1820 Li1761 1.971 1_556 S
O1820 Li1762 1.958 . S
O1820 C1764 1.325 1_556 S
O1821 Li1760 1.970 . S
O1821 Li1761 1.956 . S
O1821 Li1763 1.961 1_554 S
O1821 C1770 1.325 . S
O1822 Li1760 1.966 . S
O1822 Li1762 1.951 1_554 S
O1822 Li1763 1.970 1_554 S
O1822 C1792 1.325 1_554 S
O1823 Li1761 1.961 1_556 S
O1823 Li1762 1.970 . S
O1823 Li1763 1.956 . S
O1823 C1798 1.325 . S
H1824 C1766 0.929 . S
H1825 C1767 0.930 . S
H1826 C1768 0.930 . S
H1827 C1769 0.930 . S
H1828 C1771 0.930 . S
H1829 C1773 0.929 . S
H1830 C1774 0.930 . S
H1831 C1775 0.930 . S
H1832 C1778 0.930 . S
H1833 C1781 0.929 . S
H1834 C1786 0.929 . S
H1835 C1787 0.930 . S
H1836 C1794 0.929 . S
H1837 C1795 0.930 . S
H1838 C1796 0.930 . S
H1839 C1797 0.930 . S
H1840 C1799 0.929 . S
H1841 C1800 0.930 . S
H1842 C1801 0.930 . S
H1843 C1802 0.930 . S
H1844 C1806 0.929 . S
H1845 C1808 0.930 . S
H1846 C1814 0.929 . S
H1847 C1815 0.930 . S
Li1848 N1865 1.990 . S
Li1848 O1908 1.956 . S
Li1848 O1909 1.970 . S
Li1848 O1910 1.961 . S
Li1849 N1873 1.990 . S
Li1849 O1908 1.970 . S
Li1849 O1909 1.956 . S
Li1849 O1911 1.961 . S
Li1850 N1895 1.990 . S
Li1850 O1908 1.961 . S
Li1850 O1910 1.956 . S
Li1850 O1911 1.970 . S
Li1851 N1901 1.990 . S
Li1851 O1909 1.961 . S
Li1851 O1910 1.970 . S
Li1851 O1911 1.956 . S
C1852 C1854 1.348 . S
C1852 C1855 1.356 . S
C1852 O1908 1.325 . S
N1853 C1856 1.314 . S
N1853 C1857 1.279 . S
C1854 C1852 1.348 . S
C1854 C1856 1.353 . S
C1854 H1912 0.929 . S
C1855 C1852 1.356 . S
C1855 C1857 1.358 . S
C1855 H1913 0.930 . S
C1856 N1853 1.314 . S
C1856 C1854 1.353 . S
C1856 H1914 0.930 . S
C1857 N1853 1.279 . S
C1857 C1855 1.358 . S
C1857 H1915 0.930 . S
C1858 C1861 1.348 . S
C1858 C1862 1.356 . S
C1858 O1909 1.325 . S
C1859 N1860 1.279 . S
C1859 C1862 1.358 . S
C1859 H1916 0.930 . S
N1860 C1859 1.279 . S
N1860 C1863 1.314 . S
C1861 C1858 1.348 . S
C1861 C1863 1.353 . S
C1861 H1917 0.929 . S
C1862 C1858 1.356 . S
C1862 C1859 1.358 . S
C1862 H1918 0.930 . S
C1863 N1860 1.314 . S
C1863 C1861 1.353 . S
C1863 H1919 0.930 . S
C1864 N1865 1.314 . S
C1864 C1869 1.353 . S
C1864 H1870 0.930 . S
N1865 Li1848 1.990 . S
N1865 C1864 1.314 . S
N1865 C1867 1.279 . S
C1866 C1867 1.358 . S
C1866 C1868 1.356 . S
C1866 H1920 0.930 . S
C1867 N1865 1.279 . S
C1867 C1866 1.358 . S
C1867 H1871 0.930 . S
C1868 C1866 1.356 . S
C1868 C1869 1.348 . S
C1869 C1864 1.353 . S
C1869 C1868 1.348 . S
C1869 H1921 0.929 . S
H1870 C1864 0.930 . S
H1871 C1867 0.930 . S
C1872 N1873 1.314 . S
C1872 C1874 1.353 . S
C1872 H1878 0.930 . S
N1873 Li1849 1.990 . S
N1873 C1872 1.314 . S
N1873 C1876 1.279 . S
C1874 C1872 1.353 . S
C1874 C1877 1.348 . S
C1874 H1922 0.929 . S
C1875 C1876 1.358 . S
C1875 C1877 1.356 . S
C1875 H1923 0.930 . S
C1876 N1873 1.279 . S
C1876 C1875 1.358 . S
C1876 H1879 0.930 . S
C1877 C1874 1.348 . S
C1877 C1875 1.356 . S
H1878 C1872 0.930 . S
H1879 C1876 0.930 . S
C1880 C1882 1.348 . S
C1880 C1883 1.356 . S
C1880 O1910 1.325 . S
N1881 C1884 1.314 . S
N1881 C1885 1.279 . S
C1882 C1880 1.348 . S
C1882 C1884 1.353 . S
C1882 H1924 0.929 . S
C1883 C1880 1.356 . S
C1883 C1885 1.358 . S
C1883 H1925 0.930 . S
C1884 N1881 1.314 . S
C1884 C1882 1.353 . S
C1884 H1926 0.930 . S
C1885 N1881 1.279 . S
C1885 C1883 1.358 . S
C1885 H1927 0.930 . S
C1886 C1887 1.348 . S
C1886 C1888 1.356 . S
C1886 O1911 1.325 . S
C1887 C1886 1.348 . S
C1887 C1889 1.353 . S
C1887 H1928 0.929 . S
C1888 C1886 1.356 . S
C1888 C1890 1.358 . S
C1888 H1929 0.930 . S
C1889 C1887 1.353 . S
C1889 N1891 1.314 . S
C1889 H1930 0.930 . S
C1890 C1888 1.358 . S
C1890 N1891 1.279 . S
C1890 H1931 0.930 . S
N1891 C1889 1.314 . S
N1891 C1890 1.279 . S
C1892 C1894 1.353 . S
C1892 N1895 1.314 . S
C1892 H1898 0.930 . S
C1893 N1895 1.279 . S
C1893 C1896 1.358 . S
C1893 H1899 0.930 . S
C1894 C1892 1.353 . S
C1894 C1897 1.348 . S
C1894 H1932 0.929 . S
N1895 Li1850 1.990 . S
N1895 C1892 1.314 . S
N1895 C1893 1.279 . S
C1896 C1893 1.358 . S
C1896 C1897 1.356 . S
C1896 H1933 0.930 . S
C1897 C1894 1.348 . S
C1897 C1896 1.356 . S
H1898 C1892 0.930 . S
H1899 C1893 0.930 . S
C1900 N1901 1.314 . S
C1900 C1902 1.353 . S
C1900 H1906 0.930 . S
N1901 Li1851 1.990 . S
N1901 C1900 1.314 . S
N1901 C1904 1.279 . S
C1902 C1900 1.353 . S
C1902 C1905 1.348 . S
C1902 H1934 0.929 . S
C1903 C1904 1.358 . S
C1903 C1905 1.356 . S
C1903 H1935 0.930 . S
C1904 N1901 1.279 . S
C1904 C1903 1.358 . S
C1904 H1907 0.930 . S
C1905 C1902 1.348 . S
C1905 C1903 1.356 . S
H1906 C1900 0.930 . S
H1907 C1904 0.930 . S
O1908 Li1848 1.956 . S
O1908 Li1849 1.970 . S
O1908 Li1850 1.961 . S
O1908 C1852 1.325 . S
O1909 Li1848 1.970 . S
O1909 Li1849 1.956 . S
O1909 Li1851 1.961 . S
O1909 C1858 1.325 . S
O1910 Li1848 1.961 . S
O1910 Li1850 1.956 . S
O1910 Li1851 1.970 . S
O1910 C1880 1.325 . S
O1911 Li1849 1.961 . S
O1911 Li1850 1.970 . S
O1911 Li1851 1.956 . S
O1911 C1886 1.325 . S
H1912 C1854 0.929 . S
H1913 C1855 0.930 . S
H1914 C1856 0.930 . S
H1915 C1857 0.930 . S
H1916 C1859 0.930 . S
H1917 C1861 0.929 . S
H1918 C1862 0.930 . S
H1919 C1863 0.930 . S
H1920 C1866 0.930 . S
H1921 C1869 0.929 . S
H1922 C1874 0.929 . S
H1923 C1875 0.930 . S
H1924 C1882 0.929 . S
H1925 C1883 0.930 . S
H1926 C1884 0.930 . S
H1927 C1885 0.930 . S
H1928 C1887 0.929 . S
H1929 C1888 0.930 . S
H1930 C1889 0.930 . S
H1931 C1890 0.930 . S
H1932 C1894 0.929 . S
H1933 C1896 0.930 . S
H1934 C1902 0.929 . S
H1935 C1903 0.930 . S
Li1936 N1953 1.990 . S
Li1936 O1996 1.956 . S
Li1936 O1997 1.970 . S
Li1936 O1998 1.961 . S
Li1937 N1961 1.990 . S
Li1937 O1996 1.970 . S
Li1937 O1997 1.956 . S
Li1937 O1999 1.961 . S
Li1938 N1983 1.990 . S
Li1938 O1996 1.961 . S
Li1938 O1998 1.956 . S
Li1938 O1999 1.970 . S
Li1939 N1989 1.990 . S
Li1939 O1997 1.961 . S
Li1939 O1998 1.970 . S
Li1939 O1999 1.956 . S
C1940 C1942 1.348 . S
C1940 C1943 1.356 . S
C1940 O1996 1.325 . S
N1941 C1944 1.314 . S
N1941 C1945 1.279 . S
C1942 C1940 1.348 . S
C1942 C1944 1.353 . S
C1942 H2000 0.929 . S
C1943 C1940 1.356 . S
C1943 C1945 1.358 . S
C1943 H2001 0.930 . S
C1944 N1941 1.314 . S
C1944 C1942 1.353 . S
C1944 H2002 0.930 . S
C1945 N1941 1.279 . S
C1945 C1943 1.358 . S
C1945 H2003 0.930 . S
C1946 C1949 1.348 . S
C1946 C1950 1.356 . S
C1946 O1997 1.325 . S
C1947 N1948 1.279 . S
C1947 C1950 1.358 . S
C1947 H2004 0.930 . S
N1948 C1947 1.279 . S
N1948 C1951 1.314 . S
C1949 C1946 1.348 . S
C1949 C1951 1.353 . S
C1949 H2005 0.929 . S
C1950 C1946 1.356 . S
C1950 C1947 1.358 . S
C1950 H2006 0.930 . S
C1951 N1948 1.314 . S
C1951 C1949 1.353 . S
C1951 H2007 0.930 . S
C1952 N1953 1.314 . S
C1952 C1957 1.353 . S
C1952 H1958 0.930 . S
N1953 Li1936 1.990 . S
N1953 C1952 1.314 . S
N1953 C1955 1.279 . S
C1954 C1955 1.358 . S
C1954 C1956 1.356 . S
C1954 H2008 0.930 . S
C1955 N1953 1.279 . S
C1955 C1954 1.358 . S
C1955 H1959 0.930 . S
C1956 C1954 1.356 . S
C1956 C1957 1.348 . S
C1957 C1952 1.353 . S
C1957 C1956 1.348 . S
C1957 H2009 0.929 . S
H1958 C1952 0.930 . S
H1959 C1955 0.930 . S
C1960 N1961 1.314 . S
C1960 C1962 1.353 . S
C1960 H1966 0.930 . S
N1961 Li1937 1.990 . S
N1961 C1960 1.314 . S
N1961 C1964 1.279 . S
C1962 C1960 1.353 . S
C1962 C1965 1.348 . S
C1962 H2010 0.929 . S
C1963 C1964 1.358 . S
C1963 C1965 1.356 . S
C1963 H2011 0.930 . S
C1964 N1961 1.279 . S
C1964 C1963 1.358 . S
C1964 H1967 0.930 . S
C1965 C1962 1.348 . S
C1965 C1963 1.356 . S
H1966 C1960 0.930 . S
H1967 C1964 0.930 . S
C1968 C1970 1.348 . S
C1968 C1971 1.356 . S
C1968 O1998 1.325 . S
N1969 C1972 1.314 . S
N1969 C1973 1.279 . S
C1970 C1968 1.348 . S
C1970 C1972 1.353 . S
C1970 H2012 0.929 . S
C1971 C1968 1.356 . S
C1971 C1973 1.358 . S
C1971 H2013 0.930 . S
C1972 N1969 1.314 . S
C1972 C1970 1.353 . S
C1972 H2014 0.930 . S
C1973 N1969 1.279 . S
C1973 C1971 1.358 . S
C1973 H2015 0.930 . S
C1974 C1975 1.348 . S
C1974 C1976 1.356 . S
C1974 O1999 1.325 . S
C1975 C1974 1.348 . S
C1975 C1977 1.353 . S
C1975 H2016 0.929 . S
C1976 C1974 1.356 . S
C1976 C1978 1.358 . S
C1976 H2017 0.930 . S
C1977 C1975 1.353 . S
C1977 N1979 1.314 . S
C1977 H2018 0.930 . S
C1978 C1976 1.358 . S
C1978 N1979 1.279 . S
C1978 H2019 0.930 . S
N1979 C1977 1.314 . S
N1979 C1978 1.279 . S
C1980 C1982 1.353 . S
C1980 N1983 1.314 . S
C1980 H1986 0.930 . S
C1981 N1983 1.279 . S
C1981 C1984 1.358 . S
C1981 H1987 0.930 . S
C1982 C1980 1.353 . S
C1982 C1985 1.348 . S
C1982 H2020 0.929 . S
N1983 Li1938 1.990 . S
N1983 C1980 1.314 . S
N1983 C1981 1.279 . S
C1984 C1981 1.358 . S
C1984 C1985 1.356 . S
C1984 H2021 0.930 . S
C1985 C1982 1.348 . S
C1985 C1984 1.356 . S
H1986 C1980 0.930 . S
H1987 C1981 0.930 . S
C1988 N1989 1.314 . S
C1988 C1990 1.353 . S
C1988 H1994 0.930 . S
N1989 Li1939 1.990 . S
N1989 C1988 1.314 . S
N1989 C1992 1.279 . S
C1990 C1988 1.353 . S
C1990 C1993 1.348 . S
C1990 H2022 0.929 . S
C1991 C1992 1.358 . S
C1991 C1993 1.356 . S
C1991 H2023 0.930 . S
C1992 N1989 1.279 . S
C1992 C1991 1.358 . S
C1992 H1995 0.930 . S
C1993 C1990 1.348 . S
C1993 C1991 1.356 . S
H1994 C1988 0.930 . S
H1995 C1992 0.930 . S
O1996 Li1936 1.956 . S
O1996 Li1937 1.970 . S
O1996 Li1938 1.961 . S
O1996 C1940 1.325 . S
O1997 Li1936 1.970 . S
O1997 Li1937 1.956 . S
O1997 Li1939 1.961 . S
O1997 C1946 1.325 . S
O1998 Li1936 1.961 . S
O1998 Li1938 1.956 . S
O1998 Li1939 1.970 . S
O1998 C1968 1.325 . S
O1999 Li1937 1.961 . S
O1999 Li1938 1.970 . S
O1999 Li1939 1.956 . S
O1999 C1974 1.325 . S
H2000 C1942 0.929 . S
H2001 C1943 0.930 . S
H2002 C1944 0.930 . S
H2003 C1945 0.930 . S
H2004 C1947 0.930 . S
H2005 C1949 0.929 . S
H2006 C1950 0.930 . S
H2007 C1951 0.930 . S
H2008 C1954 0.930 . S
H2009 C1957 0.929 . S
H2010 C1962 0.929 . S
H2011 C1963 0.930 . S
H2012 C1970 0.929 . S
H2013 C1971 0.930 . S
H2014 C1972 0.930 . S
H2015 C1973 0.930 . S
H2016 C1975 0.929 . S
H2017 C1976 0.930 . S
H2018 C1977 0.930 . S
H2019 C1978 0.930 . S
H2020 C1982 0.929 . S
H2021 C1984 0.930 . S
H2022 C1990 0.929 . S
H2023 C1991 0.930 . S
Li2024 N2041 1.990 . S
Li2024 O2084 1.956 . S
Li2024 O2085 1.970 . S
Li2024 O2086 1.961 . S
Li2025 N2049 1.990 . S
Li2025 O2084 1.970 . S
Li2025 O2085 1.956 . S
Li2025 O2087 1.961 . S
Li2026 N2071 1.990 . S
Li2026 O2084 1.961 . S
Li2026 O2086 1.956 . S
Li2026 O2087 1.970 . S
Li2027 N2077 1.990 . S
Li2027 O2085 1.961 . S
Li2027 O2086 1.970 . S
Li2027 O2087 1.956 . S
C2028 C2030 1.348 . S
C2028 C2031 1.356 . S
C2028 O2084 1.325 . S
N2029 C2032 1.314 . S
N2029 C2033 1.279 . S
C2030 C2028 1.348 . S
C2030 C2032 1.353 . S
C2030 H2088 0.929 . S
C2031 C2028 1.356 . S
C2031 C2033 1.358 . S
C2031 H2089 0.930 . S
C2032 N2029 1.314 . S
C2032 C2030 1.353 . S
C2032 H2090 0.930 . S
C2033 N2029 1.279 . S
C2033 C2031 1.358 . S
C2033 H2091 0.930 . S
C2034 C2037 1.348 . S
C2034 C2038 1.356 . S
C2034 O2085 1.325 . S
C2035 N2036 1.279 . S
C2035 C2038 1.358 . S
C2035 H2092 0.930 . S
N2036 C2035 1.279 . S
N2036 C2039 1.314 . S
C2037 C2034 1.348 . S
C2037 C2039 1.353 . S
C2037 H2093 0.929 . S
C2038 C2034 1.356 . S
C2038 C2035 1.358 . S
C2038 H2094 0.930 . S
C2039 N2036 1.314 . S
C2039 C2037 1.353 . S
C2039 H2095 0.930 . S
C2040 N2041 1.314 . S
C2040 C2045 1.353 . S
C2040 H2046 0.930 . S
N2041 Li2024 1.990 . S
N2041 C2040 1.314 . S
N2041 C2043 1.279 . S
C2042 C2043 1.358 . S
C2042 C2044 1.356 . S
C2042 H2096 0.930 . S
C2043 N2041 1.279 . S
C2043 C2042 1.358 . S
C2043 H2047 0.930 . S
C2044 C2042 1.356 . S
C2044 C2045 1.348 . S
C2045 C2040 1.353 . S
C2045 C2044 1.348 . S
C2045 H2097 0.929 . S
H2046 C2040 0.930 . S
H2047 C2043 0.930 . S
C2048 N2049 1.314 . S
C2048 C2050 1.353 . S
C2048 H2054 0.930 . S
N2049 Li2025 1.990 . S
N2049 C2048 1.314 . S
N2049 C2052 1.279 . S
C2050 C2048 1.353 . S
C2050 C2053 1.348 . S
C2050 H2098 0.929 . S
C2051 C2052 1.358 . S
C2051 C2053 1.356 . S
C2051 H2099 0.930 . S
C2052 N2049 1.279 . S
C2052 C2051 1.358 . S
C2052 H2055 0.930 . S
C2053 C2050 1.348 . S
C2053 C2051 1.356 . S
H2054 C2048 0.930 . S
H2055 C2052 0.930 . S
C2056 C2058 1.348 . S
C2056 C2059 1.356 . S
C2056 O2086 1.325 . S
N2057 C2060 1.314 . S
N2057 C2061 1.279 . S
C2058 C2056 1.348 . S
C2058 C2060 1.353 . S
C2058 H2100 0.929 . S
C2059 C2056 1.356 . S
C2059 C2061 1.358 . S
C2059 H2101 0.930 . S
C2060 N2057 1.314 . S
C2060 C2058 1.353 . S
C2060 H2102 0.930 . S
C2061 N2057 1.279 . S
C2061 C2059 1.358 . S
C2061 H2103 0.930 . S
C2062 C2063 1.348 . S
C2062 C2064 1.356 . S
C2062 O2087 1.325 . S
C2063 C2062 1.348 . S
C2063 C2065 1.353 . S
C2063 H2104 0.929 . S
C2064 C2062 1.356 . S
C2064 C2066 1.358 . S
C2064 H2105 0.930 . S
C2065 C2063 1.353 . S
C2065 N2067 1.314 . S
C2065 H2106 0.930 . S
C2066 C2064 1.358 . S
C2066 N2067 1.279 . S
C2066 H2107 0.930 . S
N2067 C2065 1.314 . S
N2067 C2066 1.279 . S
C2068 C2070 1.353 . S
C2068 N2071 1.314 . S
C2068 H2074 0.930 . S
C2069 N2071 1.279 . S
C2069 C2072 1.358 . S
C2069 H2075 0.930 . S
C2070 C2068 1.353 . S
C2070 C2073 1.348 . S
C2070 H2108 0.929 . S
N2071 Li2026 1.990 . S
N2071 C2068 1.314 . S
N2071 C2069 1.279 . S
C2072 C2069 1.358 . S
C2072 C2073 1.356 . S
C2072 H2109 0.930 . S
C2073 C2070 1.348 . S
C2073 C2072 1.356 . S
H2074 C2068 0.930 . S
H2075 C2069 0.930 . S
C2076 N2077 1.314 . S
C2076 C2078 1.353 . S
C2076 H2082 0.930 . S
N2077 Li2027 1.990 . S
N2077 C2076 1.314 . S
N2077 C2080 1.279 . S
C2078 C2076 1.353 . S
C2078 C2081 1.348 . S
C2078 H2110 0.929 . S
C2079 C2080 1.358 . S
C2079 C2081 1.356 . S
C2079 H2111 0.930 . S
C2080 N2077 1.279 . S
C2080 C2079 1.358 . S
C2080 H2083 0.930 . S
C2081 C2078 1.348 . S
C2081 C2079 1.356 . S
H2082 C2076 0.930 . S
H2083 C2080 0.930 . S
O2084 Li2024 1.956 . S
O2084 Li2025 1.970 . S
O2084 Li2026 1.961 . S
O2084 C2028 1.325 . S
O2085 Li2024 1.970 . S
O2085 Li2025 1.956 . S
O2085 Li2027 1.961 . S
O2085 C2034 1.325 . S
O2086 Li2024 1.961 . S
O2086 Li2026 1.956 . S
O2086 Li2027 1.970 . S
O2086 C2056 1.325 . S
O2087 Li2025 1.961 . S
O2087 Li2026 1.970 . S
O2087 Li2027 1.956 . S
O2087 C2062 1.325 . S
H2088 C2030 0.929 . S
H2089 C2031 0.930 . S
H2090 C2032 0.930 . S
H2091 C2033 0.930 . S
H2092 C2035 0.930 . S
H2093 C2037 0.929 . S
H2094 C2038 0.930 . S
H2095 C2039 0.930 . S
H2096 C2042 0.930 . S
H2097 C2045 0.929 . S
H2098 C2050 0.929 . S
H2099 C2051 0.930 . S
H2100 C2058 0.929 . S
H2101 C2059 0.930 . S
H2102 C2060 0.930 . S
H2103 C2061 0.930 . S
H2104 C2063 0.929 . S
H2105 C2064 0.930 . S
H2106 C2065 0.930 . S
H2107 C2066 0.930 . S
H2108 C2070 0.929 . S
H2109 C2072 0.930 . S
H2110 C2078 0.929 . S
H2111 C2079 0.930 . S
C2112 O2128 1.245 1_456 S
C2112 O2130 1.254 . S
N2113 C2114 1.333 1_565 S
N2113 C2118 1.307 . S
N2113 Zn2119 2.020 1_665 S
C2114 N2113 1.333 1_545 S
C2114 C2115 1.379 . S
C2114 H2132 0.952 . S
C2115 C2114 1.379 . S
C2115 C2116 1.390 1_545 S
C2115 H2142 0.949 . S
C2116 C2115 1.390 1_565 S
C2116 C2117 1.357 . S
C2117 C2116 1.357 . S
C2117 C2118 1.370 . S
C2117 H2143 0.950 . S
C2118 N2113 1.307 . S
C2118 C2117 1.370 . S
C2118 H2136 0.948 . S
Zn2119 N2113 2.020 1_445 S
Zn2119 O2128 2.047 1_455 S
Zn2119 O2134 2.034 . S
Zn2119 O2138 2.025 1_545 S
Zn2119 O2140 2.024 1_545 S
C2120 O2139 1.246 . S
C2120 O2140 1.249 . S
N2121 C2122 1.307 1_554 S
N2121 C2123 1.333 . S
N2121 Zn2127 2.020 . S
C2122 N2121 1.307 1_556 S
C2122 C2126 1.370 . S
C2122 H2133 0.948 . S
C2123 N2121 1.333 . S
C2123 C2124 1.379 . S
C2123 H2131 0.952 . S
C2124 C2123 1.379 . S
C2124 C2125 1.395 . S
C2124 H2144 0.949 . S
C2125 C2124 1.395 . S
C2125 C2126 1.354 1_554 S
C2126 C2122 1.370 . S
C2126 C2125 1.354 1_556 S
C2126 H2145 0.950 . S
Zn2127 N2121 2.020 . S
Zn2127 O2130 2.025 1_554 S
Zn2127 O2135 2.024 . S
Zn2127 O2137 2.039 . S
Zn2127 O2139 2.034 1_545 S
O2128 C2112 1.245 1_654 S
O2128 Zn2119 2.047 1_655 S
C2129 O2134 1.246 . S
C2129 O2135 1.249 . S
O2130 C2112 1.254 . S
O2130 Zn2127 2.025 1_556 S
H2131 C2123 0.952 . S
H2132 C2114 0.952 . S
H2133 C2122 0.948 . S
O2134 Zn2119 2.034 . S
O2134 C2129 1.246 . S
O2135 Zn2127 2.024 . S
O2135 C2129 1.249 . S
H2136 C2118 0.948 . S
O2137 Zn2127 2.039 . S
O2137 C2141 1.240 1_545 S
O2138 Zn2119 2.025 1_565 S
O2138 C2141 1.259 . S
O2139 C2120 1.246 . S
O2139 Zn2127 2.034 1_565 S
O2140 Zn2119 2.024 1_565 S
O2140 C2120 1.249 . S
C2141 O2137 1.240 1_565 S
C2141 O2138 1.259 . S
H2142 C2115 0.949 . S
H2143 C2117 0.950 . S
H2144 C2124 0.949 . S
H2145 C2126 0.950 . S
C2146 O2162 1.251 . S
C2146 O2164 1.254 . S
N2147 C2148 1.333 . S
N2147 C2152 1.307 . S
N2147 Zn2153 2.020 . S
C2148 N2147 1.333 . S
C2148 C2149 1.379 . S
C2148 H2166 0.952 . S
C2149 C2148 1.379 . S
C2149 C2150 1.390 . S
C2149 H2176 0.949 . S
C2150 C2149 1.390 . S
C2150 C2151 1.357 . S
C2151 C2150 1.357 . S
C2151 C2152 1.370 . S
C2151 H2177 0.950 . S
C2152 N2147 1.307 . S
C2152 C2151 1.370 . S
C2152 H2170 0.948 . S
Zn2153 N2147 2.020 . S
Zn2153 O2162 2.039 . S
Zn2153 O2168 2.034 . S
Zn2153 O2172 2.025 . S
Zn2153 O2174 2.024 . S
C2154 O2173 1.246 . S
C2154 O2174 1.249 . S
N2155 C2156 1.307 . S
N2155 C2157 1.333 . S
N2155 Zn2161 2.020 . S
C2156 N2155 1.307 . S
C2156 C2160 1.370 . S
C2156 H2167 0.948 . S
C2157 N2155 1.333 . S
C2157 C2158 1.379 . S
C2157 H2165 0.952 . S
C2158 C2157 1.379 . S
C2158 C2159 1.390 . S
C2158 H2178 0.949 . S
C2159 C2158 1.390 . S
C2159 C2160 1.357 . S
C2160 C2156 1.370 . S
C2160 C2159 1.357 . S
C2160 H2179 0.950 . S
Zn2161 N2155 2.020 . S
Zn2161 O2164 2.025 . S
Zn2161 O2169 2.024 . S
Zn2161 O2171 2.039 . S
Zn2161 O2173 2.034 . S
O2162 C2146 1.251 . S
O2162 Zn2153 2.039 . S
C2163 O2168 1.246 . S
C2163 O2169 1.249 . S
O2164 C2146 1.254 . S
O2164 Zn2161 2.025 . S
H2165 C2157 0.952 . S
H2166 C2148 0.952 . S
H2167 C2156 0.948 . S
O2168 Zn2153 2.034 . S
O2168 C2163 1.246 . S
O2169 Zn2161 2.024 . S
O2169 C2163 1.249 . S
H2170 C2152 0.948 . S
O2171 Zn2161 2.039 . S
O2171 C2175 1.251 . S
O2172 Zn2153 2.025 . S
O2172 C2175 1.254 . S
O2173 C2154 1.246 . S
O2173 Zn2161 2.034 . S
O2174 Zn2153 2.024 . S
O2174 C2154 1.249 . S
C2175 O2171 1.251 . S
C2175 O2172 1.254 . S
H2176 C2149 0.949 . S
H2177 C2151 0.950 . S
H2178 C2158 0.949 . S
H2179 C2160 0.950 . S
C2180 O2196 1.251 . S
C2180 O2198 1.254 . S
N2181 C2182 1.333 . S
N2181 C2186 1.307 . S
N2181 Zn2187 2.020 . S
C2182 N2181 1.333 . S
C2182 C2183 1.379 . S
C2182 H2200 0.952 . S
C2183 C2182 1.379 . S
C2183 C2184 1.390 . S
C2183 H2210 0.949 . S
C2184 C2183 1.390 . S
C2184 C2185 1.357 . S
C2185 C2184 1.357 . S
C2185 C2186 1.370 . S
C2185 H2211 0.950 . S
C2186 N2181 1.307 . S
C2186 C2185 1.370 . S
C2186 H2204 0.948 . S
Zn2187 N2181 2.020 . S
Zn2187 O2196 2.039 1_565 S
Zn2187 O2202 2.034 1_565 S
Zn2187 O2206 2.025 . S
Zn2187 O2208 2.024 . S
C2188 O2207 1.246 1_565 S
C2188 O2208 1.249 . S
N2189 C2190 1.307 . S
N2189 C2191 1.333 . S
N2189 Zn2195 2.020 . S
C2190 N2189 1.307 . S
C2190 C2194 1.370 . S
C2190 H2201 0.948 . S
C2191 N2189 1.333 . S
C2191 C2192 1.379 . S
C2191 H2199 0.952 . S
C2192 C2191 1.379 . S
C2192 C2193 1.390 . S
C2192 H2212 0.949 . S
C2193 C2192 1.390 . S
C2193 C2194 1.357 . S
C2194 C2190 1.370 . S
C2194 C2193 1.357 . S
C2194 H2213 0.950 . S
Zn2195 N2189 2.020 . S
Zn2195 O2198 2.025 . S
Zn2195 O2203 2.024 . S
Zn2195 O2205 2.039 . S
Zn2195 O2207 2.034 . S
O2196 C2180 1.251 . S
O2196 Zn2187 2.039 1_545 S
C2197 O2202 1.246 . S
C2197 O2203 1.249 . S
O2198 C2180 1.254 . S
O2198 Zn2195 2.025 . S
H2199 C2191 0.952 . S
H2200 C2182 0.952 . S
H2201 C2190 0.948 . S
O2202 Zn2187 2.034 1_545 S
O2202 C2197 1.246 . S
O2203 Zn2195 2.024 . S
O2203 C2197 1.249 . S
H2204 C2186 0.948 . S
O2205 Zn2195 2.039 . S
O2205 C2209 1.251 . S
O2206 Zn2187 2.025 . S
O2206 C2209 1.254 1_565 S
O2207 C2188 1.246 1_545 S
O2207 Zn2195 2.034 . S
O2208 Zn2187 2.024 . S
O2208 C2188 1.249 . S
C2209 O2205 1.251 . S
C2209 O2206 1.254 1_545 S
H2210 C2183 0.949 . S
H2211 C2185 0.950 . S
H2212 C2192 0.949 . S
H2213 C2194 0.950 . S
C2214 O2230 1.251 . S
C2214 O2232 1.254 . S
N2215 C2216 1.333 . S
N2215 C2220 1.307 . S
N2215 Zn2221 2.020 . S
C2216 N2215 1.333 . S
C2216 C2217 1.379 . S
C2216 H2234 0.952 . S
C2217 C2216 1.379 . S
C2217 C2218 1.390 . S
C2217 H2244 0.949 . S
C2218 C2217 1.390 . S
C2218 C2219 1.357 . S
C2219 C2218 1.357 . S
C2219 C2220 1.370 . S
C2219 H2245 0.950 . S
C2220 N2215 1.307 . S
C2220 C2219 1.370 . S
C2220 H2238 0.948 . S
Zn2221 N2215 2.020 . S
Zn2221 O2230 2.039 . S
Zn2221 O2236 2.034 . S
Zn2221 O2240 2.025 . S
Zn2221 O2242 2.024 . S
C2222 O2241 1.246 . S
C2222 O2242 1.249 . S
N2223 C2224 1.307 . S
N2223 C2225 1.333 . S
N2223 Zn2229 2.020 . S
C2224 N2223 1.307 . S
C2224 C2228 1.370 . S
C2224 H2235 0.948 . S
C2225 N2223 1.333 . S
C2225 C2226 1.379 . S
C2225 H2233 0.952 . S
C2226 C2225 1.379 . S
C2226 C2227 1.390 . S
C2226 H2246 0.949 . S
C2227 C2226 1.390 . S
C2227 C2228 1.357 . S
C2228 C2224 1.370 . S
C2228 C2227 1.357 . S
C2228 H2247 0.950 . S
Zn2229 N2223 2.020 . S
Zn2229 O2232 2.025 . S
Zn2229 O2237 2.024 . S
Zn2229 O2239 2.039 . S
Zn2229 O2241 2.034 . S
O2230 C2214 1.251 . S
O2230 Zn2221 2.039 . S
C2231 O2236 1.246 . S
C2231 O2237 1.249 . S
O2232 C2214 1.254 . S
O2232 Zn2229 2.025 . S
H2233 C2225 0.952 . S
H2234 C2216 0.952 . S
H2235 C2224 0.948 . S
O2236 Zn2221 2.034 . S
O2236 C2231 1.246 . S
O2237 Zn2229 2.024 . S
O2237 C2231 1.249 . S
H2238 C2220 0.948 . S
O2239 Zn2229 2.039 . S
O2239 C2243 1.251 . S
O2240 Zn2221 2.025 . S
O2240 C2243 1.254 . S
O2241 C2222 1.246 . S
O2241 Zn2229 2.034 . S
O2242 Zn2221 2.024 . S
O2242 C2222 1.249 . S
C2243 O2239 1.251 . S
C2243 O2240 1.254 . S
H2244 C2217 0.949 . S
H2245 C2219 0.950 . S
H2246 C2226 0.949 . S
H2247 C2228 0.950 . S
C2248 O2264 1.251 1_565 S
C2248 O2266 1.254 . S
N2249 C2250 1.333 . S
N2249 C2254 1.307 . S
N2249 Zn2255 2.020 . S
C2250 N2249 1.333 . S
C2250 C2251 1.379 . S
C2250 H2268 0.952 . S
C2251 C2250 1.379 . S
C2251 C2252 1.390 . S
C2251 H2278 0.949 . S
C2252 C2251 1.390 . S
C2252 C2253 1.357 . S
C2253 C2252 1.357 . S
C2253 C2254 1.370 . S
C2253 H2279 0.950 . S
C2254 N2249 1.307 . S
C2254 C2253 1.370 . S
C2254 H2272 0.948 . S
Zn2255 N2249 2.020 . S
Zn2255 O2264 2.039 . S
Zn2255 O2270 2.034 . S
Zn2255 O2274 2.025 . S
Zn2255 O2276 2.024 1_545 S
C2256 O2275 1.246 . S
C2256 O2276 1.249 . S
N2257 C2258 1.307 . S
N2257 C2259 1.333 1_455 S
N2257 Zn2263 2.020 1_565 S
C2258 N2257 1.307 . S
C2258 C2262 1.370 . S
C2258 H2269 0.949 . S
C2259 N2257 1.333 1_655 S
C2259 C2260 1.379 . S
C2259 H2267 0.952 . S
C2260 C2259 1.379 . S
C2260 C2261 1.390 . S
C2260 H2280 0.949 . S
C2261 C2260 1.390 . S
C2261 C2262 1.357 1_655 S
C2262 C2258 1.370 . S
C2262 C2261 1.357 1_455 S
C2262 H2281 0.950 . S
Zn2263 N2257 2.020 1_545 S
Zn2263 O2266 2.025 1_545 S
Zn2263 O2271 2.024 . S
Zn2263 O2273 2.039 1_455 S
Zn2263 O2275 2.034 1_545 S
O2264 C2248 1.251 1_545 S
O2264 Zn2255 2.039 . S
C2265 O2270 1.246 . S
C2265 O2271 1.249 . S
O2266 C2248 1.254 . S
O2266 Zn2263 2.025 1_565 S
H2267 C2259 0.952 . S
H2268 C2250 0.952 . S
H2269 C2258 0.949 . S
O2270 Zn2255 2.034 . S
O2270 C2265 1.246 . S
O2271 Zn2263 2.024 . S
O2271 C2265 1.249 . S
H2272 C2254 0.948 . S
O2273 Zn2263 2.039 1_655 S
O2273 C2277 1.251 . S
O2274 Zn2255 2.025 . S
O2274 C2277 1.254 1_455 S
O2275 C2256 1.246 . S
O2275 Zn2263 2.034 1_565 S
O2276 Zn2255 2.024 1_565 S
O2276 C2256 1.249 . S
C2277 O2273 1.251 . S
C2277 O2274 1.254 1_655 S
H2278 C2251 0.949 . S
H2279 C2253 0.950 . S
H2280 C2260 0.949 . S
H2281 C2262 0.950 . S
C2282 O2298 1.251 . S
C2282 O2300 1.254 . S
N2283 C2284 1.333 . S
N2283 C2288 1.307 . S
N2283 Zn2289 2.020 . S
C2284 N2283 1.333 . S
C2284 C2285 1.379 . S
C2284 H2302 0.952 . S
C2285 C2284 1.379 . S
C2285 C2286 1.390 . S
C2285 H2312 0.949 . S
C2286 C2285 1.390 . S
C2286 C2287 1.357 . S
C2287 C2286 1.357 . S
C2287 C2288 1.370 . S
C2287 H2313 0.950 . S
C2288 N2283 1.307 . S
C2288 C2287 1.370 . S
C2288 H2306 0.948 . S
Zn2289 N2283 2.020 . S
Zn2289 O2298 2.039 . S
Zn2289 O2304 2.034 . S
Zn2289 O2308 2.025 . S
Zn2289 O2310 2.024 . S
C2290 O2309 1.246 . S
C2290 O2310 1.249 . S
N2291 C2292 1.307 . S
N2291 C2293 1.333 . S
N2291 Zn2297 2.020 . S
C2292 N2291 1.307 . S
C2292 C2296 1.370 . S
C2292 H2303 0.948 . S
C2293 N2291 1.333 . S
C2293 C2294 1.379 . S
C2293 H2301 0.952 . S
C2294 C2293 1.379 . S
C2294 C2295 1.390 . S
C2294 H2314 0.949 . S
C2295 C2294 1.390 . S
C2295 C2296 1.357 . S
C2296 C2292 1.370 . S
C2296 C2295 1.357 . S
C2296 H2315 0.950 . S
Zn2297 N2291 2.020 . S
Zn2297 O2300 2.025 . S
Zn2297 O2305 2.024 . S
Zn2297 O2307 2.039 . S
Zn2297 O2309 2.034 . S
O2298 C2282 1.251 . S
O2298 Zn2289 2.039 . S
C2299 O2304 1.246 . S
C2299 O2305 1.249 . S
O2300 C2282 1.254 . S
O2300 Zn2297 2.025 . S
H2301 C2293 0.952 . S
H2302 C2284 0.952 . S
H2303 C2292 0.948 . S
O2304 Zn2289 2.034 . S
O2304 C2299 1.246 . S
O2305 Zn2297 2.024 . S
O2305 C2299 1.249 . S
H2306 C2288 0.948 . S
O2307 Zn2297 2.039 . S
O2307 C2311 1.251 . S
O2308 Zn2289 2.025 . S
O2308 C2311 1.254 . S
O2309 C2290 1.246 . S
O2309 Zn2297 2.034 . S
O2310 Zn2289 2.024 . S
O2310 C2290 1.249 . S
C2311 O2307 1.251 . S
C2311 O2308 1.254 . S
H2312 C2285 0.949 . S
H2313 C2287 0.950 . S
H2314 C2294 0.949 . S
H2315 C2296 0.950 . S
C2316 O2332 1.251 . S
C2316 O2334 1.254 . S
N2317 C2318 1.333 . S
N2317 C2322 1.307 . S
N2317 Zn2323 2.020 . S
C2318 N2317 1.333 . S
C2318 C2319 1.379 . S
C2318 H2336 0.952 . S
C2319 C2318 1.379 . S
C2319 C2320 1.390 . S
C2319 H2346 0.949 . S
C2320 C2319 1.390 . S
C2320 C2321 1.357 . S
C2321 C2320 1.357 . S
C2321 C2322 1.370 . S
C2321 H2347 0.950 . S
C2322 N2317 1.307 . S
C2322 C2321 1.370 . S
C2322 H2340 0.948 . S
Zn2323 N2317 2.020 . S
Zn2323 O2332 2.039 1_545 S
Zn2323 O2338 2.034 . S
Zn2323 O2342 2.025 . S
Zn2323 O2344 2.024 . S
C2324 O2343 1.246 . S
C2324 O2344 1.249 1_565 S
N2325 C2326 1.307 . S
N2325 C2327 1.333 1_565 S
N2325 Zn2331 2.020 1_566 S
C2326 N2325 1.307 . S
C2326 C2330 1.370 . S
C2326 H2337 0.948 . S
C2327 N2325 1.333 1_545 S
C2327 C2328 1.379 . S
C2327 H2335 0.952 . S
C2328 C2327 1.379 . S
C2328 C2329 1.390 1_545 S
C2328 H2348 0.949 . S
C2329 C2328 1.390 1_565 S
C2329 C2330 1.357 . S
C2330 C2326 1.370 . S
C2330 C2329 1.357 . S
C2330 H2349 0.950 . S
Zn2331 N2325 2.020 1_544 S
Zn2331 O2334 2.025 1_545 S
Zn2331 O2339 2.024 . S
Zn2331 O2341 2.039 1_554 S
Zn2331 O2343 2.034 1_545 S
O2332 C2316 1.251 . S
O2332 Zn2323 2.039 1_565 S
C2333 O2338 1.246 . S
C2333 O2339 1.249 . S
O2334 C2316 1.254 . S
O2334 Zn2331 2.025 1_565 S
H2335 C2327 0.952 . S
H2336 C2318 0.952 . S
H2337 C2326 0.948 . S
O2338 Zn2323 2.034 . S
O2338 C2333 1.246 . S
O2339 Zn2331 2.024 . S
O2339 C2333 1.249 . S
H2340 C2322 0.948 . S
O2341 Zn2331 2.039 1_556 S
O2341 C2345 1.251 1_556 S
O2342 Zn2323 2.025 . S
O2342 C2345 1.254 . S
O2343 C2324 1.246 . S
O2343 Zn2331 2.034 1_565 S
O2344 Zn2323 2.024 . S
O2344 C2324 1.249 1_545 S
C2345 O2341 1.251 1_554 S
C2345 O2342 1.254 . S
H2346 C2319 0.949 . S
H2347 C2321 0.950 . S
H2348 C2328 0.949 . S
H2349 C2330 0.950 . S
C2350 O2366 1.251 . S
C2350 O2368 1.254 . S
N2351 C2352 1.333 . S
N2351 C2356 1.307 . S
N2351 Zn2357 2.020 . S
C2352 N2351 1.333 . S
C2352 C2353 1.379 . S
C2352 H2370 0.952 . S
C2353 C2352 1.379 . S
C2353 C2354 1.390 . S
C2353 H2380 0.949 . S
C2354 C2353 1.390 . S
C2354 C2355 1.357 . S
C2355 C2354 1.357 . S
C2355 C2356 1.370 . S
C2355 H2381 0.950 . S
C2356 N2351 1.307 . S
C2356 C2355 1.370 . S
C2356 H2374 0.948 . S
Zn2357 N2351 2.020 . S
Zn2357 O2366 2.039 . S
Zn2357 O2372 2.034 . S
Zn2357 O2376 2.025 . S
Zn2357 O2378 2.024 . S
C2358 O2377 1.246 . S
C2358 O2378 1.249 . S
N2359 C2360 1.307 . S
N2359 C2361 1.333 . S
N2359 Zn2365 2.020 . S
C2360 N2359 1.307 . S
C2360 C2364 1.370 . S
C2360 H2371 0.948 . S
C2361 N2359 1.333 . S
C2361 C2362 1.379 . S
C2361 H2369 0.952 . S
C2362 C2361 1.379 . S
C2362 C2363 1.390 . S
C2362 H2382 0.949 . S
C2363 C2362 1.390 . S
C2363 C2364 1.357 . S
C2364 C2360 1.370 . S
C2364 C2363 1.357 . S
C2364 H2383 0.950 . S
Zn2365 N2359 2.020 . S
Zn2365 O2368 2.025 . S
Zn2365 O2373 2.024 . S
Zn2365 O2375 2.039 . S
Zn2365 O2377 2.034 . S
O2366 C2350 1.251 . S
O2366 Zn2357 2.039 . S
C2367 O2372 1.246 . S
C2367 O2373 1.249 . S
O2368 C2350 1.254 . S
O2368 Zn2365 2.025 . S
H2369 C2361 0.952 . S
H2370 C2352 0.952 . S
H2371 C2360 0.948 . S
O2372 Zn2357 2.034 . S
O2372 C2367 1.246 . S
O2373 Zn2365 2.024 . S
O2373 C2367 1.249 . S
H2374 C2356 0.948 . S
O2375 Zn2365 2.039 . S
O2375 C2379 1.251 . S
O2376 Zn2357 2.025 . S
O2376 C2379 1.254 . S
O2377 C2358 1.246 . S
O2377 Zn2365 2.034 . S
O2378 Zn2357 2.024 . S
O2378 C2358 1.249 . S
C2379 O2375 1.251 . S
C2379 O2376 1.254 . S
H2380 C2353 0.949 . S
H2381 C2355 0.950 . S
H2382 C2362 0.949 . S
H2383 C2364 0.950 . S
C2384 O2400 1.251 . S
C2384 O2402 1.254 . S
N2385 C2386 1.333 . S
N2385 C2390 1.307 . S
N2385 Zn2391 2.020 1_556 S
C2386 N2385 1.333 . S
C2386 C2387 1.379 . S
C2386 H2404 0.952 . S
C2387 C2386 1.379 . S
C2387 C2388 1.390 . S
C2387 H2414 0.949 . S
C2388 C2387 1.390 . S
C2388 C2389 1.357 . S
C2389 C2388 1.357 . S
C2389 C2390 1.370 . S
C2389 H2415 0.950 . S
C2390 N2385 1.307 . S
C2390 C2389 1.370 . S
C2390 H2408 0.948 . S
Zn2391 N2385 2.020 1_554 S
Zn2391 O2400 2.039 . S
Zn2391 O2406 2.034 . S
Zn2391 O2410 2.025 1_554 S
Zn2391 O2412 2.024 1_554 S
C2392 O2411 1.246 . S
C2392 O2412 1.249 1_554 S
N2393 C2394 1.307 . S
N2393 C2395 1.333 . S
N2393 Zn2399 2.020 . S
C2394 N2393 1.307 . S
C2394 C2398 1.370 . S
C2394 H2405 0.948 . S
C2395 N2393 1.333 . S
C2395 C2396 1.379 . S
C2395 H2403 0.952 . S
C2396 C2395 1.379 . S
C2396 C2397 1.390 . S
C2396 H2416 0.949 . S
C2397 C2396 1.390 . S
C2397 C2398 1.357 . S
C2398 C2394 1.370 . S
C2398 C2397 1.357 . S
C2398 H2417 0.950 . S
Zn2399 N2393 2.020 . S
Zn2399 O2402 2.025 . S
Zn2399 O2407 2.024 . S
Zn2399 O2409 2.039 . S
Zn2399 O2411 2.034 . S
O2400 C2384 1.251 . S
O2400 Zn2391 2.039 . S
C2401 O2406 1.246 . S
C2401 O2407 1.249 . S
O2402 C2384 1.254 . S
O2402 Zn2399 2.025 . S
H2403 C2395 0.952 . S
H2404 C2386 0.952 . S
H2405 C2394 0.948 . S
O2406 Zn2391 2.034 . S
O2406 C2401 1.246 . S
O2407 Zn2399 2.024 . S
O2407 C2401 1.249 . S
H2408 C2390 0.948 . S
O2409 Zn2399 2.039 . S
O2409 C2413 1.251 . S
O2410 Zn2391 2.025 1_556 S
O2410 C2413 1.254 1_556 S
O2411 C2392 1.246 . S
O2411 Zn2399 2.034 . S
O2412 Zn2391 2.024 1_556 S
O2412 C2392 1.249 1_556 S
C2413 O2409 1.251 . S
C2413 O2410 1.254 1_554 S
H2414 C2387 0.949 . S
H2415 C2389 0.950 . S
H2416 C2396 0.949 . S
H2417 C2398 0.950 . S
C2418 O2434 1.251 . S
C2418 O2436 1.254 . S
N2419 C2420 1.333 . S
N2419 C2424 1.307 . S
N2419 Zn2425 2.020 . S
C2420 N2419 1.333 . S
C2420 C2421 1.379 . S
C2420 H2438 0.952 . S
C2421 C2420 1.379 . S
C2421 C2422 1.390 . S
C2421 H2448 0.949 . S
C2422 C2421 1.390 . S
C2422 C2423 1.357 . S
C2423 C2422 1.357 . S
C2423 C2424 1.370 . S
C2423 H2449 0.950 . S
C2424 N2419 1.307 . S
C2424 C2423 1.370 . S
C2424 H2442 0.948 . S
Zn2425 N2419 2.020 . S
Zn2425 O2434 2.039 . S
Zn2425 O2440 2.034 . S
Zn2425 O2444 2.025 . S
Zn2425 O2446 2.024 . S
C2426 O2445 1.246 . S
C2426 O2446 1.249 . S
N2427 C2428 1.307 . S
N2427 C2429 1.333 . S
N2427 Zn2433 2.020 . S
C2428 N2427 1.307 . S
C2428 C2432 1.370 . S
C2428 H2439 0.948 . S
C2429 N2427 1.333 . S
C2429 C2430 1.379 . S
C2429 H2437 0.952 . S
C2430 C2429 1.379 . S
C2430 C2431 1.390 . S
C2430 H2450 0.949 . S
C2431 C2430 1.390 . S
C2431 C2432 1.357 . S
C2432 C2428 1.370 . S
C2432 C2431 1.357 . S
C2432 H2451 0.950 . S
Zn2433 N2427 2.020 . S
Zn2433 O2436 2.025 . S
Zn2433 O2441 2.024 . S
Zn2433 O2443 2.039 . S
Zn2433 O2445 2.034 . S
O2434 C2418 1.251 . S
O2434 Zn2425 2.039 . S
C2435 O2440 1.246 . S
C2435 O2441 1.249 . S
O2436 C2418 1.254 . S
O2436 Zn2433 2.025 . S
H2437 C2429 0.952 . S
H2438 C2420 0.952 . S
H2439 C2428 0.948 . S
O2440 Zn2425 2.034 . S
O2440 C2435 1.246 . S
O2441 Zn2433 2.024 . S
O2441 C2435 1.249 . S
H2442 C2424 0.948 . S
O2443 Zn2433 2.039 . S
O2443 C2447 1.251 . S
O2444 Zn2425 2.025 . S
O2444 C2447 1.254 . S
O2445 C2426 1.246 . S
O2445 Zn2433 2.034 . S
O2446 Zn2425 2.024 . S
O2446 C2426 1.249 . S
C2447 O2443 1.251 . S
C2447 O2444 1.254 . S
H2448 C2421 0.949 . S
H2449 C2423 0.950 . S
H2450 C2430 0.949 . S
H2451 C2432 0.950 . S
C2452 O2468 1.251 . S
C2452 O2470 1.254 . S
N2453 C2454 1.333 . S
N2453 C2458 1.307 . S
N2453 Zn2459 2.020 . S
C2454 N2453 1.333 . S
C2454 C2455 1.379 . S
C2454 H2472 0.952 . S
C2455 C2454 1.379 . S
C2455 C2456 1.390 . S
C2455 H2482 0.949 . S
C2456 C2455 1.390 . S
C2456 C2457 1.357 . S
C2457 C2456 1.357 . S
C2457 C2458 1.370 . S
C2457 H2483 0.950 . S
C2458 N2453 1.307 . S
C2458 C2457 1.370 . S
C2458 H2476 0.948 . S
Zn2459 N2453 2.020 . S
Zn2459 O2468 2.039 . S
Zn2459 O2474 2.034 . S
Zn2459 O2478 2.025 . S
Zn2459 O2480 2.024 . S
C2460 O2479 1.246 . S
C2460 O2480 1.249 . S
N2461 C2462 1.307 1_455 S
N2461 C2463 1.333 . S
N2461 Zn2467 2.020 . S
C2462 N2461 1.307 1_655 S
C2462 C2466 1.370 . S
C2462 H2473 0.948 . S
C2463 N2461 1.333 . S
C2463 C2464 1.379 . S
C2463 H2471 0.952 . S
C2464 C2463 1.379 . S
C2464 C2465 1.390 1_455 S
C2464 H2484 0.949 . S
C2465 C2464 1.390 1_655 S
C2465 C2466 1.357 . S
C2466 C2462 1.370 . S
C2466 C2465 1.357 . S
C2466 H2485 0.950 . S
Zn2467 N2461 2.020 . S
Zn2467 O2470 2.025 . S
Zn2467 O2475 2.024 1_455 S
Zn2467 O2477 2.039 . S
Zn2467 O2479 2.034 . S
O2468 C2452 1.251 . S
O2468 Zn2459 2.039 . S
C2469 O2474 1.246 1_655 S
C2469 O2475 1.249 . S
O2470 C2452 1.254 . S
O2470 Zn2467 2.025 . S
H2471 C2463 0.952 . S
H2472 C2454 0.952 . S
H2473 C2462 0.948 . S
O2474 Zn2459 2.034 . S
O2474 C2469 1.246 1_455 S
O2475 Zn2467 2.024 1_655 S
O2475 C2469 1.249 . S
H2476 C2458 0.948 . S
O2477 Zn2467 2.039 . S
O2477 C2481 1.251 . S
O2478 Zn2459 2.025 . S
O2478 C2481 1.254 . S
O2479 C2460 1.246 . S
O2479 Zn2467 2.034 . S
O2480 Zn2459 2.024 . S
O2480 C2460 1.249 . S
C2481 O2477 1.251 . S
C2481 O2478 1.254 . S
H2482 C2455 0.949 . S
H2483 C2457 0.950 . S
H2484 C2464 0.949 . S
H2485 C2466 0.950 . S
C2486 O2502 1.251 . S
C2486 O2504 1.254 . S
N2487 C2488 1.333 . S
N2487 C2492 1.307 . S
N2487 Zn2493 2.020 . S
C2488 N2487 1.333 . S
C2488 C2489 1.379 . S
C2488 H2506 0.952 . S
C2489 C2488 1.379 . S
C2489 C2490 1.390 . S
C2489 H2516 0.949 . S
C2490 C2489 1.390 . S
C2490 C2491 1.357 . S
C2491 C2490 1.357 . S
C2491 C2492 1.370 . S
C2491 H2517 0.950 . S
C2492 N2487 1.307 . S
C2492 C2491 1.370 . S
C2492 H2510 0.948 . S
Zn2493 N2487 2.020 . S
Zn2493 O2502 2.039 . S
Zn2493 O2508 2.034 . S
Zn2493 O2512 2.025 . S
Zn2493 O2514 2.024 . S
C2494 O2513 1.246 . S
C2494 O2514 1.249 . S
N2495 C2496 1.307 . S
N2495 C2497 1.333 . S
N2495 Zn2501 2.020 . S
C2496 N2495 1.307 . S
C2496 C2500 1.370 . S
C2496 H2507 0.948 . S
C2497 N2495 1.333 . S
C2497 C2498 1.379 . S
C2497 H2505 0.952 . S
C2498 C2497 1.379 . S
C2498 C2499 1.390 . S
C2498 H2518 0.949 . S
C2499 C2498 1.390 . S
C2499 C2500 1.357 . S
C2500 C2496 1.370 . S
C2500 C2499 1.357 . S
C2500 H2519 0.950 . S
Zn2501 N2495 2.020 . S
Zn2501 O2504 2.025 . S
Zn2501 O2509 2.024 . S
Zn2501 O2511 2.039 . S
Zn2501 O2513 2.034 . S
O2502 C2486 1.251 . S
O2502 Zn2493 2.039 . S
C2503 O2508 1.246 . S
C2503 O2509 1.249 . S
O2504 C2486 1.254 . S
O2504 Zn2501 2.025 . S
H2505 C2497 0.952 . S
H2506 C2488 0.952 . S
H2507 C2496 0.948 . S
O2508 Zn2493 2.034 . S
O2508 C2503 1.246 . S
O2509 Zn2501 2.024 . S
O2509 C2503 1.249 . S
H2510 C2492 0.948 . S
O2511 Zn2501 2.039 . S
O2511 C2515 1.251 . S
O2512 Zn2493 2.025 . S
O2512 C2515 1.254 . S
O2513 C2494 1.246 . S
O2513 Zn2501 2.034 . S
O2514 Zn2493 2.024 . S
O2514 C2494 1.249 . S
C2515 O2511 1.251 . S
C2515 O2512 1.254 . S
H2516 C2489 0.949 . S
H2517 C2491 0.950 . S
H2518 C2498 0.949 . S
H2519 C2500 0.950 . S
C2520 O2536 1.251 . S
C2520 O2538 1.254 . S
N2521 C2522 1.333 . S
N2521 C2526 1.307 . S
N2521 Zn2527 2.020 . S
C2522 N2521 1.333 . S
C2522 C2523 1.379 . S
C2522 H2540 0.952 . S
C2523 C2522 1.379 . S
C2523 C2524 1.390 . S
C2523 H2550 0.949 . S
C2524 C2523 1.390 . S
C2524 C2525 1.357 . S
C2525 C2524 1.357 . S
C2525 C2526 1.370 . S
C2525 H2551 0.950 . S
C2526 N2521 1.307 . S
C2526 C2525 1.370 . S
C2526 H2544 0.948 . S
Zn2527 N2521 2.020 . S
Zn2527 O2536 2.039 . S
Zn2527 O2542 2.034 . S
Zn2527 O2546 2.025 . S
Zn2527 O2548 2.024 . S
C2528 O2547 1.246 . S
C2528 O2548 1.249 . S
N2529 C2530 1.307 . S
N2529 C2531 1.333 . S
N2529 Zn2535 2.020 . S
C2530 N2529 1.307 . S
C2530 C2534 1.370 . S
C2530 H2541 0.948 . S
C2531 N2529 1.333 . S
C2531 C2532 1.379 . S
C2531 H2539 0.952 . S
C2532 C2531 1.379 . S
C2532 C2533 1.390 . S
C2532 H2552 0.949 . S
C2533 C2532 1.390 . S
C2533 C2534 1.357 . S
C2534 C2530 1.370 . S
C2534 C2533 1.357 . S
C2534 H2553 0.950 . S
Zn2535 N2529 2.020 . S
Zn2535 O2538 2.025 . S
Zn2535 O2543 2.024 . S
Zn2535 O2545 2.039 . S
Zn2535 O2547 2.034 . S
O2536 C2520 1.251 . S
O2536 Zn2527 2.039 . S
C2537 O2542 1.246 . S
C2537 O2543 1.249 . S
O2538 C2520 1.254 . S
O2538 Zn2535 2.025 . S
H2539 C2531 0.952 . S
H2540 C2522 0.952 . S
H2541 C2530 0.948 . S
O2542 Zn2527 2.034 . S
O2542 C2537 1.246 . S
O2543 Zn2535 2.024 . S
O2543 C2537 1.249 . S
H2544 C2526 0.948 . S
O2545 Zn2535 2.039 . S
O2545 C2549 1.251 . S
O2546 Zn2527 2.025 . S
O2546 C2549 1.254 . S
O2547 C2528 1.246 . S
O2547 Zn2535 2.034 . S
O2548 Zn2527 2.024 . S
O2548 C2528 1.249 . S
C2549 O2545 1.251 . S
C2549 O2546 1.254 . S
H2550 C2523 0.949 . S
H2551 C2525 0.950 . S
H2552 C2532 0.949 . S
H2553 C2534 0.950 . S
C2554 O2570 1.251 . S
C2554 O2572 1.254 . S
N2555 C2556 1.333 . S
N2555 C2560 1.307 . S
N2555 Zn2561 2.020 . S
C2556 N2555 1.333 . S
C2556 C2557 1.379 . S
C2556 H2574 0.952 . S
C2557 C2556 1.379 . S
C2557 C2558 1.390 . S
C2557 H2584 0.949 . S
C2558 C2557 1.390 . S
C2558 C2559 1.357 . S
C2559 C2558 1.357 . S
C2559 C2560 1.370 . S
C2559 H2585 0.950 . S
C2560 N2555 1.307 . S
C2560 C2559 1.370 . S
C2560 H2578 0.948 . S
Zn2561 N2555 2.020 . S
Zn2561 O2570 2.039 . S
Zn2561 O2576 2.034 . S
Zn2561 O2580 2.025 . S
Zn2561 O2582 2.024 . S
C2562 O2581 1.246 . S
C2562 O2582 1.249 . S
N2563 C2564 1.307 . S
N2563 C2565 1.333 . S
N2563 Zn2569 2.020 . S
C2564 N2563 1.307 . S
C2564 C2568 1.370 . S
C2564 H2575 0.948 . S
C2565 N2563 1.333 . S
C2565 C2566 1.379 . S
C2565 H2573 0.952 . S
C2566 C2565 1.379 . S
C2566 C2567 1.390 . S
C2566 H2586 0.949 . S
C2567 C2566 1.390 . S
C2567 C2568 1.357 . S
C2568 C2564 1.370 . S
C2568 C2567 1.357 . S
C2568 H2587 0.950 . S
Zn2569 N2563 2.020 . S
Zn2569 O2572 2.025 . S
Zn2569 O2577 2.024 . S
Zn2569 O2579 2.039 . S
Zn2569 O2581 2.034 . S
O2570 C2554 1.251 . S
O2570 Zn2561 2.039 . S
C2571 O2576 1.246 . S
C2571 O2577 1.249 . S
O2572 C2554 1.254 . S
O2572 Zn2569 2.025 . S
H2573 C2565 0.952 . S
H2574 C2556 0.952 . S
H2575 C2564 0.948 . S
O2576 Zn2561 2.034 . S
O2576 C2571 1.246 . S
O2577 Zn2569 2.024 . S
O2577 C2571 1.249 . S
H2578 C2560 0.948 . S
O2579 Zn2569 2.039 . S
O2579 C2583 1.251 . S
O2580 Zn2561 2.025 . S
O2580 C2583 1.254 . S
O2581 C2562 1.246 . S
O2581 Zn2569 2.034 . S
O2582 Zn2561 2.024 . S
O2582 C2562 1.249 . S
C2583 O2579 1.251 . S
C2583 O2580 1.254 . S
H2584 C2557 0.949 . S
H2585 C2559 0.950 . S
H2586 C2566 0.949 . S
H2587 C2568 0.950 . S
C2588 O2604 1.251 . S
C2588 O2606 1.254 . S
N2589 C2590 1.333 . S
N2589 C2594 1.307 . S
N2589 Zn2595 2.020 . S
C2590 N2589 1.333 . S
C2590 C2591 1.379 . S
C2590 H2608 0.952 . S
C2591 C2590 1.379 . S
C2591 C2592 1.390 . S
C2591 H2618 0.949 . S
C2592 C2591 1.390 . S
C2592 C2593 1.357 . S
C2593 C2592 1.357 . S
C2593 C2594 1.370 . S
C2593 H2619 0.950 . S
C2594 N2589 1.307 . S
C2594 C2593 1.370 . S
C2594 H2612 0.948 . S
Zn2595 N2589 2.020 . S
Zn2595 O2604 2.039 . S
Zn2595 O2610 2.034 . S
Zn2595 O2614 2.025 . S
Zn2595 O2616 2.024 . S
C2596 O2615 1.246 . S
C2596 O2616 1.249 . S
N2597 C2598 1.307 . S
N2597 C2599 1.333 . S
N2597 Zn2603 2.020 . S
C2598 N2597 1.307 . S
C2598 C2602 1.370 . S
C2598 H2609 0.948 . S
C2599 N2597 1.333 . S
C2599 C2600 1.379 . S
C2599 H2607 0.952 . S
C2600 C2599 1.379 . S
C2600 C2601 1.390 . S
C2600 H2620 0.949 . S
C2601 C2600 1.390 . S
C2601 C2602 1.357 . S
C2602 C2598 1.370 . S
C2602 C2601 1.357 . S
C2602 H2621 0.950 . S
Zn2603 N2597 2.020 . S
Zn2603 O2606 2.025 . S
Zn2603 O2611 2.024 . S
Zn2603 O2613 2.039 . S
Zn2603 O2615 2.034 . S
O2604 C2588 1.251 . S
O2604 Zn2595 2.039 . S
C2605 O2610 1.246 . S
C2605 O2611 1.249 . S
O2606 C2588 1.254 . S
O2606 Zn2603 2.025 . S
H2607 C2599 0.952 . S
H2608 C2590 0.952 . S
H2609 C2598 0.948 . S
O2610 Zn2595 2.034 . S
O2610 C2605 1.246 . S
O2611 Zn2603 2.024 . S
O2611 C2605 1.249 . S
H2612 C2594 0.948 . S
O2613 Zn2603 2.039 . S
O2613 C2617 1.251 . S
O2614 Zn2595 2.025 . S
O2614 C2617 1.254 . S
O2615 C2596 1.246 . S
O2615 Zn2603 2.034 . S
O2616 Zn2595 2.024 . S
O2616 C2596 1.249 . S
C2617 O2613 1.251 . S
C2617 O2614 1.254 . S
H2618 C2591 0.949 . S
H2619 C2593 0.950 . S
H2620 C2600 0.949 . S
H2621 C2602 0.950 . S
C2622 O2638 1.251 . S
C2622 O2640 1.254 . S
N2623 C2624 1.333 . S
N2623 C2628 1.307 . S
N2623 Zn2629 2.020 . S
C2624 N2623 1.333 . S
C2624 C2625 1.379 . S
C2624 H2642 0.952 . S
C2625 C2624 1.379 . S
C2625 C2626 1.390 . S
C2625 H2652 0.949 . S
C2626 C2625 1.390 . S
C2626 C2627 1.357 . S
C2627 C2626 1.357 . S
C2627 C2628 1.370 . S
C2627 H2653 0.950 . S
C2628 N2623 1.307 . S
C2628 C2627 1.370 . S
C2628 H2646 0.948 . S
Zn2629 N2623 2.020 . S
Zn2629 O2638 2.039 . S
Zn2629 O2644 2.034 . S
Zn2629 O2648 2.039 . S
Zn2629 O2650 2.024 . S
C2630 O2649 1.246 . S
C2630 O2650 1.249 1_655 S
N2631 C2632 1.307 . S
N2631 C2633 1.333 1_554 S
N2631 Zn2637 2.020 . S
C2632 N2631 1.307 . S
C2632 C2636 1.370 . S
C2632 H2643 0.948 . S
C2633 N2631 1.333 1_556 S
C2633 C2634 1.383 . S
C2633 H2641 0.952 . S
C2634 C2633 1.383 . S
C2634 C2635 1.388 1_455 S
C2634 H2654 0.947 1_455 S
C2635 C2634 1.388 1_655 S
C2635 C2636 1.357 1_656 S
C2636 C2632 1.370 . S
C2636 C2635 1.357 1_454 S
C2636 H2655 0.950 . S
Zn2637 N2631 2.020 . S
Zn2637 O2640 2.025 . S
Zn2637 O2645 2.024 . S
Zn2637 O2647 2.039 1_554 S
Zn2637 O2649 2.034 1_455 S
O2638 C2622 1.251 . S
O2638 Zn2629 2.039 . S
C2639 O2644 1.246 . S
C2639 O2645 1.249 . S
O2640 C2622 1.254 . S
O2640 Zn2637 2.025 . S
H2641 C2633 0.952 . S
H2642 C2624 0.952 . S
H2643 C2632 0.948 . S
O2644 Zn2629 2.034 . S
O2644 C2639 1.246 . S
O2645 Zn2637 2.024 . S
O2645 C2639 1.249 . S
H2646 C2628 0.948 . S
O2647 Zn2637 2.039 1_556 S
O2647 C2651 1.251 . S
O2648 Zn2629 2.039 . S
O2648 C2651 1.244 1_554 S
O2649 C2630 1.246 . S
O2649 Zn2637 2.034 1_655 S
O2650 Zn2629 2.024 . S
O2650 C2630 1.249 1_455 S
C2651 O2647 1.251 . S
C2651 O2648 1.244 1_556 S
H2652 C2625 0.949 . S
H2653 C2627 0.950 . S
H2654 C2634 0.947 1_655 S
H2655 C2636 0.950 . S
C2656 C2657 1.387 . S
C2656 H2660 0.950 . S
C2656 C2665 1.390 . S
C2657 C2656 1.387 . S
C2657 C2659 1.387 . S
H2658 C2665 0.950 . S
C2659 C2657 1.387 . S
C2659 C2661 1.390 . S
C2659 H2663 0.950 . S
H2660 C2656 0.950 . S
C2661 C2659 1.390 . S
C2661 C2662 1.387 . S
C2661 H2664 0.950 . S
C2662 C2661 1.387 . S
C2662 C2665 1.387 . S
H2663 C2659 0.950 . S
H2664 C2661 0.950 . S
C2665 C2656 1.390 . S
C2665 H2658 0.950 . S
C2665 C2662 1.387 . S
C2666 C2667 1.387 . S
C2666 H2670 0.950 . S
C2666 C2675 1.390 . S
C2667 C2666 1.387 . S
C2667 C2669 1.387 . S
H2668 C2675 0.950 . S
C2669 C2667 1.387 . S
C2669 C2671 1.390 . S
C2669 H2673 0.950 . S
H2670 C2666 0.950 . S
C2671 C2669 1.390 . S
C2671 C2672 1.387 . S
C2671 H2674 0.950 . S
C2672 C2671 1.387 . S
C2672 C2675 1.387 . S
H2673 C2669 0.950 . S
H2674 C2671 0.950 . S
C2675 C2666 1.390 . S
C2675 H2668 0.950 . S
C2675 C2672 1.387 . S
C2676 C2677 1.387 . S
C2676 H2680 0.950 . S
C2676 C2685 1.390 . S
C2677 C2676 1.387 . S
C2677 C2679 1.387 . S
H2678 C2685 0.950 . S
C2679 C2677 1.387 . S
C2679 C2681 1.390 . S
C2679 H2683 0.950 . S
H2680 C2676 0.950 . S
C2681 C2679 1.390 . S
C2681 C2682 1.387 . S
C2681 H2684 0.950 . S
C2682 C2681 1.387 . S
C2682 C2685 1.387 . S
H2683 C2679 0.950 . S
H2684 C2681 0.950 . S
C2685 C2676 1.390 . S
C2685 H2678 0.950 . S
C2685 C2682 1.387 . S
C2686 C2687 1.387 . S
C2686 H2690 0.950 . S
C2686 C2695 1.390 . S
C2687 C2686 1.387 . S
C2687 C2689 1.387 . S
H2688 C2695 0.950 . S
C2689 C2687 1.387 . S
C2689 C2691 1.390 . S
C2689 H2693 0.950 . S
H2690 C2686 0.950 . S
C2691 C2689 1.390 . S
C2691 C2692 1.387 . S
C2691 H2694 0.950 . S
C2692 C2691 1.387 . S
C2692 C2695 1.387 . S
H2693 C2689 0.950 . S
H2694 C2691 0.950 . S
C2695 C2686 1.390 . S
C2695 H2688 0.950 . S
C2695 C2692 1.387 . S
C2696 C2697 1.387 . S
C2696 H2700 0.950 . S
C2696 C2705 1.390 . S
C2697 C2696 1.387 . S
C2697 C2699 1.387 . S
H2698 C2705 0.950 . S
C2699 C2697 1.387 . S
C2699 C2701 1.390 . S
C2699 H2703 0.962 . S
H2700 C2696 0.950 . S
C2701 C2699 1.390 . S
C2701 C2702 1.387 . S
C2701 H2704 0.950 1_455 S
C2702 C2701 1.387 . S
C2702 C2705 1.387 . S
H2703 C2699 0.962 . S
H2704 C2701 0.950 1_655 S
C2705 C2696 1.390 . S
C2705 H2698 0.950 . S
C2705 C2702 1.387 . S
C2706 C2707 1.387 . S
C2706 H2710 0.950 . S
C2706 C2715 1.390 . S
C2707 C2706 1.387 . S
C2707 C2709 1.387 . S
H2708 C2715 0.950 . S
C2709 C2707 1.387 . S
C2709 C2711 1.390 . S
C2709 H2713 0.950 . S
H2710 C2706 0.950 . S
C2711 C2709 1.390 . S
C2711 C2712 1.387 . S
C2711 H2714 0.950 . S
C2712 C2711 1.387 . S
C2712 C2715 1.387 . S
H2713 C2709 0.950 . S
H2714 C2711 0.950 . S
C2715 C2706 1.390 . S
C2715 H2708 0.950 . S
C2715 C2712 1.387 . S
C2716 C2717 1.387 . S
C2716 H2720 0.950 . S
C2716 C2725 1.390 1_556 S
C2717 C2716 1.387 . S
C2717 C2719 1.387 . S
H2718 C2725 0.950 . S
C2719 C2717 1.387 . S
C2719 C2721 1.390 . S
C2719 H2723 0.950 . S
H2720 C2716 0.950 . S
C2721 C2719 1.390 . S
C2721 C2722 1.416 . S
C2721 H2724 0.950 . S
C2722 C2721 1.416 . S
C2722 C2725 1.380 1_556 S
H2723 C2719 0.950 . S
H2724 C2721 0.950 . S
C2725 C2716 1.390 1_554 S
C2725 H2718 0.950 . S
C2725 C2722 1.380 1_554 S
C2726 C2727 1.387 . S
C2726 H2730 0.950 . S
C2726 C2735 1.390 . S
C2727 C2726 1.387 . S
C2727 C2729 1.387 . S
H2728 C2735 0.950 . S
C2729 C2727 1.387 . S
C2729 C2731 1.390 . S
C2729 H2733 0.950 . S
H2730 C2726 0.950 . S
C2731 C2729 1.390 . S
C2731 C2732 1.387 . S
C2731 H2734 0.950 . S
C2732 C2731 1.387 . S
C2732 C2735 1.387 . S
H2733 C2729 0.950 . S
H2734 C2731 0.950 . S
C2735 C2726 1.390 . S
C2735 H2728 0.950 . S
C2735 C2732 1.387 . S
C2736 C2737 1.387 1_565 S
C2736 H2740 0.950 . S
C2736 C2745 1.390 . S
C2737 C2736 1.387 1_545 S
C2737 C2739 1.387 . S
H2738 C2745 0.950 . S
C2739 C2737 1.387 . S
C2739 C2741 1.390 . S
C2739 H2743 0.950 . S
H2740 C2736 0.950 . S
C2741 C2739 1.390 . S
C2741 C2742 1.382 1_545 S
C2741 H2744 0.950 . S
C2742 C2741 1.382 1_565 S
C2742 C2745 1.391 . S
H2743 C2739 0.950 . S
H2744 C2741 0.950 . S
C2745 C2736 1.390 . S
C2745 H2738 0.950 . S
C2745 C2742 1.391 . S
C2746 C2747 1.387 . S
C2746 H2750 0.950 . S
C2746 C2755 1.390 . S
C2747 C2746 1.387 . S
C2747 C2749 1.387 . S
H2748 C2755 0.950 . S
C2749 C2747 1.387 . S
C2749 C2751 1.390 . S
C2749 H2753 0.950 . S
H2750 C2746 0.950 . S
C2751 C2749 1.390 . S
C2751 C2752 1.387 . S
C2751 H2754 0.950 . S
C2752 C2751 1.387 . S
C2752 C2755 1.387 . S
H2753 C2749 0.950 . S
H2754 C2751 0.950 . S
C2755 C2746 1.390 . S
C2755 H2748 0.950 . S
C2755 C2752 1.387 . S
C2756 C2757 1.387 . S
C2756 H2760 0.950 . S
C2756 C2765 1.390 . S
C2757 C2756 1.387 . S
C2757 C2759 1.387 1_545 S
H2758 C2765 0.950 . S
C2759 C2757 1.387 1_565 S
C2759 C2761 1.398 . S
C2759 H2763 0.950 . S
H2760 C2756 0.950 . S
C2761 C2759 1.398 . S
C2761 C2762 1.348 1_565 S
C2761 H2764 0.982 . S
C2762 C2761 1.348 1_545 S
C2762 C2765 1.387 . S
H2763 C2759 0.950 . S
H2764 C2761 0.982 . S
C2765 C2756 1.390 . S
C2765 H2758 0.950 . S
C2765 C2762 1.387 . S
C2766 C2767 1.387 . S
C2766 H2770 0.950 . S
C2766 C2775 1.390 . S
C2767 C2766 1.387 . S
C2767 C2769 1.387 . S
H2768 C2775 0.950 . S
C2769 C2767 1.387 . S
C2769 C2771 1.390 . S
C2769 H2773 0.950 . S
H2770 C2766 0.950 . S
C2771 C2769 1.390 . S
C2771 C2772 1.387 . S
C2771 H2774 0.950 . S
C2772 C2771 1.387 . S
C2772 C2775 1.387 . S
H2773 C2769 0.950 . S
H2774 C2771 0.950 . S
C2775 C2766 1.390 . S
C2775 H2768 0.950 . S
C2775 C2772 1.387 . S
C2776 C2777 1.387 . S
C2776 H2780 0.950 . S
C2776 C2785 1.390 . S
C2777 C2776 1.387 . S
C2777 C2779 1.387 . S
H2778 C2785 0.950 . S
C2779 C2777 1.387 . S
C2779 C2781 1.390 . S
C2779 H2783 0.950 . S
H2780 C2776 0.950 . S
C2781 C2779 1.390 . S
C2781 C2782 1.387 . S
C2781 H2784 0.950 . S
C2782 C2781 1.387 . S
C2782 C2785 1.387 . S
H2783 C2779 0.950 . S
H2784 C2781 0.950 . S
C2785 C2776 1.390 . S
C2785 H2778 0.950 . S
C2785 C2782 1.387 . S
C2786 C2787 1.387 . S
C2786 H2790 0.950 . S
C2786 C2795 1.390 . S
C2787 C2786 1.387 . S
C2787 C2789 1.387 . S
H2788 C2795 0.950 . S
C2789 C2787 1.387 . S
C2789 C2791 1.390 . S
C2789 H2793 0.950 . S
H2790 C2786 0.950 . S
C2791 C2789 1.390 . S
C2791 C2792 1.387 . S
C2791 H2794 0.950 . S
C2792 C2791 1.387 . S
C2792 C2795 1.387 . S
H2793 C2789 0.950 . S
H2794 C2791 0.950 . S
C2795 C2786 1.390 . S
C2795 H2788 0.950 . S
C2795 C2792 1.387 . S
C2796 C2797 1.387 . S
C2796 H2800 0.950 . S
C2796 C2805 1.390 . S
C2797 C2796 1.387 . S
C2797 C2799 1.387 1_545 S
H2798 C2805 0.950 . S
C2799 C2797 1.387 1_565 S
C2799 C2801 1.390 . S
C2799 H2803 0.950 . S
H2800 C2796 0.950 . S
C2801 C2799 1.390 . S
C2801 C2802 1.387 . S
C2801 H2804 0.950 . S
C2802 C2801 1.387 . S
C2802 C2805 1.387 1_565 S
H2803 C2799 0.950 . S
H2804 C2801 0.950 . S
C2805 C2796 1.390 . S
C2805 H2798 0.950 . S
C2805 C2802 1.387 1_545 S
C2806 C2807 1.387 . S
C2806 H2810 0.950 . S
C2806 C2815 1.390 . S
C2807 C2806 1.387 . S
C2807 C2809 1.387 . S
H2808 C2815 0.950 . S
C2809 C2807 1.387 . S
C2809 C2811 1.390 . S
C2809 H2813 0.950 . S
H2810 C2806 0.950 . S
C2811 C2809 1.390 . S
C2811 C2812 1.387 . S
C2811 H2814 0.950 . S
C2812 C2811 1.387 . S
C2812 C2815 1.387 . S
H2813 C2809 0.950 . S
H2814 C2811 0.950 . S
C2815 C2806 1.390 . S
C2815 H2808 0.950 . S
C2815 C2812 1.387 . S
C2816 C2817 1.387 1_556 S
C2816 H2820 0.950 . S
C2816 C2825 1.390 . S
C2817 C2816 1.387 1_554 S
C2817 C2819 1.387 . S
H2818 C2825 0.950 . S
C2819 C2817 1.387 . S
C2819 C2821 1.390 . S
C2819 H2823 0.950 . S
H2820 C2816 0.950 . S
C2821 C2819 1.390 . S
C2821 C2822 1.412 . S
C2821 H2824 0.950 . S
C2822 C2821 1.412 . S
C2822 C2825 1.374 1_554 S
H2823 C2819 0.950 . S
H2824 C2821 0.950 . S
C2825 C2816 1.390 . S
C2825 H2818 0.950 . S
C2825 C2822 1.374 1_556 S
C2826 C2827 1.387 . S
C2826 H2830 0.950 . S
C2826 C2835 1.390 . S
C2827 C2826 1.387 . S
C2827 C2829 1.387 . S
H2828 C2835 0.950 . S
C2829 C2827 1.387 . S
C2829 C2831 1.390 . S
C2829 H2833 0.950 . S
H2830 C2826 0.950 . S
C2831 C2829 1.390 . S
C2831 C2832 1.387 . S
C2831 H2834 0.950 . S
C2832 C2831 1.387 . S
C2832 C2835 1.387 . S
H2833 C2829 0.950 . S
H2834 C2831 0.950 . S
C2835 C2826 1.390 . S
C2835 H2828 0.950 . S
C2835 C2832 1.387 . S
C2836 C2837 1.387 . S
C2836 H2840 0.950 . S
C2836 C2845 1.390 . S
C2837 C2836 1.387 . S
C2837 C2839 1.387 . S
H2838 C2845 0.950 . S
C2839 C2837 1.387 . S
C2839 C2841 1.390 . S
C2839 H2843 0.950 . S
H2840 C2836 0.950 . S
C2841 C2839 1.390 . S
C2841 C2842 1.387 . S
C2841 H2844 0.950 . S
C2842 C2841 1.387 . S
C2842 C2845 1.387 . S
H2843 C2839 0.950 . S
H2844 C2841 0.950 . S
C2845 C2836 1.390 . S
C2845 H2838 0.950 . S
C2845 C2842 1.387 . S
C2846 C2847 1.387 . S
C2846 H2850 0.950 . S
C2846 C2855 1.390 . S
C2847 C2846 1.387 . S
C2847 C2849 1.387 . S
H2848 C2855 0.950 . S
C2849 C2847 1.387 . S
C2849 C2851 1.390 . S
C2849 H2853 0.950 . S
H2850 C2846 0.950 . S
C2851 C2849 1.390 . S
C2851 C2852 1.387 . S
C2851 H2854 0.950 . S
C2852 C2851 1.387 . S
C2852 C2855 1.387 . S
H2853 C2849 0.950 . S
H2854 C2851 0.950 . S
C2855 C2846 1.390 . S
C2855 H2848 0.950 . S
C2855 C2852 1.387 . S
C2856 C2857 1.387 . S
C2856 H2860 0.950 . S
C2856 C2865 1.390 . S
C2857 C2856 1.387 . S
C2857 C2859 1.387 . S
H2858 C2865 0.950 . S
C2859 C2857 1.387 . S
C2859 C2861 1.390 . S
C2859 H2863 0.950 . S
H2860 C2856 0.950 . S
C2861 C2859 1.390 . S
C2861 C2862 1.387 . S
C2861 H2864 0.950 . S
C2862 C2861 1.387 . S
C2862 C2865 1.387 . S
H2863 C2859 0.950 . S
H2864 C2861 0.950 . S
C2865 C2856 1.390 . S
C2865 H2858 0.950 . S
C2865 C2862 1.387 . S
C2866 C2867 1.387 . S
C2866 H2870 0.950 . S
C2866 C2875 1.390 . S
C2867 C2866 1.387 . S
C2867 C2869 1.387 1_565 S
H2868 C2875 0.950 . S
C2869 C2867 1.387 1_545 S
C2869 C2871 1.390 . S
C2869 H2873 0.950 . S
H2870 C2866 0.950 . S
C2871 C2869 1.390 . S
C2871 C2872 1.387 1_545 S
C2871 H2874 0.950 . S
C2872 C2871 1.387 1_565 S
C2872 C2875 1.387 . S
H2873 C2869 0.950 . S
H2874 C2871 0.950 . S
C2875 C2866 1.390 . S
C2875 H2868 0.950 . S
C2875 C2872 1.387 . S
C2876 C2877 1.387 . S
C2876 H2880 0.950 . S
C2876 C2885 1.390 . S
C2877 C2876 1.387 . S
C2877 C2879 1.387 . S
H2878 C2885 0.950 . S
C2879 C2877 1.387 . S
C2879 C2881 1.390 . S
C2879 H2883 0.950 . S
H2880 C2876 0.950 . S
C2881 C2879 1.390 . S
C2881 C2882 1.387 . S
C2881 H2884 0.950 . S
C2882 C2881 1.387 . S
C2882 C2885 1.387 . S
H2883 C2879 0.950 . S
H2884 C2881 0.950 . S
C2885 C2876 1.390 . S
C2885 H2878 0.950 . S
C2885 C2882 1.387 . S
C2886 C2887 1.387 . S
C2886 H2890 0.950 . S
C2886 C2895 1.390 . S
C2887 C2886 1.387 . S
C2887 C2889 1.387 . S
H2888 C2895 0.950 . S
C2889 C2887 1.387 . S
C2889 C2891 1.390 . S
C2889 H2893 0.950 . S
H2890 C2886 0.950 . S
C2891 C2889 1.390 . S
C2891 C2892 1.387 . S
C2891 H2894 0.950 . S
C2892 C2891 1.387 . S
C2892 C2895 1.387 . S
H2893 C2889 0.950 . S
H2894 C2891 0.950 . S
C2895 C2886 1.390 . S
C2895 H2888 0.950 . S
C2895 C2892 1.387 . S
C2896 C2897 1.387 . S
C2896 H2900 0.950 . S
C2896 C2905 1.390 . S
C2897 C2896 1.387 . S
C2897 C2899 1.387 . S
H2898 C2905 0.950 . S
C2899 C2897 1.387 . S
C2899 C2901 1.390 1_556 S
C2899 H2903 0.950 1_455 S
H2900 C2896 0.950 . S
C2901 C2899 1.390 1_554 S
C2901 C2902 1.387 1_554 S
C2901 H2904 0.950 . S
C2902 C2901 1.387 1_556 S
C2902 C2905 1.387 . S
H2903 C2899 0.950 1_655 S
H2904 C2901 0.950 . S
C2905 C2896 1.390 . S
C2905 H2898 0.950 . S
C2905 C2902 1.387 . S
C2906 C2907 1.387 . S
C2906 H2910 0.950 . S
C2906 C2915 1.390 . S
C2907 C2906 1.387 . S
C2907 C2909 1.387 . S
H2908 C2915 0.950 . S
C2909 C2907 1.387 . S
C2909 C2911 1.390 . S
C2909 H2913 0.950 . S
H2910 C2906 0.950 . S
C2911 C2909 1.390 . S
C2911 C2912 1.387 . S
C2911 H2914 0.950 . S
C2912 C2911 1.387 . S
C2912 C2915 1.387 . S
H2913 C2909 0.950 . S
H2914 C2911 0.950 . S
C2915 C2906 1.390 . S
C2915 H2908 0.950 . S
C2915 C2912 1.387 . S
C2916 C2917 1.387 . S
C2916 H2920 0.950 . S
C2916 C2925 1.390 . S
C2917 C2916 1.387 . S
C2917 C2919 1.387 . S
H2918 C2925 0.950 . S
C2919 C2917 1.387 . S
C2919 C2921 1.390 . S
C2919 H2923 0.950 . S
H2920 C2916 0.950 . S
C2921 C2919 1.390 . S
C2921 C2922 1.387 . S
C2921 H2924 0.950 . S
C2922 C2921 1.387 . S
C2922 C2925 1.387 . S
H2923 C2919 0.950 . S
H2924 C2921 0.950 . S
C2925 C2916 1.390 . S
C2925 H2918 0.950 . S
C2925 C2922 1.387 . S
C2926 C2927 1.387 . S
C2926 H2930 0.950 . S
C2926 C2935 1.390 . S
C2927 C2926 1.387 . S
C2927 C2929 1.387 . S
H2928 C2935 0.950 . S
C2929 C2927 1.387 . S
C2929 C2931 1.390 . S
C2929 H2933 0.950 . S
H2930 C2926 0.950 . S
C2931 C2929 1.390 . S
C2931 C2932 1.387 . S
C2931 H2934 0.950 . S
C2932 C2931 1.387 . S
C2932 C2935 1.387 . S
H2933 C2929 0.950 . S
H2934 C2931 0.950 . S
C2935 C2926 1.390 . S
C2935 H2928 0.950 . S
C2935 C2932 1.387 . S
C2936 C2937 1.387 . S
C2936 H2940 0.950 . S
C2936 C2945 1.390 . S
C2937 C2936 1.387 . S
C2937 C2939 1.387 . S
H2938 C2945 0.950 . S
C2939 C2937 1.387 . S
C2939 C2941 1.390 . S
C2939 H2943 0.950 . S
H2940 C2936 0.950 . S
C2941 C2939 1.390 . S
C2941 C2942 1.387 . S
C2941 H2944 0.950 . S
C2942 C2941 1.387 . S
C2942 C2945 1.387 . S
H2943 C2939 0.950 . S
H2944 C2941 0.950 . S
C2945 C2936 1.390 . S
C2945 H2938 0.950 . S
C2945 C2942 1.387 . S
C2946 C2947 1.387 . S
C2946 H2950 0.950 . S
C2946 C2955 1.390 . S
C2947 C2946 1.387 . S
C2947 C2949 1.387 . S
H2948 C2955 0.950 . S
C2949 C2947 1.387 . S
C2949 C2951 1.390 . S
C2949 H2953 0.950 . S
H2950 C2946 0.950 . S
C2951 C2949 1.390 . S
C2951 C2952 1.387 . S
C2951 H2954 0.950 . S
C2952 C2951 1.387 . S
C2952 C2955 1.387 . S
H2953 C2949 0.950 . S
H2954 C2951 0.950 . S
C2955 C2946 1.390 . S
C2955 H2948 0.950 . S
C2955 C2952 1.387 . S
C2956 C2957 1.387 . S
C2956 H2960 0.950 . S
C2956 C2965 1.390 . S
C2957 C2956 1.387 . S
C2957 C2959 1.387 . S
H2958 C2965 0.950 . S
C2959 C2957 1.387 . S
C2959 C2961 1.390 . S
C2959 H2963 0.950 . S
H2960 C2956 0.950 . S
C2961 C2959 1.390 . S
C2961 C2962 1.387 . S
C2961 H2964 0.950 . S
C2962 C2961 1.387 . S
C2962 C2965 1.387 . S
H2963 C2959 0.950 . S
H2964 C2961 0.950 . S
C2965 C2956 1.390 . S
C2965 H2958 0.950 . S
C2965 C2962 1.387 . S
C2966 C2967 1.387 . S
C2966 H2970 0.950 . S
C2966 C2975 1.390 . S
C2967 C2966 1.387 . S
C2967 C2969 1.387 . S
H2968 C2975 0.950 . S
C2969 C2967 1.387 . S
C2969 C2971 1.390 . S
C2969 H2973 0.950 . S
H2970 C2966 0.950 . S
C2971 C2969 1.390 . S
C2971 C2972 1.387 . S
C2971 H2974 0.950 . S
C2972 C2971 1.387 . S
C2972 C2975 1.387 . S
H2973 C2969 0.950 . S
H2974 C2971 0.950 . S
C2975 C2966 1.390 . S
C2975 H2968 0.950 . S
C2975 C2972 1.387 . S
C2976 C2977 1.387 1_565 S
C2976 H2980 0.950 1_655 S
C2976 C2985 1.390 1_665 S
C2977 C2976 1.387 1_545 S
C2977 C2979 1.387 . S
H2978 C2985 0.950 1_565 S
C2979 C2977 1.387 . S
C2979 C2981 1.390 . S
C2979 H2983 0.950 . S
H2980 C2976 0.950 1_455 S
C2981 C2979 1.390 . S
C2981 C2982 1.387 1_655 S
C2981 H2984 0.950 . S
C2982 C2981 1.387 1_455 S
C2982 C2985 1.387 . S
H2983 C2979 0.950 . S
H2984 C2981 0.950 . S
C2985 C2976 1.390 1_445 S
C2985 H2978 0.950 1_545 S
C2985 C2982 1.387 . S
C2986 C2987 1.387 . S
C2986 H2990 0.950 . S
C2986 C2995 1.390 . S
C2987 C2986 1.387 . S
C2987 C2989 1.387 . S
H2988 C2995 0.950 . S
C2989 C2987 1.387 . S
C2989 C2991 1.390 . S
C2989 H2993 0.950 . S
H2990 C2986 0.950 . S
C2991 C2989 1.390 . S
C2991 C2992 1.387 . S
C2991 H2994 0.950 . S
C2992 C2991 1.387 . S
C2992 C2995 1.387 . S
H2993 C2989 0.950 . S
H2994 C2991 0.950 . S
C2995 C2986 1.390 . S
C2995 H2988 0.950 . S
C2995 C2992 1.387 . S
C2996 C2997 1.387 . S
C2996 H3000 0.956 . S
C2996 C3005 1.390 1_545 S
C2997 C2996 1.387 . S
C2997 C2999 1.387 . S
H2998 C3005 0.950 . S
C2999 C2997 1.387 . S
C2999 C3001 1.390 . S
C2999 H3003 0.950 . S
H3000 C2996 0.956 . S
C3001 C2999 1.390 . S
C3001 C3002 1.387 . S
C3001 H3004 0.950 . S
C3002 C3001 1.387 . S
C3002 C3005 1.387 1_545 S
H3003 C2999 0.950 . S
H3004 C3001 0.950 . S
C3005 C2996 1.390 1_565 S
C3005 H2998 0.950 . S
C3005 C3002 1.387 1_565 S
C3006 C3007 1.387 . S
C3006 H3010 0.950 . S
C3006 C3015 1.390 . S
C3007 C3006 1.387 . S
C3007 C3009 1.387 . S
H3008 C3015 0.950 . S
C3009 C3007 1.387 . S
C3009 C3011 1.390 . S
C3009 H3013 0.950 . S
H3010 C3006 0.950 . S
C3011 C3009 1.390 . S
C3011 C3012 1.387 . S
C3011 H3014 0.950 . S
C3012 C3011 1.387 . S
C3012 C3015 1.387 . S
H3013 C3009 0.950 . S
H3014 C3011 0.950 . S
C3015 C3006 1.390 . S
C3015 H3008 0.950 . S
C3015 C3012 1.387 . S
C3016 C3017 1.405 . S
C3016 H3020 0.950 1_655 S
C3016 C3025 1.390 . S
C3017 C3016 1.405 . S
C3017 C3019 1.355 1_545 S
H3018 C3025 0.950 1_455 S
C3019 C3017 1.355 1_565 S
C3019 C3021 1.390 . S
C3019 H3023 0.950 . S
H3020 C3016 0.950 1_455 S
C3021 C3019 1.390 . S
C3021 C3022 1.387 . S
C3021 H3024 0.950 . S
C3022 C3021 1.387 . S
C3022 C3025 1.387 1_565 S
H3023 C3019 0.950 . S
H3024 C3021 0.950 . S
C3025 C3016 1.390 . S
C3025 H3018 0.950 1_655 S
C3025 C3022 1.387 1_545 S
C3026 C3027 1.387 . S
C3026 H3030 0.950 . S
C3026 C3035 1.390 . S
C3027 C3026 1.387 . S
C3027 C3029 1.387 . S
H3028 C3035 0.950 . S
C3029 C3027 1.387 . S
C3029 C3031 1.390 . S
C3029 H3033 0.950 . S
H3030 C3026 0.950 . S
C3031 C3029 1.390 . S
C3031 C3032 1.387 . S
C3031 H3034 0.950 . S
C3032 C3031 1.387 . S
C3032 C3035 1.387 . S
H3033 C3029 0.950 . S
H3034 C3031 0.950 . S
C3035 C3026 1.390 . S
C3035 H3028 0.950 . S
C3035 C3032 1.387 . S
C3036 C3037 1.387 . S
C3036 H3040 0.950 1_545 S
C3036 C3045 1.390 . S
C3037 C3036 1.387 . S
C3037 C3039 1.387 . S
H3038 C3045 0.950 . S
C3039 C3037 1.387 . S
C3039 C3041 1.390 . S
C3039 H3043 0.950 . S
H3040 C3036 0.950 1_565 S
C3041 C3039 1.390 . S
C3041 C3042 1.387 . S
C3041 H3044 0.950 . S
C3042 C3041 1.387 . S
C3042 C3045 1.387 . S
H3043 C3039 0.950 . S
H3044 C3041 0.950 . S
C3045 C3036 1.390 . S
C3045 H3038 0.950 . S
C3045 C3042 1.387 . S
C3046 C3047 1.387 . S
C3046 H3050 0.950 . S
C3046 C3055 1.390 . S
C3047 C3046 1.387 . S
C3047 C3049 1.387 . S
H3048 C3055 0.950 . S
C3049 C3047 1.387 . S
C3049 C3051 1.390 . S
C3049 H3053 0.950 . S
H3050 C3046 0.950 . S
C3051 C3049 1.390 . S
C3051 C3052 1.387 . S
C3051 H3054 0.950 . S
C3052 C3051 1.387 . S
C3052 C3055 1.387 . S
H3053 C3049 0.950 . S
H3054 C3051 0.950 . S
C3055 C3046 1.390 . S
C3055 H3048 0.950 . S
C3055 C3052 1.387 . S
C3056 C3057 1.387 . S
C3056 H3060 0.950 . S
C3056 C3065 1.390 . S
C3057 C3056 1.387 . S
C3057 C3059 1.387 1_565 S
H3058 C3065 0.950 . S
C3059 C3057 1.387 1_545 S
C3059 C3061 1.390 . S
C3059 H3063 0.950 . S
H3060 C3056 0.950 . S
C3061 C3059 1.390 . S
C3061 C3062 1.387 1_545 S
C3061 H3064 0.950 . S
C3062 C3061 1.387 1_565 S
C3062 C3065 1.387 . S
H3063 C3059 0.950 . S
H3064 C3061 0.950 . S
C3065 C3056 1.390 . S
C3065 H3058 0.950 . S
C3065 C3062 1.387 . S
C3066 C3067 1.387 . S
C3066 H3070 0.950 . S
C3066 C3075 1.390 . S
C3067 C3066 1.387 . S
C3067 C3069 1.387 1_554 S
H3068 C3075 0.950 . S
C3069 C3067 1.387 1_556 S
C3069 C3071 1.387 1_556 S
C3069 H3073 0.950 . S
H3070 C3066 0.950 . S
C3071 C3069 1.387 1_554 S
C3071 C3072 1.404 . S
C3071 H3074 0.939 1_554 S
C3072 C3071 1.404 . S
C3072 C3075 1.387 . S
H3073 C3069 0.950 . S
H3074 C3071 0.939 1_556 S
C3075 C3066 1.390 . S
C3075 H3068 0.950 . S
C3075 C3072 1.387 . S
C3076 C3077 1.387 . S
C3076 H3080 0.950 . S
C3076 C3085 1.390 . S
C3077 C3076 1.387 . S
C3077 C3079 1.387 . S
H3078 C3085 0.950 . S
C3079 C3077 1.387 . S
C3079 C3081 1.390 . S
C3079 H3083 0.950 . S
H3080 C3076 0.950 . S
C3081 C3079 1.390 . S
C3081 C3082 1.387 . S
C3081 H3084 0.950 . S
C3082 C3081 1.387 . S
C3082 C3085 1.387 . S
H3083 C3079 0.950 . S
H3084 C3081 0.950 . S
C3085 C3076 1.390 . S
C3085 H3078 0.950 . S
C3085 C3082 1.387 . S
C3086 C3087 1.387 . S
C3086 H3090 0.950 . S
C3086 C3095 1.390 . S
C3087 C3086 1.387 . S
C3087 C3089 1.387 . S
H3088 C3095 0.950 . S
C3089 C3087 1.387 . S
C3089 C3091 1.390 . S
C3089 H3093 0.950 . S
H3090 C3086 0.950 . S
C3091 C3089 1.390 . S
C3091 C3092 1.387 . S
C3091 H3094 0.950 . S
C3092 C3091 1.387 . S
C3092 C3095 1.387 . S
H3093 C3089 0.950 . S
H3094 C3091 0.950 . S
C3095 C3086 1.390 . S
C3095 H3088 0.950 . S
C3095 C3092 1.387 . S
C3096 C3097 1.387 . S
C3096 H3100 0.950 . S
C3096 C3105 1.390 . S
C3097 C3096 1.387 . S
C3097 C3099 1.387 . S
H3098 C3105 0.950 . S
C3099 C3097 1.387 . S
C3099 C3101 1.390 . S
C3099 H3103 0.950 . S
H3100 C3096 0.950 . S
C3101 C3099 1.390 . S
C3101 C3102 1.387 . S
C3101 H3104 0.950 . S
C3102 C3101 1.387 . S
C3102 C3105 1.387 . S
H3103 C3099 0.950 . S
H3104 C3101 0.950 . S
C3105 C3096 1.390 . S
C3105 H3098 0.950 . S
C3105 C3102 1.387 . S
C3106 C3107 1.387 . S
C3106 H3110 0.950 . S
C3106 C3115 1.390 . S
C3107 C3106 1.387 . S
C3107 C3109 1.387 . S
H3108 C3115 0.950 . S
C3109 C3107 1.387 . S
C3109 C3111 1.390 . S
C3109 H3113 0.949 1_545 S
H3110 C3106 0.950 . S
C3111 C3109 1.390 . S
C3111 C3112 1.387 . S
C3111 H3114 0.950 1_545 S
C3112 C3111 1.387 . S
C3112 C3115 1.387 . S
H3113 C3109 0.949 1_565 S
H3114 C3111 0.950 1_565 S
C3115 C3106 1.390 . S
C3115 H3108 0.950 . S
C3115 C3112 1.387 . S
C3116 C3117 1.387 . S
C3116 H3120 0.950 . S
C3116 C3125 1.390 . S
C3117 C3116 1.387 . S
C3117 C3119 1.387 . S
H3118 C3125 0.950 . S
C3119 C3117 1.387 . S
C3119 C3121 1.390 . S
C3119 H3123 0.950 . S
H3120 C3116 0.950 . S
C3121 C3119 1.390 . S
C3121 C3122 1.387 . S
C3121 H3124 0.950 . S
C3122 C3121 1.387 . S
C3122 C3125 1.387 . S
H3123 C3119 0.950 . S
H3124 C3121 0.950 . S
C3125 C3116 1.390 . S
C3125 H3118 0.950 . S
C3125 C3122 1.387 . S
C3126 C3127 1.387 . S
C3126 H3130 0.950 . S
C3126 C3135 1.390 . S
C3127 C3126 1.387 . S
C3127 C3129 1.387 . S
H3128 C3135 0.950 . S
C3129 C3127 1.387 . S
C3129 C3131 1.390 . S
C3129 H3133 0.950 . S
H3130 C3126 0.950 . S
C3131 C3129 1.390 . S
C3131 C3132 1.387 . S
C3131 H3134 0.950 . S
C3132 C3131 1.387 . S
C3132 C3135 1.387 . S
H3133 C3129 0.950 . S
H3134 C3131 0.950 . S
C3135 C3126 1.390 . S
C3135 H3128 0.950 . S
C3135 C3132 1.387 . S
C3136 C3137 1.387 . S
C3136 H3140 0.950 . S
C3136 C3145 1.390 . S
C3137 C3136 1.387 . S
C3137 C3139 1.387 . S
H3138 C3145 0.950 . S
C3139 C3137 1.387 . S
C3139 C3141 1.390 . S
C3139 H3143 0.950 . S
H3140 C3136 0.950 . S
C3141 C3139 1.390 . S
C3141 C3142 1.387 . S
C3141 H3144 0.950 . S
C3142 C3141 1.387 . S
C3142 C3145 1.387 . S
H3143 C3139 0.950 . S
H3144 C3141 0.950 . S
C3145 C3136 1.390 . S
C3145 H3138 0.950 . S
C3145 C3142 1.387 . S
C3146 C3147 1.387 . S
C3146 H3150 0.950 . S
C3146 C3155 1.390 . S
C3147 C3146 1.387 . S
C3147 C3149 1.387 . S
H3148 C3155 0.950 . S
C3149 C3147 1.387 . S
C3149 C3151 1.390 . S
C3149 H3153 0.950 . S
H3150 C3146 0.950 . S
C3151 C3149 1.390 . S
C3151 C3152 1.387 . S
C3151 H3154 0.950 . S
C3152 C3151 1.387 . S
C3152 C3155 1.387 . S
H3153 C3149 0.950 . S
H3154 C3151 0.950 . S
C3155 C3146 1.390 . S
C3155 H3148 0.950 . S
C3155 C3152 1.387 . S
C3156 C3157 1.387 . S
C3156 H3160 0.950 . S
C3156 C3165 1.390 . S
C3157 C3156 1.387 . S
C3157 C3159 1.387 . S
H3158 C3165 0.950 . S
C3159 C3157 1.387 . S
C3159 C3161 1.390 . S
C3159 H3163 0.950 . S
H3160 C3156 0.950 . S
C3161 C3159 1.390 . S
C3161 C3162 1.387 . S
C3161 H3164 0.950 . S
C3162 C3161 1.387 . S
C3162 C3165 1.387 . S
H3163 C3159 0.950 . S
H3164 C3161 0.950 . S
C3165 C3156 1.390 . S
C3165 H3158 0.950 . S
C3165 C3162 1.387 . S
C3166 C3167 1.387 . S
C3166 H3170 0.950 . S
C3166 C3175 1.390 . S
C3167 C3166 1.387 . S
C3167 C3169 1.387 . S
H3168 C3175 0.950 . S
C3169 C3167 1.387 . S
C3169 C3171 1.390 . S
C3169 H3173 0.950 . S
H3170 C3166 0.950 . S
C3171 C3169 1.390 . S
C3171 C3172 1.387 . S
C3171 H3174 0.950 . S
C3172 C3171 1.387 . S
C3172 C3175 1.387 . S
H3173 C3169 0.950 . S
H3174 C3171 0.950 . S
C3175 C3166 1.390 . S
C3175 H3168 0.950 . S
C3175 C3172 1.387 . S
C3176 C3177 1.387 . S
C3176 H3180 0.950 . S
C3176 C3185 1.390 . S
C3177 C3176 1.387 . S
C3177 C3179 1.387 . S
H3178 C3185 0.950 . S
C3179 C3177 1.387 . S
C3179 C3181 1.390 1_556 S
C3179 H3183 0.945 1_556 S
H3180 C3176 0.950 . S
C3181 C3179 1.390 1_554 S
C3181 C3182 1.396 . S
C3181 H3184 0.950 . S
C3182 C3181 1.396 . S
C3182 C3185 1.365 1_554 S
H3183 C3179 0.945 1_554 S
H3184 C3181 0.950 . S
C3185 C3176 1.390 . S
C3185 H3178 0.950 . S
C3185 C3182 1.365 1_556 S
C3186 C3187 1.387 . S
C3186 H3190 0.950 . S
C3186 C3195 1.390 . S
C3187 C3186 1.387 . S
C3187 C3189 1.387 . S
H3188 C3195 0.950 . S
C3189 C3187 1.387 . S
C3189 C3191 1.390 . S
C3189 H3193 0.950 . S
H3190 C3186 0.950 . S
C3191 C3189 1.390 . S
C3191 C3192 1.387 . S
C3191 H3194 0.950 . S
C3192 C3191 1.387 . S
C3192 C3195 1.387 . S
H3193 C3189 0.950 . S
H3194 C3191 0.950 . S
C3195 C3186 1.390 . S
C3195 H3188 0.950 . S
C3195 C3192 1.387 . S
C3196 C3197 1.387 . S
C3196 H3200 0.950 . S
C3196 C3205 1.390 . S
C3197 C3196 1.387 . S
C3197 C3199 1.387 . S
H3198 C3205 0.950 . S
C3199 C3197 1.387 . S
C3199 C3201 1.390 . S
C3199 H3203 0.950 . S
H3200 C3196 0.950 . S
C3201 C3199 1.390 . S
C3201 C3202 1.387 . S
C3201 H3204 0.950 . S
C3202 C3201 1.387 . S
C3202 C3205 1.387 . S
H3203 C3199 0.950 . S
H3204 C3201 0.950 . S
C3205 C3196 1.390 . S
C3205 H3198 0.950 . S
C3205 C3202 1.387 . S
C3206 C3207 1.387 . S
C3206 H3210 0.950 . S
C3206 C3215 1.390 . S
C3207 C3206 1.387 . S
C3207 C3209 1.387 . S
H3208 C3215 0.950 . S
C3209 C3207 1.387 . S
C3209 C3211 1.390 . S
C3209 H3213 0.950 . S
H3210 C3206 0.950 . S
C3211 C3209 1.390 . S
C3211 C3212 1.387 . S
C3211 H3214 0.950 . S
C3212 C3211 1.387 . S
C3212 C3215 1.387 . S
H3213 C3209 0.950 . S
H3214 C3211 0.950 . S
C3215 C3206 1.390 . S
C3215 H3208 0.950 . S
C3215 C3212 1.387 . S
C3216 C3217 1.387 . S
C3216 H3220 0.950 . S
C3216 C3225 1.390 . S
C3217 C3216 1.387 . S
C3217 C3219 1.387 . S
H3218 C3225 0.950 . S
C3219 C3217 1.387 . S
C3219 C3221 1.390 . S
C3219 H3223 0.950 . S
H3220 C3216 0.950 . S
C3221 C3219 1.390 . S
C3221 C3222 1.387 . S
C3221 H3224 0.950 . S
C3222 C3221 1.387 . S
C3222 C3225 1.387 . S
H3223 C3219 0.950 . S
H3224 C3221 0.950 . S
C3225 C3216 1.390 . S
C3225 H3218 0.950 . S
C3225 C3222 1.387 . S
C3226 C3227 1.387 . S
C3226 H3230 0.950 . S
C3226 C3235 1.390 . S
C3227 C3226 1.387 . S
C3227 C3229 1.387 . S
H3228 C3235 0.950 . S
C3229 C3227 1.387 . S
C3229 C3231 1.390 . S
C3229 H3233 0.950 . S
H3230 C3226 0.950 . S
C3231 C3229 1.390 . S
C3231 C3232 1.387 . S
C3231 H3234 0.950 . S
C3232 C3231 1.387 . S
C3232 C3235 1.387 . S
H3233 C3229 0.950 . S
H3234 C3231 0.950 . S
C3235 C3226 1.390 . S
C3235 H3228 0.950 . S
C3235 C3232 1.387 . S
C3236 C3237 1.387 . S
C3236 H3240 0.950 . S
C3236 C3245 1.390 . S
C3237 C3236 1.387 . S
C3237 C3239 1.387 . S
H3238 C3245 0.950 1_455 S
C3239 C3237 1.387 . S
C3239 C3241 1.390 . S
C3239 H3243 0.950 . S
H3240 C3236 0.950 . S
C3241 C3239 1.390 . S
C3241 C3242 1.387 1_655 S
C3241 H3244 0.950 . S
C3242 C3241 1.387 1_455 S
C3242 C3245 1.387 1_455 S
H3243 C3239 0.950 . S
H3244 C3241 0.950 . S
C3245 C3236 1.390 . S
C3245 H3238 0.950 1_655 S
C3245 C3242 1.387 1_655 S
C3246 C3247 1.387 . S
C3246 H3250 0.950 . S
C3246 C3255 1.390 . S
C3247 C3246 1.387 . S
C3247 C3249 1.387 . S
H3248 C3255 0.950 . S
C3249 C3247 1.387 . S
C3249 C3251 1.390 . S
C3249 H3253 0.950 . S
H3250 C3246 0.950 . S
C3251 C3249 1.390 . S
C3251 C3252 1.387 . S
C3251 H3254 0.950 . S
C3252 C3251 1.387 . S
C3252 C3255 1.387 . S
H3253 C3249 0.950 . S
H3254 C3251 0.950 . S
C3255 C3246 1.390 . S
C3255 H3248 0.950 . S
C3255 C3252 1.387 . S
C3256 C3257 1.387 . S
C3256 H3260 0.950 . S
C3256 C3265 1.390 . S
C3257 C3256 1.387 . S
C3257 C3259 1.387 . S
H3258 C3265 0.950 . S
C3259 C3257 1.387 . S
C3259 C3261 1.390 . S
C3259 H3263 0.950 . S
H3260 C3256 0.950 . S
C3261 C3259 1.390 . S
C3261 C3262 1.387 . S
C3261 H3264 0.950 . S
C3262 C3261 1.387 . S
C3262 C3265 1.387 . S
H3263 C3259 0.950 . S
H3264 C3261 0.950 . S
C3265 C3256 1.390 . S
C3265 H3258 0.950 . S
C3265 C3262 1.387 . S
C3266 C3267 1.387 . S
C3266 H3270 0.950 . S
C3266 C3275 1.390 . S
C3267 C3266 1.387 . S
C3267 C3269 1.387 . S
H3268 C3275 0.950 . S
C3269 C3267 1.387 . S
C3269 C3271 1.390 . S
C3269 H3273 0.950 . S
H3270 C3266 0.950 . S
C3271 C3269 1.390 . S
C3271 C3272 1.387 . S
C3271 H3274 0.950 . S
C3272 C3271 1.387 . S
C3272 C3275 1.387 . S
H3273 C3269 0.950 . S
H3274 C3271 0.950 . S
C3275 C3266 1.390 . S
C3275 H3268 0.950 . S
C3275 C3272 1.387 . S
C3276 C3277 1.387 . S
C3276 H3280 0.950 . S
C3276 C3285 1.390 . S
C3277 C3276 1.387 . S
C3277 C3279 1.387 . S
H3278 C3285 0.950 . S
C3279 C3277 1.387 . S
C3279 C3281 1.390 . S
C3279 H3283 0.950 1_655 S
H3280 C3276 0.950 . S
C3281 C3279 1.390 . S
C3281 C3282 1.388 . S
C3281 H3284 0.949 1_655 S
C3282 C3281 1.388 . S
C3282 C3285 1.387 . S
H3283 C3279 0.950 1_455 S
H3284 C3281 0.949 1_455 S
C3285 C3276 1.390 . S
C3285 H3278 0.950 . S
C3285 C3282 1.387 . S
C3286 C3287 1.387 . S
C3286 H3290 0.950 . S
C3286 C3295 1.390 . S
C3287 C3286 1.387 . S
C3287 C3289 1.387 . S
H3288 C3295 0.950 . S
C3289 C3287 1.387 . S
C3289 C3291 1.390 . S
C3289 H3293 0.950 . S
H3290 C3286 0.950 . S
C3291 C3289 1.390 . S
C3291 C3292 1.387 . S
C3291 H3294 0.950 . S
C3292 C3291 1.387 . S
C3292 C3295 1.387 . S
H3293 C3289 0.950 . S
H3294 C3291 0.950 . S
C3295 C3286 1.390 . S
C3295 H3288 0.950 . S
C3295 C3292 1.387 . S
C3296 C3297 1.387 . S
C3296 H3300 0.950 . S
C3296 C3305 1.390 . S
C3297 C3296 1.387 . S
C3297 C3299 1.387 . S
H3298 C3305 0.950 . S
C3299 C3297 1.387 . S
C3299 C3301 1.390 . S
C3299 H3303 0.950 . S
H3300 C3296 0.950 . S
C3301 C3299 1.390 . S
C3301 C3302 1.387 . S
C3301 H3304 0.950 . S
C3302 C3301 1.387 . S
C3302 C3305 1.387 . S
H3303 C3299 0.950 . S
H3304 C3301 0.950 . S
C3305 C3296 1.390 . S
C3305 H3298 0.950 . S
C3305 C3302 1.387 . S
C3306 C3307 1.387 . S
C3306 H3310 0.950 . S
C3306 C3315 1.390 . S
C3307 C3306 1.387 . S
C3307 C3309 1.387 1_565 S
H3308 C3315 0.950 . S
C3309 C3307 1.387 1_545 S
C3309 C3311 1.390 . S
C3309 H3313 0.950 . S
H3310 C3306 0.950 . S
C3311 C3309 1.390 . S
C3311 C3312 1.387 1_545 S
C3311 H3314 0.950 . S
C3312 C3311 1.387 1_565 S
C3312 C3315 1.387 . S
H3313 C3309 0.950 . S
H3314 C3311 0.950 . S
C3315 C3306 1.390 . S
C3315 H3308 0.950 . S
C3315 C3312 1.387 . S
C3316 C3317 1.387 . S
C3316 H3320 0.950 . S
C3316 C3325 1.390 . S
C3317 C3316 1.387 . S
C3317 C3319 1.387 . S
H3318 C3325 0.950 . S
C3319 C3317 1.387 . S
C3319 C3321 1.390 . S
C3319 H3323 0.950 . S
H3320 C3316 0.950 . S
C3321 C3319 1.390 . S
C3321 C3322 1.387 . S
C3321 H3324 0.950 . S
C3322 C3321 1.387 . S
C3322 C3325 1.387 . S
H3323 C3319 0.950 . S
H3324 C3321 0.950 . S
C3325 C3316 1.390 . S
C3325 H3318 0.950 . S
C3325 C3322 1.387 . S
C3326 C3327 1.387 . S
C3326 H3330 0.950 . S
C3326 C3335 1.390 . S
C3327 C3326 1.387 . S
C3327 C3329 1.387 . S
H3328 C3335 0.950 . S
C3329 C3327 1.387 . S
C3329 C3331 1.390 . S
C3329 H3333 0.950 1_545 S
H3330 C3326 0.950 . S
C3331 C3329 1.390 . S
C3331 C3332 1.387 . S
C3331 H3334 0.951 . S
C3332 C3331 1.387 . S
C3332 C3335 1.387 . S
H3333 C3329 0.950 1_565 S
H3334 C3331 0.951 . S
C3335 C3326 1.390 . S
C3335 H3328 0.950 . S
C3335 C3332 1.387 . S
C3336 C3337 1.387 . S
C3336 H3340 0.950 . S
C3336 C3345 1.390 . S
C3337 C3336 1.387 . S
C3337 C3339 1.387 . S
H3338 C3345 0.950 . S
C3339 C3337 1.387 . S
C3339 C3341 1.390 . S
C3339 H3343 0.950 . S
H3340 C3336 0.950 . S
C3341 C3339 1.390 . S
C3341 C3342 1.387 . S
C3341 H3344 0.950 . S
C3342 C3341 1.387 . S
C3342 C3345 1.387 . S
H3343 C3339 0.950 . S
H3344 C3341 0.950 . S
C3345 C3336 1.390 . S
C3345 H3338 0.950 . S
C3345 C3342 1.387 . S
C3346 C3347 1.387 . S
C3346 H3350 0.950 . S
C3346 C3355 1.390 . S
C3347 C3346 1.387 . S
C3347 C3349 1.387 . S
H3348 C3355 0.950 . S
C3349 C3347 1.387 . S
C3349 C3351 1.390 . S
C3349 H3353 0.950 . S
H3350 C3346 0.950 . S
C3351 C3349 1.390 . S
C3351 C3352 1.387 . S
C3351 H3354 0.950 . S
C3352 C3351 1.387 . S
C3352 C3355 1.387 . S
H3353 C3349 0.950 . S
H3354 C3351 0.950 . S
C3355 C3346 1.390 . S
C3355 H3348 0.950 . S
C3355 C3352 1.387 . S
C3356 C3357 1.387 . S
C3356 H3360 0.950 . S
C3356 C3365 1.390 . S
C3357 C3356 1.387 . S
C3357 C3359 1.387 . S
H3358 C3365 0.950 . S
C3359 C3357 1.387 . S
C3359 C3361 1.390 . S
C3359 H3363 0.950 . S
H3360 C3356 0.950 . S
C3361 C3359 1.390 . S
C3361 C3362 1.387 . S
C3361 H3364 0.950 . S
C3362 C3361 1.387 . S
C3362 C3365 1.387 . S
H3363 C3359 0.950 . S
H3364 C3361 0.950 . S
C3365 C3356 1.390 . S
C3365 H3358 0.950 . S
C3365 C3362 1.387 . S
C3366 C3367 1.387 . S
C3366 H3370 0.950 . S
C3366 C3375 1.390 . S
C3367 C3366 1.387 . S
C3367 C3369 1.387 . S
H3368 C3375 0.950 . S
C3369 C3367 1.387 . S
C3369 C3371 1.390 . S
C3369 H3373 0.950 . S
H3370 C3366 0.950 . S
C3371 C3369 1.390 . S
C3371 C3372 1.387 . S
C3371 H3374 0.950 . S
C3372 C3371 1.387 . S
C3372 C3375 1.387 . S
H3373 C3369 0.950 . S
H3374 C3371 0.950 . S
C3375 C3366 1.390 . S
C3375 H3368 0.950 . S
C3375 C3372 1.387 . S
C3376 C3377 1.387 . S
C3376 H3380 0.950 . S
C3376 C3385 1.390 . S
C3377 C3376 1.387 . S
C3377 C3379 1.387 . S
H3378 C3385 0.950 . S
C3379 C3377 1.387 . S
C3379 C3381 1.390 . S
C3379 H3383 0.950 . S
H3380 C3376 0.950 . S
C3381 C3379 1.390 . S
C3381 C3382 1.387 . S
C3381 H3384 0.950 . S
C3382 C3381 1.387 . S
C3382 C3385 1.387 . S
H3383 C3379 0.950 . S
H3384 C3381 0.950 . S
C3385 C3376 1.390 . S
C3385 H3378 0.950 . S
C3385 C3382 1.387 . S
C3386 C3387 1.387 . S
C3386 H3390 0.950 . S
C3386 C3395 1.390 . S
C3387 C3386 1.387 . S
C3387 C3389 1.387 . S
H3388 C3395 0.950 . S
C3389 C3387 1.387 . S
C3389 C3391 1.390 . S
C3389 H3393 0.950 . S
H3390 C3386 0.950 . S
C3391 C3389 1.390 . S
C3391 C3392 1.387 . S
C3391 H3394 0.950 . S
C3392 C3391 1.387 . S
C3392 C3395 1.387 . S
H3393 C3389 0.950 . S
H3394 C3391 0.950 . S
C3395 C3386 1.390 . S
C3395 H3388 0.950 . S
C3395 C3392 1.387 . S
C3396 C3397 1.387 1_655 S
C3396 H3400 0.950 . S
C3396 C3405 1.390 . S
C3397 C3396 1.387 1_455 S
C3397 C3399 1.387 . S
H3398 C3405 0.950 1_554 S
C3399 C3397 1.387 . S
C3399 C3401 1.390 . S
C3399 H3403 0.950 . S
H3400 C3396 0.950 . S
C3401 C3399 1.390 . S
C3401 C3402 1.387 1_455 S
C3401 H3404 0.950 . S
C3402 C3401 1.387 1_655 S
C3402 C3405 1.387 . S
H3403 C3399 0.950 . S
H3404 C3401 0.950 . S
C3405 C3396 1.390 . S
C3405 H3398 0.950 1_556 S
C3405 C3402 1.387 . S
C3406 C3407 1.387 . S
C3406 H3410 0.950 . S
C3406 C3415 1.390 . S
C3407 C3406 1.387 . S
C3407 C3409 1.387 . S
H3408 C3415 0.950 . S
C3409 C3407 1.387 . S
C3409 C3411 1.390 . S
C3409 H3413 0.950 . S
H3410 C3406 0.950 . S
C3411 C3409 1.390 . S
C3411 C3412 1.387 . S
C3411 H3414 0.950 . S
C3412 C3411 1.387 . S
C3412 C3415 1.387 . S
H3413 C3409 0.950 . S
H3414 C3411 0.950 . S
C3415 C3406 1.390 . S
C3415 H3408 0.950 . S
C3415 C3412 1.387 . S
C3416 C3417 1.387 . S
C3416 H3420 0.950 . S
C3416 C3425 1.390 . S
C3417 C3416 1.387 . S
C3417 C3419 1.387 . S
H3418 C3425 0.950 . S
C3419 C3417 1.387 . S
C3419 C3421 1.390 . S
C3419 H3423 0.950 . S
H3420 C3416 0.950 . S
C3421 C3419 1.390 . S
C3421 C3422 1.387 . S
C3421 H3424 0.950 . S
C3422 C3421 1.387 . S
C3422 C3425 1.387 . S
H3423 C3419 0.950 . S
H3424 C3421 0.950 . S
C3425 C3416 1.390 . S
C3425 H3418 0.950 . S
C3425 C3422 1.387 . S
C3426 C3427 1.387 . S
C3426 H3430 0.950 . S
C3426 C3435 1.390 . S
C3427 C3426 1.387 . S
C3427 C3429 1.387 . S
H3428 C3435 0.950 . S
C3429 C3427 1.387 . S
C3429 C3431 1.390 . S
C3429 H3433 0.950 . S
H3430 C3426 0.950 . S
C3431 C3429 1.390 . S
C3431 C3432 1.387 . S
C3431 H3434 0.950 . S
C3432 C3431 1.387 . S
C3432 C3435 1.387 . S
H3433 C3429 0.950 . S
H3434 C3431 0.950 . S
C3435 C3426 1.390 . S
C3435 H3428 0.950 . S
C3435 C3432 1.387 . S
C3436 C3437 1.387 . S
C3436 H3440 0.950 . S
C3436 C3445 1.390 . S
C3437 C3436 1.387 . S
C3437 C3439 1.387 . S
H3438 C3445 0.950 . S
C3439 C3437 1.387 . S
C3439 C3441 1.390 . S
C3439 H3443 0.950 1_455 S
H3440 C3436 0.950 . S
C3441 C3439 1.390 . S
C3441 C3442 1.387 . S
C3441 H3444 0.950 1_455 S
C3442 C3441 1.387 . S
C3442 C3445 1.387 . S
H3443 C3439 0.950 1_655 S
H3444 C3441 0.950 1_655 S
C3445 C3436 1.390 . S
C3445 H3438 0.950 . S
C3445 C3442 1.387 . S
C3446 C3447 1.387 . S
C3446 H3450 0.950 . S
C3446 C3455 1.390 . S
C3447 C3446 1.387 . S
C3447 C3449 1.387 . S
H3448 C3455 0.950 . S
C3449 C3447 1.387 . S
C3449 C3451 1.390 . S
C3449 H3453 0.950 . S
H3450 C3446 0.950 . S
C3451 C3449 1.390 . S
C3451 C3452 1.387 . S
C3451 H3454 0.950 . S
C3452 C3451 1.387 . S
C3452 C3455 1.387 . S
H3453 C3449 0.950 . S
H3454 C3451 0.950 . S
C3455 C3446 1.390 . S
C3455 H3448 0.950 . S
C3455 C3452 1.387 . S
C3456 C3457 1.387 . S
C3456 H3460 0.950 . S
C3456 C3465 1.390 . S
C3457 C3456 1.387 . S
C3457 C3459 1.387 . S
H3458 C3465 0.950 . S
C3459 C3457 1.387 . S
C3459 C3461 1.390 . S
C3459 H3463 0.950 . S
H3460 C3456 0.950 . S
C3461 C3459 1.390 . S
C3461 C3462 1.387 . S
C3461 H3464 0.950 . S
C3462 C3461 1.387 . S
C3462 C3465 1.387 . S
H3463 C3459 0.950 . S
H3464 C3461 0.950 . S
C3465 C3456 1.390 . S
C3465 H3458 0.950 . S
C3465 C3462 1.387 . S
C3466 C3467 1.387 . S
C3466 H3470 0.950 . S
C3466 C3475 1.390 . S
C3467 C3466 1.387 . S
C3467 C3469 1.387 . S
H3468 C3475 0.950 . S
C3469 C3467 1.387 . S
C3469 C3471 1.390 . S
C3469 H3473 0.950 . S
H3470 C3466 0.950 . S
C3471 C3469 1.390 . S
C3471 C3472 1.387 . S
C3471 H3474 0.950 . S
C3472 C3471 1.387 . S
C3472 C3475 1.387 . S
H3473 C3469 0.950 . S
H3474 C3471 0.950 . S
C3475 C3466 1.390 . S
C3475 H3468 0.950 . S
C3475 C3472 1.387 . S
C3476 C3477 1.387 . S
C3476 H3480 0.950 . S
C3476 C3485 1.390 . S
C3477 C3476 1.387 . S
C3477 C3479 1.387 . S
H3478 C3485 0.950 . S
C3479 C3477 1.387 . S
C3479 C3481 1.390 . S
C3479 H3483 0.950 . S
H3480 C3476 0.950 . S
C3481 C3479 1.390 . S
C3481 C3482 1.387 . S
C3481 H3484 0.950 . S
C3482 C3481 1.387 . S
C3482 C3485 1.387 . S
H3483 C3479 0.950 . S
H3484 C3481 0.950 . S
C3485 C3476 1.390 . S
C3485 H3478 0.950 . S
C3485 C3482 1.387 . S
C3486 C3487 1.387 . S
C3486 H3490 0.950 . S
C3486 C3495 1.390 . S
C3487 C3486 1.387 . S
C3487 C3489 1.387 . S
H3488 C3495 0.950 . S
C3489 C3487 1.387 . S
C3489 C3491 1.390 . S
C3489 H3493 0.950 . S
H3490 C3486 0.950 . S
C3491 C3489 1.390 . S
C3491 C3492 1.387 . S
C3491 H3494 0.950 . S
C3492 C3491 1.387 . S
C3492 C3495 1.387 . S
H3493 C3489 0.950 . S
H3494 C3491 0.950 . S
C3495 C3486 1.390 . S
C3495 H3488 0.950 . S
C3495 C3492 1.387 . S
C3496 C3497 1.387 . S
C3496 H3500 0.950 . S
C3496 C3505 1.390 . S
C3497 C3496 1.387 . S
C3497 C3499 1.387 . S
H3498 C3505 0.950 . S
C3499 C3497 1.387 . S
C3499 C3501 1.390 . S
C3499 H3503 0.950 . S
H3500 C3496 0.950 . S
C3501 C3499 1.390 . S
C3501 C3502 1.387 . S
C3501 H3504 0.950 . S
C3502 C3501 1.387 . S
C3502 C3505 1.387 . S
H3503 C3499 0.950 . S
H3504 C3501 0.950 . S
C3505 C3496 1.390 . S
C3505 H3498 0.950 . S
C3505 C3502 1.387 . S
C3506 C3507 1.387 . S
C3506 H3510 0.950 . S
C3506 C3515 1.390 . S
C3507 C3506 1.387 . S
C3507 C3509 1.387 . S
H3508 C3515 0.950 . S
C3509 C3507 1.387 . S
C3509 C3511 1.390 . S
C3509 H3513 0.950 . S
H3510 C3506 0.950 . S
C3511 C3509 1.390 . S
C3511 C3512 1.387 . S
C3511 H3514 0.950 . S
C3512 C3511 1.387 . S
C3512 C3515 1.387 . S
H3513 C3509 0.950 . S
H3514 C3511 0.950 . S
C3515 C3506 1.390 . S
C3515 H3508 0.950 . S
C3515 C3512 1.387 . S
C3516 C3517 1.387 . S
C3516 H3520 0.950 . S
C3516 C3525 1.390 . S
C3517 C3516 1.387 . S
C3517 C3519 1.387 . S
H3518 C3525 0.950 . S
C3519 C3517 1.387 . S
C3519 C3521 1.390 . S
C3519 H3523 0.950 . S
H3520 C3516 0.950 . S
C3521 C3519 1.390 . S
C3521 C3522 1.387 . S
C3521 H3524 0.950 . S
C3522 C3521 1.387 . S
C3522 C3525 1.387 . S
H3523 C3519 0.950 . S
H3524 C3521 0.950 . S
C3525 C3516 1.390 . S
C3525 H3518 0.950 . S
C3525 C3522 1.387 . S
C3526 C3527 1.387 . S
C3526 H3530 0.950 . S
C3526 C3535 1.390 . S
C3527 C3526 1.387 . S
C3527 C3529 1.387 . S
H3528 C3535 0.950 . S
C3529 C3527 1.387 . S
C3529 C3531 1.390 . S
C3529 H3533 0.950 . S
H3530 C3526 0.950 . S
C3531 C3529 1.390 . S
C3531 C3532 1.387 . S
C3531 H3534 0.950 . S
C3532 C3531 1.387 . S
C3532 C3535 1.387 . S
H3533 C3529 0.950 . S
H3534 C3531 0.950 . S
C3535 C3526 1.390 . S
C3535 H3528 0.950 . S
C3535 C3532 1.387 . S
C3536 C3537 1.387 . S
C3536 H3540 0.950 . S
C3536 C3545 1.390 . S
C3537 C3536 1.387 . S
C3537 C3539 1.387 . S
H3538 C3545 0.950 . S
C3539 C3537 1.387 . S
C3539 C3541 1.390 . S
C3539 H3543 0.950 . S
H3540 C3536 0.950 . S
C3541 C3539 1.390 . S
C3541 C3542 1.387 . S
C3541 H3544 0.950 . S
C3542 C3541 1.387 . S
C3542 C3545 1.387 . S
H3543 C3539 0.950 . S
H3544 C3541 0.950 . S
C3545 C3536 1.390 . S
C3545 H3538 0.950 . S
C3545 C3542 1.387 . S
C3546 C3547 1.387 . S
C3546 H3550 0.950 . S
C3546 C3555 1.390 . S
C3547 C3546 1.387 . S
C3547 C3549 1.387 . S
H3548 C3555 0.950 . S
C3549 C3547 1.387 . S
C3549 C3551 1.390 . S
C3549 H3553 0.950 . S
H3550 C3546 0.950 . S
C3551 C3549 1.390 . S
C3551 C3552 1.387 . S
C3551 H3554 0.950 . S
C3552 C3551 1.387 . S
C3552 C3555 1.387 . S
H3553 C3549 0.950 . S
H3554 C3551 0.950 . S
C3555 C3546 1.390 . S
C3555 H3548 0.950 . S
C3555 C3552 1.387 . S
C3556 C3557 1.387 . S
C3556 H3560 0.950 . S
C3556 C3565 1.390 . S
C3557 C3556 1.387 . S
C3557 C3559 1.387 . S
H3558 C3565 0.950 . S
C3559 C3557 1.387 . S
C3559 C3561 1.390 . S
C3559 H3563 0.950 . S
H3560 C3556 0.950 . S
C3561 C3559 1.390 . S
C3561 C3562 1.387 . S
C3561 H3564 0.950 . S
C3562 C3561 1.387 . S
C3562 C3565 1.387 . S
H3563 C3559 0.950 . S
H3564 C3561 0.950 . S
C3565 C3556 1.390 . S
C3565 H3558 0.950 . S
C3565 C3562 1.387 . S
C3566 C3567 1.387 . S
C3566 H3570 0.950 . S
C3566 C3575 1.390 . S
C3567 C3566 1.387 . S
C3567 C3569 1.387 1_565 S
H3568 C3575 0.950 . S
C3569 C3567 1.387 1_545 S
C3569 C3571 1.390 . S
C3569 H3573 0.950 . S
H3570 C3566 0.950 . S
C3571 C3569 1.390 . S
C3571 C3572 1.387 1_545 S
C3571 H3574 0.950 . S
C3572 C3571 1.387 1_565 S
C3572 C3575 1.387 . S
H3573 C3569 0.950 . S
H3574 C3571 0.950 . S
C3575 C3566 1.390 . S
C3575 H3568 0.950 . S
C3575 C3572 1.387 . S
C3576 C3577 1.387 . S
C3576 H3580 0.950 . S
C3576 C3585 1.390 . S
C3577 C3576 1.387 . S
C3577 C3579 1.387 . S
H3578 C3585 0.950 . S
C3579 C3577 1.387 . S
C3579 C3581 1.390 . S
C3579 H3583 0.950 . S
H3580 C3576 0.950 . S
C3581 C3579 1.390 . S
C3581 C3582 1.387 . S
C3581 H3584 0.950 . S
C3582 C3581 1.387 . S
C3582 C3585 1.387 . S
H3583 C3579 0.950 . S
H3584 C3581 0.950 . S
C3585 C3576 1.390 . S
C3585 H3578 0.950 . S
C3585 C3582 1.387 . S
C3586 C3587 1.387 . S
C3586 H3590 0.950 . S
C3586 C3595 1.390 . S
C3587 C3586 1.387 . S
C3587 C3589 1.387 . S
H3588 C3595 0.950 . S
C3589 C3587 1.387 . S
C3589 C3591 1.390 . S
C3589 H3593 0.950 . S
H3590 C3586 0.950 . S
C3591 C3589 1.390 . S
C3591 C3592 1.387 . S
C3591 H3594 0.950 . S
C3592 C3591 1.387 . S
C3592 C3595 1.387 . S
H3593 C3589 0.950 . S
H3594 C3591 0.950 . S
C3595 C3586 1.390 . S
C3595 H3588 0.950 . S
C3595 C3592 1.387 . S
C3596 C3597 1.387 . S
C3596 H3600 0.950 . S
C3596 C3605 1.390 . S
C3597 C3596 1.387 . S
C3597 C3599 1.387 . S
H3598 C3605 0.950 . S
C3599 C3597 1.387 . S
C3599 C3601 1.390 . S
C3599 H3603 0.950 . S
H3600 C3596 0.950 . S
C3601 C3599 1.390 . S
C3601 C3602 1.387 . S
C3601 H3604 0.950 . S
C3602 C3601 1.387 . S
C3602 C3605 1.387 . S
H3603 C3599 0.950 . S
H3604 C3601 0.950 . S
C3605 C3596 1.390 . S
C3605 H3598 0.950 . S
C3605 C3602 1.387 . S
C3606 C3607 1.387 . S
C3606 H3610 0.950 . S
C3606 C3615 1.390 . S
C3607 C3606 1.387 . S
C3607 C3609 1.387 . S
H3608 C3615 0.950 . S
C3609 C3607 1.387 . S
C3609 C3611 1.390 . S
C3609 H3613 0.950 . S
H3610 C3606 0.950 . S
C3611 C3609 1.390 . S
C3611 C3612 1.387 . S
C3611 H3614 0.950 . S
C3612 C3611 1.387 . S
C3612 C3615 1.387 . S
H3613 C3609 0.950 . S
H3614 C3611 0.950 . S
C3615 C3606 1.390 . S
C3615 H3608 0.950 . S
C3615 C3612 1.387 . S
C2662 C2129 1.050 . S
C2657 C49 1.070 . S
C2667 C137 1.841 . S
C2672 C2175 1.838 . S
C2677 C205 0.884 . S
C2682 C2184 0.881 . S
C2692 C2222 1.614 . S
C2687 C284 1.621 . S
C2697 C117 1.561 . S
C2702 C2256 1.548 . S
C2712 C2286 0.887 . S
C2707 C225 0.886 . S
C2722 C2345 1.545 1_556 S
C2717 C321 1.569 . S
C2727 C29 1.128 . S
C2732 C2358 1.130 . S
C2737 C401 1.378 . S
C2742 C2141 1.353 . S
C2747 C497 1.232 . S
C2752 C2159 1.231 . S
C2762 C2180 1.586 . S
C2757 C585 1.613 . S
C2772 C2218 1.054 . S
C2767 C665 1.088 . S
C2777 C372 1.349 . S
C2782 C2252 1.324 . S
C2792 C2282 1.542 . S
C2787 C469 1.564 . S
C2802 C2329 1.272 . S
C2797 C557 1.281 . S
C2812 C2354 0.647 . S
C2807 C636 0.638 . S
C2822 C2125 0.949 . S
C2817 C673 0.923 . S
C2832 C2384 1.704 . S
C2827 C724 1.668 . S
C2837 C821 1.562 . S
C2842 C2426 1.580 . S
C2852 C2469 0.654 . S
C2847 C909 0.653 . S
C2857 C381 1.400 . S
C2862 C2350 1.384 . S
C2872 C2188 1.651 . S
C2867 C489 1.627 . S
C2877 C849 1.430 . S
C2882 C2486 1.463 . S
C2892 C2537 1.609 . S
C2887 C1017 1.606 . S
C2897 C1085 1.071 . S
C2902 C2120 1.046 1_556 S
C2912 C2520 1.840 . S
C2907 C1201 1.845 . S
C2917 C1289 0.886 . S
C2922 C2193 0.881 . S
C2927 C1349 1.626 . S
C2932 C2503 1.615 . S
C2942 C2265 1.552 . S
C2937 C1193 1.565 . S
C2952 C2431 0.885 . S
C2947 C1281 0.882 . S
C2962 C2316 1.566 . S
C2957 C1340 1.573 . S
C2972 C2571 1.130 . S
C2967 C1076 1.137 . S
C2982 C2112 1.356 . S
C2977 C1428 1.384 . S
C2987 C1516 1.238 . S
C2992 C2524 1.234 . S
C3002 C2209 1.589 . S
C2997 C1604 1.618 . S
C3007 C1701 1.099 . S
C3012 C2499 1.059 . S
C3017 C1457 1.363 . S
C3022 C2261 1.327 . S
C3027 C1545 1.570 . S
C3032 C2447 1.546 . S
C3042 C2320 1.274 . S
C3037 C1633 1.285 . S
C3047 C1729 0.639 . S
C3052 C2567 0.649 . S
C3057 C1721 0.926 . S
C3062 C2116 0.947 . S
C3067 C1789 1.669 . S
C3072 C2413 1.707 . S
C3077 C1868 1.570 . S
C3082 C2299 1.582 . S
C3087 C1956 0.656 . S
C3092 C2460 0.661 . S
C3102 C2583 1.383 . S
C3097 C1437 1.405 . S
C3112 C2197 1.649 . S
C3107 C1553 1.632 . S
C3122 C2243 1.467 . S
C3117 C1897 1.433 . S
C3132 C2154 1.612 . S
C3127 C2081 1.607 . S
C3137 C233 1.070 . S
C3142 C2605 1.050 . S
C3152 C2549 1.838 . S
C3147 C313 1.842 . S
C3162 C2626 0.878 . S
C3157 C20 0.883 . S
C3167 C108 1.621 . S
C3172 C2494 1.614 . S
C3177 C293 1.562 . S
C3182 C2392 1.560 . S
C3192 C2422 0.887 . S
C3187 C57 0.886 . S
C3202 C2481 1.564 . S
C3197 C145 1.570 . S
C3212 C2562 1.125 . S
C3207 C196 1.123 . S
C3222 C2617 1.353 . S
C3217 C1025 1.379 . S
C3227 C761 1.234 . S
C3232 C2533 1.234 . S
C3237 C841 1.613 . S
C3242 C2622 1.585 . S
C3252 C2490 1.054 . S
C3247 C929 1.088 . S
C3262 C2388 1.327 . S
C3257 C997 1.351 . S
C3267 C733 1.565 . S
C3272 C2418 1.544 . S
C3282 C2465 1.274 . S
C3277 C812 1.280 . S
C3287 C900 0.637 . S
C3292 C2558 0.646 . S
C3302 C2601 0.948 . S
C3297 C937 0.924 . S
C3312 C2248 1.706 . S
C3307 C460 1.668 . S
C3322 C2290 1.582 . S
C3317 C548 1.565 . S
C3327 C645 0.657 . S
C3332 C2333 0.660 . S
C3342 C2554 1.382 . S
C3337 C988 1.399 . S
C3347 C753 1.625 . S
C3352 C2630 1.648 . S
C3362 C2214 1.464 . S
C3357 C577 1.433 . S
C3372 C2163 1.610 . S
C3367 C409 1.606 . S
C3377 C1261 1.076 . S
C3382 C2596 1.052 . S
C3392 C2146 1.840 . S
C3387 C1377 1.845 . S
C3402 C2635 0.882 . S
C3397 C1113 0.886 . S
C3407 C1173 1.625 . S
C3412 C2231 1.617 . S
C3417 C1369 1.566 . S
C3422 C2401 1.551 . S
C3427 C1105 0.887 . S
C3432 C2295 0.885 . S
C3437 C1164 1.573 . S
C3442 C2452 1.566 . S
C3447 C1252 1.129 . S
C3452 C2367 1.125 . S
C3462 C2588 1.355 . S
C3457 C2044 1.383 . S
C3467 C1780 1.236 . S
C3472 C2150 1.231 . S
C3482 C2651 1.588 . S
C3477 C1877 1.617 . S
C3487 C1965 1.094 . S
C3492 C2227 1.053 . S
C3497 C2073 1.354 . S
C3502 C2397 1.326 . S
C3512 C2311 1.544 . S
C3507 C1809 1.571 . S
C3517 C1905 1.283 . S
C3522 C2456 1.273 . S
C3532 C2363 0.651 . S
C3527 C1993 0.640 . S
C3542 C2592 0.947 . S
C3537 C1985 0.926 . S
C3552 C2277 1.707 . S
C3547 C1525 1.669 . S
C3557 C1613 1.569 . S
C3562 C2435 1.581 . S
C3572 C2324 0.653 . S
C3567 C1692 0.651 . S
C3582 C2379 1.386 . S
C3577 C2053 1.408 . S
C3587 C1817 1.634 1_554 S
C3592 C2639 1.651 . S
C3602 C2515 1.466 . S
C3597 C1641 1.432 . S
C3612 C2528 1.612 . S
C3607 C1465 1.607 . S
