# Generated by pormake.
# Topology gar, (4,6)-cn, num edge types: 1
# Building blocks:
#     Node 0, Type 0, BuildingBlock: CEKHIL_clean_sbu_0, # of connection points: 4
#     Node 1, Type 0, BuildingBlock: CEKHIL_clean_sbu_0, # of connection points: 4
#     Node 2, Type 0, BuildingBlock: CEKHIL_clean_sbu_0, # of connection points: 4
#     Node 3, Type 0, BuildingBlock: CEKHIL_clean_sbu_0, # of connection points: 4
#     Node 4, Type 0, BuildingBlock: CEKHIL_clean_sbu_0, # of connection points: 4
#     Node 5, Type 0, BuildingBlock: CEKHIL_clean_sbu_0, # of connection points: 4
#     Node 6, Type 0, BuildingBlock: CEKHIL_clean_sbu_0, # of connection points: 4
#     Node 7, Type 0, BuildingBlock: CEKHIL_clean_sbu_0, # of connection points: 4
#     Node 8, Type 0, BuildingBlock: CEKHIL_clean_sbu_0, # of connection points: 4
#     Node 9, Type 0, BuildingBlock: CEKHIL_clean_sbu_0, # of connection points: 4
#     Node 10, Type 0, BuildingBlock: CEKHIL_clean_sbu_0, # of connection points: 4
#     Node 11, Type 0, BuildingBlock: CEKHIL_clean_sbu_0, # of connection points: 4
#     Node 12, Type 0, BuildingBlock: CEKHIL_clean_sbu_0, # of connection points: 4
#     Node 13, Type 0, BuildingBlock: CEKHIL_clean_sbu_0, # of connection points: 4
#     Node 14, Type 0, BuildingBlock: CEKHIL_clean_sbu_0, # of connection points: 4
#     Node 15, Type 0, BuildingBlock: CEKHIL_clean_sbu_0, # of connection points: 4
#     Node 16, Type 0, BuildingBlock: CEKHIL_clean_sbu_0, # of connection points: 4
#     Node 17, Type 0, BuildingBlock: CEKHIL_clean_sbu_0, # of connection points: 4
#     Node 18, Type 0, BuildingBlock: CEKHIL_clean_sbu_0, # of connection points: 4
#     Node 19, Type 0, BuildingBlock: CEKHIL_clean_sbu_0, # of connection points: 4
#     Node 20, Type 0, BuildingBlock: CEKHIL_clean_sbu_0, # of connection points: 4
#     Node 21, Type 0, BuildingBlock: CEKHIL_clean_sbu_0, # of connection points: 4
#     Node 22, Type 0, BuildingBlock: CEKHIL_clean_sbu_0, # of connection points: 4
#     Node 23, Type 0, BuildingBlock: CEKHIL_clean_sbu_0, # of connection points: 4
#     Node 24, Type 1, BuildingBlock: PAMTOO_clean_sbu_0, # of connection points: 6
#     Node 25, Type 1, BuildingBlock: PAMTOO_clean_sbu_0, # of connection points: 6
#     Node 26, Type 1, BuildingBlock: PAMTOO_clean_sbu_0, # of connection points: 6
#     Node 27, Type 1, BuildingBlock: PAMTOO_clean_sbu_0, # of connection points: 6
#     Node 28, Type 1, BuildingBlock: PAMTOO_clean_sbu_0, # of connection points: 6
#     Node 29, Type 1, BuildingBlock: PAMTOO_clean_sbu_0, # of connection points: 6
#     Node 30, Type 1, BuildingBlock: PAMTOO_clean_sbu_0, # of connection points: 6
#     Node 31, Type 1, BuildingBlock: PAMTOO_clean_sbu_0, # of connection points: 6
#     Node 32, Type 1, BuildingBlock: PAMTOO_clean_sbu_0, # of connection points: 6
#     Node 33, Type 1, BuildingBlock: PAMTOO_clean_sbu_0, # of connection points: 6
#     Node 34, Type 1, BuildingBlock: PAMTOO_clean_sbu_0, # of connection points: 6
#     Node 35, Type 1, BuildingBlock: PAMTOO_clean_sbu_0, # of connection points: 6
#     Node 36, Type 1, BuildingBlock: PAMTOO_clean_sbu_0, # of connection points: 6
#     Node 37, Type 1, BuildingBlock: PAMTOO_clean_sbu_0, # of connection points: 6
#     Node 38, Type 1, BuildingBlock: PAMTOO_clean_sbu_0, # of connection points: 6
#     Node 39, Type 1, BuildingBlock: PAMTOO_clean_sbu_0, # of connection points: 6
#     Edge 40, Type (0, 1), BuildingBlock: EZIPEK_clean_linker_0, # of connection points: 2
#     Edge 41, Type (0, 1), BuildingBlock: EZIPEK_clean_linker_0, # of connection points: 2
#     Edge 42, Type (0, 1), BuildingBlock: EZIPEK_clean_linker_0, # of connection points: 2
#     Edge 43, Type (0, 1), BuildingBlock: EZIPEK_clean_linker_0, # of connection points: 2
#     Edge 44, Type (0, 1), BuildingBlock: EZIPEK_clean_linker_0, # of connection points: 2
#     Edge 45, Type (0, 1), BuildingBlock: EZIPEK_clean_linker_0, # of connection points: 2
#     Edge 46, Type (0, 1), BuildingBlock: EZIPEK_clean_linker_0, # of connection points: 2
#     Edge 47, Type (0, 1), BuildingBlock: EZIPEK_clean_linker_0, # of connection points: 2
#     Edge 48, Type (0, 1), BuildingBlock: EZIPEK_clean_linker_0, # of connection points: 2
#     Edge 49, Type (0, 1), BuildingBlock: EZIPEK_clean_linker_0, # of connection points: 2
#     Edge 50, Type (0, 1), BuildingBlock: EZIPEK_clean_linker_0, # of connection points: 2
#     Edge 51, Type (0, 1), BuildingBlock: EZIPEK_clean_linker_0, # of connection points: 2
#     Edge 52, Type (0, 1), BuildingBlock: EZIPEK_clean_linker_0, # of connection points: 2
#     Edge 53, Type (0, 1), BuildingBlock: EZIPEK_clean_linker_0, # of connection points: 2
#     Edge 54, Type (0, 1), BuildingBlock: EZIPEK_clean_linker_0, # of connection points: 2
#     Edge 55, Type (0, 1), BuildingBlock: EZIPEK_clean_linker_0, # of connection points: 2
#     Edge 56, Type (0, 1), BuildingBlock: EZIPEK_clean_linker_0, # of connection points: 2
#     Edge 57, Type (0, 1), BuildingBlock: EZIPEK_clean_linker_0, # of connection points: 2
#     Edge 58, Type (0, 1), BuildingBlock: EZIPEK_clean_linker_0, # of connection points: 2
#     Edge 59, Type (0, 1), BuildingBlock: EZIPEK_clean_linker_0, # of connection points: 2
#     Edge 60, Type (0, 1), BuildingBlock: EZIPEK_clean_linker_0, # of connection points: 2
#     Edge 61, Type (0, 1), BuildingBlock: EZIPEK_clean_linker_0, # of connection points: 2
#     Edge 62, Type (0, 1), BuildingBlock: EZIPEK_clean_linker_0, # of connection points: 2
#     Edge 63, Type (0, 1), BuildingBlock: EZIPEK_clean_linker_0, # of connection points: 2
#     Edge 64, Type (0, 1), BuildingBlock: EZIPEK_clean_linker_0, # of connection points: 2
#     Edge 65, Type (0, 1), BuildingBlock: EZIPEK_clean_linker_0, # of connection points: 2
#     Edge 66, Type (0, 1), BuildingBlock: EZIPEK_clean_linker_0, # of connection points: 2
#     Edge 67, Type (0, 1), BuildingBlock: EZIPEK_clean_linker_0, # of connection points: 2
#     Edge 68, Type (0, 1), BuildingBlock: EZIPEK_clean_linker_0, # of connection points: 2
#     Edge 69, Type (0, 1), BuildingBlock: EZIPEK_clean_linker_0, # of connection points: 2
#     Edge 70, Type (0, 1), BuildingBlock: EZIPEK_clean_linker_0, # of connection points: 2
#     Edge 71, Type (0, 1), BuildingBlock: EZIPEK_clean_linker_0, # of connection points: 2
#     Edge 72, Type (0, 1), BuildingBlock: EZIPEK_clean_linker_0, # of connection points: 2
#     Edge 73, Type (0, 1), BuildingBlock: EZIPEK_clean_linker_0, # of connection points: 2
#     Edge 74, Type (0, 1), BuildingBlock: EZIPEK_clean_linker_0, # of connection points: 2
#     Edge 75, Type (0, 1), BuildingBlock: EZIPEK_clean_linker_0, # of connection points: 2
#     Edge 76, Type (0, 1), BuildingBlock: EZIPEK_clean_linker_0, # of connection points: 2
#     Edge 77, Type (0, 1), BuildingBlock: EZIPEK_clean_linker_0, # of connection points: 2
#     Edge 78, Type (0, 1), BuildingBlock: EZIPEK_clean_linker_0, # of connection points: 2
#     Edge 79, Type (0, 1), BuildingBlock: EZIPEK_clean_linker_0, # of connection points: 2
#     Edge 80, Type (0, 1), BuildingBlock: EZIPEK_clean_linker_0, # of connection points: 2
#     Edge 81, Type (0, 1), BuildingBlock: EZIPEK_clean_linker_0, # of connection points: 2
#     Edge 82, Type (0, 1), BuildingBlock: EZIPEK_clean_linker_0, # of connection points: 2
#     Edge 83, Type (0, 1), BuildingBlock: EZIPEK_clean_linker_0, # of connection points: 2
#     Edge 84, Type (0, 1), BuildingBlock: EZIPEK_clean_linker_0, # of connection points: 2
#     Edge 85, Type (0, 1), BuildingBlock: EZIPEK_clean_linker_0, # of connection points: 2
#     Edge 86, Type (0, 1), BuildingBlock: EZIPEK_clean_linker_0, # of connection points: 2
#     Edge 87, Type (0, 1), BuildingBlock: EZIPEK_clean_linker_0, # of connection points: 2
#     Edge 88, Type (0, 1), BuildingBlock: EZIPEK_clean_linker_0, # of connection points: 2
#     Edge 89, Type (0, 1), BuildingBlock: EZIPEK_clean_linker_0, # of connection points: 2
#     Edge 90, Type (0, 1), BuildingBlock: EZIPEK_clean_linker_0, # of connection points: 2
#     Edge 91, Type (0, 1), BuildingBlock: EZIPEK_clean_linker_0, # of connection points: 2
#     Edge 92, Type (0, 1), BuildingBlock: EZIPEK_clean_linker_0, # of connection points: 2
#     Edge 93, Type (0, 1), BuildingBlock: EZIPEK_clean_linker_0, # of connection points: 2
#     Edge 94, Type (0, 1), BuildingBlock: EZIPEK_clean_linker_0, # of connection points: 2
#     Edge 95, Type (0, 1), BuildingBlock: EZIPEK_clean_linker_0, # of connection points: 2
#     Edge 96, Type (0, 1), BuildingBlock: EZIPEK_clean_linker_0, # of connection points: 2
#     Edge 97, Type (0, 1), BuildingBlock: EZIPEK_clean_linker_0, # of connection points: 2
#     Edge 98, Type (0, 1), BuildingBlock: EZIPEK_clean_linker_0, # of connection points: 2
#     Edge 99, Type (0, 1), BuildingBlock: EZIPEK_clean_linker_0, # of connection points: 2
#     Edge 100, Type (0, 1), BuildingBlock: EZIPEK_clean_linker_0, # of connection points: 2
#     Edge 101, Type (0, 1), BuildingBlock: EZIPEK_clean_linker_0, # of connection points: 2
#     Edge 102, Type (0, 1), BuildingBlock: EZIPEK_clean_linker_0, # of connection points: 2
#     Edge 103, Type (0, 1), BuildingBlock: EZIPEK_clean_linker_0, # of connection points: 2
#     Edge 104, Type (0, 1), BuildingBlock: EZIPEK_clean_linker_0, # of connection points: 2
#     Edge 105, Type (0, 1), BuildingBlock: EZIPEK_clean_linker_0, # of connection points: 2
#     Edge 106, Type (0, 1), BuildingBlock: EZIPEK_clean_linker_0, # of connection points: 2
#     Edge 107, Type (0, 1), BuildingBlock: EZIPEK_clean_linker_0, # of connection points: 2
#     Edge 108, Type (0, 1), BuildingBlock: EZIPEK_clean_linker_0, # of connection points: 2
#     Edge 109, Type (0, 1), BuildingBlock: EZIPEK_clean_linker_0, # of connection points: 2
#     Edge 110, Type (0, 1), BuildingBlock: EZIPEK_clean_linker_0, # of connection points: 2
#     Edge 111, Type (0, 1), BuildingBlock: EZIPEK_clean_linker_0, # of connection points: 2
#     Edge 112, Type (0, 1), BuildingBlock: EZIPEK_clean_linker_0, # of connection points: 2
#     Edge 113, Type (0, 1), BuildingBlock: EZIPEK_clean_linker_0, # of connection points: 2
#     Edge 114, Type (0, 1), BuildingBlock: EZIPEK_clean_linker_0, # of connection points: 2
#     Edge 115, Type (0, 1), BuildingBlock: EZIPEK_clean_linker_0, # of connection points: 2
#     Edge 116, Type (0, 1), BuildingBlock: EZIPEK_clean_linker_0, # of connection points: 2
#     Edge 117, Type (0, 1), BuildingBlock: EZIPEK_clean_linker_0, # of connection points: 2
#     Edge 118, Type (0, 1), BuildingBlock: EZIPEK_clean_linker_0, # of connection points: 2
#     Edge 119, Type (0, 1), BuildingBlock: EZIPEK_clean_linker_0, # of connection points: 2
#     Edge 120, Type (0, 1), BuildingBlock: EZIPEK_clean_linker_0, # of connection points: 2
#     Edge 121, Type (0, 1), BuildingBlock: EZIPEK_clean_linker_0, # of connection points: 2
#     Edge 122, Type (0, 1), BuildingBlock: EZIPEK_clean_linker_0, # of connection points: 2
#     Edge 123, Type (0, 1), BuildingBlock: EZIPEK_clean_linker_0, # of connection points: 2
#     Edge 124, Type (0, 1), BuildingBlock: EZIPEK_clean_linker_0, # of connection points: 2
#     Edge 125, Type (0, 1), BuildingBlock: EZIPEK_clean_linker_0, # of connection points: 2
#     Edge 126, Type (0, 1), BuildingBlock: EZIPEK_clean_linker_0, # of connection points: 2
#     Edge 127, Type (0, 1), BuildingBlock: EZIPEK_clean_linker_0, # of connection points: 2
#     Edge 128, Type (0, 1), BuildingBlock: EZIPEK_clean_linker_0, # of connection points: 2
#     Edge 129, Type (0, 1), BuildingBlock: EZIPEK_clean_linker_0, # of connection points: 2
#     Edge 130, Type (0, 1), BuildingBlock: EZIPEK_clean_linker_0, # of connection points: 2
#     Edge 131, Type (0, 1), BuildingBlock: EZIPEK_clean_linker_0, # of connection points: 2
#     Edge 132, Type (0, 1), BuildingBlock: EZIPEK_clean_linker_0, # of connection points: 2
#     Edge 133, Type (0, 1), BuildingBlock: EZIPEK_clean_linker_0, # of connection points: 2
#     Edge 134, Type (0, 1), BuildingBlock: EZIPEK_clean_linker_0, # of connection points: 2
#     Edge 135, Type (0, 1), BuildingBlock: EZIPEK_clean_linker_0, # of connection points: 2
# Relax obj value: 0.184
# Max RMSD: 0.281
# Mean RMSD: 0.167
data_MOF--net-gar--node1-CEKHIL_clean_sbu_0--node2-PAMTOO_clean_sbu_0--edge1-EZIPEK_clean_linker_0
_symmetry_space_group_name_H-M    P1
_symmetry_Int_Tables_number       1
_symmetry_cell_setting            triclinic
loop_
_symmetry_equiv_pos_as_xyz
'x, y, z'
_cell_length_a     45.734984
_cell_length_b     45.263332
_cell_length_c     42.353109
_cell_angle_alpha  97.994098
_cell_angle_beta   97.093902
_cell_angle_gamma 105.78093
loop_
_atom_site_label
_atom_site_type_symbol
_atom_site_fract_x
_atom_site_fract_y
_atom_site_fract_z
_atom_type_partial_charge
Co0 Co 0.08582 0.36308 0.37166 0.0
O1 O 0.13177 0.36671 0.38177 0.0
O2 O 0.1062 0.34861 0.3341 0.0
C3 C 0.08776 0.41251 0.40157 0.0
O4 O 0.03747 0.35569 0.35047 0.0
Co5 Co 0.04329 0.36586 0.42441 0.0
O6 O 1.00985 0.36513 0.38957 0.0
C7 C 0.0671 0.31154 0.41118 0.0
C8 C 0.13304 0.35479 0.35241 0.0
C9 C 1.01134 0.35825 0.35975 0.0
O10 O 0.07582 0.31978 0.38481 0.0
O11 O 0.05666 0.32832 0.43109 0.0
O12 O 0.09526 0.40981 0.37276 0.0
O13 O 0.0816 0.38636 0.41146 0.0
Co14 Co 0.03168 0.77476 0.71976 0.0
O15 O 0.98669 0.77532 0.71105 0.0
O16 O 1.00535 0.7679 0.75634 0.0
C17 C 0.04884 0.82142 0.70122 0.0
O18 O 0.0792 0.77589 0.73845 0.0
Co19 Co 0.07251 0.77733 0.66583 0.0
O20 O 0.10891 0.78578 0.69992 0.0
C21 C 0.03039 0.71555 0.66956 0.0
C22 C 0.98148 0.77279 0.73999 0.0
C23 C 0.10651 0.78155 0.72869 0.0
O24 O 1.02185 0.72742 0.69608 0.0
O25 O 0.04807 0.73244 0.65368 0.0
O26 O 0.04366 0.82125 0.73059 0.0
O27 O 0.04267 0.79421 0.68396 0.0
Co28 Co 0.58471 0.8635 0.87563 0.0
O29 O 0.6309 0.86757 0.88489 0.0
O30 O 0.60492 0.84943 0.83756 0.0
C31 C 0.58695 0.91277 0.90638 0.0
O32 O 0.53575 0.85516 0.85499 0.0
Co33 Co 0.54264 0.86548 0.9286 0.0
O34 O 0.50785 0.86281 0.89433 0.0
C35 C 0.56641 0.81122 0.91422 0.0
C36 C 0.63199 0.85565 0.85545 0.0
C37 C 0.50926 0.85643 0.86443 0.0
O38 O 0.5754 0.82011 0.88825 0.0
O39 O 0.55568 0.8275 0.93434 0.0
O40 O 0.59351 0.91028 0.87716 0.0
O41 O 0.58107 0.88658 0.91617 0.0
Co42 Co 0.53341 0.27601 0.21959 0.0
O43 O 0.48775 0.27373 0.21053 0.0
O44 O 0.50803 0.27082 0.25704 0.0
C45 C 0.54738 0.32112 0.1976 0.0
O46 O 0.58206 0.28081 0.23782 0.0
Co47 Co 0.57146 0.27624 0.16321 0.0
O48 O 0.60879 0.28661 0.19636 0.0
C49 C 0.53274 0.21517 0.17256 0.0
C50 C 0.48329 0.27331 0.23997 0.0
C51 C 0.60848 0.28571 0.22625 0.0
O52 O 0.5254 0.22815 0.19925 0.0
O53 O 0.54817 0.23112 0.15431 0.0
O54 O 0.54298 0.32238 0.2273 0.0
O55 O 0.54212 0.29326 0.18213 0.0
Co56 Co 0.10213 0.84566 0.1394 0.0
O57 O 0.05667 0.83434 0.12798 0.0
O58 O 0.08142 0.83433 0.17532 0.0
C59 C 0.10759 0.8954 0.11785 0.0
O60 O 0.14591 0.85554 0.16863 0.0
Co61 Co 0.14005 0.84361 0.1045 0.0
O62 O 0.17637 0.84368 0.13648 0.0
C63 C 0.11066 0.78107 0.10625 0.0
C64 C 0.05512 0.82935 0.15727 0.0
C65 C 0.17186 0.85028 0.16505 0.0
O66 O 0.09822 0.79702 0.12572 0.0
O67 O 0.13055 0.79664 0.09178 0.0
O68 O 0.1044 0.89139 0.14696 0.0
O69 O 0.11038 0.8699 0.10082 0.0
Co70 Co 0.52634 0.80928 0.47659 0.0
O71 O 0.57162 0.82282 0.48144 0.0
O72 O 0.54049 0.79798 0.43638 0.0
C73 C 0.52494 0.86096 0.50058 0.0
O74 O 0.47976 0.79565 0.4547 0.0
Co75 Co 0.49169 0.79931 0.52077 0.0
O76 O 0.45546 0.80682 0.4939 0.0
C77 C 0.52091 0.74996 0.51318 0.0
C78 C 0.56848 0.81181 0.45082 0.0
C79 C 0.4558 0.80188 0.46375 0.0
O80 O 0.52867 0.76489 0.48957 0.0
O81 O 0.50507 0.76132 0.53169 0.0
O82 O 0.52576 0.85183 0.47059 0.0
O83 O 0.52457 0.83854 0.51748 0.0
Co84 Co 0.60456 0.34709 0.64195 0.0
O85 O 0.55933 0.33838 0.63332 0.0
O86 O 0.58601 0.33785 0.67972 0.0
C87 C 0.61082 0.39633 0.61934 0.0
O88 O 0.64928 0.35497 0.66841 0.0
Co89 Co 0.64082 0.34328 0.60341 0.0
O90 O 0.67967 0.34832 0.634 0.0
C91 C 0.6091 0.28115 0.60786 0.0
C92 C 0.5594 0.33443 0.6631 0.0
C93 C 0.67587 0.35241 0.66315 0.0
O94 O 0.59838 0.29796 0.6284 0.0
O95 O 0.62816 0.29576 0.59184 0.0
O96 O 0.60892 0.39334 0.64898 0.0
O97 O 0.61142 0.36981 0.60238 0.0
Co98 Co 0.03184 0.3111 0.97782 0.0
O99 O 0.07714 0.32291 0.98542 0.0
O100 O 0.04806 0.30018 0.9389 0.0
C101 C 0.03037 0.36296 1.00095 0.0
O102 O 0.98602 0.2988 0.9541 0.0
Co103 Co 0.9955 0.30131 0.02047 0.0
O104 O 0.96018 0.3089 0.99236 0.0
C105 C 0.02342 0.25116 0.01382 0.0
C106 C 0.07573 0.31255 0.95495 0.0
C107 C 0.96164 0.30465 0.96244 0.0
O108 O 0.03205 0.2661 0.99049 0.0
O109 O 1.00756 0.26289 0.03194 0.0
O110 O 0.033 0.35395 0.97152 0.0
O111 O 0.02883 0.34054 0.01807 0.0
Co112 Co 0.43217 0.08003 0.34646 0.0
O113 O 0.43217 0.12069 0.33685 0.0
O114 O 0.39129 0.07902 0.33013 0.0
C115 C 0.46254 0.09525 0.39525 0.0
O116 O 0.42005 0.03593 0.35414 0.0
Co117 Co 0.48948 0.05579 0.35692 0.0
O118 O 0.45873 0.01451 0.35453 0.0
C119 C 0.46125 0.05712 0.29105 0.0
C120 C 0.40244 0.10811 0.32833 0.0
C121 C 0.43029 0.01235 0.3537 0.0
O122 O 0.4387 0.0652 0.30131 0.0
O123 O 0.48468 0.05512 0.30946 0.0
O124 O 0.43384 0.09507 0.39242 0.0
O125 O 0.47266 0.08997 0.36864 0.0
Co126 Co 0.30067 0.22041 0.5303 0.0
O127 O 0.3458 0.23055 0.53726 0.0
O128 O 0.31382 0.18605 0.54264 0.0
C129 C 0.29712 0.23879 0.4811 0.0
O130 O 0.25497 0.19613 0.5248 0.0
Co131 Co 0.26114 0.26159 0.5277 0.0
O132 O 0.22336 0.22557 0.5228 0.0
C133 C 0.29072 0.2592 0.59233 0.0
C134 C 0.34193 0.20247 0.5435 0.0
C135 C 0.22778 0.19914 0.52336 0.0
O136 O 0.30137 0.23793 0.57835 0.0
O137 O 0.27524 0.27327 0.57597 0.0
O138 O 0.29944 0.21112 0.48315 0.0
O139 O 0.29686 0.25525 0.50885 0.0
Co140 Co 0.15315 0.07735 0.82297 0.0
O141 O 0.14054 0.03158 0.81479 0.0
O142 O 0.18547 0.06171 0.80856 0.0
C143 C 0.13648 0.08229 0.87322 0.0
O144 O 0.17904 0.1232 0.82913 0.0
Co145 Co 0.11468 0.11984 0.82831 0.0
O146 O 0.15136 0.15666 0.83193 0.0
C147 C 0.11584 0.09032 0.76252 0.0
C148 C 0.16779 0.03383 0.80745 0.0
C149 C 0.17699 0.1511 0.83081 0.0
O150 O 0.13566 0.07788 0.77554 0.0
O151 O 0.10307 0.10694 0.7798 0.0
O152 O 0.16276 0.07761 0.86979 0.0
O153 O 0.11999 0.08325 0.84619 0.0
Co154 Co 0.30682 0.94963 0.0206 0.0
O155 O 0.26539 0.95119 0.02322 0.0
O156 O 0.30751 0.992 0.03204 0.0
C157 C 0.29675 0.91524 0.97358 0.0
O158 O 0.35213 0.95939 0.01974 0.0
Co159 Co 0.32814 0.89167 0.02545 0.0
O160 O 0.37087 0.92061 0.03167 0.0
C161 C 0.3136 0.92422 0.08249 0.0
C162 C 0.27816 0.98125 0.03166 0.0
C163 C 0.37444 0.94806 0.02588 0.0
O164 O 0.31369 0.94723 0.06797 0.0
O165 O 0.31476 0.89793 0.06817 0.0
O166 O 0.29912 0.94455 0.97362 0.0
O167 O 0.29751 0.90696 1.00169 0.0
Co168 Co 0.32661 0.40757 0.05666 0.0
O169 O 0.28179 0.3979 0.04537 0.0
O170 O 0.3134 0.44423 0.06796 0.0
C171 C 0.3331 0.38232 0.00715 0.0
O172 O 0.37281 0.43127 0.07014 0.0
Co173 Co 0.36448 0.36473 0.06327 0.0
O174 O 0.39958 0.3992 0.05628 0.0
C175 C 0.33052 0.37509 0.11636 0.0
C176 C 0.28556 0.42738 0.05566 0.0
C177 C 0.39807 0.42682 0.06345 0.0
O178 O 0.32247 0.39586 0.10192 0.0
O179 O 0.34673 0.35891 0.10418 0.0
O180 O 0.33031 0.41031 0.01123 0.0
O181 O 0.3308 0.36933 0.03264 0.0
Co182 Co 0.79337 0.16805 0.05433 0.0
O183 O 0.83029 0.16332 0.04003 0.0
O184 O 0.80287 0.13306 0.06954 0.0
C185 C 0.76999 0.17318 0.00657 0.0
O186 O 0.75411 0.16467 0.07223 0.0
Co187 Co 0.77465 0.22899 0.0523 0.0
O188 O 0.73675 0.20559 0.06663 0.0
C189 C 0.82004 0.22627 0.10693 0.0
C190 C 0.82581 0.13887 0.05374 0.0
C191 C 0.73427 0.1796 0.07598 0.0
O192 O 0.81738 0.19761 0.09533 0.0
O193 O 0.80679 0.24312 0.09205 0.0
O194 O 0.769 0.14558 0.01231 0.0
O195 O 0.78725 0.19649 0.02807 0.0
Co196 Co 0.21366 0.57167 0.29041 0.0
O197 O 0.21662 0.52975 0.28339 0.0
O198 O 0.24821 0.57055 0.26924 0.0
C199 C 0.20615 0.57155 0.34206 0.0
O200 O 0.22088 0.61818 0.29513 0.0
Co201 Co 0.15707 0.59048 0.31052 0.0
O202 O 0.18303 0.63434 0.31399 0.0
C203 C 0.15579 0.56249 0.24312 0.0
C204 C 0.2422 0.54173 0.27321 0.0
C205 C 0.20896 0.63973 0.30434 0.0
O206 O 0.18486 0.56498 0.24819 0.0
O207 O 0.14024 0.56645 0.26565 0.0
O208 O 0.23391 0.57717 0.33546 0.0
O209 O 0.18433 0.56518 0.31764 0.0
Co210 Co 0.82718 0.9113 0.56051 0.0
O211 O 0.7824 0.90243 0.55013 0.0
O212 O 0.81485 0.94824 0.57328 0.0
C213 C 0.83261 0.8869 0.51034 0.0
O214 O 0.87341 0.93432 0.57205 0.0
Co215 Co 0.86389 0.86739 0.56607 0.0
O216 O 0.9012 0.9015 0.56324 0.0
C217 C 0.83096 0.87782 0.61974 0.0
C218 C 0.78679 0.93186 0.56135 0.0
C219 C 0.89917 0.92909 0.5687 0.0
O220 O 0.82376 0.89928 0.60584 0.0
O221 O 0.84609 0.86084 0.60682 0.0
O222 O 0.83028 0.91503 0.51554 0.0
O223 O 0.83052 0.87307 0.53536 0.0
Co224 Co 0.97007 0.05402 0.30139 0.0
O225 O 0.9783 0.09949 0.31023 0.0
O226 O 0.93341 0.06555 0.2883 0.0
C227 C 0.99404 0.04973 0.35151 0.0
O228 O 0.94815 1.00683 0.29187 0.0
Co229 Co 1.01578 0.01732 0.29769 0.0
O230 O 0.98154 0.97942 0.29891 0.0
C231 C 1.0053 0.04954 0.24328 0.0
C232 C 0.949 0.09431 0.29978 0.0
C233 C 0.95399 0.98096 0.29469 0.0
O234 O 0.98228 0.05523 0.25563 0.0
O235 O 0.02313 0.03646 0.25795 0.0
O236 O 0.96679 0.05348 0.34717 0.0
O237 O 1.00724 0.05103 0.326 0.0
Co238 Co 0.30169 0.67422 0.55637 0.0
O239 O 0.34322 0.68006 0.54802 0.0
O240 O 0.31452 0.63887 0.56451 0.0
C241 C 0.28435 0.68872 0.51104 0.0
O242 O 0.2588 0.65752 0.56606 0.0
Co243 Co 0.26813 0.72563 0.56219 0.0
O244 O 0.23052 0.69038 0.55996 0.0
C245 C 0.31477 0.7231 0.61622 0.0
C246 C 0.33974 0.65217 0.55461 0.0
C247 C 0.2331 0.6638 0.56404 0.0
O248 O 0.31695 0.69675 0.60237 0.0
O249 O 0.29904 0.73887 0.60288 0.0
O250 O 0.286 0.6604 0.50992 0.0
O251 O 0.29427 0.70735 0.53842 0.0
Co252 Co 0.47147 0.55404 0.80096 0.0
O253 O 0.48053 0.59957 0.80877 0.0
O254 O 0.4351 0.5661 0.78802 0.0
C255 C 0.49552 0.55019 0.85132 0.0
O256 O 0.44886 0.50704 0.79199 0.0
Co257 Co 0.51601 0.51664 0.79683 0.0
O258 O 0.48144 0.4785 0.7963 0.0
C259 C 0.50564 0.54796 0.74197 0.0
C260 C 0.45127 0.59485 0.79848 0.0
C261 C 0.45412 0.48066 0.79308 0.0
O262 O 0.48327 0.55455 0.75491 0.0
O263 O 0.52308 0.53428 0.75621 0.0
O264 O 0.46832 0.55406 0.84684 0.0
O265 O 0.50874 0.55095 0.82575 0.0
Co266 Co 0.70956 0.08363 0.80086 0.0
O267 O 0.70557 0.04466 0.81602 0.0
O268 O 0.74117 0.0666 0.78827 0.0
C269 C 0.70439 0.11013 0.84806 0.0
O270 O 0.72415 0.12307 0.78316 0.0
Co271 Co 0.66014 0.11888 0.79827 0.0
O272 O 0.69468 0.15436 0.7929 0.0
C273 C 0.65557 0.06672 0.74558 0.0
C274 C 0.73081 0.04498 0.80463 0.0
C275 C 0.71931 0.14966 0.78527 0.0
O276 O 0.681 0.06285 0.75853 0.0
O277 O 0.64282 0.08597 0.75884 0.0
O278 O 0.73069 0.10582 0.8443 0.0
O279 O 0.68181 0.09704 0.82441 0.0
Co280 Co 0.80152 0.7244 0.03413 0.0
O281 O 0.84664 0.73465 0.04109 0.0
O282 O 0.81475 0.69002 0.04636 0.0
C283 C 0.79781 0.74253 0.98476 0.0
O284 O 0.75575 0.70025 0.02851 0.0
Co285 Co 0.76248 0.76598 0.03187 0.0
O286 O 0.72461 0.73023 0.02742 0.0
C287 C 0.79129 0.76273 0.09648 0.0
C288 C 0.84283 0.70655 0.04723 0.0
C289 C 0.72871 0.70361 0.02749 0.0
O290 O 0.80225 0.74182 0.08228 0.0
O291 O 0.77573 0.77683 0.08026 0.0
O292 O 0.8002 0.71494 0.98699 0.0
O293 O 0.79779 0.75922 0.01248 0.0
Co294 Co 0.93623 0.58048 0.84186 0.0
O295 O 0.94067 0.62003 0.82715 0.0
O296 O 0.89675 0.58351 0.82672 0.0
C297 C 0.96931 0.59673 0.88878 0.0
O298 O 0.91951 0.53922 0.85506 0.0
Co299 Co 0.98724 0.54767 0.85283 0.0
O300 O 0.95308 0.51136 0.85755 0.0
C301 C 0.95636 0.54486 0.78676 0.0
C302 C 0.91057 0.61059 0.82078 0.0
C303 C 0.92605 0.51391 0.85749 0.0
O304 O 0.93773 0.55895 0.79747 0.0
O305 O 0.97877 0.54027 0.80459 0.0
O306 O 0.94233 0.60132 0.88671 0.0
O307 O 0.97683 0.58652 0.86193 0.0
Co308 Co 0.79785 0.4533 0.50527 0.0
O309 O 0.75755 0.45221 0.51522 0.0
O310 O 0.79871 0.49409 0.52537 0.0
C311 C 0.78269 0.42507 0.4549 0.0
O312 O 0.84261 0.46502 0.49928 0.0
Co313 Co 0.82054 0.39493 0.49004 0.0
O314 O 0.85839 0.42401 0.4809 0.0
C315 C 0.81828 0.42081 0.55766 0.0
C316 C 0.77009 0.48169 0.52752 0.0
C317 C 0.86308 0.45324 0.48929 0.0
O318 O 0.8097 0.44341 0.54863 0.0
O319 O 0.82174 0.39827 0.53804 0.0
O320 O 0.78448 0.45458 0.46008 0.0
O321 O 0.78748 0.41326 0.48035 0.0
Co322 Co 0.65751 0.57891 0.3227 0.0
O323 O 0.64647 0.5331 0.31336 0.0
O324 O 0.69072 0.56512 0.30803 0.0
C325 C 0.64059 0.58237 0.37306 0.0
O326 O 0.68216 0.62507 0.32975 0.0
Co327 Co 0.61749 0.61994 0.32914 0.0
O328 O 0.65381 0.65772 0.33516 0.0
C329 C 0.61877 0.59136 0.26287 0.0
C330 C 0.67394 0.53673 0.30604 0.0
C331 C 0.67963 0.65283 0.33323 0.0
O332 O 0.63981 0.58009 0.27546 0.0
O333 O 0.6051 0.60655 0.28065 0.0
O334 O 0.66714 0.57843 0.36947 0.0
O335 O 0.62399 0.58332 0.34609 0.0
Dy336 Dy 0.09842 0.09186 0.07724 0.0
Dy337 Dy 0.03456 0.05034 0.03852 0.0
C338 C 0.08967 0.06904 0.99774 0.0
O339 O 0.0779 0.13177 0.06582 0.0
O340 O 0.03283 0.10132 0.03443 0.0
O341 O 0.14041 0.12981 0.0822 0.0
O342 O 0.13604 0.09868 0.11654 0.0
O343 O 0.02808 0.05402 0.0912 0.0
O344 O 0.06977 0.0943 0.11693 0.0
O345 O 0.05548 1.01038 0.04871 0.0
O346 O 0.0993 0.0407 0.08233 0.0
O347 O 0.9917 0.01476 0.03737 0.0
O348 O 0.9972 0.04027 0.99821 0.0
C349 C 0.05198 0.12993 0.04635 0.0
O350 O 0.10603 0.08714 0.02478 0.0
O351 O 0.0626 0.04938 0.99811 0.0
C352 C 0.18119 0.10886 0.09473 0.0
C353 C 0.21969 0.07265 0.0777 0.0
C354 C 0.19829 0.07749 0.0539 0.0
C355 C 0.17957 0.09577 0.06225 0.0
C356 C 0.204 0.1058 0.11839 0.0
C357 C 0.2236 0.08815 0.10979 0.0
C358 C 0.155 0.1189 0.10398 0.0
C359 C 0.04349 0.07362 0.11773 0.0
C360 C 0.08054 0.01207 0.06949 0.0
C361 C 0.95201 0.03461 0.01978 0.0
C362 C 0.90509 0.06132 0.03195 0.0
C363 C 0.93537 0.07592 0.04787 0.0
C364 C 0.95857 0.06254 0.04203 0.0
C365 C 0.92162 0.01937 1.00438 0.0
C366 C 0.89809 0.03259 0.01069 0.0
C367 C 0.97772 0.02278 0.01283 0.0
H368 H 0.1952 0.06604 0.02896 0.0
H369 H 0.16246 0.09786 0.0434 0.0
H370 H 0.20541 0.11543 0.14361 0.0
H371 H 0.24036 0.08491 0.12837 0.0
H372 H 0.94114 0.09801 0.06437 0.0
H373 H 0.98185 0.07435 0.05452 0.0
H374 H 0.91624 0.9977 0.98729 0.0
H375 H 0.87471 0.02105 0.99829 0.0
Dy376 Dy 0.33205 0.82323 0.29177 0.0
Dy377 Dy 0.29078 0.83555 0.34587 0.0
C378 C 0.3434 0.88966 0.33312 0.0
O379 O 0.361 0.81956 0.33819 0.0
O380 O 0.32647 0.81694 0.37354 0.0
O381 O 0.37815 0.83594 0.28057 0.0
O382 O 0.34001 0.80686 0.24403 0.0
O383 O 0.27256 0.78473 0.32675 0.0
O384 O 0.30825 0.77448 0.2961 0.0
O385 O 0.27032 0.85164 0.3012 0.0
O386 O 0.28699 0.82362 0.26185 0.0
O387 O 0.24513 0.83382 0.3557 0.0
O388 O 0.28445 0.8529 0.39394 0.0
C389 C 0.35386 0.81569 0.36697 0.0
O390 O 0.3368 0.87403 0.30358 0.0
O391 O 0.33086 0.8777 0.35608 0.0
C392 C 0.37312 0.84999 0.22931 0.0
C393 C 0.35929 0.89072 0.1898 0.0
C394 C 0.36765 0.90095 0.22324 0.0
C395 C 0.37509 0.88089 0.24285 0.0
C396 C 0.36785 0.84097 0.19562 0.0
C397 C 0.36121 0.86139 0.17591 0.0
C398 C 0.368 0.82592 0.24971 0.0
C399 C 0.28364 0.76544 0.30939 0.0
C400 C 0.26808 0.83965 0.27029 0.0
C401 C 0.24163 0.8172 0.4057 0.0
C402 C 0.24097 0.76795 0.43878 0.0
C403 C 0.22728 0.76159 0.40624 0.0
C404 C 0.22747 0.78613 0.38974 0.0
C405 C 0.25122 0.82336 0.43935 0.0
C406 C 0.25101 0.79873 0.45587 0.0
C407 C 0.2546 0.84101 0.38685 0.0
H408 H 0.36627 0.9235 0.23431 0.0
H409 H 0.37955 0.88874 0.26878 0.0
H410 H 0.36604 0.81729 0.18471 0.0
H411 H 0.35477 0.85325 0.15001 0.0
H412 H 0.21931 0.73785 0.39291 0.0
H413 H 0.21965 0.78053 0.36382 0.0
H414 H 0.26218 0.84707 0.4521 0.0
H415 H 0.26154 0.80378 0.48113 0.0
Dy416 Dy 0.5324 0.06784 0.57873 0.0
Dy417 Dy 0.59779 0.07276 0.55073 0.0
C418 C 0.5396 0.08055 0.50588 0.0
O419 O 0.53005 0.0154 0.56254 0.0
O420 O 0.57287 0.0202 0.53806 0.0
O421 O 0.48259 0.05016 0.57143 0.0
O422 O 0.50712 0.08285 0.61477 0.0
O423 O 0.60082 0.05231 0.59531 0.0
O424 O 0.56604 0.06886 0.62208 0.0
O425 O 0.60121 0.12486 0.56936 0.0
O426 O 0.55331 0.12084 0.58291 0.0
O427 O 0.64761 0.0885 0.5625 0.0
O428 O 0.62513 0.06175 0.51515 0.0
C429 C 0.54774 1.00206 0.54596 0.0
O430 O 0.52351 0.07664 0.52915 0.0
O431 O 0.56818 0.07959 0.50806 0.0
C432 C 0.46212 0.0912 0.5886 0.0
C433 C 0.42737 0.1321 0.57369 0.0
C434 C 0.45216 0.13026 0.55779 0.0
C435 C 0.46942 0.11012 0.56527 0.0
C436 C 0.43756 0.09331 0.60479 0.0
C437 C 0.42031 0.11361 0.59739 0.0
C438 C 0.4805 0.06982 0.59606 0.0
C439 C 0.59007 0.05843 0.6218 0.0
C440 C 0.58064 0.13853 0.57938 0.0
C441 C 0.66896 0.05018 0.53986 0.0
C442 C 0.70363 1.0079 0.54839 0.0
C443 C 0.67283 1.0005 0.55329 0.0
C444 C 0.6557 0.02152 0.54918 0.0
C445 C 0.69971 0.05758 0.535 0.0
C446 C 0.7169 0.03661 0.5392 0.0
C447 C 0.6509 0.07244 0.53579 0.0
H448 H 0.45794 0.14419 0.53936 0.0
H449 H 0.48839 0.10917 0.55262 0.0
H450 H 0.43159 0.07914 0.62297 0.0
H451 H 0.40116 0.11455 0.6098 0.0
H452 H 0.66209 0.97845 0.5602 0.0
H453 H 0.63205 0.01537 0.55325 0.0
H454 H 0.71043 0.07956 0.52793 0.0
H455 H 0.74057 0.04271 0.53517 0.0
Dy456 Dy 0.3439 0.29839 0.80502 0.0
Dy457 Dy 0.28392 0.32795 0.80011 0.0
C458 C 0.35144 0.37062 0.79445 0.0
O459 O 0.33599 0.30864 0.85701 0.0
O460 O 0.30955 0.34464 0.85101 0.0
O461 O 0.39216 0.30535 0.82336 0.0
O462 O 0.3666 0.26447 0.78807 0.0
O463 O 0.26785 0.28205 0.81656 0.0
O464 O 0.30461 0.25695 0.80817 0.0
O465 O 0.28441 0.30983 0.74739 0.0
O466 O 0.32803 0.2933 0.75162 0.0
O467 O 0.2351 0.32019 0.78447 0.0
O468 O 0.26185 0.36266 0.81694 0.0
C469 C 0.32443 0.3306 0.86956 0.0
O470 O 0.36293 0.34911 0.80402 0.0
O471 O 0.32146 0.36661 0.78803 0.0
C472 C 0.4172 0.28994 0.78097 0.0
C473 C 0.46121 0.30482 0.73944 0.0
C474 C 0.43511 0.31564 0.73688 0.0
C475 C 0.41342 0.30837 0.75749 0.0
C476 C 0.44318 0.279 0.78348 0.0
C477 C 0.46501 0.2864 0.76294 0.0
C478 C 0.39389 0.28212 0.8024 0.0
C479 C 0.27726 0.25703 0.81488 0.0
C480 C 0.30433 0.29779 0.7341 0.0
C481 C 0.21167 0.33871 0.82713 0.0
C482 C 0.16979 0.32856 0.87167 0.0
C483 C 0.18666 0.30748 0.86439 0.0
C484 C 0.20713 0.31236 0.8422 0.0
C485 C 0.195 0.35991 0.83455 0.0
C486 C 0.17419 0.35483 0.85648 0.0
C487 C 0.23423 0.34451 0.80445 0.0
H488 H 0.43162 0.32984 0.719 0.0
H489 H 0.39364 0.31717 0.75515 0.0
H490 H 0.44661 0.26475 0.80132 0.0
H491 H 0.48492 0.27779 0.76539 0.0
H492 H 0.18386 0.28713 0.8758 0.0
H493 H 0.21954 0.29553 0.83698 0.0
H494 H 0.19809 0.38044 0.82341 0.0
H495 H 0.16154 0.37148 0.86168 0.0
Dy496 Dy 0.07911 0.03425 0.55174 0.0
Dy497 Dy 0.05253 0.09662 0.55469 0.0
C498 C 1.00855 0.02968 0.56342 0.0
O499 O 0.05699 0.03001 0.49957 0.0
O500 O 0.04915 0.07848 0.50161 0.0
O501 O 0.07187 0.98434 0.5389 0.0
O502 O 0.11438 0.01358 0.56869 0.0
O503 O 0.10322 0.11384 0.55461 0.0
O504 O 0.11426 0.06968 0.5321 0.0
O505 O 0.06007 0.08969 0.60711 0.0
O506 O 0.09476 0.06155 0.6026 0.0
O507 O 0.05992 0.14614 0.57073 0.0
O508 O 1.01949 0.11921 0.53624 0.0
C509 C 0.0485 0.05129 0.48529 0.0
O510 O 0.03253 0.01893 0.5662 0.0
O511 O 1.01046 0.05797 0.55761 0.0
C512 C 0.09271 0.96293 0.58163 0.0
C513 C 0.08157 0.92037 0.62563 0.0
C514 C 0.07238 0.90996 0.59204 0.0
C515 C 0.07783 0.93093 0.57038 0.0
C516 C 0.10257 0.97326 0.61524 0.0
C517 C 0.09687 0.95228 0.63697 0.0
C518 C 0.09671 0.98504 0.55814 0.0
C519 C 0.12099 0.10038 0.53973 0.0
C520 C 0.08061 0.07736 0.62054 0.0
C521 C 0.04393 0.17004 0.52754 0.0
C522 C 0.05601 0.21186 0.48307 0.0
C523 C 0.07665 0.195 0.49137 0.0
C524 C 0.07082 0.17464 0.5136 0.0
C525 C 0.02309 0.18653 0.51896 0.0
C526 C 0.02913 0.20732 0.49713 0.0
C527 C 0.03692 0.14713 0.54972 0.0
H528 H 0.06048 0.88554 0.58258 0.0
H529 H 0.07001 0.92216 0.54471 0.0
H530 H 0.11426 0.99767 0.62486 0.0
H531 H 0.1041 0.96102 0.66271 0.0
H532 H 0.09754 0.19801 0.481 0.0
H533 H 0.08734 0.16247 0.52005 0.0
H534 H 1.00209 0.18332 0.52914 0.0
H535 H 1.0128 0.21995 0.4912 0.0
Dy536 Dy 0.30964 0.84605 0.78367 0.0
Dy537 Dy 0.30403 0.77992 0.80871 0.0
C538 C 0.29597 0.83727 0.85375 0.0
O539 O 0.3606 0.84497 0.79237 0.0
O540 O 0.35485 0.8094 0.82654 0.0
O541 O 0.32317 0.89675 0.79442 0.0
O542 O 0.29739 0.87216 0.74766 0.0
O543 O 0.32636 0.77826 0.76553 0.0
O544 O 0.30749 0.81169 0.73941 0.0
O545 O 0.25377 0.77456 0.78447 0.0
O546 O 0.25771 0.82591 0.78331 0.0
O547 O 0.28939 0.72956 0.79718 0.0
O548 O 0.31587 0.75302 0.84432 0.0
C549 C 0.3734 0.83047 0.81318 0.0
O550 O 0.31345 0.85454 0.83706 0.0
O551 O 0.28511 0.80696 0.84472 0.0
C552 C 0.28337 0.91587 0.77177 0.0
C553 C 0.23977 0.94898 0.78167 0.0
C554 C 0.23027 0.91622 0.77411 0.0
C555 C 0.25184 0.89984 0.76923 0.0
C556 C 0.29277 0.94863 0.77927 0.0
C557 C 0.2712 0.96502 0.78419 0.0
C558 C 0.30657 0.89864 0.76788 0.0
C559 C 0.31926 0.78834 0.73925 0.0
C560 C 0.24019 0.79669 0.7799 0.0
C561 C 0.32815 0.70875 0.81879 0.0
C562 C 0.37166 0.67519 0.81019 0.0
C563 C 0.36726 0.69597 0.78958 0.0
C564 C 0.34551 0.71225 0.7936 0.0
C565 C 0.33269 0.6882 0.83958 0.0
C566 C 0.3541 0.67146 0.83523 0.0
C567 C 0.30576 0.72676 0.82354 0.0
H568 H 0.20622 0.90335 0.77227 0.0
H569 H 0.24383 0.8746 0.76369 0.0
H570 H 0.31688 0.96155 0.7816 0.0
H571 H 0.27905 0.99027 0.79019 0.0
H572 H 0.38052 0.6994 0.77019 0.0
H573 H 0.34237 0.72771 0.777 0.0
H574 H 0.31964 0.68506 0.85917 0.0
H575 H 0.35706 0.65563 0.85149 0.0
Dy576 Dy 0.55074 0.0816 0.01859 0.0
Dy577 Dy 0.56213 0.04072 0.07326 0.0
C578 C 0.57039 0.01728 0.99968 0.0
O579 O 0.50304 0.05851 0.02513 0.0
O580 O 0.51358 0.01941 0.04949 0.0
O581 O 0.53441 0.08628 0.9699 0.0
O582 O 0.55804 0.12726 0.00604 0.0
O583 O 0.54 0.07491 0.0986 0.0
O584 O 0.54721 0.1112 0.06536 0.0
O585 O 0.60304 0.0822 0.08327 0.0
O586 O 0.60154 0.09149 0.0317 0.0
O587 O 0.58291 0.03709 0.12066 0.0
O588 O 0.5542 0.99563 0.08778 0.0
C589 C 0.4943 0.03195 0.03518 0.0
O590 O 0.55476 0.03622 0.99042 0.0
O591 O 0.5807 0.01964 0.03082 0.0
C592 C 0.57318 0.12598 0.95509 0.0
C593 C 0.62692 0.13695 0.92745 0.0
C594 C 0.60175 0.11066 0.91435 0.0
C595 C 0.57499 0.10525 0.92794 0.0
C596 C 0.5975 0.15376 0.96628 0.0
C597 C 0.62431 0.1591 0.95264 0.0
C598 C 0.54942 0.11601 0.97524 0.0
C599 C 0.54062 0.10315 0.09307 0.0
C600 C 0.61594 0.09602 0.06138 0.0
C601 C 0.544 1.00403 0.14095 0.0
C602 C 0.50269 0.01437 0.18175 0.0
C603 C 0.53429 0.02252 0.19398 0.0
C604 C 0.55485 0.01723 0.17371 0.0
C605 C 0.51197 0.99385 0.12946 0.0
C606 C 0.49147 0.99896 0.14982 0.0
C607 C 0.56565 1.00842 0.11787 0.0
H608 H 0.60343 0.0935 0.89463 0.0
H609 H 0.55663 0.08379 0.91852 0.0
H610 H 0.5967 0.17035 0.98698 0.0
H611 H 0.64343 0.17969 0.96263 0.0
H612 H 0.54311 0.03417 0.21883 0.0
H613 H 0.57937 0.0256 0.183 0.0
H614 H 0.50277 0.98384 0.10425 0.0
H615 H 0.46706 0.99206 0.14045 0.0
Dy616 Dy 0.28867 0.2794 0.28035 0.0
Dy617 Dy 0.32803 0.34587 0.3179 0.0
C618 C 0.31123 0.28965 0.35913 0.0
O619 O 0.2496 0.30154 0.29163 0.0
O620 O 0.27844 0.34696 0.32484 0.0
O621 O 0.24917 0.23853 0.27474 0.0
O622 O 0.2805 0.24093 0.24058 0.0
O623 O 0.31273 0.35593 0.26874 0.0
O624 O 0.29728 0.30654 0.23955 0.0
O625 O 0.36579 0.32591 0.29802 0.0
O626 O 0.33847 0.27478 0.28081 0.0
O627 O 0.36837 0.38554 0.32231 0.0
O628 O 0.33618 0.38646 0.35519 0.0
C629 C 0.25073 0.32733 0.31197 0.0
O630 O 0.29529 0.27132 0.3321 0.0
O631 O 0.32787 0.31843 0.35896 0.0
C632 C 0.2687 0.19594 0.26292 0.0
C633 C 0.30781 0.16164 0.28328 0.0
C634 C 0.29721 0.17982 0.30612 0.0
C635 C 0.27735 0.19632 0.29606 0.0
C636 C 0.277 0.17551 0.24004 0.0
C637 C 0.29621 0.15808 0.25022 0.0
C638 C 0.25981 0.22268 0.25327 0.0
C639 C 0.30613 0.33692 0.24072 0.0
C640 C 0.36535 0.29705 0.28538 0.0
C641 C 0.35153 0.43053 0.33084 0.0
C642 C 0.32395 0.47092 0.30223 0.0
C643 C 0.34192 0.45605 0.28524 0.0
C644 C 0.35571 0.43604 0.29949 0.0
C645 C 0.33557 0.44753 0.3486 0.0
C646 C 0.32183 0.46752 0.33435 0.0
C647 C 0.35787 0.40309 0.34222 0.0
H648 H 0.30558 0.18252 0.33175 0.0
H649 H 0.27109 0.21151 0.31438 0.0
H650 H 0.27083 0.17503 0.21441 0.0
H651 H 0.30389 0.14372 0.23231 0.0
H652 H 0.34418 0.45893 0.26061 0.0
H653 H 0.36816 0.42363 0.28523 0.0
H654 H 0.33204 0.44385 0.37276 0.0
H655 H 0.30839 0.47934 0.34792 0.0
Dy656 Dy 0.58074 0.53635 0.05225 0.0
Dy657 Dy 0.55188 0.59585 0.05436 0.0
C658 C 0.51062 0.52776 0.06027 0.0
O659 O 0.55446 0.53082 1.00116 0.0
O660 O 0.55559 0.58184 1.00243 0.0
O661 O 0.57535 0.48718 0.03704 0.0
O662 O 0.61568 0.51577 0.07053 0.0
O663 O 0.60244 0.61594 0.05526 0.0
O664 O 0.61609 0.57296 0.03412 0.0
O665 O 0.55993 0.59004 0.1073 0.0
O666 O 0.59538 0.56264 0.10357 0.0
O667 O 0.55658 0.64501 0.06971 0.0
O668 O 0.51667 0.61572 0.03589 0.0
C669 C 0.55026 0.55353 0.9862 0.0
O670 O 0.53675 0.52366 0.07225 0.0
O671 O 0.51094 0.55258 0.04724 0.0
C672 C 0.59262 0.46494 0.08059 0.0
C673 C 0.5792 0.4212 0.12273 0.0
C674 C 0.56205 0.4424 0.11955 0.0
C675 C 0.56878 0.46408 0.09883 0.0
C676 C 0.6101 0.44407 0.08414 0.0
C677 C 0.60347 0.42241 0.10504 0.0
C678 C 0.59892 0.48736 0.05786 0.0
C679 C 0.62156 0.60355 0.04153 0.0
C680 C 0.58103 0.57854 0.12115 0.0
C681 C 0.5395 0.66644 0.02534 0.0
C682 C 0.5529 0.70913 0.98215 0.0
C683 C 0.54798 0.7191 0.0135 0.0
C684 C 0.54136 0.69798 0.03487 0.0
C685 C 0.54471 0.65656 0.99402 0.0
C686 C 0.55137 0.67767 0.97268 0.0
C687 C 0.53318 0.64428 0.04833 0.0
H688 H 0.54316 0.44188 0.13279 0.0
H689 H 0.55505 0.47993 0.09675 0.0
H690 H 0.62866 0.44428 0.07049 0.0
H691 H 0.61692 0.4062 0.10698 0.0
H692 H 0.54909 0.74326 0.02136 0.0
H693 H 0.53771 0.7063 0.05888 0.0
H694 H 0.54364 0.63247 0.98597 0.0
H695 H 0.55516 0.66942 0.94871 0.0
Dy696 Dy 0.8136 0.35007 0.27207 0.0
Dy697 Dy 0.80762 0.28555 0.30185 0.0
C698 C 0.80086 0.34674 0.34517 0.0
O699 O 0.86479 0.35059 0.28514 0.0
O700 O 0.85917 0.31193 0.31598 0.0
O701 O 0.83049 0.40036 0.27632 0.0
O702 O 0.79726 0.37285 0.2348 0.0
O703 O 0.82891 0.2809 0.25771 0.0
O704 O 0.81059 0.31347 0.22954 0.0
O705 O 0.75701 0.28071 0.27879 0.0
O706 O 0.76262 0.33184 0.2758 0.0
O707 O 0.81857 0.26009 0.3392 0.0
O708 O 0.79256 0.23507 0.29239 0.0
C709 C 0.87735 0.33463 0.30444 0.0
O710 O 0.80968 0.36278 0.32291 0.0
O711 O 0.79696 0.31655 0.34204 0.0
C712 C 0.78861 0.41915 0.25937 0.0
C713 C 0.74672 0.45336 0.27357 0.0
C714 C 0.74693 0.42693 0.28739 0.0
C715 C 0.76776 0.41019 0.28056 0.0
C716 C 0.78817 0.44531 0.24514 0.0
C717 C 0.76748 0.46233 0.25226 0.0
C718 C 0.81011 0.4007 0.252 0.0
C719 C 0.82212 0.29005 0.23059 0.0
C720 C 0.74423 0.30326 0.27365 0.0
C721 C 0.83136 0.21495 0.31664 0.0
C722 C 0.87438 0.18016 0.31241 0.0
C723 C 0.85844 0.18556 0.28429 0.0
C724 C 0.83728 0.20286 0.28634 0.0
C725 C 0.84772 0.2099 0.34475 0.0
C726 C 0.86907 0.19283 0.34268 0.0
C727 C 0.80889 0.23334 0.31928 0.0
H728 H 0.73127 0.41957 0.30393 0.0
H729 H 0.76767 0.39029 0.29204 0.0
H730 H 0.80389 0.45265 0.22867 0.0
H731 H 0.76781 0.48266 0.24135 0.0
H732 H 0.86203 0.17595 0.26069 0.0
H733 H 0.82543 0.20652 0.26414 0.0
H734 H 0.84386 0.21904 0.3684 0.0
H735 H 0.88099 0.18889 0.36471 0.0
Dy736 Dy 0.0508 0.58246 0.51432 0.0
Dy737 Dy 0.05179 0.53519 0.56516 0.0
C738 C 0.06576 0.51446 0.49321 0.0
O739 O 1.00088 0.55732 0.50807 0.0
O740 O 1.00314 0.52151 0.54133 0.0
O741 O 0.0417 0.58958 0.46503 0.0
O742 O 0.06624 0.62877 0.50302 0.0
O743 O 0.04277 0.57818 0.59395 0.0
O744 O 0.03408 0.6074 0.55549 0.0
O745 O 0.10097 0.55468 0.5609 0.0
O746 O 0.09572 0.6002 0.5476 0.0
O747 O 0.06641 0.52855 0.61349 0.0
O748 O 0.03822 0.48924 0.5772 0.0
C749 C 0.988 0.53288 0.52022 0.0
O750 O 0.06672 0.54295 0.48804 0.0
O751 O 0.05871 0.50601 0.52049 0.0
C752 C 0.08836 0.62146 0.45628 0.0
C753 C 0.13661 0.6084 0.42754 0.0
C754 C 0.14113 0.61894 0.46088 0.0
C755 C 0.11731 0.62565 0.47516 0.0
C756 C 0.08462 0.61298 0.42255 0.0
C757 C 0.10867 0.6065 0.40824 0.0
C758 C 0.06098 0.61766 0.47209 0.0
C759 C 0.03558 0.60304 0.58583 0.0
C760 C 0.11285 0.58352 0.5577 0.0
C761 C 0.02524 0.49363 0.62922 0.0
C762 C 0.98303 0.49818 0.67067 0.0
C763 C 1.01409 0.50285 0.68336 0.0
C764 C 0.03509 0.50048 0.66273 0.0
C765 C 0.99357 0.48643 0.61669 0.0
C766 C 0.97249 0.48844 0.63743 0.0
C767 C 0.04833 0.49989 0.60793 0.0
H768 H 0.16251 0.62033 0.47599 0.0
H769 H 0.12096 0.63178 0.50128 0.0
H770 H 0.06244 0.60908 0.4076 0.0
H771 H 0.10494 0.59835 0.38236 0.0
H772 H 0.02235 0.51014 0.70915 0.0
H773 H 0.05933 0.50619 0.67281 0.0
H774 H 0.98529 0.48121 0.59085 0.0
H775 H 0.94848 0.48456 0.62753 0.0
Dy776 Dy 0.84438 0.80214 0.30763 0.0
Dy777 Dy 0.78386 0.82888 0.3038 0.0
C778 C 0.85072 0.87159 0.29642 0.0
O779 O 0.84804 0.82951 0.35824 0.0
O780 O 0.79698 0.82606 0.35584 0.0
O781 O 0.8935 0.81085 0.32188 0.0
O782 O 0.86629 0.76689 0.29214 0.0
O783 O 0.76612 0.77744 0.30281 0.0
O784 O 0.80906 0.76671 0.3269 0.0
O785 O 0.79197 0.82086 0.25166 0.0
O786 O 0.81767 0.7843 0.25693 0.0
O787 O 0.73539 0.82267 0.28729 0.0
O788 O 0.76242 0.86368 0.32179 0.0
C789 C 0.82483 0.83304 0.37269 0.0
O790 O 0.8572 0.84572 0.28691 0.0
O791 O 0.82534 0.8712 0.30832 0.0
C792 C 0.9158 0.79038 0.27876 0.0
C793 C 0.95688 0.79902 0.23318 0.0
C794 C 0.95895 0.8233 0.2587 0.0
C795 C 0.93874 0.81905 0.28122 0.0
C796 C 0.91372 0.76614 0.253 0.0
C797 C 0.93395 0.77044 0.23045 0.0
C798 C 0.894 0.78591 0.3026 0.0
C799 C 0.77886 0.75967 0.31829 0.0
C800 C 0.80328 0.79893 0.23854 0.0
C801 C 0.71125 0.84081 0.33015 0.0
C802 C 0.66687 0.83131 0.37227 0.0
C803 C 0.67476 0.80593 0.35621 0.0
C804 C 0.69679 0.81061 0.33553 0.0
C805 C 0.70362 0.86616 0.34656 0.0
C806 C 0.68178 0.8615 0.3674 0.0
C807 C 0.73475 0.84641 0.30832 0.0
H808 H 0.97643 0.84553 0.26136 0.0
H809 H 0.94118 0.83833 0.30059 0.0
H810 H 0.89642 0.74378 0.25028 0.0
H811 H 0.93189 0.75136 0.21097 0.0
H812 H 0.66365 0.78243 0.3595 0.0
H813 H 0.7024 0.79056 0.32369 0.0
H814 H 0.71452 0.88968 0.34318 0.0
H815 H 0.67618 0.88147 0.37945 0.0
Dy816 Dy 0.84233 0.33814 0.7949 0.0
Dy817 Dy 0.7926 0.33333 0.84331 0.0
C818 C 0.83935 0.39604 0.84294 0.0
O819 O 0.86668 0.32013 0.83424 0.0
O820 O 0.83596 0.32596 0.87233 0.0
O821 O 0.88607 0.36544 0.78577 0.0
O822 O 0.85791 0.32587 0.75008 0.0
O823 O 0.78647 0.28408 0.82364 0.0
O824 O 0.81626 0.28756 0.7833 0.0
O825 O 0.76395 0.33387 0.79533 0.0
O826 O 0.80323 0.35307 0.76829 0.0
O827 O 0.74647 0.31797 0.85357 0.0
O828 O 0.78335 0.34773 0.89098 0.0
C829 C 0.86145 0.32008 0.8642 0.0
O830 O 0.85707 0.37918 0.83483 0.0
O831 O 0.80987 0.38332 0.84036 0.0
C832 C 0.87912 0.37192 0.73207 0.0
C833 C 0.86169 0.40011 0.6813 0.0
C834 C 0.85318 0.40712 0.71138 0.0
C835 C 0.86207 0.39327 0.73672 0.0
C836 C 0.88944 0.36656 0.70267 0.0
C837 C 0.8809 0.38084 0.67732 0.0
C838 C 0.88069 0.35158 0.75571 0.0
C839 C 0.79585 0.27166 0.79855 0.0
C840 C 0.77342 0.34518 0.77 0.0
C841 C 0.74718 0.30538 0.90528 0.0
C842 C 0.7377 0.25165 0.93318 0.0
C843 C 0.71429 0.25474 0.91044 0.0
C844 C 0.71891 0.28159 0.89669 0.0
C845 C 0.76944 0.30326 0.93019 0.0
C846 C 0.76469 0.27656 0.944 0.0
C847 C 0.75525 0.32884 0.88445 0.0
H848 H 0.83817 0.42176 0.71461 0.0
H849 H 0.85378 0.39752 0.75927 0.0
H850 H 0.90232 0.34992 0.69867 0.0
H851 H 0.88736 0.37514 0.65399 0.0
H852 H 0.69322 0.23587 0.90222 0.0
H853 H 0.70129 0.28278 0.87772 0.0
H854 H 0.79139 0.3212 0.93755 0.0
H855 H 0.78291 0.2745 0.96175 0.0
Dy856 Dy 0.78802 0.78171 0.78296 0.0
Dy857 Dy 0.82768 0.84627 0.82152 0.0
C858 C 0.81026 0.79078 0.86118 0.0
O859 O 0.74845 0.80385 0.7911 0.0
O860 O 0.77743 0.84578 0.82902 0.0
O861 O 0.75256 0.73775 0.77912 0.0
O862 O 0.77875 0.74546 0.74066 0.0
O863 O 0.8136 0.8585 0.77298 0.0
O864 O 0.79705 0.80961 0.74281 0.0
O865 O 0.86552 0.82794 0.79979 0.0
O866 O 0.83802 0.77686 0.78454 0.0
O867 O 0.8646 0.88921 0.82691 0.0
O868 O 0.83695 0.8816 0.86444 0.0
C869 C 0.74956 0.82799 0.81371 0.0
O870 O 0.78884 0.77653 0.83589 0.0
O871 O 0.83222 0.81558 0.85869 0.0
C872 C 0.77801 0.70138 0.76282 0.0
C873 C 0.82061 0.66844 0.77561 0.0
C874 C 0.81816 0.69192 0.79936 0.0
C875 C 0.79685 0.7078 0.79323 0.0
C876 C 0.77991 0.67747 0.73893 0.0
C877 C 0.80088 0.66059 0.74552 0.0
C878 C 0.76279 0.72474 0.75516 0.0
C879 C 0.8067 0.84004 0.74456 0.0
C880 C 0.86492 0.79891 0.78767 0.0
C881 C 0.84527 0.92976 0.84781 0.0
C882 C 0.81025 0.97077 0.83796 0.0
C883 C 0.81948 0.95556 0.81166 0.0
C884 C 0.83693 0.93525 0.81651 0.0
C885 C 0.83757 0.94657 0.87436 0.0
C886 C 0.82012 0.96705 0.86945 0.0
C887 C 0.85549 0.90217 0.85179 0.0
H888 H 0.83306 0.69817 0.82274 0.0
H889 H 0.79645 0.7264 0.81195 0.0
H890 H 0.76616 0.67271 0.71505 0.0
H891 H 0.80237 0.64219 0.72705 0.0
H892 H 0.81221 0.95856 0.78727 0.0
H893 H 0.84227 0.92254 0.79547 0.0
H894 H 0.84342 0.94243 0.8986 0.0
H895 H 0.81327 0.97897 0.88997 0.0
Dy896 Dy 0.60039 0.5933 0.57728 0.0
Dy897 Dy 0.53809 0.5505 0.53746 0.0
C898 C 0.59399 0.57065 0.49832 0.0
O899 O 0.57956 0.63281 0.56525 0.0
O900 O 0.53508 0.60131 0.5339 0.0
O901 O 0.64617 0.62334 0.57789 0.0
O902 O 0.63269 0.61104 0.62232 0.0
O903 O 0.52885 0.55296 0.58904 0.0
O904 O 0.57066 0.59209 0.61646 0.0
O905 O 0.5583 0.51115 0.5519 0.0
O906 O 0.60362 0.5428 0.58184 0.0
O907 O 0.49447 0.51494 0.53326 0.0
O908 O 0.5031 0.54099 0.49488 0.0
C909 C 0.55346 0.63029 0.54575 0.0
O910 O 0.60821 0.5911 0.5248 0.0
O911 O 0.56861 0.54866 0.49933 0.0
C912 C 0.6809 0.60697 0.61097 0.0
C913 C 0.71549 0.56665 0.5943 0.0
C914 C 0.72272 0.59634 0.58589 0.0
C915 C 0.70563 0.61655 0.59442 0.0
C916 C 0.67625 0.57864 0.62262 0.0
C917 C 0.69345 0.55854 0.61422 0.0
C918 C 0.65568 0.62133 0.60751 0.0
C919 C 0.54419 0.57123 0.6163 0.0
C920 C 0.58453 0.51382 0.57139 0.0
C921 C 0.45799 0.53883 0.51552 0.0
C922 C 0.4166 0.57312 0.52719 0.0
C923 C 0.44516 0.58091 0.54735 0.0
C924 C 0.46551 0.56382 0.5417 0.0
C925 C 0.42924 0.53057 0.49537 0.0
C926 C 0.40841 0.54758 0.50137 0.0
C927 C 0.48216 0.52446 0.50874 0.0
H928 H 0.73992 0.60287 0.57067 0.0
H929 H 0.70961 0.63821 0.58517 0.0
H930 H 0.65746 0.57059 0.63553 0.0
H931 H 0.68784 0.53568 0.62099 0.0
H932 H 0.45187 0.60056 0.56726 0.0
H933 H 0.48763 0.57079 0.5574 0.0
H934 H 0.42323 0.51158 0.47487 0.0
H935 H 0.38632 0.5414 0.48558 0.0
Dy936 Dy 0.03428 0.56855 0.0715 0.0
Dy937 Dy 0.10043 0.57381 0.04671 0.0
C938 C 0.04399 0.58249 1.00175 0.0
O939 O 0.02952 0.51723 0.04813 0.0
O940 O 0.08033 0.52144 0.04636 0.0
O941 O 0.98459 0.55357 0.05939 0.0
O942 O 1.00685 0.58086 0.10666 0.0
O943 O 0.10889 0.57601 0.09978 0.0
O944 O 0.06064 0.55254 0.10993 0.0
O945 O 0.0996 0.62553 0.05606 0.0
O946 O 0.06223 0.6205 0.08829 0.0
O947 O 0.15052 0.58801 0.05682 0.0
O948 O 0.1263 0.56106 0.01034 0.0
C949 C 0.05151 0.5036 0.04331 0.0
O950 O 0.03343 0.59 0.02786 0.0
O951 O 0.06693 0.57039 1.00222 0.0
C952 C 0.96343 0.59281 0.08085 0.0
C953 C 0.92886 0.63511 0.07103 0.0
C954 C 0.94973 0.63057 0.05047 0.0
C955 C 0.9667 0.60955 0.05522 0.0
C956 C 0.94307 0.59785 0.10185 0.0
C957 C 0.92586 0.61874 0.09694 0.0
C958 C 0.98127 0.57034 0.08568 0.0
C959 C 0.09072 0.56148 0.11781 0.0
C960 C 0.08418 0.63881 0.07579 0.0
C961 C 0.16994 0.54788 0.03378 0.0
C962 C 0.20339 0.50429 0.04161 0.0
C963 C 0.21887 0.53622 0.04466 0.0
C964 C 0.2023 0.55781 0.04077 0.0
C965 C 0.15448 0.51588 0.03102 0.0
C966 C 0.17104 0.4943 0.03477 0.0
C967 C 0.15251 0.57094 0.0302 0.0
H968 H 0.95234 0.64279 0.03026 0.0
H969 H 0.98215 0.60614 0.0386 0.0
H970 H 0.9402 0.58534 0.12182 0.0
H971 H 0.9098 0.62175 0.11301 0.0
H972 H 0.24382 0.5444 0.04987 0.0
H973 H 0.21477 0.58229 0.04322 0.0
H974 H 0.12957 0.50749 0.02593 0.0
H975 H 0.15862 0.46979 0.03226 0.0
C976 C 0.0452 0.21779 0.05304 0.0
C977 C 0.03203 0.22017 0.02106 0.0
C978 C 0.03368 0.16414 1.00485 0.0
C979 C 0.04433 0.16094 0.03748 0.0
N980 N 0.05374 0.18568 0.09331 0.0
N981 N 1.00979 0.19133 0.96754 0.0
C982 C 0.04838 0.18822 0.06152 0.0
C983 C 0.02542 0.19208 0.99739 0.0
N984 N 0.05628 0.24452 0.07567 0.0
N985 N 0.0325 0.14079 0.98014 0.0
H986 H 1.00372 0.21056 0.96112 0.0
H987 H 1.00056 0.17108 0.9502 0.0
H988 H 0.0377 0.12041 0.98389 0.0
H989 H 0.02904 0.14274 0.95585 0.0
H990 H 0.06932 0.24581 0.09806 0.0
H991 H 0.05536 0.26623 0.07076 0.0
H992 H 0.05335 0.20282 0.11226 0.0
H993 H 0.05521 0.16502 0.1007 0.0
C994 C 0.22557 0.87197 0.20235 0.0
C995 C 0.1958 0.84937 0.19403 0.0
C996 C 0.21368 0.82024 0.2351 0.0
C997 C 0.24298 0.84345 0.2443 0.0
N998 N 0.27567 0.89297 0.23818 0.0
N999 N 0.16078 0.80344 0.20561 0.0
C1000 C 0.24843 0.86977 0.22831 0.0
C1001 C 0.18974 0.82405 0.2115 0.0
N1002 N 0.23222 0.89548 0.18491 0.0
N1003 N 0.20901 0.79375 0.24824 0.0
H1004 H 0.14329 0.80434 0.18782 0.0
H1005 H 0.15327 0.78662 0.2196 0.0
H1006 H 0.22522 0.79056 0.26602 0.0
H1007 H 0.19013 0.77402 0.24022 0.0
H1008 H 0.25403 0.91104 0.18672 0.0
H1009 H 0.21591 0.89861 0.1672 0.0
H1010 H 0.28059 0.91439 0.23055 0.0
H1011 H 0.29323 0.89125 0.25536 0.0
C1012 C 0.51865 0.9088 0.54118 0.0
C1013 C 0.53143 0.89699 0.51454 0.0
C1014 C 0.54853 0.95262 0.5057 0.0
C1015 C 0.53995 0.96531 0.53491 0.0
N1016 N 0.52134 0.95235 0.58374 0.0
N1017 N 0.56839 0.91292 0.47937 0.0
C1018 C 0.52617 0.94242 0.55347 0.0
C1019 C 0.54913 0.92048 0.49918 0.0
N1020 N 0.49829 0.88813 0.55445 0.0
N1021 N 0.55478 0.97069 0.4827 0.0
H1022 H 0.57269 0.89134 0.4766 0.0
H1023 H 0.5835 0.92956 0.46965 0.0
H1024 H 0.55171 0.99281 0.4844 0.0
H1025 H 0.55868 0.96193 0.46 0.0
H1026 H 0.48559 0.89505 0.57132 0.0
H1027 H 0.49195 0.8641 0.54631 0.0
H1028 H 0.51457 0.93725 0.59971 0.0
H1029 H 0.52717 0.97581 0.59416 0.0
C1030 C 0.52682 0.35148 0.70132 0.0
C1031 C 0.53117 0.32757 0.67856 0.0
C1032 C 0.48673 0.28974 0.69236 0.0
C1033 C 0.48468 0.31294 0.71767 0.0
N1034 N 0.50499 0.36512 0.74873 0.0
N1035 N 0.51674 0.27349 0.65329 0.0
C1036 C 0.50518 0.3437 0.72264 0.0
C1037 C 0.51135 0.29657 0.67415 0.0
N1038 N 0.54312 0.38185 0.70212 0.0
N1039 N 0.46472 0.26136 0.68543 0.0
H1040 H 0.53372 0.27793 0.63878 0.0
H1041 H 0.50565 0.24983 0.65148 0.0
H1042 H 0.44628 0.25575 0.69796 0.0
H1043 H 0.46334 0.24403 0.66598 0.0
H1044 H 0.53891 0.40081 0.71569 0.0
H1045 H 0.55902 0.3883 0.6868 0.0
H1046 H 0.52157 0.38676 0.75591 0.0
H1047 H 0.48963 0.36039 0.76492 0.0
C1048 C 0.08872 0.86718 0.68831 0.0
C1049 C 0.0573 0.85022 0.68644 0.0
C1050 C 0.04224 0.8842 0.65079 0.0
C1051 C 0.07365 0.89788 0.64863 0.0
N1052 N 0.12709 0.90062 0.6636 0.0
N1053 N 1.0039 0.8409 0.66373 0.0
C1054 C 0.09704 0.88914 0.66724 0.0
C1055 C 0.034 0.85839 0.66718 0.0
N1056 N 0.1106 0.86235 0.71034 0.0
N1057 N 1.02028 0.89653 0.63797 0.0
H1058 H 0.99674 0.82258 0.67611 0.0
H1059 H 0.98632 0.84319 0.64698 0.0
H1060 H 0.02549 0.91574 0.62638 0.0
H1061 H 0.99746 0.88979 0.64158 0.0
H1062 H 0.13359 0.87589 0.71524 0.0
H1063 H 0.10508 0.84653 0.72595 0.0
H1064 H 0.14482 0.89274 0.67375 0.0
H1065 H 0.13405 0.91643 0.64835 0.0
C1066 C 0.45515 0.8178 0.83884 0.0
C1067 C 0.47698 0.84791 0.84205 0.0
C1068 C 0.43136 0.86734 0.82645 0.0
C1069 C 0.40957 0.83679 0.82156 0.0
N1070 N 0.4049 0.78177 0.81402 0.0
N1071 N 0.48468 0.89894 0.82904 0.0
C1072 C 0.42281 0.81178 0.82522 0.0
C1073 C 0.46455 0.87182 0.83276 0.0
N1074 N 0.46515 0.79458 0.84953 0.0
N1075 N 0.42067 0.89273 0.82706 0.0
H1076 H 0.50824 0.90155 0.83097 0.0
H1077 H 0.47779 0.91667 0.81995 0.0
H1078 H 0.39731 0.89106 0.82427 0.0
H1079 H 0.43502 0.9156 0.83376 0.0
H1080 H 0.45027 0.77335 0.85196 0.0
H1081 H 0.48838 0.79744 0.85773 0.0
H1082 H 0.41351 0.76265 0.81316 0.0
H1083 H 0.3824 0.77635 0.8018 0.0
C1084 C 0.50469 0.16559 0.13219 0.0
C1085 C 0.52638 0.18008 0.16098 0.0
C1086 C 0.55212 0.13847 0.14968 0.0
C1087 C 0.53337 0.12704 0.11836 0.0
N1088 N 0.48945 0.12801 0.08133 0.0
N1089 N 0.57039 0.17965 0.19774 0.0
C1090 C 0.50878 0.14002 0.1103 0.0
C1091 C 0.54948 0.16571 0.17017 0.0
N1092 N 0.4801 0.17677 0.1259 0.0
N1093 N 0.573 0.12371 0.15975 0.0
H1094 H 0.568 0.19829 0.21369 0.0
H1095 H 0.59043 0.1737 0.20433 0.0
H1096 H 0.5772 0.10539 0.14508 0.0
H1097 H 0.58491 0.12824 0.1833 0.0
H1098 H 0.46193 0.16697 0.1067 0.0
H1099 H 0.47684 0.19494 0.14183 0.0
H1100 H 0.47305 0.13784 0.07179 0.0
H1101 H 0.49018 0.10808 0.06618 0.0
C1102 C 0.17417 0.32287 0.35151 0.0
C1103 C 0.16298 0.34741 0.34123 0.0
C1104 C 0.21001 0.35999 0.31319 0.0
C1105 C 0.22 0.33411 0.32159 0.0
N1106 N 0.20789 0.289 0.34697 0.0
N1107 N 0.17021 0.38714 0.30843 0.0
C1108 C 0.20082 0.31512 0.34017 0.0
C1109 C 0.18103 0.36518 0.32094 0.0
N1110 N 0.15949 0.30693 0.37295 0.0
N1111 N 0.22863 0.38034 0.29796 0.0
H1112 H 0.15043 0.39228 0.31427 0.0
H1113 H 0.17942 0.3987 0.2907 0.0
H1114 H 0.24849 0.37671 0.29055 0.0
H1115 H 0.22563 0.40171 0.29454 0.0
H1116 H 0.16793 0.29168 0.38505 0.0
H1117 H 0.13962 0.31053 0.38036 0.0
H1118 H 0.19361 0.27182 0.35675 0.0
H1119 H 0.22737 0.28337 0.34088 0.0
C1120 C 1.01635 0.03218 0.18739 0.0
C1121 C 1.0113 0.05609 0.20975 0.0
C1122 C 0.0242 0.09162 0.1701 0.0
C1123 C 0.03292 0.06859 0.15 0.0
N1124 N 0.04491 0.01974 0.14567 0.0
N1125 N 1.01467 0.11057 0.22355 0.0
C1126 C 0.03096 0.03963 0.16036 0.0
C1127 C 1.01617 0.08637 0.2013 0.0
N1128 N 1.00633 1.00181 0.19133 0.0
N1129 N 0.02301 0.11833 0.1592 0.0
H1130 H 1.00935 0.10779 0.24638 0.0
H1131 H 1.02107 0.13372 0.22038 0.0
H1132 H 0.02902 0.1229 0.137 0.0
H1133 H 1.01385 0.13466 0.17088 0.0
H1134 H 1.00684 0.98314 0.17416 0.0
H1135 H 0.99425 0.99507 0.20976 0.0
H1136 H 0.04723 0.99996 0.15449 0.0
H1137 H 0.05743 0.02504 0.12721 0.0
C1138 C 0.29185 0.72056 0.4684 0.0
C1139 C 0.27118 0.70011 0.48348 0.0
C1140 C 0.22958 0.72174 0.46635 0.0
C1141 C 0.25067 0.74344 0.45281 0.0
N1142 N 0.30027 0.76161 0.43628 0.0
N1143 N 0.21979 0.67507 0.49042 0.0
C1144 C 0.28133 0.74208 0.45215 0.0
C1145 C 0.23972 0.69873 0.48026 0.0
N1146 N 0.32178 0.71994 0.47096 0.0
N1147 N 0.20026 0.7237 0.4664 0.0
H1148 H 0.22669 0.65645 0.49721 0.0
H1149 H 0.19645 0.67243 0.48987 0.0
H1150 H 0.19216 0.7401 0.45587 0.0
H1151 H 0.18415 0.71011 0.47784 0.0
H1152 H 0.33933 0.73593 0.46345 0.0
H1153 H 0.32924 0.70304 0.48125 0.0
H1154 H 0.32234 0.76101 0.43335 0.0
H1155 H 0.29339 0.77774 0.42411 0.0
C1156 C 0.6102 0.03647 0.70378 0.0
C1157 C 0.64208 0.05292 0.7114 0.0
C1158 C 0.63969 0.07175 0.66029 0.0
C1159 C 0.60767 0.05559 0.65244 0.0
N1160 N 0.56394 0.01672 0.66297 0.0
N1161 N 0.68887 0.07603 0.692 0.0
C1162 C 0.59334 0.03596 0.67299 0.0
C1163 C 0.65741 0.06671 0.68774 0.0
N1164 N 0.59602 0.02251 0.72668 0.0
N1165 N 0.65276 0.0939 0.64317 0.0
H1166 H 0.70255 0.0722 0.71165 0.0
H1167 H 0.70113 0.08403 0.67417 0.0
H1168 H 0.64018 0.1003 0.62444 0.0
H1169 H 0.67529 0.10852 0.64996 0.0
H1170 H 0.57223 0.01331 0.7245 0.0
H1171 H 0.60848 0.02117 0.74857 0.0
H1172 H 0.55326 0.99979 0.67554 0.0
H1173 H 0.55098 0.01611 0.64072 0.0
C1174 C 0.30142 0.35469 0.95178 0.0
C1175 C 0.33008 0.36398 0.97329 0.0
C1176 C 0.35523 0.3496 0.92728 0.0
C1177 C 0.3265 0.3397 0.90585 0.0
N1178 N 0.27105 0.32575 0.90013 0.0
N1179 N 0.38152 0.35966 0.98276 0.0
C1180 C 0.29927 0.3403 0.91886 0.0
C1181 C 0.35616 0.3582 0.96138 0.0
N1182 N 0.27598 0.35942 0.96289 0.0
N1183 N 0.38196 0.35236 0.91511 0.0
H1184 H 0.38139 0.36267 0.00748 0.0
H1185 H 0.40048 0.35345 0.97599 0.0
H1186 H 0.38246 0.34693 0.89048 0.0
H1187 H 0.40371 0.36274 0.92913 0.0
H1188 H 0.25556 0.35772 0.94782 0.0
H1189 H 0.27571 0.36615 0.98736 0.0
H1190 H 0.25034 0.3223 0.90893 0.0
H1191 H 0.26838 0.31419 0.87645 0.0
C1192 C 0.99217 0.02735 0.40413 0.0
C1193 C 1.00945 0.04652 0.38448 0.0
C1194 C 0.05479 0.06096 0.42848 0.0
C1195 C 0.03668 0.04498 0.44917 0.0
N1196 N 0.99077 1.00635 0.45429 0.0
N1197 N 0.0563 0.08636 0.38184 0.0
C1198 C 1.00606 0.0263 0.43624 0.0
C1199 C 0.04068 0.06421 0.3975 0.0
N1200 N 0.96208 1.01074 0.39249 0.0
N1201 N 0.086 0.07182 0.43794 0.0
H1202 H 0.04674 0.09145 0.36042 0.0
H1203 H 0.07767 0.10227 0.39197 0.0
H1204 H 0.09684 0.06819 0.45963 0.0
H1205 H 0.10117 0.08098 0.4229 0.0
H1206 H 0.94669 1.00006 0.40653 0.0
H1207 H 0.95186 1.0078 0.36847 0.0
H1208 H 0.9695 0.98972 0.44601 0.0
H1209 H 1.00069 1.0046 0.47721 0.0
C1210 C 0.34536 0.76676 0.65978 0.0
C1211 C 0.32717 0.73513 0.65077 0.0
C1212 C 0.30536 0.73837 0.70018 0.0
C1213 C 0.32246 0.77046 0.70878 0.0
N1214 N 0.36443 0.81323 0.70158 0.0
N1215 N 0.29974 0.68818 0.66754 0.0
C1216 C 0.34442 0.78409 0.69013 0.0
C1217 C 0.31079 0.71998 0.67297 0.0
N1218 N 0.3623 0.78032 0.63841 0.0
N1219 N 0.28245 0.72594 0.71668 0.0
H1220 H 0.30401 0.67416 0.64803 0.0
H1221 H 0.28963 0.67573 0.68429 0.0
H1222 H 0.27659 0.73899 0.73584 0.0
H1223 H 0.26718 0.70356 0.70935 0.0
H1224 H 0.37325 0.80416 0.64143 0.0
H1225 H 0.36446 0.7673 0.61691 0.0
H1226 H 0.38276 0.82333 0.69045 0.0
H1227 H 0.36402 0.82652 0.72363 0.0
C1228 C 0.68993 0.15364 0.87699 0.0
C1229 C 0.69891 0.12642 0.87837 0.0
C1230 C 0.67283 0.11792 0.92456 0.0
C1231 C 0.65661 0.13914 0.91625 0.0
N1232 N 0.65064 0.17892 0.8857 0.0
N1233 N 0.70379 0.08503 0.90656 0.0
C1234 C 0.66593 0.15817 0.89335 0.0
C1235 C 0.69262 0.10978 0.90381 0.0
N1236 N 0.70472 0.17498 0.86022 0.0
N1237 N 0.66852 0.10519 0.95164 0.0
H1238 H 0.71932 0.0796 0.89231 0.0
H1239 H 0.69714 0.06956 0.92219 0.0
H1240 H 0.65402 0.11103 0.96706 0.0
H1241 H 0.68129 0.09129 0.96036 0.0
H1242 H 0.7003 0.19626 0.8593 0.0
H1243 H 0.72404 0.17248 0.85063 0.0
H1244 H 0.65415 0.19047 0.86623 0.0
H1245 H 0.63334 0.18331 0.89783 0.0
C1246 C 0.29324 0.348 0.15119 0.0
C1247 C 0.32178 0.36959 0.14902 0.0
C1248 C 0.33964 0.37099 0.20706 0.0
C1249 C 0.31071 0.34999 0.20968 0.0
N1250 N 0.25776 0.32432 0.18539 0.0
N1251 N 0.36925 0.40686 0.17671 0.0
C1252 C 0.28689 0.34019 0.182 0.0
C1253 C 0.34394 0.38275 0.17762 0.0
N1254 N 0.27242 0.33416 0.12355 0.0
N1255 N 0.36395 0.3782 0.23189 0.0
H1256 H 0.37319 0.41573 0.15564 0.0
H1257 H 0.38464 0.41999 0.19727 0.0
H1258 H 0.36256 0.36979 0.25347 0.0
H1259 H 0.38643 0.39013 0.23005 0.0
H1260 H 0.25288 0.31549 0.1225 0.0
H1261 H 0.2757 0.34025 0.10109 0.0
H1262 H 0.23863 0.31909 0.16724 0.0
H1263 H 0.25218 0.31898 0.20749 0.0
C1264 C 0.2459 0.9993 0.06961 0.0
C1265 C 0.26107 1.00299 0.04249 0.0
C1266 C 0.25508 0.05515 0.04417 0.0
C1267 C 0.23644 0.0499 0.06837 0.0
N1268 N 0.20973 0.0146 0.10059 0.0
N1269 N 0.27477 0.03168 0.99989 0.0
C1270 C 0.23064 0.02133 0.08022 0.0
C1271 C 0.26413 0.03016 0.02859 0.0
N1272 N 0.24718 0.97569 0.08619 0.0
N1273 N 0.26476 0.08428 0.03666 0.0
H1274 H 0.28064 0.01328 0.98715 0.0
H1275 H 0.27468 0.04975 0.98712 0.0
H1276 H 0.25926 0.10341 0.04837 0.0
H1277 H 0.28076 0.09011 0.02135 0.0
H1278 H 0.23958 0.97418 0.10827 0.0
H1279 H 0.2583 0.95911 0.07956 0.0
H1280 H 0.20248 0.99285 0.10733 0.0
H1281 H 0.19727 0.02954 0.10837 0.0
C1282 C 0.70391 0.65798 0.05398 0.0
C1283 C 0.70202 0.67593 0.02901 0.0
C1284 C 0.64753 0.64522 0.01116 0.0
C1285 C 0.65006 0.62582 0.03456 0.0
N1286 N 0.68245 0.61053 0.07447 0.0
N1287 N 0.67379 0.68158 0.97943 0.0
C1288 C 0.67894 0.63102 0.05449 0.0
C1289 C 0.6743 0.66806 0.00634 0.0
N1290 N 0.72853 0.66788 0.07872 0.0
N1291 N 0.61935 0.64242 0.99391 0.0
H1292 H 0.69306 0.69772 0.97462 0.0
H1293 H 0.65529 0.67451 0.96032 0.0
H1294 H 0.59948 0.62523 0.99545 0.0
H1295 H 0.61533 0.6584 0.9797 0.0
H1296 H 0.72954 0.65789 0.09939 0.0
H1297 H 0.74668 0.6881 0.08047 0.0
H1298 H 0.70376 0.61104 0.0869 0.0
H1299 H 0.66448 0.59135 0.07651 0.0
C1300 C 0.70991 0.50676 0.323 0.0
C1301 C 0.68761 0.51061 0.29877 0.0
C1302 C 0.70036 0.47264 0.25932 0.0
C1303 C 0.72558 0.47228 0.28247 0.0
N1304 N 0.75666 0.49214 0.3355 0.0
N1305 N 0.66253 0.49891 0.24324 0.0
C1306 C 0.7308 0.48998 0.31421 0.0
C1307 C 0.6829 0.4938 0.26676 0.0
N1308 N 0.71087 0.51899 0.35463 0.0
N1309 N 0.69269 0.45224 0.23053 0.0
H1310 H 0.64861 0.51322 0.24823 0.0
H1311 H 0.66066 0.49045 0.2187 0.0
H1312 H 0.70476 0.43634 0.22448 0.0
H1313 H 0.67298 0.44926 0.21379 0.0
H1314 H 0.72444 0.51446 0.3739 0.0
H1315 H 0.69573 0.53117 0.36181 0.0
H1316 H 0.76354 0.50738 0.35765 0.0
H1317 H 0.77286 0.48074 0.32997 0.0
C1318 C 0.90995 0.48519 0.47038 0.0
C1319 C 0.89511 0.47392 0.4956 0.0
C1320 C 0.93786 0.50854 0.53567 0.0
C1321 C 0.9547 0.51668 0.51072 0.0
N1322 N 0.95849 0.50865 0.45378 0.0
N1323 N 0.8993 0.46826 0.55161 0.0
C1324 C 0.9412 0.50419 0.47778 0.0
C1325 C 0.91026 0.48377 0.5281 0.0
N1326 N 0.89425 0.47777 0.43949 0.0
N1327 N 0.94806 0.5247 0.56664 0.0
H1328 H 0.87976 0.44891 0.54679 0.0
H1329 H 0.9117 0.47239 0.57495 0.0
H1330 H 0.96777 0.54393 0.5729 0.0
H1331 H 0.93514 0.52109 0.58514 0.0
H1332 H 0.9026 0.48791 0.42052 0.0
H1333 H 0.87186 0.4629 0.43363 0.0
H1334 H 0.95062 0.49712 0.42991 0.0
H1335 H 0.98156 0.52184 0.45798 0.0
C1336 C 0.38491 0.1438 0.29425 0.0
C1337 C 0.38084 0.12571 0.31904 0.0
C1338 C 0.32791 0.12799 0.31698 0.0
C1339 C 0.33272 0.1484 0.29443 0.0
N1340 N 0.36865 0.18233 0.26811 0.0
N1341 N 0.352 0.10955 0.36098 0.0
C1342 C 0.3621 0.15834 0.28494 0.0
C1343 C 0.3534 0.12058 0.33258 0.0
N1344 N 0.40961 0.14608 0.27862 0.0
N1345 N 0.29889 0.11487 0.32282 0.0
H1346 H 0.37093 0.1056 0.37425 0.0
H1347 H 0.33334 0.10795 0.37319 0.0
H1348 H 0.27933 0.11881 0.31089 0.0
H1349 H 0.29398 0.09759 0.33692 0.0
H1350 H 0.41178 0.15628 0.25811 0.0
H1351 H 0.42663 0.13545 0.28431 0.0
H1352 H 0.39045 0.19193 0.2627 0.0
H1353 H 0.35322 0.19476 0.26226 0.0
C1354 C 0.39208 0.19995 0.57492 0.0
C1355 C 0.36735 0.18778 0.54844 0.0
C1356 C 0.38261 0.13965 0.53796 0.0
C1357 C 0.40762 0.15196 0.56409 0.0
N1358 N 0.44072 0.19658 0.60211 0.0
N1359 N 0.34471 0.15026 0.49935 0.0
C1360 C 0.41381 0.18303 0.58087 0.0
C1361 C 0.36435 0.15886 0.52833 0.0
N1362 N 0.39392 0.22672 0.59548 0.0
N1363 N 0.37576 0.1093 0.52279 0.0
H1364 H 0.33185 0.1643 0.49099 0.0
H1365 H 0.34361 0.13102 0.48211 0.0
H1366 H 0.38906 0.09473 0.52845 0.0
H1367 H 0.35569 0.09786 0.50622 0.0
H1368 H 0.4093 0.23479 0.61726 0.0
H1369 H 0.37862 0.23979 0.59187 0.0
H1370 H 0.44847 0.22037 0.61155 0.0
H1371 H 0.45669 0.18465 0.60777 0.0
C1372 C 0.71998 0.6792 0.30199 0.0
C1373 C 0.70707 0.6793 0.33099 0.0
C1374 C 0.74425 0.731 0.3536 0.0
C1375 C 0.75759 0.7304 0.32496 0.0
N1376 N 0.76234 0.70161 0.27474 0.0
N1377 N 0.71031 0.70266 0.38641 0.0
C1378 C 0.74676 0.70367 0.30012 0.0
C1379 C 0.72019 0.70452 0.35738 0.0
N1380 N 0.7056 0.65666 0.27544 0.0
N1381 N 0.75414 0.75727 0.37692 0.0
H1382 H 0.69288 0.68369 0.38995 0.0
H1383 H 0.72085 0.71859 0.40762 0.0
H1384 H 0.77318 0.77587 0.37615 0.0
H1385 H 0.74287 0.76121 0.39628 0.0
H1386 H 0.71153 0.65733 0.25254 0.0
H1387 H 0.68592 0.63847 0.27541 0.0
H1388 H 0.75782 0.68148 0.25745 0.0
H1389 H 0.7818 0.71922 0.27261 0.0
C1390 C 0.87497 0.47675 0.82993 0.0
C1391 C 0.89996 0.48601 0.85663 0.0
C1392 C 0.8745 0.44181 0.88051 0.0
C1393 C 0.85328 0.42989 0.85141 0.0
N1394 N 0.8305 0.43574 0.79935 0.0
N1395 N 0.9231 0.47839 0.90815 0.0
C1396 C 0.85215 0.44772 0.82678 0.0
C1397 C 0.89951 0.46895 0.88236 0.0
N1398 N 0.87327 0.49512 0.8071 0.0
N1399 N 0.87007 0.42716 0.90636 0.0
H1400 H 0.94107 0.49897 0.91106 0.0
H1401 H 0.92574 0.46516 0.92594 0.0
H1402 H 0.85071 0.40817 0.90535 0.0
H1403 H 0.88336 0.43546 0.9293 0.0
H1404 H 0.85352 0.49198 0.79035 0.0
H1405 H 0.89102 0.51436 0.80511 0.0
H1406 H 0.83103 0.44498 0.77819 0.0
H1407 H 0.81229 0.41548 0.79725 0.0
C1408 C 0.07275 0.93361 0.10758 0.0
C1409 C 0.10014 0.92446 0.10332 0.0
C1410 C 0.11501 0.97269 0.07627 0.0
C1411 C 0.08714 0.98109 0.08001 0.0
N1412 N 0.03619 0.96202 0.09262 0.0
N1413 N 0.14644 0.93618 0.08038 0.0
C1414 C 0.06528 0.95925 0.09369 0.0
C1415 C 0.12076 0.94433 0.08645 0.0
N1416 N 0.05331 0.91805 0.12577 0.0
N1417 N 0.13599 0.9917 0.06199 0.0
H1418 H 0.15169 0.91708 0.0882 0.0
H1419 H 0.16209 0.9472 0.06682 0.0
H1420 H 0.13219 1.01112 0.0535 0.0
H1421 H 0.15707 0.98871 0.05827 0.0
H1422 H 0.03599 0.92605 0.13448 0.0
H1423 H 0.05571 0.89822 0.13414 0.0
H1424 H 1.01778 0.94487 0.09745 0.0
H1425 H 0.02961 0.98025 0.08442 0.0
C1426 C 0.92541 0.33524 0.94099 0.0
C1427 C 0.93555 0.30792 0.93729 0.0
C1428 C 0.89905 0.28942 0.88458 0.0
C1429 C 0.88639 0.31516 0.88993 0.0
N1430 N 0.88733 0.36159 0.92646 0.0
N1431 N 0.92712 0.25634 0.90738 0.0
C1432 C 0.89933 0.33745 0.91929 0.0
C1433 C 0.92104 0.28441 0.90949 0.0
N1434 N 0.94219 0.36046 0.964 0.0
N1435 N 0.89066 0.26964 0.8554 0.0
H1436 H 0.94242 0.2516 0.92495 0.0
H1437 H 0.9148 0.23681 0.89004 0.0
H1438 H 0.87423 0.27105 0.83687 0.0
H1439 H 0.90183 0.25318 0.84852 0.0
H1440 H 0.93867 0.38236 0.9657 0.0
H1441 H 0.96192 0.36065 0.97934 0.0
H1442 H 0.89226 0.37571 0.94922 0.0
H1443 H 0.87119 0.36665 0.9103 0.0
C1444 C 0.57583 0.2251 0.57713 0.0
C1445 C 0.60005 0.24433 0.6024 0.0
C1446 C 0.61306 0.19483 0.61128 0.0
C1447 C 0.58791 0.17533 0.58693 0.0
N1448 N 0.54306 0.17343 0.54933 0.0
N1449 N 0.63858 0.24551 0.64678 0.0
C1450 C 0.56866 0.19107 0.57088 0.0
C1451 C 0.61774 0.22844 0.6202 0.0
N1452 N 0.55996 0.23957 0.5581 0.0
N1453 N 0.63276 0.18121 0.62627 0.0
H1454 H 0.64202 0.26935 0.65414 0.0
H1455 H 0.65044 0.23593 0.66315 0.0
H1456 H 0.62912 0.15715 0.62248 0.0
H1457 H 0.65361 0.19368 0.64108 0.0
H1458 H 0.54481 0.22824 0.53677 0.0
H1459 H 0.56344 0.26364 0.56266 0.0
H1460 H 0.52563 0.18214 0.54004 0.0
H1461 H 0.53829 0.14945 0.54183 0.0
C1462 C 0.59194 0.83166 0.40404 0.0
C1463 C 0.59468 0.81779 0.432 0.0
C1464 C 0.64655 0.816 0.42297 0.0
C1465 C 0.64201 0.8263 0.39296 0.0
N1466 N 0.60733 0.83794 0.3521 0.0
N1467 N 0.62314 0.79266 0.4656 0.0
C1468 C 0.61382 0.83242 0.38273 0.0
C1469 C 0.62169 0.80894 0.44089 0.0
N1470 N 0.56922 0.8456 0.39854 0.0
N1471 N 0.67491 0.81384 0.43487 0.0
H1472 H 0.60542 0.78686 0.479 0.0
H1473 H 0.64068 0.78261 0.47099 0.0
H1474 H 0.69358 0.81892 0.42259 0.0
H1475 H 0.68066 0.80969 0.45807 0.0
H1476 H 0.56808 0.85887 0.38045 0.0
H1477 H 0.55357 0.84699 0.4142 0.0
H1478 H 0.58578 0.83916 0.34213 0.0
H1479 H 0.62239 0.83818 0.33547 0.0
C1480 C 0.09298 0.28453 0.448 0.0
C1481 C 0.06988 0.28195 0.42134 0.0
C1482 C 0.04275 0.22947 0.43006 0.0
C1483 C 0.06261 0.23476 0.46028 0.0
N1484 N 0.10569 0.26912 0.49928 0.0
N1485 N 0.02248 0.25208 0.3865 0.0
C1486 C 0.08786 0.26254 0.46934 0.0
C1487 C 0.0449 0.25418 0.41192 0.0
N1488 N 0.11965 0.30856 0.45314 0.0
N1489 N 0.02214 0.20068 0.41854 0.0
H1490 H 0.02431 0.26917 0.37203 0.0
H1491 H 1.00169 0.23428 0.38067 0.0
H1492 H 1.02035 0.18209 0.43099 0.0
H1493 H 1.0089 0.1944 0.39548 0.0
H1494 H 0.13874 0.31044 0.47033 0.0
H1495 H 0.12368 0.32488 0.4378 0.0
H1496 H 0.12221 0.29049 0.50857 0.0
H1497 H 0.10227 0.25434 0.51614 0.0
C1498 C 0.65182 0.27123 0.26385 0.0
C1499 C 0.64183 0.29235 0.24589 0.0
C1500 C 0.69758 0.31616 0.24279 0.0
C1501 C 0.70838 0.29765 0.2637 0.0
N1502 N 0.69311 0.26089 0.29918 0.0
N1503 N 0.65877 0.34136 0.22776 0.0
C1504 C 0.68465 0.2761 0.27565 0.0
C1505 C 0.66598 0.31686 0.23878 0.0
N1506 N 0.63014 0.24574 0.26886 0.0
N1507 N 0.71679 0.33151 0.2242 0.0
H1508 H 0.63638 0.34309 0.22496 0.0
H1509 H 0.67545 0.36135 0.22509 0.0
H1510 H 0.7384 0.32858 0.22254 0.0
H1511 H 0.70951 0.34331 0.20677 0.0
H1512 H 0.63566 0.22749 0.27829 0.0
H1513 H 0.60662 0.24209 0.26154 0.0
H1514 H 0.67734 0.24736 0.31109 0.0
H1515 H 0.71604 0.26423 0.30898 0.0
C1516 C 0.60858 0.96013 0.95343 0.0
C1517 C 0.58454 0.94251 0.9274 0.0
C1518 C 0.55089 0.97234 0.9498 0.0
C1519 C 0.5756 0.99183 0.97434 0.0
N1520 N 0.63031 1.0076 0.99404 0.0
N1521 N 0.53489 0.93752 0.8975 0.0
C1522 C 0.60509 0.98654 0.97461 0.0
C1523 C 0.55646 0.95058 0.9246 0.0
N1524 N 0.63487 0.95142 0.95835 0.0
N1525 N 0.52143 0.9728 0.95166 0.0
H1526 H 0.53873 0.92223 0.87886 0.0
H1527 H 0.51513 0.94436 0.89212 0.0
H1528 H 0.51594 0.98628 0.97073 0.0
H1529 H 0.50213 0.95716 0.93653 0.0
H1530 H 0.65171 0.96055 0.97894 0.0
H1531 H 0.63888 0.93353 0.94273 0.0
H1532 H 0.6528 1.00699 0.99317 0.0
H1533 H 0.6291 0.02761 0.00867 0.0
C1534 C 0.94088 0.80497 0.74657 0.0
C1535 C 0.9518 0.77915 0.75358 0.0
C1536 C 0.90713 0.7671 0.78548 0.0
C1537 C 0.89486 0.79138 0.77589 0.0
N1538 N 0.89843 0.82793 0.73944 0.0
N1539 N 0.94134 0.73374 0.77852 0.0
C1540 C 0.91153 0.80869 0.75437 0.0
C1541 C 0.93372 0.75988 0.77287 0.0
N1542 N 0.95954 0.82765 0.73384 0.0
N1543 N 0.89389 0.75123 0.80771 0.0
H1544 H 0.95976 0.7278 0.76991 0.0
H1545 H 0.92838 0.7168 0.78961 0.0
H1546 H 0.87517 0.75562 0.81711 0.0
H1547 H 0.90262 0.73553 0.81869 0.0
H1548 H 0.95503 0.84862 0.7313 0.0
H1549 H 0.9814 0.82729 0.72958 0.0
H1550 H 0.90703 0.83865 0.7209 0.0
H1551 H 0.87689 0.83011 0.74283 0.0
C1552 C 0.1148 0.04911 0.91443 0.0
C1553 C 0.12342 0.0788 0.90461 0.0
C1554 C 0.10816 0.10164 0.9547 0.0
C1555 C 0.10162 0.07236 0.96566 0.0
N1556 N 0.10386 0.01942 0.95766 0.0
N1557 N 0.13191 0.13415 0.91789 0.0
C1558 C 0.10623 0.04642 0.94583 0.0
C1559 C 0.12099 0.10523 0.92548 0.0
N1560 N 0.1139 0.02308 0.89324 0.0
N1561 N 0.10096 0.12596 0.97158 0.0
H1562 H 0.14056 0.13755 0.89658 0.0
H1563 H 0.13454 0.15488 0.93362 0.0
H1564 H 0.09205 0.12471 0.99299 0.0
H1565 H 0.10143 0.14658 0.96315 0.0
H1566 H 0.10462 1.00042 0.89702 0.0
H1567 H 0.12004 0.024 0.87042 0.0
H1568 H 0.11028 1.00077 0.9464 0.0
H1569 H 0.09807 0.01667 0.98036 0.0
C1570 C 0.84729 0.44419 0.61425 0.0
C1571 C 0.82394 0.41995 0.59254 0.0
C1572 C 0.82095 0.38569 0.63245 0.0
C1573 C 0.8464 0.40856 0.6527 0.0
N1574 N 0.87818 0.46191 0.66811 0.0
N1575 N 0.78135 0.37326 0.5849 0.0
C1576 C 0.85766 0.43872 0.64533 0.0
C1577 C 0.80846 0.39242 0.60298 0.0
N1578 N 0.86044 0.47174 0.60477 0.0
N1579 N 0.80932 0.35732 0.6411 0.0
H1580 H 0.77127 0.37839 0.56365 0.0
H1581 H 0.76732 0.35414 0.59233 0.0
H1582 H 0.8165 0.35225 0.66353 0.0
H1583 H 0.79342 0.3383 0.62567 0.0
H1584 H 0.88002 0.48871 0.61776 0.0
H1585 H 0.85258 0.47761 0.5831 0.0
H1586 H 0.88555 0.4852 0.66566 0.0
H1587 H 0.88625 0.45829 0.69093 0.0
C1588 C 0.51017 0.11639 0.43716 0.0
C1589 C 0.48091 0.09385 0.42597 0.0
C1590 C 0.49467 0.0602 0.46195 0.0
C1591 C 0.52257 0.08386 0.47533 0.0
N1592 N 0.55546 0.13627 0.47915 0.0
N1593 N 0.44275 0.04735 0.43293 0.0
C1594 C 0.5301 0.11246 0.4638 0.0
C1595 C 0.47229 0.06674 0.44003 0.0
N1596 N 0.51889 0.14152 0.42222 0.0
N1597 N 0.49 0.03111 0.46973 0.0
H1598 H 0.4253 0.05111 0.41728 0.0
H1599 H 0.43463 0.02913 0.44513 0.0
H1600 H 0.50651 0.02524 0.4849 0.0
H1601 H 0.47129 0.012 0.45875 0.0
H1602 H 0.54121 0.15668 0.42654 0.0
H1603 H 0.50403 0.14643 0.4043 0.0
H1604 H 0.5601 0.15892 0.47444 0.0
H1605 H 0.57092 0.13396 0.49824 0.0
C1606 C 0.82443 0.78458 0.15269 0.0
C1607 C 0.79495 0.77015 0.13316 0.0
C1608 C 0.77072 0.77682 0.18213 0.0
C1609 C 0.80026 0.79002 0.20198 0.0
N1610 N 0.85566 0.80323 0.20628 0.0
N1611 N 0.74038 0.74742 0.13037 0.0
C1612 C 0.82718 0.79272 0.18724 0.0
C1613 C 0.76822 0.76505 0.14825 0.0
N1614 N 0.84981 0.79207 0.13804 0.0
N1615 N 0.74483 0.77528 0.19565 0.0
H1616 H 0.73762 0.73803 0.10589 0.0
H1617 H 0.72051 0.73963 0.14018 0.0
H1618 H 0.74539 0.78114 0.22044 0.0
H1619 H 0.72282 0.76989 0.18222 0.0
H1620 H 0.87151 0.80587 0.15004 0.0
H1621 H 0.84881 0.78632 0.11314 0.0
H1622 H 0.87578 0.80146 0.19813 0.0
H1623 H 0.85919 0.81238 0.23087 0.0
C1624 C 0.1142 0.11338 0.71081 0.0
C1625 C 0.1078 0.08656 0.72593 0.0
C1626 C 0.08402 0.05376 0.67206 0.0
C1627 C 0.08867 0.08083 0.65717 0.0
N1628 N 0.10608 0.13687 0.66331 0.0
N1629 N 0.08283 0.0317 0.72145 0.0
C1630 C 0.10299 0.11075 0.67693 0.0
C1631 C 0.09184 0.05687 0.70659 0.0
N1632 N 0.13241 0.14135 0.72862 0.0
N1633 N 0.07207 0.02481 0.65313 0.0
H1634 H 0.08839 0.03293 0.74632 0.0
H1635 H 0.06796 1.01013 0.70978 0.0
H1636 H 0.06436 0.02122 0.62833 0.0
H1637 H 0.07111 1.00411 0.66154 0.0
H1638 H 0.14121 0.16107 0.71877 0.0
H1639 H 0.141 0.14433 0.7532 0.0
H1640 H 0.11251 0.15942 0.67664 0.0
H1641 H 0.10046 0.13605 0.63854 0.0
C1642 C 0.80475 0.41794 0.40433 0.0
C1643 C 0.78168 0.40683 0.42267 0.0
C1644 C 0.7677 0.35535 0.3875 0.0
C1645 C 0.79524 0.3651 0.37447 0.0
N1646 N 0.84398 0.40439 0.37755 0.0
N1647 N 0.74046 0.36431 0.4318 0.0
C1648 C 0.815 0.39603 0.3851 0.0
C1649 C 0.763 0.37522 0.41435 0.0
N1650 N 0.81642 0.44904 0.40431 0.0
N1651 N 0.74523 0.32841 0.37329 0.0
H1652 H 0.73436 0.37892 0.44946 0.0
H1653 H 0.72874 0.34068 0.42947 0.0
H1654 H 0.74691 0.31386 0.35272 0.0
H1655 H 0.72355 0.32206 0.38003 0.0
H1656 H 0.83127 0.4574 0.3886 0.0
H1657 H 0.80835 0.466 0.41645 0.0
H1658 H 0.85959 0.42646 0.3859 0.0
H1659 H 0.85354 0.38823 0.36608 0.0
C1660 C 0.45375 0.01266 0.24699 0.0
C1661 C 0.45919 0.04525 0.25648 0.0
C1662 C 0.48114 0.05466 0.20787 0.0
C1663 C 0.48177 0.0232 0.20257 0.0
N1664 N 0.46658 0.97114 0.2142 0.0
N1665 N 0.47421 0.09726 0.24518 0.0
C1666 C 0.4666 1.00161 0.22069 0.0
C1667 C 0.471 0.06622 0.23616 0.0
N1668 N 0.43728 0.99258 0.2641 0.0
N1669 N 0.49088 0.07331 0.18615 0.0
H1670 H 0.46579 0.10574 0.26527 0.0
H1671 H 0.48562 0.11458 0.23347 0.0
H1672 H 0.49841 0.06512 0.16529 0.0
H1673 H 0.48943 0.09597 0.18734 0.0
H1674 H 0.42979 0.96843 0.25696 0.0
H1675 H 0.42917 1.00051 0.28452 0.0
H1676 H 0.45923 0.95489 0.22885 0.0
H1677 H 0.47502 0.96215 0.19441 0.0
C1678 C 0.82484 0.75111 0.93517 0.0
C1679 C 0.80182 0.7561 0.95364 0.0
C1680 C 0.78827 0.78815 0.91406 0.0
C1681 C 0.80824 0.77958 0.89356 0.0
N1682 N 0.84264 0.74897 0.88322 0.0
N1683 N 0.75801 0.77572 0.9564 0.0
C1684 C 0.82558 0.75984 0.90375 0.0
C1685 C 0.78267 0.77379 0.94194 0.0
N1686 N 0.84744 0.73982 0.94839 0.0
N1687 N 0.77518 0.81084 0.90746 0.0
H1688 H 0.75251 0.76489 0.97594 0.0
H1689 H 0.7413 0.78533 0.94702 0.0
H1690 H 0.77898 0.82202 0.88776 0.0
H1691 H 0.76297 0.82053 0.92308 0.0
H1692 H 0.86637 0.73842 0.93754 0.0
H1693 H 0.84942 0.73537 0.97192 0.0
H1694 H 0.85287 0.73162 0.88737 0.0
H1695 H 0.84442 0.75554 0.86072 0.0
C1696 C 0.84743 0.10627 0.01601 0.0
C1697 C 0.8439 0.11666 0.04814 0.0
C1698 C 0.87374 0.08355 0.06782 0.0
C1699 C 0.8815 0.07761 0.03661 0.0
N1700 N 0.88003 0.08824 0.9821 0.0
N1701 N 0.85712 0.11836 0.10551 0.0
C1702 C 0.86945 0.09019 0.01091 0.0
C1703 C 0.85775 0.10597 0.07437 0.0
N1704 N 0.82893 0.11058 0.99021 0.0
N1705 N 0.88141 0.06752 0.09103 0.0
H1706 H 0.8465 0.13557 0.11139 0.0
H1707 H 0.86961 0.11371 0.12554 0.0
H1708 H 0.89278 0.05062 0.08678 0.0
H1709 H 0.87387 0.06878 0.11327 0.0
H1710 H 0.82875 0.1008 0.96638 0.0
H1711 H 0.81123 0.12068 0.99274 0.0
H1712 H 0.87434 0.10014 0.96401 0.0
H1713 H 0.89672 0.07727 0.97733 0.0
C1714 C 0.42466 0.48417 0.05901 0.0
C1715 C 0.42645 0.45418 0.06476 0.0
C1716 C 0.48105 0.47139 0.06003 0.0
C1717 C 0.48089 0.50287 0.06086 0.0
N1718 N 0.45151 0.53954 0.07004 0.0
N1719 N 0.46153 0.42581 0.08295 0.0
C1720 C 0.45242 0.50949 0.0631 0.0
C1721 C 0.45623 0.44981 0.06919 0.0
N1722 N 0.39717 0.48858 0.04774 0.0
N1723 N 0.50359 0.46109 0.04821 0.0
H1724 H 0.44523 0.41161 0.0938 0.0
H1725 H 0.48357 0.42323 0.08766 0.0
H1726 H 0.51919 0.47456 0.03613 0.0
H1727 H 0.50347 0.43779 0.04592 0.0
H1728 H 0.39569 0.50955 0.04115 0.0
H1729 H 0.37664 0.4706 0.04068 0.0
H1730 H 0.43143 0.545 0.07423 0.0
H1731 H 0.47122 0.55867 0.07561 0.0
C1732 C 0.41335 0.61929 0.77303 0.0
C1733 C 0.43562 0.62006 0.79993 0.0
C1734 C 0.4205 0.66246 0.83036 0.0
C1735 C 0.39468 0.65739 0.80573 0.0
N1736 N 0.36433 0.62747 0.75484 0.0
N1737 N 0.45759 0.64041 0.85641 0.0
C1738 C 0.39062 0.63501 0.77724 0.0
C1739 C 0.43877 0.6414 0.82914 0.0
N1740 N 0.4143 0.60396 0.74319 0.0
N1741 N 0.42797 0.6878 0.85469 0.0
H1742 H 0.47095 0.62516 0.85723 0.0
H1743 H 0.45792 0.65296 0.8791 0.0
H1744 H 0.41556 0.70404 0.85605 0.0
H1745 H 0.44823 0.6944 0.87148 0.0
H1746 H 0.40046 0.60495 0.72212 0.0
H1747 H 0.43134 0.59324 0.73905 0.0
H1748 H 0.35874 0.60898 0.73536 0.0
H1749 H 0.34666 0.63766 0.75731 0.0
C1750 C 0.19451 0.61133 0.54242 0.0
C1751 C 0.20526 0.63896 0.56643 0.0
C1752 C 0.15965 0.62149 0.59147 0.0
C1753 C 0.14641 0.59791 0.5639 0.0
N1754 N 0.1502 0.56991 0.51261 0.0
N1755 N 0.19994 0.66931 0.61578 0.0
C1756 C 0.16374 0.59225 0.53952 0.0
C1757 C 0.18844 0.64365 0.59172 0.0
N1758 N 0.21336 0.60327 0.52228 0.0
N1759 N 0.14477 0.62207 0.61748 0.0
H1760 H 0.2221 0.68459 0.6182 0.0
H1761 H 0.1873 0.67608 0.63276 0.0
H1762 H 0.12444 0.60485 0.61799 0.0
H1763 H 0.15385 0.6373 0.63943 0.0
H1764 H 0.20762 0.58179 0.50684 0.0
H1765 H 0.23589 0.61657 0.52274 0.0
H1766 H 0.16025 0.5672 0.49205 0.0
H1767 H 0.12783 0.5552 0.50989 0.0
C1768 C 0.78167 0.04074 0.82941 0.0
C1769 C 0.75033 0.02568 0.81494 0.0
C1770 C 0.75729 0.97525 0.82231 0.0
C1771 C 0.78941 0.98993 0.83204 0.0
N1772 N 0.83313 0.03597 0.84121 0.0
N1773 N 0.70898 0.97818 0.79424 0.0
C1774 C 0.8019 0.02249 0.83455 0.0
C1775 C 0.73817 0.9928 0.8107 0.0
N1776 N 0.79185 0.07235 0.83988 0.0
N1777 N 0.74504 0.9447 0.82467 0.0
H1778 H 0.69448 0.99022 0.78483 0.0
H1779 H 0.7001 0.95402 0.7875 0.0
H1780 H 0.75846 0.93097 0.83256 0.0
H1781 H 0.72141 0.93392 0.82171 0.0
H1782 H 0.81354 0.08392 0.85357 0.0
H1783 H 0.77767 0.08676 0.83817 0.0
H1784 H 0.84361 0.05905 0.8394 0.0
H1785 H 0.84876 0.02349 0.84611 0.0
C1786 C 0.75181 0.95375 0.52688 0.0
C1787 C 0.76202 0.94747 0.55763 0.0
C1788 C 0.73345 0.98059 0.58284 0.0
C1789 C 0.72189 0.98528 0.55177 0.0
N1790 N 0.71402 0.97002 0.49381 0.0
N1791 N 0.75849 0.95035 0.61411 0.0
C1792 C 0.72911 0.96975 0.52367 0.0
C1793 C 0.75148 0.95945 0.58539 0.0
N1794 N 0.76533 0.94643 0.50107 0.0
N1795 N 0.72837 0.99737 0.60995 0.0
H1796 H 0.77169 0.93503 0.61665 0.0
H1797 H 0.74911 0.95574 0.63457 0.0
H1798 H 0.71525 0.01291 0.60906 0.0
H1799 H 0.73895 0.99766 0.63326 0.0
H1800 H 0.76114 0.95336 0.47892 0.0
H1801 H 0.78316 0.93628 0.50283 0.0
H1802 H 0.716 0.95643 0.47267 0.0
H1803 H 0.6972 0.98145 0.49052 0.0
C1804 C 0.42535 0.43757 0.82011 0.0
C1805 C 0.42734 0.45234 0.79255 0.0
C1806 C 0.3774 0.41429 0.76562 0.0
C1807 C 0.37462 0.40137 0.79424 0.0
N1808 N 0.39197 0.40696 0.85139 0.0
N1809 N 0.40345 0.45658 0.73994 0.0
C1810 C 0.39747 0.41492 0.82221 0.0
C1811 C 0.40263 0.4414 0.76569 0.0
N1812 N 0.45018 0.44457 0.84432 0.0
N1813 N 0.35691 0.39981 0.73791 0.0
H1814 H 0.42251 0.47457 0.73771 0.0
H1815 H 0.38471 0.45235 0.72153 0.0
H1816 H 0.33795 0.38056 0.73711 0.0
H1817 H 0.3597 0.40555 0.71528 0.0
H1818 H 0.45106 0.43172 0.86283 0.0
H1819 H 0.47093 0.46149 0.84486 0.0
H1820 H 0.40625 0.41833 0.87327 0.0
H1821 H 0.3713 0.39148 0.85419 0.0
C1822 C 0.24442 0.69059 0.33462 0.0
C1823 C 0.22739 0.67219 0.30487 0.0
C1824 C 0.24901 0.71474 0.2766 0.0
C1825 C 0.26756 0.73199 0.30622 0.0
N1826 N 0.28922 0.73284 0.36118 0.0
N1827 N 0.2178 0.66411 0.24646 0.0
C1828 C 0.26715 0.71885 0.33457 0.0
C1829 C 0.23107 0.68341 0.27544 0.0
N1830 N 0.23847 0.68144 0.36308 0.0
N1831 N 0.24758 0.72861 0.25 0.0
H1832 H 0.20411 0.6412 0.24467 0.0
H1833 H 0.22228 0.67001 0.22427 0.0
H1834 H 0.26091 0.75129 0.24984 0.0
H1835 H 0.23172 0.71842 0.22884 0.0
H1836 H 0.2483 0.69544 0.38562 0.0
H1837 H 0.22139 0.66115 0.36389 0.0
H1838 H 0.2925 0.72189 0.38082 0.0
H1839 H 0.30647 0.75356 0.36189 0.0
C1840 C 0.54509 0.71769 0.55199 0.0
C1841 C 0.53049 0.71938 0.52036 0.0
C1842 C 0.53241 0.66336 0.50444 0.0
C1843 C 0.54468 0.66086 0.53685 0.0
N1844 N 0.55577 0.68656 0.5925 0.0
N1845 N 0.50614 0.68942 0.46783 0.0
C1846 C 0.54918 0.68847 0.56066 0.0
C1847 C 0.52325 0.69092 0.4971 0.0
N1848 N 0.55655 0.74476 0.57411 0.0
N1849 N 0.53044 0.63973 0.47972 0.0
H1850 H 0.49946 0.70836 0.46149 0.0
H1851 H 0.49637 0.66883 0.45104 0.0
H1852 H 0.53616 0.61957 0.48329 0.0
H1853 H 0.52578 0.64123 0.4554 0.0
H1854 H 0.57056 0.74659 0.59607 0.0
H1855 H 0.55485 0.76619 0.56907 0.0
H1856 H 0.55587 0.70396 0.61142 0.0
H1857 H 0.55766 0.66613 0.60011 0.0
C1858 C 0.71894 0.32974 0.68652 0.0
C1859 C 0.7015 0.35161 0.69079 0.0
C1860 C 0.73037 0.36851 0.74785 0.0
C1861 C 0.74955 0.34866 0.74236 0.0
N1862 N 0.76529 0.31524 0.70268 0.0
N1863 N 0.69636 0.39637 0.72517 0.0
C1864 C 0.74492 0.33109 0.71049 0.0
C1865 C 0.70874 0.3721 0.7215 0.0
N1866 N 0.70949 0.30578 0.66055 0.0
N1867 N 0.73297 0.38447 0.77838 0.0
H1868 H 0.68189 0.40074 0.70653 0.0
H1869 H 0.7029 0.41407 0.74545 0.0
H1870 H 0.74977 0.38456 0.79746 0.0
H1871 H 0.71735 0.3961 0.78523 0.0
H1872 H 0.71891 0.28723 0.65805 0.0
H1873 H 0.68986 0.30207 0.64346 0.0
H1874 H 0.76554 0.30539 0.679 0.0
H1875 H 0.78365 0.31423 0.71925 0.0
C1876 C 1.01969 0.41081 0.03718 0.0
C1877 C 0.03652 0.39896 0.0145 0.0
C1878 C 0.05845 0.45478 0.00767 0.0
C1879 C 0.04451 0.46713 0.0328 0.0
N1880 N 1.01531 0.45478 0.07527 0.0
N1881 N 0.07952 0.41398 0.98628 0.0
C1882 C 0.02601 0.44443 0.04848 0.0
C1883 C 0.05794 0.42228 1.00212 0.0
N1884 N 0.99669 0.39007 0.04732 0.0
N1885 N 0.07124 0.47379 0.9875 0.0
H1886 H 0.08189 0.39162 0.98372 0.0
H1887 H 0.09763 0.4302 0.97966 0.0
H1888 H 0.07073 0.49683 0.98912 0.0
H1889 H 0.07897 0.46558 0.96683 0.0
H1890 H 0.98115 0.39678 0.06065 0.0
H1891 H 0.99153 0.366 0.04007 0.0
H1892 H 1.00467 0.44006 0.09001 0.0
H1893 H 1.01963 0.47843 0.08447 0.0
C1894 C 0.02486 0.79384 0.19008 0.0
C1895 C 0.02571 0.81684 0.17021 0.0
C1896 C 0.97665 0.82186 0.18574 0.0
C1897 C 0.97938 0.80347 0.20993 0.0
N1898 N 1.00769 0.7736 0.23681 0.0
N1899 N 1.00072 0.85161 0.14752 0.0
C1900 C 1.00378 0.78968 0.21235 0.0
C1901 C 1.00087 0.83022 0.16721 0.0
N1902 N 0.04353 0.77501 0.18669 0.0
N1903 N 0.95047 0.83069 0.17995 0.0
H1904 H 1.01553 0.85564 0.13086 0.0
H1905 H 0.98623 0.86581 0.14807 0.0
H1906 H 0.93252 0.82511 0.19312 0.0
H1907 H 0.94529 0.8412 0.16049 0.0
H1908 H 0.04205 0.7559 0.19823 0.0
H1909 H 0.05791 0.77618 0.16931 0.0
H1910 H 0.02711 0.76621 0.24208 0.0
H1911 H 0.99277 0.76984 0.25355 0.0
C1912 C 0.53613 0.34649 0.15 0.0
C1913 C 0.55408 0.34876 0.18068 0.0
C1914 C 0.58548 0.40121 0.17558 0.0
C1915 C 0.57044 0.39655 0.14307 0.0
N1916 N 0.53333 0.36315 0.09802 0.0
N1917 N 0.59718 0.37821 0.22231 0.0
C1918 C 0.5463 0.36872 0.12994 0.0
C1919 C 0.57895 0.37628 0.19356 0.0
N1920 N 0.50827 0.32405 0.14073 0.0
N1921 N 0.60557 0.42972 0.18952 0.0
H1922 H 0.59301 0.36092 0.23644 0.0
H1923 H 0.61775 0.39587 0.2311 0.0
H1924 H 0.61139 0.44811 0.17688 0.0
H1925 H 0.61449 0.43596 0.21414 0.0
H1926 H 0.49276 0.3231 0.12015 0.0
H1927 H 0.49894 0.30865 0.15554 0.0
H1928 H 0.51824 0.34172 0.08613 0.0
H1929 H 0.53951 0.37909 0.08266 0.0
C1930 C 0.96648 0.37775 0.33614 0.0
C1931 C 0.9799 0.35264 0.33699 0.0
C1932 C 0.92754 0.31683 0.31044 0.0
C1933 C 0.91327 0.34153 0.31364 0.0
N1934 N 0.92072 0.39591 0.33388 0.0
N1935 N 0.97079 0.29713 0.32718 0.0
C1936 C 0.93337 0.37214 0.32728 0.0
C1937 C 0.95967 0.32193 0.32446 0.0
N1938 N 0.98581 0.40751 0.34375 0.0
N1939 N 0.91062 0.28834 0.29285 0.0
H1940 H 0.99394 0.29992 0.33575 0.0
H1941 H 0.95684 0.27409 0.32281 0.0
H1942 H 0.88789 0.28382 0.28155 0.0
H1943 H 0.91997 0.27021 0.28663 0.0
H1944 H 0.97883 0.42717 0.34085 0.0
H1945 H 1.0096 0.41211 0.34981 0.0
H1946 H 0.93312 0.41783 0.34721 0.0
H1947 H 0.89714 0.393 0.32854 0.0
C1948 C 1.00263 0.66799 0.62523 0.0
C1949 C 0.02279 0.68063 0.65547 0.0
C1950 C 0.04961 0.64037 0.64223 0.0
C1951 C 0.02947 0.62764 0.61169 0.0
N1952 N 0.98091 0.62455 0.57993 0.0
N1953 N 0.05997 0.67294 0.69591 0.0
C1954 C 1.00419 0.64006 0.60506 0.0
C1955 C 0.04419 0.66453 0.66496 0.0
N1956 N 0.98253 0.68352 0.61509 0.0
N1957 N 0.07548 0.63128 0.64885 0.0
H1958 H 0.05648 0.69046 0.71251 0.0
H1959 H 0.07387 0.66066 0.70592 0.0
H1960 H 0.08102 0.61465 0.63321 0.0
H1961 H 0.09293 0.64221 0.66855 0.0
H1962 H 0.96996 0.67841 0.59175 0.0
H1963 H 0.97964 0.70261 0.62992 0.0
H1964 H 0.96052 0.63048 0.57543 0.0
H1965 H 0.98052 0.60366 0.56569 0.0
C1966 C 0.67598 0.86103 0.81809 0.0
C1967 C 0.66191 0.84816 0.84381 0.0
C1968 C 0.70321 0.81986 0.84718 0.0
C1969 C 0.71875 0.83464 0.82343 0.0
N1970 N 0.71898 0.87076 0.78712 0.0
N1971 N 0.66585 0.81652 0.88441 0.0
C1972 C 0.70462 0.85558 0.80922 0.0
C1973 C 0.67687 0.82811 0.85872 0.0
N1974 N 0.66188 0.87885 0.8019 0.0
N1975 N 0.71276 0.79639 0.8579 0.0
H1976 H 0.64573 0.81934 0.89179 0.0
H1977 H 0.67749 0.80566 0.89958 0.0
H1978 H 0.73104 0.78952 0.85002 0.0
H1979 H 0.70113 0.78187 0.87221 0.0
H1980 H 0.66808 0.88684 0.78112 0.0
H1981 H 0.64263 0.88458 0.80853 0.0
H1982 H 0.71239 0.88803 0.77688 0.0
H1983 H 0.73887 0.86696 0.77992 0.0
C1984 C 0.51159 0.5293 0.68419 0.0
C1985 C 0.51125 0.5544 0.70833 0.0
C1986 C 0.52817 0.59047 0.67021 0.0
C1987 C 0.53237 0.56578 0.648 0.0
N1988 N 0.53317 0.51214 0.63804 0.0
N1989 N 0.52242 0.60992 0.72511 0.0
C1990 C 0.52524 0.5353 0.65609 0.0
C1991 C 0.52021 0.58528 0.70142 0.0
N1992 N 0.49799 0.49932 0.68765 0.0
N1993 N 0.53077 0.61873 0.66113 0.0
H1994 H 0.51646 0.60712 0.74772 0.0
H1995 H 0.53217 0.6331 0.72319 0.0
H1996 H 0.5361 0.62319 0.63868 0.0
H1997 H 0.52494 0.63676 0.6745 0.0
H1998 H 0.4945 0.48007 0.66946 0.0
H1999 H 0.48714 0.49397 0.70728 0.0
H2000 H 0.53195 0.49065 0.64487 0.0
H2001 H 0.5441 0.51536 0.61811 0.0
C2002 C 0.76649 0.18522 0.95134 0.0
C2003 C 0.75185 0.17851 0.97798 0.0
C2004 C 0.71902 0.21129 0.96706 0.0
C2005 C 0.73643 0.22139 0.94308 0.0
N2006 N 0.76843 0.2106 0.90449 0.0
N2007 N 0.70595 0.17231 1.00114 0.0
C2008 C 0.75716 0.20547 0.93228 0.0
C2009 C 0.72507 0.18712 0.98226 0.0
N2010 N 0.79054 0.17389 0.94587 0.0
N2011 N 0.69863 0.22622 0.97694 0.0
H2012 H 0.71 0.1536 0.01099 0.0
H2013 H 0.68502 0.17634 1.00414 0.0
H2014 H 0.69333 0.24374 0.96588 0.0
H2015 H 0.6882 0.22223 0.9971 0.0
H2016 H 0.80471 0.18066 0.92912 0.0
H2017 H 0.79663 0.15799 0.95906 0.0
H2018 H 0.78163 0.19784 0.89395 0.0
H2019 H 0.76196 0.22565 0.89033 0.0
C2020 C 0.12809 0.58671 0.20497 0.0
C2021 C 0.14023 0.56165 0.2102 0.0
C2022 C 0.11955 0.53582 0.15403 0.0
C2023 C 0.10504 0.55943 0.1501 0.0
N2024 N 0.09116 0.60457 0.17278 0.0
N2025 N 0.14502 0.51074 0.19136 0.0
C2026 C 0.10787 0.58393 0.17594 0.0
C2027 C 0.13542 0.53574 0.18513 0.0
N2028 N 0.1371 0.61391 0.22714 0.0
N2029 N 0.11851 0.51384 0.12794 0.0
H2030 H 0.15695 0.51019 0.21381 0.0
H2031 H 0.13943 0.48977 0.17509 0.0
H2032 H 0.10581 0.51236 0.10525 0.0
H2033 H 0.13151 0.4982 0.12826 0.0
H2034 H 0.13189 0.63417 0.22286 0.0
H2035 H 0.15242 0.61746 0.24861 0.0
H2036 H 0.08958 0.62072 0.19209 0.0
H2037 H 0.07662 0.60387 0.1515 0.0
C2038 C 0.84956 0.85159 0.46675 0.0
C2039 C 0.83016 0.87014 0.47582 0.0
C2040 C 0.81309 0.8686 0.41798 0.0
C2041 C 0.82921 0.84694 0.40846 0.0
N2042 N 0.85855 0.81327 0.42561 0.0
N2043 N 0.78479 0.88477 0.45807 0.0
C2044 C 0.8464 0.83718 0.43337 0.0
C2045 C 0.80941 0.87526 0.45081 0.0
N2046 N 0.87157 0.84825 0.48962 0.0
N2047 N 0.80223 0.88409 0.39598 0.0
H2048 H 0.77912 0.88596 0.48122 0.0
H2049 H 0.76779 0.88677 0.44037 0.0
H2050 H 0.80713 0.88246 0.37252 0.0
H2051 H 0.79212 0.90162 0.40243 0.0
H2052 H 0.88858 0.83804 0.48402 0.0
H2053 H 0.87417 0.85779 0.51396 0.0
H2054 H 0.86856 0.80309 0.44292 0.0
H2055 H 0.85603 0.80163 0.40197 0.0
C2056 C 0.49385 0.52919 0.90458 0.0
C2057 C 0.51098 0.54814 0.88478 0.0
C2058 C 0.556 0.56369 0.92934 0.0
C2059 C 0.53782 0.54786 0.95023 0.0
N2060 N 0.48795 0.5182 0.9585 0.0
N2061 N 0.55727 0.58854 0.88215 0.0
C2062 C 0.5064 0.53113 0.93792 0.0
C2063 C 0.5419 0.56651 0.89808 0.0
N2064 N 0.46566 0.5086 0.89139 0.0
N2065 N 0.58711 0.57579 0.93929 0.0
H2066 H 0.54764 0.59288 0.86034 0.0
H2067 H 0.57837 0.60492 0.89226 0.0
H2068 H 0.59806 0.5737 0.96165 0.0
H2069 H 0.60228 0.58494 0.92425 0.0
H2070 H 0.45354 0.49176 0.90322 0.0
H2071 H 0.45552 0.50612 0.8674 0.0
H2072 H 0.46405 0.50944 0.95248 0.0
H2073 H 0.49627 0.51813 0.98253 0.0
C2074 C 0.84867 0.27209 0.15013 0.0
C2075 C 0.83362 0.23954 0.1415 0.0
C2076 C 0.81402 0.23986 0.19242 0.0
C2077 C 0.82746 0.27274 0.20053 0.0
N2078 N 0.86509 0.31859 0.19199 0.0
N2079 N 0.81624 0.19159 0.16166 0.0
C2080 C 0.8473 0.28845 0.18094 0.0
C2081 C 0.82122 0.22308 0.16515 0.0
N2082 N 0.8633 0.28726 0.1282 0.0
N2083 N 0.79279 0.2248 0.20933 0.0
H2084 H 0.82375 0.17909 0.14342 0.0
H2085 H 0.80895 0.17889 0.17943 0.0
H2086 H 0.78527 0.23636 0.22828 0.0
H2087 H 0.78022 0.20132 0.20227 0.0
H2088 H 0.87159 0.31145 0.13095 0.0
H2089 H 0.86627 0.27511 0.10657 0.0
H2090 H 0.88187 0.33049 0.18003 0.0
H2091 H 0.86487 0.33095 0.21463 0.0
C2092 C 0.20949 0.60583 0.39419 0.0
C2093 C 0.19859 0.57582 0.37496 0.0
C2094 C 0.15376 0.56416 0.40216 0.0
C2095 C 0.16006 0.59668 0.41315 0.0
N2096 N 0.19421 0.64898 0.42011 0.0
N2097 N 0.16402 0.52379 0.36489 0.0
C2098 C 0.18842 0.61768 0.41007 0.0
C2099 C 0.17214 0.55392 0.38095 0.0
N2100 N 0.23953 0.62287 0.39686 0.0
N2101 N 0.13034 0.54344 0.41192 0.0
H2102 H 0.17838 0.51577 0.35067 0.0
H2103 H 0.14315 0.50727 0.36496 0.0
H2104 H 0.11676 0.55049 0.42778 0.0
H2105 H 0.12606 0.51933 0.40664 0.0
H2106 H 0.24932 0.64405 0.41279 0.0
H2107 H 0.25525 0.61392 0.38584 0.0
H2108 H 0.21386 0.66544 0.41678 0.0
H2109 H 0.17841 0.65869 0.42998 0.0
C2110 C 0.79441 0.84948 0.65451 0.0
C2111 C 0.8222 0.87228 0.65245 0.0
C2112 C 0.83938 0.8758 0.71116 0.0
C2113 C 0.81109 0.85349 0.71358 0.0
N2114 N 0.75881 0.82564 0.68843 0.0
N2115 N 0.86794 0.91205 0.68035 0.0
C2116 C 0.78781 0.84224 0.68543 0.0
C2117 C 0.84353 0.88703 0.68135 0.0
N2118 N 0.77447 0.83407 0.6267 0.0
N2119 N 0.86334 0.88491 0.73656 0.0
H2120 H 0.87188 0.92042 0.65903 0.0
H2121 H 0.88251 0.92625 0.70092 0.0
H2122 H 0.86222 0.87712 0.75847 0.0
H2123 H 0.88553 0.89791 0.73499 0.0
H2124 H 0.75576 0.81457 0.6258 0.0
H2125 H 0.77776 0.8397 0.60407 0.0
H2126 H 0.73998 0.81926 0.66974 0.0
H2127 H 0.7528 0.82109 0.71062 0.0
C2128 C 0.76605 0.51412 0.57846 0.0
C2129 C 0.75361 0.50029 0.54561 0.0
C2130 C 0.7128 0.5256 0.54723 0.0
C2131 C 0.72783 0.54265 0.57844 0.0
N2132 N 0.76975 0.55543 0.62319 0.0
N2133 N 0.71707 0.49483 0.49736 0.0
C2134 C 0.75469 0.53747 0.59399 0.0
C2135 C 0.72726 0.50623 0.52966 0.0
N2136 N 0.78798 0.50412 0.59512 0.0
N2137 N 0.68461 0.52777 0.53454 0.0
H2138 H 0.72703 0.48052 0.48362 0.0
H2139 H 0.70025 0.50141 0.48355 0.0
H2140 H 0.67355 0.54227 0.54635 0.0
H2141 H 0.67101 0.51337 0.51355 0.0
H2142 H 0.79575 0.51107 0.61992 0.0
H2143 H 0.79628 0.48645 0.5848 0.0
H2144 H 0.79145 0.55533 0.63397 0.0
H2145 H 0.7615 0.57214 0.63572 0.0
C2146 C 0.20294 0.15517 0.55187 0.0
C2147 C 0.20139 0.17138 0.52536 0.0
C2148 C 0.14763 0.13873 0.50642 0.0
C2149 C 0.14968 0.12163 0.53201 0.0
N2150 N 0.1812 0.10957 0.57521 0.0
N2151 N 0.17452 0.17359 0.47357 0.0
C2152 C 0.17807 0.12847 0.5533 0.0
C2153 C 0.17437 0.16161 0.50147 0.0
N2154 N 0.22722 0.16645 0.57694 0.0
N2155 N 0.11982 0.13379 0.48732 0.0
H2156 H 0.19375 0.18998 0.46899 0.0
H2157 H 0.15679 0.1652 0.45372 0.0
H2158 H 0.09984 0.11742 0.49023 0.0
H2159 H 0.11591 0.1475 0.4704 0.0
H2160 H 0.22788 0.15798 0.59856 0.0
H2161 H 0.24556 0.18624 0.57766 0.0
H2162 H 0.20221 0.11116 0.58908 0.0
H2163 H 0.16327 0.09041 0.57743 0.0
C2164 C 0.17975 0.9932 0.76854 0.0
C2165 C 0.18007 1.00663 0.80094 0.0
C2166 C 0.21391 0.97658 0.82041 0.0
C2167 C 0.21709 0.96665 0.78803 0.0
N2168 N 0.20329 0.96506 0.73091 0.0
N2169 N 0.1971 0.0116 0.85804 0.0
C2170 C 0.19973 0.97451 0.76193 0.0
C2171 C 0.19674 0.9981 0.82698 0.0
N2172 N 0.16013 0.99827 0.74421 0.0
N2173 N 0.22703 0.96503 0.84483 0.0
H2174 H 0.18341 0.02594 0.8638 0.0
H2175 H 0.2118 1.00977 0.87799 0.0
H2176 H 0.24009 0.94965 0.84091 0.0
H2177 H 0.22313 0.96865 0.86856 0.0
H2178 H 0.15647 0.98715 0.72023 0.0
H2179 H 0.1454 0.01185 0.74859 0.0
H2180 H 0.19395 0.97249 0.7109 0.0
H2181 H 0.21709 0.9508 0.72522 0.0
C2182 C 0.42122 0.98694 0.05814 0.0
C2183 C 0.40545 0.96902 0.02767 0.0
C2184 C 0.44592 0.99689 1.00066 0.0
C2185 C 0.46151 0.01487 0.03117 0.0
N2186 N 0.46124 0.03314 0.0872 0.0
N2187 N 0.39904 0.95992 0.96938 0.0
C2188 C 0.44823 0.01177 0.05944 0.0
C2189 C 0.41665 0.97493 0.99868 0.0
N2190 N 0.41037 0.97996 0.08573 0.0
N2191 N 0.45961 1.00009 0.9739 0.0
H2192 H 0.37804 0.94271 0.96707 0.0
H2193 H 0.40425 0.96568 0.94736 0.0
H2194 H 0.48014 0.01734 0.97419 0.0
H2195 H 0.45142 0.98495 0.95177 0.0
H2196 H 0.42149 0.99105 0.10896 0.0
H2197 H 0.3909 0.96144 0.08558 0.0
H2198 H 0.45155 0.03393 0.10815 0.0
H2199 H 0.48042 0.05222 0.08819 0.0
C2200 C 0.86633 0.63043 0.82689 0.0
C2201 C 0.89128 0.62991 0.81031 0.0
C2202 C 0.87041 0.65587 0.76982 0.0
C2203 C 0.84337 0.65188 0.7841 0.0
N2204 N 0.81271 0.6283 0.82153 0.0
N2205 N 0.91563 0.63884 0.76364 0.0
C2206 C 0.84043 0.63685 0.81114 0.0
C2207 C 0.89311 0.64183 0.78111 0.0
N2208 N 0.86774 0.62552 0.85809 0.0
N2209 N 0.87491 0.67379 0.74642 0.0
H2210 H 0.93296 0.62935 0.77154 0.0
H2211 H 0.91595 0.64393 0.74043 0.0
H2212 H 0.85899 0.68469 0.73781 0.0
H2213 H 0.89543 0.67977 0.73728 0.0
H2214 H 0.85113 0.62826 0.87211 0.0
H2215 H 0.88724 0.62231 0.87107 0.0
H2216 H 0.80885 0.61487 0.83953 0.0
H2217 H 0.79279 0.63177 0.80977 0.0
C2218 C 0.89144 0.70168 0.07946 0.0
C2219 C 0.86827 0.69185 0.05142 0.0
C2220 C 0.88451 0.64497 0.03677 0.0
C2221 C 0.90859 0.65529 0.06399 0.0
N2222 N 0.93884 0.69632 0.10775 0.0
N2223 N 0.84812 0.65874 0.99925 0.0
C2224 C 0.91325 0.68458 0.0843 0.0
C2225 C 0.86653 0.6649 0.02882 0.0
N2226 N 0.89181 0.72649 0.1021 0.0
N2227 N 0.87778 0.61547 0.0193 0.0
H2228 H 0.83516 0.67321 0.99231 0.0
H2229 H 0.84822 0.64129 0.98046 0.0
H2230 H 0.89001 0.59987 0.02445 0.0
H2231 H 0.85831 0.60541 1.00153 0.0
H2232 H 0.90579 0.7327 0.12476 0.0
H2233 H 0.87663 0.73978 0.09898 0.0
H2234 H 0.94526 0.71882 0.12126 0.0
H2235 H 0.95514 0.68442 0.1119 0.0
C2236 C 0.21715 0.17622 0.79856 0.0
C2237 C 0.20476 0.17695 0.8279 0.0
C2238 C 0.24498 0.22676 0.85071 0.0
C2239 C 0.25497 0.22772 0.82028 0.0
N2240 N 0.24839 0.20499 0.76403 0.0
N2241 N 0.20569 0.20401 0.88136 0.0
C2242 C 0.24072 0.20269 0.794 0.0
C2243 C 0.21834 0.20261 0.8538 0.0
N2244 N 0.20627 0.15031 0.77473 0.0
N2245 N 0.26183 0.24839 0.87701 0.0
H2246 H 0.18758 0.18595 0.88536 0.0
H2247 H 0.21192 0.22371 0.89949 0.0
H2248 H 0.28205 0.26538 0.87567 0.0
H2249 H 0.25767 0.24777 0.90055 0.0
H2250 H 0.21693 0.14666 0.75481 0.0
H2251 H 0.18764 0.13134 0.77561 0.0
H2252 H 0.23607 0.18979 0.74291 0.0
H2253 H 0.26587 0.22348 0.75974 0.0
C2254 C 0.41322 0.95907 0.36847 0.0
C2255 C 0.4073 0.98129 0.34994 0.0
C2256 C 0.35646 0.9449 0.32591 0.0
C2257 C 0.36464 0.92145 0.34039 0.0
N2258 N 0.40256 0.90441 0.37194 0.0
N2259 N 0.3745 0.99249 0.30588 0.0
C2260 C 0.39348 0.92799 0.3608 0.0
C2261 C 0.37919 0.97357 0.32733 0.0
N2262 N 0.43683 0.96782 0.39421 0.0
N2263 N 0.32669 0.94012 0.31151 0.0
H2264 H 0.39021 0.01352 0.30454 0.0
H2265 H 0.35604 0.98564 0.28672 0.0
H2266 H 0.30922 0.91954 0.31082 0.0
H2267 H 0.31868 0.95771 0.3035 0.0
H2268 H 0.44012 0.9532 0.4104 0.0
H2269 H 0.45113 0.99064 0.40151 0.0
H2270 H 0.42472 0.90741 0.38406 0.0
H2271 H 0.38887 0.88124 0.36661 0.0
C2272 C 0.58758 0.42512 0.5742 0.0
C2273 C 0.60531 0.42645 0.6054 0.0
C2274 C 0.60713 0.48414 0.61518 0.0
C2275 C 0.59236 0.48361 0.58284 0.0
N2276 N 0.57542 0.45164 0.52979 0.0
N2277 N 0.63826 0.46256 0.65155 0.0
C2278 C 0.58457 0.45345 0.56207 0.0
C2279 C 0.61672 0.45755 0.6245 0.0
N2280 N 0.5719 0.39654 0.55612 0.0
N2281 N 0.61075 0.50962 0.63836 0.0
H2282 H 0.647 0.44506 0.65864 0.0
H2283 H 0.65013 0.48477 0.66463 0.0
H2284 H 0.60307 0.52852 0.63389 0.0
H2285 H 0.61801 0.51035 0.66284 0.0
H2286 H 0.55593 0.39352 0.53525 0.0
H2287 H 0.57221 0.37572 0.56371 0.0
H2288 H 0.57259 0.43174 0.51268 0.0
H2289 H 0.5742 0.47109 0.5197 0.0
C2290 C 0.41297 0.78006 0.41242 0.0
C2291 C 0.4288 0.80452 0.43915 0.0
C2292 C 0.39221 0.83384 0.42135 0.0
C2293 C 0.37834 0.81077 0.39293 0.0
N2294 N 0.37805 0.76257 0.36048 0.0
N2295 N 0.43628 0.85771 0.4646 0.0
C2296 C 0.38964 0.78418 0.38826 0.0
C2297 C 0.41889 0.83206 0.44247 0.0
N2298 N 0.4191 0.75204 0.41085 0.0
N2299 N 0.38003 0.8579 0.42838 0.0
H2300 H 0.45627 0.85812 0.47965 0.0
H2301 H 0.43282 0.87962 0.46584 0.0
H2302 H 0.36195 0.86123 0.41316 0.0
H2303 H 0.38625 0.87325 0.45047 0.0
H2304 H 0.40635 0.73202 0.39441 0.0
H2305 H 0.43531 0.748 0.42798 0.0
H2306 H 0.38758 0.74483 0.35325 0.0
H2307 H 0.35979 0.76339 0.34359 0.0
C2308 C 0.1266 0.72968 0.10748 0.0
C2309 C 0.10298 0.74438 0.10063 0.0
C2310 C 0.06678 0.69012 0.07925 0.0
C2311 C 0.09092 0.67551 0.08405 0.0
N2312 N 0.14503 0.68351 0.10156 0.0
N2313 N 0.05064 0.73734 0.0767 0.0
C2314 C 0.12113 0.69608 0.09768 0.0
C2315 C 0.07305 0.72406 0.08597 0.0
N2316 N 0.15427 0.74782 0.12522 0.0
N2317 N 0.03739 0.67147 0.06768 0.0
H2318 H 0.05402 0.76137 0.08149 0.0
H2319 H 0.02945 0.72508 0.06244 0.0
H2320 H 0.03219 0.6477 0.05877 0.0
H2321 H 1.01795 0.67916 0.068 0.0
H2322 H 0.17162 0.73905 0.13459 0.0
H2323 H 0.15895 0.77175 0.13324 0.0
H2324 H 0.1681 0.69671 0.1069 0.0
H2325 H 0.14195 0.65955 0.09779 0.0
C2326 C 0.10138 0.2909 0.91163 0.0
C2327 C 0.10343 0.31489 0.93812 0.0
C2328 C 0.15328 0.34419 0.92505 0.0
C2329 C 0.14758 0.32318 0.89522 0.0
N2330 N 0.11338 0.27813 0.85828 0.0
N2331 N 0.13247 0.36608 0.96927 0.0
C2332 C 0.12091 0.29688 0.88807 0.0
C2333 C 0.12986 0.34189 0.94489 0.0
N2334 N 0.08157 0.26177 0.90964 0.0
N2335 N 0.18156 0.36579 0.93507 0.0
H2336 H 0.11793 0.36527 0.98625 0.0
H2337 H 0.14859 0.38791 0.97177 0.0
H2338 H 0.19935 0.36788 0.92152 0.0
H2339 H 0.18841 0.37945 0.95813 0.0
H2340 H 0.08101 0.24269 0.89242 0.0
H2341 H 0.06863 0.25578 0.92768 0.0
H2342 H 0.09249 0.2606 0.85072 0.0
H2343 H 0.12655 0.28198 0.84001 0.0
C2344 C 0.59211 0.78005 0.94675 0.0
C2345 C 0.5678 0.78065 0.92275 0.0
C2346 C 0.53514 0.73191 0.9345 0.0
C2347 C 0.55909 0.73172 0.95923 0.0
N2348 N 0.61279 0.75076 0.98319 0.0
N2349 N 0.52011 0.75318 0.88747 0.0
C2350 C 0.58845 0.75423 0.9634 0.0
C2351 C 0.54066 0.75506 0.91448 0.0
N2352 N 0.61811 0.80498 0.95466 0.0
N2353 N 0.50654 0.71113 0.93139 0.0
H2354 H 0.52426 0.76968 0.87237 0.0
H2355 H 0.50095 0.73393 0.87831 0.0
H2356 H 0.5016 0.69355 0.94514 0.0
H2357 H 0.48716 0.7128 0.91694 0.0
H2358 H 0.63523 0.80804 0.97448 0.0
H2359 H 0.62185 0.82345 0.94192 0.0
H2360 H 0.63542 0.76465 0.98514 0.0
H2361 H 0.61072 0.73215 0.99565 0.0
C2362 C 0.15309 0.75953 0.73545 0.0
C2363 C 0.13763 0.78093 0.74846 0.0
C2364 C 0.18745 0.80771 0.78685 0.0
C2365 C 0.20412 0.78931 0.77048 0.0
N2366 N 0.20116 0.74931 0.72528 0.0
N2367 N 0.14288 0.82797 0.7855 0.0
C2368 C 0.18627 0.7654 0.74399 0.0
C2369 C 0.15568 0.80562 0.774 0.0
N2370 N 0.13573 0.73297 0.71466 0.0
N2371 N 0.20152 0.82631 0.8159 0.0
H2372 H 0.11985 0.82644 0.77783 0.0
H2373 H 0.15552 0.8487 0.80099 0.0
H2374 H 0.22316 0.82634 0.82704 0.0
H2375 H 0.19042 0.83851 0.83058 0.0
H2376 H 0.14427 0.71466 0.70667 0.0
H2377 H 0.1119 0.72791 0.70811 0.0
H2378 H 0.19044 0.73428 0.70353 0.0
H2379 H 0.22492 0.75313 0.7298 0.0
C2380 C 0.10023 0.44988 0.45646 0.0
C2381 C 0.0863 0.44252 0.42305 0.0
C2382 C 0.06012 0.48368 0.43488 0.0
C2383 C 0.07422 0.49115 0.46823 0.0
N2384 N 0.11408 0.48591 0.508 0.0
N2385 N 0.05949 0.45929 0.37962 0.0
C2386 C 0.09599 0.4754 0.47815 0.0
C2387 C 0.06846 0.46171 0.41204 0.0
N2388 N 0.11808 0.43252 0.46774 0.0
N2389 N 0.0371 0.496 0.42513 0.0
H2390 H 0.06447 0.4435 0.36234 0.0
H2391 H 0.04958 0.47484 0.36973 0.0
H2392 H 0.0298 0.51139 0.4407 0.0
H2393 H 0.02327 0.48878 0.40238 0.0
H2394 H 0.12468 0.43279 0.49223 0.0
H2395 H 0.12563 0.41702 0.45255 0.0
H2396 H 0.13284 0.47827 0.51557 0.0
H2397 H 0.11241 0.50462 0.52429 0.0
C2398 C 0.43913 0.30152 0.24144 0.0
C2399 C 0.45321 0.27918 0.25288 0.0
C2400 C 0.41092 0.26975 0.2879 0.0
C2401 C 0.39556 0.2901 0.27414 0.0
N2402 N 0.39332 0.31908 0.23106 0.0
N2403 N 0.44833 0.23957 0.2859 0.0
C2404 C 0.40942 0.30413 0.24913 0.0
C2405 C 0.43786 0.26283 0.27597 0.0
N2406 N 0.45502 0.32217 0.22447 0.0
N2407 N 0.40013 0.25735 0.31327 0.0
H2408 H 0.46693 0.23367 0.27773 0.0
H2409 H 0.43741 0.22457 0.3002 0.0
H2410 H 0.38088 0.26132 0.32185 0.0
H2411 H 0.41126 0.24513 0.32719 0.0
H2412 H 0.44807 0.34105 0.21843 0.0
H2413 H 0.47703 0.32293 0.21988 0.0
H2414 H 0.39981 0.32688 0.21022 0.0
H2415 H 0.37157 0.32039 0.23477 0.0
C2416 C 0.62282 0.55067 0.41701 0.0
C2417 C 0.62786 0.57923 0.40481 0.0
C2418 C 0.60912 0.60154 0.45285 0.0
C2419 C 0.60613 0.57369 0.46619 0.0
N2420 N 0.61553 0.52368 0.46277 0.0
N2421 N 0.62969 0.63333 0.41403 0.0
C2422 C 0.61437 0.54878 0.44861 0.0
C2423 C 0.62194 0.60498 0.42356 0.0
N2424 N 0.62502 0.52474 0.39782 0.0
N2425 N 0.59859 0.62452 0.46752 0.0
H2426 H 0.63851 0.63661 0.39279 0.0
H2427 H 0.62971 0.65404 0.42824 0.0
H2428 H 0.58972 0.62343 0.48896 0.0
H2429 H 0.59636 0.64356 0.45724 0.0
H2430 H 0.61838 0.50243 0.40335 0.0
H2431 H 0.63091 0.525 0.37483 0.0
H2432 H 0.62472 0.50638 0.45331 0.0
H2433 H 0.60989 0.52156 0.48565 0.0
C2434 C 0.34469 0.94765 0.13649 0.0
C2435 C 0.31647 0.92839 0.11797 0.0
C2436 C 0.31124 0.89377 0.15741 0.0
C2437 C 0.34316 0.90772 0.16989 0.0
N2438 N 0.38999 0.94975 0.174 0.0
N2439 N 0.26817 0.89021 0.11535 0.0
C2440 C 0.35965 0.93581 0.16096 0.0
C2441 C 0.2979 0.90407 0.13056 0.0
N2442 N 0.35707 0.97679 0.13024 0.0
N2443 N 0.29449 0.86999 0.17042 0.0
H2444 H 0.25864 0.89871 0.09611 0.0
H2445 H 0.25293 0.87127 0.12175 0.0
H2446 H 0.30363 0.86289 0.19086 0.0
H2447 H 0.27139 0.85796 0.16204 0.0
H2448 H 0.37668 0.99289 0.1444 0.0
H2449 H 0.34562 0.98587 0.11292 0.0
H2450 H 0.40405 0.96827 0.1657 0.0
H2451 H 0.40162 0.94162 0.19204 0.0
C2452 C 1.01956 0.61307 0.92681 0.0
C2453 C 0.98772 0.59589 0.91976 0.0
C2454 C 0.99536 0.5663 0.96264 0.0
C2455 C 0.02648 0.58495 0.97116 0.0
N2456 N 0.06766 0.62879 0.96495 0.0
N2457 N 0.94404 0.56034 0.9354 0.0
C2458 C 0.03855 0.60903 0.95416 0.0
C2459 C 0.97516 0.57391 0.9391 0.0
N2460 N 0.03162 0.63324 0.90729 0.0
N2461 N 0.9854 0.54051 0.97638 0.0
H2462 H 0.92796 0.5639 0.91794 0.0
H2463 H 0.93369 0.54735 0.95164 0.0
H2464 H 0.99987 0.53373 0.9931 0.0
H2465 H 0.96384 0.52409 0.96898 0.0
H2466 H 0.05517 0.64341 0.90854 0.0
H2467 H 1.01803 0.63893 0.88879 0.0
H2468 H 0.0766 0.64907 0.95603 0.0
H2469 H 0.08238 0.62588 0.98436 0.0
C2470 C 0.32362 0.28567 0.64751 0.0
C2471 C 0.29476 0.26718 0.62893 0.0
C2472 C 0.27237 0.26702 0.67949 0.0
C2473 C 0.30036 0.28825 0.69753 0.0
N2474 N 0.35116 0.32188 0.69683 0.0
N2475 N 0.24039 0.24331 0.62702 0.0
C2476 C 0.32565 0.2985 0.681 0.0
C2477 C 0.26879 0.2589 0.64491 0.0
N2478 N 0.34927 0.29111 0.63315 0.0
N2479 N 0.24967 0.25308 0.69545 0.0
H2480 H 0.23689 0.23534 0.60214 0.0
H2481 H 0.22001 0.24006 0.63646 0.0
H2482 H 0.25141 0.25771 0.72051 0.0
H2483 H 0.23034 0.23473 0.68422 0.0
H2484 H 0.37156 0.30123 0.64598 0.0
H2485 H 0.34851 0.28317 0.60865 0.0
H2486 H 0.36905 0.33271 0.68552 0.0
H2487 H 0.35313 0.33274 0.72068 0.0
C2488 C 0.5954 0.55817 0.20655 0.0
C2489 C 0.61027 0.58799 0.22627 0.0
C2490 C 0.60601 0.61205 0.17699 0.0
C2491 C 0.58915 0.5825 0.15783 0.0
N2492 N 0.56337 0.52818 0.15592 0.0
N2493 N 0.62744 0.64397 0.23032 0.0
C2494 C 0.58287 0.55578 0.17309 0.0
C2495 C 0.61474 0.61508 0.21143 0.0
N2496 N 0.59302 0.53193 0.21979 0.0
N2497 N 0.61501 0.63711 0.16201 0.0
H2498 H 0.63648 0.64737 0.25482 0.0
H2499 H 0.62768 0.66469 0.22219 0.0
H2500 H 0.60869 0.63594 0.13725 0.0
H2501 H 0.63049 0.65844 0.17351 0.0
H2502 H 0.58625 0.50946 0.20617 0.0
H2503 H 0.59985 0.5326 0.24435 0.0
H2504 H 0.55514 0.50843 0.16594 0.0
H2505 H 0.55285 0.52593 0.13213 0.0
C2506 C 0.31101 0.87117 0.94167 0.0
C2507 C 0.29357 0.89282 0.94307 0.0
C2508 C 0.27577 0.87656 0.88475 0.0
C2509 C 0.29076 0.85282 0.88455 0.0
N2510 N 0.31663 0.82296 0.91486 0.0
N2511 N 0.25244 0.90951 0.91669 0.0
C2512 C 0.30561 0.84807 0.91383 0.0
C2513 C 0.27375 0.89352 0.91483 0.0
N2514 N 0.33576 0.87529 0.96488 0.0
N2515 N 0.26423 0.88363 0.85638 0.0
H2516 H 0.24913 0.92084 0.93854 0.0
H2517 H 0.23579 0.90849 0.89708 0.0
H2518 H 0.26478 0.87158 0.83374 0.0
H2519 H 0.25617 0.90297 0.85538 0.0
H2520 H 0.35079 0.86163 0.96408 0.0
H2521 H 0.34429 0.89602 0.98108 0.0
H2522 H 0.32508 0.81741 0.93657 0.0
H2523 H 0.31499 0.80626 0.89464 0.0
C2524 C 0.95928 0.55158 0.72963 0.0
C2525 C 0.95135 0.53161 0.75216 0.0
C2526 C 0.95139 0.48631 0.71337 0.0
C2527 C 0.96301 0.50687 0.69266 0.0
N2528 N 0.96809 0.55597 0.67487 0.0
N2529 N 0.93093 0.47976 0.76299 0.0
C2530 C 0.96314 0.53847 0.69858 0.0
C2531 C 0.94408 0.49873 0.74296 0.0
N2532 N 0.96563 0.58314 0.73884 0.0
N2533 N 0.94905 0.45535 0.7053 0.0
H2534 H 0.92621 0.48857 0.78524 0.0
H2535 H 0.92275 0.45554 0.75683 0.0
H2536 H 0.95292 0.44581 0.68286 0.0
H2537 H 0.94376 0.43928 0.7206 0.0
H2538 H 0.97501 0.59932 0.72487 0.0
H2539 H 0.96291 0.59342 0.76145 0.0
H2540 H 0.96618 0.57852 0.67664 0.0
H2541 H 0.97141 0.54683 0.65205 0.0
C2542 C 0.28236 0.27078 0.43886 0.0
C2543 C 0.30131 0.25275 0.45023 0.0
C2544 C 0.32522 0.25704 0.40053 0.0
C2545 C 0.30863 0.27766 0.39103 0.0
N2546 N 0.27408 0.30749 0.40418 0.0
N2547 N 0.3466 0.23598 0.44453 0.0
C2548 C 0.28817 0.28563 0.41127 0.0
C2549 C 0.32425 0.24777 0.43166 0.0
N2550 N 0.25753 0.27232 0.45319 0.0
N2551 N 0.34187 0.24593 0.37968 0.0
H2552 H 0.34851 0.23116 0.4679 0.0
H2553 H 0.36548 0.23458 0.43358 0.0
H2554 H 0.34372 0.25269 0.35728 0.0
H2555 H 0.35154 0.22807 0.3834 0.0
H2556 H 0.24087 0.28212 0.4441 0.0
H2557 H 0.25177 0.26096 0.47232 0.0
H2558 H 0.26161 0.31695 0.41964 0.0
H2559 H 0.27685 0.31801 0.3839 0.0
C2560 C 0.37061 0.63061 0.51718 0.0
C2561 C 0.36171 0.63437 0.54815 0.0
C2562 C 0.38433 0.59399 0.56269 0.0
C2563 C 0.39612 0.59279 0.53326 0.0
N2564 N 0.40664 0.6154 0.48593 0.0
N2565 N 0.36625 0.62481 0.60294 0.0
C2566 C 0.39114 0.61274 0.51149 0.0
C2567 C 0.3704 0.61756 0.5717 0.0
N2568 N 0.35817 0.64231 0.49249 0.0
N2569 N 0.38576 0.57214 0.58162 0.0
H2570 H 0.35722 0.64287 0.61071 0.0
H2571 H 0.37478 0.61523 0.62174 0.0
H2572 H 0.39524 0.55406 0.5754 0.0
H2573 H 0.37486 0.57015 0.60176 0.0
H2574 H 0.36159 0.63719 0.46871 0.0
H2575 H 0.34193 0.65436 0.49474 0.0
H2576 H 0.40628 0.63221 0.47149 0.0
H2577 H 0.42213 0.60291 0.48096 0.0
C2578 C 0.92994 0.9682 0.53936 0.0
C2579 C 0.92654 0.95621 0.56842 0.0
C2580 C 0.97484 0.99593 0.59589 0.0
C2581 C 0.97813 1.00797 0.56676 0.0
N2582 N 0.9546 1.01061 0.51342 0.0
N2583 N 0.94299 0.96091 0.62551 0.0
C2584 C 0.9543 0.99573 0.53938 0.0
C2585 C 0.94824 0.97078 0.59708 0.0
N2586 N 0.91062 0.95241 0.51122 0.0
N2587 N 0.99719 1.00891 0.6225 0.0
H2588 H 0.92414 0.94228 0.6269 0.0
H2589 H 0.95614 0.97199 0.64799 0.0
H2590 H 1.01467 0.02954 0.62344 0.0
H2591 H 0.99881 0.99933 0.64336 0.0
H2592 H 0.91405 0.95759 0.48852 0.0
H2593 H 0.89254 0.93225 0.5101 0.0
H2594 H 0.93621 1.00498 0.49435 0.0
H2595 H 0.97202 0.0305 0.51213 0.0
C2596 C 0.94072 0.14697 0.29364 0.0
C2597 C 0.93237 0.11842 0.30537 0.0
C2598 C 0.88551 0.12973 0.31969 0.0
C2599 C 0.8948 0.15926 0.3102 0.0
N2600 N 0.93421 0.19858 0.29377 0.0
N2601 N 0.9016 0.08771 0.33846 0.0
C2602 C 0.92334 0.16868 0.29883 0.0
C2603 C 0.90617 0.11132 0.32101 0.0
N2604 N 0.96433 0.15284 0.27638 0.0
N2605 N 0.85642 0.11854 0.32628 0.0
H2606 H 0.91695 0.07461 0.34159 0.0
H2607 H 0.88462 0.08356 0.35296 0.0
H2608 H 0.84021 0.13087 0.325 0.0
H2609 H 0.84736 0.09573 0.32984 0.0
H2610 H 0.96938 0.17157 0.26418 0.0
H2611 H 0.97747 0.1376 0.27222 0.0
H2612 H 0.95623 0.20789 0.28873 0.0
H2613 H 0.92216 0.21495 0.29738 0.0
C2614 C 0.67875 0.17354 0.08096 0.0
C2615 C 0.7049 0.16273 0.0857 0.0
C2616 C 0.67219 0.10964 0.08278 0.0
C2617 C 0.64638 0.11923 0.07139 0.0
N2618 N 0.62382 0.16056 0.0626 0.0
N2619 N 0.72516 0.12616 0.11047 0.0
C2620 C 0.64921 0.15135 0.07164 0.0
C2621 C 0.70123 0.13243 0.09277 0.0
N2622 N 0.68214 0.20476 0.08801 0.0
N2623 N 0.66937 0.0787 0.08217 0.0
H2624 H 0.74562 0.14366 0.12058 0.0
H2625 H 0.72331 0.10513 0.11854 0.0
H2626 H 0.64848 0.06115 0.07454 0.0
H2627 H 0.68817 0.07021 0.08681 0.0
H2628 H 0.6638 0.21428 0.0872 0.0
H2629 H 0.70321 0.22084 0.09906 0.0
H2630 H 0.62494 0.18284 0.0581 0.0
H2631 H 0.60149 0.14546 0.05825 0.0
C2632 C 0.25818 0.49372 0.25813 0.0
C2633 C 0.26626 0.52542 0.27347 0.0
C2634 C 0.31715 0.52246 0.29615 0.0
C2635 C 0.3065 0.48974 0.28673 0.0
N2636 N 0.26692 0.44327 0.25863 0.0
N2637 N 0.30286 0.56907 0.31141 0.0
C2638 C 0.27718 0.47506 0.26717 0.0
C2639 C 0.29585 0.53989 0.29309 0.0
N2640 N 0.23243 0.48165 0.23491 0.0
N2641 N 0.34754 0.53676 0.30875 0.0
H2642 H 0.28797 0.58276 0.31208 0.0
H2643 H 0.32269 0.57869 0.32881 0.0
H2644 H 0.36357 0.52431 0.31149 0.0
H2645 H 0.35731 0.56091 0.31317 0.0
H2646 H 0.22666 0.45946 0.22083 0.0
H2647 H 0.21844 0.49508 0.22758 0.0
H2648 H 0.24442 0.431 0.24758 0.0
H2649 H 0.28048 0.42893 0.26425 0.0
C2650 C 0.25128 0.45661 0.07941 0.0
C2651 C 0.26026 0.44239 0.0516 0.0
C2652 C 0.22995 0.46686 0.01696 0.0
C2653 C 0.22124 0.48127 0.04481 0.0
N2654 N 0.21859 0.48573 0.10159 0.0
N2655 N 0.25494 0.43021 0.99351 0.0
C2656 C 0.23038 0.47481 0.07577 0.0
C2657 C 0.24832 0.44613 0.02023 0.0
N2658 N 0.26332 0.45315 0.1094 0.0
N2659 N 0.22173 0.47418 0.98751 0.0
H2660 H 0.27015 0.41685 0.99484 0.0
H2661 H 0.24415 0.42865 0.96997 0.0
H2662 H 0.20755 0.48841 0.98402 0.0
H2663 H 0.23015 0.46769 0.96674 0.0
H2664 H 0.26101 0.46578 0.13095 0.0
H2665 H 0.27686 0.43828 0.11282 0.0
H2666 H 0.22166 0.4795 0.12423 0.0
H2667 H 0.20371 0.4995 0.09982 0.0
C2668 C 0.90373 0.94013 0.26682 0.0
C2669 C 0.92752 0.95241 0.2944 0.0
C2670 C 0.89715 0.91563 0.32456 0.0
C2671 C 0.87479 0.90164 0.29634 0.0
N2672 N 0.85837 0.89786 0.23938 0.0
N2673 N 0.94933 0.94688 0.34756 0.0
C2674 C 0.87851 0.9132 0.26711 0.0
C2675 C 0.92496 0.93867 0.32265 0.0
N2676 N 0.90538 0.95399 0.24015 0.0
N2677 N 0.89161 0.90726 0.35355 0.0
H2678 H 0.96993 0.96399 0.34802 0.0
H2679 H 0.95013 0.93496 0.36683 0.0
H2680 H 0.87161 0.89057 0.35594 0.0
H2681 H 0.90527 0.91899 0.37565 0.0
H2682 H 0.88725 0.94879 0.22086 0.0
H2683 H 0.92452 0.97186 0.23786 0.0
H2684 H 0.86163 0.90252 0.21647 0.0
H2685 H 0.83906 0.87907 0.23908 0.0
C2686 C 0.73878 0.19519 0.7584 0.0
C2687 C 0.74443 0.17661 0.7814 0.0
C2688 C 0.78955 0.21841 0.81022 0.0
C2689 C 0.78296 0.23772 0.78848 0.0
N2690 N 0.75652 0.24333 0.73783 0.0
N2691 N 0.78152 0.16631 0.82138 0.0
C2692 C 0.75948 0.22553 0.76089 0.0
C2693 C 0.77208 0.18667 0.8045 0.0
N2694 N 0.71317 0.18397 0.73489 0.0
N2695 N 0.81124 0.23092 0.83753 0.0
H2696 H 0.7699 0.14271 0.81814 0.0
H2697 H 0.80297 0.17203 0.8361 0.0
H2698 H 0.82452 0.2542 0.84264 0.0
H2699 H 0.81462 0.21898 0.85631 0.0
H2700 H 0.70552 0.19731 0.71946 0.0
H2701 H 0.69896 0.161 0.73131 0.0
H2702 H 0.7413 0.23524 0.716 0.0
H2703 H 0.77106 0.26583 0.73953 0.0
loop_
_geom_bond_atom_site_label_1
_geom_bond_atom_site_label_2
_geom_bond_distance
_geom_bond_site_symmetry_2
_ccdc_geom_bond_type
Co0 O1 2.216 . S
Co0 O2 2.091 . S
Co0 O4 2.004 . S
Co0 O10 2.021 . S
Co0 O12 2.137 . S
Co0 O13 2.244 . S
O1 Co0 2.216 . S
O1 C8 1.247 . S
O2 Co0 2.091 . S
O2 C8 1.261 . S
C3 O12 1.247 . S
C3 O13 1.272 . S
O4 Co0 2.004 . S
O4 C9 1.259 1_455 S
Co5 O6 2.061 1_455 S
Co5 O11 2.052 . S
Co5 O13 2.135 . S
O6 Co5 2.061 1_655 S
O6 C9 1.235 . S
C7 O10 1.238 . S
C7 O11 1.241 . S
C8 O1 1.247 . S
C8 O2 1.261 . S
C9 O4 1.259 1_655 S
C9 O6 1.235 . S
O10 Co0 2.021 . S
O10 C7 1.238 . S
O11 Co5 2.052 . S
O11 C7 1.241 . S
O12 Co0 2.137 . S
O12 C3 1.247 . S
O13 Co0 2.244 . S
O13 C3 1.272 . S
O13 Co5 2.135 . S
Co14 O15 2.216 1_455 S
Co14 O16 2.091 . S
Co14 O18 2.004 . S
Co14 O24 2.021 . S
Co14 O26 2.137 . S
Co14 O27 2.244 . S
O15 Co14 2.216 1_655 S
O15 C22 1.247 . S
O16 Co14 2.091 . S
O16 C22 1.261 1_455 S
C17 O26 1.247 . S
C17 O27 1.272 . S
O18 Co14 2.004 . S
O18 C23 1.259 . S
Co19 O20 2.061 . S
Co19 O25 2.052 . S
Co19 O27 2.135 . S
O20 Co19 2.061 . S
O20 C23 1.235 . S
C21 O24 1.238 . S
C21 O25 1.241 . S
C22 O15 1.247 . S
C22 O16 1.261 1_655 S
C23 O18 1.259 . S
C23 O20 1.235 . S
O24 Co14 2.021 . S
O24 C21 1.238 . S
O25 Co19 2.052 . S
O25 C21 1.241 . S
O26 Co14 2.137 . S
O26 C17 1.247 . S
O27 Co14 2.244 . S
O27 C17 1.272 . S
O27 Co19 2.135 . S
Co28 O29 2.216 . S
Co28 O30 2.091 . S
Co28 O32 2.004 . S
Co28 O38 2.021 . S
Co28 O40 2.137 . S
Co28 O41 2.244 . S
O29 Co28 2.216 . S
O29 C36 1.247 . S
O30 Co28 2.091 . S
O30 C36 1.261 . S
C31 O40 1.247 . S
C31 O41 1.272 . S
O32 Co28 2.004 . S
O32 C37 1.259 . S
Co33 O34 2.061 . S
Co33 O39 2.052 . S
Co33 O41 2.135 . S
O34 Co33 2.061 . S
O34 C37 1.235 . S
C35 O38 1.238 . S
C35 O39 1.241 . S
C36 O29 1.247 . S
C36 O30 1.261 . S
C37 O32 1.259 . S
C37 O34 1.235 . S
O38 Co28 2.021 . S
O38 C35 1.238 . S
O39 Co33 2.052 . S
O39 C35 1.241 . S
O40 Co28 2.137 . S
O40 C31 1.247 . S
O41 Co28 2.244 . S
O41 C31 1.272 . S
O41 Co33 2.135 . S
Co42 O43 2.216 . S
Co42 O44 2.091 . S
Co42 O46 2.004 . S
Co42 O52 2.021 . S
Co42 O54 2.137 . S
Co42 O55 2.244 . S
O43 Co42 2.216 . S
O43 C50 1.247 . S
O44 Co42 2.091 . S
O44 C50 1.261 . S
C45 O54 1.247 . S
C45 O55 1.272 . S
O46 Co42 2.004 . S
O46 C51 1.259 . S
Co47 O48 2.061 . S
Co47 O53 2.052 . S
Co47 O55 2.135 . S
O48 Co47 2.061 . S
O48 C51 1.235 . S
C49 O52 1.238 . S
C49 O53 1.241 . S
C50 O43 1.247 . S
C50 O44 1.261 . S
C51 O46 1.259 . S
C51 O48 1.235 . S
O52 Co42 2.021 . S
O52 C49 1.238 . S
O53 Co47 2.052 . S
O53 C49 1.241 . S
O54 Co42 2.137 . S
O54 C45 1.247 . S
O55 Co42 2.244 . S
O55 C45 1.272 . S
O55 Co47 2.135 . S
Co56 O57 2.216 . S
Co56 O58 2.091 . S
Co56 O60 2.004 . S
Co56 O66 2.021 . S
Co56 O68 2.137 . S
Co56 O69 2.244 . S
O57 Co56 2.216 . S
O57 C64 1.247 . S
O58 Co56 2.091 . S
O58 C64 1.261 . S
C59 O68 1.247 . S
C59 O69 1.272 . S
O60 Co56 2.004 . S
O60 C65 1.259 . S
Co61 O62 2.061 . S
Co61 O67 2.052 . S
Co61 O69 2.135 . S
O62 Co61 2.061 . S
O62 C65 1.235 . S
C63 O66 1.238 . S
C63 O67 1.241 . S
C64 O57 1.247 . S
C64 O58 1.261 . S
C65 O60 1.259 . S
C65 O62 1.235 . S
O66 Co56 2.021 . S
O66 C63 1.238 . S
O67 Co61 2.052 . S
O67 C63 1.241 . S
O68 Co56 2.137 . S
O68 C59 1.247 . S
O69 Co56 2.244 . S
O69 C59 1.272 . S
O69 Co61 2.135 . S
Co70 O71 2.216 . S
Co70 O72 2.091 . S
Co70 O74 2.004 . S
Co70 O80 2.021 . S
Co70 O82 2.137 . S
Co70 O83 2.244 . S
O71 Co70 2.216 . S
O71 C78 1.247 . S
O72 Co70 2.091 . S
O72 C78 1.261 . S
C73 O82 1.247 . S
C73 O83 1.272 . S
O74 Co70 2.004 . S
O74 C79 1.259 . S
Co75 O76 2.061 . S
Co75 O81 2.052 . S
Co75 O83 2.135 . S
O76 Co75 2.061 . S
O76 C79 1.235 . S
C77 O80 1.238 . S
C77 O81 1.241 . S
C78 O71 1.247 . S
C78 O72 1.261 . S
C79 O74 1.259 . S
C79 O76 1.235 . S
O80 Co70 2.021 . S
O80 C77 1.238 . S
O81 Co75 2.052 . S
O81 C77 1.241 . S
O82 Co70 2.137 . S
O82 C73 1.247 . S
O83 Co70 2.244 . S
O83 C73 1.272 . S
O83 Co75 2.135 . S
Co84 O85 2.216 . S
Co84 O86 2.091 . S
Co84 O88 2.004 . S
Co84 O94 2.021 . S
Co84 O96 2.137 . S
Co84 O97 2.244 . S
O85 Co84 2.216 . S
O85 C92 1.247 . S
O86 Co84 2.091 . S
O86 C92 1.261 . S
C87 O96 1.247 . S
C87 O97 1.272 . S
O88 Co84 2.004 . S
O88 C93 1.259 . S
Co89 O90 2.061 . S
Co89 O95 2.052 . S
Co89 O97 2.135 . S
O90 Co89 2.061 . S
O90 C93 1.235 . S
C91 O94 1.238 . S
C91 O95 1.241 . S
C92 O85 1.247 . S
C92 O86 1.261 . S
C93 O88 1.259 . S
C93 O90 1.235 . S
O94 Co84 2.021 . S
O94 C91 1.238 . S
O95 Co89 2.052 . S
O95 C91 1.241 . S
O96 Co84 2.137 . S
O96 C87 1.247 . S
O97 Co84 2.244 . S
O97 C87 1.272 . S
O97 Co89 2.135 . S
Co98 O99 2.216 . S
Co98 O100 2.091 . S
Co98 O102 2.004 1_455 S
Co98 O108 2.022 1_455 S
Co98 O110 2.137 . S
Co98 O111 2.244 1_556 S
O99 Co98 2.216 . S
O99 C106 1.247 . S
O100 Co98 2.091 . S
O100 C106 1.261 . S
C101 O110 1.247 1_554 S
C101 O111 1.272 . S
O102 Co98 2.004 1_655 S
O102 C107 1.259 . S
Co103 O104 2.061 1_554 S
Co103 O109 2.052 . S
Co103 O111 2.135 1_655 S
O104 Co103 2.061 1_556 S
O104 C107 1.235 . S
C105 O108 1.243 1_554 S
C105 O109 1.241 . S
C106 O99 1.247 . S
C106 O100 1.261 . S
C107 O102 1.259 . S
C107 O104 1.235 . S
O108 Co98 2.022 1_655 S
O108 C105 1.243 1_556 S
O109 Co103 2.052 . S
O109 C105 1.241 . S
O110 Co98 2.137 . S
O110 C101 1.247 1_556 S
O111 Co98 2.244 1_554 S
O111 C101 1.272 . S
O111 Co103 2.135 1_455 S
Co112 O113 2.216 . S
Co112 O114 2.091 . S
Co112 O116 2.004 1_545 S
Co112 O122 2.021 . S
Co112 O124 2.137 . S
Co112 O125 2.244 . S
O113 Co112 2.216 . S
O113 C120 1.247 . S
O114 Co112 2.091 . S
O114 C120 1.261 . S
C115 O124 1.247 . S
C115 O125 1.272 . S
O116 Co112 2.004 1_565 S
O116 C121 1.259 . S
Co117 O118 2.061 . S
Co117 O123 2.052 . S
Co117 O125 2.135 1_565 S
O118 Co117 2.061 . S
O118 C121 1.235 . S
C119 O122 1.229 1_565 S
C119 O123 1.241 . S
C120 O113 1.247 . S
C120 O114 1.261 . S
C121 O116 1.259 . S
C121 O118 1.235 . S
O122 Co112 2.021 . S
O122 C119 1.229 1_545 S
O123 Co117 2.052 . S
O123 C119 1.241 . S
O124 Co112 2.137 . S
O124 C115 1.247 . S
O125 Co112 2.244 . S
O125 C115 1.272 . S
O125 Co117 2.135 1_545 S
Co126 O127 2.216 . S
Co126 O128 2.091 . S
Co126 O130 2.004 . S
Co126 O136 2.021 . S
Co126 O138 2.137 . S
Co126 O139 2.244 . S
O127 Co126 2.216 . S
O127 C134 1.247 . S
O128 Co126 2.091 . S
O128 C134 1.261 . S
C129 O138 1.247 . S
C129 O139 1.272 . S
O130 Co126 2.004 . S
O130 C135 1.259 . S
Co131 O132 2.061 . S
Co131 O137 2.052 . S
Co131 O139 2.135 . S
O132 Co131 2.061 . S
O132 C135 1.235 . S
C133 O136 1.238 . S
C133 O137 1.241 . S
C134 O127 1.247 . S
C134 O128 1.261 . S
C135 O130 1.259 . S
C135 O132 1.235 . S
O136 Co126 2.021 . S
O136 C133 1.238 . S
O137 Co131 2.052 . S
O137 C133 1.241 . S
O138 Co126 2.137 . S
O138 C129 1.247 . S
O139 Co126 2.244 . S
O139 C129 1.272 . S
O139 Co131 2.135 . S
Co140 O141 2.216 . S
Co140 O142 2.091 . S
Co140 O144 2.004 . S
Co140 O150 2.021 . S
Co140 O152 2.137 . S
Co140 O153 2.244 . S
O141 Co140 2.216 . S
O141 C148 1.247 . S
O142 Co140 2.091 . S
O142 C148 1.261 . S
C143 O152 1.247 . S
C143 O153 1.272 . S
O144 Co140 2.004 . S
O144 C149 1.259 . S
Co145 O146 2.061 . S
Co145 O151 2.052 . S
Co145 O153 2.135 . S
O146 Co145 2.061 . S
O146 C149 1.235 . S
C147 O150 1.238 . S
C147 O151 1.241 . S
C148 O141 1.247 . S
C148 O142 1.261 . S
C149 O144 1.259 . S
C149 O146 1.235 . S
O150 Co140 2.021 . S
O150 C147 1.238 . S
O151 Co145 2.052 . S
O151 C147 1.241 . S
O152 Co140 2.137 . S
O152 C143 1.247 . S
O153 Co140 2.244 . S
O153 C143 1.272 . S
O153 Co145 2.135 . S
Co154 O155 2.216 . S
Co154 O156 2.091 1_556 S
Co154 O158 2.009 1_556 S
Co154 O164 2.021 1_556 S
Co154 O166 2.137 . S
Co154 O167 2.244 . S
O155 Co154 2.216 . S
O155 C162 1.247 . S
O156 Co154 2.091 1_554 S
O156 C162 1.261 1_554 S
C157 O166 1.247 . S
C157 O167 1.272 . S
O158 Co154 2.009 1_554 S
O158 C163 1.264 . S
Co159 O160 2.061 1_556 S
Co159 O165 2.052 1_556 S
Co159 O167 2.135 . S
O160 Co159 2.061 1_554 S
O160 C163 1.235 . S
C161 O164 1.238 . S
C161 O165 1.241 . S
C162 O155 1.247 . S
C162 O156 1.261 1_556 S
C163 O158 1.264 . S
C163 O160 1.235 . S
O164 Co154 2.021 1_554 S
O164 C161 1.238 . S
O165 Co159 2.052 1_554 S
O165 C161 1.241 . S
O166 Co154 2.137 . S
O166 C157 1.247 . S
O167 Co154 2.244 . S
O167 C157 1.272 . S
O167 Co159 2.135 . S
Co168 O169 2.216 . S
Co168 O170 2.091 . S
Co168 O172 2.004 . S
Co168 O178 2.021 . S
Co168 O180 2.100 1_554 S
Co168 O181 2.244 . S
O169 Co168 2.216 . S
O169 C176 1.247 . S
O170 Co168 2.091 . S
O170 C176 1.261 . S
C171 O180 1.245 . S
C171 O181 1.272 1_556 S
O172 Co168 2.004 . S
O172 C177 1.259 . S
Co173 O174 2.061 . S
Co173 O179 2.052 . S
Co173 O181 2.135 . S
O174 Co173 2.061 . S
O174 C177 1.235 . S
C175 O178 1.238 . S
C175 O179 1.241 . S
C176 O169 1.247 . S
C176 O170 1.261 . S
C177 O172 1.259 . S
C177 O174 1.235 . S
O178 Co168 2.021 . S
O178 C175 1.238 . S
O179 Co173 2.052 . S
O179 C175 1.241 . S
O180 Co168 2.100 1_556 S
O180 C171 1.245 . S
O181 Co168 2.244 . S
O181 C171 1.272 1_554 S
O181 Co173 2.135 . S
Co182 O183 2.216 . S
Co182 O184 2.091 . S
Co182 O186 2.004 . S
Co182 O192 2.021 . S
Co182 O194 2.137 . S
Co182 O195 2.244 . S
O183 Co182 2.216 . S
O183 C190 1.247 . S
O184 Co182 2.091 . S
O184 C190 1.261 . S
C185 O194 1.247 . S
C185 O195 1.272 . S
O186 Co182 2.004 . S
O186 C191 1.259 . S
Co187 O188 2.061 . S
Co187 O193 2.052 . S
Co187 O195 2.135 . S
O188 Co187 2.061 . S
O188 C191 1.235 . S
C189 O192 1.238 . S
C189 O193 1.241 . S
C190 O183 1.247 . S
C190 O184 1.261 . S
C191 O186 1.259 . S
C191 O188 1.235 . S
O192 Co182 2.021 . S
O192 C189 1.238 . S
O193 Co187 2.052 . S
O193 C189 1.241 . S
O194 Co182 2.137 . S
O194 C185 1.247 . S
O195 Co182 2.244 . S
O195 C185 1.272 . S
O195 Co187 2.135 . S
Co196 O197 2.216 . S
Co196 O198 2.091 . S
Co196 O200 2.004 . S
Co196 O206 2.021 . S
Co196 O208 2.137 . S
Co196 O209 2.244 . S
O197 Co196 2.216 . S
O197 C204 1.247 . S
O198 Co196 2.091 . S
O198 C204 1.261 . S
C199 O208 1.247 . S
C199 O209 1.272 . S
O200 Co196 2.004 . S
O200 C205 1.259 . S
Co201 O202 2.061 . S
Co201 O207 2.052 . S
Co201 O209 2.135 . S
O202 Co201 2.061 . S
O202 C205 1.235 . S
C203 O206 1.238 . S
C203 O207 1.241 . S
C204 O197 1.247 . S
C204 O198 1.261 . S
C205 O200 1.259 . S
C205 O202 1.235 . S
O206 Co196 2.021 . S
O206 C203 1.238 . S
O207 Co201 2.052 . S
O207 C203 1.241 . S
O208 Co196 2.137 . S
O208 C199 1.247 . S
O209 Co196 2.244 . S
O209 C199 1.272 . S
O209 Co201 2.135 . S
Co210 O211 2.216 . S
Co210 O212 2.091 . S
Co210 O214 2.004 . S
Co210 O220 2.021 . S
Co210 O222 2.137 . S
Co210 O223 2.244 . S
O211 Co210 2.216 . S
O211 C218 1.247 . S
O212 Co210 2.091 . S
O212 C218 1.261 . S
C213 O222 1.247 . S
C213 O223 1.272 . S
O214 Co210 2.004 . S
O214 C219 1.259 . S
Co215 O216 2.061 . S
Co215 O221 2.052 . S
Co215 O223 2.135 . S
O216 Co215 2.061 . S
O216 C219 1.235 . S
C217 O220 1.238 . S
C217 O221 1.241 . S
C218 O211 1.247 . S
C218 O212 1.261 . S
C219 O214 1.259 . S
C219 O216 1.235 . S
O220 Co210 2.021 . S
O220 C217 1.238 . S
O221 Co215 2.052 . S
O221 C217 1.241 . S
O222 Co210 2.137 . S
O222 C213 1.247 . S
O223 Co210 2.244 . S
O223 C213 1.272 . S
O223 Co215 2.135 . S
Co224 O225 2.216 . S
Co224 O226 2.091 . S
Co224 O228 2.004 1_545 S
Co224 O234 2.021 . S
Co224 O236 2.137 . S
Co224 O237 2.244 . S
O225 Co224 2.216 . S
O225 C232 1.247 . S
O226 Co224 2.091 . S
O226 C232 1.261 . S
C227 O236 1.247 . S
C227 O237 1.272 . S
O228 Co224 2.004 1_565 S
O228 C233 1.259 . S
Co229 O230 2.061 . S
Co229 O235 2.052 1_565 S
Co229 O237 2.135 1_565 S
O230 Co229 2.061 . S
O230 C233 1.235 . S
C231 O234 1.238 . S
C231 O235 1.241 . S
C232 O225 1.247 . S
C232 O226 1.261 . S
C233 O228 1.259 . S
C233 O230 1.235 . S
O234 Co224 2.021 . S
O234 C231 1.238 . S
O235 Co229 2.052 1_545 S
O235 C231 1.241 . S
O236 Co224 2.137 . S
O236 C227 1.247 . S
O237 Co224 2.244 . S
O237 C227 1.272 . S
O237 Co229 2.135 1_545 S
Co238 O239 2.216 . S
Co238 O240 2.091 . S
Co238 O242 2.004 . S
Co238 O248 2.021 . S
Co238 O250 2.137 . S
Co238 O251 2.244 . S
O239 Co238 2.216 . S
O239 C246 1.247 . S
O240 Co238 2.091 . S
O240 C246 1.261 . S
C241 O250 1.247 . S
C241 O251 1.272 . S
O242 Co238 2.004 . S
O242 C247 1.259 . S
Co243 O244 2.061 . S
Co243 O249 2.052 . S
Co243 O251 2.135 . S
O244 Co243 2.061 . S
O244 C247 1.235 . S
C245 O248 1.238 . S
C245 O249 1.241 . S
C246 O239 1.247 . S
C246 O240 1.261 . S
C247 O242 1.259 . S
C247 O244 1.235 . S
O248 Co238 2.021 . S
O248 C245 1.238 . S
O249 Co243 2.052 . S
O249 C245 1.241 . S
O250 Co238 2.137 . S
O250 C241 1.247 . S
O251 Co238 2.244 . S
O251 C241 1.272 . S
O251 Co243 2.135 . S
Co252 O253 2.216 . S
Co252 O254 2.091 . S
Co252 O256 2.004 . S
Co252 O262 2.021 . S
Co252 O264 2.137 . S
Co252 O265 2.244 . S
O253 Co252 2.216 . S
O253 C260 1.247 . S
O254 Co252 2.091 . S
O254 C260 1.261 . S
C255 O264 1.247 . S
C255 O265 1.272 . S
O256 Co252 2.004 . S
O256 C261 1.259 . S
Co257 O258 2.061 . S
Co257 O263 2.052 . S
Co257 O265 2.135 . S
O258 Co257 2.061 . S
O258 C261 1.235 . S
C259 O262 1.238 . S
C259 O263 1.241 . S
C260 O253 1.247 . S
C260 O254 1.261 . S
C261 O256 1.259 . S
C261 O258 1.235 . S
O262 Co252 2.021 . S
O262 C259 1.238 . S
O263 Co257 2.052 . S
O263 C259 1.241 . S
O264 Co252 2.137 . S
O264 C255 1.247 . S
O265 Co252 2.244 . S
O265 C255 1.272 . S
O265 Co257 2.135 . S
Co266 O267 2.216 . S
Co266 O268 2.091 . S
Co266 O270 2.004 . S
Co266 O276 2.021 . S
Co266 O278 2.137 . S
Co266 O279 2.244 . S
O267 Co266 2.216 . S
O267 C274 1.247 . S
O268 Co266 2.091 . S
O268 C274 1.261 . S
C269 O278 1.247 . S
C269 O279 1.272 . S
O270 Co266 2.004 . S
O270 C275 1.259 . S
Co271 O272 2.061 . S
Co271 O277 2.052 . S
Co271 O279 2.135 . S
O272 Co271 2.061 . S
O272 C275 1.235 . S
C273 O276 1.238 . S
C273 O277 1.241 . S
C274 O267 1.247 . S
C274 O268 1.261 . S
C275 O270 1.259 . S
C275 O272 1.235 . S
O276 Co266 2.021 . S
O276 C273 1.238 . S
O277 Co271 2.052 . S
O277 C273 1.241 . S
O278 Co266 2.137 . S
O278 C269 1.247 . S
O279 Co266 2.244 . S
O279 C269 1.272 . S
O279 Co271 2.135 . S
Co280 O281 2.216 . S
Co280 O282 2.091 . S
Co280 O284 2.004 . S
Co280 O290 2.021 . S
Co280 O292 2.137 1_554 S
Co280 O293 2.244 . S
O281 Co280 2.216 . S
O281 C288 1.247 . S
O282 Co280 2.091 . S
O282 C288 1.261 . S
C283 O292 1.247 . S
C283 O293 1.272 1_556 S
O284 Co280 2.004 . S
O284 C289 1.259 . S
Co285 O286 2.061 . S
Co285 O291 2.052 . S
Co285 O293 2.135 . S
O286 Co285 2.061 . S
O286 C289 1.235 . S
C287 O290 1.238 . S
C287 O291 1.241 . S
C288 O281 1.247 . S
C288 O282 1.261 . S
C289 O284 1.259 . S
C289 O286 1.235 . S
O290 Co280 2.021 . S
O290 C287 1.238 . S
O291 Co285 2.052 . S
O291 C287 1.241 . S
O292 Co280 2.137 1_556 S
O292 C283 1.247 . S
O293 Co280 2.244 . S
O293 C283 1.272 1_554 S
O293 Co285 2.135 . S
Co294 O295 2.216 . S
Co294 O296 2.091 . S
Co294 O298 2.004 . S
Co294 O304 2.021 . S
Co294 O306 2.137 . S
Co294 O307 2.244 . S
O295 Co294 2.216 . S
O295 C302 1.247 . S
O296 Co294 2.091 . S
O296 C302 1.261 . S
C297 O306 1.247 . S
C297 O307 1.272 . S
O298 Co294 2.004 . S
O298 C303 1.259 . S
Co299 O300 2.061 . S
Co299 O305 2.052 . S
Co299 O307 2.135 . S
O300 Co299 2.061 . S
O300 C303 1.235 . S
C301 O304 1.238 . S
C301 O305 1.241 . S
C302 O295 1.247 . S
C302 O296 1.261 . S
C303 O298 1.259 . S
C303 O300 1.235 . S
O304 Co294 2.021 . S
O304 C301 1.238 . S
O305 Co299 2.052 . S
O305 C301 1.241 . S
O306 Co294 2.137 . S
O306 C297 1.247 . S
O307 Co294 2.244 . S
O307 C297 1.272 . S
O307 Co299 2.135 . S
Co308 O309 2.216 . S
Co308 O310 2.091 . S
Co308 O312 2.004 . S
Co308 O318 2.021 . S
Co308 O320 2.137 . S
Co308 O321 2.244 . S
O309 Co308 2.216 . S
O309 C316 1.247 . S
O310 Co308 2.091 . S
O310 C316 1.261 . S
C311 O320 1.247 . S
C311 O321 1.272 . S
O312 Co308 2.004 . S
O312 C317 1.259 . S
Co313 O314 2.061 . S
Co313 O319 2.052 . S
Co313 O321 2.135 . S
O314 Co313 2.061 . S
O314 C317 1.235 . S
C315 O318 1.238 . S
C315 O319 1.241 . S
C316 O309 1.247 . S
C316 O310 1.261 . S
C317 O312 1.259 . S
C317 O314 1.235 . S
O318 Co308 2.021 . S
O318 C315 1.238 . S
O319 Co313 2.052 . S
O319 C315 1.241 . S
O320 Co308 2.137 . S
O320 C311 1.247 . S
O321 Co308 2.244 . S
O321 C311 1.272 . S
O321 Co313 2.135 . S
Co322 O323 2.216 . S
Co322 O324 2.091 . S
Co322 O326 2.004 . S
Co322 O332 2.021 . S
Co322 O334 2.137 . S
Co322 O335 2.244 . S
O323 Co322 2.216 . S
O323 C330 1.247 . S
O324 Co322 2.091 . S
O324 C330 1.261 . S
C325 O334 1.247 . S
C325 O335 1.272 . S
O326 Co322 2.004 . S
O326 C331 1.259 . S
Co327 O328 2.061 . S
Co327 O333 2.052 . S
Co327 O335 2.135 . S
O328 Co327 2.061 . S
O328 C331 1.235 . S
C329 O332 1.238 . S
C329 O333 1.241 . S
C330 O323 1.247 . S
C330 O324 1.261 . S
C331 O326 1.259 . S
C331 O328 1.235 . S
O332 Co322 2.021 . S
O332 C329 1.238 . S
O333 Co327 2.052 . S
O333 C329 1.241 . S
O334 Co322 2.137 . S
O334 C325 1.247 . S
O335 Co322 2.244 . S
O335 C325 1.272 . S
O335 Co327 2.135 . S
Dy336 O339 2.307 . S
Dy336 O341 2.395 . S
Dy336 O342 2.379 . S
Dy336 O344 2.339 . S
Dy336 O346 2.298 . S
Dy336 O350 2.275 . S
Dy336 C358 2.738 . S
Dy337 O340 2.298 1_655 S
Dy337 O343 2.275 1_655 S
Dy337 O345 2.307 1_655 S
Dy337 O347 2.395 . S
Dy337 O348 2.379 . S
Dy337 O351 2.339 1_654 S
Dy337 C367 2.738 . S
C338 O350 1.254 1_556 S
C338 O351 1.257 . S
O339 Dy336 2.307 . S
O339 C349 1.266 . S
O340 Dy337 2.298 1_455 S
O340 C349 1.236 . S
O341 Dy336 2.395 . S
O341 C358 1.255 . S
O342 Dy336 2.379 . S
O342 C358 1.249 . S
O343 Dy337 2.275 1_455 S
O343 C359 1.254 . S
O344 Dy336 2.339 . S
O344 C359 1.257 . S
O345 Dy337 2.307 1_455 S
O345 C360 1.282 . S
O346 Dy336 2.298 . S
O346 C360 1.251 . S
O347 Dy337 2.395 . S
O347 C367 1.255 . S
O348 Dy337 2.379 . S
O348 C367 1.249 . S
C349 O339 1.266 . S
C349 O340 1.236 . S
O350 Dy336 2.275 . S
O350 C338 1.254 1_554 S
O351 Dy337 2.339 1_456 S
O351 C338 1.257 . S
C352 C355 1.344 . S
C352 C356 1.328 . S
C352 C358 1.516 . S
C353 C354 1.304 . S
C353 C357 1.323 . S
C354 C353 1.304 . S
C354 C355 1.371 . S
C354 H368 0.930 . S
C355 C352 1.344 . S
C355 C354 1.371 . S
C355 H369 0.931 . S
C356 C352 1.328 . S
C356 C357 1.433 . S
C356 H370 0.931 . S
C357 C353 1.323 . S
C357 C356 1.433 . S
C357 H371 0.933 . S
C358 Dy336 2.738 . S
C358 O341 1.255 . S
C358 O342 1.249 . S
C358 C352 1.516 . S
C359 O343 1.254 . S
C359 O344 1.257 . S
C360 O345 1.282 . S
C360 O346 1.251 . S
C361 C364 1.344 . S
C361 C365 1.328 1_554 S
C361 C367 1.516 . S
C362 C363 1.304 . S
C362 C366 1.323 1_554 S
C363 C362 1.304 . S
C363 C364 1.371 . S
C363 H372 0.930 . S
C364 C361 1.344 . S
C364 C363 1.371 . S
C364 H373 0.931 . S
C365 C361 1.328 1_556 S
C365 C366 1.433 . S
C365 H374 0.931 . S
C366 C362 1.323 1_556 S
C366 C365 1.433 . S
C366 H375 0.933 . S
C367 Dy337 2.738 . S
C367 O347 1.255 . S
C367 O348 1.249 . S
C367 C361 1.516 . S
H368 C354 0.930 . S
H369 C355 0.931 . S
H370 C356 0.931 . S
H371 C357 0.933 . S
H372 C363 0.930 . S
H373 C364 0.931 . S
H374 C365 0.931 . S
H375 C366 0.933 . S
Dy376 O379 2.307 . S
Dy376 O381 2.395 . S
Dy376 O382 2.379 . S
Dy376 O384 2.339 . S
Dy376 O386 2.298 . S
Dy376 O390 2.275 . S
Dy376 C398 2.738 . S
Dy377 O380 2.298 . S
Dy377 O383 2.275 . S
Dy377 O385 2.307 . S
Dy377 O387 2.395 . S
Dy377 O388 2.379 . S
Dy377 O391 2.339 . S
Dy377 C407 2.738 . S
C378 O390 1.254 . S
C378 O391 1.257 . S
O379 Dy376 2.307 . S
O379 C389 1.266 . S
O380 Dy377 2.298 . S
O380 C389 1.236 . S
O381 Dy376 2.395 . S
O381 C398 1.255 . S
O382 Dy376 2.379 . S
O382 C398 1.249 . S
O383 Dy377 2.275 . S
O383 C399 1.254 . S
O384 Dy376 2.339 . S
O384 C399 1.257 . S
O385 Dy377 2.307 . S
O385 C400 1.266 . S
O386 Dy376 2.298 . S
O386 C400 1.236 . S
O387 Dy377 2.395 . S
O387 C407 1.255 . S
O388 Dy377 2.379 . S
O388 C407 1.249 . S
C389 O379 1.266 . S
C389 O380 1.236 . S
O390 Dy376 2.275 . S
O390 C378 1.254 . S
O391 Dy377 2.339 . S
O391 C378 1.257 . S
C392 C395 1.344 . S
C392 C396 1.328 . S
C392 C398 1.516 . S
C393 C394 1.304 . S
C393 C397 1.323 . S
C394 C393 1.304 . S
C394 C395 1.371 . S
C394 H408 0.930 . S
C395 C392 1.344 . S
C395 C394 1.371 . S
C395 H409 0.931 . S
C396 C392 1.328 . S
C396 C397 1.433 . S
C396 H410 0.931 . S
C397 C393 1.323 . S
C397 C396 1.433 . S
C397 H411 0.933 . S
C398 Dy376 2.738 . S
C398 O381 1.255 . S
C398 O382 1.249 . S
C398 C392 1.516 . S
C399 O383 1.254 . S
C399 O384 1.257 . S
C400 O385 1.266 . S
C400 O386 1.236 . S
C401 C404 1.344 . S
C401 C405 1.328 . S
C401 C407 1.516 . S
C402 C403 1.304 . S
C402 C406 1.323 . S
C403 C402 1.304 . S
C403 C404 1.371 . S
C403 H412 0.930 . S
C404 C401 1.344 . S
C404 C403 1.371 . S
C404 H413 0.931 . S
C405 C401 1.328 . S
C405 C406 1.433 . S
C405 H414 0.931 . S
C406 C402 1.323 . S
C406 C405 1.433 . S
C406 H415 0.933 . S
C407 Dy377 2.738 . S
C407 O387 1.255 . S
C407 O388 1.249 . S
C407 C401 1.516 . S
H408 C394 0.930 . S
H409 C395 0.931 . S
H410 C396 0.931 . S
H411 C397 0.933 . S
H412 C403 0.930 . S
H413 C404 0.931 . S
H414 C405 0.931 . S
H415 C406 0.933 . S
Dy416 O419 2.307 . S
Dy416 O421 2.395 . S
Dy416 O422 2.379 . S
Dy416 O424 2.339 . S
Dy416 O426 2.298 . S
Dy416 O430 2.275 . S
Dy416 C438 2.738 . S
Dy417 O420 2.298 . S
Dy417 O423 2.275 . S
Dy417 O425 2.307 . S
Dy417 O427 2.395 . S
Dy417 O428 2.379 . S
Dy417 O431 2.339 . S
Dy417 C447 2.738 . S
C418 O430 1.254 . S
C418 O431 1.257 . S
O419 Dy416 2.307 . S
O419 C429 1.266 1_545 S
O420 Dy417 2.298 . S
O420 C429 1.236 1_545 S
O421 Dy416 2.395 . S
O421 C438 1.255 . S
O422 Dy416 2.379 . S
O422 C438 1.249 . S
O423 Dy417 2.275 . S
O423 C439 1.254 . S
O424 Dy416 2.339 . S
O424 C439 1.257 . S
O425 Dy417 2.307 . S
O425 C440 1.266 . S
O426 Dy416 2.298 . S
O426 C440 1.236 . S
O427 Dy417 2.395 . S
O427 C447 1.255 . S
O428 Dy417 2.379 . S
O428 C447 1.249 . S
C429 O419 1.266 1_565 S
C429 O420 1.236 1_565 S
O430 Dy416 2.275 . S
O430 C418 1.254 . S
O431 Dy417 2.339 . S
O431 C418 1.257 . S
C432 C435 1.344 . S
C432 C436 1.328 . S
C432 C438 1.516 . S
C433 C434 1.304 . S
C433 C437 1.323 . S
C434 C433 1.304 . S
C434 C435 1.371 . S
C434 H448 0.930 . S
C435 C432 1.344 . S
C435 C434 1.371 . S
C435 H449 0.931 . S
C436 C432 1.328 . S
C436 C437 1.433 . S
C436 H450 0.931 . S
C437 C433 1.323 . S
C437 C436 1.433 . S
C437 H451 0.933 . S
C438 Dy416 2.738 . S
C438 O421 1.255 . S
C438 O422 1.249 . S
C438 C432 1.516 . S
C439 O423 1.254 . S
C439 O424 1.257 . S
C440 O425 1.266 . S
C440 O426 1.236 . S
C441 C444 1.344 1_545 S
C441 C445 1.328 . S
C441 C447 1.516 . S
C442 C443 1.304 . S
C442 C446 1.323 . S
C443 C442 1.304 . S
C443 C444 1.371 . S
C443 H452 0.930 . S
C444 C441 1.344 1_565 S
C444 C443 1.371 . S
C444 H453 0.931 . S
C445 C441 1.328 . S
C445 C446 1.433 1_545 S
C445 H454 0.931 . S
C446 C442 1.323 . S
C446 C445 1.433 1_565 S
C446 H455 0.933 . S
C447 Dy417 2.738 . S
C447 O427 1.255 . S
C447 O428 1.249 . S
C447 C441 1.516 . S
H448 C434 0.930 . S
H449 C435 0.931 . S
H450 C436 0.931 . S
H451 C437 0.933 . S
H452 C443 0.930 . S
H453 C444 0.931 . S
H454 C445 0.931 . S
H455 C446 0.933 . S
Dy456 O459 2.307 . S
Dy456 O461 2.395 . S
Dy456 O462 2.379 . S
Dy456 O464 2.339 . S
Dy456 O466 2.298 . S
Dy456 O470 2.275 . S
Dy456 C478 2.738 . S
Dy457 O460 2.298 . S
Dy457 O463 2.275 . S
Dy457 O465 2.307 . S
Dy457 O467 2.395 . S
Dy457 O468 2.379 . S
Dy457 O471 2.339 . S
Dy457 C487 2.738 . S
C458 O470 1.254 . S
C458 O471 1.257 . S
O459 Dy456 2.307 . S
O459 C469 1.266 . S
O460 Dy457 2.298 . S
O460 C469 1.236 . S
O461 Dy456 2.395 . S
O461 C478 1.255 . S
O462 Dy456 2.379 . S
O462 C478 1.249 . S
O463 Dy457 2.275 . S
O463 C479 1.254 . S
O464 Dy456 2.339 . S
O464 C479 1.257 . S
O465 Dy457 2.307 . S
O465 C480 1.266 . S
O466 Dy456 2.298 . S
O466 C480 1.236 . S
O467 Dy457 2.395 . S
O467 C487 1.255 . S
O468 Dy457 2.379 . S
O468 C487 1.249 . S
C469 O459 1.266 . S
C469 O460 1.236 . S
O470 Dy456 2.275 . S
O470 C458 1.254 . S
O471 Dy457 2.339 . S
O471 C458 1.257 . S
C472 C475 1.344 . S
C472 C476 1.328 . S
C472 C478 1.516 . S
C473 C474 1.304 . S
C473 C477 1.323 . S
C474 C473 1.304 . S
C474 C475 1.371 . S
C474 H488 0.930 . S
C475 C472 1.344 . S
C475 C474 1.371 . S
C475 H489 0.931 . S
C476 C472 1.328 . S
C476 C477 1.433 . S
C476 H490 0.931 . S
C477 C473 1.323 . S
C477 C476 1.433 . S
C477 H491 0.933 . S
C478 Dy456 2.738 . S
C478 O461 1.255 . S
C478 O462 1.249 . S
C478 C472 1.516 . S
C479 O463 1.254 . S
C479 O464 1.257 . S
C480 O465 1.266 . S
C480 O466 1.236 . S
C481 C484 1.344 . S
C481 C485 1.328 . S
C481 C487 1.516 . S
C482 C483 1.304 . S
C482 C486 1.323 . S
C483 C482 1.304 . S
C483 C484 1.371 . S
C483 H492 0.930 . S
C484 C481 1.344 . S
C484 C483 1.371 . S
C484 H493 0.931 . S
C485 C481 1.328 . S
C485 C486 1.433 . S
C485 H494 0.931 . S
C486 C482 1.323 . S
C486 C485 1.433 . S
C486 H495 0.933 . S
C487 Dy457 2.738 . S
C487 O467 1.255 . S
C487 O468 1.249 . S
C487 C481 1.516 . S
H488 C474 0.930 . S
H489 C475 0.931 . S
H490 C476 0.931 . S
H491 C477 0.933 . S
H492 C483 0.930 . S
H493 C484 0.931 . S
H494 C485 0.931 . S
H495 C486 0.933 . S
Dy496 O499 2.307 . S
Dy496 O501 2.395 1_545 S
Dy496 O502 2.379 1_545 S
Dy496 O504 2.339 . S
Dy496 O506 2.298 . S
Dy496 O510 2.275 . S
Dy496 C518 2.738 1_545 S
Dy497 O500 2.298 . S
Dy497 O503 2.275 . S
Dy497 O505 2.307 . S
Dy497 O507 2.395 . S
Dy497 O508 2.371 1_455 S
Dy497 O511 2.339 1_455 S
Dy497 C527 2.738 . S
C498 O510 1.254 1_655 S
C498 O511 1.257 . S
O499 Dy496 2.307 . S
O499 C509 1.266 . S
O500 Dy497 2.298 . S
O500 C509 1.236 . S
O501 Dy496 2.395 1_565 S
O501 C518 1.255 . S
O502 Dy496 2.379 1_565 S
O502 C518 1.249 . S
O503 Dy497 2.275 . S
O503 C519 1.254 . S
O504 Dy496 2.339 . S
O504 C519 1.257 . S
O505 Dy497 2.307 . S
O505 C520 1.266 . S
O506 Dy496 2.298 . S
O506 C520 1.236 . S
O507 Dy497 2.395 . S
O507 C527 1.255 . S
O508 Dy497 2.371 1_655 S
O508 C527 1.242 1_655 S
C509 O499 1.266 . S
C509 O500 1.236 . S
O510 Dy496 2.275 . S
O510 C498 1.254 1_455 S
O511 Dy497 2.339 1_655 S
O511 C498 1.257 . S
C512 C515 1.344 . S
C512 C516 1.328 . S
C512 C518 1.516 . S
C513 C514 1.304 . S
C513 C517 1.323 . S
C514 C513 1.304 . S
C514 C515 1.371 . S
C514 H528 0.930 . S
C515 C512 1.344 . S
C515 C514 1.371 . S
C515 H529 0.931 . S
C516 C512 1.328 . S
C516 C517 1.433 . S
C516 H530 0.931 . S
C517 C513 1.323 . S
C517 C516 1.433 . S
C517 H531 0.933 . S
C518 Dy496 2.738 1_565 S
C518 O501 1.255 . S
C518 O502 1.249 . S
C518 C512 1.516 . S
C519 O503 1.254 . S
C519 O504 1.257 . S
C520 O505 1.266 . S
C520 O506 1.236 . S
C521 C524 1.344 . S
C521 C525 1.328 1_455 S
C521 C527 1.516 . S
C522 C523 1.304 . S
C522 C526 1.323 1_455 S
C523 C522 1.304 . S
C523 C524 1.371 . S
C523 H532 0.930 . S
C524 C521 1.344 . S
C524 C523 1.371 . S
C524 H533 0.931 . S
C525 C521 1.328 1_655 S
C525 C526 1.433 . S
C525 H534 0.931 . S
C526 C522 1.323 1_655 S
C526 C525 1.433 . S
C526 H535 0.933 . S
C527 Dy497 2.738 . S
C527 O507 1.255 . S
C527 O508 1.242 1_455 S
C527 C521 1.516 . S
H528 C514 0.930 . S
H529 C515 0.931 . S
H530 C516 0.931 . S
H531 C517 0.933 . S
H532 C523 0.930 . S
H533 C524 0.931 . S
H534 C525 0.931 . S
H535 C526 0.933 . S
Dy536 O539 2.307 . S
Dy536 O541 2.395 . S
Dy536 O542 2.379 . S
Dy536 O544 2.339 . S
Dy536 O546 2.298 . S
Dy536 O550 2.275 . S
Dy536 C558 2.738 . S
Dy537 O540 2.298 . S
Dy537 O543 2.275 . S
Dy537 O545 2.307 . S
Dy537 O547 2.395 . S
Dy537 O548 2.379 . S
Dy537 O551 2.339 . S
Dy537 C567 2.738 . S
C538 O550 1.254 . S
C538 O551 1.257 . S
O539 Dy536 2.307 . S
O539 C549 1.266 . S
O540 Dy537 2.298 . S
O540 C549 1.236 . S
O541 Dy536 2.395 . S
O541 C558 1.255 . S
O542 Dy536 2.379 . S
O542 C558 1.249 . S
O543 Dy537 2.275 . S
O543 C559 1.254 . S
O544 Dy536 2.339 . S
O544 C559 1.257 . S
O545 Dy537 2.307 . S
O545 C560 1.266 . S
O546 Dy536 2.298 . S
O546 C560 1.236 . S
O547 Dy537 2.395 . S
O547 C567 1.255 . S
O548 Dy537 2.379 . S
O548 C567 1.249 . S
C549 O539 1.266 . S
C549 O540 1.236 . S
O550 Dy536 2.275 . S
O550 C538 1.254 . S
O551 Dy537 2.339 . S
O551 C538 1.257 . S
C552 C555 1.344 . S
C552 C556 1.328 . S
C552 C558 1.516 . S
C553 C554 1.304 . S
C553 C557 1.323 . S
C554 C553 1.304 . S
C554 C555 1.371 . S
C554 H568 0.930 . S
C555 C552 1.344 . S
C555 C554 1.371 . S
C555 H569 0.931 . S
C556 C552 1.328 . S
C556 C557 1.433 . S
C556 H570 0.931 . S
C557 C553 1.323 . S
C557 C556 1.433 . S
C557 H571 0.933 . S
C558 Dy536 2.738 . S
C558 O541 1.255 . S
C558 O542 1.249 . S
C558 C552 1.516 . S
C559 O543 1.254 . S
C559 O544 1.257 . S
C560 O545 1.266 . S
C560 O546 1.236 . S
C561 C564 1.344 . S
C561 C565 1.328 . S
C561 C567 1.516 . S
C562 C563 1.304 . S
C562 C566 1.323 . S
C563 C562 1.304 . S
C563 C564 1.371 . S
C563 H572 0.930 . S
C564 C561 1.344 . S
C564 C563 1.371 . S
C564 H573 0.931 . S
C565 C561 1.328 . S
C565 C566 1.433 . S
C565 H574 0.931 . S
C566 C562 1.323 . S
C566 C565 1.433 . S
C566 H575 0.933 . S
C567 Dy537 2.738 . S
C567 O547 1.255 . S
C567 O548 1.249 . S
C567 C561 1.516 . S
H568 C554 0.930 . S
H569 C555 0.931 . S
H570 C556 0.931 . S
H571 C557 0.933 . S
H572 C563 0.930 . S
H573 C564 0.931 . S
H574 C565 0.931 . S
H575 C566 0.933 . S
Dy576 O579 2.307 . S
Dy576 O581 2.395 1_554 S
Dy576 O582 2.379 1_554 S
Dy576 O584 2.339 . S
Dy576 O586 2.298 . S
Dy576 O590 2.275 . S
Dy576 C598 2.738 1_554 S
Dy577 O580 2.298 . S
Dy577 O583 2.275 . S
Dy577 O585 2.307 . S
Dy577 O587 2.395 . S
Dy577 O588 2.379 . S
Dy577 O591 2.315 1_545 S
Dy577 C607 2.738 . S
C578 O590 1.254 . S
C578 O591 1.245 1_545 S
O579 Dy576 2.307 . S
O579 C589 1.266 . S
O580 Dy577 2.298 . S
O580 C589 1.236 . S
O581 Dy576 2.395 1_556 S
O581 C598 1.255 . S
O582 Dy576 2.379 1_556 S
O582 C598 1.249 . S
O583 Dy577 2.275 . S
O583 C599 1.254 . S
O584 Dy576 2.339 . S
O584 C599 1.257 . S
O585 Dy577 2.307 . S
O585 C600 1.266 . S
O586 Dy576 2.298 . S
O586 C600 1.236 . S
O587 Dy577 2.395 . S
O587 C607 1.255 . S
O588 Dy577 2.379 . S
O588 C607 1.249 . S
C589 O579 1.266 . S
C589 O580 1.236 . S
O590 Dy576 2.275 . S
O590 C578 1.254 . S
O591 Dy577 2.315 1_565 S
O591 C578 1.245 1_565 S
C592 C595 1.344 . S
C592 C596 1.328 . S
C592 C598 1.516 . S
C593 C594 1.304 . S
C593 C597 1.323 . S
C594 C593 1.304 . S
C594 C595 1.371 . S
C594 H608 0.930 . S
C595 C592 1.344 . S
C595 C594 1.371 . S
C595 H609 0.931 . S
C596 C592 1.328 . S
C596 C597 1.433 . S
C596 H610 0.931 . S
C597 C593 1.323 . S
C597 C596 1.433 . S
C597 H611 0.933 . S
C598 Dy576 2.738 1_556 S
C598 O581 1.255 . S
C598 O582 1.249 . S
C598 C592 1.516 . S
C599 O583 1.254 . S
C599 O584 1.257 . S
C600 O585 1.266 . S
C600 O586 1.236 . S
C601 C604 1.344 . S
C601 C605 1.328 1_545 S
C601 C607 1.516 . S
C602 C603 1.304 1_565 S
C602 C606 1.323 . S
C603 C602 1.304 1_545 S
C603 C604 1.371 . S
C603 H612 0.930 . S
C604 C601 1.344 . S
C604 C603 1.371 . S
C604 H613 0.931 . S
C605 C601 1.328 1_565 S
C605 C606 1.433 . S
C605 H614 0.931 . S
C606 C602 1.323 . S
C606 C605 1.433 . S
C606 H615 0.933 . S
C607 Dy577 2.738 . S
C607 O587 1.255 . S
C607 O588 1.249 . S
C607 C601 1.516 . S
H608 C594 0.930 . S
H609 C595 0.931 . S
H610 C596 0.931 . S
H611 C597 0.933 . S
H612 C603 0.930 . S
H613 C604 0.931 . S
H614 C605 0.931 . S
H615 C606 0.933 . S
Dy616 O619 2.307 . S
Dy616 O621 2.395 . S
Dy616 O622 2.379 . S
Dy616 O624 2.339 . S
Dy616 O626 2.298 . S
Dy616 O630 2.275 . S
Dy616 C638 2.738 . S
Dy617 O620 2.298 . S
Dy617 O623 2.275 . S
Dy617 O625 2.307 . S
Dy617 O627 2.395 . S
Dy617 O628 2.379 . S
Dy617 O631 2.339 . S
Dy617 C647 2.738 . S
C618 O630 1.254 . S
C618 O631 1.257 . S
O619 Dy616 2.307 . S
O619 C629 1.266 . S
O620 Dy617 2.298 . S
O620 C629 1.236 . S
O621 Dy616 2.395 . S
O621 C638 1.255 . S
O622 Dy616 2.379 . S
O622 C638 1.249 . S
O623 Dy617 2.275 . S
O623 C639 1.254 . S
O624 Dy616 2.339 . S
O624 C639 1.257 . S
O625 Dy617 2.307 . S
O625 C640 1.266 . S
O626 Dy616 2.298 . S
O626 C640 1.236 . S
O627 Dy617 2.395 . S
O627 C647 1.255 . S
O628 Dy617 2.379 . S
O628 C647 1.249 . S
C629 O619 1.266 . S
C629 O620 1.236 . S
O630 Dy616 2.275 . S
O630 C618 1.254 . S
O631 Dy617 2.339 . S
O631 C618 1.257 . S
C632 C635 1.344 . S
C632 C636 1.328 . S
C632 C638 1.516 . S
C633 C634 1.304 . S
C633 C637 1.323 . S
C634 C633 1.304 . S
C634 C635 1.371 . S
C634 H648 0.930 . S
C635 C632 1.344 . S
C635 C634 1.371 . S
C635 H649 0.931 . S
C636 C632 1.328 . S
C636 C637 1.433 . S
C636 H650 0.931 . S
C637 C633 1.323 . S
C637 C636 1.433 . S
C637 H651 0.933 . S
C638 Dy616 2.738 . S
C638 O621 1.255 . S
C638 O622 1.249 . S
C638 C632 1.516 . S
C639 O623 1.254 . S
C639 O624 1.257 . S
C640 O625 1.266 . S
C640 O626 1.236 . S
C641 C644 1.344 . S
C641 C645 1.328 . S
C641 C647 1.516 . S
C642 C643 1.304 . S
C642 C646 1.323 . S
C643 C642 1.304 . S
C643 C644 1.371 . S
C643 H652 0.930 . S
C644 C641 1.344 . S
C644 C643 1.371 . S
C644 H653 0.931 . S
C645 C641 1.328 . S
C645 C646 1.433 . S
C645 H654 0.931 . S
C646 C642 1.323 . S
C646 C645 1.433 . S
C646 H655 0.933 . S
C647 Dy617 2.738 . S
C647 O627 1.255 . S
C647 O628 1.249 . S
C647 C641 1.516 . S
H648 C634 0.930 . S
H649 C635 0.931 . S
H650 C636 0.931 . S
H651 C637 0.933 . S
H652 C643 0.930 . S
H653 C644 0.931 . S
H654 C645 0.931 . S
H655 C646 0.933 . S
Dy656 O659 2.307 1_554 S
Dy656 O661 2.395 . S
Dy656 O662 2.379 . S
Dy656 O664 2.339 . S
Dy656 O666 2.298 . S
Dy656 O670 2.275 . S
Dy656 C678 2.738 . S
Dy657 O660 2.297 . S
Dy657 O663 2.275 . S
Dy657 O665 2.307 . S
Dy657 O667 2.395 . S
Dy657 O668 2.379 . S
Dy657 O671 2.339 . S
Dy657 C687 2.738 . S
C658 O670 1.254 . S
C658 O671 1.257 . S
O659 Dy656 2.307 1_556 S
O659 C669 1.266 . S
O660 Dy657 2.297 . S
O660 C669 1.236 1_554 S
O661 Dy656 2.395 . S
O661 C678 1.255 . S
O662 Dy656 2.379 . S
O662 C678 1.249 . S
O663 Dy657 2.275 . S
O663 C679 1.254 . S
O664 Dy656 2.339 . S
O664 C679 1.257 . S
O665 Dy657 2.307 . S
O665 C680 1.266 . S
O666 Dy656 2.298 . S
O666 C680 1.236 . S
O667 Dy657 2.395 . S
O667 C687 1.255 . S
O668 Dy657 2.379 . S
O668 C687 1.249 . S
C669 O659 1.266 . S
C669 O660 1.236 1_556 S
O670 Dy656 2.275 . S
O670 C658 1.254 . S
O671 Dy657 2.339 . S
O671 C658 1.257 . S
C672 C675 1.344 . S
C672 C676 1.328 . S
C672 C678 1.516 . S
C673 C674 1.304 . S
C673 C677 1.323 . S
C674 C673 1.304 . S
C674 C675 1.371 . S
C674 H688 0.930 . S
C675 C672 1.344 . S
C675 C674 1.371 . S
C675 H689 0.931 . S
C676 C672 1.328 . S
C676 C677 1.433 . S
C676 H690 0.931 . S
C677 C673 1.323 . S
C677 C676 1.433 . S
C677 H691 0.933 . S
C678 Dy656 2.738 . S
C678 O661 1.255 . S
C678 O662 1.249 . S
C678 C672 1.516 . S
C679 O663 1.254 . S
C679 O664 1.257 . S
C680 O665 1.266 . S
C680 O666 1.236 . S
C681 C684 1.350 . S
C681 C685 1.328 . S
C681 C687 1.511 1_556 S
C682 C683 1.304 . S
C682 C686 1.323 . S
C683 C682 1.304 . S
C683 C684 1.371 . S
C683 H692 0.930 . S
C684 C681 1.350 . S
C684 C683 1.371 . S
C684 H693 0.931 . S
C685 C681 1.328 . S
C685 C686 1.438 . S
C685 H694 0.925 1_556 S
C686 C682 1.323 . S
C686 C685 1.438 . S
C686 H695 0.933 . S
C687 Dy657 2.738 . S
C687 O667 1.255 . S
C687 O668 1.249 . S
C687 C681 1.511 1_554 S
H688 C674 0.930 . S
H689 C675 0.931 . S
H690 C676 0.931 . S
H691 C677 0.933 . S
H692 C683 0.930 . S
H693 C684 0.931 . S
H694 C685 0.925 1_554 S
H695 C686 0.933 . S
Dy696 O699 2.307 . S
Dy696 O701 2.395 . S
Dy696 O702 2.379 . S
Dy696 O704 2.339 . S
Dy696 O706 2.298 . S
Dy696 O710 2.275 . S
Dy696 C718 2.738 . S
Dy697 O700 2.298 . S
Dy697 O703 2.275 . S
Dy697 O705 2.307 . S
Dy697 O707 2.395 . S
Dy697 O708 2.379 . S
Dy697 O711 2.339 . S
Dy697 C727 2.738 . S
C698 O710 1.254 . S
C698 O711 1.257 . S
O699 Dy696 2.307 . S
O699 C709 1.266 . S
O700 Dy697 2.298 . S
O700 C709 1.236 . S
O701 Dy696 2.395 . S
O701 C718 1.255 . S
O702 Dy696 2.379 . S
O702 C718 1.249 . S
O703 Dy697 2.275 . S
O703 C719 1.254 . S
O704 Dy696 2.339 . S
O704 C719 1.257 . S
O705 Dy697 2.307 . S
O705 C720 1.266 . S
O706 Dy696 2.298 . S
O706 C720 1.236 . S
O707 Dy697 2.395 . S
O707 C727 1.255 . S
O708 Dy697 2.379 . S
O708 C727 1.249 . S
C709 O699 1.266 . S
C709 O700 1.236 . S
O710 Dy696 2.275 . S
O710 C698 1.254 . S
O711 Dy697 2.339 . S
O711 C698 1.257 . S
C712 C715 1.344 . S
C712 C716 1.328 . S
C712 C718 1.516 . S
C713 C714 1.304 . S
C713 C717 1.323 . S
C714 C713 1.304 . S
C714 C715 1.371 . S
C714 H728 0.930 . S
C715 C712 1.344 . S
C715 C714 1.371 . S
C715 H729 0.931 . S
C716 C712 1.328 . S
C716 C717 1.433 . S
C716 H730 0.931 . S
C717 C713 1.323 . S
C717 C716 1.433 . S
C717 H731 0.933 . S
C718 Dy696 2.738 . S
C718 O701 1.255 . S
C718 O702 1.249 . S
C718 C712 1.516 . S
C719 O703 1.254 . S
C719 O704 1.257 . S
C720 O705 1.266 . S
C720 O706 1.236 . S
C721 C724 1.344 . S
C721 C725 1.328 . S
C721 C727 1.516 . S
C722 C723 1.304 . S
C722 C726 1.323 . S
C723 C722 1.304 . S
C723 C724 1.371 . S
C723 H732 0.930 . S
C724 C721 1.344 . S
C724 C723 1.371 . S
C724 H733 0.931 . S
C725 C721 1.328 . S
C725 C726 1.433 . S
C725 H734 0.931 . S
C726 C722 1.323 . S
C726 C725 1.433 . S
C726 H735 0.933 . S
C727 Dy697 2.738 . S
C727 O707 1.255 . S
C727 O708 1.249 . S
C727 C721 1.516 . S
H728 C714 0.930 . S
H729 C715 0.931 . S
H730 C716 0.931 . S
H731 C717 0.933 . S
H732 C723 0.930 . S
H733 C724 0.931 . S
H734 C725 0.931 . S
H735 C726 0.933 . S
Dy736 O739 2.307 1_455 S
Dy736 O741 2.395 . S
Dy736 O742 2.379 . S
Dy736 O744 2.339 . S
Dy736 O746 2.298 . S
Dy736 O750 2.275 . S
Dy736 C758 2.738 . S
Dy737 O740 2.298 1_455 S
Dy737 O743 2.275 . S
Dy737 O745 2.307 . S
Dy737 O747 2.395 . S
Dy737 O748 2.379 . S
Dy737 O751 2.339 . S
Dy737 C767 2.738 . S
C738 O750 1.254 . S
C738 O751 1.257 . S
O739 Dy736 2.307 1_655 S
O739 C749 1.266 . S
O740 Dy737 2.298 1_655 S
O740 C749 1.236 . S
O741 Dy736 2.395 . S
O741 C758 1.255 . S
O742 Dy736 2.379 . S
O742 C758 1.249 . S
O743 Dy737 2.275 . S
O743 C759 1.254 . S
O744 Dy736 2.339 . S
O744 C759 1.257 . S
O745 Dy737 2.307 . S
O745 C760 1.266 . S
O746 Dy736 2.298 . S
O746 C760 1.236 . S
O747 Dy737 2.395 . S
O747 C767 1.255 . S
O748 Dy737 2.379 . S
O748 C767 1.249 . S
C749 O739 1.266 . S
C749 O740 1.236 . S
O750 Dy736 2.275 . S
O750 C738 1.254 . S
O751 Dy737 2.339 . S
O751 C738 1.257 . S
C752 C755 1.344 . S
C752 C756 1.328 . S
C752 C758 1.516 . S
C753 C754 1.304 . S
C753 C757 1.323 . S
C754 C753 1.304 . S
C754 C755 1.371 . S
C754 H768 0.930 . S
C755 C752 1.344 . S
C755 C754 1.371 . S
C755 H769 0.931 . S
C756 C752 1.328 . S
C756 C757 1.433 . S
C756 H770 0.931 . S
C757 C753 1.323 . S
C757 C756 1.433 . S
C757 H771 0.933 . S
C758 Dy736 2.738 . S
C758 O741 1.255 . S
C758 O742 1.249 . S
C758 C752 1.516 . S
C759 O743 1.254 . S
C759 O744 1.257 . S
C760 O745 1.266 . S
C760 O746 1.236 . S
C761 C764 1.344 . S
C761 C765 1.328 . S
C761 C767 1.516 1_655 S
C762 C763 1.304 . S
C762 C766 1.323 . S
C763 C762 1.304 . S
C763 C764 1.371 . S
C763 H772 0.930 . S
C764 C761 1.344 . S
C764 C763 1.371 . S
C764 H773 0.931 . S
C765 C761 1.328 . S
C765 C766 1.433 . S
C765 H774 0.931 . S
C766 C762 1.323 . S
C766 C765 1.433 . S
C766 H775 0.933 . S
C767 Dy737 2.738 . S
C767 O747 1.255 . S
C767 O748 1.249 . S
C767 C761 1.516 1_455 S
H768 C754 0.930 . S
H769 C755 0.931 . S
H770 C756 0.931 . S
H771 C757 0.933 . S
H772 C763 0.930 . S
H773 C764 0.931 . S
H774 C765 0.931 . S
H775 C766 0.933 . S
Dy776 O779 2.307 . S
Dy776 O781 2.395 . S
Dy776 O782 2.379 . S
Dy776 O784 2.339 . S
Dy776 O786 2.298 . S
Dy776 O790 2.275 . S
Dy776 C798 2.738 . S
Dy777 O780 2.298 . S
Dy777 O783 2.275 . S
Dy777 O785 2.307 . S
Dy777 O787 2.395 . S
Dy777 O788 2.379 . S
Dy777 O791 2.339 . S
Dy777 C807 2.738 . S
C778 O790 1.254 . S
C778 O791 1.257 . S
O779 Dy776 2.307 . S
O779 C789 1.266 . S
O780 Dy777 2.298 . S
O780 C789 1.236 . S
O781 Dy776 2.395 . S
O781 C798 1.255 . S
O782 Dy776 2.379 . S
O782 C798 1.249 . S
O783 Dy777 2.275 . S
O783 C799 1.254 . S
O784 Dy776 2.339 . S
O784 C799 1.257 . S
O785 Dy777 2.307 . S
O785 C800 1.266 . S
O786 Dy776 2.298 . S
O786 C800 1.236 . S
O787 Dy777 2.395 . S
O787 C807 1.255 . S
O788 Dy777 2.379 . S
O788 C807 1.249 . S
C789 O779 1.266 . S
C789 O780 1.236 . S
O790 Dy776 2.275 . S
O790 C778 1.254 . S
O791 Dy777 2.339 . S
O791 C778 1.257 . S
C792 C795 1.344 . S
C792 C796 1.328 . S
C792 C798 1.516 . S
C793 C794 1.304 . S
C793 C797 1.323 . S
C794 C793 1.304 . S
C794 C795 1.371 . S
C794 H808 0.930 . S
C795 C792 1.344 . S
C795 C794 1.371 . S
C795 H809 0.931 . S
C796 C792 1.328 . S
C796 C797 1.433 . S
C796 H810 0.931 . S
C797 C793 1.323 . S
C797 C796 1.433 . S
C797 H811 0.933 . S
C798 Dy776 2.738 . S
C798 O781 1.255 . S
C798 O782 1.249 . S
C798 C792 1.516 . S
C799 O783 1.254 . S
C799 O784 1.257 . S
C800 O785 1.266 . S
C800 O786 1.236 . S
C801 C804 1.344 . S
C801 C805 1.328 . S
C801 C807 1.516 . S
C802 C803 1.304 . S
C802 C806 1.323 . S
C803 C802 1.304 . S
C803 C804 1.371 . S
C803 H812 0.930 . S
C804 C801 1.344 . S
C804 C803 1.371 . S
C804 H813 0.931 . S
C805 C801 1.328 . S
C805 C806 1.433 . S
C805 H814 0.931 . S
C806 C802 1.323 . S
C806 C805 1.433 . S
C806 H815 0.933 . S
C807 Dy777 2.738 . S
C807 O787 1.255 . S
C807 O788 1.249 . S
C807 C801 1.516 . S
H808 C794 0.930 . S
H809 C795 0.931 . S
H810 C796 0.931 . S
H811 C797 0.933 . S
H812 C803 0.930 . S
H813 C804 0.931 . S
H814 C805 0.931 . S
H815 C806 0.933 . S
Dy816 O819 2.307 . S
Dy816 O821 2.395 . S
Dy816 O822 2.379 . S
Dy816 O824 2.339 . S
Dy816 O826 2.298 . S
Dy816 O830 2.275 . S
Dy816 C838 2.738 . S
Dy817 O820 2.298 . S
Dy817 O823 2.275 . S
Dy817 O825 2.307 . S
Dy817 O827 2.395 . S
Dy817 O828 2.379 . S
Dy817 O831 2.339 . S
Dy817 C847 2.738 . S
C818 O830 1.254 . S
C818 O831 1.257 . S
O819 Dy816 2.307 . S
O819 C829 1.266 . S
O820 Dy817 2.298 . S
O820 C829 1.236 . S
O821 Dy816 2.395 . S
O821 C838 1.255 . S
O822 Dy816 2.379 . S
O822 C838 1.249 . S
O823 Dy817 2.275 . S
O823 C839 1.254 . S
O824 Dy816 2.339 . S
O824 C839 1.257 . S
O825 Dy817 2.307 . S
O825 C840 1.266 . S
O826 Dy816 2.298 . S
O826 C840 1.236 . S
O827 Dy817 2.395 . S
O827 C847 1.255 . S
O828 Dy817 2.379 . S
O828 C847 1.249 . S
C829 O819 1.266 . S
C829 O820 1.236 . S
O830 Dy816 2.275 . S
O830 C818 1.254 . S
O831 Dy817 2.339 . S
O831 C818 1.257 . S
C832 C835 1.344 . S
C832 C836 1.328 . S
C832 C838 1.516 . S
C833 C834 1.304 . S
C833 C837 1.323 . S
C834 C833 1.304 . S
C834 C835 1.371 . S
C834 H848 0.930 . S
C835 C832 1.344 . S
C835 C834 1.371 . S
C835 H849 0.931 . S
C836 C832 1.328 . S
C836 C837 1.433 . S
C836 H850 0.931 . S
C837 C833 1.323 . S
C837 C836 1.433 . S
C837 H851 0.933 . S
C838 Dy816 2.738 . S
C838 O821 1.255 . S
C838 O822 1.249 . S
C838 C832 1.516 . S
C839 O823 1.254 . S
C839 O824 1.257 . S
C840 O825 1.266 . S
C840 O826 1.236 . S
C841 C844 1.344 . S
C841 C845 1.328 . S
C841 C847 1.516 . S
C842 C843 1.304 . S
C842 C846 1.323 . S
C843 C842 1.304 . S
C843 C844 1.371 . S
C843 H852 0.930 . S
C844 C841 1.344 . S
C844 C843 1.371 . S
C844 H853 0.931 . S
C845 C841 1.328 . S
C845 C846 1.433 . S
C845 H854 0.931 . S
C846 C842 1.323 . S
C846 C845 1.433 . S
C846 H855 0.933 1_556 S
C847 Dy817 2.738 . S
C847 O827 1.255 . S
C847 O828 1.249 . S
C847 C841 1.516 . S
H848 C834 0.930 . S
H849 C835 0.931 . S
H850 C836 0.931 . S
H851 C837 0.933 . S
H852 C843 0.930 . S
H853 C844 0.931 . S
H854 C845 0.931 . S
H855 C846 0.933 1_554 S
Dy856 O859 2.307 . S
Dy856 O861 2.395 . S
Dy856 O862 2.379 . S
Dy856 O864 2.339 . S
Dy856 O866 2.298 . S
Dy856 O870 2.275 . S
Dy856 C878 2.738 . S
Dy857 O860 2.298 . S
Dy857 O863 2.275 . S
Dy857 O865 2.307 . S
Dy857 O867 2.395 . S
Dy857 O868 2.379 . S
Dy857 O871 2.339 . S
Dy857 C887 2.738 . S
C858 O870 1.254 . S
C858 O871 1.257 . S
O859 Dy856 2.307 . S
O859 C869 1.266 . S
O860 Dy857 2.298 . S
O860 C869 1.236 . S
O861 Dy856 2.395 . S
O861 C878 1.255 . S
O862 Dy856 2.379 . S
O862 C878 1.249 . S
O863 Dy857 2.275 . S
O863 C879 1.254 . S
O864 Dy856 2.339 . S
O864 C879 1.257 . S
O865 Dy857 2.307 . S
O865 C880 1.266 . S
O866 Dy856 2.298 . S
O866 C880 1.236 . S
O867 Dy857 2.395 . S
O867 C887 1.255 . S
O868 Dy857 2.379 . S
O868 C887 1.249 . S
C869 O859 1.266 . S
C869 O860 1.236 . S
O870 Dy856 2.275 . S
O870 C858 1.254 . S
O871 Dy857 2.339 . S
O871 C858 1.257 . S
C872 C875 1.344 . S
C872 C876 1.328 . S
C872 C878 1.516 . S
C873 C874 1.304 . S
C873 C877 1.323 . S
C874 C873 1.304 . S
C874 C875 1.371 . S
C874 H888 0.930 . S
C875 C872 1.344 . S
C875 C874 1.371 . S
C875 H889 0.931 . S
C876 C872 1.328 . S
C876 C877 1.433 . S
C876 H890 0.931 . S
C877 C873 1.323 . S
C877 C876 1.433 . S
C877 H891 0.933 . S
C878 Dy856 2.738 . S
C878 O861 1.255 . S
C878 O862 1.249 . S
C878 C872 1.516 . S
C879 O863 1.254 . S
C879 O864 1.257 . S
C880 O865 1.266 . S
C880 O866 1.236 . S
C881 C884 1.344 . S
C881 C885 1.328 . S
C881 C887 1.516 . S
C882 C883 1.304 . S
C882 C886 1.323 . S
C883 C882 1.304 . S
C883 C884 1.371 . S
C883 H892 0.930 . S
C884 C881 1.344 . S
C884 C883 1.371 . S
C884 H893 0.931 . S
C885 C881 1.328 . S
C885 C886 1.433 . S
C885 H894 0.931 . S
C886 C882 1.323 . S
C886 C885 1.433 . S
C886 H895 0.933 . S
C887 Dy857 2.738 . S
C887 O867 1.255 . S
C887 O868 1.249 . S
C887 C881 1.516 . S
H888 C874 0.930 . S
H889 C875 0.931 . S
H890 C876 0.931 . S
H891 C877 0.933 . S
H892 C883 0.930 . S
H893 C884 0.931 . S
H894 C885 0.931 . S
H895 C886 0.933 . S
Dy896 O899 2.307 . S
Dy896 O901 2.395 . S
Dy896 O902 2.379 . S
Dy896 O904 2.339 . S
Dy896 O906 2.298 . S
Dy896 O910 2.275 . S
Dy896 C918 2.738 . S
Dy897 O900 2.298 . S
Dy897 O903 2.275 . S
Dy897 O905 2.307 . S
Dy897 O907 2.395 . S
Dy897 O908 2.379 . S
Dy897 O911 2.339 . S
Dy897 C927 2.738 . S
C898 O910 1.254 . S
C898 O911 1.257 . S
O899 Dy896 2.307 . S
O899 C909 1.266 . S
O900 Dy897 2.298 . S
O900 C909 1.236 . S
O901 Dy896 2.395 . S
O901 C918 1.255 . S
O902 Dy896 2.379 . S
O902 C918 1.249 . S
O903 Dy897 2.275 . S
O903 C919 1.254 . S
O904 Dy896 2.339 . S
O904 C919 1.257 . S
O905 Dy897 2.307 . S
O905 C920 1.266 . S
O906 Dy896 2.298 . S
O906 C920 1.236 . S
O907 Dy897 2.395 . S
O907 C927 1.255 . S
O908 Dy897 2.379 . S
O908 C927 1.249 . S
C909 O899 1.266 . S
C909 O900 1.236 . S
O910 Dy896 2.275 . S
O910 C898 1.254 . S
O911 Dy897 2.339 . S
O911 C898 1.257 . S
C912 C915 1.344 . S
C912 C916 1.328 . S
C912 C918 1.516 . S
C913 C914 1.304 . S
C913 C917 1.323 . S
C914 C913 1.304 . S
C914 C915 1.371 . S
C914 H928 0.930 . S
C915 C912 1.344 . S
C915 C914 1.371 . S
C915 H929 0.931 . S
C916 C912 1.328 . S
C916 C917 1.433 . S
C916 H930 0.931 . S
C917 C913 1.323 . S
C917 C916 1.433 . S
C917 H931 0.933 . S
C918 Dy896 2.738 . S
C918 O901 1.255 . S
C918 O902 1.249 . S
C918 C912 1.516 . S
C919 O903 1.254 . S
C919 O904 1.257 . S
C920 O905 1.266 . S
C920 O906 1.236 . S
C921 C924 1.344 . S
C921 C925 1.328 . S
C921 C927 1.516 . S
C922 C923 1.304 . S
C922 C926 1.323 . S
C923 C922 1.304 . S
C923 C924 1.371 . S
C923 H932 0.930 . S
C924 C921 1.344 . S
C924 C923 1.371 . S
C924 H933 0.931 . S
C925 C921 1.328 . S
C925 C926 1.433 . S
C925 H934 0.931 . S
C926 C922 1.323 . S
C926 C925 1.433 . S
C926 H935 0.933 . S
C927 Dy897 2.738 . S
C927 O907 1.255 . S
C927 O908 1.249 . S
C927 C921 1.516 . S
H928 C914 0.930 . S
H929 C915 0.931 . S
H930 C916 0.931 . S
H931 C917 0.933 . S
H932 C923 0.930 . S
H933 C924 0.931 . S
H934 C925 0.931 . S
H935 C926 0.933 . S
Dy936 O939 2.307 . S
Dy936 O941 2.395 1_455 S
Dy936 O942 2.379 1_455 S
Dy936 O944 2.339 . S
Dy936 O946 2.298 . S
Dy936 O950 2.275 . S
Dy936 C958 2.738 1_455 S
Dy937 O940 2.298 . S
Dy937 O943 2.275 . S
Dy937 O945 2.307 . S
Dy937 O947 2.395 . S
Dy937 O948 2.379 1_554 S
Dy937 O951 2.339 1_554 S
Dy937 C967 2.738 . S
C938 O950 1.254 1_556 S
C938 O951 1.257 . S
O939 Dy936 2.307 . S
O939 C949 1.266 . S
O940 Dy937 2.298 . S
O940 C949 1.236 . S
O941 Dy936 2.395 1_655 S
O941 C958 1.255 . S
O942 Dy936 2.379 1_655 S
O942 C958 1.249 . S
O943 Dy937 2.275 . S
O943 C959 1.254 . S
O944 Dy936 2.339 . S
O944 C959 1.257 . S
O945 Dy937 2.307 . S
O945 C960 1.266 . S
O946 Dy936 2.298 . S
O946 C960 1.236 . S
O947 Dy937 2.395 . S
O947 C967 1.255 . S
O948 Dy937 2.379 1_556 S
O948 C967 1.249 1_556 S
C949 O939 1.266 . S
C949 O940 1.236 . S
O950 Dy936 2.275 . S
O950 C938 1.254 1_554 S
O951 Dy937 2.339 1_556 S
O951 C938 1.257 . S
C952 C955 1.344 . S
C952 C956 1.328 . S
C952 C958 1.516 . S
C953 C954 1.304 . S
C953 C957 1.323 . S
C954 C953 1.304 . S
C954 C955 1.371 . S
C954 H968 0.930 . S
C955 C952 1.344 . S
C955 C954 1.371 . S
C955 H969 0.931 . S
C956 C952 1.328 . S
C956 C957 1.433 . S
C956 H970 0.931 . S
C957 C953 1.323 . S
C957 C956 1.433 . S
C957 H971 0.933 . S
C958 Dy936 2.738 1_655 S
C958 O941 1.255 . S
C958 O942 1.249 . S
C958 C952 1.516 . S
C959 O943 1.254 . S
C959 O944 1.257 . S
C960 O945 1.266 . S
C960 O946 1.236 . S
C961 C964 1.344 . S
C961 C965 1.328 1_554 S
C961 C967 1.516 . S
C962 C963 1.304 . S
C962 C966 1.323 1_554 S
C963 C962 1.304 . S
C963 C964 1.371 . S
C963 H972 0.930 . S
C964 C961 1.344 . S
C964 C963 1.371 . S
C964 H973 0.931 . S
C965 C961 1.328 1_556 S
C965 C966 1.433 . S
C965 H974 0.931 . S
C966 C962 1.323 1_556 S
C966 C965 1.433 . S
C966 H975 0.933 . S
C967 Dy937 2.738 . S
C967 O947 1.255 . S
C967 O948 1.249 1_554 S
C967 C961 1.516 . S
H968 C954 0.930 . S
H969 C955 0.931 . S
H970 C956 0.931 . S
H971 C957 0.933 . S
H972 C963 0.930 . S
H973 C964 0.931 . S
H974 C965 0.931 . S
H975 C966 0.933 . S
C976 C977 1.363 . S
C976 C982 1.379 . S
C976 N984 1.356 . S
C977 C976 1.363 . S
C977 C983 1.363 1_455 S
C978 C979 1.363 . S
C978 C983 1.379 1_455 S
C978 N985 1.356 1_455 S
C979 C978 1.363 . S
C979 C982 1.363 . S
N980 C982 1.356 . S
N980 H992 0.984 . S
N980 H993 0.985 . S
N981 C983 1.356 1_556 S
N981 H986 0.984 . S
N981 H987 0.985 . S
C982 C976 1.379 . S
C982 C979 1.363 . S
C982 N980 1.356 . S
C983 C977 1.363 1_655 S
C983 C978 1.379 1_655 S
C983 N981 1.356 1_554 S
N984 C976 1.356 . S
N984 H990 0.984 . S
N984 H991 0.984 . S
N985 C978 1.356 1_655 S
N985 H988 0.984 1_655 S
N985 H989 0.985 1_554 S
H986 N981 0.984 . S
H987 N981 0.985 . S
H988 N985 0.984 1_455 S
H989 N985 0.985 1_556 S
H990 N984 0.984 . S
H991 N984 0.984 . S
H992 N980 0.984 . S
H993 N980 0.985 . S
C994 C995 1.363 . S
C994 C1000 1.379 . S
C994 N1002 1.356 . S
C995 C994 1.363 . S
C995 C1001 1.363 . S
C996 C997 1.363 . S
C996 C1001 1.379 . S
C996 N1003 1.356 . S
C997 C996 1.363 . S
C997 C1000 1.363 . S
N998 C1000 1.356 . S
N998 H1010 0.984 . S
N998 H1011 0.985 . S
N999 C1001 1.356 . S
N999 H1004 0.984 . S
N999 H1005 0.985 . S
C1000 C994 1.379 . S
C1000 C997 1.363 . S
C1000 N998 1.356 . S
C1001 C995 1.363 . S
C1001 C996 1.379 . S
C1001 N999 1.356 . S
N1002 C994 1.356 . S
N1002 H1008 0.984 . S
N1002 H1009 0.984 . S
N1003 C996 1.356 . S
N1003 H1006 0.984 . S
N1003 H1007 0.985 . S
H1004 N999 0.984 . S
H1005 N999 0.985 . S
H1006 N1003 0.984 . S
H1007 N1003 0.985 . S
H1008 N1002 0.984 . S
H1009 N1002 0.984 . S
H1010 N998 0.984 . S
H1011 N998 0.985 . S
C1012 C1013 1.363 . S
C1012 C1018 1.379 . S
C1012 N1020 1.356 . S
C1013 C1012 1.363 . S
C1013 C1019 1.363 . S
C1014 C1015 1.363 . S
C1014 C1019 1.379 . S
C1014 N1021 1.356 . S
C1015 C1014 1.363 . S
C1015 C1018 1.363 . S
N1016 C1018 1.356 . S
N1016 H1028 0.984 . S
N1016 H1029 0.985 . S
N1017 C1019 1.356 . S
N1017 H1022 0.984 . S
N1017 H1023 0.985 . S
C1018 C1012 1.379 . S
C1018 C1015 1.363 . S
C1018 N1016 1.356 . S
C1019 C1013 1.363 . S
C1019 C1014 1.379 . S
C1019 N1017 1.356 . S
N1020 C1012 1.356 . S
N1020 H1026 0.984 . S
N1020 H1027 0.984 . S
N1021 C1014 1.356 . S
N1021 H1024 0.984 . S
N1021 H1025 0.985 . S
H1022 N1017 0.984 . S
H1023 N1017 0.985 . S
H1024 N1021 0.984 . S
H1025 N1021 0.985 . S
H1026 N1020 0.984 . S
H1027 N1020 0.984 . S
H1028 N1016 0.984 . S
H1029 N1016 0.985 . S
C1030 C1031 1.363 . S
C1030 C1036 1.379 . S
C1030 N1038 1.356 . S
C1031 C1030 1.363 . S
C1031 C1037 1.363 . S
C1032 C1033 1.363 . S
C1032 C1037 1.379 . S
C1032 N1039 1.356 . S
C1033 C1032 1.363 . S
C1033 C1036 1.363 . S
N1034 C1036 1.356 . S
N1034 H1046 0.984 . S
N1034 H1047 0.985 . S
N1035 C1037 1.356 . S
N1035 H1040 0.984 . S
N1035 H1041 0.985 . S
C1036 C1030 1.379 . S
C1036 C1033 1.363 . S
C1036 N1034 1.356 . S
C1037 C1031 1.363 . S
C1037 C1032 1.379 . S
C1037 N1035 1.356 . S
N1038 C1030 1.356 . S
N1038 H1044 0.984 . S
N1038 H1045 0.984 . S
N1039 C1032 1.356 . S
N1039 H1042 0.984 . S
N1039 H1043 0.985 . S
H1040 N1035 0.984 . S
H1041 N1035 0.985 . S
H1042 N1039 0.984 . S
H1043 N1039 0.985 . S
H1044 N1038 0.984 . S
H1045 N1038 0.984 . S
H1046 N1034 0.984 . S
H1047 N1034 0.985 . S
C1048 C1049 1.363 . S
C1048 C1054 1.379 . S
C1048 N1056 1.356 . S
C1049 C1048 1.363 . S
C1049 C1055 1.363 . S
C1050 C1051 1.363 . S
C1050 C1055 1.379 . S
C1050 N1057 1.356 . S
C1051 C1050 1.363 . S
C1051 C1054 1.363 . S
N1052 C1054 1.356 . S
N1052 H1064 0.984 . S
N1052 H1065 0.985 . S
N1053 C1055 1.356 . S
N1053 H1058 0.984 . S
N1053 H1059 0.985 . S
C1054 C1048 1.379 . S
C1054 C1051 1.363 . S
C1054 N1052 1.356 . S
C1055 C1049 1.363 . S
C1055 C1050 1.379 . S
C1055 N1053 1.356 . S
N1056 C1048 1.356 . S
N1056 H1062 0.984 . S
N1056 H1063 0.984 . S
N1057 C1050 1.356 . S
N1057 H1060 0.984 . S
N1057 H1061 0.985 . S
H1058 N1053 0.984 . S
H1059 N1053 0.985 . S
H1060 N1057 0.984 . S
H1061 N1057 0.985 . S
H1062 N1056 0.984 . S
H1063 N1056 0.984 . S
H1064 N1052 0.984 . S
H1065 N1052 0.985 . S
C1066 C1067 1.363 . S
C1066 C1072 1.379 . S
C1066 N1074 1.356 . S
C1067 C1066 1.363 . S
C1067 C1073 1.363 . S
C1068 C1069 1.363 . S
C1068 C1073 1.379 . S
C1068 N1075 1.356 . S
C1069 C1068 1.363 . S
C1069 C1072 1.363 . S
N1070 C1072 1.356 . S
N1070 H1082 0.984 . S
N1070 H1083 0.985 . S
N1071 C1073 1.356 . S
N1071 H1076 0.984 . S
N1071 H1077 0.985 . S
C1072 C1066 1.379 . S
C1072 C1069 1.363 . S
C1072 N1070 1.356 . S
C1073 C1067 1.363 . S
C1073 C1068 1.379 . S
C1073 N1071 1.356 . S
N1074 C1066 1.356 . S
N1074 H1080 0.984 . S
N1074 H1081 0.984 . S
N1075 C1068 1.356 . S
N1075 H1078 0.984 . S
N1075 H1079 0.985 . S
H1076 N1071 0.984 . S
H1077 N1071 0.985 . S
H1078 N1075 0.984 . S
H1079 N1075 0.985 . S
H1080 N1074 0.984 . S
H1081 N1074 0.984 . S
H1082 N1070 0.984 . S
H1083 N1070 0.985 . S
C1084 C1085 1.363 . S
C1084 C1090 1.379 . S
C1084 N1092 1.356 . S
C1085 C1084 1.363 . S
C1085 C1091 1.363 . S
C1086 C1087 1.363 . S
C1086 C1091 1.379 . S
C1086 N1093 1.356 . S
C1087 C1086 1.363 . S
C1087 C1090 1.363 . S
N1088 C1090 1.356 . S
N1088 H1100 0.984 . S
N1088 H1101 0.985 . S
N1089 C1091 1.356 . S
N1089 H1094 0.984 . S
N1089 H1095 0.985 . S
C1090 C1084 1.379 . S
C1090 C1087 1.363 . S
C1090 N1088 1.356 . S
C1091 C1085 1.363 . S
C1091 C1086 1.379 . S
C1091 N1089 1.356 . S
N1092 C1084 1.356 . S
N1092 H1098 0.984 . S
N1092 H1099 0.984 . S
N1093 C1086 1.356 . S
N1093 H1096 0.984 . S
N1093 H1097 0.985 . S
H1094 N1089 0.984 . S
H1095 N1089 0.985 . S
H1096 N1093 0.984 . S
H1097 N1093 0.985 . S
H1098 N1092 0.984 . S
H1099 N1092 0.984 . S
H1100 N1088 0.984 . S
H1101 N1088 0.985 . S
C1102 C1103 1.363 . S
C1102 C1108 1.379 . S
C1102 N1110 1.356 . S
C1103 C1102 1.363 . S
C1103 C1109 1.363 . S
C1104 C1105 1.363 . S
C1104 C1109 1.379 . S
C1104 N1111 1.356 . S
C1105 C1104 1.363 . S
C1105 C1108 1.363 . S
N1106 C1108 1.356 . S
N1106 H1118 0.984 . S
N1106 H1119 0.985 . S
N1107 C1109 1.356 . S
N1107 H1112 0.984 . S
N1107 H1113 0.985 . S
C1108 C1102 1.379 . S
C1108 C1105 1.363 . S
C1108 N1106 1.356 . S
C1109 C1103 1.363 . S
C1109 C1104 1.379 . S
C1109 N1107 1.356 . S
N1110 C1102 1.356 . S
N1110 H1116 0.984 . S
N1110 H1117 0.984 . S
N1111 C1104 1.356 . S
N1111 H1114 0.984 . S
N1111 H1115 0.985 . S
H1112 N1107 0.984 . S
H1113 N1107 0.985 . S
H1114 N1111 0.984 . S
H1115 N1111 0.985 . S
H1116 N1110 0.984 . S
H1117 N1110 0.984 . S
H1118 N1106 0.984 . S
H1119 N1106 0.985 . S
C1120 C1121 1.363 1_455 S
C1120 C1126 1.379 . S
C1120 N1128 1.336 1_445 S
C1121 C1120 1.363 1_655 S
C1121 C1127 1.363 . S
C1122 C1123 1.363 . S
C1122 C1127 1.379 1_455 S
C1122 N1129 1.356 . S
C1123 C1122 1.363 . S
C1123 C1126 1.363 . S
N1124 C1126 1.356 . S
N1124 H1136 0.963 1_545 S
N1124 H1137 0.985 . S
N1125 C1127 1.356 . S
N1125 H1130 0.984 . S
N1125 H1131 0.985 . S
C1126 C1120 1.379 . S
C1126 C1123 1.363 . S
C1126 N1124 1.356 . S
C1127 C1121 1.363 . S
C1127 C1122 1.379 1_655 S
C1127 N1125 1.356 . S
N1128 C1120 1.336 1_665 S
N1128 H1134 1.006 1_655 S
N1128 H1135 0.984 . S
N1129 C1122 1.356 . S
N1129 H1132 0.984 . S
N1129 H1133 0.985 . S
H1130 N1125 0.984 . S
H1131 N1125 0.985 . S
H1132 N1129 0.984 . S
H1133 N1129 0.985 . S
H1134 N1128 1.006 1_455 S
H1135 N1128 0.984 . S
H1136 N1124 0.963 1_565 S
H1137 N1124 0.985 . S
C1138 C1139 1.363 . S
C1138 C1144 1.379 . S
C1138 N1146 1.356 . S
C1139 C1138 1.363 . S
C1139 C1145 1.363 . S
C1140 C1141 1.363 . S
C1140 C1145 1.379 . S
C1140 N1147 1.356 . S
C1141 C1140 1.363 . S
C1141 C1144 1.363 . S
N1142 C1144 1.356 . S
N1142 H1154 0.984 . S
N1142 H1155 0.985 . S
N1143 C1145 1.356 . S
N1143 H1148 0.984 . S
N1143 H1149 0.985 . S
C1144 C1138 1.379 . S
C1144 C1141 1.363 . S
C1144 N1142 1.356 . S
C1145 C1139 1.363 . S
C1145 C1140 1.379 . S
C1145 N1143 1.356 . S
N1146 C1138 1.356 . S
N1146 H1152 0.984 . S
N1146 H1153 0.984 . S
N1147 C1140 1.356 . S
N1147 H1150 0.984 . S
N1147 H1151 0.985 . S
H1148 N1143 0.984 . S
H1149 N1143 0.985 . S
H1150 N1147 0.984 . S
H1151 N1147 0.985 . S
H1152 N1146 0.984 . S
H1153 N1146 0.984 . S
H1154 N1142 0.984 . S
H1155 N1142 0.985 . S
C1156 C1157 1.363 . S
C1156 C1162 1.379 . S
C1156 N1164 1.356 . S
C1157 C1156 1.363 . S
C1157 C1163 1.363 . S
C1158 C1159 1.363 . S
C1158 C1163 1.379 . S
C1158 N1165 1.356 . S
C1159 C1158 1.363 . S
C1159 C1162 1.363 . S
N1160 C1162 1.356 . S
N1160 H1172 0.984 . S
N1160 H1173 0.985 . S
N1161 C1163 1.356 . S
N1161 H1166 0.984 . S
N1161 H1167 0.985 . S
C1162 C1156 1.379 . S
C1162 C1159 1.363 . S
C1162 N1160 1.356 . S
C1163 C1157 1.363 . S
C1163 C1158 1.379 . S
C1163 N1161 1.356 . S
N1164 C1156 1.356 . S
N1164 H1170 0.984 . S
N1164 H1171 0.984 . S
N1165 C1158 1.356 . S
N1165 H1168 0.984 . S
N1165 H1169 0.985 . S
H1166 N1161 0.984 . S
H1167 N1161 0.985 . S
H1168 N1165 0.984 . S
H1169 N1165 0.985 . S
H1170 N1164 0.984 . S
H1171 N1164 0.984 . S
H1172 N1160 0.984 . S
H1173 N1160 0.985 . S
C1174 C1175 1.363 . S
C1174 C1180 1.379 . S
C1174 N1182 1.356 . S
C1175 C1174 1.363 . S
C1175 C1181 1.363 . S
C1176 C1177 1.363 . S
C1176 C1181 1.379 . S
C1176 N1183 1.356 . S
C1177 C1176 1.363 . S
C1177 C1180 1.363 . S
N1178 C1180 1.356 . S
N1178 H1190 0.984 . S
N1178 H1191 0.985 . S
N1179 C1181 1.356 . S
N1179 H1184 0.984 1_556 S
N1179 H1185 0.985 . S
C1180 C1174 1.379 . S
C1180 C1177 1.363 . S
C1180 N1178 1.356 . S
C1181 C1175 1.363 . S
C1181 C1176 1.379 . S
C1181 N1179 1.356 . S
N1182 C1174 1.356 . S
N1182 H1188 0.984 . S
N1182 H1189 0.984 . S
N1183 C1176 1.356 . S
N1183 H1186 0.984 . S
N1183 H1187 0.985 . S
H1184 N1179 0.984 1_554 S
H1185 N1179 0.985 . S
H1186 N1183 0.984 . S
H1187 N1183 0.985 . S
H1188 N1182 0.984 . S
H1189 N1182 0.984 . S
H1190 N1178 0.984 . S
H1191 N1178 0.985 . S
C1192 C1193 1.363 . S
C1192 C1198 1.379 . S
C1192 N1200 1.356 . S
C1193 C1192 1.363 . S
C1193 C1199 1.363 1_655 S
C1194 C1195 1.363 . S
C1194 C1199 1.379 . S
C1194 N1201 1.356 . S
C1195 C1194 1.363 . S
C1195 C1198 1.363 1_455 S
N1196 C1198 1.356 . S
N1196 H1208 0.984 1_545 S
N1196 H1209 0.985 1_655 S
N1197 C1199 1.356 . S
N1197 H1202 0.984 . S
N1197 H1203 0.985 . S
C1198 C1192 1.379 . S
C1198 C1195 1.363 1_655 S
C1198 N1196 1.356 . S
C1199 C1193 1.363 1_455 S
C1199 C1194 1.379 . S
C1199 N1197 1.356 . S
N1200 C1192 1.356 . S
N1200 H1206 0.984 1_545 S
N1200 H1207 0.984 . S
N1201 C1194 1.356 . S
N1201 H1204 0.984 . S
N1201 H1205 0.985 . S
H1202 N1197 0.984 . S
H1203 N1197 0.985 . S
H1204 N1201 0.984 . S
H1205 N1201 0.985 . S
H1206 N1200 0.984 1_565 S
H1207 N1200 0.984 . S
H1208 N1196 0.984 1_565 S
H1209 N1196 0.985 1_455 S
C1210 C1211 1.363 . S
C1210 C1216 1.379 . S
C1210 N1218 1.356 . S
C1211 C1210 1.363 . S
C1211 C1217 1.363 . S
C1212 C1213 1.363 . S
C1212 C1217 1.379 . S
C1212 N1219 1.356 . S
C1213 C1212 1.363 . S
C1213 C1216 1.363 . S
N1214 C1216 1.356 . S
N1214 H1226 0.984 . S
N1214 H1227 0.985 . S
N1215 C1217 1.356 . S
N1215 H1220 0.984 . S
N1215 H1221 0.985 . S
C1216 C1210 1.379 . S
C1216 C1213 1.363 . S
C1216 N1214 1.356 . S
C1217 C1211 1.363 . S
C1217 C1212 1.379 . S
C1217 N1215 1.356 . S
N1218 C1210 1.356 . S
N1218 H1224 0.984 . S
N1218 H1225 0.984 . S
N1219 C1212 1.356 . S
N1219 H1222 0.984 . S
N1219 H1223 0.985 . S
H1220 N1215 0.984 . S
H1221 N1215 0.985 . S
H1222 N1219 0.984 . S
H1223 N1219 0.985 . S
H1224 N1218 0.984 . S
H1225 N1218 0.984 . S
H1226 N1214 0.984 . S
H1227 N1214 0.985 . S
C1228 C1229 1.363 . S
C1228 C1234 1.379 . S
C1228 N1236 1.356 . S
C1229 C1228 1.363 . S
C1229 C1235 1.363 . S
C1230 C1231 1.363 . S
C1230 C1235 1.379 . S
C1230 N1237 1.356 . S
C1231 C1230 1.363 . S
C1231 C1234 1.363 . S
N1232 C1234 1.356 . S
N1232 H1244 0.984 . S
N1232 H1245 0.985 . S
N1233 C1235 1.356 . S
N1233 H1238 0.984 . S
N1233 H1239 0.985 . S
C1234 C1228 1.379 . S
C1234 C1231 1.363 . S
C1234 N1232 1.356 . S
C1235 C1229 1.363 . S
C1235 C1230 1.379 . S
C1235 N1233 1.356 . S
N1236 C1228 1.356 . S
N1236 H1242 0.984 . S
N1236 H1243 0.984 . S
N1237 C1230 1.356 . S
N1237 H1240 0.984 . S
N1237 H1241 0.985 . S
H1238 N1233 0.984 . S
H1239 N1233 0.985 . S
H1240 N1237 0.984 . S
H1241 N1237 0.985 . S
H1242 N1236 0.984 . S
H1243 N1236 0.984 . S
H1244 N1232 0.984 . S
H1245 N1232 0.985 . S
C1246 C1247 1.363 . S
C1246 C1252 1.379 . S
C1246 N1254 1.356 . S
C1247 C1246 1.363 . S
C1247 C1253 1.363 . S
C1248 C1249 1.363 . S
C1248 C1253 1.379 . S
C1248 N1255 1.356 . S
C1249 C1248 1.363 . S
C1249 C1252 1.363 . S
N1250 C1252 1.356 . S
N1250 H1262 0.984 . S
N1250 H1263 0.985 . S
N1251 C1253 1.356 . S
N1251 H1256 0.984 . S
N1251 H1257 0.985 . S
C1252 C1246 1.379 . S
C1252 C1249 1.363 . S
C1252 N1250 1.356 . S
C1253 C1247 1.363 . S
C1253 C1248 1.379 . S
C1253 N1251 1.356 . S
N1254 C1246 1.356 . S
N1254 H1260 0.984 . S
N1254 H1261 0.984 . S
N1255 C1248 1.356 . S
N1255 H1258 0.984 . S
N1255 H1259 0.985 . S
H1256 N1251 0.984 . S
H1257 N1251 0.985 . S
H1258 N1255 0.984 . S
H1259 N1255 0.985 . S
H1260 N1254 0.984 . S
H1261 N1254 0.984 . S
H1262 N1250 0.984 . S
H1263 N1250 0.985 . S
C1264 C1265 1.363 . S
C1264 C1270 1.379 . S
C1264 N1272 1.356 . S
C1265 C1264 1.363 . S
C1265 C1271 1.363 1_565 S
C1266 C1267 1.363 . S
C1266 C1271 1.379 . S
C1266 N1273 1.356 . S
C1267 C1266 1.363 . S
C1267 C1270 1.363 1_545 S
N1268 C1270 1.356 . S
N1268 H1280 0.984 . S
N1268 H1281 0.985 . S
N1269 C1271 1.356 . S
N1269 H1274 0.984 1_544 S
N1269 H1275 0.985 . S
C1270 C1264 1.379 . S
C1270 C1267 1.363 1_565 S
C1270 N1268 1.356 . S
C1271 C1265 1.363 1_545 S
C1271 C1266 1.379 . S
C1271 N1269 1.356 . S
N1272 C1264 1.356 . S
N1272 H1278 0.984 . S
N1272 H1279 0.976 1_554 S
N1273 C1266 1.356 . S
N1273 H1276 0.984 . S
N1273 H1277 0.985 . S
H1274 N1269 0.984 1_566 S
H1275 N1269 0.985 . S
H1276 N1273 0.984 . S
H1277 N1273 0.985 . S
H1278 N1272 0.984 . S
H1279 N1272 0.976 1_556 S
H1280 N1268 0.984 . S
H1281 N1268 0.985 . S
C1282 C1283 1.363 . S
C1282 C1288 1.379 . S
C1282 N1290 1.356 . S
C1283 C1282 1.363 . S
C1283 C1289 1.363 . S
C1284 C1285 1.363 . S
C1284 C1289 1.379 . S
C1284 N1291 1.356 . S
C1285 C1284 1.363 . S
C1285 C1288 1.363 . S
N1286 C1288 1.356 . S
N1286 H1298 0.984 . S
N1286 H1299 0.985 . S
N1287 C1289 1.356 1_556 S
N1287 H1292 0.985 1_556 S
N1287 H1293 0.985 . S
C1288 C1282 1.379 . S
C1288 C1285 1.363 . S
C1288 N1286 1.356 . S
C1289 C1283 1.363 . S
C1289 C1284 1.379 . S
C1289 N1287 1.356 1_554 S
N1290 C1282 1.356 . S
N1290 H1296 0.984 . S
N1290 H1297 0.984 . S
N1291 C1284 1.356 . S
N1291 H1294 0.984 . S
N1291 H1295 0.985 1_554 S
H1292 N1287 0.985 1_554 S
H1293 N1287 0.985 . S
H1294 N1291 0.984 . S
H1295 N1291 0.985 1_556 S
H1296 N1290 0.984 . S
H1297 N1290 0.984 . S
H1298 N1286 0.984 . S
H1299 N1286 0.985 . S
C1300 C1301 1.363 . S
C1300 C1306 1.379 . S
C1300 N1308 1.356 . S
C1301 C1300 1.363 . S
C1301 C1307 1.363 . S
C1302 C1303 1.363 . S
C1302 C1307 1.379 . S
C1302 N1309 1.356 . S
C1303 C1302 1.363 . S
C1303 C1306 1.363 . S
N1304 C1306 1.356 . S
N1304 H1316 0.984 . S
N1304 H1317 0.985 . S
N1305 C1307 1.356 . S
N1305 H1310 0.984 . S
N1305 H1311 0.985 . S
C1306 C1300 1.379 . S
C1306 C1303 1.363 . S
C1306 N1304 1.356 . S
C1307 C1301 1.363 . S
C1307 C1302 1.379 . S
C1307 N1305 1.356 . S
N1308 C1300 1.356 . S
N1308 H1314 0.984 . S
N1308 H1315 0.984 . S
N1309 C1302 1.356 . S
N1309 H1312 0.984 . S
N1309 H1313 0.985 . S
H1310 N1305 0.984 . S
H1311 N1305 0.985 . S
H1312 N1309 0.984 . S
H1313 N1309 0.985 . S
H1314 N1308 0.984 . S
H1315 N1308 0.984 . S
H1316 N1304 0.984 . S
H1317 N1304 0.985 . S
C1318 C1319 1.363 . S
C1318 C1324 1.379 . S
C1318 N1326 1.356 . S
C1319 C1318 1.363 . S
C1319 C1325 1.363 . S
C1320 C1321 1.363 . S
C1320 C1325 1.379 . S
C1320 N1327 1.356 . S
C1321 C1320 1.363 . S
C1321 C1324 1.363 . S
N1322 C1324 1.356 . S
N1322 H1334 0.984 . S
N1322 H1335 0.985 . S
N1323 C1325 1.356 . S
N1323 H1328 0.984 . S
N1323 H1329 0.985 . S
C1324 C1318 1.379 . S
C1324 C1321 1.363 . S
C1324 N1322 1.356 . S
C1325 C1319 1.363 . S
C1325 C1320 1.379 . S
C1325 N1323 1.356 . S
N1326 C1318 1.356 . S
N1326 H1332 0.984 . S
N1326 H1333 0.984 . S
N1327 C1320 1.356 . S
N1327 H1330 0.984 . S
N1327 H1331 0.985 . S
H1328 N1323 0.984 . S
H1329 N1323 0.985 . S
H1330 N1327 0.984 . S
H1331 N1327 0.985 . S
H1332 N1326 0.984 . S
H1333 N1326 0.984 . S
H1334 N1322 0.984 . S
H1335 N1322 0.985 . S
C1336 C1337 1.363 . S
C1336 C1342 1.379 . S
C1336 N1344 1.356 . S
C1337 C1336 1.363 . S
C1337 C1343 1.363 . S
C1338 C1339 1.363 . S
C1338 C1343 1.379 . S
C1338 N1345 1.356 . S
C1339 C1338 1.363 . S
C1339 C1342 1.363 . S
N1340 C1342 1.356 . S
N1340 H1352 0.984 . S
N1340 H1353 0.985 . S
N1341 C1343 1.356 . S
N1341 H1346 0.984 . S
N1341 H1347 0.985 . S
C1342 C1336 1.379 . S
C1342 C1339 1.363 . S
C1342 N1340 1.356 . S
C1343 C1337 1.363 . S
C1343 C1338 1.379 . S
C1343 N1341 1.356 . S
N1344 C1336 1.356 . S
N1344 H1350 0.984 . S
N1344 H1351 0.984 . S
N1345 C1338 1.356 . S
N1345 H1348 0.984 . S
N1345 H1349 0.985 . S
H1346 N1341 0.984 . S
H1347 N1341 0.985 . S
H1348 N1345 0.984 . S
H1349 N1345 0.985 . S
H1350 N1344 0.984 . S
H1351 N1344 0.984 . S
H1352 N1340 0.984 . S
H1353 N1340 0.985 . S
C1354 C1355 1.363 . S
C1354 C1360 1.379 . S
C1354 N1362 1.356 . S
C1355 C1354 1.363 . S
C1355 C1361 1.363 . S
C1356 C1357 1.363 . S
C1356 C1361 1.379 . S
C1356 N1363 1.356 . S
C1357 C1356 1.363 . S
C1357 C1360 1.363 . S
N1358 C1360 1.356 . S
N1358 H1370 0.984 . S
N1358 H1371 0.985 . S
N1359 C1361 1.356 . S
N1359 H1364 0.984 . S
N1359 H1365 0.985 . S
C1360 C1354 1.379 . S
C1360 C1357 1.363 . S
C1360 N1358 1.356 . S
C1361 C1355 1.363 . S
C1361 C1356 1.379 . S
C1361 N1359 1.356 . S
N1362 C1354 1.356 . S
N1362 H1368 0.984 . S
N1362 H1369 0.984 . S
N1363 C1356 1.356 . S
N1363 H1366 0.984 . S
N1363 H1367 0.985 . S
H1364 N1359 0.984 . S
H1365 N1359 0.985 . S
H1366 N1363 0.984 . S
H1367 N1363 0.985 . S
H1368 N1362 0.984 . S
H1369 N1362 0.984 . S
H1370 N1358 0.984 . S
H1371 N1358 0.985 . S
C1372 C1373 1.363 . S
C1372 C1378 1.379 . S
C1372 N1380 1.356 . S
C1373 C1372 1.363 . S
C1373 C1379 1.363 . S
C1374 C1375 1.363 . S
C1374 C1379 1.379 . S
C1374 N1381 1.356 . S
C1375 C1374 1.363 . S
C1375 C1378 1.363 . S
N1376 C1378 1.356 . S
N1376 H1388 0.984 . S
N1376 H1389 0.985 . S
N1377 C1379 1.356 . S
N1377 H1382 0.984 . S
N1377 H1383 0.985 . S
C1378 C1372 1.379 . S
C1378 C1375 1.363 . S
C1378 N1376 1.356 . S
C1379 C1373 1.363 . S
C1379 C1374 1.379 . S
C1379 N1377 1.356 . S
N1380 C1372 1.356 . S
N1380 H1386 0.984 . S
N1380 H1387 0.984 . S
N1381 C1374 1.356 . S
N1381 H1384 0.984 . S
N1381 H1385 0.985 . S
H1382 N1377 0.984 . S
H1383 N1377 0.985 . S
H1384 N1381 0.984 . S
H1385 N1381 0.985 . S
H1386 N1380 0.984 . S
H1387 N1380 0.984 . S
H1388 N1376 0.984 . S
H1389 N1376 0.985 . S
C1390 C1391 1.363 . S
C1390 C1396 1.379 . S
C1390 N1398 1.356 . S
C1391 C1390 1.363 . S
C1391 C1397 1.363 . S
C1392 C1393 1.363 . S
C1392 C1397 1.379 . S
C1392 N1399 1.356 . S
C1393 C1392 1.363 . S
C1393 C1396 1.363 . S
N1394 C1396 1.356 . S
N1394 H1406 0.984 . S
N1394 H1407 0.985 . S
N1395 C1397 1.356 . S
N1395 H1400 0.984 . S
N1395 H1401 0.985 . S
C1396 C1390 1.379 . S
C1396 C1393 1.363 . S
C1396 N1394 1.356 . S
C1397 C1391 1.363 . S
C1397 C1392 1.379 . S
C1397 N1395 1.356 . S
N1398 C1390 1.356 . S
N1398 H1404 0.984 . S
N1398 H1405 0.984 . S
N1399 C1392 1.356 . S
N1399 H1402 0.984 . S
N1399 H1403 0.985 . S
H1400 N1395 0.984 . S
H1401 N1395 0.985 . S
H1402 N1399 0.984 . S
H1403 N1399 0.985 . S
H1404 N1398 0.984 . S
H1405 N1398 0.984 . S
H1406 N1394 0.984 . S
H1407 N1394 0.985 . S
C1408 C1409 1.363 . S
C1408 C1414 1.379 . S
C1408 N1416 1.356 . S
C1409 C1408 1.363 . S
C1409 C1415 1.363 . S
C1410 C1411 1.363 . S
C1410 C1415 1.379 . S
C1410 N1417 1.356 . S
C1411 C1410 1.363 . S
C1411 C1414 1.363 . S
N1412 C1414 1.356 . S
N1412 H1424 0.984 . S
N1412 H1425 0.985 . S
N1413 C1415 1.356 . S
N1413 H1418 0.984 . S
N1413 H1419 0.985 . S
C1414 C1408 1.379 . S
C1414 C1411 1.363 . S
C1414 N1412 1.356 . S
C1415 C1409 1.363 . S
C1415 C1410 1.379 . S
C1415 N1413 1.356 . S
N1416 C1408 1.356 . S
N1416 H1422 0.984 . S
N1416 H1423 0.984 . S
N1417 C1410 1.356 . S
N1417 H1420 0.984 . S
N1417 H1421 0.956 1_554 S
H1418 N1413 0.984 . S
H1419 N1413 0.985 . S
H1420 N1417 0.984 . S
H1421 N1417 0.956 1_556 S
H1422 N1416 0.984 . S
H1423 N1416 0.984 . S
H1424 N1412 0.984 . S
H1425 N1412 0.985 . S
C1426 C1427 1.363 . S
C1426 C1432 1.379 . S
C1426 N1434 1.356 . S
C1427 C1426 1.363 . S
C1427 C1433 1.363 . S
C1428 C1429 1.363 . S
C1428 C1433 1.379 . S
C1428 N1435 1.356 . S
C1429 C1428 1.363 . S
C1429 C1432 1.363 . S
N1430 C1432 1.356 . S
N1430 H1442 0.984 . S
N1430 H1443 0.985 . S
N1431 C1433 1.356 . S
N1431 H1436 0.984 . S
N1431 H1437 0.985 . S
C1432 C1426 1.379 . S
C1432 C1429 1.363 . S
C1432 N1430 1.356 . S
C1433 C1427 1.363 . S
C1433 C1428 1.379 . S
C1433 N1431 1.356 . S
N1434 C1426 1.356 . S
N1434 H1440 0.984 . S
N1434 H1441 0.984 . S
N1435 C1428 1.356 . S
N1435 H1438 0.984 . S
N1435 H1439 0.985 . S
H1436 N1431 0.984 . S
H1437 N1431 0.985 . S
H1438 N1435 0.984 . S
H1439 N1435 0.985 . S
H1440 N1434 0.984 . S
H1441 N1434 0.984 . S
H1442 N1430 0.984 . S
H1443 N1430 0.985 . S
C1444 C1445 1.363 . S
C1444 C1450 1.379 . S
C1444 N1452 1.356 . S
C1445 C1444 1.363 . S
C1445 C1451 1.363 . S
C1446 C1447 1.363 . S
C1446 C1451 1.379 . S
C1446 N1453 1.356 . S
C1447 C1446 1.363 . S
C1447 C1450 1.363 . S
N1448 C1450 1.356 . S
N1448 H1460 0.984 . S
N1448 H1461 0.985 . S
N1449 C1451 1.356 . S
N1449 H1454 0.984 . S
N1449 H1455 0.985 . S
C1450 C1444 1.379 . S
C1450 C1447 1.363 . S
C1450 N1448 1.356 . S
C1451 C1445 1.363 . S
C1451 C1446 1.379 . S
C1451 N1449 1.356 . S
N1452 C1444 1.356 . S
N1452 H1458 0.984 . S
N1452 H1459 0.984 . S
N1453 C1446 1.356 . S
N1453 H1456 0.984 . S
N1453 H1457 0.985 . S
H1454 N1449 0.984 . S
H1455 N1449 0.985 . S
H1456 N1453 0.984 . S
H1457 N1453 0.985 . S
H1458 N1452 0.984 . S
H1459 N1452 0.984 . S
H1460 N1448 0.984 . S
H1461 N1448 0.985 . S
C1462 C1463 1.363 . S
C1462 C1468 1.379 . S
C1462 N1470 1.356 . S
C1463 C1462 1.363 . S
C1463 C1469 1.363 . S
C1464 C1465 1.363 . S
C1464 C1469 1.379 . S
C1464 N1471 1.356 . S
C1465 C1464 1.363 . S
C1465 C1468 1.363 . S
N1466 C1468 1.356 . S
N1466 H1478 0.984 . S
N1466 H1479 0.985 . S
N1467 C1469 1.356 . S
N1467 H1472 0.984 . S
N1467 H1473 0.985 . S
C1468 C1462 1.379 . S
C1468 C1465 1.363 . S
C1468 N1466 1.356 . S
C1469 C1463 1.363 . S
C1469 C1464 1.379 . S
C1469 N1467 1.356 . S
N1470 C1462 1.356 . S
N1470 H1476 0.984 . S
N1470 H1477 0.984 . S
N1471 C1464 1.356 . S
N1471 H1474 0.984 . S
N1471 H1475 0.985 . S
H1472 N1467 0.984 . S
H1473 N1467 0.985 . S
H1474 N1471 0.984 . S
H1475 N1471 0.985 . S
H1476 N1470 0.984 . S
H1477 N1470 0.984 . S
H1478 N1466 0.984 . S
H1479 N1466 0.985 . S
C1480 C1481 1.363 . S
C1480 C1486 1.379 . S
C1480 N1488 1.356 . S
C1481 C1480 1.363 . S
C1481 C1487 1.363 . S
C1482 C1483 1.363 1_655 S
C1482 C1487 1.379 1_655 S
C1482 N1489 1.356 . S
C1483 C1482 1.363 1_455 S
C1483 C1486 1.363 . S
N1484 C1486 1.356 . S
N1484 H1496 0.984 . S
N1484 H1497 0.985 . S
N1485 C1487 1.356 1_655 S
N1485 H1490 0.984 1_655 S
N1485 H1491 0.985 . S
C1486 C1480 1.379 . S
C1486 C1483 1.363 . S
C1486 N1484 1.356 . S
C1487 C1481 1.363 . S
C1487 C1482 1.379 1_455 S
C1487 N1485 1.356 1_455 S
N1488 C1480 1.356 . S
N1488 H1494 0.984 . S
N1488 H1495 0.984 . S
N1489 C1482 1.356 . S
N1489 H1492 0.984 . S
N1489 H1493 0.985 . S
H1490 N1485 0.984 1_455 S
H1491 N1485 0.985 . S
H1492 N1489 0.984 . S
H1493 N1489 0.985 . S
H1494 N1488 0.984 . S
H1495 N1488 0.984 . S
H1496 N1484 0.984 . S
H1497 N1484 0.985 . S
C1498 C1499 1.363 . S
C1498 C1504 1.379 . S
C1498 N1506 1.356 . S
C1499 C1498 1.363 . S
C1499 C1505 1.363 . S
C1500 C1501 1.363 . S
C1500 C1505 1.379 . S
C1500 N1507 1.356 . S
C1501 C1500 1.363 . S
C1501 C1504 1.363 . S
N1502 C1504 1.356 . S
N1502 H1514 0.984 . S
N1502 H1515 0.985 . S
N1503 C1505 1.356 . S
N1503 H1508 0.984 . S
N1503 H1509 0.985 . S
C1504 C1498 1.379 . S
C1504 C1501 1.363 . S
C1504 N1502 1.356 . S
C1505 C1499 1.363 . S
C1505 C1500 1.379 . S
C1505 N1503 1.356 . S
N1506 C1498 1.356 . S
N1506 H1512 0.984 . S
N1506 H1513 0.984 . S
N1507 C1500 1.356 . S
N1507 H1510 0.984 . S
N1507 H1511 0.985 . S
H1508 N1503 0.984 . S
H1509 N1503 0.985 . S
H1510 N1507 0.984 . S
H1511 N1507 0.985 . S
H1512 N1506 0.984 . S
H1513 N1506 0.984 . S
H1514 N1502 0.984 . S
H1515 N1502 0.985 . S
C1516 C1517 1.363 . S
C1516 C1522 1.379 . S
C1516 N1524 1.356 . S
C1517 C1516 1.363 . S
C1517 C1523 1.363 . S
C1518 C1519 1.363 . S
C1518 C1523 1.379 . S
C1518 N1525 1.356 . S
C1519 C1518 1.363 . S
C1519 C1522 1.363 . S
N1520 C1522 1.356 1_544 S
N1520 H1532 0.984 . S
N1520 H1533 0.985 . S
N1521 C1523 1.356 . S
N1521 H1526 0.984 . S
N1521 H1527 0.985 . S
C1522 C1516 1.379 . S
C1522 C1519 1.363 . S
C1522 N1520 1.356 1_566 S
C1523 C1517 1.363 . S
C1523 C1518 1.379 . S
C1523 N1521 1.356 . S
N1524 C1516 1.356 . S
N1524 H1530 0.984 . S
N1524 H1531 0.984 . S
N1525 C1518 1.356 . S
N1525 H1528 0.984 1_556 S
N1525 H1529 0.985 . S
H1526 N1521 0.984 . S
H1527 N1521 0.985 . S
H1528 N1525 0.984 1_554 S
H1529 N1525 0.985 . S
H1530 N1524 0.984 . S
H1531 N1524 0.984 . S
H1532 N1520 0.984 . S
H1533 N1520 0.985 . S
C1534 C1535 1.363 . S
C1534 C1540 1.379 . S
C1534 N1542 1.356 . S
C1535 C1534 1.363 . S
C1535 C1541 1.363 . S
C1536 C1537 1.363 . S
C1536 C1541 1.379 . S
C1536 N1543 1.356 . S
C1537 C1536 1.363 . S
C1537 C1540 1.363 . S
N1538 C1540 1.356 . S
N1538 H1550 0.984 . S
N1538 H1551 0.985 . S
N1539 C1541 1.356 . S
N1539 H1544 0.984 . S
N1539 H1545 0.985 . S
C1540 C1534 1.379 . S
C1540 C1537 1.363 . S
C1540 N1538 1.356 . S
C1541 C1535 1.363 . S
C1541 C1536 1.379 . S
C1541 N1539 1.356 . S
N1542 C1534 1.356 . S
N1542 H1548 0.984 . S
N1542 H1549 0.984 . S
N1543 C1536 1.356 . S
N1543 H1546 0.984 . S
N1543 H1547 0.985 . S
H1544 N1539 0.984 . S
H1545 N1539 0.985 . S
H1546 N1543 0.984 . S
H1547 N1543 0.985 . S
H1548 N1542 0.984 . S
H1549 N1542 0.984 . S
H1550 N1538 0.984 . S
H1551 N1538 0.985 . S
C1552 C1553 1.363 . S
C1552 C1558 1.379 . S
C1552 N1560 1.356 . S
C1553 C1552 1.363 . S
C1553 C1559 1.363 . S
C1554 C1555 1.363 . S
C1554 C1559 1.379 . S
C1554 N1561 1.356 . S
C1555 C1554 1.363 . S
C1555 C1558 1.363 . S
N1556 C1558 1.356 . S
N1556 H1568 0.984 . S
N1556 H1569 0.985 . S
N1557 C1559 1.356 . S
N1557 H1562 0.984 . S
N1557 H1563 0.985 . S
C1558 C1552 1.379 . S
C1558 C1555 1.363 . S
C1558 N1556 1.356 . S
C1559 C1553 1.363 . S
C1559 C1554 1.379 . S
C1559 N1557 1.356 . S
N1560 C1552 1.356 . S
N1560 H1566 0.984 . S
N1560 H1567 0.984 . S
N1561 C1554 1.356 . S
N1561 H1564 0.984 . S
N1561 H1565 0.985 . S
H1562 N1557 0.984 . S
H1563 N1557 0.985 . S
H1564 N1561 0.984 . S
H1565 N1561 0.985 . S
H1566 N1560 0.984 . S
H1567 N1560 0.984 . S
H1568 N1556 0.984 . S
H1569 N1556 0.985 . S
C1570 C1571 1.363 . S
C1570 C1576 1.379 . S
C1570 N1578 1.356 . S
C1571 C1570 1.363 . S
C1571 C1577 1.363 . S
C1572 C1573 1.363 . S
C1572 C1577 1.379 . S
C1572 N1579 1.356 . S
C1573 C1572 1.363 . S
C1573 C1576 1.363 . S
N1574 C1576 1.356 . S
N1574 H1586 0.984 . S
N1574 H1587 0.985 . S
N1575 C1577 1.356 . S
N1575 H1580 0.984 . S
N1575 H1581 0.985 . S
C1576 C1570 1.379 . S
C1576 C1573 1.363 . S
C1576 N1574 1.356 . S
C1577 C1571 1.363 . S
C1577 C1572 1.379 . S
C1577 N1575 1.356 . S
N1578 C1570 1.356 . S
N1578 H1584 0.984 . S
N1578 H1585 0.984 . S
N1579 C1572 1.356 . S
N1579 H1582 0.984 . S
N1579 H1583 0.985 . S
H1580 N1575 0.984 . S
H1581 N1575 0.985 . S
H1582 N1579 0.984 . S
H1583 N1579 0.985 . S
H1584 N1578 0.984 . S
H1585 N1578 0.984 . S
H1586 N1574 0.984 . S
H1587 N1574 0.985 . S
C1588 C1589 1.363 . S
C1588 C1594 1.379 . S
C1588 N1596 1.356 . S
C1589 C1588 1.363 . S
C1589 C1595 1.363 . S
C1590 C1591 1.363 . S
C1590 C1595 1.379 . S
C1590 N1597 1.356 . S
C1591 C1590 1.363 . S
C1591 C1594 1.363 . S
N1592 C1594 1.356 . S
N1592 H1604 0.984 . S
N1592 H1605 0.985 . S
N1593 C1595 1.356 1_565 S
N1593 H1598 0.984 . S
N1593 H1599 0.985 . S
C1594 C1588 1.379 . S
C1594 C1591 1.363 . S
C1594 N1592 1.356 . S
C1595 C1589 1.363 . S
C1595 C1590 1.379 . S
C1595 N1593 1.356 1_545 S
N1596 C1588 1.356 . S
N1596 H1602 0.984 . S
N1596 H1603 0.984 . S
N1597 C1590 1.356 . S
N1597 H1600 0.984 . S
N1597 H1601 0.985 . S
H1598 N1593 0.984 . S
H1599 N1593 0.985 . S
H1600 N1597 0.984 . S
H1601 N1597 0.985 . S
H1602 N1596 0.984 . S
H1603 N1596 0.984 . S
H1604 N1592 0.984 . S
H1605 N1592 0.985 . S
C1606 C1607 1.363 . S
C1606 C1612 1.379 . S
C1606 N1614 1.356 . S
C1607 C1606 1.363 . S
C1607 C1613 1.363 . S
C1608 C1609 1.363 . S
C1608 C1613 1.379 . S
C1608 N1615 1.356 . S
C1609 C1608 1.363 . S
C1609 C1612 1.363 . S
N1610 C1612 1.356 . S
N1610 H1622 0.984 . S
N1610 H1623 0.985 . S
N1611 C1613 1.356 . S
N1611 H1616 0.984 . S
N1611 H1617 0.985 . S
C1612 C1606 1.379 . S
C1612 C1609 1.363 . S
C1612 N1610 1.356 . S
C1613 C1607 1.363 . S
C1613 C1608 1.379 . S
C1613 N1611 1.356 . S
N1614 C1606 1.356 . S
N1614 H1620 0.984 . S
N1614 H1621 0.984 . S
N1615 C1608 1.356 . S
N1615 H1618 0.984 . S
N1615 H1619 0.985 . S
H1616 N1611 0.984 . S
H1617 N1611 0.985 . S
H1618 N1615 0.984 . S
H1619 N1615 0.985 . S
H1620 N1614 0.984 . S
H1621 N1614 0.984 . S
H1622 N1610 0.984 . S
H1623 N1610 0.985 . S
C1624 C1625 1.363 . S
C1624 C1630 1.379 . S
C1624 N1632 1.356 . S
C1625 C1624 1.363 . S
C1625 C1631 1.363 . S
C1626 C1627 1.363 . S
C1626 C1631 1.379 . S
C1626 N1633 1.356 . S
C1627 C1626 1.363 . S
C1627 C1630 1.363 . S
N1628 C1630 1.356 . S
N1628 H1640 0.984 . S
N1628 H1641 0.985 . S
N1629 C1631 1.356 . S
N1629 H1634 0.984 . S
N1629 H1635 0.985 . S
C1630 C1624 1.379 . S
C1630 C1627 1.363 . S
C1630 N1628 1.356 . S
C1631 C1625 1.363 . S
C1631 C1626 1.379 . S
C1631 N1629 1.356 . S
N1632 C1624 1.356 . S
N1632 H1638 0.984 . S
N1632 H1639 0.984 . S
N1633 C1626 1.356 . S
N1633 H1636 0.984 . S
N1633 H1637 0.985 . S
H1634 N1629 0.984 . S
H1635 N1629 0.985 . S
H1636 N1633 0.984 . S
H1637 N1633 0.985 . S
H1638 N1632 0.984 . S
H1639 N1632 0.984 . S
H1640 N1628 0.984 . S
H1641 N1628 0.985 . S
C1642 C1643 1.363 . S
C1642 C1648 1.379 . S
C1642 N1650 1.356 . S
C1643 C1642 1.363 . S
C1643 C1649 1.363 . S
C1644 C1645 1.363 . S
C1644 C1649 1.379 . S
C1644 N1651 1.356 . S
C1645 C1644 1.363 . S
C1645 C1648 1.363 . S
N1646 C1648 1.356 . S
N1646 H1658 0.984 . S
N1646 H1659 0.985 . S
N1647 C1649 1.356 . S
N1647 H1652 0.984 . S
N1647 H1653 0.985 . S
C1648 C1642 1.379 . S
C1648 C1645 1.363 . S
C1648 N1646 1.356 . S
C1649 C1643 1.363 . S
C1649 C1644 1.379 . S
C1649 N1647 1.356 . S
N1650 C1642 1.356 . S
N1650 H1656 0.984 . S
N1650 H1657 0.984 . S
N1651 C1644 1.356 . S
N1651 H1654 0.984 . S
N1651 H1655 0.985 . S
H1652 N1647 0.984 . S
H1653 N1647 0.985 . S
H1654 N1651 0.984 . S
H1655 N1651 0.985 . S
H1656 N1650 0.984 . S
H1657 N1650 0.984 . S
H1658 N1646 0.984 . S
H1659 N1646 0.985 . S
C1660 C1661 1.378 . S
C1660 C1666 1.379 . S
C1660 N1668 1.356 . S
C1661 C1660 1.378 . S
C1661 C1667 1.354 1_565 S
C1662 C1663 1.363 1_545 S
C1662 C1667 1.379 . S
C1662 N1669 1.356 . S
C1663 C1662 1.363 1_565 S
C1663 C1666 1.363 . S
N1664 C1666 1.356 . S
N1664 H1676 0.984 . S
N1664 H1677 0.985 . S
N1665 C1667 1.356 . S
N1665 H1670 0.984 . S
N1665 H1671 0.985 . S
C1666 C1660 1.379 . S
C1666 C1663 1.363 . S
C1666 N1664 1.356 . S
C1667 C1661 1.354 1_545 S
C1667 C1662 1.379 . S
C1667 N1665 1.356 . S
N1668 C1660 1.356 . S
N1668 H1674 0.984 . S
N1668 H1675 0.984 . S
N1669 C1662 1.356 . S
N1669 H1672 0.984 1_545 S
N1669 H1673 0.985 . S
H1670 N1665 0.984 . S
H1671 N1665 0.985 . S
H1672 N1669 0.984 1_565 S
H1673 N1669 0.985 . S
H1674 N1668 0.984 . S
H1675 N1668 0.984 . S
H1676 N1664 0.984 . S
H1677 N1664 0.985 . S
C1678 C1679 1.363 . S
C1678 C1684 1.379 . S
C1678 N1686 1.356 . S
C1679 C1678 1.363 . S
C1679 C1685 1.363 . S
C1680 C1681 1.363 . S
C1680 C1685 1.379 . S
C1680 N1687 1.356 . S
C1681 C1680 1.363 . S
C1681 C1684 1.363 . S
N1682 C1684 1.356 . S
N1682 H1694 0.984 . S
N1682 H1695 0.985 . S
N1683 C1685 1.356 . S
N1683 H1688 0.984 . S
N1683 H1689 0.985 . S
C1684 C1678 1.379 . S
C1684 C1681 1.363 . S
C1684 N1682 1.356 . S
C1685 C1679 1.363 . S
C1685 C1680 1.379 . S
C1685 N1683 1.356 . S
N1686 C1678 1.356 . S
N1686 H1692 0.984 . S
N1686 H1693 0.984 . S
N1687 C1680 1.356 . S
N1687 H1690 0.984 . S
N1687 H1691 0.985 . S
H1688 N1683 0.984 . S
H1689 N1683 0.985 . S
H1690 N1687 0.984 . S
H1691 N1687 0.985 . S
H1692 N1686 0.984 . S
H1693 N1686 0.984 . S
H1694 N1682 0.984 . S
H1695 N1682 0.985 . S
C1696 C1697 1.363 . S
C1696 C1702 1.379 . S
C1696 N1704 1.356 . S
C1697 C1696 1.363 . S
C1697 C1703 1.363 . S
C1698 C1699 1.363 . S
C1698 C1703 1.379 . S
C1698 N1705 1.356 . S
C1699 C1698 1.363 . S
C1699 C1702 1.363 . S
N1700 C1702 1.356 . S
N1700 H1712 0.984 1_554 S
N1700 H1713 0.985 1_554 S
N1701 C1703 1.356 . S
N1701 H1706 0.984 . S
N1701 H1707 0.985 . S
C1702 C1696 1.379 . S
C1702 C1699 1.363 . S
C1702 N1700 1.356 . S
C1703 C1697 1.363 . S
C1703 C1698 1.379 . S
C1703 N1701 1.356 . S
N1704 C1696 1.356 . S
N1704 H1710 0.984 . S
N1704 H1711 0.984 . S
N1705 C1698 1.356 . S
N1705 H1708 0.984 . S
N1705 H1709 0.985 . S
H1706 N1701 0.984 . S
H1707 N1701 0.985 . S
H1708 N1705 0.984 . S
H1709 N1705 0.985 . S
H1710 N1704 0.984 . S
H1711 N1704 0.984 . S
H1712 N1700 0.984 1_556 S
H1713 N1700 0.985 1_556 S
C1714 C1715 1.363 . S
C1714 C1720 1.379 . S
C1714 N1722 1.356 . S
C1715 C1714 1.363 . S
C1715 C1721 1.363 . S
C1716 C1717 1.363 . S
C1716 C1721 1.379 . S
C1716 N1723 1.356 . S
C1717 C1716 1.363 . S
C1717 C1720 1.363 . S
N1718 C1720 1.356 . S
N1718 H1730 0.984 . S
N1718 H1731 0.985 . S
N1719 C1721 1.356 . S
N1719 H1724 0.984 . S
N1719 H1725 0.985 . S
C1720 C1714 1.379 . S
C1720 C1717 1.363 . S
C1720 N1718 1.356 . S
C1721 C1715 1.363 . S
C1721 C1716 1.379 . S
C1721 N1719 1.356 . S
N1722 C1714 1.356 . S
N1722 H1728 0.984 . S
N1722 H1729 0.984 . S
N1723 C1716 1.356 . S
N1723 H1726 0.984 . S
N1723 H1727 0.985 . S
H1724 N1719 0.984 . S
H1725 N1719 0.985 . S
H1726 N1723 0.984 . S
H1727 N1723 0.985 . S
H1728 N1722 0.984 . S
H1729 N1722 0.984 . S
H1730 N1718 0.984 . S
H1731 N1718 0.985 . S
C1732 C1733 1.363 . S
C1732 C1738 1.379 . S
C1732 N1740 1.356 . S
C1733 C1732 1.363 . S
C1733 C1739 1.363 . S
C1734 C1735 1.363 . S
C1734 C1739 1.379 . S
C1734 N1741 1.356 . S
C1735 C1734 1.363 . S
C1735 C1738 1.363 . S
N1736 C1738 1.356 . S
N1736 H1748 0.984 . S
N1736 H1749 0.985 . S
N1737 C1739 1.356 . S
N1737 H1742 0.984 . S
N1737 H1743 0.985 . S
C1738 C1732 1.379 . S
C1738 C1735 1.363 . S
C1738 N1736 1.356 . S
C1739 C1733 1.363 . S
C1739 C1734 1.379 . S
C1739 N1737 1.356 . S
N1740 C1732 1.356 . S
N1740 H1746 0.984 . S
N1740 H1747 0.984 . S
N1741 C1734 1.356 . S
N1741 H1744 0.984 . S
N1741 H1745 0.985 . S
H1742 N1737 0.984 . S
H1743 N1737 0.985 . S
H1744 N1741 0.984 . S
H1745 N1741 0.985 . S
H1746 N1740 0.984 . S
H1747 N1740 0.984 . S
H1748 N1736 0.984 . S
H1749 N1736 0.985 . S
C1750 C1751 1.363 . S
C1750 C1756 1.379 . S
C1750 N1758 1.356 . S
C1751 C1750 1.363 . S
C1751 C1757 1.363 . S
C1752 C1753 1.363 . S
C1752 C1757 1.379 . S
C1752 N1759 1.356 . S
C1753 C1752 1.363 . S
C1753 C1756 1.363 . S
N1754 C1756 1.356 . S
N1754 H1766 0.984 . S
N1754 H1767 0.985 . S
N1755 C1757 1.356 . S
N1755 H1760 0.984 . S
N1755 H1761 0.985 . S
C1756 C1750 1.379 . S
C1756 C1753 1.363 . S
C1756 N1754 1.356 . S
C1757 C1751 1.363 . S
C1757 C1752 1.379 . S
C1757 N1755 1.356 . S
N1758 C1750 1.356 . S
N1758 H1764 0.984 . S
N1758 H1765 0.984 . S
N1759 C1752 1.356 . S
N1759 H1762 0.984 . S
N1759 H1763 0.985 . S
H1760 N1755 0.984 . S
H1761 N1755 0.985 . S
H1762 N1759 0.984 . S
H1763 N1759 0.985 . S
H1764 N1758 0.984 . S
H1765 N1758 0.984 . S
H1766 N1754 0.984 . S
H1767 N1754 0.985 . S
C1768 C1769 1.363 . S
C1768 C1774 1.379 . S
C1768 N1776 1.356 . S
C1769 C1768 1.363 . S
C1769 C1775 1.363 . S
C1770 C1771 1.363 1_565 S
C1770 C1775 1.379 1_565 S
C1770 N1777 1.356 . S
C1771 C1770 1.363 1_545 S
C1771 C1774 1.363 . S
N1772 C1774 1.356 . S
N1772 H1784 0.984 . S
N1772 H1785 0.985 . S
N1773 C1775 1.356 1_565 S
N1773 H1778 0.984 1_565 S
N1773 H1779 0.985 . S
C1774 C1768 1.379 . S
C1774 C1771 1.363 . S
C1774 N1772 1.356 . S
C1775 C1769 1.363 . S
C1775 C1770 1.379 1_545 S
C1775 N1773 1.356 1_545 S
N1776 C1768 1.356 . S
N1776 H1782 0.984 . S
N1776 H1783 0.984 . S
N1777 C1770 1.356 . S
N1777 H1780 0.984 . S
N1777 H1781 0.985 . S
H1778 N1773 0.984 1_545 S
H1779 N1773 0.985 . S
H1780 N1777 0.984 . S
H1781 N1777 0.985 . S
H1782 N1776 0.984 . S
H1783 N1776 0.984 . S
H1784 N1772 0.984 . S
H1785 N1772 0.985 . S
C1786 C1787 1.363 . S
C1786 C1792 1.379 . S
C1786 N1794 1.356 . S
C1787 C1786 1.363 . S
C1787 C1793 1.363 . S
C1788 C1789 1.363 . S
C1788 C1793 1.379 . S
C1788 N1795 1.356 . S
C1789 C1788 1.363 . S
C1789 C1792 1.363 . S
N1790 C1792 1.356 . S
N1790 H1802 0.984 . S
N1790 H1803 0.985 . S
N1791 C1793 1.356 . S
N1791 H1796 0.984 . S
N1791 H1797 0.985 . S
C1792 C1786 1.379 . S
C1792 C1789 1.363 . S
C1792 N1790 1.356 . S
C1793 C1787 1.363 . S
C1793 C1788 1.379 . S
C1793 N1791 1.356 . S
N1794 C1786 1.356 . S
N1794 H1800 0.984 . S
N1794 H1801 0.984 . S
N1795 C1788 1.356 . S
N1795 H1798 0.984 . S
N1795 H1799 0.985 . S
H1796 N1791 0.984 . S
H1797 N1791 0.985 . S
H1798 N1795 0.984 . S
H1799 N1795 0.985 . S
H1800 N1794 0.984 . S
H1801 N1794 0.984 . S
H1802 N1790 0.984 . S
H1803 N1790 0.985 . S
C1804 C1805 1.363 . S
C1804 C1810 1.379 . S
C1804 N1812 1.356 . S
C1805 C1804 1.363 . S
C1805 C1811 1.363 . S
C1806 C1807 1.363 . S
C1806 C1811 1.379 . S
C1806 N1813 1.356 . S
C1807 C1806 1.363 . S
C1807 C1810 1.363 . S
N1808 C1810 1.356 . S
N1808 H1820 0.984 . S
N1808 H1821 0.985 . S
N1809 C1811 1.356 . S
N1809 H1814 0.984 . S
N1809 H1815 0.985 . S
C1810 C1804 1.379 . S
C1810 C1807 1.363 . S
C1810 N1808 1.356 . S
C1811 C1805 1.363 . S
C1811 C1806 1.379 . S
C1811 N1809 1.356 . S
N1812 C1804 1.356 . S
N1812 H1818 0.984 . S
N1812 H1819 0.984 . S
N1813 C1806 1.356 . S
N1813 H1816 0.984 . S
N1813 H1817 0.985 . S
H1814 N1809 0.984 . S
H1815 N1809 0.985 . S
H1816 N1813 0.984 . S
H1817 N1813 0.985 . S
H1818 N1812 0.984 . S
H1819 N1812 0.984 . S
H1820 N1808 0.984 . S
H1821 N1808 0.985 . S
C1822 C1823 1.363 . S
C1822 C1828 1.379 . S
C1822 N1830 1.356 . S
C1823 C1822 1.363 . S
C1823 C1829 1.363 . S
C1824 C1825 1.363 . S
C1824 C1829 1.379 . S
C1824 N1831 1.356 . S
C1825 C1824 1.363 . S
C1825 C1828 1.363 . S
N1826 C1828 1.356 . S
N1826 H1838 0.984 . S
N1826 H1839 0.985 . S
N1827 C1829 1.356 . S
N1827 H1832 0.984 . S
N1827 H1833 0.985 . S
C1828 C1822 1.379 . S
C1828 C1825 1.363 . S
C1828 N1826 1.356 . S
C1829 C1823 1.363 . S
C1829 C1824 1.379 . S
C1829 N1827 1.356 . S
N1830 C1822 1.356 . S
N1830 H1836 0.984 . S
N1830 H1837 0.984 . S
N1831 C1824 1.356 . S
N1831 H1834 0.984 . S
N1831 H1835 0.985 . S
H1832 N1827 0.984 . S
H1833 N1827 0.985 . S
H1834 N1831 0.984 . S
H1835 N1831 0.985 . S
H1836 N1830 0.984 . S
H1837 N1830 0.984 . S
H1838 N1826 0.984 . S
H1839 N1826 0.985 . S
C1840 C1841 1.363 . S
C1840 C1846 1.379 . S
C1840 N1848 1.356 . S
C1841 C1840 1.363 . S
C1841 C1847 1.363 . S
C1842 C1843 1.363 . S
C1842 C1847 1.379 . S
C1842 N1849 1.356 . S
C1843 C1842 1.363 . S
C1843 C1846 1.363 . S
N1844 C1846 1.356 . S
N1844 H1856 0.984 . S
N1844 H1857 0.985 . S
N1845 C1847 1.356 . S
N1845 H1850 0.984 . S
N1845 H1851 0.985 . S
C1846 C1840 1.379 . S
C1846 C1843 1.363 . S
C1846 N1844 1.356 . S
C1847 C1841 1.363 . S
C1847 C1842 1.379 . S
C1847 N1845 1.356 . S
N1848 C1840 1.356 . S
N1848 H1854 0.984 . S
N1848 H1855 0.984 . S
N1849 C1842 1.356 . S
N1849 H1852 0.984 . S
N1849 H1853 0.985 . S
H1850 N1845 0.984 . S
H1851 N1845 0.985 . S
H1852 N1849 0.984 . S
H1853 N1849 0.985 . S
H1854 N1848 0.984 . S
H1855 N1848 0.984 . S
H1856 N1844 0.984 . S
H1857 N1844 0.985 . S
C1858 C1859 1.363 . S
C1858 C1864 1.379 . S
C1858 N1866 1.356 . S
C1859 C1858 1.363 . S
C1859 C1865 1.363 . S
C1860 C1861 1.363 . S
C1860 C1865 1.379 . S
C1860 N1867 1.356 . S
C1861 C1860 1.363 . S
C1861 C1864 1.363 . S
N1862 C1864 1.356 . S
N1862 H1874 0.984 . S
N1862 H1875 0.985 . S
N1863 C1865 1.356 . S
N1863 H1868 0.984 . S
N1863 H1869 0.985 . S
C1864 C1858 1.379 . S
C1864 C1861 1.363 . S
C1864 N1862 1.356 . S
C1865 C1859 1.363 . S
C1865 C1860 1.379 . S
C1865 N1863 1.356 . S
N1866 C1858 1.356 . S
N1866 H1872 0.984 . S
N1866 H1873 0.984 . S
N1867 C1860 1.356 . S
N1867 H1870 0.984 . S
N1867 H1871 0.985 . S
H1868 N1863 0.984 . S
H1869 N1863 0.985 . S
H1870 N1867 0.984 . S
H1871 N1867 0.985 . S
H1872 N1866 0.984 . S
H1873 N1866 0.984 . S
H1874 N1862 0.984 . S
H1875 N1862 0.985 . S
C1876 C1877 1.363 . S
C1876 C1882 1.379 . S
C1876 N1884 1.356 1_455 S
C1877 C1876 1.363 . S
C1877 C1883 1.363 . S
C1878 C1879 1.363 . S
C1878 C1883 1.379 . S
C1878 N1885 1.356 . S
C1879 C1878 1.363 . S
C1879 C1882 1.363 . S
N1880 C1882 1.375 . S
N1880 H1892 0.967 1_455 S
N1880 H1893 0.985 . S
N1881 C1883 1.356 1_556 S
N1881 H1886 0.984 . S
N1881 H1887 0.985 . S
C1882 C1876 1.379 . S
C1882 C1879 1.363 . S
C1882 N1880 1.375 . S
C1883 C1877 1.363 . S
C1883 C1878 1.379 . S
C1883 N1881 1.356 1_554 S
N1884 C1876 1.356 1_655 S
N1884 H1890 0.984 . S
N1884 H1891 0.984 . S
N1885 C1878 1.356 . S
N1885 H1888 0.984 . S
N1885 H1889 0.985 1_554 S
H1886 N1881 0.984 . S
H1887 N1881 0.985 . S
H1888 N1885 0.984 . S
H1889 N1885 0.985 1_556 S
H1890 N1884 0.984 . S
H1891 N1884 0.984 . S
H1892 N1880 0.967 1_655 S
H1893 N1880 0.985 . S
C1894 C1895 1.363 1_455 S
C1894 C1900 1.379 1_455 S
C1894 N1902 1.356 . S
C1895 C1894 1.363 1_655 S
C1895 C1901 1.363 . S
C1896 C1897 1.363 . S
C1896 C1901 1.379 . S
C1896 N1903 1.356 . S
C1897 C1896 1.363 . S
C1897 C1900 1.363 . S
N1898 C1900 1.356 . S
N1898 H1910 0.984 1_655 S
N1898 H1911 0.985 . S
N1899 C1901 1.356 . S
N1899 H1904 0.984 . S
N1899 H1905 0.985 . S
C1900 C1894 1.379 1_655 S
C1900 C1897 1.363 . S
C1900 N1898 1.356 . S
C1901 C1895 1.363 . S
C1901 C1896 1.379 . S
C1901 N1899 1.356 . S
N1902 C1894 1.356 . S
N1902 H1908 0.984 . S
N1902 H1909 0.984 . S
N1903 C1896 1.356 . S
N1903 H1906 0.984 . S
N1903 H1907 0.985 . S
H1904 N1899 0.984 . S
H1905 N1899 0.985 . S
H1906 N1903 0.984 . S
H1907 N1903 0.985 . S
H1908 N1902 0.984 . S
H1909 N1902 0.984 . S
H1910 N1898 0.984 1_455 S
H1911 N1898 0.985 . S
C1912 C1913 1.363 . S
C1912 C1918 1.379 . S
C1912 N1920 1.356 . S
C1913 C1912 1.363 . S
C1913 C1919 1.363 . S
C1914 C1915 1.363 . S
C1914 C1919 1.379 . S
C1914 N1921 1.356 . S
C1915 C1914 1.363 . S
C1915 C1918 1.363 . S
N1916 C1918 1.356 . S
N1916 H1928 0.984 . S
N1916 H1929 0.985 . S
N1917 C1919 1.356 . S
N1917 H1922 0.984 . S
N1917 H1923 0.985 . S
C1918 C1912 1.379 . S
C1918 C1915 1.363 . S
C1918 N1916 1.356 . S
C1919 C1913 1.363 . S
C1919 C1914 1.379 . S
C1919 N1917 1.356 . S
N1920 C1912 1.356 . S
N1920 H1926 0.984 . S
N1920 H1927 0.984 . S
N1921 C1914 1.356 . S
N1921 H1924 0.984 . S
N1921 H1925 0.985 . S
H1922 N1917 0.984 . S
H1923 N1917 0.985 . S
H1924 N1921 0.984 . S
H1925 N1921 0.985 . S
H1926 N1920 0.984 . S
H1927 N1920 0.984 . S
H1928 N1916 0.984 . S
H1929 N1916 0.985 . S
C1930 C1931 1.363 . S
C1930 C1936 1.379 . S
C1930 N1938 1.356 . S
C1931 C1930 1.363 . S
C1931 C1937 1.363 . S
C1932 C1933 1.363 . S
C1932 C1937 1.379 . S
C1932 N1939 1.356 . S
C1933 C1932 1.363 . S
C1933 C1936 1.363 . S
N1934 C1936 1.356 . S
N1934 H1946 0.984 . S
N1934 H1947 0.985 . S
N1935 C1937 1.356 . S
N1935 H1940 0.984 . S
N1935 H1941 0.985 . S
C1936 C1930 1.379 . S
C1936 C1933 1.363 . S
C1936 N1934 1.356 . S
C1937 C1931 1.363 . S
C1937 C1932 1.379 . S
C1937 N1935 1.356 . S
N1938 C1930 1.356 . S
N1938 H1944 0.984 . S
N1938 H1945 0.984 . S
N1939 C1932 1.356 . S
N1939 H1942 0.984 . S
N1939 H1943 0.985 . S
H1940 N1935 0.984 . S
H1941 N1935 0.985 . S
H1942 N1939 0.984 . S
H1943 N1939 0.985 . S
H1944 N1938 0.984 . S
H1945 N1938 0.984 . S
H1946 N1934 0.984 . S
H1947 N1934 0.985 . S
C1948 C1949 1.363 1_655 S
C1948 C1954 1.381 . S
C1948 N1956 1.356 . S
C1949 C1948 1.363 1_455 S
C1949 C1955 1.363 . S
C1950 C1951 1.363 . S
C1950 C1955 1.379 . S
C1950 N1957 1.356 . S
C1951 C1950 1.363 . S
C1951 C1954 1.358 1_455 S
N1952 C1954 1.358 . S
N1952 H1964 0.984 . S
N1952 H1965 0.985 . S
N1953 C1955 1.356 . S
N1953 H1958 0.984 . S
N1953 H1959 0.985 . S
C1954 C1948 1.381 . S
C1954 C1951 1.358 1_655 S
C1954 N1952 1.358 . S
C1955 C1949 1.363 . S
C1955 C1950 1.379 . S
C1955 N1953 1.356 . S
N1956 C1948 1.356 . S
N1956 H1962 0.984 . S
N1956 H1963 0.984 . S
N1957 C1950 1.356 . S
N1957 H1960 0.984 . S
N1957 H1961 0.985 . S
H1958 N1953 0.984 . S
H1959 N1953 0.985 . S
H1960 N1957 0.984 . S
H1961 N1957 0.985 . S
H1962 N1956 0.984 . S
H1963 N1956 0.984 . S
H1964 N1952 0.984 . S
H1965 N1952 0.985 . S
C1966 C1967 1.363 . S
C1966 C1972 1.379 . S
C1966 N1974 1.356 . S
C1967 C1966 1.363 . S
C1967 C1973 1.363 . S
C1968 C1969 1.363 . S
C1968 C1973 1.379 . S
C1968 N1975 1.356 . S
C1969 C1968 1.363 . S
C1969 C1972 1.363 . S
N1970 C1972 1.356 . S
N1970 H1982 0.984 . S
N1970 H1983 0.985 . S
N1971 C1973 1.356 . S
N1971 H1976 0.984 . S
N1971 H1977 0.985 . S
C1972 C1966 1.379 . S
C1972 C1969 1.363 . S
C1972 N1970 1.356 . S
C1973 C1967 1.363 . S
C1973 C1968 1.379 . S
C1973 N1971 1.356 . S
N1974 C1966 1.356 . S
N1974 H1980 0.984 . S
N1974 H1981 0.984 . S
N1975 C1968 1.356 . S
N1975 H1978 0.984 . S
N1975 H1979 0.985 . S
H1976 N1971 0.984 . S
H1977 N1971 0.985 . S
H1978 N1975 0.984 . S
H1979 N1975 0.985 . S
H1980 N1974 0.984 . S
H1981 N1974 0.984 . S
H1982 N1970 0.984 . S
H1983 N1970 0.985 . S
C1984 C1985 1.363 . S
C1984 C1990 1.379 . S
C1984 N1992 1.356 . S
C1985 C1984 1.363 . S
C1985 C1991 1.363 . S
C1986 C1987 1.363 . S
C1986 C1991 1.379 . S
C1986 N1993 1.356 . S
C1987 C1986 1.363 . S
C1987 C1990 1.363 . S
N1988 C1990 1.356 . S
N1988 H2000 0.984 . S
N1988 H2001 0.985 . S
N1989 C1991 1.356 . S
N1989 H1994 0.984 . S
N1989 H1995 0.985 . S
C1990 C1984 1.379 . S
C1990 C1987 1.363 . S
C1990 N1988 1.356 . S
C1991 C1985 1.363 . S
C1991 C1986 1.379 . S
C1991 N1989 1.356 . S
N1992 C1984 1.356 . S
N1992 H1998 0.984 . S
N1992 H1999 0.984 . S
N1993 C1986 1.356 . S
N1993 H1996 0.984 . S
N1993 H1997 0.985 . S
H1994 N1989 0.984 . S
H1995 N1989 0.985 . S
H1996 N1993 0.984 . S
H1997 N1993 0.985 . S
H1998 N1992 0.984 . S
H1999 N1992 0.984 . S
H2000 N1988 0.984 . S
H2001 N1988 0.985 . S
C2002 C2003 1.363 . S
C2002 C2008 1.379 1_554 S
C2002 N2010 1.356 1_554 S
C2003 C2002 1.363 . S
C2003 C2009 1.363 . S
C2004 C2005 1.363 . S
C2004 C2009 1.379 . S
C2004 N2011 1.356 . S
C2005 C2004 1.363 . S
C2005 C2008 1.363 1_554 S
N2006 C2008 1.356 . S
N2006 H2018 0.984 . S
N2006 H2019 0.985 . S
N2007 C2009 1.356 . S
N2007 H2012 0.984 . S
N2007 H2013 0.985 . S
C2008 C2002 1.379 1_556 S
C2008 C2005 1.363 1_556 S
C2008 N2006 1.356 . S
C2009 C2003 1.363 . S
C2009 C2004 1.379 . S
C2009 N2007 1.356 . S
N2010 C2002 1.356 1_556 S
N2010 H2016 0.984 . S
N2010 H2017 0.984 1_556 S
N2011 C2004 1.356 . S
N2011 H2014 0.984 . S
N2011 H2015 0.985 . S
H2012 N2007 0.984 . S
H2013 N2007 0.985 . S
H2014 N2011 0.984 . S
H2015 N2011 0.985 . S
H2016 N2010 0.984 . S
H2017 N2010 0.984 1_554 S
H2018 N2006 0.984 . S
H2019 N2006 0.985 . S
C2020 C2021 1.363 . S
C2020 C2026 1.379 . S
C2020 N2028 1.356 . S
C2021 C2020 1.363 . S
C2021 C2027 1.363 . S
C2022 C2023 1.363 . S
C2022 C2027 1.379 . S
C2022 N2029 1.356 . S
C2023 C2022 1.363 . S
C2023 C2026 1.363 . S
N2024 C2026 1.356 . S
N2024 H2036 0.984 . S
N2024 H2037 0.985 . S
N2025 C2027 1.356 . S
N2025 H2030 0.984 . S
N2025 H2031 0.985 . S
C2026 C2020 1.379 . S
C2026 C2023 1.363 . S
C2026 N2024 1.356 . S
C2027 C2021 1.363 . S
C2027 C2022 1.379 . S
C2027 N2025 1.356 . S
N2028 C2020 1.356 . S
N2028 H2034 0.984 . S
N2028 H2035 0.984 . S
N2029 C2022 1.356 . S
N2029 H2032 0.984 . S
N2029 H2033 0.985 . S
H2030 N2025 0.984 . S
H2031 N2025 0.985 . S
H2032 N2029 0.984 . S
H2033 N2029 0.985 . S
H2034 N2028 0.984 . S
H2035 N2028 0.984 . S
H2036 N2024 0.984 . S
H2037 N2024 0.985 . S
C2038 C2039 1.363 . S
C2038 C2044 1.379 . S
C2038 N2046 1.356 . S
C2039 C2038 1.363 . S
C2039 C2045 1.363 . S
C2040 C2041 1.363 . S
C2040 C2045 1.379 . S
C2040 N2047 1.356 . S
C2041 C2040 1.363 . S
C2041 C2044 1.363 . S
N2042 C2044 1.356 . S
N2042 H2054 0.984 . S
N2042 H2055 0.985 . S
N2043 C2045 1.356 . S
N2043 H2048 0.984 . S
N2043 H2049 0.985 . S
C2044 C2038 1.379 . S
C2044 C2041 1.363 . S
C2044 N2042 1.356 . S
C2045 C2039 1.363 . S
C2045 C2040 1.379 . S
C2045 N2043 1.356 . S
N2046 C2038 1.356 . S
N2046 H2052 0.984 . S
N2046 H2053 0.984 . S
N2047 C2040 1.356 . S
N2047 H2050 0.984 . S
N2047 H2051 0.985 . S
H2048 N2043 0.984 . S
H2049 N2043 0.985 . S
H2050 N2047 0.984 . S
H2051 N2047 0.985 . S
H2052 N2046 0.984 . S
H2053 N2046 0.984 . S
H2054 N2042 0.984 . S
H2055 N2042 0.985 . S
C2056 C2057 1.363 . S
C2056 C2062 1.379 . S
C2056 N2064 1.356 . S
C2057 C2056 1.363 . S
C2057 C2063 1.363 . S
C2058 C2059 1.363 . S
C2058 C2063 1.379 . S
C2058 N2065 1.356 . S
C2059 C2058 1.363 . S
C2059 C2062 1.363 . S
N2060 C2062 1.356 . S
N2060 H2072 0.984 . S
N2060 H2073 0.985 . S
N2061 C2063 1.356 . S
N2061 H2066 0.984 . S
N2061 H2067 0.985 . S
C2062 C2056 1.379 . S
C2062 C2059 1.363 . S
C2062 N2060 1.356 . S
C2063 C2057 1.363 . S
C2063 C2058 1.379 . S
C2063 N2061 1.356 . S
N2064 C2056 1.356 . S
N2064 H2070 0.984 . S
N2064 H2071 0.984 . S
N2065 C2058 1.356 . S
N2065 H2068 0.984 . S
N2065 H2069 0.985 . S
H2066 N2061 0.984 . S
H2067 N2061 0.985 . S
H2068 N2065 0.984 . S
H2069 N2065 0.985 . S
H2070 N2064 0.984 . S
H2071 N2064 0.984 . S
H2072 N2060 0.984 . S
H2073 N2060 0.985 . S
C2074 C2075 1.363 . S
C2074 C2080 1.379 . S
C2074 N2082 1.356 . S
C2075 C2074 1.363 . S
C2075 C2081 1.363 . S
C2076 C2077 1.363 . S
C2076 C2081 1.379 . S
C2076 N2083 1.356 . S
C2077 C2076 1.363 . S
C2077 C2080 1.363 . S
N2078 C2080 1.356 . S
N2078 H2090 0.984 . S
N2078 H2091 0.985 . S
N2079 C2081 1.356 . S
N2079 H2084 0.984 . S
N2079 H2085 0.985 . S
C2080 C2074 1.379 . S
C2080 C2077 1.363 . S
C2080 N2078 1.356 . S
C2081 C2075 1.363 . S
C2081 C2076 1.379 . S
C2081 N2079 1.356 . S
N2082 C2074 1.356 . S
N2082 H2088 0.984 . S
N2082 H2089 0.984 . S
N2083 C2076 1.356 . S
N2083 H2086 0.984 . S
N2083 H2087 0.985 . S
H2084 N2079 0.984 . S
H2085 N2079 0.985 . S
H2086 N2083 0.984 . S
H2087 N2083 0.985 . S
H2088 N2082 0.984 . S
H2089 N2082 0.984 . S
H2090 N2078 0.984 . S
H2091 N2078 0.985 . S
C2092 C2093 1.363 . S
C2092 C2098 1.379 . S
C2092 N2100 1.356 . S
C2093 C2092 1.363 . S
C2093 C2099 1.363 . S
C2094 C2095 1.363 . S
C2094 C2099 1.379 . S
C2094 N2101 1.356 . S
C2095 C2094 1.363 . S
C2095 C2098 1.363 . S
N2096 C2098 1.356 . S
N2096 H2108 0.984 . S
N2096 H2109 0.985 . S
N2097 C2099 1.356 . S
N2097 H2102 0.984 . S
N2097 H2103 0.985 . S
C2098 C2092 1.379 . S
C2098 C2095 1.363 . S
C2098 N2096 1.356 . S
C2099 C2093 1.363 . S
C2099 C2094 1.379 . S
C2099 N2097 1.356 . S
N2100 C2092 1.356 . S
N2100 H2106 0.984 . S
N2100 H2107 0.984 . S
N2101 C2094 1.356 . S
N2101 H2104 0.984 . S
N2101 H2105 0.985 . S
H2102 N2097 0.984 . S
H2103 N2097 0.985 . S
H2104 N2101 0.984 . S
H2105 N2101 0.985 . S
H2106 N2100 0.984 . S
H2107 N2100 0.984 . S
H2108 N2096 0.984 . S
H2109 N2096 0.985 . S
C2110 C2111 1.363 . S
C2110 C2116 1.379 . S
C2110 N2118 1.356 . S
C2111 C2110 1.363 . S
C2111 C2117 1.363 . S
C2112 C2113 1.363 . S
C2112 C2117 1.379 . S
C2112 N2119 1.356 . S
C2113 C2112 1.363 . S
C2113 C2116 1.363 . S
N2114 C2116 1.356 . S
N2114 H2126 0.984 . S
N2114 H2127 0.985 . S
N2115 C2117 1.356 . S
N2115 H2120 0.984 . S
N2115 H2121 0.985 . S
C2116 C2110 1.379 . S
C2116 C2113 1.363 . S
C2116 N2114 1.356 . S
C2117 C2111 1.363 . S
C2117 C2112 1.379 . S
C2117 N2115 1.356 . S
N2118 C2110 1.356 . S
N2118 H2124 0.984 . S
N2118 H2125 0.984 . S
N2119 C2112 1.356 . S
N2119 H2122 0.984 . S
N2119 H2123 0.985 . S
H2120 N2115 0.984 . S
H2121 N2115 0.985 . S
H2122 N2119 0.984 . S
H2123 N2119 0.985 . S
H2124 N2118 0.984 . S
H2125 N2118 0.984 . S
H2126 N2114 0.984 . S
H2127 N2114 0.985 . S
C2128 C2129 1.363 . S
C2128 C2134 1.379 . S
C2128 N2136 1.356 . S
C2129 C2128 1.363 . S
C2129 C2135 1.363 . S
C2130 C2131 1.363 . S
C2130 C2135 1.379 . S
C2130 N2137 1.356 . S
C2131 C2130 1.363 . S
C2131 C2134 1.363 . S
N2132 C2134 1.356 . S
N2132 H2144 0.984 . S
N2132 H2145 0.985 . S
N2133 C2135 1.356 . S
N2133 H2138 0.984 . S
N2133 H2139 0.985 . S
C2134 C2128 1.379 . S
C2134 C2131 1.363 . S
C2134 N2132 1.356 . S
C2135 C2129 1.363 . S
C2135 C2130 1.379 . S
C2135 N2133 1.356 . S
N2136 C2128 1.356 . S
N2136 H2142 0.984 . S
N2136 H2143 0.984 . S
N2137 C2130 1.356 . S
N2137 H2140 0.984 . S
N2137 H2141 0.985 . S
H2138 N2133 0.984 . S
H2139 N2133 0.985 . S
H2140 N2137 0.984 . S
H2141 N2137 0.985 . S
H2142 N2136 0.984 . S
H2143 N2136 0.984 . S
H2144 N2132 0.984 . S
H2145 N2132 0.985 . S
C2146 C2147 1.363 . S
C2146 C2152 1.379 . S
C2146 N2154 1.356 . S
C2147 C2146 1.363 . S
C2147 C2153 1.363 . S
C2148 C2149 1.363 . S
C2148 C2153 1.379 . S
C2148 N2155 1.356 . S
C2149 C2148 1.363 . S
C2149 C2152 1.363 . S
N2150 C2152 1.356 . S
N2150 H2162 0.984 . S
N2150 H2163 0.985 . S
N2151 C2153 1.356 . S
N2151 H2156 0.984 . S
N2151 H2157 0.985 . S
C2152 C2146 1.379 . S
C2152 C2149 1.363 . S
C2152 N2150 1.356 . S
C2153 C2147 1.363 . S
C2153 C2148 1.379 . S
C2153 N2151 1.356 . S
N2154 C2146 1.356 . S
N2154 H2160 0.984 . S
N2154 H2161 0.984 . S
N2155 C2148 1.356 . S
N2155 H2158 0.984 . S
N2155 H2159 0.985 . S
H2156 N2151 0.984 . S
H2157 N2151 0.985 . S
H2158 N2155 0.984 . S
H2159 N2155 0.985 . S
H2160 N2154 0.984 . S
H2161 N2154 0.984 . S
H2162 N2150 0.984 . S
H2163 N2150 0.985 . S
C2164 C2165 1.363 1_565 S
C2164 C2170 1.379 . S
C2164 N2172 1.356 1_565 S
C2165 C2164 1.363 1_545 S
C2165 C2171 1.363 1_545 S
C2166 C2167 1.363 . S
C2166 C2171 1.379 . S
C2166 N2173 1.356 . S
C2167 C2166 1.363 . S
C2167 C2170 1.363 . S
N2168 C2170 1.356 . S
N2168 H2180 0.984 . S
N2168 H2181 0.985 . S
N2169 C2171 1.356 1_545 S
N2169 H2174 0.984 . S
N2169 H2175 0.985 1_545 S
C2170 C2164 1.379 . S
C2170 C2167 1.363 . S
C2170 N2168 1.356 . S
C2171 C2165 1.363 1_565 S
C2171 C2166 1.379 . S
C2171 N2169 1.356 1_565 S
N2172 C2164 1.356 1_545 S
N2172 H2178 0.984 . S
N2172 H2179 0.984 . S
N2173 C2166 1.356 . S
N2173 H2176 0.984 . S
N2173 H2177 0.985 . S
H2174 N2169 0.984 . S
H2175 N2169 0.985 1_565 S
H2176 N2173 0.984 . S
H2177 N2173 0.985 . S
H2178 N2172 0.984 . S
H2179 N2172 0.984 . S
H2180 N2168 0.984 . S
H2181 N2168 0.985 . S
C2182 C2183 1.356 1_545 S
C2182 C2188 1.387 . S
C2182 N2190 1.353 1_545 S
C2183 C2182 1.356 1_565 S
C2183 C2189 1.363 1_554 S
C2184 C2185 1.363 . S
C2184 C2189 1.379 1_544 S
C2184 N2191 1.356 1_554 S
C2185 C2184 1.363 . S
C2185 C2188 1.363 . S
N2186 C2188 1.356 . S
N2186 H2198 0.984 . S
N2186 H2199 0.985 . S
N2187 C2189 1.356 . S
N2187 H2192 0.984 . S
N2187 H2193 0.985 . S
C2188 C2182 1.387 . S
C2188 C2185 1.363 . S
C2188 N2186 1.356 . S
C2189 C2183 1.363 1_556 S
C2189 C2184 1.379 1_566 S
C2189 N2187 1.356 . S
N2190 C2182 1.353 1_565 S
N2190 H2196 0.984 . S
N2190 H2197 0.984 . S
N2191 C2184 1.356 1_556 S
N2191 H2194 0.984 1_556 S
N2191 H2195 0.985 . S
H2192 N2187 0.984 . S
H2193 N2187 0.985 . S
H2194 N2191 0.984 1_554 S
H2195 N2191 0.985 . S
H2196 N2190 0.984 . S
H2197 N2190 0.984 . S
H2198 N2186 0.984 . S
H2199 N2186 0.985 . S
C2200 C2201 1.363 . S
C2200 C2206 1.379 . S
C2200 N2208 1.356 . S
C2201 C2200 1.363 . S
C2201 C2207 1.363 . S
C2202 C2203 1.363 . S
C2202 C2207 1.379 . S
C2202 N2209 1.356 . S
C2203 C2202 1.363 . S
C2203 C2206 1.363 . S
N2204 C2206 1.356 . S
N2204 H2216 0.984 . S
N2204 H2217 0.985 . S
N2205 C2207 1.356 . S
N2205 H2210 0.984 . S
N2205 H2211 0.985 . S
C2206 C2200 1.379 . S
C2206 C2203 1.363 . S
C2206 N2204 1.356 . S
C2207 C2201 1.363 . S
C2207 C2202 1.379 . S
C2207 N2205 1.356 . S
N2208 C2200 1.356 . S
N2208 H2214 0.984 . S
N2208 H2215 0.984 . S
N2209 C2202 1.356 . S
N2209 H2212 0.984 . S
N2209 H2213 0.985 . S
H2210 N2205 0.984 . S
H2211 N2205 0.985 . S
H2212 N2209 0.984 . S
H2213 N2209 0.985 . S
H2214 N2208 0.984 . S
H2215 N2208 0.984 . S
H2216 N2204 0.984 . S
H2217 N2204 0.985 . S
C2218 C2219 1.363 . S
C2218 C2224 1.379 . S
C2218 N2226 1.356 . S
C2219 C2218 1.363 . S
C2219 C2225 1.363 . S
C2220 C2221 1.363 . S
C2220 C2225 1.379 . S
C2220 N2227 1.356 . S
C2221 C2220 1.363 . S
C2221 C2224 1.363 . S
N2222 C2224 1.356 . S
N2222 H2234 0.984 . S
N2222 H2235 0.985 . S
N2223 C2225 1.356 . S
N2223 H2228 0.984 . S
N2223 H2229 0.985 . S
C2224 C2218 1.379 . S
C2224 C2221 1.363 . S
C2224 N2222 1.356 . S
C2225 C2219 1.363 . S
C2225 C2220 1.379 . S
C2225 N2223 1.356 . S
N2226 C2218 1.356 . S
N2226 H2232 0.984 . S
N2226 H2233 0.984 . S
N2227 C2220 1.356 . S
N2227 H2230 0.984 . S
N2227 H2231 0.985 . S
H2228 N2223 0.984 . S
H2229 N2223 0.985 . S
H2230 N2227 0.984 . S
H2231 N2227 0.985 . S
H2232 N2226 0.984 . S
H2233 N2226 0.984 . S
H2234 N2222 0.984 . S
H2235 N2222 0.985 . S
C2236 C2237 1.363 . S
C2236 C2242 1.379 . S
C2236 N2244 1.356 . S
C2237 C2236 1.363 . S
C2237 C2243 1.363 . S
C2238 C2239 1.363 . S
C2238 C2243 1.379 . S
C2238 N2245 1.356 . S
C2239 C2238 1.363 . S
C2239 C2242 1.363 . S
N2240 C2242 1.356 . S
N2240 H2252 0.984 . S
N2240 H2253 0.985 . S
N2241 C2243 1.356 . S
N2241 H2246 0.984 . S
N2241 H2247 0.985 . S
C2242 C2236 1.379 . S
C2242 C2239 1.363 . S
C2242 N2240 1.356 . S
C2243 C2237 1.363 . S
C2243 C2238 1.379 . S
C2243 N2241 1.356 . S
N2244 C2236 1.356 . S
N2244 H2250 0.984 . S
N2244 H2251 0.984 . S
N2245 C2238 1.356 . S
N2245 H2248 0.984 . S
N2245 H2249 0.985 . S
H2246 N2241 0.984 . S
H2247 N2241 0.985 . S
H2248 N2245 0.984 . S
H2249 N2245 0.985 . S
H2250 N2244 0.984 . S
H2251 N2244 0.984 . S
H2252 N2240 0.984 . S
H2253 N2240 0.985 . S
C2254 C2255 1.363 . S
C2254 C2260 1.379 . S
C2254 N2262 1.356 . S
C2255 C2254 1.363 . S
C2255 C2261 1.363 . S
C2256 C2257 1.363 . S
C2256 C2261 1.379 . S
C2256 N2263 1.356 . S
C2257 C2256 1.363 . S
C2257 C2260 1.363 . S
N2258 C2260 1.356 . S
N2258 H2270 0.984 . S
N2258 H2271 0.985 . S
N2259 C2261 1.356 . S
N2259 H2264 0.984 . S
N2259 H2265 0.985 . S
C2260 C2254 1.379 . S
C2260 C2257 1.363 . S
C2260 N2258 1.356 . S
C2261 C2255 1.363 . S
C2261 C2256 1.379 . S
C2261 N2259 1.356 . S
N2262 C2254 1.356 . S
N2262 H2268 0.984 . S
N2262 H2269 0.984 . S
N2263 C2256 1.356 . S
N2263 H2266 0.984 . S
N2263 H2267 0.985 . S
H2264 N2259 0.984 . S
H2265 N2259 0.985 . S
H2266 N2263 0.984 . S
H2267 N2263 0.985 . S
H2268 N2262 0.984 . S
H2269 N2262 0.984 . S
H2270 N2258 0.984 . S
H2271 N2258 0.985 . S
C2272 C2273 1.363 . S
C2272 C2278 1.379 . S
C2272 N2280 1.356 . S
C2273 C2272 1.363 . S
C2273 C2279 1.363 . S
C2274 C2275 1.363 . S
C2274 C2279 1.379 . S
C2274 N2281 1.356 . S
C2275 C2274 1.363 . S
C2275 C2278 1.363 . S
N2276 C2278 1.356 . S
N2276 H2288 0.984 . S
N2276 H2289 0.985 . S
N2277 C2279 1.356 . S
N2277 H2282 0.984 . S
N2277 H2283 0.985 . S
C2278 C2272 1.379 . S
C2278 C2275 1.363 . S
C2278 N2276 1.356 . S
C2279 C2273 1.363 . S
C2279 C2274 1.379 . S
C2279 N2277 1.356 . S
N2280 C2272 1.356 . S
N2280 H2286 0.984 . S
N2280 H2287 0.984 . S
N2281 C2274 1.356 . S
N2281 H2284 0.984 . S
N2281 H2285 0.985 . S
H2282 N2277 0.984 . S
H2283 N2277 0.985 . S
H2284 N2281 0.984 . S
H2285 N2281 0.985 . S
H2286 N2280 0.984 . S
H2287 N2280 0.984 . S
H2288 N2276 0.984 . S
H2289 N2276 0.985 . S
C2290 C2291 1.363 . S
C2290 C2296 1.379 . S
C2290 N2298 1.356 . S
C2291 C2290 1.363 . S
C2291 C2297 1.363 . S
C2292 C2293 1.363 . S
C2292 C2297 1.379 . S
C2292 N2299 1.356 . S
C2293 C2292 1.363 . S
C2293 C2296 1.363 . S
N2294 C2296 1.356 . S
N2294 H2306 0.984 . S
N2294 H2307 0.985 . S
N2295 C2297 1.356 . S
N2295 H2300 0.984 . S
N2295 H2301 0.985 . S
C2296 C2290 1.379 . S
C2296 C2293 1.363 . S
C2296 N2294 1.356 . S
C2297 C2291 1.363 . S
C2297 C2292 1.379 . S
C2297 N2295 1.356 . S
N2298 C2290 1.356 . S
N2298 H2304 0.984 . S
N2298 H2305 0.984 . S
N2299 C2292 1.356 . S
N2299 H2302 0.984 . S
N2299 H2303 0.985 . S
H2300 N2295 0.984 . S
H2301 N2295 0.985 . S
H2302 N2299 0.984 . S
H2303 N2299 0.985 . S
H2304 N2298 0.984 . S
H2305 N2298 0.984 . S
H2306 N2294 0.984 . S
H2307 N2294 0.985 . S
C2308 C2309 1.363 . S
C2308 C2314 1.379 . S
C2308 N2316 1.356 . S
C2309 C2308 1.363 . S
C2309 C2315 1.363 . S
C2310 C2311 1.363 . S
C2310 C2315 1.379 . S
C2310 N2317 1.356 . S
C2311 C2310 1.363 . S
C2311 C2314 1.363 . S
N2312 C2314 1.356 . S
N2312 H2324 0.984 . S
N2312 H2325 0.985 . S
N2313 C2315 1.356 . S
N2313 H2318 0.984 . S
N2313 H2319 0.985 . S
C2314 C2308 1.379 . S
C2314 C2311 1.363 . S
C2314 N2312 1.356 . S
C2315 C2309 1.363 . S
C2315 C2310 1.379 . S
C2315 N2313 1.356 . S
N2316 C2308 1.356 . S
N2316 H2322 0.984 . S
N2316 H2323 0.984 . S
N2317 C2310 1.356 . S
N2317 H2320 0.984 . S
N2317 H2321 0.985 1_554 S
H2318 N2313 0.984 . S
H2319 N2313 0.985 . S
H2320 N2317 0.984 . S
H2321 N2317 0.985 1_556 S
H2322 N2316 0.984 . S
H2323 N2316 0.984 . S
H2324 N2312 0.984 . S
H2325 N2312 0.985 . S
C2326 C2327 1.363 . S
C2326 C2332 1.379 . S
C2326 N2334 1.356 . S
C2327 C2326 1.363 . S
C2327 C2333 1.363 . S
C2328 C2329 1.363 . S
C2328 C2333 1.379 . S
C2328 N2335 1.356 . S
C2329 C2328 1.363 . S
C2329 C2332 1.363 . S
N2330 C2332 1.356 . S
N2330 H2342 0.984 . S
N2330 H2343 0.985 . S
N2331 C2333 1.356 . S
N2331 H2336 0.984 . S
N2331 H2337 0.985 . S
C2332 C2326 1.379 . S
C2332 C2329 1.363 . S
C2332 N2330 1.356 . S
C2333 C2327 1.363 . S
C2333 C2328 1.379 . S
C2333 N2331 1.356 . S
N2334 C2326 1.356 . S
N2334 H2340 0.984 . S
N2334 H2341 0.984 . S
N2335 C2328 1.356 . S
N2335 H2338 0.984 . S
N2335 H2339 0.985 . S
H2336 N2331 0.984 . S
H2337 N2331 0.985 . S
H2338 N2335 0.984 . S
H2339 N2335 0.985 . S
H2340 N2334 0.984 . S
H2341 N2334 0.984 . S
H2342 N2330 0.984 . S
H2343 N2330 0.985 . S
C2344 C2345 1.363 . S
C2344 C2350 1.379 . S
C2344 N2352 1.356 . S
C2345 C2344 1.363 . S
C2345 C2351 1.363 . S
C2346 C2347 1.363 . S
C2346 C2351 1.379 . S
C2346 N2353 1.356 . S
C2347 C2346 1.363 . S
C2347 C2350 1.363 . S
N2348 C2350 1.356 . S
N2348 H2360 0.984 . S
N2348 H2361 0.985 . S
N2349 C2351 1.356 . S
N2349 H2354 0.984 . S
N2349 H2355 0.985 . S
C2350 C2344 1.379 . S
C2350 C2347 1.363 . S
C2350 N2348 1.356 . S
C2351 C2345 1.363 . S
C2351 C2346 1.379 . S
C2351 N2349 1.356 . S
N2352 C2344 1.356 . S
N2352 H2358 0.984 . S
N2352 H2359 0.984 . S
N2353 C2346 1.356 . S
N2353 H2356 0.984 . S
N2353 H2357 0.985 . S
H2354 N2349 0.984 . S
H2355 N2349 0.985 . S
H2356 N2353 0.984 . S
H2357 N2353 0.985 . S
H2358 N2352 0.984 . S
H2359 N2352 0.984 . S
H2360 N2348 0.984 . S
H2361 N2348 0.985 . S
C2362 C2363 1.363 . S
C2362 C2368 1.379 . S
C2362 N2370 1.356 . S
C2363 C2362 1.363 . S
C2363 C2369 1.363 . S
C2364 C2365 1.363 . S
C2364 C2369 1.379 . S
C2364 N2371 1.356 . S
C2365 C2364 1.363 . S
C2365 C2368 1.363 . S
N2366 C2368 1.356 . S
N2366 H2378 0.984 . S
N2366 H2379 0.985 . S
N2367 C2369 1.356 . S
N2367 H2372 0.984 . S
N2367 H2373 0.985 . S
C2368 C2362 1.379 . S
C2368 C2365 1.363 . S
C2368 N2366 1.356 . S
C2369 C2363 1.363 . S
C2369 C2364 1.379 . S
C2369 N2367 1.356 . S
N2370 C2362 1.356 . S
N2370 H2376 0.984 . S
N2370 H2377 0.984 . S
N2371 C2364 1.356 . S
N2371 H2374 0.984 . S
N2371 H2375 0.985 . S
H2372 N2367 0.984 . S
H2373 N2367 0.985 . S
H2374 N2371 0.984 . S
H2375 N2371 0.985 . S
H2376 N2370 0.984 . S
H2377 N2370 0.984 . S
H2378 N2366 0.984 . S
H2379 N2366 0.985 . S
C2380 C2381 1.363 . S
C2380 C2386 1.379 . S
C2380 N2388 1.356 . S
C2381 C2380 1.363 . S
C2381 C2387 1.363 . S
C2382 C2383 1.363 . S
C2382 C2387 1.379 . S
C2382 N2389 1.356 . S
C2383 C2382 1.363 . S
C2383 C2386 1.363 . S
N2384 C2386 1.356 . S
N2384 H2396 0.984 . S
N2384 H2397 0.985 . S
N2385 C2387 1.356 . S
N2385 H2390 0.984 . S
N2385 H2391 0.985 . S
C2386 C2380 1.379 . S
C2386 C2383 1.363 . S
C2386 N2384 1.356 . S
C2387 C2381 1.363 . S
C2387 C2382 1.379 . S
C2387 N2385 1.356 . S
N2388 C2380 1.356 . S
N2388 H2394 0.984 . S
N2388 H2395 0.984 . S
N2389 C2382 1.356 . S
N2389 H2392 0.984 . S
N2389 H2393 0.984 . S
H2390 N2385 0.984 . S
H2391 N2385 0.985 . S
H2392 N2389 0.984 . S
H2393 N2389 0.984 . S
H2394 N2388 0.984 . S
H2395 N2388 0.984 . S
H2396 N2384 0.984 . S
H2397 N2384 0.985 . S
C2398 C2399 1.363 . S
C2398 C2404 1.379 . S
C2398 N2406 1.356 . S
C2399 C2398 1.363 . S
C2399 C2405 1.363 . S
C2400 C2401 1.363 . S
C2400 C2405 1.379 . S
C2400 N2407 1.356 . S
C2401 C2400 1.363 . S
C2401 C2404 1.363 . S
N2402 C2404 1.356 . S
N2402 H2414 0.984 . S
N2402 H2415 0.985 . S
N2403 C2405 1.356 . S
N2403 H2408 0.984 . S
N2403 H2409 0.985 . S
C2404 C2398 1.379 . S
C2404 C2401 1.363 . S
C2404 N2402 1.356 . S
C2405 C2399 1.363 . S
C2405 C2400 1.379 . S
C2405 N2403 1.356 . S
N2406 C2398 1.356 . S
N2406 H2412 0.984 . S
N2406 H2413 0.984 . S
N2407 C2400 1.356 . S
N2407 H2410 0.984 . S
N2407 H2411 0.985 . S
H2408 N2403 0.984 . S
H2409 N2403 0.985 . S
H2410 N2407 0.984 . S
H2411 N2407 0.985 . S
H2412 N2406 0.984 . S
H2413 N2406 0.984 . S
H2414 N2402 0.984 . S
H2415 N2402 0.985 . S
C2416 C2417 1.363 . S
C2416 C2422 1.379 . S
C2416 N2424 1.356 . S
C2417 C2416 1.363 . S
C2417 C2423 1.363 . S
C2418 C2419 1.363 . S
C2418 C2423 1.379 . S
C2418 N2425 1.356 . S
C2419 C2418 1.363 . S
C2419 C2422 1.363 . S
N2420 C2422 1.356 . S
N2420 H2432 0.984 . S
N2420 H2433 0.985 . S
N2421 C2423 1.356 . S
N2421 H2426 0.984 . S
N2421 H2427 0.985 . S
C2422 C2416 1.379 . S
C2422 C2419 1.363 . S
C2422 N2420 1.356 . S
C2423 C2417 1.363 . S
C2423 C2418 1.379 . S
C2423 N2421 1.356 . S
N2424 C2416 1.356 . S
N2424 H2430 0.984 . S
N2424 H2431 0.984 . S
N2425 C2418 1.356 . S
N2425 H2428 0.984 . S
N2425 H2429 0.985 . S
H2426 N2421 0.984 . S
H2427 N2421 0.985 . S
H2428 N2425 0.984 . S
H2429 N2425 0.985 . S
H2430 N2424 0.984 . S
H2431 N2424 0.984 . S
H2432 N2420 0.984 . S
H2433 N2420 0.985 . S
C2434 C2435 1.363 . S
C2434 C2440 1.379 . S
C2434 N2442 1.356 . S
C2435 C2434 1.363 . S
C2435 C2441 1.363 . S
C2436 C2437 1.363 . S
C2436 C2441 1.379 . S
C2436 N2443 1.356 . S
C2437 C2436 1.363 . S
C2437 C2440 1.363 . S
N2438 C2440 1.356 . S
N2438 H2450 0.984 . S
N2438 H2451 0.985 . S
N2439 C2441 1.356 . S
N2439 H2444 0.984 . S
N2439 H2445 0.985 . S
C2440 C2434 1.379 . S
C2440 C2437 1.363 . S
C2440 N2438 1.356 . S
C2441 C2435 1.363 . S
C2441 C2436 1.379 . S
C2441 N2439 1.356 . S
N2442 C2434 1.356 . S
N2442 H2448 0.984 . S
N2442 H2449 0.984 . S
N2443 C2436 1.356 . S
N2443 H2446 0.984 . S
N2443 H2447 0.985 . S
H2444 N2439 0.984 . S
H2445 N2439 0.985 . S
H2446 N2443 0.984 . S
H2447 N2443 0.985 . S
H2448 N2442 0.984 . S
H2449 N2442 0.984 . S
H2450 N2438 0.984 . S
H2451 N2438 0.985 . S
C2452 C2453 1.363 . S
C2452 C2458 1.379 . S
C2452 N2460 1.356 . S
C2453 C2452 1.363 . S
C2453 C2459 1.363 . S
C2454 C2455 1.363 . S
C2454 C2459 1.379 . S
C2454 N2461 1.356 . S
C2455 C2454 1.363 . S
C2455 C2458 1.363 . S
N2456 C2458 1.356 1_455 S
N2456 H2468 0.984 . S
N2456 H2469 0.985 . S
N2457 C2459 1.356 . S
N2457 H2462 0.984 . S
N2457 H2463 0.985 . S
C2458 C2452 1.379 . S
C2458 C2455 1.363 . S
C2458 N2456 1.356 1_655 S
C2459 C2453 1.363 . S
C2459 C2454 1.379 . S
C2459 N2457 1.356 . S
N2460 C2452 1.356 . S
N2460 H2466 0.984 . S
N2460 H2467 0.984 . S
N2461 C2454 1.356 . S
N2461 H2464 0.984 1_655 S
N2461 H2465 0.985 . S
H2462 N2457 0.984 . S
H2463 N2457 0.985 . S
H2464 N2461 0.984 1_455 S
H2465 N2461 0.985 . S
H2466 N2460 0.984 . S
H2467 N2460 0.984 . S
H2468 N2456 0.984 . S
H2469 N2456 0.985 . S
C2470 C2471 1.363 . S
C2470 C2476 1.379 . S
C2470 N2478 1.356 . S
C2471 C2470 1.363 . S
C2471 C2477 1.363 . S
C2472 C2473 1.363 . S
C2472 C2477 1.379 . S
C2472 N2479 1.356 . S
C2473 C2472 1.363 . S
C2473 C2476 1.363 . S
N2474 C2476 1.356 . S
N2474 H2486 0.984 . S
N2474 H2487 0.985 . S
N2475 C2477 1.356 . S
N2475 H2480 0.984 . S
N2475 H2481 0.985 . S
C2476 C2470 1.379 . S
C2476 C2473 1.363 . S
C2476 N2474 1.356 . S
C2477 C2471 1.363 . S
C2477 C2472 1.379 . S
C2477 N2475 1.356 . S
N2478 C2470 1.356 . S
N2478 H2484 0.984 . S
N2478 H2485 0.984 . S
N2479 C2472 1.356 . S
N2479 H2482 0.984 . S
N2479 H2483 0.985 . S
H2480 N2475 0.984 . S
H2481 N2475 0.985 . S
H2482 N2479 0.984 . S
H2483 N2479 0.985 . S
H2484 N2478 0.984 . S
H2485 N2478 0.984 . S
H2486 N2474 0.984 . S
H2487 N2474 0.985 . S
C2488 C2489 1.363 . S
C2488 C2494 1.379 . S
C2488 N2496 1.356 . S
C2489 C2488 1.363 . S
C2489 C2495 1.363 . S
C2490 C2491 1.363 . S
C2490 C2495 1.379 . S
C2490 N2497 1.356 . S
C2491 C2490 1.363 . S
C2491 C2494 1.363 . S
N2492 C2494 1.356 . S
N2492 H2504 0.984 . S
N2492 H2505 0.985 . S
N2493 C2495 1.356 . S
N2493 H2498 0.984 . S
N2493 H2499 0.985 . S
C2494 C2488 1.379 . S
C2494 C2491 1.363 . S
C2494 N2492 1.356 . S
C2495 C2489 1.363 . S
C2495 C2490 1.379 . S
C2495 N2493 1.356 . S
N2496 C2488 1.356 . S
N2496 H2502 0.984 . S
N2496 H2503 0.984 . S
N2497 C2490 1.356 . S
N2497 H2500 0.984 . S
N2497 H2501 0.985 . S
H2498 N2493 0.984 . S
H2499 N2493 0.985 . S
H2500 N2497 0.984 . S
H2501 N2497 0.985 . S
H2502 N2496 0.984 . S
H2503 N2496 0.984 . S
H2504 N2492 0.984 . S
H2505 N2492 0.985 . S
C2506 C2507 1.363 . S
C2506 C2512 1.379 . S
C2506 N2514 1.356 . S
C2507 C2506 1.363 . S
C2507 C2513 1.363 . S
C2508 C2509 1.363 . S
C2508 C2513 1.379 . S
C2508 N2515 1.356 . S
C2509 C2508 1.363 . S
C2509 C2512 1.363 . S
N2510 C2512 1.356 . S
N2510 H2522 0.984 . S
N2510 H2523 0.985 . S
N2511 C2513 1.356 . S
N2511 H2516 0.984 . S
N2511 H2517 0.985 . S
C2512 C2506 1.379 . S
C2512 C2509 1.363 . S
C2512 N2510 1.356 . S
C2513 C2507 1.363 . S
C2513 C2508 1.379 . S
C2513 N2511 1.356 . S
N2514 C2506 1.356 . S
N2514 H2520 0.984 . S
N2514 H2521 0.984 . S
N2515 C2508 1.356 . S
N2515 H2518 0.984 . S
N2515 H2519 0.985 . S
H2516 N2511 0.984 . S
H2517 N2511 0.985 . S
H2518 N2515 0.984 . S
H2519 N2515 0.985 . S
H2520 N2514 0.984 . S
H2521 N2514 0.984 . S
H2522 N2510 0.984 . S
H2523 N2510 0.985 . S
C2524 C2525 1.363 . S
C2524 C2530 1.379 . S
C2524 N2532 1.356 . S
C2525 C2524 1.363 . S
C2525 C2531 1.363 . S
C2526 C2527 1.363 . S
C2526 C2531 1.379 . S
C2526 N2533 1.356 . S
C2527 C2526 1.363 . S
C2527 C2530 1.363 . S
N2528 C2530 1.356 . S
N2528 H2540 0.984 . S
N2528 H2541 0.985 . S
N2529 C2531 1.356 . S
N2529 H2534 0.984 . S
N2529 H2535 0.985 . S
C2530 C2524 1.379 . S
C2530 C2527 1.363 . S
C2530 N2528 1.356 . S
C2531 C2525 1.363 . S
C2531 C2526 1.379 . S
C2531 N2529 1.356 . S
N2532 C2524 1.356 . S
N2532 H2538 0.984 . S
N2532 H2539 0.984 . S
N2533 C2526 1.356 . S
N2533 H2536 0.984 . S
N2533 H2537 0.985 . S
H2534 N2529 0.984 . S
H2535 N2529 0.985 . S
H2536 N2533 0.984 . S
H2537 N2533 0.985 . S
H2538 N2532 0.984 . S
H2539 N2532 0.984 . S
H2540 N2528 0.984 . S
H2541 N2528 0.985 . S
C2542 C2543 1.363 . S
C2542 C2548 1.379 . S
C2542 N2550 1.356 . S
C2543 C2542 1.363 . S
C2543 C2549 1.363 . S
C2544 C2545 1.363 . S
C2544 C2549 1.379 . S
C2544 N2551 1.356 . S
C2545 C2544 1.363 . S
C2545 C2548 1.363 . S
N2546 C2548 1.356 . S
N2546 H2558 0.984 . S
N2546 H2559 0.985 . S
N2547 C2549 1.356 . S
N2547 H2552 0.984 . S
N2547 H2553 0.985 . S
C2548 C2542 1.379 . S
C2548 C2545 1.363 . S
C2548 N2546 1.356 . S
C2549 C2543 1.363 . S
C2549 C2544 1.379 . S
C2549 N2547 1.356 . S
N2550 C2542 1.356 . S
N2550 H2556 0.984 . S
N2550 H2557 0.984 . S
N2551 C2544 1.356 . S
N2551 H2554 0.984 . S
N2551 H2555 0.985 . S
H2552 N2547 0.984 . S
H2553 N2547 0.985 . S
H2554 N2551 0.984 . S
H2555 N2551 0.985 . S
H2556 N2550 0.984 . S
H2557 N2550 0.984 . S
H2558 N2546 0.984 . S
H2559 N2546 0.985 . S
C2560 C2561 1.363 . S
C2560 C2566 1.379 . S
C2560 N2568 1.356 . S
C2561 C2560 1.363 . S
C2561 C2567 1.363 . S
C2562 C2563 1.363 . S
C2562 C2567 1.379 . S
C2562 N2569 1.356 . S
C2563 C2562 1.363 . S
C2563 C2566 1.363 . S
N2564 C2566 1.356 . S
N2564 H2576 0.984 . S
N2564 H2577 0.985 . S
N2565 C2567 1.356 . S
N2565 H2570 0.984 . S
N2565 H2571 0.985 . S
C2566 C2560 1.379 . S
C2566 C2563 1.363 . S
C2566 N2564 1.356 . S
C2567 C2561 1.363 . S
C2567 C2562 1.379 . S
C2567 N2565 1.356 . S
N2568 C2560 1.356 . S
N2568 H2574 0.984 . S
N2568 H2575 0.984 . S
N2569 C2562 1.356 . S
N2569 H2572 0.984 . S
N2569 H2573 0.985 . S
H2570 N2565 0.984 . S
H2571 N2565 0.985 . S
H2572 N2569 0.984 . S
H2573 N2569 0.985 . S
H2574 N2568 0.984 . S
H2575 N2568 0.984 . S
H2576 N2564 0.984 . S
H2577 N2564 0.985 . S
C2578 C2579 1.363 . S
C2578 C2584 1.379 . S
C2578 N2586 1.356 . S
C2579 C2578 1.363 . S
C2579 C2585 1.363 . S
C2580 C2581 1.362 1_565 S
C2580 C2585 1.379 . S
C2580 N2587 1.356 1_565 S
C2581 C2580 1.362 1_545 S
C2581 C2584 1.348 1_545 S
N2582 C2584 1.356 . S
N2582 H2594 0.984 . S
N2582 H2595 0.985 1_565 S
N2583 C2585 1.356 . S
N2583 H2588 0.984 . S
N2583 H2589 0.985 . S
C2584 C2578 1.379 . S
C2584 C2581 1.348 1_565 S
C2584 N2582 1.356 . S
C2585 C2579 1.363 . S
C2585 C2580 1.379 . S
C2585 N2583 1.356 . S
N2586 C2578 1.356 . S
N2586 H2592 0.984 . S
N2586 H2593 0.984 . S
N2587 C2580 1.356 1_545 S
N2587 H2590 0.984 . S
N2587 H2591 0.985 . S
H2588 N2583 0.984 . S
H2589 N2583 0.985 . S
H2590 N2587 0.984 . S
H2591 N2587 0.985 . S
H2592 N2586 0.984 . S
H2593 N2586 0.984 . S
H2594 N2582 0.984 . S
H2595 N2582 0.985 1_545 S
C2596 C2597 1.363 . S
C2596 C2602 1.379 . S
C2596 N2604 1.356 . S
C2597 C2596 1.363 . S
C2597 C2603 1.363 . S
C2598 C2599 1.363 . S
C2598 C2603 1.379 . S
C2598 N2605 1.356 . S
C2599 C2598 1.363 . S
C2599 C2602 1.363 . S
N2600 C2602 1.356 . S
N2600 H2612 0.984 . S
N2600 H2613 0.985 . S
N2601 C2603 1.356 . S
N2601 H2606 0.984 . S
N2601 H2607 0.985 . S
C2602 C2596 1.379 . S
C2602 C2599 1.363 . S
C2602 N2600 1.356 . S
C2603 C2597 1.363 . S
C2603 C2598 1.379 . S
C2603 N2601 1.356 . S
N2604 C2596 1.356 . S
N2604 H2610 0.984 . S
N2604 H2611 0.984 . S
N2605 C2598 1.356 . S
N2605 H2608 0.984 . S
N2605 H2609 0.985 . S
H2606 N2601 0.984 . S
H2607 N2601 0.985 . S
H2608 N2605 0.984 . S
H2609 N2605 0.985 . S
H2610 N2604 0.984 . S
H2611 N2604 0.984 . S
H2612 N2600 0.984 . S
H2613 N2600 0.985 . S
C2614 C2615 1.363 . S
C2614 C2620 1.379 . S
C2614 N2622 1.356 . S
C2615 C2614 1.363 . S
C2615 C2621 1.363 . S
C2616 C2617 1.363 . S
C2616 C2621 1.379 . S
C2616 N2623 1.356 . S
C2617 C2616 1.363 . S
C2617 C2620 1.363 . S
N2618 C2620 1.356 . S
N2618 H2630 0.984 . S
N2618 H2631 0.985 . S
N2619 C2621 1.356 . S
N2619 H2624 0.984 . S
N2619 H2625 0.985 . S
C2620 C2614 1.379 . S
C2620 C2617 1.363 . S
C2620 N2618 1.356 . S
C2621 C2615 1.363 . S
C2621 C2616 1.379 . S
C2621 N2619 1.356 . S
N2622 C2614 1.356 . S
N2622 H2628 0.984 . S
N2622 H2629 0.984 . S
N2623 C2616 1.356 . S
N2623 H2626 0.984 . S
N2623 H2627 0.985 . S
H2624 N2619 0.984 . S
H2625 N2619 0.985 . S
H2626 N2623 0.984 . S
H2627 N2623 0.985 . S
H2628 N2622 0.984 . S
H2629 N2622 0.984 . S
H2630 N2618 0.984 . S
H2631 N2618 0.985 . S
C2632 C2633 1.363 . S
C2632 C2638 1.379 . S
C2632 N2640 1.356 . S
C2633 C2632 1.363 . S
C2633 C2639 1.363 . S
C2634 C2635 1.363 . S
C2634 C2639 1.379 . S
C2634 N2641 1.356 . S
C2635 C2634 1.363 . S
C2635 C2638 1.363 . S
N2636 C2638 1.356 . S
N2636 H2648 0.984 . S
N2636 H2649 0.985 . S
N2637 C2639 1.356 . S
N2637 H2642 0.984 . S
N2637 H2643 0.985 . S
C2638 C2632 1.379 . S
C2638 C2635 1.363 . S
C2638 N2636 1.356 . S
C2639 C2633 1.363 . S
C2639 C2634 1.379 . S
C2639 N2637 1.356 . S
N2640 C2632 1.356 . S
N2640 H2646 0.984 . S
N2640 H2647 0.984 . S
N2641 C2634 1.356 . S
N2641 H2644 0.984 . S
N2641 H2645 0.985 . S
H2642 N2637 0.984 . S
H2643 N2637 0.985 . S
H2644 N2641 0.984 . S
H2645 N2641 0.985 . S
H2646 N2640 0.984 . S
H2647 N2640 0.984 . S
H2648 N2636 0.984 . S
H2649 N2636 0.985 . S
C2650 C2651 1.363 . S
C2650 C2656 1.379 . S
C2650 N2658 1.356 . S
C2651 C2650 1.363 . S
C2651 C2657 1.363 . S
C2652 C2653 1.348 1_556 S
C2652 C2657 1.364 1_556 S
C2652 N2659 1.386 . S
C2653 C2652 1.348 1_554 S
C2653 C2656 1.363 . S
N2654 C2656 1.356 . S
N2654 H2666 0.984 . S
N2654 H2667 0.985 . S
N2655 C2657 1.356 . S
N2655 H2660 0.984 . S
N2655 H2661 0.985 1_554 S
C2656 C2650 1.379 . S
C2656 C2653 1.363 . S
C2656 N2654 1.356 . S
C2657 C2651 1.363 . S
C2657 C2652 1.364 1_554 S
C2657 N2655 1.356 . S
N2658 C2650 1.356 . S
N2658 H2664 0.984 . S
N2658 H2665 0.984 . S
N2659 C2652 1.386 . S
N2659 H2662 0.984 . S
N2659 H2663 0.985 . S
H2660 N2655 0.984 . S
H2661 N2655 0.985 1_556 S
H2662 N2659 0.984 . S
H2663 N2659 0.985 . S
H2664 N2658 0.984 . S
H2665 N2658 0.984 . S
H2666 N2654 0.984 . S
H2667 N2654 0.985 . S
C2668 C2669 1.363 . S
C2668 C2674 1.379 . S
C2668 N2676 1.356 . S
C2669 C2668 1.363 . S
C2669 C2675 1.363 . S
C2670 C2671 1.363 . S
C2670 C2675 1.379 . S
C2670 N2677 1.356 . S
C2671 C2670 1.363 . S
C2671 C2674 1.363 . S
N2672 C2674 1.356 . S
N2672 H2684 0.984 . S
N2672 H2685 0.985 . S
N2673 C2675 1.356 . S
N2673 H2678 0.984 . S
N2673 H2679 0.985 . S
C2674 C2668 1.379 . S
C2674 C2671 1.363 . S
C2674 N2672 1.356 . S
C2675 C2669 1.363 . S
C2675 C2670 1.379 . S
C2675 N2673 1.356 . S
N2676 C2668 1.356 . S
N2676 H2682 0.984 . S
N2676 H2683 0.984 . S
N2677 C2670 1.356 . S
N2677 H2680 0.984 . S
N2677 H2681 0.985 . S
H2678 N2673 0.984 . S
H2679 N2673 0.985 . S
H2680 N2677 0.984 . S
H2681 N2677 0.985 . S
H2682 N2676 0.984 . S
H2683 N2676 0.984 . S
H2684 N2672 0.984 . S
H2685 N2672 0.985 . S
C2686 C2687 1.363 . S
C2686 C2692 1.379 . S
C2686 N2694 1.356 . S
C2687 C2686 1.363 . S
C2687 C2693 1.363 . S
C2688 C2689 1.363 . S
C2688 C2693 1.379 . S
C2688 N2695 1.356 . S
C2689 C2688 1.363 . S
C2689 C2692 1.363 . S
N2690 C2692 1.356 . S
N2690 H2702 0.984 . S
N2690 H2703 0.985 . S
N2691 C2693 1.356 . S
N2691 H2696 0.984 . S
N2691 H2697 0.985 . S
C2692 C2686 1.379 . S
C2692 C2689 1.363 . S
C2692 N2690 1.356 . S
C2693 C2687 1.363 . S
C2693 C2688 1.379 . S
C2693 N2691 1.356 . S
N2694 C2686 1.356 . S
N2694 H2700 0.984 . S
N2694 H2701 0.984 . S
N2695 C2688 1.356 . S
N2695 H2698 0.984 . S
N2695 H2699 0.985 . S
H2696 N2691 0.984 . S
H2697 N2691 0.985 . S
H2698 N2695 0.984 . S
H2699 N2695 0.985 . S
H2700 N2694 0.984 . S
H2701 N2694 0.984 . S
H2702 N2690 0.984 . S
H2703 N2690 0.985 . S
C977 C105 2.485 1_455 S
C979 C349 2.430 . S
C995 C65 2.168 . S
C997 C400 2.158 . S
C1013 C73 1.813 . S
C1015 C429 1.820 . S
C1033 C473 1.466 . S
C1031 C92 1.545 . S
C1049 C17 1.469 . S
C1051 C513 1.378 . S
C1069 C549 1.782 . S
C1067 C37 1.769 . S
C1087 C599 2.042 . S
C1085 C49 1.852 . S
C1103 C8 2.491 . S
C1105 C629 2.452 . S
C1123 C359 2.080 . S
C1121 C231 2.105 . S
C1139 C241 0.922 . S
C1141 C402 0.883 . S
C1159 C439 1.421 . S
C1157 C273 1.328 . S
C1177 C469 1.516 . S
C1175 C171 1.523 . S
C1193 C227 1.554 . S
C1195 C509 1.542 . S
C1213 C559 1.049 . S
C1211 C245 0.990 . S
C1231 C593 0.998 . S
C1229 C269 1.059 . S
C1249 C639 2.054 . S
C1247 C175 2.081 . S
C1267 C353 1.472 . S
C1265 C162 1.588 1_554 S
C1283 C289 1.803 . S
C1285 C679 1.816 . S
C1303 C713 1.562 . S
C1301 C330 1.648 . S
C1321 C749 0.890 . S
C1319 C317 0.911 . S
C1337 C120 1.679 . S
C1339 C633 1.566 . S
C1355 C134 1.707 . S
C1357 C433 1.610 . S
C1373 C331 1.710 . S
C1375 C799 1.728 . S
C1393 C818 0.426 . S
C1391 C303 0.337 . S
C1411 C360 2.413 1_565 S
C1409 C59 2.428 . S
C1429 C829 2.193 . S
C1427 C107 2.189 . S
C1445 C91 1.862 . S
C1447 C440 1.871 . S
C1463 C78 1.530 . S
C1465 C802 1.476 . S
C1483 C522 1.392 . S
C1481 C7 1.376 . S
C1499 C51 1.798 . S
C1501 C720 1.821 . S
C1519 C578 2.067 1_566 S
C1517 C31 2.032 . S
C1537 C880 2.471 . S
C1535 C22 2.474 . S
C1555 C338 2.102 . S
C1553 C143 2.121 . S
C1573 C833 0.868 . S
C1571 C315 0.867 . S
C1589 C115 1.414 . S
C1591 C418 1.429 . S
C1607 C287 1.538 . S
C1609 C800 1.559 . S
C1625 C147 1.569 . S
C1627 C520 1.588 . S
C1645 C698 1.059 . S
C1643 C311 1.054 . S
C1661 C119 1.012 . S
C1663 C602 1.003 . S
C1679 C283 2.096 . S
C1681 C858 2.076 . S
C1697 C190 1.521 . S
C1699 C362 1.457 . S
C1715 C177 1.817 . S
C1717 C658 1.834 . S
C1733 C260 1.597 . S
C1735 C562 1.546 . S
C1751 C247 0.921 . S
C1753 C760 0.907 . S
C1771 C882 1.561 1_545 S
C1769 C274 1.621 . S
C1787 C218 1.655 . S
C1789 C442 1.596 . S
C1807 C458 1.746 . S
C1805 C261 1.724 . S
C1825 C399 0.422 . S
C1823 C205 0.371 . S
C1841 C77 2.486 . S
C1843 C909 2.430 . S
C1861 C840 2.158 . S
C1859 C93 2.168 . S
C1877 C101 1.813 . S
C1879 C949 1.820 . S
C1895 C64 1.545 1_655 S
C1897 C793 1.466 . S
C1913 C45 1.469 . S
C1915 C673 1.378 . S
C1933 C709 1.781 . S
C1931 C9 1.769 . S
C1951 C759 2.042 . S
C1949 C21 1.851 . S
C1969 C869 2.452 . S
C1967 C36 2.491 . S
C1987 C919 2.080 . S
C1985 C259 2.105 . S
C2003 C185 0.922 . S
C2005 C842 0.882 1_554 S
C2023 C959 1.421 . S
C2021 C203 1.328 . S
C2041 C789 1.516 . S
C2039 C213 1.523 . S
C2059 C669 1.542 . S
C2057 C255 1.554 . S
C2075 C189 0.991 . S
C2077 C719 1.049 . S
C2095 C753 0.998 . S
C2093 C199 1.059 . S
C2111 C217 2.082 . S
C2113 C879 2.054 . S
C2131 C913 1.471 . S
C2129 C316 1.588 . S
C2147 C135 1.804 . S
C2149 C519 1.816 . S
C2167 C553 1.562 . S
C2165 C148 1.648 . S
C2185 C589 0.890 . S
C2183 C163 0.911 . S
C2203 C873 1.567 . S
C2201 C302 1.679 . S
C2219 C288 1.708 . S
C2221 C953 1.611 . S
C2239 C479 1.728 . S
C2237 C149 1.710 . S
C2257 C378 0.426 . S
C2255 C121 0.336 . S
C2273 C87 2.428 . S
C2275 C920 2.446 . S
C2293 C389 2.193 . S
C2291 C79 2.189 . S
C2309 C63 1.862 . S
C2311 C960 1.871 . S
C2327 C106 1.530 . S
C2329 C482 1.476 . S
C2345 C35 1.376 . S
C2347 C682 1.392 . S
C2365 C560 1.820 . S
C2363 C23 1.798 . S
C2381 C3 2.032 . S
C2383 C738 2.067 . S
C2399 C50 2.474 . S
C2401 C640 2.471 . S
C2419 C898 2.102 . S
C2417 C325 2.121 . S
C2435 C161 0.867 . S
C2437 C393 0.867 . S
C2455 C938 1.429 1_655 S
C2453 C297 1.413 . S
C2471 C133 1.538 . S
C2473 C480 1.559 . S
C2489 C329 1.569 . S
C2491 C680 1.588 . S
C2509 C538 1.059 . S
C2507 C157 1.054 . S
C2525 C301 1.009 . S
C2527 C762 1.003 . S
C2545 C618 2.076 . S
C2543 C129 2.096 . S
C2563 C922 1.457 . S
C2561 C246 1.521 . S
C2581 C498 1.851 . S
C2579 C219 1.818 . S
C2597 C232 1.597 . S
C2599 C722 1.546 . S
C2617 C600 0.907 . S
C2615 C191 0.921 . S
C2633 C204 1.622 . S
C2635 C642 1.561 . S
C2651 C176 1.654 . S
C2653 C962 1.596 . S
C2671 C778 1.746 . S
C2669 C233 1.725 . S
C2689 C839 0.422 . S
C2687 C275 0.371 . S
