# Generated by pormake.
# Topology fgl, (4,4)-cn, num edge types: 1
# Building blocks:
#     Node 0, Type 0, BuildingBlock: ESEHIV_clean_sbu_0, # of connection points: 4
#     Node 1, Type 0, BuildingBlock: ESEHIV_clean_sbu_0, # of connection points: 4
#     Node 2, Type 0, BuildingBlock: ESEHIV_clean_sbu_0, # of connection points: 4
#     Node 3, Type 0, BuildingBlock: ESEHIV_clean_sbu_0, # of connection points: 4
#     Node 4, Type 0, BuildingBlock: ESEHIV_clean_sbu_0, # of connection points: 4
#     Node 5, Type 0, BuildingBlock: ESEHIV_clean_sbu_0, # of connection points: 4
#     Node 6, Type 0, BuildingBlock: ESEHIV_clean_sbu_0, # of connection points: 4
#     Node 7, Type 0, BuildingBlock: ESEHIV_clean_sbu_0, # of connection points: 4
#     Node 8, Type 0, BuildingBlock: ESEHIV_clean_sbu_0, # of connection points: 4
#     Node 9, Type 0, BuildingBlock: ESEHIV_clean_sbu_0, # of connection points: 4
#     Node 10, Type 0, BuildingBlock: ESEHIV_clean_sbu_0, # of connection points: 4
#     Node 11, Type 0, BuildingBlock: ESEHIV_clean_sbu_0, # of connection points: 4
#     Node 12, Type 0, BuildingBlock: ESEHIV_clean_sbu_0, # of connection points: 4
#     Node 13, Type 0, BuildingBlock: ESEHIV_clean_sbu_0, # of connection points: 4
#     Node 14, Type 0, BuildingBlock: ESEHIV_clean_sbu_0, # of connection points: 4
#     Node 15, Type 0, BuildingBlock: ESEHIV_clean_sbu_0, # of connection points: 4
#     Node 16, Type 0, BuildingBlock: ESEHIV_clean_sbu_0, # of connection points: 4
#     Node 17, Type 0, BuildingBlock: ESEHIV_clean_sbu_0, # of connection points: 4
#     Node 18, Type 1, BuildingBlock: NAHDIM_clean_sbu_0, # of connection points: 4
#     Node 19, Type 1, BuildingBlock: NAHDIM_clean_sbu_0, # of connection points: 4
#     Node 20, Type 1, BuildingBlock: NAHDIM_clean_sbu_0, # of connection points: 4
#     Node 21, Type 1, BuildingBlock: NAHDIM_clean_sbu_0, # of connection points: 4
#     Node 22, Type 1, BuildingBlock: NAHDIM_clean_sbu_0, # of connection points: 4
#     Node 23, Type 1, BuildingBlock: NAHDIM_clean_sbu_0, # of connection points: 4
#     Node 24, Type 1, BuildingBlock: NAHDIM_clean_sbu_0, # of connection points: 4
#     Node 25, Type 1, BuildingBlock: NAHDIM_clean_sbu_0, # of connection points: 4
#     Node 26, Type 1, BuildingBlock: NAHDIM_clean_sbu_0, # of connection points: 4
#     Node 27, Type 1, BuildingBlock: NAHDIM_clean_sbu_0, # of connection points: 4
#     Node 28, Type 1, BuildingBlock: NAHDIM_clean_sbu_0, # of connection points: 4
#     Node 29, Type 1, BuildingBlock: NAHDIM_clean_sbu_0, # of connection points: 4
#     Node 30, Type 1, BuildingBlock: NAHDIM_clean_sbu_0, # of connection points: 4
#     Node 31, Type 1, BuildingBlock: NAHDIM_clean_sbu_0, # of connection points: 4
#     Node 32, Type 1, BuildingBlock: NAHDIM_clean_sbu_0, # of connection points: 4
#     Node 33, Type 1, BuildingBlock: NAHDIM_clean_sbu_0, # of connection points: 4
#     Node 34, Type 1, BuildingBlock: NAHDIM_clean_sbu_0, # of connection points: 4
#     Node 35, Type 1, BuildingBlock: NAHDIM_clean_sbu_0, # of connection points: 4
#     Edge 36, Type (0, 1), BuildingBlock: XUDNAN_clean_linker_2, # of connection points: 2
#     Edge 37, Type (0, 1), BuildingBlock: XUDNAN_clean_linker_2, # of connection points: 2
#     Edge 38, Type (0, 1), BuildingBlock: XUDNAN_clean_linker_2, # of connection points: 2
#     Edge 39, Type (0, 1), BuildingBlock: XUDNAN_clean_linker_2, # of connection points: 2
#     Edge 40, Type (0, 1), BuildingBlock: XUDNAN_clean_linker_2, # of connection points: 2
#     Edge 41, Type (0, 1), BuildingBlock: XUDNAN_clean_linker_2, # of connection points: 2
#     Edge 42, Type (0, 1), BuildingBlock: XUDNAN_clean_linker_2, # of connection points: 2
#     Edge 43, Type (0, 1), BuildingBlock: XUDNAN_clean_linker_2, # of connection points: 2
#     Edge 44, Type (0, 1), BuildingBlock: XUDNAN_clean_linker_2, # of connection points: 2
#     Edge 45, Type (0, 1), BuildingBlock: XUDNAN_clean_linker_2, # of connection points: 2
#     Edge 46, Type (0, 1), BuildingBlock: XUDNAN_clean_linker_2, # of connection points: 2
#     Edge 47, Type (0, 1), BuildingBlock: XUDNAN_clean_linker_2, # of connection points: 2
#     Edge 48, Type (0, 1), BuildingBlock: XUDNAN_clean_linker_2, # of connection points: 2
#     Edge 49, Type (0, 1), BuildingBlock: XUDNAN_clean_linker_2, # of connection points: 2
#     Edge 50, Type (0, 1), BuildingBlock: XUDNAN_clean_linker_2, # of connection points: 2
#     Edge 51, Type (0, 1), BuildingBlock: XUDNAN_clean_linker_2, # of connection points: 2
#     Edge 52, Type (0, 1), BuildingBlock: XUDNAN_clean_linker_2, # of connection points: 2
#     Edge 53, Type (0, 1), BuildingBlock: XUDNAN_clean_linker_2, # of connection points: 2
#     Edge 54, Type (0, 1), BuildingBlock: XUDNAN_clean_linker_2, # of connection points: 2
#     Edge 55, Type (0, 1), BuildingBlock: XUDNAN_clean_linker_2, # of connection points: 2
#     Edge 56, Type (0, 1), BuildingBlock: XUDNAN_clean_linker_2, # of connection points: 2
#     Edge 57, Type (0, 1), BuildingBlock: XUDNAN_clean_linker_2, # of connection points: 2
#     Edge 58, Type (0, 1), BuildingBlock: XUDNAN_clean_linker_2, # of connection points: 2
#     Edge 59, Type (0, 1), BuildingBlock: XUDNAN_clean_linker_2, # of connection points: 2
#     Edge 60, Type (0, 1), BuildingBlock: XUDNAN_clean_linker_2, # of connection points: 2
#     Edge 61, Type (0, 1), BuildingBlock: XUDNAN_clean_linker_2, # of connection points: 2
#     Edge 62, Type (0, 1), BuildingBlock: XUDNAN_clean_linker_2, # of connection points: 2
#     Edge 63, Type (0, 1), BuildingBlock: XUDNAN_clean_linker_2, # of connection points: 2
#     Edge 64, Type (0, 1), BuildingBlock: XUDNAN_clean_linker_2, # of connection points: 2
#     Edge 65, Type (0, 1), BuildingBlock: XUDNAN_clean_linker_2, # of connection points: 2
#     Edge 66, Type (0, 1), BuildingBlock: XUDNAN_clean_linker_2, # of connection points: 2
#     Edge 67, Type (0, 1), BuildingBlock: XUDNAN_clean_linker_2, # of connection points: 2
#     Edge 68, Type (0, 1), BuildingBlock: XUDNAN_clean_linker_2, # of connection points: 2
#     Edge 69, Type (0, 1), BuildingBlock: XUDNAN_clean_linker_2, # of connection points: 2
#     Edge 70, Type (0, 1), BuildingBlock: XUDNAN_clean_linker_2, # of connection points: 2
#     Edge 71, Type (0, 1), BuildingBlock: XUDNAN_clean_linker_2, # of connection points: 2
#     Edge 72, Type (0, 1), BuildingBlock: XUDNAN_clean_linker_2, # of connection points: 2
#     Edge 73, Type (0, 1), BuildingBlock: XUDNAN_clean_linker_2, # of connection points: 2
#     Edge 74, Type (0, 1), BuildingBlock: XUDNAN_clean_linker_2, # of connection points: 2
#     Edge 75, Type (0, 1), BuildingBlock: XUDNAN_clean_linker_2, # of connection points: 2
#     Edge 76, Type (0, 1), BuildingBlock: XUDNAN_clean_linker_2, # of connection points: 2
#     Edge 77, Type (0, 1), BuildingBlock: XUDNAN_clean_linker_2, # of connection points: 2
#     Edge 78, Type (0, 1), BuildingBlock: XUDNAN_clean_linker_2, # of connection points: 2
#     Edge 79, Type (0, 1), BuildingBlock: XUDNAN_clean_linker_2, # of connection points: 2
#     Edge 80, Type (0, 1), BuildingBlock: XUDNAN_clean_linker_2, # of connection points: 2
#     Edge 81, Type (0, 1), BuildingBlock: XUDNAN_clean_linker_2, # of connection points: 2
#     Edge 82, Type (0, 1), BuildingBlock: XUDNAN_clean_linker_2, # of connection points: 2
#     Edge 83, Type (0, 1), BuildingBlock: XUDNAN_clean_linker_2, # of connection points: 2
#     Edge 84, Type (0, 1), BuildingBlock: XUDNAN_clean_linker_2, # of connection points: 2
#     Edge 85, Type (0, 1), BuildingBlock: XUDNAN_clean_linker_2, # of connection points: 2
#     Edge 86, Type (0, 1), BuildingBlock: XUDNAN_clean_linker_2, # of connection points: 2
#     Edge 87, Type (0, 1), BuildingBlock: XUDNAN_clean_linker_2, # of connection points: 2
#     Edge 88, Type (0, 1), BuildingBlock: XUDNAN_clean_linker_2, # of connection points: 2
#     Edge 89, Type (0, 1), BuildingBlock: XUDNAN_clean_linker_2, # of connection points: 2
#     Edge 90, Type (0, 1), BuildingBlock: XUDNAN_clean_linker_2, # of connection points: 2
#     Edge 91, Type (0, 1), BuildingBlock: XUDNAN_clean_linker_2, # of connection points: 2
#     Edge 92, Type (0, 1), BuildingBlock: XUDNAN_clean_linker_2, # of connection points: 2
#     Edge 93, Type (0, 1), BuildingBlock: XUDNAN_clean_linker_2, # of connection points: 2
#     Edge 94, Type (0, 1), BuildingBlock: XUDNAN_clean_linker_2, # of connection points: 2
#     Edge 95, Type (0, 1), BuildingBlock: XUDNAN_clean_linker_2, # of connection points: 2
#     Edge 96, Type (0, 1), BuildingBlock: XUDNAN_clean_linker_2, # of connection points: 2
#     Edge 97, Type (0, 1), BuildingBlock: XUDNAN_clean_linker_2, # of connection points: 2
#     Edge 98, Type (0, 1), BuildingBlock: XUDNAN_clean_linker_2, # of connection points: 2
#     Edge 99, Type (0, 1), BuildingBlock: XUDNAN_clean_linker_2, # of connection points: 2
#     Edge 100, Type (0, 1), BuildingBlock: XUDNAN_clean_linker_2, # of connection points: 2
#     Edge 101, Type (0, 1), BuildingBlock: XUDNAN_clean_linker_2, # of connection points: 2
#     Edge 102, Type (0, 1), BuildingBlock: XUDNAN_clean_linker_2, # of connection points: 2
#     Edge 103, Type (0, 1), BuildingBlock: XUDNAN_clean_linker_2, # of connection points: 2
#     Edge 104, Type (0, 1), BuildingBlock: XUDNAN_clean_linker_2, # of connection points: 2
#     Edge 105, Type (0, 1), BuildingBlock: XUDNAN_clean_linker_2, # of connection points: 2
#     Edge 106, Type (0, 1), BuildingBlock: XUDNAN_clean_linker_2, # of connection points: 2
#     Edge 107, Type (0, 1), BuildingBlock: XUDNAN_clean_linker_2, # of connection points: 2
# Relax obj value: 0.035
# Max RMSD: 0.151
# Mean RMSD: 0.109
data_MOF--net-fgl--node1-ESEHIV_clean_sbu_0--node2-NAHDIM_clean_sbu_0--edge1-XUDNAN_clean_linker_2
_symmetry_space_group_name_H-M    P1
_symmetry_Int_Tables_number       1
_symmetry_cell_setting            triclinic
loop_
_symmetry_equiv_pos_as_xyz
'x, y, z'
_cell_length_a     74.502894
_cell_length_b     76.050927
_cell_length_c     50.895242
_cell_angle_alpha  88.688233
_cell_angle_beta   90.479505
_cell_angle_gamma 119.70097
loop_
_atom_site_label
_atom_site_type_symbol
_atom_site_fract_x
_atom_site_fract_y
_atom_site_fract_z
_atom_type_partial_charge
Cu0 Cu 0.01516 0.53229 1.00011 0.0
N1 N 0.99653 0.52908 0.02664 0.0
N2 N 0.9857 0.53775 0.06238 0.0
C3 C 0.99982 0.54411 0.0429 0.0
C4 C 0.97294 0.51785 0.05824 0.0
C5 C 0.97961 0.51254 0.03605 0.0
O6 O 0.0285 0.56085 0.99087 0.0
C7 C 0.02627 0.50501 0.01902 0.0
O8 O 1.00651 0.49306 0.01442 0.0
H9 H 0.01304 0.55921 0.04129 0.0
H10 H 0.97305 0.49759 0.02796 0.0
N11 N 1.00307 0.51687 0.97025 0.0
N12 N 1.00172 0.50147 0.93267 0.0
C13 C 0.01394 0.51401 0.95153 0.0
C14 C 0.98314 0.50571 0.96319 0.0
C15 C 0.98226 0.49617 0.93998 0.0
C16 C 0.0165 0.5669 0.98168 0.0
O17 O 0.99741 0.5533 0.97597 0.0
H18 H 0.03056 0.52061 0.95231 0.0
H19 H 0.97019 0.50442 0.97426 0.0
O20 O 0.03409 0.52392 0.01429 0.0
H21 H 0.96 0.50778 0.07066 0.0
H22 H 0.96837 0.48619 0.92934 0.0
Cu23 Cu 0.51201 0.54638 0.0167 0.0
N24 N 0.51604 0.56032 0.98257 0.0
N25 N 0.52997 0.57785 0.9453 0.0
C26 C 0.53216 0.56734 0.96571 0.0
C27 C 0.51168 0.57704 0.94941 0.0
C28 C 0.50317 0.56625 0.97235 0.0
O29 O 0.52997 0.57362 0.03424 0.0
C30 C 0.49513 0.50364 1.00135 0.0
O31 O 0.51028 0.50434 0.01553 0.0
H32 H 0.54547 0.56541 0.96876 0.0
H33 H 0.48881 0.56331 0.98134 0.0
N34 N 0.50737 0.53266 0.05107 0.0
N35 N 0.49156 0.51536 0.08779 0.0
C36 C 0.48922 0.52216 0.06391 0.0
C37 C 0.52172 0.53262 0.06722 0.0
C38 C 0.51201 0.52194 0.08989 0.0
C39 C 0.54947 0.5839 0.03102 0.0
O40 O 0.55874 0.57662 0.01664 0.0
H41 H 0.47471 0.51992 0.05606 0.0
H42 H 0.53807 0.53995 0.06284 0.0
O43 O 0.49317 0.51934 0.99912 0.0
H44 H 0.50497 0.58392 0.93685 0.0
H45 H 0.51944 0.5191 0.10651 0.0
Cu46 Cu 0.53287 0.05704 0.03559 0.0
N47 N 0.53324 0.07544 0.01059 0.0
N48 N 0.52847 0.08545 0.97092 0.0
C49 C 0.52631 0.06979 0.98613 0.0
C50 C 0.53703 0.1017 0.98655 0.0
C51 C 0.54014 0.09548 0.0111 0.0
O52 O 0.50394 0.03702 0.04223 0.0
C53 C 0.56836 0.06046 0.01565 0.0
O54 O 0.57402 0.07917 0.02189 0.0
H55 H 0.51953 0.05431 0.97978 0.0
H56 H 0.54707 0.10492 0.02791 0.0
N57 N 0.54512 0.06902 0.06718 0.0
N58 N 0.56323 0.07396 0.10417 0.0
C59 C 0.5559 0.06288 0.08232 0.0
C60 C 0.54534 0.08444 0.07989 0.0
C61 C 0.55655 0.08755 0.10274 0.0
C62 C 0.49221 0.04422 0.04784 0.0
O63 O 0.5004 0.06396 0.04902 0.0
H64 H 0.55804 0.05028 0.07738 0.0
H65 H 0.53786 0.09278 0.07312 0.0
O66 O 0.54976 0.04672 0.02045 0.0
H67 H 0.541 0.11696 0.98058 0.0
H68 H 0.55971 0.09909 0.11696 0.0
Cu69 Cu 0.53313 0.06682 0.51469 0.0
N70 N 0.55697 0.08686 0.49837 0.0
N71 N 0.58591 0.10163 0.47448 0.0
C72 C 0.56921 0.08397 0.48185 0.0
C73 C 0.58406 0.11617 0.48683 0.0
C74 C 0.56612 0.107 0.50151 0.0
O75 O 0.53742 0.0435 0.52031 0.0
C76 C 0.49092 0.05027 0.49784 0.0
O77 O 0.48614 0.03743 0.51778 0.0
H78 H 0.56618 0.06917 0.47593 0.0
H79 H 0.56027 0.11443 0.51385 0.0
N80 N 0.53031 0.07707 0.54645 0.0
N81 N 0.51578 0.08327 0.5805 0.0
C82 C 0.51277 0.07506 0.55659 0.0
C83 C 0.54507 0.08735 0.56435 0.0
C84 C 0.53609 0.09101 0.58557 0.0
C85 C 0.53977 0.0376 0.54311 0.0
O86 O 0.53586 0.045 0.56394 0.0
H87 H 0.49792 0.06719 0.54714 0.0
H88 H 0.56111 0.09134 0.56239 0.0
O89 O 0.50986 0.06231 0.49235 0.0
H90 H 0.59483 0.13226 0.48525 0.0
H91 H 0.5438 0.0985 0.60343 0.0
Cu92 Cu 0.02029 0.54676 0.50243 0.0
N93 N 0.03719 0.54254 0.52634 0.0
N94 N 0.04462 0.52569 0.55718 0.0
C95 C 0.02998 0.52559 0.54136 0.0
C96 C 0.06182 0.54361 0.55216 0.0
C97 C 0.05722 0.55397 0.53292 0.0
O98 O 1.00126 0.51995 0.48904 0.0
C99 C 0.01395 0.56948 0.54127 0.0
O100 O 0.026 0.56538 0.55604 0.0
H101 H 0.01411 0.51342 0.54083 0.0
H102 H 0.06765 0.56874 0.52445 0.0
N103 N 0.03401 0.56389 0.47361 0.0
N104 N 0.03747 0.58496 0.44009 0.0
C105 C 0.02824 0.57682 0.46337 0.0
C106 C 0.04756 0.56393 0.45622 0.0
C107 C 0.04967 0.57689 0.43543 0.0
C108 C 0.01024 0.5104 0.48134 0.0
O109 O 0.03051 0.51955 0.48155 0.0
H110 H 0.01641 0.57919 0.47202 0.0
H111 H 0.05469 0.55456 0.45786 0.0
O112 O 1.00734 0.56037 0.51961 0.0
H113 H 0.07667 0.54871 0.56142 0.0
H114 H 0.05902 0.57977 0.41799 0.0
Cu115 Cu 0.52846 0.56827 0.51299 0.0
N116 N 0.54246 0.59587 0.50383 0.0
N117 N 0.56925 0.62703 0.49714 0.0
C118 C 0.56203 0.60696 0.49498 0.0
C119 C 0.55319 0.62859 0.50645 0.0
C120 C 0.53673 0.60939 0.51051 0.0
O121 O 0.54238 0.5637 0.54299 0.0
C122 C 0.51357 0.53303 0.48114 0.0
O123 O 0.50502 0.52268 0.50289 0.0
H124 H 0.57137 0.60047 0.48913 0.0
H125 H 0.52215 0.6056 0.5196 0.0
N126 N 0.50266 0.56176 0.52659 0.0
N127 N 0.4694 0.54257 0.53815 0.0
C128 C 0.48393 0.54677 0.51951 0.0
C129 C 0.49984 0.56779 0.55004 0.0
C130 C 0.47943 0.5561 0.55719 0.0
C131 C 0.56175 0.57281 0.5474 0.0
O132 O 0.57471 0.58362 0.52861 0.0
H133 H 0.4814 0.53832 0.5018 0.0
H134 H 0.51215 0.57876 0.56211 0.0
O135 O 0.52504 0.5522 0.48196 0.0
H136 H 0.55369 0.64254 0.51166 0.0
H137 H 0.47308 0.55644 0.57607 0.0
Cu138 Cu 0.70961 0.89885 0.33391 0.0
N139 N 0.7259 0.92423 0.31836 0.0
N140 N 0.73656 0.95652 0.30756 0.0
C141 C 0.72074 0.93881 0.31653 0.0
C142 C 0.75231 0.95289 0.30354 0.0
C143 C 0.74569 0.93293 0.3103 0.0
O144 O 0.6922 0.90284 0.35923 0.0
C145 C 0.70769 0.87699 0.28973 0.0
O146 O 0.72775 0.88793 0.2931 0.0
H147 H 0.70602 0.93672 0.32315 0.0
H148 H 0.7549 0.92554 0.31041 0.0
N149 N 0.72707 0.89235 0.35274 0.0
N150 N 0.7408 0.8747 0.37044 0.0
C151 C 0.727 0.87464 0.35311 0.0
C152 C 0.74142 0.90402 0.37032 0.0
C153 C 0.74988 0.89309 0.38143 0.0
C154 C 0.68963 0.89651 0.38312 0.0
O155 O 0.69497 0.88302 0.39017 0.0
H156 H 0.71653 0.86174 0.34165 0.0
H157 H 0.74506 0.91921 0.37514 0.0
O158 O 0.69583 0.87902 0.30592 0.0
H159 H 0.76765 0.96395 0.29683 0.0
H160 H 0.76164 0.89817 0.39649 0.0
Cu161 Cu 0.17745 0.88357 0.33727 0.0
N162 N 0.15244 0.86763 0.31964 0.0
N163 N 0.12762 0.84007 0.3001 0.0
C164 C 0.14597 0.84842 0.31268 0.0
C165 C 0.12232 0.85467 0.29914 0.0
C166 C 0.1377 0.87169 0.3111 0.0
O167 O 0.17641 0.8674 0.36816 0.0
C168 C 0.19799 0.89987 0.29171 0.0
O169 O 0.1828 0.90396 0.29107 0.0
H170 H 0.15455 0.84068 0.31709 0.0
H171 H 0.13817 0.88603 0.31304 0.0
N172 N 0.18135 0.90844 0.34914 0.0
N173 N 0.19808 0.93974 0.36538 0.0
C174 C 0.19981 0.92417 0.3559 0.0
C175 C 0.1674 0.91422 0.35448 0.0
C176 C 0.17766 0.93348 0.36444 0.0
C177 C 0.16092 0.8627 0.38309 0.0
O178 O 0.14835 0.86957 0.37673 0.0
H179 H 0.21414 0.92386 0.35466 0.0
H180 H 0.1509 0.90494 0.35199 0.0
O181 O 0.19939 0.89019 0.3117 0.0
H182 H 0.10853 0.85332 0.29001 0.0
H183 H 0.17053 0.94212 0.37064 0.0
Cu184 Cu 0.19554 0.41741 0.35269 0.0
N185 N 0.19191 0.4354 0.33065 0.0
N186 N 0.17531 0.44333 0.30004 0.0
C187 C 0.17347 0.4309 0.32037 0.0
C188 C 0.19572 0.45633 0.29741 0.0
C189 C 0.20596 0.45148 0.31646 0.0
O190 O 0.16786 0.39433 0.35866 0.0
C191 C 0.23411 0.42505 0.33714 0.0
O192 O 0.2385 0.4425 0.34712 0.0
H193 H 0.15914 0.41746 0.3258 0.0
H194 H 0.2225 0.45822 0.31824 0.0
N195 N 0.20625 0.42772 0.38551 0.0
N196 N 0.21686 0.42674 0.42633 0.0
C197 C 0.20803 0.4162 0.40453 0.0
C198 C 0.21425 0.44637 0.3954 0.0
C199 C 0.22095 0.44583 0.42071 0.0
C200 C 0.1568 0.397 0.37538 0.0
O201 O 0.1649 0.4142 0.3878 0.0
H202 H 0.20349 0.40045 0.40197 0.0
H203 H 0.21545 0.45942 0.38485 0.0
O204 O 0.2153 0.41089 0.33694 0.0
H205 H 0.20278 0.46759 0.28178 0.0
H206 H 0.22832 0.45847 0.43383 0.0
Cu207 Cu 0.17302 0.34497 0.85384 0.0
N208 N 0.17251 0.3278 0.82811 0.0
N209 N 0.1858 0.32117 0.79309 0.0
C210 C 0.18287 0.33505 0.80537 0.0
C211 C 0.1767 0.30436 0.80862 0.0
C212 C 0.16844 0.30849 0.83028 0.0
O213 O 0.20155 0.35807 0.86668 0.0
C214 C 0.14437 0.35198 0.82892 0.0
O215 O 0.13539 0.33212 0.82955 0.0
H216 H 0.19013 0.35088 0.79948 0.0
H217 H 0.16171 0.29878 0.84742 0.0
N218 N 0.15595 0.33144 0.88257 0.0
N219 N 0.14348 0.32806 0.92319 0.0
C220 C 0.15904 0.3396 0.90646 0.0
C221 C 0.1378 0.31401 0.88417 0.0
C222 C 0.12997 0.31195 0.90929 0.0
C223 C 0.20588 0.34606 0.87966 0.0
O224 O 0.1913 0.32727 0.88398 0.0
H225 H 0.17199 0.35427 0.91106 0.0
H226 H 0.13044 0.30392 0.86802 0.0
O227 O 0.16263 0.36203 0.8382 0.0
H228 H 0.17721 0.29059 0.80545 0.0
H229 H 0.11534 0.29982 0.9166 0.0
Cu230 Cu 0.69817 0.87724 0.83475 0.0
N231 N 0.71017 0.86268 0.82144 0.0
N232 N 0.71301 0.83788 0.80257 0.0
C233 C 0.70045 0.84545 0.8078 0.0
C234 C 0.73149 0.85109 0.81287 0.0
C235 C 0.72968 0.86635 0.82453 0.0
O236 O 0.68145 0.8619 0.86543 0.0
C237 C 0.67804 0.89532 0.80261 0.0
O238 O 0.67671 0.90425 0.82371 0.0
H239 H 0.6844 0.83848 0.80199 0.0
H240 H 0.74162 0.87896 0.83506 0.0
N241 N 0.71877 0.90116 0.8495 0.0
N242 N 0.73422 0.93234 0.86575 0.0
C243 C 0.72226 0.92027 0.84635 0.0
C244 C 0.72921 0.90136 0.87132 0.0
C245 C 0.7387 0.92052 0.88141 0.0
C246 C 0.67051 0.84269 0.86748 0.0
O247 O 0.66572 0.83189 0.84618 0.0
H248 H 0.71494 0.92492 0.8315 0.0
H249 H 0.72854 0.88806 0.88044 0.0
O250 O 0.68492 0.88295 0.80458 0.0
H251 H 0.74509 0.84941 0.81289 0.0
H252 H 0.74724 0.92512 0.89964 0.0
Cu253 Cu 0.19441 0.88277 0.83351 0.0
N254 N 0.18034 0.8795 0.80168 0.0
N255 N 0.16405 0.86417 0.76479 0.0
C256 C 0.17558 0.86411 0.78538 0.0
C257 C 0.1617 0.8805 0.76822 0.0
C258 C 0.17174 0.8899 0.79102 0.0
O259 O 0.18123 0.85682 0.85225 0.0
C260 C 0.23111 0.91089 0.81314 0.0
O261 O 0.21873 0.91797 0.80667 0.0
H262 H 0.18033 0.85294 0.78896 0.0
H263 H 0.17234 0.9031 0.79946 0.0
N264 N 0.19331 0.90103 0.85639 0.0
N265 N 0.20205 0.92027 0.89201 0.0
C266 C 0.20694 0.90934 0.87605 0.0
C267 C 0.17916 0.90686 0.85985 0.0
C268 C 0.18461 0.91888 0.88177 0.0
C269 C 0.16155 0.84775 0.85201 0.0
O270 O 0.1522 0.85612 0.83927 0.0
H271 H 0.22004 0.90701 0.87877 0.0
H272 H 0.16547 0.90209 0.84798 0.0
O273 O 0.2235 0.89391 0.82541 0.0
H274 H 0.15282 0.88502 0.7557 0.0
H275 H 0.17592 0.92536 0.8901 0.0
Cu276 Cu 0.37968 0.22654 0.68525 0.0
N277 N 0.39159 0.25027 0.6649 0.0
N278 N 0.39229 0.27634 0.64303 0.0
C279 C 0.38314 0.26223 0.66225 0.0
C280 C 0.40722 0.27325 0.63316 0.0
C281 C 0.40684 0.25715 0.64685 0.0
O282 O 0.36192 0.23031 0.71014 0.0
C283 C 0.37893 0.20065 0.64702 0.0
O284 O 0.39879 0.21111 0.65205 0.0
H285 H 0.36952 0.25968 0.67294 0.0
H286 H 0.4163 0.25038 0.64298 0.0
N287 N 0.39958 0.2241 0.70483 0.0
N288 N 0.41274 0.20929 0.73074 0.0
C289 C 0.39805 0.20648 0.71302 0.0
C290 C 0.41588 0.23863 0.71763 0.0
C291 C 0.42404 0.22951 0.73373 0.0
C292 C 0.36037 0.22563 0.73459 0.0
O293 O 0.36691 0.21339 0.7432 0.0
H294 H 0.38549 0.19183 0.70752 0.0
H295 H 0.42075 0.25459 0.7164 0.0
O296 O 0.36662 0.20414 0.66042 0.0
H297 H 0.4172 0.28158 0.61673 0.0
H298 H 0.43683 0.23708 0.74718 0.0
Cu299 Cu 0.85296 0.18995 0.66037 0.0
N300 N 0.87317 0.19497 0.63504 0.0
N301 N 0.89515 0.21275 0.60254 0.0
C302 C 0.87949 0.21058 0.61781 0.0
C303 C 0.89873 0.19764 0.61011 0.0
C304 C 0.88519 0.18673 0.63044 0.0
O305 O 0.85978 0.21715 0.67193 0.0
C306 C 0.82417 0.15527 0.6376 0.0
O307 O 0.84045 0.15297 0.64018 0.0
H308 H 0.87298 0.22054 0.61698 0.0
H309 H 0.88456 0.17411 0.64148 0.0
N310 N 0.85293 0.17533 0.69048 0.0
N311 N 0.83795 0.15563 0.72593 0.0
C312 C 0.83506 0.1617 0.70202 0.0
C313 C 0.86782 0.178 0.70779 0.0
C314 C 0.85855 0.16588 0.72985 0.0
C315 C 0.87889 0.22809 0.67783 0.0
O316 O 0.89091 0.22005 0.67676 0.0
H317 H 0.82002 0.15742 0.69386 0.0
H318 H 0.88408 0.1887 0.70529 0.0
O319 O 0.82592 0.17217 0.64428 0.0
H320 H 0.91077 0.1952 0.60229 0.0
H321 H 0.86624 0.16516 0.74765 0.0
Cu322 Cu 0.87305 0.7233 0.70616 0.0
N323 N 0.87353 0.74413 0.68568 0.0
N324 N 0.86546 0.75944 0.65344 0.0
C325 C 0.85954 0.74206 0.66734 0.0
C326 C 0.88386 0.77297 0.66374 0.0
C327 C 0.88881 0.76346 0.68355 0.0
O328 O 0.84449 0.70168 0.7097 0.0
C329 C 0.89604 0.71728 0.66597 0.0
O330 O 0.88535 0.72176 0.64918 0.0
H331 H 0.84562 0.72785 0.66387 0.0
H332 H 0.90292 0.76992 0.69487 0.0
N333 N 0.88375 0.7325 0.73946 0.0
N334 N 0.89906 0.73432 0.77806 0.0
C335 C 0.8916 0.72386 0.75575 0.0
C336 C 0.88629 0.74904 0.75179 0.0
C337 C 0.89574 0.75021 0.77563 0.0
C338 C 0.83244 0.70605 0.72201 0.0
O339 O 0.84009 0.72429 0.73151 0.0
H340 H 0.8923 0.71043 0.75091 0.0
H341 H 0.88174 0.75957 0.7439 0.0
O342 O 0.89156 0.71542 0.69034 0.0
H343 H 0.89359 0.78838 0.65671 0.0
H344 H 0.89976 0.76181 0.79006 0.0
Cu345 Cu 0.85569 0.73215 0.1698 0.0
N346 N 0.87786 0.75149 0.14989 0.0
N347 N 0.90576 0.76463 0.12384 0.0
C348 C 0.89117 0.74788 0.13654 0.0
C349 C 0.9014 0.77939 0.12956 0.0
C350 C 0.88417 0.77122 0.14563 0.0
O351 O 0.86055 0.70901 0.17239 0.0
C352 C 0.82415 0.74016 0.15464 0.0
O353 O 0.83554 0.75638 0.16843 0.0
H354 H 0.89027 0.73324 0.1365 0.0
H355 H 0.87678 0.7791 0.15362 0.0
N356 N 0.85644 0.74189 0.20333 0.0
N357 N 0.84717 0.74258 0.24475 0.0
C358 C 0.84102 0.73382 0.22114 0.0
C359 C 0.87282 0.75652 0.21585 0.0
C360 C 0.86714 0.75702 0.24141 0.0
C361 C 0.86288 0.70171 0.19416 0.0
O362 O 0.85789 0.70688 0.21616 0.0
H363 H 0.82587 0.72121 0.21701 0.0
H364 H 0.88805 0.76554 0.2073 0.0
O365 O 0.82991 0.72697 0.1526 0.0
H366 H 0.90984 0.79491 0.1224 0.0
H367 H 0.87725 0.76657 0.25666 0.0
Cu368 Cu 0.35543 0.2127 0.18073 0.0
N369 N 0.33529 0.18737 0.16872 0.0
N370 N 0.32107 0.15418 0.16189 0.0
C371 C 0.33628 0.17044 0.17374 0.0
C372 C 0.31003 0.1611 0.14851 0.0
C373 C 0.31878 0.18166 0.15293 0.0
O374 O 0.36873 0.20651 0.21027 0.0
C375 C 0.36966 0.22501 0.12738 0.0
O376 O 0.3584 0.20581 0.12161 0.0
H377 H 0.34842 0.17016 0.18526 0.0
H378 H 0.31383 0.19179 0.14468 0.0
N379 N 0.34491 0.22811 0.19499 0.0
N380 N 0.34767 0.25574 0.21356 0.0
C381 C 0.35705 0.24489 0.20848 0.0
C382 C 0.32696 0.22803 0.19145 0.0
C383 C 0.32859 0.24506 0.20306 0.0
C384 C 0.35577 0.19656 0.22865 0.0
O385 O 0.33673 0.19309 0.22597 0.0
H386 H 0.37282 0.2493 0.2136 0.0
H387 H 0.31407 0.21701 0.18019 0.0
O388 O 0.37257 0.23004 0.15147 0.0
H389 H 0.29668 0.152 0.13647 0.0
H390 H 0.31701 0.24971 0.20251 0.0
Cu391 Cu 0.85462 0.24503 0.14952 0.0
N392 N 0.8437 0.24555 0.11653 0.0
N393 N 0.82887 0.23512 0.0773 0.0
C394 C 0.8363 0.23049 0.09911 0.0
C395 C 0.83172 0.25384 0.08137 0.0
C396 C 0.84085 0.26021 0.10556 0.0
O397 O 0.83228 0.22438 0.17062 0.0
C398 C 0.89135 0.2522 0.12751 0.0
O399 O 0.88539 0.26099 0.10971 0.0
H400 H 0.83655 0.21651 0.10241 0.0
H401 H 0.84489 0.27441 0.11468 0.0
N402 N 0.86407 0.26917 0.1674 0.0
N403 N 0.87458 0.28846 0.2029 0.0
C404 C 0.86196 0.26989 0.19352 0.0
C405 C 0.87855 0.28801 0.1599 0.0
C406 C 0.88512 0.29997 0.18185 0.0
C407 C 0.81764 0.2282 0.17405 0.0
O408 O 0.81893 0.24445 0.16259 0.0
H409 H 0.85287 0.25659 0.20581 0.0
H410 H 0.88506 0.29231 0.14033 0.0
O411 O 0.87894 0.24206 0.14613 0.0
H412 H 0.82719 0.26226 0.06811 0.0
H413 H 0.89746 0.31555 0.18253 0.0
C414 C 1.00517 0.64022 0.19058 0.0
O415 O 1.00493 0.65562 0.17873 0.0
O416 O 0.97847 0.66072 0.22973 0.0
Zn417 Zn 1.00381 0.65877 0.24099 0.0
O418 O 1.00211 0.64596 0.27725 0.0
C419 C 0.02728 0.70218 0.24734 0.0
O420 O 1.0087 0.6992 0.25229 0.0
O421 O 1.00584 0.63957 0.21558 0.0
C422 C 1.00508 0.65499 0.29895 0.0
O423 O 1.00743 0.67328 0.29894 0.0
C424 C 0.96428 0.66059 0.24362 0.0
O425 O 0.96481 0.65877 0.26931 0.0
O426 O 0.02926 0.68712 0.24088 0.0
C427 C 0.44299 0.4584 0.32215 0.0
O428 O 0.44989 0.46085 0.29791 0.0
O429 O 0.37572 0.42583 0.30281 0.0
Zn430 Zn 0.40477 0.43097 0.29592 0.0
O431 O 0.41612 0.4474 0.26201 0.0
C432 C 0.38544 0.38788 0.28606 0.0
O433 O 0.36852 0.38912 0.2875 0.0
O434 O 0.42397 0.44593 0.32663 0.0
C435 C 0.40562 0.44191 0.24095 0.0
O436 O 0.38692 0.4261 0.24183 0.0
C437 C 0.36963 0.43871 0.30058 0.0
O438 O 0.38304 0.45759 0.29422 0.0
O439 O 0.40285 0.40366 0.28994 0.0
C440 C 0.70782 0.06871 0.30223 0.0
O441 O 0.71988 0.08821 0.30568 0.0
O442 O 0.66582 0.08497 0.32288 0.0
Zn443 Zn 0.67841 0.08152 0.28994 0.0
O444 O 0.70202 0.10808 0.27733 0.0
C445 C 0.64403 0.07696 0.25824 0.0
O446 O 0.64254 0.08824 0.2763 0.0
O447 O 0.68901 0.0621 0.29604 0.0
C448 C 0.70089 0.12419 0.27626 0.0
O449 O 0.684 0.12375 0.28447 0.0
C450 C 0.67683 0.09747 0.34028 0.0
O451 O 0.69696 0.108 0.33703 0.0
O452 O 0.65764 0.07159 0.26068 0.0
C453 C 0.02701 0.43303 0.78787 0.0
O454 O 0.04499 0.4357 0.78013 0.0
O455 O 0.01803 0.4187 0.71254 0.0
Zn456 Zn 0.01386 0.4033 0.74749 0.0
O457 O 0.03925 0.40022 0.75554 0.0
C458 C 0.98508 0.36485 0.72432 0.0
O459 O 1.00029 0.37119 0.70724 0.0
O460 O 0.01069 0.41946 0.777 0.0
C461 C 0.03838 0.38432 0.76556 0.0
O462 O 0.0202 0.36836 0.7702 0.0
C463 C 0.0304 0.43754 0.70851 0.0
O464 O 0.04201 0.44851 0.72787 0.0
O465 O 0.98735 0.37579 0.74404 0.0
C466 C 0.6217 0.62282 0.7208 0.0
O467 O 0.61674 0.61397 0.74413 0.0
O468 O 0.63398 0.64612 0.78385 0.0
Zn469 Zn 0.65245 0.65604 0.75135 0.0
O470 O 0.67842 0.65385 0.755 0.0
C471 C 0.65492 0.6955 0.75813 0.0
O472 O 0.63756 0.6849 0.77127 0.0
O473 O 0.63641 0.64105 0.71885 0.0
C474 C 0.68246 0.64244 0.74129 0.0
O475 O 0.6682 0.6294 0.72563 0.0
C476 C 0.63091 0.63225 0.80068 0.0
O477 O 0.64065 0.62195 0.79819 0.0
O478 O 0.66314 0.68631 0.7472 0.0
C479 C 0.41914 0.058 0.72377 0.0
O480 O 0.40289 0.0604 0.72514 0.0
O481 O 0.43583 0.05729 0.80652 0.0
Zn482 Zn 0.41418 0.05344 0.77996 0.0
O483 O 0.40855 0.07671 0.77996 0.0
C484 C 0.37082 0.02342 0.77943 0.0
O485 O 0.36937 0.03797 0.76693 0.0
O486 O 0.42607 0.05404 0.74463 0.0
C487 C 0.40761 0.08606 0.79979 0.0
O488 O 0.40932 0.07989 0.82353 0.0
C489 C 0.45016 0.07448 0.81371 0.0
O490 O 0.45112 0.0911 0.8041 0.0
O491 O 0.38847 0.0266 0.78691 0.0
C492 C 0.67472 0.95564 0.5467 0.0
O493 O 0.66736 0.94163 0.56541 0.0
O494 O 0.64293 0.97994 0.57933 0.0
Zn495 Zn 0.67063 0.98145 0.58666 0.0
O496 O 0.66905 0.96232 0.61726 0.0
C497 C 0.71043 0.01842 0.59855 0.0
O498 O 0.7182 1.00627 0.59745 0.0
O499 O 0.67811 0.9734 0.55173 0.0
C500 C 0.66982 0.96639 0.64159 0.0
O501 O 0.67141 0.98371 0.64814 0.0
C502 C 0.63628 0.98999 0.59159 0.0
O503 O 0.64673 1.00064 0.61186 0.0
O504 O 0.69114 0.01117 0.59477 0.0
C505 C 0.09464 0.78114 0.61222 0.0
O506 O 0.08839 0.79139 0.5973 0.0
O507 O 0.04346 0.75318 0.58973 0.0
Zn508 Zn 0.06863 0.75278 0.57611 0.0
O509 O 0.08276 0.77118 0.54434 0.0
C510 C 0.0561 0.70949 0.58224 0.0
O511 O 0.06105 0.71348 0.60709 0.0
O512 O 0.08867 0.76281 0.60665 0.0
C513 C 0.09958 0.77202 0.53745 0.0
O514 O 0.10592 0.76116 0.55088 0.0
C515 C 0.02533 0.74447 0.58016 0.0
O516 O 0.02209 0.73601 0.5571 0.0
O517 O 0.05891 0.72377 0.56633 0.0
C518 C 0.32513 0.35728 0.61398 0.0
O519 O 0.32809 0.36803 0.63507 0.0
O520 O 0.2958 0.37676 0.63696 0.0
Zn521 Zn 0.30735 0.38085 0.60007 0.0
O522 O 0.33373 0.40682 0.59256 0.0
C523 C 0.28666 0.39576 0.56738 0.0
O524 O 0.3003 0.41254 0.57855 0.0
O525 O 0.31526 0.35938 0.59477 0.0
C526 C 0.34257 0.42456 0.60166 0.0
O527 O 0.33432 0.42875 0.62158 0.0
C528 C 0.27973 0.37765 0.64289 0.0
O529 O 0.27122 0.38395 0.62508 0.0
O530 O 0.2862 0.37924 0.57361 0.0
C531 C 0.68919 0.79454 0.13379 0.0
O532 O 0.70762 0.79813 0.1266 0.0
O533 O 0.67528 0.77724 0.0545 0.0
Zn534 Zn 0.67636 0.76538 0.09094 0.0
O535 O 0.70268 0.7631 0.0965 0.0
C536 C 0.64579 0.72653 0.07054 0.0
O537 O 0.65509 0.73555 0.04842 0.0
O538 O 0.67349 0.78152 0.12119 0.0
C539 C 0.70552 0.75029 0.08412 0.0
O540 O 0.69211 0.73942 0.06613 0.0
C541 C 0.68153 0.79526 0.04597 0.0
O542 O 0.69152 0.81048 0.06183 0.0
O543 O 0.65172 0.73633 0.09184 0.0
C544 C 0.28664 0.96986 0.05094 0.0
O545 O 0.29423 0.958 0.05726 0.0
O546 O 0.29782 0.97308 0.12623 0.0
Zn547 Zn 0.31038 0.99395 0.09644 0.0
O548 O 0.3391 0.99899 0.08697 0.0
C549 C 0.31657 0.02529 0.13262 0.0
O550 O 0.32019 0.01379 0.14897 0.0
O551 O 0.29149 0.98537 0.06461 0.0
C552 C 0.3439 0.98507 0.08731 0.0
O553 O 0.32975 0.96651 0.09388 0.0
C554 C 0.27969 0.9682 0.13379 0.0
O555 O 0.26977 0.97606 0.12117 0.0
O556 O 0.31246 0.02011 0.10878 0.0
C557 C 0.10485 0.3748 0.07828 0.0
O558 O 0.11571 0.38547 0.09831 0.0
O559 O 0.08723 0.38893 0.1353 0.0
Zn560 Zn 0.07124 0.37856 0.10173 0.0
O561 O 0.06702 0.40074 0.08578 0.0
C562 C 0.03984 0.34054 0.12638 0.0
O563 O 0.05497 0.34238 0.14161 0.0
O564 O 0.08612 0.3705 0.07601 0.0
C565 C 0.08164 0.41901 0.08475 0.0
O566 O 0.09997 0.42334 0.0936 0.0
C567 C 0.07877 0.39279 0.1542 0.0
O568 O 0.05968 0.38917 0.15157 0.0
O569 O 0.04336 0.3541 0.1089 0.0
C570 C 0.35256 0.29532 0.89123 0.0
O571 O 0.34091 0.28245 0.9097 0.0
O572 O 0.33469 0.32905 0.93061 0.0
Zn573 Zn 0.36124 0.32732 0.93045 0.0
O574 O 0.36315 0.3128 0.96432 0.0
C575 C 0.3989 0.36393 0.94817 0.0
O576 O 0.4004 0.35144 0.96512 0.0
O577 O 0.36244 0.3142 0.89598 0.0
C578 C 0.36893 0.29962 0.96696 0.0
O579 O 0.37401 0.29323 0.94604 0.0
C580 C 0.32922 0.33527 0.91022 0.0
O581 O 0.34026 0.3394 0.88862 0.0
O582 O 0.38434 0.35688 0.93135 0.0
C583 C 0.75476 0.13053 0.94659 0.0
O584 O 0.74428 0.13208 0.92664 0.0
O585 O 0.70493 0.08318 0.93446 0.0
Zn586 Zn 0.73491 0.09214 0.92548 0.0
O587 O 0.74357 0.10531 0.88938 0.0
C588 C 0.73711 0.05279 0.93443 0.0
O589 O 0.7295 0.04928 0.95839 0.0
O590 O 0.75345 0.11344 0.95158 0.0
C591 C 0.73739 0.09439 0.86914 0.0
O592 O 0.72289 0.07534 0.87181 0.0
C593 C 0.68981 0.06517 0.9332 0.0
O594 O 0.69299 0.05088 0.92423 0.0
O595 O 0.73985 0.06848 0.92167 0.0
C596 C 0.01983 0.69739 0.98789 0.0
O597 O 0.03434 0.71525 0.99549 0.0
O598 O 0.99126 0.7297 0.99882 0.0
Zn599 Zn 1.00244 0.7213 0.96831 0.0
O600 O 0.03144 0.74283 0.95843 0.0
C601 C 0.98202 0.73083 0.92656 0.0
O602 O 0.9932 0.74915 0.93572 0.0
O603 O 1.0038 0.6959 0.97672 0.0
C604 C 0.03814 0.74222 0.93578 0.0
O605 O 0.02574 0.72837 0.91934 0.0
C606 C 0.99877 0.74825 1.00449 0.0
O607 O 0.01484 0.76203 0.99121 0.0
O608 O 0.98345 0.71631 0.93732 0.0
C609 C 0.36877 0.12502 0.48742 0.0
O610 O 0.38705 0.12711 0.48274 0.0
O611 O 0.36431 0.12106 0.40616 0.0
Zn612 Zn 0.35679 0.10163 0.4381 0.0
O613 O 0.37948 0.09406 0.44192 0.0
C614 C 0.3258 0.06259 0.41547 0.0
O615 O 0.34145 0.06434 0.40166 0.0
O616 O 0.35413 0.11514 0.47133 0.0
C617 C 0.38076 0.08283 0.45994 0.0
O618 O 0.36655 0.07515 0.47842 0.0
C619 C 0.35068 0.12059 0.39046 0.0
O620 O 0.33113 0.10764 0.39532 0.0
O621 O 0.3289 0.07626 0.43181 0.0
C622 C 0.93042 0.31796 0.38094 0.0
O623 O 0.92176 0.31722 0.40363 0.0
O624 O 0.95798 0.31971 0.44399 0.0
Zn625 Zn 0.96891 0.33689 0.41072 0.0
O626 O 0.99672 0.3403 0.40037 0.0
C627 C 0.97772 0.3734 0.43853 0.0
O628 O 0.98453 0.36573 0.45682 0.0
O629 O 0.94982 0.32491 0.37986 0.0
C630 C 0.01149 0.3447 0.41635 0.0
O631 O 1.00899 0.34733 0.44119 0.0
C632 C 0.95524 0.30198 0.44816 0.0
O633 O 0.95929 0.29291 0.42934 0.0
O634 O 0.97085 0.364 0.41717 0.0
C635 C 0.78433 0.72968 0.41703 0.0
O636 O 0.7934 0.74779 0.42717 0.0
O637 O 0.77527 0.734 0.48824 0.0
Zn638 Zn 0.75668 0.72608 0.4561 0.0
O639 O 0.75619 0.75 0.43921 0.0
C640 C 0.72001 0.70962 0.48649 0.0
O641 O 0.73281 0.72442 0.50151 0.0
O642 O 0.76763 0.71594 0.42747 0.0
C643 C 0.75343 0.76341 0.44989 0.0
O644 O 0.75101 0.76295 0.47547 0.0
C645 C 0.78919 0.75217 0.49246 0.0
O646 O 0.79212 0.76649 0.47528 0.0
O647 O 0.727 0.70609 0.46575 0.0
H648 H 0.01315 0.46518 0.02969 0.0
H649 H 0.06783 0.52475 0.0309 0.0
H650 H 0.08836 0.50927 0.04735 0.0
H651 H 0.02388 0.44556 0.08848 0.0
H652 H 0.01373 0.42042 0.07595 0.0
H653 H 1.00368 0.43633 0.06416 0.0
H654 H 0.01216 0.43194 0.01628 0.0
H655 H 0.02228 0.41605 0.02791 0.0
H656 H 0.03815 0.43822 1.00785 0.0
H657 H 0.10267 0.48682 0.06407 0.0
H658 H 0.10948 0.45967 0.07979 0.0
H659 H 0.04507 0.41519 0.06705 0.0
C660 C 0.02945 0.47505 0.03339 0.0
C661 C 0.03889 0.4962 0.02902 0.0
C662 C 0.06027 0.50851 0.03412 0.0
C663 C 0.07204 0.49985 0.04343 0.0
C664 C 0.06217 0.47889 0.04748 0.0
C665 C 0.04134 0.4667 0.0426 0.0
C666 C 0.03429 0.44465 0.04859 0.0
C667 C 0.01793 0.43626 0.07061 0.0
C668 C 0.02625 0.43197 0.02367 0.0
C669 C 0.05439 0.44626 0.0577 0.0
C670 C 0.07033 0.4661 0.05693 0.0
C671 C 0.0903 0.47124 0.0647 0.0
C672 C 0.09401 0.4557 0.07359 0.0
C673 C 0.07782 0.43528 0.07463 0.0
C674 C 0.05781 0.43062 0.06644 0.0
H675 H 0.58561 0.61551 0.01223 0.0
H676 H 0.54032 0.59867 0.07456 0.0
H677 H 0.5605 0.63307 0.09271 0.0
H678 H 0.63107 0.64791 0.04967 0.0
H679 H 0.64301 0.6661 0.02309 0.0
H680 H 0.62554 0.63991 0.01607 0.0
H681 H 0.60317 0.65035 0.98764 0.0
H682 H 0.62057 0.67656 0.99456 0.0
H683 H 0.59341 0.66549 1.00181 0.0
H684 H 0.58659 0.66963 0.10446 0.0
H685 H 0.61429 0.70559 0.10632 0.0
H686 H 0.64062 0.69855 0.03434 0.0
C687 C 0.58004 0.61899 0.02986 0.0
C688 C 0.56153 0.60436 0.04219 0.0
C689 C 0.55451 0.60965 0.06487 0.0
C690 C 0.5659 0.62912 0.07535 0.0
C691 C 0.5841 0.64322 0.06266 0.0
C692 C 0.59096 0.63842 0.04022 0.0
C693 C 0.61036 0.65652 0.02943 0.0
C694 C 0.62857 0.65236 0.02959 0.0
C695 C 0.60665 0.66258 1.00172 0.0
C696 C 0.61344 0.67227 0.04932 0.0
C697 C 0.59833 0.66431 0.06857 0.0
C698 C 0.5984 0.67603 0.08937 0.0
C699 C 0.6142 0.6964 0.09033 0.0
C700 C 0.62948 0.70491 0.07037 0.0
C701 C 0.62901 0.69257 0.04972 0.0
H702 H 0.46375 0.05633 0.05514 0.0
H703 H 0.46971 1.00247 0.05196 0.0
H704 H 0.4322 0.98124 0.06123 0.0
H705 H 0.4274 0.03979 0.10782 0.0
H706 H 0.41332 0.05144 0.09418 0.0
H707 H 0.4404 0.06211 0.08697 0.0
H708 H 0.43249 0.05945 0.03707 0.0
H709 H 0.40537 0.04879 0.04412 0.0
H710 H 0.41405 0.03533 0.02382 0.0
H711 H 0.39385 0.9661 0.07201 0.0
H712 H 0.35827 0.95833 0.08234 0.0
H713 H 0.37795 0.02243 0.07762 0.0
C714 C 0.45725 0.04006 0.05635 0.0
C715 C 0.46973 0.03107 0.05288 0.0
C716 C 0.46048 0.00971 0.05454 0.0
C717 C 0.4392 0.99754 0.05981 0.0
C718 C 0.42739 1.00698 0.06323 0.0
C719 C 0.43613 0.02777 0.06144 0.0
C720 C 0.42024 0.03431 0.06589 0.0
C721 C 0.42567 0.0477 0.09016 0.0
C722 C 0.4179 0.04511 0.04126 0.0
C723 C 0.40111 0.01396 0.07066 0.0
C724 C 0.40551 0.99835 0.06907 0.0
C725 C 0.39027 0.97822 0.07318 0.0
C726 C 0.37009 0.97396 0.07908 0.0
C727 C 0.36524 0.98975 0.08075 0.0
C728 C 0.38106 0.00998 0.07638 0.0
H729 H 0.45297 0.04075 0.51792 0.0
H730 H 0.49312 0.06902 0.45046 0.0
H731 H 0.46851 0.07905 0.43247 0.0
H732 H 0.40336 0.02258 0.48365 0.0
H733 H 0.39179 0.02831 0.5107 0.0
H734 H 0.41152 0.02161 0.51684 0.0
H735 H 0.43299 0.05497 0.5419 0.0
H736 H 0.41343 0.06187 0.53565 0.0
H737 H 0.43977 0.07878 0.52568 0.0
H738 H 0.44067 0.08799 0.42327 0.0
H739 H 0.4115 0.09472 0.4231 0.0
H740 H 0.3897 0.06129 0.4971 0.0
C741 C 0.45632 0.04856 0.49901 0.0
C742 C 0.47487 0.05384 0.48539 0.0
C743 C 0.47895 0.06465 0.46111 0.0
C744 C 0.46506 0.07044 0.45076 0.0
C745 C 0.44718 0.06542 0.46499 0.0
C746 C 0.44273 0.05467 0.48855 0.0
C747 C 0.42312 0.05232 0.50074 0.0
C748 C 0.40646 0.02987 0.50311 0.0
C749 C 0.4276 0.0626 0.52757 0.0
C750 C 0.41726 0.06349 0.48041 0.0
C751 C 0.43132 0.07087 0.45991 0.0
C752 C 0.42949 0.08215 0.43913 0.0
C753 C 0.41286 0.08594 0.43925 0.0
C754 C 0.3982 0.07852 0.46003 0.0
C755 C 0.40052 0.0671 0.48083 0.0
H756 H 0.0193 0.48212 0.49901 0.0
H757 H 0.97628 0.49021 0.44946 0.0
H758 H 0.96159 0.45483 0.43432 0.0
H759 H 0.03079 0.45446 0.45657 0.0
H760 H 0.03203 0.43772 0.48125 0.0
H761 H 0.03747 0.46266 0.48996 0.0
H762 H 1.0092 0.44746 0.52609 0.0
H763 H 1.00384 0.4224 0.51781 0.0
H764 H 0.9833 0.42845 0.51762 0.0
H765 H 0.95531 0.4201 0.42046 0.0
H766 H 0.95495 0.38787 0.41289 0.0
H767 H 1.00093 0.4025 0.47389 0.0
C768 C 1.00646 0.47626 0.4854 0.0
C769 C 0.99883 0.48871 0.47532 0.0
C770 C 0.98211 0.48072 0.45753 0.0
C771 C 0.9738 0.46073 0.44879 0.0
C772 C 0.98215 0.44899 0.45857 0.0
C773 C 0.99781 0.45638 0.47697 0.0
C774 C 1.00457 0.44112 0.48404 0.0
C775 C 0.02757 0.4495 0.47755 0.0
C776 C 0.99994 0.43446 0.51311 0.0
C777 C 0.9908 0.42414 0.46604 0.0
C778 C 0.97799 0.42891 0.45144 0.0
C779 C 0.96499 0.41607 0.43216 0.0
C780 C 0.96499 0.39787 0.42788 0.0
C781 C 0.9778 0.39262 0.44295 0.0
C782 C 0.99074 0.40594 0.46233 0.0
H783 H 0.60014 0.62887 0.46678 0.0
H784 H 0.58734 0.66001 0.52798 0.0
H785 H 0.62446 0.68433 0.53158 0.0
H786 H 0.64588 0.63333 0.49504 0.0
H787 H 0.65945 0.63762 0.46432 0.0
H788 H 0.63165 0.62315 0.46515 0.0
H789 H 0.62963 0.64744 0.43024 0.0
H790 H 0.65744 0.66185 0.42906 0.0
H791 H 0.64279 0.67427 0.43603 0.0
H792 H 0.66284 0.70371 0.5311 0.0
H793 H 0.70028 0.71928 0.52347 0.0
H794 H 0.68885 0.67629 0.46197 0.0
C795 C 0.60515 0.64095 0.48072 0.0
C796 C 0.59072 0.64257 0.49694 0.0
C797 C 0.59793 0.65861 0.51495 0.0
C798 C 0.61905 0.67242 0.51734 0.0
C799 C 0.63284 0.67012 0.50149 0.0
C800 C 0.62623 0.65499 0.48326 0.0
C801 C 0.64441 0.65587 0.46881 0.0
C802 C 0.6454 0.63633 0.47363 0.0
C803 C 0.64351 0.66012 0.43928 0.0
C804 C 0.66224 0.67375 0.482 0.0
C805 C 0.65516 0.68162 0.50089 0.0
C806 C 0.66859 0.69782 0.5162 0.0
C807 C 0.68986 0.70649 0.51179 0.0
C808 C 0.69754 0.69906 0.49208 0.0
C809 C 0.68348 0.68236 0.47713 0.0
H810 H 0.99304 0.58358 0.96578 0.0
H811 H 0.05256 0.59898 0.99977 0.0
H812 H 0.05991 0.63417 1.00542 0.0
H813 H 1.0092 0.63114 0.93073 0.0
H814 H 0.98535 0.63088 0.93745 0.0
H815 H 0.98553 0.60738 0.93494 0.0
H816 H 0.96889 0.59641 0.98126 0.0
H817 H 0.96891 0.61997 0.98409 0.0
H818 H 0.98142 0.61245 1.00878 0.0
H819 H 0.05988 0.66735 1.00906 0.0
H820 H 0.05345 0.69625 1.00813 0.0
H821 H 0.99368 0.65854 0.97216 0.0
C822 C 1.00778 0.59438 0.97406 0.0
C823 C 0.02229 0.58853 0.9822 0.0
C824 C 0.04129 0.60314 0.99318 0.0
C825 C 0.04554 0.62313 0.99659 0.0
C826 C 0.03065 0.62822 0.9889 0.0
C827 C 0.01222 0.61428 0.97767 0.0
C828 C 0.99855 0.62335 0.9716 0.0
C829 C 0.99442 0.62318 0.94192 0.0
C830 C 0.97824 0.61239 0.98738 0.0
C831 C 0.01216 0.64465 0.98109 0.0
C832 C 0.03058 0.64717 0.99109 0.0
C833 C 0.04554 0.66556 1.00117 0.0
C834 C 0.0417 0.68187 1.00063 0.0
C835 C 0.02305 0.67969 0.99006 0.0
C836 C 1.00807 0.66073 0.9804 0.0
H837 H 0.48826 0.46514 0.01184 0.0
H838 H 0.46759 0.49882 0.96231 0.0
H839 H 0.442 0.46699 0.94165 0.0
H840 H 0.48232 0.42793 0.9639 0.0
H841 H 0.47301 0.40741 0.98779 0.0
H842 H 0.49045 0.43295 0.99767 0.0
H843 H 0.46425 0.42986 0.03317 0.0
H844 H 0.44677 0.40432 0.02344 0.0
H845 H 0.43818 0.42269 0.02366 0.0
H846 H 0.41817 0.43125 0.92683 0.0
H847 H 0.39677 0.39438 0.92075 0.0
H848 H 0.43231 0.38391 0.98088 0.0
C849 C 0.47851 0.46586 0.99646 0.0
C850 C 0.48005 0.48453 0.98858 0.0
C851 C 0.46673 0.48473 0.96867 0.0
C852 C 0.45218 0.46672 0.95675 0.0
C853 C 0.45101 0.44858 0.96504 0.0
C854 C 0.46374 0.448 0.98455 0.0
C855 C 0.45869 0.42642 0.99074 0.0
C856 C 0.47722 0.42351 0.98465 0.0
C857 C 0.45154 0.42048 0.01945 0.0
C858 C 0.44108 0.41493 0.97175 0.0
C859 C 0.437 0.428 0.95694 0.0
C860 C 0.42126 0.42089 0.9383 0.0
C861 C 0.4092 0.39989 0.93494 0.0
C862 C 0.41281 0.38616 0.95029 0.0
C863 C 0.42914 0.39393 0.96875 0.0
H864 H 0.60862 0.08752 1.0044 0.0
H865 H 0.56266 0.02405 0.99731 0.0
H866 H 0.58856 0.01816 0.9747 0.0
H867 H 0.63258 0.09379 0.9418 0.0
H868 H 0.6582 0.11072 0.95371 0.0
H869 H 0.63608 0.10962 0.96939 0.0
H870 H 0.64753 0.10166 0.01424 0.0
H871 H 0.66973 0.10281 0.99873 0.0
H872 H 0.65197 0.08046 0.01726 0.0
H873 H 0.62016 0.0197 0.95254 0.0
H874 H 0.65415 0.02818 0.93391 0.0
H875 H 0.67863 0.09078 0.95582 0.0
C876 C 0.60389 0.07231 0.99818 0.0
C877 C 0.58355 0.05622 1.00266 0.0
C878 C 0.57814 0.0366 0.99414 0.0
C879 C 0.59275 0.03315 0.98125 0.0
C880 C 0.61266 0.04946 0.97705 0.0
C881 C 0.61817 0.06864 0.98537 0.0
C882 C 0.64046 0.0837 0.97866 0.0
C883 C 0.6419 0.10044 0.95977 0.0
C884 C 0.65316 0.09268 1.00372 0.0
C885 C 0.64676 0.07006 0.96523 0.0
C886 C 0.63056 0.05036 0.96443 0.0
C887 C 0.6329 0.03509 0.95308 0.0
C888 C 0.65228 0.04007 0.94251 0.0
C889 C 0.66911 0.06017 0.94332 0.0
C890 C 0.66613 0.07529 0.95475 0.0
H891 H 0.55883 0.03376 0.58718 0.0
H892 H 0.54543 0.01472 0.50627 0.0
H893 H 0.5661 0.99744 0.51124 0.0
H894 H 0.6106 0.04628 0.58523 0.0
H895 H 0.61137 0.03813 0.61854 0.0
H896 H 0.59333 0.04647 0.60968 0.0
H897 H 0.56302 0.01243 0.62702 0.0
H898 H 0.581 1.00398 0.63603 0.0
H899 H 0.55965 0.98897 0.61461 0.0
H900 H 0.59021 0.98402 0.52461 0.0
H901 H 0.61698 0.97753 0.54391 0.0
H902 H 0.61577 1.00708 0.61527 0.0
C903 C 0.55977 0.02554 0.57064 0.0
C904 C 0.55021 0.02534 0.54641 0.0
C905 C 0.55241 0.0149 0.52509 0.0
C906 C 0.56411 1.00503 0.52776 0.0
C907 C 0.57363 1.00585 0.55183 0.0
C908 C 0.57161 0.01592 0.57285 0.0
C909 C 0.58482 0.01622 0.59584 0.0
C910 C 0.60098 0.03807 0.60271 0.0
C911 C 0.57131 1.00471 0.61979 0.0
C912 C 0.59489 1.00501 0.5844 0.0
C913 C 0.58801 0.99886 0.55915 0.0
C914 C 0.59558 0.98868 0.54442 0.0
C915 C 0.61078 0.98502 0.55559 0.0
C916 C 0.61852 0.99177 0.58115 0.0
C917 C 0.61017 1.00165 0.59575 0.0
H918 H 0.02862 0.59392 0.58402 0.0
H919 H 0.99841 0.58808 0.50883 0.0
H920 H 1.00405 0.62274 0.51256 0.0
H921 H 1.00988 0.62597 0.61524 0.0
H922 H 0.03402 0.64058 0.63218 0.0
H923 H 0.02495 0.61437 0.62525 0.0
H924 H 0.05949 0.62469 0.60147 0.0
H925 H 0.06853 0.65093 0.60786 0.0
H926 H 0.06774 0.64292 0.57461 0.0
H927 H 0.0175 0.65959 0.52135 0.0
H928 H 0.03448 0.69475 0.53674 0.0
H929 H 0.05525 0.67647 0.60676 0.0
C930 C 0.02259 0.59966 0.5687 0.0
C931 C 0.01303 0.5882 0.54613 0.0
C932 C 1.00565 0.59644 0.52639 0.0
C933 C 1.00885 0.61619 0.52829 0.0
C934 C 0.01919 0.62739 0.55023 0.0
C935 C 0.02558 0.61929 0.57035 0.0
C936 C 0.03742 0.63489 0.59105 0.0
C937 C 0.02587 0.62857 0.6175 0.0
C938 C 0.0596 0.63857 0.59389 0.0
C939 C 0.03726 0.65322 0.57903 0.0
C940 C 0.02663 0.64856 0.55552 0.0
C941 C 0.02554 0.66331 0.53996 0.0
C942 C 0.03538 0.68329 0.54879 0.0
C943 C 0.04613 0.68836 0.57302 0.0
C944 C 0.04696 0.67304 0.58832 0.0
H945 H 0.43888 0.53489 0.57384 0.0
H946 H 0.45371 0.50867 0.50807 0.0
H947 H 0.42192 0.47664 0.51606 0.0
H948 H 0.42119 0.49258 0.61565 0.0
H949 H 0.40061 0.49505 0.63025 0.0
H950 H 0.42319 0.51713 0.61751 0.0
H951 H 0.40024 0.52571 0.5874 0.0
H952 H 0.37753 0.50377 0.60029 0.0
H953 H 0.38225 0.5069 0.56536 0.0
H954 H 0.39089 0.44638 0.53369 0.0
H955 H 0.36094 0.42018 0.55815 0.0
H956 H 0.36599 0.46515 0.61341 0.0
C957 C 0.43548 0.52257 0.56088 0.0
C958 C 0.44923 0.52462 0.5404 0.0
C959 C 0.44372 0.50793 0.52381 0.0
C960 C 0.42559 0.48946 0.52825 0.0
C961 C 0.41298 0.48782 0.54924 0.0
C962 C 0.4175 0.50394 0.56513 0.0
C963 C 0.40186 0.49774 0.58727 0.0
C964 C 0.41235 0.50081 0.61426 0.0
C965 C 0.38975 0.50921 0.58493 0.0
C966 C 0.38818 0.47546 0.58169 0.0
C967 C 0.39486 0.47016 0.55953 0.0
C968 C 0.38533 0.45037 0.55087 0.0
C969 C 0.36836 0.43557 0.56505 0.0
C970 C 0.36102 0.44058 0.58774 0.0
C971 C 0.37114 0.46084 0.59613 0.0
H972 H 0.74787 0.86392 0.41881 0.0
H973 H 0.74057 0.84769 0.33678 0.0
H974 H 0.7446 0.81802 0.34808 0.0
H975 H 0.78567 0.8482 0.43569 0.0
H976 H 0.77453 0.83841 0.46769 0.0
H977 H 0.77258 0.85913 0.45282 0.0
H978 H 0.73274 0.83867 0.458 0.0
H979 H 0.73455 0.81788 0.47278 0.0
H980 H 0.71858 0.81381 0.44424 0.0
H981 H 0.74871 0.79002 0.36835 0.0
H982 H 0.75096 0.76434 0.39639 0.0
H983 H 0.7542 0.79807 0.4657 0.0
C984 C 0.7475 0.85429 0.40324 0.0
C985 C 0.74409 0.85807 0.37691 0.0
C986 C 0.74314 0.84492 0.35705 0.0
C987 C 0.7455 0.82815 0.36328 0.0
C988 C 0.74864 0.82472 0.38948 0.0
C989 C 0.74955 0.83734 0.40917 0.0
C990 C 0.75187 0.82959 0.43593 0.0
C991 C 0.77238 0.84474 0.44878 0.0
C992 C 0.73333 0.82469 0.45378 0.0
C993 C 0.75198 0.81055 0.42821 0.0
C994 C 0.75034 0.80817 0.4013 0.0
C995 C 0.75003 0.79171 0.38945 0.0
C996 C 0.75132 0.77722 0.40556 0.0
C997 C 0.75269 0.77918 0.43325 0.0
C998 C 0.75309 0.79612 0.44463 0.0
H999 H 0.23929 0.95866 0.35326 0.0
H1000 H 0.19419 0.96369 0.40121 0.0
H1001 H 0.22187 0.99555 0.41909 0.0
H1002 H 0.28013 0.97757 0.40136 0.0
H1003 H 0.3004 0.99109 0.37748 0.0
H1004 H 0.27699 0.96871 0.36817 0.0
H1005 H 0.2715 0.98904 0.33051 0.0
H1006 H 0.29489 0.01147 0.33969 0.0
H1007 H 0.27089 0.01181 0.33792 0.0
H1008 H 0.2546 0.02683 0.43231 0.0
H1009 H 0.28979 0.05544 0.43916 0.0
H1010 H 0.31381 0.03016 0.38287 0.0
C1011 C 0.23521 0.96635 0.36763 0.0
C1012 C 0.21441 0.95854 0.3757 0.0
C1013 C 0.20985 0.96937 0.39435 0.0
C1014 C 0.22553 0.98748 0.40479 0.0
C1015 C 0.2458 0.99469 0.39644 0.0
C1016 C 0.25069 0.9845 0.37824 0.0
C1017 C 0.27372 0.9956 0.37249 0.0
C1018 C 0.28337 0.98246 0.38035 0.0
C1019 C 0.27799 1.00238 0.34343 0.0
C1020 C 0.28101 0.01359 0.39032 0.0
C1021 C 0.26465 0.01275 0.40399 0.0
C1022 C 0.26752 0.02765 0.42169 0.0
C1023 C 0.28761 0.04386 0.42547 0.0
C1024 C 0.30465 0.04513 0.41159 0.0
C1025 C 0.30118 0.0297 0.39381 0.0
H1026 H 0.13338 0.39293 0.41797 0.0
H1027 H 0.12971 0.3698 0.33988 0.0
H1028 H 0.09145 0.35116 0.34318 0.0
H1029 H 0.0877 0.34716 0.44623 0.0
H1030 H 0.08054 0.36235 0.46546 0.0
H1031 H 0.10735 0.37131 0.45805 0.0
H1032 H 0.11049 0.40431 0.43784 0.0
H1033 H 0.08369 0.39539 0.44481 0.0
H1034 H 0.09331 0.40273 0.41168 0.0
H1035 H 0.0536 0.33933 0.3529 0.0
H1036 H 0.01972 0.33303 0.36938 0.0
H1037 H 0.04874 0.3634 0.44158 0.0
C1038 C 0.12455 0.3835 0.40182 0.0
C1039 C 0.13445 0.3827 0.37871 0.0
C1040 C 0.1224 0.37037 0.3579 0.0
C1041 C 0.10068 0.35983 0.35958 0.0
C1042 C 0.09138 0.36158 0.38236 0.0
C1043 C 0.103 0.37283 0.40329 0.0
C1044 C 0.08949 0.37339 0.42493 0.0
C1045 C 0.09138 0.36292 0.45016 0.0
C1046 C 0.09455 0.39525 0.4301 0.0
C1047 C 0.0684 0.36125 0.41263 0.0
C1048 C 0.06974 0.35448 0.38811 0.0
C1049 C 0.05237 0.34423 0.37227 0.0
C1050 C 0.0332 0.34081 0.38174 0.0
C1051 C 0.03155 0.34758 0.40686 0.0
C1052 C 0.04941 0.35774 0.4225 0.0
H1053 H 0.10331 0.33319 0.81765 0.0
H1054 H 0.15826 0.39255 0.81719 0.0
H1055 H 0.13745 0.40759 0.79982 0.0
H1056 H 0.08051 0.33953 0.75858 0.0
H1057 H 0.05453 0.3255 0.77132 0.0
H1058 H 0.07395 0.31976 0.78309 0.0
H1059 H 0.0667 0.32548 0.83096 0.0
H1060 H 0.04722 0.33118 0.81935 0.0
H1061 H 0.06825 0.34912 0.83915 0.0
H1062 H 0.10973 0.4157 0.78178 0.0
H1063 H 0.07825 0.41637 0.76728 0.0
H1064 H 0.04199 0.35147 0.78124 0.0
C1065 C 0.11112 0.34938 0.81382 0.0
C1066 C 0.13252 0.36168 0.81864 0.0
C1067 C 0.14193 0.38281 0.81361 0.0
C1068 C 0.13021 0.39145 0.8037 0.0
C1069 C 0.1091 0.37877 0.79912 0.0
C1070 C 0.0997 0.35818 0.80422 0.0
C1071 C 0.07678 0.34773 0.7984 0.0
C1072 C 0.07112 0.33222 0.77655 0.0
C1073 C 0.06399 0.3378 0.82346 0.0
C1074 C 0.07459 0.36561 0.78912 0.0
C1075 C 0.09337 0.3834 0.78947 0.0
C1076 C 0.095 0.40183 0.78151 0.0
C1077 C 0.07701 0.40205 0.77323 0.0
C1078 C 0.05758 0.38398 0.77312 0.0
C1079 C 0.05653 0.36558 0.78112 0.0
H1080 H 0.67605 0.80316 0.80667 0.0
H1081 H 0.73734 0.82904 0.7727 0.0
H1082 H 0.72825 0.79569 0.75464 0.0
H1083 H 0.67209 0.75677 0.82694 0.0
H1084 H 0.6449 0.74169 0.81998 0.0
H1085 H 0.65565 0.7679 0.82812 0.0
H1086 H 0.64133 0.77455 0.78474 0.0
H1087 H 0.6305 0.74832 0.77645 0.0
H1088 H 0.6479 0.76792 0.75391 0.0
H1089 H 0.71284 0.75912 0.74193 0.0
H1090 H 0.69309 0.72199 0.73741 0.0
H1091 H 0.64202 0.71993 0.78055 0.0
C1092 C 0.6874 0.80191 0.79495 0.0
C1093 C 0.70735 0.81874 0.79085 0.0
C1094 C 0.72199 0.81633 0.77608 0.0
C1095 C 0.71692 0.79749 0.76565 0.0
C1096 C 0.69716 0.78116 0.77026 0.0
C1097 C 0.68265 0.78318 0.78464 0.0
C1098 C 0.66299 0.76301 0.78825 0.0
C1099 C 0.65866 0.75699 0.81756 0.0
C1100 C 0.64459 0.76348 0.77504 0.0
C1101 C 0.66877 0.74926 0.77392 0.0
C1102 C 0.68845 0.76006 0.76343 0.0
C1103 C 0.69737 0.75054 0.74994 0.0
C1104 C 0.686 0.72942 0.74745 0.0
C1105 C 0.66596 0.71798 0.75857 0.0
C1106 C 0.65723 0.72818 0.77168 0.0
H1107 H 0.25012 0.94686 0.78629 0.0
H1108 H 0.26284 0.90423 0.82907 0.0
H1109 H 0.30044 0.92777 0.82333 0.0
H1110 H 0.29249 0.96501 0.73936 0.0
H1111 H 0.29703 0.99059 0.73978 0.0
H1112 H 0.27141 0.96963 0.74564 0.0
H1113 H 0.26989 0.98508 0.7899 0.0
H1114 H 0.29552 1.006 0.78428 0.0
H1115 H 0.28981 0.99079 0.81399 0.0
H1116 H 0.33682 0.95743 0.81504 0.0
H1117 H 0.36839 0.98988 0.80448 0.0
H1118 H 0.3308 0.01247 0.76761 0.0
C1119 C 0.26073 0.94226 0.79421 0.0
C1120 C 0.25354 0.92366 0.80809 0.0
C1121 C 0.26802 0.91835 0.81824 0.0
C1122 C 0.28937 0.93164 0.8151 0.0
C1123 C 0.29589 0.95006 0.80169 0.0
C1124 C 0.28192 0.95526 0.79131 0.0
C1125 C 0.29263 0.97621 0.77876 0.0
C1126 C 0.28812 0.9753 0.74913 0.0
C1127 C 0.28661 0.99035 0.79256 0.0
C1128 C 0.31491 0.9822 0.78391 0.0
C1129 C 0.31655 0.96695 0.79706 0.0
C1130 C 0.33568 0.96939 0.80458 0.0
C1131 C 0.35351 0.98789 0.79854 0.0
C1132 C 0.35208 1.00372 0.78517 0.0
C1133 C 0.33248 1.00068 0.77772 0.0
H1134 H 0.70388 0.96225 0.2986 0.0
H1135 H 0.76999 0.9941 0.31249 0.0
H1136 H 0.76999 0.02658 0.31214 0.0
H1137 H 0.70267 1.00015 0.25554 0.0
H1138 H 0.67849 0.99615 0.26863 0.0
H1139 H 0.68404 0.97564 0.26877 0.0
H1140 H 0.6776 0.97079 0.31907 0.0
H1141 H 0.67216 0.99137 0.31913 0.0
H1142 H 0.69199 0.99195 0.34024 0.0
H1143 H 0.76236 0.05538 0.31237 0.0
H1144 H 0.74802 0.07851 0.31097 0.0
H1145 H 0.68682 0.02747 0.29739 0.0
C1146 C 0.71837 0.97604 0.30157 0.0
C1147 C 0.73693 0.97561 0.3056 0.0
C1148 C 0.75562 0.99405 0.30904 0.0
C1149 C 0.75575 0.01256 0.30906 0.0
C1150 C 0.73708 0.01235 0.3055 0.0
C1151 C 0.71877 0.99457 0.30164 0.0
C1152 C 0.70076 0.99838 0.2986 0.0
C1153 C 0.69092 0.99222 0.27126 0.0
C1154 C 0.68468 0.98748 0.32057 0.0
C1155 C 0.71177 0.0211 0.30157 0.0
C1156 C 0.73271 0.02888 0.30555 0.0
C1157 C 0.74601 0.04947 0.30914 0.0
C1158 C 0.73769 0.06247 0.30839 0.0
C1159 C 0.7163 0.05481 0.30405 0.0
C1160 C 0.70324 0.03382 0.30071 0.0
H1161 H 0.08591 0.81702 0.29385 0.0
H1162 H 0.14363 0.81708 0.28301 0.0
H1163 H 0.12442 0.78222 0.26666 0.0
H1164 H 0.05661 0.76589 0.31671 0.0
H1165 H 0.03318 0.76117 0.30023 0.0
H1166 H 0.05156 0.78642 0.31007 0.0
H1167 H 0.05356 0.79952 0.26213 0.0
H1168 H 0.03517 0.77429 0.25214 0.0
H1169 H 0.05995 0.78795 0.236 0.0
H1170 H 0.09866 0.74678 0.25236 0.0
H1171 H 0.06841 0.71353 0.24239 0.0
H1172 H 0.02762 0.73674 0.26245 0.0
C1173 C 0.09454 0.80982 0.28772 0.0
C1174 C 0.11633 0.81987 0.28978 0.0
C1175 C 0.12695 0.80968 0.28195 0.0
C1176 C 0.11617 0.7899 0.27245 0.0
C1177 C 0.09471 0.7804 0.27085 0.0
C1178 C 0.084 0.79002 0.27829 0.0
C1179 C 0.0609 0.77622 0.27546 0.0
C1180 C 0.04992 0.77219 0.30221 0.0
C1181 C 0.05187 0.78502 0.25522 0.0
C1182 C 0.06028 0.75731 0.26542 0.0
C1183 C 0.07993 0.76003 0.26275 0.0
C1184 C 0.08319 0.74451 0.25427 0.0
C1185 C 0.06591 0.72567 0.24862 0.0
C1186 C 0.0456 0.72246 0.25154 0.0
C1187 C 0.0429 0.73864 0.25986 0.0
H1188 H 0.27318 0.45457 0.32498 0.0
H1189 H 0.23417 0.38926 0.3294 0.0
H1190 H 0.26452 0.38543 0.31896 0.0
H1191 H 0.30598 0.45602 0.27086 0.0
H1192 H 0.32874 0.47705 0.28438 0.0
H1193 H 0.30367 0.47429 0.29039 0.0
H1194 H 0.31025 0.47519 0.34056 0.0
H1195 H 0.33523 0.47776 0.33474 0.0
H1196 H 0.31673 0.45731 0.3554 0.0
H1197 H 0.30013 0.3892 0.31171 0.0
H1198 H 0.33702 0.39994 0.30533 0.0
H1199 H 0.35207 0.46287 0.30479 0.0
C1200 C 0.2709 0.43941 0.32345 0.0
C1201 C 0.25131 0.42218 0.32805 0.0
C1202 C 0.24901 0.40265 0.32579 0.0
C1203 C 0.26618 0.40036 0.31997 0.0
C1204 C 0.2854 0.41775 0.31616 0.0
C1205 C 0.28773 0.43688 0.31748 0.0
C1206 C 0.31 0.4532 0.31321 0.0
C1207 C 0.31222 0.46588 0.28822 0.0
C1208 C 0.31855 0.46665 0.33742 0.0
C1209 C 0.32003 0.44031 0.30981 0.0
C1210 C 0.30563 0.4199 0.31155 0.0
C1211 C 0.31146 0.40514 0.31003 0.0
C1212 C 0.33249 0.41141 0.30652 0.0
C1213 C 0.34748 0.43227 0.30446 0.0
C1214 C 0.34103 0.44682 0.30607 0.0
H1215 H 0.23934 0.35278 0.85043 0.0
H1216 H 0.21802 0.34934 0.93021 0.0
H1217 H 0.24888 0.34863 0.9471 0.0
H1218 H 0.25543 0.318 0.85926 0.0
H1219 H 0.27799 0.33016 0.83842 0.0
H1220 H 0.25661 0.33444 0.83242 0.0
H1221 H 0.28074 0.37313 0.83584 0.0
H1222 H 0.30236 0.36906 0.84126 0.0
H1223 H 0.29669 0.38317 0.86453 0.0
H1224 H 0.27897 0.34302 0.955 0.0
H1225 H 0.30798 0.33601 0.9536 0.0
H1226 H 0.31002 0.34287 0.86859 0.0
C1227 C 0.24184 0.353 0.87145 0.0
C1228 C 0.2268 0.35193 0.88914 0.0
C1229 C 0.22979 0.3509 0.91648 0.0
C1230 C 0.24717 0.35031 0.92621 0.0
C1231 C 0.26138 0.35061 0.90829 0.0
C1232 C 0.2591 0.35225 0.88147 0.0
C1233 C 0.27557 0.35037 0.86642 0.0
C1234 C 0.26581 0.33216 0.84805 0.0
C1235 C 0.28968 0.37011 0.85111 0.0
C1236 C 0.28708 0.34689 0.88888 0.0
C1237 C 0.27868 0.34716 0.91287 0.0
C1238 C 0.2859 0.34313 0.93635 0.0
C1239 C 0.30231 0.33902 0.93535 0.0
C1240 C 0.3114 0.33897 0.91103 0.0
C1241 C 0.30359 0.34298 0.88754 0.0
H1242 H 0.73202 0.94641 0.91342 0.0
H1243 H 0.74358 0.96293 0.83075 0.0
H1244 H 0.74807 0.99673 0.8401 0.0
H1245 H 0.70164 0.96953 0.92389 0.0
H1246 H 0.71094 0.97762 0.95669 0.0
H1247 H 0.71064 0.9556 0.9439 0.0
H1248 H 0.74978 0.97143 0.95343 0.0
H1249 H 0.75021 0.99352 0.96629 0.0
H1250 H 0.76754 0.9962 0.94004 0.0
H1251 H 0.75038 0.02809 0.85827 0.0
H1252 H 0.74792 0.0542 0.88297 0.0
H1253 H 0.73307 0.01673 0.954 0.0
C1254 C 0.73594 0.95733 0.89741 0.0
C1255 C 0.73782 0.95229 0.87139 0.0
C1256 C 0.74223 0.96665 0.85078 0.0
C1257 C 0.74487 0.98584 0.85595 0.0
C1258 C 0.7428 0.99029 0.88182 0.0
C1259 C 0.73828 0.97641 0.90219 0.0
C1260 C 0.73535 0.98444 0.92787 0.0
C1261 C 0.71334 0.971 0.93871 0.0
C1262 C 0.7517 0.98652 0.9481 0.0
C1263 C 0.73878 1.00499 0.91874 0.0
C1264 C 0.74333 0.00813 0.89217 0.0
C1265 C 0.74687 0.02581 0.87908 0.0
C1266 C 0.74543 0.04058 0.89338 0.0
C1267 C 0.74025 0.03756 0.92052 0.0
C1268 C 0.7371 0.01955 0.93335 0.0
H1269 H 0.12604 0.8155 0.83665 0.0
H1270 H 0.16757 0.83928 0.90282 0.0
H1271 H 0.1411 0.81235 0.93175 0.0
H1272 H 0.08221 0.80577 0.86765 0.0
H1273 H 0.06501 0.78251 0.85151 0.0
H1274 H 0.0883 0.80106 0.83526 0.0
H1275 H 0.10002 0.77447 0.82968 0.0
H1276 H 0.07648 0.75562 0.84539 0.0
H1277 H 0.10113 0.76039 0.85802 0.0
H1278 H 0.10754 0.78722 0.95439 0.0
H1279 H 0.07158 0.76282 0.96789 0.0
H1280 H 0.05301 0.75452 0.8861 0.0
C1281 C 0.12982 0.81449 0.85703 0.0
C1282 C 0.14878 0.8292 0.8676 0.0
C1283 C 0.15322 0.82782 0.89438 0.0
C1284 C 0.13823 0.81269 0.91091 0.0
C1285 C 0.1192 0.79891 0.90009 0.0
C1286 C 0.11523 0.79935 0.87356 0.0
C1287 C 0.09322 0.78382 0.86695 0.0
C1288 C 0.08151 0.79391 0.85463 0.0
C1289 C 0.09269 0.76761 0.84895 0.0
C1290 C 0.08505 0.77518 0.89405 0.0
C1291 C 0.10022 0.78402 0.91296 0.0
C1292 C 0.0957 0.77983 0.93968 0.0
C1293 C 0.07523 0.76611 0.94718 0.0
C1294 C 0.05963 0.75668 0.92799 0.0
C1295 C 0.06472 0.76121 0.90115 0.0
H1296 H 0.40366 0.1725 0.71335 0.0
H1297 H 0.42445 0.21053 0.78167 0.0
H1298 H 0.42415 0.18251 0.80779 0.0
H1299 H 0.36922 0.12612 0.74695 0.0
H1300 H 0.37541 0.11074 0.72662 0.0
H1301 H 0.37747 0.13384 0.71341 0.0
H1302 H 0.41571 0.14685 0.70074 0.0
H1303 H 0.4137 0.1237 0.71365 0.0
H1304 H 0.43353 0.14773 0.72556 0.0
H1305 H 0.42038 0.14963 0.82663 0.0
H1306 H 0.41676 0.11588 0.83549 0.0
H1307 H 0.39888 0.09999 0.75432 0.0
C1308 C 0.40814 0.1749 0.73381 0.0
C1309 C 0.41404 0.19362 0.74554 0.0
C1310 C 0.42008 0.19635 0.77227 0.0
C1311 C 0.41978 0.18048 0.78728 0.0
C1312 C 0.41354 0.16208 0.77517 0.0
C1313 C 0.40807 0.15933 0.74894 0.0
C1314 C 0.40241 0.13831 0.74036 0.0
C1315 C 0.37978 0.12656 0.73131 0.0
C1316 C 0.41723 0.13921 0.71881 0.0
C1317 C 0.4055 0.12959 0.76587 0.0
C1318 C 0.41174 0.14343 0.78581 0.0
C1319 C 0.41554 0.13869 0.81114 0.0
C1320 C 0.41333 0.11946 0.81603 0.0
C1321 C 0.40756 0.10533 0.7956 0.0
C1322 C 0.40334 0.11046 0.77035 0.0
H1323 H 0.91548 0.25763 0.65946 0.0
H1324 H 0.86531 0.24719 0.71149 0.0
H1325 H 0.8864 0.28216 0.72818 0.0
H1326 H 0.95546 0.28363 0.70237 0.0
H1327 H 0.97331 0.30123 0.67831 0.0
H1328 H 0.95336 0.27667 0.66839 0.0
H1329 H 0.93993 0.29313 0.63418 0.0
H1330 H 0.96014 0.31781 0.64359 0.0
H1331 H 0.93353 0.31188 0.64456 0.0
H1332 H 0.91563 0.31723 0.74292 0.0
H1333 H 0.94796 0.34944 0.75095 0.0
H1334 H 0.978 0.33616 0.68796 0.0
C1335 C 0.90869 0.2629 0.67386 0.0
C1336 C 0.88873 0.24983 0.68408 0.0
C1337 C 0.88043 0.25712 0.7031 0.0
C1338 C 0.8924 0.27689 0.71279 0.0
C1339 C 0.91244 0.28917 0.70292 0.0
C1340 C 0.92027 0.28248 0.68342 0.0
C1341 C 0.9424 0.29798 0.67664 0.0
C1342 C 0.95698 0.28936 0.68174 0.0
C1343 C 0.94409 0.30566 0.64805 0.0
C1344 C 0.94618 0.31432 0.69588 0.0
C1345 C 0.92879 0.30909 0.71091 0.0
C1346 C 0.92918 0.32153 0.73094 0.0
C1347 C 0.94766 0.33977 0.73547 0.0
C1348 C 0.96556 0.34545 0.72003 0.0
C1349 C 0.96461 0.33245 0.69999 0.0
H1350 H 0.80427 0.71106 0.74993 0.0
H1351 H 0.80975 0.66843 0.70003 0.0
H1352 H 0.77184 0.64566 0.70279 0.0
H1353 H 0.76262 0.67363 0.79214 0.0
H1354 H 0.75044 0.68895 0.79439 0.0
H1355 H 0.77804 0.70085 0.79017 0.0
H1356 H 0.77584 0.72008 0.74864 0.0
H1357 H 0.74829 0.70828 0.75275 0.0
H1358 H 0.75892 0.70596 0.72219 0.0
H1359 H 0.73278 0.62902 0.70824 0.0
H1360 H 0.69645 0.62016 0.71556 0.0
H1361 H 0.71728 0.67375 0.76247 0.0
C1362 C 0.7976 0.69682 0.73982 0.0
C1363 C 0.81001 0.69152 0.72478 0.0
C1364 C 0.80057 0.67278 0.71177 0.0
C1365 C 0.77906 0.65975 0.71326 0.0
C1366 C 0.76727 0.66562 0.72802 0.0
C1367 C 0.77628 0.68369 0.74117 0.0
C1368 C 0.76025 0.6871 0.75461 0.0
C1369 C 0.76301 0.68766 0.78461 0.0
C1370 C 0.76086 0.7065 0.7439 0.0
C1371 C 0.74069 0.66834 0.74652 0.0
C1372 C 0.745 0.65602 0.73135 0.0
C1373 C 0.72927 0.63843 0.72038 0.0
C1374 C 0.70866 0.63352 0.72465 0.0
C1375 C 0.70396 0.64617 0.73975 0.0
C1376 C 0.72027 0.66357 0.75118 0.0
H1377 H 0.80586 0.76348 0.16086 0.0
H1378 H 0.79971 0.71196 0.1183 0.0
H1379 H 0.76913 0.70941 0.09526 0.0
H1380 H 0.75127 0.74472 0.16971 0.0
H1381 H 0.75354 0.76936 0.16568 0.0
H1382 H 0.77488 0.76708 0.17866 0.0
H1383 H 0.7987 0.79164 0.14211 0.0
H1384 H 0.77741 0.79391 0.12894 0.0
H1385 H 0.79147 0.78601 0.10815 0.0
H1386 H 0.73969 0.71307 0.07615 0.0
H1387 H 0.71255 0.72124 0.06401 0.0
H1388 H 0.73735 0.77006 0.1198 0.0
C1389 C 0.7981 0.75161 0.14671 0.0
C1390 C 0.80528 0.73792 0.14135 0.0
C1391 C 0.79453 0.72259 0.12279 0.0
C1392 C 0.77718 0.72107 0.10956 0.0
C1393 C 0.77066 0.73492 0.1152 0.0
C1394 C 0.78071 0.74981 0.13348 0.0
C1395 C 0.77044 0.76266 0.13621 0.0
C1396 C 0.76203 0.76084 0.16423 0.0
C1397 C 0.7854 0.78487 0.12838 0.0
C1398 C 0.75303 0.75273 0.1165 0.0
C1399 C 0.75352 0.73683 0.10452 0.0
C1400 C 0.73915 0.72545 0.08548 0.0
C1401 C 0.72378 0.73027 0.07868 0.0
C1402 C 0.72271 0.74632 0.09092 0.0
C1403 C 0.73768 0.75772 0.11004 0.0
H1404 H 0.31008 0.12747 0.12202 0.0
H1405 H 0.3264 0.13567 0.20452 0.0
H1406 H 0.32553 0.1028 0.20632 0.0
H1407 H 0.27565 0.07189 0.12592 0.0
H1408 H 0.28423 0.06796 0.09471 0.0
H1409 H 0.28424 0.09126 0.10047 0.0
H1410 H 0.32311 0.11158 0.08828 0.0
H1411 H 0.32327 0.08836 0.08271 0.0
H1412 H 0.34115 0.1063 0.10568 0.0
H1413 H 0.32516 0.0704 0.1987 0.0
H1414 H 0.32467 0.03991 0.18242 0.0
H1415 H 0.30903 0.05242 0.10441 0.0
C1416 C 0.31297 0.12205 0.14054 0.0
C1417 C 0.31823 0.13402 0.16318 0.0
C1418 C 0.32242 0.12672 0.18697 0.0
C1419 C 0.3219 0.10807 0.18818 0.0
C1420 C 0.3172 0.09685 0.1654 0.0
C1421 C 0.3127 0.10345 0.14203 0.0
C1422 C 0.30924 0.08889 0.12013 0.0
C1423 C 0.28702 0.07944 0.10969 0.0
C1424 C 0.32514 0.09942 0.09789 0.0
C1425 C 0.31279 0.07327 0.13479 0.0
C1426 C 0.31722 0.07813 0.16091 0.0
C1427 C 0.32156 0.06634 0.17832 0.0
C1428 C 0.3213 0.04906 0.16884 0.0
C1429 C 0.31682 0.04371 0.14213 0.0
C1430 C 0.31248 0.05604 0.12494 0.0
H1431 H 0.9212 0.27545 0.09189 0.0
H1432 H 0.91188 0.24396 0.16705 0.0
H1433 H 0.9498 0.26057 0.17292 0.0
H1434 H 0.97023 0.27691 0.07285 0.0
H1435 H 0.9804 0.30198 0.05862 0.0
H1436 H 0.95298 0.28456 0.05824 0.0
H1437 H 0.94671 0.31106 0.08139 0.0
H1438 H 0.97404 0.3284 0.08227 0.0
H1439 H 0.9592 0.32106 0.11231 0.0
H1440 H 0.98873 0.2844 0.17303 0.0
H1441 H 0.02461 0.31253 0.16711 0.0
H1442 H 1.00735 0.32896 0.09277 0.0
C1443 C 0.92705 0.27148 0.10924 0.0
C1444 C 0.91355 0.25831 0.12895 0.0
C1445 C 0.92192 0.25384 0.15154 0.0
C1446 C 0.94345 0.26324 0.15506 0.0
C1447 C 0.9563 0.27695 0.13574 0.0
C1448 C 0.94835 0.28085 0.11313 0.0
C1449 C 0.96506 0.29771 0.09662 0.0
C1450 C 0.9673 0.28981 0.07001 0.0
C1451 C 0.961 0.31561 0.09296 0.0
C1452 C 0.98363 0.30323 0.11385 0.0
C1453 C 0.97843 0.29091 0.13612 0.0
C1454 C 0.99299 0.29393 0.15548 0.0
C1455 C 0.01331 0.30997 0.15198 0.0
C1456 C 0.01877 0.32296 0.1295 0.0
C1457 C 1.0037 0.31932 0.11017 0.0
H1458 H 0.37786 0.29597 0.67187 0.0
H1459 H 0.39008 0.28628 0.59201 0.0
H1460 H 0.37372 0.30584 0.5752 0.0
H1461 H 0.32872 0.29081 0.66083 0.0
H1462 H 0.33226 0.3104 0.68304 0.0
H1463 H 0.34578 0.29653 0.68859 0.0
H1464 H 0.38081 0.33006 0.68839 0.0
H1465 H 0.36739 0.34407 0.68322 0.0
H1466 H 0.38751 0.34747 0.66077 0.0
H1467 H 0.35337 0.3243 0.56751 0.0
H1468 H 0.33468 0.34362 0.56961 0.0
H1469 H 0.33717 0.34182 0.65477 0.0
C1470 C 0.37725 0.29817 0.65085 0.0
C1471 C 0.38517 0.28967 0.63319 0.0
C1472 C 0.38428 0.2929 0.60582 0.0
C1473 C 0.37487 0.30382 0.59614 0.0
C1474 C 0.36672 0.31157 0.61416 0.0
C1475 C 0.36818 0.30917 0.64096 0.0
C1476 C 0.35834 0.319 0.65629 0.0
C1477 C 0.3402 0.30324 0.67317 0.0
C1478 C 0.37448 0.33617 0.67315 0.0
C1479 C 0.35087 0.32714 0.63395 0.0
C1480 C 0.35566 0.32259 0.60977 0.0
C1481 C 0.34973 0.32812 0.58634 0.0
C1482 C 0.33901 0.33895 0.58771 0.0
C1483 C 0.33459 0.34427 0.61233 0.0
C1484 C 0.34048 0.3381 0.63565 0.0
H1485 H 0.81755 0.11756 0.62753 0.0
H1486 H 0.7854 0.1519 0.63148 0.0
H1487 H 0.75241 0.12069 0.62138 0.0
H1488 H 0.78879 0.0853 0.57469 0.0
H1489 H 0.78934 0.06363 0.58887 0.0
H1490 H 0.81 0.08877 0.59542 0.0
H1491 H 0.80392 0.08131 0.64548 0.0
H1492 H 0.78317 0.05617 0.63912 0.0
H1493 H 0.77859 0.07286 0.65902 0.0
H1494 H 0.72258 0.0845 0.61134 0.0
H1495 H 0.69957 0.04809 0.60266 0.0
H1496 H 0.75233 0.03855 0.60657 0.0
C1497 C 0.80368 0.11874 0.62609 0.0
C1498 C 0.80417 0.13734 0.63016 0.0
C1499 C 0.78548 0.13791 0.62829 0.0
C1500 C 0.76668 0.12022 0.62262 0.0
C1501 C 0.76683 0.1021 0.61898 0.0
C1502 C 0.78495 0.10137 0.62069 0.0
C1503 C 0.78128 0.08016 0.61676 0.0
C1504 C 0.79305 0.07943 0.59249 0.0
C1505 C 0.78708 0.07216 0.64157 0.0
C1506 C 0.7582 0.06889 0.61233 0.0
C1507 C 0.75003 0.0817 0.61367 0.0
C1508 C 0.72891 0.07444 0.61025 0.0
C1509 C 0.71594 0.0537 0.60534 0.0
C1510 C 0.72408 0.04036 0.60389 0.0
C1511 C 0.74553 0.04823 0.6075 0.0
H1512 H 0.91001 0.71882 0.61544 0.0
H1513 H 0.92665 0.71887 0.69747 0.0
H1514 H 0.96124 0.72575 0.68409 0.0
H1515 H 0.93875 0.69429 0.59134 0.0
H1516 H 0.94621 0.70906 0.56114 0.0
H1517 H 0.92227 0.70305 0.57708 0.0
H1518 H 0.93378 0.74124 0.57783 0.0
H1519 H 0.95787 0.7474 0.56226 0.0
H1520 H 0.95791 0.75854 0.59315 0.0
H1521 H 0.99496 0.73622 0.66249 0.0
H1522 H 0.02462 0.74472 0.63358 0.0
H1523 H 0.98613 0.73583 0.56507 0.0
C1524 C 0.9208 0.71992 0.63057 0.0
C1525 C 0.91557 0.71834 0.65754 0.0
C1526 C 0.93019 0.71993 0.6767 0.0
C1527 C 0.94995 0.72394 0.66931 0.0
C1528 C 0.95481 0.72602 0.64266 0.0
C1529 C 0.94057 0.72364 0.62352 0.0
C1530 C 0.94991 0.72666 0.59625 0.0
C1531 C 0.93861 0.7071 0.58053 0.0
C1532 C 0.94986 0.74452 0.58151 0.0
C1533 C 0.97172 0.73149 0.60313 0.0
C1534 C 0.9742 0.73123 0.63005 0.0
C1535 C 0.99315 0.73619 0.64137 0.0
C1536 C 1.00996 0.74116 0.62475 0.0
C1537 C 1.00769 0.74088 0.59705 0.0
C1538 C 0.98829 0.73602 0.58616 0.0
H1539 H 0.87378 0.68777 0.23811 0.0
H1540 H 0.88051 0.69244 0.15319 0.0
H1541 H 0.90528 0.67976 0.1564 0.0
H1542 H 0.92553 0.70623 0.25219 0.0
H1543 H 0.92138 0.68984 0.28035 0.0
H1544 H 0.90209 0.6965 0.27123 0.0
H1545 H 0.87451 0.65853 0.26846 0.0
H1546 H 0.89368 0.65172 0.27787 0.0
H1547 H 0.87924 0.64222 0.24796 0.0
H1548 H 0.93213 0.66999 0.16942 0.0
H1549 H 0.95795 0.66313 0.19082 0.0
H1550 H 0.93387 0.66532 0.26732 0.0
C1551 C 0.88001 0.68565 0.22007 0.0
C1552 C 0.87501 0.69098 0.19534 0.0
C1553 C 0.88387 0.68827 0.17233 0.0
C1554 C 0.89802 0.68112 0.17397 0.0
C1555 C 0.90308 0.67663 0.19876 0.0
C1556 C 0.89418 0.67862 0.22137 0.0
C1557 C 0.90327 0.67421 0.24573 0.0
C1558 C 0.91369 0.6928 0.2634 0.0
C1559 C 0.88669 0.65556 0.2609 0.0
C1560 C 0.91904 0.66986 0.23337 0.0
C1561 C 0.91859 0.67117 0.20625 0.0
C1562 C 0.93242 0.66869 0.19062 0.0
C1563 C 0.94709 0.66485 0.203 0.0
C1564 C 0.94795 0.6636 0.2308 0.0
C1565 C 0.93355 0.66598 0.24605 0.0
H1566 H 0.32811 0.27404 0.23611 0.0
H1567 H 0.38883 0.28305 0.21677 0.0
H1568 H 0.40499 0.31674 0.23601 0.0
H1569 H 0.33965 0.32439 0.21981 0.0
H1570 H 0.32445 0.32588 0.24613 0.0
H1571 H 0.31753 0.30173 0.23243 0.0
H1572 H 0.31926 0.28785 0.2788 0.0
H1573 H 0.32628 0.31202 0.29263 0.0
H1574 H 0.34258 0.30096 0.29783 0.0
H1575 H 0.41487 0.35014 0.25598 0.0
H1576 H 0.41739 0.38129 0.2736 0.0
H1577 H 0.35046 0.35123 0.27892 0.0
C1578 C 0.34479 0.28305 0.23592 0.0
C1579 C 0.35708 0.27555 0.22513 0.0
C1580 C 0.37892 0.288 0.2254 0.0
C1581 C 0.38834 0.30732 0.23619 0.0
C1582 C 0.37579 0.31417 0.24668 0.0
C1583 C 0.35449 0.30246 0.24657 0.0
C1584 C 0.34459 0.31379 0.25821 0.0
C1585 C 0.33074 0.31662 0.23793 0.0
C1586 C 0.33246 0.30301 0.28336 0.0
C1587 C 0.36364 0.33378 0.26436 0.0
C1588 C 0.38149 0.3336 0.25783 0.0
C1589 C 0.401 0.35045 0.26129 0.0
C1590 C 0.40228 0.36807 0.27136 0.0
C1591 C 0.38415 0.36875 0.27767 0.0
C1592 C 0.36463 0.35123 0.27435 0.0
H1593 H 0.80509 0.18984 0.19434 0.0
H1594 H 0.79017 0.2383 0.19335 0.0
H1595 H 0.76002 0.21772 0.22167 0.0
H1596 H 0.75328 0.14968 0.19036 0.0
H1597 H 0.75692 0.13257 0.2119 0.0
H1598 H 0.77834 0.15162 0.19302 0.0
H1599 H 0.79951 0.16524 0.23576 0.0
H1600 H 0.77811 0.14622 0.25478 0.0
H1601 H 0.78892 0.1726 0.26231 0.0
H1602 H 0.73073 0.19173 0.24826 0.0
H1603 H 0.70338 0.16119 0.27075 0.0
H1604 H 0.73676 0.12927 0.25445 0.0
C1605 C 0.79559 0.19616 0.20034 0.0
C1606 C 0.79999 0.21567 0.19165 0.0
C1607 C 0.78707 0.22336 0.19966 0.0
C1608 C 0.76994 0.21183 0.21587 0.0
C1609 C 0.76589 0.19262 0.22391 0.0
C1610 C 0.77827 0.18477 0.21644 0.0
C1611 C 0.76976 0.16327 0.22684 0.0
C1612 C 0.76424 0.14841 0.20418 0.0
C1613 C 0.78498 0.16175 0.24607 0.0
C1614 C 0.75057 0.16026 0.24095 0.0
C1615 C 0.74875 0.17745 0.23919 0.0
C1616 C 0.73201 0.17818 0.24996 0.0
C1617 C 0.71655 0.16076 0.26267 0.0
C1618 C 0.71792 0.14286 0.26439 0.0
C1619 C 0.73531 0.14275 0.2536 0.0
H1620 H 0.97918 0.46712 0.90413 0.0
H1621 H 0.03951 0.5211 0.90933 0.0
H1622 H 0.05189 0.50949 0.87265 0.0
H1623 H 0.99696 0.43287 0.88888 0.0
H1624 H 0.97669 0.41853 0.86579 0.0
H1625 H 0.97207 0.43116 0.8922 0.0
H1626 H 0.96118 0.45022 0.85862 0.0
H1627 H 0.96569 0.43758 0.83209 0.0
H1628 H 0.97855 0.46484 0.83223 0.0
H1629 H 0.05856 0.49164 0.83717 0.0
H1630 H 0.05871 0.46919 0.80324 0.0
H1631 H 0.99379 0.42706 0.81863 0.0
C1632 C 0.9949 0.47664 0.89736 0.0
C1633 C 1.00839 0.49499 0.91002 0.0
C1634 C 0.02893 0.50683 0.90053 0.0
C1635 C 0.03611 0.50042 0.8795 0.0
C1636 C 0.02256 0.48219 0.86781 0.0
C1637 C 1.00234 0.47051 0.87617 0.0
C1638 C 0.99115 0.4514 0.86017 0.0
C1639 C 0.98379 0.43237 0.87782 0.0
C1640 C 0.97307 0.45099 0.84486 0.0
C1641 C 1.00834 0.45414 0.84174 0.0
C1642 C 0.02631 0.47202 0.84664 0.0
C1643 C 0.04454 0.47768 0.83298 0.0
C1644 C 0.04447 0.46475 0.81378 0.0
C1645 C 0.02626 0.44637 0.80816 0.0
C1646 C 1.00791 0.44109 0.82229 0.0
H1647 H 0.55811 0.56939 0.92313 0.0
H1648 H 0.53516 0.61187 0.92029 0.0
H1649 H 0.55903 0.6306 0.88388 0.0
H1650 H 0.61199 0.60647 0.90849 0.0
H1651 H 0.61604 0.58948 0.88847 0.0
H1652 H 0.59751 0.57955 0.91498 0.0
H1653 H 0.56901 0.55651 0.88243 0.0
H1654 H 0.58743 0.56639 0.85583 0.0
H1655 H 0.56395 0.56769 0.85372 0.0
H1656 H 0.5845 0.64434 0.84724 0.0
H1657 H 0.61018 0.65233 0.81226 0.0
H1658 H 0.6174 0.60136 0.83822 0.0
C1659 C 0.55828 0.58274 0.91501 0.0
C1660 C 0.54459 0.58903 0.92451 0.0
C1661 C 0.54517 0.6065 0.91312 0.0
C1662 C 0.55881 0.61736 0.89252 0.0
C1663 C 0.57189 0.61064 0.88343 0.0
C1664 C 0.57182 0.59378 0.89426 0.0
C1665 C 0.58723 0.58964 0.88024 0.0
C1666 C 0.6042 0.5914 0.89918 0.0
C1667 C 0.57625 0.56882 0.86729 0.0
C1668 C 0.5958 0.60672 0.85976 0.0
C1669 C 0.58675 0.61866 0.8621 0.0
C1670 C 0.59177 0.63515 0.84526 0.0
C1671 C 0.60639 0.63955 0.82539 0.0
C1672 C 0.61588 0.62752 0.82241 0.0
C1673 C 0.61052 0.61092 0.84 0.0
H1674 H 0.51444 0.10837 0.94612 0.0
H1675 H 0.52767 0.05955 0.93482 0.0
H1676 H 0.51183 0.0537 0.89098 0.0
H1677 H 0.46628 0.08555 0.91803 0.0
H1678 H 0.46837 0.10783 0.90186 0.0
H1679 H 0.48328 0.11028 0.9309 0.0
H1680 H 0.51703 0.13455 0.90575 0.0
H1681 H 0.50217 0.13235 0.87662 0.0
H1682 H 0.52291 0.12662 0.87545 0.0
H1683 H 0.48993 0.04939 0.85229 0.0
H1684 H 0.46574 0.049 0.81853 0.0
H1685 H 0.46837 0.10196 0.85266 0.0
C1686 C 0.51458 0.09691 0.93405 0.0
C1687 C 0.52209 0.08429 0.94397 0.0
C1688 C 0.52166 0.06916 0.9278 0.0
C1689 C 0.51286 0.06583 0.90278 0.0
C1690 C 0.50485 0.07798 0.89398 0.0
C1691 C 0.50593 0.09346 0.90885 0.0
C1692 C 0.49488 0.10336 0.89536 0.0
C1693 C 0.47715 0.10164 0.91256 0.0
C1694 C 0.51016 0.12554 0.88784 0.0
C1695 C 0.48673 0.09046 0.87119 0.0
C1696 C 0.49277 0.07596 0.87078 0.0
C1697 C 0.48552 0.06098 0.85195 0.0
C1698 C 0.47171 0.06079 0.83301 0.0
C1699 C 0.4655 0.0756 0.83292 0.0
C1700 C 0.47333 0.09079 0.852 0.0
H1701 H 0.51468 0.07876 0.63349 0.0
H1702 H 0.48071 0.08354 0.56671 0.0
H1703 H 0.45198 0.07771 0.59617 0.0
H1704 H 0.47171 0.03879 0.66618 0.0
H1705 H 0.48056 0.04798 0.69875 0.0
H1706 H 0.49899 0.05386 0.67268 0.0
H1707 H 0.5148 0.09222 0.6811 0.0
H1708 H 0.49657 0.08644 0.70741 0.0
H1709 H 0.49827 0.10328 0.68083 0.0
H1710 H 0.42669 0.07064 0.63307 0.0
H1711 H 0.40683 0.0629 0.67451 0.0
H1712 H 0.45725 0.06184 0.71658 0.0
C1713 C 0.5014 0.07902 0.62518 0.0
C1714 C 0.49994 0.08173 0.59789 0.0
C1715 C 0.48206 0.08143 0.58759 0.0
C1716 C 0.46572 0.07818 0.60416 0.0
C1717 C 0.46749 0.0752 0.63094 0.0
C1718 C 0.4849 0.07562 0.64138 0.0
C1719 C 0.48265 0.07118 0.67065 0.0
C1720 C 0.48352 0.0518 0.67745 0.0
C1721 C 0.49904 0.08937 0.68589 0.0
C1722 C 0.46124 0.06814 0.67505 0.0
C1723 C 0.45278 0.07062 0.65197 0.0
C1724 C 0.43316 0.06866 0.65127 0.0
C1725 C 0.42199 0.06424 0.67488 0.0
C1726 C 0.43045 0.06167 0.69873 0.0
C1727 C 0.45028 0.06355 0.69865 0.0
H1728 H 0.0627 0.52957 0.60512 0.0
H1729 H 0.0201 0.48547 0.55044 0.0
H1730 H 0.01308 0.45793 0.58245 0.0
H1731 H 0.08327 0.498 0.63298 0.0
H1732 H 0.0848 0.5071 0.66577 0.0
H1733 H 0.08765 0.52324 0.63778 0.0
H1734 H 0.05792 0.52812 0.6554 0.0
H1735 H 0.05492 0.51194 0.68335 0.0
H1736 H 0.03313 0.5062 0.66243 0.0
H1737 H 1.00917 0.43532 0.62123 0.0
H1738 H 1.00877 0.41918 0.66403 0.0
H1739 H 0.05375 0.47782 0.69401 0.0
C1740 C 0.05221 0.51408 0.59977 0.0
C1741 C 0.04193 0.50967 0.57529 0.0
C1742 C 0.02799 0.48922 0.56916 0.0
C1743 C 0.02398 0.47346 0.58717 0.0
C1744 C 0.03402 0.47834 0.61133 0.0
C1745 C 0.0479 0.49813 0.61767 0.0
C1746 C 0.05584 0.49926 0.64549 0.0
C1747 C 0.07928 0.50738 0.64549 0.0
C1748 C 0.0501 0.51214 0.66268 0.0
C1749 C 0.04405 0.47708 0.65387 0.0
C1750 C 0.03166 0.46527 0.6338 0.0
C1751 C 0.01892 0.4444 0.63705 0.0
C1752 C 0.01878 0.43537 0.66148 0.0
C1753 C 0.03124 0.44717 0.68245 0.0
C1754 C 0.04411 0.46831 0.6784 0.0
H1755 H 0.59772 0.60317 0.56746 0.0
H1756 H 0.54199 0.54764 0.58959 0.0
H1757 H 0.55229 0.55361 0.6363 0.0
H1758 H 0.63206 0.60072 0.61825 0.0
H1759 H 0.64505 0.62765 0.62319 0.0
H1760 H 0.63451 0.61769 0.59144 0.0
H1761 H 0.61328 0.63624 0.5922 0.0
H1762 H 0.62353 0.64607 0.62406 0.0
H1763 H 0.59597 0.63165 0.61931 0.0
H1764 H 0.56759 0.56672 0.68069 0.0
H1765 H 0.58649 0.58594 0.71957 0.0
H1766 H 0.63151 0.63384 0.66861 0.0
C1767 C 0.58796 0.59195 0.58204 0.0
C1768 C 0.56919 0.57474 0.57485 0.0
C1769 C 0.55653 0.56079 0.59464 0.0
C1770 C 0.56225 0.56408 0.62121 0.0
C1771 C 0.58059 0.58147 0.62767 0.0
C1772 C 0.59328 0.59516 0.60865 0.0
C1773 C 0.61135 0.6134 0.62092 0.0
C1774 C 0.63196 0.61495 0.61298 0.0
C1775 C 0.611 0.63299 0.61369 0.0
C1776 C 0.60674 0.60794 0.64984 0.0
C1777 C 0.58905 0.58937 0.65329 0.0
C1778 C 0.58152 0.58122 0.67822 0.0
C1779 C 0.59237 0.5923 0.7002 0.0
C1780 C 0.61049 0.61144 0.6972 0.0
C1781 C 0.6177 0.6193 0.6716 0.0
H1782 H 0.99723 0.57771 0.06196 0.0
H1783 H 0.97533 0.52448 0.1128 0.0
H1784 H 0.97858 0.54516 0.15126 0.0
H1785 H 0.03459 0.61326 0.10577 0.0
H1786 H 0.02952 0.6335 0.09706 0.0
H1787 H 0.02517 0.61452 0.07342 0.0
H1788 H 0.98732 0.60642 0.06774 0.0
H1789 H 0.99153 0.62548 0.09118 0.0
H1790 H 0.97081 0.59985 0.09623 0.0
H1791 H 0.98618 0.57197 0.18437 0.0
H1792 H 0.99383 0.6022 0.20955 0.0
H1793 H 1.00935 0.63802 0.13707 0.0
C1794 C 0.99307 0.57043 0.08121 0.0
C1795 C 0.98605 0.54948 0.08445 0.0
C1796 C 0.98053 0.54043 0.10987 0.0
C1797 C 0.98248 0.5521 0.13182 0.0
C1798 C 0.98974 0.57276 0.12799 0.0
C1799 C 0.99465 0.58181 0.10327 0.0
C1800 C 1.00169 0.60423 0.1045 0.0
C1801 C 0.02407 0.61713 0.0946 0.0
C1802 C 0.98696 0.60928 0.089 0.0
C1803 C 1.00016 0.60642 0.13384 0.0
C1804 C 0.99344 0.58811 0.14701 0.0
C1805 C 0.99129 0.58635 0.17425 0.0
C1806 C 0.99579 0.60367 0.1884 0.0
C1807 C 1.00214 0.62252 0.17533 0.0
C1808 C 1.00445 0.62384 0.14765 0.0
H1809 H 0.49614 0.51371 0.14093 0.0
H1810 H 0.45072 0.49015 0.07846 0.0
H1811 H 0.42354 0.46991 0.11114 0.0
H1812 H 0.47585 0.46757 0.17886 0.0
H1813 H 0.48133 0.47986 0.21012 0.0
H1814 H 0.49707 0.49305 0.18189 0.0
H1815 H 0.48942 0.5224 0.18841 0.0
H1816 H 0.4736 0.50926 0.21663 0.0
H1817 H 0.46299 0.51701 0.18975 0.0
H1818 H 0.40146 0.4513 0.15047 0.0
H1819 H 0.38611 0.43566 0.19348 0.0
H1820 H 0.44588 0.47127 0.23049 0.0
C1821 C 0.48051 0.50425 0.13404 0.0
C1822 C 0.47563 0.50362 0.10701 0.0
C1823 C 0.45487 0.49117 0.09901 0.0
C1824 C 0.43931 0.47952 0.11745 0.0
C1825 C 0.44469 0.4805 0.14388 0.0
C1826 C 0.46478 0.49256 0.15219 0.0
C1827 C 0.46651 0.49066 0.18172 0.0
C1828 C 0.48105 0.48228 0.18854 0.0
C1829 C 0.47354 0.51105 0.1949 0.0
C1830 C 0.44428 0.47547 0.18869 0.0
C1831 C 0.43194 0.46985 0.16657 0.0
C1832 C 0.41095 0.45566 0.16793 0.0
C1833 C 0.40237 0.44685 0.19249 0.0
C1834 C 0.41473 0.45226 0.21543 0.0
C1835 C 0.43595 0.46691 0.2134 0.0
H1836 H 0.56863 0.08727 0.15461 0.0
H1837 H 0.58653 0.05565 0.09981 0.0
H1838 H 0.60713 0.05102 0.13431 0.0
H1839 H 0.6181 0.11447 0.1853 0.0
H1840 H 0.60767 0.11297 0.21763 0.0
H1841 H 0.59326 0.11281 0.18898 0.0
H1842 H 0.56201 0.07906 0.20538 0.0
H1843 H 0.57639 0.07906 0.23402 0.0
H1844 H 0.56545 0.05761 0.21271 0.0
H1845 H 0.62647 0.05039 0.17419 0.0
H1846 H 0.64482 0.05547 0.2163 0.0
H1847 H 0.61541 0.08843 0.24498 0.0
C1848 C 0.5769 0.07943 0.14976 0.0
C1849 C 0.57563 0.07162 0.12441 0.0
C1850 C 0.58674 0.06139 0.11911 0.0
C1851 C 0.59862 0.05875 0.13859 0.0
C1852 C 0.59938 0.06649 0.16331 0.0
C1853 C 0.58895 0.07674 0.16895 0.0
C1854 C 0.59306 0.08426 0.19686 0.0
C1855 C 0.60366 0.10751 0.1972 0.0
C1856 C 0.57303 0.0744 0.2132 0.0
C1857 C 0.6076 0.07679 0.2059 0.0
C1858 C 0.61088 0.06643 0.18629 0.0
C1859 C 0.624 0.05843 0.18974 0.0
C1860 C 0.63433 0.06138 0.21376 0.0
C1861 C 0.63157 0.07234 0.23397 0.0
C1862 C 0.61779 0.0799 0.23 0.0
H1863 H 0.58302 0.07832 0.43336 0.0
H1864 H 0.62616 0.13095 0.47692 0.0
H1865 H 0.65454 0.13528 0.4478 0.0
H1866 H 0.61737 0.05867 0.42161 0.0
H1867 H 0.60779 0.05046 0.38895 0.0
H1868 H 0.59103 0.0514 0.4135 0.0
H1869 H 0.58362 0.07468 0.38273 0.0
H1870 H 0.60033 0.07379 0.35808 0.0
H1871 H 0.60491 0.09786 0.36979 0.0
H1872 H 0.67821 0.13356 0.4141 0.0
H1873 H 0.6951 0.127 0.37699 0.0
H1874 H 0.63615 0.07577 0.3552 0.0
C1875 C 0.59847 0.09064 0.43691 0.0
C1876 C 0.60242 0.10427 0.45744 0.0
C1877 C 0.62278 0.12045 0.46116 0.0
C1878 C 0.639 0.12294 0.44484 0.0
C1879 C 0.63455 0.10919 0.42481 0.0
C1880 C 0.61476 0.09343 0.4207 0.0
C1881 C 0.61397 0.08107 0.39739 0.0
C1882 C 0.60714 0.0591 0.40588 0.0
C1883 C 0.59987 0.08191 0.37572 0.0
C1884 C 0.63642 0.09233 0.38902 0.0
C1885 C 0.64808 0.10842 0.40517 0.0
C1886 C 0.66923 0.12101 0.4013 0.0
C1887 C 0.67869 0.11714 0.38021 0.0
C1888 C 0.66695 0.10089 0.36318 0.0
C1889 C 0.64555 0.08833 0.36782 0.0
H1890 H 0.03549 0.5847 0.38654 0.0
H1891 H 0.02922 0.61411 0.45503 0.0
H1892 H 0.01969 0.63489 0.42643 0.0
H1893 H 0.05678 0.62871 0.34246 0.0
H1894 H 0.04275 0.61444 0.31429 0.0
H1895 H 0.0498 0.60247 0.34014 0.0
H1896 H 0.01142 0.57467 0.34535 0.0
H1897 H 1.00423 0.58667 0.31968 0.0
H1898 H 0.9922 0.5819 0.3516 0.0
H1899 H 0.01105 0.65265 0.39034 0.0
H1900 H 1.00364 0.66592 0.34938 0.0
H1901 H 0.01403 0.62401 0.30427 0.0
C1902 C 0.0324 0.59572 0.39543 0.0
C1903 C 0.03321 0.59788 0.42302 0.0
C1904 C 0.02863 0.61218 0.43397 0.0
C1905 C 0.02323 0.62406 0.41787 0.0
C1906 C 0.02229 0.62137 0.3908 0.0
C1907 C 0.02671 0.60754 0.37963 0.0
C1908 C 0.02401 0.60727 0.35002 0.0
C1909 C 0.04456 0.61361 0.3359 0.0
C1910 C 1.00695 0.58639 0.34115 0.0
C1911 C 0.01747 0.62316 0.3463 0.0
C1912 C 0.01667 0.63116 0.37008 0.0
C1913 C 0.01154 0.64642 0.37162 0.0
C1914 C 1.00733 0.65386 0.34824 0.0
C1915 C 1.00807 0.64593 0.32361 0.0
C1916 C 0.01303 0.63021 0.32279 0.0
H1917 H 0.4777 0.4984 0.46879 0.0
H1918 H 0.53534 0.54548 0.43502 0.0
H1919 H 0.52411 0.53037 0.39125 0.0
H1920 H 0.47116 0.45699 0.42692 0.0
H1921 H 0.4436 0.44653 0.42427 0.0
H1922 H 0.45692 0.45992 0.4533 0.0
H1923 H 0.44195 0.48402 0.44679 0.0
H1924 H 0.42867 0.47079 0.41769 0.0
H1925 H 0.44611 0.49773 0.416 0.0
H1926 H 0.50626 0.51093 0.35105 0.0
H1927 H 0.48266 0.4894 0.31668 0.0
H1928 H 0.43558 0.4556 0.37584 0.0
C1929 C 0.48814 0.50527 0.45228 0.0
C1930 C 0.50756 0.52297 0.45537 0.0
C1931 C 0.52049 0.53185 0.43313 0.0
C1932 C 0.51424 0.52336 0.40821 0.0
C1933 C 0.4949 0.50609 0.40576 0.0
C1934 C 0.48198 0.49716 0.42715 0.0
C1935 C 0.46143 0.47947 0.41881 0.0
C1936 C 0.45809 0.45955 0.43158 0.0
C1937 C 0.44349 0.48324 0.4252 0.0
C1938 C 0.46477 0.4799 0.38936 0.0
C1939 C 0.48427 0.49526 0.38235 0.0
C1940 C 0.49097 0.49883 0.35632 0.0
C1941 C 0.4774 0.48647 0.3369 0.0
C1942 C 0.45719 0.47075 0.34344 0.0
C1943 C 0.45089 0.46746 0.37013 0.0
H1944 H 0.73047 0.86967 0.25441 0.0
H1945 H 0.66712 0.85214 0.27395 0.0
H1946 H 0.65504 0.82913 0.23595 0.0
H1947 H 0.72527 0.87008 0.18456 0.0
H1948 H 0.74247 0.86027 0.17887 0.0
H1949 H 0.74572 0.87503 0.2075 0.0
H1950 H 0.74311 0.8458 0.23741 0.0
H1951 H 0.7399 0.83096 0.20888 0.0
H1952 H 0.72091 0.82086 0.23485 0.0
H1953 H 0.65032 0.80781 0.19464 0.0
H1954 H 0.65342 0.79049 0.15567 0.0
H1955 H 0.72008 0.82268 0.16443 0.0
C1956 C 0.714 0.86104 0.25084 0.0
C1957 C 0.69975 0.8628 0.26729 0.0
C1958 C 0.67837 0.8511 0.26171 0.0
C1959 C 0.67138 0.838 0.24013 0.0
C1960 C 0.68595 0.83673 0.22429 0.0
C1961 C 0.70683 0.84799 0.22955 0.0
C1962 C 0.71953 0.84406 0.20988 0.0
C1963 C 0.7341 0.86352 0.19428 0.0
C1964 C 0.73157 0.83487 0.22358 0.0
C1965 C 0.7026 0.82881 0.19256 0.0
C1966 C 0.6833 0.82471 0.20105 0.0
C1967 C 0.6654 0.81098 0.18793 0.0
C1968 C 0.66731 0.8012 0.16575 0.0
C1969 C 0.68699 0.80517 0.15683 0.0
C1970 C 0.70478 0.81925 0.17056 0.0
H1971 H 0.19435 0.91586 0.24511 0.0
H1972 H 0.23536 0.90033 0.28792 0.0
H1973 H 0.26049 0.91451 0.25091 0.0
H1974 H 0.20493 0.90481 0.17992 0.0
H1975 H 0.20321 0.92563 0.16491 0.0
H1976 H 0.18837 0.91315 0.19404 0.0
H1977 H 0.2047 0.94757 0.21751 0.0
H1978 H 0.2196 0.96015 0.18852 0.0
H1979 H 0.23243 0.96272 0.21954 0.0
H1980 H 0.28192 0.93256 0.20919 0.0
H1981 H 0.29714 0.95219 0.16792 0.0
H1982 H 0.24117 0.95517 0.15391 0.0
C1983 C 0.20853 0.91523 0.24678 0.0
C1984 C 0.2129 0.90699 0.26948 0.0
C1985 C 0.23165 0.90651 0.27068 0.0
C1986 C 0.24599 0.91454 0.24976 0.0
C1987 C 0.24122 0.92281 0.22778 0.0
C1988 C 0.22283 0.92306 0.22624 0.0
C1989 C 0.22138 0.9333 0.20114 0.0
C1990 C 0.20341 0.91832 0.18399 0.0
C1991 C 0.21942 0.95204 0.20704 0.0
C1992 C 0.24201 0.93918 0.1888 0.0
C1993 C 0.25327 0.93295 0.20425 0.0
C1994 C 0.27311 0.93734 0.19693 0.0
C1995 C 0.28163 0.94849 0.17344 0.0
C1996 C 0.27035 0.95521 0.1576 0.0
C1997 C 0.25022 0.95023 0.16543 0.0
H1998 H 0.17769 0.44206 0.24722 0.0
H1999 H 0.13646 0.43456 0.31126 0.0
H2000 H 0.10727 0.42298 0.28001 0.0
H2001 H 0.15274 0.45773 0.19533 0.0
H2002 H 0.15676 0.44339 0.17065 0.0
H2003 H 0.17476 0.45393 0.1974 0.0
H2004 H 0.16923 0.41825 0.20923 0.0
H2005 H 0.15105 0.40757 0.18278 0.0
H2006 H 0.14346 0.39775 0.21585 0.0
H2007 H 0.08234 0.40991 0.24238 0.0
H2008 H 0.06316 0.39562 0.20135 0.0
H2009 H 0.12051 0.40987 0.16225 0.0
C2010 C 0.16265 0.43866 0.25441 0.0
C2011 C 0.15927 0.43959 0.28145 0.0
C2012 C 0.13925 0.43419 0.29049 0.0
C2013 C 0.12267 0.42761 0.27292 0.0
C2014 C 0.12638 0.42635 0.24642 0.0
C2015 C 0.14588 0.43173 0.23717 0.0
C2016 C 0.14537 0.42716 0.20828 0.0
C2017 C 0.15817 0.44672 0.19195 0.0
C2018 C 0.15271 0.41177 0.20379 0.0
C2019 C 0.1225 0.41806 0.20282 0.0
C2020 C 0.11187 0.41799 0.22497 0.0
C2021 C 0.09052 0.41 0.22487 0.0
C2022 C 0.07976 0.40188 0.20148 0.0
C2023 C 0.09033 0.40157 0.17865 0.0
C2024 C 0.11199 0.40982 0.17942 0.0
H2025 H 0.10806 0.32208 0.94602 0.0
H2026 H 0.17374 0.34708 0.95882 0.0
H2027 H 0.17066 0.36007 1.00167 0.0
H2028 H 0.10506 0.36298 0.97087 0.0
H2029 H 0.08002 0.34808 0.98603 0.0
H2030 H 0.08685 0.33865 0.95794 0.0
H2031 H 0.07899 0.30602 0.98427 0.0
H2032 H 0.07194 0.31528 0.01241 0.0
H2033 H 0.09155 0.30804 0.01538 0.0
H2034 H 0.16087 0.37241 0.04144 0.0
H2035 H 0.1451 0.38326 0.07536 0.0
H2036 H 0.08585 0.35076 0.03607 0.0
C2037 C 0.12164 0.32979 0.95822 0.0
C2038 C 0.14111 0.33347 0.94931 0.0
C2039 C 0.1587 0.34415 0.96539 0.0
C2040 C 0.15708 0.3515 0.98974 0.0
C2041 C 0.13774 0.34807 0.99769 0.0
C2042 C 0.12031 0.33741 0.98247 0.0
C2043 C 0.10166 0.33706 0.99466 0.0
C2044 C 0.09289 0.34731 0.97628 0.0
C2045 C 0.08506 0.3153 1.00213 0.0
C2046 C 0.11141 0.34948 0.01884 0.0
C2047 C 0.13218 0.35552 0.02038 0.0
C2048 C 0.14457 0.36763 0.04058 0.0
C2049 C 0.13548 0.37375 0.05973 0.0
C2050 C 0.11425 0.36788 0.05841 0.0
C2051 C 0.10211 0.35549 0.0377 0.0
H2052 H 0.68732 0.85953 0.91539 0.0
H2053 H 0.64597 0.80231 0.87898 0.0
H2054 H 0.64353 0.7843 0.92089 0.0
H2055 H 0.71538 0.84197 0.95281 0.0
H2056 H 0.71836 0.85685 0.98127 0.0
H2057 H 0.71545 0.86564 0.94922 0.0
H2058 H 0.68402 0.86812 0.96574 0.0
H2059 H 0.68696 0.85954 0.99795 0.0
H2060 H 0.6626 0.84626 0.98106 0.0
H2061 H 0.64773 0.77211 0.9656 0.0
H2062 H 0.65662 0.76674 0.0107 0.0
H2063 H 0.69516 0.83174 0.01884 0.0
C2064 C 0.67734 0.84326 0.91638 0.0
C2065 C 0.66669 0.83239 0.89379 0.0
C2066 C 0.65418 0.81104 0.89592 0.0
C2067 C 0.65272 0.80064 0.91968 0.0
C2068 C 0.66384 0.81173 0.94131 0.0
C2069 C 0.67574 0.83259 0.94 0.0
C2070 C 0.68681 0.84077 0.96588 0.0
C2071 C 0.7104 0.85196 0.96206 0.0
C2072 C 0.67967 0.85448 0.9784 0.0
C2073 C 0.67948 0.82123 0.9818 0.0
C2074 C 0.66622 0.80468 0.96721 0.0
C2075 C 0.65794 0.78498 0.97728 0.0
C2076 C 0.66317 0.78208 1.00297 0.0
C2077 C 0.67658 0.79878 0.01853 0.0
C2078 C 0.68479 0.81862 1.00763 0.0
H2079 H 0.22573 0.91042 0.92336 0.0
H2080 H 0.20247 0.95247 0.91496 0.0
H2081 H 0.22117 0.96958 0.95528 0.0
H2082 H 0.22297 0.90591 0.99375 0.0
H2083 H 0.24641 0.90463 0.99682 0.0
H2084 H 0.23089 0.8956 0.96765 0.0
H2085 H 0.26261 0.91959 0.9389 0.0
H2086 H 0.27824 0.92869 0.96797 0.0
H2087 H 0.27638 0.94631 0.94538 0.0
H2088 H 0.24335 0.9826 0.99616 0.0
H2089 H 0.26645 0.99004 0.03441 0.0
H2090 H 0.27515 0.93938 0.01549 0.0
C2091 C 0.22465 0.92333 0.92976 0.0
C2092 C 0.21266 0.93014 0.91578 0.0
C2093 C 0.2114 0.94685 0.92537 0.0
C2094 C 0.22205 0.95673 0.9482 0.0
C2095 C 0.23385 0.94967 0.96131 0.0
C2096 C 0.23513 0.9333 0.95244 0.0
C2097 C 0.24886 0.92866 0.96999 0.0
C2098 C 0.23654 0.90744 0.98281 0.0
C2099 C 0.26764 0.93096 0.95464 0.0
C2100 C 0.25524 0.94506 0.99009 0.0
C2101 C 0.24643 0.95703 0.98477 0.0
C2102 C 0.25027 0.97328 1.00051 0.0
C2103 C 0.26345 0.9774 0.02221 0.0
C2104 C 0.27264 0.9653 0.02804 0.0
C2105 C 0.26837 0.9489 0.01168 0.0
H2106 H 0.68174 0.88614 0.43564 0.0
H2107 H 0.68708 0.9313 0.37773 0.0
H2108 H 0.68376 0.95128 0.41306 0.0
H2109 H 0.64399 0.88957 0.47806 0.0
H2110 H 0.65524 0.88598 0.50775 0.0
H2111 H 0.65687 0.87481 0.47766 0.0
H2112 H 0.69669 0.89281 0.48231 0.0
H2113 H 0.69522 0.90424 0.51221 0.0
H2114 H 0.71109 0.91994 0.48534 0.0
H2115 H 0.68268 0.9678 0.45557 0.0
H2116 H 0.68041 0.97767 0.50087 0.0
H2117 H 0.67476 0.92126 0.53084 0.0
C2118 C 0.68185 0.90005 0.43027 0.0
C2119 C 0.68461 0.90705 0.40376 0.0
C2120 C 0.68481 0.92545 0.39777 0.0
C2121 C 0.68305 0.937 0.41777 0.0
C2122 C 0.68091 0.92991 0.44374 0.0
C2123 C 0.67997 0.91169 0.44996 0.0
C2124 C 0.67781 0.90755 0.47942 0.0
C2125 C 0.65725 0.88834 0.48611 0.0
C2126 C 0.6963 0.90605 0.49046 0.0
C2127 C 0.67793 0.92639 0.48887 0.0
C2128 C 0.67984 0.93917 0.46802 0.0
C2129 C 0.68097 0.95779 0.472 0.0
C2130 C 0.67978 0.96333 0.49786 0.0
C2131 C 0.67734 0.95026 0.51953 0.0
C2132 C 0.6765 0.93158 0.51478 0.0
H2133 H 0.12819 0.8502 0.41651 0.0
H2134 H 0.1823 0.84419 0.40268 0.0
H2135 H 0.17275 0.82062 0.44116 0.0
H2136 H 0.12974 0.84894 0.48732 0.0
H2137 H 0.10201 0.83465 0.49068 0.0
H2138 H 0.11354 0.85134 0.46263 0.0
H2139 H 0.09232 0.82153 0.43152 0.0
H2140 H 0.08077 0.80474 0.45945 0.0
H2141 H 0.09409 0.79878 0.43485 0.0
H2142 H 0.15658 0.79714 0.48087 0.0
H2143 H 0.1356 0.77591 0.51827 0.0
H2144 H 0.09193 0.79737 0.50547 0.0
C2145 C 0.13817 0.84406 0.42155 0.0
C2146 C 0.15607 0.8491 0.40654 0.0
C2147 C 0.16857 0.84061 0.41389 0.0
C2148 C 0.16324 0.8272 0.4357 0.0
C2149 C 0.14538 0.82248 0.4499 0.0
C2150 C 0.13307 0.83071 0.4431 0.0
C2151 C 0.11451 0.82304 0.4612 0.0
C2152 C 0.11499 0.84053 0.47635 0.0
C2153 C 0.09423 0.81133 0.44583 0.0
C2154 C 0.11817 0.80907 0.4793 0.0
C2155 C 0.13607 0.80899 0.47252 0.0
C2156 C 0.14257 0.79714 0.48633 0.0
C2157 C 0.1305 0.78511 0.50758 0.0
C2158 C 0.11206 0.78492 0.51488 0.0
C2159 C 0.1059 0.79713 0.50045 0.0
H2160 H 0.24908 0.44772 0.45944 0.0
H2161 H 0.19668 0.38819 0.44555 0.0
H2162 H 0.20802 0.37384 0.48161 0.0
H2163 H 0.28511 0.43211 0.47236 0.0
H2164 H 0.29845 0.44985 0.49807 0.0
H2165 H 0.2853 0.45591 0.47271 0.0
H2166 H 0.2638 0.46155 0.5079 0.0
H2167 H 0.27707 0.45572 0.53342 0.0
H2168 H 0.24925 0.44178 0.53191 0.0
H2169 H 0.22692 0.36535 0.51608 0.0
H2170 H 0.25083 0.36389 0.54897 0.0
H2171 H 0.29007 0.42909 0.54151 0.0
C2172 C 0.23971 0.43178 0.46443 0.0
C2173 C 0.22209 0.41906 0.44953 0.0
C2174 C 0.21043 0.39818 0.4564 0.0
C2175 C 0.21667 0.3899 0.47696 0.0
C2176 C 0.23449 0.40272 0.4907 0.0
C2177 C 0.24569 0.42327 0.48499 0.0
C2178 C 0.26472 0.43356 0.50207 0.0
C2179 C 0.28456 0.44343 0.4853 0.0
C2180 C 0.26364 0.44907 0.51989 0.0
C2181 C 0.26266 0.41552 0.51784 0.0
C2182 C 0.24512 0.39787 0.51101 0.0
C2183 C 0.24056 0.37911 0.52191 0.0
C2184 C 0.25426 0.37841 0.54043 0.0
C2185 C 0.27219 0.39637 0.5479 0.0
C2186 C 0.27633 0.41512 0.53647 0.0
H2187 H 0.19092 0.34511 0.75056 0.0
H2188 H 0.21317 0.30776 0.78776 0.0
H2189 H 0.24047 0.31889 0.75378 0.0
H2190 H 0.19995 0.33634 0.683 0.0
H2191 H 0.20756 0.36184 0.67224 0.0
H2192 H 0.18951 0.35024 0.69901 0.0
H2193 H 0.21325 0.38032 0.7285 0.0
H2194 H 0.23154 0.39186 0.70196 0.0
H2195 H 0.2398 0.38668 0.73315 0.0
H2196 H 0.26667 0.33597 0.71736 0.0
H2197 H 0.28731 0.35437 0.67816 0.0
H2198 H 0.24724 0.37993 0.66414 0.0
C2199 C 0.20141 0.33912 0.75129 0.0
C2200 C 0.19992 0.32551 0.77163 0.0
C2201 C 0.21387 0.31793 0.77208 0.0
C2202 C 0.22952 0.32434 0.75303 0.0
C2203 C 0.23085 0.33815 0.73358 0.0
C2204 C 0.21695 0.34519 0.73233 0.0
C2205 C 0.22162 0.35984 0.70935 0.0
C2206 C 0.20359 0.35156 0.68974 0.0
C2207 C 0.22687 0.38092 0.71882 0.0
C2208 C 0.24043 0.36007 0.69793 0.0
C2209 C 0.24563 0.34762 0.71234 0.0
C2210 C 0.26265 0.34564 0.70582 0.0
C2211 C 0.27436 0.35627 0.6836 0.0
C2212 C 0.26887 0.36857 0.66802 0.0
C2213 C 0.25182 0.37063 0.67558 0.0
H2214 H 0.67394 0.92853 0.78904 0.0
H2215 H 0.67402 0.87656 0.75573 0.0
H2216 H 0.67062 0.88828 0.71124 0.0
H2217 H 0.63727 0.93109 0.74281 0.0
H2218 H 0.65089 0.95838 0.74155 0.0
H2219 H 0.65185 0.94512 0.77085 0.0
H2220 H 0.69183 0.96465 0.76867 0.0
H2221 H 0.69101 0.97788 0.7393 0.0
H2222 H 0.70463 0.96382 0.73919 0.0
H2223 H 0.66868 0.90659 0.6698 0.0
H2224 H 0.66848 0.9299 0.63525 0.0
H2225 H 0.67038 0.97032 0.69542 0.0
C2226 C 0.67286 0.91939 0.77245 0.0
C2227 C 0.67407 0.90146 0.77605 0.0
C2228 C 0.67303 0.89025 0.75363 0.0
C2229 C 0.6711 0.89681 0.72822 0.0
C2230 C 0.67029 0.9147 0.72535 0.0
C2231 C 0.67111 0.92582 0.74689 0.0
C2232 C 0.67087 0.94498 0.73836 0.0
C2233 C 0.65157 0.94488 0.74903 0.0
C2234 C 0.69077 0.96395 0.74689 0.0
C2235 C 0.66993 0.94298 0.70868 0.0
C2236 C 0.6695 0.92535 0.70156 0.0
C2237 C 0.66892 0.92039 0.67521 0.0
C2238 C 0.66882 0.93376 0.65567 0.0
C2239 C 0.66939 0.95201 0.66245 0.0
C2240 C 0.66989 0.95652 0.68943 0.0
H2241 H 0.15022 0.86866 0.71656 0.0
H2242 H 0.15732 0.82545 0.76654 0.0
H2243 H 0.14217 0.80009 0.73202 0.0
H2244 H 0.10096 0.83304 0.69087 0.0
H2245 H 0.10615 0.84465 0.6585 0.0
H2246 H 0.11865 0.8598 0.68667 0.0
H2247 H 0.15441 0.87192 0.66514 0.0
H2248 H 0.14201 0.85673 0.63693 0.0
H2249 H 0.16121 0.85346 0.65474 0.0
H2250 H 0.12517 0.77881 0.69217 0.0
H2251 H 0.10676 0.76337 0.65094 0.0
H2252 H 0.11011 0.82022 0.62777 0.0
C2253 C 0.14859 0.8539 0.72038 0.0
C2254 C 0.15523 0.84929 0.74439 0.0
C2255 C 0.15283 0.82968 0.74827 0.0
C2256 C 0.1441 0.81504 0.72876 0.0
C2257 C 0.13776 0.82013 0.70539 0.0
C2258 C 0.13984 0.83907 0.70117 0.0
C2259 C 0.13119 0.84051 0.67468 0.0
C2260 C 0.11317 0.84474 0.67788 0.0
C2261 C 0.14823 0.85661 0.65682 0.0
C2262 C 0.12375 0.81937 0.66478 0.0
C2263 C 0.12779 0.80785 0.68268 0.0
C2264 C 0.12199 0.78772 0.67797 0.0
C2265 C 0.11158 0.77908 0.65448 0.0
C2266 C 0.10699 0.79055 0.63608 0.0
C2267 C 0.1134 0.81101 0.64135 0.0
H2268 H 0.40237 0.18981 0.61795 0.0
H2269 H 0.3399 0.1796 0.62492 0.0
H2270 H 0.3299 0.15823 0.58538 0.0
H2271 H 0.40587 0.19462 0.54885 0.0
H2272 H 0.42085 0.18206 0.54576 0.0
H2273 H 0.42248 0.19534 0.57528 0.0
H2274 H 0.41232 0.1628 0.60318 0.0
H2275 H 0.41078 0.14942 0.57374 0.0
H2276 H 0.38889 0.13977 0.59566 0.0
H2277 H 0.32759 0.13906 0.54309 0.0
H2278 H 0.33284 0.12365 0.50364 0.0
H2279 H 0.39705 0.14709 0.52529 0.0
C2280 C 0.38648 0.18296 0.61143 0.0
C2281 C 0.3719 0.1864 0.62468 0.0
C2282 C 0.35133 0.17713 0.61526 0.0
C2283 C 0.34555 0.16501 0.59275 0.0
C2284 C 0.36049 0.16225 0.57995 0.0
C2285 C 0.38051 0.17092 0.58915 0.0
C2286 C 0.39392 0.1662 0.57174 0.0
C2287 C 0.41183 0.18572 0.5597 0.0
C2288 C 0.40194 0.15381 0.58699 0.0
C2289 C 0.37843 0.15365 0.55101 0.0
C2290 C 0.35919 0.15143 0.55602 0.0
C2291 C 0.34258 0.14067 0.53915 0.0
C2292 C 0.34573 0.13197 0.51673 0.0
C2293 C 0.36536 0.1341 0.51124 0.0
C2294 C 0.38183 0.14509 0.5288 0.0
H2295 H 0.90995 0.2105 0.55468 0.0
H2296 H 0.90555 0.25181 0.60807 0.0
H2297 H 0.92194 0.27945 0.57495 0.0
H2298 H 0.95991 0.2478 0.52449 0.0
H2299 H 0.95232 0.23742 0.49218 0.0
H2300 H 0.94179 0.22122 0.52089 0.0
H2301 H 0.90475 0.20999 0.50441 0.0
H2302 H 0.91514 0.22625 0.47577 0.0
H2303 H 0.89744 0.2289 0.49705 0.0
H2304 H 0.93642 0.3019 0.53546 0.0
H2305 H 0.94913 0.31833 0.49211 0.0
H2306 H 0.94439 0.26283 0.46338 0.0
C2307 C 0.91284 0.22548 0.55945 0.0
C2308 C 0.90645 0.22905 0.58387 0.0
C2309 C 0.91014 0.24874 0.58937 0.0
C2310 C 0.91952 0.26454 0.57074 0.0
C2311 C 0.92516 0.26045 0.54661 0.0
C2312 C 0.92209 0.24147 0.54089 0.0
C2313 C 0.92875 0.24103 0.5129 0.0
C2314 C 0.94677 0.23661 0.51261 0.0
C2315 C 0.91042 0.22563 0.49657 0.0
C2316 C 0.93569 0.26261 0.50375 0.0
C2317 C 0.93357 0.27353 0.52361 0.0
C2318 C 0.93832 0.29357 0.5198 0.0
C2319 C 0.94547 0.30275 0.49503 0.0
C2320 C 0.9478 0.29192 0.47427 0.0
C2321 C 0.94289 0.27157 0.47883 0.0
H2322 H 0.83674 0.73032 0.62182 0.0
H2323 H 0.87104 0.79529 0.63325 0.0
H2324 H 0.85504 0.80045 0.59341 0.0
H2325 H 0.83998 0.73167 0.55247 0.0
H2326 H 0.81417 0.71088 0.5479 0.0
H2327 H 0.82801 0.71221 0.57763 0.0
H2328 H 0.79807 0.7103 0.6054 0.0
H2329 H 0.78407 0.70885 0.57575 0.0
H2330 H 0.78944 0.72834 0.59906 0.0
H2331 H 0.83628 0.79863 0.55139 0.0
H2332 H 0.81508 0.78989 0.5112 0.0
H2333 H 0.79201 0.72603 0.52829 0.0
C2334 C 0.84072 0.74565 0.61635 0.0
C2335 C 0.8553 0.7624 0.63084 0.0
C2336 C 0.8602 0.7822 0.62241 0.0
C2337 C 0.85108 0.78529 0.59985 0.0
C2338 C 0.83697 0.76845 0.58597 0.0
C2339 C 0.83169 0.74901 0.594 0.0
C2340 C 0.8162 0.73349 0.57549 0.0
C2341 C 0.82513 0.72135 0.56262 0.0
C2342 C 0.79573 0.71942 0.58978 0.0
C2343 C 0.81371 0.74726 0.55566 0.0
C2344 C 0.82586 0.76737 0.56204 0.0
C2345 C 0.82659 0.78293 0.54629 0.0
C2346 C 0.81453 0.7778 0.52345 0.0
C2347 C 0.80183 0.75727 0.51662 0.0
C2348 C 0.80144 0.74185 0.53306 0.0
H2349 H 0.8531 0.7658 0.28731 0.0
H2350 H 0.81502 0.70525 0.25761 0.0
H2351 H 0.79558 0.6947 0.29935 0.0
H2352 H 0.85627 0.75042 0.35422 0.0
H2353 H 0.85514 0.77138 0.36831 0.0
H2354 H 0.86619 0.77407 0.33611 0.0
H2355 H 0.84064 0.78479 0.31678 0.0
H2356 H 0.8296 0.78224 0.34892 0.0
H2357 H 0.81327 0.7685 0.32184 0.0
H2358 H 0.77979 0.69094 0.34445 0.0
H2359 H 0.7684 0.69482 0.38844 0.0
H2360 H 0.81759 0.75752 0.38854 0.0
C2361 C 0.84082 0.75027 0.28962 0.0
C2362 C 0.8356 0.73642 0.26904 0.0
C2363 C 0.81915 0.71629 0.27283 0.0
C2364 C 0.80812 0.71007 0.2966 0.0
C2365 C 0.81373 0.72412 0.31647 0.0
C2366 C 0.82968 0.74381 0.31319 0.0
C2367 C 0.83239 0.75611 0.33733 0.0
C2368 C 0.85376 0.76342 0.34972 0.0
C2369 C 0.82875 0.77396 0.33082 0.0
C2370 C 0.81536 0.74031 0.35464 0.0
C2371 C 0.8048 0.72192 0.34237 0.0
C2372 C 0.78803 0.70525 0.35432 0.0
C2373 C 0.78169 0.70757 0.37932 0.0
C2374 C 0.79212 0.72643 0.392 0.0
C2375 C 0.80935 0.74284 0.37952 0.0
H2376 H 0.32817 0.16625 0.26037 0.0
H2377 H 0.39408 0.20576 0.24935 0.0
H2378 H 0.40055 0.19052 0.28962 0.0
H2379 H 0.3269 0.16806 0.32946 0.0
H2380 H 0.30728 0.14186 0.33353 0.0
H2381 H 0.30836 0.15556 0.30374 0.0
H2382 H 0.31073 0.12849 0.27625 0.0
H2383 H 0.30954 0.11463 0.30596 0.0
H2384 H 0.33076 0.12235 0.28332 0.0
H2385 H 0.39894 0.17102 0.3331 0.0
H2386 H 0.38977 0.14901 0.37312 0.0
H2387 H 0.32482 0.1227 0.3536 0.0
C2388 C 0.34404 0.17181 0.2663 0.0
C2389 C 0.36064 0.18737 0.25178 0.0
C2390 C 0.38113 0.19388 0.26015 0.0
C2391 C 0.3849 0.18532 0.28302 0.0
C2392 C 0.36803 0.17014 0.29705 0.0
C2393 C 0.34802 0.16339 0.28871 0.0
C2394 C 0.33239 0.14696 0.30679 0.0
C2395 C 0.31789 0.15352 0.31911 0.0
C2396 C 0.32014 0.12693 0.29221 0.0
C2397 C 0.3466 0.14562 0.3271 0.0
C2398 C 0.36712 0.15901 0.32126 0.0
C2399 C 0.38291 0.16046 0.33766 0.0
C2400 C 0.37754 0.14791 0.36041 0.0
C2401 C 0.35655 0.13408 0.36662 0.0
C2402 C 0.34101 0.13305 0.34957 0.0
H2403 H 0.91203 0.31066 0.22577 0.0
H2404 H 0.84634 0.27606 0.24188 0.0
H2405 H 0.85329 0.28077 0.28962 0.0
H2406 H 0.92706 0.28995 0.27822 0.0
H2407 H 0.95047 0.31303 0.28558 0.0
H2408 H 0.94029 0.30882 0.25271 0.0
H2409 H 0.93945 0.34247 0.25326 0.0
H2410 H 0.94986 0.34691 0.28605 0.0
H2411 H 0.92599 0.34677 0.2794 0.0
H2412 H 0.86762 0.28808 0.33563 0.0
H2413 H 0.8882 0.29718 0.37649 0.0
H2414 H 0.94463 0.3257 0.3301 0.0
C2415 C 0.89913 0.30457 0.23935 0.0
C2416 C 0.87862 0.29325 0.23025 0.0
C2417 C 0.86213 0.28489 0.24859 0.0
C2418 C 0.86594 0.28749 0.27566 0.0
C2419 C 0.88637 0.29837 0.28406 0.0
C2420 C 0.9027 0.30679 0.26645 0.0
C2421 C 0.92325 0.31668 0.28062 0.0
C2422 C 0.93601 0.3065 0.27388 0.0
C2423 C 0.93534 0.33957 0.27447 0.0
C2424 C 0.91594 0.31237 0.30892 0.0
C2425 C 0.89462 0.30196 0.31051 0.0
C2426 C 0.88433 0.29628 0.33463 0.0
C2427 C 0.89614 0.30148 0.35772 0.0
C2428 C 0.91801 0.31207 0.35653 0.0
C2429 C 0.92794 0.31749 0.33172 0.0
H2430 H 0.3513 0.21715 0.7873 0.0
H2431 H 0.36001 0.2612 0.72581 0.0
H2432 H 0.35829 0.28352 0.75897 0.0
H2433 H 0.31495 0.22554 0.82716 0.0
H2434 H 0.32525 0.22199 0.85772 0.0
H2435 H 0.3258 0.20898 0.82885 0.0
H2436 H 0.36535 0.22433 0.83411 0.0
H2437 H 0.36498 0.2376 0.86275 0.0
H2438 H 0.38161 0.25143 0.8354 0.0
H2439 H 0.35984 0.30289 0.7997 0.0
H2440 H 0.35963 0.31564 0.84395 0.0
H2441 H 0.34758 0.2582 0.87869 0.0
C2442 C 0.35241 0.2313 0.78071 0.0
C2443 C 0.35575 0.23735 0.75384 0.0
C2444 C 0.35725 0.25608 0.74616 0.0
C2445 C 0.35643 0.26896 0.76493 0.0
C2446 C 0.35376 0.2628 0.79132 0.0
C2447 C 0.3513 0.24421 0.79915 0.0
C2448 C 0.3488 0.24128 0.82877 0.0
C2449 C 0.32743 0.22339 0.83605 0.0
C2450 C 0.36622 0.2385 0.84097 0.0
C2451 C 0.35067 0.26128 0.83646 0.0
C2452 C 0.35371 0.27357 0.81458 0.0
C2453 C 0.35711 0.29324 0.81689 0.0
C2454 C 0.35711 0.30042 0.84213 0.0
C2455 C 0.35343 0.28789 0.86476 0.0
C2456 C 0.35015 0.26805 0.86174 0.0
H2457 H 0.83649 0.16126 0.77831 0.0
H2458 H 0.80235 0.12203 0.7143 0.0
H2459 H 0.77244 0.10239 0.74385 0.0
H2460 H 0.8162 0.12243 0.83079 0.0
H2461 H 0.81506 0.13921 0.85433 0.0
H2462 H 0.83414 0.14925 0.82847 0.0
H2463 H 0.8209 0.17371 0.81402 0.0
H2464 H 0.80156 0.1635 0.83956 0.0
H2465 H 0.79401 0.16356 0.80584 0.0
H2466 H 0.74608 0.08749 0.77998 0.0
H2467 H 0.72531 0.07759 0.82078 0.0
H2468 H 0.77597 0.12738 0.86104 0.0
C2469 C 0.82287 0.14826 0.77077 0.0
C2470 C 0.82171 0.14298 0.74413 0.0
C2471 C 0.80346 0.12621 0.73469 0.0
C2472 C 0.78643 0.11502 0.7513 0.0
C2473 C 0.78783 0.1209 0.77729 0.0
C2474 C 0.80559 0.13706 0.78705 0.0
C2475 C 0.80275 0.14056 0.81556 0.0
C2476 C 0.81794 0.13769 0.83333 0.0
C2477 C 0.80493 0.16158 0.81893 0.0
C2478 C 0.78066 0.12386 0.82025 0.0
C2479 C 0.77238 0.11266 0.79793 0.0
C2480 C 0.75238 0.09617 0.79758 0.0
C2481 C 0.74067 0.0907 0.82082 0.0
C2482 C 0.74891 0.1018 0.84403 0.0
C2483 C 0.76909 0.11877 0.84353 0.0
H2484 H 0.92728 0.76084 0.81238 0.0
H2485 H 0.89343 0.6973 0.79253 0.0
H2486 H 0.91106 0.68946 0.8283 0.0
H2487 H 0.97504 0.76281 0.82824 0.0
H2488 H 0.98087 0.77979 0.85517 0.0
H2489 H 0.96543 0.7804 0.82813 0.0
H2490 H 0.93621 0.77452 0.86051 0.0
H2491 H 0.95159 0.77396 0.88767 0.0
H2492 H 0.92592 0.75298 0.88286 0.0
H2493 H 0.93261 0.68855 0.86611 0.0
H2494 H 0.95629 0.69464 0.90338 0.0
H2495 H 0.97575 0.75873 0.89887 0.0
C2496 C 0.92338 0.74524 0.8157 0.0
C2497 C 0.90897 0.7297 0.7995 0.0
C2498 C 0.9046 0.70952 0.80436 0.0
C2499 C 0.91445 0.70489 0.82475 0.0
C2500 C 0.92865 0.72059 0.84019 0.0
C2501 C 0.93309 0.74035 0.83595 0.0
C2502 C 0.94909 0.75444 0.85523 0.0
C2503 C 0.96877 0.77029 0.84083 0.0
C2504 C 0.94016 0.76457 0.8726 0.0
C2505 C 0.95296 0.73951 0.87098 0.0
C2506 C 0.94103 0.72006 0.86199 0.0
C2507 C 0.94201 0.70371 0.87335 0.0
C2508 C 0.95552 0.70733 0.89451 0.0
C2509 C 0.96788 0.72715 0.9041 0.0
C2510 C 0.96651 0.74339 0.89206 0.0
H2511 H 0.90724 0.73411 0.09855 0.0
H2512 H 0.94211 0.79876 0.11198 0.0
H2513 H 0.97027 0.80143 0.084 0.0
H2514 H 0.95103 0.72565 0.09987 0.0
H2515 H 0.94076 0.70707 0.07447 0.0
H2516 H 0.92348 0.71026 0.09585 0.0
H2517 H 0.90587 0.71648 0.05534 0.0
H2518 H 0.92308 0.71331 0.03385 0.0
H2519 H 0.92141 0.73614 0.03169 0.0
H2520 H 0.99437 0.79712 0.05373 0.0
H2521 H 0.01231 0.78629 0.023 0.0
H2522 H 0.96197 0.7243 0.03035 0.0
C2523 C 0.92086 0.74882 0.09598 0.0
C2524 C 0.92236 0.76623 0.10761 0.0
C2525 C 0.9404 0.78522 0.10313 0.0
C2526 C 0.95658 0.78687 0.08739 0.0
C2527 C 0.95455 0.76939 0.07631 0.0
C2528 C 0.93715 0.75073 0.08042 0.0
C2529 C 0.93861 0.73431 0.06586 0.0
C2530 C 0.93846 0.71839 0.08517 0.0
C2531 C 0.92121 0.72449 0.04548 0.0
C2532 C 0.9595 0.74669 0.05272 0.0
C2533 C 0.96847 0.76688 0.05906 0.0
C2534 C 0.98754 0.78133 0.04874 0.0
C2535 C 0.99761 0.77502 0.03129 0.0
C2536 C 0.98861 0.75443 0.0243 0.0
C2537 C 0.96937 0.74011 0.03544 0.0
H2538 H 0.36867 0.22038 0.07375 0.0
H2539 H 0.38075 0.26494 0.13316 0.0
H2540 H 0.38282 0.28917 0.09855 0.0
H2541 H 0.40313 0.25703 0.02281 0.0
H2542 H 0.3859 0.24311 0.99651 0.0
H2543 H 0.38701 0.22993 0.02581 0.0
H2544 H 0.34751 0.21438 0.03195 0.0
H2545 H 0.34631 0.22772 1.00292 0.0
H2546 H 0.33665 0.23088 0.03377 0.0
H2547 H 0.37933 0.30711 0.05785 0.0
H2548 H 0.37503 0.31888 0.01375 0.0
H2549 H 0.36721 0.26354 0.98039 0.0
C2550 C 0.37222 0.23539 0.07946 0.0
C2551 C 0.37461 0.2407 0.10628 0.0
C2552 C 0.37907 0.26049 0.11282 0.0
C2553 C 0.38014 0.27436 0.09327 0.0
C2554 C 0.37705 0.26839 0.06714 0.0
C2555 C 0.37363 0.24952 0.06014 0.0
C2556 C 0.37047 0.24674 0.03069 0.0
C2557 C 0.38765 0.24405 0.01822 0.0
C2558 C 0.34896 0.22887 0.02448 0.0
C2559 C 0.37217 0.26679 0.02227 0.0
C2560 C 0.37584 0.27902 0.04362 0.0
C2561 C 0.3768 0.29777 0.04096 0.0
C2562 C 0.3742 0.30429 0.01584 0.0
C2563 C 0.37093 0.29222 0.99356 0.0
C2564 C 0.36996 0.27324 0.99696 0.0
H2565 H 0.81142 0.1939 0.07447 0.0
H2566 H 0.82541 0.24794 0.02818 0.0
H2567 H 0.80894 0.22693 0.98976 0.0
H2568 H 0.82093 0.16763 0.0219 0.0
H2569 H 0.80017 0.14309 0.03198 0.0
H2570 H 0.81342 0.16237 0.05601 0.0
H2571 H 0.77854 0.15876 0.07074 0.0
H2572 H 0.76518 0.1395 0.04676 0.0
H2573 H 0.7622 0.16162 0.04669 0.0
H2574 H 0.78985 0.20036 0.95694 0.0
H2575 H 0.76969 0.1697 0.93115 0.0
H2576 H 0.76902 0.13246 0.99751 0.0
C2577 C 0.81131 0.20141 0.05622 0.0
C2578 C 0.81971 0.22271 0.05458 0.0
C2579 C 0.81886 0.23172 0.03025 0.0
C2580 C 0.80965 0.2199 1.00818 0.0
C2581 C 0.80145 0.19904 0.01057 0.0
C2582 C 0.80225 0.18982 0.03388 0.0
C2583 C 0.79192 0.16701 0.03114 0.0
C2584 C 0.80755 0.15959 0.03552 0.0
C2585 C 0.77336 0.15608 0.04995 0.0
C2586 C 0.78501 0.16486 1.00269 0.0
C2587 C 0.79071 0.18358 0.99129 0.0
C2588 C 0.78545 0.18562 0.96557 0.0
C2589 C 0.77393 0.16808 0.95111 0.0
C2590 C 0.76784 0.14868 0.96226 0.0
C2591 C 0.77367 0.14709 0.98836 0.0
loop_
_geom_bond_atom_site_label_1
_geom_bond_atom_site_label_2
_geom_bond_distance
_geom_bond_site_symmetry_2
_ccdc_geom_bond_type
Cu0 N1 2.015 . S
Cu0 O6 1.968 1_554 S
Cu0 N11 1.970 1_554 S
Cu0 O20 1.965 . S
N1 Cu0 2.015 . S
N1 C3 1.263 . S
N1 C5 1.389 . S
N2 C3 1.358 . S
N2 C4 1.400 . S
C3 N1 1.263 . S
C3 N2 1.358 . S
C3 H9 0.930 . S
C4 N2 1.400 . S
C4 C5 1.351 . S
C4 H21 0.930 . S
C5 N1 1.389 . S
C5 C4 1.351 . S
C5 H10 0.930 . S
O6 Cu0 1.968 1_556 S
O6 C16 1.282 . S
C7 O8 1.261 . S
C7 O20 1.251 . S
O8 C7 1.261 . S
H9 C3 0.930 . S
H10 C5 0.930 . S
N11 Cu0 1.970 1_556 S
N11 C13 1.335 . S
N11 C14 1.390 . S
N12 C13 1.345 . S
N12 C15 1.336 . S
C13 N11 1.335 . S
C13 N12 1.345 . S
C13 H18 0.930 . S
C14 N11 1.390 . S
C14 C15 1.346 . S
C14 H19 0.930 . S
C15 N12 1.336 . S
C15 C14 1.346 . S
C15 H22 0.929 . S
C16 O6 1.282 . S
C16 O17 1.216 . S
O17 C16 1.216 . S
H18 C13 0.930 . S
H19 C14 0.930 . S
O20 Cu0 1.965 . S
O20 C7 1.251 . S
H21 C4 0.930 . S
H22 C15 0.929 . S
Cu23 N24 1.999 1_554 S
Cu23 O29 1.974 . S
Cu23 N34 1.985 . S
Cu23 O43 1.959 1_554 S
N24 Cu23 1.999 1_556 S
N24 C26 1.263 . S
N24 C28 1.389 . S
N25 C26 1.358 . S
N25 C27 1.400 . S
C26 N24 1.263 . S
C26 N25 1.358 . S
C26 H32 0.930 . S
C27 N25 1.400 . S
C27 C28 1.351 . S
C27 H44 0.930 . S
C28 N24 1.389 . S
C28 C27 1.351 . S
C28 H33 0.930 . S
O29 Cu23 1.974 . S
O29 C39 1.282 . S
C30 O31 1.261 . S
C30 O43 1.251 . S
O31 C30 1.261 . S
H32 C26 0.930 . S
H33 C28 0.930 . S
N34 Cu23 1.985 . S
N34 C36 1.335 . S
N34 C37 1.390 . S
N35 C36 1.345 . S
N35 C38 1.336 . S
C36 N34 1.335 . S
C36 N35 1.345 . S
C36 H41 0.930 . S
C37 N34 1.390 . S
C37 C38 1.346 . S
C37 H42 0.930 . S
C38 N35 1.336 . S
C38 C37 1.346 . S
C38 H45 0.929 . S
C39 O29 1.282 . S
C39 O40 1.216 . S
O40 C39 1.216 . S
H41 C36 0.930 . S
H42 C37 0.930 . S
O43 Cu23 1.959 1_556 S
O43 C30 1.251 . S
H44 C27 0.930 . S
H45 C38 0.929 . S
Cu46 N47 1.999 1_554 S
Cu46 O52 1.989 1_545 S
Cu46 N57 1.985 . S
Cu46 O66 1.959 1_554 S
N47 Cu46 1.999 1_556 S
N47 C49 1.263 . S
N47 C51 1.389 1_545 S
N48 C49 1.358 . S
N48 C50 1.400 1_545 S
C49 N47 1.263 . S
C49 N48 1.358 . S
C49 H55 0.930 . S
C50 N48 1.400 1_565 S
C50 C51 1.351 . S
C50 H67 0.930 . S
C51 N47 1.389 1_565 S
C51 C50 1.351 . S
C51 H56 0.930 . S
O52 Cu46 1.989 1_565 S
O52 C62 1.239 1_565 S
C53 O54 1.261 . S
C53 O66 1.251 . S
O54 C53 1.261 . S
H55 C49 0.930 . S
H56 C51 0.930 . S
N57 Cu46 1.985 . S
N57 C59 1.335 . S
N57 C60 1.390 . S
N58 C59 1.345 . S
N58 C61 1.336 . S
C59 N57 1.335 . S
C59 N58 1.345 . S
C59 H64 0.930 . S
C60 N57 1.390 . S
C60 C61 1.346 . S
C60 H65 0.930 . S
C61 N58 1.336 . S
C61 C60 1.346 . S
C61 H68 0.929 . S
C62 O52 1.239 1_545 S
C62 O63 1.216 . S
O63 C62 1.216 . S
H64 C59 0.930 . S
H65 C60 0.930 . S
O66 Cu46 1.959 1_556 S
O66 C53 1.251 . S
H67 C50 0.930 . S
H68 C61 0.929 . S
Cu69 N70 1.999 . S
Cu69 O75 1.974 . S
Cu69 N80 1.985 . S
Cu69 O89 1.959 . S
N70 Cu69 1.999 . S
N70 C72 1.263 . S
N70 C74 1.389 . S
N71 C72 1.358 . S
N71 C73 1.400 . S
C72 N70 1.263 . S
C72 N71 1.358 . S
C72 H78 0.930 . S
C73 N71 1.400 . S
C73 C74 1.351 . S
C73 H90 0.930 . S
C74 N70 1.389 . S
C74 C73 1.351 . S
C74 H79 0.930 . S
O75 Cu69 1.974 . S
O75 C85 1.282 . S
C76 O77 1.261 . S
C76 O89 1.251 . S
O77 C76 1.261 . S
H78 C72 0.930 . S
H79 C74 0.930 . S
N80 Cu69 1.985 . S
N80 C82 1.335 . S
N80 C83 1.390 . S
N81 C82 1.345 . S
N81 C84 1.336 . S
C82 N80 1.335 . S
C82 N81 1.345 . S
C82 H87 0.930 . S
C83 N80 1.390 . S
C83 C84 1.346 . S
C83 H88 0.930 . S
C84 N81 1.336 . S
C84 C83 1.346 . S
C84 H91 0.929 . S
C85 O75 1.282 . S
C85 O86 1.216 . S
O86 C85 1.216 . S
H87 C82 0.930 . S
H88 C83 0.930 . S
O89 Cu69 1.959 . S
O89 C76 1.251 . S
H90 C73 0.930 . S
H91 C84 0.929 . S
Cu92 N93 1.999 . S
Cu92 O98 1.974 . S
Cu92 N103 1.985 . S
Cu92 O112 1.959 . S
N93 Cu92 1.999 . S
N93 C95 1.263 . S
N93 C97 1.389 . S
N94 C95 1.358 . S
N94 C96 1.400 . S
C95 N93 1.263 . S
C95 N94 1.358 . S
C95 H101 0.930 . S
C96 N94 1.400 . S
C96 C97 1.351 . S
C96 H113 0.930 . S
C97 N93 1.389 . S
C97 C96 1.351 . S
C97 H102 0.930 . S
O98 Cu92 1.974 . S
O98 C108 1.282 . S
C99 O100 1.261 . S
C99 O112 1.251 . S
O100 C99 1.261 . S
H101 C95 0.930 . S
H102 C97 0.930 . S
N103 Cu92 1.985 . S
N103 C105 1.335 . S
N103 C106 1.390 . S
N104 C105 1.345 . S
N104 C107 1.336 . S
C105 N103 1.335 . S
C105 N104 1.345 . S
C105 H110 0.930 . S
C106 N103 1.390 . S
C106 C107 1.346 . S
C106 H111 0.930 . S
C107 N104 1.336 . S
C107 C106 1.346 . S
C107 H114 0.929 . S
C108 O98 1.282 . S
C108 O109 1.216 . S
O109 C108 1.216 . S
H110 C105 0.930 . S
H111 C106 0.930 . S
O112 Cu92 1.959 . S
O112 C99 1.251 . S
H113 C96 0.930 . S
H114 C107 0.929 . S
Cu115 N116 1.999 . S
Cu115 O121 1.974 . S
Cu115 N126 1.985 . S
Cu115 O135 1.959 . S
N116 Cu115 1.999 . S
N116 C118 1.263 . S
N116 C120 1.389 . S
N117 C118 1.358 . S
N117 C119 1.400 . S
C118 N116 1.263 . S
C118 N117 1.358 . S
C118 H124 0.930 . S
C119 N117 1.400 . S
C119 C120 1.351 . S
C119 H136 0.930 . S
C120 N116 1.389 . S
C120 C119 1.351 . S
C120 H125 0.930 . S
O121 Cu115 1.974 . S
O121 C131 1.282 . S
C122 O123 1.261 . S
C122 O135 1.251 . S
O123 C122 1.261 . S
H124 C118 0.930 . S
H125 C120 0.930 . S
N126 Cu115 1.985 . S
N126 C128 1.335 . S
N126 C129 1.390 . S
N127 C128 1.345 . S
N127 C130 1.336 . S
C128 N126 1.335 . S
C128 N127 1.345 . S
C128 H133 0.930 . S
C129 N126 1.390 . S
C129 C130 1.346 . S
C129 H134 0.930 . S
C130 N127 1.336 . S
C130 C129 1.346 . S
C130 H137 0.929 . S
C131 O121 1.282 . S
C131 O132 1.216 . S
O132 C131 1.216 . S
H133 C128 0.930 . S
H134 C129 0.930 . S
O135 Cu115 1.959 . S
O135 C122 1.251 . S
H136 C119 0.930 . S
H137 C130 0.929 . S
Cu138 N139 1.999 . S
Cu138 O144 1.974 . S
Cu138 N149 1.985 . S
Cu138 O158 1.959 . S
N139 Cu138 1.999 . S
N139 C141 1.263 . S
N139 C143 1.389 . S
N140 C141 1.358 . S
N140 C142 1.400 . S
C141 N139 1.263 . S
C141 N140 1.358 . S
C141 H147 0.930 . S
C142 N140 1.400 . S
C142 C143 1.351 . S
C142 H159 0.930 . S
C143 N139 1.389 . S
C143 C142 1.351 . S
C143 H148 0.930 . S
O144 Cu138 1.974 . S
O144 C154 1.282 . S
C145 O146 1.261 . S
C145 O158 1.251 . S
O146 C145 1.261 . S
H147 C141 0.930 . S
H148 C143 0.930 . S
N149 Cu138 1.985 . S
N149 C151 1.335 . S
N149 C152 1.390 . S
N150 C151 1.345 . S
N150 C153 1.336 . S
C151 N149 1.335 . S
C151 N150 1.345 . S
C151 H156 0.930 . S
C152 N149 1.390 . S
C152 C153 1.346 . S
C152 H157 0.930 . S
C153 N150 1.336 . S
C153 C152 1.346 . S
C153 H160 0.929 . S
C154 O144 1.282 . S
C154 O155 1.216 . S
O155 C154 1.216 . S
H156 C151 0.930 . S
H157 C152 0.930 . S
O158 Cu138 1.959 . S
O158 C145 1.251 . S
H159 C142 0.930 . S
H160 C153 0.929 . S
Cu161 N162 1.999 . S
Cu161 O167 1.974 . S
Cu161 N172 1.985 . S
Cu161 O181 1.959 . S
N162 Cu161 1.999 . S
N162 C164 1.263 . S
N162 C166 1.389 . S
N163 C164 1.358 . S
N163 C165 1.400 . S
C164 N162 1.263 . S
C164 N163 1.358 . S
C164 H170 0.930 . S
C165 N163 1.400 . S
C165 C166 1.351 . S
C165 H182 0.930 . S
C166 N162 1.389 . S
C166 C165 1.351 . S
C166 H171 0.930 . S
O167 Cu161 1.974 . S
O167 C177 1.282 . S
C168 O169 1.261 . S
C168 O181 1.251 . S
O169 C168 1.261 . S
H170 C164 0.930 . S
H171 C166 0.930 . S
N172 Cu161 1.985 . S
N172 C174 1.335 . S
N172 C175 1.390 . S
N173 C174 1.345 . S
N173 C176 1.336 . S
C174 N172 1.335 . S
C174 N173 1.345 . S
C174 H179 0.930 . S
C175 N172 1.390 . S
C175 C176 1.346 . S
C175 H180 0.930 . S
C176 N173 1.336 . S
C176 C175 1.346 . S
C176 H183 0.929 . S
C177 O167 1.282 . S
C177 O178 1.216 . S
O178 C177 1.216 . S
H179 C174 0.930 . S
H180 C175 0.930 . S
O181 Cu161 1.959 . S
O181 C168 1.251 . S
H182 C165 0.930 . S
H183 C176 0.929 . S
Cu184 N185 1.999 . S
Cu184 O190 1.974 . S
Cu184 N195 1.985 . S
Cu184 O204 1.959 . S
N185 Cu184 1.999 . S
N185 C187 1.263 . S
N185 C189 1.389 . S
N186 C187 1.358 . S
N186 C188 1.400 . S
C187 N185 1.263 . S
C187 N186 1.358 . S
C187 H193 0.930 . S
C188 N186 1.400 . S
C188 C189 1.351 . S
C188 H205 0.930 . S
C189 N185 1.389 . S
C189 C188 1.351 . S
C189 H194 0.930 . S
O190 Cu184 1.974 . S
O190 C200 1.282 . S
C191 O192 1.261 . S
C191 O204 1.251 . S
O192 C191 1.261 . S
H193 C187 0.930 . S
H194 C189 0.930 . S
N195 Cu184 1.985 . S
N195 C197 1.335 . S
N195 C198 1.390 . S
N196 C197 1.345 . S
N196 C199 1.336 . S
C197 N195 1.335 . S
C197 N196 1.345 . S
C197 H202 0.930 . S
C198 N195 1.390 . S
C198 C199 1.346 . S
C198 H203 0.930 . S
C199 N196 1.336 . S
C199 C198 1.346 . S
C199 H206 0.929 . S
C200 O190 1.282 . S
C200 O201 1.216 . S
O201 C200 1.216 . S
H202 C197 0.930 . S
H203 C198 0.930 . S
O204 Cu184 1.959 . S
O204 C191 1.251 . S
H205 C188 0.930 . S
H206 C199 0.929 . S
Cu207 N208 1.999 . S
Cu207 O213 1.974 . S
Cu207 N218 1.985 . S
Cu207 O227 1.959 . S
N208 Cu207 1.999 . S
N208 C210 1.263 . S
N208 C212 1.389 . S
N209 C210 1.358 . S
N209 C211 1.400 . S
C210 N208 1.263 . S
C210 N209 1.358 . S
C210 H216 0.930 . S
C211 N209 1.400 . S
C211 C212 1.351 . S
C211 H228 0.930 . S
C212 N208 1.389 . S
C212 C211 1.351 . S
C212 H217 0.930 . S
O213 Cu207 1.974 . S
O213 C223 1.282 . S
C214 O215 1.261 . S
C214 O227 1.251 . S
O215 C214 1.261 . S
H216 C210 0.930 . S
H217 C212 0.930 . S
N218 Cu207 1.985 . S
N218 C220 1.335 . S
N218 C221 1.390 . S
N219 C220 1.345 . S
N219 C222 1.336 . S
C220 N218 1.335 . S
C220 N219 1.345 . S
C220 H225 0.930 . S
C221 N218 1.390 . S
C221 C222 1.346 . S
C221 H226 0.930 . S
C222 N219 1.336 . S
C222 C221 1.346 . S
C222 H229 0.929 . S
C223 O213 1.282 . S
C223 O224 1.216 . S
O224 C223 1.216 . S
H225 C220 0.930 . S
H226 C221 0.930 . S
O227 Cu207 1.959 . S
O227 C214 1.251 . S
H228 C211 0.930 . S
H229 C222 0.929 . S
Cu230 N231 1.999 . S
Cu230 O236 1.974 . S
Cu230 N241 1.985 . S
Cu230 O250 1.959 . S
N231 Cu230 1.999 . S
N231 C233 1.263 . S
N231 C235 1.389 . S
N232 C233 1.358 . S
N232 C234 1.400 . S
C233 N231 1.263 . S
C233 N232 1.358 . S
C233 H239 0.930 . S
C234 N232 1.400 . S
C234 C235 1.351 . S
C234 H251 0.930 . S
C235 N231 1.389 . S
C235 C234 1.351 . S
C235 H240 0.930 . S
O236 Cu230 1.974 . S
O236 C246 1.282 . S
C237 O238 1.261 . S
C237 O250 1.251 . S
O238 C237 1.261 . S
H239 C233 0.930 . S
H240 C235 0.930 . S
N241 Cu230 1.985 . S
N241 C243 1.335 . S
N241 C244 1.390 . S
N242 C243 1.345 . S
N242 C245 1.336 . S
C243 N241 1.335 . S
C243 N242 1.345 . S
C243 H248 0.930 . S
C244 N241 1.390 . S
C244 C245 1.346 . S
C244 H249 0.930 . S
C245 N242 1.336 . S
C245 C244 1.346 . S
C245 H252 0.929 . S
C246 O236 1.282 . S
C246 O247 1.216 . S
O247 C246 1.216 . S
H248 C243 0.930 . S
H249 C244 0.930 . S
O250 Cu230 1.959 . S
O250 C237 1.251 . S
H251 C234 0.930 . S
H252 C245 0.929 . S
Cu253 N254 1.999 . S
Cu253 O259 1.974 . S
Cu253 N264 1.985 . S
Cu253 O273 1.959 . S
N254 Cu253 1.999 . S
N254 C256 1.263 . S
N254 C258 1.389 . S
N255 C256 1.358 . S
N255 C257 1.400 . S
C256 N254 1.263 . S
C256 N255 1.358 . S
C256 H262 0.930 . S
C257 N255 1.400 . S
C257 C258 1.351 . S
C257 H274 0.930 . S
C258 N254 1.389 . S
C258 C257 1.351 . S
C258 H263 0.930 . S
O259 Cu253 1.974 . S
O259 C269 1.282 . S
C260 O261 1.261 . S
C260 O273 1.251 . S
O261 C260 1.261 . S
H262 C256 0.930 . S
H263 C258 0.930 . S
N264 Cu253 1.985 . S
N264 C266 1.335 . S
N264 C267 1.390 . S
N265 C266 1.345 . S
N265 C268 1.336 . S
C266 N264 1.335 . S
C266 N265 1.345 . S
C266 H271 0.930 . S
C267 N264 1.390 . S
C267 C268 1.346 . S
C267 H272 0.930 . S
C268 N265 1.336 . S
C268 C267 1.346 . S
C268 H275 0.929 . S
C269 O259 1.282 . S
C269 O270 1.216 . S
O270 C269 1.216 . S
H271 C266 0.930 . S
H272 C267 0.930 . S
O273 Cu253 1.959 . S
O273 C260 1.251 . S
H274 C257 0.930 . S
H275 C268 0.929 . S
Cu276 N277 1.999 . S
Cu276 O282 1.974 . S
Cu276 N287 1.985 . S
Cu276 O296 1.959 . S
N277 Cu276 1.999 . S
N277 C279 1.263 . S
N277 C281 1.389 . S
N278 C279 1.358 . S
N278 C280 1.400 . S
C279 N277 1.263 . S
C279 N278 1.358 . S
C279 H285 0.930 . S
C280 N278 1.400 . S
C280 C281 1.351 . S
C280 H297 0.930 . S
C281 N277 1.389 . S
C281 C280 1.351 . S
C281 H286 0.930 . S
O282 Cu276 1.974 . S
O282 C292 1.282 . S
C283 O284 1.261 . S
C283 O296 1.251 . S
O284 C283 1.261 . S
H285 C279 0.930 . S
H286 C281 0.930 . S
N287 Cu276 1.985 . S
N287 C289 1.335 . S
N287 C290 1.390 . S
N288 C289 1.345 . S
N288 C291 1.336 . S
C289 N287 1.335 . S
C289 N288 1.345 . S
C289 H294 0.930 . S
C290 N287 1.390 . S
C290 C291 1.346 . S
C290 H295 0.930 . S
C291 N288 1.336 . S
C291 C290 1.346 . S
C291 H298 0.929 . S
C292 O282 1.282 . S
C292 O293 1.216 . S
O293 C292 1.216 . S
H294 C289 0.930 . S
H295 C290 0.930 . S
O296 Cu276 1.959 . S
O296 C283 1.251 . S
H297 C280 0.930 . S
H298 C291 0.929 . S
Cu299 N300 1.999 . S
Cu299 O305 1.974 . S
Cu299 N310 1.985 . S
Cu299 O319 1.959 . S
N300 Cu299 1.999 . S
N300 C302 1.263 . S
N300 C304 1.389 . S
N301 C302 1.358 . S
N301 C303 1.400 . S
C302 N300 1.263 . S
C302 N301 1.358 . S
C302 H308 0.930 . S
C303 N301 1.400 . S
C303 C304 1.351 . S
C303 H320 0.930 . S
C304 N300 1.389 . S
C304 C303 1.351 . S
C304 H309 0.930 . S
O305 Cu299 1.974 . S
O305 C315 1.282 . S
C306 O307 1.261 . S
C306 O319 1.251 . S
O307 C306 1.261 . S
H308 C302 0.930 . S
H309 C304 0.930 . S
N310 Cu299 1.985 . S
N310 C312 1.335 . S
N310 C313 1.390 . S
N311 C312 1.345 . S
N311 C314 1.336 . S
C312 N310 1.335 . S
C312 N311 1.345 . S
C312 H317 0.930 . S
C313 N310 1.390 . S
C313 C314 1.346 . S
C313 H318 0.930 . S
C314 N311 1.336 . S
C314 C313 1.346 . S
C314 H321 0.929 . S
C315 O305 1.282 . S
C315 O316 1.216 . S
O316 C315 1.216 . S
H317 C312 0.930 . S
H318 C313 0.930 . S
O319 Cu299 1.959 . S
O319 C306 1.251 . S
H320 C303 0.930 . S
H321 C314 0.929 . S
Cu322 N323 1.999 . S
Cu322 O328 1.974 . S
Cu322 N333 1.985 . S
Cu322 O342 1.959 . S
N323 Cu322 1.999 . S
N323 C325 1.263 . S
N323 C327 1.389 . S
N324 C325 1.358 . S
N324 C326 1.400 . S
C325 N323 1.263 . S
C325 N324 1.358 . S
C325 H331 0.930 . S
C326 N324 1.400 . S
C326 C327 1.351 . S
C326 H343 0.930 . S
C327 N323 1.389 . S
C327 C326 1.351 . S
C327 H332 0.930 . S
O328 Cu322 1.974 . S
O328 C338 1.282 . S
C329 O330 1.261 . S
C329 O342 1.251 . S
O330 C329 1.261 . S
H331 C325 0.930 . S
H332 C327 0.930 . S
N333 Cu322 1.985 . S
N333 C335 1.335 . S
N333 C336 1.390 . S
N334 C335 1.345 . S
N334 C337 1.336 . S
C335 N333 1.335 . S
C335 N334 1.345 . S
C335 H340 0.930 . S
C336 N333 1.390 . S
C336 C337 1.346 . S
C336 H341 0.930 . S
C337 N334 1.336 . S
C337 C336 1.346 . S
C337 H344 0.929 . S
C338 O328 1.282 . S
C338 O339 1.216 . S
O339 C338 1.216 . S
H340 C335 0.930 . S
H341 C336 0.930 . S
O342 Cu322 1.959 . S
O342 C329 1.251 . S
H343 C326 0.930 . S
H344 C337 0.929 . S
Cu345 N346 1.999 . S
Cu345 O351 1.974 . S
Cu345 N356 1.985 . S
Cu345 O365 1.959 . S
N346 Cu345 1.999 . S
N346 C348 1.263 . S
N346 C350 1.389 . S
N347 C348 1.358 . S
N347 C349 1.400 . S
C348 N346 1.263 . S
C348 N347 1.358 . S
C348 H354 0.930 . S
C349 N347 1.400 . S
C349 C350 1.351 . S
C349 H366 0.930 . S
C350 N346 1.389 . S
C350 C349 1.351 . S
C350 H355 0.930 . S
O351 Cu345 1.974 . S
O351 C361 1.282 . S
C352 O353 1.261 . S
C352 O365 1.251 . S
O353 C352 1.261 . S
H354 C348 0.930 . S
H355 C350 0.930 . S
N356 Cu345 1.985 . S
N356 C358 1.335 . S
N356 C359 1.390 . S
N357 C358 1.345 . S
N357 C360 1.336 . S
C358 N356 1.335 . S
C358 N357 1.345 . S
C358 H363 0.930 . S
C359 N356 1.390 . S
C359 C360 1.346 . S
C359 H364 0.930 . S
C360 N357 1.336 . S
C360 C359 1.346 . S
C360 H367 0.929 . S
C361 O351 1.282 . S
C361 O362 1.216 . S
O362 C361 1.216 . S
H363 C358 0.930 . S
H364 C359 0.930 . S
O365 Cu345 1.959 . S
O365 C352 1.251 . S
H366 C349 0.930 . S
H367 C360 0.929 . S
Cu368 N369 1.999 . S
Cu368 O374 1.974 . S
Cu368 N379 1.985 . S
Cu368 O388 1.959 . S
N369 Cu368 1.999 . S
N369 C371 1.263 . S
N369 C373 1.389 . S
N370 C371 1.358 . S
N370 C372 1.400 . S
C371 N369 1.263 . S
C371 N370 1.358 . S
C371 H377 0.930 . S
C372 N370 1.400 . S
C372 C373 1.351 . S
C372 H389 0.930 . S
C373 N369 1.389 . S
C373 C372 1.351 . S
C373 H378 0.930 . S
O374 Cu368 1.974 . S
O374 C384 1.282 . S
C375 O376 1.261 . S
C375 O388 1.251 . S
O376 C375 1.261 . S
H377 C371 0.930 . S
H378 C373 0.930 . S
N379 Cu368 1.985 . S
N379 C381 1.335 . S
N379 C382 1.390 . S
N380 C381 1.345 . S
N380 C383 1.336 . S
C381 N379 1.335 . S
C381 N380 1.345 . S
C381 H386 0.930 . S
C382 N379 1.390 . S
C382 C383 1.346 . S
C382 H387 0.930 . S
C383 N380 1.336 . S
C383 C382 1.346 . S
C383 H390 0.929 . S
C384 O374 1.282 . S
C384 O385 1.216 . S
O385 C384 1.216 . S
H386 C381 0.930 . S
H387 C382 0.930 . S
O388 Cu368 1.959 . S
O388 C375 1.251 . S
H389 C372 0.930 . S
H390 C383 0.929 . S
Cu391 N392 1.999 . S
Cu391 O397 1.974 . S
Cu391 N402 1.985 . S
Cu391 O411 1.959 . S
N392 Cu391 1.999 . S
N392 C394 1.263 . S
N392 C396 1.389 . S
N393 C394 1.358 . S
N393 C395 1.400 . S
C394 N392 1.263 . S
C394 N393 1.358 . S
C394 H400 0.930 . S
C395 N393 1.400 . S
C395 C396 1.351 . S
C395 H412 0.930 . S
C396 N392 1.389 . S
C396 C395 1.351 . S
C396 H401 0.930 . S
O397 Cu391 1.974 . S
O397 C407 1.282 . S
C398 O399 1.261 . S
C398 O411 1.251 . S
O399 C398 1.261 . S
H400 C394 0.930 . S
H401 C396 0.930 . S
N402 Cu391 1.985 . S
N402 C404 1.335 . S
N402 C405 1.390 . S
N403 C404 1.345 . S
N403 C406 1.336 . S
C404 N402 1.335 . S
C404 N403 1.345 . S
C404 H409 0.930 . S
C405 N402 1.390 . S
C405 C406 1.346 . S
C405 H410 0.930 . S
C406 N403 1.336 . S
C406 C405 1.346 . S
C406 H413 0.929 . S
C407 O397 1.282 . S
C407 O408 1.216 . S
O408 C407 1.216 . S
H409 C404 0.930 . S
H410 C405 0.930 . S
O411 Cu391 1.959 . S
O411 C398 1.251 . S
H412 C395 0.930 . S
H413 C406 0.929 . S
C414 O415 1.160 . S
C414 O421 1.185 . S
O415 C414 1.160 . S
O416 Zn417 1.899 1_655 S
O416 C424 1.284 . S
Zn417 O416 1.899 1_455 S
Zn417 O418 2.032 . S
Zn417 O421 2.086 . S
Zn417 O426 1.977 . S
O418 Zn417 2.032 . S
O418 C422 1.278 . S
C419 O420 1.203 . S
C419 O426 1.267 . S
O420 C419 1.203 . S
O421 C414 1.185 . S
O421 Zn417 2.086 . S
C422 O418 1.278 . S
C422 O423 1.211 . S
O423 C422 1.211 . S
C424 O416 1.284 . S
C424 O425 1.273 . S
O425 C424 1.273 . S
O426 Zn417 1.977 . S
O426 C419 1.267 . S
C427 O428 1.160 . S
C427 O434 1.185 . S
O428 C427 1.160 . S
O429 Zn430 1.899 . S
O429 C437 1.284 . S
Zn430 O429 1.899 . S
Zn430 O431 2.032 . S
Zn430 O434 2.086 . S
Zn430 O439 1.977 . S
O431 Zn430 2.032 . S
O431 C435 1.278 . S
C432 O433 1.203 . S
C432 O439 1.267 . S
O433 C432 1.203 . S
O434 C427 1.185 . S
O434 Zn430 2.086 . S
C435 O431 1.278 . S
C435 O436 1.211 . S
O436 C435 1.211 . S
C437 O429 1.284 . S
C437 O438 1.273 . S
O438 C437 1.273 . S
O439 Zn430 1.977 . S
O439 C432 1.267 . S
C440 O441 1.160 . S
C440 O447 1.185 . S
O441 C440 1.160 . S
O442 Zn443 1.899 . S
O442 C450 1.284 . S
Zn443 O442 1.899 . S
Zn443 O444 2.032 . S
Zn443 O447 2.086 . S
Zn443 O452 1.977 . S
O444 Zn443 2.032 . S
O444 C448 1.278 . S
C445 O446 1.203 . S
C445 O452 1.267 . S
O446 C445 1.203 . S
O447 C440 1.185 . S
O447 Zn443 2.086 . S
C448 O444 1.278 . S
C448 O449 1.211 . S
O449 C448 1.211 . S
C450 O442 1.284 . S
C450 O451 1.273 . S
O451 C450 1.273 . S
O452 Zn443 1.977 . S
O452 C445 1.267 . S
C453 O454 1.160 . S
C453 O460 1.185 . S
O454 C453 1.160 . S
O455 Zn456 1.899 . S
O455 C463 1.284 . S
Zn456 O455 1.899 . S
Zn456 O457 2.032 . S
Zn456 O460 2.086 . S
Zn456 O465 1.977 1_455 S
O457 Zn456 2.032 . S
O457 C461 1.278 . S
C458 O459 1.203 . S
C458 O465 1.267 . S
O459 C458 1.203 . S
O460 C453 1.185 . S
O460 Zn456 2.086 . S
C461 O457 1.278 . S
C461 O462 1.211 . S
O462 C461 1.211 . S
C463 O455 1.284 . S
C463 O464 1.273 . S
O464 C463 1.273 . S
O465 Zn456 1.977 1_655 S
O465 C458 1.267 . S
C466 O467 1.160 . S
C466 O473 1.185 . S
O467 C466 1.160 . S
O468 Zn469 1.899 . S
O468 C476 1.284 . S
Zn469 O468 1.899 . S
Zn469 O470 2.032 . S
Zn469 O473 2.086 . S
Zn469 O478 1.977 . S
O470 Zn469 2.032 . S
O470 C474 1.278 . S
C471 O472 1.203 . S
C471 O478 1.267 . S
O472 C471 1.203 . S
O473 C466 1.185 . S
O473 Zn469 2.086 . S
C474 O470 1.278 . S
C474 O475 1.211 . S
O475 C474 1.211 . S
C476 O468 1.284 . S
C476 O477 1.273 . S
O477 C476 1.273 . S
O478 Zn469 1.977 . S
O478 C471 1.267 . S
C479 O480 1.160 . S
C479 O486 1.185 . S
O480 C479 1.160 . S
O481 Zn482 1.899 . S
O481 C489 1.284 . S
Zn482 O481 1.899 . S
Zn482 O483 2.032 . S
Zn482 O486 2.086 . S
Zn482 O491 1.977 1_545 S
O483 Zn482 2.032 . S
O483 C487 1.278 . S
C484 O485 1.213 . S
C484 O491 1.267 . S
O485 C484 1.213 . S
O486 C479 1.185 . S
O486 Zn482 2.086 . S
C487 O483 1.278 . S
C487 O488 1.211 . S
O488 C487 1.211 . S
C489 O481 1.284 . S
C489 O490 1.273 . S
O490 C489 1.273 . S
O491 Zn482 1.977 1_565 S
O491 C484 1.267 . S
C492 O493 1.160 . S
C492 O499 1.185 . S
O493 C492 1.160 . S
O494 Zn495 1.899 . S
O494 C502 1.288 1_545 S
Zn495 O494 1.899 . S
Zn495 O496 2.032 1_545 S
Zn495 O499 2.086 1_545 S
Zn495 O504 1.977 . S
O496 Zn495 2.032 1_565 S
O496 C500 1.278 . S
C497 O498 1.203 . S
C497 O504 1.267 . S
O498 C497 1.203 . S
O499 C492 1.185 . S
O499 Zn495 2.086 1_565 S
C500 O496 1.278 . S
C500 O501 1.211 . S
O501 C500 1.211 . S
C502 O494 1.288 1_565 S
C502 O503 1.280 . S
O503 C502 1.280 . S
O504 Zn495 1.977 . S
O504 C497 1.267 . S
C505 O506 1.160 . S
C505 O512 1.185 . S
O506 C505 1.160 . S
O507 Zn508 1.899 . S
O507 C515 1.284 . S
Zn508 O507 1.899 . S
Zn508 O509 2.032 . S
Zn508 O512 2.086 . S
Zn508 O517 1.977 . S
O509 Zn508 2.032 . S
O509 C513 1.278 . S
C510 O511 1.203 . S
C510 O517 1.267 . S
O511 C510 1.203 . S
O512 C505 1.185 . S
O512 Zn508 2.086 . S
C513 O509 1.278 . S
C513 O514 1.211 . S
O514 C513 1.211 . S
C515 O507 1.284 . S
C515 O516 1.273 . S
O516 C515 1.273 . S
O517 Zn508 1.977 . S
O517 C510 1.267 . S
C518 O519 1.160 . S
C518 O525 1.185 . S
O519 C518 1.160 . S
O520 Zn521 1.899 . S
O520 C528 1.284 . S
Zn521 O520 1.899 . S
Zn521 O522 2.032 . S
Zn521 O525 2.086 . S
Zn521 O530 1.977 . S
O522 Zn521 2.032 . S
O522 C526 1.278 . S
C523 O524 1.203 . S
C523 O530 1.267 . S
O524 C523 1.203 . S
O525 C518 1.185 . S
O525 Zn521 2.086 . S
C526 O522 1.278 . S
C526 O527 1.211 . S
O527 C526 1.211 . S
C528 O520 1.284 . S
C528 O529 1.273 . S
O529 C528 1.273 . S
O530 Zn521 1.977 . S
O530 C523 1.267 . S
C531 O532 1.160 . S
C531 O538 1.185 . S
O532 C531 1.160 . S
O533 Zn534 1.899 . S
O533 C541 1.284 . S
Zn534 O533 1.899 . S
Zn534 O535 2.032 . S
Zn534 O538 2.086 . S
Zn534 O543 1.977 . S
O535 Zn534 2.032 . S
O535 C539 1.278 . S
C536 O537 1.203 . S
C536 O543 1.267 . S
O537 C536 1.203 . S
O538 C531 1.185 . S
O538 Zn534 2.086 . S
C539 O535 1.278 . S
C539 O540 1.211 . S
O540 C539 1.211 . S
C541 O533 1.284 . S
C541 O542 1.273 . S
O542 C541 1.273 . S
O543 Zn534 1.977 . S
O543 C536 1.267 . S
C544 O545 1.160 . S
C544 O551 1.185 . S
O545 C544 1.160 . S
O546 Zn547 1.899 . S
O546 C554 1.284 . S
Zn547 O546 1.899 . S
Zn547 O548 2.032 . S
Zn547 O551 2.086 . S
Zn547 O556 1.977 1_565 S
O548 Zn547 2.032 . S
O548 C552 1.278 . S
C549 O550 1.203 . S
C549 O556 1.267 . S
O550 C549 1.203 . S
O551 C544 1.185 . S
O551 Zn547 2.086 . S
C552 O548 1.278 . S
C552 O553 1.211 1_565 S
O553 C552 1.211 1_545 S
C554 O546 1.284 . S
C554 O555 1.273 . S
O555 C554 1.273 . S
O556 Zn547 1.977 1_545 S
O556 C549 1.267 . S
C557 O558 1.160 . S
C557 O564 1.185 . S
O558 C557 1.160 . S
O559 Zn560 1.899 . S
O559 C567 1.284 . S
Zn560 O559 1.899 . S
Zn560 O561 2.032 . S
Zn560 O564 2.086 . S
Zn560 O569 1.977 . S
O561 Zn560 2.032 . S
O561 C565 1.278 . S
C562 O563 1.203 . S
C562 O569 1.267 . S
O563 C562 1.203 . S
O564 C557 1.185 . S
O564 Zn560 2.086 . S
C565 O561 1.278 . S
C565 O566 1.211 . S
O566 C565 1.211 . S
C567 O559 1.284 . S
C567 O568 1.273 . S
O568 C567 1.273 . S
O569 Zn560 1.977 . S
O569 C562 1.267 . S
C570 O571 1.160 . S
C570 O577 1.185 . S
O571 C570 1.160 . S
O572 Zn573 1.899 . S
O572 C580 1.284 . S
Zn573 O572 1.899 . S
Zn573 O574 2.032 . S
Zn573 O577 2.086 . S
Zn573 O582 1.977 . S
O574 Zn573 2.032 . S
O574 C578 1.278 . S
C575 O576 1.203 . S
C575 O582 1.267 . S
O576 C575 1.203 . S
O577 C570 1.185 . S
O577 Zn573 2.086 . S
C578 O574 1.278 . S
C578 O579 1.211 . S
O579 C578 1.211 . S
C580 O572 1.284 . S
C580 O581 1.273 . S
O581 C580 1.273 . S
O582 Zn573 1.977 . S
O582 C575 1.267 . S
C583 O584 1.160 . S
C583 O590 1.185 . S
O584 C583 1.160 . S
O585 Zn586 1.899 . S
O585 C593 1.284 . S
Zn586 O585 1.899 . S
Zn586 O587 2.032 . S
Zn586 O590 2.086 . S
Zn586 O595 1.977 . S
O587 Zn586 2.032 . S
O587 C591 1.278 . S
C588 O589 1.203 . S
C588 O595 1.267 . S
O589 C588 1.203 . S
O590 C583 1.185 . S
O590 Zn586 2.086 . S
C591 O587 1.278 . S
C591 O592 1.211 . S
O592 C591 1.211 . S
C593 O585 1.284 . S
C593 O594 1.273 . S
O594 C593 1.273 . S
O595 Zn586 1.977 . S
O595 C588 1.267 . S
C596 O597 1.160 . S
C596 O603 1.185 . S
O597 C596 1.160 . S
O598 Zn599 1.899 . S
O598 C606 1.284 . S
Zn599 O598 1.899 . S
Zn599 O600 2.032 1_655 S
Zn599 O603 2.086 . S
Zn599 O608 1.977 . S
O600 Zn599 2.032 1_455 S
O600 C604 1.278 . S
C601 O602 1.203 . S
C601 O608 1.267 . S
O602 C601 1.203 . S
O603 C596 1.185 . S
O603 Zn599 2.086 . S
C604 O600 1.278 . S
C604 O605 1.211 1_455 S
O605 C604 1.211 1_655 S
C606 O598 1.284 . S
C606 O607 1.273 . S
O607 C606 1.273 . S
O608 Zn599 1.977 . S
O608 C601 1.267 . S
C609 O610 1.160 . S
C609 O616 1.185 . S
O610 C609 1.160 . S
O611 Zn612 1.899 . S
O611 C619 1.284 . S
Zn612 O611 1.899 . S
Zn612 O613 2.032 . S
Zn612 O616 2.086 . S
Zn612 O621 1.977 . S
O613 Zn612 2.032 . S
O613 C617 1.278 . S
C614 O615 1.203 . S
C614 O621 1.267 . S
O615 C614 1.203 . S
O616 C609 1.185 . S
O616 Zn612 2.086 . S
C617 O613 1.278 . S
C617 O618 1.211 . S
O618 C617 1.211 . S
C619 O611 1.284 . S
C619 O620 1.273 . S
O620 C619 1.273 . S
O621 Zn612 1.977 . S
O621 C614 1.267 . S
C622 O623 1.160 . S
C622 O629 1.185 . S
O623 C622 1.160 . S
O624 Zn625 1.899 . S
O624 C632 1.284 . S
Zn625 O624 1.899 . S
Zn625 O626 2.032 . S
Zn625 O629 2.086 . S
Zn625 O634 1.977 . S
O626 Zn625 2.032 . S
O626 C630 1.278 1_655 S
C627 O628 1.203 . S
C627 O634 1.267 . S
O628 C627 1.203 . S
O629 C622 1.185 . S
O629 Zn625 2.086 . S
C630 O626 1.278 1_455 S
C630 O631 1.211 . S
O631 C630 1.211 . S
C632 O624 1.284 . S
C632 O633 1.273 . S
O633 C632 1.273 . S
O634 Zn625 1.977 . S
O634 C627 1.267 . S
C635 O636 1.160 . S
C635 O642 1.185 . S
O636 C635 1.160 . S
O637 Zn638 1.899 . S
O637 C645 1.284 . S
Zn638 O637 1.899 . S
Zn638 O639 2.032 . S
Zn638 O642 2.086 . S
Zn638 O647 1.977 . S
O639 Zn638 2.032 . S
O639 C643 1.278 . S
C640 O641 1.203 . S
C640 O647 1.267 . S
O641 C640 1.203 . S
O642 C635 1.185 . S
O642 Zn638 2.086 . S
C643 O639 1.278 . S
C643 O644 1.211 . S
O644 C643 1.211 . S
C645 O637 1.284 . S
C645 O646 1.273 . S
O646 C645 1.273 . S
O647 Zn638 1.977 . S
O647 C640 1.267 . S
H648 C660 0.930 . S
H649 C662 0.930 . S
H650 C663 0.930 . S
H651 C667 0.959 . S
H652 C667 0.959 . S
H653 C667 0.961 1_556 S
H654 C668 0.960 1_556 S
H655 C668 0.961 1_556 S
H656 C668 0.959 . S
H657 C671 0.929 . S
H658 C672 0.931 . S
H659 C674 0.930 . S
C660 H648 0.930 . S
C660 C661 1.399 . S
C660 C665 1.399 . S
C661 C660 1.399 . S
C661 C662 1.376 . S
C662 H649 0.930 . S
C662 C661 1.376 . S
C662 C663 1.388 . S
C663 H650 0.930 . S
C663 C662 1.388 . S
C663 C664 1.390 . S
C664 C663 1.390 . S
C664 C665 1.394 . S
C664 C670 1.465 . S
C665 C660 1.399 . S
C665 C664 1.394 . S
C665 C666 1.516 . S
C666 C665 1.516 . S
C666 C667 1.502 . S
C666 C668 1.561 . S
C666 C669 1.526 . S
C667 H651 0.959 . S
C667 H652 0.959 . S
C667 H653 0.961 1_554 S
C667 C666 1.502 . S
C668 H654 0.960 1_554 S
C668 H655 0.961 1_554 S
C668 H656 0.959 . S
C668 C666 1.561 . S
C669 C666 1.526 . S
C669 C670 1.396 . S
C669 C674 1.390 . S
C670 C664 1.465 . S
C670 C669 1.396 . S
C670 C671 1.399 . S
C671 H657 0.929 . S
C671 C670 1.399 . S
C671 C672 1.385 . S
C672 H658 0.931 . S
C672 C671 1.385 . S
C672 C673 1.389 . S
C673 C672 1.389 . S
C673 C674 1.387 . S
C674 H659 0.930 . S
C674 C669 1.390 . S
C674 C673 1.387 . S
H675 C687 0.930 . S
H676 C689 0.930 . S
H677 C690 0.930 . S
H678 C694 0.959 . S
H679 C694 0.959 . S
H680 C694 0.961 . S
H681 C695 0.960 . S
H682 C695 0.961 . S
H683 C695 0.959 . S
H684 C698 0.929 . S
H685 C699 0.931 . S
H686 C701 0.930 . S
C687 H675 0.930 . S
C687 C688 1.399 . S
C687 C692 1.399 . S
C688 C687 1.399 . S
C688 C689 1.376 . S
C689 H676 0.930 . S
C689 C688 1.376 . S
C689 C690 1.388 . S
C690 H677 0.930 . S
C690 C689 1.388 . S
C690 C691 1.390 . S
C691 C690 1.390 . S
C691 C692 1.394 . S
C691 C697 1.465 . S
C692 C687 1.399 . S
C692 C691 1.394 . S
C692 C693 1.516 . S
C693 C692 1.516 . S
C693 C694 1.502 . S
C693 C695 1.561 1_554 S
C693 C696 1.526 . S
C694 H678 0.959 . S
C694 H679 0.959 . S
C694 H680 0.961 . S
C694 C693 1.502 . S
C695 H681 0.960 . S
C695 H682 0.961 . S
C695 H683 0.959 . S
C695 C693 1.561 1_556 S
C696 C693 1.526 . S
C696 C697 1.396 . S
C696 C701 1.390 . S
C697 C691 1.465 . S
C697 C696 1.396 . S
C697 C698 1.399 . S
C698 H684 0.929 . S
C698 C697 1.399 . S
C698 C699 1.385 . S
C699 H685 0.931 . S
C699 C698 1.385 . S
C699 C700 1.389 . S
C700 C699 1.389 . S
C700 C701 1.387 . S
C701 H686 0.930 . S
C701 C696 1.390 . S
C701 C700 1.387 . S
H702 C714 0.930 . S
H703 C716 0.930 . S
H704 C717 0.930 . S
H705 C721 0.959 . S
H706 C721 0.959 . S
H707 C721 0.961 . S
H708 C722 0.960 . S
H709 C722 0.961 . S
H710 C722 0.959 . S
H711 C725 0.929 . S
H712 C726 0.931 . S
H713 C728 0.930 . S
C714 H702 0.930 . S
C714 C715 1.399 1_565 S
C714 C719 1.399 . S
C715 C714 1.399 1_545 S
C715 C716 1.376 . S
C716 H703 0.930 . S
C716 C715 1.376 . S
C716 C717 1.388 . S
C717 H704 0.930 . S
C717 C716 1.388 . S
C717 C718 1.390 . S
C718 C717 1.390 . S
C718 C719 1.394 1_545 S
C718 C724 1.465 . S
C719 C714 1.399 . S
C719 C718 1.394 1_565 S
C719 C720 1.516 . S
C720 C719 1.516 . S
C720 C721 1.502 . S
C720 C722 1.561 . S
C720 C723 1.526 . S
C721 H705 0.959 . S
C721 H706 0.959 . S
C721 H707 0.961 . S
C721 C720 1.502 . S
C722 H708 0.960 . S
C722 H709 0.961 . S
C722 H710 0.959 . S
C722 C720 1.561 . S
C723 C720 1.526 . S
C723 C724 1.396 1_565 S
C723 C728 1.390 . S
C724 C718 1.465 . S
C724 C723 1.396 1_545 S
C724 C725 1.399 . S
C725 H711 0.929 . S
C725 C724 1.399 . S
C725 C726 1.385 . S
C726 H712 0.931 . S
C726 C725 1.385 . S
C726 C727 1.389 1_545 S
C727 C726 1.389 1_565 S
C727 C728 1.387 . S
C728 H713 0.930 . S
C728 C723 1.390 . S
C728 C727 1.387 . S
H729 C741 0.930 . S
H730 C743 0.930 . S
H731 C744 0.930 . S
H732 C748 0.959 . S
H733 C748 0.959 . S
H734 C748 0.961 . S
H735 C749 0.960 . S
H736 C749 0.961 . S
H737 C749 0.959 . S
H738 C752 0.929 . S
H739 C753 0.931 . S
H740 C755 0.930 . S
C741 H729 0.930 . S
C741 C742 1.399 . S
C741 C746 1.399 . S
C742 C741 1.399 . S
C742 C743 1.376 . S
C743 H730 0.930 . S
C743 C742 1.376 . S
C743 C744 1.388 . S
C744 H731 0.930 . S
C744 C743 1.388 . S
C744 C745 1.390 . S
C745 C744 1.390 . S
C745 C746 1.394 . S
C745 C751 1.465 . S
C746 C741 1.399 . S
C746 C745 1.394 . S
C746 C747 1.516 . S
C747 C746 1.516 . S
C747 C748 1.502 . S
C747 C749 1.561 . S
C747 C750 1.526 . S
C748 H732 0.959 . S
C748 H733 0.959 . S
C748 H734 0.961 . S
C748 C747 1.502 . S
C749 H735 0.960 . S
C749 H736 0.961 . S
C749 H737 0.959 . S
C749 C747 1.561 . S
C750 C747 1.526 . S
C750 C751 1.396 . S
C750 C755 1.390 . S
C751 C745 1.465 . S
C751 C750 1.396 . S
C751 C752 1.399 . S
C752 H738 0.929 . S
C752 C751 1.399 . S
C752 C753 1.385 . S
C753 H739 0.931 . S
C753 C752 1.385 . S
C753 C754 1.389 . S
C754 C753 1.389 . S
C754 C755 1.387 . S
C755 H740 0.930 . S
C755 C750 1.390 . S
C755 C754 1.387 . S
H756 C768 0.930 . S
H757 C770 0.930 . S
H758 C771 0.930 . S
H759 C775 0.959 . S
H760 C775 0.959 . S
H761 C775 0.961 . S
H762 C776 0.960 . S
H763 C776 0.961 . S
H764 C776 0.959 . S
H765 C779 0.929 . S
H766 C780 0.931 . S
H767 C782 0.930 . S
C768 H756 0.930 . S
C768 C769 1.399 . S
C768 C773 1.399 . S
C769 C768 1.399 . S
C769 C770 1.376 . S
C770 H757 0.930 . S
C770 C769 1.376 . S
C770 C771 1.388 . S
C771 H758 0.930 . S
C771 C770 1.388 . S
C771 C772 1.390 . S
C772 C771 1.390 . S
C772 C773 1.394 . S
C772 C778 1.465 1_455 S
C773 C768 1.399 . S
C773 C772 1.394 . S
C773 C774 1.516 . S
C774 C773 1.516 . S
C774 C775 1.502 . S
C774 C776 1.561 1_455 S
C774 C777 1.526 1_455 S
C775 H759 0.959 . S
C775 H760 0.959 . S
C775 H761 0.961 . S
C775 C774 1.502 . S
C776 H762 0.960 . S
C776 H763 0.961 . S
C776 H764 0.959 . S
C776 C774 1.561 1_655 S
C777 C774 1.526 1_655 S
C777 C778 1.396 . S
C777 C782 1.390 . S
C778 C772 1.465 1_655 S
C778 C777 1.396 . S
C778 C779 1.399 . S
C779 H765 0.929 . S
C779 C778 1.399 . S
C779 C780 1.385 . S
C780 H766 0.931 . S
C780 C779 1.385 . S
C780 C781 1.389 . S
C781 C780 1.389 . S
C781 C782 1.387 . S
C782 H767 0.930 . S
C782 C777 1.390 . S
C782 C781 1.387 . S
H783 C795 0.930 . S
H784 C797 0.930 . S
H785 C798 0.930 . S
H786 C802 0.959 . S
H787 C802 0.959 . S
H788 C802 0.961 . S
H789 C803 0.960 . S
H790 C803 0.961 . S
H791 C803 0.959 . S
H792 C806 0.929 . S
H793 C807 0.931 . S
H794 C809 0.930 . S
C795 H783 0.930 . S
C795 C796 1.399 . S
C795 C800 1.399 . S
C796 C795 1.399 . S
C796 C797 1.376 . S
C797 H784 0.930 . S
C797 C796 1.376 . S
C797 C798 1.388 . S
C798 H785 0.930 . S
C798 C797 1.388 . S
C798 C799 1.390 . S
C799 C798 1.390 . S
C799 C800 1.394 . S
C799 C805 1.465 . S
C800 C795 1.399 . S
C800 C799 1.394 . S
C800 C801 1.516 . S
C801 C800 1.516 . S
C801 C802 1.502 . S
C801 C803 1.561 . S
C801 C804 1.526 . S
C802 H786 0.959 . S
C802 H787 0.959 . S
C802 H788 0.961 . S
C802 C801 1.502 . S
C803 H789 0.960 . S
C803 H790 0.961 . S
C803 H791 0.959 . S
C803 C801 1.561 . S
C804 C801 1.526 . S
C804 C805 1.396 . S
C804 C809 1.390 . S
C805 C799 1.465 . S
C805 C804 1.396 . S
C805 C806 1.399 . S
C806 H792 0.929 . S
C806 C805 1.399 . S
C806 C807 1.385 . S
C807 H793 0.931 . S
C807 C806 1.385 . S
C807 C808 1.389 . S
C808 C807 1.389 . S
C808 C809 1.387 . S
C809 H794 0.930 . S
C809 C804 1.390 . S
C809 C808 1.387 . S
H810 C822 0.930 . S
H811 C824 0.930 1_554 S
H812 C825 0.930 1_654 S
H813 C829 0.959 . S
H814 C829 0.959 . S
H815 C829 0.961 . S
H816 C830 0.960 . S
H817 C830 0.961 . S
H818 C830 0.955 . S
H819 C833 0.929 . S
H820 C834 0.931 . S
H821 C836 0.930 . S
C822 H810 0.930 . S
C822 C823 1.399 . S
C822 C827 1.399 . S
C823 C822 1.399 . S
C823 C824 1.376 . S
C824 H811 0.930 1_556 S
C824 C823 1.376 . S
C824 C825 1.388 . S
C825 H812 0.930 1_456 S
C825 C824 1.388 . S
C825 C826 1.390 . S
C826 C825 1.390 . S
C826 C827 1.394 . S
C826 C832 1.465 . S
C827 C822 1.399 . S
C827 C826 1.394 . S
C827 C828 1.516 . S
C828 C827 1.516 . S
C828 C829 1.502 . S
C828 C830 1.561 . S
C828 C831 1.526 . S
C829 H813 0.959 . S
C829 H814 0.959 . S
C829 H815 0.961 . S
C829 C828 1.502 . S
C830 H816 0.960 . S
C830 H817 0.961 . S
C830 H818 0.955 . S
C830 C828 1.561 . S
C831 C828 1.526 . S
C831 C832 1.396 . S
C831 C836 1.390 . S
C832 C826 1.465 . S
C832 C831 1.396 . S
C832 C833 1.399 1_455 S
C833 H819 0.929 . S
C833 C832 1.399 1_655 S
C833 C834 1.385 . S
C834 H820 0.931 . S
C834 C833 1.385 . S
C834 C835 1.389 . S
C835 C834 1.389 . S
C835 C836 1.387 1_655 S
C836 H821 0.930 . S
C836 C831 1.390 . S
C836 C835 1.387 1_455 S
H837 C849 0.930 1_554 S
H838 C851 0.930 . S
H839 C852 0.930 . S
H840 C856 0.959 1_556 S
H841 C856 0.959 . S
H842 C856 0.961 . S
H843 C857 0.960 . S
H844 C857 0.961 . S
H845 C857 0.959 . S
H846 C860 0.929 . S
H847 C861 0.931 . S
H848 C863 0.930 . S
C849 H837 0.930 1_556 S
C849 C850 1.399 . S
C849 C854 1.399 . S
C850 C849 1.399 . S
C850 C851 1.376 . S
C851 H838 0.930 . S
C851 C850 1.376 . S
C851 C852 1.388 . S
C852 H839 0.930 . S
C852 C851 1.388 . S
C852 C853 1.390 . S
C853 C852 1.390 . S
C853 C854 1.394 . S
C853 C859 1.465 . S
C854 C849 1.399 . S
C854 C853 1.394 . S
C854 C855 1.516 . S
C855 C854 1.516 . S
C855 C856 1.502 1_556 S
C855 C857 1.561 1_556 S
C855 C858 1.526 . S
C856 H840 0.959 1_554 S
C856 H841 0.959 . S
C856 H842 0.961 . S
C856 C855 1.502 1_554 S
C857 H843 0.960 . S
C857 H844 0.961 . S
C857 H845 0.959 . S
C857 C855 1.561 1_554 S
C858 C855 1.526 . S
C858 C859 1.396 . S
C858 C863 1.390 . S
C859 C853 1.465 . S
C859 C858 1.396 . S
C859 C860 1.399 . S
C860 H846 0.929 . S
C860 C859 1.399 . S
C860 C861 1.385 . S
C861 H847 0.931 . S
C861 C860 1.385 . S
C861 C862 1.389 . S
C862 C861 1.389 . S
C862 C863 1.387 . S
C863 H848 0.930 . S
C863 C858 1.390 . S
C863 C862 1.387 . S
H864 C876 0.930 1_554 S
H865 C878 0.930 . S
H866 C879 0.930 . S
H867 C883 0.959 . S
H868 C883 0.959 . S
H869 C883 0.961 . S
H870 C884 0.960 . S
H871 C884 0.961 . S
H872 C884 0.959 1_556 S
H873 C887 0.929 . S
H874 C888 0.931 . S
H875 C890 0.930 . S
C876 H864 0.930 1_556 S
C876 C877 1.399 . S
C876 C881 1.399 . S
C877 C876 1.399 . S
C877 C878 1.376 . S
C878 H865 0.930 . S
C878 C877 1.376 . S
C878 C879 1.388 . S
C879 H866 0.930 . S
C879 C878 1.388 . S
C879 C880 1.390 . S
C880 C879 1.390 . S
C880 C881 1.394 . S
C880 C886 1.465 . S
C881 C876 1.399 . S
C881 C880 1.394 . S
C881 C882 1.516 . S
C882 C881 1.516 . S
C882 C883 1.502 1_556 S
C882 C884 1.561 1_556 S
C882 C885 1.526 . S
C883 H867 0.959 . S
C883 H868 0.959 . S
C883 H869 0.961 . S
C883 C882 1.502 1_554 S
C884 H870 0.960 . S
C884 H871 0.961 . S
C884 H872 0.959 1_554 S
C884 C882 1.561 1_554 S
C885 C882 1.526 . S
C885 C886 1.396 . S
C885 C890 1.390 . S
C886 C880 1.465 . S
C886 C885 1.396 . S
C886 C887 1.399 . S
C887 H873 0.929 . S
C887 C886 1.399 . S
C887 C888 1.385 . S
C888 H874 0.931 . S
C888 C887 1.385 . S
C888 C889 1.389 . S
C889 C888 1.389 . S
C889 C890 1.387 . S
C890 H875 0.930 . S
C890 C885 1.390 . S
C890 C889 1.387 . S
H891 C903 0.930 1_565 S
H892 C905 0.930 . S
H893 C906 0.930 . S
H894 C910 0.959 . S
H895 C910 0.959 . S
H896 C910 0.961 . S
H897 C911 0.960 . S
H898 C911 0.961 . S
H899 C911 0.959 . S
H900 C914 0.929 . S
H901 C915 0.931 . S
H902 C917 0.930 . S
C903 H891 0.930 1_545 S
C903 C904 1.399 . S
C903 C908 1.399 . S
C904 C903 1.399 . S
C904 C905 1.376 . S
C905 H892 0.930 . S
C905 C904 1.376 . S
C905 C906 1.388 . S
C906 H893 0.930 . S
C906 C905 1.388 . S
C906 C907 1.390 . S
C907 C906 1.390 . S
C907 C908 1.394 . S
C907 C913 1.465 . S
C908 C903 1.399 . S
C908 C907 1.394 . S
C908 C909 1.516 1_545 S
C909 C908 1.516 1_565 S
C909 C910 1.502 . S
C909 C911 1.561 . S
C909 C912 1.526 . S
C910 H894 0.959 . S
C910 H895 0.959 . S
C910 H896 0.961 . S
C910 C909 1.502 . S
C911 H897 0.960 . S
C911 H898 0.961 . S
C911 H899 0.959 . S
C911 C909 1.561 . S
C912 C909 1.526 . S
C912 C913 1.396 1_565 S
C912 C917 1.390 . S
C913 C907 1.465 . S
C913 C912 1.396 1_545 S
C913 C914 1.399 . S
C914 H900 0.929 . S
C914 C913 1.399 . S
C914 C915 1.385 . S
C915 H901 0.931 . S
C915 C914 1.385 . S
C915 C916 1.389 . S
C916 C915 1.389 . S
C916 C917 1.387 1_545 S
C917 H902 0.930 . S
C917 C912 1.390 . S
C917 C916 1.387 1_565 S
H918 C930 0.930 . S
H919 C932 0.930 . S
H920 C933 0.930 . S
H921 C937 0.959 . S
H922 C937 0.959 . S
H923 C937 0.961 . S
H924 C938 0.960 . S
H925 C938 0.961 . S
H926 C938 0.959 . S
H927 C941 0.929 . S
H928 C942 0.931 . S
H929 C944 0.930 . S
C930 H918 0.930 . S
C930 C931 1.399 . S
C930 C935 1.399 . S
C931 C930 1.399 . S
C931 C932 1.376 . S
C932 H919 0.930 . S
C932 C931 1.376 . S
C932 C933 1.388 . S
C933 H920 0.930 . S
C933 C932 1.388 . S
C933 C934 1.390 . S
C934 C933 1.390 . S
C934 C935 1.394 . S
C934 C940 1.465 . S
C935 C930 1.399 . S
C935 C934 1.394 . S
C935 C936 1.516 . S
C936 C935 1.516 . S
C936 C937 1.502 . S
C936 C938 1.561 . S
C936 C939 1.526 . S
C937 H921 0.959 . S
C937 H922 0.959 . S
C937 H923 0.961 . S
C937 C936 1.502 . S
C938 H924 0.960 . S
C938 H925 0.961 . S
C938 H926 0.959 . S
C938 C936 1.561 . S
C939 C936 1.526 . S
C939 C940 1.396 . S
C939 C944 1.390 . S
C940 C934 1.465 . S
C940 C939 1.396 . S
C940 C941 1.399 . S
C941 H927 0.929 . S
C941 C940 1.399 . S
C941 C942 1.385 . S
C942 H928 0.931 . S
C942 C941 1.385 . S
C942 C943 1.389 . S
C943 C942 1.389 . S
C943 C944 1.387 . S
C944 H929 0.930 . S
C944 C939 1.390 . S
C944 C943 1.387 . S
H945 C957 0.930 . S
H946 C959 0.930 . S
H947 C960 0.930 . S
H948 C964 0.959 . S
H949 C964 0.959 . S
H950 C964 0.961 . S
H951 C965 0.960 . S
H952 C965 0.961 . S
H953 C965 0.959 . S
H954 C968 0.929 . S
H955 C969 0.931 . S
H956 C971 0.930 . S
C957 H945 0.930 . S
C957 C958 1.399 . S
C957 C962 1.399 . S
C958 C957 1.399 . S
C958 C959 1.376 . S
C959 H946 0.930 . S
C959 C958 1.376 . S
C959 C960 1.388 . S
C960 H947 0.930 . S
C960 C959 1.388 . S
C960 C961 1.390 . S
C961 C960 1.390 . S
C961 C962 1.394 . S
C961 C967 1.465 . S
C962 C957 1.399 . S
C962 C961 1.394 . S
C962 C963 1.516 . S
C963 C962 1.516 . S
C963 C964 1.502 . S
C963 C965 1.561 . S
C963 C966 1.526 . S
C964 H948 0.959 . S
C964 H949 0.959 . S
C964 H950 0.961 . S
C964 C963 1.502 . S
C965 H951 0.960 . S
C965 H952 0.961 . S
C965 H953 0.959 . S
C965 C963 1.561 . S
C966 C963 1.526 . S
C966 C967 1.396 . S
C966 C971 1.390 . S
C967 C961 1.465 . S
C967 C966 1.396 . S
C967 C968 1.399 . S
C968 H954 0.929 . S
C968 C967 1.399 . S
C968 C969 1.385 . S
C969 H955 0.931 . S
C969 C968 1.385 . S
C969 C970 1.389 . S
C970 C969 1.389 . S
C970 C971 1.387 . S
C971 H956 0.930 . S
C971 C966 1.390 . S
C971 C970 1.387 . S
H972 C984 0.930 . S
H973 C986 0.930 . S
H974 C987 0.930 . S
H975 C991 0.959 . S
H976 C991 0.959 . S
H977 C991 0.961 . S
H978 C992 0.960 . S
H979 C992 0.961 . S
H980 C992 0.959 . S
H981 C995 0.929 . S
H982 C996 0.931 . S
H983 C998 0.930 . S
C984 H972 0.930 . S
C984 C985 1.399 . S
C984 C989 1.399 . S
C985 C984 1.399 . S
C985 C986 1.376 . S
C986 H973 0.930 . S
C986 C985 1.376 . S
C986 C987 1.388 . S
C987 H974 0.930 . S
C987 C986 1.388 . S
C987 C988 1.390 . S
C988 C987 1.390 . S
C988 C989 1.394 . S
C988 C994 1.465 . S
C989 C984 1.399 . S
C989 C988 1.394 . S
C989 C990 1.516 . S
C990 C989 1.516 . S
C990 C991 1.502 . S
C990 C992 1.561 . S
C990 C993 1.526 . S
C991 H975 0.959 . S
C991 H976 0.959 . S
C991 H977 0.961 . S
C991 C990 1.502 . S
C992 H978 0.960 . S
C992 H979 0.961 . S
C992 H980 0.959 . S
C992 C990 1.561 . S
C993 C990 1.526 . S
C993 C994 1.396 . S
C993 C998 1.390 . S
C994 C988 1.465 . S
C994 C993 1.396 . S
C994 C995 1.399 . S
C995 H981 0.929 . S
C995 C994 1.399 . S
C995 C996 1.385 . S
C996 H982 0.931 . S
C996 C995 1.385 . S
C996 C997 1.389 . S
C997 C996 1.389 . S
C997 C998 1.387 . S
C998 H983 0.930 . S
C998 C993 1.390 . S
C998 C997 1.387 . S
H999 C1011 0.930 . S
H1000 C1013 0.930 . S
H1001 C1014 0.930 . S
H1002 C1018 0.949 1_565 S
H1003 C1018 0.959 . S
H1004 C1018 0.961 1_565 S
H1005 C1019 0.960 . S
H1006 C1019 0.961 . S
H1007 C1019 0.959 . S
H1008 C1022 0.929 . S
H1009 C1023 0.931 . S
H1010 C1025 0.930 . S
C1011 H999 0.930 . S
C1011 C1012 1.399 . S
C1011 C1016 1.399 . S
C1012 C1011 1.399 . S
C1012 C1013 1.376 . S
C1013 H1000 0.930 . S
C1013 C1012 1.376 . S
C1013 C1014 1.388 . S
C1014 H1001 0.930 . S
C1014 C1013 1.388 . S
C1014 C1015 1.390 . S
C1015 C1014 1.390 . S
C1015 C1016 1.394 . S
C1015 C1021 1.465 1_565 S
C1016 C1011 1.399 . S
C1016 C1015 1.394 . S
C1016 C1017 1.516 1_565 S
C1017 C1016 1.516 1_545 S
C1017 C1018 1.502 . S
C1017 C1019 1.561 . S
C1017 C1020 1.526 . S
C1018 H1002 0.949 1_545 S
C1018 H1003 0.959 . S
C1018 H1004 0.961 1_545 S
C1018 C1017 1.502 . S
C1019 H1005 0.960 . S
C1019 H1006 0.961 . S
C1019 H1007 0.959 . S
C1019 C1017 1.561 . S
C1020 C1017 1.526 . S
C1020 C1021 1.396 . S
C1020 C1025 1.390 . S
C1021 C1015 1.465 1_545 S
C1021 C1020 1.396 . S
C1021 C1022 1.399 . S
C1022 H1008 0.929 . S
C1022 C1021 1.399 . S
C1022 C1023 1.385 . S
C1023 H1009 0.931 . S
C1023 C1022 1.385 . S
C1023 C1024 1.389 . S
C1024 C1023 1.389 . S
C1024 C1025 1.387 . S
C1025 H1010 0.930 . S
C1025 C1020 1.390 . S
C1025 C1024 1.387 . S
H1026 C1038 0.930 . S
H1027 C1040 0.930 . S
H1028 C1041 0.930 . S
H1029 C1045 0.959 . S
H1030 C1045 0.959 . S
H1031 C1045 0.961 . S
H1032 C1046 0.960 . S
H1033 C1046 0.961 . S
H1034 C1046 0.959 . S
H1035 C1049 0.929 . S
H1036 C1050 0.959 . S
H1037 C1052 0.930 . S
C1038 H1026 0.930 . S
C1038 C1039 1.399 . S
C1038 C1043 1.399 . S
C1039 C1038 1.399 . S
C1039 C1040 1.376 . S
C1040 H1027 0.930 . S
C1040 C1039 1.376 . S
C1040 C1041 1.388 . S
C1041 H1028 0.930 . S
C1041 C1040 1.388 . S
C1041 C1042 1.390 . S
C1042 C1041 1.390 . S
C1042 C1043 1.394 . S
C1042 C1048 1.465 . S
C1043 C1038 1.399 . S
C1043 C1042 1.394 . S
C1043 C1044 1.516 . S
C1044 C1043 1.516 . S
C1044 C1045 1.502 . S
C1044 C1046 1.561 . S
C1044 C1047 1.526 . S
C1045 H1029 0.959 . S
C1045 H1030 0.959 . S
C1045 H1031 0.961 . S
C1045 C1044 1.502 . S
C1046 H1032 0.960 . S
C1046 H1033 0.961 . S
C1046 H1034 0.959 . S
C1046 C1044 1.561 . S
C1047 C1044 1.526 . S
C1047 C1048 1.396 . S
C1047 C1052 1.390 . S
C1048 C1042 1.465 . S
C1048 C1047 1.396 . S
C1048 C1049 1.399 . S
C1049 H1035 0.929 . S
C1049 C1048 1.399 . S
C1049 C1050 1.385 . S
C1050 H1036 0.959 . S
C1050 C1049 1.385 . S
C1050 C1051 1.389 . S
C1051 C1050 1.389 . S
C1051 C1052 1.387 . S
C1052 H1037 0.930 . S
C1052 C1047 1.390 . S
C1052 C1051 1.387 . S
H1053 C1065 0.930 . S
H1054 C1067 0.930 . S
H1055 C1068 0.930 . S
H1056 C1072 0.959 . S
H1057 C1072 0.959 . S
H1058 C1072 0.961 . S
H1059 C1073 0.960 . S
H1060 C1073 0.961 . S
H1061 C1073 0.959 . S
H1062 C1076 0.929 . S
H1063 C1077 0.931 . S
H1064 C1079 0.930 . S
C1065 H1053 0.930 . S
C1065 C1066 1.399 . S
C1065 C1070 1.399 . S
C1066 C1065 1.399 . S
C1066 C1067 1.376 . S
C1067 H1054 0.930 . S
C1067 C1066 1.376 . S
C1067 C1068 1.388 . S
C1068 H1055 0.930 . S
C1068 C1067 1.388 . S
C1068 C1069 1.390 . S
C1069 C1068 1.390 . S
C1069 C1070 1.394 . S
C1069 C1075 1.465 . S
C1070 C1065 1.399 . S
C1070 C1069 1.394 . S
C1070 C1071 1.516 . S
C1071 C1070 1.516 . S
C1071 C1072 1.502 . S
C1071 C1073 1.561 . S
C1071 C1074 1.526 . S
C1072 H1056 0.959 . S
C1072 H1057 0.959 . S
C1072 H1058 0.961 . S
C1072 C1071 1.502 . S
C1073 H1059 0.960 . S
C1073 H1060 0.961 . S
C1073 H1061 0.959 . S
C1073 C1071 1.561 . S
C1074 C1071 1.526 . S
C1074 C1075 1.396 . S
C1074 C1079 1.390 . S
C1075 C1069 1.465 . S
C1075 C1074 1.396 . S
C1075 C1076 1.399 . S
C1076 H1062 0.929 . S
C1076 C1075 1.399 . S
C1076 C1077 1.385 . S
C1077 H1063 0.931 . S
C1077 C1076 1.385 . S
C1077 C1078 1.389 . S
C1078 C1077 1.389 . S
C1078 C1079 1.387 . S
C1079 H1064 0.930 . S
C1079 C1074 1.390 . S
C1079 C1078 1.387 . S
H1080 C1092 0.930 . S
H1081 C1094 0.930 . S
H1082 C1095 0.930 . S
H1083 C1099 0.959 . S
H1084 C1099 0.959 . S
H1085 C1099 0.961 . S
H1086 C1100 0.960 . S
H1087 C1100 0.961 . S
H1088 C1100 0.959 . S
H1089 C1103 0.929 . S
H1090 C1104 0.931 . S
H1091 C1106 0.930 . S
C1092 H1080 0.930 . S
C1092 C1093 1.399 . S
C1092 C1097 1.399 . S
C1093 C1092 1.399 . S
C1093 C1094 1.376 . S
C1094 H1081 0.930 . S
C1094 C1093 1.376 . S
C1094 C1095 1.388 . S
C1095 H1082 0.930 . S
C1095 C1094 1.388 . S
C1095 C1096 1.390 . S
C1096 C1095 1.390 . S
C1096 C1097 1.394 . S
C1096 C1102 1.465 . S
C1097 C1092 1.399 . S
C1097 C1096 1.394 . S
C1097 C1098 1.516 . S
C1098 C1097 1.516 . S
C1098 C1099 1.502 . S
C1098 C1100 1.561 . S
C1098 C1101 1.526 . S
C1099 H1083 0.959 . S
C1099 H1084 0.959 . S
C1099 H1085 0.961 . S
C1099 C1098 1.502 . S
C1100 H1086 0.960 . S
C1100 H1087 0.961 . S
C1100 H1088 0.959 . S
C1100 C1098 1.561 . S
C1101 C1098 1.526 . S
C1101 C1102 1.396 . S
C1101 C1106 1.390 . S
C1102 C1096 1.465 . S
C1102 C1101 1.396 . S
C1102 C1103 1.399 . S
C1103 H1089 0.929 . S
C1103 C1102 1.399 . S
C1103 C1104 1.385 . S
C1104 H1090 0.931 . S
C1104 C1103 1.385 . S
C1104 C1105 1.389 . S
C1105 C1104 1.389 . S
C1105 C1106 1.387 . S
C1106 H1091 0.930 . S
C1106 C1101 1.390 . S
C1106 C1105 1.387 . S
H1107 C1119 0.930 . S
H1108 C1121 0.930 . S
H1109 C1122 0.930 . S
H1110 C1126 0.959 . S
H1111 C1126 0.988 . S
H1112 C1126 0.961 . S
H1113 C1127 0.960 . S
H1114 C1127 0.961 . S
H1115 C1127 0.959 . S
H1116 C1130 0.929 . S
H1117 C1131 0.931 . S
H1118 C1133 0.930 . S
C1119 H1107 0.930 . S
C1119 C1120 1.399 . S
C1119 C1124 1.399 . S
C1120 C1119 1.399 . S
C1120 C1121 1.376 . S
C1121 H1108 0.930 . S
C1121 C1120 1.376 . S
C1121 C1122 1.388 . S
C1122 H1109 0.930 . S
C1122 C1121 1.388 . S
C1122 C1123 1.390 . S
C1123 C1122 1.390 . S
C1123 C1124 1.394 . S
C1123 C1129 1.465 . S
C1124 C1119 1.399 . S
C1124 C1123 1.394 . S
C1124 C1125 1.516 . S
C1125 C1124 1.516 . S
C1125 C1126 1.502 . S
C1125 C1127 1.561 . S
C1125 C1128 1.526 . S
C1126 H1110 0.959 . S
C1126 H1111 0.988 . S
C1126 H1112 0.961 . S
C1126 C1125 1.502 . S
C1127 H1113 0.960 . S
C1127 H1114 0.961 . S
C1127 H1115 0.959 . S
C1127 C1125 1.561 . S
C1128 C1125 1.526 . S
C1128 C1129 1.396 . S
C1128 C1133 1.390 . S
C1129 C1123 1.465 . S
C1129 C1128 1.396 . S
C1129 C1130 1.399 . S
C1130 H1116 0.929 . S
C1130 C1129 1.399 . S
C1130 C1131 1.385 . S
C1131 H1117 0.931 . S
C1131 C1130 1.385 . S
C1131 C1132 1.389 . S
C1132 C1131 1.389 . S
C1132 C1133 1.387 . S
C1133 H1118 0.930 . S
C1133 C1128 1.390 . S
C1133 C1132 1.387 . S
H1134 C1146 0.930 . S
H1135 C1148 0.930 . S
H1136 C1149 0.930 . S
H1137 C1153 0.959 . S
H1138 C1153 0.959 . S
H1139 C1153 0.961 . S
H1140 C1154 0.960 . S
H1141 C1154 0.961 . S
H1142 C1154 0.959 . S
H1143 C1157 0.929 . S
H1144 C1158 0.931 . S
H1145 C1160 0.930 . S
C1146 H1134 0.930 . S
C1146 C1147 1.399 . S
C1146 C1151 1.399 . S
C1147 C1146 1.399 . S
C1147 C1148 1.376 . S
C1148 H1135 0.930 . S
C1148 C1147 1.376 . S
C1148 C1149 1.388 . S
C1149 H1136 0.930 . S
C1149 C1148 1.388 . S
C1149 C1150 1.390 . S
C1150 C1149 1.390 . S
C1150 C1151 1.394 . S
C1150 C1156 1.465 . S
C1151 C1146 1.399 . S
C1151 C1150 1.394 . S
C1151 C1152 1.516 . S
C1152 C1151 1.516 . S
C1152 C1153 1.502 . S
C1152 C1154 1.561 . S
C1152 C1155 1.526 . S
C1153 H1137 0.959 . S
C1153 H1138 0.959 . S
C1153 H1139 0.961 . S
C1153 C1152 1.502 . S
C1154 H1140 0.960 . S
C1154 H1141 0.961 . S
C1154 H1142 0.959 . S
C1154 C1152 1.561 . S
C1155 C1152 1.526 . S
C1155 C1156 1.396 . S
C1155 C1160 1.390 . S
C1156 C1150 1.465 . S
C1156 C1155 1.396 . S
C1156 C1157 1.399 1_565 S
C1157 H1143 0.929 . S
C1157 C1156 1.399 1_545 S
C1157 C1158 1.385 . S
C1158 H1144 0.931 . S
C1158 C1157 1.385 . S
C1158 C1159 1.389 . S
C1159 C1158 1.389 . S
C1159 C1160 1.387 1_545 S
C1160 H1145 0.930 . S
C1160 C1155 1.390 . S
C1160 C1159 1.387 1_565 S
H1161 C1173 0.930 . S
H1162 C1175 0.930 . S
H1163 C1176 0.930 . S
H1164 C1180 0.959 . S
H1165 C1180 0.959 . S
H1166 C1180 0.961 . S
H1167 C1181 0.960 . S
H1168 C1181 0.961 . S
H1169 C1181 0.959 . S
H1170 C1184 0.929 . S
H1171 C1185 0.931 . S
H1172 C1187 0.930 . S
C1173 H1161 0.930 . S
C1173 C1174 1.399 . S
C1173 C1178 1.399 . S
C1174 C1173 1.399 . S
C1174 C1175 1.376 . S
C1175 H1162 0.930 . S
C1175 C1174 1.376 . S
C1175 C1176 1.388 . S
C1176 H1163 0.930 . S
C1176 C1175 1.388 . S
C1176 C1177 1.390 . S
C1177 C1176 1.390 . S
C1177 C1178 1.394 . S
C1177 C1183 1.465 . S
C1178 C1173 1.399 . S
C1178 C1177 1.394 . S
C1178 C1179 1.516 . S
C1179 C1178 1.516 . S
C1179 C1180 1.502 . S
C1179 C1181 1.561 . S
C1179 C1182 1.526 . S
C1180 H1164 0.959 . S
C1180 H1165 0.959 . S
C1180 H1166 0.961 . S
C1180 C1179 1.502 . S
C1181 H1167 0.960 . S
C1181 H1168 0.961 . S
C1181 H1169 0.959 . S
C1181 C1179 1.561 . S
C1182 C1179 1.526 . S
C1182 C1183 1.396 . S
C1182 C1187 1.390 . S
C1183 C1177 1.465 . S
C1183 C1182 1.396 . S
C1183 C1184 1.399 . S
C1184 H1170 0.929 . S
C1184 C1183 1.399 . S
C1184 C1185 1.385 . S
C1185 H1171 0.931 . S
C1185 C1184 1.385 . S
C1185 C1186 1.389 . S
C1186 C1185 1.389 . S
C1186 C1187 1.387 . S
C1187 H1172 0.930 . S
C1187 C1182 1.390 . S
C1187 C1186 1.387 . S
H1188 C1200 0.930 . S
H1189 C1202 0.930 . S
H1190 C1203 0.930 . S
H1191 C1207 0.959 . S
H1192 C1207 0.959 . S
H1193 C1207 0.961 . S
H1194 C1208 0.960 . S
H1195 C1208 0.961 . S
H1196 C1208 0.959 . S
H1197 C1211 0.929 . S
H1198 C1212 0.931 . S
H1199 C1214 0.930 . S
C1200 H1188 0.930 . S
C1200 C1201 1.399 . S
C1200 C1205 1.399 . S
C1201 C1200 1.399 . S
C1201 C1202 1.376 . S
C1202 H1189 0.930 . S
C1202 C1201 1.376 . S
C1202 C1203 1.388 . S
C1203 H1190 0.930 . S
C1203 C1202 1.388 . S
C1203 C1204 1.390 . S
C1204 C1203 1.390 . S
C1204 C1205 1.394 . S
C1204 C1210 1.465 . S
C1205 C1200 1.399 . S
C1205 C1204 1.394 . S
C1205 C1206 1.516 . S
C1206 C1205 1.516 . S
C1206 C1207 1.502 . S
C1206 C1208 1.561 . S
C1206 C1209 1.526 . S
C1207 H1191 0.959 . S
C1207 H1192 0.959 . S
C1207 H1193 0.961 . S
C1207 C1206 1.502 . S
C1208 H1194 0.960 . S
C1208 H1195 0.961 . S
C1208 H1196 0.959 . S
C1208 C1206 1.561 . S
C1209 C1206 1.526 . S
C1209 C1210 1.396 . S
C1209 C1214 1.390 . S
C1210 C1204 1.465 . S
C1210 C1209 1.396 . S
C1210 C1211 1.399 . S
C1211 H1197 0.929 . S
C1211 C1210 1.399 . S
C1211 C1212 1.385 . S
C1212 H1198 0.931 . S
C1212 C1211 1.385 . S
C1212 C1213 1.389 . S
C1213 C1212 1.389 . S
C1213 C1214 1.387 . S
C1214 H1199 0.930 . S
C1214 C1209 1.390 . S
C1214 C1213 1.387 . S
H1215 C1227 0.930 . S
H1216 C1229 0.930 . S
H1217 C1230 0.930 . S
H1218 C1234 0.959 . S
H1219 C1234 0.959 . S
H1220 C1234 0.961 . S
H1221 C1235 0.960 . S
H1222 C1235 0.961 . S
H1223 C1235 0.959 . S
H1224 C1238 0.929 . S
H1225 C1239 0.931 . S
H1226 C1241 0.930 . S
C1227 H1215 0.930 . S
C1227 C1228 1.399 . S
C1227 C1232 1.399 . S
C1228 C1227 1.399 . S
C1228 C1229 1.376 . S
C1229 H1216 0.930 . S
C1229 C1228 1.376 . S
C1229 C1230 1.388 . S
C1230 H1217 0.930 . S
C1230 C1229 1.388 . S
C1230 C1231 1.390 . S
C1231 C1230 1.390 . S
C1231 C1232 1.394 . S
C1231 C1237 1.465 . S
C1232 C1227 1.399 . S
C1232 C1231 1.394 . S
C1232 C1233 1.516 . S
C1233 C1232 1.516 . S
C1233 C1234 1.502 . S
C1233 C1235 1.561 . S
C1233 C1236 1.526 . S
C1234 H1218 0.959 . S
C1234 H1219 0.959 . S
C1234 H1220 0.961 . S
C1234 C1233 1.502 . S
C1235 H1221 0.960 . S
C1235 H1222 0.961 . S
C1235 H1223 0.959 . S
C1235 C1233 1.561 . S
C1236 C1233 1.526 . S
C1236 C1237 1.396 . S
C1236 C1241 1.390 . S
C1237 C1231 1.465 . S
C1237 C1236 1.396 . S
C1237 C1238 1.399 . S
C1238 H1224 0.929 . S
C1238 C1237 1.399 . S
C1238 C1239 1.385 . S
C1239 H1225 0.931 . S
C1239 C1238 1.385 . S
C1239 C1240 1.389 . S
C1240 C1239 1.389 . S
C1240 C1241 1.387 . S
C1241 H1226 0.930 . S
C1241 C1236 1.390 . S
C1241 C1240 1.387 . S
H1242 C1254 0.930 . S
H1243 C1256 0.930 . S
H1244 C1257 0.930 . S
H1245 C1261 0.959 . S
H1246 C1261 0.959 . S
H1247 C1261 0.961 . S
H1248 C1262 0.960 1_565 S
H1249 C1262 0.961 . S
H1250 C1262 0.959 . S
H1251 C1265 0.929 . S
H1252 C1266 0.931 . S
H1253 C1268 0.930 . S
C1254 H1242 0.930 . S
C1254 C1255 1.399 . S
C1254 C1259 1.399 . S
C1255 C1254 1.399 . S
C1255 C1256 1.376 . S
C1256 H1243 0.930 . S
C1256 C1255 1.376 . S
C1256 C1257 1.388 . S
C1257 H1244 0.930 . S
C1257 C1256 1.388 . S
C1257 C1258 1.390 . S
C1258 C1257 1.390 . S
C1258 C1259 1.394 . S
C1258 C1264 1.465 1_565 S
C1259 C1254 1.399 . S
C1259 C1258 1.394 . S
C1259 C1260 1.516 . S
C1260 C1259 1.516 . S
C1260 C1261 1.502 . S
C1260 C1262 1.561 1_565 S
C1260 C1263 1.526 1_565 S
C1261 H1245 0.959 . S
C1261 H1246 0.959 . S
C1261 H1247 0.961 . S
C1261 C1260 1.502 . S
C1262 H1248 0.960 1_545 S
C1262 H1249 0.961 . S
C1262 H1250 0.959 . S
C1262 C1260 1.561 1_545 S
C1263 C1260 1.526 1_545 S
C1263 C1264 1.396 . S
C1263 C1268 1.390 . S
C1264 C1258 1.465 1_545 S
C1264 C1263 1.396 . S
C1264 C1265 1.399 . S
C1265 H1251 0.929 . S
C1265 C1264 1.399 . S
C1265 C1266 1.385 . S
C1266 H1252 0.931 . S
C1266 C1265 1.385 . S
C1266 C1267 1.389 . S
C1267 C1266 1.389 . S
C1267 C1268 1.387 . S
C1268 H1253 0.930 . S
C1268 C1263 1.390 . S
C1268 C1267 1.387 . S
H1269 C1281 0.930 . S
H1270 C1283 0.930 . S
H1271 C1284 0.930 . S
H1272 C1288 0.959 . S
H1273 C1288 0.959 . S
H1274 C1288 0.961 . S
H1275 C1289 0.960 . S
H1276 C1289 0.961 . S
H1277 C1289 0.959 . S
H1278 C1292 0.929 . S
H1279 C1293 0.931 . S
H1280 C1295 0.930 . S
C1281 H1269 0.930 . S
C1281 C1282 1.399 . S
C1281 C1286 1.399 . S
C1282 C1281 1.399 . S
C1282 C1283 1.376 . S
C1283 H1270 0.930 . S
C1283 C1282 1.376 . S
C1283 C1284 1.388 . S
C1284 H1271 0.930 . S
C1284 C1283 1.388 . S
C1284 C1285 1.390 . S
C1285 C1284 1.390 . S
C1285 C1286 1.394 . S
C1285 C1291 1.465 . S
C1286 C1281 1.399 . S
C1286 C1285 1.394 . S
C1286 C1287 1.516 . S
C1287 C1286 1.516 . S
C1287 C1288 1.502 . S
C1287 C1289 1.561 . S
C1287 C1290 1.526 . S
C1288 H1272 0.959 . S
C1288 H1273 0.959 . S
C1288 H1274 0.961 . S
C1288 C1287 1.502 . S
C1289 H1275 0.960 . S
C1289 H1276 0.961 . S
C1289 H1277 0.959 . S
C1289 C1287 1.561 . S
C1290 C1287 1.526 . S
C1290 C1291 1.396 . S
C1290 C1295 1.390 . S
C1291 C1285 1.465 . S
C1291 C1290 1.396 . S
C1291 C1292 1.399 . S
C1292 H1278 0.929 . S
C1292 C1291 1.399 . S
C1292 C1293 1.385 . S
C1293 H1279 0.931 . S
C1293 C1292 1.385 . S
C1293 C1294 1.389 . S
C1294 C1293 1.389 . S
C1294 C1295 1.387 . S
C1295 H1280 0.930 . S
C1295 C1290 1.390 . S
C1295 C1294 1.387 . S
H1296 C1308 0.930 . S
H1297 C1310 0.930 . S
H1298 C1311 0.930 . S
H1299 C1315 0.959 . S
H1300 C1315 0.959 . S
H1301 C1315 0.961 . S
H1302 C1316 0.960 . S
H1303 C1316 0.961 . S
H1304 C1316 0.959 . S
H1305 C1319 0.929 . S
H1306 C1320 0.931 . S
H1307 C1322 0.930 . S
C1308 H1296 0.930 . S
C1308 C1309 1.399 . S
C1308 C1313 1.399 . S
C1309 C1308 1.399 . S
C1309 C1310 1.376 . S
C1310 H1297 0.930 . S
C1310 C1309 1.376 . S
C1310 C1311 1.388 . S
C1311 H1298 0.930 . S
C1311 C1310 1.388 . S
C1311 C1312 1.390 . S
C1312 C1311 1.390 . S
C1312 C1313 1.394 . S
C1312 C1318 1.465 . S
C1313 C1308 1.399 . S
C1313 C1312 1.394 . S
C1313 C1314 1.516 . S
C1314 C1313 1.516 . S
C1314 C1315 1.502 . S
C1314 C1316 1.561 . S
C1314 C1317 1.526 . S
C1315 H1299 0.959 . S
C1315 H1300 0.959 . S
C1315 H1301 0.961 . S
C1315 C1314 1.502 . S
C1316 H1302 0.960 . S
C1316 H1303 0.961 . S
C1316 H1304 0.959 . S
C1316 C1314 1.561 . S
C1317 C1314 1.526 . S
C1317 C1318 1.396 . S
C1317 C1322 1.390 . S
C1318 C1312 1.465 . S
C1318 C1317 1.396 . S
C1318 C1319 1.399 . S
C1319 H1305 0.929 . S
C1319 C1318 1.399 . S
C1319 C1320 1.385 . S
C1320 H1306 0.931 . S
C1320 C1319 1.385 . S
C1320 C1321 1.389 . S
C1321 C1320 1.389 . S
C1321 C1322 1.387 . S
C1322 H1307 0.930 . S
C1322 C1317 1.390 . S
C1322 C1321 1.387 . S
H1323 C1335 0.930 . S
H1324 C1337 0.930 . S
H1325 C1338 0.930 . S
H1326 C1342 0.959 . S
H1327 C1342 0.959 . S
H1328 C1342 0.961 . S
H1329 C1343 0.960 . S
H1330 C1343 0.961 . S
H1331 C1343 0.959 . S
H1332 C1346 0.929 . S
H1333 C1347 0.931 . S
H1334 C1349 0.930 . S
C1335 H1323 0.930 . S
C1335 C1336 1.399 . S
C1335 C1340 1.399 . S
C1336 C1335 1.399 . S
C1336 C1337 1.376 . S
C1337 H1324 0.930 . S
C1337 C1336 1.376 . S
C1337 C1338 1.388 . S
C1338 H1325 0.930 . S
C1338 C1337 1.388 . S
C1338 C1339 1.390 . S
C1339 C1338 1.390 . S
C1339 C1340 1.394 . S
C1339 C1345 1.465 . S
C1340 C1335 1.399 . S
C1340 C1339 1.394 . S
C1340 C1341 1.516 . S
C1341 C1340 1.516 . S
C1341 C1342 1.502 . S
C1341 C1343 1.561 . S
C1341 C1344 1.526 . S
C1342 H1326 0.959 . S
C1342 H1327 0.959 . S
C1342 H1328 0.961 . S
C1342 C1341 1.502 . S
C1343 H1329 0.960 . S
C1343 H1330 0.961 . S
C1343 H1331 0.959 . S
C1343 C1341 1.561 . S
C1344 C1341 1.526 . S
C1344 C1345 1.396 . S
C1344 C1349 1.390 . S
C1345 C1339 1.465 . S
C1345 C1344 1.396 . S
C1345 C1346 1.399 . S
C1346 H1332 0.929 . S
C1346 C1345 1.399 . S
C1346 C1347 1.385 . S
C1347 H1333 0.931 . S
C1347 C1346 1.385 . S
C1347 C1348 1.389 . S
C1348 C1347 1.389 . S
C1348 C1349 1.387 . S
C1349 H1334 0.930 . S
C1349 C1344 1.390 . S
C1349 C1348 1.387 . S
H1350 C1362 0.930 . S
H1351 C1364 0.930 . S
H1352 C1365 0.930 . S
H1353 C1369 0.959 . S
H1354 C1369 0.959 . S
H1355 C1369 0.961 . S
H1356 C1370 0.960 . S
H1357 C1370 0.961 . S
H1358 C1370 0.959 . S
H1359 C1373 0.929 . S
H1360 C1374 0.931 . S
H1361 C1376 0.930 . S
C1362 H1350 0.930 . S
C1362 C1363 1.399 . S
C1362 C1367 1.399 . S
C1363 C1362 1.399 . S
C1363 C1364 1.376 . S
C1364 H1351 0.930 . S
C1364 C1363 1.376 . S
C1364 C1365 1.388 . S
C1365 H1352 0.930 . S
C1365 C1364 1.388 . S
C1365 C1366 1.390 . S
C1366 C1365 1.390 . S
C1366 C1367 1.394 . S
C1366 C1372 1.465 . S
C1367 C1362 1.399 . S
C1367 C1366 1.394 . S
C1367 C1368 1.516 . S
C1368 C1367 1.516 . S
C1368 C1369 1.502 . S
C1368 C1370 1.561 . S
C1368 C1371 1.526 . S
C1369 H1353 0.959 . S
C1369 H1354 0.959 . S
C1369 H1355 0.961 . S
C1369 C1368 1.502 . S
C1370 H1356 0.960 . S
C1370 H1357 0.961 . S
C1370 H1358 0.959 . S
C1370 C1368 1.561 . S
C1371 C1368 1.526 . S
C1371 C1372 1.396 . S
C1371 C1376 1.390 . S
C1372 C1366 1.465 . S
C1372 C1371 1.396 . S
C1372 C1373 1.399 . S
C1373 H1359 0.929 . S
C1373 C1372 1.399 . S
C1373 C1374 1.385 . S
C1374 H1360 0.931 . S
C1374 C1373 1.385 . S
C1374 C1375 1.389 . S
C1375 C1374 1.389 . S
C1375 C1376 1.387 . S
C1376 H1361 0.930 . S
C1376 C1371 1.390 . S
C1376 C1375 1.387 . S
H1377 C1389 0.930 . S
H1378 C1391 0.930 . S
H1379 C1392 0.930 . S
H1380 C1396 0.959 . S
H1381 C1396 0.959 . S
H1382 C1396 0.961 . S
H1383 C1397 0.960 . S
H1384 C1397 0.961 . S
H1385 C1397 0.959 . S
H1386 C1400 0.929 . S
H1387 C1401 0.931 . S
H1388 C1403 0.930 . S
C1389 H1377 0.930 . S
C1389 C1390 1.399 . S
C1389 C1394 1.399 . S
C1390 C1389 1.399 . S
C1390 C1391 1.376 . S
C1391 H1378 0.930 . S
C1391 C1390 1.376 . S
C1391 C1392 1.388 . S
C1392 H1379 0.930 . S
C1392 C1391 1.388 . S
C1392 C1393 1.390 . S
C1393 C1392 1.390 . S
C1393 C1394 1.394 . S
C1393 C1399 1.465 . S
C1394 C1389 1.399 . S
C1394 C1393 1.394 . S
C1394 C1395 1.516 . S
C1395 C1394 1.516 . S
C1395 C1396 1.502 . S
C1395 C1397 1.561 . S
C1395 C1398 1.526 . S
C1396 H1380 0.959 . S
C1396 H1381 0.959 . S
C1396 H1382 0.961 . S
C1396 C1395 1.502 . S
C1397 H1383 0.960 . S
C1397 H1384 0.961 . S
C1397 H1385 0.959 . S
C1397 C1395 1.561 . S
C1398 C1395 1.526 . S
C1398 C1399 1.396 . S
C1398 C1403 1.390 . S
C1399 C1393 1.465 . S
C1399 C1398 1.396 . S
C1399 C1400 1.399 . S
C1400 H1386 0.929 . S
C1400 C1399 1.399 . S
C1400 C1401 1.385 . S
C1401 H1387 0.931 . S
C1401 C1400 1.385 . S
C1401 C1402 1.389 . S
C1402 C1401 1.389 . S
C1402 C1403 1.387 . S
C1403 H1388 0.930 . S
C1403 C1398 1.390 . S
C1403 C1402 1.387 . S
H1404 C1416 0.930 . S
H1405 C1418 0.930 . S
H1406 C1419 0.930 . S
H1407 C1423 0.959 . S
H1408 C1423 0.959 . S
H1409 C1423 0.961 . S
H1410 C1424 0.960 . S
H1411 C1424 0.961 . S
H1412 C1424 0.959 . S
H1413 C1427 0.929 . S
H1414 C1428 0.931 . S
H1415 C1430 0.930 . S
C1416 H1404 0.930 . S
C1416 C1417 1.399 . S
C1416 C1421 1.399 . S
C1417 C1416 1.399 . S
C1417 C1418 1.376 . S
C1418 H1405 0.930 . S
C1418 C1417 1.376 . S
C1418 C1419 1.388 . S
C1419 H1406 0.930 . S
C1419 C1418 1.388 . S
C1419 C1420 1.390 . S
C1420 C1419 1.390 . S
C1420 C1421 1.394 . S
C1420 C1426 1.465 . S
C1421 C1416 1.399 . S
C1421 C1420 1.394 . S
C1421 C1422 1.516 . S
C1422 C1421 1.516 . S
C1422 C1423 1.502 . S
C1422 C1424 1.561 . S
C1422 C1425 1.526 . S
C1423 H1407 0.959 . S
C1423 H1408 0.959 . S
C1423 H1409 0.961 . S
C1423 C1422 1.502 . S
C1424 H1410 0.960 . S
C1424 H1411 0.961 . S
C1424 H1412 0.959 . S
C1424 C1422 1.561 . S
C1425 C1422 1.526 . S
C1425 C1426 1.396 . S
C1425 C1430 1.390 . S
C1426 C1420 1.465 . S
C1426 C1425 1.396 . S
C1426 C1427 1.399 . S
C1427 H1413 0.929 . S
C1427 C1426 1.399 . S
C1427 C1428 1.385 . S
C1428 H1414 0.931 . S
C1428 C1427 1.385 . S
C1428 C1429 1.389 . S
C1429 C1428 1.389 . S
C1429 C1430 1.387 . S
C1430 H1415 0.930 . S
C1430 C1425 1.390 . S
C1430 C1429 1.387 . S
H1431 C1443 0.930 . S
H1432 C1445 0.930 . S
H1433 C1446 0.930 . S
H1434 C1450 0.959 . S
H1435 C1450 0.959 . S
H1436 C1450 0.961 . S
H1437 C1451 0.960 . S
H1438 C1451 0.961 . S
H1439 C1451 0.959 . S
H1440 C1454 0.929 . S
H1441 C1455 0.931 . S
H1442 C1457 0.930 . S
C1443 H1431 0.930 . S
C1443 C1444 1.399 . S
C1443 C1448 1.399 . S
C1444 C1443 1.399 . S
C1444 C1445 1.376 . S
C1445 H1432 0.930 . S
C1445 C1444 1.376 . S
C1445 C1446 1.388 . S
C1446 H1433 0.930 . S
C1446 C1445 1.388 . S
C1446 C1447 1.390 . S
C1447 C1446 1.390 . S
C1447 C1448 1.394 . S
C1447 C1453 1.465 . S
C1448 C1443 1.399 . S
C1448 C1447 1.394 . S
C1448 C1449 1.516 . S
C1449 C1448 1.516 . S
C1449 C1450 1.502 . S
C1449 C1451 1.561 . S
C1449 C1452 1.526 . S
C1450 H1434 0.959 . S
C1450 H1435 0.959 . S
C1450 H1436 0.961 . S
C1450 C1449 1.502 . S
C1451 H1437 0.960 . S
C1451 H1438 0.961 . S
C1451 H1439 0.959 . S
C1451 C1449 1.561 . S
C1452 C1449 1.526 . S
C1452 C1453 1.396 . S
C1452 C1457 1.390 . S
C1453 C1447 1.465 . S
C1453 C1452 1.396 . S
C1453 C1454 1.399 . S
C1454 H1440 0.929 . S
C1454 C1453 1.399 . S
C1454 C1455 1.385 . S
C1455 H1441 0.931 . S
C1455 C1454 1.385 . S
C1455 C1456 1.389 . S
C1456 C1455 1.389 . S
C1456 C1457 1.387 . S
C1457 H1442 0.930 . S
C1457 C1452 1.390 . S
C1457 C1456 1.387 . S
H1458 C1470 0.930 . S
H1459 C1472 0.930 . S
H1460 C1473 0.930 . S
H1461 C1477 0.959 . S
H1462 C1477 0.959 . S
H1463 C1477 0.961 . S
H1464 C1478 0.960 . S
H1465 C1478 0.961 . S
H1466 C1478 0.959 . S
H1467 C1481 0.929 . S
H1468 C1482 0.931 . S
H1469 C1484 0.930 . S
C1470 H1458 0.930 . S
C1470 C1471 1.399 . S
C1470 C1475 1.399 . S
C1471 C1470 1.399 . S
C1471 C1472 1.376 . S
C1472 H1459 0.930 . S
C1472 C1471 1.376 . S
C1472 C1473 1.388 . S
C1473 H1460 0.930 . S
C1473 C1472 1.388 . S
C1473 C1474 1.390 . S
C1474 C1473 1.390 . S
C1474 C1475 1.394 . S
C1474 C1480 1.465 . S
C1475 C1470 1.399 . S
C1475 C1474 1.394 . S
C1475 C1476 1.516 . S
C1476 C1475 1.516 . S
C1476 C1477 1.502 . S
C1476 C1478 1.561 . S
C1476 C1479 1.526 . S
C1477 H1461 0.959 . S
C1477 H1462 0.959 . S
C1477 H1463 0.961 . S
C1477 C1476 1.502 . S
C1478 H1464 0.960 . S
C1478 H1465 0.961 . S
C1478 H1466 0.959 . S
C1478 C1476 1.561 . S
C1479 C1476 1.526 . S
C1479 C1480 1.396 . S
C1479 C1484 1.390 . S
C1480 C1474 1.465 . S
C1480 C1479 1.396 . S
C1480 C1481 1.399 . S
C1481 H1467 0.929 . S
C1481 C1480 1.399 . S
C1481 C1482 1.385 . S
C1482 H1468 0.931 . S
C1482 C1481 1.385 . S
C1482 C1483 1.389 . S
C1483 C1482 1.389 . S
C1483 C1484 1.387 . S
C1484 H1469 0.930 . S
C1484 C1479 1.390 . S
C1484 C1483 1.387 . S
H1485 C1497 0.930 . S
H1486 C1499 0.930 . S
H1487 C1500 0.930 . S
H1488 C1504 0.959 . S
H1489 C1504 0.959 . S
H1490 C1504 0.961 . S
H1491 C1505 0.960 . S
H1492 C1505 0.961 . S
H1493 C1505 0.959 . S
H1494 C1508 0.929 . S
H1495 C1509 0.931 . S
H1496 C1511 0.930 . S
C1497 H1485 0.930 . S
C1497 C1498 1.399 . S
C1497 C1502 1.399 . S
C1498 C1497 1.399 . S
C1498 C1499 1.376 . S
C1499 H1486 0.930 . S
C1499 C1498 1.376 . S
C1499 C1500 1.388 . S
C1500 H1487 0.930 . S
C1500 C1499 1.388 . S
C1500 C1501 1.390 . S
C1501 C1500 1.390 . S
C1501 C1502 1.394 . S
C1501 C1507 1.465 . S
C1502 C1497 1.399 . S
C1502 C1501 1.394 . S
C1502 C1503 1.516 . S
C1503 C1502 1.516 . S
C1503 C1504 1.502 . S
C1503 C1505 1.561 . S
C1503 C1506 1.526 . S
C1504 H1488 0.959 . S
C1504 H1489 0.959 . S
C1504 H1490 0.961 . S
C1504 C1503 1.502 . S
C1505 H1491 0.960 . S
C1505 H1492 0.961 . S
C1505 H1493 0.959 . S
C1505 C1503 1.561 . S
C1506 C1503 1.526 . S
C1506 C1507 1.396 . S
C1506 C1511 1.390 . S
C1507 C1501 1.465 . S
C1507 C1506 1.396 . S
C1507 C1508 1.399 . S
C1508 H1494 0.929 . S
C1508 C1507 1.399 . S
C1508 C1509 1.385 . S
C1509 H1495 0.931 . S
C1509 C1508 1.385 . S
C1509 C1510 1.389 . S
C1510 C1509 1.389 . S
C1510 C1511 1.387 . S
C1511 H1496 0.930 . S
C1511 C1506 1.390 . S
C1511 C1510 1.387 . S
H1512 C1524 0.930 . S
H1513 C1526 0.930 . S
H1514 C1527 0.930 . S
H1515 C1531 0.959 . S
H1516 C1531 0.959 . S
H1517 C1531 0.961 . S
H1518 C1532 0.960 . S
H1519 C1532 0.961 . S
H1520 C1532 0.959 . S
H1521 C1535 0.929 . S
H1522 C1536 0.931 1_455 S
H1523 C1538 0.930 . S
C1524 H1512 0.930 . S
C1524 C1525 1.399 . S
C1524 C1529 1.399 . S
C1525 C1524 1.399 . S
C1525 C1526 1.376 . S
C1526 H1513 0.930 . S
C1526 C1525 1.376 . S
C1526 C1527 1.388 . S
C1527 H1514 0.930 . S
C1527 C1526 1.388 . S
C1527 C1528 1.390 . S
C1528 C1527 1.390 . S
C1528 C1529 1.394 . S
C1528 C1534 1.465 . S
C1529 C1524 1.399 . S
C1529 C1528 1.394 . S
C1529 C1530 1.516 . S
C1530 C1529 1.516 . S
C1530 C1531 1.502 . S
C1530 C1532 1.561 . S
C1530 C1533 1.526 . S
C1531 H1515 0.959 . S
C1531 H1516 0.959 . S
C1531 H1517 0.961 . S
C1531 C1530 1.502 . S
C1532 H1518 0.960 . S
C1532 H1519 0.961 . S
C1532 H1520 0.959 . S
C1532 C1530 1.561 . S
C1533 C1530 1.526 . S
C1533 C1534 1.396 . S
C1533 C1538 1.390 . S
C1534 C1528 1.465 . S
C1534 C1533 1.396 . S
C1534 C1535 1.399 . S
C1535 H1521 0.929 . S
C1535 C1534 1.399 . S
C1535 C1536 1.385 . S
C1536 H1522 0.931 1_655 S
C1536 C1535 1.385 . S
C1536 C1537 1.389 . S
C1537 C1536 1.389 . S
C1537 C1538 1.387 . S
C1538 H1523 0.930 . S
C1538 C1533 1.390 . S
C1538 C1537 1.387 . S
H1539 C1551 0.930 . S
H1540 C1553 0.930 . S
H1541 C1554 0.930 . S
H1542 C1558 0.959 . S
H1543 C1558 0.959 . S
H1544 C1558 0.961 . S
H1545 C1559 0.960 . S
H1546 C1559 0.961 . S
H1547 C1559 0.959 . S
H1548 C1562 0.929 . S
H1549 C1563 0.931 . S
H1550 C1565 0.930 . S
C1551 H1539 0.930 . S
C1551 C1552 1.399 . S
C1551 C1556 1.399 . S
C1552 C1551 1.399 . S
C1552 C1553 1.376 . S
C1553 H1540 0.930 . S
C1553 C1552 1.376 . S
C1553 C1554 1.388 . S
C1554 H1541 0.930 . S
C1554 C1553 1.388 . S
C1554 C1555 1.390 . S
C1555 C1554 1.390 . S
C1555 C1556 1.394 . S
C1555 C1561 1.465 . S
C1556 C1551 1.399 . S
C1556 C1555 1.394 . S
C1556 C1557 1.516 . S
C1557 C1556 1.516 . S
C1557 C1558 1.502 . S
C1557 C1559 1.561 . S
C1557 C1560 1.526 . S
C1558 H1542 0.959 . S
C1558 H1543 0.959 . S
C1558 H1544 0.961 . S
C1558 C1557 1.502 . S
C1559 H1545 0.960 . S
C1559 H1546 0.961 . S
C1559 H1547 0.959 . S
C1559 C1557 1.561 . S
C1560 C1557 1.526 . S
C1560 C1561 1.396 . S
C1560 C1565 1.390 . S
C1561 C1555 1.465 . S
C1561 C1560 1.396 . S
C1561 C1562 1.399 . S
C1562 H1548 0.929 . S
C1562 C1561 1.399 . S
C1562 C1563 1.385 . S
C1563 H1549 0.931 . S
C1563 C1562 1.385 . S
C1563 C1564 1.389 . S
C1564 C1563 1.389 . S
C1564 C1565 1.387 . S
C1565 H1550 0.930 . S
C1565 C1560 1.390 . S
C1565 C1564 1.387 . S
H1566 C1578 0.930 . S
H1567 C1580 0.930 . S
H1568 C1581 0.930 . S
H1569 C1585 0.959 . S
H1570 C1585 0.959 . S
H1571 C1585 0.961 . S
H1572 C1586 0.960 . S
H1573 C1586 0.961 . S
H1574 C1586 0.959 . S
H1575 C1589 0.929 . S
H1576 C1590 0.931 . S
H1577 C1592 0.930 . S
C1578 H1566 0.930 . S
C1578 C1579 1.399 . S
C1578 C1583 1.399 . S
C1579 C1578 1.399 . S
C1579 C1580 1.376 . S
C1580 H1567 0.930 . S
C1580 C1579 1.376 . S
C1580 C1581 1.388 . S
C1581 H1568 0.930 . S
C1581 C1580 1.388 . S
C1581 C1582 1.390 . S
C1582 C1581 1.390 . S
C1582 C1583 1.394 . S
C1582 C1588 1.465 . S
C1583 C1578 1.399 . S
C1583 C1582 1.394 . S
C1583 C1584 1.516 . S
C1584 C1583 1.516 . S
C1584 C1585 1.502 . S
C1584 C1586 1.561 . S
C1584 C1587 1.526 . S
C1585 H1569 0.959 . S
C1585 H1570 0.959 . S
C1585 H1571 0.961 . S
C1585 C1584 1.502 . S
C1586 H1572 0.960 . S
C1586 H1573 0.961 . S
C1586 H1574 0.959 . S
C1586 C1584 1.561 . S
C1587 C1584 1.526 . S
C1587 C1588 1.396 . S
C1587 C1592 1.390 . S
C1588 C1582 1.465 . S
C1588 C1587 1.396 . S
C1588 C1589 1.399 . S
C1589 H1575 0.929 . S
C1589 C1588 1.399 . S
C1589 C1590 1.385 . S
C1590 H1576 0.931 . S
C1590 C1589 1.385 . S
C1590 C1591 1.389 . S
C1591 C1590 1.389 . S
C1591 C1592 1.387 . S
C1592 H1577 0.930 . S
C1592 C1587 1.390 . S
C1592 C1591 1.387 . S
H1593 C1605 0.930 . S
H1594 C1607 0.930 . S
H1595 C1608 0.930 . S
H1596 C1612 0.959 . S
H1597 C1612 0.959 . S
H1598 C1612 0.961 . S
H1599 C1613 0.960 . S
H1600 C1613 0.961 . S
H1601 C1613 0.959 . S
H1602 C1616 0.929 . S
H1603 C1617 0.931 . S
H1604 C1619 0.930 . S
C1605 H1593 0.930 . S
C1605 C1606 1.399 . S
C1605 C1610 1.399 . S
C1606 C1605 1.399 . S
C1606 C1607 1.376 . S
C1607 H1594 0.930 . S
C1607 C1606 1.376 . S
C1607 C1608 1.388 . S
C1608 H1595 0.930 . S
C1608 C1607 1.388 . S
C1608 C1609 1.390 . S
C1609 C1608 1.390 . S
C1609 C1610 1.394 . S
C1609 C1615 1.465 . S
C1610 C1605 1.399 . S
C1610 C1609 1.394 . S
C1610 C1611 1.516 . S
C1611 C1610 1.516 . S
C1611 C1612 1.502 . S
C1611 C1613 1.561 . S
C1611 C1614 1.526 . S
C1612 H1596 0.959 . S
C1612 H1597 0.959 . S
C1612 H1598 0.961 . S
C1612 C1611 1.502 . S
C1613 H1599 0.960 . S
C1613 H1600 0.961 . S
C1613 H1601 0.959 . S
C1613 C1611 1.561 . S
C1614 C1611 1.526 . S
C1614 C1615 1.396 . S
C1614 C1619 1.390 . S
C1615 C1609 1.465 . S
C1615 C1614 1.396 . S
C1615 C1616 1.399 . S
C1616 H1602 0.929 . S
C1616 C1615 1.399 . S
C1616 C1617 1.385 . S
C1617 H1603 0.931 . S
C1617 C1616 1.385 . S
C1617 C1618 1.389 . S
C1618 C1617 1.389 . S
C1618 C1619 1.387 . S
C1619 H1604 0.930 . S
C1619 C1614 1.390 . S
C1619 C1618 1.387 . S
H1620 C1632 0.930 . S
H1621 C1634 0.930 . S
H1622 C1635 0.930 . S
H1623 C1639 0.969 . S
H1624 C1639 0.953 1_655 S
H1625 C1639 0.955 1_655 S
H1626 C1640 0.941 1_655 S
H1627 C1640 0.942 1_655 S
H1628 C1640 0.968 . S
H1629 C1643 0.929 . S
H1630 C1644 0.931 . S
H1631 C1646 0.897 1_655 S
C1632 H1620 0.930 . S
C1632 C1633 1.399 . S
C1632 C1637 1.399 . S
C1633 C1632 1.399 . S
C1633 C1634 1.376 . S
C1634 H1621 0.930 . S
C1634 C1633 1.376 . S
C1634 C1635 1.388 . S
C1635 H1622 0.930 . S
C1635 C1634 1.388 . S
C1635 C1636 1.390 . S
C1636 C1635 1.390 . S
C1636 C1637 1.394 . S
C1636 C1642 1.465 . S
C1637 C1632 1.399 . S
C1637 C1636 1.394 . S
C1637 C1638 1.516 . S
C1638 C1637 1.516 . S
C1638 C1639 1.505 . S
C1638 C1640 1.592 . S
C1638 C1641 1.526 . S
C1639 H1623 0.969 . S
C1639 H1624 0.953 1_455 S
C1639 H1625 0.955 1_455 S
C1639 C1638 1.505 . S
C1640 H1626 0.941 1_455 S
C1640 H1627 0.942 1_455 S
C1640 H1628 0.968 . S
C1640 C1638 1.592 . S
C1641 C1638 1.526 . S
C1641 C1642 1.396 . S
C1641 C1646 1.390 . S
C1642 C1636 1.465 . S
C1642 C1641 1.396 . S
C1642 C1643 1.399 . S
C1643 H1629 0.929 . S
C1643 C1642 1.399 . S
C1643 C1644 1.385 . S
C1644 H1630 0.931 . S
C1644 C1643 1.385 . S
C1644 C1645 1.389 . S
C1645 C1644 1.389 . S
C1645 C1646 1.387 . S
C1646 H1631 0.897 1_455 S
C1646 C1641 1.390 . S
C1646 C1645 1.387 . S
H1647 C1659 0.930 . S
H1648 C1661 0.930 . S
H1649 C1662 0.930 . S
H1650 C1666 0.959 . S
H1651 C1666 0.959 . S
H1652 C1666 0.961 . S
H1653 C1667 0.960 . S
H1654 C1667 0.961 . S
H1655 C1667 0.959 . S
H1656 C1670 0.929 . S
H1657 C1671 0.931 . S
H1658 C1673 0.930 . S
C1659 H1647 0.930 . S
C1659 C1660 1.399 . S
C1659 C1664 1.399 . S
C1660 C1659 1.399 . S
C1660 C1661 1.376 . S
C1661 H1648 0.930 . S
C1661 C1660 1.376 . S
C1661 C1662 1.388 . S
C1662 H1649 0.930 . S
C1662 C1661 1.388 . S
C1662 C1663 1.390 . S
C1663 C1662 1.390 . S
C1663 C1664 1.394 . S
C1663 C1669 1.465 . S
C1664 C1659 1.399 . S
C1664 C1663 1.394 . S
C1664 C1665 1.516 . S
C1665 C1664 1.516 . S
C1665 C1666 1.502 . S
C1665 C1667 1.561 . S
C1665 C1668 1.526 . S
C1666 H1650 0.959 . S
C1666 H1651 0.959 . S
C1666 H1652 0.961 . S
C1666 C1665 1.502 . S
C1667 H1653 0.960 . S
C1667 H1654 0.961 . S
C1667 H1655 0.959 . S
C1667 C1665 1.561 . S
C1668 C1665 1.526 . S
C1668 C1669 1.396 . S
C1668 C1673 1.390 . S
C1669 C1663 1.465 . S
C1669 C1668 1.396 . S
C1669 C1670 1.399 . S
C1670 H1656 0.929 . S
C1670 C1669 1.399 . S
C1670 C1671 1.385 . S
C1671 H1657 0.931 . S
C1671 C1670 1.385 . S
C1671 C1672 1.389 . S
C1672 C1671 1.389 . S
C1672 C1673 1.387 . S
C1673 H1658 0.930 . S
C1673 C1668 1.390 . S
C1673 C1672 1.387 . S
H1674 C1686 0.930 . S
H1675 C1688 0.930 . S
H1676 C1689 0.930 . S
H1677 C1693 0.959 . S
H1678 C1693 0.959 . S
H1679 C1693 0.961 . S
H1680 C1694 0.960 . S
H1681 C1694 0.961 . S
H1682 C1694 0.959 . S
H1683 C1697 0.929 . S
H1684 C1698 0.931 1_565 S
H1685 C1700 0.930 . S
C1686 H1674 0.930 . S
C1686 C1687 1.399 . S
C1686 C1691 1.399 . S
C1687 C1686 1.399 . S
C1687 C1688 1.376 1_545 S
C1688 H1675 0.930 . S
C1688 C1687 1.376 1_565 S
C1688 C1689 1.388 . S
C1689 H1676 0.930 . S
C1689 C1688 1.388 . S
C1689 C1690 1.390 1_565 S
C1690 C1689 1.390 1_545 S
C1690 C1691 1.394 . S
C1690 C1696 1.465 . S
C1691 C1686 1.399 . S
C1691 C1690 1.394 . S
C1691 C1692 1.516 . S
C1692 C1691 1.516 . S
C1692 C1693 1.502 . S
C1692 C1694 1.561 . S
C1692 C1695 1.526 . S
C1693 H1677 0.959 . S
C1693 H1678 0.959 . S
C1693 H1679 0.961 . S
C1693 C1692 1.502 . S
C1694 H1680 0.960 . S
C1694 H1681 0.961 . S
C1694 H1682 0.959 . S
C1694 C1692 1.561 . S
C1695 C1692 1.526 . S
C1695 C1696 1.396 . S
C1695 C1700 1.390 . S
C1696 C1690 1.465 . S
C1696 C1695 1.396 . S
C1696 C1697 1.399 1_545 S
C1697 H1683 0.929 . S
C1697 C1696 1.399 1_565 S
C1697 C1698 1.385 1_565 S
C1698 H1684 0.931 1_545 S
C1698 C1697 1.385 1_545 S
C1698 C1699 1.389 . S
C1699 C1698 1.389 . S
C1699 C1700 1.387 . S
C1700 H1685 0.930 . S
C1700 C1695 1.390 . S
C1700 C1699 1.387 . S
H1701 C1713 0.930 . S
H1702 C1715 0.930 . S
H1703 C1716 0.930 . S
H1704 C1720 0.959 . S
H1705 C1720 0.959 . S
H1706 C1720 0.961 . S
H1707 C1721 0.960 . S
H1708 C1721 0.961 . S
H1709 C1721 0.959 1_545 S
H1710 C1724 0.929 . S
H1711 C1725 0.931 . S
H1712 C1727 0.930 1_565 S
C1713 H1701 0.930 . S
C1713 C1714 1.399 . S
C1713 C1718 1.399 . S
C1714 C1713 1.399 . S
C1714 C1715 1.376 . S
C1715 H1702 0.930 . S
C1715 C1714 1.376 . S
C1715 C1716 1.388 . S
C1716 H1703 0.930 . S
C1716 C1715 1.388 . S
C1716 C1717 1.390 . S
C1717 C1716 1.390 . S
C1717 C1718 1.394 . S
C1717 C1723 1.465 . S
C1718 C1713 1.399 . S
C1718 C1717 1.394 . S
C1718 C1719 1.516 . S
C1719 C1718 1.516 . S
C1719 C1720 1.502 1_545 S
C1719 C1721 1.561 1_545 S
C1719 C1722 1.526 . S
C1720 H1704 0.959 . S
C1720 H1705 0.959 . S
C1720 H1706 0.961 . S
C1720 C1719 1.502 1_565 S
C1721 H1707 0.960 . S
C1721 H1708 0.961 . S
C1721 H1709 0.959 1_565 S
C1721 C1719 1.561 1_565 S
C1722 C1719 1.526 . S
C1722 C1723 1.396 . S
C1722 C1727 1.390 . S
C1723 C1717 1.465 . S
C1723 C1722 1.396 . S
C1723 C1724 1.399 . S
C1724 H1710 0.929 . S
C1724 C1723 1.399 . S
C1724 C1725 1.385 . S
C1725 H1711 0.931 . S
C1725 C1724 1.385 . S
C1725 C1726 1.389 . S
C1726 C1725 1.389 . S
C1726 C1727 1.387 . S
C1727 H1712 0.930 1_545 S
C1727 C1722 1.390 . S
C1727 C1726 1.387 . S
H1728 C1740 0.930 . S
H1729 C1742 0.930 1_655 S
H1730 C1743 0.930 . S
H1731 C1747 0.959 . S
H1732 C1747 0.959 . S
H1733 C1747 0.961 . S
H1734 C1748 0.960 . S
H1735 C1748 0.961 . S
H1736 C1748 0.959 . S
H1737 C1751 0.942 . S
H1738 C1752 0.931 1_655 S
H1739 C1754 0.930 . S
C1740 H1728 0.930 . S
C1740 C1741 1.399 . S
C1740 C1745 1.399 . S
C1741 C1740 1.399 . S
C1741 C1742 1.376 . S
C1742 H1729 0.930 1_455 S
C1742 C1741 1.376 . S
C1742 C1743 1.388 1_455 S
C1743 H1730 0.930 . S
C1743 C1742 1.388 1_655 S
C1743 C1744 1.390 1_655 S
C1744 C1743 1.390 1_455 S
C1744 C1745 1.394 . S
C1744 C1750 1.465 . S
C1745 C1740 1.399 . S
C1745 C1744 1.394 . S
C1745 C1746 1.516 . S
C1746 C1745 1.516 . S
C1746 C1747 1.502 . S
C1746 C1748 1.561 . S
C1746 C1749 1.526 . S
C1747 H1731 0.959 . S
C1747 H1732 0.959 . S
C1747 H1733 0.961 . S
C1747 C1746 1.502 . S
C1748 H1734 0.960 . S
C1748 H1735 0.961 . S
C1748 H1736 0.959 . S
C1748 C1746 1.561 . S
C1749 C1746 1.526 . S
C1749 C1750 1.396 . S
C1749 C1754 1.390 . S
C1750 C1744 1.465 . S
C1750 C1749 1.396 . S
C1750 C1751 1.393 1_455 S
C1751 H1737 0.942 . S
C1751 C1750 1.393 1_655 S
C1751 C1752 1.378 1_655 S
C1752 H1738 0.931 1_455 S
C1752 C1751 1.378 1_455 S
C1752 C1753 1.389 . S
C1753 C1752 1.389 . S
C1753 C1754 1.387 . S
C1754 H1739 0.930 . S
C1754 C1749 1.390 . S
C1754 C1753 1.387 . S
H1755 C1767 0.930 . S
H1756 C1769 0.930 . S
H1757 C1770 0.930 . S
H1758 C1774 0.959 . S
H1759 C1774 0.959 . S
H1760 C1774 0.961 . S
H1761 C1775 0.960 . S
H1762 C1775 0.961 . S
H1763 C1775 0.959 . S
H1764 C1778 0.929 . S
H1765 C1779 0.931 . S
H1766 C1781 0.930 . S
C1767 H1755 0.930 . S
C1767 C1768 1.399 . S
C1767 C1772 1.399 . S
C1768 C1767 1.399 . S
C1768 C1769 1.376 . S
C1769 H1756 0.930 . S
C1769 C1768 1.376 . S
C1769 C1770 1.388 . S
C1770 H1757 0.930 . S
C1770 C1769 1.388 . S
C1770 C1771 1.390 . S
C1771 C1770 1.390 . S
C1771 C1772 1.394 . S
C1771 C1777 1.465 . S
C1772 C1767 1.399 . S
C1772 C1771 1.394 . S
C1772 C1773 1.516 . S
C1773 C1772 1.516 . S
C1773 C1774 1.502 . S
C1773 C1775 1.561 . S
C1773 C1776 1.526 . S
C1774 H1758 0.959 . S
C1774 H1759 0.959 . S
C1774 H1760 0.961 . S
C1774 C1773 1.502 . S
C1775 H1761 0.960 . S
C1775 H1762 0.961 . S
C1775 H1763 0.959 . S
C1775 C1773 1.561 . S
C1776 C1773 1.526 . S
C1776 C1777 1.396 . S
C1776 C1781 1.390 . S
C1777 C1771 1.465 . S
C1777 C1776 1.396 . S
C1777 C1778 1.399 . S
C1778 H1764 0.929 . S
C1778 C1777 1.399 . S
C1778 C1779 1.385 . S
C1779 H1765 0.931 . S
C1779 C1778 1.385 . S
C1779 C1780 1.389 . S
C1780 C1779 1.389 . S
C1780 C1781 1.387 . S
C1781 H1766 0.930 . S
C1781 C1776 1.390 . S
C1781 C1780 1.387 . S
H1782 C1794 0.930 . S
H1783 C1796 0.930 . S
H1784 C1797 0.930 . S
H1785 C1801 0.959 . S
H1786 C1801 0.959 . S
H1787 C1801 0.961 . S
H1788 C1802 0.960 . S
H1789 C1802 0.961 . S
H1790 C1802 0.961 . S
H1791 C1805 0.929 . S
H1792 C1806 0.931 . S
H1793 C1808 0.930 . S
C1794 H1782 0.930 . S
C1794 C1795 1.399 . S
C1794 C1799 1.399 . S
C1795 C1794 1.399 . S
C1795 C1796 1.376 . S
C1796 H1783 0.930 . S
C1796 C1795 1.376 . S
C1796 C1797 1.388 . S
C1797 H1784 0.930 . S
C1797 C1796 1.388 . S
C1797 C1798 1.390 . S
C1798 C1797 1.390 . S
C1798 C1799 1.394 . S
C1798 C1804 1.465 . S
C1799 C1794 1.399 . S
C1799 C1798 1.394 . S
C1799 C1800 1.516 . S
C1800 C1799 1.516 . S
C1800 C1801 1.502 . S
C1800 C1802 1.561 . S
C1800 C1803 1.526 . S
C1801 H1785 0.959 . S
C1801 H1786 0.959 . S
C1801 H1787 0.961 . S
C1801 C1800 1.502 . S
C1802 H1788 0.960 . S
C1802 H1789 0.961 . S
C1802 H1790 0.961 . S
C1802 C1800 1.561 . S
C1803 C1800 1.526 . S
C1803 C1804 1.396 . S
C1803 C1808 1.390 . S
C1804 C1798 1.465 . S
C1804 C1803 1.396 . S
C1804 C1805 1.399 . S
C1805 H1791 0.929 . S
C1805 C1804 1.399 . S
C1805 C1806 1.385 . S
C1806 H1792 0.931 . S
C1806 C1805 1.385 . S
C1806 C1807 1.389 . S
C1807 C1806 1.389 . S
C1807 C1808 1.387 . S
C1808 H1793 0.930 . S
C1808 C1803 1.390 . S
C1808 C1807 1.387 . S
H1809 C1821 0.930 . S
H1810 C1823 0.930 . S
H1811 C1824 0.930 . S
H1812 C1828 0.959 . S
H1813 C1828 0.959 . S
H1814 C1828 0.961 . S
H1815 C1829 0.960 . S
H1816 C1829 0.961 . S
H1817 C1829 0.959 . S
H1818 C1832 0.929 . S
H1819 C1833 0.931 . S
H1820 C1835 0.930 . S
C1821 H1809 0.930 . S
C1821 C1822 1.399 . S
C1821 C1826 1.399 . S
C1822 C1821 1.399 . S
C1822 C1823 1.376 . S
C1823 H1810 0.930 . S
C1823 C1822 1.376 . S
C1823 C1824 1.388 . S
C1824 H1811 0.930 . S
C1824 C1823 1.388 . S
C1824 C1825 1.390 . S
C1825 C1824 1.390 . S
C1825 C1826 1.394 . S
C1825 C1831 1.465 . S
C1826 C1821 1.399 . S
C1826 C1825 1.394 . S
C1826 C1827 1.516 . S
C1827 C1826 1.516 . S
C1827 C1828 1.502 . S
C1827 C1829 1.561 . S
C1827 C1830 1.526 . S
C1828 H1812 0.959 . S
C1828 H1813 0.959 . S
C1828 H1814 0.961 . S
C1828 C1827 1.502 . S
C1829 H1815 0.960 . S
C1829 H1816 0.961 . S
C1829 H1817 0.959 . S
C1829 C1827 1.561 . S
C1830 C1827 1.526 . S
C1830 C1831 1.396 . S
C1830 C1835 1.390 . S
C1831 C1825 1.465 . S
C1831 C1830 1.396 . S
C1831 C1832 1.399 . S
C1832 H1818 0.929 . S
C1832 C1831 1.399 . S
C1832 C1833 1.385 . S
C1833 H1819 0.931 . S
C1833 C1832 1.385 . S
C1833 C1834 1.389 . S
C1834 C1833 1.389 . S
C1834 C1835 1.387 . S
C1835 H1820 0.930 . S
C1835 C1830 1.390 . S
C1835 C1834 1.387 . S
H1836 C1848 0.930 . S
H1837 C1850 0.930 . S
H1838 C1851 0.930 . S
H1839 C1855 0.959 . S
H1840 C1855 0.959 . S
H1841 C1855 0.961 . S
H1842 C1856 0.960 . S
H1843 C1856 0.961 . S
H1844 C1856 0.959 . S
H1845 C1859 0.929 . S
H1846 C1860 0.931 . S
H1847 C1862 0.930 . S
C1848 H1836 0.930 . S
C1848 C1849 1.399 . S
C1848 C1853 1.399 . S
C1849 C1848 1.399 . S
C1849 C1850 1.376 . S
C1850 H1837 0.930 . S
C1850 C1849 1.376 . S
C1850 C1851 1.388 . S
C1851 H1838 0.930 . S
C1851 C1850 1.388 . S
C1851 C1852 1.390 . S
C1852 C1851 1.390 . S
C1852 C1853 1.394 . S
C1852 C1858 1.465 . S
C1853 C1848 1.399 . S
C1853 C1852 1.394 . S
C1853 C1854 1.516 . S
C1854 C1853 1.516 . S
C1854 C1855 1.502 . S
C1854 C1856 1.561 1_545 S
C1854 C1857 1.526 . S
C1855 H1839 0.959 . S
C1855 H1840 0.959 . S
C1855 H1841 0.961 . S
C1855 C1854 1.502 . S
C1856 H1842 0.960 . S
C1856 H1843 0.961 . S
C1856 H1844 0.959 . S
C1856 C1854 1.561 1_565 S
C1857 C1854 1.526 . S
C1857 C1858 1.396 . S
C1857 C1862 1.390 . S
C1858 C1852 1.465 . S
C1858 C1857 1.396 . S
C1858 C1859 1.399 . S
C1859 H1845 0.929 . S
C1859 C1858 1.399 . S
C1859 C1860 1.385 . S
C1860 H1846 0.931 . S
C1860 C1859 1.385 . S
C1860 C1861 1.389 . S
C1861 C1860 1.389 . S
C1861 C1862 1.387 . S
C1862 H1847 0.930 . S
C1862 C1857 1.390 . S
C1862 C1861 1.387 . S
H1863 C1875 0.930 . S
H1864 C1877 0.930 . S
H1865 C1878 0.930 . S
H1866 C1882 0.959 . S
H1867 C1882 0.959 . S
H1868 C1882 0.961 . S
H1869 C1883 0.960 . S
H1870 C1883 0.961 . S
H1871 C1883 0.959 . S
H1872 C1886 0.929 . S
H1873 C1887 0.931 . S
H1874 C1889 0.930 . S
C1875 H1863 0.930 . S
C1875 C1876 1.399 . S
C1875 C1880 1.399 . S
C1876 C1875 1.399 . S
C1876 C1877 1.376 . S
C1877 H1864 0.930 . S
C1877 C1876 1.376 . S
C1877 C1878 1.388 . S
C1878 H1865 0.930 . S
C1878 C1877 1.388 . S
C1878 C1879 1.390 . S
C1879 C1878 1.390 . S
C1879 C1880 1.394 . S
C1879 C1885 1.465 . S
C1880 C1875 1.399 . S
C1880 C1879 1.394 . S
C1880 C1881 1.516 . S
C1881 C1880 1.516 . S
C1881 C1882 1.502 . S
C1881 C1883 1.561 . S
C1881 C1884 1.526 . S
C1882 H1866 0.959 . S
C1882 H1867 0.959 . S
C1882 H1868 0.961 . S
C1882 C1881 1.502 . S
C1883 H1869 0.960 . S
C1883 H1870 0.961 . S
C1883 H1871 0.959 . S
C1883 C1881 1.561 . S
C1884 C1881 1.526 . S
C1884 C1885 1.396 . S
C1884 C1889 1.390 . S
C1885 C1879 1.465 . S
C1885 C1884 1.396 . S
C1885 C1886 1.399 . S
C1886 H1872 0.929 . S
C1886 C1885 1.399 . S
C1886 C1887 1.385 . S
C1887 H1873 0.931 . S
C1887 C1886 1.385 . S
C1887 C1888 1.389 . S
C1888 C1887 1.389 . S
C1888 C1889 1.387 . S
C1889 H1874 0.930 . S
C1889 C1884 1.390 . S
C1889 C1888 1.387 . S
H1890 C1902 0.930 . S
H1891 C1904 0.930 . S
H1892 C1905 0.930 . S
H1893 C1909 0.959 . S
H1894 C1909 0.959 . S
H1895 C1909 0.961 . S
H1896 C1910 0.960 . S
H1897 C1910 0.961 . S
H1898 C1910 0.959 . S
H1899 C1913 0.929 . S
H1900 C1914 0.931 . S
H1901 C1916 0.930 . S
C1902 H1890 0.930 . S
C1902 C1903 1.399 . S
C1902 C1907 1.399 . S
C1903 C1902 1.399 . S
C1903 C1904 1.376 . S
C1904 H1891 0.930 . S
C1904 C1903 1.376 . S
C1904 C1905 1.388 . S
C1905 H1892 0.930 . S
C1905 C1904 1.388 . S
C1905 C1906 1.390 . S
C1906 C1905 1.390 . S
C1906 C1907 1.394 . S
C1906 C1912 1.465 . S
C1907 C1902 1.399 . S
C1907 C1906 1.394 . S
C1907 C1908 1.516 . S
C1908 C1907 1.516 . S
C1908 C1909 1.502 . S
C1908 C1910 1.561 1_455 S
C1908 C1911 1.526 . S
C1909 H1893 0.959 . S
C1909 H1894 0.959 . S
C1909 H1895 0.961 . S
C1909 C1908 1.502 . S
C1910 H1896 0.960 . S
C1910 H1897 0.961 . S
C1910 H1898 0.959 . S
C1910 C1908 1.561 1_655 S
C1911 C1908 1.526 . S
C1911 C1912 1.396 . S
C1911 C1916 1.390 . S
C1912 C1906 1.465 . S
C1912 C1911 1.396 . S
C1912 C1913 1.399 . S
C1913 H1899 0.929 . S
C1913 C1912 1.399 . S
C1913 C1914 1.385 . S
C1914 H1900 0.931 . S
C1914 C1913 1.385 . S
C1914 C1915 1.389 . S
C1915 C1914 1.389 . S
C1915 C1916 1.387 . S
C1916 H1901 0.930 . S
C1916 C1911 1.390 . S
C1916 C1915 1.387 . S
H1917 C1929 0.930 . S
H1918 C1931 0.930 . S
H1919 C1932 0.930 . S
H1920 C1936 0.959 . S
H1921 C1936 0.959 . S
H1922 C1936 0.961 . S
H1923 C1937 0.960 . S
H1924 C1937 0.961 . S
H1925 C1937 0.959 . S
H1926 C1940 0.929 . S
H1927 C1941 0.931 . S
H1928 C1943 0.930 . S
C1929 H1917 0.930 . S
C1929 C1930 1.399 . S
C1929 C1934 1.399 . S
C1930 C1929 1.399 . S
C1930 C1931 1.376 . S
C1931 H1918 0.930 . S
C1931 C1930 1.376 . S
C1931 C1932 1.388 . S
C1932 H1919 0.930 . S
C1932 C1931 1.388 . S
C1932 C1933 1.390 . S
C1933 C1932 1.390 . S
C1933 C1934 1.394 . S
C1933 C1939 1.465 . S
C1934 C1929 1.399 . S
C1934 C1933 1.394 . S
C1934 C1935 1.516 . S
C1935 C1934 1.516 . S
C1935 C1936 1.502 . S
C1935 C1937 1.561 . S
C1935 C1938 1.526 . S
C1936 H1920 0.959 . S
C1936 H1921 0.959 . S
C1936 H1922 0.961 . S
C1936 C1935 1.502 . S
C1937 H1923 0.960 . S
C1937 H1924 0.961 . S
C1937 H1925 0.959 . S
C1937 C1935 1.561 . S
C1938 C1935 1.526 . S
C1938 C1939 1.396 . S
C1938 C1943 1.390 . S
C1939 C1933 1.465 . S
C1939 C1938 1.396 . S
C1939 C1940 1.399 . S
C1940 H1926 0.929 . S
C1940 C1939 1.399 . S
C1940 C1941 1.385 . S
C1941 H1927 0.931 . S
C1941 C1940 1.385 . S
C1941 C1942 1.389 . S
C1942 C1941 1.389 . S
C1942 C1943 1.387 . S
C1943 H1928 0.930 . S
C1943 C1938 1.390 . S
C1943 C1942 1.387 . S
H1944 C1956 0.930 . S
H1945 C1958 0.930 . S
H1946 C1959 0.930 . S
H1947 C1963 0.959 . S
H1948 C1963 0.959 . S
H1949 C1963 0.961 . S
H1950 C1964 0.960 . S
H1951 C1964 0.961 . S
H1952 C1964 0.959 . S
H1953 C1967 0.929 . S
H1954 C1968 0.931 . S
H1955 C1970 0.930 . S
C1956 H1944 0.930 . S
C1956 C1957 1.399 . S
C1956 C1961 1.399 . S
C1957 C1956 1.399 . S
C1957 C1958 1.376 . S
C1958 H1945 0.930 . S
C1958 C1957 1.376 . S
C1958 C1959 1.388 . S
C1959 H1946 0.930 . S
C1959 C1958 1.388 . S
C1959 C1960 1.390 . S
C1960 C1959 1.390 . S
C1960 C1961 1.394 . S
C1960 C1966 1.465 . S
C1961 C1956 1.399 . S
C1961 C1960 1.394 . S
C1961 C1962 1.516 . S
C1962 C1961 1.516 . S
C1962 C1963 1.502 . S
C1962 C1964 1.561 . S
C1962 C1965 1.526 . S
C1963 H1947 0.959 . S
C1963 H1948 0.959 . S
C1963 H1949 0.961 . S
C1963 C1962 1.502 . S
C1964 H1950 0.960 . S
C1964 H1951 0.961 . S
C1964 H1952 0.959 . S
C1964 C1962 1.561 . S
C1965 C1962 1.526 . S
C1965 C1966 1.396 . S
C1965 C1970 1.390 . S
C1966 C1960 1.465 . S
C1966 C1965 1.396 . S
C1966 C1967 1.399 . S
C1967 H1953 0.929 . S
C1967 C1966 1.399 . S
C1967 C1968 1.385 . S
C1968 H1954 0.931 . S
C1968 C1967 1.385 . S
C1968 C1969 1.389 . S
C1969 C1968 1.389 . S
C1969 C1970 1.387 . S
C1970 H1955 0.930 . S
C1970 C1965 1.390 . S
C1970 C1969 1.387 . S
H1971 C1983 0.930 . S
H1972 C1985 0.930 . S
H1973 C1986 0.930 . S
H1974 C1990 0.959 . S
H1975 C1990 0.959 . S
H1976 C1990 0.961 . S
H1977 C1991 0.960 . S
H1978 C1991 0.961 . S
H1979 C1991 0.959 . S
H1980 C1994 0.929 . S
H1981 C1995 0.931 . S
H1982 C1997 0.930 . S
C1983 H1971 0.930 . S
C1983 C1984 1.399 . S
C1983 C1988 1.399 . S
C1984 C1983 1.399 . S
C1984 C1985 1.376 . S
C1985 H1972 0.930 . S
C1985 C1984 1.376 . S
C1985 C1986 1.388 . S
C1986 H1973 0.930 . S
C1986 C1985 1.388 . S
C1986 C1987 1.390 . S
C1987 C1986 1.390 . S
C1987 C1988 1.394 . S
C1987 C1993 1.465 . S
C1988 C1983 1.399 . S
C1988 C1987 1.394 . S
C1988 C1989 1.516 . S
C1989 C1988 1.516 . S
C1989 C1990 1.502 . S
C1989 C1991 1.561 . S
C1989 C1992 1.526 . S
C1990 H1974 0.959 . S
C1990 H1975 0.959 . S
C1990 H1976 0.961 . S
C1990 C1989 1.502 . S
C1991 H1977 0.960 . S
C1991 H1978 0.961 . S
C1991 H1979 0.959 . S
C1991 C1989 1.561 . S
C1992 C1989 1.526 . S
C1992 C1993 1.396 . S
C1992 C1997 1.390 . S
C1993 C1987 1.465 . S
C1993 C1992 1.396 . S
C1993 C1994 1.399 . S
C1994 H1980 0.929 . S
C1994 C1993 1.399 . S
C1994 C1995 1.385 . S
C1995 H1981 0.931 . S
C1995 C1994 1.385 . S
C1995 C1996 1.389 . S
C1996 C1995 1.389 . S
C1996 C1997 1.387 . S
C1997 H1982 0.930 . S
C1997 C1992 1.390 . S
C1997 C1996 1.387 . S
H1998 C2010 0.930 . S
H1999 C2012 0.930 . S
H2000 C2013 0.930 . S
H2001 C2017 0.959 . S
H2002 C2017 0.959 . S
H2003 C2017 0.961 . S
H2004 C2018 0.960 . S
H2005 C2018 0.961 . S
H2006 C2018 0.959 . S
H2007 C2021 0.929 . S
H2008 C2022 0.931 . S
H2009 C2024 0.930 . S
C2010 H1998 0.930 . S
C2010 C2011 1.399 . S
C2010 C2015 1.399 . S
C2011 C2010 1.399 . S
C2011 C2012 1.376 . S
C2012 H1999 0.930 . S
C2012 C2011 1.376 . S
C2012 C2013 1.388 . S
C2013 H2000 0.930 . S
C2013 C2012 1.388 . S
C2013 C2014 1.390 . S
C2014 C2013 1.390 . S
C2014 C2015 1.394 . S
C2014 C2020 1.465 . S
C2015 C2010 1.399 . S
C2015 C2014 1.394 . S
C2015 C2016 1.516 . S
C2016 C2015 1.516 . S
C2016 C2017 1.502 . S
C2016 C2018 1.561 . S
C2016 C2019 1.526 . S
C2017 H2001 0.959 . S
C2017 H2002 0.959 . S
C2017 H2003 0.961 . S
C2017 C2016 1.502 . S
C2018 H2004 0.960 . S
C2018 H2005 0.961 . S
C2018 H2006 0.959 . S
C2018 C2016 1.561 . S
C2019 C2016 1.526 . S
C2019 C2020 1.396 . S
C2019 C2024 1.390 . S
C2020 C2014 1.465 . S
C2020 C2019 1.396 . S
C2020 C2021 1.399 . S
C2021 H2007 0.929 . S
C2021 C2020 1.399 . S
C2021 C2022 1.385 . S
C2022 H2008 0.931 . S
C2022 C2021 1.385 . S
C2022 C2023 1.389 . S
C2023 C2022 1.389 . S
C2023 C2024 1.387 . S
C2024 H2009 0.930 . S
C2024 C2019 1.390 . S
C2024 C2023 1.387 . S
H2025 C2037 0.930 . S
H2026 C2039 0.930 . S
H2027 C2040 0.930 . S
H2028 C2044 0.959 . S
H2029 C2044 0.959 . S
H2030 C2044 0.961 . S
H2031 C2045 0.960 . S
H2032 C2045 0.961 . S
H2033 C2045 0.959 . S
H2034 C2048 0.929 . S
H2035 C2049 0.931 . S
H2036 C2051 0.930 . S
C2037 H2025 0.930 . S
C2037 C2038 1.399 . S
C2037 C2042 1.399 . S
C2038 C2037 1.399 . S
C2038 C2039 1.376 . S
C2039 H2026 0.930 . S
C2039 C2038 1.376 . S
C2039 C2040 1.388 . S
C2040 H2027 0.930 . S
C2040 C2039 1.388 . S
C2040 C2041 1.390 . S
C2041 C2040 1.390 . S
C2041 C2042 1.394 . S
C2041 C2047 1.465 . S
C2042 C2037 1.399 . S
C2042 C2041 1.394 . S
C2042 C2043 1.516 . S
C2043 C2042 1.516 . S
C2043 C2044 1.502 . S
C2043 C2045 1.561 . S
C2043 C2046 1.526 . S
C2044 H2028 0.959 . S
C2044 H2029 0.959 . S
C2044 H2030 0.961 . S
C2044 C2043 1.502 . S
C2045 H2031 0.960 . S
C2045 H2032 0.961 . S
C2045 H2033 0.959 . S
C2045 C2043 1.561 . S
C2046 C2043 1.526 . S
C2046 C2047 1.396 . S
C2046 C2051 1.390 1_556 S
C2047 C2041 1.465 . S
C2047 C2046 1.396 . S
C2047 C2048 1.399 1_556 S
C2048 H2034 0.929 . S
C2048 C2047 1.399 1_554 S
C2048 C2049 1.385 . S
C2049 H2035 0.931 . S
C2049 C2048 1.385 . S
C2049 C2050 1.389 . S
C2050 C2049 1.389 . S
C2050 C2051 1.387 . S
C2051 H2036 0.930 . S
C2051 C2046 1.390 1_554 S
C2051 C2050 1.387 . S
H2052 C2064 0.930 . S
H2053 C2066 0.930 . S
H2054 C2067 0.930 . S
H2055 C2071 0.959 . S
H2056 C2071 0.959 . S
H2057 C2071 0.961 . S
H2058 C2072 0.960 . S
H2059 C2072 0.961 . S
H2060 C2072 0.959 . S
H2061 C2075 0.929 . S
H2062 C2076 0.931 . S
H2063 C2078 0.930 . S
C2064 H2052 0.930 . S
C2064 C2065 1.399 . S
C2064 C2069 1.399 . S
C2065 C2064 1.399 . S
C2065 C2066 1.376 . S
C2066 H2053 0.930 . S
C2066 C2065 1.376 . S
C2066 C2067 1.388 . S
C2067 H2054 0.930 . S
C2067 C2066 1.388 . S
C2067 C2068 1.390 . S
C2068 C2067 1.390 . S
C2068 C2069 1.394 . S
C2068 C2074 1.465 . S
C2069 C2064 1.399 . S
C2069 C2068 1.394 . S
C2069 C2070 1.516 . S
C2070 C2069 1.516 . S
C2070 C2071 1.502 . S
C2070 C2072 1.561 . S
C2070 C2073 1.526 . S
C2071 H2055 0.959 . S
C2071 H2056 0.959 . S
C2071 H2057 0.961 . S
C2071 C2070 1.502 . S
C2072 H2058 0.960 . S
C2072 H2059 0.961 . S
C2072 H2060 0.959 . S
C2072 C2070 1.561 . S
C2073 C2070 1.526 . S
C2073 C2074 1.396 . S
C2073 C2078 1.390 1_556 S
C2074 C2068 1.465 . S
C2074 C2073 1.396 . S
C2074 C2075 1.399 . S
C2075 H2061 0.929 . S
C2075 C2074 1.399 . S
C2075 C2076 1.385 1_556 S
C2076 H2062 0.931 . S
C2076 C2075 1.385 1_554 S
C2076 C2077 1.389 . S
C2077 C2076 1.389 . S
C2077 C2078 1.387 . S
C2078 H2063 0.930 . S
C2078 C2073 1.390 1_554 S
C2078 C2077 1.387 . S
H2079 C2091 0.930 . S
H2080 C2093 0.930 . S
H2081 C2094 0.930 . S
H2082 C2098 0.959 . S
H2083 C2098 0.959 . S
H2084 C2098 0.961 . S
H2085 C2099 0.960 . S
H2086 C2099 0.961 1_554 S
H2087 C2099 0.959 . S
H2088 C2102 0.929 . S
H2089 C2103 0.931 . S
H2090 C2105 0.930 . S
C2091 H2079 0.930 . S
C2091 C2092 1.399 . S
C2091 C2096 1.399 . S
C2092 C2091 1.399 . S
C2092 C2093 1.376 . S
C2093 H2080 0.930 . S
C2093 C2092 1.376 . S
C2093 C2094 1.388 . S
C2094 H2081 0.930 . S
C2094 C2093 1.388 . S
C2094 C2095 1.390 . S
C2095 C2094 1.390 . S
C2095 C2096 1.394 . S
C2095 C2101 1.465 . S
C2096 C2091 1.399 . S
C2096 C2095 1.394 . S
C2096 C2097 1.516 . S
C2097 C2096 1.516 . S
C2097 C2098 1.502 1_556 S
C2097 C2099 1.561 . S
C2097 C2100 1.526 1_556 S
C2098 H2082 0.959 . S
C2098 H2083 0.959 . S
C2098 H2084 0.961 . S
C2098 C2097 1.502 1_554 S
C2099 H2085 0.960 . S
C2099 H2086 0.961 1_556 S
C2099 H2087 0.959 . S
C2099 C2097 1.561 . S
C2100 C2097 1.526 1_554 S
C2100 C2101 1.396 1_554 S
C2100 C2105 1.390 . S
C2101 C2095 1.465 . S
C2101 C2100 1.396 1_556 S
C2101 C2102 1.399 . S
C2102 H2088 0.929 . S
C2102 C2101 1.399 . S
C2102 C2103 1.385 1_556 S
C2103 H2089 0.931 . S
C2103 C2102 1.385 1_554 S
C2103 C2104 1.389 . S
C2104 C2103 1.389 . S
C2104 C2105 1.387 . S
C2105 H2090 0.930 . S
C2105 C2100 1.390 . S
C2105 C2104 1.387 . S
H2106 C2118 0.930 . S
H2107 C2120 0.930 . S
H2108 C2121 0.930 . S
H2109 C2125 0.959 . S
H2110 C2125 0.959 . S
H2111 C2125 0.961 . S
H2112 C2126 0.960 . S
H2113 C2126 0.961 . S
H2114 C2126 0.959 . S
H2115 C2129 0.929 . S
H2116 C2130 0.931 1_545 S
H2117 C2132 0.930 . S
C2118 H2106 0.930 . S
C2118 C2119 1.399 . S
C2118 C2123 1.399 . S
C2119 C2118 1.399 . S
C2119 C2120 1.376 . S
C2120 H2107 0.930 . S
C2120 C2119 1.376 . S
C2120 C2121 1.388 . S
C2121 H2108 0.930 . S
C2121 C2120 1.388 . S
C2121 C2122 1.390 . S
C2122 C2121 1.390 . S
C2122 C2123 1.394 . S
C2122 C2128 1.465 . S
C2123 C2118 1.399 . S
C2123 C2122 1.394 . S
C2123 C2124 1.516 . S
C2124 C2123 1.516 . S
C2124 C2125 1.502 . S
C2124 C2126 1.561 . S
C2124 C2127 1.526 . S
C2125 H2109 0.959 . S
C2125 H2110 0.959 . S
C2125 H2111 0.961 . S
C2125 C2124 1.502 . S
C2126 H2112 0.960 . S
C2126 H2113 0.961 . S
C2126 H2114 0.959 . S
C2126 C2124 1.561 . S
C2127 C2124 1.526 . S
C2127 C2128 1.396 . S
C2127 C2132 1.390 . S
C2128 C2122 1.465 . S
C2128 C2127 1.396 . S
C2128 C2129 1.399 . S
C2129 H2115 0.929 . S
C2129 C2128 1.399 . S
C2129 C2130 1.385 . S
C2130 H2116 0.931 1_565 S
C2130 C2129 1.385 . S
C2130 C2131 1.389 . S
C2131 C2130 1.389 . S
C2131 C2132 1.387 . S
C2132 H2117 0.930 . S
C2132 C2127 1.390 . S
C2132 C2131 1.387 . S
H2133 C2145 0.930 . S
H2134 C2147 0.930 . S
H2135 C2148 0.930 . S
H2136 C2152 0.959 . S
H2137 C2152 0.959 . S
H2138 C2152 0.961 . S
H2139 C2153 0.960 . S
H2140 C2153 0.961 . S
H2141 C2153 0.959 . S
H2142 C2156 0.929 . S
H2143 C2157 0.931 . S
H2144 C2159 0.930 . S
C2145 H2133 0.930 . S
C2145 C2146 1.399 . S
C2145 C2150 1.399 . S
C2146 C2145 1.399 . S
C2146 C2147 1.376 . S
C2147 H2134 0.930 . S
C2147 C2146 1.376 . S
C2147 C2148 1.388 . S
C2148 H2135 0.930 . S
C2148 C2147 1.388 . S
C2148 C2149 1.390 . S
C2149 C2148 1.390 . S
C2149 C2150 1.394 . S
C2149 C2155 1.465 . S
C2150 C2145 1.399 . S
C2150 C2149 1.394 . S
C2150 C2151 1.516 . S
C2151 C2150 1.516 . S
C2151 C2152 1.502 . S
C2151 C2153 1.561 . S
C2151 C2154 1.526 . S
C2152 H2136 0.959 . S
C2152 H2137 0.959 . S
C2152 H2138 0.961 . S
C2152 C2151 1.502 . S
C2153 H2139 0.960 . S
C2153 H2140 0.961 . S
C2153 H2141 0.959 . S
C2153 C2151 1.561 . S
C2154 C2151 1.526 . S
C2154 C2155 1.396 . S
C2154 C2159 1.390 . S
C2155 C2149 1.465 . S
C2155 C2154 1.396 . S
C2155 C2156 1.399 . S
C2156 H2142 0.929 . S
C2156 C2155 1.399 . S
C2156 C2157 1.385 . S
C2157 H2143 0.931 . S
C2157 C2156 1.385 . S
C2157 C2158 1.389 . S
C2158 C2157 1.389 . S
C2158 C2159 1.387 . S
C2159 H2144 0.930 . S
C2159 C2154 1.390 . S
C2159 C2158 1.387 . S
H2160 C2172 0.930 . S
H2161 C2174 0.930 . S
H2162 C2175 0.930 . S
H2163 C2179 0.959 . S
H2164 C2179 0.959 . S
H2165 C2179 0.961 . S
H2166 C2180 0.960 . S
H2167 C2180 0.961 . S
H2168 C2180 0.959 . S
H2169 C2183 0.929 . S
H2170 C2184 0.931 . S
H2171 C2186 0.930 . S
C2172 H2160 0.930 . S
C2172 C2173 1.399 . S
C2172 C2177 1.399 . S
C2173 C2172 1.399 . S
C2173 C2174 1.376 . S
C2174 H2161 0.930 . S
C2174 C2173 1.376 . S
C2174 C2175 1.388 . S
C2175 H2162 0.930 . S
C2175 C2174 1.388 . S
C2175 C2176 1.390 . S
C2176 C2175 1.390 . S
C2176 C2177 1.394 . S
C2176 C2182 1.465 . S
C2177 C2172 1.399 . S
C2177 C2176 1.394 . S
C2177 C2178 1.516 . S
C2178 C2177 1.516 . S
C2178 C2179 1.502 . S
C2178 C2180 1.561 . S
C2178 C2181 1.526 . S
C2179 H2163 0.959 . S
C2179 H2164 0.959 . S
C2179 H2165 0.961 . S
C2179 C2178 1.502 . S
C2180 H2166 0.960 . S
C2180 H2167 0.961 . S
C2180 H2168 0.959 . S
C2180 C2178 1.561 . S
C2181 C2178 1.526 . S
C2181 C2182 1.396 . S
C2181 C2186 1.390 . S
C2182 C2176 1.465 . S
C2182 C2181 1.396 . S
C2182 C2183 1.399 . S
C2183 H2169 0.929 . S
C2183 C2182 1.399 . S
C2183 C2184 1.385 . S
C2184 H2170 0.931 . S
C2184 C2183 1.385 . S
C2184 C2185 1.389 . S
C2185 C2184 1.389 . S
C2185 C2186 1.387 . S
C2186 H2171 0.930 . S
C2186 C2181 1.390 . S
C2186 C2185 1.387 . S
H2187 C2199 0.930 . S
H2188 C2201 0.930 . S
H2189 C2202 0.930 . S
H2190 C2206 0.959 . S
H2191 C2206 0.959 . S
H2192 C2206 0.961 . S
H2193 C2207 0.960 . S
H2194 C2207 0.961 . S
H2195 C2207 0.959 . S
H2196 C2210 0.929 . S
H2197 C2211 0.931 . S
H2198 C2213 0.930 . S
C2199 H2187 0.930 . S
C2199 C2200 1.399 . S
C2199 C2204 1.399 . S
C2200 C2199 1.399 . S
C2200 C2201 1.376 . S
C2201 H2188 0.930 . S
C2201 C2200 1.376 . S
C2201 C2202 1.388 . S
C2202 H2189 0.930 . S
C2202 C2201 1.388 . S
C2202 C2203 1.390 . S
C2203 C2202 1.390 . S
C2203 C2204 1.394 . S
C2203 C2209 1.465 . S
C2204 C2199 1.399 . S
C2204 C2203 1.394 . S
C2204 C2205 1.516 . S
C2205 C2204 1.516 . S
C2205 C2206 1.502 . S
C2205 C2207 1.561 . S
C2205 C2208 1.526 . S
C2206 H2190 0.959 . S
C2206 H2191 0.959 . S
C2206 H2192 0.961 . S
C2206 C2205 1.502 . S
C2207 H2193 0.960 . S
C2207 H2194 0.961 . S
C2207 H2195 0.959 . S
C2207 C2205 1.561 . S
C2208 C2205 1.526 . S
C2208 C2209 1.396 . S
C2208 C2213 1.390 . S
C2209 C2203 1.465 . S
C2209 C2208 1.396 . S
C2209 C2210 1.399 . S
C2210 H2196 0.929 . S
C2210 C2209 1.399 . S
C2210 C2211 1.385 . S
C2211 H2197 0.931 . S
C2211 C2210 1.385 . S
C2211 C2212 1.389 . S
C2212 C2211 1.389 . S
C2212 C2213 1.387 . S
C2213 H2198 0.930 . S
C2213 C2208 1.390 . S
C2213 C2212 1.387 . S
H2214 C2226 0.930 . S
H2215 C2228 0.930 . S
H2216 C2229 0.930 . S
H2217 C2233 0.959 . S
H2218 C2233 0.959 . S
H2219 C2233 0.961 . S
H2220 C2234 0.960 . S
H2221 C2234 0.961 . S
H2222 C2234 0.959 . S
H2223 C2237 0.929 . S
H2224 C2238 0.931 . S
H2225 C2240 0.930 . S
C2226 H2214 0.930 . S
C2226 C2227 1.399 . S
C2226 C2231 1.399 . S
C2227 C2226 1.399 . S
C2227 C2228 1.376 . S
C2228 H2215 0.930 . S
C2228 C2227 1.376 . S
C2228 C2229 1.388 . S
C2229 H2216 0.930 . S
C2229 C2228 1.388 . S
C2229 C2230 1.390 . S
C2230 C2229 1.390 . S
C2230 C2231 1.394 . S
C2230 C2236 1.465 . S
C2231 C2226 1.399 . S
C2231 C2230 1.394 . S
C2231 C2232 1.516 . S
C2232 C2231 1.516 . S
C2232 C2233 1.502 . S
C2232 C2234 1.561 . S
C2232 C2235 1.526 . S
C2233 H2217 0.959 . S
C2233 H2218 0.959 . S
C2233 H2219 0.961 . S
C2233 C2232 1.502 . S
C2234 H2220 0.960 . S
C2234 H2221 0.961 . S
C2234 H2222 0.959 . S
C2234 C2232 1.561 . S
C2235 C2232 1.526 . S
C2235 C2236 1.396 . S
C2235 C2240 1.390 . S
C2236 C2230 1.465 . S
C2236 C2235 1.396 . S
C2236 C2237 1.399 . S
C2237 H2223 0.929 . S
C2237 C2236 1.399 . S
C2237 C2238 1.385 . S
C2238 H2224 0.931 . S
C2238 C2237 1.385 . S
C2238 C2239 1.389 . S
C2239 C2238 1.389 . S
C2239 C2240 1.387 . S
C2240 H2225 0.930 . S
C2240 C2235 1.390 . S
C2240 C2239 1.387 . S
H2241 C2253 0.930 . S
H2242 C2255 0.930 . S
H2243 C2256 0.930 . S
H2244 C2260 0.959 . S
H2245 C2260 0.959 . S
H2246 C2260 0.961 . S
H2247 C2261 0.960 . S
H2248 C2261 0.961 . S
H2249 C2261 0.959 . S
H2250 C2264 0.929 . S
H2251 C2265 0.931 . S
H2252 C2267 0.930 . S
C2253 H2241 0.930 . S
C2253 C2254 1.399 . S
C2253 C2258 1.399 . S
C2254 C2253 1.399 . S
C2254 C2255 1.376 . S
C2255 H2242 0.930 . S
C2255 C2254 1.376 . S
C2255 C2256 1.388 . S
C2256 H2243 0.930 . S
C2256 C2255 1.388 . S
C2256 C2257 1.390 . S
C2257 C2256 1.390 . S
C2257 C2258 1.394 . S
C2257 C2263 1.465 . S
C2258 C2253 1.399 . S
C2258 C2257 1.394 . S
C2258 C2259 1.516 . S
C2259 C2258 1.516 . S
C2259 C2260 1.502 . S
C2259 C2261 1.561 . S
C2259 C2262 1.526 . S
C2260 H2244 0.959 . S
C2260 H2245 0.959 . S
C2260 H2246 0.961 . S
C2260 C2259 1.502 . S
C2261 H2247 0.960 . S
C2261 H2248 0.961 . S
C2261 H2249 0.959 . S
C2261 C2259 1.561 . S
C2262 C2259 1.526 . S
C2262 C2263 1.396 . S
C2262 C2267 1.390 . S
C2263 C2257 1.465 . S
C2263 C2262 1.396 . S
C2263 C2264 1.399 . S
C2264 H2250 0.929 . S
C2264 C2263 1.399 . S
C2264 C2265 1.385 . S
C2265 H2251 0.931 . S
C2265 C2264 1.385 . S
C2265 C2266 1.389 . S
C2266 C2265 1.389 . S
C2266 C2267 1.387 . S
C2267 H2252 0.930 . S
C2267 C2262 1.390 . S
C2267 C2266 1.387 . S
H2268 C2280 0.930 . S
H2269 C2282 0.930 . S
H2270 C2283 0.930 . S
H2271 C2287 0.959 . S
H2272 C2287 0.959 . S
H2273 C2287 0.961 . S
H2274 C2288 0.960 . S
H2275 C2288 0.961 . S
H2276 C2288 0.959 . S
H2277 C2291 0.929 . S
H2278 C2292 0.931 . S
H2279 C2294 0.930 . S
C2280 H2268 0.930 . S
C2280 C2281 1.399 . S
C2280 C2285 1.399 . S
C2281 C2280 1.399 . S
C2281 C2282 1.376 . S
C2282 H2269 0.930 . S
C2282 C2281 1.376 . S
C2282 C2283 1.388 . S
C2283 H2270 0.930 . S
C2283 C2282 1.388 . S
C2283 C2284 1.390 . S
C2284 C2283 1.390 . S
C2284 C2285 1.394 . S
C2284 C2290 1.465 . S
C2285 C2280 1.399 . S
C2285 C2284 1.394 . S
C2285 C2286 1.516 . S
C2286 C2285 1.516 . S
C2286 C2287 1.502 . S
C2286 C2288 1.561 . S
C2286 C2289 1.526 . S
C2287 H2271 0.959 . S
C2287 H2272 0.959 . S
C2287 H2273 0.961 . S
C2287 C2286 1.502 . S
C2288 H2274 0.960 . S
C2288 H2275 0.961 . S
C2288 H2276 0.959 . S
C2288 C2286 1.561 . S
C2289 C2286 1.526 . S
C2289 C2290 1.396 . S
C2289 C2294 1.390 . S
C2290 C2284 1.465 . S
C2290 C2289 1.396 . S
C2290 C2291 1.399 . S
C2291 H2277 0.929 . S
C2291 C2290 1.399 . S
C2291 C2292 1.385 . S
C2292 H2278 0.931 . S
C2292 C2291 1.385 . S
C2292 C2293 1.389 . S
C2293 C2292 1.389 . S
C2293 C2294 1.387 . S
C2294 H2279 0.930 . S
C2294 C2289 1.390 . S
C2294 C2293 1.387 . S
H2295 C2307 0.930 . S
H2296 C2309 0.930 . S
H2297 C2310 0.930 . S
H2298 C2314 0.959 . S
H2299 C2314 0.959 . S
H2300 C2314 0.961 . S
H2301 C2315 0.960 . S
H2302 C2315 0.961 . S
H2303 C2315 0.959 . S
H2304 C2318 0.929 . S
H2305 C2319 0.931 . S
H2306 C2321 0.930 . S
C2307 H2295 0.930 . S
C2307 C2308 1.399 . S
C2307 C2312 1.399 . S
C2308 C2307 1.399 . S
C2308 C2309 1.376 . S
C2309 H2296 0.930 . S
C2309 C2308 1.376 . S
C2309 C2310 1.388 . S
C2310 H2297 0.930 . S
C2310 C2309 1.388 . S
C2310 C2311 1.390 . S
C2311 C2310 1.390 . S
C2311 C2312 1.394 . S
C2311 C2317 1.465 . S
C2312 C2307 1.399 . S
C2312 C2311 1.394 . S
C2312 C2313 1.516 . S
C2313 C2312 1.516 . S
C2313 C2314 1.502 . S
C2313 C2315 1.561 . S
C2313 C2316 1.526 . S
C2314 H2298 0.959 . S
C2314 H2299 0.959 . S
C2314 H2300 0.961 . S
C2314 C2313 1.502 . S
C2315 H2301 0.960 . S
C2315 H2302 0.961 . S
C2315 H2303 0.959 . S
C2315 C2313 1.561 . S
C2316 C2313 1.526 . S
C2316 C2317 1.396 . S
C2316 C2321 1.390 . S
C2317 C2311 1.465 . S
C2317 C2316 1.396 . S
C2317 C2318 1.399 . S
C2318 H2304 0.929 . S
C2318 C2317 1.399 . S
C2318 C2319 1.385 . S
C2319 H2305 0.931 . S
C2319 C2318 1.385 . S
C2319 C2320 1.389 . S
C2320 C2319 1.389 . S
C2320 C2321 1.387 . S
C2321 H2306 0.930 . S
C2321 C2316 1.390 . S
C2321 C2320 1.387 . S
H2322 C2334 0.930 . S
H2323 C2336 0.930 . S
H2324 C2337 0.930 . S
H2325 C2341 0.959 . S
H2326 C2341 0.959 . S
H2327 C2341 0.961 . S
H2328 C2342 0.960 . S
H2329 C2342 0.961 . S
H2330 C2342 0.959 . S
H2331 C2345 0.929 . S
H2332 C2346 0.931 . S
H2333 C2348 0.930 . S
C2334 H2322 0.930 . S
C2334 C2335 1.399 . S
C2334 C2339 1.399 . S
C2335 C2334 1.399 . S
C2335 C2336 1.376 . S
C2336 H2323 0.930 . S
C2336 C2335 1.376 . S
C2336 C2337 1.388 . S
C2337 H2324 0.930 . S
C2337 C2336 1.388 . S
C2337 C2338 1.390 . S
C2338 C2337 1.390 . S
C2338 C2339 1.394 . S
C2338 C2344 1.465 . S
C2339 C2334 1.399 . S
C2339 C2338 1.394 . S
C2339 C2340 1.516 . S
C2340 C2339 1.516 . S
C2340 C2341 1.502 . S
C2340 C2342 1.561 . S
C2340 C2343 1.526 . S
C2341 H2325 0.959 . S
C2341 H2326 0.959 . S
C2341 H2327 0.961 . S
C2341 C2340 1.502 . S
C2342 H2328 0.960 . S
C2342 H2329 0.961 . S
C2342 H2330 0.959 . S
C2342 C2340 1.561 . S
C2343 C2340 1.526 . S
C2343 C2344 1.396 . S
C2343 C2348 1.390 . S
C2344 C2338 1.465 . S
C2344 C2343 1.396 . S
C2344 C2345 1.399 . S
C2345 H2331 0.929 . S
C2345 C2344 1.399 . S
C2345 C2346 1.385 . S
C2346 H2332 0.931 . S
C2346 C2345 1.385 . S
C2346 C2347 1.389 . S
C2347 C2346 1.389 . S
C2347 C2348 1.387 . S
C2348 H2333 0.930 . S
C2348 C2343 1.390 . S
C2348 C2347 1.387 . S
H2349 C2361 0.930 . S
H2350 C2363 0.930 . S
H2351 C2364 0.930 . S
H2352 C2368 0.959 . S
H2353 C2368 0.959 . S
H2354 C2368 0.961 . S
H2355 C2369 0.960 . S
H2356 C2369 0.961 . S
H2357 C2369 0.959 . S
H2358 C2372 0.929 . S
H2359 C2373 0.931 . S
H2360 C2375 0.930 . S
C2361 H2349 0.930 . S
C2361 C2362 1.399 . S
C2361 C2366 1.399 . S
C2362 C2361 1.399 . S
C2362 C2363 1.376 . S
C2363 H2350 0.930 . S
C2363 C2362 1.376 . S
C2363 C2364 1.388 . S
C2364 H2351 0.930 . S
C2364 C2363 1.388 . S
C2364 C2365 1.390 . S
C2365 C2364 1.390 . S
C2365 C2366 1.394 . S
C2365 C2371 1.465 . S
C2366 C2361 1.399 . S
C2366 C2365 1.394 . S
C2366 C2367 1.516 . S
C2367 C2366 1.516 . S
C2367 C2368 1.502 . S
C2367 C2369 1.561 . S
C2367 C2370 1.526 . S
C2368 H2352 0.959 . S
C2368 H2353 0.959 . S
C2368 H2354 0.961 . S
C2368 C2367 1.502 . S
C2369 H2355 0.960 . S
C2369 H2356 0.961 . S
C2369 H2357 0.959 . S
C2369 C2367 1.561 . S
C2370 C2367 1.526 . S
C2370 C2371 1.396 . S
C2370 C2375 1.390 . S
C2371 C2365 1.465 . S
C2371 C2370 1.396 . S
C2371 C2372 1.399 . S
C2372 H2358 0.929 . S
C2372 C2371 1.399 . S
C2372 C2373 1.385 . S
C2373 H2359 0.931 . S
C2373 C2372 1.385 . S
C2373 C2374 1.389 . S
C2374 C2373 1.389 . S
C2374 C2375 1.387 . S
C2375 H2360 0.930 . S
C2375 C2370 1.390 . S
C2375 C2374 1.387 . S
H2376 C2388 0.930 . S
H2377 C2390 0.930 . S
H2378 C2391 0.930 . S
H2379 C2395 0.959 . S
H2380 C2395 0.959 . S
H2381 C2395 0.961 . S
H2382 C2396 0.960 . S
H2383 C2396 0.961 . S
H2384 C2396 0.959 . S
H2385 C2399 0.929 . S
H2386 C2400 0.931 . S
H2387 C2402 0.930 . S
C2388 H2376 0.930 . S
C2388 C2389 1.399 . S
C2388 C2393 1.399 . S
C2389 C2388 1.399 . S
C2389 C2390 1.376 . S
C2390 H2377 0.930 . S
C2390 C2389 1.376 . S
C2390 C2391 1.388 . S
C2391 H2378 0.930 . S
C2391 C2390 1.388 . S
C2391 C2392 1.390 . S
C2392 C2391 1.390 . S
C2392 C2393 1.394 . S
C2392 C2398 1.465 . S
C2393 C2388 1.399 . S
C2393 C2392 1.394 . S
C2393 C2394 1.516 . S
C2394 C2393 1.516 . S
C2394 C2395 1.502 . S
C2394 C2396 1.561 . S
C2394 C2397 1.526 . S
C2395 H2379 0.959 . S
C2395 H2380 0.959 . S
C2395 H2381 0.961 . S
C2395 C2394 1.502 . S
C2396 H2382 0.960 . S
C2396 H2383 0.961 . S
C2396 H2384 0.959 . S
C2396 C2394 1.561 . S
C2397 C2394 1.526 . S
C2397 C2398 1.396 . S
C2397 C2402 1.390 . S
C2398 C2392 1.465 . S
C2398 C2397 1.396 . S
C2398 C2399 1.399 . S
C2399 H2385 0.929 . S
C2399 C2398 1.399 . S
C2399 C2400 1.385 . S
C2400 H2386 0.931 . S
C2400 C2399 1.385 . S
C2400 C2401 1.389 . S
C2401 C2400 1.389 . S
C2401 C2402 1.387 . S
C2402 H2387 0.930 . S
C2402 C2397 1.390 . S
C2402 C2401 1.387 . S
H2403 C2415 0.930 . S
H2404 C2417 0.930 . S
H2405 C2418 0.930 . S
H2406 C2422 0.959 . S
H2407 C2422 0.959 . S
H2408 C2422 0.961 . S
H2409 C2423 0.960 . S
H2410 C2423 0.961 . S
H2411 C2423 0.959 . S
H2412 C2426 0.929 . S
H2413 C2427 0.931 . S
H2414 C2429 0.930 . S
C2415 H2403 0.930 . S
C2415 C2416 1.399 . S
C2415 C2420 1.399 . S
C2416 C2415 1.399 . S
C2416 C2417 1.376 . S
C2417 H2404 0.930 . S
C2417 C2416 1.376 . S
C2417 C2418 1.388 . S
C2418 H2405 0.930 . S
C2418 C2417 1.388 . S
C2418 C2419 1.390 . S
C2419 C2418 1.390 . S
C2419 C2420 1.394 . S
C2419 C2425 1.465 . S
C2420 C2415 1.399 . S
C2420 C2419 1.394 . S
C2420 C2421 1.516 . S
C2421 C2420 1.516 . S
C2421 C2422 1.502 . S
C2421 C2423 1.561 . S
C2421 C2424 1.526 . S
C2422 H2406 0.959 . S
C2422 H2407 0.959 . S
C2422 H2408 0.961 . S
C2422 C2421 1.502 . S
C2423 H2409 0.960 . S
C2423 H2410 0.961 . S
C2423 H2411 0.959 . S
C2423 C2421 1.561 . S
C2424 C2421 1.526 . S
C2424 C2425 1.396 . S
C2424 C2429 1.390 . S
C2425 C2419 1.465 . S
C2425 C2424 1.396 . S
C2425 C2426 1.399 . S
C2426 H2412 0.929 . S
C2426 C2425 1.399 . S
C2426 C2427 1.385 . S
C2427 H2413 0.931 . S
C2427 C2426 1.385 . S
C2427 C2428 1.389 . S
C2428 C2427 1.389 . S
C2428 C2429 1.387 . S
C2429 H2414 0.930 . S
C2429 C2424 1.390 . S
C2429 C2428 1.387 . S
H2430 C2442 0.930 . S
H2431 C2444 0.930 . S
H2432 C2445 0.930 . S
H2433 C2449 0.959 . S
H2434 C2449 0.959 . S
H2435 C2449 0.961 . S
H2436 C2450 0.960 . S
H2437 C2450 0.961 . S
H2438 C2450 0.959 . S
H2439 C2453 0.929 . S
H2440 C2454 0.931 . S
H2441 C2456 0.930 . S
C2442 H2430 0.930 . S
C2442 C2443 1.399 . S
C2442 C2447 1.399 . S
C2443 C2442 1.399 . S
C2443 C2444 1.376 . S
C2444 H2431 0.930 . S
C2444 C2443 1.376 . S
C2444 C2445 1.388 . S
C2445 H2432 0.930 . S
C2445 C2444 1.388 . S
C2445 C2446 1.390 . S
C2446 C2445 1.390 . S
C2446 C2447 1.394 . S
C2446 C2452 1.465 . S
C2447 C2442 1.399 . S
C2447 C2446 1.394 . S
C2447 C2448 1.516 . S
C2448 C2447 1.516 . S
C2448 C2449 1.502 . S
C2448 C2450 1.561 . S
C2448 C2451 1.526 . S
C2449 H2433 0.959 . S
C2449 H2434 0.959 . S
C2449 H2435 0.961 . S
C2449 C2448 1.502 . S
C2450 H2436 0.960 . S
C2450 H2437 0.961 . S
C2450 H2438 0.959 . S
C2450 C2448 1.561 . S
C2451 C2448 1.526 . S
C2451 C2452 1.396 . S
C2451 C2456 1.390 . S
C2452 C2446 1.465 . S
C2452 C2451 1.396 . S
C2452 C2453 1.399 . S
C2453 H2439 0.929 . S
C2453 C2452 1.399 . S
C2453 C2454 1.385 . S
C2454 H2440 0.931 . S
C2454 C2453 1.385 . S
C2454 C2455 1.389 . S
C2455 C2454 1.389 . S
C2455 C2456 1.387 . S
C2456 H2441 0.930 . S
C2456 C2451 1.390 . S
C2456 C2455 1.387 . S
H2457 C2469 0.930 . S
H2458 C2471 0.930 . S
H2459 C2472 0.930 . S
H2460 C2476 0.959 . S
H2461 C2476 0.959 . S
H2462 C2476 0.961 . S
H2463 C2477 0.960 . S
H2464 C2477 0.961 . S
H2465 C2477 0.959 . S
H2466 C2480 0.929 . S
H2467 C2481 0.931 . S
H2468 C2483 0.930 . S
C2469 H2457 0.930 . S
C2469 C2470 1.399 . S
C2469 C2474 1.399 . S
C2470 C2469 1.399 . S
C2470 C2471 1.376 . S
C2471 H2458 0.930 . S
C2471 C2470 1.376 . S
C2471 C2472 1.388 . S
C2472 H2459 0.930 . S
C2472 C2471 1.388 . S
C2472 C2473 1.390 . S
C2473 C2472 1.390 . S
C2473 C2474 1.394 . S
C2473 C2479 1.465 . S
C2474 C2469 1.399 . S
C2474 C2473 1.394 . S
C2474 C2475 1.516 . S
C2475 C2474 1.516 . S
C2475 C2476 1.502 . S
C2475 C2477 1.561 . S
C2475 C2478 1.526 . S
C2476 H2460 0.959 . S
C2476 H2461 0.959 . S
C2476 H2462 0.961 . S
C2476 C2475 1.502 . S
C2477 H2463 0.960 . S
C2477 H2464 0.961 . S
C2477 H2465 0.959 . S
C2477 C2475 1.561 . S
C2478 C2475 1.526 . S
C2478 C2479 1.396 . S
C2478 C2483 1.390 . S
C2479 C2473 1.465 . S
C2479 C2478 1.396 . S
C2479 C2480 1.399 . S
C2480 H2466 0.929 . S
C2480 C2479 1.399 . S
C2480 C2481 1.385 . S
C2481 H2467 0.931 . S
C2481 C2480 1.385 . S
C2481 C2482 1.389 . S
C2482 C2481 1.389 . S
C2482 C2483 1.387 . S
C2483 H2468 0.930 . S
C2483 C2478 1.390 . S
C2483 C2482 1.387 . S
H2484 C2496 0.930 . S
H2485 C2498 0.930 . S
H2486 C2499 0.930 . S
H2487 C2503 0.959 . S
H2488 C2503 0.959 . S
H2489 C2503 0.961 . S
H2490 C2504 0.960 . S
H2491 C2504 0.961 . S
H2492 C2504 0.959 . S
H2493 C2507 0.929 . S
H2494 C2508 0.931 . S
H2495 C2510 0.930 . S
C2496 H2484 0.930 . S
C2496 C2497 1.399 . S
C2496 C2501 1.399 . S
C2497 C2496 1.399 . S
C2497 C2498 1.376 . S
C2498 H2485 0.930 . S
C2498 C2497 1.376 . S
C2498 C2499 1.388 . S
C2499 H2486 0.930 . S
C2499 C2498 1.388 . S
C2499 C2500 1.390 . S
C2500 C2499 1.390 . S
C2500 C2501 1.394 . S
C2500 C2506 1.465 . S
C2501 C2496 1.399 . S
C2501 C2500 1.394 . S
C2501 C2502 1.516 . S
C2502 C2501 1.516 . S
C2502 C2503 1.502 . S
C2502 C2504 1.561 . S
C2502 C2505 1.526 . S
C2503 H2487 0.959 . S
C2503 H2488 0.959 . S
C2503 H2489 0.961 . S
C2503 C2502 1.502 . S
C2504 H2490 0.960 . S
C2504 H2491 0.961 . S
C2504 H2492 0.959 . S
C2504 C2502 1.561 . S
C2505 C2502 1.526 . S
C2505 C2506 1.396 . S
C2505 C2510 1.390 . S
C2506 C2500 1.465 . S
C2506 C2505 1.396 . S
C2506 C2507 1.399 . S
C2507 H2493 0.929 . S
C2507 C2506 1.399 . S
C2507 C2508 1.385 . S
C2508 H2494 0.931 . S
C2508 C2507 1.385 . S
C2508 C2509 1.389 . S
C2509 C2508 1.389 . S
C2509 C2510 1.387 . S
C2510 H2495 0.930 . S
C2510 C2505 1.390 . S
C2510 C2509 1.387 . S
H2511 C2523 0.930 . S
H2512 C2525 0.930 . S
H2513 C2526 0.930 . S
H2514 C2530 0.959 . S
H2515 C2530 0.959 . S
H2516 C2530 0.961 . S
H2517 C2531 0.960 1_554 S
H2518 C2531 0.961 . S
H2519 C2531 0.959 . S
H2520 C2534 0.939 . S
H2521 C2535 0.931 . S
H2522 C2537 0.930 . S
C2523 H2511 0.930 . S
C2523 C2524 1.399 . S
C2523 C2528 1.399 . S
C2524 C2523 1.399 . S
C2524 C2525 1.376 . S
C2525 H2512 0.930 . S
C2525 C2524 1.376 . S
C2525 C2526 1.388 . S
C2526 H2513 0.930 . S
C2526 C2525 1.388 . S
C2526 C2527 1.390 . S
C2527 C2526 1.390 . S
C2527 C2528 1.394 . S
C2527 C2533 1.465 . S
C2528 C2523 1.399 . S
C2528 C2527 1.394 . S
C2528 C2529 1.516 . S
C2529 C2528 1.516 . S
C2529 C2530 1.502 . S
C2529 C2531 1.561 1_554 S
C2529 C2532 1.519 1_554 S
C2530 H2514 0.959 . S
C2530 H2515 0.959 . S
C2530 H2516 0.961 . S
C2530 C2529 1.502 . S
C2531 H2517 0.960 1_556 S
C2531 H2518 0.961 . S
C2531 H2519 0.959 . S
C2531 C2529 1.561 1_556 S
C2532 C2529 1.519 1_556 S
C2532 C2533 1.392 1_556 S
C2532 C2537 1.399 . S
C2533 C2527 1.465 . S
C2533 C2532 1.392 1_554 S
C2533 C2534 1.399 1_554 S
C2534 H2520 0.939 . S
C2534 C2533 1.399 1_556 S
C2534 C2535 1.385 . S
C2535 H2521 0.931 . S
C2535 C2534 1.385 . S
C2535 C2536 1.389 . S
C2536 C2535 1.389 . S
C2536 C2537 1.387 . S
C2537 H2522 0.930 . S
C2537 C2532 1.399 . S
C2537 C2536 1.387 . S
H2538 C2550 0.930 . S
H2539 C2552 0.930 . S
H2540 C2553 0.930 . S
H2541 C2557 0.959 . S
H2542 C2557 0.959 . S
H2543 C2557 0.961 . S
H2544 C2558 0.960 . S
H2545 C2558 0.961 . S
H2546 C2558 0.959 . S
H2547 C2561 0.929 . S
H2548 C2562 0.931 . S
H2549 C2564 0.953 . S
C2550 H2538 0.930 . S
C2550 C2551 1.399 . S
C2550 C2555 1.399 . S
C2551 C2550 1.399 . S
C2551 C2552 1.376 . S
C2552 H2539 0.930 . S
C2552 C2551 1.376 . S
C2552 C2553 1.388 . S
C2553 H2540 0.930 . S
C2553 C2552 1.388 . S
C2553 C2554 1.390 . S
C2554 C2553 1.390 . S
C2554 C2555 1.394 . S
C2554 C2560 1.465 . S
C2555 C2550 1.399 . S
C2555 C2554 1.394 . S
C2555 C2556 1.516 . S
C2556 C2555 1.516 . S
C2556 C2557 1.502 . S
C2556 C2558 1.561 . S
C2556 C2559 1.526 . S
C2557 H2541 0.959 . S
C2557 H2542 0.959 . S
C2557 H2543 0.961 . S
C2557 C2556 1.502 . S
C2558 H2544 0.960 . S
C2558 H2545 0.961 . S
C2558 H2546 0.959 . S
C2558 C2556 1.561 . S
C2559 C2556 1.526 . S
C2559 C2560 1.396 . S
C2559 C2564 1.390 . S
C2560 C2554 1.465 . S
C2560 C2559 1.396 . S
C2560 C2561 1.399 . S
C2561 H2547 0.929 . S
C2561 C2560 1.399 . S
C2561 C2562 1.385 . S
C2562 H2548 0.931 . S
C2562 C2561 1.385 . S
C2562 C2563 1.394 . S
C2563 C2562 1.394 . S
C2563 C2564 1.390 . S
C2564 H2549 0.953 . S
C2564 C2559 1.390 . S
C2564 C2563 1.390 . S
H2565 C2577 0.930 . S
H2566 C2579 0.930 . S
H2567 C2580 0.930 . S
H2568 C2584 0.959 . S
H2569 C2584 0.959 . S
H2570 C2584 0.961 . S
H2571 C2585 0.960 . S
H2572 C2585 0.961 . S
H2573 C2585 0.959 . S
H2574 C2588 0.929 . S
H2575 C2589 0.931 . S
H2576 C2591 0.930 . S
C2577 H2565 0.930 . S
C2577 C2578 1.399 . S
C2577 C2582 1.399 . S
C2578 C2577 1.399 . S
C2578 C2579 1.376 . S
C2579 H2566 0.930 . S
C2579 C2578 1.376 . S
C2579 C2580 1.388 . S
C2580 H2567 0.930 . S
C2580 C2579 1.388 . S
C2580 C2581 1.390 . S
C2581 C2580 1.390 . S
C2581 C2582 1.394 . S
C2581 C2587 1.465 . S
C2582 C2577 1.399 . S
C2582 C2581 1.394 . S
C2582 C2583 1.516 . S
C2583 C2582 1.516 . S
C2583 C2584 1.502 . S
C2583 C2585 1.561 . S
C2583 C2586 1.526 . S
C2584 H2568 0.959 . S
C2584 H2569 0.959 . S
C2584 H2570 0.961 . S
C2584 C2583 1.502 . S
C2585 H2571 0.960 . S
C2585 H2572 0.961 . S
C2585 H2573 0.959 . S
C2585 C2583 1.561 . S
C2586 C2583 1.526 . S
C2586 C2587 1.396 . S
C2586 C2591 1.390 . S
C2587 C2581 1.465 . S
C2587 C2586 1.396 . S
C2587 C2588 1.399 1_554 S
C2588 H2574 0.929 . S
C2588 C2587 1.399 1_556 S
C2588 C2589 1.385 . S
C2589 H2575 0.931 . S
C2589 C2588 1.385 . S
C2589 C2590 1.389 . S
C2590 C2589 1.389 . S
C2590 C2591 1.387 1_556 S
C2591 H2576 0.930 . S
C2591 C2586 1.390 . S
C2591 C2590 1.387 1_554 S
C661 C7 1.344 . S
C673 C565 1.326 . S
C700 C536 1.734 . S
C688 C39 1.755 . S
C727 C552 1.463 . S
C715 C62 1.498 . S
C742 C76 1.675 . S
C754 C617 1.643 . S
C769 C108 1.329 . S
C781 C627 1.340 . S
C796 N117 1.207 . S
C808 C640 1.158 . S
C835 C596 1.307 . S
C823 C16 1.330 . S
C850 C30 1.805 . S
C862 C575 1.753 . S
C889 C593 1.497 . S
C877 C53 1.488 . S
C904 C85 1.774 . S
C916 C502 1.757 1_545 S
C943 C510 1.564 . S
C931 C99 1.608 . S
C958 N127 1.170 . S
C970 C526 1.206 . S
C985 N150 1.107 . S
C997 C643 1.062 . S
C1024 C614 1.508 . S
C1012 N173 1.472 . S
C1051 C630 1.387 . S
C1039 C200 1.397 . S
C1066 C214 1.500 . S
C1078 C461 1.493 . S
C1093 N232 1.370 . S
C1105 C471 1.407 . S
C1120 C260 1.328 . S
C1132 C484 1.349 . S
C1159 C440 1.169 . S
C1147 N140 1.202 . S
C1174 N163 1.238 . S
C1186 C419 1.254 . S
C1213 C437 1.587 . S
C1201 C191 1.568 . S
C1240 C580 1.848 . S
C1228 C223 1.843 . S
C1267 C588 1.331 . S
C1255 N242 1.373 . S
C1294 C604 1.406 . S
C1282 C269 1.408 . S
C1309 N288 1.202 . S
C1321 C487 1.227 . S
C1336 C315 1.484 . S
C1348 C458 1.487 . S
C1363 C338 1.569 . S
C1375 C474 1.523 . S
C1390 C352 1.693 . S
C1402 C539 1.638 . S
C1429 C549 1.390 . S
C1417 N370 1.442 . S
C1456 C562 1.368 1_655 S
C1444 C398 1.431 . S
C1483 C518 1.191 . S
C1471 N278 1.100 . S
C1498 C306 1.724 . S
C1510 C497 1.670 . S
C1525 C329 1.587 . S
C1537 C515 1.591 1_655 S
C1564 C424 1.507 . S
C1552 C361 1.510 . S
C1579 N380 1.415 . S
C1591 C432 1.397 . S
C1618 C448 1.299 . S
C1606 C407 1.374 . S
C1645 C453 1.324 . S
C1633 N12 1.366 . S
C1660 N25 1.499 . S
C1672 C476 1.517 . S
C1699 C489 1.257 . S
C1687 N48 1.205 . S
C1726 C479 1.224 . S
C1714 N81 1.265 . S
C1753 C463 1.487 . S
C1741 N94 1.438 . S
C1780 C466 1.414 . S
C1768 C131 1.463 . S
C1807 C414 1.345 . S
C1795 N2 1.326 . S
C1822 N35 1.460 . S
C1834 C435 1.394 . S
C1849 N58 1.242 . S
C1861 C445 1.247 . S
C1888 C450 1.238 . S
C1876 N71 1.178 . S
C1915 C422 1.258 . S
C1903 N104 1.340 . S
C1942 C427 1.446 . S
C1930 C122 1.497 . S
C1957 C145 1.972 . S
C1969 C531 1.950 . S
C1984 C168 1.678 . S
C1996 C554 1.669 . S
C2011 N186 1.354 . S
C2023 C567 1.352 . S
C2050 C557 1.177 . S
C2038 N219 1.209 . S
C2077 C541 1.739 . S
C2065 C246 1.729 . S
C2104 C544 1.397 . S
C2092 N265 1.391 . S
C2131 C492 1.807 . S
C2119 C154 1.848 . S
C2146 C177 1.753 . S
C2158 C513 1.705 . S
C2173 N196 1.178 . S
C2185 C523 1.206 . S
C2200 N209 1.117 . S
C2212 C528 1.099 . S
C2227 C237 1.788 . S
C2239 C500 1.730 . S
C2266 C505 1.336 . S
C2254 N255 1.296 . S
C2281 C283 1.721 . S
C2293 C609 1.702 . S
C2308 N301 1.382 . S
C2320 C632 1.404 . S
C2335 N324 1.248 . S
C2347 C645 1.233 . S
C2374 C635 1.101 . S
C2362 N357 1.068 . S
C2401 C619 1.733 . S
C2389 C384 1.720 . S
C2416 N403 1.170 . S
C2428 C622 1.164 . S
C2443 C292 1.798 . S
C2455 C570 1.760 . S
C2482 C591 1.252 . S
C2470 N311 1.333 . S
C2497 N334 1.300 . S
C2509 C601 1.325 . S
C2524 N347 1.227 . S
C2536 C606 1.269 . S
C2563 C578 1.794 1_554 S
C2551 C375 1.841 . S
C2578 N393 1.276 . S
C2590 C583 1.264 . S
