# Generated by pormake.
# Topology rtl, (3,6)-cn, num edge types: 1
# Building blocks:
#     Node 0, Type 0, BuildingBlock: WUSLED_clean_sbu_0, # of connection points: 3
#     Node 1, Type 0, BuildingBlock: WUSLED_clean_sbu_0, # of connection points: 3
#     Node 2, Type 0, BuildingBlock: WUSLED_clean_sbu_0, # of connection points: 3
#     Node 3, Type 0, BuildingBlock: WUSLED_clean_sbu_0, # of connection points: 3
#     Node 4, Type 1, BuildingBlock: LEVNOQ01_clean_sbu_1, # of connection points: 6
#     Node 5, Type 1, BuildingBlock: LEVNOQ01_clean_sbu_1, # of connection points: 6
#     Edge 6, Type (0, 1), BuildingBlock: AJUNOK_clean_linker_0, # of connection points: 2
#     Edge 7, Type (0, 1), BuildingBlock: AJUNOK_clean_linker_0, # of connection points: 2
#     Edge 8, Type (0, 1), BuildingBlock: AJUNOK_clean_linker_0, # of connection points: 2
#     Edge 9, Type (0, 1), BuildingBlock: AJUNOK_clean_linker_0, # of connection points: 2
#     Edge 10, Type (0, 1), BuildingBlock: AJUNOK_clean_linker_0, # of connection points: 2
#     Edge 11, Type (0, 1), BuildingBlock: AJUNOK_clean_linker_0, # of connection points: 2
#     Edge 12, Type (0, 1), BuildingBlock: AJUNOK_clean_linker_0, # of connection points: 2
#     Edge 13, Type (0, 1), BuildingBlock: AJUNOK_clean_linker_0, # of connection points: 2
#     Edge 14, Type (0, 1), BuildingBlock: AJUNOK_clean_linker_0, # of connection points: 2
#     Edge 15, Type (0, 1), BuildingBlock: AJUNOK_clean_linker_0, # of connection points: 2
#     Edge 16, Type (0, 1), BuildingBlock: AJUNOK_clean_linker_0, # of connection points: 2
#     Edge 17, Type (0, 1), BuildingBlock: AJUNOK_clean_linker_0, # of connection points: 2
# Relax obj value: 0.023
# Max RMSD: 0.058
# Mean RMSD: 0.042
data_MOF--net-rtl--node1-WUSLED_clean_sbu_0--node2-LEVNOQ01_clean_sbu_1--edge1-AJUNOK_clean_linker_0
_symmetry_space_group_name_H-M    P1
_symmetry_Int_Tables_number       1
_symmetry_cell_setting            triclinic
loop_
_symmetry_equiv_pos_as_xyz
'x, y, z'
_cell_length_a     32.039326
_cell_length_b     36.014696
_cell_length_c     24.388258
_cell_angle_alpha  90.724904
_cell_angle_beta   98.651019
_cell_angle_gamma 89.10271
loop_
_atom_site_label
_atom_site_type_symbol
_atom_site_fract_x
_atom_site_fract_y
_atom_site_fract_z
_atom_type_partial_charge
C0 C 0.26208 0.92203 0.27736 0.0
C1 C 0.23789 0.95412 0.26223 0.0
C2 C 0.21146 0.95437 0.35103 0.0
C3 C 0.21292 0.97023 0.29885 0.0
C4 C 0.23696 0.92299 0.36662 0.0
C5 C 0.26207 0.90704 0.33012 0.0
U6 U 0.27804 0.899 0.1286 0.0
O7 O 0.33607 0.88628 0.09301 0.0
O8 O 0.28601 0.84488 0.089 0.0
C9 C 0.32416 0.85226 0.079 0.0
C10 C 0.28445 0.90199 0.23722 0.0
C11 C 0.35582 0.82245 0.09206 0.0
C12 C 0.38933 0.77373 0.1524 0.0
C13 C 0.36293 0.80528 0.14412 0.0
C14 C 0.40261 0.77736 0.05743 0.0
C15 C 0.4086 0.75884 0.10857 0.0
C16 C 0.37661 0.8088 0.04938 0.0
C17 C 0.20662 0.94631 1.00844 0.0
C18 C 0.20337 0.92743 0.91169 0.0
C19 C 0.15817 0.9774 0.93695 0.0
C20 C 0.17566 0.97355 0.9926 0.0
C21 C 0.17131 0.954 0.89607 0.0
C22 C 0.22076 0.92343 0.96767 0.0
C23 C 0.222 0.94117 0.06783 0.0
O24 O 0.26166 0.87733 0.20637 0.0
O25 O 0.30749 0.92218 0.20896 0.0
O26 O 0.26082 0.95177 0.08555 0.0
O27 O 0.213 0.9091 0.08794 0.0
H28 H 0.23719 0.96596 0.22148 0.0
H29 H 0.19352 0.99432 0.28556 0.0
H30 H 0.23572 0.90946 0.40573 0.0
H31 H 0.28021 0.88205 0.34227 0.0
H32 H 0.39385 0.76053 0.19254 0.0
H33 H 0.34712 0.81557 0.17765 0.0
H34 H 0.41639 0.7665 1.02249 0.0
H35 H 0.37134 0.8216 1.00889 0.0
H36 H 0.21428 0.90935 0.88079 0.0
H37 H 0.13429 0.99872 0.92578 0.0
H38 H 0.16456 0.99156 1.02345 0.0
H39 H 0.24473 0.90224 0.97924 0.0
C40 C 0.72591 0.64065 0.75683 0.0
C41 C 0.68918 0.62286 0.7316 0.0
C42 C 0.67474 0.6031 0.82181 0.0
C43 C 0.6637 0.60442 0.76387 0.0
C44 C 0.71272 0.61918 0.84668 0.0
C45 C 0.73811 0.63794 0.81433 0.0
U46 U 0.74849 0.66864 0.61612 0.0
O47 O 0.75592 0.72314 0.57983 0.0
O48 O 0.80783 0.68204 0.58549 0.0
C49 C 0.79547 0.71643 0.57388 0.0
C50 C 0.75009 0.66353 0.72353 0.0
C51 C 0.82602 0.74586 0.59326 0.0
C52 C 0.84459 0.80371 0.64337 0.0
C53 C 0.81738 0.7736 0.63131 0.0
C54 C 0.8903 0.77779 0.58171 0.0
C55 C 0.88105 0.8064 0.61804 0.0
C56 C 0.86312 0.74787 0.56957 0.0
C57 C 0.68364 0.6142 0.49441 0.0
C58 C 0.67352 0.6272 0.3956 0.0
C59 C 0.65129 0.5685 0.4284 0.0
C60 C 0.66529 0.57945 0.48289 0.0
C61 C 0.65565 0.59202 0.38416 0.0
C62 C 0.68771 0.63821 0.45059 0.0
C63 C 0.6974 0.62422 0.55277 0.0
O64 O 0.77658 0.64522 0.69658 0.0
O65 O 0.72755 0.68867 0.69306 0.0
O66 O 0.6858 0.65719 0.56921 0.0
O67 O 0.73641 0.61494 0.57318 0.0
H68 H 0.67944 0.62437 0.68716 0.0
H69 H 0.63458 0.5922 0.74376 0.0
H70 H 0.72164 0.61891 0.89131 0.0
H71 H 0.76648 0.65138 0.83439 0.0
H72 H 0.83651 0.82543 0.67121 0.0
H73 H 0.78897 0.77271 0.65033 0.0
H74 H 0.9174 0.77948 0.56018 0.0
H75 H 0.87026 0.72699 0.53982 0.0
H76 H 0.67688 0.64588 0.36211 0.0
H77 H 0.63663 0.54164 0.42085 0.0
H78 H 0.66158 0.56074 0.51623 0.0
H79 H 0.70174 0.66526 0.45889 0.0
C80 C 0.79739 0.14457 0.17912 0.0
C81 C 0.82001 0.11165 0.1718 0.0
C82 C 0.8483 0.11136 0.27043 0.0
C83 C 0.84509 0.09506 0.21718 0.0
C84 C 0.82495 0.14396 0.27753 0.0
C85 C 0.7998 0.16043 0.23225 0.0
U86 U 0.76582 0.15931 1.02305 0.0
O87 O 0.70485 0.17648 0.9752 0.0
O88 O 0.76031 0.21159 0.97676 0.0
C89 C 0.71937 0.20856 0.96178 0.0
C90 C 0.77296 0.16386 0.13168 0.0
C91 C 0.69437 0.24165 0.97316 0.0
C92 C 0.66567 0.28283 0.03817 0.0
C93 C 0.68682 0.24993 0.02717 0.0
C94 C 0.65849 0.29919 0.94111 0.0
C95 C 0.65207 0.30818 0.99545 0.0
C96 C 0.67966 0.26623 0.93013 0.0
C97 C 0.81777 0.09695 0.92197 0.0
C98 C 0.82387 0.11305 0.82704 0.0
C99 C 0.85665 0.05646 0.86663 0.0
C100 C 0.84086 0.06417 0.91601 0.0
C101 C 0.84975 0.08154 0.82239 0.0
C102 C 0.80815 0.12081 0.87661 0.0
C103 C 0.80867 0.1077 0.97742 0.0
O104 O 0.79557 0.18348 0.10227 0.0
O105 O 0.74349 0.14453 0.10103 0.0
O106 O 0.76988 0.10295 0.98727 0.0
O107 O 0.82474 0.13948 0.99656 0.0
H108 H 0.81854 0.09902 0.131 0.0
H109 H 0.86185 0.06942 0.21062 0.0
H110 H 0.82677 0.15713 0.31798 0.0
H111 H 0.78268 0.18593 0.23858 0.0
H112 H 0.66026 0.28863 0.08025 0.0
H113 H 0.69785 0.23124 0.06092 0.0
H114 H 0.6482 0.31815 0.90748 0.0
H115 H 0.68528 0.26026 0.88818 0.0
H116 H 0.81739 0.13254 0.79325 0.0
H117 H 0.87658 0.03207 0.86444 0.0
H118 H 0.8486 0.04546 0.95062 0.0
H119 H 0.79021 0.14622 0.88042 0.0
C120 C 0.27322 0.46116 0.3736 0.0
C121 C 0.31638 0.46597 0.39227 0.0
C122 C 0.32679 0.48377 0.29915 0.0
C123 C 0.34294 0.47746 0.35533 0.0
C124 C 0.28296 0.48243 0.28229 0.0
C125 C 0.25641 0.47143 0.3194 0.0
U126 U 0.23223 0.40329 0.49209 0.0
O127 O 0.16629 0.38452 0.48817 0.0
O128 O 0.21687 0.34515 0.47376 0.0
C129 C 0.17647 0.35023 0.47583 0.0
C130 C 0.24778 0.43663 0.40255 0.0
C131 C 0.15479 0.31937 0.49759 0.0
C132 C 0.0998 0.2734 0.47727 0.0
C133 C 0.11682 0.30752 0.46657 0.0
C134 C 0.15722 0.26361 0.55274 0.0
C135 C 0.12065 0.25052 0.51915 0.0
C136 C 0.17437 0.29774 0.54182 0.0
C137 C 0.29691 0.42702 0.64568 0.0
C138 C 0.2976 0.44516 0.74233 0.0
C139 C 0.36348 0.43788 0.70565 0.0
C140 C 0.34121 0.42771 0.65398 0.0
C141 C 0.34184 0.44691 0.75012 0.0
C142 C 0.27527 0.43563 0.69032 0.0
C143 C 0.27345 0.41846 0.59022 0.0
O144 O 0.26639 0.40567 0.42148 0.0
O145 O 0.22116 0.45061 0.43372 0.0
O146 O 0.23712 0.43465 0.57128 0.0
O147 O 0.28761 0.39415 0.55647 0.0
H148 H 0.33005 0.45789 0.43384 0.0
H149 H 0.3766 0.47866 0.36962 0.0
H150 H 0.26952 0.48647 0.23929 0.0
H151 H 0.22324 0.46737 0.30404 0.0
H152 H 0.07146 0.26412 0.45109 0.0
H153 H 0.10153 0.32373 0.43189 0.0
H154 H 0.17317 0.24698 0.58648 0.0
H155 H 0.20379 0.3064 0.56615 0.0
H156 H 0.2803 0.45232 0.77597 0.0
H157 H 0.39761 0.43918 0.71077 0.0
H158 H 0.35857 0.42136 0.62011 0.0
H159 H 0.24109 0.43521 0.6849 0.0
O160 O 1.00576 0.06711 0.69307 0.0
Mg161 Mg 0.05657 0.06409 0.64749 0.0
O162 O 0.96539 0.03933 0.62429 0.0
Mg163 Mg 0.0177 0.02019 0.57153 0.0
O164 O 0.04789 0.0811 0.56735 0.0
O165 O 0.07516 0.116 0.64146 0.0
O166 O 0.07187 1.00232 0.5188 0.0
O167 O 0.9733 0.04493 0.49299 0.0
Mg168 Mg 0.98737 0.96608 0.48973 0.0
O169 O 0.98503 0.96106 0.57301 0.0
O170 O 0.04391 0.96024 0.45859 0.0
O171 O 0.94172 0.99893 0.44355 0.0
O172 O 0.96475 0.91724 0.50769 0.0
C173 C 0.09607 1.0013 0.67965 0.0
C174 C 0.96976 0.0562 0.67104 0.0
C175 C 0.06488 0.11178 0.58873 0.0
C176 C 0.07477 0.98009 0.47823 0.0
C177 C 0.94652 0.03321 0.45253 0.0
C178 C 0.96868 0.9287 0.55847 0.0
O179 O 0.1108 0.03301 0.67511 0.0
O180 O 0.06032 0.99351 0.65138 0.0
O181 O 0.55733 0.49724 0.19068 0.0
Mg182 Mg 0.52266 0.46841 0.12436 0.0
O183 O 0.55703 0.54478 0.1354 0.0
Mg184 Mg 0.50919 0.52351 0.05995 0.0
O185 O 0.54494 0.46372 0.05014 0.0
O186 O 0.55655 0.42236 0.11978 0.0
O187 O 0.46271 0.49874 0.98139 0.0
O188 O 0.55787 0.54262 1.00355 0.0
Mg189 Mg 0.46643 0.5666 0.99321 0.0
O190 O 0.48146 0.58571 0.07272 0.0
O191 O 0.41021 0.53829 0.9702 0.0
O192 O 0.51141 0.56684 0.93831 0.0
O193 O 0.45105 0.62009 1.00055 0.0
C194 C 0.44302 0.47974 0.13705 0.0
C195 C 0.5695 0.52943 0.18177 0.0
C196 C 0.56139 0.43248 0.07082 0.0
C197 C 0.42527 0.50724 0.95876 0.0
C198 C 0.54916 0.55756 0.95604 0.0
C199 C 0.46509 0.61699 0.05255 0.0
O200 O 0.46338 0.44994 0.13364 0.0
O201 O 0.4566 0.50918 0.11741 0.0
C202 C 0.06199 0.20766 0.53182 0.0
C203 C 0.10476 0.21279 0.52697 0.0
C204 C 0.04754 0.17296 0.54584 0.0
C205 C 0.07523 0.14228 0.55431 0.0
H206 H 0.04015 0.23109 0.52812 0.0
H207 H 0.01533 0.17077 0.55392 0.0
S208 S 0.18848 0.13974 0.53931 0.0
N209 N 0.1734 0.18316 0.52578 0.0
N210 N 0.14608 0.11816 0.55267 0.0
C211 C 0.11716 0.14637 0.54571 0.0
C212 C 0.13199 0.1816 0.53187 0.0
C213 C 0.46791 0.71773 0.0872 0.0
C214 C 0.43151 0.72237 0.11268 0.0
C215 C 0.48247 0.68232 0.0742 0.0
C216 C 0.46178 0.65025 0.08726 0.0
H217 H 0.48313 0.74167 0.07293 0.0
H218 H 0.50774 0.68013 0.0493 0.0
S219 S 0.37059 0.64666 0.16359 0.0
N220 N 0.37886 0.69144 0.15748 0.0
N221 N 0.40727 0.62482 0.13405 0.0
C222 C 0.42871 0.6542 0.1186 0.0
C223 C 0.41339 0.69034 0.13129 0.0
C224 C 0.88551 0.87547 0.61138 0.0
C225 C 0.90625 0.84101 0.62265 0.0
C226 C 0.90777 0.90674 0.59879 0.0
C227 C 0.95142 0.90461 0.59741 0.0
H228 H 0.85139 0.87745 0.6068 0.0
H229 H 0.89002 0.93147 0.58417 0.0
S230 S 0.02166 0.82352 0.63547 0.0
N231 N 0.97401 0.80866 0.64128 0.0
N232 N 0.01546 0.86733 0.61626 0.0
C233 C 0.97311 0.87172 0.61476 0.0
C234 C 0.95059 0.8399 0.62772 0.0
C235 C 0.59259 0.35528 0.97881 0.0
C236 C 0.63205 0.34417 1.00818 0.0
C237 C 0.5709 0.3868 0.9955 0.0
C238 C 0.58835 0.4082 0.0416 0.0
H239 H 0.57731 0.33832 0.94485 0.0
H240 H 0.53921 0.39283 0.97484 0.0
S241 S 0.69304 0.39416 0.12719 0.0
N242 N 0.68947 0.35971 0.08146 0.0
N243 N 0.64869 0.41843 0.1128 0.0
C244 C 0.62893 0.39889 0.06856 0.0
C245 C 0.65081 0.36698 0.05189 0.0
C246 C 0.13692 0.97119 0.35917 0.0
C247 C 0.17891 0.96688 0.38515 0.0
C248 C 0.10408 0.9772 0.3901 0.0
C249 C 0.11169 0.97951 0.44837 0.0
H250 H 0.12892 0.96796 0.31461 0.0
H251 H 0.0721 0.97896 0.3681 0.0
S252 S 0.21629 0.97438 0.53653 0.0
N253 N 0.22682 0.96849 0.47265 0.0
N254 N 0.16452 0.98003 0.53092 0.0
C255 C 0.15363 0.97755 0.47501 0.0
C256 C 0.18734 0.97101 0.44337 0.0
C257 C 0.60301 0.60512 0.84866 0.0
C258 C 0.64385 0.58952 0.85623 0.0
C259 C 0.57298 0.59424 0.88099 0.0
C260 C 0.58239 0.56723 0.92249 0.0
H261 H 0.59434 0.62649 0.81797 0.0
H262 H 0.54219 0.60769 0.87372 0.0
S263 S 0.68438 0.5163 0.95672 0.0
N264 N 0.69212 0.54478 0.90669 0.0
N265 N 0.6354 0.52413 0.96804 0.0
C266 C 0.62313 0.55109 0.93033 0.0
C267 C 0.65391 0.56229 0.89711 0.0
C268 C 0.85946 0.08906 0.3688 0.0
C269 C 0.87551 0.09437 0.31873 0.0
C270 C 0.88368 0.0712 0.41392 0.0
C271 C 0.9249 0.05864 0.41071 0.0
H272 H 0.82738 0.0975 0.3724 0.0
H273 H 0.86955 0.06593 0.45069 0.0
S274 S 0.98283 0.06747 0.29122 0.0
N275 N 0.93632 0.08713 0.27028 0.0
N276 N 0.98141 0.05334 0.35507 0.0
C277 C 0.94185 0.06472 0.3619 0.0
C278 C 0.91727 0.08266 0.31588 0.0
C279 C 0.36339 0.44245 0.85346 0.0
C280 C 0.36519 0.4609 0.80324 0.0
C281 C 0.38433 0.45651 0.90423 0.0
C282 C 0.40702 0.48965 0.906 0.0
H283 H 0.34555 0.41715 0.85341 0.0
H284 H 0.38185 0.44203 0.94224 0.0
S285 S 0.42041 0.5488 0.78671 0.0
N286 N 0.39124 0.514 0.7589 0.0
N287 N 0.42995 0.54057 0.85392 0.0
C288 C 0.40913 0.50813 0.85614 0.0
C289 C 0.38835 0.49373 0.80479 0.0
C290 C 0.6101 0.60034 0.29183 0.0
C291 C 0.64041 0.57933 0.32671 0.0
C292 C 0.58905 0.58511 0.24205 0.0
C293 C 0.59763 0.54843 0.22627 0.0
H294 H 0.60073 0.62773 0.30475 0.0
H295 H 0.56405 0.60112 0.21788 0.0
S296 S 0.67966 0.48477 0.29773 0.0
N297 N 0.68222 0.52228 0.33769 0.0
N298 N 0.64212 0.49347 0.24511 0.0
C299 C 0.63013 0.52839 0.25854 0.0
C300 C 0.65171 0.54392 0.30857 0.0
C301 C 0.87739 0.04235 0.74892 0.0
C302 C 0.87434 0.07712 0.77548 0.0
C303 C 0.90629 0.03616 0.71149 0.0
C304 C 0.93349 0.06439 0.70031 0.0
H305 H 0.85842 0.01942 0.75874 0.0
H306 H 0.90912 0.00861 0.69394 0.0
S307 S 0.93615 0.16089 0.7553 0.0
N308 N 0.89952 0.14061 0.78484 0.0
N309 N 0.95355 0.12887 0.71498 0.0
C310 C 0.92925 0.09965 0.72426 0.0
C311 C 0.89972 0.10607 0.7617 0.0
C312 C 0.38809 0.45773 0.25918 0.0
C313 C 0.35588 0.48483 0.25707 0.0
C314 C 0.4149 0.45591 0.2191 0.0
C315 C 0.41107 0.48131 0.17513 0.0
H316 H 0.3923 0.43719 0.29172 0.0
H317 H 0.43948 0.43468 0.22346 0.0
S318 S 0.32993 0.55588 0.14795 0.0
N319 N 0.32011 0.53657 0.20567 0.0
N320 N 0.37128 0.53335 0.13021 0.0
C321 C 0.37869 0.5083 0.1718 0.0
C322 C 0.35084 0.50992 0.21261 0.0
C323 C 0.17696 0.96663 0.79672 0.0
C324 C 0.15179 0.95824 0.83729 0.0
C325 C 0.15852 0.97749 0.74333 0.0
C326 C 0.11436 0.97944 0.7284 0.0
H327 H 0.21102 0.9672 0.80738 0.0
H328 H 0.1789 0.98643 0.71451 0.0
S329 S 0.03478 0.95678 0.81809 0.0
N330 N 0.08066 0.9499 0.85785 0.0
N331 N 0.04607 0.96976 0.75735 0.0
C332 C 0.08896 0.9685 0.76736 0.0
C333 C 0.10769 0.95811 0.82193 0.0
loop_
_geom_bond_atom_site_label_1
_geom_bond_atom_site_label_2
_geom_bond_distance
_geom_bond_site_symmetry_2
_ccdc_geom_bond_type
C0 C1 1.264 . S
C0 C5 1.479 . S
C0 C10 1.465 . S
C1 C0 1.264 . S
C1 C3 1.339 . S
C1 H28 0.931 . S
C2 C3 1.395 . S
C2 C4 1.320 . S
C3 C1 1.339 . S
C3 C2 1.395 . S
C3 H29 0.950 . S
C4 C2 1.320 . S
C4 C5 1.405 . S
C4 H30 0.930 . S
C5 C0 1.479 . S
C5 C4 1.405 . S
C5 H31 0.931 . S
U6 O7 2.454 . S
U6 O8 2.458 . S
U6 C9 2.984 . S
U6 C10 2.847 . S
U6 C23 2.882 1_554 S
U6 O24 2.441 . S
U6 O25 2.420 . S
U6 O26 2.455 . S
U6 O27 2.449 . S
O7 U6 2.454 . S
O7 C9 1.353 . S
O8 U6 2.458 . S
O8 C9 1.286 . S
C9 U6 2.984 . S
C9 O7 1.353 . S
C9 O8 1.286 . S
C9 C11 1.363 . S
C10 C0 1.465 . S
C10 U6 2.847 . S
C10 O24 1.249 . S
C10 O25 1.202 . S
C11 C9 1.363 . S
C11 C13 1.408 . S
C11 C16 1.342 . S
C12 C13 1.310 . S
C12 C15 1.461 . S
C12 H32 0.932 . S
C13 C11 1.408 . S
C13 C12 1.310 . S
C13 H33 0.930 . S
C14 C15 1.474 . S
C14 C16 1.285 . S
C14 H34 0.929 . S
C15 C12 1.461 . S
C15 C14 1.474 . S
C16 C11 1.342 . S
C16 C14 1.285 . S
C16 H35 0.930 . S
C17 C20 1.424 . S
C17 C22 1.245 . S
C17 C23 1.428 . S
C18 C21 1.260 . S
C18 C22 1.477 . S
C18 H36 0.932 . S
C19 C20 1.384 . S
C19 C21 1.479 . S
C19 H37 0.929 1_565 S
C20 C17 1.424 . S
C20 C19 1.384 . S
C20 H38 0.928 . S
C21 C18 1.260 . S
C21 C19 1.479 . S
C22 C17 1.245 . S
C22 C18 1.477 . S
C22 H39 0.932 . S
C23 U6 2.882 1_556 S
C23 C17 1.428 . S
C23 O26 1.301 1_556 S
C23 O27 1.282 1_556 S
O24 U6 2.441 . S
O24 C10 1.249 . S
O25 U6 2.420 . S
O25 C10 1.202 . S
O26 U6 2.455 . S
O26 C23 1.301 1_554 S
O27 U6 2.449 . S
O27 C23 1.282 1_554 S
H28 C1 0.931 . S
H29 C3 0.950 . S
H30 C4 0.930 . S
H31 C5 0.931 . S
H32 C12 0.932 . S
H33 C13 0.930 . S
H34 C14 0.929 . S
H35 C16 0.930 . S
H36 C18 0.932 . S
H37 C19 0.929 1_545 S
H38 C20 0.928 . S
H39 C22 0.932 . S
C40 C41 1.264 . S
C40 C45 1.479 . S
C40 C50 1.465 . S
C41 C40 1.264 . S
C41 C43 1.339 . S
C41 H68 0.931 . S
C42 C43 1.395 . S
C42 C44 1.320 . S
C43 C41 1.339 . S
C43 C42 1.395 . S
C43 H69 0.929 . S
C44 C42 1.320 . S
C44 C45 1.405 . S
C44 H70 0.930 . S
C45 C40 1.479 . S
C45 C44 1.405 . S
C45 H71 0.931 . S
U46 O47 2.454 . S
U46 O48 2.458 . S
U46 C49 2.984 . S
U46 C50 2.847 . S
U46 C63 2.882 . S
U46 O64 2.441 . S
U46 O65 2.420 . S
U46 O66 2.455 . S
U46 O67 2.449 . S
O47 U46 2.454 . S
O47 C49 1.353 . S
O48 U46 2.458 . S
O48 C49 1.286 . S
C49 U46 2.984 . S
C49 O47 1.353 . S
C49 O48 1.286 . S
C49 C51 1.363 . S
C50 C40 1.465 . S
C50 U46 2.847 . S
C50 O64 1.249 . S
C50 O65 1.202 . S
C51 C49 1.363 . S
C51 C53 1.408 . S
C51 C56 1.342 . S
C52 C53 1.310 . S
C52 C55 1.461 . S
C52 H72 0.932 . S
C53 C51 1.408 . S
C53 C52 1.310 . S
C53 H73 0.930 . S
C54 C55 1.474 . S
C54 C56 1.285 . S
C54 H74 0.929 . S
C55 C52 1.461 . S
C55 C54 1.474 . S
C56 C51 1.342 . S
C56 C54 1.285 . S
C56 H75 0.930 . S
C57 C60 1.424 . S
C57 C62 1.245 . S
C57 C63 1.428 . S
C58 C61 1.260 . S
C58 C62 1.477 . S
C58 H76 0.932 . S
C59 C60 1.384 . S
C59 C61 1.479 . S
C59 H77 0.929 . S
C60 C57 1.424 . S
C60 C59 1.384 . S
C60 H78 0.928 . S
C61 C58 1.260 . S
C61 C59 1.479 . S
C62 C57 1.245 . S
C62 C58 1.477 . S
C62 H79 0.932 . S
C63 U46 2.882 . S
C63 C57 1.428 . S
C63 O66 1.301 . S
C63 O67 1.282 . S
O64 U46 2.441 . S
O64 C50 1.249 . S
O65 U46 2.420 . S
O65 C50 1.202 . S
O66 U46 2.455 . S
O66 C63 1.301 . S
O67 U46 2.449 . S
O67 C63 1.282 . S
H68 C41 0.931 . S
H69 C43 0.929 . S
H70 C44 0.930 . S
H71 C45 0.931 . S
H72 C52 0.932 . S
H73 C53 0.930 . S
H74 C54 0.929 . S
H75 C56 0.930 . S
H76 C58 0.932 . S
H77 C59 0.929 . S
H78 C60 0.928 . S
H79 C62 0.932 . S
C80 C81 1.264 . S
C80 C85 1.479 . S
C80 C90 1.465 . S
C81 C80 1.264 . S
C81 C83 1.339 . S
C81 H108 0.931 . S
C82 C83 1.395 . S
C82 C84 1.320 . S
C83 C81 1.339 . S
C83 C82 1.395 . S
C83 H109 0.929 . S
C84 C82 1.320 . S
C84 C85 1.405 . S
C84 H110 0.930 . S
C85 C80 1.479 . S
C85 C84 1.405 . S
C85 H111 0.931 . S
U86 O87 2.454 . S
U86 O88 2.458 1_554 S
U86 C89 2.984 1_554 S
U86 C90 2.847 . S
U86 C103 2.882 1_554 S
U86 O104 2.441 . S
U86 O105 2.420 . S
U86 O106 2.455 1_554 S
U86 O107 2.449 1_554 S
O87 U86 2.454 . S
O87 C89 1.353 1_554 S
O88 U86 2.458 1_556 S
O88 C89 1.286 . S
C89 U86 2.984 1_556 S
C89 O87 1.353 1_556 S
C89 O88 1.286 . S
C89 C91 1.363 . S
C90 C80 1.465 . S
C90 U86 2.847 . S
C90 O104 1.249 . S
C90 O105 1.202 . S
C91 C89 1.363 . S
C91 C93 1.408 1_556 S
C91 C96 1.342 . S
C92 C93 1.310 . S
C92 C95 1.461 1_554 S
C92 H112 0.932 . S
C93 C91 1.408 1_554 S
C93 C92 1.310 . S
C93 H113 0.930 . S
C94 C95 1.474 . S
C94 C96 1.285 . S
C94 H114 0.929 . S
C95 C92 1.461 1_556 S
C95 C94 1.474 . S
C96 C91 1.342 . S
C96 C94 1.285 . S
C96 H115 0.930 . S
C97 C100 1.424 . S
C97 C102 1.245 . S
C97 C103 1.428 . S
C98 C101 1.260 . S
C98 C102 1.477 . S
C98 H116 0.932 . S
C99 C100 1.384 . S
C99 C101 1.479 . S
C99 H117 0.929 . S
C100 C97 1.424 . S
C100 C99 1.384 . S
C100 H118 0.928 . S
C101 C98 1.260 . S
C101 C99 1.479 . S
C102 C97 1.245 . S
C102 C98 1.477 . S
C102 H119 0.932 . S
C103 U86 2.882 1_556 S
C103 C97 1.428 . S
C103 O106 1.301 . S
C103 O107 1.282 . S
O104 U86 2.441 . S
O104 C90 1.249 . S
O105 U86 2.420 . S
O105 C90 1.202 . S
O106 U86 2.455 1_556 S
O106 C103 1.301 . S
O107 U86 2.449 1_556 S
O107 C103 1.282 . S
H108 C81 0.931 . S
H109 C83 0.929 . S
H110 C84 0.930 . S
H111 C85 0.931 . S
H112 C92 0.932 . S
H113 C93 0.930 . S
H114 C94 0.929 . S
H115 C96 0.930 . S
H116 C98 0.932 . S
H117 C99 0.929 . S
H118 C100 0.928 . S
H119 C102 0.932 . S
C120 C121 1.264 . S
C120 C125 1.479 . S
C120 C130 1.465 . S
C121 C120 1.264 . S
C121 C123 1.339 . S
C121 H148 0.931 . S
C122 C123 1.395 . S
C122 C124 1.320 . S
C123 C121 1.339 . S
C123 C122 1.395 . S
C123 H149 0.929 . S
C124 C122 1.320 . S
C124 C125 1.405 . S
C124 H150 0.930 . S
C125 C120 1.479 . S
C125 C124 1.405 . S
C125 H151 0.931 . S
U126 O127 2.454 . S
U126 O128 2.458 . S
U126 C129 2.984 . S
U126 C130 2.847 . S
U126 C143 2.882 . S
U126 O144 2.441 . S
U126 O145 2.420 . S
U126 O146 2.455 . S
U126 O147 2.449 . S
O127 U126 2.454 . S
O127 C129 1.353 . S
O128 U126 2.458 . S
O128 C129 1.286 . S
C129 U126 2.984 . S
C129 O127 1.353 . S
C129 O128 1.286 . S
C129 C131 1.363 . S
C130 C120 1.465 . S
C130 U126 2.847 . S
C130 O144 1.249 . S
C130 O145 1.202 . S
C131 C129 1.363 . S
C131 C133 1.408 . S
C131 C136 1.342 . S
C132 C133 1.310 . S
C132 C135 1.461 . S
C132 H152 0.932 . S
C133 C131 1.408 . S
C133 C132 1.310 . S
C133 H153 0.930 . S
C134 C135 1.474 . S
C134 C136 1.285 . S
C134 H154 0.929 . S
C135 C132 1.461 . S
C135 C134 1.474 . S
C136 C131 1.342 . S
C136 C134 1.285 . S
C136 H155 0.930 . S
C137 C140 1.424 . S
C137 C142 1.245 . S
C137 C143 1.428 . S
C138 C141 1.260 . S
C138 C142 1.477 . S
C138 H156 0.932 . S
C139 C140 1.384 . S
C139 C141 1.479 . S
C139 H157 0.929 . S
C140 C137 1.424 . S
C140 C139 1.384 . S
C140 H158 0.928 . S
C141 C138 1.260 . S
C141 C139 1.479 . S
C142 C137 1.245 . S
C142 C138 1.477 . S
C142 H159 0.932 . S
C143 U126 2.882 . S
C143 C137 1.428 . S
C143 O146 1.301 . S
C143 O147 1.282 . S
O144 U126 2.441 . S
O144 C130 1.249 . S
O145 U126 2.420 . S
O145 C130 1.202 . S
O146 U126 2.455 . S
O146 C143 1.301 . S
O147 U126 2.449 . S
O147 C143 1.282 . S
H148 C121 0.931 . S
H149 C123 0.929 . S
H150 C124 0.930 . S
H151 C125 0.931 . S
H152 C132 0.932 . S
H153 C133 0.930 . S
H154 C134 0.929 . S
H155 C136 0.930 . S
H156 C138 0.932 . S
H157 C139 0.929 . S
H158 C140 0.928 . S
H159 C142 0.932 . S
O160 Mg161 1.990 1_655 S
O160 C174 1.253 . S
Mg161 O160 1.990 1_455 S
Mg161 O164 2.180 . S
Mg161 O165 2.117 . S
Mg161 O179 2.030 . S
O162 Mg163 2.072 1_655 S
O162 C174 1.260 . S
Mg163 O162 2.072 1_455 S
Mg163 O164 2.099 . S
Mg163 O166 2.079 1_545 S
Mg163 O167 2.072 1_455 S
Mg163 O169 2.099 1_445 S
Mg163 O180 2.079 1_545 S
O164 Mg161 2.180 . S
O164 Mg163 2.099 . S
O164 C175 1.279 . S
O165 Mg161 2.117 . S
O165 C175 1.250 . S
O166 Mg163 2.079 1_565 S
O166 C176 1.264 . S
O167 Mg163 2.072 1_655 S
O167 C177 1.260 . S
Mg168 O169 2.180 . S
Mg168 O170 2.030 1_655 S
Mg168 O171 1.990 1_565 S
Mg168 O172 2.117 . S
O169 Mg163 2.099 1_665 S
O169 Mg168 2.180 . S
O169 C178 1.279 . S
O170 Mg168 2.030 1_455 S
O170 C176 1.248 . S
O171 Mg168 1.990 1_545 S
O171 C177 1.253 . S
O172 Mg168 2.117 . S
O172 C178 1.250 . S
C173 O179 1.248 1_565 S
C173 O180 1.264 . S
C174 O160 1.253 . S
C174 O162 1.260 . S
C175 O164 1.279 . S
C175 O165 1.250 . S
C176 O166 1.264 . S
C176 O170 1.248 . S
C177 O167 1.260 . S
C177 O171 1.253 . S
C178 O169 1.279 . S
C178 O172 1.250 . S
O179 Mg161 2.030 . S
O179 C173 1.248 1_545 S
O180 Mg163 2.079 1_565 S
O180 C173 1.264 . S
O181 Mg182 1.990 . S
O181 C195 1.253 . S
Mg182 O181 1.990 . S
Mg182 O185 2.180 . S
Mg182 O186 2.117 . S
Mg182 O200 2.030 . S
O183 Mg184 2.072 . S
O183 C195 1.260 . S
Mg184 O183 2.072 . S
Mg184 O185 2.099 . S
Mg184 O187 2.079 1_554 S
Mg184 O188 2.072 1_554 S
Mg184 O190 2.099 . S
Mg184 O201 2.079 . S
O185 Mg182 2.180 . S
O185 Mg184 2.099 . S
O185 C196 1.279 . S
O186 Mg182 2.117 . S
O186 C196 1.250 . S
O187 Mg184 2.079 1_556 S
O187 C197 1.264 . S
O188 Mg184 2.072 1_556 S
O188 C198 1.260 . S
Mg189 O190 2.180 1_556 S
Mg189 O191 2.030 . S
Mg189 O192 1.990 . S
Mg189 O193 2.117 . S
O190 Mg184 2.099 . S
O190 Mg189 2.180 1_554 S
O190 C199 1.279 . S
O191 Mg189 2.030 . S
O191 C197 1.248 . S
O192 Mg189 1.990 . S
O192 C198 1.253 . S
O193 Mg189 2.117 . S
O193 C199 1.250 1_556 S
C194 O200 1.248 . S
C194 O201 1.264 . S
C195 O181 1.253 . S
C195 O183 1.260 . S
C196 O185 1.279 . S
C196 O186 1.250 . S
C197 O187 1.264 . S
C197 O191 1.248 . S
C198 O188 1.260 . S
C198 O192 1.253 . S
C199 O190 1.279 . S
C199 O193 1.250 1_554 S
O200 Mg182 2.030 . S
O200 C194 1.248 . S
O201 Mg184 2.079 . S
O201 C194 1.264 . S
C202 C203 1.369 . S
C202 C204 1.419 . S
C202 H206 0.930 . S
C203 C202 1.369 . S
C203 C212 1.429 . S
C204 C202 1.419 . S
C204 C205 1.363 . S
C204 H207 0.929 . S
C205 C204 1.363 . S
C205 C211 1.428 . S
H206 C202 0.930 . S
H207 C204 0.929 . S
S208 N209 1.613 . S
S208 N210 1.610 . S
N209 S208 1.613 . S
N209 C212 1.350 . S
N210 S208 1.610 . S
N210 C211 1.351 . S
C211 C205 1.428 . S
C211 N210 1.351 . S
C211 C212 1.434 . S
C212 C203 1.429 . S
C212 N209 1.350 . S
C212 C211 1.434 . S
C213 C214 1.369 . S
C213 C215 1.419 . S
C213 H217 0.930 . S
C214 C213 1.369 . S
C214 C223 1.429 . S
C215 C213 1.419 . S
C215 C216 1.363 . S
C215 H218 0.929 . S
C216 C215 1.363 . S
C216 C222 1.428 . S
H217 C213 0.930 . S
H218 C215 0.929 . S
S219 N220 1.613 . S
S219 N221 1.610 . S
N220 S219 1.613 . S
N220 C223 1.350 . S
N221 S219 1.610 . S
N221 C222 1.351 . S
C222 C216 1.428 . S
C222 N221 1.351 . S
C222 C223 1.434 . S
C223 C214 1.429 . S
C223 N220 1.350 . S
C223 C222 1.434 . S
C224 C225 1.369 . S
C224 C226 1.419 . S
C224 H228 0.930 . S
C225 C224 1.369 . S
C225 C234 1.429 . S
C226 C224 1.419 . S
C226 C227 1.363 . S
C226 H229 0.929 . S
C227 C226 1.363 . S
C227 C233 1.428 . S
H228 C224 0.930 . S
H229 C226 0.929 . S
S230 N231 1.613 1_455 S
S230 N232 1.610 . S
N231 S230 1.613 1_655 S
N231 C234 1.350 . S
N232 S230 1.610 . S
N232 C233 1.351 1_455 S
C233 C227 1.428 . S
C233 N232 1.351 1_655 S
C233 C234 1.434 . S
C234 C225 1.429 . S
C234 N231 1.350 . S
C234 C233 1.434 . S
C235 C236 1.369 . S
C235 C237 1.419 . S
C235 H239 0.930 . S
C236 C235 1.369 . S
C236 C245 1.429 1_556 S
C237 C235 1.419 . S
C237 C238 1.363 1_556 S
C237 H240 0.929 . S
C238 C237 1.363 1_554 S
C238 C244 1.428 . S
H239 C235 0.930 . S
H240 C237 0.929 . S
S241 N242 1.613 . S
S241 N243 1.610 . S
N242 S241 1.613 . S
N242 C245 1.350 . S
N243 S241 1.610 . S
N243 C244 1.351 . S
C244 C238 1.428 . S
C244 N243 1.351 . S
C244 C245 1.434 . S
C245 C236 1.429 1_554 S
C245 N242 1.350 . S
C245 C244 1.434 . S
C246 C247 1.369 . S
C246 C248 1.419 . S
C246 H250 0.930 . S
C247 C246 1.369 . S
C247 C256 1.429 . S
C248 C246 1.419 . S
C248 C249 1.363 . S
C248 H251 0.929 . S
C249 C248 1.363 . S
C249 C255 1.428 . S
H250 C246 0.930 . S
H251 C248 0.929 . S
S252 N253 1.613 . S
S252 N254 1.610 . S
N253 S252 1.613 . S
N253 C256 1.350 . S
N254 S252 1.610 . S
N254 C255 1.351 . S
C255 C249 1.428 . S
C255 N254 1.351 . S
C255 C256 1.434 . S
C256 C247 1.429 . S
C256 N253 1.350 . S
C256 C255 1.434 . S
C257 C258 1.369 . S
C257 C259 1.419 . S
C257 H261 0.930 . S
C258 C257 1.369 . S
C258 C267 1.429 . S
C259 C257 1.419 . S
C259 C260 1.363 . S
C259 H262 0.929 . S
C260 C259 1.363 . S
C260 C266 1.428 . S
H261 C257 0.930 . S
H262 C259 0.929 . S
S263 N264 1.613 . S
S263 N265 1.610 . S
N264 S263 1.613 . S
N264 C267 1.350 . S
N265 S263 1.610 . S
N265 C266 1.351 . S
C266 C260 1.428 . S
C266 N265 1.351 . S
C266 C267 1.434 . S
C267 C258 1.429 . S
C267 N264 1.350 . S
C267 C266 1.434 . S
C268 C269 1.369 . S
C268 C270 1.419 . S
C268 H272 0.930 . S
C269 C268 1.369 . S
C269 C278 1.429 . S
C270 C268 1.419 . S
C270 C271 1.363 . S
C270 H273 0.929 . S
C271 C270 1.363 . S
C271 C277 1.428 . S
H272 C268 0.930 . S
H273 C270 0.929 . S
S274 N275 1.613 . S
S274 N276 1.610 . S
N275 S274 1.613 . S
N275 C278 1.350 . S
N276 S274 1.610 . S
N276 C277 1.351 . S
C277 C271 1.428 . S
C277 N276 1.351 . S
C277 C278 1.434 . S
C278 C269 1.429 . S
C278 N275 1.350 . S
C278 C277 1.434 . S
C279 C280 1.369 . S
C279 C281 1.419 . S
C279 H283 0.930 . S
C280 C279 1.369 . S
C280 C289 1.429 . S
C281 C279 1.419 . S
C281 C282 1.363 . S
C281 H284 0.929 . S
C282 C281 1.363 . S
C282 C288 1.428 . S
H283 C279 0.930 . S
H284 C281 0.929 . S
S285 N286 1.613 . S
S285 N287 1.610 . S
N286 S285 1.613 . S
N286 C289 1.350 . S
N287 S285 1.610 . S
N287 C288 1.351 . S
C288 C282 1.428 . S
C288 N287 1.351 . S
C288 C289 1.434 . S
C289 C280 1.429 . S
C289 N286 1.350 . S
C289 C288 1.434 . S
C290 C291 1.369 . S
C290 C292 1.419 . S
C290 H294 0.930 . S
C291 C290 1.369 . S
C291 C300 1.429 . S
C292 C290 1.419 . S
C292 C293 1.363 . S
C292 H295 0.929 . S
C293 C292 1.363 . S
C293 C299 1.428 . S
H294 C290 0.930 . S
H295 C292 0.929 . S
S296 N297 1.613 . S
S296 N298 1.610 . S
N297 S296 1.613 . S
N297 C300 1.350 . S
N298 S296 1.610 . S
N298 C299 1.351 . S
C299 C293 1.428 . S
C299 N298 1.351 . S
C299 C300 1.434 . S
C300 C291 1.429 . S
C300 N297 1.350 . S
C300 C299 1.434 . S
C301 C302 1.369 . S
C301 C303 1.419 . S
C301 H305 0.930 . S
C302 C301 1.369 . S
C302 C311 1.429 . S
C303 C301 1.419 . S
C303 C304 1.363 . S
C303 H306 0.929 . S
C304 C303 1.363 . S
C304 C310 1.428 . S
H305 C301 0.930 . S
H306 C303 0.929 . S
S307 N308 1.613 . S
S307 N309 1.610 . S
N308 S307 1.613 . S
N308 C311 1.350 . S
N309 S307 1.610 . S
N309 C310 1.351 . S
C310 C304 1.428 . S
C310 N309 1.351 . S
C310 C311 1.434 . S
C311 C302 1.429 . S
C311 N308 1.350 . S
C311 C310 1.434 . S
C312 C313 1.369 . S
C312 C314 1.419 . S
C312 H316 0.930 . S
C313 C312 1.369 . S
C313 C322 1.429 . S
C314 C312 1.419 . S
C314 C315 1.363 . S
C314 H317 0.929 . S
C315 C314 1.363 . S
C315 C321 1.428 . S
H316 C312 0.930 . S
H317 C314 0.929 . S
S318 N319 1.613 . S
S318 N320 1.610 . S
N319 S318 1.613 . S
N319 C322 1.350 . S
N320 S318 1.610 . S
N320 C321 1.351 . S
C321 C315 1.428 . S
C321 N320 1.351 . S
C321 C322 1.434 . S
C322 C313 1.429 . S
C322 N319 1.350 . S
C322 C321 1.434 . S
C323 C324 1.369 . S
C323 C325 1.419 . S
C323 H327 0.930 . S
C324 C323 1.369 . S
C324 C333 1.429 . S
C325 C323 1.419 . S
C325 C326 1.363 . S
C325 H328 0.929 . S
C326 C325 1.363 . S
C326 C332 1.428 . S
H327 C323 0.930 . S
H328 C325 0.929 . S
S329 N330 1.613 . S
S329 N331 1.610 . S
N330 S329 1.613 . S
N330 C333 1.350 . S
N331 S329 1.610 . S
N331 C332 1.351 . S
C332 C326 1.428 . S
C332 N331 1.351 . S
C332 C333 1.434 . S
C333 C324 1.429 . S
C333 N330 1.350 . S
C333 C332 1.434 . S
C205 C175 1.485 . S
C203 C135 1.608 . S
C214 C15 1.610 . S
C216 C199 1.478 . S
C225 C55 1.700 . S
C227 C178 1.537 . S
C236 C95 1.714 . S
C238 C196 1.561 . S
C249 C176 1.733 . S
C247 C2 1.714 . S
C260 C198 1.653 . S
C258 C42 1.607 . S
C269 C82 1.641 . S
C271 C177 1.520 . S
C280 C141 1.692 . S
C282 C197 1.570 . S
C293 C195 1.543 . S
C291 C61 1.585 . S
C304 C174 1.681 . S
C302 C101 1.694 . S
C315 C194 1.756 . S
C313 C122 1.739 . S
C324 C21 1.714 . S
C326 C173 1.598 . S
