# Generated by pormake.
# Topology gar, (4,6)-cn, num edge types: 1
# Building blocks:
#     Node 0, Type 0, BuildingBlock: NAHDIM_clean_sbu_0, # of connection points: 4
#     Node 1, Type 0, BuildingBlock: NAHDIM_clean_sbu_0, # of connection points: 4
#     Node 2, Type 0, BuildingBlock: NAHDIM_clean_sbu_0, # of connection points: 4
#     Node 3, Type 0, BuildingBlock: NAHDIM_clean_sbu_0, # of connection points: 4
#     Node 4, Type 0, BuildingBlock: NAHDIM_clean_sbu_0, # of connection points: 4
#     Node 5, Type 0, BuildingBlock: NAHDIM_clean_sbu_0, # of connection points: 4
#     Node 6, Type 0, BuildingBlock: NAHDIM_clean_sbu_0, # of connection points: 4
#     Node 7, Type 0, BuildingBlock: NAHDIM_clean_sbu_0, # of connection points: 4
#     Node 8, Type 0, BuildingBlock: NAHDIM_clean_sbu_0, # of connection points: 4
#     Node 9, Type 0, BuildingBlock: NAHDIM_clean_sbu_0, # of connection points: 4
#     Node 10, Type 0, BuildingBlock: NAHDIM_clean_sbu_0, # of connection points: 4
#     Node 11, Type 0, BuildingBlock: NAHDIM_clean_sbu_0, # of connection points: 4
#     Node 12, Type 0, BuildingBlock: NAHDIM_clean_sbu_0, # of connection points: 4
#     Node 13, Type 0, BuildingBlock: NAHDIM_clean_sbu_0, # of connection points: 4
#     Node 14, Type 0, BuildingBlock: NAHDIM_clean_sbu_0, # of connection points: 4
#     Node 15, Type 0, BuildingBlock: NAHDIM_clean_sbu_0, # of connection points: 4
#     Node 16, Type 0, BuildingBlock: NAHDIM_clean_sbu_0, # of connection points: 4
#     Node 17, Type 0, BuildingBlock: NAHDIM_clean_sbu_0, # of connection points: 4
#     Node 18, Type 0, BuildingBlock: NAHDIM_clean_sbu_0, # of connection points: 4
#     Node 19, Type 0, BuildingBlock: NAHDIM_clean_sbu_0, # of connection points: 4
#     Node 20, Type 0, BuildingBlock: NAHDIM_clean_sbu_0, # of connection points: 4
#     Node 21, Type 0, BuildingBlock: NAHDIM_clean_sbu_0, # of connection points: 4
#     Node 22, Type 0, BuildingBlock: NAHDIM_clean_sbu_0, # of connection points: 4
#     Node 23, Type 0, BuildingBlock: NAHDIM_clean_sbu_0, # of connection points: 4
#     Node 24, Type 1, BuildingBlock: BETDEL_clean_sbu_0, # of connection points: 6
#     Node 25, Type 1, BuildingBlock: BETDEL_clean_sbu_0, # of connection points: 6
#     Node 26, Type 1, BuildingBlock: BETDEL_clean_sbu_0, # of connection points: 6
#     Node 27, Type 1, BuildingBlock: BETDEL_clean_sbu_0, # of connection points: 6
#     Node 28, Type 1, BuildingBlock: BETDEL_clean_sbu_0, # of connection points: 6
#     Node 29, Type 1, BuildingBlock: BETDEL_clean_sbu_0, # of connection points: 6
#     Node 30, Type 1, BuildingBlock: BETDEL_clean_sbu_0, # of connection points: 6
#     Node 31, Type 1, BuildingBlock: BETDEL_clean_sbu_0, # of connection points: 6
#     Node 32, Type 1, BuildingBlock: BETDEL_clean_sbu_0, # of connection points: 6
#     Node 33, Type 1, BuildingBlock: BETDEL_clean_sbu_0, # of connection points: 6
#     Node 34, Type 1, BuildingBlock: BETDEL_clean_sbu_0, # of connection points: 6
#     Node 35, Type 1, BuildingBlock: BETDEL_clean_sbu_0, # of connection points: 6
#     Node 36, Type 1, BuildingBlock: BETDEL_clean_sbu_0, # of connection points: 6
#     Node 37, Type 1, BuildingBlock: BETDEL_clean_sbu_0, # of connection points: 6
#     Node 38, Type 1, BuildingBlock: BETDEL_clean_sbu_0, # of connection points: 6
#     Node 39, Type 1, BuildingBlock: BETDEL_clean_sbu_0, # of connection points: 6
#     Edge 40, Type (0, 1), BuildingBlock: KIFKEQ_clean_linker_1, # of connection points: 2
#     Edge 41, Type (0, 1), BuildingBlock: KIFKEQ_clean_linker_1, # of connection points: 2
#     Edge 42, Type (0, 1), BuildingBlock: KIFKEQ_clean_linker_1, # of connection points: 2
#     Edge 43, Type (0, 1), BuildingBlock: KIFKEQ_clean_linker_1, # of connection points: 2
#     Edge 44, Type (0, 1), BuildingBlock: KIFKEQ_clean_linker_1, # of connection points: 2
#     Edge 45, Type (0, 1), BuildingBlock: KIFKEQ_clean_linker_1, # of connection points: 2
#     Edge 46, Type (0, 1), BuildingBlock: KIFKEQ_clean_linker_1, # of connection points: 2
#     Edge 47, Type (0, 1), BuildingBlock: KIFKEQ_clean_linker_1, # of connection points: 2
#     Edge 48, Type (0, 1), BuildingBlock: KIFKEQ_clean_linker_1, # of connection points: 2
#     Edge 49, Type (0, 1), BuildingBlock: KIFKEQ_clean_linker_1, # of connection points: 2
#     Edge 50, Type (0, 1), BuildingBlock: KIFKEQ_clean_linker_1, # of connection points: 2
#     Edge 51, Type (0, 1), BuildingBlock: KIFKEQ_clean_linker_1, # of connection points: 2
#     Edge 52, Type (0, 1), BuildingBlock: KIFKEQ_clean_linker_1, # of connection points: 2
#     Edge 53, Type (0, 1), BuildingBlock: KIFKEQ_clean_linker_1, # of connection points: 2
#     Edge 54, Type (0, 1), BuildingBlock: KIFKEQ_clean_linker_1, # of connection points: 2
#     Edge 55, Type (0, 1), BuildingBlock: KIFKEQ_clean_linker_1, # of connection points: 2
#     Edge 56, Type (0, 1), BuildingBlock: KIFKEQ_clean_linker_1, # of connection points: 2
#     Edge 57, Type (0, 1), BuildingBlock: KIFKEQ_clean_linker_1, # of connection points: 2
#     Edge 58, Type (0, 1), BuildingBlock: KIFKEQ_clean_linker_1, # of connection points: 2
#     Edge 59, Type (0, 1), BuildingBlock: KIFKEQ_clean_linker_1, # of connection points: 2
#     Edge 60, Type (0, 1), BuildingBlock: KIFKEQ_clean_linker_1, # of connection points: 2
#     Edge 61, Type (0, 1), BuildingBlock: KIFKEQ_clean_linker_1, # of connection points: 2
#     Edge 62, Type (0, 1), BuildingBlock: KIFKEQ_clean_linker_1, # of connection points: 2
#     Edge 63, Type (0, 1), BuildingBlock: KIFKEQ_clean_linker_1, # of connection points: 2
#     Edge 64, Type (0, 1), BuildingBlock: KIFKEQ_clean_linker_1, # of connection points: 2
#     Edge 65, Type (0, 1), BuildingBlock: KIFKEQ_clean_linker_1, # of connection points: 2
#     Edge 66, Type (0, 1), BuildingBlock: KIFKEQ_clean_linker_1, # of connection points: 2
#     Edge 67, Type (0, 1), BuildingBlock: KIFKEQ_clean_linker_1, # of connection points: 2
#     Edge 68, Type (0, 1), BuildingBlock: KIFKEQ_clean_linker_1, # of connection points: 2
#     Edge 69, Type (0, 1), BuildingBlock: KIFKEQ_clean_linker_1, # of connection points: 2
#     Edge 70, Type (0, 1), BuildingBlock: KIFKEQ_clean_linker_1, # of connection points: 2
#     Edge 71, Type (0, 1), BuildingBlock: KIFKEQ_clean_linker_1, # of connection points: 2
#     Edge 72, Type (0, 1), BuildingBlock: KIFKEQ_clean_linker_1, # of connection points: 2
#     Edge 73, Type (0, 1), BuildingBlock: KIFKEQ_clean_linker_1, # of connection points: 2
#     Edge 74, Type (0, 1), BuildingBlock: KIFKEQ_clean_linker_1, # of connection points: 2
#     Edge 75, Type (0, 1), BuildingBlock: KIFKEQ_clean_linker_1, # of connection points: 2
#     Edge 76, Type (0, 1), BuildingBlock: KIFKEQ_clean_linker_1, # of connection points: 2
#     Edge 77, Type (0, 1), BuildingBlock: KIFKEQ_clean_linker_1, # of connection points: 2
#     Edge 78, Type (0, 1), BuildingBlock: KIFKEQ_clean_linker_1, # of connection points: 2
#     Edge 79, Type (0, 1), BuildingBlock: KIFKEQ_clean_linker_1, # of connection points: 2
#     Edge 80, Type (0, 1), BuildingBlock: KIFKEQ_clean_linker_1, # of connection points: 2
#     Edge 81, Type (0, 1), BuildingBlock: KIFKEQ_clean_linker_1, # of connection points: 2
#     Edge 82, Type (0, 1), BuildingBlock: KIFKEQ_clean_linker_1, # of connection points: 2
#     Edge 83, Type (0, 1), BuildingBlock: KIFKEQ_clean_linker_1, # of connection points: 2
#     Edge 84, Type (0, 1), BuildingBlock: KIFKEQ_clean_linker_1, # of connection points: 2
#     Edge 85, Type (0, 1), BuildingBlock: KIFKEQ_clean_linker_1, # of connection points: 2
#     Edge 86, Type (0, 1), BuildingBlock: KIFKEQ_clean_linker_1, # of connection points: 2
#     Edge 87, Type (0, 1), BuildingBlock: KIFKEQ_clean_linker_1, # of connection points: 2
#     Edge 88, Type (0, 1), BuildingBlock: KIFKEQ_clean_linker_1, # of connection points: 2
#     Edge 89, Type (0, 1), BuildingBlock: KIFKEQ_clean_linker_1, # of connection points: 2
#     Edge 90, Type (0, 1), BuildingBlock: KIFKEQ_clean_linker_1, # of connection points: 2
#     Edge 91, Type (0, 1), BuildingBlock: KIFKEQ_clean_linker_1, # of connection points: 2
#     Edge 92, Type (0, 1), BuildingBlock: KIFKEQ_clean_linker_1, # of connection points: 2
#     Edge 93, Type (0, 1), BuildingBlock: KIFKEQ_clean_linker_1, # of connection points: 2
#     Edge 94, Type (0, 1), BuildingBlock: KIFKEQ_clean_linker_1, # of connection points: 2
#     Edge 95, Type (0, 1), BuildingBlock: KIFKEQ_clean_linker_1, # of connection points: 2
#     Edge 96, Type (0, 1), BuildingBlock: KIFKEQ_clean_linker_1, # of connection points: 2
#     Edge 97, Type (0, 1), BuildingBlock: KIFKEQ_clean_linker_1, # of connection points: 2
#     Edge 98, Type (0, 1), BuildingBlock: KIFKEQ_clean_linker_1, # of connection points: 2
#     Edge 99, Type (0, 1), BuildingBlock: KIFKEQ_clean_linker_1, # of connection points: 2
#     Edge 100, Type (0, 1), BuildingBlock: KIFKEQ_clean_linker_1, # of connection points: 2
#     Edge 101, Type (0, 1), BuildingBlock: KIFKEQ_clean_linker_1, # of connection points: 2
#     Edge 102, Type (0, 1), BuildingBlock: KIFKEQ_clean_linker_1, # of connection points: 2
#     Edge 103, Type (0, 1), BuildingBlock: KIFKEQ_clean_linker_1, # of connection points: 2
#     Edge 104, Type (0, 1), BuildingBlock: KIFKEQ_clean_linker_1, # of connection points: 2
#     Edge 105, Type (0, 1), BuildingBlock: KIFKEQ_clean_linker_1, # of connection points: 2
#     Edge 106, Type (0, 1), BuildingBlock: KIFKEQ_clean_linker_1, # of connection points: 2
#     Edge 107, Type (0, 1), BuildingBlock: KIFKEQ_clean_linker_1, # of connection points: 2
#     Edge 108, Type (0, 1), BuildingBlock: KIFKEQ_clean_linker_1, # of connection points: 2
#     Edge 109, Type (0, 1), BuildingBlock: KIFKEQ_clean_linker_1, # of connection points: 2
#     Edge 110, Type (0, 1), BuildingBlock: KIFKEQ_clean_linker_1, # of connection points: 2
#     Edge 111, Type (0, 1), BuildingBlock: KIFKEQ_clean_linker_1, # of connection points: 2
#     Edge 112, Type (0, 1), BuildingBlock: KIFKEQ_clean_linker_1, # of connection points: 2
#     Edge 113, Type (0, 1), BuildingBlock: KIFKEQ_clean_linker_1, # of connection points: 2
#     Edge 114, Type (0, 1), BuildingBlock: KIFKEQ_clean_linker_1, # of connection points: 2
#     Edge 115, Type (0, 1), BuildingBlock: KIFKEQ_clean_linker_1, # of connection points: 2
#     Edge 116, Type (0, 1), BuildingBlock: KIFKEQ_clean_linker_1, # of connection points: 2
#     Edge 117, Type (0, 1), BuildingBlock: KIFKEQ_clean_linker_1, # of connection points: 2
#     Edge 118, Type (0, 1), BuildingBlock: KIFKEQ_clean_linker_1, # of connection points: 2
#     Edge 119, Type (0, 1), BuildingBlock: KIFKEQ_clean_linker_1, # of connection points: 2
#     Edge 120, Type (0, 1), BuildingBlock: KIFKEQ_clean_linker_1, # of connection points: 2
#     Edge 121, Type (0, 1), BuildingBlock: KIFKEQ_clean_linker_1, # of connection points: 2
#     Edge 122, Type (0, 1), BuildingBlock: KIFKEQ_clean_linker_1, # of connection points: 2
#     Edge 123, Type (0, 1), BuildingBlock: KIFKEQ_clean_linker_1, # of connection points: 2
#     Edge 124, Type (0, 1), BuildingBlock: KIFKEQ_clean_linker_1, # of connection points: 2
#     Edge 125, Type (0, 1), BuildingBlock: KIFKEQ_clean_linker_1, # of connection points: 2
#     Edge 126, Type (0, 1), BuildingBlock: KIFKEQ_clean_linker_1, # of connection points: 2
#     Edge 127, Type (0, 1), BuildingBlock: KIFKEQ_clean_linker_1, # of connection points: 2
#     Edge 128, Type (0, 1), BuildingBlock: KIFKEQ_clean_linker_1, # of connection points: 2
#     Edge 129, Type (0, 1), BuildingBlock: KIFKEQ_clean_linker_1, # of connection points: 2
#     Edge 130, Type (0, 1), BuildingBlock: KIFKEQ_clean_linker_1, # of connection points: 2
#     Edge 131, Type (0, 1), BuildingBlock: KIFKEQ_clean_linker_1, # of connection points: 2
#     Edge 132, Type (0, 1), BuildingBlock: KIFKEQ_clean_linker_1, # of connection points: 2
#     Edge 133, Type (0, 1), BuildingBlock: KIFKEQ_clean_linker_1, # of connection points: 2
#     Edge 134, Type (0, 1), BuildingBlock: KIFKEQ_clean_linker_1, # of connection points: 2
#     Edge 135, Type (0, 1), BuildingBlock: KIFKEQ_clean_linker_1, # of connection points: 2
# Relax obj value: 0.156
# Max RMSD: 0.268
# Mean RMSD: 0.173
data_MOF--net-gar--node1-NAHDIM_clean_sbu_0--node2-BETDEL_clean_sbu_0--edge1-KIFKEQ_clean_linker_1
_symmetry_space_group_name_H-M    P1
_symmetry_Int_Tables_number       1
_symmetry_cell_setting            triclinic
loop_
_symmetry_equiv_pos_as_xyz
'x, y, z'
_cell_length_a     57.793128
_cell_length_b     54.041133
_cell_length_c     54.179173
_cell_angle_alpha  95.397747
_cell_angle_beta   92.810123
_cell_angle_gamma 101.10673
loop_
_atom_site_label
_atom_site_type_symbol
_atom_site_fract_x
_atom_site_fract_y
_atom_site_fract_z
_atom_type_partial_charge
C0 C 0.07315 0.2621 0.37256 0.0
O1 O 0.06987 0.24421 0.38757 0.0
O2 O 0.02627 0.24316 0.41103 0.0
Zn3 Zn 0.03172 0.27579 0.39436 0.0
O4 O 0.03807 0.3068 0.41937 0.0
C5 C 0.98231 0.26504 0.37537 0.0
O6 O 0.98012 0.24726 0.39053 0.0
O7 O 0.05911 0.27753 0.37236 0.0
C8 C 0.02049 0.3129 0.42987 0.0
O9 O -0.00029 0.29774 0.42559 0.0
C10 C 0.0276 0.2425 0.43447 0.0
O11 O 0.03295 0.26387 0.44911 0.0
O12 O 0.00261 0.27849 0.37338 0.0
C13 C 0.95499 0.75588 0.65878 0.0
O14 O 0.95565 0.73382 0.64669 0.0
O15 O 0.99068 0.73867 0.61171 0.0
Zn16 Zn 0.99747 0.77199 0.63317 0.0
O17 O 0.00173 0.80073 0.61127 0.0
C18 C 0.04689 0.77359 0.64198 0.0
O19 O 0.04679 0.77964 0.61906 0.0
O20 O 0.97109 0.77491 0.65607 0.0
C21 C 0.00949 0.82361 0.62012 0.0
O22 O 0.01507 0.8287 0.64411 0.0
C23 C 0.98885 0.73611 0.58811 0.0
O24 O 0.98937 0.75622 0.57612 0.0
O25 O 0.02775 0.7709 0.65294 0.0
C26 C 0.57258 0.76204 0.87448 0.0
O27 O 0.57142 0.74728 0.89249 0.0
O28 O 0.52603 0.74204 0.9127 0.0
Zn29 Zn 0.53158 0.77521 0.89691 0.0
O30 O 0.54034 0.80528 0.92295 0.0
C31 C 0.49094 0.76776 0.85959 0.0
O32 O 0.50067 0.75041 0.84784 0.0
O33 O 0.55727 0.77592 0.87246 0.0
C34 C 0.52355 0.81018 0.93567 0.0
O35 O 0.50295 0.79454 0.9324 0.0
C36 C 0.53241 0.74033 0.93521 0.0
O37 O 0.54306 0.76088 0.9493 0.0
O38 O 0.50103 0.77976 0.87975 0.0
C39 C 0.45148 0.26574 0.14745 0.0
O40 O 0.44673 0.2509 0.12646 0.0
O41 O 0.4896 0.23953 0.1097 0.0
Zn42 Zn 0.49731 0.27473 0.1279 0.0
O43 O 0.49841 0.3018 0.10392 0.0
C44 C 0.54361 0.2644 0.13477 0.0
O45 O 0.53728 0.25318 0.11224 0.0
O46 O 0.47241 0.27839 0.15255 0.0
C47 C 0.51679 0.31054 0.093 0.0
O48 O 0.53618 0.30188 0.09717 0.0
C49 C 0.48653 0.23385 0.08633 0.0
O50 O 0.48562 0.25183 0.0718 0.0
O51 O 0.52952 0.27645 0.14588 0.0
C52 C 0.99194 0.77166 0.18139 0.0
O53 O 0.9949 0.74909 0.17251 0.0
O54 O 0.02858 0.75547 0.1337 0.0
Zn55 Zn 0.03184 0.79038 0.15228 0.0
O56 O 0.02951 0.81719 0.12924 0.0
C57 C 0.08072 0.7905 0.16284 0.0
O58 O 0.07786 0.77856 0.1403 0.0
O59 O 0.00572 0.79122 0.17556 0.0
C60 C 0.04199 0.8225 0.11106 0.0
O61 O 0.0585 0.80964 0.10563 0.0
C62 C 0.02071 0.74907 0.11123 0.0
O63 O 0.01299 0.76571 0.09849 0.0
O64 O 0.0633 0.79826 0.17215 0.0
C65 C 0.54148 0.74519 0.35447 0.0
O66 O 0.54076 0.73429 0.37515 0.0
O67 O 0.49252 0.72613 0.38994 0.0
Zn68 Zn 0.49611 0.75514 0.36862 0.0
O69 O 0.49991 0.78809 0.39055 0.0
C70 C 0.45271 0.73215 0.33743 0.0
O71 O 0.45684 0.71021 0.34304 0.0
O72 O 0.52441 0.75543 0.34794 0.0
C73 C 0.48264 0.79229 0.40287 0.0
O74 O 0.46311 0.77494 0.40106 0.0
C75 C 0.5026 0.7293 0.41173 0.0
O76 O 0.51496 0.75176 0.42027 0.0
O77 O 0.46695 0.75245 0.34601 0.0
C78 C 0.48858 0.26975 0.67457 0.0
O79 O 0.49271 0.24722 0.66728 0.0
O80 O 0.52519 0.25261 0.6274 0.0
Zn81 Zn 0.52906 0.28755 0.6461 0.0
O82 O 0.52815 0.313 0.62134 0.0
C83 C 0.57988 0.3015 0.65758 0.0
O84 O 0.58002 0.30474 0.63386 0.0
O85 O 0.50195 0.2893 0.66812 0.0
C86 C 0.53696 0.33639 0.62688 0.0
O87 O 0.54749 0.34409 0.64908 0.0
C88 C 0.53646 0.24898 0.60822 0.0
O89 O 0.55027 0.26837 0.60017 0.0
O90 O 0.56018 0.29495 0.66703 0.0
C91 C 0.04077 0.27151 0.85416 0.0
O92 O 0.04164 0.29096 0.87089 0.0
O93 O 0.99401 0.22389 0.89331 0.0
Zn94 Zn 0.99457 0.25336 0.87272 0.0
O95 O 0.99815 0.28642 0.89488 0.0
C96 C 0.94525 0.2357 0.85206 0.0
O97 O 0.94282 0.22138 0.87044 0.0
O98 O 0.02252 0.25386 0.85162 0.0
C99 C 0.98014 0.29345 0.90363 0.0
O100 O 0.95922 0.27875 0.8985 0.0
C101 C 0.98932 0.22406 0.91602 0.0
O102 O 0.98283 0.24398 0.92722 0.0
O103 O 0.96522 0.24967 0.8497 0.0
C104 C 0.35096 0.07039 0.25789 0.0
O105 O 0.35217 0.05143 0.24126 0.0
O106 O 0.41397 0.06483 0.24806 0.0
Zn107 Zn 0.39286 0.05755 0.27544 0.0
O108 O 0.41161 0.06294 0.30818 0.0
C109 C 0.3879 0.00297 0.27004 0.0
O110 O 0.4108 0.008 0.27574 0.0
O111 O 0.36745 0.07754 0.27492 0.0
C112 C 0.40376 0.04915 0.3248 0.0
O113 O 0.38299 0.03394 0.32072 0.0
C114 C 0.43558 0.07576 0.25086 0.0
O115 O 0.44509 0.08475 0.27321 0.0
O116 O 0.37695 0.02109 0.26889 0.0
C117 C 0.30905 0.13036 0.48674 0.0
O118 O 0.31567 0.15419 0.48263 0.0
O119 O 0.26823 0.16798 0.5216 0.0
Zn120 Zn 0.26377 0.14503 0.48913 0.0
O121 O 0.26759 0.16454 0.45868 0.0
C122 C 0.22251 0.11388 0.50587 0.0
O123 O 0.23562 0.11808 0.52691 0.0
O124 O 0.28744 0.12193 0.48996 0.0
C125 C 0.27677 0.18797 0.45904 0.0
O126 O 0.28453 0.20121 0.48043 0.0
C127 C 0.25229 0.17964 0.52901 0.0
O128 O 0.23314 0.17821 0.5144 0.0
O129 O 0.2309 0.12335 0.48679 0.0
C130 C 0.17233 0.96768 0.76349 0.0
O131 O 0.1666 0.97759 0.74338 0.0
O132 O 0.12736 0.00404 0.75521 0.0
Zn133 Zn 0.14698 0.0037 0.78713 0.0
O134 O 0.12565 -0.00063 0.81556 0.0
C135 C 0.17915 0.04642 0.77407 0.0
O136 O 0.17533 0.03254 0.75248 0.0
O137 O 0.1656 0.97564 0.78424 0.0
C138 C 0.12122 0.01883 0.82806 0.0
O139 O 0.13105 0.04145 0.82255 0.0
C140 C 0.11828 0.02337 0.75258 0.0
O141 O 0.12082 0.04141 0.77108 0.0
O142 O 0.16953 0.03754 0.79281 0.0
C143 C 0.22651 0.94664 0.02131 0.0
O144 O 0.23406 0.93868 0.04182 0.0
O145 O 0.25457 0.89125 0.02346 0.0
Zn146 Zn 0.25573 0.91477 0.997 0.0
O147 O 0.24993 0.89334 0.96424 0.0
C148 C 0.29712 0.95325 0.01496 0.0
O149 O 0.28403 0.95979 0.03262 0.0
O150 O 0.23294 0.93839 0.00052 0.0
C151 C 0.26699 0.88387 0.95622 0.0
O152 O 0.28733 0.88869 0.96943 0.0
C153 C 0.23599 0.87909 0.03164 0.0
O154 O 0.21516 0.88254 0.02357 0.0
O155 O 0.28843 0.93528 0.99834 0.0
C156 C 0.22185 0.43218 0.0124 0.0
O157 O 0.23016 0.4293 0.9904 0.0
O158 O 0.25741 0.38067 0.05444 0.0
Zn159 Zn 0.25759 0.40376 0.02686 0.0
O160 O 0.25565 0.38451 0.99246 0.0
C161 C 0.30696 0.41851 0.02725 0.0
O162 O 0.30404 0.39368 0.02386 0.0
O163 O 0.23087 0.42301 0.03047 0.0
C164 C 0.25517 0.36087 0.98802 0.0
O165 O 0.25432 0.34682 0.0066 0.0
C166 C 0.23882 0.37291 0.06541 0.0
O167 O 0.21891 0.37912 0.05801 0.0
O168 O 0.28887 0.4284 0.02992 0.0
C169 C 0.81192 0.10398 0.99416 0.0
O170 O 0.80342 0.10836 0.97241 0.0
O171 O 0.78934 0.16243 0.04623 0.0
Zn172 Zn 0.78544 0.14076 0.01361 0.0
O173 O 0.78949 0.16264 0.98569 0.0
C174 C 0.74533 0.1065 0.02659 0.0
O175 O 0.76 0.10475 0.04535 0.0
O176 O 0.80721 0.11629 0.01377 0.0
C177 C 0.77444 0.17683 0.98404 0.0
O178 O 0.75819 0.17604 0.00025 0.0
C179 C 0.79888 0.18583 0.04928 0.0
O180 O 0.80799 0.19698 0.03046 0.0
O181 O 0.75249 0.12082 0.01011 0.0
C182 C 0.16984 0.48059 0.26297 0.0
O183 O 0.15977 0.48862 0.28257 0.0
O184 O 0.11402 0.48262 0.20441 0.0
Zn185 Zn 0.13214 0.49684 0.23671 0.0
O186 O 0.11178 0.49141 0.26548 0.0
C187 C 0.14609 0.55018 0.2538 0.0
O188 O 0.13978 0.54275 0.27532 0.0
O189 O 0.16071 0.4816 0.24137 0.0
C190 C 0.09139 0.49691 0.26593 0.0
O191 O 0.08277 0.50614 0.24669 0.0
C192 C 0.09529 0.46561 0.20166 0.0
O193 O 0.08698 0.45482 0.221 0.0
O194 O 0.14387 0.53391 0.23492 0.0
C195 C 0.71264 0.91223 0.52581 0.0
O196 O 0.70777 0.88816 0.51704 0.0
O197 O 0.75721 0.8775 0.56104 0.0
Zn198 Zn 0.75956 0.90162 0.53393 0.0
O199 O 0.75926 0.88302 0.4996 0.0
C200 C 0.80948 0.91602 0.53658 0.0
O201 O 0.80681 0.89123 0.53271 0.0
O202 O 0.73359 0.92215 0.53439 0.0
C203 C 0.75498 0.85912 0.49405 0.0
O204 O 0.74911 0.84417 0.51145 0.0
C205 C 0.73981 0.87273 0.57458 0.0
O206 O 0.72158 0.88354 0.5711 0.0
O207 O 0.79119 0.92568 0.53876 0.0
C208 C 0.86725 0.08493 0.24877 0.0
O209 O 0.89008 0.09121 0.25475 0.0
O210 O 0.89814 0.04124 0.20582 0.0
Zn211 Zn 0.87852 0.03581 0.23532 0.0
O212 O 0.89907 0.03466 0.26625 0.0
C213 C 0.86719 0.98245 0.22862 0.0
O214 O 0.89038 0.9861 0.23082 0.0
O215 O 0.85837 0.06225 0.24009 0.0
C216 C 0.89001 0.03404 0.28715 0.0
O217 O 0.86784 0.03625 0.28846 0.0
C218 C 0.91988 0.05182 0.20794 0.0
O219 O 0.93003 0.06032 0.23015 0.0
O220 O 0.85738 0.00159 0.22919 0.0
C221 C 0.3082 0.60454 0.49852 0.0
O222 O 0.2993 0.60937 0.47712 0.0
O223 O 0.28955 0.66713 0.54851 0.0
Zn224 Zn 0.28425 0.64326 0.51713 0.0
O225 O 0.2916 0.66411 0.48857 0.0
C226 C 0.24126 0.61155 0.52926 0.0
O227 O 0.25437 0.60858 0.54885 0.0
O228 O 0.30445 0.61715 0.51839 0.0
C229 C 0.27478 0.67091 0.4767 0.0
O230 O 0.25296 0.66292 0.48239 0.0
C231 C 0.2782 0.68509 0.54997 0.0
O232 O 0.26333 0.68684 0.53141 0.0
O233 O 0.25043 0.62541 0.51325 0.0
C234 C 0.3603 0.57581 0.74632 0.0
O235 O 0.3773 0.57623 0.76345 0.0
O236 O 0.399 0.53434 0.69899 0.0
Zn237 Zn 0.37585 0.53064 0.72566 0.0
O238 O 0.39329 0.5278 0.75813 0.0
C239 C 0.36342 0.47774 0.71794 0.0
O240 O 0.38657 0.4812 0.72085 0.0
O241 O 0.3569 0.55863 0.72807 0.0
C242 C 0.38213 0.52401 0.77751 0.0
O243 O 0.35938 0.52401 0.77684 0.0
C244 C 0.40694 0.5544 0.68908 0.0
O245 O 0.39974 0.57543 0.69612 0.0
O246 O 0.35382 0.49702 0.71812 0.0
C247 C 0.65911 0.96165 0.73391 0.0
O248 O 0.64918 0.96158 0.71156 0.0
O249 O 0.6088 0.98948 0.71762 0.0
Zn250 Zn 0.62748 0.99477 0.75064 0.0
O251 O 0.6051 0.98716 0.77709 0.0
C252 C 0.66111 0.03706 0.74134 0.0
O253 O 0.66422 0.02029 0.72326 0.0
O254 O 0.65176 0.97331 0.75241 0.0
C255 C 0.59181 0.00246 0.78345 0.0
O256 O 0.59343 0.02361 0.77296 0.0
C257 C 0.60153 0.00863 0.71068 0.0
O258 O 0.60709 0.03034 0.72475 0.0
O259 O 0.64553 0.03061 0.75652 0.0
C260 C 0.7984 0.61485 0.97933 0.0
O261 O 0.79212 0.61912 0.95673 0.0
O262 O 0.76256 0.66511 0.02829 0.0
Zn263 Zn 0.76268 0.64431 0.99531 0.0
O264 O 0.76551 0.66601 0.96632 0.0
C265 C 0.71282 0.62848 0.98435 0.0
O266 O 0.71541 0.65182 0.9784 0.0
O267 O 0.7885 0.6238 0.99767 0.0
C268 C 0.78464 0.67748 0.95845 0.0
O269 O 0.80492 0.67612 0.96975 0.0
C270 C 0.77422 0.68723 0.03561 0.0
O271 O 0.7885 0.69937 0.02065 0.0
O272 O 0.73099 0.62032 0.99147 0.0
C273 C 0.86299 0.56923 0.75541 0.0
O274 O 0.87021 0.55881 0.73506 0.0
O275 O 0.92039 0.55739 0.74765 0.0
Zn276 Zn 0.90049 0.55024 0.77657 0.0
O277 O 0.92023 0.55783 0.80878 0.0
C278 C 0.8858 0.4969 0.7565 0.0
O279 O 0.89836 0.5031 0.73765 0.0
O280 O 0.87417 0.56911 0.77615 0.0
C281 C 0.93214 0.54106 0.81304 0.0
O282 O 0.93112 0.52161 0.79625 0.0
C283 C 0.94274 0.56446 0.74966 0.0
O284 O 0.95409 0.56796 0.77168 0.0
O285 O 0.88465 0.5137 0.77414 0.0
C286 C 0.72262 0.44407 0.51522 0.0
O287 O 0.72939 0.43653 0.53628 0.0
O288 O 0.74616 0.38922 0.52408 0.0
Zn289 Zn 0.75038 0.4094 0.4948 0.0
O290 O 0.74307 0.38419 0.46456 0.0
C291 C 0.79215 0.44986 0.50407 0.0
O292 O 0.7781 0.46255 0.51592 0.0
O293 O 0.72912 0.43467 0.49495 0.0
C294 C 0.7579 0.36982 0.46129 0.0
O295 O 0.7764 0.37282 0.47715 0.0
C296 C 0.76366 0.3829 0.53517 0.0
O297 O 0.78509 0.39141 0.52861 0.0
O298 O 0.78402 0.42745 0.4941 0.0
C299 C 0.66296 0.46056 0.2762 0.0
O300 O 0.63986 0.45315 0.2744 0.0
O301 O 0.63405 0.5122 0.25269 0.0
Zn302 Zn 0.651 0.50984 0.28574 0.0
O303 O 0.6289 0.50224 0.31328 0.0
C304 C 0.66248 0.56335 0.29496 0.0
O305 O 0.63956 0.56019 0.29 0.0
O306 O 0.67181 0.48399 0.28133 0.0
C307 C 0.60825 0.50719 0.3134 0.0
O308 O 0.60001 0.51731 0.29458 0.0
C309 C 0.61475 0.49833 0.24337 0.0
O310 O 0.60397 0.47997 0.25546 0.0
O311 O 0.67185 0.54393 0.29504 0.0
Dy312 Dy 0.99179 0.01714 0.01144 0.0
C313 C 0.09292 0.03709 0.02021 0.0
C314 C 0.94445 0.01498 0.01282 0.0
Dy315 Dy 0.0458 0.03575 0.02306 0.0
O316 O 0.9545 0.00528 0.99434 0.0
O317 O 0.96022 0.02524 0.03057 0.0
O318 O 0.99865 0.9956 0.97558 0.0
O319 O 0.02179 0.02914 0.99024 0.0
C320 C 0.01871 0.01084 0.97354 0.0
C321 C 0.01907 0.04335 0.06063 0.0
O322 O 0.03812 0.0703 0.00729 0.0
O323 O 0.99722 0.05934 0.00862 0.0
O324 O 0.08343 0.04581 0.03964 0.0
O325 O 0.07673 0.02833 0.00246 0.0
O326 O 0.03919 0.05832 0.05811 0.0
O327 O 0.01574 0.02433 0.04457 0.0
O328 O 0.99925 0.98248 0.02687 0.0
O329 O 0.04015 0.99355 0.02599 0.0
C330 C 0.01676 0.07594 0.00534 0.0
C331 C 0.02057 0.97687 0.02891 0.0
Dy332 Dy 0.26905 0.77288 0.22337 0.0
C333 C 0.28523 0.76687 0.32972 0.0
C334 C 0.26204 0.7822 0.17547 0.0
Dy335 Dy 0.2706 0.77598 0.28384 0.0
O336 O 0.28242 0.78678 0.18805 0.0
O337 O 0.24551 0.7719 0.18888 0.0
O338 O 0.29565 0.74709 0.2239 0.0
O339 O 0.29442 0.77381 0.25419 0.0
C340 C 0.30371 0.75558 0.24665 0.0
C341 C 0.23076 0.78669 0.26314 0.0
O342 O 0.29272 0.81336 0.27855 0.0
O343 O 0.28177 0.8144 0.23642 0.0
O344 O 0.27506 0.78572 0.32529 0.0
O345 O 0.28732 0.75328 0.30916 0.0
O346 O 0.23389 0.78577 0.28703 0.0
O347 O 0.24878 0.7819 0.25349 0.0
O348 O 0.24384 0.73724 0.22892 0.0
O349 O 0.25445 0.73551 0.27093 0.0
C350 C 0.29244 0.8253 0.25821 0.0
C351 C 0.24305 0.72537 0.24936 0.0
Dy352 Dy 0.5355 0.01878 0.50953 0.0
C353 C 0.43776 0.02974 0.50126 0.0
C354 C 0.57821 0.0061 0.51983 0.0
Dy355 Dy 0.4804 0.01698 0.5117 0.0
O356 O 0.57398 0.02023 0.50259 0.0
O357 O 0.55933 -0.00042 0.53159 0.0
O358 O 0.53494 0.03521 0.47257 0.0
O359 O 0.50494 0.01159 0.48376 0.0
C360 C 0.51248 0.02579 0.4677 0.0
C361 C 0.50343 0.00926 0.55318 0.0
O362 O 0.4789 0.97711 0.49519 0.0
O363 O 0.51895 0.97696 0.5033 0.0
O364 O 0.44223 0.0168 0.51944 0.0
O365 O 0.45636 0.03514 0.48885 0.0
O366 O 0.48097 -0.00013 0.54821 0.0
O367 O 0.51095 0.02396 0.5375 0.0
O368 O 0.53691 0.05873 0.52607 0.0
O369 O 0.49683 0.05872 0.51813 0.0
C370 C 0.49686 0.96503 0.49636 0.0
C371 C 0.51886 0.07073 0.52509 0.0
Dy372 Dy 0.23561 0.26901 0.75822 0.0
C373 C 0.33625 0.27864 0.75417 0.0
C374 C 0.18862 0.26315 0.76618 0.0
Dy375 Dy 0.28919 0.27047 0.76247 0.0
O376 O 0.20151 0.28305 0.75863 0.0
O377 O 0.20129 0.246 0.76879 0.0
O378 O 0.24182 0.30145 0.7349 0.0
O379 O 0.26728 0.2988 0.7632 0.0
C380 C 0.26277 0.31088 0.74537 0.0
C381 C 0.26202 0.22779 0.7742 0.0
O382 O 0.28585 0.29108 0.79962 0.0
O383 O 0.24531 0.27657 0.79943 0.0
O384 O 0.32563 0.26178 0.76757 0.0
O385 O 0.32125 0.29142 0.74579 0.0
O386 O 0.28313 0.23681 0.78445 0.0
O387 O 0.25763 0.24067 0.75701 0.0
O388 O 0.23821 0.24962 0.72051 0.0
O389 O 0.27925 0.26053 0.72126 0.0
C390 C 0.26593 0.28756 0.81121 0.0
C391 C 0.25825 0.25136 0.70921 0.0
Dy392 Dy 0.00446 0.01236 0.48652 0.0
C393 C 0.04642 0.04515 0.585 0.0
C394 C 0.97896 0.0017 0.44166 0.0
Dy395 Dy 0.02115 0.03453 0.5401 0.0
O396 O 0.00181 0.005 0.44479 0.0
O397 O 0.96999 0.00334 0.46312 0.0
O398 O 0.04138 0.0077 0.47912 0.0
O399 O 0.03594 0.03781 0.50426 0.0
C400 C 0.0513 0.02652 0.49536 0.0
C401 C 0.97417 0.01894 0.53151 0.0
O402 O 0.02248 0.07101 0.52358 0.0
O403 O 0.99863 0.05275 0.48835 0.0
O404 O 0.02499 0.04861 0.58085 0.0
O405 O 0.0542 0.03666 0.56446 0.0
O406 O 0.98381 0.03763 0.54795 0.0
O407 O 0.99 0.00859 0.52247 0.0
O408 O 0.00501 0.9756 0.50254 0.0
O409 O 0.02745 0.99459 0.53857 0.0
C410 C 0.00953 0.07303 0.50325 0.0
C411 C 0.01777 0.97418 0.52326 0.0
Dy412 Dy 0.29089 0.78471 0.76443 0.0
C413 C 0.19823 0.73854 0.71638 0.0
C414 C 0.33555 0.79607 0.78697 0.0
Dy415 Dy 0.23982 0.75776 0.74365 0.0
O416 O 0.33007 0.78869 0.76361 0.0
O417 O 0.31649 0.79806 0.79826 0.0
O418 O 0.29721 0.80054 0.72795 0.0
O419 O 0.27441 0.76559 0.72885 0.0
C420 C 0.28225 0.78235 0.71505 0.0
C421 C 0.244 0.77635 0.79151 0.0
O422 O 0.2554 0.72296 0.74608 0.0
O423 O 0.29162 0.74369 0.76611 0.0
O424 O 0.20274 0.73453 0.73929 0.0
O425 O 0.21688 0.7519 0.7082 0.0
O426 O 0.2249 0.77428 0.77729 0.0
O427 O 0.25892 0.76637 0.78009 0.0
O428 O 0.27218 0.81722 0.76834 0.0
O429 O 0.24244 0.79885 0.73793 0.0
C430 C 0.27657 0.72275 0.75677 0.0
C431 C 0.25399 0.81868 0.75299 0.0
Dy432 Dy 0.5233 0.0256 0.05167 0.0
C433 C 0.52145 -0.00019 0.94436 0.0
C434 C 0.51897 0.038 0.10063 0.0
Dy435 Dy 0.52034 0.02019 0.99179 0.0
O436 O 0.52868 0.0538 0.08567 0.0
O437 O 0.51184 0.01551 0.08884 0.0
O438 O 0.53892 0.99033 0.05009 0.0
O439 O 0.51521 0.99543 0.02127 0.0
C440 C 0.52883 0.9815 0.02818 0.0
C441 C 0.5205 0.06792 0.01131 0.0
O442 O 0.48255 0.00777 0.99923 0.0
O443 O 0.48471 0.02289 0.04141 0.0
O444 O 0.50747 0.01487 0.95158 0.0
O445 O 0.53474 0.99588 0.96309 0.0
O446 O 0.51961 0.0616 0.98743 0.0
O447 O 0.52231 0.0487 0.02188 0.0
O448 O 0.56051 0.04172 0.0447 0.0
O449 O 0.55923 0.02712 0.00247 0.0
C450 C 0.47254 0.0136 0.01998 0.0
C451 C 0.57092 0.03754 0.02384 0.0
Dy452 Dy 0.2703 0.30473 0.26646 0.0
C453 C 0.25343 0.19659 0.24788 0.0
C454 C 0.26991 0.35489 0.26559 0.0
Dy455 Dy 0.25665 0.24765 0.25115 0.0
O456 O 0.27712 0.34497 0.2848 0.0
O457 O 0.26333 0.33748 0.24713 0.0
O458 O 0.29185 0.29839 0.30018 0.0
O459 O 0.26157 0.27151 0.28632 0.0
C460 C 0.27907 0.27604 0.30207 0.0
C461 C 0.24771 0.27678 0.21601 0.0
O462 O 0.22279 0.25231 0.26672 0.0
O463 O 0.23103 0.29639 0.27209 0.0
O464 O 0.25503 0.20993 0.22909 0.0
O465 O 0.25356 0.21118 0.26832 0.0
O466 O 0.23454 0.25478 0.21821 0.0
O467 O 0.26548 0.28086 0.23135 0.0
O468 O 0.30386 0.29929 0.24995 0.0
O469 O 0.29636 0.2555 0.25007 0.0
C470 C 0.21638 0.27422 0.27259 0.0
C471 C 0.31073 0.27721 0.24705 0.0
Dy472 Dy 0.50037 0.50708 0.97506 0.0
C473 C 0.54077 0.52625 0.07816 0.0
C474 C 0.46948 0.49585 0.93428 0.0
Dy475 Dy 0.52071 0.52529 0.03143 0.0
O476 O 0.48985 0.48898 0.93608 0.0
O477 O 0.46578 0.50826 0.95499 0.0
O478 O 0.53516 0.51667 0.95703 0.0
O479 O 0.53365 0.52239 0.99506 0.0
C480 C 0.54746 0.52505 0.97792 0.0
C481 C 0.47346 0.51514 0.02214 0.0
O482 O 0.52426 0.56288 0.01651 0.0
O483 O 0.49838 0.54847 0.98123 0.0
O484 O 0.52196 0.51065 0.06844 0.0
O485 O 0.54875 0.54216 0.06241 0.0
O486 O 0.48436 0.53215 0.0396 0.0
O487 O 0.48814 0.50375 0.01211 0.0
O488 O 0.50256 0.46987 0.98919 0.0
O489 O 0.52983 0.48699 0.02252 0.0
C490 C 0.51153 0.56704 0.99674 0.0
C491 C 0.51763 0.46732 0.0077 0.0
Dy492 Dy 0.79175 0.28777 0.26572 0.0
C493 C 0.69907 0.24838 0.21784 0.0
C494 C 0.83332 0.29975 0.29441 0.0
Dy495 Dy 0.74105 0.26083 0.24577 0.0
O496 O 0.83072 0.30453 0.27147 0.0
O497 O 0.81307 0.2893 0.3018 0.0
O498 O 0.80092 0.29604 0.22713 0.0
O499 O 0.77616 0.2635 0.23246 0.0
C500 C 0.78547 0.27683 0.21639 0.0
C501 C 0.74767 0.2721 0.29505 0.0
O502 O 0.75739 0.22646 0.24594 0.0
O503 O 0.79004 0.24678 0.27201 0.0
O504 O 0.70211 0.24407 0.24085 0.0
O505 O 0.71917 0.25856 0.20986 0.0
O506 O 0.73204 0.25285 0.28472 0.0
O507 O 0.75672 0.28507 0.27869 0.0
O508 O 0.7753 0.32206 0.2659 0.0
O509 O 0.74265 0.30193 0.23974 0.0
C510 C 0.77639 0.22584 0.26053 0.0
C511 C 0.75622 0.32282 0.25149 0.0
Dy512 Dy 0.01666 0.5305 0.53757 0.0
C513 C 0.02083 0.50806 0.42981 0.0
C514 C 0.01063 0.54312 0.58613 0.0
Dy515 Dy 0.01641 0.52628 0.47739 0.0
O516 O 0.00758 0.52003 0.57548 0.0
O517 O 0.01708 0.55932 0.5703 0.0
O518 O 0.03347 0.49617 0.53654 0.0
O519 O 0.01088 0.50097 0.50652 0.0
C520 C 0.02471 0.48752 0.51408 0.0
C521 C 0.01434 0.57307 0.49805 0.0
O522 O 0.97824 0.51176 0.48287 0.0
O523 O 0.97817 0.52466 0.52546 0.0
O524 O 0.00764 0.52423 0.43635 0.0
O525 O 0.03141 0.50171 0.44929 0.0
O526 O 0.01441 0.56777 0.4741 0.0
O527 O 0.0164 0.55357 0.50789 0.0
O528 O 0.05388 0.54825 0.53243 0.0
O529 O 0.05502 0.53472 0.49019 0.0
C530 C 0.96709 0.51561 0.5034 0.0
C531 C 0.06549 0.54502 0.51221 0.0
Dy532 Dy 0.74002 0.77115 0.26243 0.0
C533 C 0.84158 0.78295 0.26275 0.0
C534 C 0.69267 0.76045 0.26865 0.0
Dy535 Dy 0.79416 0.77416 0.26886 0.0
O536 O 0.70434 0.78202 0.26309 0.0
O537 O 0.7068 0.74461 0.2703 0.0
O538 O 0.746 0.80448 0.24022 0.0
O539 O 0.77114 0.80145 0.26878 0.0
C540 C 0.7668 0.81389 0.25116 0.0
C541 C 0.76707 0.73105 0.27926 0.0
O542 O 0.78909 0.79392 0.3058 0.0
O543 O 0.74846 0.77886 0.30389 0.0
O544 O 0.83037 0.76533 0.27494 0.0
O545 O 0.82696 0.7962 0.25443 0.0
O546 O 0.78773 0.7402 0.29052 0.0
O547 O 0.76316 0.74404 0.26202 0.0
O548 O 0.7448 0.75359 0.22452 0.0
O549 O 0.78591 0.76503 0.2274 0.0
C550 C 0.76869 0.78994 0.31651 0.0
C551 C 0.76544 0.75595 0.21432 0.0
Dy552 Dy 0.76459 0.26875 0.72338 0.0
C553 C 0.76522 0.26646 0.83217 0.0
C554 C 0.75217 0.27851 0.67699 0.0
Dy555 Dy 0.76234 0.27343 0.78321 0.0
O556 O 0.76342 0.26056 0.68174 0.0
O557 O 0.74775 0.29069 0.69746 0.0
O558 O 0.80147 0.25927 0.72275 0.0
O559 O 0.78592 0.26608 0.75556 0.0
C560 C 0.80408 0.26027 0.74691 0.0
C561 C 0.72764 0.28743 0.75655 0.0
O562 O 0.78655 0.30999 0.77865 0.0
O563 O 0.77935 0.30969 0.73573 0.0
O564 O 0.74594 0.2608 0.81769 0.0
O565 O 0.78291 0.27638 0.82 0.0
O566 O 0.73455 0.2973 0.77921 0.0
O567 O 0.73819 0.2697 0.75061 0.0
O568 O 0.74466 0.23022 0.72834 0.0
O569 O 0.75369 0.23145 0.7712 0.0
C570 C 0.78867 0.32103 0.75776 0.0
C571 C 0.74506 0.21911 0.7492 0.0
Dy572 Dy 0.76815 0.79711 0.76799 0.0
C573 C 0.75684 0.68935 0.75673 0.0
C574 C 0.76757 0.84694 0.76498 0.0
Dy575 Dy 0.7558 0.73923 0.75498 0.0
O576 O 0.76792 0.83647 0.78561 0.0
O577 O 0.76803 0.83027 0.7463 0.0
O578 O 0.78941 0.79271 0.80263 0.0
O579 O 0.75968 0.76478 0.78902 0.0
C580 C 0.77696 0.77032 0.80508 0.0
C581 C 0.74758 0.76663 0.718 0.0
O582 O 0.72194 0.74399 0.77065 0.0
O583 O 0.72832 0.78776 0.77025 0.0
O584 O 0.75021 0.69896 0.73707 0.0
O585 O 0.76248 0.70693 0.77518 0.0
O586 O 0.73474 0.7444 0.72019 0.0
O587 O 0.76463 0.77154 0.73421 0.0
O588 O 0.8029 0.79225 0.75409 0.0
O589 O 0.79535 0.74818 0.75205 0.0
C590 C 0.71445 0.7657 0.77332 0.0
C591 C 0.8098 0.77024 0.75049 0.0
Dy592 Dy 0.48786 0.51442 0.50239 0.0
C593 C 0.58916 0.53359 0.50927 0.0
C594 C 0.44109 0.51423 0.50665 0.0
Dy595 Dy 0.54219 0.53268 0.51273 0.0
O596 O 0.44961 0.50297 0.48789 0.0
O597 O 0.45805 0.52497 0.52298 0.0
O598 O 0.49331 0.49166 0.4669 0.0
O599 O 0.51755 0.5251 0.48013 0.0
C600 C 0.5136 0.50615 0.46401 0.0
C601 C 0.51603 0.54114 0.55069 0.0
O602 O 0.5347 0.56704 0.4967 0.0
O603 O 0.49375 0.55628 0.49774 0.0
O604 O 0.58013 0.54389 0.52822 0.0
O605 O 0.57259 0.52334 0.49234 0.0
O606 O 0.53616 0.55594 0.54785 0.0
O607 O 0.51253 0.52208 0.53477 0.0
O608 O 0.49551 0.48029 0.519 0.0
O609 O 0.53639 0.49091 0.51743 0.0
C610 C 0.51341 0.57272 0.49448 0.0
C611 C 0.51683 0.47463 0.52128 0.0
Dy612 Dy 0.03311 0.51989 0.01936 0.0
C613 C 0.93382 0.52587 0.01054 0.0
C614 C 0.07756 0.51043 0.02718 0.0
Dy615 Dy 0.97808 0.51598 0.01842 0.0
O616 O 0.07182 0.52617 0.01236 0.0
O617 O 0.05911 0.50035 0.03817 0.0
O618 O 0.03468 0.54253 0.9863 0.0
O619 O 0.00439 0.51571 0.99135 0.0
C620 C 0.01283 0.53304 0.97859 0.0
C621 C 0.99841 0.50143 0.05829 0.0
O622 O 0.97797 0.4775 -0.00053 0.0
O623 O 0.01826 0.47832 0.00739 0.0
O624 O 0.94482 0.52663 0.03218 0.0
O625 O 0.94673 0.51895 0.9932 0.0
O626 O 0.97678 0.49143 0.04991 0.0
O627 O 0.00679 0.51969 0.04649 0.0
O628 O 0.03183 0.55721 0.0403 0.0
O629 O 0.99378 0.55778 0.02461 0.0
C630 C 0.9965 0.46627 0.99923 0.0
C631 C 0.01432 0.56937 0.03626 0.0
H632 H 0.01035 0.18451 0.90112 0.0
H633 H 0.97686 0.21567 0.96309 0.0
H634 H 0.01796 0.15054 0.92501 0.0
H635 H 0.98454 0.18157 0.98699 0.0
H636 H 0.97772 0.09754 0.00575 0.0
H637 H 0.97137 0.13425 0.98531 0.0
H638 H 0.04297 0.14563 0.96282 0.0
H639 H 0.04938 0.10884 0.98317 0.0
C640 C 0.00453 0.18409 0.9198 0.0
C641 C 0.99297 0.20281 0.93018 0.0
C642 C 0.0091 0.16474 0.93357 0.0
C643 C 0.00201 0.16352 0.95794 0.0
C644 C 0.99014 0.182 0.96822 0.0
C645 C 0.98579 0.20153 0.95454 0.0
C646 C 0.99223 0.10805 0.99673 0.0
C647 C 0.01403 0.10017 0.99599 0.0
C648 C 0.98859 0.12914 0.9851 0.0
C649 C 0.00659 0.14265 0.97227 0.0
C650 C 0.02867 0.13535 0.9723 0.0
C651 C 0.0324 0.11442 0.98415 0.0
H652 H 0.12077 0.77547 0.14818 0.0
H653 H 0.09204 0.81132 0.21109 0.0
H654 H 0.15723 0.77698 0.1731 0.0
H655 H 0.12889 0.8133 0.23599 0.0
H656 H 0.18613 0.7807 0.27879 0.0
H657 H 0.15012 0.78411 0.25474 0.0
H658 H 0.19161 0.8059 0.19318 0.0
H659 H 0.22738 0.80238 0.21734 0.0
C660 C 0.12231 0.78394 0.16727 0.0
C661 C 0.10344 0.79318 0.17767 0.0
C662 C 0.14331 0.78494 0.18153 0.0
C663 C 0.14598 0.79524 0.20656 0.0
C664 C 0.12728 0.80496 0.21685 0.0
C665 C 0.10623 0.80397 0.20254 0.0
C666 C 0.18745 0.78638 0.26018 0.0
C667 C 0.20933 0.79064 0.24957 0.0
C668 C 0.1669 0.78845 0.24644 0.0
C669 C 0.16795 0.795 0.22192 0.0
C670 C 0.19009 0.80023 0.21178 0.0
C671 C 0.21056 0.79809 0.22551 0.0
H672 H 0.52044 0.83186 0.41098 0.0
H673 H 0.44858 0.80762 0.4305 0.0
H674 H 0.52279 0.87226 0.43593 0.0
H675 H 0.4511 0.84796 0.45587 0.0
H676 H 0.52804 0.93318 0.49933 0.0
H677 H 0.52398 0.8904 0.47887 0.0
H678 H 0.45347 0.89277 0.45013 0.0
H679 H 0.45734 0.93553 0.47097 0.0
C680 C 0.5052 0.83507 0.42074 0.0
C681 C 0.48431 0.81653 0.41869 0.0
C682 C 0.5066 0.85818 0.4352 0.0
C683 C 0.48715 0.86331 0.44797 0.0
C684 C 0.46631 0.84468 0.44608 0.0
C685 C 0.46492 0.82153 0.43163 0.0
C686 C 0.51154 0.92453 0.48888 0.0
C687 C 0.49308 0.93792 0.4866 0.0
C688 C 0.50929 0.90003 0.47703 0.0
C689 C 0.48854 0.8883 0.46258 0.0
C690 C 0.46965 0.90121 0.46124 0.0
C691 C 0.47188 0.92576 0.47315 0.0
H692 H 0.47489 0.31341 0.69268 0.0
H693 H 0.45525 0.23179 0.68916 0.0
H694 H 0.43983 0.31736 0.71488 0.0
H695 H 0.42003 0.23573 0.71085 0.0
H696 H 0.36795 0.24997 0.76716 0.0
H697 H 0.40634 0.24918 0.75048 0.0
H698 H 0.39732 0.30948 0.7061 0.0
H699 H 0.35918 0.31055 0.72321 0.0
C700 C 0.46314 0.2963 0.69668 0.0
C701 C 0.46787 0.27227 0.68906 0.0
C702 C 0.44297 0.29857 0.70931 0.0
C703 C 0.42706 0.27687 0.71464 0.0
C704 C 0.43205 0.25287 0.7074 0.0
C705 C 0.4522 0.2506 0.69479 0.0
C706 C 0.37437 0.2633 0.75413 0.0
C707 C 0.36059 0.28026 0.7464 0.0
C708 C 0.39627 0.26272 0.74441 0.0
C709 C 0.40484 0.27909 0.72675 0.0
C710 C 0.39139 0.29675 0.71981 0.0
C711 C 0.36949 0.29732 0.72954 0.0
H712 H 0.9992 0.8199 0.56969 0.0
H713 H 0.02517 0.87427 0.63336 0.0
H714 H 0.00301 0.85433 0.54299 0.0
H715 H 0.02852 0.9085 0.60691 0.0
H716 H 0.05246 0.9637 0.55367 0.0
H717 H 0.05181 0.92581 0.57471 0.0
H718 H 0.98527 0.89085 0.53471 0.0
H719 H 0.98625 0.92884 0.51309 0.0
C720 C 0.00572 0.83917 0.578 0.0
C721 C 0.01194 0.84432 0.60369 0.0
C722 C 0.0078 0.8589 0.56269 0.0
C723 C 0.01623 0.88418 0.57273 0.0
C724 C 0.02242 0.88923 0.59842 0.0
C725 C 0.02033 0.86958 0.61367 0.0
C726 C 0.03789 0.94775 0.549 0.0
C727 C 0.01929 0.94932 0.53188 0.0
C728 C 0.03742 0.92609 0.56123 0.0
C729 C 0.01823 0.90549 0.55686 0.0
C730 C 0.00035 0.90636 0.53851 0.0
C731 C 0.00091 0.92809 0.52606 0.0
H732 H 0.46497 0.74672 0.81653 0.0
H733 H 0.46585 0.8018 0.87997 0.0
H734 H 0.42806 0.75621 0.80006 0.0
H735 H 0.42906 0.81159 0.86323 0.0
H736 H 0.34867 0.79842 0.83666 0.0
H737 H 0.38678 0.79286 0.85491 0.0
H738 H 0.41383 0.79029 0.78196 0.0
H739 H 0.37586 0.79533 0.76388 0.0
C740 C 0.45736 0.76092 0.82692 0.0
C741 C 0.46843 0.77351 0.84954 0.0
C742 C 0.43625 0.76651 0.8174 0.0
C743 C 0.42566 0.78482 0.83024 0.0
C744 C 0.43664 0.79727 0.85296 0.0
C745 C 0.4578 0.79173 0.86248 0.0
C746 C 0.36295 0.79713 0.82468 0.0
C747 C 0.35931 0.79717 0.79887 0.0
C748 C 0.38476 0.79392 0.83508 0.0
C749 C 0.40324 0.7907 0.81982 0.0
C750 C 0.39983 0.79209 0.79417 0.0
C751 C 0.37812 0.79523 0.78384 0.0
H752 H 0.50065 0.19685 0.11071 0.0
H753 H 0.47734 0.21288 0.03796 0.0
H754 H 0.50879 0.15683 0.09289 0.0
H755 H 0.48446 0.17207 0.02014 0.0
H756 H 0.52596 0.11294 0.99194 0.0
H757 H 0.51628 0.15235 0.01023 0.0
H758 H 0.49301 0.11556 0.07476 0.0
H759 H 0.50363 0.07659 0.05668 0.0
C760 C 0.49676 0.19158 0.09093 0.0
C761 C 0.48841 0.20812 0.07572 0.0
C762 C 0.50138 0.1685 0.0807 0.0
C763 C 0.49747 0.16118 0.055 0.0
C764 C 0.48821 0.17731 0.03992 0.0
C765 C 0.48388 0.20061 0.05015 0.0
C766 C 0.519 0.11348 0.01015 0.0
C767 C 0.5159 0.09196 0.02313 0.0
C768 C 0.51317 0.13594 0.02054 0.0
C769 C 0.50371 0.13721 0.04398 0.0
C770 C 0.50063 0.11551 0.0569 0.0
C771 C 0.50678 0.09316 0.04662 0.0
H772 H 0.08636 0.29822 0.34087 0.0
H773 H 0.10504 0.23106 0.36709 0.0
H774 H 0.11932 0.30173 0.31398 0.0
H775 H 0.13802 0.23479 0.34053 0.0
H776 H 0.18106 0.23294 0.27417 0.0
H777 H 0.14532 0.23052 0.29641 0.0
H778 H 0.1631 0.31133 0.31752 0.0
H779 H 0.1989 0.31391 0.29492 0.0
C780 C 0.09748 0.28421 0.34091 0.0
C781 C 0.09304 0.26432 0.35612 0.0
C782 C 0.11641 0.2863 0.32557 0.0
C783 C 0.13121 0.26847 0.32501 0.0
C784 C 0.12671 0.2486 0.3402 0.0
C785 C 0.10789 0.24656 0.35557 0.0
C786 C 0.17727 0.2503 0.28326 0.0
C787 C 0.19303 0.2736 0.28296 0.0
C788 C 0.15682 0.24885 0.29616 0.0
C789 C 0.15157 0.27065 0.30908 0.0
C790 C 0.16663 0.29419 0.3077 0.0
C791 C 0.18716 0.29566 0.29476 0.0
H792 H 0.96728 0.07012 0.20616 0.0
H793 H 0.90423 0.03627 0.15947 0.0
H794 H 0.99074 0.06942 0.17 0.0
H795 H 0.92762 0.03607 0.12328 0.0
H796 H 0.98116 0.00923 0.07229 0.0
H797 H 0.95674 0.01308 0.1073 0.0
H798 H 0.99839 0.08767 0.13104 0.0
H799 H 0.02304 0.0836 0.09602 0.0
C800 C 0.95837 0.06278 0.18816 0.0
C801 C 0.9339 0.05309 0.18575 0.0
C802 C 0.97182 0.06251 0.16739 0.0
C803 C 0.96108 0.05256 0.14376 0.0
C804 C 0.9365 0.04348 0.14128 0.0
C805 C 0.92307 0.04373 0.16203 0.0
C806 C 0.98497 0.02653 0.08488 0.0
C807 C 0.00394 0.04615 0.08144 0.0
C808 C 0.97092 0.02879 0.10489 0.0
C809 C 0.97557 0.05071 0.12197 0.0
C810 C 0.99449 0.07043 0.11838 0.0
C811 C 0.00854 0.06816 0.0983 0.0
H812 H 0.24352 0.69445 0.45373 0.0
H813 H 0.31691 0.68763 0.45675 0.0
H814 H 0.25079 0.72276 0.42147 0.0
H815 H 0.32419 0.71629 0.42437 0.0
H816 H 0.2711 0.78474 0.37409 0.0
H817 H 0.27236 0.76541 0.4131 0.0
H818 H 0.31109 0.71174 0.37933 0.0
H819 H 0.30999 0.73116 0.3406 0.0
C820 C 0.26126 0.69912 0.44762 0.0
C821 C 0.27959 0.68861 0.4576 0.0
C822 C 0.26547 0.71561 0.42935 0.0
C823 C 0.28809 0.72186 0.42055 0.0
C824 C 0.30658 0.71173 0.43082 0.0
C825 C 0.30239 0.69533 0.44929 0.0
C826 C 0.2804 0.76926 0.37529 0.0
C827 C 0.29015 0.75915 0.35438 0.0
C828 C 0.28101 0.75812 0.3975 0.0
C829 C 0.29154 0.73687 0.39909 0.0
C830 C 0.30295 0.72815 0.3787 0.0
C831 C 0.3022 0.73916 0.35649 0.0
H832 H 0.58861 0.04745 0.68882 0.0
H833 H 0.58101 0.96584 0.68001 0.0
H834 H 0.56434 0.04524 0.65052 0.0
H835 H 0.55652 0.96376 0.64126 0.0
H836 H 0.49171 0.977 0.58877 0.0
H837 H 0.5156 0.97468 0.62704 0.0
H838 H 0.57097 0.0328 0.6055 0.0
H839 H 0.54734 0.03531 0.56789 0.0
C840 C 0.58176 0.02902 0.67871 0.0
C841 C 0.58682 0.00682 0.68734 0.0
C842 C 0.56792 0.02779 0.65674 0.0
C843 C 0.55873 0.00435 0.64296 0.0
C844 C 0.56338 0.98203 0.65169 0.0
C845 C 0.57748 0.98327 0.67369 0.0
C846 C 0.50904 0.98911 0.59228 0.0
C847 C 0.51767 0.00642 0.57555 0.0
C848 C 0.5227 0.98768 0.61399 0.0
C849 C 0.54497 0.00373 0.61919 0.0
C850 C 0.55372 0.02047 0.60205 0.0
C851 C 0.54022 0.02182 0.58049 0.0
H852 H 0.26735 0.38575 0.94738 0.0
H853 H 0.2478 0.31059 0.9705 0.0
H854 H 0.27153 0.36728 0.90531 0.0
H855 H 0.25189 0.29219 0.92835 0.0
H856 H 0.23234 0.2731 0.84337 0.0
H857 H 0.23061 0.29036 0.88627 0.0
H858 H 0.29761 0.34101 0.88241 0.0
H859 H 0.29945 0.32362 0.83925 0.0
C860 C 0.26387 0.36529 0.94349 0.0
C861 C 0.25713 0.34964 0.96231 0.0
C862 C 0.26648 0.35473 0.91943 0.0
C863 C 0.26211 0.32829 0.91353 0.0
C864 C 0.25526 0.31264 0.9323 0.0
C865 C 0.25295 0.32319 0.95645 0.0
C866 C 0.24681 0.28781 0.85166 0.0
C867 C 0.26602 0.29704 0.83783 0.0
C868 C 0.24586 0.2976 0.87631 0.0
C869 C 0.26393 0.31708 0.88771 0.0
C870 C 0.28332 0.32613 0.87404 0.0
C871 C 0.28445 0.31606 0.8494 0.0
H872 H 0.88011 0.04113 0.33571 0.0
H873 H 0.93016 0.01435 0.28852 0.0
H874 H 0.90144 0.03102 0.37205 0.0
H875 H 0.95092 0.00302 0.32468 0.0
H876 H 0.99712 0.01246 0.39767 0.0
H877 H 0.97579 0.01967 0.36002 0.0
H878 H 0.90957 0.99786 0.39369 0.0
H879 H 0.9312 0.99201 0.43183 0.0
C880 C 0.89563 0.03294 0.3331 0.0
C881 C 0.90352 0.02868 0.30927 0.0
C882 C 0.90775 0.02685 0.35393 0.0
C883 C 0.92789 0.01596 0.35142 0.0
C884 C 0.93574 0.0117 0.32748 0.0
C885 C 0.9238 0.01815 0.30669 0.0
C886 C 0.97798 0.00887 0.39685 0.0
C887 C 0.96579 0.00177 0.41765 0.0
C888 C 0.96569 0.01293 0.3752 0.0
C889 C 0.94087 0.00965 0.37376 0.0
C890 C 0.92868 0.00125 0.39427 0.0
C891 C 0.94102 0.99756 0.41604 0.0
H892 H 0.25658 0.72544 0.55832 0.0
H893 H 0.30666 0.68657 0.59214 0.0
H894 H 0.25985 0.75464 0.59602 0.0
H895 H 0.30961 0.71554 0.62995 0.0
H896 H 0.32152 0.77954 0.69054 0.0
H897 H 0.32281 0.75994 0.64811 0.0
H898 H 0.2468 0.75007 0.63789 0.0
H899 H 0.24589 0.77044 0.67984 0.0
C900 C 0.26837 0.72319 0.57375 0.0
C901 C 0.2812 0.70354 0.57235 0.0
C902 C 0.27021 0.73991 0.59533 0.0
C903 C 0.28495 0.73737 0.61594 0.0
C904 C 0.29835 0.71821 0.61425 0.0
C905 C 0.29649 0.70146 0.59267 0.0
C906 C 0.30525 0.77381 0.67885 0.0
C907 C 0.28351 0.77599 0.68835 0.0
C908 C 0.30593 0.76237 0.65475 0.0
C909 C 0.28487 0.7531 0.63983 0.0
C910 C 0.26333 0.75701 0.64889 0.0
C911 C 0.2627 0.76834 0.67299 0.0
H912 H 0.58127 0.95891 0.80597 0.0
H913 H 0.56601 0.03414 0.80606 0.0
H914 H 0.55786 0.95191 0.84182 0.0
H915 H 0.54329 0.02747 0.84222 0.0
H916 H 0.55337 0.97289 0.92708 0.0
H917 H 0.56532 0.96866 0.88476 0.0
H918 H 0.50917 0.00519 0.86041 0.0
H919 H 0.49771 0.01009 0.90313 0.0
C920 C 0.57278 0.97387 0.81353 0.0
C921 C 0.57577 0.99723 0.80347 0.0
C922 C 0.55939 0.96986 0.83405 0.0
C923 C 0.54886 0.98918 0.84498 0.0
C924 C 0.55088 0.01204 0.83407 0.0
C925 C 0.56413 0.01599 0.81347 0.0
C926 C 0.54326 0.97948 0.91257 0.0
C927 C 0.52495 0.99223 0.91832 0.0
C928 C 0.54998 0.97691 0.88826 0.0
C929 C 0.5384 0.98695 0.86928 0.0
C930 C 0.51872 0.99774 0.87475 0.0
C931 C 0.51208 0.00041 0.89913 0.0
H932 H 0.27714 0.35754 0.08631 0.0
H933 H 0.20266 0.355 0.0938 0.0
H934 H 0.27882 0.33445 0.12272 0.0
H935 H 0.20445 0.33237 0.13046 0.0
H936 H 0.21178 0.26905 0.17981 0.0
H937 H 0.20946 0.2918 0.14314 0.0
H938 H 0.2767 0.34058 0.16737 0.0
H939 H 0.27924 0.31736 0.20359 0.0
C940 C 0.26112 0.35207 0.09571 0.0
C941 C 0.23977 0.35815 0.08709 0.0
C942 C 0.26212 0.33899 0.11672 0.0
C943 C 0.24179 0.33163 0.12964 0.0
C944 C 0.22039 0.33748 0.12084 0.0
C945 C 0.2194 0.35058 0.09985 0.0
C946 C 0.226 0.28469 0.1773 0.0
C947 C 0.24565 0.29146 0.19457 0.0
C948 C 0.22464 0.29782 0.15636 0.0
C949 C 0.24294 0.31799 0.15221 0.0
C950 C 0.26246 0.32491 0.16975 0.0
C951 C 0.26381 0.31178 0.19065 0.0
H952 H 0.21754 0.97628 0.98545 0.0
H953 H 0.19996 0.9588 0.05926 0.0
H954 H 0.18981 0.00494 0.98577 0.0
H955 H 0.17141 0.9866 0.05922 0.0
H956 H 0.11276 0.0168 0.98111 0.0
H957 H 0.14834 -0.00068 0.98215 0.0
H958 H 0.16336 0.02842 0.0596 0.0
H959 H 0.12692 0.04518 0.05865 0.0
C960 C 0.2077 0.97855 0.00175 0.0
C961 C 0.21065 0.96504 0.0222 0.0
C962 C 0.19179 0.99496 0.00193 0.0
C963 C 0.17817 0.99793 0.02241 0.0
C964 C 0.1818 0.98509 0.04326 0.0
C965 C 0.198 0.96893 0.04321 0.0
C966 C 0.12393 0.01995 0.99822 0.0
C967 C 0.11702 0.03207 0.01987 0.0
C968 C 0.14446 0.01003 0.99881 0.0
C969 C 0.15865 0.01218 0.02105 0.0
C970 C 0.15258 0.02599 0.0423 0.0
C971 C 0.13188 0.03583 0.04172 0.0
H972 H 0.69918 0.58543 0.00731 0.0
H973 H 0.67238 0.63549 0.96048 0.0
H974 H 0.65925 0.55974 0.0071 0.0
H975 H 0.63273 0.60966 0.96007 0.0
H976 H 0.57404 0.53895 0.94011 0.0
H977 H 0.6143 0.56346 0.9424 0.0
H978 H 0.61751 0.56634 0.02241 0.0
H979 H 0.57671 0.54189 0.02013 0.0
C980 C 0.68482 0.59087 0.99689 0.0
C981 C 0.68892 0.61242 0.98381 0.0
C982 C 0.66199 0.57629 0.99695 0.0
C983 C 0.64298 0.58274 0.98356 0.0
C984 C 0.64712 0.6042 0.97042 0.0
C985 C 0.66981 0.61899 0.9707 0.0
C986 C 0.58334 0.5447 0.95821 0.0
C987 C 0.57229 0.53862 0.97997 0.0
C988 C 0.60633 0.55882 0.9595 0.0
C989 C 0.61892 0.56688 0.98257 0.0
C990 C 0.60815 0.56025 0.00439 0.0
C991 C 0.58488 0.54637 0.00311 0.0
H992 H 0.71143 0.46912 0.2797 0.0
H993 H 0.64945 0.40977 0.26229 0.0
H994 H 0.73666 0.43821 0.27136 0.0
H995 H 0.67456 0.37902 0.25432 0.0
H996 H 0.72264 0.33325 0.21924 0.0
H997 H 0.70188 0.36832 0.22387 0.0
H998 H 0.74744 0.40092 0.28911 0.0
H999 H 0.76854 0.36585 0.28429 0.0
C1000 C 0.70318 0.4495 0.27414 0.0
C1001 C 0.67841 0.44192 0.27162 0.0
C1002 C 0.71765 0.43181 0.26944 0.0
C1003 C 0.70763 0.40622 0.26197 0.0
C1004 C 0.68286 0.39868 0.25957 0.0
C1005 C 0.66844 0.4163 0.26435 0.0
C1006 C 0.72855 0.34811 0.23434 0.0
C1007 C 0.74709 0.3466 0.25157 0.0
C1008 C 0.71652 0.36813 0.23708 0.0
C1009 C 0.72268 0.38711 0.25715 0.0
C1010 C 0.74227 0.38658 0.27343 0.0
C1011 C 0.75439 0.3665 0.27065 0.0
H1012 H 0.82538 0.4284 0.48088 0.0
H1013 H 0.81589 0.49694 0.52373 0.0
H1014 H 0.86719 0.44626 0.47946 0.0
H1015 H 0.85781 0.515 0.52191 0.0
H1016 H 0.93785 0.52157 0.54071 0.0
H1017 H 0.89527 0.50729 0.5395 0.0
H1018 H 0.89438 0.47956 0.46196 0.0
H1019 H 0.93718 0.49339 0.46319 0.0
C1020 C 0.83217 0.44737 0.48984 0.0
C1021 C 0.81734 0.46122 0.50253 0.0
C1022 C 0.85612 0.45768 0.48885 0.0
C1023 C 0.86577 0.48204 0.50054 0.0
C1024 C 0.85089 0.49606 0.51294 0.0
C1025 C 0.82689 0.48575 0.51391 0.0
C1026 C 0.92863 0.51254 0.52333 0.0
C1027 C 0.941 0.50843 0.50209 0.0
C1028 C 0.90416 0.50454 0.52262 0.0
C1029 C 0.89149 0.49224 0.50067 0.0
C1030 C 0.90374 0.4887 0.47924 0.0
C1031 C 0.92825 0.49673 0.47993 0.0
H1032 H 0.31478 0.06271 0.22179 0.0
H1033 H 0.34151 0.1072 0.29144 0.0
H1034 H 0.2829 0.08637 0.21874 0.0
H1035 H 0.31008 0.13088 0.28822 0.0
H1036 H 0.25028 0.16696 0.28574 0.0
H1037 H 0.26748 0.12935 0.28805 0.0
H1038 H 0.28331 0.1307 0.21098 0.0
H1039 H 0.26553 0.16783 0.20855 0.0
C1040 C 0.31373 0.07735 0.23654 0.0
C1041 C 0.3308 0.08335 0.25671 0.0
C1042 C 0.29547 0.09082 0.2348 0.0
C1043 C 0.29394 0.11036 0.25327 0.0
C1044 C 0.31049 0.1156 0.2739 0.0
C1045 C 0.32872 0.10225 0.27559 0.0
C1046 C 0.25669 0.15863 0.26909 0.0
C1047 C 0.25712 0.17047 0.24713 0.0
C1048 C 0.26661 0.13721 0.27043 0.0
C1049 C 0.27726 0.12754 0.24989 0.0
C1050 C 0.27523 0.13772 0.22712 0.0
C1051 C 0.26515 0.15906 0.22574 0.0
H1052 H 0.30227 0.0812 0.49835 0.0
H1053 H 0.35574 0.14192 0.47781 0.0
H1054 H 0.33163 0.05421 0.50045 0.0
H1055 H 0.38496 0.11517 0.48019 0.0
H1056 H 0.42715 0.05507 0.46279 0.0
H1057 H 0.39466 0.07742 0.45812 0.0
H1058 H 0.36765 0.05119 0.52601 0.0
H1059 H 0.40019 0.02841 0.53047 0.0
C1060 C 0.32025 0.08879 0.49426 0.0
C1061 C 0.32664 0.11373 0.48786 0.0
C1062 C 0.33709 0.07336 0.49558 0.0
C1063 C 0.36061 0.08247 0.49036 0.0
C1064 C 0.36692 0.10739 0.48392 0.0
C1065 C 0.35017 0.12281 0.48272 0.0
C1066 C 0.41411 0.0538 0.47656 0.0
C1067 C 0.41626 0.04017 0.4971 0.0
C1068 C 0.39558 0.06675 0.47397 0.0
C1069 C 0.37876 0.06642 0.49188 0.0
C1070 C 0.38027 0.05174 0.51183 0.0
C1071 C 0.39889 0.03874 0.51443 0.0
H1072 H 0.71044 0.57656 0.30438 0.0
H1073 H 0.64831 0.60823 0.29096 0.0
H1074 H 0.7354 0.6183 0.30332 0.0
H1075 H 0.6733 0.64994 0.29015 0.0
H1076 H 0.77186 0.70224 0.31718 0.0
H1077 H 0.74591 0.66252 0.32468 0.0
H1078 H 0.70125 0.66717 0.25964 0.0
H1079 H 0.72718 0.70652 0.25209 0.0
C1080 C 0.70209 0.59248 0.30158 0.0
C1081 C 0.67742 0.58903 0.29746 0.0
C1082 C 0.71639 0.6164 0.3011 0.0
C1083 C 0.70628 0.63728 0.29641 0.0
C1084 C 0.68157 0.63406 0.29343 0.0
C1085 C 0.66727 0.61019 0.29401 0.0
C1086 C 0.75643 0.69474 0.30459 0.0
C1087 C 0.75136 0.70746 0.28419 0.0
C1088 C 0.74164 0.67206 0.30885 0.0
C1089 C 0.72149 0.66188 0.29284 0.0
C1090 C 0.7164 0.6748 0.27256 0.0
C1091 C 0.73126 0.69729 0.2682 0.0
H1092 H 0.88288 0.45609 0.72168 0.0
H1093 H 0.85893 0.47854 0.79321 0.0
H1094 H 0.86008 0.41326 0.7228 0.0
H1095 H 0.83587 0.43599 0.79405 0.0
H1096 H 0.81539 0.35006 0.79726 0.0
H1097 H 0.84009 0.39216 0.79733 0.0
H1098 H 0.81833 0.39284 0.72 0.0
H1099 H 0.79406 0.35086 0.71972 0.0
C1100 C 0.87278 0.4519 0.73762 0.0
C1101 C 0.87263 0.47073 0.75728 0.0
C1102 C 0.85964 0.42742 0.73821 0.0
C1103 C 0.84612 0.42131 0.75849 0.0
C1104 C 0.84631 0.44004 0.77832 0.0
C1105 C 0.85941 0.46448 0.77772 0.0
C1106 C 0.81581 0.35923 0.78031 0.0
C1107 C 0.80277 0.34703 0.7585 0.0
C1108 C 0.82993 0.38335 0.78036 0.0
C1109 C 0.83128 0.39571 0.75861 0.0
C1110 C 0.81803 0.38361 0.73692 0.0
C1111 C 0.80396 0.35958 0.73685 0.0
H1112 H 0.00953 0.85265 0.11801 0.0
H1113 H 0.06528 0.83953 0.07111 0.0
H1114 H 0.0038 0.888 0.09542 0.0
H1115 H 0.05915 0.87473 0.04807 0.0
H1116 H 0.06134 0.95941 0.03752 0.0
H1117 H 0.0657 0.92064 0.05505 0.0
H1118 H 0.98981 0.89882 0.05584 0.0
H1119 H 0.9854 0.93795 0.03882 0.0
C1120 C 0.02045 0.85716 0.10272 0.0
C1121 C 0.03797 0.84332 0.09646 0.0
C1122 C 0.01701 0.87734 0.08961 0.0
C1123 C 0.03097 0.8842 0.06988 0.0
C1124 C 0.04826 0.87011 0.06334 0.0
C1125 C 0.05171 0.84987 0.07649 0.0
C1126 C 0.04553 0.94627 0.04119 0.0
C1127 C 0.02301 0.95197 0.03698 0.0
C1128 C 0.04805 0.92392 0.05112 0.0
C1129 C 0.02812 0.90669 0.05704 0.0
C1130 C 0.00555 0.91191 0.0519 0.0
C1131 C 0.00302 0.93429 0.04199 0.0
H1132 H 0.94395 0.26563 0.81428 0.0
H1133 H 0.89976 0.20909 0.85184 0.0
H1134 H 0.90975 0.27005 0.78834 0.0
H1135 H 0.86554 0.21306 0.82538 0.0
H1136 H 0.80627 0.25006 0.79504 0.0
H1137 H 0.84039 0.24308 0.81976 0.0
H1138 H 0.8815 0.24891 0.75524 0.0
H1139 H 0.84746 0.25709 0.731 0.0
C1140 C 0.92697 0.25392 0.81684 0.0
C1141 C 0.9246 0.23707 0.83524 0.0
C1142 C 0.90735 0.25635 0.80182 0.0
C1143 C 0.88484 0.24195 0.80476 0.0
C1144 C 0.88254 0.22472 0.82285 0.0
C1145 C 0.9022 0.22232 0.83792 0.0
C1146 C 0.82272 0.2503 0.78636 0.0
C1147 C 0.82444 0.25478 0.76139 0.0
C1148 C 0.84219 0.24583 0.80035 0.0
C1149 C 0.8638 0.24555 0.78955 0.0
C1150 C 0.86527 0.24943 0.76428 0.0
C1151 C 0.84577 0.25395 0.75034 0.0
H1152 H 0.50471 0.20607 0.61511 0.0
H1153 H 0.56363 0.23351 0.57218 0.0
H1154 H 0.50133 0.16359 0.59372 0.0
H1155 H 0.56021 0.19091 0.55084 0.0
H1156 H 0.56051 0.10339 0.5418 0.0
H1157 H 0.56528 0.147 0.56126 0.0
H1158 H 0.49012 0.14286 0.55003 0.0
H1159 H 0.48523 0.09963 0.53064 0.0
C1160 C 0.51694 0.20305 0.60112 0.0
C1161 C 0.53438 0.22318 0.59529 0.0
C1162 C 0.51493 0.17875 0.5888 0.0
C1163 C 0.53047 0.17399 0.57057 0.0
C1164 C 0.54809 0.19402 0.56492 0.0
C1165 C 0.54994 0.21842 0.57704 0.0
C1166 C 0.54505 0.11187 0.54326 0.0
C1167 C 0.52249 0.09789 0.53477 0.0
C1168 C 0.5478 0.13684 0.55436 0.0
C1169 C 0.52802 0.14818 0.55739 0.0
C1170 C 0.50562 0.13446 0.5483 0.0
C1171 C 0.50289 0.10969 0.53703 0.0
H1172 H 0.58099 0.72622 0.36428 0.0
H1173 H 0.54878 0.76545 0.31026 0.0
H1174 H 0.61562 0.72824 0.3403 0.0
H1175 H 0.58341 0.767 0.28589 0.0
H1176 H 0.66285 0.79384 0.27098 0.0
H1177 H 0.62472 0.78861 0.28938 0.0
H1178 H 0.62918 0.71174 0.30169 0.0
H1179 H 0.66755 0.71724 0.28376 0.0
C1180 C 0.58119 0.73509 0.34716 0.0
C1181 C 0.56214 0.74576 0.33925 0.0
C1182 C 0.601 0.73606 0.33328 0.0
C1183 C 0.60226 0.74768 0.3111 0.0
C1184 C 0.58308 0.75811 0.30301 0.0
C1185 C 0.56321 0.75714 0.31693 0.0
C1186 C 0.65547 0.77571 0.27726 0.0
C1187 C 0.66817 0.75601 0.27614 0.0
C1188 C 0.63359 0.77267 0.28772 0.0
C1189 C 0.62402 0.74985 0.29726 0.0
C1190 C 0.63627 0.72972 0.29494 0.0
C1191 C 0.65814 0.73278 0.2845 0.0
H1192 H 0.01976 0.19478 0.40974 0.0
H1193 H 0.02577 0.2345 0.48351 0.0
H1194 H 0.01378 0.15443 0.42745 0.0
H1195 H 0.01915 0.19411 0.50121 0.0
H1196 H 0.03569 0.11876 0.52377 0.0
H1197 H 0.03883 0.15974 0.50764 0.0
H1198 H 0.98611 0.12612 0.44847 0.0
H1199 H 0.9834 0.085 0.46421 0.0
C1200 C 0.01962 0.1949 0.42973 0.0
C1201 C 0.02334 0.21789 0.44519 0.0
C1202 C 0.01602 0.17173 0.43991 0.0
C1203 C 0.01594 0.17095 0.4658 0.0
C1204 C 0.01941 0.19397 0.48123 0.0
C1205 C 0.02311 0.21715 0.47106 0.0
C1206 C 0.02455 0.12013 0.50748 0.0
C1207 C 0.00939 0.09851 0.49523 0.0
C1208 C 0.0263 0.1437 0.49825 0.0
C1209 C 0.01286 0.14625 0.47661 0.0
C1210 C 0.99707 0.12478 0.46489 0.0
C1211 C 0.99539 0.1012 0.47405 0.0
H1212 H 0.56102 0.28003 0.18305 0.0
H1213 H 0.57782 0.24283 0.11397 0.0
H1214 H 0.59836 0.27427 0.20281 0.0
H1215 H 0.61471 0.23686 0.13371 0.0
H1216 H 0.69055 0.25886 0.17054 0.0
H1217 H 0.65279 0.26263 0.15057 0.0
H1218 H 0.61758 0.23957 0.21562 0.0
H1219 H 0.6555 0.23603 0.23568 0.0
C1220 C 0.57266 0.2707 0.17209 0.0
C1221 C 0.56646 0.26197 0.14693 0.0
C1222 C 0.59393 0.2672 0.18344 0.0
C1223 C 0.60946 0.25505 0.16982 0.0
C1224 C 0.60327 0.2465 0.14465 0.0
C1225 C 0.58204 0.24988 0.13337 0.0
C1226 C 0.67468 0.25422 0.1804 0.0
C1227 C 0.6759 0.2471 0.2046 0.0
C1228 C 0.65306 0.25639 0.16899 0.0
C1229 C 0.63222 0.25158 0.1816 0.0
C1230 C 0.63338 0.24376 0.20558 0.0
C1231 C 0.65502 0.24146 0.21694 0.0
H1232 H 0.48875 0.8295 0.95792 0.0
H1233 H 0.56397 0.84589 0.94934 0.0
H1234 H 0.49174 0.87111 0.98071 0.0
H1235 H 0.56688 0.88773 0.97252 0.0
H1236 H 0.55908 0.95004 0.03853 0.0
H1237 H 0.55945 0.90797 0.01709 0.0
H1238 H 0.50199 0.9158 0.96632 0.0
H1239 H 0.50171 0.9576 0.98744 0.0
C1240 C 0.50599 0.84184 0.96112 0.0
C1241 C 0.52611 0.83443 0.95166 0.0
C1242 C 0.50765 0.86573 0.97407 0.0
C1243 C 0.52949 0.88267 0.97812 0.0
C1244 C 0.54984 0.87497 0.96964 0.0
C1245 C 0.54814 0.85109 0.95635 0.0
C1246 C 0.54668 0.94275 0.02268 0.0
C1247 C 0.53029 0.95692 0.0147 0.0
C1248 C 0.54695 0.91881 0.01041 0.0
C1249 C 0.53058 0.90862 0.99026 0.0
C1250 C 0.51457 0.92309 0.98203 0.0
C1251 C 0.5145 0.94704 0.99404 0.0
H1252 H 0.91568 0.72025 0.6642 0.0
H1253 H 0.94961 0.79751 0.68948 0.0
H1254 H 0.88253 0.72472 0.68892 0.0
H1255 H 0.91665 0.80178 0.71502 0.0
H1256 H 0.83979 0.80817 0.73125 0.0
H1257 H 0.87609 0.80517 0.71118 0.0
H1258 H 0.87021 0.72831 0.72991 0.0
H1259 H 0.83351 0.73104 0.7492 0.0
C1260 C 0.9162 0.73814 0.67527 0.0
C1261 C 0.9353 0.75854 0.67477 0.0
C1262 C 0.89722 0.74066 0.68966 0.0
C1263 C 0.89686 0.7636 0.70413 0.0
C1264 C 0.91615 0.78393 0.7039 0.0
C1265 C 0.93512 0.78145 0.68934 0.0
C1266 C 0.84643 0.79076 0.73142 0.0
C1267 C 0.83361 0.76977 0.74165 0.0
C1268 C 0.86733 0.78905 0.71993 0.0
C1269 C 0.87601 0.76638 0.71859 0.0
C1270 C 0.86379 0.74586 0.73001 0.0
C1271 C 0.8428 0.74749 0.74127 0.0
H1272 H 0.1032 0.97591 0.84973 0.0
H1273 H 0.10277 0.056 0.85251 0.0
H1274 H 0.07801 0.97266 0.88474 0.0
H1275 H 0.07716 0.05262 0.88671 0.0
H1276 H 0.05611 0.04662 0.96461 0.0
H1277 H 0.08059 0.04693 0.92958 0.0
H1278 H 0.03856 0.97488 0.89797 0.0
H1279 H 0.01451 0.97407 0.9341 0.0
C1280 C 0.09758 0.99276 0.85767 0.0
C1281 C 0.1052 0.01628 0.84854 0.0
C1282 C 0.08304 0.99086 0.87763 0.0
C1283 C 0.07576 0.01243 0.88872 0.0
C1284 C 0.08288 0.03574 0.87904 0.0
C1285 C 0.09751 0.03766 0.85931 0.0
C1286 C 0.05224 0.03064 0.95039 0.0
C1287 C 0.03351 0.01022 0.95216 0.0
C1288 C 0.06612 0.03098 0.9301 0.0
C1289 C 0.0614 0.01108 0.91077 0.0
C1290 C 0.04277 0.99042 0.91263 0.0
C1291 C 0.02892 0.99001 0.93319 0.0
H1292 H 0.79688 0.36312 0.55997 0.0
H1293 H 0.72169 0.36116 0.55248 0.0
H1294 H 0.7906 0.33302 0.59086 0.0
H1295 H 0.71543 0.33069 0.58317 0.0
H1296 H 0.72421 0.31089 0.66514 0.0
H1297 H 0.72473 0.33306 0.62806 0.0
H1298 H 0.77291 0.28862 0.59671 0.0
H1299 H 0.77259 0.26657 0.63422 0.0
C1300 C 0.779 0.35618 0.56482 0.0
C1301 C 0.75981 0.3647 0.55395 0.0
C1302 C 0.77538 0.33868 0.5823 0.0
C1303 C 0.7525 0.32937 0.5893 0.0
C1304 C 0.73326 0.33764 0.5782 0.0
C1305 C 0.73688 0.35511 0.56067 0.0
C1306 C 0.73449 0.30547 0.65007 0.0
C1307 C 0.74859 0.28729 0.65254 0.0
C1308 C 0.7347 0.31808 0.62879 0.0
C1309 C 0.74911 0.31281 0.60964 0.0
C1310 C 0.76194 0.29332 0.61139 0.0
C1311 C 0.7616 0.28055 0.63269 0.0
H1312 H 0.40483 0.00691 0.34732 0.0
H1313 H 0.43865 0.08566 0.34953 0.0
H1314 H 0.43259 0.00121 0.3802 0.0
H1315 H 0.46562 0.08066 0.38409 0.0
H1316 H 0.52401 0.05768 0.43166 0.0
H1317 H 0.49814 0.06366 0.39644 0.0
H1318 H 0.44129 0.00947 0.42181 0.0
H1319 H 0.4676 0.00186 0.45485 0.0
C1320 C 0.41791 0.02319 0.35537 0.0
C1321 C 0.41948 0.04678 0.34619 0.0
C1322 C 0.43383 0.02 0.37434 0.0
C1323 C 0.45128 0.04056 0.38517 0.0
C1324 C 0.45268 0.06431 0.37603 0.0
C1325 C 0.43709 0.0673 0.35647 0.0
C1326 C 0.50604 0.04692 0.42933 0.0
C1327 C 0.49768 0.02956 0.44608 0.0
C1328 C 0.49111 0.05052 0.40938 0.0
C1329 C 0.46752 0.03705 0.40615 0.0
C1330 C 0.45941 0.01978 0.42314 0.0
C1331 C 0.47444 0.01569 0.44245 0.0
H1332 H 0.74592 0.66704 0.07059 0.0
H1333 H 0.79751 0.73337 0.05855 0.0
H1334 H 0.74326 0.68483 0.11305 0.0
H1335 H 0.79449 0.75141 0.10106 0.0
H1336 H 0.80407 0.75905 0.18667 0.0
H1337 H 0.80541 0.7437 0.14321 0.0
H1338 H 0.72954 0.71856 0.13745 0.0
H1339 H 0.72817 0.73352 0.18117 0.0
C1340 C 0.75659 0.68552 0.07693 0.0
C1341 C 0.77202 0.69872 0.06115 0.0
C1342 C 0.75492 0.69581 0.10127 0.0
C1343 C 0.76865 0.71956 0.1105 0.0
C1344 C 0.78387 0.73293 0.09463 0.0
C1345 C 0.78552 0.72265 0.07022 0.0
C1346 C 0.78762 0.75031 0.17618 0.0
C1347 C 0.76601 0.74741 0.18753 0.0
C1348 C 0.78839 0.74167 0.15116 0.0
C1349 C 0.7676 0.72987 0.13681 0.0
C1350 C 0.74593 0.72728 0.14805 0.0
C1351 C 0.74514 0.73597 0.1731 0.0
H1352 H 0.09692 0.0622 0.74157 0.0
H1353 H 0.11437 0.99264 0.70878 0.0
H1354 H 0.08055 0.06957 0.70124 0.0
H1355 H 0.09762 -0.00015 0.66848 0.0
H1356 H 0.08932 0.03377 0.59581 0.0
H1357 H 0.10673 0.02917 0.63669 0.0
H1358 H 0.04717 0.05221 0.67089 0.0
H1359 H 0.02996 0.05714 0.62997 0.0
C1360 C 0.0971 0.04837 0.7258 0.0
C1361 C 0.10697 0.02683 0.72839 0.0
C1362 C 0.08765 0.05257 0.7027 0.0
C1363 C 0.08792 0.03539 0.68164 0.0
C1364 C 0.0975 0.01367 0.68429 0.0
C1365 C 0.1069 0.00941 0.70742 0.0
C1366 C 0.08015 0.03821 0.61212 0.0
C1367 C 0.05831 0.04579 0.60979 0.0
C1368 C 0.08998 0.03533 0.63548 0.0
C1369 C 0.07818 0.04002 0.65699 0.0
C1370 C 0.05676 0.04857 0.65469 0.0
C1371 C 0.0469 0.0514 0.63129 0.0
H1372 H 0.79106 0.34437 0.44402 0.0
H1373 H 0.71889 0.35259 0.42909 0.0
H1374 H 0.78826 0.31612 0.40568 0.0
H1375 H 0.71613 0.32391 0.39077 0.0
H1376 H 0.71953 0.25524 0.33173 0.0
H1377 H 0.72107 0.27526 0.37466 0.0
H1378 H 0.78193 0.33077 0.36022 0.0
H1379 H 0.77984 0.31172 0.31752 0.0
C1380 C 0.77449 0.33984 0.43278 0.0
C1381 C 0.75528 0.35094 0.43936 0.0
C1382 C 0.77291 0.32364 0.41092 0.0
C1383 C 0.752 0.31793 0.39548 0.0
C1384 C 0.73236 0.32792 0.40261 0.0
C1385 C 0.73403 0.34447 0.42434 0.0
C1386 C 0.73338 0.2715 0.33793 0.0
C1387 C 0.74973 0.28182 0.32147 0.0
C1388 C 0.7342 0.28292 0.36234 0.0
C1389 C 0.75173 0.30434 0.37059 0.0
C1390 C 0.76848 0.31404 0.35433 0.0
C1391 C 0.76732 0.30307 0.32994 0.0
H1392 H 0.48322 0.09445 0.24946 0.0
H1393 H 0.42132 0.05432 0.2039 0.0
H1394 H 0.50793 0.08716 0.21488 0.0
H1395 H 0.44594 0.04694 0.17005 0.0
H1396 H 0.4976 0.00665 0.13234 0.0
H1397 H 0.48034 0.01881 0.17068 0.0
H1398 H 0.50902 0.09764 0.16436 0.0
H1399 H 0.52633 0.0855 0.12562 0.0
C1400 C 0.47488 0.0844 0.23207 0.0
C1401 C 0.45037 0.0747 0.2295 0.0
C1402 C 0.489 0.08026 0.21241 0.0
C1403 C 0.47874 0.06614 0.19018 0.0
C1404 C 0.45421 0.05753 0.18725 0.0
C1405 C 0.44014 0.06187 0.20663 0.0
C1406 C 0.50068 0.02652 0.13939 0.0
C1407 C 0.51298 0.04519 0.12596 0.0
C1408 C 0.49081 0.03344 0.16126 0.0
C1409 C 0.49321 0.05911 0.1701 0.0
C1410 C 0.50706 0.07773 0.15779 0.0
C1411 C 0.51687 0.07079 0.13571 0.0
H1412 H 0.74588 0.68754 0.93321 0.0
H1413 H 0.82195 0.69926 0.9332 0.0
H1414 H 0.74467 0.71003 0.89645 0.0
H1415 H 0.82072 0.72111 0.89591 0.0
H1416 H 0.81124 0.78112 0.84332 0.0
H1417 H 0.81339 0.75917 0.88057 0.0
H1418 H 0.74974 0.70552 0.85319 0.0
H1419 H 0.74713 0.72812 0.81669 0.0
C1420 C 0.76236 0.69482 0.92531 0.0
C1421 C 0.78401 0.69155 0.9362 0.0
C1422 C 0.76167 0.70759 0.90406 0.0
C1423 C 0.78259 0.71732 0.89299 0.0
C1424 C 0.80426 0.71418 0.90402 0.0
C1425 C 0.80496 0.70151 0.92537 0.0
C1426 C 0.79777 0.7646 0.8453 0.0
C1427 C 0.77909 0.75629 0.82703 0.0
C1428 C 0.79906 0.7519 0.86658 0.0
C1429 C 0.7817 0.73055 0.87004 0.0
C1430 C 0.76322 0.7221 0.85146 0.0
C1431 C 0.76187 0.73488 0.83032 0.0
H1432 H 0.83787 0.08572 0.95846 0.0
H1433 H 0.81956 0.07922 0.03423 0.0
H1434 H 0.86589 0.05783 0.96344 0.0
H1435 H 0.84662 0.05036 0.03892 0.0
H1436 H 0.92375 0.03951 0.04862 0.0
H1437 H 0.88791 0.05606 0.04367 0.0
H1438 H 0.87414 0.01718 0.96934 0.0
H1439 H 0.91086 0.00141 0.97411 0.0
C1440 C 0.83951 0.0779 0.97601 0.0
C1441 C 0.82695 0.08501 0.99611 0.0
C1442 C 0.8554 0.0617 0.97882 0.0
C1443 C 0.85871 0.052 0.00169 0.0
C1444 C 0.84495 0.05794 0.02125 0.0
C1445 C 0.82942 0.07445 0.01857 0.0
C1446 C 0.91279 0.03402 0.03143 0.0
C1447 C 0.92016 0.01948 0.01163 0.0
C1448 C 0.89211 0.0434 0.0286 0.0
C1449 C 0.87822 0.03823 0.00595 0.0
C1450 C 0.88469 0.02196 0.98682 0.0
C1451 C 0.90556 0.01271 0.98962 0.0
H1452 H 0.31957 0.47054 0.03132 0.0
H1453 H 0.34841 0.40245 0.02167 0.0
H1454 H 0.35897 0.49621 0.02833 0.0
H1455 H 0.38751 0.42794 0.0191 0.0
H1456 H 0.44967 0.47587 0.9901 0.0
H1457 H 0.40862 0.45442 0.99036 0.0
H1458 H 0.39841 0.5082 0.05108 0.0
H1459 H 0.43958 0.53017 0.05033 0.0
C1460 C 0.33429 0.46106 0.0287 0.0
C1461 C 0.33082 0.43444 0.02662 0.0
C1462 C 0.35685 0.47577 0.02705 0.0
C1463 C 0.37632 0.46411 0.02318 0.0
C1464 C 0.37282 0.43752 0.02152 0.0
C1465 C 0.35038 0.42289 0.0232 0.0
C1466 C 0.43856 0.48342 0.00319 0.0
C1467 C 0.44783 0.5046 0.02028 0.0
C1468 C 0.41509 0.47098 0.00352 0.0
C1469 C 0.40035 0.47932 0.02104 0.0
C1470 C 0.40929 0.50133 0.03732 0.0
C1471 C 0.43285 0.51388 0.03694 0.0
H1472 H 0.35437 0.60531 0.78808 0.0
H1473 H 0.33128 0.58885 0.71022 0.0
H1474 H 0.33036 0.63755 0.79234 0.0
H1475 H 0.30794 0.62208 0.71418 0.0
H1476 H 0.25721 0.67541 0.73249 0.0
H1477 H 0.27461 0.63736 0.73107 0.0
H1478 H 0.33331 0.67853 0.7804 0.0
H1479 H 0.31578 0.71557 0.78258 0.0
C1480 C 0.34424 0.6087 0.77181 0.0
C1481 C 0.34498 0.59479 0.74874 0.0
C1482 C 0.33049 0.62724 0.77422 0.0
C1483 C 0.31743 0.63274 0.75353 0.0
C1484 C 0.31758 0.61824 0.73057 0.0
C1485 C 0.33112 0.59935 0.72824 0.0
C1486 C 0.27359 0.67608 0.74336 0.0
C1487 C 0.28508 0.6986 0.75756 0.0
C1488 C 0.28369 0.65437 0.74237 0.0
C1489 C 0.3054 0.65482 0.75561 0.0
C1490 C 0.3164 0.67719 0.77029 0.0
C1491 C 0.30636 0.69865 0.77136 0.0
H1492 H 0.20982 0.61435 0.49091 0.0
H1493 H 0.21529 0.58221 0.56059 0.0
H1494 H 0.16761 0.59682 0.48661 0.0
H1495 H 0.17299 0.56427 0.55601 0.0
H1496 H 0.09359 0.56628 0.55383 0.0
H1497 H 0.13625 0.58059 0.55745 0.0
H1498 H 0.13922 0.55644 0.47957 0.0
H1499 H 0.0964 0.54244 0.47571 0.0
C1500 C 0.20206 0.60335 0.50522 0.0
C1501 C 0.21588 0.59977 0.52617 0.0
C1502 C 0.17788 0.59317 0.50265 0.0
C1503 C 0.16698 0.5792 0.52098 0.0
C1504 C 0.18086 0.57523 0.54173 0.0
C1505 C 0.20509 0.5854 0.54429 0.0
C1506 C 0.10327 0.56395 0.53743 0.0
C1507 C 0.0915 0.5533 0.51443 0.0
C1508 C 0.12778 0.57199 0.53959 0.0
C1509 C 0.14108 0.56961 0.51881 0.0
C1510 C 0.12939 0.55876 0.49586 0.0
C1511 C 0.10485 0.55067 0.49368 0.0
H1512 H 0.67302 0.92536 0.70277 0.0
H1513 H 0.69128 0.97058 0.77363 0.0
H1514 H 0.70505 0.90315 0.71075 0.0
H1515 H 0.72393 0.94922 0.78119 0.0
H1516 H 0.76813 0.87135 0.72347 0.0
H1517 H 0.74642 0.90456 0.71546 0.0
H1518 H 0.72744 0.90865 0.79178 0.0
H1519 H 0.74998 0.87633 0.79988 0.0
C1520 C 0.68413 0.9308 0.71986 0.0
C1521 C 0.67942 0.94934 0.73775 0.0
C1522 C 0.70267 0.91829 0.72436 0.0
C1523 C 0.71707 0.92436 0.74669 0.0
C1524 C 0.71294 0.94376 0.76403 0.0
C1525 C 0.69423 0.95599 0.75969 0.0
C1526 C 0.75998 0.88005 0.73869 0.0
C1527 C 0.76045 0.87121 0.76221 0.0
C1528 C 0.74732 0.89883 0.73405 0.0
C1529 C 0.73469 0.90882 0.75279 0.0
C1530 C 0.73701 0.90149 0.77691 0.0
C1531 C 0.74993 0.88293 0.78161 0.0
H1532 H 0.71772 0.96401 0.53164 0.0
H1533 H 0.66498 0.89475 0.52031 0.0
H1534 H 0.68635 0.98877 0.53149 0.0
H1535 H 0.63382 0.91946 0.52049 0.0
H1536 H 0.58522 0.97081 0.55028 0.0
H1537 H 0.61862 0.94936 0.55269 0.0
H1538 H 0.65337 0.99582 0.49949 0.0
H1539 H 0.61962 0.01721 0.4968 0.0
C1540 C 0.69947 0.95408 0.52922 0.0
C1541 C 0.69383 0.92741 0.52601 0.0
C1542 C 0.68156 0.96826 0.52902 0.0
C1543 C 0.65768 0.95603 0.52609 0.0
C1544 C 0.65207 0.92939 0.52303 0.0
C1545 C 0.66994 0.91525 0.52281 0.0
C1546 C 0.60009 0.97667 0.53929 0.0
C1547 C 0.5998 0.99559 0.52325 0.0
C1548 C 0.61914 0.96429 0.54059 0.0
C1549 C 0.63848 0.97077 0.52612 0.0
C1550 C 0.63871 0.99051 0.5109 0.0
C1551 C 0.61943 0.0027 0.50934 0.0
H1552 H 0.37866 0.43338 0.72159 0.0
H1553 H 0.31518 0.46402 0.71396 0.0
H1554 H 0.35473 0.39178 0.72562 0.0
H1555 H 0.29131 0.42245 0.71831 0.0
H1556 H 0.2547 0.33922 0.70815 0.0
H1557 H 0.27953 0.37852 0.69821 0.0
H1558 H 0.33018 0.37392 0.75816 0.0
H1559 H 0.30542 0.33462 0.76794 0.0
C1560 C 0.3596 0.4312 0.72053 0.0
C1561 C 0.34881 0.45205 0.71763 0.0
C1562 C 0.34592 0.4074 0.72299 0.0
C1563 C 0.32118 0.40392 0.7225 0.0
C1564 C 0.31034 0.42451 0.71858 0.0
C1565 C 0.32402 0.44835 0.7162 0.0
C1566 C 0.2712 0.3466 0.71909 0.0
C1567 C 0.27817 0.33399 0.73883 0.0
C1568 C 0.28536 0.36909 0.71346 0.0
C1569 C 0.30678 0.37929 0.72741 0.0
C1570 C 0.31392 0.36635 0.74686 0.0
C1571 C 0.29971 0.34393 0.75255 0.0
H1572 H 0.16536 0.57037 0.2133 0.0
H1573 H 0.15297 0.59007 0.29005 0.0
H1574 H 0.18777 0.61312 0.21139 0.0
H1575 H 0.17489 0.63301 0.28791 0.0
H1576 H 0.24131 0.69318 0.28533 0.0
H1577 H 0.21615 0.65178 0.28543 0.0
H1578 H 0.1855 0.65789 0.21244 0.0
H1579 H 0.21116 0.69946 0.21206 0.0
C1580 C 0.16714 0.58392 0.22967 0.0
C1581 C 0.15761 0.57676 0.25193 0.0
C1582 C 0.17988 0.60846 0.22851 0.0
C1583 C 0.1833 0.62636 0.24956 0.0
C1584 C 0.17295 0.61948 0.27151 0.0
C1585 C 0.16028 0.59492 0.27271 0.0
C1586 C 0.22925 0.6858 0.26923 0.0
C1587 C 0.22825 0.6997 0.24868 0.0
C1588 C 0.21466 0.66209 0.26941 0.0
C1589 C 0.19863 0.65168 0.24908 0.0
C1590 C 0.19778 0.66538 0.22834 0.0
C1591 C 0.21246 0.68918 0.22813 0.0
H1592 H 0.52791 0.7281 0.45538 0.0
H1593 H 0.47695 0.68106 0.40094 0.0
H1594 H 0.52966 0.69139 0.4779 0.0
H1595 H 0.47884 0.64438 0.42344 0.0
H1596 H 0.47272 0.58858 0.48156 0.0
H1597 H 0.46898 0.62748 0.46376 0.0
H1598 H 0.54495 0.65139 0.46943 0.0
H1599 H 0.54882 0.61255 0.4874 0.0
C1600 C 0.51695 0.70999 0.44831 0.0
C1601 C 0.50236 0.70746 0.4263 0.0
C1602 C 0.51806 0.68896 0.46115 0.0
C1603 C 0.50445 0.66503 0.45238 0.0
C1604 C 0.48937 0.66265 0.43077 0.0
C1605 C 0.48839 0.68363 0.41782 0.0
C1606 C 0.48866 0.6022 0.47927 0.0
C1607 C 0.5111 0.59734 0.48577 0.0
C1608 C 0.48648 0.62443 0.46894 0.0
C1609 C 0.50666 0.64238 0.46507 0.0
C1610 C 0.52906 0.63797 0.47237 0.0
C1611 C 0.53127 0.61565 0.48255 0.0
H1612 H 0.62406 0.30504 0.64087 0.0
H1613 H 0.58673 0.3021 0.70807 0.0
H1614 H 0.66076 0.30444 0.66486 0.0
H1615 H 0.62361 0.30165 0.73205 0.0
H1616 H 0.70041 0.32248 0.76822 0.0
H1617 H 0.66517 0.3289 0.74443 0.0
H1618 H 0.67367 0.26992 0.68808 0.0
H1619 H 0.70824 0.26304 0.71202 0.0
C1620 C 0.62371 0.30456 0.66079 0.0
C1621 C 0.60242 0.30343 0.67254 0.0
C1622 C 0.64472 0.30413 0.67449 0.0
C1623 C 0.64498 0.30288 0.70028 0.0
C1624 C 0.62393 0.30278 0.71221 0.0
C1625 C 0.60281 0.30289 0.69845 0.0
C1626 C 0.69477 0.31103 0.75068 0.0
C1627 C 0.7072 0.29248 0.74181 0.0
C1628 C 0.67462 0.31465 0.73714 0.0
C1629 C 0.6668 0.30001 0.71436 0.0
C1630 C 0.67949 0.28174 0.70539 0.0
C1631 C 0.69931 0.27784 0.71909 0.0
H1632 H 0.94619 0.31133 0.92927 0.0
H1633 H 0.01959 0.331 0.91331 0.0
H1634 H 0.94985 0.35192 0.9543 0.0
H1635 H 0.02308 0.37195 0.9377 0.0
H1636 H 0.02804 0.43452 0.00046 0.0
H1637 H 0.0239 0.39206 0.97907 0.0
H1638 H 0.95404 0.39598 0.94944 0.0
H1639 H 0.9579 0.43811 0.97141 0.0
C1640 C 0.96311 0.32436 0.93104 0.0
C1641 C 0.98259 0.31795 0.91925 0.0
C1642 C 0.96517 0.34771 0.9453 0.0
C1643 C 0.98674 0.3653 0.948 0.0
C1644 C 0.00629 0.35875 0.93637 0.0
C1645 C 0.00426 0.33532 0.92222 0.0
C1646 C 0.01172 0.42626 0.98953 0.0
C1647 C 0.99333 0.43978 0.98761 0.0
C1648 C 0.00941 0.40195 0.97712 0.0
C1649 C 0.98871 0.39061 0.96235 0.0
C1650 C 0.97012 0.40395 0.96088 0.0
C1651 C 0.97237 0.4282 0.97343 0.0
H1652 H 0.98056 0.81556 0.20208 0.0
H1653 H 0.95783 0.73406 0.19538 0.0
H1654 H 0.94627 0.8202 0.22528 0.0
H1655 H 0.92336 0.73874 0.21816 0.0
H1656 H 0.87238 0.75321 0.27535 0.0
H1657 H 0.91066 0.75177 0.25869 0.0
H1658 H 0.90372 0.81412 0.21629 0.0
H1659 H 0.86566 0.81578 0.23334 0.0
C1660 C 0.96831 0.79862 0.20564 0.0
C1661 C 0.9719 0.77443 0.19677 0.0
C1662 C 0.9486 0.8013 0.21885 0.0
C1663 C 0.93203 0.77986 0.22353 0.0
C1664 C 0.93594 0.75566 0.21517 0.0
C1665 C 0.95564 0.75297 0.20195 0.0
C1666 C 0.87927 0.76688 0.26281 0.0
C1667 C 0.86606 0.78454 0.25554 0.0
C1668 C 0.90109 0.76593 0.25311 0.0
C1669 C 0.91014 0.78264 0.23595 0.0
C1670 C 0.89737 0.80109 0.22961 0.0
C1671 C 0.87553 0.80202 0.23931 0.0
H1672 H 0.55371 0.33453 0.06893 0.0
H1673 H 0.47982 0.33276 0.07962 0.0
H1674 H 0.55453 0.36976 0.04384 0.0
H1675 H 0.48077 0.36829 0.0547 0.0
H1676 H 0.48592 0.42255 0.99516 0.0
H1677 H 0.48573 0.38223 0.01241 0.0
H1678 H 0.55243 0.41444 0.05332 0.0
H1679 H 0.55276 0.45437 0.03603 0.0
C1680 C 0.53759 0.34155 0.06583 0.0
C1681 C 0.51674 0.33095 0.0765 0.0
C1682 C 0.53809 0.3618 0.05148 0.0
C1683 C 0.51775 0.37192 0.04735 0.0
C1684 C 0.49668 0.36077 0.0573 0.0
C1685 C 0.49619 0.34054 0.07176 0.0
C1686 C 0.5008 0.4208 0.00736 0.0
C1687 C 0.51932 0.4417 0.01427 0.0
C1688 C 0.50057 0.3978 0.01745 0.0
C1689 C 0.51897 0.39518 0.03439 0.0
C1690 C 0.53807 0.4157 0.04019 0.0
C1691 C 0.53821 0.43867 0.03032 0.0
H1692 H 0.97998 0.3047 0.34802 0.0
H1693 H 0.93657 0.23966 0.3748 0.0
H1694 H 0.9447 0.31648 0.32992 0.0
H1695 H 0.90141 0.25106 0.3562 0.0
H1696 H 0.84067 0.28931 0.34188 0.0
H1697 H 0.87739 0.2827 0.3619 0.0
H1698 H 0.91399 0.30304 0.2968 0.0
H1699 H 0.8773 0.3103 0.27712 0.0
C1700 C 0.96294 0.29277 0.34984 0.0
C1701 C 0.96109 0.27124 0.36289 0.0
C1702 C 0.94271 0.29951 0.33942 0.0
C1703 C 0.92019 0.28486 0.34179 0.0
C1704 C 0.91842 0.2631 0.35449 0.0
C1705 C 0.93862 0.2564 0.36496 0.0
C1706 C 0.85669 0.29286 0.33208 0.0
C1707 C 0.85618 0.30023 0.30795 0.0
C1708 C 0.87767 0.2888 0.34342 0.0
C1709 C 0.89856 0.29188 0.33079 0.0
C1710 C 0.89827 0.30058 0.30711 0.0
C1711 C 0.87726 0.30476 0.29582 0.0
H1712 H 0.98257 0.72245 0.53788 0.0
H1713 H 0.99674 0.69354 0.6076 0.0
H1714 H 0.98685 0.68241 0.51553 0.0
H1715 H 0.00195 0.65412 0.58537 0.0
H1716 H 0.99138 0.5779 0.5401 0.0
H1717 H 0.98274 0.61651 0.56132 0.0
H1718 H 0.0169 0.65957 0.50516 0.0
H1719 H 0.02493 0.62055 0.48376 0.0
C1720 C 0.98651 0.70753 0.54843 0.0
C1721 C 0.98934 0.7112 0.5745 0.0
C1722 C 0.98918 0.68465 0.53562 0.0
C1723 C 0.99493 0.66504 0.5486 0.0
C1724 C 0.99719 0.66859 0.57472 0.0
C1725 C 0.9943 0.69131 0.5875 0.0
C1726 C 0.99739 0.59572 0.53264 0.0
C1727 C 0.00937 0.59649 0.51078 0.0
C1728 C 0.99232 0.61785 0.54466 0.0
C1729 C 0.99928 0.64128 0.5351 0.0
C1730 C 0.011 0.64187 0.51291 0.0
C1731 C 0.01581 0.61961 0.50075 0.0
H1732 H 0.5831 0.79318 0.83751 0.0
H1733 H 0.60552 0.73213 0.87221 0.0
H1734 H 0.61533 0.79413 0.80968 0.0
H1735 H 0.63763 0.7333 0.84477 0.0
H1736 H 0.6804 0.72447 0.77948 0.0
H1737 H 0.6445 0.72366 0.80123 0.0
H1738 H 0.65915 0.80551 0.81184 0.0
H1739 H 0.69506 0.80643 0.78968 0.0
C1740 C 0.59483 0.77994 0.83917 0.0
C1741 C 0.59171 0.76257 0.85711 0.0
C1742 C 0.61335 0.78056 0.82329 0.0
C1743 C 0.62899 0.7637 0.82488 0.0
C1744 C 0.62569 0.74626 0.84272 0.0
C1745 C 0.60734 0.74573 0.85861 0.0
C1746 C 0.67587 0.74236 0.78611 0.0
C1747 C 0.69083 0.76552 0.78304 0.0
C1748 C 0.65531 0.74186 0.79873 0.0
C1749 C 0.64915 0.7645 0.80866 0.0
C1750 C 0.66335 0.78773 0.80437 0.0
C1751 C 0.68398 0.78823 0.79169 0.0
H1752 H 0.42504 0.59222 0.66078 0.0
H1753 H 0.42749 0.51492 0.67329 0.0
H1754 H 0.45197 0.58996 0.62756 0.0
H1755 H 0.45465 0.51291 0.6407 0.0
H1756 H 0.47888 0.50664 0.56278 0.0
H1757 H 0.4529 0.51109 0.59613 0.0
H1758 H 0.49284 0.58663 0.61919 0.0
H1759 H 0.51854 0.58236 0.58497 0.0
C1760 C 0.43143 0.57483 0.65658 0.0
C1761 C 0.42395 0.55368 0.66956 0.0
C1762 C 0.44696 0.57359 0.63764 0.0
C1763 C 0.45532 0.55119 0.63133 0.0
C1764 C 0.4482 0.53029 0.64473 0.0
C1765 C 0.43268 0.53149 0.66353 0.0
C1766 C 0.48205 0.52427 0.57486 0.0
C1767 C 0.50065 0.54422 0.57124 0.0
C1768 C 0.46728 0.52674 0.59413 0.0
C1769 C 0.47088 0.54915 0.61047 0.0
C1770 C 0.48948 0.5692 0.60681 0.0
C1771 C 0.50428 0.56672 0.58736 0.0
H1772 H 0.80445 0.18193 0.94655 0.0
H1773 H 0.74538 0.21002 0.97661 0.0
H1774 H 0.80323 0.20781 0.91217 0.0
H1775 H 0.74446 0.23619 0.9425 0.0
H1776 H 0.72965 0.24532 0.85902 0.0
H1777 H 0.73326 0.22687 0.89801 0.0
H1778 H 0.80915 0.25167 0.90103 0.0
H1779 H 0.80548 0.26984 0.86167 0.0
C1780 C 0.79139 0.19383 0.94597 0.0
C1781 C 0.77485 0.19372 0.96413 0.0
C1782 C 0.79082 0.20881 0.9264 0.0
C1783 C 0.7737 0.22397 0.92462 0.0
C1784 C 0.75766 0.22446 0.94323 0.0
C1785 C 0.75823 0.20949 0.96278 0.0
C1786 C 0.74705 0.2472 0.86825 0.0
C1787 C 0.76729 0.25886 0.85738 0.0
C1788 C 0.74913 0.23674 0.89062 0.0
C1789 C 0.77151 0.23771 0.9025 0.0
C1790 C 0.79171 0.25038 0.89212 0.0
C1791 C 0.7896 0.26093 0.86974 0.0
H1792 H 0.0474 0.45005 0.19386 0.0
H1793 H 0.1107 0.47394 0.15607 0.0
H1794 H 0.0233 0.45457 0.15689 0.0
H1795 H 0.0867 0.47761 0.11889 0.0
H1796 H 0.04094 0.52465 0.08035 0.0
H1797 H 0.06415 0.51002 0.11243 0.0
H1798 H 0.00989 0.44269 0.11275 0.0
H1799 H 0.98636 0.45773 0.08049 0.0
C1800 C 0.05613 0.45543 0.17738 0.0
C1801 C 0.08089 0.46212 0.17793 0.0
C1802 C 0.04233 0.45798 0.15619 0.0
C1803 C 0.05313 0.46703 0.1352 0.0
C1804 C 0.07789 0.4713 0.13504 0.0
C1805 C 0.09163 0.46905 0.15625 0.0
C1806 C 0.03401 0.50665 0.08716 0.0
C1807 C 0.01194 0.49226 0.07795 0.0
C1808 C 0.0474 0.49813 0.10538 0.0
C1809 C 0.03902 0.47498 0.11488 0.0
C1810 C 0.0168 0.46059 0.10578 0.0
C1811 C 0.00335 0.46917 0.08739 0.0
H1812 H 0.74285 0.80946 0.47415 0.0
H1813 H 0.77306 0.88444 0.45569 0.0
H1814 H 0.74739 0.79193 0.43182 0.0
H1815 H 0.77748 0.8669 0.41343 0.0
H1816 H 0.803 0.82254 0.347 0.0
H1817 H 0.80044 0.8386 0.39034 0.0
H1818 H 0.72988 0.79381 0.38939 0.0
H1819 H 0.7324 0.77769 0.34633 0.0
C1820 C 0.75044 0.82221 0.46109 0.0
C1821 C 0.75751 0.84837 0.46831 0.0
C1822 C 0.75298 0.81217 0.43682 0.0
C1823 C 0.76283 0.82802 0.41928 0.0
C1824 C 0.77008 0.85414 0.42657 0.0
C1825 C 0.76736 0.86421 0.45075 0.0
C1826 C 0.78702 0.81599 0.3561 0.0
C1827 C 0.76789 0.79889 0.34314 0.0
C1828 C 0.78549 0.82531 0.38087 0.0
C1829 C 0.76493 0.81751 0.39328 0.0
C1830 C 0.74604 0.80002 0.38046 0.0
C1831 C 0.74746 0.79091 0.35568 0.0
H1832 H 0.3746 0.53812 0.82548 0.0
H1833 H 0.4167 0.49657 0.78037 0.0
H1834 H 0.3949 0.52894 0.86292 0.0
H1835 H 0.43571 0.48533 0.81759 0.0
H1836 H 0.48436 0.49325 0.88764 0.0
H1837 H 0.46297 0.4992 0.84971 0.0
H1838 H 0.40031 0.50074 0.89011 0.0
H1839 H 0.4227 0.497 0.92842 0.0
C1840 C 0.38805 0.52672 0.82368 0.0
C1841 C 0.39432 0.51829 0.80016 0.0
C1842 C 0.39955 0.52112 0.84515 0.0
C1843 C 0.41708 0.50623 0.84359 0.0
C1844 C 0.42285 0.49736 0.81981 0.0
C1845 C 0.41187 0.50367 0.79838 0.0
C1846 C 0.46591 0.49453 0.88825 0.0
C1847 C 0.45514 0.49474 0.91086 0.0
C1848 C 0.4535 0.49785 0.86642 0.0
C1849 C 0.42977 0.50074 0.86657 0.0
C1850 C 0.4187 0.49942 0.88917 0.0
C1851 C 0.43137 0.49688 0.91114 0.0
H1852 H 0.78819 0.16762 0.09331 0.0
H1853 H 0.80703 0.23745 0.05957 0.0
H1854 H 0.78416 0.19159 0.13252 0.0
H1855 H 0.8022 0.26156 0.09878 0.0
H1856 H 0.81582 0.29436 0.18199 0.0
H1857 H 0.81927 0.27339 0.14076 0.0
H1858 H 0.75796 0.21606 0.15058 0.0
H1859 H 0.75525 0.23638 0.19204 0.0
C1860 C 0.7914 0.18813 0.09426 0.0
C1861 C 0.79786 0.20065 0.07335 0.0
C1862 C 0.78888 0.20188 0.11669 0.0
C1863 C 0.79249 0.22849 0.11869 0.0
C1864 C 0.7994 0.24109 0.09789 0.0
C1865 C 0.80214 0.22729 0.07543 0.0
C1866 C 0.80293 0.27746 0.17513 0.0
C1867 C 0.7854 0.26682 0.1902 0.0
C1868 C 0.80485 0.26549 0.1515 0.0
C1869 C 0.78913 0.24281 0.14255 0.0
C1870 C 0.77075 0.23312 0.15717 0.0
C1871 C 0.76901 0.2449 0.18081 0.0
H1872 H 0.04518 0.50004 0.27146 0.0
H1873 H 0.10777 0.48753 0.31139 0.0
H1874 H 0.02422 0.49767 0.30947 0.0
H1875 H 0.08731 0.4862 0.34938 0.0
H1876 H 0.04404 0.47118 0.41326 0.0
H1877 H 0.05771 0.46379 0.37182 0.0
H1878 H 0.02413 0.5231 0.34751 0.0
H1879 H 0.00962 0.52951 0.38859 0.0
C1880 C 0.05444 0.49676 0.28834 0.0
C1881 C 0.07815 0.49411 0.28847 0.0
C1882 C 0.04247 0.49549 0.31014 0.0
C1883 C 0.05405 0.4918 0.33256 0.0
C1884 C 0.07762 0.48857 0.33243 0.0
C1885 C 0.08947 0.48956 0.31064 0.0
C1886 C 0.03923 0.48223 0.39885 0.0
C1887 C 0.02601 0.50106 0.40408 0.0
C1888 C 0.04719 0.47817 0.37517 0.0
C1889 C 0.0424 0.49315 0.35639 0.0
C1890 C 0.02802 0.51104 0.36138 0.0
C1891 C 0.01979 0.51484 0.38498 0.0
H1892 H 0.77629 0.85084 0.59002 0.0
H1893 H 0.70458 0.85645 0.60476 0.0
H1894 H 0.77757 0.82443 0.62402 0.0
H1895 H 0.70598 0.83023 0.63889 0.0
H1896 H 0.71053 0.76184 0.6832 0.0
H1897 H 0.70819 0.78652 0.64772 0.0
H1898 H 0.77833 0.82979 0.66956 0.0
H1899 H 0.78076 0.80494 0.7045 0.0
C1900 C 0.76078 0.84641 0.60045 0.0
C1901 C 0.74037 0.85588 0.59468 0.0
C1902 C 0.76155 0.83137 0.62004 0.0
C1903 C 0.74191 0.82529 0.63427 0.0
C1904 C 0.72135 0.83436 0.62819 0.0
C1905 C 0.72061 0.84953 0.60869 0.0
C1906 C 0.72539 0.77663 0.68034 0.0
C1907 C 0.74574 0.78157 0.6967 0.0
C1908 C 0.72404 0.79085 0.66013 0.0
C1909 C 0.74311 0.81011 0.65574 0.0
C1910 C 0.76344 0.81492 0.67216 0.0
C1911 C 0.76473 0.80084 0.69237 0.0
H1912 H 0.71353 0.47127 0.47721 0.0
H1913 H 0.69724 0.45968 0.55275 0.0
H1914 H 0.68603 0.50013 0.47572 0.0
H1915 H 0.66903 0.48768 0.55098 0.0
H1916 H 0.62419 0.54518 0.54674 0.0
H1917 H 0.66104 0.52923 0.54836 0.0
H1918 H 0.64435 0.49415 0.47285 0.0
H1919 H 0.60831 0.51078 0.47108 0.0
C1920 C 0.70409 0.47493 0.49351 0.0
C1921 C 0.70726 0.46293 0.51498 0.0
C1922 C 0.68831 0.49145 0.49266 0.0
C1923 C 0.67513 0.49607 0.51313 0.0
C1924 C 0.6791 0.48487 0.53497 0.0
C1925 C 0.6951 0.46859 0.53592 0.0
C1926 C 0.62885 0.53468 0.53032 0.0
C1927 C 0.61338 0.52895 0.50889 0.0
C1928 C 0.6498 0.52534 0.5313 0.0
C1929 C 0.6555 0.51007 0.51087 0.0
C1930 C 0.64073 0.506 0.48887 0.0
C1931 C 0.61994 0.51541 0.48788 0.0
H1932 H 0.19664 0.09892 0.54464 0.0
H1933 H 0.19283 0.09563 0.4645 0.0
H1934 H 0.15573 0.07602 0.5429 0.0
H1935 H 0.15189 0.07268 0.46284 0.0
H1936 H 0.08616 0.01087 0.46947 0.0
H1937 H 0.12822 0.03054 0.47244 0.0
H1938 H 0.11608 0.08585 0.53073 0.0
H1939 H 0.07412 0.06636 0.52763 0.0
C1940 C 0.18714 0.09319 0.52664 0.0
C1941 C 0.19797 0.09916 0.5047 0.0
C1942 C 0.16367 0.08017 0.52568 0.0
C1943 C 0.15063 0.07258 0.50275 0.0
C1944 C 0.16159 0.07809 0.48077 0.0
C1945 C 0.18498 0.09137 0.48174 0.0
C1946 C 0.09255 0.02711 0.48303 0.0
C1947 C 0.07691 0.03712 0.49831 0.0
C1948 C 0.11656 0.03843 0.48463 0.0
C1949 C 0.1254 0.05976 0.50177 0.0
C1950 C 0.10982 0.0693 0.5175 0.0
C1951 C 0.0858 0.05818 0.51569 0.0
H1952 H 0.19003 0.9472 0.72224 0.0
H1953 H 0.1865 0.94238 0.80119 0.0
H1954 H 0.21235 0.91326 0.71935 0.0
H1955 H 0.20846 0.90804 0.79818 0.0
H1956 H 0.26498 0.86033 0.78762 0.0
H1957 H 0.24719 0.89796 0.79 0.0
H1958 H 0.20425 0.86799 0.72233 0.0
H1959 H 0.22225 0.83086 0.71965 0.0
C1960 C 0.194 0.9389 0.73899 0.0
C1961 C 0.18634 0.94741 0.76192 0.0
C1962 C 0.20674 0.91938 0.73731 0.0
C1963 C 0.21213 0.90787 0.75852 0.0
C1964 C 0.20486 0.9167 0.78154 0.0
C1965 C 0.1921 0.93625 0.78323 0.0
C1966 C 0.25203 0.862 0.77305 0.0
C1967 C 0.24508 0.84261 0.75343 0.0
C1968 C 0.24168 0.88344 0.77454 0.0
C1969 C 0.22426 0.88595 0.75638 0.0
C1970 C 0.21781 0.86683 0.73646 0.0
C1971 C 0.22806 0.84543 0.73502 0.0
H1972 H 0.32899 0.94116 0.98296 0.0
H1973 H 0.32215 0.99262 0.04709 0.0
H1974 H 0.3709 0.9588 0.9843 0.0
H1975 H 0.36433 0.01094 0.04797 0.0
H1976 H 0.44457 0.00996 0.05927 0.0
H1977 H 0.40158 0.99841 0.05764 0.0
H1978 H 0.39884 0.99582 0.97753 0.0
H1979 H 0.44175 0.0065 0.97911 0.0
C1980 C 0.33638 0.95652 0.99718 0.0
C1981 C 0.32226 0.96543 0.01501 0.0
C1982 C 0.36043 0.96677 0.99781 0.0
C1983 C 0.37095 0.98634 0.01618 0.0
C1984 C 0.35676 0.99568 0.03374 0.0
C1985 C 0.33261 0.98529 0.03317 0.0
C1986 C 0.43476 0.00711 0.04133 0.0
C1987 C 0.44653 0.00873 0.01929 0.0
C1988 C 0.41012 0.00067 0.04042 0.0
C1989 C 0.39682 0.99595 0.01744 0.0
C1990 C 0.40862 0.99877 0.9955 0.0
C1991 C 0.4332 0.00494 0.9964 0.0
H1992 H 0.84626 0.59128 0.71703 0.0
H1993 H 0.83205 0.57226 0.79113 0.0
H1994 H 0.81377 0.61399 0.71689 0.0
H1995 H 0.79847 0.5934 0.79053 0.0
H1996 H 0.77454 0.67025 0.79609 0.0
H1997 H 0.79523 0.63543 0.79484 0.0
H1998 H 0.77369 0.61635 0.71661 0.0
H1999 H 0.75391 0.65254 0.71778 0.0
C2000 C 0.83579 0.59152 0.73306 0.0
C2001 C 0.84191 0.58063 0.7543 0.0
C2002 C 0.81694 0.60425 0.73291 0.0
C2003 C 0.80354 0.60581 0.75383 0.0
C2004 C 0.80875 0.59322 0.77437 0.0
C2005 C 0.82797 0.58109 0.77474 0.0
C2006 C 0.77373 0.65824 0.77875 0.0
C2007 C 0.76309 0.66431 0.75692 0.0
C2008 C 0.78549 0.63806 0.77803 0.0
C2009 C 0.78657 0.62325 0.75548 0.0
C2010 C 0.77376 0.6278 0.73414 0.0
C2011 C 0.76221 0.64831 0.73482 0.0
H2012 H 0.80722 0.59167 0.02047 0.0
H2013 H 0.83139 0.6041 0.94767 0.0
H2014 H 0.83773 0.56729 0.02761 0.0
H2015 H 0.86276 0.58088 0.9552 0.0
H2016 H 0.90712 0.52238 0.9669 0.0
H2017 H 0.87286 0.54156 0.95911 0.0
H2018 H 0.87811 0.57183 0.03644 0.0
H2019 H 0.9114 0.55151 0.04426 0.0
C2020 C 0.8192 0.58935 0.00605 0.0
C2021 C 0.81692 0.59988 0.98353 0.0
C2022 C 0.83684 0.57546 0.01019 0.0
C2023 C 0.85296 0.5721 0.99208 0.0
C2024 C 0.85051 0.58257 0.96946 0.0
C2025 C 0.8326 0.59611 0.96518 0.0
C2026 C 0.90062 0.53281 0.98225 0.0
C2027 C 0.91183 0.53539 0.00618 0.0
C2028 C 0.88114 0.54407 0.97777 0.0
C2029 C 0.87266 0.55851 0.99707 0.0
C2030 C 0.88373 0.56057 0.02114 0.0
C2031 C 0.90295 0.54899 0.02565 0.0
H2032 H 0.19575 0.07268 0.73601 0.0
H2033 H 0.19187 0.08022 0.81578 0.0
H2034 H 0.21488 0.11711 0.73798 0.0
H2035 H 0.21114 0.12494 0.81765 0.0
H2036 H 0.27107 0.19564 0.80771 0.0
H2037 H 0.25085 0.15164 0.80921 0.0
H2038 H 0.20233 0.15869 0.74826 0.0
H2039 H 0.2225 0.20249 0.74672 0.0
C2040 C 0.1991 0.08377 0.754 0.0
C2041 C 0.19225 0.07293 0.77575 0.0
C2042 C 0.20989 0.10928 0.75508 0.0
C2043 C 0.21425 0.12451 0.77793 0.0
C2044 C 0.208 0.11359 0.7998 0.0
C2045 C 0.19696 0.08803 0.79871 0.0
C2046 C 0.25592 0.18781 0.79484 0.0
C2047 C 0.24845 0.20231 0.77695 0.0
C2048 C 0.24433 0.16271 0.79576 0.0
C2049 C 0.22522 0.15171 0.77866 0.0
C2050 C 0.21726 0.16659 0.76139 0.0
C2051 C 0.22871 0.19168 0.76061 0.0
H2052 H 0.34204 0.98653 0.25235 0.0
H2053 H 0.40335 0.95996 0.27995 0.0
H2054 H 0.31897 0.94345 0.24886 0.0
H2055 H 0.38018 0.91672 0.27625 0.0
H2056 H 0.32253 0.85158 0.29636 0.0
H2057 H 0.34609 0.89424 0.29789 0.0
H2058 H 0.31688 0.90121 0.22455 0.0
H2059 H 0.29307 0.85851 0.22295 0.0
C2060 C 0.35064 0.97146 0.25752 0.0
C2061 C 0.3745 0.97662 0.26653 0.0
C2062 C 0.33744 0.94679 0.25538 0.0
C2063 C 0.34778 0.92682 0.26236 0.0
C2064 C 0.37173 0.93187 0.27099 0.0
C2065 C 0.38501 0.95655 0.27295 0.0
C2066 C 0.32098 0.8622 0.28058 0.0
C2067 C 0.30586 0.85163 0.25954 0.0
C2068 C 0.33466 0.88655 0.2814 0.0
C2069 C 0.3334 0.90092 0.26128 0.0
C2070 C 0.31809 0.89055 0.24037 0.0
C2071 C 0.3045 0.86609 0.23945 0.0
H2072 H 0.56044 0.3855 0.62904 0.0
H2073 H 0.50816 0.3291 0.58411 0.0
H2074 H 0.55562 0.41653 0.60028 0.0
H2075 H 0.50329 0.36033 0.55536 0.0
H2076 H 0.48209 0.4369 0.53459 0.0
H2077 H 0.48743 0.40156 0.55786 0.0
H2078 H 0.56308 0.42375 0.55565 0.0
H2079 H 0.55794 0.45891 0.53243 0.0
C2080 C 0.54799 0.37969 0.61298 0.0
C2081 C 0.53466 0.35487 0.60887 0.0
C2082 C 0.54534 0.39742 0.59643 0.0
C2083 C 0.52911 0.39079 0.57557 0.0
C2084 C 0.51584 0.36595 0.57136 0.0
C2085 C 0.51872 0.34809 0.58776 0.0
C2086 C 0.49984 0.434 0.53867 0.0
C2087 C 0.51957 0.45095 0.53185 0.0
C2088 C 0.50288 0.41372 0.55195 0.0
C2089 C 0.52568 0.41015 0.55882 0.0
C2090 C 0.54532 0.42631 0.55094 0.0
C2091 C 0.54231 0.4464 0.53751 0.0
H2092 H 0.43967 0.77469 0.32306 0.0
H2093 H 0.41678 0.69322 0.3176 0.0
H2094 H 0.40331 0.77809 0.30047 0.0
H2095 H 0.37995 0.69679 0.29502 0.0
H2096 H 0.32782 0.71776 0.23341 0.0
H2097 H 0.36406 0.71022 0.25457 0.0
H2098 H 0.36169 0.77161 0.31093 0.0
H2099 H 0.32628 0.77945 0.28972 0.0
C2100 C 0.42691 0.75745 0.317 0.0
C2101 C 0.43106 0.73368 0.32235 0.0
C2102 C 0.40599 0.75944 0.30414 0.0
C2103 C 0.38865 0.73773 0.29628 0.0
C2104 C 0.39304 0.71382 0.30084 0.0
C2105 C 0.41406 0.71182 0.31384 0.0
C2106 C 0.33505 0.72945 0.25041 0.0
C2107 C 0.32429 0.74918 0.25992 0.0
C2108 C 0.35567 0.72508 0.26255 0.0
C2109 C 0.36584 0.74054 0.28422 0.0
C2110 C 0.35454 0.75969 0.29402 0.0
C2111 C 0.3341 0.76402 0.28198 0.0
H2112 H 0.03567 0.71039 0.13241 0.0
H2113 H 0.00639 0.72928 0.06332 0.0
H2114 H 0.03562 0.66776 0.11323 0.0
H2115 H 0.00679 0.68676 0.04401 0.0
H2116 H 0.98302 0.60034 0.02914 0.0
H2117 H 0.98574 0.6439 0.04654 0.0
H2118 H 0.05432 0.64396 0.08207 0.0
H2119 H 0.05143 0.59987 0.06497 0.0
C2120 C 0.02932 0.7055 0.11309 0.0
C2121 C 0.02088 0.72322 0.09944 0.0
C2122 C 0.02949 0.6811 0.10203 0.0
C2123 C 0.02121 0.67382 0.07708 0.0
C2124 C 0.01301 0.69165 0.06337 0.0
C2125 C 0.01285 0.71606 0.07442 0.0
C2126 C 0.99879 0.60958 0.04056 0.0
C2127 C 0.01699 0.59649 0.04573 0.0
C2128 C 0.00039 0.6347 0.05041 0.0
C2129 C 0.02024 0.64746 0.06571 0.0
C2130 C 0.03866 0.63456 0.07058 0.0
C2131 C 0.03708 0.60935 0.06065 0.0
H2132 H 0.08106 0.30718 0.85274 0.0
H2133 H 0.04674 0.23176 0.82139 0.0
H2134 H 0.11517 0.30388 0.82887 0.0
H2135 H 0.08094 0.22859 0.79734 0.0
H2136 H 0.16054 0.22448 0.78625 0.0
H2137 H 0.12336 0.22588 0.80568 0.0
H2138 H 0.12592 0.30162 0.78513 0.0
H2139 H 0.163 0.30025 0.76591 0.0
C2140 C 0.08072 0.28995 0.84065 0.0
C2141 C 0.06116 0.26975 0.83899 0.0
C2142 C 0.10023 0.28812 0.82685 0.0
C2143 C 0.1007 0.266 0.81114 0.0
C2144 C 0.08114 0.2458 0.8094 0.0
C2145 C 0.06152 0.24769 0.82309 0.0
C2146 C 0.1529 0.24122 0.78555 0.0
C2147 C 0.16466 0.2623 0.7747 0.0
C2148 C 0.13162 0.24202 0.79662 0.0
C2149 C 0.12186 0.26398 0.79717 0.0
C2150 C 0.1332 0.28461 0.78536 0.0
C2151 C 0.15433 0.28374 0.7742 0.0
H2152 H 0.51588 0.69349 0.90993 0.0
H2153 H 0.53991 0.73065 0.98334 0.0
H2154 H 0.51018 0.65248 0.92626 0.0
H2155 H 0.53351 0.68962 -0.00012 0.0
H2156 H 0.54464 0.60949 0.01404 0.0
H2157 H 0.54909 0.65163 -4e-05 0.0
H2158 H 0.48561 0.62638 0.95145 0.0
H2159 H 0.48159 0.58421 0.96494 0.0
C2160 C 0.51975 0.69293 0.92961 0.0
C2161 C 0.52837 0.71538 0.9453 0.0
C2162 C 0.51633 0.66938 0.93905 0.0
C2163 C 0.52128 0.66765 0.96446 0.0
C2164 C 0.52979 0.69015 0.98018 0.0
C2165 C 0.53333 0.71372 0.9707 0.0
C2166 C 0.53148 0.61303 0.0006 0.0
C2167 C 0.51284 0.59341 0.99053 0.0
C2168 C 0.534 0.63724 0.99253 0.0
C2169 C 0.51785 0.64242 0.97434 0.0
C2170 C 0.49872 0.62299 0.96503 0.0
C2171 C 0.49631 0.5988 0.97293 0.0
H2172 H 0.04975 0.74308 0.67908 0.0
H2173 H 0.09245 0.78904 0.63072 0.0
H2174 H 0.08474 0.7295 0.69552 0.0
H2175 H 0.12765 0.77682 0.64805 0.0
H2176 H 0.1863 0.73899 0.66734 0.0
H2177 H 0.1486 0.74456 0.64887 0.0
H2178 H 0.11935 0.74127 0.72078 0.0
H2179 H 0.15663 0.73402 0.73862 0.0
C2180 C 0.06672 0.75063 0.67228 0.0
C2181 C 0.06837 0.76715 0.65363 0.0
C2182 C 0.08685 0.74286 0.68173 0.0
C2183 C 0.1092 0.7518 0.67305 0.0
C2184 C 0.11078 0.76885 0.65476 0.0
C2185 C 0.09061 0.77618 0.645 0.0
C2186 C 0.17153 0.73869 0.67895 0.0
C2187 C 0.17433 0.73605 0.70436 0.0
C2188 C 0.14999 0.74233 0.6685 0.0
C2189 C 0.13092 0.7441 0.68339 0.0
C2190 C 0.13343 0.7399 0.70858 0.0
C2191 C 0.15485 0.7357 0.71888 0.0
H2192 H 0.98489 0.33446 0.44742 0.0
H2193 H 0.06091 0.34797 0.44499 0.0
H2194 H 0.98772 0.3771 0.46786 0.0
H2195 H 0.06364 0.39085 0.46569 0.0
H2196 H 0.05391 0.45606 0.52728 0.0
H2197 H 0.05438 0.41333 0.5077 0.0
H2198 H 9e-05 0.42077 0.4528 0.0
H2199 H -0.00037 0.46322 0.47221 0.0
C2200 C 0.00224 0.34642 0.45146 0.0
C2201 C 0.02267 0.33788 0.44444 0.0
C2202 C 0.00381 0.3709 0.46302 0.0
C2203 C 0.02587 0.38731 0.46806 0.0
C2204 C 0.04643 0.37852 0.46199 0.0
C2205 C 0.04484 0.35404 0.45012 0.0
C2206 C 0.04227 0.44858 0.51089 0.0
C2207 C 0.02665 0.4628 0.50131 0.0
C2208 C 0.04259 0.42423 0.49969 0.0
C2209 C 0.02708 0.41372 0.47895 0.0
C2210 C 0.01197 0.4283 0.469 0.0
C2211 C 0.01182 0.45264 0.48002 0.0
H2212 H 0.4525 0.29942 0.18908 0.0
H2213 H 0.40742 0.23615 0.14468 0.0
H2214 H 0.42044 0.3025 0.21651 0.0
H2215 H 0.37565 0.23929 0.17186 0.0
H2216 H 0.32989 0.23527 0.23623 0.0
H2217 H 0.36556 0.23273 0.21485 0.0
H2218 H 0.38032 0.31403 0.21388 0.0
H2219 H 0.34464 0.31672 0.23549 0.0
C2220 C 0.43583 0.28613 0.18523 0.0
C2221 C 0.43253 0.26756 0.16466 0.0
C2222 C 0.41747 0.28796 0.20088 0.0
C2223 C 0.39555 0.27105 0.19644 0.0
C2224 C 0.39242 0.25236 0.17603 0.0
C2225 C 0.41062 0.25069 0.16032 0.0
C2226 C 0.34086 0.2527 0.23182 0.0
C2227 C 0.33419 0.27619 0.23739 0.0
C2228 C 0.36127 0.2512 0.21942 0.0
C2229 C 0.3756 0.27314 0.21237 0.0
C2230 C 0.36969 0.29679 0.21914 0.0
C2231 C 0.34918 0.2983 0.23147 0.0
H2232 H 0.56047 0.50174 0.31518 0.0
H2233 H 0.6243 0.50406 0.36105 0.0
H2234 H 0.53751 0.49854 0.35196 0.0
H2235 H 0.60134 0.50147 0.39785 0.0
H2236 H 0.55326 0.53847 0.45362 0.0
H2237 H 0.5766 0.5352 0.41758 0.0
H2238 H 0.52812 0.46662 0.38784 0.0
H2239 H 0.50522 0.46916 0.4247 0.0
C2240 C 0.56955 0.50139 0.33307 0.0
C2241 C 0.59418 0.50325 0.33527 0.0
C2242 C 0.5564 0.49942 0.35404 0.0
C2243 C 0.56772 0.4998 0.37764 0.0
C2244 C 0.59226 0.50118 0.37981 0.0
C2245 C 0.60534 0.50259 0.35877 0.0
C2246 C 0.54788 0.52233 0.43973 0.0
C2247 C 0.52768 0.5038 0.4422 0.0
C2248 C 0.56119 0.52055 0.41907 0.0
C2249 C 0.55421 0.50057 0.4001 0.0
C2250 C 0.53386 0.48215 0.40232 0.0
C2251 C 0.52081 0.48362 0.42335 0.0
H2252 H 0.20465 0.86273 0.0657 0.0
H2253 H 0.27225 0.85477 0.03887 0.0
H2254 H 0.21031 0.83582 0.09836 0.0
H2255 H 0.27742 0.8269 0.07048 0.0
H2256 H 0.29417 0.81084 0.14983 0.0
H2257 H 0.28668 0.83156 0.11329 0.0
H2258 H 0.2129 0.79502 0.10971 0.0
H2259 H 0.2204 0.77517 0.14725 0.0
C2260 C 0.22051 0.85485 0.06655 0.0
C2261 C 0.23817 0.86113 0.05006 0.0
C2262 C 0.22371 0.83928 0.08514 0.0
C2263 C 0.24447 0.82936 0.08726 0.0
C2264 C 0.26152 0.83471 0.06986 0.0
C2265 C 0.25852 0.85061 0.05166 0.0
C2266 C 0.27643 0.80696 0.14102 0.0
C2267 C 0.25786 0.79147 0.15132 0.0
C2268 C 0.27211 0.81873 0.11994 0.0
C2269 C 0.24914 0.81503 0.10847 0.0
C2270 C 0.23071 0.79863 0.11828 0.0
C2271 C 0.23503 0.78705 0.1396 0.0
H2272 H 0.95285 0.50442 0.83012 0.0
H2273 H 0.943 0.58101 0.84956 0.0
H2274 H 0.97332 0.50514 0.87058 0.0
H2275 H 0.96388 0.58164 0.89025 0.0
H2276 H 0.0264 0.57116 0.94931 0.0
H2277 H 0.0078 0.57574 0.90855 0.0
H2278 H 0.95503 0.50859 0.9146 0.0
H2279 H 0.97326 0.50408 0.95491 0.0
C2280 C 0.95526 0.52151 0.84291 0.0
C2281 C 0.94612 0.54257 0.83679 0.0
C2282 C 0.96694 0.52187 0.86604 0.0
C2283 C 0.96994 0.54337 0.88339 0.0
C2284 C 0.96176 0.5649 0.87703 0.0
C2285 C 0.94975 0.56445 0.85389 0.0
C2286 C 0.01071 0.5576 0.94191 0.0
C2287 C 0.00125 0.53726 0.95508 0.0
C2288 C 9e-05 0.56026 0.91878 0.0
C2289 C 0.98021 0.54236 0.90857 0.0
C2290 C 0.97051 0.52245 0.92208 0.0
C2291 C 0.98087 0.51998 0.94517 0.0
H2292 H 0.22124 0.20585 0.55081 0.0
H2293 H 0.28734 0.18209 0.56558 0.0
H2294 H 0.22293 0.22442 0.59381 0.0
H2295 H 0.28874 0.2001 0.60869 0.0
H2296 H 0.29509 0.25465 0.679 0.0
H2297 H 0.29406 0.23921 0.63522 0.0
H2298 H 0.21879 0.21119 0.63489 0.0
H2299 H 0.2197 0.22717 0.67859 0.0
C2300 C 0.23619 0.20465 0.5632 0.0
C2301 C 0.25415 0.19245 0.55471 0.0
C2302 C 0.23705 0.21513 0.58793 0.0
C2303 C 0.25589 0.21365 0.60483 0.0
C2304 C 0.27409 0.20188 0.59618 0.0
C2305 C 0.27325 0.19144 0.57144 0.0
C2306 C 0.27828 0.24523 0.66963 0.0
C2307 C 0.25747 0.24212 0.68242 0.0
C2308 C 0.27772 0.23626 0.64449 0.0
C2309 C 0.25636 0.22387 0.63146 0.0
C2310 C 0.23552 0.22094 0.64421 0.0
C2311 C 0.23606 0.22997 0.66936 0.0
H2312 H 0.63662 0.52479 0.20756 0.0
H2313 H 0.56869 0.48428 0.22566 0.0
H2314 H 0.61909 0.5328 0.16796 0.0
H2315 H 0.55084 0.4934 0.18686 0.0
H2316 H 0.53065 0.48668 0.10512 0.0
H2317 H 0.54888 0.48082 0.1447 0.0
H2318 H 0.59401 0.55496 0.14698 0.0
H2319 H 0.5763 0.56014 0.10616 0.0
C2320 C 0.61787 0.5178 0.20315 0.0
C2321 C 0.60407 0.50363 0.21956 0.0
C2322 C 0.60776 0.52259 0.18052 0.0
C2323 C 0.58352 0.51363 0.17398 0.0
C2324 C 0.56967 0.50005 0.19085 0.0
C2325 C 0.57986 0.49488 0.21321 0.0
C2326 C 0.54443 0.50181 0.11408 0.0
C2327 C 0.55199 0.52394 0.10265 0.0
C2328 C 0.5548 0.49853 0.13697 0.0
C2329 C 0.57278 0.51752 0.14938 0.0
C2330 C 0.58038 0.5398 0.13791 0.0
C2331 C 0.57016 0.5429 0.11463 0.0
H2332 H 0.30164 0.87014 0.92869 0.0
H2333 H 0.22579 0.86077 0.9301 0.0
H2334 H 0.29687 0.84414 0.88881 0.0
H2335 H 0.22093 0.83389 0.89086 0.0
H2336 H 0.21957 0.81128 0.80881 0.0
H2337 H 0.22594 0.83735 0.84844 0.0
H2338 H 0.28437 0.80217 0.86864 0.0
H2339 H 0.27847 0.77674 0.82812 0.0
C2340 C 0.28394 0.86232 0.92057 0.0
C2341 C 0.26408 0.86763 0.93239 0.0
C2342 C 0.2812 0.84727 0.8978 0.0
C2343 C 0.25852 0.837 0.88652 0.0
C2344 C 0.23868 0.84195 0.8987 0.0
C2345 C 0.24143 0.85725 0.92127 0.0
C2346 C 0.23375 0.80909 0.82176 0.0
C2347 C 0.24843 0.79191 0.81561 0.0
C2348 C 0.23733 0.82393 0.84455 0.0
C2349 C 0.25545 0.82163 0.86194 0.0
C2350 C 0.27036 0.80457 0.85562 0.0
C2351 C 0.26696 0.78992 0.83253 0.0
H2352 H 0.92669 0.57352 0.70399 0.0
H2353 H 0.98832 0.55944 0.74452 0.0
H2354 H 0.94718 0.57237 0.66558 0.0
H2355 H 0.00853 0.55768 0.70589 0.0
H2356 H 0.00755 0.51322 0.62379 0.0
H2357 H 0.99458 0.52282 0.66532 0.0
H2358 H 0.98756 0.59725 0.64725 0.0
H2359 H 0.0012 0.58794 0.60585 0.0
C2360 C 0.94469 0.57047 0.7047 0.0
C2361 C 0.95591 0.56644 0.72713 0.0
C2362 C 0.95641 0.56998 0.68282 0.0
C2363 C 0.97934 0.56494 0.68297 0.0
C2364 C 0.99084 0.56162 0.70546 0.0
C2365 C 0.9793 0.56268 0.72748 0.0
C2366 C 0.00365 0.53178 0.62889 0.0
C2367 C 0.00527 0.54984 0.61177 0.0
C2368 C 0.99638 0.53729 0.6526 0.0
C2369 C 0.99015 0.56074 0.65929 0.0
C2370 C 0.99234 0.57907 0.64239 0.0
C2371 C 0.00015 0.57376 0.61885 0.0
H2372 H 0.29284 0.23809 0.45342 0.0
H2373 H 0.26469 0.16565 0.41141 0.0
H2374 H 0.29459 0.25842 0.41507 0.0
H2375 H 0.26701 0.18586 0.373 0.0
H2376 H 0.24731 0.23545 0.31394 0.0
H2377 H 0.24786 0.21375 0.35128 0.0
H2378 H 0.31457 0.26269 0.37729 0.0
H2379 H 0.3137 0.28473 0.33992 0.0
C2380 C 0.28719 0.22645 0.43599 0.0
C2381 C 0.27851 0.20023 0.43557 0.0
C2382 C 0.28836 0.2381 0.41393 0.0
C2383 C 0.28093 0.22384 0.39085 0.0
C2384 C 0.27255 0.19754 0.39043 0.0
C2385 C 0.27133 0.18591 0.41249 0.0
C2386 C 0.26224 0.24138 0.32748 0.0
C2387 C 0.28049 0.26178 0.32397 0.0
C2388 C 0.2626 0.22888 0.34892 0.0
C2389 C 0.28124 0.23644 0.36743 0.0
C2390 C 0.29975 0.25658 0.36364 0.0
C2391 C 0.29936 0.26911 0.34215 0.0
H2392 H 0.33101 0.58497 0.46074 0.0
H2393 H 0.31909 0.58079 0.53844 0.0
H2394 H 0.35918 0.557 0.4635 0.0
H2395 H 0.34636 0.55179 0.54101 0.0
H2396 H 0.42341 0.53995 0.54399 0.0
H2397 H 0.38756 0.55683 0.54206 0.0
H2398 H 0.36808 0.51667 0.46883 0.0
H2399 H 0.40486 0.50058 0.4705 0.0
C2400 C 0.33407 0.57763 0.47829 0.0
C2401 C 0.32322 0.58541 0.49948 0.0
C2402 C 0.35005 0.56137 0.47984 0.0
C2403 C 0.35525 0.55226 0.50256 0.0
C2404 C 0.34322 0.55889 0.52336 0.0
C2405 C 0.32755 0.57547 0.5219 0.0
C2406 C 0.41123 0.5343 0.52768 0.0
C2407 C 0.41699 0.51925 0.50726 0.0
C2408 C 0.39052 0.54385 0.5266 0.0
C2409 C 0.37496 0.53838 0.50514 0.0
C2410 C 0.37991 0.52169 0.48543 0.0
C2411 C 0.40082 0.51225 0.48645 0.0
H2412 H 0.85171 0.90085 0.53403 0.0
H2413 H 0.82115 0.96795 0.539 0.0
H2414 H 0.89068 0.92699 0.53208 0.0
H2415 H 0.86028 0.99419 0.53647 0.0
H2416 H 0.95304 0.97582 0.50274 0.0
H2417 H 0.91276 0.95218 0.50355 0.0
H2418 H 0.89855 0.00884 0.55942 0.0
H2419 H 0.93883 0.0329 0.55802 0.0
C2420 C 0.85328 0.9212 0.53469 0.0
C2421 C 0.83327 0.93229 0.53662 0.0
C2422 C 0.87565 0.93621 0.53336 0.0
C2423 C 0.87861 0.9627 0.53382 0.0
C2424 C 0.85865 0.97387 0.53621 0.0
C2425 C 0.83622 0.95882 0.53759 0.0
C2426 C 0.94122 0.9834 0.51494 0.0
C2427 C 0.94908 0.00614 0.53038 0.0
C2428 C 0.91819 0.96973 0.5156 0.0
C2429 C 0.90249 0.9784 0.53182 0.0
C2430 C 0.91013 0.00167 0.54663 0.0
C2431 C 0.93321 0.01542 0.5459 0.0
H2432 H 0.88088 0.13513 0.26554 0.0
H2433 H 0.81928 0.07808 0.23903 0.0
H2434 H 0.85632 0.16686 0.26995 0.0
H2435 H 0.79453 0.10987 0.24398 0.0
H2436 H 0.76652 0.18304 0.22726 0.0
H2437 H 0.78699 0.14737 0.22562 0.0
H2438 H 0.82633 0.17914 0.29495 0.0
H2439 H 0.80637 0.21489 0.29625 0.0
C2440 C 0.86206 0.1293 0.26083 0.0
C2441 C 0.85208 0.10406 0.25192 0.0
C2442 C 0.84791 0.14748 0.26353 0.0
C2443 C 0.82338 0.1409 0.25749 0.0
C2444 C 0.81336 0.11562 0.24863 0.0
C2445 C 0.82756 0.09739 0.2459 0.0
C2446 C 0.77917 0.18208 0.24239 0.0
C2447 C 0.78502 0.2019 0.26173 0.0
C2448 C 0.79093 0.16165 0.24146 0.0
C2449 C 0.80864 0.16064 0.25993 0.0
C2450 C 0.81326 0.17966 0.28008 0.0
C2451 C 0.80167 0.20007 0.28092 0.0
H2452 H 0.71105 0.1061 0.99008 0.0
H2453 H 0.72317 0.07737 0.06043 0.0
H2454 H 0.66927 0.08715 0.98943 0.0
H2455 H 0.68128 0.05802 0.05952 0.0
H2456 H 0.60162 0.05979 0.06331 0.0
H2457 H 0.64424 0.07389 0.06349 0.0
H2458 H 0.64185 0.04606 0.98582 0.0
H2459 H 0.59917 0.03228 0.9854 0.0
C2460 C 0.70484 0.0955 0.00529 0.0
C2461 C 0.72038 0.09336 0.0254 0.0
C2462 C 0.68092 0.08451 0.00482 0.0
C2463 C 0.67202 0.07116 0.02445 0.0
C2464 C 0.68763 0.06847 0.04428 0.0
C2465 C 0.71161 0.07944 0.04473 0.0
C2466 C 0.61015 0.05655 0.04627 0.0
C2467 C 0.59692 0.04508 0.02429 0.0
C2468 C 0.63461 0.06447 0.04645 0.0
C2469 C 0.64634 0.06111 0.02466 0.0
C2470 C 0.63321 0.04917 0.00281 0.0
C2471 C 0.60876 0.04122 0.00263 0.0
H2472 H 0.20386 0.47862 0.23037 0.0
H2473 H 0.18331 0.45723 0.30213 0.0
H2474 H 0.23615 0.4557 0.23278 0.0
H2475 H 0.21465 0.43302 0.30403 0.0
H2476 H 0.27247 0.39082 0.30535 0.0
H2477 H 0.25461 0.42844 0.30651 0.0
H2478 H 0.23614 0.41246 0.22745 0.0
H2479 H 0.25469 0.37599 0.22632 0.0
C2480 C 0.20635 0.46906 0.24671 0.0
C2481 C 0.19088 0.46923 0.26585 0.0
C2482 C 0.22481 0.45589 0.2481 0.0
C2483 C 0.22779 0.44206 0.26837 0.0
C2484 C 0.21312 0.44361 0.28823 0.0
C2485 C 0.19497 0.45728 0.28707 0.0
C2486 C 0.26525 0.39598 0.28817 0.0
C2487 C 0.26461 0.38042 0.26582 0.0
C2488 C 0.25483 0.41734 0.28884 0.0
C2489 C 0.24353 0.4233 0.26717 0.0
C2490 C 0.2448 0.40877 0.24451 0.0
C2491 C 0.25531 0.38764 0.24385 0.0
H2492 H 0.20125 0.4427 0.05567 0.0
H2493 H 0.19721 0.45188 0.97731 0.0
H2494 H 0.16804 0.46406 0.06133 0.0
H2495 H 0.16372 0.47263 0.98285 0.0
H2496 H 0.11649 0.52772 0.00262 0.0
H2497 H 0.15266 0.51076 0.00065 0.0
H2498 H 0.12598 0.4567 0.05147 0.0
H2499 H 0.09013 0.47418 0.05386 0.0
C2500 C 0.19328 0.44925 0.03964 0.0
C2501 C 0.20191 0.44555 0.01602 0.0
C2502 C 0.17415 0.4614 0.04287 0.0
C2503 C 0.16317 0.47012 0.02257 0.0
C2504 C 0.17196 0.46657 0.999 0.0
C2505 C 0.19109 0.45448 0.99577 0.0
C2506 C 0.11856 0.51247 0.01364 0.0
C2507 C 0.1005 0.5022 0.02832 0.0
C2508 C 0.13918 0.50258 0.01235 0.0
C2509 C 0.14217 0.48214 0.02567 0.0
C2510 C 0.12441 0.47256 0.04111 0.0
C2511 C 0.10381 0.4825 0.04243 0.0
H2512 H 0.88274 0.9382 0.23207 0.0
H2513 H 0.81903 0.96837 0.22403 0.0
H2514 H 0.85893 0.89623 0.23494 0.0
H2515 H 0.79529 0.92646 0.22719 0.0
H2516 H 0.75935 0.84306 0.21441 0.0
H2517 H 0.78425 0.88289 0.20582 0.0
H2518 H 0.83364 0.87736 0.2666 0.0
H2519 H 0.80882 0.83759 0.27507 0.0
C2520 C 0.86366 0.93585 0.2307 0.0
C2521 C 0.85277 0.95664 0.228 0.0
C2522 C 0.85005 0.91184 0.23248 0.0
C2523 C 0.82527 0.90812 0.23146 0.0
C2524 C 0.81435 0.92871 0.22783 0.0
C2525 C 0.82796 0.95274 0.22615 0.0
C2526 C 0.7756 0.85035 0.22582 0.0
C2527 C 0.7822 0.83735 0.2454 0.0
C2528 C 0.78979 0.87313 0.22095 0.0
C2529 C 0.81088 0.88322 0.23553 0.0
C2530 C 0.81766 0.86988 0.25483 0.0
C2531 C 0.80341 0.8472 0.25976 0.0
H2532 H 0.65885 0.07639 0.77615 0.0
H2533 H 0.69437 0.05691 0.71081 0.0
H2534 H 0.68055 0.12004 0.77824 0.0
H2535 H 0.71626 0.10046 0.71315 0.0
H2536 H 0.72626 0.18659 0.70826 0.0
H2537 H 0.70707 0.14222 0.70697 0.0
H2538 H 0.72113 0.14527 0.78636 0.0
H2539 H 0.74005 0.18977 0.78784 0.0
C2540 C 0.6714 0.08138 0.76235 0.0
C2541 C 0.67484 0.06325 0.74326 0.0
C2542 C 0.68391 0.10633 0.76363 0.0
C2543 C 0.70006 0.11363 0.74583 0.0
C2544 C 0.70371 0.09542 0.72695 0.0
C2545 C 0.69125 0.07047 0.72569 0.0
C2546 C 0.72539 0.17782 0.72545 0.0
C2547 C 0.73461 0.1918 0.74817 0.0
C2548 C 0.7145 0.15234 0.72467 0.0
C2549 C 0.71256 0.14033 0.74658 0.0
C2550 C 0.72212 0.15415 0.76923 0.0
C2551 C 0.73307 0.17961 0.77002 0.0
loop_
_geom_bond_atom_site_label_1
_geom_bond_atom_site_label_2
_geom_bond_distance
_geom_bond_site_symmetry_2
_ccdc_geom_bond_type
C0 O1 1.160 . S
C0 O7 1.185 . S
O1 C0 1.160 . S
O2 Zn3 1.899 . S
O2 C10 1.284 . S
Zn3 O2 1.899 . S
Zn3 O4 2.032 . S
Zn3 O7 2.086 . S
Zn3 O12 1.977 1_455 S
O4 Zn3 2.032 . S
O4 C8 1.278 . S
C5 O6 1.203 . S
C5 O12 1.267 . S
O6 C5 1.203 . S
O7 C0 1.185 . S
O7 Zn3 2.086 . S
C8 O4 1.278 . S
C8 O9 1.216 1_455 S
O9 C8 1.216 1_655 S
C10 O2 1.284 . S
C10 O11 1.273 . S
O11 C10 1.273 . S
O12 Zn3 1.977 1_655 S
O12 C5 1.267 . S
C13 O14 1.160 . S
C13 O20 1.185 . S
O14 C13 1.160 . S
O15 Zn16 1.899 . S
O15 C23 1.284 . S
Zn16 O15 1.899 . S
Zn16 O17 2.032 1_455 S
Zn16 O20 2.086 1_455 S
Zn16 O25 1.977 . S
O17 Zn16 2.032 1_655 S
O17 C21 1.278 1_655 S
C18 O19 1.203 . S
C18 O25 1.267 . S
O19 C18 1.203 . S
O20 C13 1.185 . S
O20 Zn16 2.086 1_655 S
C21 O17 1.278 1_455 S
C21 O22 1.211 . S
O22 C21 1.211 . S
C23 O15 1.284 . S
C23 O24 1.273 . S
O24 C23 1.273 . S
O25 Zn16 1.977 . S
O25 C18 1.267 . S
C26 O27 1.160 . S
C26 O33 1.185 . S
O27 C26 1.160 . S
O28 Zn29 1.899 . S
O28 C36 1.284 . S
Zn29 O28 1.899 . S
Zn29 O30 2.032 . S
Zn29 O33 2.086 . S
Zn29 O38 1.977 . S
O30 Zn29 2.032 . S
O30 C34 1.278 . S
C31 O32 1.203 . S
C31 O38 1.267 . S
O32 C31 1.203 . S
O33 C26 1.185 . S
O33 Zn29 2.086 . S
C34 O30 1.278 . S
C34 O35 1.211 . S
O35 C34 1.211 . S
C36 O28 1.284 . S
C36 O37 1.273 . S
O37 C36 1.273 . S
O38 Zn29 1.977 . S
O38 C31 1.267 . S
C39 O40 1.160 . S
C39 O46 1.185 . S
O40 C39 1.160 . S
O41 Zn42 1.899 . S
O41 C49 1.284 . S
Zn42 O41 1.899 . S
Zn42 O43 2.032 . S
Zn42 O46 2.086 . S
Zn42 O51 1.977 . S
O43 Zn42 2.032 . S
O43 C47 1.278 . S
C44 O45 1.203 . S
C44 O51 1.267 . S
O45 C44 1.203 . S
O46 C39 1.185 . S
O46 Zn42 2.086 . S
C47 O43 1.278 . S
C47 O48 1.211 . S
O48 C47 1.211 . S
C49 O41 1.284 . S
C49 O50 1.273 . S
O50 C49 1.273 . S
O51 Zn42 1.977 . S
O51 C44 1.267 . S
C52 O53 1.160 . S
C52 O59 1.205 . S
O53 C52 1.160 . S
O54 Zn55 1.899 . S
O54 C62 1.284 . S
Zn55 O54 1.899 . S
Zn55 O56 2.032 . S
Zn55 O59 2.070 1_455 S
Zn55 O64 1.977 . S
O56 Zn55 2.032 . S
O56 C60 1.278 . S
C57 O58 1.203 . S
C57 O64 1.267 . S
O58 C57 1.203 . S
O59 C52 1.205 . S
O59 Zn55 2.070 1_655 S
C60 O56 1.278 . S
C60 O61 1.211 . S
O61 C60 1.211 . S
C62 O54 1.284 . S
C62 O63 1.273 . S
O63 C62 1.273 . S
O64 Zn55 1.977 . S
O64 C57 1.267 . S
C65 O66 1.160 . S
C65 O72 1.185 . S
O66 C65 1.160 . S
O67 Zn68 1.899 . S
O67 C75 1.284 . S
Zn68 O67 1.899 . S
Zn68 O69 2.032 . S
Zn68 O72 2.086 . S
Zn68 O77 1.977 . S
O69 Zn68 2.032 . S
O69 C73 1.278 . S
C70 O71 1.203 . S
C70 O77 1.267 . S
O71 C70 1.203 . S
O72 C65 1.185 . S
O72 Zn68 2.086 . S
C73 O69 1.278 . S
C73 O74 1.211 . S
O74 C73 1.211 . S
C75 O67 1.284 . S
C75 O76 1.273 . S
O76 C75 1.273 . S
O77 Zn68 1.977 . S
O77 C70 1.267 . S
C78 O79 1.160 . S
C78 O85 1.185 . S
O79 C78 1.160 . S
O80 Zn81 1.899 . S
O80 C88 1.284 . S
Zn81 O80 1.899 . S
Zn81 O82 2.032 . S
Zn81 O85 2.086 . S
Zn81 O90 1.977 . S
O82 Zn81 2.032 . S
O82 C86 1.278 . S
C83 O84 1.203 . S
C83 O90 1.267 . S
O84 C83 1.203 . S
O85 C78 1.185 . S
O85 Zn81 2.086 . S
C86 O82 1.278 . S
C86 O87 1.211 . S
O87 C86 1.211 . S
C88 O80 1.284 . S
C88 O89 1.273 . S
O89 C88 1.273 . S
O90 Zn81 1.977 . S
O90 C83 1.267 . S
C91 O92 1.160 . S
C91 O98 1.185 . S
O92 C91 1.160 . S
O93 Zn94 1.899 . S
O93 C101 1.284 1_455 S
Zn94 O93 1.899 . S
Zn94 O95 2.032 . S
Zn94 O98 2.086 . S
Zn94 O103 1.977 1_455 S
O95 Zn94 2.032 . S
O95 C99 1.278 . S
C96 O97 1.203 . S
C96 O103 1.267 . S
O97 C96 1.203 . S
O98 C91 1.185 . S
O98 Zn94 2.086 . S
C99 O95 1.278 . S
C99 O100 1.211 1_455 S
O100 C99 1.211 1_655 S
C101 O93 1.284 1_655 S
C101 O102 1.273 . S
O102 C101 1.273 . S
O103 Zn94 1.977 1_655 S
O103 C96 1.267 . S
C104 O105 1.160 . S
C104 O111 1.185 . S
O105 C104 1.160 . S
O106 Zn107 1.899 . S
O106 C114 1.284 . S
Zn107 O106 1.899 . S
Zn107 O108 2.032 . S
Zn107 O111 2.086 . S
Zn107 O116 1.977 1_545 S
O108 Zn107 2.032 . S
O108 C112 1.278 . S
C109 O110 1.203 . S
C109 O116 1.267 . S
O110 C109 1.203 . S
O111 C104 1.185 . S
O111 Zn107 2.086 . S
C112 O108 1.278 . S
C112 O113 1.169 1_545 S
O113 C112 1.169 1_565 S
C114 O106 1.284 . S
C114 O115 1.273 . S
O115 C114 1.273 . S
O116 Zn107 1.977 1_565 S
O116 C109 1.267 . S
C117 O118 1.160 . S
C117 O124 1.185 . S
O118 C117 1.160 . S
O119 Zn120 1.899 . S
O119 C127 1.284 . S
Zn120 O119 1.899 . S
Zn120 O121 2.032 . S
Zn120 O124 2.086 . S
Zn120 O129 1.977 . S
O121 Zn120 2.032 . S
O121 C125 1.278 . S
C122 O123 1.203 . S
C122 O129 1.267 . S
O123 C122 1.203 . S
O124 C117 1.185 . S
O124 Zn120 2.086 . S
C125 O121 1.278 . S
C125 O126 1.211 . S
O126 C125 1.211 . S
C127 O119 1.284 . S
C127 O128 1.273 . S
O128 C127 1.273 . S
O129 Zn120 1.977 . S
O129 C122 1.267 . S
C130 O131 1.160 . S
C130 O137 1.185 . S
O131 C130 1.160 . S
O132 Zn133 1.899 . S
O132 C140 1.284 . S
Zn133 O132 1.899 . S
Zn133 O134 2.032 . S
Zn133 O137 2.086 . S
Zn133 O142 1.977 1_565 S
O134 Zn133 2.032 . S
O134 C138 1.278 1_565 S
C135 O136 1.203 . S
C135 O142 1.267 . S
O136 C135 1.203 . S
O137 C130 1.185 . S
O137 Zn133 2.086 . S
C138 O134 1.278 1_545 S
C138 O139 1.211 . S
O139 C138 1.211 . S
C140 O132 1.284 . S
C140 O141 1.273 1_565 S
O141 C140 1.273 1_545 S
O142 Zn133 1.977 1_545 S
O142 C135 1.267 . S
C143 O144 1.160 . S
C143 O150 1.185 . S
O144 C143 1.160 . S
O145 Zn146 1.899 . S
O145 C153 1.284 . S
Zn146 O145 1.899 . S
Zn146 O147 2.032 1_554 S
Zn146 O150 2.086 . S
Zn146 O155 1.977 . S
O147 Zn146 2.032 1_556 S
O147 C151 1.278 . S
C148 O149 1.203 . S
C148 O155 1.267 . S
O149 C148 1.203 . S
O150 C143 1.185 . S
O150 Zn146 2.086 . S
C151 O147 1.278 . S
C151 O152 1.211 . S
O152 C151 1.211 . S
C153 O145 1.284 . S
C153 O154 1.273 . S
O154 C153 1.273 . S
O155 Zn146 1.977 . S
O155 C148 1.267 . S
C156 O157 1.160 . S
C156 O163 1.185 . S
O157 C156 1.160 . S
O158 Zn159 1.899 . S
O158 C166 1.284 . S
Zn159 O158 1.899 . S
Zn159 O160 2.032 1_554 S
Zn159 O163 2.086 . S
Zn159 O168 1.977 . S
O160 Zn159 2.032 1_556 S
O160 C164 1.278 . S
C161 O162 1.203 . S
C161 O168 1.267 . S
O162 C161 1.203 . S
O163 C156 1.185 . S
O163 Zn159 2.086 . S
C164 O160 1.278 . S
C164 O165 1.211 . S
O165 C164 1.211 . S
C166 O158 1.284 . S
C166 O167 1.273 . S
O167 C166 1.273 . S
O168 Zn159 1.977 . S
O168 C161 1.267 . S
C169 O170 1.160 . S
C169 O176 1.185 1_554 S
O170 C169 1.160 . S
O171 Zn172 1.899 . S
O171 C179 1.284 . S
Zn172 O171 1.899 . S
Zn172 O173 2.032 1_554 S
Zn172 O176 2.086 1_554 S
Zn172 O181 1.977 1_554 S
O173 Zn172 2.032 1_556 S
O173 C177 1.278 . S
C174 O175 1.217 . S
C174 O181 1.257 1_554 S
O175 C174 1.217 . S
O176 C169 1.185 1_556 S
O176 Zn172 2.086 1_556 S
C177 O173 1.278 . S
C177 O178 1.211 . S
O178 C177 1.211 . S
C179 O171 1.284 . S
C179 O180 1.273 . S
O180 C179 1.273 . S
O181 Zn172 1.977 1_556 S
O181 C174 1.257 1_556 S
C182 O183 1.160 . S
C182 O189 1.185 . S
O183 C182 1.160 . S
O184 Zn185 1.899 . S
O184 C192 1.284 . S
Zn185 O184 1.899 . S
Zn185 O186 2.032 . S
Zn185 O189 2.086 . S
Zn185 O194 1.977 . S
O186 Zn185 2.032 . S
O186 C190 1.278 . S
C187 O188 1.203 . S
C187 O194 1.267 . S
O188 C187 1.203 . S
O189 C182 1.185 . S
O189 Zn185 2.086 . S
C190 O186 1.278 . S
C190 O191 1.211 . S
O191 C190 1.211 . S
C192 O184 1.284 . S
C192 O193 1.273 . S
O193 C192 1.273 . S
O194 Zn185 1.977 . S
O194 C187 1.267 . S
C195 O196 1.160 . S
C195 O202 1.185 . S
O196 C195 1.160 . S
O197 Zn198 1.899 . S
O197 C205 1.284 . S
Zn198 O197 1.899 . S
Zn198 O199 2.032 . S
Zn198 O202 2.086 . S
Zn198 O207 1.977 . S
O199 Zn198 2.032 . S
O199 C203 1.278 . S
C200 O201 1.203 . S
C200 O207 1.267 . S
O201 C200 1.203 . S
O202 C195 1.185 . S
O202 Zn198 2.086 . S
C203 O199 1.278 . S
C203 O204 1.211 . S
O204 C203 1.211 . S
C205 O197 1.284 . S
C205 O206 1.273 . S
O206 C205 1.273 . S
O207 Zn198 1.977 . S
O207 C200 1.267 . S
C208 O209 1.160 . S
C208 O215 1.185 . S
O209 C208 1.160 . S
O210 Zn211 1.899 . S
O210 C218 1.284 . S
Zn211 O210 1.899 . S
Zn211 O212 2.032 . S
Zn211 O215 2.086 . S
Zn211 O220 1.977 . S
O212 Zn211 2.032 . S
O212 C216 1.278 . S
C213 O214 1.203 . S
C213 O220 1.267 1_565 S
O214 C213 1.203 . S
O215 C208 1.185 . S
O215 Zn211 2.086 . S
C216 O212 1.278 . S
C216 O217 1.211 . S
O217 C216 1.211 . S
C218 O210 1.284 . S
C218 O219 1.273 . S
O219 C218 1.273 . S
O220 Zn211 1.977 . S
O220 C213 1.267 1_545 S
C221 O222 1.160 . S
C221 O228 1.185 . S
O222 C221 1.160 . S
O223 Zn224 1.899 . S
O223 C231 1.284 . S
Zn224 O223 1.899 . S
Zn224 O225 2.032 . S
Zn224 O228 2.086 . S
Zn224 O233 1.977 . S
O225 Zn224 2.032 . S
O225 C229 1.278 . S
C226 O227 1.203 . S
C226 O233 1.267 . S
O227 C226 1.203 . S
O228 C221 1.185 . S
O228 Zn224 2.086 . S
C229 O225 1.278 . S
C229 O230 1.211 . S
O230 C229 1.211 . S
C231 O223 1.284 . S
C231 O232 1.273 . S
O232 C231 1.273 . S
O233 Zn224 1.977 . S
O233 C226 1.267 . S
C234 O235 1.160 . S
C234 O241 1.185 . S
O235 C234 1.160 . S
O236 Zn237 1.899 . S
O236 C244 1.284 . S
Zn237 O236 1.899 . S
Zn237 O238 2.032 . S
Zn237 O241 2.086 . S
Zn237 O246 1.977 . S
O238 Zn237 2.032 . S
O238 C242 1.278 . S
C239 O240 1.203 . S
C239 O246 1.267 . S
O240 C239 1.203 . S
O241 C234 1.185 . S
O241 Zn237 2.086 . S
C242 O238 1.278 . S
C242 O243 1.211 . S
O243 C242 1.211 . S
C244 O236 1.284 . S
C244 O245 1.273 . S
O245 C244 1.273 . S
O246 Zn237 1.977 . S
O246 C239 1.267 . S
C247 O248 1.160 . S
C247 O254 1.187 . S
O248 C247 1.160 . S
O249 Zn250 1.899 . S
O249 C257 1.284 . S
Zn250 O249 1.899 . S
Zn250 O251 2.032 . S
Zn250 O254 2.084 1_545 S
Zn250 O259 1.977 . S
O251 Zn250 2.032 . S
O251 C255 1.278 . S
C252 O253 1.203 . S
C252 O259 1.267 . S
O253 C252 1.203 . S
O254 C247 1.187 . S
O254 Zn250 2.084 1_565 S
C255 O251 1.278 . S
C255 O256 1.211 . S
O256 C255 1.211 . S
C257 O249 1.284 . S
C257 O258 1.273 . S
O258 C257 1.273 . S
O259 Zn250 1.977 . S
O259 C252 1.267 . S
C260 O261 1.160 . S
C260 O267 1.185 . S
O261 C260 1.160 . S
O262 Zn263 1.899 . S
O262 C270 1.284 . S
Zn263 O262 1.899 . S
Zn263 O264 2.032 1_554 S
Zn263 O267 2.086 . S
Zn263 O272 1.977 . S
O264 Zn263 2.032 1_556 S
O264 C268 1.278 . S
C265 O266 1.203 . S
C265 O272 1.267 . S
O266 C265 1.203 . S
O267 C260 1.185 . S
O267 Zn263 2.086 . S
C268 O264 1.278 . S
C268 O269 1.211 . S
O269 C268 1.211 . S
C270 O262 1.284 . S
C270 O271 1.273 . S
O271 C270 1.273 . S
O272 Zn263 1.977 . S
O272 C265 1.267 . S
C273 O274 1.160 . S
C273 O280 1.185 . S
O274 C273 1.160 . S
O275 Zn276 1.899 . S
O275 C283 1.284 . S
Zn276 O275 1.899 . S
Zn276 O277 2.032 . S
Zn276 O280 2.086 . S
Zn276 O285 1.977 . S
O277 Zn276 2.032 . S
O277 C281 1.278 . S
C278 O279 1.203 . S
C278 O285 1.267 . S
O279 C278 1.203 . S
O280 C273 1.185 . S
O280 Zn276 2.086 . S
C281 O277 1.278 . S
C281 O282 1.211 . S
O282 C281 1.211 . S
C283 O275 1.284 . S
C283 O284 1.273 . S
O284 C283 1.273 . S
O285 Zn276 1.977 . S
O285 C278 1.267 . S
C286 O287 1.160 . S
C286 O293 1.185 . S
O287 C286 1.160 . S
O288 Zn289 1.899 . S
O288 C296 1.284 . S
Zn289 O288 1.899 . S
Zn289 O290 2.032 . S
Zn289 O293 2.086 . S
Zn289 O298 1.977 . S
O290 Zn289 2.032 . S
O290 C294 1.278 . S
C291 O292 1.203 . S
C291 O298 1.267 . S
O292 C291 1.203 . S
O293 C286 1.185 . S
O293 Zn289 2.086 . S
C294 O290 1.278 . S
C294 O295 1.211 . S
O295 C294 1.211 . S
C296 O288 1.284 . S
C296 O297 1.273 . S
O297 C296 1.273 . S
O298 Zn289 1.977 . S
O298 C291 1.267 . S
C299 O300 1.160 . S
C299 O306 1.185 . S
O300 C299 1.160 . S
O301 Zn302 1.899 . S
O301 C309 1.284 . S
Zn302 O301 1.899 . S
Zn302 O303 2.032 . S
Zn302 O306 2.086 . S
Zn302 O311 1.977 . S
O303 Zn302 2.032 . S
O303 C307 1.278 . S
C304 O305 1.203 . S
C304 O311 1.267 . S
O305 C304 1.203 . S
O306 C299 1.185 . S
O306 Zn302 2.086 . S
C307 O303 1.278 . S
C307 O308 1.211 . S
O308 C307 1.211 . S
C309 O301 1.284 . S
C309 O310 1.273 . S
O310 C309 1.273 . S
O311 Zn302 1.977 . S
O311 C304 1.267 . S
Dy312 O316 2.398 . S
Dy312 O317 2.491 1_556 S
Dy312 O318 2.403 . S
Dy312 O319 2.664 1_655 S
Dy312 O323 2.326 . S
Dy312 O327 2.310 1_556 S
Dy312 O328 2.351 1_546 S
C313 O324 1.185 . S
C313 O325 1.355 . S
C314 O316 1.185 . S
C314 O317 1.355 1_556 S
Dy315 O319 2.310 1_554 S
Dy315 O322 2.351 . S
Dy315 O324 2.398 . S
Dy315 O325 2.495 . S
Dy315 O326 2.403 . S
Dy315 O327 2.663 1_455 S
Dy315 O329 2.326 1_545 S
O316 Dy312 2.398 . S
O316 C314 1.185 . S
O317 Dy312 2.491 1_554 S
O317 C314 1.355 1_554 S
O318 Dy312 2.403 . S
O318 C320 1.254 1_655 S
O319 Dy312 2.664 1_455 S
O319 Dy315 2.310 1_556 S
O319 C320 1.268 . S
C320 O318 1.254 1_455 S
C320 O319 1.268 . S
C321 O326 1.254 . S
C321 O327 1.268 1_455 S
O322 Dy315 2.351 . S
O322 C330 1.249 1_554 S
O323 Dy312 2.326 . S
O323 C330 1.267 1_655 S
O324 C313 1.185 . S
O324 Dy315 2.398 . S
O325 C313 1.355 . S
O325 Dy315 2.495 . S
O326 Dy315 2.403 . S
O326 C321 1.254 . S
O327 Dy312 2.310 1_554 S
O327 Dy315 2.663 1_655 S
O327 C321 1.268 1_655 S
O328 Dy312 2.351 1_564 S
O328 C331 1.249 1_655 S
O329 Dy315 2.326 1_565 S
O329 C331 1.267 . S
C330 O322 1.249 1_556 S
C330 O323 1.267 1_455 S
C331 O328 1.249 1_455 S
C331 O329 1.267 . S
Dy332 O336 2.398 . S
Dy332 O337 2.491 . S
Dy332 O338 2.403 . S
Dy332 O339 2.664 . S
Dy332 O343 2.326 . S
Dy332 O347 2.310 . S
Dy332 O348 2.351 . S
C333 O344 1.185 . S
C333 O345 1.355 . S
C334 O336 1.185 . S
C334 O337 1.355 . S
Dy335 O339 2.310 . S
Dy335 O342 2.351 . S
Dy335 O344 2.398 . S
Dy335 O345 2.491 . S
Dy335 O346 2.403 . S
Dy335 O347 2.664 . S
Dy335 O349 2.326 . S
O336 Dy332 2.398 . S
O336 C334 1.185 . S
O337 Dy332 2.491 . S
O337 C334 1.355 . S
O338 Dy332 2.403 . S
O338 C340 1.254 . S
O339 Dy332 2.664 . S
O339 Dy335 2.310 . S
O339 C340 1.268 . S
C340 O338 1.254 . S
C340 O339 1.268 . S
C341 O346 1.254 . S
C341 O347 1.268 . S
O342 Dy335 2.351 . S
O342 C350 1.249 . S
O343 Dy332 2.326 . S
O343 C350 1.267 . S
O344 C333 1.185 . S
O344 Dy335 2.398 . S
O345 C333 1.355 . S
O345 Dy335 2.491 . S
O346 Dy335 2.403 . S
O346 C341 1.254 . S
O347 Dy332 2.310 . S
O347 Dy335 2.664 . S
O347 C341 1.268 . S
O348 Dy332 2.351 . S
O348 C351 1.249 . S
O349 Dy335 2.326 . S
O349 C351 1.267 . S
C350 O342 1.249 . S
C350 O343 1.267 . S
C351 O348 1.249 . S
C351 O349 1.267 . S
Dy352 O356 2.398 . S
Dy352 O357 2.500 . S
Dy352 O358 2.403 . S
Dy352 O359 2.664 . S
Dy352 O363 2.326 1_545 S
Dy352 O367 2.310 . S
Dy352 O368 2.351 . S
C353 O364 1.185 . S
C353 O365 1.355 . S
C354 O356 1.162 1_565 S
C354 O357 1.355 1_565 S
Dy355 O359 2.310 . S
Dy355 O362 2.351 1_545 S
Dy355 O364 2.398 . S
Dy355 O365 2.491 . S
Dy355 O366 2.403 . S
Dy355 O367 2.664 . S
Dy355 O369 2.326 . S
O356 Dy352 2.398 . S
O356 C354 1.162 1_545 S
O357 Dy352 2.500 . S
O357 C354 1.355 1_545 S
O358 Dy352 2.403 . S
O358 C360 1.254 . S
O359 Dy352 2.664 . S
O359 Dy355 2.310 . S
O359 C360 1.268 . S
C360 O358 1.254 . S
C360 O359 1.268 . S
C361 O366 1.254 . S
C361 O367 1.268 . S
O362 Dy355 2.351 1_565 S
O362 C370 1.249 . S
O363 Dy352 2.326 1_565 S
O363 C370 1.267 . S
O364 C353 1.185 . S
O364 Dy355 2.398 . S
O365 C353 1.355 . S
O365 Dy355 2.491 . S
O366 Dy355 2.403 . S
O366 C361 1.254 . S
O367 Dy352 2.310 . S
O367 Dy355 2.664 . S
O367 C361 1.268 . S
O368 Dy352 2.351 . S
O368 C371 1.249 . S
O369 Dy355 2.326 . S
O369 C371 1.267 . S
C370 O362 1.249 . S
C370 O363 1.267 . S
C371 O368 1.249 . S
C371 O369 1.267 . S
Dy372 O376 2.398 . S
Dy372 O377 2.491 . S
Dy372 O378 2.403 . S
Dy372 O379 2.664 . S
Dy372 O383 2.326 . S
Dy372 O387 2.310 . S
Dy372 O388 2.351 . S
C373 O384 1.185 . S
C373 O385 1.355 . S
C374 O376 1.185 . S
C374 O377 1.355 . S
Dy375 O379 2.310 . S
Dy375 O382 2.351 . S
Dy375 O384 2.398 . S
Dy375 O385 2.491 . S
Dy375 O386 2.403 . S
Dy375 O387 2.664 . S
Dy375 O389 2.326 . S
O376 Dy372 2.398 . S
O376 C374 1.185 . S
O377 Dy372 2.491 . S
O377 C374 1.355 . S
O378 Dy372 2.403 . S
O378 C380 1.254 . S
O379 Dy372 2.664 . S
O379 Dy375 2.310 . S
O379 C380 1.268 . S
C380 O378 1.254 . S
C380 O379 1.268 . S
C381 O386 1.254 . S
C381 O387 1.268 . S
O382 Dy375 2.351 . S
O382 C390 1.249 . S
O383 Dy372 2.326 . S
O383 C390 1.267 . S
O384 C373 1.185 . S
O384 Dy375 2.398 . S
O385 C373 1.355 . S
O385 Dy375 2.491 . S
O386 Dy375 2.403 . S
O386 C381 1.254 . S
O387 Dy372 2.310 . S
O387 Dy375 2.664 . S
O387 C381 1.268 . S
O388 Dy372 2.351 . S
O388 C391 1.249 . S
O389 Dy375 2.326 . S
O389 C391 1.267 . S
C390 O382 1.249 . S
C390 O383 1.267 . S
C391 O388 1.249 . S
C391 O389 1.267 . S
Dy392 O396 2.398 . S
Dy392 O397 2.491 1_455 S
Dy392 O398 2.403 . S
Dy392 O399 2.664 . S
Dy392 O403 2.326 . S
Dy392 O407 2.310 1_455 S
Dy392 O408 2.351 1_545 S
C393 O404 1.185 . S
C393 O405 1.355 . S
C394 O396 1.185 1_655 S
C394 O397 1.355 . S
Dy395 O399 2.310 . S
Dy395 O402 2.351 . S
Dy395 O404 2.398 . S
Dy395 O405 2.491 . S
Dy395 O406 2.403 1_455 S
Dy395 O407 2.664 1_455 S
Dy395 O409 2.326 1_545 S
O396 Dy392 2.398 . S
O396 C394 1.185 1_455 S
O397 Dy392 2.491 1_655 S
O397 C394 1.355 . S
O398 Dy392 2.403 . S
O398 C400 1.254 . S
O399 Dy392 2.664 . S
O399 Dy395 2.310 . S
O399 C400 1.268 . S
C400 O398 1.254 . S
C400 O399 1.268 . S
C401 O406 1.254 . S
C401 O407 1.268 . S
O402 Dy395 2.351 . S
O402 C410 1.249 . S
O403 Dy392 2.326 . S
O403 C410 1.267 . S
O404 C393 1.185 . S
O404 Dy395 2.398 . S
O405 C393 1.355 . S
O405 Dy395 2.491 . S
O406 Dy395 2.403 1_655 S
O406 C401 1.254 . S
O407 Dy392 2.310 1_655 S
O407 Dy395 2.664 1_655 S
O407 C401 1.268 . S
O408 Dy392 2.351 1_565 S
O408 C411 1.249 . S
O409 Dy395 2.326 1_565 S
O409 C411 1.267 . S
C410 O402 1.249 . S
C410 O403 1.267 . S
C411 O408 1.249 . S
C411 O409 1.267 . S
Dy412 O416 2.398 . S
Dy412 O417 2.491 . S
Dy412 O418 2.403 . S
Dy412 O419 2.664 . S
Dy412 O423 2.326 . S
Dy412 O427 2.310 . S
Dy412 O428 2.351 . S
C413 O424 1.185 . S
C413 O425 1.355 . S
C414 O416 1.185 . S
C414 O417 1.355 . S
Dy415 O419 2.310 . S
Dy415 O422 2.351 . S
Dy415 O424 2.398 . S
Dy415 O425 2.491 . S
Dy415 O426 2.403 . S
Dy415 O427 2.664 . S
Dy415 O429 2.326 . S
O416 Dy412 2.398 . S
O416 C414 1.185 . S
O417 Dy412 2.491 . S
O417 C414 1.355 . S
O418 Dy412 2.403 . S
O418 C420 1.254 . S
O419 Dy412 2.664 . S
O419 Dy415 2.310 . S
O419 C420 1.268 . S
C420 O418 1.254 . S
C420 O419 1.268 . S
C421 O426 1.254 . S
C421 O427 1.268 . S
O422 Dy415 2.351 . S
O422 C430 1.249 . S
O423 Dy412 2.326 . S
O423 C430 1.267 . S
O424 C413 1.185 . S
O424 Dy415 2.398 . S
O425 C413 1.355 . S
O425 Dy415 2.491 . S
O426 Dy415 2.403 . S
O426 C421 1.254 . S
O427 Dy412 2.310 . S
O427 Dy415 2.664 . S
O427 C421 1.268 . S
O428 Dy412 2.351 . S
O428 C431 1.249 . S
O429 Dy415 2.326 . S
O429 C431 1.267 . S
C430 O422 1.249 . S
C430 O423 1.267 . S
C431 O428 1.249 . S
C431 O429 1.267 . S
Dy432 O436 2.398 1_545 S
Dy432 O437 2.491 . S
Dy432 O438 2.403 1_545 S
Dy432 O439 2.623 1_544 S
Dy432 O443 2.326 1_545 S
Dy432 O447 2.310 . S
Dy432 O448 2.351 . S
C433 O444 1.185 . S
C433 O445 1.355 . S
C434 O436 1.185 1_545 S
C434 O437 1.355 . S
Dy435 O439 2.334 1_545 S
Dy435 O442 2.351 . S
Dy435 O444 2.398 . S
Dy435 O445 2.491 . S
Dy435 O446 2.403 . S
Dy435 O447 2.664 1_556 S
Dy435 O449 2.326 . S
O436 Dy432 2.398 1_565 S
O436 C434 1.185 1_565 S
O437 Dy432 2.491 . S
O437 C434 1.355 . S
O438 Dy432 2.403 1_565 S
O438 C440 1.254 . S
O439 Dy432 2.623 1_566 S
O439 Dy435 2.334 1_565 S
O439 C440 1.253 1_556 S
C440 O438 1.254 . S
C440 O439 1.253 1_554 S
C441 O446 1.254 1_554 S
C441 O447 1.268 . S
O442 Dy435 2.351 . S
O442 C450 1.249 1_556 S
O443 Dy432 2.326 1_565 S
O443 C450 1.267 1_565 S
O444 C433 1.185 . S
O444 Dy435 2.398 . S
O445 C433 1.355 . S
O445 Dy435 2.491 . S
O446 Dy435 2.403 . S
O446 C441 1.254 1_556 S
O447 Dy432 2.310 . S
O447 Dy435 2.664 1_554 S
O447 C441 1.268 . S
O448 Dy432 2.351 . S
O448 C451 1.249 . S
O449 Dy435 2.326 . S
O449 C451 1.267 1_556 S
C450 O442 1.249 1_554 S
C450 O443 1.267 1_545 S
C451 O448 1.249 . S
C451 O449 1.267 1_554 S
Dy452 O456 2.398 . S
Dy452 O457 2.491 . S
Dy452 O458 2.403 . S
Dy452 O459 2.664 . S
Dy452 O463 2.326 . S
Dy452 O467 2.310 . S
Dy452 O468 2.351 . S
C453 O464 1.185 . S
C453 O465 1.355 . S
C454 O456 1.185 . S
C454 O457 1.355 . S
Dy455 O459 2.310 . S
Dy455 O462 2.351 . S
Dy455 O464 2.398 . S
Dy455 O465 2.491 . S
Dy455 O466 2.403 . S
Dy455 O467 2.664 . S
Dy455 O469 2.326 . S
O456 Dy452 2.398 . S
O456 C454 1.185 . S
O457 Dy452 2.491 . S
O457 C454 1.355 . S
O458 Dy452 2.403 . S
O458 C460 1.254 . S
O459 Dy452 2.664 . S
O459 Dy455 2.310 . S
O459 C460 1.268 . S
C460 O458 1.254 . S
C460 O459 1.268 . S
C461 O466 1.254 . S
C461 O467 1.268 . S
O462 Dy455 2.351 . S
O462 C470 1.249 . S
O463 Dy452 2.326 . S
O463 C470 1.267 . S
O464 C453 1.185 . S
O464 Dy455 2.398 . S
O465 C453 1.355 . S
O465 Dy455 2.491 . S
O466 Dy455 2.403 . S
O466 C461 1.254 . S
O467 Dy452 2.310 . S
O467 Dy455 2.664 . S
O467 C461 1.268 . S
O468 Dy452 2.351 . S
O468 C471 1.249 . S
O469 Dy455 2.326 . S
O469 C471 1.267 . S
C470 O462 1.249 . S
C470 O463 1.267 . S
C471 O468 1.249 . S
C471 O469 1.267 . S
Dy472 O476 2.398 . S
Dy472 O477 2.491 . S
Dy472 O478 2.403 . S
Dy472 O479 2.664 1_556 S
Dy472 O483 2.326 . S
Dy472 O487 2.310 1_556 S
Dy472 O488 2.351 1_556 S
C473 O484 1.185 . S
C473 O485 1.355 . S
C474 O476 1.185 . S
C474 O477 1.355 . S
Dy475 O479 2.310 . S
Dy475 O482 2.351 . S
Dy475 O484 2.398 . S
Dy475 O485 2.491 . S
Dy475 O486 2.403 . S
Dy475 O487 2.664 . S
Dy475 O489 2.326 . S
O476 Dy472 2.398 . S
O476 C474 1.185 . S
O477 Dy472 2.491 . S
O477 C474 1.355 . S
O478 Dy472 2.403 . S
O478 C480 1.254 1_556 S
O479 Dy472 2.664 1_554 S
O479 Dy475 2.310 . S
O479 C480 1.268 . S
C480 O478 1.254 1_554 S
C480 O479 1.268 . S
C481 O486 1.254 . S
C481 O487 1.268 . S
O482 Dy475 2.351 . S
O482 C490 1.249 1_554 S
O483 Dy472 2.326 . S
O483 C490 1.267 . S
O484 C473 1.185 . S
O484 Dy475 2.398 . S
O485 C473 1.355 . S
O485 Dy475 2.491 . S
O486 Dy475 2.403 . S
O486 C481 1.254 . S
O487 Dy472 2.310 1_554 S
O487 Dy475 2.664 . S
O487 C481 1.268 . S
O488 Dy472 2.351 1_554 S
O488 C491 1.249 . S
O489 Dy475 2.326 . S
O489 C491 1.267 . S
C490 O482 1.249 1_556 S
C490 O483 1.267 . S
C491 O488 1.249 . S
C491 O489 1.267 . S
Dy492 O496 2.398 . S
Dy492 O497 2.491 . S
Dy492 O498 2.403 . S
Dy492 O499 2.664 . S
Dy492 O503 2.326 . S
Dy492 O507 2.310 . S
Dy492 O508 2.351 . S
C493 O504 1.185 . S
C493 O505 1.355 . S
C494 O496 1.185 . S
C494 O497 1.355 . S
Dy495 O499 2.310 . S
Dy495 O502 2.351 . S
Dy495 O504 2.398 . S
Dy495 O505 2.491 . S
Dy495 O506 2.403 . S
Dy495 O507 2.664 . S
Dy495 O509 2.326 . S
O496 Dy492 2.398 . S
O496 C494 1.185 . S
O497 Dy492 2.491 . S
O497 C494 1.355 . S
O498 Dy492 2.403 . S
O498 C500 1.254 . S
O499 Dy492 2.664 . S
O499 Dy495 2.310 . S
O499 C500 1.268 . S
C500 O498 1.254 . S
C500 O499 1.268 . S
C501 O506 1.254 . S
C501 O507 1.268 . S
O502 Dy495 2.351 . S
O502 C510 1.249 . S
O503 Dy492 2.326 . S
O503 C510 1.267 . S
O504 C493 1.185 . S
O504 Dy495 2.398 . S
O505 C493 1.355 . S
O505 Dy495 2.491 . S
O506 Dy495 2.403 . S
O506 C501 1.254 . S
O507 Dy492 2.310 . S
O507 Dy495 2.664 . S
O507 C501 1.268 . S
O508 Dy492 2.351 . S
O508 C511 1.249 . S
O509 Dy495 2.326 . S
O509 C511 1.267 . S
C510 O502 1.249 . S
C510 O503 1.267 . S
C511 O508 1.249 . S
C511 O509 1.267 . S
Dy512 O516 2.398 . S
Dy512 O517 2.491 1_455 S
Dy512 O518 2.403 . S
Dy512 O519 2.664 . S
Dy512 O523 2.326 1_455 S
Dy512 O527 2.310 . S
Dy512 O528 2.351 . S
C513 O524 1.185 . S
C513 O525 1.355 . S
C514 O516 1.185 1_655 S
C514 O517 1.355 . S
Dy515 O519 2.310 . S
Dy515 O522 2.351 1_455 S
Dy515 O524 2.398 . S
Dy515 O525 2.491 . S
Dy515 O526 2.403 . S
Dy515 O527 2.664 . S
Dy515 O529 2.326 . S
O516 Dy512 2.398 . S
O516 C514 1.185 1_455 S
O517 Dy512 2.491 1_655 S
O517 C514 1.355 . S
O518 Dy512 2.403 . S
O518 C520 1.254 . S
O519 Dy512 2.664 . S
O519 Dy515 2.310 . S
O519 C520 1.268 . S
C520 O518 1.254 . S
C520 O519 1.268 . S
C521 O526 1.254 . S
C521 O527 1.268 . S
O522 Dy515 2.351 1_655 S
O522 C530 1.249 . S
O523 Dy512 2.326 1_655 S
O523 C530 1.267 . S
O524 C513 1.185 . S
O524 Dy515 2.398 . S
O525 C513 1.355 . S
O525 Dy515 2.491 . S
O526 Dy515 2.403 . S
O526 C521 1.254 . S
O527 Dy512 2.310 . S
O527 Dy515 2.664 . S
O527 C521 1.268 . S
O528 Dy512 2.351 . S
O528 C531 1.249 . S
O529 Dy515 2.326 . S
O529 C531 1.267 . S
C530 O522 1.249 . S
C530 O523 1.267 . S
C531 O528 1.249 . S
C531 O529 1.267 . S
Dy532 O536 2.398 . S
Dy532 O537 2.491 . S
Dy532 O538 2.403 . S
Dy532 O539 2.664 . S
Dy532 O543 2.326 . S
Dy532 O547 2.310 . S
Dy532 O548 2.351 . S
C533 O544 1.185 . S
C533 O545 1.355 . S
C534 O536 1.185 . S
C534 O537 1.355 . S
Dy535 O539 2.310 . S
Dy535 O542 2.351 . S
Dy535 O544 2.398 . S
Dy535 O545 2.491 . S
Dy535 O546 2.403 . S
Dy535 O547 2.664 . S
Dy535 O549 2.326 . S
O536 Dy532 2.398 . S
O536 C534 1.185 . S
O537 Dy532 2.491 . S
O537 C534 1.355 . S
O538 Dy532 2.403 . S
O538 C540 1.254 . S
O539 Dy532 2.664 . S
O539 Dy535 2.310 . S
O539 C540 1.268 . S
C540 O538 1.254 . S
C540 O539 1.268 . S
C541 O546 1.254 . S
C541 O547 1.268 . S
O542 Dy535 2.351 . S
O542 C550 1.249 . S
O543 Dy532 2.326 . S
O543 C550 1.267 . S
O544 C533 1.185 . S
O544 Dy535 2.398 . S
O545 C533 1.355 . S
O545 Dy535 2.491 . S
O546 Dy535 2.403 . S
O546 C541 1.254 . S
O547 Dy532 2.310 . S
O547 Dy535 2.664 . S
O547 C541 1.268 . S
O548 Dy532 2.351 . S
O548 C551 1.249 . S
O549 Dy535 2.326 . S
O549 C551 1.267 . S
C550 O542 1.249 . S
C550 O543 1.267 . S
C551 O548 1.249 . S
C551 O549 1.267 . S
Dy552 O556 2.398 . S
Dy552 O557 2.491 . S
Dy552 O558 2.403 . S
Dy552 O559 2.664 . S
Dy552 O563 2.326 . S
Dy552 O567 2.310 . S
Dy552 O568 2.351 . S
C553 O564 1.185 . S
C553 O565 1.355 . S
C554 O556 1.185 . S
C554 O557 1.355 . S
Dy555 O559 2.310 . S
Dy555 O562 2.351 . S
Dy555 O564 2.398 . S
Dy555 O565 2.491 . S
Dy555 O566 2.403 . S
Dy555 O567 2.664 . S
Dy555 O569 2.326 . S
O556 Dy552 2.398 . S
O556 C554 1.185 . S
O557 Dy552 2.491 . S
O557 C554 1.355 . S
O558 Dy552 2.403 . S
O558 C560 1.254 . S
O559 Dy552 2.664 . S
O559 Dy555 2.310 . S
O559 C560 1.268 . S
C560 O558 1.254 . S
C560 O559 1.268 . S
C561 O566 1.254 . S
C561 O567 1.268 . S
O562 Dy555 2.351 . S
O562 C570 1.249 . S
O563 Dy552 2.326 . S
O563 C570 1.267 . S
O564 C553 1.185 . S
O564 Dy555 2.398 . S
O565 C553 1.355 . S
O565 Dy555 2.491 . S
O566 Dy555 2.403 . S
O566 C561 1.254 . S
O567 Dy552 2.310 . S
O567 Dy555 2.664 . S
O567 C561 1.268 . S
O568 Dy552 2.351 . S
O568 C571 1.249 . S
O569 Dy555 2.326 . S
O569 C571 1.267 . S
C570 O562 1.249 . S
C570 O563 1.267 . S
C571 O568 1.249 . S
C571 O569 1.267 . S
Dy572 O576 2.398 . S
Dy572 O577 2.491 . S
Dy572 O578 2.403 . S
Dy572 O579 2.664 . S
Dy572 O583 2.326 . S
Dy572 O587 2.310 . S
Dy572 O588 2.351 . S
C573 O584 1.185 . S
C573 O585 1.355 . S
C574 O576 1.185 . S
C574 O577 1.355 . S
Dy575 O579 2.310 . S
Dy575 O582 2.351 . S
Dy575 O584 2.398 . S
Dy575 O585 2.491 . S
Dy575 O586 2.403 . S
Dy575 O587 2.664 . S
Dy575 O589 2.326 . S
O576 Dy572 2.398 . S
O576 C574 1.185 . S
O577 Dy572 2.491 . S
O577 C574 1.355 . S
O578 Dy572 2.403 . S
O578 C580 1.254 . S
O579 Dy572 2.664 . S
O579 Dy575 2.310 . S
O579 C580 1.268 . S
C580 O578 1.254 . S
C580 O579 1.268 . S
C581 O586 1.254 . S
C581 O587 1.268 . S
O582 Dy575 2.351 . S
O582 C590 1.249 . S
O583 Dy572 2.326 . S
O583 C590 1.267 . S
O584 C573 1.185 . S
O584 Dy575 2.398 . S
O585 C573 1.355 . S
O585 Dy575 2.491 . S
O586 Dy575 2.403 . S
O586 C581 1.254 . S
O587 Dy572 2.310 . S
O587 Dy575 2.664 . S
O587 C581 1.268 . S
O588 Dy572 2.351 . S
O588 C591 1.249 . S
O589 Dy575 2.326 . S
O589 C591 1.267 . S
C590 O582 1.249 . S
C590 O583 1.267 . S
C591 O588 1.249 . S
C591 O589 1.267 . S
Dy592 O596 2.398 . S
Dy592 O597 2.491 . S
Dy592 O598 2.403 . S
Dy592 O599 2.664 . S
Dy592 O603 2.326 . S
Dy592 O607 2.310 . S
Dy592 O608 2.351 . S
C593 O604 1.185 . S
C593 O605 1.355 . S
C594 O596 1.185 . S
C594 O597 1.355 . S
Dy595 O599 2.310 . S
Dy595 O602 2.351 . S
Dy595 O604 2.398 . S
Dy595 O605 2.491 . S
Dy595 O606 2.403 . S
Dy595 O607 2.664 . S
Dy595 O609 2.326 . S
O596 Dy592 2.398 . S
O596 C594 1.185 . S
O597 Dy592 2.491 . S
O597 C594 1.355 . S
O598 Dy592 2.403 . S
O598 C600 1.254 . S
O599 Dy592 2.664 . S
O599 Dy595 2.310 . S
O599 C600 1.268 . S
C600 O598 1.254 . S
C600 O599 1.268 . S
C601 O606 1.254 . S
C601 O607 1.268 . S
O602 Dy595 2.351 . S
O602 C610 1.249 . S
O603 Dy592 2.326 . S
O603 C610 1.267 . S
O604 C593 1.185 . S
O604 Dy595 2.398 . S
O605 C593 1.355 . S
O605 Dy595 2.491 . S
O606 Dy595 2.403 . S
O606 C601 1.254 . S
O607 Dy592 2.310 . S
O607 Dy595 2.664 . S
O607 C601 1.268 . S
O608 Dy592 2.351 . S
O608 C611 1.249 . S
O609 Dy595 2.326 . S
O609 C611 1.267 . S
C610 O602 1.249 . S
C610 O603 1.267 . S
C611 O608 1.249 . S
C611 O609 1.267 . S
Dy612 O616 2.398 . S
Dy612 O617 2.491 1_556 S
Dy612 O618 2.403 . S
Dy612 O619 2.664 . S
Dy612 O623 2.326 . S
Dy612 O627 2.310 1_556 S
Dy612 O628 2.351 1_556 S
C613 O624 1.185 . S
C613 O625 1.355 . S
C614 O616 1.185 . S
C614 O617 1.355 1_556 S
Dy615 O619 2.310 1_654 S
Dy615 O622 2.351 . S
Dy615 O624 2.398 . S
Dy615 O625 2.491 . S
Dy615 O626 2.403 1_655 S
Dy615 O627 2.664 1_655 S
Dy615 O629 2.326 1_655 S
O616 Dy612 2.398 . S
O616 C614 1.185 . S
O617 Dy612 2.491 1_554 S
O617 C614 1.355 1_554 S
O618 Dy612 2.403 . S
O618 C620 1.254 . S
O619 Dy612 2.664 . S
O619 Dy615 2.310 1_456 S
O619 C620 1.268 . S
C620 O618 1.254 . S
C620 O619 1.268 . S
C621 O626 1.254 . S
C621 O627 1.268 . S
O622 Dy615 2.351 . S
O622 C630 1.249 1_654 S
O623 Dy612 2.326 . S
O623 C630 1.267 . S
O624 C613 1.185 . S
O624 Dy615 2.398 . S
O625 C613 1.355 . S
O625 Dy615 2.491 . S
O626 Dy615 2.403 1_455 S
O626 C621 1.254 . S
O627 Dy612 2.310 1_554 S
O627 Dy615 2.664 1_455 S
O627 C621 1.268 . S
O628 Dy612 2.351 1_554 S
O628 C631 1.249 . S
O629 Dy615 2.326 1_455 S
O629 C631 1.267 . S
C630 O622 1.249 1_456 S
C630 O623 1.267 . S
C631 O628 1.249 . S
C631 O629 1.267 . S
H632 C640 0.950 . S
H633 C645 0.950 . S
H634 C642 0.950 . S
H635 C644 0.950 . S
H636 C646 0.950 . S
H637 C648 0.950 . S
H638 C650 0.950 . S
H639 C651 0.950 . S
C640 H632 0.950 . S
C640 C641 1.386 1_455 S
C640 C642 1.391 . S
C641 C640 1.386 1_655 S
C641 C645 1.393 . S
C642 H634 0.950 . S
C642 C640 1.391 . S
C642 C643 1.400 . S
C643 C642 1.400 . S
C643 C644 1.398 1_455 S
C643 C649 1.491 . S
C644 H635 0.950 . S
C644 C643 1.398 1_655 S
C644 C645 1.391 . S
C645 H633 0.950 . S
C645 C641 1.393 . S
C645 C644 1.391 . S
C646 H636 0.950 . S
C646 C647 1.386 1_655 S
C646 C648 1.391 . S
C647 C646 1.386 1_455 S
C647 C651 1.393 . S
C648 H637 0.950 . S
C648 C646 1.391 . S
C648 C649 1.400 1_655 S
C649 C643 1.491 . S
C649 C648 1.400 1_455 S
C649 C650 1.398 . S
C650 H638 0.950 . S
C650 C649 1.398 . S
C650 C651 1.391 . S
C651 H639 0.950 . S
C651 C647 1.393 . S
C651 C650 1.391 . S
H652 C660 0.950 . S
H653 C665 0.950 . S
H654 C662 0.950 . S
H655 C664 0.950 . S
H656 C666 0.950 . S
H657 C668 0.950 . S
H658 C670 0.950 . S
H659 C671 0.950 . S
C660 H652 0.950 . S
C660 C661 1.386 . S
C660 C662 1.391 . S
C661 C660 1.386 . S
C661 C665 1.393 . S
C662 H654 0.950 . S
C662 C660 1.391 . S
C662 C663 1.400 . S
C663 C662 1.400 . S
C663 C664 1.398 . S
C663 C669 1.491 . S
C664 H655 0.950 . S
C664 C663 1.398 . S
C664 C665 1.391 . S
C665 H653 0.950 . S
C665 C661 1.393 . S
C665 C664 1.391 . S
C666 H656 0.950 . S
C666 C667 1.386 . S
C666 C668 1.391 . S
C667 C666 1.386 . S
C667 C671 1.393 . S
C668 H657 0.950 . S
C668 C666 1.391 . S
C668 C669 1.400 . S
C669 C663 1.491 . S
C669 C668 1.400 . S
C669 C670 1.398 . S
C670 H658 0.950 . S
C670 C669 1.398 . S
C670 C671 1.391 . S
C671 H659 0.950 . S
C671 C667 1.393 . S
C671 C670 1.391 . S
H672 C680 0.950 . S
H673 C685 0.950 . S
H674 C682 0.950 . S
H675 C684 0.950 . S
H676 C686 0.950 . S
H677 C688 0.950 . S
H678 C690 0.950 . S
H679 C691 0.950 . S
C680 H672 0.950 . S
C680 C681 1.386 . S
C680 C682 1.391 . S
C681 C680 1.386 . S
C681 C685 1.393 . S
C682 H674 0.950 . S
C682 C680 1.391 . S
C682 C683 1.400 . S
C683 C682 1.400 . S
C683 C684 1.398 . S
C683 C689 1.491 . S
C684 H675 0.950 . S
C684 C683 1.398 . S
C684 C685 1.391 . S
C685 H673 0.950 . S
C685 C681 1.393 . S
C685 C684 1.391 . S
C686 H676 0.950 . S
C686 C687 1.386 . S
C686 C688 1.391 . S
C687 C686 1.386 . S
C687 C691 1.393 . S
C688 H677 0.950 . S
C688 C686 1.391 . S
C688 C689 1.400 . S
C689 C683 1.491 . S
C689 C688 1.400 . S
C689 C690 1.398 . S
C690 H678 0.950 . S
C690 C689 1.398 . S
C690 C691 1.391 . S
C691 H679 0.950 . S
C691 C687 1.393 . S
C691 C690 1.391 . S
H692 C700 0.950 . S
H693 C705 0.950 . S
H694 C702 0.950 . S
H695 C704 0.950 . S
H696 C706 0.950 . S
H697 C708 0.950 . S
H698 C710 0.950 . S
H699 C711 0.950 . S
C700 H692 0.950 . S
C700 C701 1.386 . S
C700 C702 1.391 . S
C701 C700 1.386 . S
C701 C705 1.393 . S
C702 H694 0.950 . S
C702 C700 1.391 . S
C702 C703 1.400 . S
C703 C702 1.400 . S
C703 C704 1.398 . S
C703 C709 1.491 . S
C704 H695 0.950 . S
C704 C703 1.398 . S
C704 C705 1.391 . S
C705 H693 0.950 . S
C705 C701 1.393 . S
C705 C704 1.391 . S
C706 H696 0.950 . S
C706 C707 1.386 . S
C706 C708 1.391 . S
C707 C706 1.386 . S
C707 C711 1.393 . S
C708 H697 0.950 . S
C708 C706 1.391 . S
C708 C709 1.400 . S
C709 C703 1.491 . S
C709 C708 1.400 . S
C709 C710 1.398 . S
C710 H698 0.950 . S
C710 C709 1.398 . S
C710 C711 1.391 . S
C711 H699 0.950 . S
C711 C707 1.393 . S
C711 C710 1.391 . S
H712 C720 0.950 . S
H713 C725 0.950 . S
H714 C722 0.950 . S
H715 C724 0.950 . S
H716 C726 0.950 . S
H717 C728 0.950 . S
H718 C730 0.952 . S
H719 C731 0.950 1_655 S
C720 H712 0.950 . S
C720 C721 1.386 1_655 S
C720 C722 1.391 . S
C721 C720 1.386 1_455 S
C721 C725 1.393 . S
C722 H714 0.950 . S
C722 C720 1.391 . S
C722 C723 1.400 1_655 S
C723 C722 1.400 1_455 S
C723 C724 1.398 . S
C723 C729 1.491 . S
C724 H715 0.950 . S
C724 C723 1.398 . S
C724 C725 1.391 . S
C725 H713 0.950 . S
C725 C721 1.393 . S
C725 C724 1.391 . S
C726 H716 0.950 . S
C726 C727 1.386 . S
C726 C728 1.391 . S
C727 C726 1.386 . S
C727 C731 1.393 . S
C728 H717 0.950 . S
C728 C726 1.391 . S
C728 C729 1.400 . S
C729 C723 1.491 . S
C729 C728 1.400 . S
C729 C730 1.396 1_455 S
C730 H718 0.952 . S
C730 C729 1.396 1_655 S
C730 C731 1.391 1_655 S
C731 H719 0.950 1_455 S
C731 C727 1.393 . S
C731 C730 1.391 1_455 S
H732 C740 0.950 . S
H733 C745 0.950 . S
H734 C742 0.950 . S
H735 C744 0.950 . S
H736 C746 0.950 . S
H737 C748 0.950 . S
H738 C750 0.950 . S
H739 C751 0.950 . S
C740 H732 0.950 . S
C740 C741 1.386 . S
C740 C742 1.391 . S
C741 C740 1.386 . S
C741 C745 1.393 . S
C742 H734 0.950 . S
C742 C740 1.391 . S
C742 C743 1.400 . S
C743 C742 1.400 . S
C743 C744 1.398 . S
C743 C749 1.491 . S
C744 H735 0.950 . S
C744 C743 1.398 . S
C744 C745 1.391 . S
C745 H733 0.950 . S
C745 C741 1.393 . S
C745 C744 1.391 . S
C746 H736 0.950 . S
C746 C747 1.386 . S
C746 C748 1.391 . S
C747 C746 1.386 . S
C747 C751 1.393 . S
C748 H737 0.950 . S
C748 C746 1.391 . S
C748 C749 1.400 . S
C749 C743 1.491 . S
C749 C748 1.400 . S
C749 C750 1.398 . S
C750 H738 0.950 . S
C750 C749 1.398 . S
C750 C751 1.391 . S
C751 H739 0.950 . S
C751 C747 1.393 . S
C751 C750 1.391 . S
H752 C760 0.950 . S
H753 C765 0.950 . S
H754 C762 0.950 . S
H755 C764 0.950 . S
H756 C766 0.950 . S
H757 C768 0.950 . S
H758 C770 0.950 . S
H759 C771 0.950 . S
C760 H752 0.950 . S
C760 C761 1.386 . S
C760 C762 1.391 . S
C761 C760 1.386 . S
C761 C765 1.393 . S
C762 H754 0.950 . S
C762 C760 1.391 . S
C762 C763 1.400 . S
C763 C762 1.400 . S
C763 C764 1.398 . S
C763 C769 1.491 . S
C764 H755 0.950 . S
C764 C763 1.398 . S
C764 C765 1.391 . S
C765 H753 0.950 . S
C765 C761 1.393 . S
C765 C764 1.391 . S
C766 H756 0.950 . S
C766 C767 1.386 . S
C766 C768 1.391 . S
C767 C766 1.386 . S
C767 C771 1.393 . S
C768 H757 0.950 . S
C768 C766 1.391 . S
C768 C769 1.400 . S
C769 C763 1.491 . S
C769 C768 1.400 . S
C769 C770 1.398 . S
C770 H758 0.950 . S
C770 C769 1.398 . S
C770 C771 1.391 . S
C771 H759 0.950 . S
C771 C767 1.393 . S
C771 C770 1.391 . S
H772 C780 0.950 . S
H773 C785 0.950 . S
H774 C782 0.950 . S
H775 C784 0.950 . S
H776 C786 0.950 . S
H777 C788 0.950 . S
H778 C790 0.950 . S
H779 C791 0.950 . S
C780 H772 0.950 . S
C780 C781 1.386 . S
C780 C782 1.391 . S
C781 C780 1.386 . S
C781 C785 1.393 . S
C782 H774 0.950 . S
C782 C780 1.391 . S
C782 C783 1.400 . S
C783 C782 1.400 . S
C783 C784 1.398 . S
C783 C789 1.491 . S
C784 H775 0.950 . S
C784 C783 1.398 . S
C784 C785 1.391 . S
C785 H773 0.950 . S
C785 C781 1.393 . S
C785 C784 1.391 . S
C786 H776 0.950 . S
C786 C787 1.386 . S
C786 C788 1.391 . S
C787 C786 1.386 . S
C787 C791 1.393 . S
C788 H777 0.950 . S
C788 C786 1.391 . S
C788 C789 1.400 . S
C789 C783 1.491 . S
C789 C788 1.400 . S
C789 C790 1.398 . S
C790 H778 0.950 . S
C790 C789 1.398 . S
C790 C791 1.391 . S
C791 H779 0.950 . S
C791 C787 1.393 . S
C791 C790 1.391 . S
H792 C800 0.950 . S
H793 C805 0.950 . S
H794 C802 0.950 . S
H795 C804 0.950 . S
H796 C806 0.950 . S
H797 C808 0.950 . S
H798 C810 0.950 1_455 S
H799 C811 0.950 . S
C800 H792 0.950 . S
C800 C801 1.386 . S
C800 C802 1.391 . S
C801 C800 1.386 . S
C801 C805 1.393 . S
C802 H794 0.950 . S
C802 C800 1.391 . S
C802 C803 1.400 . S
C803 C802 1.400 . S
C803 C804 1.398 . S
C803 C809 1.491 . S
C804 H795 0.950 . S
C804 C803 1.398 . S
C804 C805 1.391 . S
C805 H793 0.950 . S
C805 C801 1.393 . S
C805 C804 1.391 . S
C806 H796 0.950 . S
C806 C807 1.386 . S
C806 C808 1.391 . S
C807 C806 1.386 . S
C807 C811 1.393 1_655 S
C808 H797 0.950 . S
C808 C806 1.391 . S
C808 C809 1.400 . S
C809 C803 1.491 . S
C809 C808 1.400 . S
C809 C810 1.398 . S
C810 H798 0.950 1_655 S
C810 C809 1.398 . S
C810 C811 1.391 1_655 S
C811 H799 0.950 . S
C811 C807 1.393 1_455 S
C811 C810 1.391 1_455 S
H812 C820 0.950 . S
H813 C825 0.950 . S
H814 C822 0.950 . S
H815 C824 0.950 . S
H816 C826 0.950 . S
H817 C828 0.950 . S
H818 C830 0.950 . S
H819 C831 0.950 . S
C820 H812 0.950 . S
C820 C821 1.386 . S
C820 C822 1.391 . S
C821 C820 1.386 . S
C821 C825 1.393 . S
C822 H814 0.950 . S
C822 C820 1.391 . S
C822 C823 1.400 . S
C823 C822 1.400 . S
C823 C824 1.398 . S
C823 C829 1.491 . S
C824 H815 0.950 . S
C824 C823 1.398 . S
C824 C825 1.391 . S
C825 H813 0.950 . S
C825 C821 1.393 . S
C825 C824 1.391 . S
C826 H816 0.950 . S
C826 C827 1.386 . S
C826 C828 1.391 . S
C827 C826 1.386 . S
C827 C831 1.393 . S
C828 H817 0.950 . S
C828 C826 1.391 . S
C828 C829 1.400 . S
C829 C823 1.491 . S
C829 C828 1.400 . S
C829 C830 1.398 . S
C830 H818 0.950 . S
C830 C829 1.398 . S
C830 C831 1.391 . S
C831 H819 0.950 . S
C831 C827 1.393 . S
C831 C830 1.391 . S
H832 C840 0.950 . S
H833 C845 0.950 . S
H834 C842 0.950 . S
H835 C844 0.950 . S
H836 C846 0.950 . S
H837 C848 0.950 . S
H838 C850 0.950 . S
H839 C851 0.950 . S
C840 H832 0.950 . S
C840 C841 1.386 . S
C840 C842 1.391 . S
C841 C840 1.386 . S
C841 C845 1.393 1_545 S
C842 H834 0.950 . S
C842 C840 1.391 . S
C842 C843 1.400 . S
C843 C842 1.400 . S
C843 C844 1.398 1_545 S
C843 C849 1.491 . S
C844 H835 0.950 . S
C844 C843 1.398 1_565 S
C844 C845 1.391 . S
C845 H833 0.950 . S
C845 C841 1.393 1_565 S
C845 C844 1.391 . S
C846 H836 0.950 . S
C846 C847 1.386 1_565 S
C846 C848 1.391 . S
C847 C846 1.386 1_545 S
C847 C851 1.393 . S
C848 H837 0.950 . S
C848 C846 1.391 . S
C848 C849 1.400 1_565 S
C849 C843 1.491 . S
C849 C848 1.400 1_545 S
C849 C850 1.398 . S
C850 H838 0.950 . S
C850 C849 1.398 . S
C850 C851 1.391 . S
C851 H839 0.950 . S
C851 C847 1.393 . S
C851 C850 1.391 . S
H852 C860 0.950 . S
H853 C865 0.950 . S
H854 C862 0.950 . S
H855 C864 0.950 . S
H856 C866 0.950 . S
H857 C868 0.950 . S
H858 C870 0.950 . S
H859 C871 0.950 . S
C860 H852 0.950 . S
C860 C861 1.386 . S
C860 C862 1.391 . S
C861 C860 1.386 . S
C861 C865 1.393 . S
C862 H854 0.950 . S
C862 C860 1.391 . S
C862 C863 1.400 . S
C863 C862 1.400 . S
C863 C864 1.398 . S
C863 C869 1.491 . S
C864 H855 0.950 . S
C864 C863 1.398 . S
C864 C865 1.391 . S
C865 H853 0.950 . S
C865 C861 1.393 . S
C865 C864 1.391 . S
C866 H856 0.950 . S
C866 C867 1.386 . S
C866 C868 1.391 . S
C867 C866 1.386 . S
C867 C871 1.393 . S
C868 H857 0.950 . S
C868 C866 1.391 . S
C868 C869 1.400 . S
C869 C863 1.491 . S
C869 C868 1.400 . S
C869 C870 1.398 . S
C870 H858 0.950 . S
C870 C869 1.398 . S
C870 C871 1.391 . S
C871 H859 0.950 . S
C871 C867 1.393 . S
C871 C870 1.391 . S
H872 C880 0.950 . S
H873 C885 0.950 . S
H874 C882 0.950 . S
H875 C884 0.950 . S
H876 C886 0.950 1_455 S
H877 C888 0.950 . S
H878 C890 0.950 . S
H879 C891 0.950 1_565 S
C880 H872 0.950 . S
C880 C881 1.386 . S
C880 C882 1.391 . S
C881 C880 1.386 . S
C881 C885 1.393 . S
C882 H874 0.950 . S
C882 C880 1.391 . S
C882 C883 1.400 . S
C883 C882 1.400 . S
C883 C884 1.398 . S
C883 C889 1.491 . S
C884 H875 0.950 . S
C884 C883 1.398 . S
C884 C885 1.391 . S
C885 H873 0.950 . S
C885 C881 1.393 . S
C885 C884 1.391 . S
C886 H876 0.950 1_655 S
C886 C887 1.386 . S
C886 C888 1.391 . S
C887 C886 1.386 . S
C887 C891 1.393 . S
C888 H877 0.950 . S
C888 C886 1.391 . S
C888 C889 1.400 . S
C889 C883 1.491 . S
C889 C888 1.400 . S
C889 C890 1.398 . S
C890 H878 0.950 . S
C890 C889 1.398 . S
C890 C891 1.391 . S
C891 H879 0.950 1_545 S
C891 C887 1.393 . S
C891 C890 1.391 . S
H892 C900 0.950 . S
H893 C905 0.950 . S
H894 C902 0.950 . S
H895 C904 0.950 . S
H896 C906 0.950 . S
H897 C908 0.950 . S
H898 C910 0.950 . S
H899 C911 0.950 . S
C900 H892 0.950 . S
C900 C901 1.386 . S
C900 C902 1.391 . S
C901 C900 1.386 . S
C901 C905 1.393 . S
C902 H894 0.950 . S
C902 C900 1.391 . S
C902 C903 1.400 . S
C903 C902 1.400 . S
C903 C904 1.398 . S
C903 C909 1.491 . S
C904 H895 0.950 . S
C904 C903 1.398 . S
C904 C905 1.391 . S
C905 H893 0.950 . S
C905 C901 1.393 . S
C905 C904 1.391 . S
C906 H896 0.950 . S
C906 C907 1.386 . S
C906 C908 1.391 . S
C907 C906 1.386 . S
C907 C911 1.393 . S
C908 H897 0.950 . S
C908 C906 1.391 . S
C908 C909 1.400 . S
C909 C903 1.491 . S
C909 C908 1.400 . S
C909 C910 1.398 . S
C910 H898 0.950 . S
C910 C909 1.398 . S
C910 C911 1.391 . S
C911 H899 0.950 . S
C911 C907 1.393 . S
C911 C910 1.391 . S
H912 C920 0.933 1_565 S
H913 C925 0.950 . S
H914 C922 0.950 . S
H915 C924 0.950 . S
H916 C926 0.950 . S
H917 C928 0.950 . S
H918 C930 0.950 . S
H919 C931 0.950 . S
C920 H912 0.933 1_545 S
C920 C921 1.386 . S
C920 C922 1.391 . S
C921 C920 1.386 . S
C921 C925 1.393 . S
C922 H914 0.950 . S
C922 C920 1.391 . S
C922 C923 1.400 . S
C923 C922 1.400 . S
C923 C924 1.398 . S
C923 C929 1.491 . S
C924 H915 0.950 . S
C924 C923 1.398 . S
C924 C925 1.391 . S
C925 H913 0.950 . S
C925 C921 1.393 . S
C925 C924 1.391 . S
C926 H916 0.950 . S
C926 C927 1.386 . S
C926 C928 1.391 . S
C927 C926 1.386 . S
C927 C931 1.393 . S
C928 H917 0.950 . S
C928 C926 1.391 . S
C928 C929 1.400 . S
C929 C923 1.491 . S
C929 C928 1.400 . S
C929 C930 1.398 . S
C930 H918 0.950 . S
C930 C929 1.398 . S
C930 C931 1.391 . S
C931 H919 0.950 . S
C931 C927 1.393 . S
C931 C930 1.391 . S
H932 C940 0.950 . S
H933 C945 0.950 . S
H934 C942 0.950 . S
H935 C944 0.950 . S
H936 C946 0.950 . S
H937 C948 0.950 . S
H938 C950 0.950 . S
H939 C951 0.950 . S
C940 H932 0.950 . S
C940 C941 1.386 . S
C940 C942 1.391 . S
C941 C940 1.386 . S
C941 C945 1.393 . S
C942 H934 0.950 . S
C942 C940 1.391 . S
C942 C943 1.400 . S
C943 C942 1.400 . S
C943 C944 1.398 . S
C943 C949 1.491 . S
C944 H935 0.950 . S
C944 C943 1.398 . S
C944 C945 1.391 . S
C945 H933 0.950 . S
C945 C941 1.393 . S
C945 C944 1.391 . S
C946 H936 0.950 . S
C946 C947 1.386 . S
C946 C948 1.391 . S
C947 C946 1.386 . S
C947 C951 1.393 . S
C948 H937 0.950 . S
C948 C946 1.391 . S
C948 C949 1.400 . S
C949 C943 1.491 . S
C949 C948 1.400 . S
C949 C950 1.398 . S
C950 H938 0.950 . S
C950 C949 1.398 . S
C950 C951 1.391 . S
C951 H939 0.950 . S
C951 C947 1.393 . S
C951 C950 1.391 . S
H952 C960 0.950 . S
H953 C965 0.950 . S
H954 C962 0.950 . S
H955 C964 0.950 . S
H956 C966 0.950 . S
H957 C968 0.950 . S
H958 C970 0.950 1_545 S
H959 C971 0.950 . S
C960 H952 0.950 . S
C960 C961 1.386 . S
C960 C962 1.391 . S
C961 C960 1.386 . S
C961 C965 1.393 . S
C962 H954 0.950 . S
C962 C960 1.391 . S
C962 C963 1.400 . S
C963 C962 1.400 . S
C963 C964 1.398 . S
C963 C969 1.491 . S
C964 H955 0.950 . S
C964 C963 1.398 . S
C964 C965 1.391 . S
C965 H953 0.950 . S
C965 C961 1.393 . S
C965 C964 1.391 . S
C966 H956 0.950 . S
C966 C967 1.386 . S
C966 C968 1.391 . S
C967 C966 1.386 . S
C967 C971 1.393 1_565 S
C968 H957 0.950 . S
C968 C966 1.391 . S
C968 C969 1.400 . S
C969 C963 1.491 . S
C969 C968 1.400 . S
C969 C970 1.398 . S
C970 H958 0.950 1_565 S
C970 C969 1.398 . S
C970 C971 1.391 1_565 S
C971 H959 0.950 . S
C971 C967 1.393 1_545 S
C971 C970 1.391 1_545 S
H972 C980 0.950 . S
H973 C985 0.950 . S
H974 C982 0.950 . S
H975 C984 0.950 . S
H976 C986 0.950 . S
H977 C988 0.950 . S
H978 C990 0.950 . S
H979 C991 0.950 . S
C980 H972 0.950 . S
C980 C981 1.386 . S
C980 C982 1.391 . S
C981 C980 1.386 . S
C981 C985 1.393 1_554 S
C982 H974 0.950 . S
C982 C980 1.391 . S
C982 C983 1.400 . S
C983 C982 1.400 . S
C983 C984 1.398 1_554 S
C983 C989 1.491 . S
C984 H975 0.950 . S
C984 C983 1.398 1_556 S
C984 C985 1.391 . S
C985 H973 0.950 . S
C985 C981 1.393 1_556 S
C985 C984 1.391 . S
C986 H976 0.950 . S
C986 C987 1.386 1_556 S
C986 C988 1.391 . S
C987 C986 1.386 1_554 S
C987 C991 1.393 . S
C988 H977 0.950 . S
C988 C986 1.391 . S
C988 C989 1.400 1_556 S
C989 C983 1.491 . S
C989 C988 1.400 1_554 S
C989 C990 1.398 . S
C990 H978 0.950 . S
C990 C989 1.398 . S
C990 C991 1.391 . S
C991 H979 0.950 . S
C991 C987 1.393 . S
C991 C990 1.391 . S
H992 C1000 0.950 . S
H993 C1005 0.950 . S
H994 C1002 0.950 . S
H995 C1004 0.950 . S
H996 C1006 0.950 . S
H997 C1008 0.950 . S
H998 C1010 0.950 . S
H999 C1011 0.950 . S
C1000 H992 0.950 . S
C1000 C1001 1.386 . S
C1000 C1002 1.391 . S
C1001 C1000 1.386 . S
C1001 C1005 1.393 . S
C1002 H994 0.950 . S
C1002 C1000 1.391 . S
C1002 C1003 1.400 . S
C1003 C1002 1.400 . S
C1003 C1004 1.398 . S
C1003 C1009 1.491 . S
C1004 H995 0.950 . S
C1004 C1003 1.398 . S
C1004 C1005 1.391 . S
C1005 H993 0.950 . S
C1005 C1001 1.393 . S
C1005 C1004 1.391 . S
C1006 H996 0.950 . S
C1006 C1007 1.386 . S
C1006 C1008 1.391 . S
C1007 C1006 1.386 . S
C1007 C1011 1.393 . S
C1008 H997 0.950 . S
C1008 C1006 1.391 . S
C1008 C1009 1.400 . S
C1009 C1003 1.491 . S
C1009 C1008 1.400 . S
C1009 C1010 1.398 . S
C1010 H998 0.950 . S
C1010 C1009 1.398 . S
C1010 C1011 1.391 . S
C1011 H999 0.950 . S
C1011 C1007 1.393 . S
C1011 C1010 1.391 . S
H1012 C1020 0.950 . S
H1013 C1025 0.950 . S
H1014 C1022 0.950 . S
H1015 C1024 0.950 . S
H1016 C1026 0.950 . S
H1017 C1028 0.950 . S
H1018 C1030 0.950 . S
H1019 C1031 0.950 . S
C1020 H1012 0.950 . S
C1020 C1021 1.386 . S
C1020 C1022 1.391 . S
C1021 C1020 1.386 . S
C1021 C1025 1.393 . S
C1022 H1014 0.950 . S
C1022 C1020 1.391 . S
C1022 C1023 1.400 . S
C1023 C1022 1.400 . S
C1023 C1024 1.398 . S
C1023 C1029 1.491 . S
C1024 H1015 0.950 . S
C1024 C1023 1.398 . S
C1024 C1025 1.391 . S
C1025 H1013 0.950 . S
C1025 C1021 1.393 . S
C1025 C1024 1.391 . S
C1026 H1016 0.950 . S
C1026 C1027 1.386 . S
C1026 C1028 1.391 . S
C1027 C1026 1.386 . S
C1027 C1031 1.393 . S
C1028 H1017 0.950 . S
C1028 C1026 1.391 . S
C1028 C1029 1.400 . S
C1029 C1023 1.491 . S
C1029 C1028 1.400 . S
C1029 C1030 1.398 . S
C1030 H1018 0.950 . S
C1030 C1029 1.398 . S
C1030 C1031 1.391 . S
C1031 H1019 0.950 . S
C1031 C1027 1.393 . S
C1031 C1030 1.391 . S
H1032 C1040 0.950 . S
H1033 C1045 0.950 . S
H1034 C1042 0.950 . S
H1035 C1044 0.950 . S
H1036 C1046 0.950 . S
H1037 C1048 0.950 . S
H1038 C1050 0.950 . S
H1039 C1051 0.950 . S
C1040 H1032 0.950 . S
C1040 C1041 1.386 . S
C1040 C1042 1.391 . S
C1041 C1040 1.386 . S
C1041 C1045 1.393 . S
C1042 H1034 0.950 . S
C1042 C1040 1.391 . S
C1042 C1043 1.400 . S
C1043 C1042 1.400 . S
C1043 C1044 1.398 . S
C1043 C1049 1.491 . S
C1044 H1035 0.950 . S
C1044 C1043 1.398 . S
C1044 C1045 1.391 . S
C1045 H1033 0.950 . S
C1045 C1041 1.393 . S
C1045 C1044 1.391 . S
C1046 H1036 0.950 . S
C1046 C1047 1.386 . S
C1046 C1048 1.391 . S
C1047 C1046 1.386 . S
C1047 C1051 1.393 . S
C1048 H1037 0.950 . S
C1048 C1046 1.391 . S
C1048 C1049 1.400 . S
C1049 C1043 1.491 . S
C1049 C1048 1.400 . S
C1049 C1050 1.398 . S
C1050 H1038 0.950 . S
C1050 C1049 1.398 . S
C1050 C1051 1.391 . S
C1051 H1039 0.950 . S
C1051 C1047 1.393 . S
C1051 C1050 1.391 . S
H1052 C1060 0.950 . S
H1053 C1065 0.950 . S
H1054 C1062 0.950 . S
H1055 C1064 0.950 . S
H1056 C1066 0.950 . S
H1057 C1068 0.950 . S
H1058 C1070 0.950 . S
H1059 C1071 0.950 . S
C1060 H1052 0.950 . S
C1060 C1061 1.386 . S
C1060 C1062 1.391 . S
C1061 C1060 1.386 . S
C1061 C1065 1.393 . S
C1062 H1054 0.950 . S
C1062 C1060 1.391 . S
C1062 C1063 1.400 . S
C1063 C1062 1.400 . S
C1063 C1064 1.398 . S
C1063 C1069 1.491 . S
C1064 H1055 0.950 . S
C1064 C1063 1.398 . S
C1064 C1065 1.391 . S
C1065 H1053 0.950 . S
C1065 C1061 1.393 . S
C1065 C1064 1.391 . S
C1066 H1056 0.950 . S
C1066 C1067 1.386 . S
C1066 C1068 1.391 . S
C1067 C1066 1.386 . S
C1067 C1071 1.393 . S
C1068 H1057 0.950 . S
C1068 C1066 1.391 . S
C1068 C1069 1.400 . S
C1069 C1063 1.491 . S
C1069 C1068 1.400 . S
C1069 C1070 1.398 . S
C1070 H1058 0.950 . S
C1070 C1069 1.398 . S
C1070 C1071 1.391 . S
C1071 H1059 0.950 . S
C1071 C1067 1.393 . S
C1071 C1070 1.391 . S
H1072 C1080 0.950 . S
H1073 C1085 0.950 . S
H1074 C1082 0.950 . S
H1075 C1084 0.950 . S
H1076 C1086 0.950 . S
H1077 C1088 0.950 . S
H1078 C1090 0.950 . S
H1079 C1091 0.950 . S
C1080 H1072 0.950 . S
C1080 C1081 1.386 . S
C1080 C1082 1.391 . S
C1081 C1080 1.386 . S
C1081 C1085 1.393 . S
C1082 H1074 0.950 . S
C1082 C1080 1.391 . S
C1082 C1083 1.400 . S
C1083 C1082 1.400 . S
C1083 C1084 1.398 . S
C1083 C1089 1.491 . S
C1084 H1075 0.950 . S
C1084 C1083 1.398 . S
C1084 C1085 1.391 . S
C1085 H1073 0.950 . S
C1085 C1081 1.393 . S
C1085 C1084 1.391 . S
C1086 H1076 0.950 . S
C1086 C1087 1.386 . S
C1086 C1088 1.391 . S
C1087 C1086 1.386 . S
C1087 C1091 1.393 . S
C1088 H1077 0.950 . S
C1088 C1086 1.391 . S
C1088 C1089 1.400 . S
C1089 C1083 1.491 . S
C1089 C1088 1.400 . S
C1089 C1090 1.398 . S
C1090 H1078 0.950 . S
C1090 C1089 1.398 . S
C1090 C1091 1.391 . S
C1091 H1079 0.950 . S
C1091 C1087 1.393 . S
C1091 C1090 1.391 . S
H1092 C1100 0.950 . S
H1093 C1105 0.950 . S
H1094 C1102 0.950 . S
H1095 C1104 0.950 . S
H1096 C1106 0.950 . S
H1097 C1108 0.950 . S
H1098 C1110 0.950 . S
H1099 C1111 0.950 . S
C1100 H1092 0.950 . S
C1100 C1101 1.386 . S
C1100 C1102 1.391 . S
C1101 C1100 1.386 . S
C1101 C1105 1.393 . S
C1102 H1094 0.950 . S
C1102 C1100 1.391 . S
C1102 C1103 1.400 . S
C1103 C1102 1.400 . S
C1103 C1104 1.398 . S
C1103 C1109 1.491 . S
C1104 H1095 0.950 . S
C1104 C1103 1.398 . S
C1104 C1105 1.391 . S
C1105 H1093 0.950 . S
C1105 C1101 1.393 . S
C1105 C1104 1.391 . S
C1106 H1096 0.950 . S
C1106 C1107 1.386 . S
C1106 C1108 1.391 . S
C1107 C1106 1.386 . S
C1107 C1111 1.393 . S
C1108 H1097 0.950 . S
C1108 C1106 1.391 . S
C1108 C1109 1.400 . S
C1109 C1103 1.491 . S
C1109 C1108 1.400 . S
C1109 C1110 1.398 . S
C1110 H1098 0.950 . S
C1110 C1109 1.398 . S
C1110 C1111 1.391 . S
C1111 H1099 0.950 . S
C1111 C1107 1.393 . S
C1111 C1110 1.391 . S
H1112 C1120 0.950 1_655 S
H1113 C1125 0.950 . S
H1114 C1122 0.950 1_655 S
H1115 C1124 0.950 . S
H1116 C1126 0.950 . S
H1117 C1128 0.950 . S
H1118 C1130 0.950 1_655 S
H1119 C1131 0.950 . S
C1120 H1112 0.950 1_455 S
C1120 C1121 1.386 . S
C1120 C1122 1.391 . S
C1121 C1120 1.386 . S
C1121 C1125 1.393 . S
C1122 H1114 0.950 1_455 S
C1122 C1120 1.391 . S
C1122 C1123 1.400 . S
C1123 C1122 1.400 . S
C1123 C1124 1.398 . S
C1123 C1129 1.491 . S
C1124 H1115 0.950 . S
C1124 C1123 1.398 . S
C1124 C1125 1.391 . S
C1125 H1113 0.950 . S
C1125 C1121 1.393 . S
C1125 C1124 1.391 . S
C1126 H1116 0.950 . S
C1126 C1127 1.386 . S
C1126 C1128 1.391 . S
C1127 C1126 1.386 . S
C1127 C1131 1.393 1_455 S
C1128 H1117 0.950 . S
C1128 C1126 1.391 . S
C1128 C1129 1.400 . S
C1129 C1123 1.491 . S
C1129 C1128 1.400 . S
C1129 C1130 1.398 . S
C1130 H1118 0.950 1_455 S
C1130 C1129 1.398 . S
C1130 C1131 1.391 1_455 S
C1131 H1119 0.950 . S
C1131 C1127 1.393 1_655 S
C1131 C1130 1.391 1_655 S
H1132 C1140 0.950 . S
H1133 C1145 0.950 . S
H1134 C1142 0.950 . S
H1135 C1144 0.950 . S
H1136 C1146 0.950 . S
H1137 C1148 0.950 . S
H1138 C1150 0.950 . S
H1139 C1151 0.950 . S
C1140 H1132 0.950 . S
C1140 C1141 1.386 . S
C1140 C1142 1.391 . S
C1141 C1140 1.386 . S
C1141 C1145 1.393 . S
C1142 H1134 0.950 . S
C1142 C1140 1.391 . S
C1142 C1143 1.400 . S
C1143 C1142 1.400 . S
C1143 C1144 1.398 . S
C1143 C1149 1.491 . S
C1144 H1135 0.950 . S
C1144 C1143 1.398 . S
C1144 C1145 1.391 . S
C1145 H1133 0.950 . S
C1145 C1141 1.393 . S
C1145 C1144 1.391 . S
C1146 H1136 0.950 . S
C1146 C1147 1.386 . S
C1146 C1148 1.391 . S
C1147 C1146 1.386 . S
C1147 C1151 1.393 . S
C1148 H1137 0.950 . S
C1148 C1146 1.391 . S
C1148 C1149 1.400 . S
C1149 C1143 1.491 . S
C1149 C1148 1.400 . S
C1149 C1150 1.398 . S
C1150 H1138 0.950 . S
C1150 C1149 1.398 . S
C1150 C1151 1.391 . S
C1151 H1139 0.950 . S
C1151 C1147 1.393 . S
C1151 C1150 1.391 . S
H1152 C1160 0.950 . S
H1153 C1165 0.950 . S
H1154 C1162 0.950 . S
H1155 C1164 0.950 . S
H1156 C1166 0.950 . S
H1157 C1168 0.950 . S
H1158 C1170 0.950 . S
H1159 C1171 0.950 . S
C1160 H1152 0.950 . S
C1160 C1161 1.386 . S
C1160 C1162 1.391 . S
C1161 C1160 1.386 . S
C1161 C1165 1.393 . S
C1162 H1154 0.950 . S
C1162 C1160 1.391 . S
C1162 C1163 1.400 . S
C1163 C1162 1.400 . S
C1163 C1164 1.398 . S
C1163 C1169 1.491 . S
C1164 H1155 0.950 . S
C1164 C1163 1.398 . S
C1164 C1165 1.391 . S
C1165 H1153 0.950 . S
C1165 C1161 1.393 . S
C1165 C1164 1.391 . S
C1166 H1156 0.950 . S
C1166 C1167 1.386 . S
C1166 C1168 1.391 . S
C1167 C1166 1.386 . S
C1167 C1171 1.393 . S
C1168 H1157 0.950 . S
C1168 C1166 1.391 . S
C1168 C1169 1.400 . S
C1169 C1163 1.491 . S
C1169 C1168 1.400 . S
C1169 C1170 1.398 . S
C1170 H1158 0.950 . S
C1170 C1169 1.398 . S
C1170 C1171 1.391 . S
C1171 H1159 0.950 . S
C1171 C1167 1.393 . S
C1171 C1170 1.391 . S
H1172 C1180 0.950 . S
H1173 C1185 0.950 . S
H1174 C1182 0.950 . S
H1175 C1184 0.950 . S
H1176 C1186 0.950 . S
H1177 C1188 0.950 . S
H1178 C1190 0.950 . S
H1179 C1191 0.950 . S
C1180 H1172 0.950 . S
C1180 C1181 1.386 . S
C1180 C1182 1.391 . S
C1181 C1180 1.386 . S
C1181 C1185 1.393 . S
C1182 H1174 0.950 . S
C1182 C1180 1.391 . S
C1182 C1183 1.400 . S
C1183 C1182 1.400 . S
C1183 C1184 1.398 . S
C1183 C1189 1.491 . S
C1184 H1175 0.950 . S
C1184 C1183 1.398 . S
C1184 C1185 1.391 . S
C1185 H1173 0.950 . S
C1185 C1181 1.393 . S
C1185 C1184 1.391 . S
C1186 H1176 0.950 . S
C1186 C1187 1.386 . S
C1186 C1188 1.391 . S
C1187 C1186 1.386 . S
C1187 C1191 1.393 . S
C1188 H1177 0.950 . S
C1188 C1186 1.391 . S
C1188 C1189 1.400 . S
C1189 C1183 1.491 . S
C1189 C1188 1.400 . S
C1189 C1190 1.398 . S
C1190 H1178 0.950 . S
C1190 C1189 1.398 . S
C1190 C1191 1.391 . S
C1191 H1179 0.950 . S
C1191 C1187 1.393 . S
C1191 C1190 1.391 . S
H1192 C1200 0.950 . S
H1193 C1205 0.950 . S
H1194 C1202 0.950 . S
H1195 C1204 0.950 . S
H1196 C1206 0.950 . S
H1197 C1208 0.950 . S
H1198 C1210 0.950 . S
H1199 C1211 0.950 . S
C1200 H1192 0.950 . S
C1200 C1201 1.386 . S
C1200 C1202 1.391 . S
C1201 C1200 1.386 . S
C1201 C1205 1.393 1_455 S
C1202 H1194 0.950 . S
C1202 C1200 1.391 . S
C1202 C1203 1.400 . S
C1203 C1202 1.400 . S
C1203 C1204 1.398 1_455 S
C1203 C1209 1.491 . S
C1204 H1195 0.950 . S
C1204 C1203 1.398 1_655 S
C1204 C1205 1.391 . S
C1205 H1193 0.950 . S
C1205 C1201 1.393 1_655 S
C1205 C1204 1.391 . S
C1206 H1196 0.950 . S
C1206 C1207 1.367 1_655 S
C1206 C1208 1.391 . S
C1207 C1206 1.367 1_455 S
C1207 C1211 1.410 . S
C1208 H1197 0.950 . S
C1208 C1206 1.391 . S
C1208 C1209 1.400 1_655 S
C1209 C1203 1.491 . S
C1209 C1208 1.400 1_455 S
C1209 C1210 1.398 . S
C1210 H1198 0.950 . S
C1210 C1209 1.398 . S
C1210 C1211 1.391 . S
C1211 H1199 0.950 . S
C1211 C1207 1.410 . S
C1211 C1210 1.391 . S
H1212 C1220 0.950 . S
H1213 C1225 0.950 . S
H1214 C1222 0.950 . S
H1215 C1224 0.950 . S
H1216 C1226 0.950 . S
H1217 C1228 0.950 . S
H1218 C1230 0.950 . S
H1219 C1231 0.950 . S
C1220 H1212 0.950 . S
C1220 C1221 1.386 . S
C1220 C1222 1.391 . S
C1221 C1220 1.386 . S
C1221 C1225 1.393 . S
C1222 H1214 0.950 . S
C1222 C1220 1.391 . S
C1222 C1223 1.400 . S
C1223 C1222 1.400 . S
C1223 C1224 1.398 . S
C1223 C1229 1.491 . S
C1224 H1215 0.950 . S
C1224 C1223 1.398 . S
C1224 C1225 1.391 . S
C1225 H1213 0.950 . S
C1225 C1221 1.393 . S
C1225 C1224 1.391 . S
C1226 H1216 0.950 . S
C1226 C1227 1.386 . S
C1226 C1228 1.391 . S
C1227 C1226 1.386 . S
C1227 C1231 1.393 . S
C1228 H1217 0.950 . S
C1228 C1226 1.391 . S
C1228 C1229 1.400 . S
C1229 C1223 1.491 . S
C1229 C1228 1.400 . S
C1229 C1230 1.398 . S
C1230 H1218 0.950 . S
C1230 C1229 1.398 . S
C1230 C1231 1.391 . S
C1231 H1219 0.950 . S
C1231 C1227 1.393 . S
C1231 C1230 1.391 . S
H1232 C1240 0.950 . S
H1233 C1245 0.950 . S
H1234 C1242 0.950 . S
H1235 C1244 0.950 . S
H1236 C1246 0.950 . S
H1237 C1248 0.950 . S
H1238 C1250 0.950 . S
H1239 C1251 0.950 . S
C1240 H1232 0.950 . S
C1240 C1241 1.386 . S
C1240 C1242 1.391 . S
C1241 C1240 1.386 . S
C1241 C1245 1.393 . S
C1242 H1234 0.950 . S
C1242 C1240 1.391 . S
C1242 C1243 1.400 . S
C1243 C1242 1.400 . S
C1243 C1244 1.398 . S
C1243 C1249 1.491 . S
C1244 H1235 0.950 . S
C1244 C1243 1.398 . S
C1244 C1245 1.391 . S
C1245 H1233 0.950 . S
C1245 C1241 1.393 . S
C1245 C1244 1.391 . S
C1246 H1236 0.950 . S
C1246 C1247 1.386 . S
C1246 C1248 1.391 . S
C1247 C1246 1.386 . S
C1247 C1251 1.393 . S
C1248 H1237 0.950 . S
C1248 C1246 1.391 . S
C1248 C1249 1.400 . S
C1249 C1243 1.491 . S
C1249 C1248 1.400 . S
C1249 C1250 1.398 . S
C1250 H1238 0.950 . S
C1250 C1249 1.398 . S
C1250 C1251 1.391 . S
C1251 H1239 0.950 . S
C1251 C1247 1.393 . S
C1251 C1250 1.391 . S
H1252 C1260 0.950 . S
H1253 C1265 0.950 . S
H1254 C1262 0.950 . S
H1255 C1264 0.950 . S
H1256 C1266 0.950 . S
H1257 C1268 0.950 . S
H1258 C1270 0.950 . S
H1259 C1271 0.950 . S
C1260 H1252 0.950 . S
C1260 C1261 1.386 . S
C1260 C1262 1.391 . S
C1261 C1260 1.386 . S
C1261 C1265 1.393 . S
C1262 H1254 0.950 . S
C1262 C1260 1.391 . S
C1262 C1263 1.400 . S
C1263 C1262 1.400 . S
C1263 C1264 1.398 . S
C1263 C1269 1.491 . S
C1264 H1255 0.950 . S
C1264 C1263 1.398 . S
C1264 C1265 1.391 . S
C1265 H1253 0.950 . S
C1265 C1261 1.393 . S
C1265 C1264 1.391 . S
C1266 H1256 0.950 . S
C1266 C1267 1.386 . S
C1266 C1268 1.391 . S
C1267 C1266 1.386 . S
C1267 C1271 1.393 . S
C1268 H1257 0.950 . S
C1268 C1266 1.391 . S
C1268 C1269 1.400 . S
C1269 C1263 1.491 . S
C1269 C1268 1.400 . S
C1269 C1270 1.398 . S
C1270 H1258 0.950 . S
C1270 C1269 1.398 . S
C1270 C1271 1.391 . S
C1271 H1259 0.950 . S
C1271 C1267 1.393 . S
C1271 C1270 1.391 . S
H1272 C1280 0.950 . S
H1273 C1285 0.950 . S
H1274 C1282 0.950 . S
H1275 C1284 0.950 . S
H1276 C1286 0.950 . S
H1277 C1288 0.950 . S
H1278 C1290 0.950 . S
H1279 C1291 0.950 . S
C1280 H1272 0.950 . S
C1280 C1281 1.386 . S
C1280 C1282 1.391 . S
C1281 C1280 1.386 . S
C1281 C1285 1.393 1_565 S
C1282 H1274 0.950 . S
C1282 C1280 1.391 . S
C1282 C1283 1.400 1_565 S
C1283 C1282 1.400 1_545 S
C1283 C1284 1.398 . S
C1283 C1289 1.491 . S
C1284 H1275 0.950 . S
C1284 C1283 1.398 . S
C1284 C1285 1.391 . S
C1285 H1273 0.950 . S
C1285 C1281 1.393 1_545 S
C1285 C1284 1.391 . S
C1286 H1276 0.950 . S
C1286 C1287 1.386 . S
C1286 C1288 1.391 . S
C1287 C1286 1.386 . S
C1287 C1291 1.393 1_545 S
C1288 H1277 0.950 . S
C1288 C1286 1.391 . S
C1288 C1289 1.400 . S
C1289 C1283 1.491 . S
C1289 C1288 1.400 . S
C1289 C1290 1.398 1_545 S
C1290 H1278 0.950 . S
C1290 C1289 1.398 1_565 S
C1290 C1291 1.391 . S
C1291 H1279 0.950 . S
C1291 C1287 1.393 1_565 S
C1291 C1290 1.391 . S
H1292 C1300 0.950 . S
H1293 C1305 0.950 . S
H1294 C1302 0.950 . S
H1295 C1304 0.950 . S
H1296 C1306 0.950 . S
H1297 C1308 0.950 . S
H1298 C1310 0.950 . S
H1299 C1311 0.950 . S
C1300 H1292 0.950 . S
C1300 C1301 1.386 . S
C1300 C1302 1.391 . S
C1301 C1300 1.386 . S
C1301 C1305 1.393 . S
C1302 H1294 0.950 . S
C1302 C1300 1.391 . S
C1302 C1303 1.400 . S
C1303 C1302 1.400 . S
C1303 C1304 1.398 . S
C1303 C1309 1.491 . S
C1304 H1295 0.950 . S
C1304 C1303 1.398 . S
C1304 C1305 1.391 . S
C1305 H1293 0.950 . S
C1305 C1301 1.393 . S
C1305 C1304 1.391 . S
C1306 H1296 0.950 . S
C1306 C1307 1.386 . S
C1306 C1308 1.391 . S
C1307 C1306 1.386 . S
C1307 C1311 1.393 . S
C1308 H1297 0.950 . S
C1308 C1306 1.391 . S
C1308 C1309 1.400 . S
C1309 C1303 1.491 . S
C1309 C1308 1.400 . S
C1309 C1310 1.398 . S
C1310 H1298 0.950 . S
C1310 C1309 1.398 . S
C1310 C1311 1.391 . S
C1311 H1299 0.950 . S
C1311 C1307 1.393 . S
C1311 C1310 1.391 . S
H1312 C1320 0.950 . S
H1313 C1325 0.950 . S
H1314 C1322 0.950 . S
H1315 C1324 0.950 . S
H1316 C1326 0.950 . S
H1317 C1328 0.950 . S
H1318 C1330 0.950 . S
H1319 C1331 0.950 . S
C1320 H1312 0.950 . S
C1320 C1321 1.386 . S
C1320 C1322 1.391 . S
C1321 C1320 1.386 . S
C1321 C1325 1.393 . S
C1322 H1314 0.950 . S
C1322 C1320 1.391 . S
C1322 C1323 1.400 . S
C1323 C1322 1.400 . S
C1323 C1324 1.398 . S
C1323 C1329 1.491 . S
C1324 H1315 0.950 . S
C1324 C1323 1.398 . S
C1324 C1325 1.391 . S
C1325 H1313 0.950 . S
C1325 C1321 1.393 . S
C1325 C1324 1.391 . S
C1326 H1316 0.950 . S
C1326 C1327 1.386 . S
C1326 C1328 1.391 . S
C1327 C1326 1.386 . S
C1327 C1331 1.393 . S
C1328 H1317 0.950 . S
C1328 C1326 1.391 . S
C1328 C1329 1.400 . S
C1329 C1323 1.491 . S
C1329 C1328 1.400 . S
C1329 C1330 1.398 . S
C1330 H1318 0.950 . S
C1330 C1329 1.398 . S
C1330 C1331 1.391 . S
C1331 H1319 0.950 . S
C1331 C1327 1.393 . S
C1331 C1330 1.391 . S
H1332 C1340 0.950 . S
H1333 C1345 0.950 . S
H1334 C1342 0.950 . S
H1335 C1344 0.950 . S
H1336 C1346 0.950 . S
H1337 C1348 0.950 . S
H1338 C1350 0.950 . S
H1339 C1351 0.950 . S
C1340 H1332 0.950 . S
C1340 C1341 1.386 . S
C1340 C1342 1.391 . S
C1341 C1340 1.386 . S
C1341 C1345 1.393 . S
C1342 H1334 0.950 . S
C1342 C1340 1.391 . S
C1342 C1343 1.400 . S
C1343 C1342 1.400 . S
C1343 C1344 1.398 . S
C1343 C1349 1.491 . S
C1344 H1335 0.950 . S
C1344 C1343 1.398 . S
C1344 C1345 1.391 . S
C1345 H1333 0.950 . S
C1345 C1341 1.393 . S
C1345 C1344 1.391 . S
C1346 H1336 0.950 . S
C1346 C1347 1.386 . S
C1346 C1348 1.391 . S
C1347 C1346 1.386 . S
C1347 C1351 1.393 . S
C1348 H1337 0.950 . S
C1348 C1346 1.391 . S
C1348 C1349 1.400 . S
C1349 C1343 1.491 . S
C1349 C1348 1.400 . S
C1349 C1350 1.398 . S
C1350 H1338 0.950 . S
C1350 C1349 1.398 . S
C1350 C1351 1.391 . S
C1351 H1339 0.950 . S
C1351 C1347 1.393 . S
C1351 C1350 1.391 . S
H1352 C1360 0.950 . S
H1353 C1365 0.950 . S
H1354 C1362 0.950 . S
H1355 C1364 0.950 . S
H1356 C1366 0.950 . S
H1357 C1368 0.950 . S
H1358 C1370 0.950 . S
H1359 C1371 0.950 . S
C1360 H1352 0.950 . S
C1360 C1361 1.386 . S
C1360 C1362 1.391 . S
C1361 C1360 1.386 . S
C1361 C1365 1.393 1_565 S
C1362 H1354 0.950 . S
C1362 C1360 1.391 . S
C1362 C1363 1.400 1_565 S
C1363 C1362 1.400 1_545 S
C1363 C1364 1.398 . S
C1363 C1369 1.491 . S
C1364 H1355 0.950 . S
C1364 C1363 1.398 . S
C1364 C1365 1.391 . S
C1365 H1353 0.950 . S
C1365 C1361 1.393 1_545 S
C1365 C1364 1.391 . S
C1366 H1356 0.950 . S
C1366 C1367 1.386 . S
C1366 C1368 1.391 . S
C1367 C1366 1.386 . S
C1367 C1371 1.393 1_545 S
C1368 H1357 0.950 . S
C1368 C1366 1.391 . S
C1368 C1369 1.400 . S
C1369 C1363 1.491 . S
C1369 C1368 1.400 . S
C1369 C1370 1.398 1_545 S
C1370 H1358 0.950 . S
C1370 C1369 1.398 1_565 S
C1370 C1371 1.391 . S
C1371 H1359 0.950 . S
C1371 C1367 1.393 1_565 S
C1371 C1370 1.391 . S
H1372 C1380 0.950 . S
H1373 C1385 0.950 . S
H1374 C1382 0.950 . S
H1375 C1384 0.950 . S
H1376 C1386 0.950 . S
H1377 C1388 0.950 . S
H1378 C1390 0.950 . S
H1379 C1391 0.950 . S
C1380 H1372 0.950 . S
C1380 C1381 1.386 . S
C1380 C1382 1.391 . S
C1381 C1380 1.386 . S
C1381 C1385 1.393 . S
C1382 H1374 0.950 . S
C1382 C1380 1.391 . S
C1382 C1383 1.400 . S
C1383 C1382 1.400 . S
C1383 C1384 1.398 . S
C1383 C1389 1.491 . S
C1384 H1375 0.950 . S
C1384 C1383 1.398 . S
C1384 C1385 1.391 . S
C1385 H1373 0.950 . S
C1385 C1381 1.393 . S
C1385 C1384 1.391 . S
C1386 H1376 0.950 . S
C1386 C1387 1.386 . S
C1386 C1388 1.391 . S
C1387 C1386 1.386 . S
C1387 C1391 1.393 . S
C1388 H1377 0.950 . S
C1388 C1386 1.391 . S
C1388 C1389 1.400 . S
C1389 C1383 1.491 . S
C1389 C1388 1.400 . S
C1389 C1390 1.398 . S
C1390 H1378 0.950 . S
C1390 C1389 1.398 . S
C1390 C1391 1.391 . S
C1391 H1379 0.950 . S
C1391 C1387 1.393 . S
C1391 C1390 1.391 . S
H1392 C1400 0.950 . S
H1393 C1405 0.950 . S
H1394 C1402 0.950 . S
H1395 C1404 0.950 . S
H1396 C1406 0.950 . S
H1397 C1408 0.950 . S
H1398 C1410 0.950 . S
H1399 C1411 0.950 . S
C1400 H1392 0.950 . S
C1400 C1401 1.386 . S
C1400 C1402 1.391 . S
C1401 C1400 1.386 . S
C1401 C1405 1.393 1_545 S
C1402 H1394 0.950 . S
C1402 C1400 1.391 . S
C1402 C1403 1.400 . S
C1403 C1402 1.400 . S
C1403 C1404 1.398 1_545 S
C1403 C1409 1.491 . S
C1404 H1395 0.950 . S
C1404 C1403 1.398 1_565 S
C1404 C1405 1.391 . S
C1405 H1393 0.950 . S
C1405 C1401 1.393 1_565 S
C1405 C1404 1.391 . S
C1406 H1396 0.950 . S
C1406 C1407 1.398 . S
C1406 C1408 1.391 . S
C1407 C1406 1.398 . S
C1407 C1411 1.377 1_565 S
C1408 H1397 0.950 . S
C1408 C1406 1.391 . S
C1408 C1409 1.400 1_565 S
C1409 C1403 1.491 . S
C1409 C1408 1.400 1_545 S
C1409 C1410 1.398 . S
C1410 H1398 0.950 . S
C1410 C1409 1.398 . S
C1410 C1411 1.391 . S
C1411 H1399 0.950 . S
C1411 C1407 1.377 1_545 S
C1411 C1410 1.391 . S
H1412 C1420 0.950 . S
H1413 C1425 0.950 . S
H1414 C1422 0.950 . S
H1415 C1424 0.950 . S
H1416 C1426 0.950 . S
H1417 C1428 0.950 . S
H1418 C1430 0.950 . S
H1419 C1431 0.950 . S
C1420 H1412 0.950 . S
C1420 C1421 1.386 . S
C1420 C1422 1.391 . S
C1421 C1420 1.386 . S
C1421 C1425 1.393 . S
C1422 H1414 0.950 . S
C1422 C1420 1.391 . S
C1422 C1423 1.400 . S
C1423 C1422 1.400 . S
C1423 C1424 1.398 . S
C1423 C1429 1.491 . S
C1424 H1415 0.950 . S
C1424 C1423 1.398 . S
C1424 C1425 1.391 . S
C1425 H1413 0.950 . S
C1425 C1421 1.393 . S
C1425 C1424 1.391 . S
C1426 H1416 0.950 . S
C1426 C1427 1.386 . S
C1426 C1428 1.391 . S
C1427 C1426 1.386 . S
C1427 C1431 1.393 . S
C1428 H1417 0.950 . S
C1428 C1426 1.391 . S
C1428 C1429 1.400 . S
C1429 C1423 1.491 . S
C1429 C1428 1.400 . S
C1429 C1430 1.398 . S
C1430 H1418 0.950 . S
C1430 C1429 1.398 . S
C1430 C1431 1.391 . S
C1431 H1419 0.950 . S
C1431 C1427 1.393 . S
C1431 C1430 1.391 . S
H1432 C1440 0.950 . S
H1433 C1445 0.950 . S
H1434 C1442 0.950 . S
H1435 C1444 0.950 . S
H1436 C1446 0.950 . S
H1437 C1448 0.950 . S
H1438 C1450 0.950 . S
H1439 C1451 0.950 . S
C1440 H1432 0.950 . S
C1440 C1441 1.386 . S
C1440 C1442 1.391 . S
C1441 C1440 1.386 . S
C1441 C1445 1.393 1_556 S
C1442 H1434 0.950 . S
C1442 C1440 1.391 . S
C1442 C1443 1.400 . S
C1443 C1442 1.400 . S
C1443 C1444 1.398 1_556 S
C1443 C1449 1.491 . S
C1444 H1435 0.950 . S
C1444 C1443 1.398 1_554 S
C1444 C1445 1.391 . S
C1445 H1433 0.950 . S
C1445 C1441 1.393 1_554 S
C1445 C1444 1.391 . S
C1446 H1436 0.950 . S
C1446 C1447 1.386 1_554 S
C1446 C1448 1.391 . S
C1447 C1446 1.386 1_556 S
C1447 C1451 1.393 . S
C1448 H1437 0.950 . S
C1448 C1446 1.391 . S
C1448 C1449 1.400 1_554 S
C1449 C1443 1.491 . S
C1449 C1448 1.400 1_556 S
C1449 C1450 1.398 . S
C1450 H1438 0.950 . S
C1450 C1449 1.398 . S
C1450 C1451 1.391 . S
C1451 H1439 0.950 . S
C1451 C1447 1.393 . S
C1451 C1450 1.391 . S
H1452 C1460 0.950 . S
H1453 C1465 0.950 1_556 S
H1454 C1462 0.950 . S
H1455 C1464 0.950 1_556 S
H1456 C1466 0.929 1_556 S
H1457 C1468 0.931 1_556 S
H1458 C1470 0.950 . S
H1459 C1471 0.950 . S
C1460 H1452 0.950 . S
C1460 C1461 1.386 . S
C1460 C1462 1.391 . S
C1461 C1460 1.386 . S
C1461 C1465 1.393 . S
C1462 H1454 0.950 . S
C1462 C1460 1.391 . S
C1462 C1463 1.400 . S
C1463 C1462 1.400 . S
C1463 C1464 1.398 . S
C1463 C1469 1.491 . S
C1464 H1455 0.950 1_554 S
C1464 C1463 1.398 . S
C1464 C1465 1.391 . S
C1465 H1453 0.950 1_554 S
C1465 C1461 1.393 . S
C1465 C1464 1.391 . S
C1466 H1456 0.929 1_554 S
C1466 C1467 1.404 . S
C1466 C1468 1.391 . S
C1467 C1466 1.404 . S
C1467 C1471 1.393 . S
C1468 H1457 0.931 1_554 S
C1468 C1466 1.391 . S
C1468 C1469 1.423 . S
C1469 C1463 1.491 . S
C1469 C1468 1.423 . S
C1469 C1470 1.398 . S
C1470 H1458 0.950 . S
C1470 C1469 1.398 . S
C1470 C1471 1.391 . S
C1471 H1459 0.950 . S
C1471 C1467 1.393 . S
C1471 C1470 1.391 . S
H1472 C1480 0.950 . S
H1473 C1485 0.950 . S
H1474 C1482 0.950 . S
H1475 C1484 0.950 . S
H1476 C1486 0.950 . S
H1477 C1488 0.950 . S
H1478 C1490 0.950 . S
H1479 C1491 0.950 . S
C1480 H1472 0.950 . S
C1480 C1481 1.386 . S
C1480 C1482 1.391 . S
C1481 C1480 1.386 . S
C1481 C1485 1.393 . S
C1482 H1474 0.950 . S
C1482 C1480 1.391 . S
C1482 C1483 1.400 . S
C1483 C1482 1.400 . S
C1483 C1484 1.398 . S
C1483 C1489 1.491 . S
C1484 H1475 0.950 . S
C1484 C1483 1.398 . S
C1484 C1485 1.391 . S
C1485 H1473 0.950 . S
C1485 C1481 1.393 . S
C1485 C1484 1.391 . S
C1486 H1476 0.950 . S
C1486 C1487 1.386 . S
C1486 C1488 1.391 . S
C1487 C1486 1.386 . S
C1487 C1491 1.393 . S
C1488 H1477 0.950 . S
C1488 C1486 1.391 . S
C1488 C1489 1.400 . S
C1489 C1483 1.491 . S
C1489 C1488 1.400 . S
C1489 C1490 1.398 . S
C1490 H1478 0.950 . S
C1490 C1489 1.398 . S
C1490 C1491 1.391 . S
C1491 H1479 0.950 . S
C1491 C1487 1.393 . S
C1491 C1490 1.391 . S
H1492 C1500 0.950 . S
H1493 C1505 0.950 . S
H1494 C1502 0.950 . S
H1495 C1504 0.950 . S
H1496 C1506 0.950 . S
H1497 C1508 0.950 . S
H1498 C1510 0.950 . S
H1499 C1511 0.950 . S
C1500 H1492 0.950 . S
C1500 C1501 1.386 . S
C1500 C1502 1.391 . S
C1501 C1500 1.386 . S
C1501 C1505 1.393 . S
C1502 H1494 0.950 . S
C1502 C1500 1.391 . S
C1502 C1503 1.400 . S
C1503 C1502 1.400 . S
C1503 C1504 1.398 . S
C1503 C1509 1.491 . S
C1504 H1495 0.950 . S
C1504 C1503 1.398 . S
C1504 C1505 1.391 . S
C1505 H1493 0.950 . S
C1505 C1501 1.393 . S
C1505 C1504 1.391 . S
C1506 H1496 0.950 . S
C1506 C1507 1.386 . S
C1506 C1508 1.391 . S
C1507 C1506 1.386 . S
C1507 C1511 1.393 . S
C1508 H1497 0.950 . S
C1508 C1506 1.391 . S
C1508 C1509 1.400 . S
C1509 C1503 1.491 . S
C1509 C1508 1.400 . S
C1509 C1510 1.398 . S
C1510 H1498 0.950 . S
C1510 C1509 1.398 . S
C1510 C1511 1.391 . S
C1511 H1499 0.950 . S
C1511 C1507 1.393 . S
C1511 C1510 1.391 . S
H1512 C1520 0.950 . S
H1513 C1525 0.950 . S
H1514 C1522 0.950 . S
H1515 C1524 0.950 . S
H1516 C1526 0.950 . S
H1517 C1528 0.950 . S
H1518 C1530 0.950 . S
H1519 C1531 0.950 . S
C1520 H1512 0.950 . S
C1520 C1521 1.386 . S
C1520 C1522 1.391 . S
C1521 C1520 1.386 . S
C1521 C1525 1.393 . S
C1522 H1514 0.950 . S
C1522 C1520 1.391 . S
C1522 C1523 1.400 . S
C1523 C1522 1.400 . S
C1523 C1524 1.398 . S
C1523 C1529 1.491 . S
C1524 H1515 0.950 . S
C1524 C1523 1.398 . S
C1524 C1525 1.391 . S
C1525 H1513 0.950 . S
C1525 C1521 1.393 . S
C1525 C1524 1.391 . S
C1526 H1516 0.950 . S
C1526 C1527 1.386 . S
C1526 C1528 1.391 . S
C1527 C1526 1.386 . S
C1527 C1531 1.393 . S
C1528 H1517 0.950 . S
C1528 C1526 1.391 . S
C1528 C1529 1.400 . S
C1529 C1523 1.491 . S
C1529 C1528 1.400 . S
C1529 C1530 1.398 . S
C1530 H1518 0.950 . S
C1530 C1529 1.398 . S
C1530 C1531 1.391 . S
C1531 H1519 0.950 . S
C1531 C1527 1.393 . S
C1531 C1530 1.391 . S
H1532 C1540 0.950 . S
H1533 C1545 0.950 . S
H1534 C1542 0.950 . S
H1535 C1544 0.950 . S
H1536 C1546 0.950 . S
H1537 C1548 0.950 . S
H1538 C1550 0.950 . S
H1539 C1551 0.950 1_545 S
C1540 H1532 0.950 . S
C1540 C1541 1.386 . S
C1540 C1542 1.391 . S
C1541 C1540 1.386 . S
C1541 C1545 1.393 . S
C1542 H1534 0.950 . S
C1542 C1540 1.391 . S
C1542 C1543 1.400 . S
C1543 C1542 1.400 . S
C1543 C1544 1.398 . S
C1543 C1549 1.491 . S
C1544 H1535 0.950 . S
C1544 C1543 1.398 . S
C1544 C1545 1.391 . S
C1545 H1533 0.950 . S
C1545 C1541 1.393 . S
C1545 C1544 1.391 . S
C1546 H1536 0.950 . S
C1546 C1547 1.386 . S
C1546 C1548 1.391 . S
C1547 C1546 1.386 . S
C1547 C1551 1.393 . S
C1548 H1537 0.950 . S
C1548 C1546 1.391 . S
C1548 C1549 1.400 . S
C1549 C1543 1.491 . S
C1549 C1548 1.400 . S
C1549 C1550 1.398 . S
C1550 H1538 0.950 . S
C1550 C1549 1.398 . S
C1550 C1551 1.391 . S
C1551 H1539 0.950 1_565 S
C1551 C1547 1.393 . S
C1551 C1550 1.391 . S
H1552 C1560 0.950 . S
H1553 C1565 0.950 . S
H1554 C1562 0.950 . S
H1555 C1564 0.950 . S
H1556 C1566 0.950 . S
H1557 C1568 0.950 . S
H1558 C1570 0.950 . S
H1559 C1571 0.950 . S
C1560 H1552 0.950 . S
C1560 C1561 1.386 . S
C1560 C1562 1.391 . S
C1561 C1560 1.386 . S
C1561 C1565 1.393 . S
C1562 H1554 0.950 . S
C1562 C1560 1.391 . S
C1562 C1563 1.400 . S
C1563 C1562 1.400 . S
C1563 C1564 1.398 . S
C1563 C1569 1.491 . S
C1564 H1555 0.950 . S
C1564 C1563 1.398 . S
C1564 C1565 1.391 . S
C1565 H1553 0.950 . S
C1565 C1561 1.393 . S
C1565 C1564 1.391 . S
C1566 H1556 0.950 . S
C1566 C1567 1.386 . S
C1566 C1568 1.391 . S
C1567 C1566 1.386 . S
C1567 C1571 1.393 . S
C1568 H1557 0.950 . S
C1568 C1566 1.391 . S
C1568 C1569 1.400 . S
C1569 C1563 1.491 . S
C1569 C1568 1.400 . S
C1569 C1570 1.398 . S
C1570 H1558 0.950 . S
C1570 C1569 1.398 . S
C1570 C1571 1.391 . S
C1571 H1559 0.950 . S
C1571 C1567 1.393 . S
C1571 C1570 1.391 . S
H1572 C1580 0.950 . S
H1573 C1585 0.950 . S
H1574 C1582 0.950 . S
H1575 C1584 0.950 . S
H1576 C1586 0.950 . S
H1577 C1588 0.950 . S
H1578 C1590 0.950 . S
H1579 C1591 0.950 . S
C1580 H1572 0.950 . S
C1580 C1581 1.386 . S
C1580 C1582 1.391 . S
C1581 C1580 1.386 . S
C1581 C1585 1.393 . S
C1582 H1574 0.950 . S
C1582 C1580 1.391 . S
C1582 C1583 1.400 . S
C1583 C1582 1.400 . S
C1583 C1584 1.398 . S
C1583 C1589 1.491 . S
C1584 H1575 0.950 . S
C1584 C1583 1.398 . S
C1584 C1585 1.391 . S
C1585 H1573 0.950 . S
C1585 C1581 1.393 . S
C1585 C1584 1.391 . S
C1586 H1576 0.950 . S
C1586 C1587 1.386 . S
C1586 C1588 1.391 . S
C1587 C1586 1.386 . S
C1587 C1591 1.393 . S
C1588 H1577 0.950 . S
C1588 C1586 1.391 . S
C1588 C1589 1.400 . S
C1589 C1583 1.491 . S
C1589 C1588 1.400 . S
C1589 C1590 1.398 . S
C1590 H1578 0.950 . S
C1590 C1589 1.398 . S
C1590 C1591 1.391 . S
C1591 H1579 0.950 . S
C1591 C1587 1.393 . S
C1591 C1590 1.391 . S
H1592 C1600 0.950 . S
H1593 C1605 0.950 . S
H1594 C1602 0.950 . S
H1595 C1604 0.950 . S
H1596 C1606 0.950 . S
H1597 C1608 0.950 . S
H1598 C1610 0.950 . S
H1599 C1611 0.950 . S
C1600 H1592 0.950 . S
C1600 C1601 1.386 . S
C1600 C1602 1.391 . S
C1601 C1600 1.386 . S
C1601 C1605 1.393 . S
C1602 H1594 0.950 . S
C1602 C1600 1.391 . S
C1602 C1603 1.400 . S
C1603 C1602 1.400 . S
C1603 C1604 1.398 . S
C1603 C1609 1.491 . S
C1604 H1595 0.950 . S
C1604 C1603 1.398 . S
C1604 C1605 1.391 . S
C1605 H1593 0.950 . S
C1605 C1601 1.393 . S
C1605 C1604 1.391 . S
C1606 H1596 0.950 . S
C1606 C1607 1.386 . S
C1606 C1608 1.391 . S
C1607 C1606 1.386 . S
C1607 C1611 1.393 . S
C1608 H1597 0.950 . S
C1608 C1606 1.391 . S
C1608 C1609 1.400 . S
C1609 C1603 1.491 . S
C1609 C1608 1.400 . S
C1609 C1610 1.398 . S
C1610 H1598 0.950 . S
C1610 C1609 1.398 . S
C1610 C1611 1.391 . S
C1611 H1599 0.950 . S
C1611 C1607 1.393 . S
C1611 C1610 1.391 . S
H1612 C1620 0.950 . S
H1613 C1625 0.950 . S
H1614 C1622 0.950 . S
H1615 C1624 0.950 . S
H1616 C1626 0.950 . S
H1617 C1628 0.950 . S
H1618 C1630 0.950 . S
H1619 C1631 0.950 . S
C1620 H1612 0.950 . S
C1620 C1621 1.386 . S
C1620 C1622 1.391 . S
C1621 C1620 1.386 . S
C1621 C1625 1.393 . S
C1622 H1614 0.950 . S
C1622 C1620 1.391 . S
C1622 C1623 1.400 . S
C1623 C1622 1.400 . S
C1623 C1624 1.398 . S
C1623 C1629 1.491 . S
C1624 H1615 0.950 . S
C1624 C1623 1.398 . S
C1624 C1625 1.391 . S
C1625 H1613 0.950 . S
C1625 C1621 1.393 . S
C1625 C1624 1.391 . S
C1626 H1616 0.950 . S
C1626 C1627 1.386 . S
C1626 C1628 1.391 . S
C1627 C1626 1.386 . S
C1627 C1631 1.393 . S
C1628 H1617 0.950 . S
C1628 C1626 1.391 . S
C1628 C1629 1.400 . S
C1629 C1623 1.491 . S
C1629 C1628 1.400 . S
C1629 C1630 1.398 . S
C1630 H1618 0.950 . S
C1630 C1629 1.398 . S
C1630 C1631 1.391 . S
C1631 H1619 0.950 . S
C1631 C1627 1.393 . S
C1631 C1630 1.391 . S
H1632 C1640 0.950 . S
H1633 C1645 0.950 . S
H1634 C1642 0.950 . S
H1635 C1644 0.950 . S
H1636 C1646 0.950 . S
H1637 C1648 0.950 . S
H1638 C1650 0.950 . S
H1639 C1651 0.950 1_554 S
C1640 H1632 0.950 . S
C1640 C1641 1.386 1_655 S
C1640 C1642 1.391 . S
C1641 C1640 1.386 1_455 S
C1641 C1645 1.393 . S
C1642 H1634 0.950 . S
C1642 C1640 1.391 . S
C1642 C1643 1.400 1_655 S
C1643 C1642 1.400 1_455 S
C1643 C1644 1.398 . S
C1643 C1649 1.491 . S
C1644 H1635 0.950 . S
C1644 C1643 1.398 . S
C1644 C1645 1.391 . S
C1645 H1633 0.950 . S
C1645 C1641 1.393 . S
C1645 C1644 1.391 . S
C1646 H1636 0.950 . S
C1646 C1647 1.386 . S
C1646 C1648 1.391 . S
C1647 C1646 1.386 . S
C1647 C1651 1.393 1_455 S
C1648 H1637 0.950 . S
C1648 C1646 1.391 . S
C1648 C1649 1.400 . S
C1649 C1643 1.491 . S
C1649 C1648 1.400 . S
C1649 C1650 1.398 1_455 S
C1650 H1638 0.950 . S
C1650 C1649 1.398 1_655 S
C1650 C1651 1.391 . S
C1651 H1639 0.950 1_556 S
C1651 C1647 1.393 1_655 S
C1651 C1650 1.391 . S
H1652 C1660 0.950 . S
H1653 C1665 0.950 . S
H1654 C1662 0.950 . S
H1655 C1664 0.950 . S
H1656 C1666 0.950 . S
H1657 C1668 0.950 . S
H1658 C1670 0.950 . S
H1659 C1671 0.950 . S
C1660 H1652 0.950 . S
C1660 C1661 1.386 . S
C1660 C1662 1.391 . S
C1661 C1660 1.386 . S
C1661 C1665 1.393 . S
C1662 H1654 0.950 . S
C1662 C1660 1.391 . S
C1662 C1663 1.400 . S
C1663 C1662 1.400 . S
C1663 C1664 1.398 . S
C1663 C1669 1.491 . S
C1664 H1655 0.950 . S
C1664 C1663 1.398 . S
C1664 C1665 1.391 . S
C1665 H1653 0.950 . S
C1665 C1661 1.393 . S
C1665 C1664 1.391 . S
C1666 H1656 0.950 . S
C1666 C1667 1.386 . S
C1666 C1668 1.391 . S
C1667 C1666 1.386 . S
C1667 C1671 1.393 . S
C1668 H1657 0.950 . S
C1668 C1666 1.391 . S
C1668 C1669 1.400 . S
C1669 C1663 1.491 . S
C1669 C1668 1.400 . S
C1669 C1670 1.398 . S
C1670 H1658 0.950 . S
C1670 C1669 1.398 . S
C1670 C1671 1.391 . S
C1671 H1659 0.950 . S
C1671 C1667 1.393 . S
C1671 C1670 1.391 . S
H1672 C1680 0.950 . S
H1673 C1685 0.950 . S
H1674 C1682 0.950 . S
H1675 C1684 0.950 . S
H1676 C1686 0.950 . S
H1677 C1688 0.950 . S
H1678 C1690 0.950 . S
H1679 C1691 0.950 . S
C1680 H1672 0.950 . S
C1680 C1681 1.386 . S
C1680 C1682 1.391 . S
C1681 C1680 1.386 . S
C1681 C1685 1.393 . S
C1682 H1674 0.950 . S
C1682 C1680 1.391 . S
C1682 C1683 1.400 . S
C1683 C1682 1.400 . S
C1683 C1684 1.398 . S
C1683 C1689 1.491 . S
C1684 H1675 0.950 . S
C1684 C1683 1.398 . S
C1684 C1685 1.391 . S
C1685 H1673 0.950 . S
C1685 C1681 1.393 . S
C1685 C1684 1.391 . S
C1686 H1676 0.950 . S
C1686 C1687 1.386 . S
C1686 C1688 1.391 . S
C1687 C1686 1.386 . S
C1687 C1691 1.393 . S
C1688 H1677 0.950 . S
C1688 C1686 1.391 . S
C1688 C1689 1.400 . S
C1689 C1683 1.491 . S
C1689 C1688 1.400 . S
C1689 C1690 1.398 . S
C1690 H1678 0.950 . S
C1690 C1689 1.398 . S
C1690 C1691 1.391 . S
C1691 H1679 0.950 . S
C1691 C1687 1.393 . S
C1691 C1690 1.391 . S
H1692 C1700 0.950 . S
H1693 C1705 0.950 . S
H1694 C1702 0.950 . S
H1695 C1704 0.950 . S
H1696 C1706 0.950 . S
H1697 C1708 0.950 . S
H1698 C1710 0.950 . S
H1699 C1711 0.950 . S
C1700 H1692 0.950 . S
C1700 C1701 1.386 . S
C1700 C1702 1.391 . S
C1701 C1700 1.386 . S
C1701 C1705 1.393 . S
C1702 H1694 0.950 . S
C1702 C1700 1.391 . S
C1702 C1703 1.400 . S
C1703 C1702 1.400 . S
C1703 C1704 1.398 . S
C1703 C1709 1.491 . S
C1704 H1695 0.950 . S
C1704 C1703 1.398 . S
C1704 C1705 1.391 . S
C1705 H1693 0.950 . S
C1705 C1701 1.393 . S
C1705 C1704 1.391 . S
C1706 H1696 0.950 . S
C1706 C1707 1.386 . S
C1706 C1708 1.391 . S
C1707 C1706 1.386 . S
C1707 C1711 1.393 . S
C1708 H1697 0.950 . S
C1708 C1706 1.391 . S
C1708 C1709 1.400 . S
C1709 C1703 1.491 . S
C1709 C1708 1.400 . S
C1709 C1710 1.398 . S
C1710 H1698 0.950 . S
C1710 C1709 1.398 . S
C1710 C1711 1.391 . S
C1711 H1699 0.950 . S
C1711 C1707 1.393 . S
C1711 C1710 1.391 . S
H1712 C1720 0.950 . S
H1713 C1725 0.950 . S
H1714 C1722 0.950 . S
H1715 C1724 0.950 . S
H1716 C1726 0.952 . S
H1717 C1728 0.950 . S
H1718 C1730 0.950 . S
H1719 C1731 0.950 . S
C1720 H1712 0.950 . S
C1720 C1721 1.386 . S
C1720 C1722 1.391 . S
C1721 C1720 1.386 . S
C1721 C1725 1.393 1_455 S
C1722 H1714 0.950 . S
C1722 C1720 1.391 . S
C1722 C1723 1.400 . S
C1723 C1722 1.400 . S
C1723 C1724 1.398 1_455 S
C1723 C1729 1.491 . S
C1724 H1715 0.950 . S
C1724 C1723 1.398 1_655 S
C1724 C1725 1.391 . S
C1725 H1713 0.950 . S
C1725 C1721 1.393 1_655 S
C1725 C1724 1.391 . S
C1726 H1716 0.952 . S
C1726 C1727 1.381 1_655 S
C1726 C1728 1.394 . S
C1727 C1726 1.381 1_455 S
C1727 C1731 1.393 . S
C1728 H1717 0.950 . S
C1728 C1726 1.394 . S
C1728 C1729 1.400 1_655 S
C1729 C1723 1.491 . S
C1729 C1728 1.400 1_455 S
C1729 C1730 1.398 . S
C1730 H1718 0.950 . S
C1730 C1729 1.398 . S
C1730 C1731 1.391 . S
C1731 H1719 0.950 . S
C1731 C1727 1.393 . S
C1731 C1730 1.391 . S
H1732 C1740 0.950 . S
H1733 C1745 0.950 . S
H1734 C1742 0.950 . S
H1735 C1744 0.950 . S
H1736 C1746 0.950 . S
H1737 C1748 0.950 . S
H1738 C1750 0.950 . S
H1739 C1751 0.950 . S
C1740 H1732 0.950 . S
C1740 C1741 1.386 . S
C1740 C1742 1.391 . S
C1741 C1740 1.386 . S
C1741 C1745 1.393 . S
C1742 H1734 0.950 . S
C1742 C1740 1.391 . S
C1742 C1743 1.400 . S
C1743 C1742 1.400 . S
C1743 C1744 1.398 . S
C1743 C1749 1.491 . S
C1744 H1735 0.950 . S
C1744 C1743 1.398 . S
C1744 C1745 1.391 . S
C1745 H1733 0.950 . S
C1745 C1741 1.393 . S
C1745 C1744 1.391 . S
C1746 H1736 0.950 . S
C1746 C1747 1.386 . S
C1746 C1748 1.391 . S
C1747 C1746 1.386 . S
C1747 C1751 1.393 . S
C1748 H1737 0.950 . S
C1748 C1746 1.391 . S
C1748 C1749 1.400 . S
C1749 C1743 1.491 . S
C1749 C1748 1.400 . S
C1749 C1750 1.398 . S
C1750 H1738 0.950 . S
C1750 C1749 1.398 . S
C1750 C1751 1.391 . S
C1751 H1739 0.950 . S
C1751 C1747 1.393 . S
C1751 C1750 1.391 . S
H1752 C1760 0.950 . S
H1753 C1765 0.950 . S
H1754 C1762 0.950 . S
H1755 C1764 0.950 . S
H1756 C1766 0.950 . S
H1757 C1768 0.950 . S
H1758 C1770 0.950 . S
H1759 C1771 0.950 . S
C1760 H1752 0.950 . S
C1760 C1761 1.386 . S
C1760 C1762 1.391 . S
C1761 C1760 1.386 . S
C1761 C1765 1.393 . S
C1762 H1754 0.950 . S
C1762 C1760 1.391 . S
C1762 C1763 1.400 . S
C1763 C1762 1.400 . S
C1763 C1764 1.398 . S
C1763 C1769 1.491 . S
C1764 H1755 0.950 . S
C1764 C1763 1.398 . S
C1764 C1765 1.391 . S
C1765 H1753 0.950 . S
C1765 C1761 1.393 . S
C1765 C1764 1.391 . S
C1766 H1756 0.950 . S
C1766 C1767 1.386 . S
C1766 C1768 1.391 . S
C1767 C1766 1.386 . S
C1767 C1771 1.393 . S
C1768 H1757 0.950 . S
C1768 C1766 1.391 . S
C1768 C1769 1.400 . S
C1769 C1763 1.491 . S
C1769 C1768 1.400 . S
C1769 C1770 1.398 . S
C1770 H1758 0.950 . S
C1770 C1769 1.398 . S
C1770 C1771 1.391 . S
C1771 H1759 0.950 . S
C1771 C1767 1.393 . S
C1771 C1770 1.391 . S
H1772 C1780 0.950 . S
H1773 C1785 0.950 . S
H1774 C1782 0.950 . S
H1775 C1784 0.950 . S
H1776 C1786 0.950 . S
H1777 C1788 0.950 . S
H1778 C1790 0.950 . S
H1779 C1791 0.950 . S
C1780 H1772 0.950 . S
C1780 C1781 1.386 . S
C1780 C1782 1.391 . S
C1781 C1780 1.386 . S
C1781 C1785 1.393 . S
C1782 H1774 0.950 . S
C1782 C1780 1.391 . S
C1782 C1783 1.400 . S
C1783 C1782 1.400 . S
C1783 C1784 1.398 . S
C1783 C1789 1.491 . S
C1784 H1775 0.950 . S
C1784 C1783 1.398 . S
C1784 C1785 1.391 . S
C1785 H1773 0.950 . S
C1785 C1781 1.393 . S
C1785 C1784 1.391 . S
C1786 H1776 0.950 . S
C1786 C1787 1.386 . S
C1786 C1788 1.391 . S
C1787 C1786 1.386 . S
C1787 C1791 1.393 . S
C1788 H1777 0.950 . S
C1788 C1786 1.391 . S
C1788 C1789 1.400 . S
C1789 C1783 1.491 . S
C1789 C1788 1.400 . S
C1789 C1790 1.398 . S
C1790 H1778 0.950 . S
C1790 C1789 1.398 . S
C1790 C1791 1.391 . S
C1791 H1779 0.950 . S
C1791 C1787 1.393 . S
C1791 C1790 1.391 . S
H1792 C1800 0.950 . S
H1793 C1805 0.950 . S
H1794 C1802 0.950 . S
H1795 C1804 0.950 . S
H1796 C1806 0.950 . S
H1797 C1808 0.950 . S
H1798 C1810 0.950 . S
H1799 C1811 0.950 . S
C1800 H1792 0.950 . S
C1800 C1801 1.386 . S
C1800 C1802 1.391 . S
C1801 C1800 1.386 . S
C1801 C1805 1.393 . S
C1802 H1794 0.950 . S
C1802 C1800 1.391 . S
C1802 C1803 1.400 . S
C1803 C1802 1.400 . S
C1803 C1804 1.398 . S
C1803 C1809 1.491 . S
C1804 H1795 0.950 . S
C1804 C1803 1.398 . S
C1804 C1805 1.391 . S
C1805 H1793 0.950 . S
C1805 C1801 1.393 . S
C1805 C1804 1.391 . S
C1806 H1796 0.950 . S
C1806 C1807 1.386 . S
C1806 C1808 1.391 . S
C1807 C1806 1.386 . S
C1807 C1811 1.393 . S
C1808 H1797 0.950 . S
C1808 C1806 1.391 . S
C1808 C1809 1.400 . S
C1809 C1803 1.491 . S
C1809 C1808 1.400 . S
C1809 C1810 1.398 . S
C1810 H1798 0.950 . S
C1810 C1809 1.398 . S
C1810 C1811 1.391 . S
C1811 H1799 0.950 . S
C1811 C1807 1.393 . S
C1811 C1810 1.391 . S
H1812 C1820 0.950 . S
H1813 C1825 0.950 . S
H1814 C1822 0.950 . S
H1815 C1824 0.950 . S
H1816 C1826 0.950 . S
H1817 C1828 0.950 . S
H1818 C1830 0.950 . S
H1819 C1831 0.950 . S
C1820 H1812 0.950 . S
C1820 C1821 1.386 . S
C1820 C1822 1.391 . S
C1821 C1820 1.386 . S
C1821 C1825 1.393 . S
C1822 H1814 0.950 . S
C1822 C1820 1.391 . S
C1822 C1823 1.400 . S
C1823 C1822 1.400 . S
C1823 C1824 1.398 . S
C1823 C1829 1.491 . S
C1824 H1815 0.950 . S
C1824 C1823 1.398 . S
C1824 C1825 1.391 . S
C1825 H1813 0.950 . S
C1825 C1821 1.393 . S
C1825 C1824 1.391 . S
C1826 H1816 0.950 . S
C1826 C1827 1.386 . S
C1826 C1828 1.391 . S
C1827 C1826 1.386 . S
C1827 C1831 1.393 . S
C1828 H1817 0.950 . S
C1828 C1826 1.391 . S
C1828 C1829 1.400 . S
C1829 C1823 1.491 . S
C1829 C1828 1.400 . S
C1829 C1830 1.398 . S
C1830 H1818 0.950 . S
C1830 C1829 1.398 . S
C1830 C1831 1.391 . S
C1831 H1819 0.950 . S
C1831 C1827 1.393 . S
C1831 C1830 1.391 . S
H1832 C1840 0.950 . S
H1833 C1845 0.950 . S
H1834 C1842 0.950 . S
H1835 C1844 0.950 . S
H1836 C1846 0.950 . S
H1837 C1848 0.950 . S
H1838 C1850 0.950 . S
H1839 C1851 0.950 . S
C1840 H1832 0.950 . S
C1840 C1841 1.386 . S
C1840 C1842 1.391 . S
C1841 C1840 1.386 . S
C1841 C1845 1.393 . S
C1842 H1834 0.950 . S
C1842 C1840 1.391 . S
C1842 C1843 1.400 . S
C1843 C1842 1.400 . S
C1843 C1844 1.398 . S
C1843 C1849 1.491 . S
C1844 H1835 0.950 . S
C1844 C1843 1.398 . S
C1844 C1845 1.391 . S
C1845 H1833 0.950 . S
C1845 C1841 1.393 . S
C1845 C1844 1.391 . S
C1846 H1836 0.950 . S
C1846 C1847 1.386 . S
C1846 C1848 1.391 . S
C1847 C1846 1.386 . S
C1847 C1851 1.393 . S
C1848 H1837 0.950 . S
C1848 C1846 1.391 . S
C1848 C1849 1.400 . S
C1849 C1843 1.491 . S
C1849 C1848 1.400 . S
C1849 C1850 1.398 . S
C1850 H1838 0.950 . S
C1850 C1849 1.398 . S
C1850 C1851 1.391 . S
C1851 H1839 0.950 . S
C1851 C1847 1.393 . S
C1851 C1850 1.391 . S
H1852 C1860 0.950 . S
H1853 C1865 0.950 . S
H1854 C1862 0.950 . S
H1855 C1864 0.950 . S
H1856 C1866 0.950 . S
H1857 C1868 0.950 . S
H1858 C1870 0.950 . S
H1859 C1871 0.950 . S
C1860 H1852 0.950 . S
C1860 C1861 1.386 . S
C1860 C1862 1.391 . S
C1861 C1860 1.386 . S
C1861 C1865 1.393 . S
C1862 H1854 0.950 . S
C1862 C1860 1.391 . S
C1862 C1863 1.400 . S
C1863 C1862 1.400 . S
C1863 C1864 1.398 . S
C1863 C1869 1.491 . S
C1864 H1855 0.950 . S
C1864 C1863 1.398 . S
C1864 C1865 1.391 . S
C1865 H1853 0.950 . S
C1865 C1861 1.393 . S
C1865 C1864 1.391 . S
C1866 H1856 0.950 . S
C1866 C1867 1.386 . S
C1866 C1868 1.391 . S
C1867 C1866 1.386 . S
C1867 C1871 1.393 . S
C1868 H1857 0.950 . S
C1868 C1866 1.391 . S
C1868 C1869 1.400 . S
C1869 C1863 1.491 . S
C1869 C1868 1.400 . S
C1869 C1870 1.398 . S
C1870 H1858 0.950 . S
C1870 C1869 1.398 . S
C1870 C1871 1.391 . S
C1871 H1859 0.950 . S
C1871 C1867 1.393 . S
C1871 C1870 1.391 . S
H1872 C1880 0.950 . S
H1873 C1885 0.950 . S
H1874 C1882 0.950 . S
H1875 C1884 0.950 . S
H1876 C1886 0.950 . S
H1877 C1888 0.950 . S
H1878 C1890 0.950 . S
H1879 C1891 0.950 . S
C1880 H1872 0.950 . S
C1880 C1881 1.386 . S
C1880 C1882 1.391 . S
C1881 C1880 1.386 . S
C1881 C1885 1.393 . S
C1882 H1874 0.950 . S
C1882 C1880 1.391 . S
C1882 C1883 1.400 . S
C1883 C1882 1.400 . S
C1883 C1884 1.398 . S
C1883 C1889 1.491 . S
C1884 H1875 0.950 . S
C1884 C1883 1.398 . S
C1884 C1885 1.391 . S
C1885 H1873 0.950 . S
C1885 C1881 1.393 . S
C1885 C1884 1.391 . S
C1886 H1876 0.950 . S
C1886 C1887 1.386 . S
C1886 C1888 1.391 . S
C1887 C1886 1.386 . S
C1887 C1891 1.393 . S
C1888 H1877 0.950 . S
C1888 C1886 1.391 . S
C1888 C1889 1.400 . S
C1889 C1883 1.491 . S
C1889 C1888 1.400 . S
C1889 C1890 1.398 . S
C1890 H1878 0.950 . S
C1890 C1889 1.398 . S
C1890 C1891 1.391 . S
C1891 H1879 0.950 . S
C1891 C1887 1.393 . S
C1891 C1890 1.391 . S
H1892 C1900 0.950 . S
H1893 C1905 0.950 . S
H1894 C1902 0.950 . S
H1895 C1904 0.950 . S
H1896 C1906 0.950 . S
H1897 C1908 0.950 . S
H1898 C1910 0.950 . S
H1899 C1911 0.950 . S
C1900 H1892 0.950 . S
C1900 C1901 1.386 . S
C1900 C1902 1.391 . S
C1901 C1900 1.386 . S
C1901 C1905 1.393 . S
C1902 H1894 0.950 . S
C1902 C1900 1.391 . S
C1902 C1903 1.400 . S
C1903 C1902 1.400 . S
C1903 C1904 1.398 . S
C1903 C1909 1.491 . S
C1904 H1895 0.950 . S
C1904 C1903 1.398 . S
C1904 C1905 1.391 . S
C1905 H1893 0.950 . S
C1905 C1901 1.393 . S
C1905 C1904 1.391 . S
C1906 H1896 0.950 . S
C1906 C1907 1.386 . S
C1906 C1908 1.391 . S
C1907 C1906 1.386 . S
C1907 C1911 1.393 . S
C1908 H1897 0.950 . S
C1908 C1906 1.391 . S
C1908 C1909 1.400 . S
C1909 C1903 1.491 . S
C1909 C1908 1.400 . S
C1909 C1910 1.398 . S
C1910 H1898 0.950 . S
C1910 C1909 1.398 . S
C1910 C1911 1.391 . S
C1911 H1899 0.950 . S
C1911 C1907 1.393 . S
C1911 C1910 1.391 . S
H1912 C1920 0.950 . S
H1913 C1925 0.950 . S
H1914 C1922 0.950 . S
H1915 C1924 0.950 . S
H1916 C1926 0.950 . S
H1917 C1928 0.950 . S
H1918 C1930 0.950 . S
H1919 C1931 0.950 . S
C1920 H1912 0.950 . S
C1920 C1921 1.386 . S
C1920 C1922 1.391 . S
C1921 C1920 1.386 . S
C1921 C1925 1.393 . S
C1922 H1914 0.950 . S
C1922 C1920 1.391 . S
C1922 C1923 1.400 . S
C1923 C1922 1.400 . S
C1923 C1924 1.398 . S
C1923 C1929 1.491 . S
C1924 H1915 0.950 . S
C1924 C1923 1.398 . S
C1924 C1925 1.391 . S
C1925 H1913 0.950 . S
C1925 C1921 1.393 . S
C1925 C1924 1.391 . S
C1926 H1916 0.950 . S
C1926 C1927 1.386 . S
C1926 C1928 1.391 . S
C1927 C1926 1.386 . S
C1927 C1931 1.393 . S
C1928 H1917 0.950 . S
C1928 C1926 1.391 . S
C1928 C1929 1.400 . S
C1929 C1923 1.491 . S
C1929 C1928 1.400 . S
C1929 C1930 1.398 . S
C1930 H1918 0.950 . S
C1930 C1929 1.398 . S
C1930 C1931 1.391 . S
C1931 H1919 0.950 . S
C1931 C1927 1.393 . S
C1931 C1930 1.391 . S
H1932 C1940 0.950 . S
H1933 C1945 0.950 . S
H1934 C1942 0.950 . S
H1935 C1944 0.950 . S
H1936 C1946 0.950 . S
H1937 C1948 0.950 . S
H1938 C1950 0.950 . S
H1939 C1951 0.950 . S
C1940 H1932 0.950 . S
C1940 C1941 1.386 . S
C1940 C1942 1.391 . S
C1941 C1940 1.386 . S
C1941 C1945 1.393 . S
C1942 H1934 0.950 . S
C1942 C1940 1.391 . S
C1942 C1943 1.400 . S
C1943 C1942 1.400 . S
C1943 C1944 1.398 . S
C1943 C1949 1.491 . S
C1944 H1935 0.950 . S
C1944 C1943 1.398 . S
C1944 C1945 1.391 . S
C1945 H1933 0.950 . S
C1945 C1941 1.393 . S
C1945 C1944 1.391 . S
C1946 H1936 0.950 . S
C1946 C1947 1.386 . S
C1946 C1948 1.391 . S
C1947 C1946 1.386 . S
C1947 C1951 1.393 . S
C1948 H1937 0.950 . S
C1948 C1946 1.391 . S
C1948 C1949 1.400 . S
C1949 C1943 1.491 . S
C1949 C1948 1.400 . S
C1949 C1950 1.398 . S
C1950 H1938 0.950 . S
C1950 C1949 1.398 . S
C1950 C1951 1.391 . S
C1951 H1939 0.950 . S
C1951 C1947 1.393 . S
C1951 C1950 1.391 . S
H1952 C1960 0.950 . S
H1953 C1965 0.950 . S
H1954 C1962 0.950 . S
H1955 C1964 0.950 . S
H1956 C1966 0.950 . S
H1957 C1968 0.950 . S
H1958 C1970 0.950 . S
H1959 C1971 0.950 . S
C1960 H1952 0.950 . S
C1960 C1961 1.386 . S
C1960 C1962 1.391 . S
C1961 C1960 1.386 . S
C1961 C1965 1.393 . S
C1962 H1954 0.950 . S
C1962 C1960 1.391 . S
C1962 C1963 1.400 . S
C1963 C1962 1.400 . S
C1963 C1964 1.398 . S
C1963 C1969 1.491 . S
C1964 H1955 0.950 . S
C1964 C1963 1.398 . S
C1964 C1965 1.391 . S
C1965 H1953 0.950 . S
C1965 C1961 1.393 . S
C1965 C1964 1.391 . S
C1966 H1956 0.950 . S
C1966 C1967 1.386 . S
C1966 C1968 1.391 . S
C1967 C1966 1.386 . S
C1967 C1971 1.393 . S
C1968 H1957 0.950 . S
C1968 C1966 1.391 . S
C1968 C1969 1.400 . S
C1969 C1963 1.491 . S
C1969 C1968 1.400 . S
C1969 C1970 1.398 . S
C1970 H1958 0.950 . S
C1970 C1969 1.398 . S
C1970 C1971 1.391 . S
C1971 H1959 0.950 . S
C1971 C1967 1.393 . S
C1971 C1970 1.391 . S
H1972 C1980 0.934 1_556 S
H1973 C1985 0.950 . S
H1974 C1982 0.950 1_556 S
H1975 C1984 0.950 . S
H1976 C1986 0.950 . S
H1977 C1988 0.950 . S
H1978 C1990 0.950 1_556 S
H1979 C1991 0.987 . S
C1980 H1972 0.934 1_554 S
C1980 C1981 1.386 . S
C1980 C1982 1.391 . S
C1981 C1980 1.386 . S
C1981 C1985 1.393 . S
C1982 H1974 0.950 1_554 S
C1982 C1980 1.391 . S
C1982 C1983 1.400 . S
C1983 C1982 1.400 . S
C1983 C1984 1.398 . S
C1983 C1989 1.491 . S
C1984 H1975 0.950 . S
C1984 C1983 1.398 . S
C1984 C1985 1.391 . S
C1985 H1973 0.950 . S
C1985 C1981 1.393 . S
C1985 C1984 1.391 . S
C1986 H1976 0.950 . S
C1986 C1987 1.386 1_565 S
C1986 C1988 1.391 . S
C1987 C1986 1.386 1_545 S
C1987 C1991 1.365 1_554 S
C1988 H1977 0.950 . S
C1988 C1986 1.391 . S
C1988 C1989 1.400 . S
C1989 C1983 1.491 . S
C1989 C1988 1.400 . S
C1989 C1990 1.398 . S
C1990 H1978 0.950 1_554 S
C1990 C1989 1.398 . S
C1990 C1991 1.383 1_564 S
C1991 H1979 0.987 . S
C1991 C1987 1.365 1_556 S
C1991 C1990 1.383 1_546 S
H1992 C2000 0.950 . S
H1993 C2005 0.950 . S
H1994 C2002 0.950 . S
H1995 C2004 0.950 . S
H1996 C2006 0.950 . S
H1997 C2008 0.950 . S
H1998 C2010 0.950 . S
H1999 C2011 0.950 . S
C2000 H1992 0.950 . S
C2000 C2001 1.386 . S
C2000 C2002 1.391 . S
C2001 C2000 1.386 . S
C2001 C2005 1.393 . S
C2002 H1994 0.950 . S
C2002 C2000 1.391 . S
C2002 C2003 1.400 . S
C2003 C2002 1.400 . S
C2003 C2004 1.398 . S
C2003 C2009 1.491 . S
C2004 H1995 0.950 . S
C2004 C2003 1.398 . S
C2004 C2005 1.391 . S
C2005 H1993 0.950 . S
C2005 C2001 1.393 . S
C2005 C2004 1.391 . S
C2006 H1996 0.950 . S
C2006 C2007 1.386 . S
C2006 C2008 1.391 . S
C2007 C2006 1.386 . S
C2007 C2011 1.393 . S
C2008 H1997 0.950 . S
C2008 C2006 1.391 . S
C2008 C2009 1.400 . S
C2009 C2003 1.491 . S
C2009 C2008 1.400 . S
C2009 C2010 1.398 . S
C2010 H1998 0.950 . S
C2010 C2009 1.398 . S
C2010 C2011 1.391 . S
C2011 H1999 0.950 . S
C2011 C2007 1.393 . S
C2011 C2010 1.391 . S
H2012 C2020 0.950 . S
H2013 C2025 0.950 . S
H2014 C2022 0.950 . S
H2015 C2024 0.950 . S
H2016 C2026 0.950 1_556 S
H2017 C2028 0.950 1_556 S
H2018 C2030 0.950 . S
H2019 C2031 0.950 . S
C2020 H2012 0.950 . S
C2020 C2021 1.386 . S
C2020 C2022 1.391 . S
C2021 C2020 1.386 . S
C2021 C2025 1.393 1_554 S
C2022 H2014 0.950 . S
C2022 C2020 1.391 . S
C2022 C2023 1.400 . S
C2023 C2022 1.400 . S
C2023 C2024 1.398 1_554 S
C2023 C2029 1.491 . S
C2024 H2015 0.950 . S
C2024 C2023 1.398 1_556 S
C2024 C2025 1.391 . S
C2025 H2013 0.950 . S
C2025 C2021 1.393 1_556 S
C2025 C2024 1.391 . S
C2026 H2016 0.950 1_554 S
C2026 C2027 1.386 . S
C2026 C2028 1.391 . S
C2027 C2026 1.386 . S
C2027 C2031 1.393 . S
C2028 H2017 0.950 1_554 S
C2028 C2026 1.391 . S
C2028 C2029 1.400 . S
C2029 C2023 1.491 . S
C2029 C2028 1.400 . S
C2029 C2030 1.398 . S
C2030 H2018 0.950 . S
C2030 C2029 1.398 . S
C2030 C2031 1.391 . S
C2031 H2019 0.950 . S
C2031 C2027 1.393 . S
C2031 C2030 1.391 . S
H2032 C2040 0.950 . S
H2033 C2045 0.950 . S
H2034 C2042 0.950 . S
H2035 C2044 0.950 . S
H2036 C2046 0.950 . S
H2037 C2048 0.950 . S
H2038 C2050 0.950 . S
H2039 C2051 0.950 . S
C2040 H2032 0.950 . S
C2040 C2041 1.386 . S
C2040 C2042 1.391 . S
C2041 C2040 1.386 . S
C2041 C2045 1.393 . S
C2042 H2034 0.950 . S
C2042 C2040 1.391 . S
C2042 C2043 1.400 . S
C2043 C2042 1.400 . S
C2043 C2044 1.398 . S
C2043 C2049 1.491 . S
C2044 H2035 0.950 . S
C2044 C2043 1.398 . S
C2044 C2045 1.391 . S
C2045 H2033 0.950 . S
C2045 C2041 1.393 . S
C2045 C2044 1.391 . S
C2046 H2036 0.950 . S
C2046 C2047 1.386 . S
C2046 C2048 1.391 . S
C2047 C2046 1.386 . S
C2047 C2051 1.393 . S
C2048 H2037 0.950 . S
C2048 C2046 1.391 . S
C2048 C2049 1.400 . S
C2049 C2043 1.491 . S
C2049 C2048 1.400 . S
C2049 C2050 1.398 . S
C2050 H2038 0.950 . S
C2050 C2049 1.398 . S
C2050 C2051 1.391 . S
C2051 H2039 0.950 . S
C2051 C2047 1.393 . S
C2051 C2050 1.391 . S
H2052 C2060 0.950 . S
H2053 C2065 0.950 . S
H2054 C2062 0.950 . S
H2055 C2064 0.950 . S
H2056 C2066 0.950 . S
H2057 C2068 0.950 . S
H2058 C2070 0.950 . S
H2059 C2071 0.950 . S
C2060 H2052 0.950 . S
C2060 C2061 1.386 . S
C2060 C2062 1.391 . S
C2061 C2060 1.386 . S
C2061 C2065 1.393 . S
C2062 H2054 0.950 . S
C2062 C2060 1.391 . S
C2062 C2063 1.400 . S
C2063 C2062 1.400 . S
C2063 C2064 1.398 . S
C2063 C2069 1.491 . S
C2064 H2055 0.950 . S
C2064 C2063 1.398 . S
C2064 C2065 1.391 . S
C2065 H2053 0.950 . S
C2065 C2061 1.393 . S
C2065 C2064 1.391 . S
C2066 H2056 0.950 . S
C2066 C2067 1.386 . S
C2066 C2068 1.391 . S
C2067 C2066 1.386 . S
C2067 C2071 1.393 . S
C2068 H2057 0.950 . S
C2068 C2066 1.391 . S
C2068 C2069 1.400 . S
C2069 C2063 1.491 . S
C2069 C2068 1.400 . S
C2069 C2070 1.398 . S
C2070 H2058 0.950 . S
C2070 C2069 1.398 . S
C2070 C2071 1.391 . S
C2071 H2059 0.950 . S
C2071 C2067 1.393 . S
C2071 C2070 1.391 . S
H2072 C2080 0.950 . S
H2073 C2085 0.950 . S
H2074 C2082 0.950 . S
H2075 C2084 0.950 . S
H2076 C2086 0.950 . S
H2077 C2088 0.950 . S
H2078 C2090 0.950 . S
H2079 C2091 0.950 . S
C2080 H2072 0.950 . S
C2080 C2081 1.386 . S
C2080 C2082 1.391 . S
C2081 C2080 1.386 . S
C2081 C2085 1.393 . S
C2082 H2074 0.950 . S
C2082 C2080 1.391 . S
C2082 C2083 1.400 . S
C2083 C2082 1.400 . S
C2083 C2084 1.398 . S
C2083 C2089 1.491 . S
C2084 H2075 0.950 . S
C2084 C2083 1.398 . S
C2084 C2085 1.391 . S
C2085 H2073 0.950 . S
C2085 C2081 1.393 . S
C2085 C2084 1.391 . S
C2086 H2076 0.950 . S
C2086 C2087 1.386 . S
C2086 C2088 1.391 . S
C2087 C2086 1.386 . S
C2087 C2091 1.393 . S
C2088 H2077 0.950 . S
C2088 C2086 1.391 . S
C2088 C2089 1.400 . S
C2089 C2083 1.491 . S
C2089 C2088 1.400 . S
C2089 C2090 1.398 . S
C2090 H2078 0.950 . S
C2090 C2089 1.398 . S
C2090 C2091 1.391 . S
C2091 H2079 0.950 . S
C2091 C2087 1.393 . S
C2091 C2090 1.391 . S
H2092 C2100 0.950 . S
H2093 C2105 0.950 . S
H2094 C2102 0.950 . S
H2095 C2104 0.950 . S
H2096 C2106 0.950 . S
H2097 C2108 0.950 . S
H2098 C2110 0.950 . S
H2099 C2111 0.950 . S
C2100 H2092 0.950 . S
C2100 C2101 1.386 . S
C2100 C2102 1.391 . S
C2101 C2100 1.386 . S
C2101 C2105 1.393 . S
C2102 H2094 0.950 . S
C2102 C2100 1.391 . S
C2102 C2103 1.400 . S
C2103 C2102 1.400 . S
C2103 C2104 1.398 . S
C2103 C2109 1.491 . S
C2104 H2095 0.950 . S
C2104 C2103 1.398 . S
C2104 C2105 1.391 . S
C2105 H2093 0.950 . S
C2105 C2101 1.393 . S
C2105 C2104 1.391 . S
C2106 H2096 0.950 . S
C2106 C2107 1.386 . S
C2106 C2108 1.391 . S
C2107 C2106 1.386 . S
C2107 C2111 1.393 . S
C2108 H2097 0.950 . S
C2108 C2106 1.391 . S
C2108 C2109 1.400 . S
C2109 C2103 1.491 . S
C2109 C2108 1.400 . S
C2109 C2110 1.398 . S
C2110 H2098 0.950 . S
C2110 C2109 1.398 . S
C2110 C2111 1.391 . S
C2111 H2099 0.950 . S
C2111 C2107 1.393 . S
C2111 C2110 1.391 . S
H2112 C2120 0.920 1_655 S
H2113 C2125 0.950 . S
H2114 C2122 0.935 1_655 S
H2115 C2124 0.950 . S
H2116 C2126 0.960 . S
H2117 C2128 0.950 . S
H2118 C2130 0.950 . S
H2119 C2131 0.949 . S
C2120 H2112 0.920 1_455 S
C2120 C2121 1.386 . S
C2120 C2122 1.391 . S
C2121 C2120 1.386 . S
C2121 C2125 1.393 . S
C2122 H2114 0.935 1_455 S
C2122 C2120 1.391 . S
C2122 C2123 1.400 . S
C2123 C2122 1.400 . S
C2123 C2124 1.398 . S
C2123 C2129 1.491 . S
C2124 H2115 0.950 . S
C2124 C2123 1.398 . S
C2124 C2125 1.391 . S
C2125 H2113 0.950 . S
C2125 C2121 1.393 . S
C2125 C2124 1.391 . S
C2126 H2116 0.960 . S
C2126 C2127 1.386 . S
C2126 C2128 1.391 . S
C2127 C2126 1.386 . S
C2127 C2131 1.393 . S
C2128 H2117 0.950 . S
C2128 C2126 1.391 . S
C2128 C2129 1.400 . S
C2129 C2123 1.491 . S
C2129 C2128 1.400 . S
C2129 C2130 1.398 . S
C2130 H2118 0.950 . S
C2130 C2129 1.398 . S
C2130 C2131 1.391 . S
C2131 H2119 0.949 . S
C2131 C2127 1.393 . S
C2131 C2130 1.391 . S
H2132 C2140 0.950 . S
H2133 C2145 0.950 . S
H2134 C2142 0.950 . S
H2135 C2144 0.950 . S
H2136 C2146 0.950 . S
H2137 C2148 0.950 . S
H2138 C2150 0.950 . S
H2139 C2151 0.950 . S
C2140 H2132 0.950 . S
C2140 C2141 1.386 . S
C2140 C2142 1.391 . S
C2141 C2140 1.386 . S
C2141 C2145 1.393 . S
C2142 H2134 0.950 . S
C2142 C2140 1.391 . S
C2142 C2143 1.400 . S
C2143 C2142 1.400 . S
C2143 C2144 1.398 . S
C2143 C2149 1.491 . S
C2144 H2135 0.950 . S
C2144 C2143 1.398 . S
C2144 C2145 1.391 . S
C2145 H2133 0.950 . S
C2145 C2141 1.393 . S
C2145 C2144 1.391 . S
C2146 H2136 0.950 . S
C2146 C2147 1.386 . S
C2146 C2148 1.391 . S
C2147 C2146 1.386 . S
C2147 C2151 1.393 . S
C2148 H2137 0.950 . S
C2148 C2146 1.391 . S
C2148 C2149 1.400 . S
C2149 C2143 1.491 . S
C2149 C2148 1.400 . S
C2149 C2150 1.398 . S
C2150 H2138 0.950 . S
C2150 C2149 1.398 . S
C2150 C2151 1.391 . S
C2151 H2139 0.950 . S
C2151 C2147 1.393 . S
C2151 C2150 1.391 . S
H2152 C2160 0.950 . S
H2153 C2165 0.950 . S
H2154 C2162 0.950 . S
H2155 C2164 0.950 . S
H2156 C2166 0.950 1_554 S
H2157 C2168 0.950 . S
H2158 C2170 0.950 . S
H2159 C2171 0.950 . S
C2160 H2152 0.950 . S
C2160 C2161 1.386 . S
C2160 C2162 1.391 . S
C2161 C2160 1.386 . S
C2161 C2165 1.393 . S
C2162 H2154 0.950 . S
C2162 C2160 1.391 . S
C2162 C2163 1.400 . S
C2163 C2162 1.400 . S
C2163 C2164 1.398 . S
C2163 C2169 1.491 . S
C2164 H2155 0.950 . S
C2164 C2163 1.398 . S
C2164 C2165 1.391 . S
C2165 H2153 0.950 . S
C2165 C2161 1.393 . S
C2165 C2164 1.391 . S
C2166 H2156 0.950 1_556 S
C2166 C2167 1.386 . S
C2166 C2168 1.391 . S
C2167 C2166 1.386 . S
C2167 C2171 1.393 . S
C2168 H2157 0.950 . S
C2168 C2166 1.391 . S
C2168 C2169 1.400 . S
C2169 C2163 1.491 . S
C2169 C2168 1.400 . S
C2169 C2170 1.398 . S
C2170 H2158 0.950 . S
C2170 C2169 1.398 . S
C2170 C2171 1.391 . S
C2171 H2159 0.950 . S
C2171 C2167 1.393 . S
C2171 C2170 1.391 . S
H2172 C2180 0.950 . S
H2173 C2185 0.950 . S
H2174 C2182 0.950 . S
H2175 C2184 0.950 . S
H2176 C2186 0.950 . S
H2177 C2188 0.950 . S
H2178 C2190 0.950 . S
H2179 C2191 0.950 . S
C2180 H2172 0.950 . S
C2180 C2181 1.386 . S
C2180 C2182 1.391 . S
C2181 C2180 1.386 . S
C2181 C2185 1.393 . S
C2182 H2174 0.950 . S
C2182 C2180 1.391 . S
C2182 C2183 1.400 . S
C2183 C2182 1.400 . S
C2183 C2184 1.398 . S
C2183 C2189 1.491 . S
C2184 H2175 0.950 . S
C2184 C2183 1.398 . S
C2184 C2185 1.391 . S
C2185 H2173 0.950 . S
C2185 C2181 1.393 . S
C2185 C2184 1.391 . S
C2186 H2176 0.950 . S
C2186 C2187 1.386 . S
C2186 C2188 1.391 . S
C2187 C2186 1.386 . S
C2187 C2191 1.393 . S
C2188 H2177 0.950 . S
C2188 C2186 1.391 . S
C2188 C2189 1.400 . S
C2189 C2183 1.491 . S
C2189 C2188 1.400 . S
C2189 C2190 1.398 . S
C2190 H2178 0.950 . S
C2190 C2189 1.398 . S
C2190 C2191 1.391 . S
C2191 H2179 0.950 . S
C2191 C2187 1.393 . S
C2191 C2190 1.391 . S
H2192 C2200 0.950 1_655 S
H2193 C2205 0.950 . S
H2194 C2202 0.950 1_655 S
H2195 C2204 0.950 . S
H2196 C2206 0.950 . S
H2197 C2208 0.950 . S
H2198 C2210 0.950 1_655 S
H2199 C2211 0.950 1_655 S
C2200 H2192 0.950 1_455 S
C2200 C2201 1.386 . S
C2200 C2202 1.391 . S
C2201 C2200 1.386 . S
C2201 C2205 1.393 . S
C2202 H2194 0.950 1_455 S
C2202 C2200 1.391 . S
C2202 C2203 1.400 . S
C2203 C2202 1.400 . S
C2203 C2204 1.398 . S
C2203 C2209 1.491 . S
C2204 H2195 0.950 . S
C2204 C2203 1.398 . S
C2204 C2205 1.391 . S
C2205 H2193 0.950 . S
C2205 C2201 1.393 . S
C2205 C2204 1.391 . S
C2206 H2196 0.950 . S
C2206 C2207 1.386 . S
C2206 C2208 1.391 . S
C2207 C2206 1.386 . S
C2207 C2211 1.393 . S
C2208 H2197 0.950 . S
C2208 C2206 1.391 . S
C2208 C2209 1.400 . S
C2209 C2203 1.491 . S
C2209 C2208 1.400 . S
C2209 C2210 1.398 . S
C2210 H2198 0.950 1_455 S
C2210 C2209 1.398 . S
C2210 C2211 1.391 . S
C2211 H2199 0.950 1_455 S
C2211 C2207 1.393 . S
C2211 C2210 1.391 . S
H2212 C2220 0.950 . S
H2213 C2225 0.950 . S
H2214 C2222 0.950 . S
H2215 C2224 0.950 . S
H2216 C2226 0.950 . S
H2217 C2228 0.950 . S
H2218 C2230 0.950 . S
H2219 C2231 0.950 . S
C2220 H2212 0.950 . S
C2220 C2221 1.386 . S
C2220 C2222 1.391 . S
C2221 C2220 1.386 . S
C2221 C2225 1.393 . S
C2222 H2214 0.950 . S
C2222 C2220 1.391 . S
C2222 C2223 1.400 . S
C2223 C2222 1.400 . S
C2223 C2224 1.398 . S
C2223 C2229 1.491 . S
C2224 H2215 0.950 . S
C2224 C2223 1.398 . S
C2224 C2225 1.391 . S
C2225 H2213 0.950 . S
C2225 C2221 1.393 . S
C2225 C2224 1.391 . S
C2226 H2216 0.950 . S
C2226 C2227 1.386 . S
C2226 C2228 1.391 . S
C2227 C2226 1.386 . S
C2227 C2231 1.393 . S
C2228 H2217 0.950 . S
C2228 C2226 1.391 . S
C2228 C2229 1.400 . S
C2229 C2223 1.491 . S
C2229 C2228 1.400 . S
C2229 C2230 1.398 . S
C2230 H2218 0.950 . S
C2230 C2229 1.398 . S
C2230 C2231 1.391 . S
C2231 H2219 0.950 . S
C2231 C2227 1.393 . S
C2231 C2230 1.391 . S
H2232 C2240 0.950 . S
H2233 C2245 0.950 . S
H2234 C2242 0.950 . S
H2235 C2244 0.950 . S
H2236 C2246 0.950 . S
H2237 C2248 0.950 . S
H2238 C2250 0.950 . S
H2239 C2251 0.950 . S
C2240 H2232 0.950 . S
C2240 C2241 1.386 . S
C2240 C2242 1.391 . S
C2241 C2240 1.386 . S
C2241 C2245 1.393 . S
C2242 H2234 0.950 . S
C2242 C2240 1.391 . S
C2242 C2243 1.400 . S
C2243 C2242 1.400 . S
C2243 C2244 1.398 . S
C2243 C2249 1.491 . S
C2244 H2235 0.950 . S
C2244 C2243 1.398 . S
C2244 C2245 1.391 . S
C2245 H2233 0.950 . S
C2245 C2241 1.393 . S
C2245 C2244 1.391 . S
C2246 H2236 0.950 . S
C2246 C2247 1.386 . S
C2246 C2248 1.391 . S
C2247 C2246 1.386 . S
C2247 C2251 1.393 . S
C2248 H2237 0.950 . S
C2248 C2246 1.391 . S
C2248 C2249 1.400 . S
C2249 C2243 1.491 . S
C2249 C2248 1.400 . S
C2249 C2250 1.398 . S
C2250 H2238 0.950 . S
C2250 C2249 1.398 . S
C2250 C2251 1.391 . S
C2251 H2239 0.950 . S
C2251 C2247 1.393 . S
C2251 C2250 1.391 . S
H2252 C2260 0.950 . S
H2253 C2265 0.950 . S
H2254 C2262 0.950 . S
H2255 C2264 0.950 . S
H2256 C2266 0.950 . S
H2257 C2268 0.950 . S
H2258 C2270 0.950 . S
H2259 C2271 0.950 . S
C2260 H2252 0.950 . S
C2260 C2261 1.386 . S
C2260 C2262 1.391 . S
C2261 C2260 1.386 . S
C2261 C2265 1.393 . S
C2262 H2254 0.950 . S
C2262 C2260 1.391 . S
C2262 C2263 1.400 . S
C2263 C2262 1.400 . S
C2263 C2264 1.398 . S
C2263 C2269 1.491 . S
C2264 H2255 0.950 . S
C2264 C2263 1.398 . S
C2264 C2265 1.391 . S
C2265 H2253 0.950 . S
C2265 C2261 1.393 . S
C2265 C2264 1.391 . S
C2266 H2256 0.950 . S
C2266 C2267 1.386 . S
C2266 C2268 1.391 . S
C2267 C2266 1.386 . S
C2267 C2271 1.393 . S
C2268 H2257 0.950 . S
C2268 C2266 1.391 . S
C2268 C2269 1.400 . S
C2269 C2263 1.491 . S
C2269 C2268 1.400 . S
C2269 C2270 1.398 . S
C2270 H2258 0.950 . S
C2270 C2269 1.398 . S
C2270 C2271 1.391 . S
C2271 H2259 0.950 . S
C2271 C2267 1.393 . S
C2271 C2270 1.391 . S
H2272 C2280 0.950 . S
H2273 C2285 0.950 . S
H2274 C2282 0.950 . S
H2275 C2284 0.950 . S
H2276 C2286 0.950 . S
H2277 C2288 0.948 . S
H2278 C2290 0.950 . S
H2279 C2291 0.950 . S
C2280 H2272 0.950 . S
C2280 C2281 1.386 . S
C2280 C2282 1.391 . S
C2281 C2280 1.386 . S
C2281 C2285 1.393 . S
C2282 H2274 0.950 . S
C2282 C2280 1.391 . S
C2282 C2283 1.400 . S
C2283 C2282 1.400 . S
C2283 C2284 1.398 . S
C2283 C2289 1.491 . S
C2284 H2275 0.950 . S
C2284 C2283 1.398 . S
C2284 C2285 1.391 . S
C2285 H2273 0.950 . S
C2285 C2281 1.393 . S
C2285 C2284 1.391 . S
C2286 H2276 0.950 . S
C2286 C2287 1.386 1_455 S
C2286 C2288 1.391 1_455 S
C2287 C2286 1.386 1_655 S
C2287 C2291 1.393 . S
C2288 H2277 0.948 . S
C2288 C2286 1.391 1_655 S
C2288 C2289 1.400 . S
C2289 C2283 1.491 . S
C2289 C2288 1.400 . S
C2289 C2290 1.398 . S
C2290 H2278 0.950 . S
C2290 C2289 1.398 . S
C2290 C2291 1.391 . S
C2291 H2279 0.950 . S
C2291 C2287 1.393 . S
C2291 C2290 1.391 . S
H2292 C2300 0.950 . S
H2293 C2305 0.950 . S
H2294 C2302 0.950 . S
H2295 C2304 0.950 . S
H2296 C2306 0.950 . S
H2297 C2308 0.950 . S
H2298 C2310 0.950 . S
H2299 C2311 0.950 . S
C2300 H2292 0.950 . S
C2300 C2301 1.386 . S
C2300 C2302 1.391 . S
C2301 C2300 1.386 . S
C2301 C2305 1.393 . S
C2302 H2294 0.950 . S
C2302 C2300 1.391 . S
C2302 C2303 1.400 . S
C2303 C2302 1.400 . S
C2303 C2304 1.398 . S
C2303 C2309 1.491 . S
C2304 H2295 0.950 . S
C2304 C2303 1.398 . S
C2304 C2305 1.391 . S
C2305 H2293 0.950 . S
C2305 C2301 1.393 . S
C2305 C2304 1.391 . S
C2306 H2296 0.950 . S
C2306 C2307 1.386 . S
C2306 C2308 1.391 . S
C2307 C2306 1.386 . S
C2307 C2311 1.393 . S
C2308 H2297 0.950 . S
C2308 C2306 1.391 . S
C2308 C2309 1.400 . S
C2309 C2303 1.491 . S
C2309 C2308 1.400 . S
C2309 C2310 1.398 . S
C2310 H2298 0.950 . S
C2310 C2309 1.398 . S
C2310 C2311 1.391 . S
C2311 H2299 0.950 . S
C2311 C2307 1.393 . S
C2311 C2310 1.391 . S
H2312 C2320 0.950 . S
H2313 C2325 0.950 . S
H2314 C2322 0.950 . S
H2315 C2324 0.950 . S
H2316 C2326 0.950 . S
H2317 C2328 0.950 . S
H2318 C2330 0.950 . S
H2319 C2331 0.950 . S
C2320 H2312 0.950 . S
C2320 C2321 1.386 . S
C2320 C2322 1.391 . S
C2321 C2320 1.386 . S
C2321 C2325 1.393 . S
C2322 H2314 0.950 . S
C2322 C2320 1.391 . S
C2322 C2323 1.400 . S
C2323 C2322 1.400 . S
C2323 C2324 1.398 . S
C2323 C2329 1.491 . S
C2324 H2315 0.950 . S
C2324 C2323 1.398 . S
C2324 C2325 1.391 . S
C2325 H2313 0.950 . S
C2325 C2321 1.393 . S
C2325 C2324 1.391 . S
C2326 H2316 0.950 . S
C2326 C2327 1.386 . S
C2326 C2328 1.391 . S
C2327 C2326 1.386 . S
C2327 C2331 1.393 . S
C2328 H2317 0.950 . S
C2328 C2326 1.391 . S
C2328 C2329 1.400 . S
C2329 C2323 1.491 . S
C2329 C2328 1.400 . S
C2329 C2330 1.398 . S
C2330 H2318 0.950 . S
C2330 C2329 1.398 . S
C2330 C2331 1.391 . S
C2331 H2319 0.950 . S
C2331 C2327 1.393 . S
C2331 C2330 1.391 . S
H2332 C2340 0.950 . S
H2333 C2345 0.950 . S
H2334 C2342 0.950 . S
H2335 C2344 0.950 . S
H2336 C2346 0.950 . S
H2337 C2348 0.950 . S
H2338 C2350 0.950 . S
H2339 C2351 0.950 . S
C2340 H2332 0.950 . S
C2340 C2341 1.386 . S
C2340 C2342 1.391 . S
C2341 C2340 1.386 . S
C2341 C2345 1.393 . S
C2342 H2334 0.950 . S
C2342 C2340 1.391 . S
C2342 C2343 1.400 . S
C2343 C2342 1.400 . S
C2343 C2344 1.398 . S
C2343 C2349 1.491 . S
C2344 H2335 0.950 . S
C2344 C2343 1.398 . S
C2344 C2345 1.391 . S
C2345 H2333 0.950 . S
C2345 C2341 1.393 . S
C2345 C2344 1.391 . S
C2346 H2336 0.950 . S
C2346 C2347 1.386 . S
C2346 C2348 1.391 . S
C2347 C2346 1.386 . S
C2347 C2351 1.393 . S
C2348 H2337 0.950 . S
C2348 C2346 1.391 . S
C2348 C2349 1.400 . S
C2349 C2343 1.491 . S
C2349 C2348 1.400 . S
C2349 C2350 1.398 . S
C2350 H2338 0.950 . S
C2350 C2349 1.398 . S
C2350 C2351 1.391 . S
C2351 H2339 0.950 . S
C2351 C2347 1.393 . S
C2351 C2350 1.391 . S
H2352 C2360 0.950 . S
H2353 C2365 0.950 . S
H2354 C2362 0.950 . S
H2355 C2364 0.950 . S
H2356 C2366 0.950 1_455 S
H2357 C2368 0.950 . S
H2358 C2370 0.950 . S
H2359 C2371 0.950 . S
C2360 H2352 0.950 . S
C2360 C2361 1.386 . S
C2360 C2362 1.391 . S
C2361 C2360 1.386 . S
C2361 C2365 1.393 . S
C2362 H2354 0.950 . S
C2362 C2360 1.391 . S
C2362 C2363 1.400 . S
C2363 C2362 1.400 . S
C2363 C2364 1.398 . S
C2363 C2369 1.491 . S
C2364 H2355 0.950 . S
C2364 C2363 1.398 . S
C2364 C2365 1.391 . S
C2365 H2353 0.950 . S
C2365 C2361 1.393 . S
C2365 C2364 1.391 . S
C2366 H2356 0.950 1_655 S
C2366 C2367 1.386 . S
C2366 C2368 1.391 . S
C2367 C2366 1.386 . S
C2367 C2371 1.393 . S
C2368 H2357 0.950 . S
C2368 C2366 1.391 . S
C2368 C2369 1.400 . S
C2369 C2363 1.491 . S
C2369 C2368 1.400 . S
C2369 C2370 1.398 . S
C2370 H2358 0.950 . S
C2370 C2369 1.398 . S
C2370 C2371 1.391 . S
C2371 H2359 0.950 . S
C2371 C2367 1.393 . S
C2371 C2370 1.391 . S
H2372 C2380 0.950 . S
H2373 C2385 0.950 . S
H2374 C2382 0.950 . S
H2375 C2384 0.950 . S
H2376 C2386 0.950 . S
H2377 C2388 0.950 . S
H2378 C2390 0.950 . S
H2379 C2391 0.950 . S
C2380 H2372 0.950 . S
C2380 C2381 1.386 . S
C2380 C2382 1.391 . S
C2381 C2380 1.386 . S
C2381 C2385 1.393 . S
C2382 H2374 0.950 . S
C2382 C2380 1.391 . S
C2382 C2383 1.400 . S
C2383 C2382 1.400 . S
C2383 C2384 1.398 . S
C2383 C2389 1.491 . S
C2384 H2375 0.950 . S
C2384 C2383 1.398 . S
C2384 C2385 1.391 . S
C2385 H2373 0.950 . S
C2385 C2381 1.393 . S
C2385 C2384 1.391 . S
C2386 H2376 0.950 . S
C2386 C2387 1.386 . S
C2386 C2388 1.391 . S
C2387 C2386 1.386 . S
C2387 C2391 1.393 . S
C2388 H2377 0.950 . S
C2388 C2386 1.391 . S
C2388 C2389 1.400 . S
C2389 C2383 1.491 . S
C2389 C2388 1.400 . S
C2389 C2390 1.398 . S
C2390 H2378 0.950 . S
C2390 C2389 1.398 . S
C2390 C2391 1.391 . S
C2391 H2379 0.950 . S
C2391 C2387 1.393 . S
C2391 C2390 1.391 . S
H2392 C2400 0.950 . S
H2393 C2405 0.950 . S
H2394 C2402 0.950 . S
H2395 C2404 0.950 . S
H2396 C2406 0.950 . S
H2397 C2408 0.950 . S
H2398 C2410 0.950 . S
H2399 C2411 0.950 . S
C2400 H2392 0.950 . S
C2400 C2401 1.386 . S
C2400 C2402 1.391 . S
C2401 C2400 1.386 . S
C2401 C2405 1.393 . S
C2402 H2394 0.950 . S
C2402 C2400 1.391 . S
C2402 C2403 1.400 . S
C2403 C2402 1.400 . S
C2403 C2404 1.398 . S
C2403 C2409 1.491 . S
C2404 H2395 0.950 . S
C2404 C2403 1.398 . S
C2404 C2405 1.391 . S
C2405 H2393 0.950 . S
C2405 C2401 1.393 . S
C2405 C2404 1.391 . S
C2406 H2396 0.950 . S
C2406 C2407 1.386 . S
C2406 C2408 1.391 . S
C2407 C2406 1.386 . S
C2407 C2411 1.393 . S
C2408 H2397 0.950 . S
C2408 C2406 1.391 . S
C2408 C2409 1.400 . S
C2409 C2403 1.491 . S
C2409 C2408 1.400 . S
C2409 C2410 1.398 . S
C2410 H2398 0.950 . S
C2410 C2409 1.398 . S
C2410 C2411 1.391 . S
C2411 H2399 0.950 . S
C2411 C2407 1.393 . S
C2411 C2410 1.391 . S
H2412 C2420 0.950 . S
H2413 C2425 0.950 . S
H2414 C2422 0.950 . S
H2415 C2424 0.950 . S
H2416 C2426 0.950 1_545 S
H2417 C2428 0.950 . S
H2418 C2430 0.950 . S
H2419 C2431 0.950 . S
C2420 H2412 0.950 . S
C2420 C2421 1.386 . S
C2420 C2422 1.391 . S
C2421 C2420 1.386 . S
C2421 C2425 1.393 . S
C2422 H2414 0.950 . S
C2422 C2420 1.391 . S
C2422 C2423 1.400 . S
C2423 C2422 1.400 . S
C2423 C2424 1.398 . S
C2423 C2429 1.491 . S
C2424 H2415 0.950 . S
C2424 C2423 1.398 . S
C2424 C2425 1.391 . S
C2425 H2413 0.950 . S
C2425 C2421 1.393 . S
C2425 C2424 1.391 . S
C2426 H2416 0.950 1_565 S
C2426 C2427 1.380 . S
C2426 C2428 1.391 . S
C2427 C2426 1.380 . S
C2427 C2431 1.413 . S
C2428 H2417 0.950 . S
C2428 C2426 1.391 . S
C2428 C2429 1.400 . S
C2429 C2423 1.491 . S
C2429 C2428 1.400 . S
C2429 C2430 1.398 . S
C2430 H2418 0.950 . S
C2430 C2429 1.398 . S
C2430 C2431 1.391 . S
C2431 H2419 0.950 . S
C2431 C2427 1.413 . S
C2431 C2430 1.391 . S
H2432 C2440 0.950 . S
H2433 C2445 0.950 . S
H2434 C2442 0.950 . S
H2435 C2444 0.950 . S
H2436 C2446 0.950 . S
H2437 C2448 0.950 . S
H2438 C2450 0.950 . S
H2439 C2451 0.950 . S
C2440 H2432 0.950 . S
C2440 C2441 1.386 . S
C2440 C2442 1.391 . S
C2441 C2440 1.386 . S
C2441 C2445 1.393 . S
C2442 H2434 0.950 . S
C2442 C2440 1.391 . S
C2442 C2443 1.400 . S
C2443 C2442 1.400 . S
C2443 C2444 1.398 . S
C2443 C2449 1.491 . S
C2444 H2435 0.950 . S
C2444 C2443 1.398 . S
C2444 C2445 1.391 . S
C2445 H2433 0.950 . S
C2445 C2441 1.393 . S
C2445 C2444 1.391 . S
C2446 H2436 0.950 . S
C2446 C2447 1.386 . S
C2446 C2448 1.391 . S
C2447 C2446 1.386 . S
C2447 C2451 1.393 . S
C2448 H2437 0.950 . S
C2448 C2446 1.391 . S
C2448 C2449 1.400 . S
C2449 C2443 1.491 . S
C2449 C2448 1.400 . S
C2449 C2450 1.398 . S
C2450 H2438 0.950 . S
C2450 C2449 1.398 . S
C2450 C2451 1.391 . S
C2451 H2439 0.950 . S
C2451 C2447 1.393 . S
C2451 C2450 1.391 . S
H2452 C2460 0.950 . S
H2453 C2465 0.950 . S
H2454 C2462 0.950 . S
H2455 C2464 0.950 . S
H2456 C2466 0.950 . S
H2457 C2468 0.950 . S
H2458 C2470 0.950 . S
H2459 C2471 0.950 . S
C2460 H2452 0.950 . S
C2460 C2461 1.386 . S
C2460 C2462 1.391 . S
C2461 C2460 1.386 . S
C2461 C2465 1.393 1_556 S
C2462 H2454 0.950 . S
C2462 C2460 1.391 . S
C2462 C2463 1.400 1_556 S
C2463 C2462 1.400 1_554 S
C2463 C2464 1.398 . S
C2463 C2469 1.491 . S
C2464 H2455 0.950 . S
C2464 C2463 1.398 . S
C2464 C2465 1.391 . S
C2465 H2453 0.950 . S
C2465 C2461 1.393 1_554 S
C2465 C2464 1.391 . S
C2466 H2456 0.950 . S
C2466 C2467 1.386 . S
C2466 C2468 1.391 . S
C2467 C2466 1.386 . S
C2467 C2471 1.393 1_554 S
C2468 H2457 0.950 . S
C2468 C2466 1.391 . S
C2468 C2469 1.400 . S
C2469 C2463 1.491 . S
C2469 C2468 1.400 . S
C2469 C2470 1.398 1_554 S
C2470 H2458 0.950 . S
C2470 C2469 1.398 1_556 S
C2470 C2471 1.391 . S
C2471 H2459 0.950 . S
C2471 C2467 1.393 1_556 S
C2471 C2470 1.391 . S
H2472 C2480 0.950 . S
H2473 C2485 0.950 . S
H2474 C2482 0.950 . S
H2475 C2484 0.950 . S
H2476 C2486 0.950 . S
H2477 C2488 0.950 . S
H2478 C2490 0.950 . S
H2479 C2491 0.950 . S
C2480 H2472 0.950 . S
C2480 C2481 1.386 . S
C2480 C2482 1.391 . S
C2481 C2480 1.386 . S
C2481 C2485 1.393 . S
C2482 H2474 0.950 . S
C2482 C2480 1.391 . S
C2482 C2483 1.400 . S
C2483 C2482 1.400 . S
C2483 C2484 1.398 . S
C2483 C2489 1.491 . S
C2484 H2475 0.950 . S
C2484 C2483 1.398 . S
C2484 C2485 1.391 . S
C2485 H2473 0.950 . S
C2485 C2481 1.393 . S
C2485 C2484 1.391 . S
C2486 H2476 0.950 . S
C2486 C2487 1.386 . S
C2486 C2488 1.391 . S
C2487 C2486 1.386 . S
C2487 C2491 1.393 . S
C2488 H2477 0.950 . S
C2488 C2486 1.391 . S
C2488 C2489 1.400 . S
C2489 C2483 1.491 . S
C2489 C2488 1.400 . S
C2489 C2490 1.398 . S
C2490 H2478 0.950 . S
C2490 C2489 1.398 . S
C2490 C2491 1.391 . S
C2491 H2479 0.950 . S
C2491 C2487 1.393 . S
C2491 C2490 1.391 . S
H2492 C2500 0.950 . S
H2493 C2505 0.950 . S
H2494 C2502 0.950 . S
H2495 C2504 0.950 . S
H2496 C2506 0.950 . S
H2497 C2508 0.950 . S
H2498 C2510 0.950 . S
H2499 C2511 0.950 . S
C2500 H2492 0.950 . S
C2500 C2501 1.386 . S
C2500 C2502 1.391 . S
C2501 C2500 1.386 . S
C2501 C2505 1.393 1_554 S
C2502 H2494 0.950 . S
C2502 C2500 1.391 . S
C2502 C2503 1.399 . S
C2503 C2502 1.399 . S
C2503 C2504 1.399 1_554 S
C2503 C2509 1.491 1_554 S
C2504 H2495 0.950 . S
C2504 C2503 1.399 1_556 S
C2504 C2505 1.391 . S
C2505 H2493 0.950 . S
C2505 C2501 1.393 1_556 S
C2505 C2504 1.391 . S
C2506 H2496 0.950 . S
C2506 C2507 1.386 . S
C2506 C2508 1.391 . S
C2507 C2506 1.386 . S
C2507 C2511 1.393 1_556 S
C2508 H2497 0.950 . S
C2508 C2506 1.391 . S
C2508 C2509 1.400 . S
C2509 C2503 1.491 1_556 S
C2509 C2508 1.400 . S
C2509 C2510 1.398 1_556 S
C2510 H2498 0.950 . S
C2510 C2509 1.398 1_554 S
C2510 C2511 1.391 . S
C2511 H2499 0.950 . S
C2511 C2507 1.393 1_554 S
C2511 C2510 1.391 . S
H2512 C2520 0.950 . S
H2513 C2525 0.950 . S
H2514 C2522 0.950 . S
H2515 C2524 0.950 . S
H2516 C2526 0.950 . S
H2517 C2528 0.950 . S
H2518 C2530 0.950 . S
H2519 C2531 0.950 . S
C2520 H2512 0.950 . S
C2520 C2521 1.386 . S
C2520 C2522 1.391 . S
C2521 C2520 1.386 . S
C2521 C2525 1.393 . S
C2522 H2514 0.950 . S
C2522 C2520 1.391 . S
C2522 C2523 1.400 . S
C2523 C2522 1.400 . S
C2523 C2524 1.398 . S
C2523 C2529 1.491 . S
C2524 H2515 0.950 . S
C2524 C2523 1.398 . S
C2524 C2525 1.391 . S
C2525 H2513 0.950 . S
C2525 C2521 1.393 . S
C2525 C2524 1.391 . S
C2526 H2516 0.950 . S
C2526 C2527 1.386 . S
C2526 C2528 1.391 . S
C2527 C2526 1.386 . S
C2527 C2531 1.393 . S
C2528 H2517 0.950 . S
C2528 C2526 1.391 . S
C2528 C2529 1.400 . S
C2529 C2523 1.491 . S
C2529 C2528 1.400 . S
C2529 C2530 1.398 . S
C2530 H2518 0.950 . S
C2530 C2529 1.398 . S
C2530 C2531 1.391 . S
C2531 H2519 0.950 . S
C2531 C2527 1.393 . S
C2531 C2530 1.391 . S
H2532 C2540 0.950 . S
H2533 C2545 0.950 . S
H2534 C2542 0.950 . S
H2535 C2544 0.950 . S
H2536 C2546 0.950 . S
H2537 C2548 0.950 . S
H2538 C2550 0.950 . S
H2539 C2551 0.950 . S
C2540 H2532 0.950 . S
C2540 C2541 1.386 . S
C2540 C2542 1.391 . S
C2541 C2540 1.386 . S
C2541 C2545 1.393 . S
C2542 H2534 0.950 . S
C2542 C2540 1.391 . S
C2542 C2543 1.400 . S
C2543 C2542 1.400 . S
C2543 C2544 1.398 . S
C2543 C2549 1.491 . S
C2544 H2535 0.950 . S
C2544 C2543 1.398 . S
C2544 C2545 1.391 . S
C2545 H2533 0.950 . S
C2545 C2541 1.393 . S
C2545 C2544 1.391 . S
C2546 H2536 0.950 . S
C2546 C2547 1.386 . S
C2546 C2548 1.391 . S
C2547 C2546 1.386 . S
C2547 C2551 1.393 . S
C2548 H2537 0.950 . S
C2548 C2546 1.391 . S
C2548 C2549 1.400 . S
C2549 C2543 1.491 . S
C2549 C2548 1.400 . S
C2549 C2550 1.398 . S
C2550 H2538 0.950 . S
C2550 C2549 1.398 . S
C2550 C2551 1.391 . S
C2551 H2539 0.950 . S
C2551 C2547 1.393 . S
C2551 C2550 1.391 . S
C641 C101 1.607 . S
C647 C330 1.571 . S
C661 C57 1.587 . S
C667 C341 1.609 . S
C681 C73 1.028 . S
C687 C370 1.063 . S
C707 C373 1.401 . S
C701 C78 1.378 . S
C721 C21 1.631 . S
C727 C411 1.619 . S
C747 C414 0.984 . S
C741 C31 0.960 . S
C767 C441 1.502 . S
C761 C49 1.504 . S
C781 C0 1.582 . S
C787 C470 1.570 . S
C807 C321 1.533 1_655 S
C801 C218 1.536 . S
C821 C229 0.823 . S
C827 C333 0.837 . S
C847 C361 1.556 . S
C841 C257 1.579 . S
C867 C390 1.125 . S
C861 C164 1.086 . S
C881 C216 0.946 . S
C887 C394 0.986 . S
C907 C420 1.602 . S
C901 C231 1.628 . S
C927 C433 0.754 . S
C921 C255 0.762 . S
C947 C461 1.578 . S
C941 C166 1.595 . S
C967 C313 1.477 1_565 S
C961 C143 1.450 . S
C981 C265 1.693 . S
C987 C480 1.711 . S
C1007 C511 1.456 . S
C1001 C299 1.472 . S
C1027 C530 0.958 . S
C1021 C291 0.969 . S
C1041 C104 1.222 . S
C1047 C453 1.252 . S
C1061 C117 1.406 . S
C1067 C353 1.434 . S
C1081 C304 1.495 . S
C1087 C541 1.528 . S
C1107 C570 0.860 . S
C1101 C278 0.851 . S
C1127 C331 1.542 . S
C1121 C60 1.557 . S
C1147 C560 1.543 . S
C1141 C96 1.534 . S
C1161 C88 0.988 . S
C1167 C371 0.957 . S
C1181 C65 1.328 . S
C1187 C534 1.354 . S
C1207 C410 1.556 . S
C1201 C10 1.589 . S
C1221 C44 0.901 . S
C1227 C493 0.944 . S
C1247 C440 1.430 1_556 S
C1241 C34 1.391 . S
C1267 C591 1.509 . S
C1261 C13 1.562 . S
C1287 C320 1.485 . S
C1281 C138 1.453 1_565 S
C1307 C554 0.763 . S
C1301 C296 0.784 . S
C1321 C112 1.471 . S
C1327 C360 1.517 . S
C1341 C270 1.049 . S
C1347 C551 1.043 . S
C1361 C140 0.893 . S
C1367 C393 0.905 . S
C1387 C501 1.548 . S
C1381 C294 1.533 . S
C1401 C114 0.665 . S
C1407 C434 0.678 1_565 S
C1421 C268 1.494 . S
C1427 C580 1.531 . S
C1441 C169 1.436 1_556 S
C1447 C314 1.437 . S
C1461 C161 1.653 . S
C1467 C481 1.667 . S
C1481 C234 1.466 . S
C1487 C430 1.409 . S
C1501 C226 0.882 . S
C1507 C531 0.853 . S
C1527 C574 1.233 . S
C1521 C247 1.235 . S
C1541 C195 1.409 . S
C1547 C354 1.407 . S
C1567 C380 1.470 . S
C1561 C239 1.460 . S
C1587 C351 0.802 . S
C1581 C187 0.766 . S
C1601 C75 1.610 . S
C1607 C610 1.574 . S
C1627 C561 1.602 . S
C1621 C83 1.576 . S
C1641 C99 1.061 . S
C1647 C630 1.048 . S
C1661 C52 1.372 . S
C1667 C533 1.398 . S
C1681 C47 1.644 . S
C1687 C491 1.624 . S
C1707 C494 0.983 . S
C1701 C5 0.962 . S
C1727 C521 1.490 . S
C1721 C23 1.504 . S
C1747 C590 1.579 . S
C1741 C26 1.573 . S
C1767 C601 1.538 . S
C1761 C244 1.532 . S
C1781 C177 0.831 . S
C1787 C553 0.840 . S
C1807 C621 1.568 . S
C1801 C192 1.574 . S
C1827 C550 1.133 . S
C1821 C203 1.101 . S
C1847 C474 0.993 . S
C1841 C242 0.925 . S
C1861 C179 1.624 . S
C1867 C500 1.604 . S
C1887 C513 0.767 . S
C1881 C190 0.776 . S
C1901 C205 1.595 . S
C1907 C581 1.577 . S
C1927 C593 1.470 . S
C1921 C286 1.441 . S
C1941 C122 1.697 . S
C1947 C400 1.720 . S
C1967 C431 1.429 . S
C1961 C130 1.457 . S
C1987 C450 0.958 . S
C1981 C148 0.970 . S
C2007 C573 1.261 . S
C2001 C273 1.235 . S
C2021 C260 1.409 . S
C2027 C613 1.438 . S
C2047 C381 1.538 . S
C2041 C135 1.511 . S
C2067 C350 0.864 . S
C2061 C109 0.842 . S
C2081 C86 1.565 . S
C2087 C611 1.524 . S
C2107 C340 1.546 . S
C2101 C70 1.539 . S
C2121 C62 0.989 . S
C2127 C631 0.959 . S
C2141 C91 1.324 . S
C2147 C374 1.346 . S
C2161 C36 1.594 . S
C2167 C490 1.554 . S
C2187 C413 0.943 . S
C2181 C18 0.898 . S
C2201 C8 1.391 . S
C2207 C520 1.431 . S
C2221 C39 1.560 . S
C2227 C471 1.532 . S
C2247 C600 1.489 . S
C2241 C307 1.467 . S
C2261 C153 0.769 . S
C2267 C334 0.759 . S
C2287 C620 1.517 1_655 S
C2281 C281 1.473 . S
C2301 C127 1.045 . S
C2307 C391 1.047 . S
C2321 C309 0.916 . S
C2327 C473 0.908 . S
C2347 C421 1.557 . S
C2341 C151 1.544 . S
C2361 C283 0.687 . S
C2367 C514 0.695 . S
C2387 C460 1.519 . S
C2381 C125 1.502 . S
C2407 C594 1.446 . S
C2401 C221 1.435 . S
C2427 C401 1.648 1_565 S
C2421 C200 1.656 . S
C2441 C208 1.466 . S
C2447 C510 1.411 . S
C2467 C451 0.854 . S
C2461 C174 0.875 1_556 S
C2481 C182 1.243 . S
C2487 C454 1.217 . S
C2501 C156 1.411 . S
C2507 C614 1.386 . S
C2527 C540 1.464 . S
C2521 C213 1.453 . S
C2547 C571 0.758 . S
C2541 C252 0.791 . S
