# Generated by pormake.
# Topology soc, (4,6)-cn, num edge types: 1
# Building blocks:
#     Node 0, Type 0, BuildingBlock: ESEHIV_clean_sbu_0, # of connection points: 4
#     Node 1, Type 0, BuildingBlock: ESEHIV_clean_sbu_0, # of connection points: 4
#     Node 2, Type 0, BuildingBlock: ESEHIV_clean_sbu_0, # of connection points: 4
#     Node 3, Type 0, BuildingBlock: ESEHIV_clean_sbu_0, # of connection points: 4
#     Node 4, Type 0, BuildingBlock: ESEHIV_clean_sbu_0, # of connection points: 4
#     Node 5, Type 0, BuildingBlock: ESEHIV_clean_sbu_0, # of connection points: 4
#     Node 6, Type 0, BuildingBlock: ESEHIV_clean_sbu_0, # of connection points: 4
#     Node 7, Type 0, BuildingBlock: ESEHIV_clean_sbu_0, # of connection points: 4
#     Node 8, Type 0, BuildingBlock: ESEHIV_clean_sbu_0, # of connection points: 4
#     Node 9, Type 0, BuildingBlock: ESEHIV_clean_sbu_0, # of connection points: 4
#     Node 10, Type 0, BuildingBlock: ESEHIV_clean_sbu_0, # of connection points: 4
#     Node 11, Type 0, BuildingBlock: ESEHIV_clean_sbu_0, # of connection points: 4
#     Node 12, Type 1, BuildingBlock: CUKXOW_clean_sbu_0, # of connection points: 6
#     Node 13, Type 1, BuildingBlock: CUKXOW_clean_sbu_0, # of connection points: 6
#     Node 14, Type 1, BuildingBlock: CUKXOW_clean_sbu_0, # of connection points: 6
#     Node 15, Type 1, BuildingBlock: CUKXOW_clean_sbu_0, # of connection points: 6
#     Node 16, Type 1, BuildingBlock: CUKXOW_clean_sbu_0, # of connection points: 6
#     Node 17, Type 1, BuildingBlock: CUKXOW_clean_sbu_0, # of connection points: 6
#     Node 18, Type 1, BuildingBlock: CUKXOW_clean_sbu_0, # of connection points: 6
#     Node 19, Type 1, BuildingBlock: CUKXOW_clean_sbu_0, # of connection points: 6
#     Edge 20, Type (0, 1), BuildingBlock: XUDNAN_clean_linker_2, # of connection points: 2
#     Edge 21, Type (0, 1), BuildingBlock: XUDNAN_clean_linker_2, # of connection points: 2
#     Edge 22, Type (0, 1), BuildingBlock: XUDNAN_clean_linker_2, # of connection points: 2
#     Edge 23, Type (0, 1), BuildingBlock: XUDNAN_clean_linker_2, # of connection points: 2
#     Edge 24, Type (0, 1), BuildingBlock: XUDNAN_clean_linker_2, # of connection points: 2
#     Edge 25, Type (0, 1), BuildingBlock: XUDNAN_clean_linker_2, # of connection points: 2
#     Edge 26, Type (0, 1), BuildingBlock: XUDNAN_clean_linker_2, # of connection points: 2
#     Edge 27, Type (0, 1), BuildingBlock: XUDNAN_clean_linker_2, # of connection points: 2
#     Edge 28, Type (0, 1), BuildingBlock: XUDNAN_clean_linker_2, # of connection points: 2
#     Edge 29, Type (0, 1), BuildingBlock: XUDNAN_clean_linker_2, # of connection points: 2
#     Edge 30, Type (0, 1), BuildingBlock: XUDNAN_clean_linker_2, # of connection points: 2
#     Edge 31, Type (0, 1), BuildingBlock: XUDNAN_clean_linker_2, # of connection points: 2
#     Edge 32, Type (0, 1), BuildingBlock: XUDNAN_clean_linker_2, # of connection points: 2
#     Edge 33, Type (0, 1), BuildingBlock: XUDNAN_clean_linker_2, # of connection points: 2
#     Edge 34, Type (0, 1), BuildingBlock: XUDNAN_clean_linker_2, # of connection points: 2
#     Edge 35, Type (0, 1), BuildingBlock: XUDNAN_clean_linker_2, # of connection points: 2
#     Edge 36, Type (0, 1), BuildingBlock: XUDNAN_clean_linker_2, # of connection points: 2
#     Edge 37, Type (0, 1), BuildingBlock: XUDNAN_clean_linker_2, # of connection points: 2
#     Edge 38, Type (0, 1), BuildingBlock: XUDNAN_clean_linker_2, # of connection points: 2
#     Edge 39, Type (0, 1), BuildingBlock: XUDNAN_clean_linker_2, # of connection points: 2
#     Edge 40, Type (0, 1), BuildingBlock: XUDNAN_clean_linker_2, # of connection points: 2
#     Edge 41, Type (0, 1), BuildingBlock: XUDNAN_clean_linker_2, # of connection points: 2
#     Edge 42, Type (0, 1), BuildingBlock: XUDNAN_clean_linker_2, # of connection points: 2
#     Edge 43, Type (0, 1), BuildingBlock: XUDNAN_clean_linker_2, # of connection points: 2
#     Edge 44, Type (0, 1), BuildingBlock: XUDNAN_clean_linker_2, # of connection points: 2
#     Edge 45, Type (0, 1), BuildingBlock: XUDNAN_clean_linker_2, # of connection points: 2
#     Edge 46, Type (0, 1), BuildingBlock: XUDNAN_clean_linker_2, # of connection points: 2
#     Edge 47, Type (0, 1), BuildingBlock: XUDNAN_clean_linker_2, # of connection points: 2
#     Edge 48, Type (0, 1), BuildingBlock: XUDNAN_clean_linker_2, # of connection points: 2
#     Edge 49, Type (0, 1), BuildingBlock: XUDNAN_clean_linker_2, # of connection points: 2
#     Edge 50, Type (0, 1), BuildingBlock: XUDNAN_clean_linker_2, # of connection points: 2
#     Edge 51, Type (0, 1), BuildingBlock: XUDNAN_clean_linker_2, # of connection points: 2
#     Edge 52, Type (0, 1), BuildingBlock: XUDNAN_clean_linker_2, # of connection points: 2
#     Edge 53, Type (0, 1), BuildingBlock: XUDNAN_clean_linker_2, # of connection points: 2
#     Edge 54, Type (0, 1), BuildingBlock: XUDNAN_clean_linker_2, # of connection points: 2
#     Edge 55, Type (0, 1), BuildingBlock: XUDNAN_clean_linker_2, # of connection points: 2
#     Edge 56, Type (0, 1), BuildingBlock: XUDNAN_clean_linker_2, # of connection points: 2
#     Edge 57, Type (0, 1), BuildingBlock: XUDNAN_clean_linker_2, # of connection points: 2
#     Edge 58, Type (0, 1), BuildingBlock: XUDNAN_clean_linker_2, # of connection points: 2
#     Edge 59, Type (0, 1), BuildingBlock: XUDNAN_clean_linker_2, # of connection points: 2
#     Edge 60, Type (0, 1), BuildingBlock: XUDNAN_clean_linker_2, # of connection points: 2
#     Edge 61, Type (0, 1), BuildingBlock: XUDNAN_clean_linker_2, # of connection points: 2
#     Edge 62, Type (0, 1), BuildingBlock: XUDNAN_clean_linker_2, # of connection points: 2
#     Edge 63, Type (0, 1), BuildingBlock: XUDNAN_clean_linker_2, # of connection points: 2
#     Edge 64, Type (0, 1), BuildingBlock: XUDNAN_clean_linker_2, # of connection points: 2
#     Edge 65, Type (0, 1), BuildingBlock: XUDNAN_clean_linker_2, # of connection points: 2
#     Edge 66, Type (0, 1), BuildingBlock: XUDNAN_clean_linker_2, # of connection points: 2
#     Edge 67, Type (0, 1), BuildingBlock: XUDNAN_clean_linker_2, # of connection points: 2
# Relax obj value: 0.090
# Max RMSD: 0.171
# Mean RMSD: 0.144
data_MOF--net-soc--node1-ESEHIV_clean_sbu_0--node2-CUKXOW_clean_sbu_0--edge1-XUDNAN_clean_linker_2
_symmetry_space_group_name_H-M    P1
_symmetry_Int_Tables_number       1
_symmetry_cell_setting            triclinic
loop_
_symmetry_equiv_pos_as_xyz
'x, y, z'
_cell_length_a     43.601015
_cell_length_b     43.700658
_cell_length_c     45.168492
_cell_angle_alpha  95.788312
_cell_angle_beta   93.377031
_cell_angle_gamma 88.173124
loop_
_atom_site_label
_atom_site_type_symbol
_atom_site_fract_x
_atom_site_fract_y
_atom_site_fract_z
_atom_type_partial_charge
Cu0 Cu 0.05619 0.04741 0.27504 0.0
N1 N 0.08177 0.07521 0.29899 0.0
N2 N 0.11562 0.11336 0.30733 0.0
C3 C 0.09216 0.10117 0.28948 0.0
C4 C 0.12006 0.09439 0.32909 0.0
C5 C 0.09922 0.07095 0.32392 0.0
O6 O 0.08474 0.02046 0.25199 0.0
C7 C 1.00961 0.0894 0.27004 0.0
O8 O 1.01291 0.08727 0.29888 0.0
H9 H 0.08416 0.10966 0.2686 0.0
H10 H 0.09824 0.05123 0.33645 0.0
N11 N 1.03158 0.02175 0.29477 0.0
N12 N 0.99688 0.98568 0.29926 0.0
C13 C 1.00967 1.00347 0.2807 0.0
C14 C 1.03249 1.01551 0.32341 0.0
C15 C 1.01127 0.99318 0.32619 0.0
C16 C 0.09973 1.00156 0.26753 0.0
O17 O 0.09335 1.0012 0.29553 0.0
H18 H 1.00386 1.00267 0.25701 0.0
H19 H 0.04787 0.02596 0.34093 0.0
O20 O 1.02732 0.0729 0.25301 0.0
H21 H 0.13778 0.09672 0.34694 0.0
H22 H 1.00671 0.98335 0.3465 0.0
Cu23 Cu 0.04866 0.0425 0.72197 0.0
N24 N 1.02177 1.01667 0.69792 0.0
N25 N 0.98437 0.98236 0.68926 0.0
C26 C 0.99615 1.00569 0.70792 0.0
C27 C 1.00325 0.97859 0.66646 0.0
C28 C 1.02627 0.99985 0.67181 0.0
O29 O 1.0224 0.07322 0.74398 0.0
C30 C 0.09413 0.99814 0.72853 0.0
O31 O 0.09496 1.00246 0.70023 0.0
H32 H 0.98768 1.0131 0.72962 0.0
H33 H 0.04589 1.00159 0.65855 0.0
N34 N 0.0753 0.06483 0.70157 0.0
N35 N 0.11444 0.09541 0.69611 0.0
C36 C 0.10041 0.07879 0.71474 0.0
C37 C 0.07338 0.07272 0.67346 0.0
C38 C 0.09745 0.09174 0.67008 0.0
C39 C 1.00671 0.09083 0.72745 0.0
O40 O 1.00953 0.08659 0.69853 0.0
H41 H 0.10763 0.07755 0.73795 0.0
H42 H 0.0554 0.06574 0.65686 0.0
O43 O 0.07506 1.01449 0.74434 0.0
H44 H 1.00121 0.961 0.64783 0.0
H45 H 0.10203 0.10212 0.65007 0.0
Cu46 Cu 0.34936 0.03495 0.00327 0.0
N47 N 0.32195 1.00913 0.9808 0.0
N48 N 0.30737 0.96532 0.95485 0.0
C49 C 0.32721 0.97871 0.97586 0.0
C50 C 0.28821 0.98838 0.94682 0.0
C51 C 0.29729 1.01548 0.96294 0.0
O52 O 0.38127 1.00731 0.01762 0.0
C53 C 0.36465 0.06153 0.95125 0.0
O54 O 0.35839 0.03448 0.93716 0.0
H55 H 0.34636 0.96698 0.98653 0.0
H56 H 0.28796 0.03835 0.96038 0.0
N57 N 0.32991 0.05527 0.03538 0.0
N58 N 0.32235 0.0881 0.07547 0.0
C59 C 0.34044 0.07998 0.05264 0.0
C60 C 0.30401 0.04768 0.04735 0.0
C61 C 0.29919 0.06805 0.07213 0.0
C62 C 0.39421 1.01019 0.04365 0.0
O63 O 0.39249 0.03686 0.05974 0.0
H64 H 0.36131 0.09141 0.04881 0.0
H65 H 0.29007 0.02829 0.03904 0.0
O66 O 0.36384 0.06546 0.97949 0.0
H67 H 0.27038 0.98633 0.92908 0.0
H68 H 0.28077 0.0675 0.0871 0.0
Cu69 Cu 0.04781 0.31293 0.98554 0.0
N70 N 0.07237 0.29417 0.95597 0.0
N71 N 0.10477 0.29057 0.91912 0.0
C72 C 0.09279 0.30892 0.94167 0.0
C73 C 0.0913 0.2632 0.91932 0.0
C74 C 0.07122 0.26555 0.94192 0.0
O75 O 0.07357 0.33417 0.01696 0.0
C76 C 0.99843 0.32114 0.94897 0.0
O77 O 1.00381 0.29127 0.94573 0.0
H78 H 0.09829 0.33283 0.94745 0.0
H79 H 0.05587 0.24801 0.94669 0.0
N80 N 1.025 0.2856 0.00403 0.0
N81 N 0.98466 0.27158 0.02709 0.0
C82 C 0.99981 0.29516 0.01842 0.0
C83 C 1.02624 0.25475 0.00404 0.0
C84 C 1.00107 0.24599 0.01811 0.0
C85 C 0.09117 0.31578 0.03062 0.0
O86 O 0.09145 0.28644 0.02077 0.0
H87 H 0.9919 0.31897 0.02112 0.0
H88 H 0.0437 0.23962 -0.00588 0.0
O89 O 1.0169 0.33795 0.96588 0.0
H90 H 0.09471 0.24325 0.90351 0.0
H91 H 0.99514 0.22271 0.02124 0.0
Cu92 Cu 0.76752 0.0715 0.01591 0.0
N93 N 0.74193 0.10417 0.00599 0.0
N94 N 0.72395 0.14491 0.98387 0.0
C95 C 0.74776 0.12485 -0.01285 0.0
C96 C 0.70196 0.13606 0.00072 0.0
C97 C 0.7131 0.11078 0.01426 0.0
O98 O 0.81049 0.08201 0.01559 0.0
C99 C 0.77592 1.01404 0.97952 0.0
O100 O 0.79973 1.00877 -0.00233 0.0
H101 H 0.76889 0.12481 0.9757 0.0
H102 H 0.70085 0.09782 0.02875 0.0
N103 N 0.75909 0.06215 0.05389 0.0
N104 N 0.75771 0.039 0.09562 0.0
C105 C 0.76564 0.03617 0.06696 0.0
C106 C 0.74679 0.082 0.07496 0.0
C107 C 0.74565 0.06775 0.10056 0.0
C108 C 0.82499 0.1022 0.03286 0.0
O109 O 0.85463 0.10468 0.03039 0.0
H110 H 0.77686 1.01606 0.05599 0.0
H111 H 0.73983 0.10554 0.07217 0.0
O112 O 0.75917 0.03814 0.98486 0.0
H113 H 0.67949 0.147 0.00302 0.0
H114 H 0.73662 0.07785 0.12122 0.0
Cu115 Cu 0.05391 0.76254 0.01763 0.0
N116 N 1.03067 0.78389 -0.01006 0.0
N117 N 0.99943 0.79011 0.94972 0.0
C118 C 1.01423 0.76985 0.9666 0.0
C119 C 1.00687 0.81815 0.96317 0.0
C120 C 1.02623 0.81423 -0.01204 0.0
O121 O 1.02574 0.74858 0.04499 0.0
C122 C 0.10354 0.72324 -0.00325 0.0
O123 O 0.1186 0.73296 0.02174 0.0
H124 H 1.01291 0.74509 0.96243 0.0
H125 H 1.03633 0.83218 0.00339 0.0
N126 N 0.08355 0.78676 0.03968 0.0
N127 N 0.12425 0.79417 0.07198 0.0
C128 C 0.09764 0.77925 0.06539 0.0
C129 C 0.1012 0.80802 0.03009 0.0
C130 C 0.12623 0.81278 0.05007 0.0
C131 C 1.00973 0.76961 0.05898 0.0
O132 O 1.01372 0.79837 0.05429 0.0
H133 H 0.09001 0.76084 0.07726 0.0
H134 H 0.09778 0.81709 0.0087 0.0
O135 O 0.07499 0.72993 -0.00683 0.0
H136 H 0.99925 0.83994 0.95548 0.0
H137 H 0.1458 0.82655 0.04706 0.0
Cu138 Cu 0.54951 0.54658 0.74494 0.0
N139 N 0.57084 0.5709 0.72108 0.0
N140 N 0.60696 0.60366 0.71195 0.0
C141 C 0.59823 0.58326 0.73014 0.0
C142 C 0.58422 0.60423 0.69042 0.0
C143 C 0.56205 0.58383 0.69596 0.0
O144 O 0.58169 0.5249 0.76707 0.0
C145 C 0.49977 0.58503 0.75092 0.0
O146 O 0.49948 0.57668 0.72216 0.0
H147 H 0.6108 0.57857 0.75066 0.0
H148 H 0.54061 0.57966 0.68314 0.0
N149 N 0.52489 0.51505 0.72585 0.0
N150 N 0.4943 0.47448 0.72491 0.0
C151 C 0.50965 0.49686 0.74197 0.0
C152 C 0.51889 0.50412 0.69723 0.0
C153 C 0.4999 0.47909 0.69658 0.0
C154 C 0.59873 0.50823 0.74949 0.0
O155 O 0.59242 0.50788 0.72065 0.0
H156 H 0.51005 0.50018 0.76604 0.0
H157 H 0.52804 0.51326 0.67829 0.0
O158 O 0.52114 0.5741 0.76767 0.0
H159 H 0.58348 0.61869 0.67227 0.0
H160 H 0.49165 0.46494 0.67685 0.0
Cu161 Cu 0.5499 0.54065 0.22264 0.0
N162 N 0.52316 0.51276 0.20051 0.0
N163 N 0.49016 0.47398 0.19148 0.0
C164 C 0.50488 0.49337 0.21249 0.0
C165 C 0.49952 0.48173 0.16526 0.0
C166 C 0.51983 0.50552 0.17088 0.0
O167 O 0.52427 0.57239 0.2438 0.0
C168 C 0.59501 0.49738 0.22774 0.0
O169 O 0.59208 0.5003 0.19903 0.0
H170 H 0.50344 0.4927 0.23626 0.0
H171 H 0.53189 0.5162 0.15457 0.0
N172 N 0.57531 0.56301 0.20056 0.0
N173 N 0.61328 0.59474 0.19384 0.0
C174 C 0.60224 0.57512 0.21167 0.0
C175 C 0.56922 0.57531 0.17461 0.0
C176 C 0.59254 0.59494 0.17047 0.0
C177 C 0.50529 0.58594 0.22641 0.0
O178 O 0.50338 0.57568 0.19804 0.0
H179 H 0.6126 0.57103 0.23334 0.0
H180 H 0.54862 0.57151 0.16036 0.0
O181 O 0.57787 0.51434 0.24507 0.0
H182 H 0.4925 0.47077 0.14347 0.0
H183 H 0.59377 0.60883 0.15206 0.0
Cu184 Cu 0.89269 0.50247 0.48446 0.0
N185 N 0.91403 0.52683 0.46141 0.0
N186 N 0.92267 0.55664 0.4257 0.0
C187 C 0.90449 0.5354 0.43457 0.0
C188 C 0.94472 0.56168 0.44767 0.0
C189 C 0.93952 0.54293 0.46959 0.0
O190 O 0.86712 0.52917 0.51111 0.0
C191 C 0.8512 0.47209 0.43761 0.0
O192 O 0.83895 0.49895 0.43227 0.0
H193 H 0.88357 0.52786 0.42251 0.0
H194 H 0.95261 0.54214 0.4906 0.0
N195 N 0.92047 0.48071 0.50753 0.0
N196 N 0.93403 0.44676 0.53982 0.0
C197 C 0.91341 0.46868 0.53237 0.0
C198 C 0.94663 0.46612 0.49899 0.0
C199 C 0.95503 0.44496 0.51892 0.0
C200 C 0.8815 0.54716 0.53085 0.0
O201 O 0.91167 0.54599 0.53219 0.0
H202 H 0.89183 0.47349 0.54285 0.0
H203 H 0.9572 0.46867 0.47834 0.0
O204 O 0.87144 0.4702 0.45887 0.0
H205 H 0.96255 0.57845 0.44826 0.0
H206 H 0.97379 0.42817 0.51707 0.0
Cu207 Cu 0.54863 0.8033 0.49677 0.0
N208 N 0.5734 0.7802 0.46951 0.0
N209 N 0.60701 0.77363 0.4335 0.0
C210 C 0.58961 0.79387 0.45032 0.0
C211 C 0.60157 0.7459 0.44267 0.0
C212 C 0.58077 0.75001 0.46489 0.0
O213 O 0.57697 0.82403 0.52629 0.0
C214 C 0.50757 0.81363 0.4523 0.0
O215 O 0.51172 0.7836 0.44925 0.0
H216 H 0.58912 0.81852 0.4494 0.0
H217 H 0.5721 0.73234 0.47703 0.0
N218 N 0.52186 0.78209 0.51785 0.0
N219 N 0.48585 0.77841 0.55072 0.0
C220 C 0.5048 0.79712 0.53883 0.0
C221 C 0.51345 0.75258 0.51605 0.0
C222 C 0.49121 0.75023 0.53636 0.0
C223 C 0.59369 0.80469 0.53965 0.0
O224 O 0.58895 0.77523 0.53267 0.0
H225 H 0.50586 0.82172 0.54453 0.0
H226 H 0.52242 0.73421 0.50086 0.0
O227 O 0.5223 0.82942 0.47341 0.0
H228 H 0.61176 0.72419 0.43397 0.0
H229 H 0.47998 0.72938 0.54019 0.0
Cu230 Cu 0.28001 0.55903 0.49819 0.0
N231 N 0.29986 0.58235 0.47326 0.0
N232 N 0.30821 0.62163 0.4472 0.0
C233 C 0.29657 0.61295 0.47193 0.0
C234 C 0.3192 0.59566 0.43236 0.0
C235 C 0.31411 0.57143 0.44859 0.0
O236 O 0.26002 0.58646 0.52773 0.0
C237 C 0.24576 0.50655 0.47766 0.0
O238 O 0.25467 0.49682 0.50344 0.0
H239 H 0.28364 0.62812 0.48735 0.0
H240 H 0.3184 0.5473 0.44181 0.0
N241 N 0.30771 0.53317 0.51752 0.0
N242 N 0.32413 0.50131 0.55111 0.0
C243 C 0.30515 0.52519 0.54524 0.0
C244 C 0.32932 0.51391 0.50544 0.0
C245 C 0.33949 0.49414 0.52614 0.0
C246 C 0.27795 0.60269 0.54567 0.0
O247 O 0.30774 0.59964 0.54273 0.0
H248 H 0.28773 0.53491 0.55981 0.0
H249 H 0.33571 0.51293 0.48259 0.0
O250 O 0.25162 0.5338 0.47266 0.0
H251 H 0.32876 0.59419 0.41066 0.0
H252 H 0.35581 0.47513 0.52262 0.0
Cu253 Cu 0.57473 0.21635 0.51847 0.0
N254 N 0.59686 0.19049 0.49206 0.0
N255 N 0.63388 0.17646 0.4612 0.0
C256 C 0.62549 0.19563 0.48474 0.0
C257 C 0.60957 0.1584 0.4535 0.0
C258 C 0.58669 0.16713 0.47266 0.0
O259 O 0.60417 0.23801 0.54648 0.0
C260 C 0.52313 0.2337 0.48344 0.0
O261 O 0.51405 0.20662 0.48907 0.0
H262 H 0.63875 0.21493 0.49472 0.0
H263 H 0.56361 0.15852 0.47127 0.0
N264 N 0.5502 0.19339 0.53964 0.0
N265 N 0.51439 0.18239 0.56989 0.0
C266 C 0.52924 0.20487 0.55866 0.0
C267 C 0.54888 0.16262 0.53884 0.0
C268 C 0.52675 0.15574 0.55747 0.0
C269 C 0.62018 0.22181 0.56392 0.0
O270 O 0.6155 0.19212 0.56232 0.0
H271 H 0.52521 0.22928 0.56417 0.0
H272 H 0.56289 0.14634 0.52558 0.0
O273 O 0.54897 0.2433 0.49481 0.0
H274 H 0.60776 0.14148 0.43429 0.0
H275 H 0.52005 0.13287 0.56115 0.0
Tb276 Tb 0.32279 0.2995 0.29216 0.0
C277 C 0.31594 0.25945 0.23132 0.0
Tb278 Tb 0.27542 0.31787 0.24657 0.0
O279 O 0.30111 0.25539 0.29477 0.0
O280 O 0.27421 0.29378 0.28503 0.0
O281 O 0.3362 0.27039 0.2525 0.0
C282 C 0.22668 0.33095 0.21107 0.0
O283 O 0.28802 0.27183 0.2283 0.0
C284 C 0.33181 0.33391 0.2375 0.0
C285 C 0.27675 0.35498 0.31003 0.0
O286 O 0.23343 0.30428 0.2204 0.0
O287 O 0.24712 0.35047 0.2222 0.0
O288 O 0.31122 0.32567 0.21673 0.0
O289 O 0.31989 0.3347 0.26242 0.0
O290 O 0.26198 0.35019 0.28355 0.0
O291 O 0.30169 0.33879 0.31782 0.0
C292 C 0.3709 0.29604 0.33154 0.0
O293 O 0.34281 0.28956 0.3359 0.0
O294 O 0.37201 0.30452 0.30488 0.0
C295 C 0.27361 0.26517 0.28727 0.0
Tb296 Tb 0.77993 0.26522 0.26429 0.0
C297 C 0.84329 0.24303 0.2402 0.0
Tb298 Tb 0.80467 0.29691 0.213 0.0
O299 O 0.77684 0.22174 0.23586 0.0
O300 O 0.7715 0.26353 0.21752 0.0
O301 O 0.8274 0.24747 0.26453 0.0
C302 C 0.81752 0.30562 0.15745 0.0
O303 O 0.83568 0.25711 0.21609 0.0
C304 C 0.82811 0.31516 0.26702 0.0
C305 C 0.74361 0.32433 0.24061 0.0
O306 O 0.82351 0.32492 0.18084 0.0
O307 O 0.80343 0.28253 0.16556 0.0
O308 O 0.84192 0.31793 0.2427 0.0
O309 O 0.80143 0.30647 0.25947 0.0
O310 O 0.76273 0.32509 0.21868 0.0
O311 O 0.7467 0.30388 0.26076 0.0
C312 C 0.75782 0.24809 0.31328 0.0
O313 O 0.74338 0.2466 0.28723 0.0
O314 O 0.78467 0.25986 0.312 0.0
C315 C 0.77338 0.23477 0.21136 0.0
Tb316 Tb 0.79648 0.8083 0.23406 0.0
C317 C 0.7679 0.79235 0.29283 0.0
Tb318 Tb 0.82775 0.7583 0.26813 0.0
O319 O 0.7542 0.78324 0.22315 0.0
O320 O 0.79564 0.75925 0.23066 0.0
O321 O 0.77087 0.81385 0.27446 0.0
C322 C 0.84619 0.70894 0.29527 0.0
O323 O 0.78589 0.76725 0.29229 0.0
C324 C 0.85708 0.81079 0.2729 0.0
C325 C 0.8531 0.76945 0.2072 0.0
O326 O 0.84495 0.73692 0.30794 0.0
O327 O 0.83674 0.70875 0.26752 0.0
O328 O 0.87037 0.78435 0.27628 0.0
O329 O 0.82838 0.80723 0.27091 0.0
O330 O 0.84969 0.74878 0.22621 0.0
O331 O 0.83729 0.79604 0.20857 0.0
C332 C 0.78343 0.8613 0.21092 0.0
O333 O 0.78571 0.83459 0.19564 0.0
O334 O 0.78819 0.85802 0.23902 0.0
C335 C 0.76672 0.75653 0.22727 0.0
Tb336 Tb 0.34499 0.83259 0.22471 0.0
C337 C 0.36961 0.7709 0.24796 0.0
Tb338 Tb 0.31245 0.80685 0.27415 0.0
O339 O 0.3868 0.83787 0.25339 0.0
O340 O 0.34391 0.84229 0.27172 0.0
O341 O 0.36512 0.78557 0.22354 0.0
C342 C 0.29445 0.7914 0.32605 0.0
O343 O 0.35444 0.77899 0.27214 0.0
C344 C 0.29655 0.78295 0.2191 0.0
C345 C 0.28355 0.8666 0.24902 0.0
O346 O 0.27923 0.78666 0.30048 0.0
O347 O 0.31928 0.80584 0.32243 0.0
O348 O 0.29722 0.76791 0.24252 0.0
O349 O 0.30357 0.81006 0.22792 0.0
O350 O 0.28322 0.84787 0.27051 0.0
O351 O 0.30454 0.86391 0.2285 0.0
C352 C 0.36371 0.85905 0.17864 0.0
O353 O 0.36238 0.8719 0.20569 0.0
O354 O 0.35405 0.831 0.17718 0.0
C355 C 0.37245 0.84174 0.27779 0.0
Tb356 Tb 0.25464 0.75594 0.78279 0.0
C357 C 0.32137 0.72686 0.77137 0.0
Tb358 Tb 0.29636 0.78624 0.74252 0.0
O359 O 0.22389 0.74259 0.74376 0.0
O360 O 0.27073 0.74593 0.73961 0.0
O361 O 0.29772 0.72884 0.78892 0.0
C362 C 0.32693 0.80237 0.69691 0.0
O363 O 0.32338 0.74471 0.74951 0.0
C364 C 0.3067 0.79971 0.80002 0.0
C365 C 0.23179 0.81857 0.75863 0.0
O366 O 0.32704 0.81695 0.72344 0.0
O367 O 0.30845 0.77951 0.69574 0.0
O368 O 0.32791 0.79911 0.78093 0.0
O369 O 0.28116 0.7957 0.78611 0.0
O370 O 0.25378 0.81526 0.73899 0.0
O371 O 0.23012 0.79979 0.77987 0.0
C372 C 0.22562 0.7327 0.82573 0.0
O373 O 0.22081 0.7256 0.79734 0.0
O374 O 0.24708 0.75289 0.83013 0.0
C375 C 0.24557 0.74122 0.72519 0.0
Tb376 Tb 0.30547 0.30156 0.72511 0.0
C377 C 0.26905 0.29901 0.78263 0.0
Tb378 Tb 0.3291 0.25834 0.77084 0.0
O379 O 0.26181 0.27878 0.71441 0.0
O380 O 0.30015 0.25446 0.73098 0.0
O381 O 0.27512 0.31636 0.76126 0.0
C382 C 0.34068 0.22126 0.81389 0.0
O383 O 0.2855 0.27401 0.78794 0.0
C384 C 0.36349 0.30584 0.76569 0.0
C385 C 0.35727 0.24987 0.70945 0.0
O386 O 0.34002 0.25107 0.81745 0.0
O387 O 0.33453 0.21212 0.78596 0.0
O388 O 0.37395 0.28007 0.77453 0.0
O389 O 0.33456 0.30541 0.76403 0.0
O390 O 0.35034 0.23563 0.7326 0.0
O391 O 0.3454 0.27751 0.70442 0.0
C392 C 0.30349 0.34975 0.69307 0.0
O393 O 0.30219 0.32114 0.68205 0.0
O394 O 0.30558 0.35108 0.72189 0.0
C395 C 0.27141 0.25334 0.72506 0.0
Tb396 Tb 0.82366 0.3222 0.74004 0.0
C397 C 0.84931 0.25678 0.7599 0.0
Tb398 Tb 0.79037 0.29107 0.78412 0.0
O399 O 0.84191 0.35681 0.77407 0.0
O400 O 0.83312 0.31294 0.78477 0.0
O401 O 0.85035 0.27798 0.74066 0.0
C402 C 0.76423 0.27463 0.83176 0.0
O403 O 0.8286 0.25834 0.78034 0.0
C404 C 0.7731 0.2759 0.72758 0.0
C405 C 0.76773 0.35677 0.76925 0.0
O406 O 0.75006 0.27809 0.80623 0.0
O407 O 0.79306 0.28032 0.83042 0.0
O408 O 0.77297 0.25724 0.74821 0.0
O409 O 0.78057 0.30191 0.73967 0.0
O410 O 0.77189 0.33814 0.79059 0.0
O411 O 0.78191 0.35131 0.74389 0.0
C412 C 0.8489 0.33895 0.69205 0.0
O413 O 0.84602 0.35598 0.71693 0.0
O414 O 0.83724 0.31228 0.69388 0.0
C415 C 0.84038 0.33959 0.79562 0.0
Tb416 Tb 0.81507 0.76606 0.7175 0.0
C417 C 0.8471 0.77897 0.78034 0.0
Tb418 Tb 0.78887 0.81741 0.75979 0.0
O419 O 0.85689 0.79069 0.71211 0.0
O420 O 0.81652 0.81517 0.72227 0.0
O421 O 0.83934 0.75651 0.75943 0.0
C422 C 0.77946 0.86417 0.80174 0.0
O423 O 0.83353 0.80655 0.78096 0.0
C424 C 0.75864 0.7657 0.75379 0.0
C425 C 0.75992 0.81018 0.69498 0.0
O426 O 0.78485 0.83571 0.8065 0.0
O427 O 0.77909 0.86637 0.77326 0.0
O428 O 0.7459 0.79265 0.75972 0.0
O429 O 0.78738 0.76842 0.75451 0.0
O430 O 0.76359 0.82934 0.71957 0.0
O431 O 0.77635 0.78407 0.69048 0.0
C432 C 0.82042 0.71428 0.68033 0.0
O433 O 0.84224 0.73326 0.68879 0.0
O434 O 0.79565 0.7243 0.69304 0.0
C435 C 0.84506 0.8177 0.71999 0.0
H436 H 0.17741 0.11956 0.31879 0.0
H437 H 0.09567 0.16569 0.28391 0.0
H438 H 0.12687 0.20989 0.2748 0.0
H439 H 0.21464 0.18653 0.3556 0.0
H440 H 0.25264 0.17338 0.3457 0.0
H441 H 0.2237 0.14589 0.34993 0.0
H442 H 0.23173 0.12048 0.29649 0.0
H443 H 0.26068 0.14793 0.29212 0.0
H444 H 0.22815 0.14375 0.26564 0.0
H445 H 0.16753 0.25021 0.27104 0.0
H446 H 0.21409 0.28127 0.27046 0.0
H447 H 0.26953 0.20735 0.30501 0.0
C448 C 0.16604 0.13908 0.30949 0.0
C449 C 0.13396 0.13926 0.30231 0.0
C450 C 0.12015 0.16502 0.28955 0.0
C451 C 0.13771 0.19026 0.28438 0.0
C452 C 0.16927 0.18934 0.29168 0.0
C453 C 0.18333 0.16424 0.30371 0.0
C454 C 0.21774 0.16849 0.30874 0.0
C455 C 0.22776 0.16858 0.34197 0.0
C456 C 0.23563 0.14369 0.2896 0.0
C457 C 0.22085 0.20003 0.29804 0.0
C458 C 0.19262 0.21181 0.28843 0.0
C459 C 0.18974 0.24102 0.2783 0.0
C460 C 0.21631 0.25852 0.278 0.0
C461 C 0.24549 0.2467 0.28742 0.0
C462 C 0.24761 0.21699 0.29745 0.0
H463 H 0.96766 0.12389 0.3023 0.0
H464 H 0.99754 0.10391 0.21224 0.0
H465 H 0.95805 0.1411 0.19466 0.0
H466 H 0.88676 0.13149 0.28267 0.0
H467 H 0.88052 0.16218 0.31164 0.0
H468 H 0.91078 0.13384 0.31666 0.0
H469 H 0.95037 0.17717 0.32688 0.0
H470 H 0.92027 0.20564 0.32178 0.0
H471 H 0.95354 0.20435 0.29978 0.0
H472 H 0.91544 0.1813 0.18749 0.0
H473 H 0.87333 0.22023 0.19079 0.0
H474 H 0.87166 0.21338 0.28594 0.0
C475 C 0.96599 0.12719 0.27881 0.0
C476 C 0.9858 0.11096 0.25861 0.0
C477 C 0.98264 0.11603 0.2281 0.0
C478 C 0.9603 0.13712 0.21796 0.0
C479 C 0.94129 0.15283 0.23861 0.0
C480 C 0.94391 0.14799 0.26839 0.0
C481 C 0.92088 0.1677 0.28619 0.0
C482 C 0.8984 0.1476 0.3001 0.0
C483 C 0.93725 0.19004 0.31006 0.0
C484 C 0.90488 0.18468 0.26183 0.0
C485 C 0.91696 0.17579 0.23454 0.0
C486 C 0.90593 0.18843 0.20877 0.0
C487 C 0.88202 0.21068 0.21095 0.0
C488 C 0.86923 0.22013 0.23871 0.0
C489 C 0.8809 0.20678 0.26442 0.0
H490 H 0.9895 0.93196 0.32406 0.0
H491 H 0.95017 0.98835 0.25707 0.0
H492 H 0.90956 0.95038 0.24366 0.0
H493 H 0.97612 0.85904 0.28099 0.0
H494 H 0.96738 0.83949 0.31263 0.0
H495 H 0.99282 0.87151 0.31751 0.0
H496 H 0.95828 0.89905 0.35726 0.0
H497 H 0.93271 0.86713 0.35246 0.0
H498 H 0.91797 0.90548 0.34792 0.0
H499 H 0.87286 0.90587 0.23747 0.0
H500 H 0.84488 0.85758 0.23767 0.0
H501 H 0.90797 0.82941 0.30796 0.0
C502 C 0.97219 0.93644 0.30675 0.0
C503 C 0.97305 0.96332 0.29169 0.0
C504 C 0.95021 0.96793 0.26878 0.0
C505 C 0.92693 0.94652 0.26111 0.0
C506 C 0.92678 0.92028 0.27633 0.0
C507 C 0.94896 0.91504 0.29853 0.0
C508 C 0.94413 0.88448 0.31076 0.0
C509 C 0.97175 0.86232 0.30513 0.0
C510 C 0.9379 0.88934 0.34408 0.0
C511 C 0.91568 0.87346 0.29214 0.0
C512 C 0.90592 0.89456 0.27254 0.0
C513 C 0.88015 0.88943 0.25301 0.0
C514 C 0.86399 0.86214 0.25358 0.0
C515 C 0.87347 0.84023 0.27346 0.0
C516 C 0.89992 0.84593 0.29274 0.0
H517 H 0.12824 0.95471 0.29429 0.0
H518 H 0.13083 1.00445 0.2161 0.0
H519 H 0.17821 0.97475 0.20193 0.0
H520 H 0.20729 0.95396 0.31284 0.0
H521 H 0.20851 0.91601 0.3253 0.0
H522 H 0.17379 0.9393 0.32762 0.0
H523 H 0.1433 0.89605 0.29644 0.0
H524 H 0.17787 0.87244 0.29437 0.0
H525 H 0.15635 0.8807 0.26067 0.0
H526 H 0.22764 0.94094 0.19861 0.0
H527 H 0.27218 0.90528 0.20486 0.0
H528 H 0.23607 0.87922 0.28603 0.0
C529 C 0.13844 0.95923 0.27393 0.0
C530 C 0.12579 0.98195 0.25627 0.0
C531 C 0.13999 0.98702 0.22985 0.0
C532 C 0.16696 0.97034 0.22175 0.0
C533 C 0.17923 0.94866 0.24024 0.0
C534 C 0.16513 0.94296 0.26564 0.0
C535 C 0.18301 0.91928 0.2824 0.0
C536 C 0.19378 0.93297 0.31389 0.0
C537 C 0.164 0.89041 0.28352 0.0
C538 C 0.20978 0.91269 0.26277 0.0
C539 C 0.20727 0.92969 0.23848 0.0
C540 C 0.22967 0.92751 0.21752 0.0
C541 C 0.25502 0.90727 0.22138 0.0
C542 C 0.25783 0.88945 0.24605 0.0
C543 C 0.23482 0.89246 0.26696 0.0
H544 H 0.1391 0.96409 0.69968 0.0
H545 H 0.09424 0.97538 0.78351 0.0
H546 H 0.12551 0.93139 0.80054 0.0
H547 H 0.14215 0.88267 0.69127 0.0
H548 H 0.17927 0.87959 0.67548 0.0
H549 H 0.15464 0.91278 0.67062 0.0
H550 H 0.19781 0.94858 0.69376 0.0
H551 H 0.22267 0.9155 0.69854 0.0
H552 H 0.21508 0.94278 0.73009 0.0
H553 H 0.15998 0.8845 0.80714 0.0
H554 H 0.19573 0.83984 0.8041 0.0
H555 H 0.2187 0.85926 0.71572 0.0
C556 C 0.13592 0.95758 0.72177 0.0
C557 C 0.1141 0.97331 0.7403 0.0
C558 C 0.11082 0.96386 0.76898 0.0
C559 C 0.12846 0.93885 0.77878 0.0
C560 C 0.14939 0.92363 0.7597 0.0
C561 C 0.15333 0.93282 0.73187 0.0
C562 C 0.17692 0.91235 0.71538 0.0
C563 C 0.16237 0.89587 0.68648 0.0
C564 C 0.20477 0.93091 0.70908 0.0
C565 C 0.18548 0.88983 0.73812 0.0
C566 C 0.16933 0.8968 0.76353 0.0
C567 C 0.17276 0.87896 0.78738 0.0
C568 C 0.19312 0.85342 0.7853 0.0
C569 C 0.21008 0.84572 0.75954 0.0
C570 C 0.20621 0.86443 0.73571 0.0
H571 H 0.12633 0.14951 0.67448 0.0
H572 H 0.16282 0.0841 0.73437 0.0
H573 H 0.20781 0.11678 0.74793 0.0
H574 H 0.19926 0.17055 0.64859 0.0
H575 H 0.18797 0.21048 0.64752 0.0
H576 H 0.15939 0.18127 0.6418 0.0
H577 H 0.12915 0.20896 0.68493 0.0
H578 H 0.15765 0.2382 0.69077 0.0
H579 H 0.14837 0.21709 0.72119 0.0
H580 H 0.24953 0.1569 0.75445 0.0
H581 H 0.28251 0.20222 0.75518 0.0
H582 H 0.21728 0.24225 0.69301 0.0
C583 C 0.14398 0.14189 0.69016 0.0
C584 C 0.14112 0.11414 0.70325 0.0
C585 C 0.16444 0.10532 0.72418 0.0
C586 C 0.19014 0.12368 0.73191 0.0
C587 C 0.19216 0.151 0.71873 0.0
C588 C 0.16958 0.16016 0.69842 0.0
C589 C 0.17663 0.19106 0.68825 0.0
C590 C 0.18108 0.18816 0.65454 0.0
C591 C 0.15145 0.21525 0.69681 0.0
C592 C 0.20662 0.19792 0.70603 0.0
C593 C 0.21544 0.17441 0.72325 0.0
C594 C 0.24275 0.17545 0.74109 0.0
C595 C 0.2614 0.2012 0.74135 0.0
C596 C 0.25245 0.2257 0.72425 0.0
C597 C 0.22466 0.22393 0.70647 0.0
H598 H 0.97893 0.13667 0.6977 0.0
H599 H 0.9848 0.10055 0.78396 0.0
H600 H 0.94606 0.13989 0.80182 0.0
H601 H 0.97005 0.21739 0.7255 0.0
H602 H 0.94381 0.22604 0.69493 0.0
H603 H 0.97256 0.19576 0.68952 0.0
H604 H 0.93008 0.15731 0.67058 0.0
H605 H 0.90119 0.1874 0.67605 0.0
H606 H 0.89862 0.15245 0.69371 0.0
H607 H 0.90452 0.18158 0.80909 0.0
H608 H 0.86551 0.22333 0.80648 0.0
H609 H 0.88767 0.23337 0.71556 0.0
C610 C 0.97227 0.13704 0.72046 0.0
C611 C 0.98494 0.11535 0.73945 0.0
C612 C 0.97557 0.11689 0.76904 0.0
C613 C 0.95352 0.13914 0.77932 0.0
C614 C 0.94127 0.15988 0.75983 0.0
C615 C 0.95055 0.15917 0.73109 0.0
C616 C 0.93376 0.18383 0.71444 0.0
C617 C 0.9564 0.20713 0.70558 0.0
C618 C 0.91479 0.16937 0.68708 0.0
C619 C 0.91315 0.19839 0.73816 0.0
C620 C 0.91783 0.18417 0.76415 0.0
C621 C 0.90085 0.19291 0.7889 0.0
C622 C 0.87856 0.21665 0.78708 0.0
C623 C 0.87333 0.23174 0.76075 0.0
C624 C 0.89115 0.22251 0.73605 0.0
H625 H 0.98127 0.92026 0.67708 0.0
H626 H 0.93147 1.00074 0.71504 0.0
H627 H 0.8895 0.96767 0.72667 0.0
H628 H 0.91564 0.87764 0.64437 0.0
H629 H 0.93161 0.84103 0.65362 0.0
H630 H 0.95673 0.8713 0.64714 0.0
H631 H 0.98443 0.8673 0.69902 0.0
H632 H 0.95932 0.83711 0.7057 0.0
H633 H 0.9623 0.8711 0.73173 0.0
H634 H 0.85245 0.92509 0.7336 0.0
H635 H 0.82519 0.87676 0.73738 0.0
H636 H 0.90098 0.82432 0.69757 0.0
C637 C 0.96131 0.93093 0.68743 0.0
C638 C 0.95942 0.96312 0.69486 0.0
C639 C 0.9333 0.97614 0.70913 0.0
C640 C 0.90936 0.95754 0.71575 0.0
C641 C 0.91203 0.92583 0.70831 0.0
C642 C 0.93749 0.91263 0.69465 0.0
C643 C 0.93547 0.8779 0.69017 0.0
C644 C 0.93482 0.86629 0.65684 0.0
C645 C 0.96195 0.86245 0.70771 0.0
C646 C 0.90485 0.87357 0.70323 0.0
C647 C 0.8915 0.90147 0.71339 0.0
C648 C 0.86282 0.90314 0.72584 0.0
C649 C 0.84748 0.87562 0.72792 0.0
C650 C 0.86101 0.84683 0.71796 0.0
C651 C 0.89011 0.84597 0.70558 0.0
H652 H 0.2795 0.12328 0.10499 0.0
H653 H 0.37771 0.10671 0.10003 0.0
H654 H 0.38725 0.14791 0.14091 0.0
H655 H 0.28245 0.20493 0.11819 0.0
H656 H 0.25164 0.20841 0.14334 0.0
H657 H 0.25274 0.17681 0.11456 0.0
H658 H 0.25077 0.13819 0.15437 0.0
H659 H 0.24971 0.16972 0.18328 0.0
H660 H 0.27912 0.13994 0.18517 0.0
H661 H 0.38584 0.19132 0.18249 0.0
H662 H 0.37342 0.23509 0.21952 0.0
H663 H 0.27625 0.22314 0.19599 0.0
C664 C 0.30297 0.12815 0.11274 0.0
C665 C 0.32786 0.11188 0.09941 0.0
C666 C 0.35832 0.11919 0.10977 0.0
C667 C 0.36396 0.14237 0.13309 0.0
C668 C 0.33887 0.15809 0.14569 0.0
C669 C 0.30898 0.15137 0.13577 0.0
C670 C 0.28609 0.17236 0.15226 0.0
C671 C 0.26713 0.19178 0.13081 0.0
C672 C 0.2652 0.15394 0.16981 0.0
C673 C 0.30776 0.19198 0.17291 0.0
C674 C 0.3381 0.18331 0.16904 0.0
C675 C 0.36214 0.19832 0.18572 0.0
C676 C 0.35491 0.22306 0.20672 0.0
C677 C 0.32393 0.23257 0.21051 0.0
C678 C 0.3002 0.21659 0.19348 0.0
H679 H 0.96718 0.31522 0.06984 0.0
H680 H 0.93699 0.23316 0.01551 0.0
H681 H 0.88636 0.23857 0.03799 0.0
H682 H 0.93334 0.29861 0.13494 0.0
H683 H 0.92348 0.3381 0.14697 0.0
H684 H 0.95561 0.3293 0.12412 0.0
H685 H 0.93153 0.36475 0.08578 0.0
H686 H 0.89899 0.3732 0.10835 0.0
H687 H 0.89315 0.35789 0.06993 0.0
H688 H 0.84051 0.25142 0.06806 0.0
H689 H 0.80567 0.26582 0.10849 0.0
H690 H 0.86615 0.33903 0.14432 0.0
C691 C 0.94969 0.29867 0.06246 0.0
C692 C 0.95572 0.27388 0.04087 0.0
C693 C 0.93271 0.25218 0.03216 0.0
C694 C 0.90386 0.25533 0.04452 0.0
C695 C 0.89855 0.28024 0.06561 0.0
C696 C 0.92098 0.30129 0.07483 0.0
C697 C 0.91063 0.32413 0.09998 0.0
C698 C 0.93202 0.32241 0.12816 0.0
C699 C 0.90844 0.35694 0.09042 0.0
C700 C 0.87909 0.31219 0.10405 0.0
C701 C 0.8723 0.28731 0.0835 0.0
C702 C 0.84542 0.27107 0.08402 0.0
C703 C 0.82569 0.27952 0.10699 0.0
C704 C 0.83316 0.30369 0.1293 0.0
C705 C 0.85956 0.32097 0.12713 0.0
H706 H 0.76125 0.97653 0.08438 0.0
H707 H 0.76467 0.05101 0.15572 0.0
H708 H 0.77068 1.01335 0.19271 0.0
H709 H 0.71882 0.92472 0.12174 0.0
H710 H 0.73979 0.89073 0.10745 0.0
H711 H 0.73584 0.9235 0.0862 0.0
H712 H 0.79505 0.92523 0.08445 0.0
H713 H 0.79919 0.89235 0.10555 0.0
H714 H 0.81853 0.92737 0.11878 0.0
H715 H 0.77593 0.96815 0.22207 0.0
H716 H 0.78148 0.91765 0.24208 0.0
H717 H 0.77557 0.87205 0.15209 0.0
C718 C 0.76354 0.98492 0.10774 0.0
C719 C 0.7622 1.01679 0.11708 0.0
C720 C 0.76501 0.02677 0.14796 0.0
C721 C 0.76863 1.00555 0.16919 0.0
C722 C 0.76951 0.97438 0.15924 0.0
C723 C 0.7672 0.96401 0.1293 0.0
C724 C 0.7689 0.92917 0.12469 0.0
C725 C 0.73905 0.91628 0.1091 0.0
C726 C 0.7971 0.91787 0.10734 0.0
C727 C 0.77244 0.92165 0.15675 0.0
C728 C 0.77271 0.94812 0.17628 0.0
C729 C 0.77576 0.94724 0.20704 0.0
C730 C 0.77882 0.91848 0.21818 0.0
C731 C 0.77881 0.89109 0.1986 0.0
C732 C 0.7755 0.8927 0.16751 0.0
H733 H 0.16969 0.83129 0.09747 0.0
H734 H 0.13497 0.73894 0.09435 0.0
H735 H 0.17763 0.72488 0.12883 0.0
H736 H 0.25053 0.80913 0.09985 0.0
H737 H 0.26191 0.84173 0.12536 0.0
H738 H 0.22862 0.84484 0.10013 0.0
H739 H 0.19503 0.86207 0.14466 0.0
H740 H 0.22832 0.85938 0.16987 0.0
H741 H 0.19448 0.83836 0.17505 0.0
H742 H 0.22363 0.72087 0.16477 0.0
H743 H 0.2677 0.72872 0.20166 0.0
H744 H 0.27372 0.82272 0.1799 0.0
C745 C 0.17112 0.8081 0.10395 0.0
C746 C 0.14866 0.7864 0.09325 0.0
C747 C 0.15134 0.7563 0.10256 0.0
C748 C 0.17578 0.74791 0.12194 0.0
C749 C 0.19757 0.76976 0.13186 0.0
C750 C 0.19541 0.7993 0.12334 0.0
C751 C 0.22148 0.81863 0.1379 0.0
C752 C 0.24184 0.8292 0.1144 0.0
C753 C 0.20908 0.84623 0.15807 0.0
C754 C 0.23842 0.79539 0.15604 0.0
C755 C 0.22437 0.76728 0.15217 0.0
C756 C 0.23501 0.7427 0.1678 0.0
C757 C 0.26012 0.74728 0.18858 0.0
C758 C 0.27426 0.77618 0.19348 0.0
C759 C 0.26368 0.8002 0.17636 0.0
H760 H 0.2632 0.93256 0.92134 0.0
H761 H 0.35903 0.92848 0.95346 0.0
H762 H 0.36614 0.87932 0.92362 0.0
H763 H 0.25155 0.84625 0.91366 0.0
H764 H 0.22757 0.84827 0.87998 0.0
H765 H 0.22774 0.88006 0.90875 0.0
H766 H 0.24162 0.91691 0.87028 0.0
H767 H 0.24142 0.8853 0.8416 0.0
H768 H 0.27512 0.9083 0.84905 0.0
H769 H 0.36653 0.83713 0.88335 0.0
H770 H 0.35874 0.80355 0.83623 0.0
H771 H 0.26274 0.83258 0.83065 0.0
C772 C 0.28547 0.92099 0.92263 0.0
C773 C 0.31036 0.93459 0.94008 0.0
C774 C 0.33924 0.91862 0.94095 0.0
C775 C 0.34364 0.89049 0.92394 0.0
C776 C 0.31893 0.87823 0.90634 0.0
C777 C 0.29026 0.89271 0.90579 0.0
C778 C 0.26854 0.87627 0.88246 0.0
C779 C 0.2423 0.86185 0.8971 0.0
C780 C 0.25597 0.89799 0.8595 0.0
C781 C 0.29015 0.8517 0.86876 0.0
C782 C 0.31897 0.85289 0.88323 0.0
C783 C 0.34385 0.83523 0.87234 0.0
C784 C 0.33931 0.81636 0.84559 0.0
C785 C 0.31014 0.8153 0.83027 0.0
C786 C 0.28509 0.83241 0.84247 0.0
H787 H 0.14444 0.2519 0.88887 0.0
H788 H 0.11438 0.3476 0.90222 0.0
H789 H 0.15174 0.36091 0.86671 0.0
H790 H 0.22337 0.26508 0.88481 0.0
H791 H 0.22936 0.23358 0.8566 0.0
H792 H 0.19943 0.23191 0.88211 0.0
H793 H 0.15933 0.22298 0.83752 0.0
H794 H 0.1892 0.2247 0.81188 0.0
H795 H 0.15588 0.25004 0.80983 0.0
H796 H 0.19383 0.36332 0.82919 0.0
H797 H 0.23771 0.35446 0.79622 0.0
H798 H 0.23824 0.2573 0.80873 0.0
C799 C 0.14533 0.2756 0.88409 0.0
C800 C 0.12638 0.29864 0.89835 0.0
C801 C 0.12887 0.32954 0.89185 0.0
C802 C 0.14986 0.3373 0.8715 0.0
C803 C 0.16818 0.31391 0.85782 0.0
C804 C 0.16606 0.28369 0.86398 0.0
C805 C 0.18885 0.26283 0.84731 0.0
C806 C 0.2116 0.24746 0.86901 0.0
C807 C 0.17232 0.23872 0.82533 0.0
C808 C 0.20446 0.28601 0.83109 0.0
C809 C 0.19221 0.31535 0.83702 0.0
C810 C 0.20356 0.34038 0.82442 0.0
C811 C 0.22837 0.3352 0.8057 0.0
C812 C 0.24161 0.30532 0.80023 0.0
C813 C 0.22901 0.28055 0.8128 0.0
H814 H 0.77107 0.17884 0.97055 0.0
H815 H 0.67308 0.16633 0.95429 0.0
H816 H 0.67139 0.2049 0.91776 0.0
H817 H 0.77061 0.26271 0.96005 0.0
H818 H 0.80649 0.25872 0.94196 0.0
H819 H 0.79892 0.23411 0.97028 0.0
H820 H 0.80934 0.1861 0.93329 0.0
H821 H 0.81684 0.21051 0.90497 0.0
H822 H 0.78787 0.18176 0.89783 0.0
H823 H 0.68189 0.23812 0.87772 0.0
H824 H 0.70365 0.26465 0.83817 0.0
H825 H 0.79459 0.25614 0.88132 0.0
C826 C 0.7492 0.1846 0.95963 0.0
C827 C 0.72222 0.16963 0.96512 0.0
C828 C 0.69394 0.17783 0.9506 0.0
C829 C 0.69278 0.19967 0.92984 0.0
C830 C 0.72002 0.21338 0.92429 0.0
C831 C 0.74765 0.20642 0.93905 0.0
C832 C 0.77407 0.22229 0.9273 0.0
C833 C 0.78835 0.24586 0.95133 0.0
C834 C 0.79844 0.19876 0.91512 0.0
C835 C 0.75722 0.23802 0.9026 0.0
C836 C 0.72599 0.233 0.90147 0.0
C837 C 0.70617 0.24283 0.87877 0.0
C838 C 0.71869 0.25775 0.8564 0.0
C839 C 0.75065 0.26254 0.857 0.0
C840 C 0.76997 0.25319 0.88071 0.0
H841 H 0.95345 0.8262 0.92682 0.0
H842 H 1.00094 0.73767 0.91173 0.0
H843 H 0.96674 0.72461 0.86717 0.0
H844 H 0.87776 0.80028 0.90398 0.0
H845 H 0.86647 0.83423 0.88604 0.0
H846 H 0.89465 0.83668 0.91691 0.0
H847 H 0.93323 0.86003 0.88449 0.0
H848 H 0.90506 0.8578 0.8536 0.0
H849 H 0.94249 0.83974 0.84925 0.0
H850 H 0.92682 0.72096 0.82392 0.0
H851 H 0.88522 0.72791 0.78522 0.0
H852 H 0.86481 0.81904 0.82838 0.0
C853 C 0.95689 0.80418 0.91406 0.0
C854 C 0.97988 0.78294 0.92308 0.0
C855 C 0.98324 0.7542 0.90574 0.0
C856 C 0.964 0.74659 0.88022 0.0
C857 C 0.94145 0.76795 0.87214 0.0
C858 C 0.93788 0.7962 0.8885 0.0
C859 C 0.91192 0.81509 0.87498 0.0
C860 C 0.88618 0.82196 0.89678 0.0
C861 C 0.92391 0.84492 0.86499 0.0
C862 C 0.90152 0.79305 0.8485 0.0
C863 C 0.91875 0.76594 0.84722 0.0
C864 C 0.91319 0.74214 0.82468 0.0
C865 C 0.88949 0.74625 0.80281 0.0
C866 C 0.87172 0.77399 0.80362 0.0
C867 C 0.87794 0.79754 0.82693 0.0
H868 H 0.11703 0.27925 0.07084 0.0
H869 H 0.10579 0.37492 0.05341 0.0
H870 H 0.13687 0.39027 0.1001 0.0
H871 H 0.11179 0.292 0.1508 0.0
H872 H 0.13987 0.26203 0.15781 0.0
H873 H 0.11615 0.25918 0.12367 0.0
H874 H 0.16486 0.25333 0.09307 0.0
H875 H 0.1887 0.25599 0.12707 0.0
H876 H 0.19388 0.28211 0.09944 0.0
H877 H 0.17253 0.39408 0.14743 0.0
H878 H 0.20826 0.38611 0.19097 0.0
H879 H 0.19284 0.28808 0.1773 0.0
C880 C 0.121 0.30349 0.07675 0.0
C881 C 0.10919 0.32592 0.05841 0.0
C882 C 0.11469 0.35738 0.06716 0.0
C883 C 0.13225 0.36627 0.09362 0.0
C884 C 0.14365 0.34341 0.11113 0.0
C885 C 0.138 0.31268 0.10304 0.0
C886 C 0.15299 0.29235 0.12518 0.0
C887 C 0.12875 0.2754 0.14026 0.0
C888 C 0.1765 0.26962 0.1103 0.0
C889 C 0.16857 0.3163 0.14686 0.0
C890 C 0.16299 0.34567 0.13852 0.0
C891 C 0.17666 0.37124 0.15436 0.0
C892 C 0.19685 0.36653 0.17902 0.0
C893 C 0.20292 0.33655 0.18757 0.0
C894 C 0.18817 0.31131 0.17156 0.0
H895 H 0.16216 0.73743 -0.01286 0.0
H896 H 0.0833 0.68835 0.94588 0.0
H897 H 0.10973 0.67956 0.89861 0.0
H898 H 0.17273 0.77825 0.92793 0.0
H899 H 0.21411 0.77844 0.93188 0.0
H900 H 0.19222 0.77528 0.96389 0.0
H901 H 0.22193 0.72477 0.97406 0.0
H902 H 0.24424 0.72793 0.9422 0.0
H903 H 0.22338 0.69346 0.94492 0.0
H904 H 0.14205 0.68141 0.85466 0.0
H905 H 0.17645 0.69545 0.81694 0.0
H906 H 0.2327 0.7463 0.8863 0.0
C907 C 0.15094 0.72373 0.96852 0.0
C908 C 0.12096 0.71291 0.97031 0.0
C909 C 0.10647 0.69634 0.94506 0.0
C910 C 0.12132 0.69126 0.91817 0.0
C911 C 0.1505 0.70315 0.91689 0.0
C912 C 0.16515 0.71908 0.94142 0.0
C913 C 0.19454 0.73302 0.9333 0.0
C914 C 0.1933 0.76833 0.93962 0.0
C915 C 0.22269 0.71894 0.94958 0.0
C916 C 0.19379 0.72315 0.90018 0.0
C917 C 0.16852 0.70543 0.89127 0.0
C918 C 0.16208 0.69493 0.86146 0.0
C919 C 0.18172 0.70306 0.8402 0.0
C920 C 0.20722 0.72186 0.84879 0.0
C921 C 0.21352 0.73165 0.8792 0.0
H922 H 0.35472 0.06456 0.89096 0.0
H923 H 0.38111 0.11961 0.97347 0.0
H924 H 0.38035 0.16595 0.94647 0.0
H925 H 0.3981 0.10739 0.84131 0.0
H926 H 0.36837 0.10363 0.8118 0.0
H927 H 0.37404 0.07425 0.83702 0.0
H928 H 0.3169 0.08065 0.84982 0.0
H929 H 0.31112 0.11025 0.82493 0.0
H930 H 0.30202 0.11809 0.86342 0.0
H931 H 0.37215 0.20685 0.91188 0.0
H932 H 0.35949 0.23952 0.87112 0.0
H933 H 0.33862 0.15827 0.81079 0.0
C934 C 0.36104 0.08623 0.90325 0.0
C935 C 0.3681 0.08842 0.93434 0.0
C936 C 0.37571 0.11733 0.94965 0.0
C937 C 0.37534 0.1438 0.93451 0.0
C938 C 0.36745 0.14098 0.90405 0.0
C939 C 0.3607 0.11293 0.88848 0.0
C940 C 0.35138 0.11653 0.85611 0.0
C941 C 0.37435 0.09944 0.83534 0.0
C942 C 0.3184 0.10575 0.84812 0.0
C943 C 0.35336 0.15108 0.85609 0.0
C944 C 0.36279 0.16468 0.88396 0.0
C945 C 0.36511 0.19644 0.88987 0.0
C946 C 0.35776 0.2148 0.86663 0.0
C947 C 0.34823 0.20135 0.83788 0.0
C948 C 0.34609 0.16908 0.83254 0.0
H949 H 0.94891 0.28921 0.92657 0.0
H950 H 0.9862 0.38071 0.93553 0.0
H951 H 0.94261 0.3983 0.90307 0.0
H952 H 0.93034 0.28504 0.85292 0.0
H953 H 0.89556 0.26396 0.85355 0.0
H954 H 0.92551 0.26064 0.88212 0.0
H955 H 0.88698 0.27749 0.92267 0.0
H956 H 0.85677 0.28081 0.89406 0.0
H957 H 0.86525 0.31313 0.92104 0.0
H958 H 0.90052 0.40291 0.86297 0.0
H959 H 0.86437 0.3943 0.81886 0.0
H960 H 0.85517 0.29958 0.83689 0.0
C961 C 0.94758 0.31318 0.92232 0.0
C962 C 0.97091 0.33365 0.93339 0.0
C963 C 0.96841 0.36477 0.92734 0.0
C964 C 0.94371 0.3749 0.90904 0.0
C965 C 0.92162 0.35371 0.89759 0.0
C966 C 0.92321 0.32354 0.90434 0.0
C967 C 0.89891 0.30426 0.88673 0.0
C968 C 0.91346 0.2769 0.86771 0.0
C969 C 0.8756 0.29329 0.90736 0.0
C970 C 0.88446 0.32781 0.86761 0.0
C971 C 0.89733 0.35638 0.8746 0.0
C972 C 0.88982 0.38087 0.85777 0.0
C973 C 0.86936 0.37575 0.83274 0.0
C974 C 0.85701 0.34631 0.82469 0.0
C975 C 0.86388 0.32243 0.84291 0.0
H976 H 0.79818 0.955 0.96448 0.0
H977 H 0.74233 0.02877 0.92976 0.0
H978 H 0.73693 0.99836 0.88081 0.0
H979 H 0.83839 0.93234 0.89914 0.0
H980 H 0.83785 0.89167 0.9028 0.0
H981 H 0.83704 0.91888 0.93547 0.0
H982 H 0.78701 0.89535 0.95024 0.0
H983 H 0.78782 0.86794 0.91769 0.0
H984 H 0.75427 0.8924 0.9239 0.0
H985 H 0.7411 0.9619 0.83442 0.0
H986 H 0.74968 0.91908 0.79527 0.0
H987 H 0.79924 0.86718 0.86057 0.0
C988 C 0.78461 0.96462 0.94664 0.0
C989 C 0.77074 0.99434 0.951 0.0
C990 C 0.75306 1.00604 0.92708 0.0
C991 C 0.74996 0.98899 0.89911 0.0
C992 C 0.76425 0.96001 0.89542 0.0
C993 C 0.7808 0.94764 0.91863 0.0
C994 C 0.79343 0.91571 0.90874 0.0
C995 C 0.82877 0.9146 0.91171 0.0
C996 C 0.77981 0.89141 0.92618 0.0
C997 C 0.78177 0.91231 0.87628 0.0
C998 C 0.76527 0.93828 0.86899 0.0
C999 C 0.75358 0.94125 0.83996 0.0
C1000 C 0.75864 0.91692 0.81787 0.0
C1001 C 0.77475 0.88982 0.82505 0.0
C1002 C 0.78639 0.88751 0.85464 0.0
H1003 H 0.9689 0.80969 0.08715 0.0
H1004 H 0.99869 0.71362 0.07884 0.0
H1005 H 0.96087 0.70278 0.115 0.0
H1006 H 0.9578 0.81665 0.16511 0.0
H1007 H 0.92431 0.84171 0.16249 0.0
H1008 H 0.95323 0.8416 0.13562 0.0
H1009 H 0.91189 0.82975 0.09273 0.0
H1010 H 0.88283 0.82982 0.11948 0.0
H1011 H 0.88818 0.79672 0.09289 0.0
H1012 H 0.92083 0.70309 0.15352 0.0
H1013 H 0.8813 0.71402 0.19036 0.0
H1014 H 0.8772 0.80985 0.17236 0.0
C1015 C 0.96751 0.78631 0.09282 0.0
C1016 C 0.98685 0.76248 0.08017 0.0
C1017 C 0.98413 0.73223 0.08821 0.0
C1018 C 0.96271 0.72587 0.10873 0.0
C1019 C 0.9441 0.74998 0.12084 0.0
C1020 C 0.94623 0.77957 0.11307 0.0
C1021 C 0.92377 0.80147 0.12934 0.0
C1022 C 0.94081 0.82685 0.14933 0.0
C1023 C 0.90027 0.81524 0.10729 0.0
C1024 C 0.90876 0.77965 0.14772 0.0
C1025 C 0.92081 0.75007 0.14254 0.0
C1026 C 0.91113 0.72613 0.15759 0.0
C1027 C 0.88868 0.73261 0.17853 0.0
C1028 C 0.87598 0.76278 0.18419 0.0
C1029 C 0.88614 0.78648 0.16835 0.0
H1030 H 0.40587 1.00575 0.10316 0.0
H1031 H 0.39716 0.95063 0.01778 0.0
H1032 H 0.39494 0.90375 0.04366 0.0
H1033 H 0.44976 0.94603 0.14558 0.0
H1034 H 0.42904 0.95775 0.17839 0.0
H1035 H 0.43721 0.9856 0.15325 0.0
H1036 H 0.37917 1.00002 0.14822 0.0
H1037 H 0.37067 0.97188 0.1727 0.0
H1038 H 0.35207 0.97044 0.13589 0.0
H1039 H 0.38338 0.86453 0.0786 0.0
H1040 H 0.36757 0.83623 0.11993 0.0
H1041 H 0.38353 0.91738 0.18176 0.0
C1042 C 0.40488 0.98373 0.08984 0.0
C1043 C 0.40173 0.98193 0.05844 0.0
C1044 C 0.39974 0.95263 0.04189 0.0
C1045 C 0.39843 0.92582 0.0564 0.0
C1046 C 0.39956 0.92864 0.08745 0.0
C1047 C 0.40337 0.95684 0.10398 0.0
C1048 C 0.40033 0.95438 0.13683 0.0
C1049 C 0.43091 0.96134 0.15455 0.0
C1050 C 0.374 0.97541 0.1491 0.0
C1051 C 0.39277 0.92079 0.13607 0.0
C1052 C 0.39284 0.90611 0.10751 0.0
C1053 C 0.38396 0.8756 0.10116 0.0
C1054 C 0.37486 0.85976 0.12465 0.0
C1055 C 0.37451 0.87464 0.15392 0.0
C1056 C 0.3839 0.90535 0.15961 0.0
H1057 H 0.82962 0.1001 0.09292 0.0
H1058 H 0.79017 0.15332 0.02381 0.0
H1059 H 0.76865 0.19127 0.0619 0.0
H1060 H 0.76998 0.11679 0.14813 0.0
H1061 H 0.7986 0.11937 0.17858 0.0
H1062 H 0.80553 0.09472 0.14505 0.0
H1063 H 0.85654 0.12387 0.14178 0.0
H1064 H 0.84809 0.14911 0.17445 0.0
H1065 H 0.85473 0.16496 0.14016 0.0
H1066 H 0.75422 0.22509 0.10794 0.0
H1067 H 0.74926 0.25272 0.15823 0.0
H1068 H 0.80151 0.1793 0.19723 0.0
C1069 C 0.81564 0.11931 0.08596 0.0
C1070 C 0.80964 0.12288 0.05546 0.0
C1071 C 0.79283 0.14906 0.04697 0.0
C1072 C 0.78107 0.171 0.06852 0.0
C1073 C 0.78711 0.16676 0.0985 0.0
C1074 C 0.80417 0.14164 0.10725 0.0
C1075 C 0.80976 0.14389 0.14082 0.0
C1076 C 0.7951 0.11708 0.1539 0.0
C1077 C 0.84432 0.14556 0.14981 0.0
C1078 C 0.79319 0.17414 0.14955 0.0
C1079 C 0.78018 0.18695 0.12487 0.0
C1080 C 0.76426 0.21523 0.12743 0.0
C1081 C 0.76168 0.23082 0.15597 0.0
C1082 C 0.77524 0.21822 0.18139 0.0
C1083 C 0.79085 0.18939 0.1781 0.0
H1084 H 0.61001 0.66498 0.70673 0.0
H1085 H 0.66453 0.58484 0.72821 0.0
H1086 H 0.71051 0.61701 0.73839 0.0
H1087 H 0.66996 0.70467 0.67266 0.0
H1088 H 0.65797 0.74217 0.68895 0.0
H1089 H 0.63022 0.71241 0.68043 0.0
H1090 H 0.61459 0.71912 0.73522 0.0
H1091 H 0.64224 0.74889 0.74384 0.0
H1092 H 0.64367 0.71592 0.76491 0.0
H1093 H 0.75069 0.65852 0.74662 0.0
H1094 H 0.78026 0.70639 0.75673 0.0
H1095 H 0.6985 0.75998 0.73382 0.0
C1096 C 0.6318 0.65421 0.71304 0.0
C1097 C 0.63391 0.62235 0.7163 0.0
C1098 C 0.66256 0.60917 0.72546 0.0
C1099 C 0.68877 0.62725 0.73117 0.0
C1100 C 0.68591 0.65867 0.72805 0.0
C1101 C 0.65806 0.6721 0.71945 0.0
C1102 C 0.6606 0.70673 0.72001 0.0
C1103 C 0.65431 0.71709 0.68864 0.0
C1104 C 0.639 0.72365 0.74233 0.0
C1105 C 0.69407 0.71071 0.73053 0.0
C1106 C 0.70847 0.68267 0.73448 0.0
C1107 C 0.73956 0.68059 0.74372 0.0
C1108 C 0.7562 0.70785 0.74939 0.0
C1109 C 0.74159 0.73683 0.74637 0.0
C1110 C 0.71018 0.73813 0.73663 0.0
H1111 H 0.46525 0.62409 0.71919 0.0
H1112 H 0.47803 0.59404 0.80779 0.0
H1113 H 0.43288 0.62674 0.82348 0.0
H1114 H 0.44269 0.70273 0.74207 0.0
H1115 H 0.4157 0.70485 0.7105 0.0
H1116 H 0.44919 0.67981 0.70742 0.0
H1117 H 0.41423 0.63353 0.69047 0.0
H1118 H 0.38082 0.65862 0.69362 0.0
H1119 H 0.38397 0.6249 0.71364 0.0
H1120 H 0.38335 0.66148 0.82772 0.0
H1121 H 0.33871 0.69751 0.82145 0.0
H1122 H 0.36114 0.70393 0.73003 0.0
C1123 C 0.45876 0.62442 0.74201 0.0
C1124 C 0.47506 0.60641 0.76227 0.0
C1125 C 0.46593 0.60779 0.79195 0.0
C1126 C 0.44023 0.62615 0.80095 0.0
C1127 C 0.42425 0.64313 0.78005 0.0
C1128 C 0.43357 0.64261 0.75128 0.0
C1129 C 0.41308 0.66281 0.73281 0.0
C1130 C 0.43125 0.68911 0.72262 0.0
C1131 C 0.39708 0.64382 0.70607 0.0
C1132 C 0.39041 0.67474 0.7555 0.0
C1133 C 0.39689 0.66315 0.78262 0.0
C1134 C 0.37832 0.67079 0.80661 0.0
C1135 C 0.35291 0.69111 0.80282 0.0
C1136 C 0.34654 0.70372 0.77534 0.0
C1137 C 0.36551 0.69505 0.75146 0.0
H1138 H 0.44866 0.4396 0.69462 0.0
H1139 H 0.5013 0.45312 0.77942 0.0
H1140 H 0.4717 0.41366 0.79888 0.0
H1141 H 0.37533 0.42549 0.72365 0.0
H1142 H 0.36555 0.39563 0.69443 0.0
H1143 H 0.3903 0.42585 0.68728 0.0
H1144 H 0.43093 0.38424 0.66982 0.0
H1145 H 0.40587 0.35441 0.6776 0.0
H1146 H 0.44431 0.35617 0.69459 0.0
H1147 H 0.43813 0.37201 0.8095 0.0
H1148 H 0.40201 0.32972 0.81024 0.0
H1149 H 0.36948 0.34197 0.71956 0.0
C1150 C 0.45405 0.43419 0.71722 0.0
C1151 C 0.47719 0.45017 0.73553 0.0
C1152 C 0.48335 0.44212 0.76502 0.0
C1153 C 0.46673 0.41944 0.77632 0.0
C1154 C 0.44394 0.40456 0.75796 0.0
C1155 C 0.4376 0.41135 0.72898 0.0
C1156 C 0.41214 0.39117 0.71401 0.0
C1157 C 0.38417 0.41077 0.70431 0.0
C1158 C 0.42403 0.37026 0.68744 0.0
C1159 C 0.40492 0.37249 0.73935 0.0
C1160 C 0.42387 0.38054 0.76435 0.0
C1161 C 0.42292 0.36572 0.79019 0.0
C1162 C 0.40232 0.3418 0.79046 0.0
C1163 C 0.3825 0.33321 0.76533 0.0
C1164 C 0.38368 0.34885 0.73944 0.0
H1165 H 0.64167 0.47778 0.71556 0.0
H1166 H 0.61538 0.49517 0.80705 0.0
H1167 H 0.65815 0.46045 0.82279 0.0
H1168 H 0.65956 0.39897 0.71673 0.0
H1169 H 0.6915 0.39903 0.69316 0.0
H1170 H 0.66033 0.42667 0.6898 0.0
H1171 H 0.69877 0.47115 0.69874 0.0
H1172 H 0.73012 0.44362 0.70209 0.0
H1173 H 0.72437 0.47378 0.73168 0.0
H1174 H 0.70185 0.42076 0.82742 0.0
H1175 H 0.74278 0.38066 0.82111 0.0
H1176 H 0.74027 0.39052 0.72634 0.0
C1177 C 0.64493 0.4746 0.73901 0.0
C1178 C 0.6251 0.48919 0.76012 0.0
C1179 C 0.63033 0.48432 0.79053 0.0
C1180 C 0.65454 0.46464 0.79962 0.0
C1181 C 0.67339 0.45032 0.77804 0.0
C1182 C 0.6689 0.45527 0.74839 0.0
C1183 C 0.69151 0.43651 0.72929 0.0
C1184 C 0.67472 0.41396 0.70587 0.0
C1185 C 0.71243 0.45752 0.71459 0.0
C1186 C 0.70927 0.41968 0.75272 0.0
C1187 C 0.69858 0.42799 0.78073 0.0
C1188 C 0.71055 0.41437 0.80565 0.0
C1189 C 0.73378 0.39154 0.80179 0.0
C1190 C 0.74489 0.38253 0.77322 0.0
C1191 C 0.73263 0.39716 0.74851 0.0
H1192 H 0.64293 0.47087 0.19812 0.0
H1193 H 0.59623 0.46921 0.28009 0.0
H1194 H 0.62965 0.42476 0.29293 0.0
H1195 H 0.65006 0.39115 0.18038 0.0
H1196 H 0.68755 0.39209 0.16571 0.0
H1197 H 0.66158 0.42482 0.16429 0.0
H1198 H 0.70255 0.46003 0.19278 0.0
H1199 H 0.72883 0.42746 0.19394 0.0
H1200 H 0.71954 0.45006 0.22801 0.0
H1201 H 0.66633 0.37769 0.29437 0.0
H1202 H 0.70486 0.33545 0.28664 0.0
H1203 H 0.72719 0.36921 0.20353 0.0
C1204 C 0.63986 0.46145 0.219 0.0
C1205 C 0.6169 0.47349 0.23813 0.0
C1206 C 0.6138 0.46051 0.26523 0.0
C1207 C 0.63258 0.43517 0.27258 0.0
C1208 C 0.65447 0.42339 0.2527 0.0
C1209 C 0.65839 0.43648 0.22666 0.0
C1210 C 0.68304 0.4195 0.20869 0.0
C1211 C 0.66975 0.4061 0.17796 0.0
C1212 C 0.71009 0.44052 0.20569 0.0
C1213 C 0.69219 0.39432 0.22836 0.0
C1214 C 0.67551 0.39688 0.25365 0.0
C1215 C 0.67962 0.37571 0.27474 0.0
C1216 C 0.70152 0.35163 0.27002 0.0
C1217 C 0.7192 0.34884 0.24442 0.0
C1218 C 0.71421 0.37056 0.22335 0.0
H1219 H 0.61881 0.65433 0.18275 0.0
H1220 H 0.66819 0.57802 0.21953 0.0
H1221 H 0.71397 0.61032 0.23086 0.0
H1222 H 0.68274 0.6862 0.14964 0.0
H1223 H 0.67061 0.72555 0.15947 0.0
H1224 H 0.64252 0.69591 0.15308 0.0
H1225 H 0.62224 0.71152 0.20541 0.0
H1226 H 0.65024 0.74121 0.21193 0.0
H1227 H 0.64863 0.71251 0.23775 0.0
H1228 H 0.75509 0.65155 0.23721 0.0
H1229 H 0.78573 0.69874 0.24165 0.0
H1230 H 0.70805 0.7487 0.20391 0.0
C1231 C 0.6394 0.64434 0.19286 0.0
C1232 C 0.64008 0.61352 0.19997 0.0
C1233 C 0.66721 0.60154 0.21388 0.0
C1234 C 0.69333 0.6197 0.22029 0.0
C1235 C 0.69188 0.65004 0.21304 0.0
C1236 C 0.66544 0.66235 0.19992 0.0
C1237 C 0.66923 0.69599 0.19573 0.0
C1238 C 0.66609 0.70121 0.1625 0.0
C1239 C 0.64622 0.71651 0.21378 0.0
C1240 C 0.70193 0.70072 0.20837 0.0
C1241 C 0.71481 0.6739 0.21796 0.0
C1242 C 0.74507 0.67269 0.22992 0.0
C1243 C 0.76241 0.6996 0.23237 0.0
C1244 C 0.74938 0.72747 0.22337 0.0
C1245 C 0.71872 0.7278 0.21117 0.0
H1246 H 0.46913 0.62163 0.19144 0.0
H1247 H 0.50027 0.61433 0.2836 0.0
H1248 H 0.47024 0.66198 0.29869 0.0
H1249 H 0.47216 0.70411 0.19418 0.0
H1250 H 0.43839 0.70752 0.16962 0.0
H1251 H 0.46221 0.67304 0.16626 0.0
H1252 H 0.41506 0.6402 0.17264 0.0
H1253 H 0.39105 0.67453 0.17588 0.0
H1254 H 0.39263 0.64894 0.20485 0.0
H1255 H 0.43587 0.70987 0.30346 0.0
H1256 H 0.39982 0.75372 0.2982 0.0
H1257 H 0.39208 0.73047 0.20239 0.0
C1258 C 0.46969 0.62989 0.21488 0.0
C1259 C 0.48705 0.61406 0.23641 0.0
C1260 C 0.48714 0.62594 0.26674 0.0
C1261 C 0.4702 0.65302 0.27546 0.0
C1262 C 0.45348 0.66802 0.25355 0.0
C1263 C 0.45316 0.65686 0.22388 0.0
C1264 C 0.43333 0.67714 0.20463 0.0
C1265 C 0.45269 0.69129 0.18236 0.0
C1266 C 0.40642 0.65913 0.18856 0.0
C1267 C 0.42215 0.70147 0.22813 0.0
C1268 C 0.4341 0.69575 0.2562 0.0
C1269 C 0.42648 0.7145 0.28159 0.0
C1270 C 0.40586 0.73936 0.27831 0.0
C1271 C 0.39302 0.74557 0.24984 0.0
C1272 C 0.4017 0.72654 0.22438 0.0
H1273 H 0.45258 0.46938 0.23757 0.0
H1274 H 0.48313 0.42091 0.15546 0.0
H1275 H 0.44916 0.37834 0.16142 0.0
H1276 H 0.44506 0.4005 0.27751 0.0
H1277 H 0.41089 0.41509 0.29531 0.0
H1278 H 0.43899 0.44138 0.28591 0.0
H1279 H 0.39694 0.46993 0.25555 0.0
H1280 H 0.36874 0.44384 0.26497 0.0
H1281 H 0.37412 0.44852 0.22644 0.0
H1282 H 0.41018 0.34239 0.17402 0.0
H1283 H 0.36687 0.31571 0.1918 0.0
H1284 H 0.36079 0.38541 0.26679 0.0
C1285 C 0.45242 0.44961 0.22108 0.0
C1286 C 0.47062 0.44872 0.1959 0.0
C1287 C 0.46925 0.42254 0.17466 0.0
C1288 C 0.45017 0.39802 0.17801 0.0
C1289 C 0.43243 0.39972 0.20281 0.0
C1290 C 0.43326 0.42479 0.22404 0.0
C1291 C 0.41053 0.42119 0.24779 0.0
C1292 C 0.42738 0.41944 0.27845 0.0
C1293 C 0.38614 0.44743 0.24873 0.0
C1294 C 0.3965 0.39046 0.23625 0.0
C1295 C 0.4098 0.3785 0.21037 0.0
C1296 C 0.39986 0.35133 0.19444 0.0
C1297 C 0.37526 0.3363 0.20474 0.0
C1298 C 0.36078 0.34817 0.23085 0.0
C1299 C 0.37194 0.37537 0.24718 0.0
H1300 H 0.90722 0.59323 0.56851 0.0
H1301 H 0.81948 0.55212 0.54114 0.0
H1302 H 0.79396 0.58971 0.57734 0.0
H1303 H 0.89446 0.60894 0.6463 0.0
H1304 H 0.91413 0.6449 0.65002 0.0
H1305 H 0.92506 0.61452 0.62238 0.0
H1306 H 0.91612 0.65148 0.58111 0.0
H1307 H 0.90525 0.682 0.60861 0.0
H1308 H 0.87944 0.67126 0.57688 0.0
H1309 H 0.7785 0.63238 0.61764 0.0
H1310 H 0.77429 0.67693 0.65595 0.0
H1311 H 0.87237 0.68992 0.65513 0.0
C1312 C 0.88262 0.59194 0.57008 0.0
C1313 C 0.86536 0.56956 0.55201 0.0
C1314 C 0.83318 0.56902 0.55473 0.0
C1315 C 0.81854 0.59025 0.57528 0.0
C1316 C 0.83638 0.61195 0.59281 0.0
C1317 C 0.86773 0.61296 0.59021 0.0
C1318 C 0.88185 0.63875 0.61098 0.0
C1319 C 0.90526 0.626 0.63377 0.0
C1320 C 0.89652 0.66226 0.59334 0.0
C1321 C 0.8536 0.65229 0.62582 0.0
C1322 C 0.82756 0.63647 0.61526 0.0
C1323 C 0.79877 0.64488 0.62595 0.0
C1324 C 0.7966 0.67016 0.64773 0.0
C1325 C 0.823 0.68684 0.65843 0.0
C1326 C 0.8518 0.67761 0.64735 0.0
H1327 H 0.43533 0.74736 0.56388 0.0
H1328 H 0.48736 0.8298 0.59027 0.0
H1329 H 0.45013 0.84645 0.62766 0.0
H1330 H 0.35949 0.78077 0.5735 0.0
H1331 H 0.34517 0.74806 0.5892 0.0
H1332 H 0.37528 0.74278 0.56338 0.0
H1333 H 0.40964 0.71572 0.60203 0.0
H1334 H 0.37997 0.72097 0.62826 0.0
H1335 H 0.41773 0.73525 0.63862 0.0
H1336 H 0.40814 0.854 0.66341 0.0
H1337 H 0.36555 0.85019 0.69658 0.0
H1338 H 0.34032 0.76337 0.64768 0.0
C1339 C 0.43901 0.76888 0.57749 0.0
C1340 C 0.46428 0.78739 0.57349 0.0
C1341 C 0.46799 0.8154 0.59207 0.0
C1342 C 0.44696 0.82509 0.61362 0.0
C1343 C 0.42221 0.80655 0.61665 0.0
C1344 C 0.41822 0.77892 0.59929 0.0
C1345 C 0.39034 0.76273 0.60811 0.0
C1346 C 0.36614 0.75834 0.58199 0.0
C1347 C 0.39999 0.73185 0.61995 0.0
C1348 C 0.37914 0.78579 0.63283 0.0
C1349 C 0.39794 0.81087 0.63743 0.0
C1350 C 0.39311 0.83459 0.65988 0.0
C1351 C 0.3688 0.83231 0.67853 0.0
C1352 C 0.3495 0.80663 0.67452 0.0
C1353 C 0.35448 0.78341 0.65101 0.0
H1354 H 0.33221 0.4394 0.55213 0.0
H1355 H 0.31377 0.5241 0.6076 0.0
H1356 H 0.30728 0.49433 0.65042 0.0
H1357 H 0.27731 0.39518 0.5805 0.0
H1358 H 0.30023 0.36005 0.57928 0.0
H1359 H 0.30632 0.38794 0.55363 0.0
H1360 H 0.36389 0.39058 0.57157 0.0
H1361 H 0.35802 0.36228 0.59692 0.0
H1362 H 0.37416 0.39876 0.61077 0.0
H1363 H 0.30053 0.4554 0.68642 0.0
H1364 H 0.29489 0.40976 0.71362 0.0
H1365 H 0.31639 0.35016 0.63445 0.0
C1366 C 0.32756 0.45171 0.57346 0.0
C1367 C 0.32362 0.4841 0.57663 0.0
C1368 C 0.31674 0.49931 0.60473 0.0
C1369 C 0.31311 0.48261 0.62915 0.0
C1370 C 0.31641 0.45068 0.6251 0.0
C1371 C 0.32367 0.43535 0.59803 0.0
C1372 C 0.32457 0.4008 0.5993 0.0
C1373 C 0.30068 0.38508 0.57684 0.0
C1374 C 0.3571 0.38732 0.59435 0.0
C1375 C 0.31605 0.39909 0.63111 0.0
C1376 C 0.31177 0.42815 0.64568 0.0
C1377 C 0.30385 0.43253 0.67526 0.0
C1378 C 0.30056 0.40652 0.69047 0.0
C1379 C 0.30496 0.37658 0.676 0.0
C1380 C 0.31258 0.37284 0.64589 0.0
H1381 H 0.65053 0.19492 0.60969 0.0
H1382 H 0.64436 0.27949 0.56663 0.0
H1383 H 0.68556 0.30122 0.60189 0.0
H1384 H 0.66173 0.23044 0.68397 0.0
H1385 H 0.68784 0.20069 0.69588 0.0
H1386 H 0.65895 0.19162 0.66644 0.0
H1387 H 0.70126 0.16948 0.63172 0.0
H1388 H 0.73032 0.17872 0.66101 0.0
H1389 H 0.73278 0.19325 0.62528 0.0
H1390 H 0.72721 0.31372 0.64233 0.0
H1391 H 0.76304 0.31763 0.68692 0.0
H1392 H 0.74105 0.22514 0.70402 0.0
C1393 C 0.6579 0.21798 0.60752 0.0
C1394 C 0.6443 0.23548 0.58528 0.0
C1395 C 0.65442 0.26567 0.58348 0.0
C1396 C 0.67791 0.27813 0.60332 0.0
C1397 C 0.69092 0.26014 0.62487 0.0
C1398 C 0.68109 0.2308 0.62721 0.0
C1399 C 0.69784 0.21666 0.65309 0.0
C1400 C 0.67524 0.20944 0.67621 0.0
C1401 C 0.71667 0.18782 0.64211 0.0
C1402 C 0.71856 0.24272 0.66516 0.0
C1403 C 0.71444 0.26748 0.64838 0.0
C1404 C 0.73062 0.29445 0.65556 0.0
C1405 C 0.75096 0.29643 0.6809 0.0
C1406 C 0.75479 0.27169 0.69891 0.0
C1407 C 0.73874 0.24432 0.69057 0.0
H1408 H 0.83689 0.46948 0.37743 0.0
H1409 H 0.85404 0.4122 0.44997 0.0
H1410 H 0.8503 0.36562 0.41414 0.0
H1411 H 0.78353 0.41879 0.33163 0.0
H1412 H 0.79884 0.42708 0.29719 0.0
H1413 H 0.80011 0.45561 0.32891 0.0
H1414 H 0.859 0.45892 0.32542 0.0
H1415 H 0.85798 0.43006 0.29399 0.0
H1416 H 0.88277 0.42448 0.32648 0.0
H1417 H 0.8451 0.32516 0.37019 0.0
H1418 H 0.83958 0.29407 0.32117 0.0
H1419 H 0.82979 0.3776 0.27703 0.0
C1420 C 0.83913 0.44711 0.38582 0.0
C1421 C 0.84527 0.4444 0.41654 0.0
C1422 C 0.84905 0.41475 0.42656 0.0
C1423 C 0.84702 0.38818 0.40637 0.0
C1424 C 0.84164 0.39163 0.37615 0.0
C1425 C 0.83778 0.42034 0.36587 0.0
C1426 C 0.8339 0.41772 0.33212 0.0
C1427 C 0.80221 0.43056 0.32187 0.0
C1428 C 0.85997 0.43374 0.31873 0.0
C1429 C 0.83624 0.3831 0.32503 0.0
C1430 C 0.84042 0.36843 0.35076 0.0
C1431 C 0.84214 0.33641 0.34991 0.0
C1432 C 0.83914 0.31895 0.32207 0.0
C1433 C 0.83509 0.33357 0.29557 0.0
C1434 C 0.83379 0.366 0.29705 0.0
H1435 H 0.65738 0.74015 0.41364 0.0
H1436 H 0.60306 0.82355 0.40198 0.0
H1437 H 0.63892 0.83776 0.36595 0.0
H1438 H 0.73127 0.77207 0.40867 0.0
H1439 H 0.74718 0.73855 0.38781 0.0
H1440 H 0.71717 0.73448 0.41278 0.0
H1441 H 0.68398 0.7063 0.36959 0.0
H1442 H 0.714 0.71009 0.34455 0.0
H1443 H 0.67568 0.72448 0.33581 0.0
H1444 H 0.681 0.8437 0.33165 0.0
H1445 H 0.72521 0.83966 0.29974 0.0
H1446 H 0.75206 0.75195 0.33233 0.0
C1447 C 0.65281 0.76124 0.40333 0.0
C1448 C 0.6274 0.78085 0.41111 0.0
C1449 C 0.62258 0.80837 0.39707 0.0
C1450 C 0.64278 0.81662 0.37636 0.0
C1451 C 0.66777 0.79708 0.3696 0.0
C1452 C 0.67277 0.76983 0.38244 0.0
C1453 C 0.70138 0.75294 0.37102 0.0
C1454 C 0.72569 0.74931 0.3966 0.0
C1455 C 0.69326 0.7216 0.35425 0.0
C1456 C 0.71167 0.77504 0.34992 0.0
C1457 C 0.69195 0.80036 0.34949 0.0
C1458 C 0.69659 0.82394 0.33175 0.0
C1459 C 0.72188 0.82145 0.31372 0.0
C1460 C 0.74231 0.79554 0.31344 0.0
C1461 C 0.73706 0.77215 0.33201 0.0
H1462 H 0.2835 0.63354 0.39342 0.0
H1463 H 0.32404 0.67622 0.47652 0.0
H1464 H 0.31942 0.72728 0.45662 0.0
H1465 H 0.31843 0.67729 0.34506 0.0
H1466 H 0.28528 0.67973 0.31953 0.0
H1467 H 0.29031 0.64757 0.34138 0.0
H1468 H 0.23659 0.65956 0.3622 0.0
H1469 H 0.23156 0.69201 0.34057 0.0
H1470 H 0.22811 0.69728 0.38034 0.0
H1471 H 0.31698 0.77181 0.42446 0.0
H1472 H 0.3139 0.80652 0.38413 0.0
H1473 H 0.26934 0.73546 0.32448 0.0
C1474 C 0.29116 0.65377 0.40737 0.0
C1475 C 0.30442 0.65127 0.43626 0.0
C1476 C 0.31391 0.67801 0.45427 0.0
C1477 C 0.31128 0.70694 0.44318 0.0
C1478 C 0.29828 0.70865 0.41438 0.0
C1479 C 0.28791 0.68279 0.39694 0.0
C1480 C 0.27546 0.69053 0.36657 0.0
C1481 C 0.29346 0.67274 0.34168 0.0
C1482 C 0.24087 0.68449 0.36218 0.0
C1483 C 0.28152 0.7246 0.3691 0.0
C1484 C 0.29473 0.73471 0.39682 0.0
C1485 C 0.30578 0.76443 0.40302 0.0
C1486 C 0.30388 0.784 0.3801 0.0
C1487 C 0.29055 0.77388 0.35164 0.0
C1488 C 0.2785 0.74416 0.34643 0.0
H1489 H 0.46171 0.22914 0.46964 0.0
H1490 H 0.5422 0.27661 0.44839 0.0
H1491 H 0.51143 0.30007 0.40818 0.0
H1492 H 0.43206 0.21054 0.39698 0.0
H1493 H 0.39231 0.21682 0.40534 0.0
H1494 H 0.42001 0.20591 0.43374 0.0
H1495 H 0.40466 0.25412 0.46848 0.0
H1496 H 0.37664 0.26507 0.44027 0.0
H1497 H 0.40568 0.29166 0.45532 0.0
H1498 H 0.47266 0.31346 0.36647 0.0
H1499 H 0.4283 0.31951 0.33034 0.0
H1500 H 0.37309 0.26536 0.3812 0.0
C1501 C 0.47278 0.24486 0.45684 0.0
C1502 C 0.50434 0.25106 0.46207 0.0
C1503 C 0.51798 0.27176 0.44488 0.0
C1504 C 0.50071 0.28506 0.42193 0.0
C1505 C 0.46975 0.27783 0.41688 0.0
C1506 C 0.45582 0.25864 0.43427 0.0
C1507 C 0.42244 0.25395 0.4241 0.0
C1508 C 0.41637 0.21978 0.41447 0.0
C1509 C 0.4011 0.26699 0.44849 0.0
C1510 C 0.41986 0.27282 0.39773 0.0
C1511 C 0.44736 0.2864 0.3938 0.0
C1512 C 0.45091 0.30336 0.36969 0.0
C1513 C 0.42568 0.30658 0.34923 0.0
C1514 C 0.3973 0.29314 0.35321 0.0
C1515 C 0.39441 0.27626 0.37788 0.0
H1516 H 0.63961 0.768 0.5602 0.0
H1517 H 0.60372 0.862 0.57011 0.0
H1518 H 0.64425 0.87503 0.61002 0.0
H1519 H 0.65615 0.76063 0.63592 0.0
H1520 H 0.69074 0.73757 0.63034 0.0
H1521 H 0.66033 0.73641 0.60159 0.0
H1522 H 0.69802 0.75156 0.56363 0.0
H1523 H 0.72881 0.75239 0.59206 0.0
H1524 H 0.72023 0.78573 0.57228 0.0
H1525 H 0.6872 0.87596 0.65161 0.0
H1526 H 0.72911 0.86546 0.68899 0.0
H1527 H 0.73607 0.77097 0.64937 0.0
C1528 C 0.64026 0.79145 0.57056 0.0
C1529 C 0.61845 0.814 0.56219 0.0
C1530 C 0.62029 0.84441 0.5762 0.0
C1531 C 0.64318 0.85196 0.59886 0.0
C1532 C 0.66409 0.82888 0.60683 0.0
C1533 C 0.66288 0.79932 0.59282 0.0
C1534 C 0.68728 0.77832 0.6056 0.0
C1535 C 0.67275 0.75167 0.61917 0.0
C1536 C 0.70993 0.76631 0.58199 0.0
C1537 C 0.70237 0.8005 0.62938 0.0
C1538 C 0.68879 0.82957 0.62991 0.0
C1539 C 0.69819 0.85337 0.65111 0.0
C1540 C 0.72196 0.84717 0.67227 0.0
C1541 C 0.73609 0.81747 0.6719 0.0
C1542 C 0.72617 0.79406 0.64998 0.0
H1543 H 0.63383 0.17175 0.40116 0.0
H1544 H 0.691 0.19305 0.48186 0.0
H1545 H 0.7319 0.21015 0.45198 0.0
H1546 H 0.69696 0.14687 0.35076 0.0
H1547 H 0.67756 0.16465 0.32029 0.0
H1548 H 0.65555 0.1492 0.34761 0.0
H1549 H 0.62756 0.20215 0.35751 0.0
H1550 H 0.64982 0.21794 0.33074 0.0
H1551 H 0.64983 0.2359 0.36846 0.0
H1552 H 0.76364 0.23062 0.41377 0.0
H1553 H 0.78422 0.25134 0.37002 0.0
H1554 H 0.70496 0.21769 0.31526 0.0
C1555 C 0.65544 0.17879 0.4124 0.0
C1556 C 0.65954 0.18076 0.44371 0.0
C1557 C 0.68765 0.19127 0.45781 0.0
C1558 C 0.71094 0.20095 0.44105 0.0
C1559 C 0.70565 0.19988 0.41024 0.0
C1560 C 0.67868 0.18878 0.39604 0.0
C1561 C 0.67723 0.19287 0.36317 0.0
C1562 C 0.67681 0.16153 0.34435 0.0
C1563 C 0.64948 0.21344 0.35449 0.0
C1564 C 0.70717 0.20878 0.36122 0.0
C1565 C 0.72349 0.21231 0.38846 0.0
C1566 C 0.75125 0.22762 0.39224 0.0
C1567 C 0.76267 0.23943 0.36741 0.0
C1568 C 0.74607 0.23607 0.33948 0.0
C1569 C 0.71809 0.22052 0.33642 0.0
H1570 H 0.92418 0.61838 0.42567 0.0
H1571 H 0.90368 0.53401 0.37026 0.0
H1572 H 0.88446 0.56416 0.32912 0.0
H1573 H 0.85747 0.65827 0.40446 0.0
H1574 H 0.87477 0.69527 0.40514 0.0
H1575 H 0.89106 0.66731 0.4286 0.0
H1576 H 0.94382 0.67037 0.40561 0.0
H1577 H 0.92781 0.6987 0.38233 0.0
H1578 H 0.9462 0.66416 0.36573 0.0
H1579 H 0.86413 0.60337 0.29571 0.0
H1580 H 0.84383 0.64908 0.2721 0.0
H1581 H 0.8753 0.70793 0.35038 0.0
C1582 C 0.9166 0.60638 0.40449 0.0
C1583 C 0.91582 0.57398 0.40072 0.0
C1584 C 0.90465 0.55886 0.37322 0.0
C1585 C 0.89375 0.57577 0.34985 0.0
C1586 C 0.89401 0.60777 0.35453 0.0
C1587 C 0.90519 0.62295 0.38113 0.0
C1588 C 0.90043 0.65744 0.38136 0.0
C1589 C 0.8797 0.67031 0.40637 0.0
C1590 C 0.93141 0.67362 0.3839 0.0
C1591 C 0.8844 0.65924 0.35093 0.0
C1592 C 0.88124 0.63036 0.33568 0.0
C1593 C 0.86664 0.62612 0.30734 0.0
C1594 C 0.85512 0.65214 0.29417 0.0
C1595 C 0.858 0.68184 0.30953 0.0
C1596 C 0.87277 0.6854 0.33824 0.0
H1597 H 0.50773 0.80179 0.3929 0.0
H1598 H 0.45992 0.85516 0.46285 0.0
H1599 H 0.41916 0.8695 0.42545 0.0
H1600 H 0.48973 0.85425 0.33496 0.0
H1601 H 0.48632 0.82278 0.30603 0.0
H1602 H 0.51211 0.81922 0.33822 0.0
H1603 H 0.48479 0.76959 0.34832 0.0
H1604 H 0.45904 0.77336 0.31624 0.0
H1605 H 0.44382 0.771 0.35215 0.0
H1606 H 0.38043 0.87173 0.38034 0.0
H1607 H 0.35174 0.86863 0.33089 0.0
H1608 H 0.42778 0.81628 0.29157 0.0
C1609 C 0.48904 0.81715 0.40017 0.0
C1610 C 0.48681 0.82765 0.43047 0.0
C1611 C 0.46206 0.84741 0.4395 0.0
C1612 C 0.43878 0.85536 0.41849 0.0
C1613 C 0.44114 0.84371 0.38871 0.0
C1614 C 0.46612 0.82563 0.37956 0.0
C1615 C 0.46344 0.8156 0.34657 0.0
C1616 C 0.48944 0.82877 0.3305 0.0
C1617 C 0.46271 0.7803 0.3405 0.0
C1618 C 0.43273 0.8303 0.3385 0.0
C1619 C 0.4199 0.84617 0.36301 0.0
C1620 C 0.39058 0.8599 0.36094 0.0
C1621 C 0.37439 0.85788 0.33294 0.0
C1622 C 0.38789 0.84262 0.30762 0.0
C1623 C 0.41725 0.8286 0.31057 0.0
H1624 H 0.26556 0.447 0.46972 0.0
H1625 H 0.21121 0.51657 0.42688 0.0
H1626 H 0.2083 0.48214 0.37987 0.0
H1627 H 0.31167 0.42892 0.41224 0.0
H1628 H 0.31601 0.38834 0.41612 0.0
H1629 H 0.30794 0.41481 0.44798 0.0
H1630 H 0.25966 0.38463 0.45679 0.0
H1631 H 0.26788 0.35759 0.42524 0.0
H1632 H 0.23088 0.37711 0.42683 0.0
H1633 H 0.21694 0.44305 0.33629 0.0
H1634 H 0.23675 0.40274 0.29942 0.0
H1635 H 0.28864 0.36076 0.37046 0.0
C1636 C 0.25186 0.45442 0.45083 0.0
C1637 C 0.238 0.4841 0.45199 0.0
C1638 C 0.22151 0.49365 0.42646 0.0
C1639 C 0.21978 0.47427 0.39972 0.0
C1640 C 0.2349 0.44562 0.39893 0.0
C1641 C 0.25053 0.43568 0.42388 0.0
C1642 C 0.26832 0.40588 0.41632 0.0
C1643 C 0.30303 0.40975 0.42359 0.0
C1644 C 0.25593 0.37975 0.43224 0.0
C1645 C 0.26101 0.40107 0.38307 0.0
C1646 C 0.24122 0.42387 0.37355 0.0
C1647 C 0.23215 0.42488 0.34355 0.0
C1648 C 0.2436 0.40195 0.32278 0.0
C1649 C 0.26432 0.37871 0.33207 0.0
C1650 C 0.27294 0.3783 0.36265 0.0
H1651 H 0.47684 0.23286 0.58139 0.0
H1652 H 0.49777 0.14068 0.60633 0.0
H1653 H 0.45768 0.14737 0.64269 0.0
H1654 H 0.46569 0.26741 0.65503 0.0
H1655 H 0.43483 0.29296 0.64389 0.0
H1656 H 0.46388 0.28037 0.61831 0.0
H1657 H 0.42172 0.25966 0.5792 0.0
H1658 H 0.39254 0.27218 0.60471 0.0
H1659 H 0.39473 0.23257 0.58918 0.0
H1660 H 0.41733 0.16433 0.67742 0.0
H1661 H 0.37918 0.19078 0.70946 0.0
H1662 H 0.385 0.27288 0.66332 0.0
C1663 C 0.47318 0.21407 0.59451 0.0
C1664 C 0.49054 0.18615 0.59081 0.0
C1665 C 0.48456 0.16208 0.6083 0.0
C1666 C 0.4619 0.1657 0.62915 0.0
C1667 C 0.44544 0.19354 0.63228 0.0
C1668 C 0.45077 0.21735 0.61554 0.0
C1669 C 0.43048 0.2453 0.62408 0.0
C1670 C 0.44988 0.27314 0.63604 0.0
C1671 C 0.40857 0.25286 0.59772 0.0
C1672 C 0.41318 0.2335 0.64852 0.0
C1673 C 0.42211 0.20353 0.65268 0.0
C1674 C 0.41004 0.18776 0.67434 0.0
C1675 C 0.3884 0.20309 0.69248 0.0
C1676 C 0.37907 0.23397 0.68893 0.0
C1677 C 0.3915 0.24924 0.66645 0.0
H1678 H 0.91513 0.46038 0.59522 0.0
H1679 H 0.94081 0.38473 0.53133 0.0
H1680 H 0.92363 0.34763 0.56455 0.0
H1681 H 0.93717 0.42126 0.66297 0.0
H1682 H 0.90538 0.43909 0.68257 0.0
H1683 H 0.92284 0.45889 0.65502 0.0
H1684 H 0.86956 0.46448 0.62716 0.0
H1685 H 0.85202 0.44426 0.65426 0.0
H1686 H 0.84787 0.43054 0.61528 0.0
H1687 H 0.89706 0.31955 0.60207 0.0
H1688 H 0.86922 0.30257 0.64368 0.0
H1689 H 0.86322 0.397 0.68331 0.0
C1690 C 0.91781 0.43596 0.5887 0.0
C1691 C 0.9294 0.42526 0.561 0.0
C1692 C 0.93243 0.39323 0.55279 0.0
C1693 C 0.92252 0.37208 0.57139 0.0
C1694 C 0.91018 0.38346 0.59822 0.0
C1695 C 0.90845 0.41467 0.60713 0.0
C1696 C 0.89337 0.4212 0.63644 0.0
C1697 C 0.91605 0.43597 0.66069 0.0
C1698 C 0.86396 0.4413 0.63306 0.0
C1699 C 0.88602 0.38888 0.64226 0.0
C1700 C 0.89579 0.36735 0.62001 0.0
C1701 C 0.88981 0.33615 0.61988 0.0
C1702 C 0.87385 0.32674 0.6434 0.0
C1703 C 0.86437 0.34851 0.66661 0.0
C1704 C 0.87055 0.37986 0.66594 0.0
H1705 H 0.31138 0.63432 0.59073 0.0
H1706 H 0.21774 0.62004 0.55505 0.0
H1707 H 0.19876 0.65665 0.59586 0.0
H1708 H 0.29444 0.63733 0.66689 0.0
H1709 H 0.32233 0.66607 0.67931 0.0
H1710 H 0.32856 0.63993 0.64668 0.0
H1711 H 0.33344 0.68577 0.61477 0.0
H1712 H 0.32865 0.71128 0.64812 0.0
H1713 H 0.30375 0.71549 0.61534 0.0
H1714 H 0.19036 0.69371 0.64224 0.0
H1715 H 0.19343 0.72683 0.69027 0.0
H1716 H 0.29279 0.71646 0.69353 0.0
C1717 C 0.28687 0.639 0.59126 0.0
C1718 C 0.26603 0.62448 0.56965 0.0
C1719 C 0.23411 0.63098 0.57141 0.0
C1720 C 0.22315 0.65178 0.59443 0.0
C1721 C 0.24444 0.66573 0.61539 0.0
C1722 C 0.27562 0.65947 0.61398 0.0
C1723 C 0.29379 0.67631 0.63972 0.0
C1724 C 0.31076 0.65355 0.65929 0.0
C1725 C 0.31621 0.69856 0.62877 0.0
C1726 C 0.26805 0.69342 0.65575 0.0
C1727 C 0.23969 0.687 0.64158 0.0
C1728 C 0.21248 0.69912 0.65335 0.0
C1729 C 0.2144 0.7179 0.68052 0.0
C1730 C 0.24332 0.7244 0.69529 0.0
C1731 C 0.27038 0.71234 0.68245 0.0
loop_
_geom_bond_atom_site_label_1
_geom_bond_atom_site_label_2
_geom_bond_distance
_geom_bond_site_symmetry_2
_ccdc_geom_bond_type
Cu0 N1 1.999 . S
Cu0 O6 1.973 . S
Cu0 N11 1.985 1_445 S
Cu0 O20 1.959 1_455 S
N1 Cu0 1.999 . S
N1 C3 1.263 . S
N1 C5 1.389 . S
N2 C3 1.358 . S
N2 C4 1.400 . S
C3 N1 1.263 . S
C3 N2 1.358 . S
C3 H9 0.930 . S
C4 N2 1.400 . S
C4 C5 1.351 . S
C4 H21 0.930 . S
C5 N1 1.389 . S
C5 C4 1.351 . S
C5 H10 0.930 . S
O6 Cu0 1.973 . S
O6 C16 1.282 1_545 S
C7 O8 1.261 . S
C7 O20 1.251 . S
O8 C7 1.261 . S
H9 C3 0.930 . S
H10 C5 0.930 . S
N11 Cu0 1.985 1_665 S
N11 C13 1.335 . S
N11 C14 1.390 . S
N12 C13 1.345 . S
N12 C15 1.336 . S
C13 N11 1.335 . S
C13 N12 1.345 . S
C13 H18 0.930 1_565 S
C14 N11 1.390 . S
C14 C15 1.346 . S
C14 H19 0.930 1_655 S
C15 N12 1.336 . S
C15 C14 1.346 . S
C15 H22 0.929 . S
C16 O6 1.282 1_565 S
C16 O17 1.216 . S
O17 C16 1.216 . S
H18 C13 0.930 1_545 S
H19 C14 0.930 1_455 S
O20 Cu0 1.959 1_655 S
O20 C7 1.251 . S
H21 C4 0.930 . S
H22 C15 0.929 . S
Cu23 N24 1.999 1_445 S
Cu23 O29 1.974 1_455 S
Cu23 N34 1.985 . S
Cu23 O43 1.959 1_545 S
N24 Cu23 1.999 1_665 S
N24 C26 1.263 . S
N24 C28 1.389 . S
N25 C26 1.358 . S
N25 C27 1.400 . S
C26 N24 1.263 . S
C26 N25 1.358 . S
C26 H32 0.930 . S
C27 N25 1.400 . S
C27 C28 1.351 . S
C27 H44 0.930 . S
C28 N24 1.389 . S
C28 C27 1.351 . S
C28 H33 0.930 1_655 S
O29 Cu23 1.974 1_655 S
O29 C39 1.282 . S
C30 O31 1.261 . S
C30 O43 1.251 . S
O31 C30 1.261 . S
H32 C26 0.930 . S
H33 C28 0.930 1_455 S
N34 Cu23 1.985 . S
N34 C36 1.335 . S
N34 C37 1.390 . S
N35 C36 1.345 . S
N35 C38 1.336 . S
C36 N34 1.335 . S
C36 N35 1.345 . S
C36 H41 0.930 . S
C37 N34 1.390 . S
C37 C38 1.346 . S
C37 H42 0.930 . S
C38 N35 1.336 . S
C38 C37 1.346 . S
C38 H45 0.929 . S
C39 O29 1.282 . S
C39 O40 1.216 . S
O40 C39 1.216 . S
H41 C36 0.930 . S
H42 C37 0.930 . S
O43 Cu23 1.959 1_565 S
O43 C30 1.251 . S
H44 C27 0.930 . S
H45 C38 0.929 . S
Cu46 N47 1.994 1_544 S
Cu46 O52 1.967 1_545 S
Cu46 N57 1.990 . S
Cu46 O66 1.966 1_554 S
N47 Cu46 1.994 1_566 S
N47 C49 1.263 . S
N47 C51 1.389 . S
N48 C49 1.358 . S
N48 C50 1.400 . S
C49 N47 1.263 . S
C49 N48 1.358 . S
C49 H55 0.930 . S
C50 N48 1.400 . S
C50 C51 1.351 . S
C50 H67 0.930 . S
C51 N47 1.389 . S
C51 C50 1.351 . S
C51 H56 0.930 . S
O52 Cu46 1.967 1_565 S
O52 C62 1.282 . S
C53 O54 1.261 . S
C53 O66 1.251 . S
O54 C53 1.261 . S
H55 C49 0.930 . S
H56 C51 0.930 . S
N57 Cu46 1.990 . S
N57 C59 1.335 . S
N57 C60 1.390 . S
N58 C59 1.345 . S
N58 C61 1.336 . S
C59 N57 1.335 . S
C59 N58 1.345 . S
C59 H64 0.930 . S
C60 N57 1.390 . S
C60 C61 1.346 . S
C60 H65 0.930 . S
C61 N58 1.336 . S
C61 C60 1.346 . S
C61 H68 0.929 . S
C62 O52 1.282 . S
C62 O63 1.216 . S
O63 C62 1.216 . S
H64 C59 0.930 . S
H65 C60 0.930 . S
O66 Cu46 1.966 1_556 S
O66 C53 1.251 . S
H67 C50 0.930 . S
H68 C61 0.929 . S
Cu69 N70 1.999 1_554 S
Cu69 O75 1.974 . S
Cu69 N80 1.985 1_455 S
Cu69 O89 1.959 1_454 S
N70 Cu69 1.999 1_556 S
N70 C72 1.263 . S
N70 C74 1.389 . S
N71 C72 1.358 . S
N71 C73 1.400 . S
C72 N70 1.263 . S
C72 N71 1.358 . S
C72 H78 0.930 . S
C73 N71 1.400 . S
C73 C74 1.351 . S
C73 H90 0.930 . S
C74 N70 1.389 . S
C74 C73 1.351 . S
C74 H79 0.930 . S
O75 Cu69 1.974 . S
O75 C85 1.282 . S
C76 O77 1.261 . S
C76 O89 1.251 . S
O77 C76 1.261 . S
H78 C72 0.930 . S
H79 C74 0.930 . S
N80 Cu69 1.985 1_655 S
N80 C82 1.335 . S
N80 C83 1.390 . S
N81 C82 1.345 . S
N81 C84 1.336 . S
C82 N80 1.335 . S
C82 N81 1.345 . S
C82 H87 0.930 . S
C83 N80 1.390 . S
C83 C84 1.346 . S
C83 H88 0.930 1_655 S
C84 N81 1.336 . S
C84 C83 1.346 . S
C84 H91 0.929 . S
C85 O75 1.282 . S
C85 O86 1.216 . S
O86 C85 1.216 . S
H87 C82 0.930 . S
H88 C83 0.930 1_455 S
O89 Cu69 1.959 1_656 S
O89 C76 1.251 . S
H90 C73 0.930 . S
H91 C84 0.929 . S
Cu92 N93 1.999 1_554 S
Cu92 O98 1.974 . S
Cu92 N103 1.985 . S
Cu92 O112 1.959 1_554 S
N93 Cu92 1.999 1_556 S
N93 C95 1.263 . S
N93 C97 1.389 . S
N94 C95 1.358 . S
N94 C96 1.400 . S
C95 N93 1.263 . S
C95 N94 1.358 . S
C95 H101 0.930 1_556 S
C96 N94 1.400 . S
C96 C97 1.351 . S
C96 H113 0.930 . S
C97 N93 1.389 . S
C97 C96 1.351 . S
C97 H102 0.930 . S
O98 Cu92 1.974 . S
O98 C108 1.282 . S
C99 O100 1.261 . S
C99 O112 1.251 . S
O100 C99 1.261 . S
H101 C95 0.930 1_554 S
H102 C97 0.930 . S
N103 Cu92 1.985 . S
N103 C105 1.335 1_545 S
N103 C106 1.390 . S
N104 C105 1.345 . S
N104 C107 1.336 1_565 S
C105 N103 1.335 1_565 S
C105 N104 1.345 . S
C105 H110 0.930 . S
C106 N103 1.390 . S
C106 C107 1.346 . S
C106 H111 0.930 . S
C107 N104 1.336 1_545 S
C107 C106 1.346 . S
C107 H114 0.935 . S
C108 O98 1.282 . S
C108 O109 1.216 . S
O109 C108 1.216 . S
H110 C105 0.930 . S
H111 C106 0.930 . S
O112 Cu92 1.959 1_556 S
O112 C99 1.251 . S
H113 C96 0.930 . S
H114 C107 0.935 . S
Cu115 N116 1.999 1_454 S
Cu115 O121 1.974 1_455 S
Cu115 N126 1.985 . S
Cu115 O135 1.959 1_554 S
N116 Cu115 1.999 1_656 S
N116 C118 1.263 . S
N116 C120 1.389 . S
N117 C118 1.358 . S
N117 C119 1.400 . S
C118 N116 1.263 . S
C118 N117 1.358 . S
C118 H124 0.930 . S
C119 N117 1.400 . S
C119 C120 1.351 . S
C119 H136 0.930 . S
C120 N116 1.389 . S
C120 C119 1.351 . S
C120 H125 0.930 1_655 S
O121 Cu115 1.974 1_655 S
O121 C131 1.282 . S
C122 O123 1.261 . S
C122 O135 1.251 . S
O123 C122 1.261 . S
H124 C118 0.930 . S
H125 C120 0.930 1_455 S
N126 Cu115 1.985 . S
N126 C128 1.335 . S
N126 C129 1.390 . S
N127 C128 1.345 . S
N127 C130 1.336 . S
C128 N126 1.335 . S
C128 N127 1.345 . S
C128 H133 0.930 . S
C129 N126 1.390 . S
C129 C130 1.346 . S
C129 H134 0.930 . S
C130 N127 1.336 . S
C130 C129 1.346 . S
C130 H137 0.929 . S
C131 O121 1.282 . S
C131 O132 1.216 . S
O132 C131 1.216 . S
H133 C128 0.930 . S
H134 C129 0.930 . S
O135 Cu115 1.959 1_556 S
O135 C122 1.251 . S
H136 C119 0.930 . S
H137 C130 0.929 . S
Cu138 N139 1.999 . S
Cu138 O144 1.974 . S
Cu138 N149 1.985 . S
Cu138 O158 1.959 . S
N139 Cu138 1.999 . S
N139 C141 1.263 . S
N139 C143 1.389 . S
N140 C141 1.358 . S
N140 C142 1.400 . S
C141 N139 1.263 . S
C141 N140 1.358 . S
C141 H147 0.930 . S
C142 N140 1.400 . S
C142 C143 1.351 . S
C142 H159 0.930 . S
C143 N139 1.389 . S
C143 C142 1.351 . S
C143 H148 0.930 . S
O144 Cu138 1.974 . S
O144 C154 1.282 . S
C145 O146 1.261 . S
C145 O158 1.251 . S
O146 C145 1.261 . S
H147 C141 0.930 . S
H148 C143 0.930 . S
N149 Cu138 1.985 . S
N149 C151 1.335 . S
N149 C152 1.390 . S
N150 C151 1.345 . S
N150 C153 1.336 . S
C151 N149 1.335 . S
C151 N150 1.345 . S
C151 H156 0.930 . S
C152 N149 1.390 . S
C152 C153 1.346 . S
C152 H157 0.930 . S
C153 N150 1.336 . S
C153 C152 1.346 . S
C153 H160 0.929 . S
C154 O144 1.282 . S
C154 O155 1.216 . S
O155 C154 1.216 . S
H156 C151 0.930 . S
H157 C152 0.930 . S
O158 Cu138 1.959 . S
O158 C145 1.251 . S
H159 C142 0.930 . S
H160 C153 0.929 . S
Cu161 N162 1.999 . S
Cu161 O167 1.974 . S
Cu161 N172 1.985 . S
Cu161 O181 1.959 . S
N162 Cu161 1.999 . S
N162 C164 1.263 . S
N162 C166 1.389 . S
N163 C164 1.358 . S
N163 C165 1.400 . S
C164 N162 1.263 . S
C164 N163 1.358 . S
C164 H170 0.930 . S
C165 N163 1.400 . S
C165 C166 1.351 . S
C165 H182 0.930 . S
C166 N162 1.389 . S
C166 C165 1.351 . S
C166 H171 0.930 . S
O167 Cu161 1.974 . S
O167 C177 1.282 . S
C168 O169 1.261 . S
C168 O181 1.251 . S
O169 C168 1.261 . S
H170 C164 0.930 . S
H171 C166 0.930 . S
N172 Cu161 1.985 . S
N172 C174 1.335 . S
N172 C175 1.390 . S
N173 C174 1.345 . S
N173 C176 1.336 . S
C174 N172 1.335 . S
C174 N173 1.345 . S
C174 H179 0.930 . S
C175 N172 1.390 . S
C175 C176 1.346 . S
C175 H180 0.930 . S
C176 N173 1.336 . S
C176 C175 1.346 . S
C176 H183 0.929 . S
C177 O167 1.282 . S
C177 O178 1.216 . S
O178 C177 1.216 . S
H179 C174 0.930 . S
H180 C175 0.930 . S
O181 Cu161 1.959 . S
O181 C168 1.251 . S
H182 C165 0.930 . S
H183 C176 0.929 . S
Cu184 N185 1.999 . S
Cu184 O190 1.974 . S
Cu184 N195 1.985 . S
Cu184 O204 1.959 . S
N185 Cu184 1.999 . S
N185 C187 1.263 . S
N185 C189 1.389 . S
N186 C187 1.358 . S
N186 C188 1.400 . S
C187 N185 1.263 . S
C187 N186 1.358 . S
C187 H193 0.930 . S
C188 N186 1.400 . S
C188 C189 1.351 . S
C188 H205 0.930 . S
C189 N185 1.389 . S
C189 C188 1.351 . S
C189 H194 0.930 . S
O190 Cu184 1.974 . S
O190 C200 1.282 . S
C191 O192 1.261 . S
C191 O204 1.251 . S
O192 C191 1.261 . S
H193 C187 0.930 . S
H194 C189 0.930 . S
N195 Cu184 1.985 . S
N195 C197 1.335 . S
N195 C198 1.390 . S
N196 C197 1.345 . S
N196 C199 1.336 . S
C197 N195 1.335 . S
C197 N196 1.345 . S
C197 H202 0.930 . S
C198 N195 1.390 . S
C198 C199 1.346 . S
C198 H203 0.930 . S
C199 N196 1.336 . S
C199 C198 1.346 . S
C199 H206 0.929 . S
C200 O190 1.282 . S
C200 O201 1.216 . S
O201 C200 1.216 . S
H202 C197 0.930 . S
H203 C198 0.930 . S
O204 Cu184 1.959 . S
O204 C191 1.251 . S
H205 C188 0.930 . S
H206 C199 0.929 . S
Cu207 N208 1.999 . S
Cu207 O213 1.974 . S
Cu207 N218 1.985 . S
Cu207 O227 1.959 . S
N208 Cu207 1.999 . S
N208 C210 1.263 . S
N208 C212 1.389 . S
N209 C210 1.358 . S
N209 C211 1.400 . S
C210 N208 1.263 . S
C210 N209 1.358 . S
C210 H216 0.930 . S
C211 N209 1.400 . S
C211 C212 1.351 . S
C211 H228 0.930 . S
C212 N208 1.389 . S
C212 C211 1.351 . S
C212 H217 0.930 . S
O213 Cu207 1.974 . S
O213 C223 1.282 . S
C214 O215 1.261 . S
C214 O227 1.251 . S
O215 C214 1.261 . S
H216 C210 0.930 . S
H217 C212 0.930 . S
N218 Cu207 1.985 . S
N218 C220 1.335 . S
N218 C221 1.390 . S
N219 C220 1.345 . S
N219 C222 1.336 . S
C220 N218 1.335 . S
C220 N219 1.345 . S
C220 H225 0.930 . S
C221 N218 1.390 . S
C221 C222 1.346 . S
C221 H226 0.930 . S
C222 N219 1.336 . S
C222 C221 1.346 . S
C222 H229 0.929 . S
C223 O213 1.282 . S
C223 O224 1.216 . S
O224 C223 1.216 . S
H225 C220 0.930 . S
H226 C221 0.930 . S
O227 Cu207 1.959 . S
O227 C214 1.251 . S
H228 C211 0.930 . S
H229 C222 0.929 . S
Cu230 N231 1.999 . S
Cu230 O236 1.974 . S
Cu230 N241 1.985 . S
Cu230 O250 1.959 . S
N231 Cu230 1.999 . S
N231 C233 1.263 . S
N231 C235 1.389 . S
N232 C233 1.358 . S
N232 C234 1.400 . S
C233 N231 1.263 . S
C233 N232 1.358 . S
C233 H239 0.930 . S
C234 N232 1.400 . S
C234 C235 1.351 . S
C234 H251 0.930 . S
C235 N231 1.389 . S
C235 C234 1.351 . S
C235 H240 0.930 . S
O236 Cu230 1.974 . S
O236 C246 1.282 . S
C237 O238 1.261 . S
C237 O250 1.251 . S
O238 C237 1.261 . S
H239 C233 0.930 . S
H240 C235 0.930 . S
N241 Cu230 1.985 . S
N241 C243 1.335 . S
N241 C244 1.390 . S
N242 C243 1.345 . S
N242 C245 1.336 . S
C243 N241 1.335 . S
C243 N242 1.345 . S
C243 H248 0.930 . S
C244 N241 1.390 . S
C244 C245 1.346 . S
C244 H249 0.930 . S
C245 N242 1.336 . S
C245 C244 1.346 . S
C245 H252 0.929 . S
C246 O236 1.282 . S
C246 O247 1.216 . S
O247 C246 1.216 . S
H248 C243 0.930 . S
H249 C244 0.930 . S
O250 Cu230 1.959 . S
O250 C237 1.251 . S
H251 C234 0.930 . S
H252 C245 0.929 . S
Cu253 N254 1.999 . S
Cu253 O259 1.974 . S
Cu253 N264 1.985 . S
Cu253 O273 1.959 . S
N254 Cu253 1.999 . S
N254 C256 1.263 . S
N254 C258 1.389 . S
N255 C256 1.358 . S
N255 C257 1.400 . S
C256 N254 1.263 . S
C256 N255 1.358 . S
C256 H262 0.930 . S
C257 N255 1.400 . S
C257 C258 1.351 . S
C257 H274 0.930 . S
C258 N254 1.389 . S
C258 C257 1.351 . S
C258 H263 0.930 . S
O259 Cu253 1.974 . S
O259 C269 1.282 . S
C260 O261 1.261 . S
C260 O273 1.251 . S
O261 C260 1.261 . S
H262 C256 0.930 . S
H263 C258 0.930 . S
N264 Cu253 1.985 . S
N264 C266 1.335 . S
N264 C267 1.390 . S
N265 C266 1.345 . S
N265 C268 1.336 . S
C266 N264 1.335 . S
C266 N265 1.345 . S
C266 H271 0.930 . S
C267 N264 1.390 . S
C267 C268 1.346 . S
C267 H272 0.930 . S
C268 N265 1.336 . S
C268 C267 1.346 . S
C268 H275 0.929 . S
C269 O259 1.282 . S
C269 O270 1.216 . S
O270 C269 1.216 . S
H271 C266 0.930 . S
H272 C267 0.930 . S
O273 Cu253 1.959 . S
O273 C260 1.251 . S
H274 C257 0.930 . S
H275 C268 0.929 . S
Tb276 O279 2.453 . S
Tb276 O280 2.596 . S
Tb276 O281 2.374 . S
Tb276 O289 2.343 . S
Tb276 O291 2.353 . S
Tb276 O293 2.427 . S
Tb276 O294 2.513 . S
C277 O281 1.251 . S
C277 O283 1.263 . S
Tb278 O280 2.343 . S
Tb278 O283 2.353 . S
Tb278 O286 2.427 . S
Tb278 O287 2.513 . S
Tb278 O288 2.453 . S
Tb278 O289 2.596 . S
Tb278 O290 2.374 . S
O279 Tb276 2.453 . S
O279 C295 1.245 . S
O280 Tb276 2.596 . S
O280 Tb278 2.343 . S
O280 C295 1.259 . S
O281 Tb276 2.374 . S
O281 C277 1.251 . S
C282 O286 1.275 . S
C282 O287 1.246 . S
O283 C277 1.263 . S
O283 Tb278 2.353 . S
C284 O288 1.245 . S
C284 O289 1.259 . S
C285 O290 1.250 . S
C285 O291 1.263 . S
O286 Tb278 2.427 . S
O286 C282 1.275 . S
O287 Tb278 2.513 . S
O287 C282 1.246 . S
O288 Tb278 2.453 . S
O288 C284 1.245 . S
O289 Tb276 2.343 . S
O289 Tb278 2.596 . S
O289 C284 1.259 . S
O290 Tb278 2.374 . S
O290 C285 1.250 . S
O291 Tb276 2.353 . S
O291 C285 1.263 . S
C292 O293 1.275 . S
C292 O294 1.246 . S
O293 Tb276 2.427 . S
O293 C292 1.275 . S
O294 Tb276 2.513 . S
O294 C292 1.246 . S
C295 O279 1.245 . S
C295 O280 1.259 . S
Tb296 O299 2.453 . S
Tb296 O300 2.596 . S
Tb296 O301 2.374 . S
Tb296 O309 2.343 . S
Tb296 O311 2.353 . S
Tb296 O313 2.427 . S
Tb296 O314 2.513 . S
C297 O301 1.251 . S
C297 O303 1.263 . S
Tb298 O300 2.343 . S
Tb298 O303 2.353 . S
Tb298 O306 2.427 . S
Tb298 O307 2.513 . S
Tb298 O308 2.453 . S
Tb298 O309 2.596 . S
Tb298 O310 2.374 . S
O299 Tb296 2.453 . S
O299 C315 1.245 . S
O300 Tb296 2.596 . S
O300 Tb298 2.343 . S
O300 C315 1.259 . S
O301 Tb296 2.374 . S
O301 C297 1.251 . S
C302 O306 1.275 . S
C302 O307 1.246 . S
O303 C297 1.263 . S
O303 Tb298 2.353 . S
C304 O308 1.245 . S
C304 O309 1.259 . S
C305 O310 1.250 . S
C305 O311 1.263 . S
O306 Tb298 2.427 . S
O306 C302 1.275 . S
O307 Tb298 2.513 . S
O307 C302 1.246 . S
O308 Tb298 2.453 . S
O308 C304 1.245 . S
O309 Tb296 2.343 . S
O309 Tb298 2.596 . S
O309 C304 1.259 . S
O310 Tb298 2.374 . S
O310 C305 1.250 . S
O311 Tb296 2.353 . S
O311 C305 1.263 . S
C312 O313 1.275 . S
C312 O314 1.246 . S
O313 Tb296 2.427 . S
O313 C312 1.275 . S
O314 Tb296 2.513 . S
O314 C312 1.246 . S
C315 O299 1.245 . S
C315 O300 1.259 . S
Tb316 O319 2.453 . S
Tb316 O320 2.596 . S
Tb316 O321 2.374 . S
Tb316 O329 2.343 . S
Tb316 O331 2.353 . S
Tb316 O333 2.427 . S
Tb316 O334 2.513 . S
C317 O321 1.251 . S
C317 O323 1.263 . S
Tb318 O320 2.343 . S
Tb318 O323 2.353 . S
Tb318 O326 2.427 . S
Tb318 O327 2.513 . S
Tb318 O328 2.453 . S
Tb318 O329 2.596 . S
Tb318 O330 2.374 . S
O319 Tb316 2.453 . S
O319 C335 1.245 . S
O320 Tb316 2.596 . S
O320 Tb318 2.343 . S
O320 C335 1.259 . S
O321 Tb316 2.374 . S
O321 C317 1.251 . S
C322 O326 1.275 . S
C322 O327 1.246 . S
O323 C317 1.263 . S
O323 Tb318 2.353 . S
C324 O328 1.245 . S
C324 O329 1.259 . S
C325 O330 1.250 . S
C325 O331 1.263 . S
O326 Tb318 2.427 . S
O326 C322 1.275 . S
O327 Tb318 2.513 . S
O327 C322 1.246 . S
O328 Tb318 2.453 . S
O328 C324 1.245 . S
O329 Tb316 2.343 . S
O329 Tb318 2.596 . S
O329 C324 1.259 . S
O330 Tb318 2.374 . S
O330 C325 1.250 . S
O331 Tb316 2.353 . S
O331 C325 1.263 . S
C332 O333 1.275 . S
C332 O334 1.246 . S
O333 Tb316 2.427 . S
O333 C332 1.275 . S
O334 Tb316 2.513 . S
O334 C332 1.246 . S
C335 O319 1.245 . S
C335 O320 1.259 . S
Tb336 O339 2.453 . S
Tb336 O340 2.596 . S
Tb336 O341 2.374 . S
Tb336 O349 2.343 . S
Tb336 O351 2.353 . S
Tb336 O353 2.427 . S
Tb336 O354 2.513 . S
C337 O341 1.251 . S
C337 O343 1.263 . S
Tb338 O340 2.343 . S
Tb338 O343 2.353 . S
Tb338 O346 2.427 . S
Tb338 O347 2.513 . S
Tb338 O348 2.453 . S
Tb338 O349 2.596 . S
Tb338 O350 2.374 . S
O339 Tb336 2.453 . S
O339 C355 1.245 . S
O340 Tb336 2.596 . S
O340 Tb338 2.343 . S
O340 C355 1.259 . S
O341 Tb336 2.374 . S
O341 C337 1.251 . S
C342 O346 1.275 . S
C342 O347 1.246 . S
O343 C337 1.263 . S
O343 Tb338 2.353 . S
C344 O348 1.245 . S
C344 O349 1.259 . S
C345 O350 1.250 . S
C345 O351 1.263 . S
O346 Tb338 2.427 . S
O346 C342 1.275 . S
O347 Tb338 2.513 . S
O347 C342 1.246 . S
O348 Tb338 2.453 . S
O348 C344 1.245 . S
O349 Tb336 2.343 . S
O349 Tb338 2.596 . S
O349 C344 1.259 . S
O350 Tb338 2.374 . S
O350 C345 1.250 . S
O351 Tb336 2.353 . S
O351 C345 1.263 . S
C352 O353 1.275 . S
C352 O354 1.246 . S
O353 Tb336 2.427 . S
O353 C352 1.275 . S
O354 Tb336 2.513 . S
O354 C352 1.246 . S
C355 O339 1.245 . S
C355 O340 1.259 . S
Tb356 O359 2.453 . S
Tb356 O360 2.596 . S
Tb356 O361 2.374 . S
Tb356 O369 2.343 . S
Tb356 O371 2.353 . S
Tb356 O373 2.427 . S
Tb356 O374 2.513 . S
C357 O361 1.251 . S
C357 O363 1.263 . S
Tb358 O360 2.343 . S
Tb358 O363 2.353 . S
Tb358 O366 2.427 . S
Tb358 O367 2.513 . S
Tb358 O368 2.453 . S
Tb358 O369 2.596 . S
Tb358 O370 2.374 . S
O359 Tb356 2.453 . S
O359 C375 1.245 . S
O360 Tb356 2.596 . S
O360 Tb358 2.343 . S
O360 C375 1.259 . S
O361 Tb356 2.374 . S
O361 C357 1.251 . S
C362 O366 1.275 . S
C362 O367 1.246 . S
O363 C357 1.263 . S
O363 Tb358 2.353 . S
C364 O368 1.245 . S
C364 O369 1.259 . S
C365 O370 1.250 . S
C365 O371 1.263 . S
O366 Tb358 2.427 . S
O366 C362 1.275 . S
O367 Tb358 2.513 . S
O367 C362 1.246 . S
O368 Tb358 2.453 . S
O368 C364 1.245 . S
O369 Tb356 2.343 . S
O369 Tb358 2.596 . S
O369 C364 1.259 . S
O370 Tb358 2.374 . S
O370 C365 1.250 . S
O371 Tb356 2.353 . S
O371 C365 1.263 . S
C372 O373 1.275 . S
C372 O374 1.246 . S
O373 Tb356 2.427 . S
O373 C372 1.275 . S
O374 Tb356 2.513 . S
O374 C372 1.246 . S
C375 O359 1.245 . S
C375 O360 1.259 . S
Tb376 O379 2.453 . S
Tb376 O380 2.596 . S
Tb376 O381 2.374 . S
Tb376 O389 2.343 . S
Tb376 O391 2.353 . S
Tb376 O393 2.427 . S
Tb376 O394 2.513 . S
C377 O381 1.251 . S
C377 O383 1.263 . S
Tb378 O380 2.343 . S
Tb378 O383 2.353 . S
Tb378 O386 2.427 . S
Tb378 O387 2.513 . S
Tb378 O388 2.453 . S
Tb378 O389 2.596 . S
Tb378 O390 2.374 . S
O379 Tb376 2.453 . S
O379 C395 1.245 . S
O380 Tb376 2.596 . S
O380 Tb378 2.343 . S
O380 C395 1.259 . S
O381 Tb376 2.374 . S
O381 C377 1.251 . S
C382 O386 1.275 . S
C382 O387 1.246 . S
O383 C377 1.263 . S
O383 Tb378 2.353 . S
C384 O388 1.245 . S
C384 O389 1.259 . S
C385 O390 1.250 . S
C385 O391 1.263 . S
O386 Tb378 2.427 . S
O386 C382 1.275 . S
O387 Tb378 2.513 . S
O387 C382 1.246 . S
O388 Tb378 2.453 . S
O388 C384 1.245 . S
O389 Tb376 2.343 . S
O389 Tb378 2.596 . S
O389 C384 1.259 . S
O390 Tb378 2.374 . S
O390 C385 1.250 . S
O391 Tb376 2.353 . S
O391 C385 1.263 . S
C392 O393 1.275 . S
C392 O394 1.246 . S
O393 Tb376 2.427 . S
O393 C392 1.275 . S
O394 Tb376 2.513 . S
O394 C392 1.246 . S
C395 O379 1.245 . S
C395 O380 1.259 . S
Tb396 O399 2.453 . S
Tb396 O400 2.596 . S
Tb396 O401 2.374 . S
Tb396 O409 2.343 . S
Tb396 O411 2.353 . S
Tb396 O413 2.427 . S
Tb396 O414 2.513 . S
C397 O401 1.251 . S
C397 O403 1.263 . S
Tb398 O400 2.343 . S
Tb398 O403 2.353 . S
Tb398 O406 2.427 . S
Tb398 O407 2.513 . S
Tb398 O408 2.453 . S
Tb398 O409 2.596 . S
Tb398 O410 2.374 . S
O399 Tb396 2.453 . S
O399 C415 1.245 . S
O400 Tb396 2.596 . S
O400 Tb398 2.343 . S
O400 C415 1.259 . S
O401 Tb396 2.374 . S
O401 C397 1.251 . S
C402 O406 1.275 . S
C402 O407 1.246 . S
O403 C397 1.263 . S
O403 Tb398 2.353 . S
C404 O408 1.245 . S
C404 O409 1.259 . S
C405 O410 1.250 . S
C405 O411 1.263 . S
O406 Tb398 2.427 . S
O406 C402 1.275 . S
O407 Tb398 2.513 . S
O407 C402 1.246 . S
O408 Tb398 2.453 . S
O408 C404 1.245 . S
O409 Tb396 2.343 . S
O409 Tb398 2.596 . S
O409 C404 1.259 . S
O410 Tb398 2.374 . S
O410 C405 1.250 . S
O411 Tb396 2.353 . S
O411 C405 1.263 . S
C412 O413 1.275 . S
C412 O414 1.246 . S
O413 Tb396 2.427 . S
O413 C412 1.275 . S
O414 Tb396 2.513 . S
O414 C412 1.246 . S
C415 O399 1.245 . S
C415 O400 1.259 . S
Tb416 O419 2.453 . S
Tb416 O420 2.596 . S
Tb416 O421 2.374 . S
Tb416 O429 2.343 . S
Tb416 O431 2.353 . S
Tb416 O433 2.427 . S
Tb416 O434 2.513 . S
C417 O421 1.251 . S
C417 O423 1.263 . S
Tb418 O420 2.343 . S
Tb418 O423 2.353 . S
Tb418 O426 2.427 . S
Tb418 O427 2.513 . S
Tb418 O428 2.453 . S
Tb418 O429 2.596 . S
Tb418 O430 2.374 . S
O419 Tb416 2.453 . S
O419 C435 1.245 . S
O420 Tb416 2.596 . S
O420 Tb418 2.343 . S
O420 C435 1.259 . S
O421 Tb416 2.374 . S
O421 C417 1.251 . S
C422 O426 1.275 . S
C422 O427 1.246 . S
O423 C417 1.263 . S
O423 Tb418 2.353 . S
C424 O428 1.245 . S
C424 O429 1.259 . S
C425 O430 1.250 . S
C425 O431 1.263 . S
O426 Tb418 2.427 . S
O426 C422 1.275 . S
O427 Tb418 2.513 . S
O427 C422 1.246 . S
O428 Tb418 2.453 . S
O428 C424 1.245 . S
O429 Tb416 2.343 . S
O429 Tb418 2.596 . S
O429 C424 1.259 . S
O430 Tb418 2.374 . S
O430 C425 1.250 . S
O431 Tb416 2.353 . S
O431 C425 1.263 . S
C432 O433 1.275 . S
C432 O434 1.246 . S
O433 Tb416 2.427 . S
O433 C432 1.275 . S
O434 Tb416 2.513 . S
O434 C432 1.246 . S
C435 O419 1.245 . S
C435 O420 1.259 . S
H436 C448 0.930 . S
H437 C450 0.930 . S
H438 C451 0.930 . S
H439 C455 0.959 . S
H440 C455 0.959 . S
H441 C455 0.961 . S
H442 C456 0.960 . S
H443 C456 0.961 . S
H444 C456 0.959 . S
H445 C459 0.929 . S
H446 C460 0.931 . S
H447 C462 0.930 . S
C448 H436 0.930 . S
C448 C449 1.399 . S
C448 C453 1.399 . S
C449 C448 1.399 . S
C449 C450 1.376 . S
C450 H437 0.930 . S
C450 C449 1.376 . S
C450 C451 1.388 . S
C451 H438 0.930 . S
C451 C450 1.388 . S
C451 C452 1.390 . S
C452 C451 1.390 . S
C452 C453 1.394 . S
C452 C458 1.465 . S
C453 C448 1.399 . S
C453 C452 1.394 . S
C453 C454 1.516 . S
C454 C453 1.516 . S
C454 C455 1.502 . S
C454 C456 1.561 . S
C454 C457 1.526 . S
C455 H439 0.959 . S
C455 H440 0.959 . S
C455 H441 0.961 . S
C455 C454 1.502 . S
C456 H442 0.960 . S
C456 H443 0.961 . S
C456 H444 0.959 . S
C456 C454 1.561 . S
C457 C454 1.526 . S
C457 C458 1.396 . S
C457 C462 1.390 . S
C458 C452 1.465 . S
C458 C457 1.396 . S
C458 C459 1.399 . S
C459 H445 0.929 . S
C459 C458 1.399 . S
C459 C460 1.385 . S
C460 H446 0.931 . S
C460 C459 1.385 . S
C460 C461 1.389 . S
C461 C460 1.389 . S
C461 C462 1.387 . S
C462 H447 0.930 . S
C462 C457 1.390 . S
C462 C461 1.387 . S
H463 C475 0.930 . S
H464 C477 0.930 . S
H465 C478 0.930 . S
H466 C482 0.959 . S
H467 C482 0.959 . S
H468 C482 0.961 . S
H469 C483 0.960 . S
H470 C483 0.961 . S
H471 C483 0.959 . S
H472 C486 0.929 . S
H473 C487 0.931 . S
H474 C489 0.930 . S
C475 H463 0.930 . S
C475 C476 1.399 . S
C475 C480 1.399 . S
C476 C475 1.399 . S
C476 C477 1.376 . S
C477 H464 0.930 . S
C477 C476 1.376 . S
C477 C478 1.388 . S
C478 H465 0.930 . S
C478 C477 1.388 . S
C478 C479 1.390 . S
C479 C478 1.390 . S
C479 C480 1.394 . S
C479 C485 1.465 . S
C480 C475 1.399 . S
C480 C479 1.394 . S
C480 C481 1.516 . S
C481 C480 1.516 . S
C481 C482 1.502 . S
C481 C483 1.561 . S
C481 C484 1.526 . S
C482 H466 0.959 . S
C482 H467 0.959 . S
C482 H468 0.961 . S
C482 C481 1.502 . S
C483 H469 0.960 . S
C483 H470 0.961 . S
C483 H471 0.959 . S
C483 C481 1.561 . S
C484 C481 1.526 . S
C484 C485 1.396 . S
C484 C489 1.390 . S
C485 C479 1.465 . S
C485 C484 1.396 . S
C485 C486 1.399 . S
C486 H472 0.929 . S
C486 C485 1.399 . S
C486 C487 1.385 . S
C487 H473 0.931 . S
C487 C486 1.385 . S
C487 C488 1.389 . S
C488 C487 1.389 . S
C488 C489 1.387 . S
C489 H474 0.930 . S
C489 C484 1.390 . S
C489 C488 1.387 . S
H490 C502 0.930 . S
H491 C504 0.930 . S
H492 C505 0.930 . S
H493 C509 0.959 . S
H494 C509 0.959 . S
H495 C509 0.961 . S
H496 C510 0.960 . S
H497 C510 0.961 . S
H498 C510 0.959 . S
H499 C513 0.929 . S
H500 C514 0.931 . S
H501 C516 0.930 . S
C502 H490 0.930 . S
C502 C503 1.399 . S
C502 C507 1.399 . S
C503 C502 1.399 . S
C503 C504 1.376 . S
C504 H491 0.930 . S
C504 C503 1.376 . S
C504 C505 1.388 . S
C505 H492 0.930 . S
C505 C504 1.388 . S
C505 C506 1.390 . S
C506 C505 1.390 . S
C506 C507 1.394 . S
C506 C512 1.465 . S
C507 C502 1.399 . S
C507 C506 1.394 . S
C507 C508 1.516 . S
C508 C507 1.516 . S
C508 C509 1.502 . S
C508 C510 1.561 . S
C508 C511 1.526 . S
C509 H493 0.959 . S
C509 H494 0.959 . S
C509 H495 0.961 . S
C509 C508 1.502 . S
C510 H496 0.960 . S
C510 H497 0.961 . S
C510 H498 0.959 . S
C510 C508 1.561 . S
C511 C508 1.526 . S
C511 C512 1.396 . S
C511 C516 1.390 . S
C512 C506 1.465 . S
C512 C511 1.396 . S
C512 C513 1.399 . S
C513 H499 0.929 . S
C513 C512 1.399 . S
C513 C514 1.385 . S
C514 H500 0.931 . S
C514 C513 1.385 . S
C514 C515 1.389 . S
C515 C514 1.389 . S
C515 C516 1.387 . S
C516 H501 0.930 . S
C516 C511 1.390 . S
C516 C515 1.387 . S
H517 C529 0.930 . S
H518 C531 0.930 . S
H519 C532 0.930 . S
H520 C536 0.959 . S
H521 C536 0.959 . S
H522 C536 0.961 . S
H523 C537 0.960 . S
H524 C537 0.961 . S
H525 C537 0.959 . S
H526 C540 0.929 . S
H527 C541 0.931 . S
H528 C543 0.930 . S
C529 H517 0.930 . S
C529 C530 1.399 . S
C529 C534 1.399 . S
C530 C529 1.399 . S
C530 C531 1.376 . S
C531 H518 0.930 . S
C531 C530 1.376 . S
C531 C532 1.388 . S
C532 H519 0.930 . S
C532 C531 1.388 . S
C532 C533 1.390 . S
C533 C532 1.390 . S
C533 C534 1.394 . S
C533 C539 1.465 . S
C534 C529 1.399 . S
C534 C533 1.394 . S
C534 C535 1.516 . S
C535 C534 1.516 . S
C535 C536 1.502 . S
C535 C537 1.561 . S
C535 C538 1.526 . S
C536 H520 0.959 . S
C536 H521 0.959 . S
C536 H522 0.961 . S
C536 C535 1.502 . S
C537 H523 0.960 . S
C537 H524 0.961 . S
C537 H525 0.959 . S
C537 C535 1.561 . S
C538 C535 1.526 . S
C538 C539 1.396 . S
C538 C543 1.390 . S
C539 C533 1.465 . S
C539 C538 1.396 . S
C539 C540 1.399 . S
C540 H526 0.929 . S
C540 C539 1.399 . S
C540 C541 1.385 . S
C541 H527 0.931 . S
C541 C540 1.385 . S
C541 C542 1.389 . S
C542 C541 1.389 . S
C542 C543 1.387 . S
C543 H528 0.930 . S
C543 C538 1.390 . S
C543 C542 1.387 . S
H544 C556 0.930 . S
H545 C558 0.930 . S
H546 C559 0.930 . S
H547 C563 0.959 . S
H548 C563 0.959 . S
H549 C563 0.961 . S
H550 C564 0.960 . S
H551 C564 0.961 . S
H552 C564 0.959 . S
H553 C567 0.929 . S
H554 C568 0.931 . S
H555 C570 0.930 . S
C556 H544 0.930 . S
C556 C557 1.399 . S
C556 C561 1.399 . S
C557 C556 1.399 . S
C557 C558 1.376 . S
C558 H545 0.930 . S
C558 C557 1.376 . S
C558 C559 1.388 . S
C559 H546 0.930 . S
C559 C558 1.388 . S
C559 C560 1.390 . S
C560 C559 1.390 . S
C560 C561 1.394 . S
C560 C566 1.465 . S
C561 C556 1.399 . S
C561 C560 1.394 . S
C561 C562 1.516 . S
C562 C561 1.516 . S
C562 C563 1.502 . S
C562 C564 1.561 . S
C562 C565 1.526 . S
C563 H547 0.959 . S
C563 H548 0.959 . S
C563 H549 0.961 . S
C563 C562 1.502 . S
C564 H550 0.960 . S
C564 H551 0.961 . S
C564 H552 0.959 . S
C564 C562 1.561 . S
C565 C562 1.526 . S
C565 C566 1.396 . S
C565 C570 1.390 . S
C566 C560 1.465 . S
C566 C565 1.396 . S
C566 C567 1.399 . S
C567 H553 0.929 . S
C567 C566 1.399 . S
C567 C568 1.385 . S
C568 H554 0.931 . S
C568 C567 1.385 . S
C568 C569 1.389 . S
C569 C568 1.389 . S
C569 C570 1.387 . S
C570 H555 0.930 . S
C570 C565 1.390 . S
C570 C569 1.387 . S
H571 C583 0.930 . S
H572 C585 0.930 . S
H573 C586 0.930 . S
H574 C590 0.959 . S
H575 C590 0.959 . S
H576 C590 0.961 . S
H577 C591 0.960 . S
H578 C591 0.961 . S
H579 C591 0.959 . S
H580 C594 0.929 . S
H581 C595 0.931 . S
H582 C597 0.930 . S
C583 H571 0.930 . S
C583 C584 1.399 . S
C583 C588 1.399 . S
C584 C583 1.399 . S
C584 C585 1.376 . S
C585 H572 0.930 . S
C585 C584 1.376 . S
C585 C586 1.388 . S
C586 H573 0.930 . S
C586 C585 1.388 . S
C586 C587 1.390 . S
C587 C586 1.390 . S
C587 C588 1.394 . S
C587 C593 1.465 . S
C588 C583 1.399 . S
C588 C587 1.394 . S
C588 C589 1.516 . S
C589 C588 1.516 . S
C589 C590 1.502 . S
C589 C591 1.561 . S
C589 C592 1.526 . S
C590 H574 0.959 . S
C590 H575 0.959 . S
C590 H576 0.961 . S
C590 C589 1.502 . S
C591 H577 0.960 . S
C591 H578 0.961 . S
C591 H579 0.959 . S
C591 C589 1.561 . S
C592 C589 1.526 . S
C592 C593 1.396 . S
C592 C597 1.390 . S
C593 C587 1.465 . S
C593 C592 1.396 . S
C593 C594 1.399 . S
C594 H580 0.929 . S
C594 C593 1.399 . S
C594 C595 1.385 . S
C595 H581 0.931 . S
C595 C594 1.385 . S
C595 C596 1.389 . S
C596 C595 1.389 . S
C596 C597 1.387 . S
C597 H582 0.930 . S
C597 C592 1.390 . S
C597 C596 1.387 . S
H598 C610 0.930 . S
H599 C612 0.930 . S
H600 C613 0.930 . S
H601 C617 0.959 . S
H602 C617 0.959 . S
H603 C617 0.961 . S
H604 C618 0.960 . S
H605 C618 0.961 . S
H606 C618 0.959 . S
H607 C621 0.929 . S
H608 C622 0.931 . S
H609 C624 0.930 . S
C610 H598 0.930 . S
C610 C611 1.399 . S
C610 C615 1.399 . S
C611 C610 1.399 . S
C611 C612 1.376 . S
C612 H599 0.930 . S
C612 C611 1.376 . S
C612 C613 1.388 . S
C613 H600 0.930 . S
C613 C612 1.388 . S
C613 C614 1.390 . S
C614 C613 1.390 . S
C614 C615 1.394 . S
C614 C620 1.465 . S
C615 C610 1.399 . S
C615 C614 1.394 . S
C615 C616 1.516 . S
C616 C615 1.516 . S
C616 C617 1.502 . S
C616 C618 1.561 . S
C616 C619 1.526 . S
C617 H601 0.959 . S
C617 H602 0.959 . S
C617 H603 0.961 . S
C617 C616 1.502 . S
C618 H604 0.960 . S
C618 H605 0.961 . S
C618 H606 0.959 . S
C618 C616 1.561 . S
C619 C616 1.526 . S
C619 C620 1.396 . S
C619 C624 1.390 . S
C620 C614 1.465 . S
C620 C619 1.396 . S
C620 C621 1.399 . S
C621 H607 0.929 . S
C621 C620 1.399 . S
C621 C622 1.385 . S
C622 H608 0.931 . S
C622 C621 1.385 . S
C622 C623 1.389 . S
C623 C622 1.389 . S
C623 C624 1.387 . S
C624 H609 0.930 . S
C624 C619 1.390 . S
C624 C623 1.387 . S
H625 C637 0.930 . S
H626 C639 0.930 . S
H627 C640 0.930 . S
H628 C644 0.959 . S
H629 C644 0.959 . S
H630 C644 0.961 . S
H631 C645 0.960 . S
H632 C645 0.961 . S
H633 C645 0.959 . S
H634 C648 0.929 . S
H635 C649 0.931 . S
H636 C651 0.930 . S
C637 H625 0.930 . S
C637 C638 1.399 . S
C637 C642 1.399 . S
C638 C637 1.399 . S
C638 C639 1.376 . S
C639 H626 0.930 . S
C639 C638 1.376 . S
C639 C640 1.388 . S
C640 H627 0.930 . S
C640 C639 1.388 . S
C640 C641 1.390 . S
C641 C640 1.390 . S
C641 C642 1.394 . S
C641 C647 1.465 . S
C642 C637 1.399 . S
C642 C641 1.394 . S
C642 C643 1.516 . S
C643 C642 1.516 . S
C643 C644 1.502 . S
C643 C645 1.561 . S
C643 C646 1.526 . S
C644 H628 0.959 . S
C644 H629 0.959 . S
C644 H630 0.961 . S
C644 C643 1.502 . S
C645 H631 0.960 . S
C645 H632 0.961 . S
C645 H633 0.959 . S
C645 C643 1.561 . S
C646 C643 1.526 . S
C646 C647 1.396 . S
C646 C651 1.390 . S
C647 C641 1.465 . S
C647 C646 1.396 . S
C647 C648 1.399 . S
C648 H634 0.929 . S
C648 C647 1.399 . S
C648 C649 1.385 . S
C649 H635 0.931 . S
C649 C648 1.385 . S
C649 C650 1.389 . S
C650 C649 1.389 . S
C650 C651 1.387 . S
C651 H636 0.930 . S
C651 C646 1.390 . S
C651 C650 1.387 . S
H652 C664 0.930 . S
H653 C666 0.930 . S
H654 C667 0.930 . S
H655 C671 0.959 . S
H656 C671 0.959 . S
H657 C671 0.961 . S
H658 C672 0.960 . S
H659 C672 0.961 . S
H660 C672 0.959 . S
H661 C675 0.929 . S
H662 C676 0.931 . S
H663 C678 0.930 . S
C664 H652 0.930 . S
C664 C665 1.399 . S
C664 C669 1.399 . S
C665 C664 1.399 . S
C665 C666 1.376 . S
C666 H653 0.930 . S
C666 C665 1.376 . S
C666 C667 1.388 . S
C667 H654 0.930 . S
C667 C666 1.388 . S
C667 C668 1.390 . S
C668 C667 1.390 . S
C668 C669 1.394 . S
C668 C674 1.465 . S
C669 C664 1.399 . S
C669 C668 1.394 . S
C669 C670 1.516 . S
C670 C669 1.516 . S
C670 C671 1.502 . S
C670 C672 1.561 . S
C670 C673 1.526 . S
C671 H655 0.959 . S
C671 H656 0.959 . S
C671 H657 0.961 . S
C671 C670 1.502 . S
C672 H658 0.960 . S
C672 H659 0.961 . S
C672 H660 0.959 . S
C672 C670 1.561 . S
C673 C670 1.526 . S
C673 C674 1.396 . S
C673 C678 1.390 . S
C674 C668 1.465 . S
C674 C673 1.396 . S
C674 C675 1.399 . S
C675 H661 0.929 . S
C675 C674 1.399 . S
C675 C676 1.385 . S
C676 H662 0.931 . S
C676 C675 1.385 . S
C676 C677 1.389 . S
C677 C676 1.389 . S
C677 C678 1.387 . S
C678 H663 0.930 . S
C678 C673 1.390 . S
C678 C677 1.387 . S
H679 C691 0.930 . S
H680 C693 0.930 . S
H681 C694 0.930 . S
H682 C698 0.959 . S
H683 C698 0.959 . S
H684 C698 0.961 . S
H685 C699 0.960 . S
H686 C699 0.961 . S
H687 C699 0.959 . S
H688 C702 0.929 . S
H689 C703 0.931 . S
H690 C705 0.930 . S
C691 H679 0.930 . S
C691 C692 1.399 . S
C691 C696 1.399 . S
C692 C691 1.399 . S
C692 C693 1.376 . S
C693 H680 0.930 . S
C693 C692 1.376 . S
C693 C694 1.388 . S
C694 H681 0.930 . S
C694 C693 1.388 . S
C694 C695 1.390 . S
C695 C694 1.390 . S
C695 C696 1.394 . S
C695 C701 1.465 . S
C696 C691 1.399 . S
C696 C695 1.394 . S
C696 C697 1.516 . S
C697 C696 1.516 . S
C697 C698 1.502 . S
C697 C699 1.561 . S
C697 C700 1.526 . S
C698 H682 0.959 . S
C698 H683 0.959 . S
C698 H684 0.961 . S
C698 C697 1.502 . S
C699 H685 0.960 . S
C699 H686 0.961 . S
C699 H687 0.959 . S
C699 C697 1.561 . S
C700 C697 1.526 . S
C700 C701 1.396 . S
C700 C705 1.390 . S
C701 C695 1.465 . S
C701 C700 1.396 . S
C701 C702 1.399 . S
C702 H688 0.929 . S
C702 C701 1.399 . S
C702 C703 1.385 . S
C703 H689 0.931 . S
C703 C702 1.385 . S
C703 C704 1.389 . S
C704 C703 1.389 . S
C704 C705 1.387 . S
C705 H690 0.930 . S
C705 C700 1.390 . S
C705 C704 1.387 . S
H706 C718 0.930 . S
H707 C720 0.930 . S
H708 C721 0.930 . S
H709 C725 0.959 . S
H710 C725 0.959 . S
H711 C725 0.961 . S
H712 C726 0.960 . S
H713 C726 0.961 . S
H714 C726 0.959 . S
H715 C729 0.929 . S
H716 C730 0.931 . S
H717 C732 0.930 . S
C718 H706 0.930 . S
C718 C719 1.399 . S
C718 C723 1.399 . S
C719 C718 1.399 . S
C719 C720 1.376 . S
C720 H707 0.930 . S
C720 C719 1.376 . S
C720 C721 1.388 . S
C721 H708 0.930 . S
C721 C720 1.388 . S
C721 C722 1.390 . S
C722 C721 1.390 . S
C722 C723 1.394 . S
C722 C728 1.465 . S
C723 C718 1.399 . S
C723 C722 1.394 . S
C723 C724 1.516 . S
C724 C723 1.516 . S
C724 C725 1.502 . S
C724 C726 1.561 . S
C724 C727 1.526 . S
C725 H709 0.959 . S
C725 H710 0.959 . S
C725 H711 0.961 . S
C725 C724 1.502 . S
C726 H712 0.960 . S
C726 H713 0.961 . S
C726 H714 0.959 . S
C726 C724 1.561 . S
C727 C724 1.526 . S
C727 C728 1.396 . S
C727 C732 1.390 . S
C728 C722 1.465 . S
C728 C727 1.396 . S
C728 C729 1.399 . S
C729 H715 0.929 . S
C729 C728 1.399 . S
C729 C730 1.385 . S
C730 H716 0.931 . S
C730 C729 1.385 . S
C730 C731 1.389 . S
C731 C730 1.389 . S
C731 C732 1.387 . S
C732 H717 0.930 . S
C732 C727 1.390 . S
C732 C731 1.387 . S
H733 C745 0.930 . S
H734 C747 0.930 . S
H735 C748 0.930 . S
H736 C752 0.959 . S
H737 C752 0.959 . S
H738 C752 0.961 . S
H739 C753 0.960 . S
H740 C753 0.961 . S
H741 C753 0.959 . S
H742 C756 0.929 . S
H743 C757 0.931 . S
H744 C759 0.930 . S
C745 H733 0.930 . S
C745 C746 1.399 . S
C745 C750 1.399 . S
C746 C745 1.399 . S
C746 C747 1.376 . S
C747 H734 0.930 . S
C747 C746 1.376 . S
C747 C748 1.388 . S
C748 H735 0.930 . S
C748 C747 1.388 . S
C748 C749 1.390 . S
C749 C748 1.390 . S
C749 C750 1.394 . S
C749 C755 1.465 . S
C750 C745 1.399 . S
C750 C749 1.394 . S
C750 C751 1.516 . S
C751 C750 1.516 . S
C751 C752 1.502 . S
C751 C753 1.561 . S
C751 C754 1.526 . S
C752 H736 0.959 . S
C752 H737 0.959 . S
C752 H738 0.961 . S
C752 C751 1.502 . S
C753 H739 0.960 . S
C753 H740 0.961 . S
C753 H741 0.959 . S
C753 C751 1.561 . S
C754 C751 1.526 . S
C754 C755 1.396 . S
C754 C759 1.390 . S
C755 C749 1.465 . S
C755 C754 1.396 . S
C755 C756 1.399 . S
C756 H742 0.929 . S
C756 C755 1.399 . S
C756 C757 1.385 . S
C757 H743 0.931 . S
C757 C756 1.385 . S
C757 C758 1.389 . S
C758 C757 1.389 . S
C758 C759 1.387 . S
C759 H744 0.930 . S
C759 C754 1.390 . S
C759 C758 1.387 . S
H760 C772 0.930 . S
H761 C774 0.930 . S
H762 C775 0.930 . S
H763 C779 0.959 . S
H764 C779 0.959 . S
H765 C779 0.961 . S
H766 C780 0.960 . S
H767 C780 0.961 . S
H768 C780 0.959 . S
H769 C783 0.929 . S
H770 C784 0.931 . S
H771 C786 0.930 . S
C772 H760 0.930 . S
C772 C773 1.399 . S
C772 C777 1.399 . S
C773 C772 1.399 . S
C773 C774 1.376 . S
C774 H761 0.930 . S
C774 C773 1.376 . S
C774 C775 1.388 . S
C775 H762 0.930 . S
C775 C774 1.388 . S
C775 C776 1.390 . S
C776 C775 1.390 . S
C776 C777 1.394 . S
C776 C782 1.465 . S
C777 C772 1.399 . S
C777 C776 1.394 . S
C777 C778 1.516 . S
C778 C777 1.516 . S
C778 C779 1.502 . S
C778 C780 1.561 . S
C778 C781 1.526 . S
C779 H763 0.959 . S
C779 H764 0.959 . S
C779 H765 0.961 . S
C779 C778 1.502 . S
C780 H766 0.960 . S
C780 H767 0.961 . S
C780 H768 0.959 . S
C780 C778 1.561 . S
C781 C778 1.526 . S
C781 C782 1.396 . S
C781 C786 1.390 . S
C782 C776 1.465 . S
C782 C781 1.396 . S
C782 C783 1.399 . S
C783 H769 0.929 . S
C783 C782 1.399 . S
C783 C784 1.385 . S
C784 H770 0.931 . S
C784 C783 1.385 . S
C784 C785 1.389 . S
C785 C784 1.389 . S
C785 C786 1.387 . S
C786 H771 0.930 . S
C786 C781 1.390 . S
C786 C785 1.387 . S
H787 C799 0.930 . S
H788 C801 0.930 . S
H789 C802 0.930 . S
H790 C806 0.959 . S
H791 C806 0.959 . S
H792 C806 0.961 . S
H793 C807 0.960 . S
H794 C807 0.961 . S
H795 C807 0.959 . S
H796 C810 0.929 . S
H797 C811 0.931 . S
H798 C813 0.930 . S
C799 H787 0.930 . S
C799 C800 1.399 . S
C799 C804 1.399 . S
C800 C799 1.399 . S
C800 C801 1.376 . S
C801 H788 0.930 . S
C801 C800 1.376 . S
C801 C802 1.388 . S
C802 H789 0.930 . S
C802 C801 1.388 . S
C802 C803 1.390 . S
C803 C802 1.390 . S
C803 C804 1.394 . S
C803 C809 1.465 . S
C804 C799 1.399 . S
C804 C803 1.394 . S
C804 C805 1.516 . S
C805 C804 1.516 . S
C805 C806 1.502 . S
C805 C807 1.561 . S
C805 C808 1.526 . S
C806 H790 0.959 . S
C806 H791 0.959 . S
C806 H792 0.961 . S
C806 C805 1.502 . S
C807 H793 0.960 . S
C807 H794 0.961 . S
C807 H795 0.959 . S
C807 C805 1.561 . S
C808 C805 1.526 . S
C808 C809 1.396 . S
C808 C813 1.390 . S
C809 C803 1.465 . S
C809 C808 1.396 . S
C809 C810 1.399 . S
C810 H796 0.929 . S
C810 C809 1.399 . S
C810 C811 1.385 . S
C811 H797 0.931 . S
C811 C810 1.385 . S
C811 C812 1.389 . S
C812 C811 1.389 . S
C812 C813 1.387 . S
C813 H798 0.930 . S
C813 C808 1.390 . S
C813 C812 1.387 . S
H814 C826 0.930 . S
H815 C828 0.930 . S
H816 C829 0.930 . S
H817 C833 0.959 . S
H818 C833 0.959 . S
H819 C833 0.961 . S
H820 C834 0.960 . S
H821 C834 0.961 . S
H822 C834 0.959 . S
H823 C837 0.929 . S
H824 C838 0.931 . S
H825 C840 0.930 . S
C826 H814 0.930 . S
C826 C827 1.399 . S
C826 C831 1.399 . S
C827 C826 1.399 . S
C827 C828 1.376 . S
C828 H815 0.930 . S
C828 C827 1.376 . S
C828 C829 1.388 . S
C829 H816 0.930 . S
C829 C828 1.388 . S
C829 C830 1.390 . S
C830 C829 1.390 . S
C830 C831 1.394 . S
C830 C836 1.465 . S
C831 C826 1.399 . S
C831 C830 1.394 . S
C831 C832 1.516 . S
C832 C831 1.516 . S
C832 C833 1.502 . S
C832 C834 1.561 . S
C832 C835 1.526 . S
C833 H817 0.959 . S
C833 H818 0.959 . S
C833 H819 0.961 . S
C833 C832 1.502 . S
C834 H820 0.960 . S
C834 H821 0.961 . S
C834 H822 0.959 . S
C834 C832 1.561 . S
C835 C832 1.526 . S
C835 C836 1.396 . S
C835 C840 1.390 . S
C836 C830 1.465 . S
C836 C835 1.396 . S
C836 C837 1.399 . S
C837 H823 0.929 . S
C837 C836 1.399 . S
C837 C838 1.385 . S
C838 H824 0.931 . S
C838 C837 1.385 . S
C838 C839 1.389 . S
C839 C838 1.389 . S
C839 C840 1.387 . S
C840 H825 0.930 . S
C840 C835 1.390 . S
C840 C839 1.387 . S
H841 C853 0.930 . S
H842 C855 0.930 . S
H843 C856 0.930 . S
H844 C860 0.959 . S
H845 C860 0.959 . S
H846 C860 0.961 . S
H847 C861 0.960 . S
H848 C861 0.961 . S
H849 C861 0.959 . S
H850 C864 0.929 . S
H851 C865 0.931 . S
H852 C867 0.930 . S
C853 H841 0.930 . S
C853 C854 1.399 . S
C853 C858 1.399 . S
C854 C853 1.399 . S
C854 C855 1.376 . S
C855 H842 0.930 . S
C855 C854 1.376 . S
C855 C856 1.388 . S
C856 H843 0.930 . S
C856 C855 1.388 . S
C856 C857 1.390 . S
C857 C856 1.390 . S
C857 C858 1.394 . S
C857 C863 1.465 . S
C858 C853 1.399 . S
C858 C857 1.394 . S
C858 C859 1.516 . S
C859 C858 1.516 . S
C859 C860 1.502 . S
C859 C861 1.561 . S
C859 C862 1.526 . S
C860 H844 0.959 . S
C860 H845 0.959 . S
C860 H846 0.961 . S
C860 C859 1.502 . S
C861 H847 0.960 . S
C861 H848 0.961 . S
C861 H849 0.959 . S
C861 C859 1.561 . S
C862 C859 1.526 . S
C862 C863 1.396 . S
C862 C867 1.390 . S
C863 C857 1.465 . S
C863 C862 1.396 . S
C863 C864 1.399 . S
C864 H850 0.929 . S
C864 C863 1.399 . S
C864 C865 1.385 . S
C865 H851 0.931 . S
C865 C864 1.385 . S
C865 C866 1.389 . S
C866 C865 1.389 . S
C866 C867 1.387 . S
C867 H852 0.930 . S
C867 C862 1.390 . S
C867 C866 1.387 . S
H868 C880 0.930 . S
H869 C882 0.930 . S
H870 C883 0.930 . S
H871 C887 0.959 . S
H872 C887 0.959 . S
H873 C887 0.961 . S
H874 C888 0.960 . S
H875 C888 0.961 . S
H876 C888 0.959 . S
H877 C891 0.929 . S
H878 C892 0.931 . S
H879 C894 0.930 . S
C880 H868 0.930 . S
C880 C881 1.399 . S
C880 C885 1.399 . S
C881 C880 1.399 . S
C881 C882 1.376 . S
C882 H869 0.930 . S
C882 C881 1.376 . S
C882 C883 1.388 . S
C883 H870 0.930 . S
C883 C882 1.388 . S
C883 C884 1.390 . S
C884 C883 1.390 . S
C884 C885 1.394 . S
C884 C890 1.465 . S
C885 C880 1.399 . S
C885 C884 1.394 . S
C885 C886 1.516 . S
C886 C885 1.516 . S
C886 C887 1.502 . S
C886 C888 1.561 . S
C886 C889 1.526 . S
C887 H871 0.959 . S
C887 H872 0.959 . S
C887 H873 0.961 . S
C887 C886 1.502 . S
C888 H874 0.960 . S
C888 H875 0.961 . S
C888 H876 0.959 . S
C888 C886 1.561 . S
C889 C886 1.526 . S
C889 C890 1.396 . S
C889 C894 1.390 . S
C890 C884 1.465 . S
C890 C889 1.396 . S
C890 C891 1.399 . S
C891 H877 0.929 . S
C891 C890 1.399 . S
C891 C892 1.385 . S
C892 H878 0.931 . S
C892 C891 1.385 . S
C892 C893 1.389 . S
C893 C892 1.389 . S
C893 C894 1.387 . S
C894 H879 0.930 . S
C894 C889 1.390 . S
C894 C893 1.387 . S
H895 C907 0.930 . S
H896 C909 0.930 . S
H897 C910 0.930 . S
H898 C914 0.959 . S
H899 C914 0.959 . S
H900 C914 0.961 . S
H901 C915 0.960 . S
H902 C915 0.961 . S
H903 C915 0.959 . S
H904 C918 0.929 . S
H905 C919 0.931 . S
H906 C921 0.930 . S
C907 H895 0.930 . S
C907 C908 1.399 . S
C907 C912 1.399 . S
C908 C907 1.399 . S
C908 C909 1.376 . S
C909 H896 0.930 . S
C909 C908 1.376 . S
C909 C910 1.388 . S
C910 H897 0.930 . S
C910 C909 1.388 . S
C910 C911 1.390 . S
C911 C910 1.390 . S
C911 C912 1.394 . S
C911 C917 1.465 . S
C912 C907 1.399 . S
C912 C911 1.394 . S
C912 C913 1.516 . S
C913 C912 1.516 . S
C913 C914 1.502 . S
C913 C915 1.561 . S
C913 C916 1.526 . S
C914 H898 0.959 . S
C914 H899 0.959 . S
C914 H900 0.961 . S
C914 C913 1.502 . S
C915 H901 0.960 . S
C915 H902 0.961 . S
C915 H903 0.959 . S
C915 C913 1.561 . S
C916 C913 1.526 . S
C916 C917 1.396 . S
C916 C921 1.390 . S
C917 C911 1.465 . S
C917 C916 1.396 . S
C917 C918 1.399 . S
C918 H904 0.929 . S
C918 C917 1.399 . S
C918 C919 1.385 . S
C919 H905 0.931 . S
C919 C918 1.385 . S
C919 C920 1.389 . S
C920 C919 1.389 . S
C920 C921 1.387 . S
C921 H906 0.930 . S
C921 C916 1.390 . S
C921 C920 1.387 . S
H922 C934 0.930 . S
H923 C936 0.930 . S
H924 C937 0.930 . S
H925 C941 0.959 . S
H926 C941 0.959 . S
H927 C941 0.961 . S
H928 C942 0.960 . S
H929 C942 0.961 . S
H930 C942 0.959 . S
H931 C945 0.929 . S
H932 C946 0.931 . S
H933 C948 0.930 . S
C934 H922 0.930 . S
C934 C935 1.399 . S
C934 C939 1.399 . S
C935 C934 1.399 . S
C935 C936 1.376 . S
C936 H923 0.930 . S
C936 C935 1.376 . S
C936 C937 1.388 . S
C937 H924 0.930 . S
C937 C936 1.388 . S
C937 C938 1.390 . S
C938 C937 1.390 . S
C938 C939 1.394 . S
C938 C944 1.465 . S
C939 C934 1.399 . S
C939 C938 1.394 . S
C939 C940 1.516 . S
C940 C939 1.516 . S
C940 C941 1.502 . S
C940 C942 1.561 . S
C940 C943 1.526 . S
C941 H925 0.959 . S
C941 H926 0.959 . S
C941 H927 0.961 . S
C941 C940 1.502 . S
C942 H928 0.960 . S
C942 H929 0.961 . S
C942 H930 0.959 . S
C942 C940 1.561 . S
C943 C940 1.526 . S
C943 C944 1.396 . S
C943 C948 1.390 . S
C944 C938 1.465 . S
C944 C943 1.396 . S
C944 C945 1.399 . S
C945 H931 0.929 . S
C945 C944 1.399 . S
C945 C946 1.385 . S
C946 H932 0.931 . S
C946 C945 1.385 . S
C946 C947 1.389 . S
C947 C946 1.389 . S
C947 C948 1.387 . S
C948 H933 0.930 . S
C948 C943 1.390 . S
C948 C947 1.387 . S
H949 C961 0.930 . S
H950 C963 0.930 . S
H951 C964 0.930 . S
H952 C968 0.959 . S
H953 C968 0.959 . S
H954 C968 0.961 . S
H955 C969 0.960 . S
H956 C969 0.961 . S
H957 C969 0.959 . S
H958 C972 0.929 . S
H959 C973 0.931 . S
H960 C975 0.930 . S
C961 H949 0.930 . S
C961 C962 1.399 . S
C961 C966 1.399 . S
C962 C961 1.399 . S
C962 C963 1.376 . S
C963 H950 0.930 . S
C963 C962 1.376 . S
C963 C964 1.388 . S
C964 H951 0.930 . S
C964 C963 1.388 . S
C964 C965 1.390 . S
C965 C964 1.390 . S
C965 C966 1.394 . S
C965 C971 1.465 . S
C966 C961 1.399 . S
C966 C965 1.394 . S
C966 C967 1.516 . S
C967 C966 1.516 . S
C967 C968 1.502 . S
C967 C969 1.561 . S
C967 C970 1.526 . S
C968 H952 0.959 . S
C968 H953 0.959 . S
C968 H954 0.961 . S
C968 C967 1.502 . S
C969 H955 0.960 . S
C969 H956 0.961 . S
C969 H957 0.959 . S
C969 C967 1.561 . S
C970 C967 1.526 . S
C970 C971 1.396 . S
C970 C975 1.390 . S
C971 C965 1.465 . S
C971 C970 1.396 . S
C971 C972 1.399 . S
C972 H958 0.929 . S
C972 C971 1.399 . S
C972 C973 1.385 . S
C973 H959 0.931 . S
C973 C972 1.385 . S
C973 C974 1.389 . S
C974 C973 1.389 . S
C974 C975 1.387 . S
C975 H960 0.930 . S
C975 C970 1.390 . S
C975 C974 1.387 . S
H976 C988 0.930 . S
H977 C990 0.930 1_545 S
H978 C991 0.930 . S
H979 C995 0.959 . S
H980 C995 0.959 . S
H981 C995 0.961 . S
H982 C996 0.960 . S
H983 C996 0.961 . S
H984 C996 0.959 . S
H985 C999 0.929 . S
H986 C1000 0.931 . S
H987 C1002 0.930 . S
C988 H976 0.930 . S
C988 C989 1.399 . S
C988 C993 1.399 . S
C989 C988 1.399 . S
C989 C990 1.376 . S
C990 H977 0.930 1_565 S
C990 C989 1.376 . S
C990 C991 1.388 . S
C991 H978 0.930 . S
C991 C990 1.388 . S
C991 C992 1.390 . S
C992 C991 1.390 . S
C992 C993 1.394 . S
C992 C998 1.465 . S
C993 C988 1.399 . S
C993 C992 1.394 . S
C993 C994 1.516 . S
C994 C993 1.516 . S
C994 C995 1.502 . S
C994 C996 1.561 . S
C994 C997 1.526 . S
C995 H979 0.959 . S
C995 H980 0.959 . S
C995 H981 0.961 . S
C995 C994 1.502 . S
C996 H982 0.960 . S
C996 H983 0.961 . S
C996 H984 0.959 . S
C996 C994 1.561 . S
C997 C994 1.526 . S
C997 C998 1.396 . S
C997 C1002 1.390 . S
C998 C992 1.465 . S
C998 C997 1.396 . S
C998 C999 1.399 . S
C999 H985 0.929 . S
C999 C998 1.399 . S
C999 C1000 1.385 . S
C1000 H986 0.931 . S
C1000 C999 1.385 . S
C1000 C1001 1.389 . S
C1001 C1000 1.389 . S
C1001 C1002 1.387 . S
C1002 H987 0.930 . S
C1002 C997 1.390 . S
C1002 C1001 1.387 . S
H1003 C1015 0.930 . S
H1004 C1017 0.930 . S
H1005 C1018 0.930 . S
H1006 C1022 0.959 . S
H1007 C1022 0.959 . S
H1008 C1022 0.961 . S
H1009 C1023 0.960 . S
H1010 C1023 0.961 . S
H1011 C1023 0.959 . S
H1012 C1026 0.929 . S
H1013 C1027 0.931 . S
H1014 C1029 0.930 . S
C1015 H1003 0.930 . S
C1015 C1016 1.399 . S
C1015 C1020 1.399 . S
C1016 C1015 1.399 . S
C1016 C1017 1.376 . S
C1017 H1004 0.930 . S
C1017 C1016 1.376 . S
C1017 C1018 1.388 . S
C1018 H1005 0.930 . S
C1018 C1017 1.388 . S
C1018 C1019 1.390 . S
C1019 C1018 1.390 . S
C1019 C1020 1.394 . S
C1019 C1025 1.465 . S
C1020 C1015 1.399 . S
C1020 C1019 1.394 . S
C1020 C1021 1.516 . S
C1021 C1020 1.516 . S
C1021 C1022 1.502 . S
C1021 C1023 1.561 . S
C1021 C1024 1.526 . S
C1022 H1006 0.959 . S
C1022 H1007 0.959 . S
C1022 H1008 0.961 . S
C1022 C1021 1.502 . S
C1023 H1009 0.960 . S
C1023 H1010 0.961 . S
C1023 H1011 0.959 . S
C1023 C1021 1.561 . S
C1024 C1021 1.526 . S
C1024 C1025 1.396 . S
C1024 C1029 1.390 . S
C1025 C1019 1.465 . S
C1025 C1024 1.396 . S
C1025 C1026 1.399 . S
C1026 H1012 0.929 . S
C1026 C1025 1.399 . S
C1026 C1027 1.385 . S
C1027 H1013 0.931 . S
C1027 C1026 1.385 . S
C1027 C1028 1.389 . S
C1028 C1027 1.389 . S
C1028 C1029 1.387 . S
C1029 H1014 0.930 . S
C1029 C1024 1.390 . S
C1029 C1028 1.387 . S
H1030 C1042 0.930 . S
H1031 C1044 0.930 . S
H1032 C1045 0.930 . S
H1033 C1049 0.959 . S
H1034 C1049 0.959 . S
H1035 C1049 0.961 . S
H1036 C1050 0.960 . S
H1037 C1050 0.961 . S
H1038 C1050 0.959 . S
H1039 C1053 0.929 . S
H1040 C1054 0.931 . S
H1041 C1056 0.930 . S
C1042 H1030 0.930 . S
C1042 C1043 1.399 . S
C1042 C1047 1.399 . S
C1043 C1042 1.399 . S
C1043 C1044 1.376 . S
C1044 H1031 0.930 . S
C1044 C1043 1.376 . S
C1044 C1045 1.388 . S
C1045 H1032 0.930 . S
C1045 C1044 1.388 . S
C1045 C1046 1.390 . S
C1046 C1045 1.390 . S
C1046 C1047 1.394 . S
C1046 C1052 1.465 . S
C1047 C1042 1.399 . S
C1047 C1046 1.394 . S
C1047 C1048 1.516 . S
C1048 C1047 1.516 . S
C1048 C1049 1.502 . S
C1048 C1050 1.561 . S
C1048 C1051 1.526 . S
C1049 H1033 0.959 . S
C1049 H1034 0.959 . S
C1049 H1035 0.961 . S
C1049 C1048 1.502 . S
C1050 H1036 0.960 . S
C1050 H1037 0.961 . S
C1050 H1038 0.959 . S
C1050 C1048 1.561 . S
C1051 C1048 1.526 . S
C1051 C1052 1.396 . S
C1051 C1056 1.390 . S
C1052 C1046 1.465 . S
C1052 C1051 1.396 . S
C1052 C1053 1.399 . S
C1053 H1039 0.929 . S
C1053 C1052 1.399 . S
C1053 C1054 1.385 . S
C1054 H1040 0.931 . S
C1054 C1053 1.385 . S
C1054 C1055 1.389 . S
C1055 C1054 1.389 . S
C1055 C1056 1.387 . S
C1056 H1041 0.930 . S
C1056 C1051 1.390 . S
C1056 C1055 1.387 . S
H1057 C1069 0.930 . S
H1058 C1071 0.930 . S
H1059 C1072 0.930 . S
H1060 C1076 0.959 . S
H1061 C1076 0.959 . S
H1062 C1076 0.961 . S
H1063 C1077 0.960 . S
H1064 C1077 0.961 . S
H1065 C1077 0.959 . S
H1066 C1080 0.929 . S
H1067 C1081 0.931 . S
H1068 C1083 0.930 . S
C1069 H1057 0.930 . S
C1069 C1070 1.399 . S
C1069 C1074 1.399 . S
C1070 C1069 1.399 . S
C1070 C1071 1.376 . S
C1071 H1058 0.930 . S
C1071 C1070 1.376 . S
C1071 C1072 1.388 . S
C1072 H1059 0.930 . S
C1072 C1071 1.388 . S
C1072 C1073 1.390 . S
C1073 C1072 1.390 . S
C1073 C1074 1.394 . S
C1073 C1079 1.465 . S
C1074 C1069 1.399 . S
C1074 C1073 1.394 . S
C1074 C1075 1.516 . S
C1075 C1074 1.516 . S
C1075 C1076 1.502 . S
C1075 C1077 1.561 . S
C1075 C1078 1.526 . S
C1076 H1060 0.959 . S
C1076 H1061 0.959 . S
C1076 H1062 0.961 . S
C1076 C1075 1.502 . S
C1077 H1063 0.960 . S
C1077 H1064 0.961 . S
C1077 H1065 0.959 . S
C1077 C1075 1.561 . S
C1078 C1075 1.526 . S
C1078 C1079 1.396 . S
C1078 C1083 1.390 . S
C1079 C1073 1.465 . S
C1079 C1078 1.396 . S
C1079 C1080 1.399 . S
C1080 H1066 0.929 . S
C1080 C1079 1.399 . S
C1080 C1081 1.385 . S
C1081 H1067 0.931 . S
C1081 C1080 1.385 . S
C1081 C1082 1.389 . S
C1082 C1081 1.389 . S
C1082 C1083 1.387 . S
C1083 H1068 0.930 . S
C1083 C1078 1.390 . S
C1083 C1082 1.387 . S
H1084 C1096 0.930 . S
H1085 C1098 0.930 . S
H1086 C1099 0.930 . S
H1087 C1103 0.959 . S
H1088 C1103 0.959 . S
H1089 C1103 0.961 . S
H1090 C1104 0.960 . S
H1091 C1104 0.961 . S
H1092 C1104 0.959 . S
H1093 C1107 0.929 . S
H1094 C1108 0.931 . S
H1095 C1110 0.930 . S
C1096 H1084 0.930 . S
C1096 C1097 1.399 . S
C1096 C1101 1.399 . S
C1097 C1096 1.399 . S
C1097 C1098 1.376 . S
C1098 H1085 0.930 . S
C1098 C1097 1.376 . S
C1098 C1099 1.388 . S
C1099 H1086 0.930 . S
C1099 C1098 1.388 . S
C1099 C1100 1.390 . S
C1100 C1099 1.390 . S
C1100 C1101 1.394 . S
C1100 C1106 1.465 . S
C1101 C1096 1.399 . S
C1101 C1100 1.394 . S
C1101 C1102 1.516 . S
C1102 C1101 1.516 . S
C1102 C1103 1.502 . S
C1102 C1104 1.561 . S
C1102 C1105 1.526 . S
C1103 H1087 0.959 . S
C1103 H1088 0.959 . S
C1103 H1089 0.961 . S
C1103 C1102 1.502 . S
C1104 H1090 0.960 . S
C1104 H1091 0.961 . S
C1104 H1092 0.959 . S
C1104 C1102 1.561 . S
C1105 C1102 1.526 . S
C1105 C1106 1.396 . S
C1105 C1110 1.390 . S
C1106 C1100 1.465 . S
C1106 C1105 1.396 . S
C1106 C1107 1.399 . S
C1107 H1093 0.929 . S
C1107 C1106 1.399 . S
C1107 C1108 1.385 . S
C1108 H1094 0.931 . S
C1108 C1107 1.385 . S
C1108 C1109 1.389 . S
C1109 C1108 1.389 . S
C1109 C1110 1.387 . S
C1110 H1095 0.930 . S
C1110 C1105 1.390 . S
C1110 C1109 1.387 . S
H1111 C1123 0.930 . S
H1112 C1125 0.930 . S
H1113 C1126 0.930 . S
H1114 C1130 0.959 . S
H1115 C1130 0.959 . S
H1116 C1130 0.961 . S
H1117 C1131 0.960 . S
H1118 C1131 0.961 . S
H1119 C1131 0.959 . S
H1120 C1134 0.929 . S
H1121 C1135 0.931 . S
H1122 C1137 0.930 . S
C1123 H1111 0.930 . S
C1123 C1124 1.399 . S
C1123 C1128 1.399 . S
C1124 C1123 1.399 . S
C1124 C1125 1.376 . S
C1125 H1112 0.930 . S
C1125 C1124 1.376 . S
C1125 C1126 1.388 . S
C1126 H1113 0.930 . S
C1126 C1125 1.388 . S
C1126 C1127 1.390 . S
C1127 C1126 1.390 . S
C1127 C1128 1.394 . S
C1127 C1133 1.465 . S
C1128 C1123 1.399 . S
C1128 C1127 1.394 . S
C1128 C1129 1.516 . S
C1129 C1128 1.516 . S
C1129 C1130 1.502 . S
C1129 C1131 1.561 . S
C1129 C1132 1.526 . S
C1130 H1114 0.959 . S
C1130 H1115 0.959 . S
C1130 H1116 0.961 . S
C1130 C1129 1.502 . S
C1131 H1117 0.960 . S
C1131 H1118 0.961 . S
C1131 H1119 0.959 . S
C1131 C1129 1.561 . S
C1132 C1129 1.526 . S
C1132 C1133 1.396 . S
C1132 C1137 1.390 . S
C1133 C1127 1.465 . S
C1133 C1132 1.396 . S
C1133 C1134 1.399 . S
C1134 H1120 0.929 . S
C1134 C1133 1.399 . S
C1134 C1135 1.385 . S
C1135 H1121 0.931 . S
C1135 C1134 1.385 . S
C1135 C1136 1.389 . S
C1136 C1135 1.389 . S
C1136 C1137 1.387 . S
C1137 H1122 0.930 . S
C1137 C1132 1.390 . S
C1137 C1136 1.387 . S
H1138 C1150 0.930 . S
H1139 C1152 0.930 . S
H1140 C1153 0.930 . S
H1141 C1157 0.959 . S
H1142 C1157 0.959 . S
H1143 C1157 0.961 . S
H1144 C1158 0.960 . S
H1145 C1158 0.961 . S
H1146 C1158 0.959 . S
H1147 C1161 0.929 . S
H1148 C1162 0.931 . S
H1149 C1164 0.930 . S
C1150 H1138 0.930 . S
C1150 C1151 1.399 . S
C1150 C1155 1.399 . S
C1151 C1150 1.399 . S
C1151 C1152 1.376 . S
C1152 H1139 0.930 . S
C1152 C1151 1.376 . S
C1152 C1153 1.388 . S
C1153 H1140 0.930 . S
C1153 C1152 1.388 . S
C1153 C1154 1.390 . S
C1154 C1153 1.390 . S
C1154 C1155 1.394 . S
C1154 C1160 1.465 . S
C1155 C1150 1.399 . S
C1155 C1154 1.394 . S
C1155 C1156 1.516 . S
C1156 C1155 1.516 . S
C1156 C1157 1.502 . S
C1156 C1158 1.561 . S
C1156 C1159 1.526 . S
C1157 H1141 0.959 . S
C1157 H1142 0.959 . S
C1157 H1143 0.961 . S
C1157 C1156 1.502 . S
C1158 H1144 0.960 . S
C1158 H1145 0.961 . S
C1158 H1146 0.959 . S
C1158 C1156 1.561 . S
C1159 C1156 1.526 . S
C1159 C1160 1.396 . S
C1159 C1164 1.390 . S
C1160 C1154 1.465 . S
C1160 C1159 1.396 . S
C1160 C1161 1.399 . S
C1161 H1147 0.929 . S
C1161 C1160 1.399 . S
C1161 C1162 1.385 . S
C1162 H1148 0.931 . S
C1162 C1161 1.385 . S
C1162 C1163 1.389 . S
C1163 C1162 1.389 . S
C1163 C1164 1.387 . S
C1164 H1149 0.930 . S
C1164 C1159 1.390 . S
C1164 C1163 1.387 . S
H1165 C1177 0.930 . S
H1166 C1179 0.930 . S
H1167 C1180 0.930 . S
H1168 C1184 0.959 . S
H1169 C1184 0.959 . S
H1170 C1184 0.961 . S
H1171 C1185 0.960 . S
H1172 C1185 0.961 . S
H1173 C1185 0.959 . S
H1174 C1188 0.929 . S
H1175 C1189 0.931 . S
H1176 C1191 0.930 . S
C1177 H1165 0.930 . S
C1177 C1178 1.399 . S
C1177 C1182 1.399 . S
C1178 C1177 1.399 . S
C1178 C1179 1.376 . S
C1179 H1166 0.930 . S
C1179 C1178 1.376 . S
C1179 C1180 1.388 . S
C1180 H1167 0.930 . S
C1180 C1179 1.388 . S
C1180 C1181 1.390 . S
C1181 C1180 1.390 . S
C1181 C1182 1.394 . S
C1181 C1187 1.465 . S
C1182 C1177 1.399 . S
C1182 C1181 1.394 . S
C1182 C1183 1.516 . S
C1183 C1182 1.516 . S
C1183 C1184 1.502 . S
C1183 C1185 1.561 . S
C1183 C1186 1.526 . S
C1184 H1168 0.959 . S
C1184 H1169 0.959 . S
C1184 H1170 0.961 . S
C1184 C1183 1.502 . S
C1185 H1171 0.960 . S
C1185 H1172 0.961 . S
C1185 H1173 0.959 . S
C1185 C1183 1.561 . S
C1186 C1183 1.526 . S
C1186 C1187 1.396 . S
C1186 C1191 1.390 . S
C1187 C1181 1.465 . S
C1187 C1186 1.396 . S
C1187 C1188 1.399 . S
C1188 H1174 0.929 . S
C1188 C1187 1.399 . S
C1188 C1189 1.385 . S
C1189 H1175 0.931 . S
C1189 C1188 1.385 . S
C1189 C1190 1.389 . S
C1190 C1189 1.389 . S
C1190 C1191 1.387 . S
C1191 H1176 0.930 . S
C1191 C1186 1.390 . S
C1191 C1190 1.387 . S
H1192 C1204 0.930 . S
H1193 C1206 0.930 . S
H1194 C1207 0.930 . S
H1195 C1211 0.959 . S
H1196 C1211 0.959 . S
H1197 C1211 0.961 . S
H1198 C1212 0.960 . S
H1199 C1212 0.961 . S
H1200 C1212 0.959 . S
H1201 C1215 0.929 . S
H1202 C1216 0.931 . S
H1203 C1218 0.930 . S
C1204 H1192 0.930 . S
C1204 C1205 1.399 . S
C1204 C1209 1.399 . S
C1205 C1204 1.399 . S
C1205 C1206 1.376 . S
C1206 H1193 0.930 . S
C1206 C1205 1.376 . S
C1206 C1207 1.388 . S
C1207 H1194 0.930 . S
C1207 C1206 1.388 . S
C1207 C1208 1.390 . S
C1208 C1207 1.390 . S
C1208 C1209 1.394 . S
C1208 C1214 1.465 . S
C1209 C1204 1.399 . S
C1209 C1208 1.394 . S
C1209 C1210 1.516 . S
C1210 C1209 1.516 . S
C1210 C1211 1.502 . S
C1210 C1212 1.561 . S
C1210 C1213 1.526 . S
C1211 H1195 0.959 . S
C1211 H1196 0.959 . S
C1211 H1197 0.961 . S
C1211 C1210 1.502 . S
C1212 H1198 0.960 . S
C1212 H1199 0.961 . S
C1212 H1200 0.959 . S
C1212 C1210 1.561 . S
C1213 C1210 1.526 . S
C1213 C1214 1.396 . S
C1213 C1218 1.390 . S
C1214 C1208 1.465 . S
C1214 C1213 1.396 . S
C1214 C1215 1.399 . S
C1215 H1201 0.929 . S
C1215 C1214 1.399 . S
C1215 C1216 1.385 . S
C1216 H1202 0.931 . S
C1216 C1215 1.385 . S
C1216 C1217 1.389 . S
C1217 C1216 1.389 . S
C1217 C1218 1.387 . S
C1218 H1203 0.930 . S
C1218 C1213 1.390 . S
C1218 C1217 1.387 . S
H1219 C1231 0.930 . S
H1220 C1233 0.930 . S
H1221 C1234 0.930 . S
H1222 C1238 0.959 . S
H1223 C1238 0.959 . S
H1224 C1238 0.961 . S
H1225 C1239 0.960 . S
H1226 C1239 0.961 . S
H1227 C1239 0.959 . S
H1228 C1242 0.929 . S
H1229 C1243 0.931 . S
H1230 C1245 0.930 . S
C1231 H1219 0.930 . S
C1231 C1232 1.399 . S
C1231 C1236 1.399 . S
C1232 C1231 1.399 . S
C1232 C1233 1.376 . S
C1233 H1220 0.930 . S
C1233 C1232 1.376 . S
C1233 C1234 1.388 . S
C1234 H1221 0.930 . S
C1234 C1233 1.388 . S
C1234 C1235 1.390 . S
C1235 C1234 1.390 . S
C1235 C1236 1.394 . S
C1235 C1241 1.465 . S
C1236 C1231 1.399 . S
C1236 C1235 1.394 . S
C1236 C1237 1.516 . S
C1237 C1236 1.516 . S
C1237 C1238 1.502 . S
C1237 C1239 1.561 . S
C1237 C1240 1.526 . S
C1238 H1222 0.959 . S
C1238 H1223 0.959 . S
C1238 H1224 0.961 . S
C1238 C1237 1.502 . S
C1239 H1225 0.960 . S
C1239 H1226 0.961 . S
C1239 H1227 0.959 . S
C1239 C1237 1.561 . S
C1240 C1237 1.526 . S
C1240 C1241 1.396 . S
C1240 C1245 1.390 . S
C1241 C1235 1.465 . S
C1241 C1240 1.396 . S
C1241 C1242 1.399 . S
C1242 H1228 0.929 . S
C1242 C1241 1.399 . S
C1242 C1243 1.385 . S
C1243 H1229 0.931 . S
C1243 C1242 1.385 . S
C1243 C1244 1.389 . S
C1244 C1243 1.389 . S
C1244 C1245 1.387 . S
C1245 H1230 0.930 . S
C1245 C1240 1.390 . S
C1245 C1244 1.387 . S
H1246 C1258 0.930 . S
H1247 C1260 0.930 . S
H1248 C1261 0.930 . S
H1249 C1265 0.959 . S
H1250 C1265 0.959 . S
H1251 C1265 0.961 . S
H1252 C1266 0.960 . S
H1253 C1266 0.961 . S
H1254 C1266 0.959 . S
H1255 C1269 0.929 . S
H1256 C1270 0.931 . S
H1257 C1272 0.930 . S
C1258 H1246 0.930 . S
C1258 C1259 1.399 . S
C1258 C1263 1.399 . S
C1259 C1258 1.399 . S
C1259 C1260 1.376 . S
C1260 H1247 0.930 . S
C1260 C1259 1.376 . S
C1260 C1261 1.388 . S
C1261 H1248 0.930 . S
C1261 C1260 1.388 . S
C1261 C1262 1.390 . S
C1262 C1261 1.390 . S
C1262 C1263 1.394 . S
C1262 C1268 1.465 . S
C1263 C1258 1.399 . S
C1263 C1262 1.394 . S
C1263 C1264 1.516 . S
C1264 C1263 1.516 . S
C1264 C1265 1.502 . S
C1264 C1266 1.561 . S
C1264 C1267 1.526 . S
C1265 H1249 0.959 . S
C1265 H1250 0.959 . S
C1265 H1251 0.961 . S
C1265 C1264 1.502 . S
C1266 H1252 0.960 . S
C1266 H1253 0.961 . S
C1266 H1254 0.959 . S
C1266 C1264 1.561 . S
C1267 C1264 1.526 . S
C1267 C1268 1.396 . S
C1267 C1272 1.390 . S
C1268 C1262 1.465 . S
C1268 C1267 1.396 . S
C1268 C1269 1.399 . S
C1269 H1255 0.929 . S
C1269 C1268 1.399 . S
C1269 C1270 1.385 . S
C1270 H1256 0.931 . S
C1270 C1269 1.385 . S
C1270 C1271 1.389 . S
C1271 C1270 1.389 . S
C1271 C1272 1.387 . S
C1272 H1257 0.930 . S
C1272 C1267 1.390 . S
C1272 C1271 1.387 . S
H1273 C1285 0.930 . S
H1274 C1287 0.930 . S
H1275 C1288 0.930 . S
H1276 C1292 0.959 . S
H1277 C1292 0.959 . S
H1278 C1292 0.961 . S
H1279 C1293 0.960 . S
H1280 C1293 0.961 . S
H1281 C1293 0.959 . S
H1282 C1296 0.929 . S
H1283 C1297 0.931 . S
H1284 C1299 0.930 . S
C1285 H1273 0.930 . S
C1285 C1286 1.399 . S
C1285 C1290 1.399 . S
C1286 C1285 1.399 . S
C1286 C1287 1.376 . S
C1287 H1274 0.930 . S
C1287 C1286 1.376 . S
C1287 C1288 1.388 . S
C1288 H1275 0.930 . S
C1288 C1287 1.388 . S
C1288 C1289 1.390 . S
C1289 C1288 1.390 . S
C1289 C1290 1.394 . S
C1289 C1295 1.465 . S
C1290 C1285 1.399 . S
C1290 C1289 1.394 . S
C1290 C1291 1.516 . S
C1291 C1290 1.516 . S
C1291 C1292 1.502 . S
C1291 C1293 1.561 . S
C1291 C1294 1.526 . S
C1292 H1276 0.959 . S
C1292 H1277 0.959 . S
C1292 H1278 0.961 . S
C1292 C1291 1.502 . S
C1293 H1279 0.960 . S
C1293 H1280 0.961 . S
C1293 H1281 0.959 . S
C1293 C1291 1.561 . S
C1294 C1291 1.526 . S
C1294 C1295 1.396 . S
C1294 C1299 1.390 . S
C1295 C1289 1.465 . S
C1295 C1294 1.396 . S
C1295 C1296 1.399 . S
C1296 H1282 0.929 . S
C1296 C1295 1.399 . S
C1296 C1297 1.385 . S
C1297 H1283 0.931 . S
C1297 C1296 1.385 . S
C1297 C1298 1.389 . S
C1298 C1297 1.389 . S
C1298 C1299 1.387 . S
C1299 H1284 0.930 . S
C1299 C1294 1.390 . S
C1299 C1298 1.387 . S
H1300 C1312 0.930 . S
H1301 C1314 0.930 . S
H1302 C1315 0.930 . S
H1303 C1319 0.959 . S
H1304 C1319 0.959 . S
H1305 C1319 0.961 . S
H1306 C1320 0.960 . S
H1307 C1320 0.961 . S
H1308 C1320 0.959 . S
H1309 C1323 0.929 . S
H1310 C1324 0.931 . S
H1311 C1326 0.930 . S
C1312 H1300 0.930 . S
C1312 C1313 1.399 . S
C1312 C1317 1.399 . S
C1313 C1312 1.399 . S
C1313 C1314 1.376 . S
C1314 H1301 0.930 . S
C1314 C1313 1.376 . S
C1314 C1315 1.388 . S
C1315 H1302 0.930 . S
C1315 C1314 1.388 . S
C1315 C1316 1.390 . S
C1316 C1315 1.390 . S
C1316 C1317 1.394 . S
C1316 C1322 1.465 . S
C1317 C1312 1.399 . S
C1317 C1316 1.394 . S
C1317 C1318 1.516 . S
C1318 C1317 1.516 . S
C1318 C1319 1.502 . S
C1318 C1320 1.561 . S
C1318 C1321 1.526 . S
C1319 H1303 0.959 . S
C1319 H1304 0.959 . S
C1319 H1305 0.961 . S
C1319 C1318 1.502 . S
C1320 H1306 0.960 . S
C1320 H1307 0.961 . S
C1320 H1308 0.959 . S
C1320 C1318 1.561 . S
C1321 C1318 1.526 . S
C1321 C1322 1.396 . S
C1321 C1326 1.390 . S
C1322 C1316 1.465 . S
C1322 C1321 1.396 . S
C1322 C1323 1.399 . S
C1323 H1309 0.929 . S
C1323 C1322 1.399 . S
C1323 C1324 1.385 . S
C1324 H1310 0.931 . S
C1324 C1323 1.385 . S
C1324 C1325 1.389 . S
C1325 C1324 1.389 . S
C1325 C1326 1.387 . S
C1326 H1311 0.930 . S
C1326 C1321 1.390 . S
C1326 C1325 1.387 . S
H1327 C1339 0.930 . S
H1328 C1341 0.930 . S
H1329 C1342 0.930 . S
H1330 C1346 0.959 . S
H1331 C1346 0.959 . S
H1332 C1346 0.961 . S
H1333 C1347 0.960 . S
H1334 C1347 0.961 . S
H1335 C1347 0.959 . S
H1336 C1350 0.929 . S
H1337 C1351 0.931 . S
H1338 C1353 0.930 . S
C1339 H1327 0.930 . S
C1339 C1340 1.399 . S
C1339 C1344 1.399 . S
C1340 C1339 1.399 . S
C1340 C1341 1.376 . S
C1341 H1328 0.930 . S
C1341 C1340 1.376 . S
C1341 C1342 1.388 . S
C1342 H1329 0.930 . S
C1342 C1341 1.388 . S
C1342 C1343 1.390 . S
C1343 C1342 1.390 . S
C1343 C1344 1.394 . S
C1343 C1349 1.465 . S
C1344 C1339 1.399 . S
C1344 C1343 1.394 . S
C1344 C1345 1.516 . S
C1345 C1344 1.516 . S
C1345 C1346 1.502 . S
C1345 C1347 1.561 . S
C1345 C1348 1.526 . S
C1346 H1330 0.959 . S
C1346 H1331 0.959 . S
C1346 H1332 0.961 . S
C1346 C1345 1.502 . S
C1347 H1333 0.960 . S
C1347 H1334 0.961 . S
C1347 H1335 0.959 . S
C1347 C1345 1.561 . S
C1348 C1345 1.526 . S
C1348 C1349 1.396 . S
C1348 C1353 1.390 . S
C1349 C1343 1.465 . S
C1349 C1348 1.396 . S
C1349 C1350 1.399 . S
C1350 H1336 0.929 . S
C1350 C1349 1.399 . S
C1350 C1351 1.385 . S
C1351 H1337 0.931 . S
C1351 C1350 1.385 . S
C1351 C1352 1.389 . S
C1352 C1351 1.389 . S
C1352 C1353 1.387 . S
C1353 H1338 0.930 . S
C1353 C1348 1.390 . S
C1353 C1352 1.387 . S
H1354 C1366 0.930 . S
H1355 C1368 0.930 . S
H1356 C1369 0.930 . S
H1357 C1373 0.959 . S
H1358 C1373 0.959 . S
H1359 C1373 0.961 . S
H1360 C1374 0.960 . S
H1361 C1374 0.961 . S
H1362 C1374 0.959 . S
H1363 C1377 0.929 . S
H1364 C1378 0.931 . S
H1365 C1380 0.930 . S
C1366 H1354 0.930 . S
C1366 C1367 1.399 . S
C1366 C1371 1.399 . S
C1367 C1366 1.399 . S
C1367 C1368 1.376 . S
C1368 H1355 0.930 . S
C1368 C1367 1.376 . S
C1368 C1369 1.388 . S
C1369 H1356 0.930 . S
C1369 C1368 1.388 . S
C1369 C1370 1.390 . S
C1370 C1369 1.390 . S
C1370 C1371 1.394 . S
C1370 C1376 1.465 . S
C1371 C1366 1.399 . S
C1371 C1370 1.394 . S
C1371 C1372 1.516 . S
C1372 C1371 1.516 . S
C1372 C1373 1.502 . S
C1372 C1374 1.561 . S
C1372 C1375 1.526 . S
C1373 H1357 0.959 . S
C1373 H1358 0.959 . S
C1373 H1359 0.961 . S
C1373 C1372 1.502 . S
C1374 H1360 0.960 . S
C1374 H1361 0.961 . S
C1374 H1362 0.959 . S
C1374 C1372 1.561 . S
C1375 C1372 1.526 . S
C1375 C1376 1.396 . S
C1375 C1380 1.390 . S
C1376 C1370 1.465 . S
C1376 C1375 1.396 . S
C1376 C1377 1.399 . S
C1377 H1363 0.929 . S
C1377 C1376 1.399 . S
C1377 C1378 1.385 . S
C1378 H1364 0.931 . S
C1378 C1377 1.385 . S
C1378 C1379 1.389 . S
C1379 C1378 1.389 . S
C1379 C1380 1.387 . S
C1380 H1365 0.930 . S
C1380 C1375 1.390 . S
C1380 C1379 1.387 . S
H1381 C1393 0.930 . S
H1382 C1395 0.930 . S
H1383 C1396 0.930 . S
H1384 C1400 0.959 . S
H1385 C1400 0.959 . S
H1386 C1400 0.961 . S
H1387 C1401 0.960 . S
H1388 C1401 0.961 . S
H1389 C1401 0.959 . S
H1390 C1404 0.929 . S
H1391 C1405 0.931 . S
H1392 C1407 0.930 . S
C1393 H1381 0.930 . S
C1393 C1394 1.399 . S
C1393 C1398 1.399 . S
C1394 C1393 1.399 . S
C1394 C1395 1.376 . S
C1395 H1382 0.930 . S
C1395 C1394 1.376 . S
C1395 C1396 1.388 . S
C1396 H1383 0.930 . S
C1396 C1395 1.388 . S
C1396 C1397 1.390 . S
C1397 C1396 1.390 . S
C1397 C1398 1.394 . S
C1397 C1403 1.465 . S
C1398 C1393 1.399 . S
C1398 C1397 1.394 . S
C1398 C1399 1.516 . S
C1399 C1398 1.516 . S
C1399 C1400 1.502 . S
C1399 C1401 1.561 . S
C1399 C1402 1.526 . S
C1400 H1384 0.959 . S
C1400 H1385 0.959 . S
C1400 H1386 0.961 . S
C1400 C1399 1.502 . S
C1401 H1387 0.960 . S
C1401 H1388 0.961 . S
C1401 H1389 0.959 . S
C1401 C1399 1.561 . S
C1402 C1399 1.526 . S
C1402 C1403 1.396 . S
C1402 C1407 1.390 . S
C1403 C1397 1.465 . S
C1403 C1402 1.396 . S
C1403 C1404 1.399 . S
C1404 H1390 0.929 . S
C1404 C1403 1.399 . S
C1404 C1405 1.385 . S
C1405 H1391 0.931 . S
C1405 C1404 1.385 . S
C1405 C1406 1.389 . S
C1406 C1405 1.389 . S
C1406 C1407 1.387 . S
C1407 H1392 0.930 . S
C1407 C1402 1.390 . S
C1407 C1406 1.387 . S
H1408 C1420 0.930 . S
H1409 C1422 0.930 . S
H1410 C1423 0.930 . S
H1411 C1427 0.959 . S
H1412 C1427 0.959 . S
H1413 C1427 0.961 . S
H1414 C1428 0.960 . S
H1415 C1428 0.961 . S
H1416 C1428 0.959 . S
H1417 C1431 0.929 . S
H1418 C1432 0.931 . S
H1419 C1434 0.930 . S
C1420 H1408 0.930 . S
C1420 C1421 1.399 . S
C1420 C1425 1.399 . S
C1421 C1420 1.399 . S
C1421 C1422 1.376 . S
C1422 H1409 0.930 . S
C1422 C1421 1.376 . S
C1422 C1423 1.388 . S
C1423 H1410 0.930 . S
C1423 C1422 1.388 . S
C1423 C1424 1.390 . S
C1424 C1423 1.390 . S
C1424 C1425 1.394 . S
C1424 C1430 1.465 . S
C1425 C1420 1.399 . S
C1425 C1424 1.394 . S
C1425 C1426 1.516 . S
C1426 C1425 1.516 . S
C1426 C1427 1.502 . S
C1426 C1428 1.561 . S
C1426 C1429 1.526 . S
C1427 H1411 0.959 . S
C1427 H1412 0.959 . S
C1427 H1413 0.961 . S
C1427 C1426 1.502 . S
C1428 H1414 0.960 . S
C1428 H1415 0.961 . S
C1428 H1416 0.959 . S
C1428 C1426 1.561 . S
C1429 C1426 1.526 . S
C1429 C1430 1.396 . S
C1429 C1434 1.390 . S
C1430 C1424 1.465 . S
C1430 C1429 1.396 . S
C1430 C1431 1.399 . S
C1431 H1417 0.929 . S
C1431 C1430 1.399 . S
C1431 C1432 1.385 . S
C1432 H1418 0.931 . S
C1432 C1431 1.385 . S
C1432 C1433 1.389 . S
C1433 C1432 1.389 . S
C1433 C1434 1.387 . S
C1434 H1419 0.930 . S
C1434 C1429 1.390 . S
C1434 C1433 1.387 . S
H1435 C1447 0.930 . S
H1436 C1449 0.930 . S
H1437 C1450 0.930 . S
H1438 C1454 0.959 . S
H1439 C1454 0.959 . S
H1440 C1454 0.961 . S
H1441 C1455 0.960 . S
H1442 C1455 0.961 . S
H1443 C1455 0.959 . S
H1444 C1458 0.929 . S
H1445 C1459 0.931 . S
H1446 C1461 0.930 . S
C1447 H1435 0.930 . S
C1447 C1448 1.399 . S
C1447 C1452 1.399 . S
C1448 C1447 1.399 . S
C1448 C1449 1.376 . S
C1449 H1436 0.930 . S
C1449 C1448 1.376 . S
C1449 C1450 1.388 . S
C1450 H1437 0.930 . S
C1450 C1449 1.388 . S
C1450 C1451 1.390 . S
C1451 C1450 1.390 . S
C1451 C1452 1.394 . S
C1451 C1457 1.465 . S
C1452 C1447 1.399 . S
C1452 C1451 1.394 . S
C1452 C1453 1.516 . S
C1453 C1452 1.516 . S
C1453 C1454 1.502 . S
C1453 C1455 1.561 . S
C1453 C1456 1.526 . S
C1454 H1438 0.959 . S
C1454 H1439 0.959 . S
C1454 H1440 0.961 . S
C1454 C1453 1.502 . S
C1455 H1441 0.960 . S
C1455 H1442 0.961 . S
C1455 H1443 0.959 . S
C1455 C1453 1.561 . S
C1456 C1453 1.526 . S
C1456 C1457 1.396 . S
C1456 C1461 1.390 . S
C1457 C1451 1.465 . S
C1457 C1456 1.396 . S
C1457 C1458 1.399 . S
C1458 H1444 0.929 . S
C1458 C1457 1.399 . S
C1458 C1459 1.385 . S
C1459 H1445 0.931 . S
C1459 C1458 1.385 . S
C1459 C1460 1.389 . S
C1460 C1459 1.389 . S
C1460 C1461 1.387 . S
C1461 H1446 0.930 . S
C1461 C1456 1.390 . S
C1461 C1460 1.387 . S
H1462 C1474 0.930 . S
H1463 C1476 0.930 . S
H1464 C1477 0.930 . S
H1465 C1481 0.959 . S
H1466 C1481 0.959 . S
H1467 C1481 0.961 . S
H1468 C1482 0.960 . S
H1469 C1482 0.961 . S
H1470 C1482 0.959 . S
H1471 C1485 0.929 . S
H1472 C1486 0.931 . S
H1473 C1488 0.930 . S
C1474 H1462 0.930 . S
C1474 C1475 1.399 . S
C1474 C1479 1.399 . S
C1475 C1474 1.399 . S
C1475 C1476 1.376 . S
C1476 H1463 0.930 . S
C1476 C1475 1.376 . S
C1476 C1477 1.388 . S
C1477 H1464 0.930 . S
C1477 C1476 1.388 . S
C1477 C1478 1.390 . S
C1478 C1477 1.390 . S
C1478 C1479 1.394 . S
C1478 C1484 1.465 . S
C1479 C1474 1.399 . S
C1479 C1478 1.394 . S
C1479 C1480 1.516 . S
C1480 C1479 1.516 . S
C1480 C1481 1.502 . S
C1480 C1482 1.561 . S
C1480 C1483 1.526 . S
C1481 H1465 0.959 . S
C1481 H1466 0.959 . S
C1481 H1467 0.961 . S
C1481 C1480 1.502 . S
C1482 H1468 0.960 . S
C1482 H1469 0.961 . S
C1482 H1470 0.959 . S
C1482 C1480 1.561 . S
C1483 C1480 1.526 . S
C1483 C1484 1.396 . S
C1483 C1488 1.390 . S
C1484 C1478 1.465 . S
C1484 C1483 1.396 . S
C1484 C1485 1.399 . S
C1485 H1471 0.929 . S
C1485 C1484 1.399 . S
C1485 C1486 1.385 . S
C1486 H1472 0.931 . S
C1486 C1485 1.385 . S
C1486 C1487 1.389 . S
C1487 C1486 1.389 . S
C1487 C1488 1.387 . S
C1488 H1473 0.930 . S
C1488 C1483 1.390 . S
C1488 C1487 1.387 . S
H1489 C1501 0.930 . S
H1490 C1503 0.930 . S
H1491 C1504 0.930 . S
H1492 C1508 0.959 . S
H1493 C1508 0.959 . S
H1494 C1508 0.961 . S
H1495 C1509 0.960 . S
H1496 C1509 0.961 . S
H1497 C1509 0.959 . S
H1498 C1512 0.929 . S
H1499 C1513 0.931 . S
H1500 C1515 0.930 . S
C1501 H1489 0.930 . S
C1501 C1502 1.399 . S
C1501 C1506 1.399 . S
C1502 C1501 1.399 . S
C1502 C1503 1.376 . S
C1503 H1490 0.930 . S
C1503 C1502 1.376 . S
C1503 C1504 1.388 . S
C1504 H1491 0.930 . S
C1504 C1503 1.388 . S
C1504 C1505 1.390 . S
C1505 C1504 1.390 . S
C1505 C1506 1.394 . S
C1505 C1511 1.465 . S
C1506 C1501 1.399 . S
C1506 C1505 1.394 . S
C1506 C1507 1.516 . S
C1507 C1506 1.516 . S
C1507 C1508 1.502 . S
C1507 C1509 1.561 . S
C1507 C1510 1.526 . S
C1508 H1492 0.959 . S
C1508 H1493 0.959 . S
C1508 H1494 0.961 . S
C1508 C1507 1.502 . S
C1509 H1495 0.960 . S
C1509 H1496 0.961 . S
C1509 H1497 0.959 . S
C1509 C1507 1.561 . S
C1510 C1507 1.526 . S
C1510 C1511 1.396 . S
C1510 C1515 1.390 . S
C1511 C1505 1.465 . S
C1511 C1510 1.396 . S
C1511 C1512 1.399 . S
C1512 H1498 0.929 . S
C1512 C1511 1.399 . S
C1512 C1513 1.385 . S
C1513 H1499 0.931 . S
C1513 C1512 1.385 . S
C1513 C1514 1.389 . S
C1514 C1513 1.389 . S
C1514 C1515 1.387 . S
C1515 H1500 0.930 . S
C1515 C1510 1.390 . S
C1515 C1514 1.387 . S
H1516 C1528 0.930 . S
H1517 C1530 0.930 . S
H1518 C1531 0.930 . S
H1519 C1535 0.959 . S
H1520 C1535 0.959 . S
H1521 C1535 0.961 . S
H1522 C1536 0.960 . S
H1523 C1536 0.961 . S
H1524 C1536 0.959 . S
H1525 C1539 0.929 . S
H1526 C1540 0.931 . S
H1527 C1542 0.930 . S
C1528 H1516 0.930 . S
C1528 C1529 1.399 . S
C1528 C1533 1.399 . S
C1529 C1528 1.399 . S
C1529 C1530 1.376 . S
C1530 H1517 0.930 . S
C1530 C1529 1.376 . S
C1530 C1531 1.388 . S
C1531 H1518 0.930 . S
C1531 C1530 1.388 . S
C1531 C1532 1.390 . S
C1532 C1531 1.390 . S
C1532 C1533 1.394 . S
C1532 C1538 1.465 . S
C1533 C1528 1.399 . S
C1533 C1532 1.394 . S
C1533 C1534 1.516 . S
C1534 C1533 1.516 . S
C1534 C1535 1.502 . S
C1534 C1536 1.561 . S
C1534 C1537 1.526 . S
C1535 H1519 0.959 . S
C1535 H1520 0.959 . S
C1535 H1521 0.961 . S
C1535 C1534 1.502 . S
C1536 H1522 0.960 . S
C1536 H1523 0.961 . S
C1536 H1524 0.959 . S
C1536 C1534 1.561 . S
C1537 C1534 1.526 . S
C1537 C1538 1.396 . S
C1537 C1542 1.390 . S
C1538 C1532 1.465 . S
C1538 C1537 1.396 . S
C1538 C1539 1.399 . S
C1539 H1525 0.929 . S
C1539 C1538 1.399 . S
C1539 C1540 1.385 . S
C1540 H1526 0.931 . S
C1540 C1539 1.385 . S
C1540 C1541 1.389 . S
C1541 C1540 1.389 . S
C1541 C1542 1.387 . S
C1542 H1527 0.930 . S
C1542 C1537 1.390 . S
C1542 C1541 1.387 . S
H1543 C1555 0.930 . S
H1544 C1557 0.930 . S
H1545 C1558 0.930 . S
H1546 C1562 0.959 . S
H1547 C1562 0.959 . S
H1548 C1562 0.961 . S
H1549 C1563 0.960 . S
H1550 C1563 0.961 . S
H1551 C1563 0.959 . S
H1552 C1566 0.929 . S
H1553 C1567 0.931 . S
H1554 C1569 0.930 . S
C1555 H1543 0.930 . S
C1555 C1556 1.399 . S
C1555 C1560 1.399 . S
C1556 C1555 1.399 . S
C1556 C1557 1.376 . S
C1557 H1544 0.930 . S
C1557 C1556 1.376 . S
C1557 C1558 1.388 . S
C1558 H1545 0.930 . S
C1558 C1557 1.388 . S
C1558 C1559 1.390 . S
C1559 C1558 1.390 . S
C1559 C1560 1.394 . S
C1559 C1565 1.465 . S
C1560 C1555 1.399 . S
C1560 C1559 1.394 . S
C1560 C1561 1.516 . S
C1561 C1560 1.516 . S
C1561 C1562 1.502 . S
C1561 C1563 1.561 . S
C1561 C1564 1.526 . S
C1562 H1546 0.959 . S
C1562 H1547 0.959 . S
C1562 H1548 0.961 . S
C1562 C1561 1.502 . S
C1563 H1549 0.960 . S
C1563 H1550 0.961 . S
C1563 H1551 0.959 . S
C1563 C1561 1.561 . S
C1564 C1561 1.526 . S
C1564 C1565 1.396 . S
C1564 C1569 1.390 . S
C1565 C1559 1.465 . S
C1565 C1564 1.396 . S
C1565 C1566 1.399 . S
C1566 H1552 0.929 . S
C1566 C1565 1.399 . S
C1566 C1567 1.385 . S
C1567 H1553 0.931 . S
C1567 C1566 1.385 . S
C1567 C1568 1.389 . S
C1568 C1567 1.389 . S
C1568 C1569 1.387 . S
C1569 H1554 0.930 . S
C1569 C1564 1.390 . S
C1569 C1568 1.387 . S
H1570 C1582 0.930 . S
H1571 C1584 0.930 . S
H1572 C1585 0.930 . S
H1573 C1589 0.959 . S
H1574 C1589 0.959 . S
H1575 C1589 0.961 . S
H1576 C1590 0.960 . S
H1577 C1590 0.961 . S
H1578 C1590 0.959 . S
H1579 C1593 0.929 . S
H1580 C1594 0.931 . S
H1581 C1596 0.930 . S
C1582 H1570 0.930 . S
C1582 C1583 1.399 . S
C1582 C1587 1.399 . S
C1583 C1582 1.399 . S
C1583 C1584 1.376 . S
C1584 H1571 0.930 . S
C1584 C1583 1.376 . S
C1584 C1585 1.388 . S
C1585 H1572 0.930 . S
C1585 C1584 1.388 . S
C1585 C1586 1.390 . S
C1586 C1585 1.390 . S
C1586 C1587 1.394 . S
C1586 C1592 1.465 . S
C1587 C1582 1.399 . S
C1587 C1586 1.394 . S
C1587 C1588 1.516 . S
C1588 C1587 1.516 . S
C1588 C1589 1.502 . S
C1588 C1590 1.561 . S
C1588 C1591 1.526 . S
C1589 H1573 0.959 . S
C1589 H1574 0.959 . S
C1589 H1575 0.961 . S
C1589 C1588 1.502 . S
C1590 H1576 0.960 . S
C1590 H1577 0.961 . S
C1590 H1578 0.959 . S
C1590 C1588 1.561 . S
C1591 C1588 1.526 . S
C1591 C1592 1.396 . S
C1591 C1596 1.390 . S
C1592 C1586 1.465 . S
C1592 C1591 1.396 . S
C1592 C1593 1.399 . S
C1593 H1579 0.929 . S
C1593 C1592 1.399 . S
C1593 C1594 1.385 . S
C1594 H1580 0.931 . S
C1594 C1593 1.385 . S
C1594 C1595 1.389 . S
C1595 C1594 1.389 . S
C1595 C1596 1.387 . S
C1596 H1581 0.930 . S
C1596 C1591 1.390 . S
C1596 C1595 1.387 . S
H1597 C1609 0.930 . S
H1598 C1611 0.930 . S
H1599 C1612 0.930 . S
H1600 C1616 0.959 . S
H1601 C1616 0.959 . S
H1602 C1616 0.961 . S
H1603 C1617 0.960 . S
H1604 C1617 0.961 . S
H1605 C1617 0.959 . S
H1606 C1620 0.929 . S
H1607 C1621 0.931 . S
H1608 C1623 0.930 . S
C1609 H1597 0.930 . S
C1609 C1610 1.399 . S
C1609 C1614 1.399 . S
C1610 C1609 1.399 . S
C1610 C1611 1.376 . S
C1611 H1598 0.930 . S
C1611 C1610 1.376 . S
C1611 C1612 1.388 . S
C1612 H1599 0.930 . S
C1612 C1611 1.388 . S
C1612 C1613 1.390 . S
C1613 C1612 1.390 . S
C1613 C1614 1.394 . S
C1613 C1619 1.465 . S
C1614 C1609 1.399 . S
C1614 C1613 1.394 . S
C1614 C1615 1.516 . S
C1615 C1614 1.516 . S
C1615 C1616 1.502 . S
C1615 C1617 1.561 . S
C1615 C1618 1.526 . S
C1616 H1600 0.959 . S
C1616 H1601 0.959 . S
C1616 H1602 0.961 . S
C1616 C1615 1.502 . S
C1617 H1603 0.960 . S
C1617 H1604 0.961 . S
C1617 H1605 0.959 . S
C1617 C1615 1.561 . S
C1618 C1615 1.526 . S
C1618 C1619 1.396 . S
C1618 C1623 1.390 . S
C1619 C1613 1.465 . S
C1619 C1618 1.396 . S
C1619 C1620 1.399 . S
C1620 H1606 0.929 . S
C1620 C1619 1.399 . S
C1620 C1621 1.385 . S
C1621 H1607 0.931 . S
C1621 C1620 1.385 . S
C1621 C1622 1.389 . S
C1622 C1621 1.389 . S
C1622 C1623 1.387 . S
C1623 H1608 0.930 . S
C1623 C1618 1.390 . S
C1623 C1622 1.387 . S
H1624 C1636 0.930 . S
H1625 C1638 0.930 . S
H1626 C1639 0.930 . S
H1627 C1643 0.959 . S
H1628 C1643 0.959 . S
H1629 C1643 0.961 . S
H1630 C1644 0.960 . S
H1631 C1644 0.961 . S
H1632 C1644 0.959 . S
H1633 C1647 0.929 . S
H1634 C1648 0.931 . S
H1635 C1650 0.930 . S
C1636 H1624 0.930 . S
C1636 C1637 1.399 . S
C1636 C1641 1.399 . S
C1637 C1636 1.399 . S
C1637 C1638 1.376 . S
C1638 H1625 0.930 . S
C1638 C1637 1.376 . S
C1638 C1639 1.388 . S
C1639 H1626 0.930 . S
C1639 C1638 1.388 . S
C1639 C1640 1.390 . S
C1640 C1639 1.390 . S
C1640 C1641 1.394 . S
C1640 C1646 1.465 . S
C1641 C1636 1.399 . S
C1641 C1640 1.394 . S
C1641 C1642 1.516 . S
C1642 C1641 1.516 . S
C1642 C1643 1.502 . S
C1642 C1644 1.561 . S
C1642 C1645 1.526 . S
C1643 H1627 0.959 . S
C1643 H1628 0.959 . S
C1643 H1629 0.961 . S
C1643 C1642 1.502 . S
C1644 H1630 0.960 . S
C1644 H1631 0.961 . S
C1644 H1632 0.959 . S
C1644 C1642 1.561 . S
C1645 C1642 1.526 . S
C1645 C1646 1.396 . S
C1645 C1650 1.390 . S
C1646 C1640 1.465 . S
C1646 C1645 1.396 . S
C1646 C1647 1.399 . S
C1647 H1633 0.929 . S
C1647 C1646 1.399 . S
C1647 C1648 1.385 . S
C1648 H1634 0.931 . S
C1648 C1647 1.385 . S
C1648 C1649 1.389 . S
C1649 C1648 1.389 . S
C1649 C1650 1.387 . S
C1650 H1635 0.930 . S
C1650 C1645 1.390 . S
C1650 C1649 1.387 . S
H1651 C1663 0.930 . S
H1652 C1665 0.930 . S
H1653 C1666 0.930 . S
H1654 C1670 0.959 . S
H1655 C1670 0.959 . S
H1656 C1670 0.961 . S
H1657 C1671 0.960 . S
H1658 C1671 0.961 . S
H1659 C1671 0.959 . S
H1660 C1674 0.929 . S
H1661 C1675 0.931 . S
H1662 C1677 0.930 . S
C1663 H1651 0.930 . S
C1663 C1664 1.399 . S
C1663 C1668 1.399 . S
C1664 C1663 1.399 . S
C1664 C1665 1.376 . S
C1665 H1652 0.930 . S
C1665 C1664 1.376 . S
C1665 C1666 1.388 . S
C1666 H1653 0.930 . S
C1666 C1665 1.388 . S
C1666 C1667 1.390 . S
C1667 C1666 1.390 . S
C1667 C1668 1.394 . S
C1667 C1673 1.465 . S
C1668 C1663 1.399 . S
C1668 C1667 1.394 . S
C1668 C1669 1.516 . S
C1669 C1668 1.516 . S
C1669 C1670 1.502 . S
C1669 C1671 1.561 . S
C1669 C1672 1.526 . S
C1670 H1654 0.959 . S
C1670 H1655 0.959 . S
C1670 H1656 0.961 . S
C1670 C1669 1.502 . S
C1671 H1657 0.960 . S
C1671 H1658 0.961 . S
C1671 H1659 0.959 . S
C1671 C1669 1.561 . S
C1672 C1669 1.526 . S
C1672 C1673 1.396 . S
C1672 C1677 1.390 . S
C1673 C1667 1.465 . S
C1673 C1672 1.396 . S
C1673 C1674 1.399 . S
C1674 H1660 0.929 . S
C1674 C1673 1.399 . S
C1674 C1675 1.385 . S
C1675 H1661 0.931 . S
C1675 C1674 1.385 . S
C1675 C1676 1.389 . S
C1676 C1675 1.389 . S
C1676 C1677 1.387 . S
C1677 H1662 0.930 . S
C1677 C1672 1.390 . S
C1677 C1676 1.387 . S
H1678 C1690 0.930 . S
H1679 C1692 0.930 . S
H1680 C1693 0.930 . S
H1681 C1697 0.959 . S
H1682 C1697 0.959 . S
H1683 C1697 0.961 . S
H1684 C1698 0.960 . S
H1685 C1698 0.961 . S
H1686 C1698 0.959 . S
H1687 C1701 0.929 . S
H1688 C1702 0.931 . S
H1689 C1704 0.930 . S
C1690 H1678 0.930 . S
C1690 C1691 1.399 . S
C1690 C1695 1.399 . S
C1691 C1690 1.399 . S
C1691 C1692 1.376 . S
C1692 H1679 0.930 . S
C1692 C1691 1.376 . S
C1692 C1693 1.388 . S
C1693 H1680 0.930 . S
C1693 C1692 1.388 . S
C1693 C1694 1.390 . S
C1694 C1693 1.390 . S
C1694 C1695 1.394 . S
C1694 C1700 1.465 . S
C1695 C1690 1.399 . S
C1695 C1694 1.394 . S
C1695 C1696 1.516 . S
C1696 C1695 1.516 . S
C1696 C1697 1.502 . S
C1696 C1698 1.561 . S
C1696 C1699 1.526 . S
C1697 H1681 0.959 . S
C1697 H1682 0.959 . S
C1697 H1683 0.961 . S
C1697 C1696 1.502 . S
C1698 H1684 0.960 . S
C1698 H1685 0.961 . S
C1698 H1686 0.959 . S
C1698 C1696 1.561 . S
C1699 C1696 1.526 . S
C1699 C1700 1.396 . S
C1699 C1704 1.390 . S
C1700 C1694 1.465 . S
C1700 C1699 1.396 . S
C1700 C1701 1.399 . S
C1701 H1687 0.929 . S
C1701 C1700 1.399 . S
C1701 C1702 1.385 . S
C1702 H1688 0.931 . S
C1702 C1701 1.385 . S
C1702 C1703 1.389 . S
C1703 C1702 1.389 . S
C1703 C1704 1.387 . S
C1704 H1689 0.930 . S
C1704 C1699 1.390 . S
C1704 C1703 1.387 . S
H1705 C1717 0.930 . S
H1706 C1719 0.930 . S
H1707 C1720 0.930 . S
H1708 C1724 0.959 . S
H1709 C1724 0.959 . S
H1710 C1724 0.961 . S
H1711 C1725 0.960 . S
H1712 C1725 0.961 . S
H1713 C1725 0.959 . S
H1714 C1728 0.929 . S
H1715 C1729 0.931 . S
H1716 C1731 0.930 . S
C1717 H1705 0.930 . S
C1717 C1718 1.399 . S
C1717 C1722 1.399 . S
C1718 C1717 1.399 . S
C1718 C1719 1.376 . S
C1719 H1706 0.930 . S
C1719 C1718 1.376 . S
C1719 C1720 1.388 . S
C1720 H1707 0.930 . S
C1720 C1719 1.388 . S
C1720 C1721 1.390 . S
C1721 C1720 1.390 . S
C1721 C1722 1.394 . S
C1721 C1727 1.465 . S
C1722 C1717 1.399 . S
C1722 C1721 1.394 . S
C1722 C1723 1.516 . S
C1723 C1722 1.516 . S
C1723 C1724 1.502 . S
C1723 C1725 1.561 . S
C1723 C1726 1.526 . S
C1724 H1708 0.959 . S
C1724 H1709 0.959 . S
C1724 H1710 0.961 . S
C1724 C1723 1.502 . S
C1725 H1711 0.960 . S
C1725 H1712 0.961 . S
C1725 H1713 0.959 . S
C1725 C1723 1.561 . S
C1726 C1723 1.526 . S
C1726 C1727 1.396 . S
C1726 C1731 1.390 . S
C1727 C1721 1.465 . S
C1727 C1726 1.396 . S
C1727 C1728 1.399 . S
C1728 H1714 0.929 . S
C1728 C1727 1.399 . S
C1728 C1729 1.385 . S
C1729 H1715 0.931 . S
C1729 C1728 1.385 . S
C1729 C1730 1.389 . S
C1730 C1729 1.389 . S
C1730 C1731 1.387 . S
C1731 H1716 0.930 . S
C1731 C1726 1.390 . S
C1731 C1730 1.387 . S
C461 C295 1.945 . S
C449 N2 2.071 . S
C488 C297 1.921 . S
C476 C7 1.892 . S
C515 C324 1.738 . S
C503 N12 1.791 . S
C530 C16 2.223 . S
C542 C345 2.225 . S
C569 C365 2.105 . S
C557 C30 2.089 . S
C596 C395 1.569 . S
C584 N35 1.663 . S
C611 C39 2.121 . S
C623 C397 2.110 . S
C650 C435 1.860 . S
C638 N25 1.808 . S
C677 C277 1.339 . S
C665 N58 1.241 . S
C692 N81 1.203 . S
C704 C302 1.175 . S
C731 C332 1.113 . S
C719 N104 1.030 . S
C746 N127 1.614 . S
C758 C344 1.513 . S
C785 C364 0.866 . S
C773 N48 0.901 . S
C812 C377 1.620 . S
C800 N71 1.616 . S
C827 N94 0.588 . S
C839 C402 0.581 . S
C866 C417 1.690 . S
C854 N117 1.644 . S
C881 C85 1.684 . S
C893 C282 1.590 . S
C908 C122 1.645 . S
C920 C372 1.621 . S
C935 C53 1.510 . S
C947 C382 1.450 . S
C974 C415 1.505 . S
C962 C76 1.647 . S
C1001 C422 1.535 . S
C989 C99 1.551 1_565 S
C1028 C325 1.911 . S
C1016 C131 1.915 . S
C1055 C352 1.077 . S
C1043 C62 1.053 . S
C1070 C108 0.930 . S
C1082 C315 0.936 . S
C1109 C424 2.026 . S
C1097 N140 2.154 . S
C1124 C145 2.036 . S
C1136 C357 2.064 . S
C1163 C384 1.635 . S
C1151 N150 1.671 . S
C1178 C154 2.031 . S
C1190 C405 2.088 . S
C1217 C305 1.941 . S
C1205 C168 1.905 . S
C1232 N173 1.623 . S
C1244 C335 1.605 . S
C1271 C337 2.249 . S
C1259 C177 2.266 . S
C1298 C284 1.843 . S
C1286 N163 1.952 . S
C1325 C432 1.441 . S
C1313 C200 1.447 . S
C1352 C362 1.547 . S
C1340 N219 1.582 . S
C1367 N242 1.181 . S
C1379 C392 1.235 . S
C1406 C404 1.568 . S
C1394 C269 1.646 . S
C1433 C304 0.865 . S
C1421 C191 0.866 . S
C1448 N209 1.821 . S
C1460 C317 1.819 . S
C1475 N232 1.051 . S
C1487 C342 1.042 . S
C1502 C260 1.735 . S
C1514 C292 1.736 . S
C1529 C223 1.732 . S
C1541 C425 1.797 . S
C1556 N255 1.062 . S
C1568 C312 1.193 . S
C1583 N186 1.183 . S
C1595 C322 1.202 . S
C1622 C355 1.608 . S
C1610 C214 1.695 . S
C1649 C285 1.605 . S
C1637 C237 1.601 . S
C1676 C385 1.528 . S
C1664 N265 1.519 . S
C1703 C412 0.705 . S
C1691 N196 0.780 . S
C1730 C375 0.832 . S
C1718 C246 0.912 . S
