# Generated by pormake.
# Topology rtl, (3,6)-cn, num edge types: 1
# Building blocks:
#     Node 0, Type 0, BuildingBlock: WUSLED_clean_sbu_0, # of connection points: 3
#     Node 1, Type 0, BuildingBlock: WUSLED_clean_sbu_0, # of connection points: 3
#     Node 2, Type 0, BuildingBlock: WUSLED_clean_sbu_0, # of connection points: 3
#     Node 3, Type 0, BuildingBlock: WUSLED_clean_sbu_0, # of connection points: 3
#     Node 4, Type 1, BuildingBlock: KUMBUR_clean_sbu_1, # of connection points: 6
#     Node 5, Type 1, BuildingBlock: KUMBUR_clean_sbu_1, # of connection points: 6
#     Edge 6, Type (0, 1), BuildingBlock: KIFKEQ_clean_linker_1, # of connection points: 2
#     Edge 7, Type (0, 1), BuildingBlock: KIFKEQ_clean_linker_1, # of connection points: 2
#     Edge 8, Type (0, 1), BuildingBlock: KIFKEQ_clean_linker_1, # of connection points: 2
#     Edge 9, Type (0, 1), BuildingBlock: KIFKEQ_clean_linker_1, # of connection points: 2
#     Edge 10, Type (0, 1), BuildingBlock: KIFKEQ_clean_linker_1, # of connection points: 2
#     Edge 11, Type (0, 1), BuildingBlock: KIFKEQ_clean_linker_1, # of connection points: 2
#     Edge 12, Type (0, 1), BuildingBlock: KIFKEQ_clean_linker_1, # of connection points: 2
#     Edge 13, Type (0, 1), BuildingBlock: KIFKEQ_clean_linker_1, # of connection points: 2
#     Edge 14, Type (0, 1), BuildingBlock: KIFKEQ_clean_linker_1, # of connection points: 2
#     Edge 15, Type (0, 1), BuildingBlock: KIFKEQ_clean_linker_1, # of connection points: 2
#     Edge 16, Type (0, 1), BuildingBlock: KIFKEQ_clean_linker_1, # of connection points: 2
#     Edge 17, Type (0, 1), BuildingBlock: KIFKEQ_clean_linker_1, # of connection points: 2
# Relax obj value: 0.016
# Max RMSD: 0.101
# Mean RMSD: 0.057
data_MOF--net-rtl--node1-WUSLED_clean_sbu_0--node2-KUMBUR_clean_sbu_1--edge1-KIFKEQ_clean_linker_1
_symmetry_space_group_name_H-M    P1
_symmetry_Int_Tables_number       1
_symmetry_cell_setting            triclinic
loop_
_symmetry_equiv_pos_as_xyz
'x, y, z'
_cell_length_a     43.074068
_cell_length_b     43.439092
_cell_length_c     37.183637
_cell_angle_alpha  81.522214
_cell_angle_beta   99.642435
_cell_angle_gamma 90.285422
loop_
_atom_site_label
_atom_site_type_symbol
_atom_site_fract_x
_atom_site_fract_y
_atom_site_fract_z
_atom_type_partial_charge
C0 C 0.19275 0.84331 0.12349 0.0
C1 C 0.18382 0.87494 0.11849 0.0
C2 C 0.16439 0.8676 0.17732 0.0
C3 C 0.16988 0.88696 0.14517 0.0
C4 C 0.1731 0.83589 0.18191 0.0
C5 C 0.18716 0.82395 0.15536 0.0
U6 U 0.20622 0.83603 0.02467 0.0
O7 O 0.25052 0.83008 1.00384 0.0
O8 O 0.21473 0.794 1.00078 0.0
C9 C 0.24285 0.80266 0.99451 0.0
C10 C 0.2086 0.83001 0.09661 0.0
C11 C 0.26797 0.77839 1.00251 0.0
C12 C 0.29904 0.73611 0.04265 0.0
C13 C 0.27573 0.7597 0.03705 0.0
C14 C 0.30702 0.74989 0.97942 0.0
C15 C 0.31497 0.73084 0.01381 0.0
C16 C 0.28389 0.77334 0.97393 0.0
C17 C 0.15725 0.88646 0.93997 0.0
C18 C 0.13212 0.8775 0.87861 0.0
C19 C 0.15169 0.9285 0.88786 0.0
C20 C 0.16186 0.91753 0.92534 0.0
C21 C 0.13635 0.90875 0.86398 0.0
C22 C 0.14243 0.86649 0.91608 0.0
C23 C 0.16634 0.87601 0.9803 0.0
O24 O 0.19131 0.81241 0.07555 0.0
O25 O 0.22691 0.84863 0.07869 0.0
O26 O 0.19455 0.88365 0.99557 0.0
O27 O 0.15879 0.84759 0.99304 0.0
H28 H 0.1877 0.89039 0.09406 0.0
H29 H 0.16313 0.91139 0.14043 0.0
H30 H 0.16962 0.82034 0.20641 0.0
H31 H 0.19394 0.79952 0.15991 0.0
H32 H 0.30469 0.72214 0.0696 0.0
H33 H 0.26369 0.76323 0.05951 0.0
H34 H 0.31819 0.74629 0.95632 0.0
H35 H 0.2781 0.78736 0.94698 0.0
H36 H 0.12005 0.86164 0.86133 0.0
H37 H 0.15587 0.95255 0.87764 0.0
H38 H 0.17306 0.93352 0.94305 0.0
H39 H 0.13828 0.84244 0.92636 0.0
C40 C 0.67205 0.67577 0.71849 0.0
C41 C 0.6506 0.65208 0.71112 0.0
C42 C 0.64032 0.64519 0.77486 0.0
C43 C 0.63487 0.637 0.73896 0.0
C44 C 0.66163 0.66921 0.78173 0.0
C45 C 0.67722 0.68421 0.75399 0.0
U46 U 0.6933 0.69514 0.61952 0.0
O47 O 0.70523 0.74047 0.59025 0.0
O48 O 0.74013 0.70206 0.60286 0.0
C49 C 0.73374 0.73118 0.58794 0.0
C50 C 0.68976 0.69188 0.69029 0.0
C51 C 0.7597 0.75396 0.59052 0.0
C52 C 0.78271 0.80266 0.60694 0.0
C53 C 0.7596 0.77968 0.60952 0.0
C54 C 0.80643 0.77442 0.56678 0.0
C55 C 0.80609 0.80065 0.58486 0.0
C56 C 0.78365 0.75146 0.56965 0.0
C57 C 0.64907 0.65476 0.53939 0.0
C58 C 0.66562 0.63999 0.48446 0.0
C59 C 0.61014 0.64419 0.48723 0.0
C60 C 0.6176 0.65269 0.52254 0.0
C61 C 0.63401 0.63739 0.46775 0.0
C62 C 0.67308 0.64863 0.51983 0.0
C63 C 0.65588 0.66127 0.57806 0.0
O64 O 0.7092 0.67462 0.67761 0.0
O65 O 0.67397 0.71252 0.66434 0.0
O66 O 0.64792 0.68911 0.58373 0.0
O67 O 0.68305 0.65103 0.59782 0.0
H68 H 0.6462 0.64509 0.68396 0.0
H69 H 0.6189 0.61851 0.7325 0.0
H70 H 0.66615 0.67672 0.80859 0.0
H71 H 0.69352 0.70249 0.76038 0.0
H72 H 0.78161 0.82256 0.62116 0.0
H73 H 0.74128 0.78243 0.62557 0.0
H74 H 0.82425 0.77172 0.55004 0.0
H75 H 0.78421 0.73204 0.5545 0.0
H76 H 0.68465 0.63532 0.47022 0.0
H77 H 0.58556 0.64203 0.47569 0.0
H78 H 0.59864 0.65703 0.53709 0.0
H79 H 0.6976 0.65009 0.53205 0.0
C80 C 0.83658 0.15992 0.15932 0.0
C81 C 0.86971 0.15906 0.166 0.0
C82 C 0.87018 0.12847 0.22674 0.0
C83 C 0.88631 0.14356 0.19937 0.0
C84 C 0.83706 0.12878 0.21957 0.0
C85 C 0.82049 0.14442 0.18633 0.0
U86 U 0.81211 0.18364 0.05355 0.0
O87 O 0.76463 0.19565 0.02187 0.0
O88 O 0.8017 0.23042 0.02192 0.0
C89 C 0.77167 0.22485 0.01222 0.0
C90 C 0.81824 0.17838 0.12581 0.0
C91 C 0.74927 0.2485 0.01824 0.0
C92 C 0.72986 0.28194 0.0572 0.0
C93 C 0.75083 0.25872 0.05262 0.0
C94 C 0.70526 0.28455 0.99331 0.0
C95 C 0.70694 0.2954 0.02747 0.0
C96 C 0.72619 0.26143 0.98879 0.0
C97 C 0.85402 0.13909 0.98973 0.0
C98 C 0.85962 0.15219 0.92504 0.0
C99 C 0.87782 0.10189 0.95901 0.0
C100 C 0.86771 0.10978 0.99034 0.0
C101 C 0.87445 0.12313 0.9261 0.0
C102 C 0.84962 0.16019 0.95669 0.0
C103 C 0.84674 0.14715 0.02476 0.0
O104 O 0.83375 0.19855 0.10591 0.0
O105 O 0.7971 0.1633 0.10571 0.0
O106 O 0.81899 0.13938 0.03308 0.0
O107 O 0.85592 0.1744 0.03349 0.0
H108 H 0.88285 0.17072 0.14572 0.0
H109 H 0.91181 0.14344 0.20379 0.0
H110 H 0.82386 0.11772 0.24013 0.0
H111 H 0.79497 0.14493 0.18202 0.0
H112 H 0.73206 0.2898 0.08381 0.0
H113 H 0.76845 0.24898 0.07578 0.0
H114 H 0.68759 0.2938 0.96998 0.0
H115 H 0.72444 0.25374 0.9621 0.0
H116 H 0.85674 0.16912 0.90018 0.0
H117 H 0.88862 0.07913 0.96069 0.0
H118 H 0.87129 0.09311 0.01547 0.0
H119 H 0.83912 0.18299 0.95559 0.0
C120 C 0.35028 0.34219 0.35288 0.0
C121 C 0.35272 0.37483 0.34792 0.0
C122 C 0.38142 0.37369 0.29636 0.0
C123 C 0.36801 0.39034 0.32002 0.0
C124 C 0.37926 0.34099 0.30183 0.0
C125 C 0.36387 0.32554 0.32958 0.0
U126 U 0.32939 0.3221 0.4514 0.0
O127 O 0.2834 0.31285 0.46926 0.0
O128 O 0.32053 0.27653 0.48287 0.0
C129 C 0.29179 0.28455 0.48584 0.0
C130 C 0.33255 0.32506 0.38066 0.0
C131 C 0.26742 0.26022 0.48605 0.0
C132 C 0.22745 0.22771 0.45635 0.0
C133 C 0.2511 0.25021 0.45396 0.0
C134 C 0.23636 0.22507 0.52269 0.0
C135 C 0.2195 0.21506 0.49082 0.0
C136 C 0.25989 0.24725 0.52028 0.0
C137 C 0.37451 0.36573 0.52827 0.0
C138 C 0.36244 0.36881 0.58948 0.0
C139 C 0.41185 0.38824 0.57347 0.0
C140 C 0.40345 0.37967 0.53835 0.0
C141 C 0.39149 0.38304 0.59962 0.0
C142 C 0.35405 0.36019 0.55416 0.0
C143 C 0.36629 0.35824 0.49028 0.0
O144 O 0.34875 0.30467 0.40657 0.0
O145 O 0.312 0.34118 0.39321 0.0
O146 O 0.33805 0.36685 0.47221 0.0
O147 O 0.37505 0.33055 0.48504 0.0
H148 H 0.34262 0.38845 0.3654 0.0
H149 H 0.36949 0.41545 0.31716 0.0
H150 H 0.38881 0.32726 0.28405 0.0
H151 H 0.3622 0.30043 0.33249 0.0
H152 H 0.21495 0.22072 0.43117 0.0
H153 H 0.25643 0.2599 0.42719 0.0
H154 H 0.23154 0.21559 0.54975 0.0
H155 H 0.27218 0.25449 0.54546 0.0
H156 H 0.34627 0.36415 0.60891 0.0
H157 H 0.4341 0.39961 0.57978 0.0
H158 H 0.41953 0.38433 0.51878 0.0
H159 H 0.33158 0.34939 0.54702 0.0
Tb160 Tb 0.03742 0.97921 0.51595 0.0
C161 C 0.96433 0.09932 0.50625 0.0
N162 N 0.9903 0.08906 0.53119 0.0
C163 C 0.0138 0.13902 0.51924 0.0
C164 C 0.96276 0.12925 0.4853 0.0
C165 C 0.01383 0.10933 0.53983 0.0
C166 C 0.98846 0.14878 0.49123 0.0
C167 C 0.90982 0.09114 0.48092 0.0
C168 C 0.93825 0.08067 0.50404 0.0
C169 C 0.90863 0.12019 0.45836 0.0
C170 C 0.93511 0.13919 0.46046 0.0
Tb171 Tb 0.98853 0.03888 0.56072 0.0
N172 N 0.94055 0.05249 0.52567 0.0
C173 C 0.88338 0.07232 0.48181 0.0
C174 C 0.91448 0.03481 0.52832 0.0
C175 C 0.88561 0.04425 0.50607 0.0
H176 H 0.03253 0.10293 0.56294 0.0
H177 H 0.86515 0.02987 0.50757 0.0
H178 H 0.01221 0.91032 0.5466 0.0
H179 H 0.1561 0.02379 0.52698 0.0
H180 H 0.91617 0.01321 0.54714 0.0
H181 H 0.86105 0.07952 0.46451 0.0
H182 H 0.10094 0.02023 0.49757 0.0
H183 H 0.03303 0.15455 0.52548 0.0
H184 H 0.88716 0.1285 0.43992 0.0
H185 H 0.93359 0.16196 0.44377 0.0
H186 H 0.03208 0.86469 0.59279 0.0
H187 H 0.98825 0.17195 0.47569 0.0
H188 H 0.17845 0.9853 0.58091 0.0
N189 N 0.0542 0.93574 0.55691 0.0
C190 C 0.08447 0.93526 0.57451 0.0
C191 C 0.04698 0.88451 0.58813 0.0
C192 C 0.09684 0.90994 0.60113 0.0
C193 C 0.03574 0.91036 0.5621 0.0
C194 C 0.07752 0.88448 0.60815 0.0
N195 N 0.09035 0.98306 0.53766 0.0
C196 C 0.10961 1.00455 0.5225 0.0
C197 C 0.13491 0.9603 0.58178 0.0
C198 C 0.10302 0.96015 0.56508 0.0
C199 C 0.15382 0.9843 0.56885 0.0
C200 C 0.14127 1.00612 0.53851 0.0
H201 H 0.08613 0.86451 0.62839 0.0
H202 H 0.13801 0.89165 0.64023 0.0
H203 H 0.17146 0.93576 0.62314 0.0
O204 O 0.06514 0.96343 0.48017 0.0
O205 O 0.03286 0.97156 0.57481 0.0
O206 O 0.03437 0.02043 0.59048 0.0
O207 O 0.01658 0.95188 0.47651 0.0
O208 O 0.04822 0.02938 0.50573 0.0
O209 O 0.03863 0.04917 0.55744 0.0
O210 O 0.97027 0.02348 0.60933 0.0
O211 O 0.97097 0.02558 0.50598 0.0
O212 O 0.01511 0.02059 0.48055 0.0
O213 O 0.97714 0.07185 0.59309 0.0
O214 O 0.97339 0.98996 0.56771 0.0
O215 O 0.98838 0.96579 0.52072 0.0
C216 C 0.04164 0.99066 0.5987 0.0
C217 C 0.03706 0.96018 0.42059 0.0
C218 C 0.05258 0.95647 0.36063 0.0
C219 C 0.02832 0.9781 0.34376 0.0
C220 C 0.01318 0.9817 0.40276 0.0
C221 C 1.0089 0.99058 0.36468 0.0
C222 C 0.05671 0.9475 0.39936 0.0
C223 C 0.05349 0.04991 0.52893 0.0
C224 C 0.04155 0.95116 0.46119 0.0
C225 C 0.12811 0.9107 0.61932 0.0
C226 C 0.14712 0.93587 0.60967 0.0
C227 C 0.98565 0.02962 0.47747 0.0
C228 C 0.98285 0.0541 0.65691 0.0
C229 C 0.97685 0.06256 0.71915 0.0
C230 C 1.00949 0.05738 0.73043 0.0
C231 C 0.01536 0.04974 0.66877 0.0
C232 C 0.96361 0.06096 0.68206 0.0
C233 C 0.02855 0.05118 0.70536 0.0
C234 C 0.97066 0.96778 0.54638 0.0
C235 C 0.96906 0.05111 0.6185 0.0
H236 H 0.02394 0.98508 0.31415 0.0
H237 H 0.99762 0.99154 0.41825 0.0
H238 H 0.9903 1.0071 0.35126 0.0
H239 H 0.07533 0.93105 0.41302 0.0
H240 H 0.02038 0.05863 0.75863 0.0
H241 H 0.03049 0.04527 0.64965 0.0
H242 H 0.93847 0.06453 0.67298 0.0
H243 H 0.05367 0.04756 0.71432 0.0
Tb244 Tb 0.47955 0.49101 0.9992 0.0
C245 C 0.59165 0.57176 0.03782 0.0
N246 N 0.58813 0.54161 0.05213 0.0
C247 C 0.63995 0.52894 0.04258 0.0
C248 C 0.61896 0.58147 0.02353 0.0
C249 C 0.61222 0.52041 0.05612 0.0
C250 C 0.64317 0.55951 0.02573 0.0
C251 C 0.57068 0.6245 0.02425 0.0
C252 C 0.56776 0.59279 0.03802 0.0
C253 C 0.59718 0.63421 1.00836 0.0
C254 C 0.6213 0.61273 1.00804 0.0
Tb255 Tb 0.54198 0.52962 0.0728 0.0
N256 N 0.54272 0.58246 0.054 0.0
C257 C 0.54753 0.64562 0.0282 0.0
C258 C 0.52198 0.60351 0.0613 0.0
C259 C 0.52344 0.63515 0.04755 0.0
H260 H 0.60981 0.49685 0.06926 0.0
H261 H 0.50636 0.65153 0.05254 0.0
H262 H 0.41899 0.54253 0.97555 0.0
H263 H 0.47858 0.36771 0.04572 0.0
H264 H 0.50457 0.59624 0.07838 0.0
H265 H 0.54885 0.6702 0.018 0.0
H266 H 0.50009 0.41687 0.01775 0.0
H267 H 0.65877 0.51195 0.04507 0.0
H268 H 0.59966 0.65842 0.99724 0.0
H269 H 0.64193 0.62064 0.99646 0.0
H270 H 0.36655 0.54821 0.99207 0.0
H271 H 0.66458 0.56602 0.01511 0.0
H272 H 0.42737 0.3684 0.0676 0.0
N273 N 0.42897 0.49826 1.00884 0.0
C274 C 0.41616 0.47324 0.02707 0.0
C275 C 0.38049 0.52718 1.00276 0.0
C276 C 0.38559 0.47474 0.03563 0.0
C277 C 0.41067 0.5242 0.99426 0.0
C278 C 0.36814 0.50258 0.02426 0.0
N279 N 0.46184 0.44477 0.02491 0.0
C280 C 0.47777 0.41722 0.02734 0.0
C281 C 0.4197 0.41805 0.05074 0.0
C282 C 0.43284 0.4453 0.03453 0.0
C283 C 0.43666 0.38991 0.05531 0.0
C284 C 0.46561 0.38943 0.04303 0.0
H285 H 0.34457 0.50475 0.03032 0.0
H286 H 0.34965 0.44887 0.06094 0.0
H287 H 0.37959 0.39916 0.0742 0.0
O288 O 0.49342 0.47033 0.95635 0.0
O289 O 0.48972 0.47033 0.0584 0.0
O290 O 0.49807 0.51183 0.08991 0.0
O291 O 0.44602 0.48624 0.9521 0.0
O292 O 0.52785 0.47191 1.01015 0.0
O293 O 0.55143 0.48019 0.06924 0.0
O294 O 0.55854 0.55396 0.11726 0.0
O295 O 0.55119 0.52724 0.01633 0.0
O296 O 0.50287 0.53386 0.97919 0.0
O297 O 0.56712 0.50503 0.12202 0.0
O298 O 0.49231 0.54562 0.06278 0.0
O299 O 0.47389 0.5411 1.00176 0.0
C300 C 0.48657 0.48408 0.08689 0.0
C301 C 0.46575 0.48753 0.89643 0.0
C302 C 0.45757 0.48186 0.83081 0.0
C303 C 0.46679 0.51292 0.82274 0.0
C304 C 0.4745 0.51845 0.88744 0.0
C305 C 0.47509 0.531 0.85083 0.0
C306 C 0.457 0.46932 0.86801 0.0
C307 C 0.54905 0.46499 0.04046 0.0
C308 C 0.46599 0.47418 0.93538 0.0
C309 C 0.37296 0.44808 0.05374 0.0
C310 C 0.38996 0.41974 0.06118 0.0
C311 C 0.53347 0.53818 0.98465 0.0
C312 C 0.5586 0.52457 0.17605 0.0
C313 C 0.56023 0.53924 0.23775 0.0
C314 C 0.53742 0.51671 0.24426 0.0
C315 C 0.53592 0.5023 0.18363 0.0
C316 C 0.57091 0.54292 0.20338 0.0
C317 C 0.52546 0.49845 0.21746 0.0
C318 C 0.47335 0.55454 0.03125 0.0
C319 C 0.56894 0.52897 0.13954 0.0
H320 H 0.46715 0.52344 0.79453 0.0
H321 H 0.48079 0.53285 0.90878 0.0
H322 H 0.48196 0.5549 0.84418 0.0
H323 H 0.45027 0.44537 0.87489 0.0
H324 H 0.52905 0.51285 0.27043 0.0
H325 H 0.52631 0.48775 0.16341 0.0
H326 H 0.58829 0.56027 0.19768 0.0
H327 H 0.50801 0.48115 0.22297 0.0
H328 H 0.17519 0.21185 0.5364 0.0
H329 H 0.20517 0.16523 0.45294 0.0
H330 H 0.13535 0.1728 0.5448 0.0
H331 H 0.16531 0.12577 0.46156 0.0
H332 H 0.07139 0.07485 0.46359 0.0
H333 H 0.11031 0.11483 0.45308 0.0
H334 H 0.12897 0.12009 0.56982 0.0
H335 H 0.08973 0.08044 0.58004 0.0
C336 C 0.17349 0.19312 0.51995 0.0
C337 C 0.19379 0.19173 0.49416 0.0
C338 C 0.15055 0.17055 0.52487 0.0
C339 C 0.14704 0.14568 0.50421 0.0
C340 C 0.16691 0.14462 0.47782 0.0
C341 C 0.18988 0.16733 0.47282 0.0
C342 C 0.08386 0.08454 0.48702 0.0
C343 C 0.07727 0.07448 0.52266 0.0
C344 C 0.10635 0.10743 0.48102 0.0
C345 C 0.12301 0.121 0.51051 0.0
C346 C 0.11639 0.11077 0.5462 0.0
C347 C 0.09388 0.08789 0.55216 0.0
H348 H 0.31508 0.67179 0.05293 0.0
H349 H 0.3703 0.73194 0.9861 0.0
H350 H 0.35337 0.62946 0.05782 0.0
H351 H 0.40821 0.68957 0.99063 0.0
H352 H 0.44922 0.59701 0.9713 0.0
H353 H 0.41138 0.63948 0.96834 0.0
H354 H 0.40804 0.61304 0.08423 0.0
H355 H 0.44551 0.57032 0.08693 0.0
C356 C 0.33553 0.67617 0.03964 0.0
C357 C 0.33934 0.70537 0.01889 0.0
C358 C 0.35748 0.65182 0.04237 0.0
C359 C 0.38378 0.65596 0.02434 0.0
C360 C 0.38792 0.68531 1.00424 0.0
C361 C 0.3661 0.70966 1.00165 0.0
C362 C 0.44027 0.60023 0.99607 0.0
C363 C 0.45029 0.58032 0.02931 0.0
C364 C 0.41878 0.62471 0.99449 0.0
C365 C 0.40665 0.62978 0.02608 0.0
C366 C 0.41662 0.60968 0.05929 0.0
C367 C 0.43827 0.58534 0.06091 0.0
H368 H 0.82554 0.82618 0.52062 0.0
H369 H 0.83975 0.83281 0.6368 0.0
H370 H 0.86418 0.86633 0.51139 0.0
H371 H 0.87926 0.87251 0.62795 0.0
H372 H 0.92914 0.96293 0.59571 0.0
H373 H 0.88931 0.92399 0.60462 0.0
H374 H 0.91765 0.87748 0.51996 0.0
H375 H 0.95647 0.9173 0.50987 0.0
C376 C 0.83719 0.83598 0.54436 0.0
C377 C 0.82952 0.82598 0.57953 0.0
C378 C 0.85959 0.85906 0.53909 0.0
C379 C 0.87539 0.87284 0.56888 0.0
C380 C 0.86748 0.86299 0.60408 0.0
C381 C 0.84479 0.84005 0.60927 0.0
C382 C 0.92686 0.94452 0.57879 0.0
C383 C 0.94626 0.94354 0.55195 0.0
C384 C 0.90404 0.92185 0.58418 0.0
C385 C 0.89992 0.89721 0.56314 0.0
C386 C 0.91947 0.8962 0.53641 0.0
C387 C 0.9421 0.91904 0.53079 0.0
H388 H 0.67758 0.30166 0.08664 0.0
H389 H 0.68689 0.34736 0.97777 0.0
H390 H 0.6403 0.34249 0.0917 0.0
H391 H 0.64967 0.38777 0.98275 0.0
H392 H 0.55533 0.4327 0.98422 0.0
H393 H 0.59365 0.39236 0.98315 0.0
H394 H 0.63464 0.39876 0.09592 0.0
H395 H 0.59563 0.43925 0.09734 0.0
C396 C 0.67196 0.32051 0.06392 0.0
C397 C 0.68508 0.32089 0.0316 0.0
C398 C 0.65055 0.34395 0.06685 0.0
C399 C 0.64166 0.3683 0.03749 0.0
C400 C 0.65538 0.36904 1.0056 0.0
C401 C 0.67675 0.34575 1.00272 0.0
C402 C 0.57237 0.42562 1.00898 0.0
C403 C 0.57233 0.43955 0.04085 0.0
C404 C 0.59459 0.40251 1.00821 0.0
C405 C 0.61753 0.39244 0.03929 0.0
C406 C 0.61724 0.40585 0.07151 0.0
C407 C 0.59495 0.42919 0.07225 0.0
H408 H 0.11976 0.84094 0.2163 0.0
H409 H 0.17599 0.92312 0.2037 0.0
H410 H 0.09564 0.86183 0.26262 0.0
H411 H 0.15223 0.9439 0.25039 0.0
H412 H 0.07672 0.98722 0.30198 0.0
H413 H 0.10435 0.96551 0.25939 0.0
H414 H 0.10338 0.8744 0.32399 0.0
H415 H 0.07425 0.89606 0.36584 0.0
C416 C 0.12727 0.86333 0.22369 0.0
C417 C 0.14979 0.88035 0.20602 0.0
C418 C 0.11347 0.87532 0.25045 0.0
C419 C 0.12186 0.90465 0.26048 0.0
C420 C 0.14467 0.9215 0.24307 0.0
C421 C 0.15835 0.90957 0.21619 0.0
C422 C 0.08227 0.96251 0.30714 0.0
C423 C 0.07282 0.94338 0.33723 0.0
C424 C 0.09854 0.95006 0.28284 0.0
C425 C 0.10609 0.91806 0.28791 0.0
C426 C 0.09758 0.89905 0.31874 0.0
C427 C 0.08121 0.91155 0.3431 0.0
H428 H 0.66484 0.62883 0.84854 0.0
H429 H 0.57924 0.62412 0.77053 0.0
H430 H 0.63883 0.60394 0.89815 0.0
H431 H 0.55347 0.59805 0.82015 0.0
H432 H 0.50756 0.58107 0.92538 0.0
H433 H 0.53266 0.60625 0.87463 0.0
H434 H 0.61906 0.55517 0.9227 0.0
H435 H 0.59373 0.52985 0.97287 0.0
C436 C 0.64042 0.62256 0.84184 0.0
C437 C 0.62427 0.6288 0.8052 0.0
C438 C 0.62553 0.60784 0.87041 0.0
C439 C 0.5939 0.59877 0.86348 0.0
C440 C 0.57771 0.6049 0.82684 0.0
C441 C 0.59267 0.61958 0.79817 0.0
C442 C 0.53184 0.57505 0.92492 0.0
C443 C 0.54864 0.55352 0.95345 0.0
C444 C 0.5463 0.58949 0.89573 0.0
C445 C 0.57809 0.58299 0.89432 0.0
C446 C 0.59477 0.56133 0.92292 0.0
C447 C 0.58024 0.54677 0.95187 0.0
H448 H 0.85861 0.07245 0.26655 0.0
H449 H 0.92131 0.15022 0.26936 0.0
H450 H 0.88647 0.04833 0.3266 0.0
H451 H 0.9489 0.12642 0.32962 0.0
H452 H 0.01083 0.06155 0.42084 0.0
H453 H 0.98349 0.0844 0.36 0.0
H454 H 0.8948 0.05315 0.39061 0.0
H455 H 0.92258 0.02878 0.45064 0.0
C456 C 0.87823 0.0845 0.28009 0.0
C457 C 0.88773 0.11327 0.26303 0.0
C458 C 0.89418 0.07071 0.31464 0.0
C459 C 0.91998 0.08538 0.33319 0.0
C460 C 0.92952 0.11412 0.316 0.0
C461 C 0.91367 0.12782 0.28138 0.0
C462 C 0.98549 0.0595 0.41448 0.0
C463 C 0.96875 0.0438 0.44075 0.0
C464 C 0.96974 0.07285 0.37968 0.0
C465 C 0.93681 0.07089 0.37027 0.0
C466 C 0.92016 0.05494 0.39661 0.0
C467 C 0.93599 0.04138 0.4313 0.0
H468 H 0.35386 0.40943 0.64051 0.0
H469 H 0.44986 0.37961 0.64337 0.0
H470 H 0.36987 0.42973 0.69859 0.0
H471 H 0.46581 0.40013 0.70103 0.0
H472 H 0.48818 0.47789 0.77292 0.0
H473 H 0.47177 0.45146 0.71971 0.0
H474 H 0.39043 0.41665 0.76549 0.0
H475 H 0.40674 0.44375 0.81878 0.0
C476 C 0.37828 0.40674 0.65371 0.0
C477 C 0.40057 0.39313 0.63679 0.0
C478 C 0.38748 0.41843 0.6871 0.0
C479 C 0.41923 0.41691 0.70442 0.0
C480 C 0.44128 0.40232 0.68816 0.0
C481 C 0.43209 0.39057 0.65495 0.0
C482 C 0.46682 0.46454 0.77175 0.0
C483 C 0.4487 0.46313 0.80009 0.0
C484 C 0.45753 0.44912 0.74132 0.0
C485 C 0.42971 0.43187 0.73813 0.0
C486 C 0.41183 0.42993 0.76682 0.0
C487 C 0.42133 0.4452 0.79755 0.0
H488 H 0.58595 0.65866 0.4111 0.0
H489 H 0.66315 0.59174 0.44039 0.0
H490 H 0.56987 0.63862 0.3531 0.0
H491 H 0.64701 0.57162 0.38231 0.0
H492 H 0.62161 0.55429 0.26252 0.0
H493 H 0.64126 0.581 0.31527 0.0
H494 H 0.54583 0.59289 0.33326 0.0
H495 H 0.52638 0.56719 0.28033 0.0
C496 C 0.59952 0.63963 0.40525 0.0
C497 C 0.62573 0.6267 0.43081 0.0
C498 C 0.59027 0.6281 0.37187 0.0
C499 C 0.60691 0.60324 0.36293 0.0
C500 C 0.63377 0.59099 0.38791 0.0
C501 C 0.64304 0.60255 0.42134 0.0
C502 C 0.60485 0.56314 0.27738 0.0
C503 C 0.57242 0.55837 0.26727 0.0
C504 C 0.61612 0.57815 0.30791 0.0
C505 C 0.59521 0.58905 0.32886 0.0
C506 C 0.56273 0.58518 0.31778 0.0
C507 C 0.55154 0.57012 0.28752 0.0
H508 H 0.93176 0.0965 0.92691 0.0
H509 H 0.84759 0.13189 0.85242 0.0
H510 H 0.95363 0.08164 0.87579 0.0
H511 H 0.86922 0.11623 0.80078 0.0
H512 H 0.93433 0.11081 0.713 0.0
H513 H 0.90809 0.12593 0.76154 0.0
H514 H 0.94879 0.04464 0.83548 0.0
H515 H 0.97565 0.03046 0.78753 0.0
C516 C 0.91772 0.10079 0.89956 0.0
C517 C 0.88775 0.1151 0.89392 0.0
C518 C 0.93023 0.09211 0.87011 0.0
C519 C 0.9131 0.09716 0.83394 0.0
C520 C 0.88327 0.11205 0.8281 0.0
C521 C 0.8708 0.12102 0.85772 0.0
C522 C 0.93725 0.09605 0.73953 0.0
C523 C 0.95732 0.06964 0.74658 0.0
C524 C 0.9222 0.10467 0.76742 0.0
C525 C 0.92667 0.08689 0.8029 0.0
C526 C 0.94547 0.05955 0.80905 0.0
C527 C 0.96072 0.05121 0.78143 0.0
H528 H 0.36374 0.42902 0.2508 0.0
H529 H 0.43488 0.35598 0.27223 0.0
H530 H 0.38848 0.45516 0.20058 0.0
H531 H 0.45983 0.38222 0.22227 0.0
H532 H 0.48146 0.42121 0.10826 0.0
H533 H 0.4554 0.39486 0.15737 0.0
H534 H 0.4326 0.48406 0.18564 0.0
H535 H 0.45718 0.51018 0.13519 0.0
C536 C 0.38488 0.41865 0.24516 0.0
C537 C 0.39714 0.39022 0.26586 0.0
C538 C 0.39917 0.43372 0.21619 0.0
C539 C 0.42632 0.42098 0.20694 0.0
C540 C 0.43868 0.39263 0.22782 0.0
C541 C 0.42433 0.37751 0.2567 0.0
C542 C 0.47031 0.43516 0.12448 0.0
C543 C 0.47092 0.46782 0.11718 0.0
C544 C 0.45576 0.42004 0.15319 0.0
C545 C 0.44165 0.43714 0.17585 0.0
C546 C 0.44257 0.4699 0.16862 0.0
C547 C 0.45696 0.48497 0.13977 0.0
H548 H 0.10907 0.96597 0.83444 0.0
H549 H 0.13554 0.87904 0.80328 0.0
H550 H 0.08815 0.98539 0.77013 0.0
H551 H 0.11407 0.89842 0.73895 0.0
H552 H 0.03772 0.93224 0.63655 0.0
H553 H 0.06237 0.91222 0.69968 0.0
H554 H 0.1052 1.00128 0.71011 0.0
H555 H 0.08115 0.02095 0.6466 0.0
C556 C 0.11082 0.95108 0.81391 0.0
C557 C 0.12411 0.92086 0.82431 0.0
C558 C 0.09873 0.96225 0.77695 0.0
C559 C 0.0994 0.94349 0.74932 0.0
C560 C 0.11278 0.91334 0.75958 0.0
C561 C 0.12505 0.90221 0.79655 0.0
C562 C 0.0528 0.94736 0.65214 0.0
C563 C 0.05738 0.9782 0.63664 0.0
C564 C 0.0669 0.93592 0.68836 0.0
C565 C 0.08565 0.95518 0.71011 0.0
C566 C 0.09053 0.98595 0.69437 0.0
C567 C 0.07671 0.99724 0.658 0.0
loop_
_geom_bond_atom_site_label_1
_geom_bond_atom_site_label_2
_geom_bond_distance
_geom_bond_site_symmetry_2
_ccdc_geom_bond_type
C0 C1 1.264 . S
C0 C5 1.479 . S
C0 C10 1.465 . S
C1 C0 1.264 . S
C1 C3 1.339 . S
C1 H28 0.931 . S
C2 C3 1.395 . S
C2 C4 1.320 . S
C3 C1 1.339 . S
C3 C2 1.395 . S
C3 H29 0.929 . S
C4 C2 1.320 . S
C4 C5 1.405 . S
C4 H30 0.930 . S
C5 C0 1.479 . S
C5 C4 1.405 . S
C5 H31 0.931 . S
U6 O7 2.454 . S
U6 O8 2.458 1_554 S
U6 C9 2.984 . S
U6 C10 2.847 . S
U6 C23 2.882 1_554 S
U6 O24 2.441 . S
U6 O25 2.420 . S
U6 O26 2.455 1_554 S
U6 O27 2.449 1_554 S
O7 U6 2.454 . S
O7 C9 1.353 . S
O8 U6 2.458 1_556 S
O8 C9 1.287 1_556 S
C9 U6 2.984 . S
C9 O7 1.353 . S
C9 O8 1.287 1_554 S
C9 C11 1.363 . S
C10 C0 1.465 . S
C10 U6 2.847 . S
C10 O24 1.249 . S
C10 O25 1.202 . S
C11 C9 1.363 . S
C11 C13 1.408 . S
C11 C16 1.342 . S
C12 C13 1.310 . S
C12 C15 1.461 . S
C12 H32 0.932 . S
C13 C11 1.408 . S
C13 C12 1.310 . S
C13 H33 0.930 . S
C14 C15 1.474 . S
C14 C16 1.285 . S
C14 H34 0.929 1_554 S
C15 C12 1.461 . S
C15 C14 1.474 . S
C16 C11 1.342 . S
C16 C14 1.285 . S
C16 H35 0.930 1_554 S
C17 C20 1.424 . S
C17 C22 1.245 . S
C17 C23 1.428 . S
C18 C21 1.260 . S
C18 C22 1.477 . S
C18 H36 0.932 . S
C19 C20 1.384 . S
C19 C21 1.479 . S
C19 H37 0.929 . S
C20 C17 1.424 . S
C20 C19 1.384 . S
C20 H38 0.928 . S
C21 C18 1.260 . S
C21 C19 1.479 . S
C22 C17 1.245 . S
C22 C18 1.477 . S
C22 H39 0.932 . S
C23 U6 2.882 1_556 S
C23 C17 1.428 . S
C23 O26 1.301 . S
C23 O27 1.282 . S
O24 U6 2.441 . S
O24 C10 1.249 . S
O25 U6 2.420 . S
O25 C10 1.202 . S
O26 U6 2.455 1_556 S
O26 C23 1.301 . S
O27 U6 2.449 1_556 S
O27 C23 1.282 . S
H28 C1 0.931 . S
H29 C3 0.929 . S
H30 C4 0.930 . S
H31 C5 0.931 . S
H32 C12 0.932 . S
H33 C13 0.930 . S
H34 C14 0.929 1_556 S
H35 C16 0.930 1_556 S
H36 C18 0.932 . S
H37 C19 0.929 . S
H38 C20 0.928 . S
H39 C22 0.932 . S
C40 C41 1.264 . S
C40 C45 1.479 . S
C40 C50 1.465 . S
C41 C40 1.264 . S
C41 C43 1.339 . S
C41 H68 0.931 . S
C42 C43 1.395 . S
C42 C44 1.320 . S
C43 C41 1.339 . S
C43 C42 1.395 . S
C43 H69 0.929 . S
C44 C42 1.320 . S
C44 C45 1.405 . S
C44 H70 0.930 . S
C45 C40 1.479 . S
C45 C44 1.405 . S
C45 H71 0.931 . S
U46 O47 2.454 . S
U46 O48 2.458 . S
U46 C49 2.984 . S
U46 C50 2.847 . S
U46 C63 2.882 . S
U46 O64 2.441 . S
U46 O65 2.420 . S
U46 O66 2.455 . S
U46 O67 2.449 . S
O47 U46 2.454 . S
O47 C49 1.353 . S
O48 U46 2.458 . S
O48 C49 1.286 . S
C49 U46 2.984 . S
C49 O47 1.353 . S
C49 O48 1.286 . S
C49 C51 1.363 . S
C50 C40 1.465 . S
C50 U46 2.847 . S
C50 O64 1.249 . S
C50 O65 1.202 . S
C51 C49 1.363 . S
C51 C53 1.408 . S
C51 C56 1.342 . S
C52 C53 1.310 . S
C52 C55 1.461 . S
C52 H72 0.932 . S
C53 C51 1.408 . S
C53 C52 1.310 . S
C53 H73 0.930 . S
C54 C55 1.474 . S
C54 C56 1.285 . S
C54 H74 0.929 . S
C55 C52 1.461 . S
C55 C54 1.474 . S
C56 C51 1.342 . S
C56 C54 1.285 . S
C56 H75 0.930 . S
C57 C60 1.424 . S
C57 C62 1.245 . S
C57 C63 1.428 . S
C58 C61 1.260 . S
C58 C62 1.477 . S
C58 H76 0.932 . S
C59 C60 1.384 . S
C59 C61 1.479 . S
C59 H77 0.929 . S
C60 C57 1.424 . S
C60 C59 1.384 . S
C60 H78 0.928 . S
C61 C58 1.260 . S
C61 C59 1.479 . S
C62 C57 1.245 . S
C62 C58 1.477 . S
C62 H79 0.932 . S
C63 U46 2.882 . S
C63 C57 1.428 . S
C63 O66 1.301 . S
C63 O67 1.282 . S
O64 U46 2.441 . S
O64 C50 1.249 . S
O65 U46 2.420 . S
O65 C50 1.202 . S
O66 U46 2.455 . S
O66 C63 1.301 . S
O67 U46 2.449 . S
O67 C63 1.282 . S
H68 C41 0.931 . S
H69 C43 0.929 . S
H70 C44 0.930 . S
H71 C45 0.931 . S
H72 C52 0.932 . S
H73 C53 0.930 . S
H74 C54 0.929 . S
H75 C56 0.930 . S
H76 C58 0.932 . S
H77 C59 0.929 . S
H78 C60 0.928 . S
H79 C62 0.932 . S
C80 C81 1.264 . S
C80 C85 1.479 . S
C80 C90 1.465 . S
C81 C80 1.264 . S
C81 C83 1.339 . S
C81 H108 0.931 . S
C82 C83 1.395 . S
C82 C84 1.320 . S
C83 C81 1.339 . S
C83 C82 1.395 . S
C83 H109 0.929 . S
C84 C82 1.320 . S
C84 C85 1.405 . S
C84 H110 0.930 . S
C85 C80 1.479 . S
C85 C84 1.405 . S
C85 H111 0.931 . S
U86 O87 2.454 . S
U86 O88 2.463 . S
U86 C89 2.984 . S
U86 C90 2.847 . S
U86 C103 2.882 1_554 S
U86 O104 2.441 . S
U86 O105 2.420 . S
U86 O106 2.455 1_554 S
U86 O107 2.449 . S
O87 U86 2.454 . S
O87 C89 1.353 . S
O88 U86 2.463 . S
O88 C89 1.299 . S
C89 U86 2.984 . S
C89 O87 1.353 . S
C89 O88 1.299 . S
C89 C91 1.363 . S
C90 C80 1.465 . S
C90 U86 2.847 . S
C90 O104 1.249 . S
C90 O105 1.202 . S
C91 C89 1.363 . S
C91 C93 1.408 . S
C91 C96 1.342 1_554 S
C92 C93 1.310 . S
C92 C95 1.461 . S
C92 H112 0.932 . S
C93 C91 1.408 . S
C93 C92 1.310 . S
C93 H113 0.930 . S
C94 C95 1.474 1_556 S
C94 C96 1.285 . S
C94 H114 0.929 . S
C95 C92 1.461 . S
C95 C94 1.474 1_554 S
C96 C91 1.342 1_556 S
C96 C94 1.285 . S
C96 H115 0.930 . S
C97 C100 1.424 . S
C97 C102 1.245 . S
C97 C103 1.428 . S
C98 C101 1.260 . S
C98 C102 1.477 . S
C98 H116 0.932 . S
C99 C100 1.384 . S
C99 C101 1.479 . S
C99 H117 0.929 . S
C100 C97 1.424 . S
C100 C99 1.384 . S
C100 H118 0.928 . S
C101 C98 1.260 . S
C101 C99 1.479 . S
C102 C97 1.245 . S
C102 C98 1.477 . S
C102 H119 0.932 . S
C103 U86 2.882 1_556 S
C103 C97 1.428 . S
C103 O106 1.301 . S
C103 O107 1.282 1_556 S
O104 U86 2.441 . S
O104 C90 1.249 . S
O105 U86 2.420 . S
O105 C90 1.202 . S
O106 U86 2.455 1_556 S
O106 C103 1.301 . S
O107 U86 2.449 . S
O107 C103 1.282 1_554 S
H108 C81 0.931 . S
H109 C83 0.929 . S
H110 C84 0.930 . S
H111 C85 0.931 . S
H112 C92 0.932 . S
H113 C93 0.930 . S
H114 C94 0.929 . S
H115 C96 0.930 . S
H116 C98 0.932 . S
H117 C99 0.929 . S
H118 C100 0.928 . S
H119 C102 0.932 . S
C120 C121 1.264 . S
C120 C125 1.479 . S
C120 C130 1.465 . S
C121 C120 1.264 . S
C121 C123 1.339 . S
C121 H148 0.931 . S
C122 C123 1.395 . S
C122 C124 1.320 . S
C123 C121 1.339 . S
C123 C122 1.395 . S
C123 H149 0.929 . S
C124 C122 1.320 . S
C124 C125 1.405 . S
C124 H150 0.930 . S
C125 C120 1.479 . S
C125 C124 1.405 . S
C125 H151 0.931 . S
U126 O127 2.454 . S
U126 O128 2.458 . S
U126 C129 2.984 . S
U126 C130 2.847 . S
U126 C143 2.882 . S
U126 O144 2.441 . S
U126 O145 2.420 . S
U126 O146 2.455 . S
U126 O147 2.449 . S
O127 U126 2.454 . S
O127 C129 1.353 . S
O128 U126 2.458 . S
O128 C129 1.286 . S
C129 U126 2.984 . S
C129 O127 1.353 . S
C129 O128 1.286 . S
C129 C131 1.363 . S
C130 C120 1.465 . S
C130 U126 2.847 . S
C130 O144 1.249 . S
C130 O145 1.202 . S
C131 C129 1.363 . S
C131 C133 1.408 . S
C131 C136 1.342 . S
C132 C133 1.310 . S
C132 C135 1.461 . S
C132 H152 0.932 . S
C133 C131 1.408 . S
C133 C132 1.310 . S
C133 H153 0.930 . S
C134 C135 1.474 . S
C134 C136 1.285 . S
C134 H154 0.929 . S
C135 C132 1.461 . S
C135 C134 1.474 . S
C136 C131 1.342 . S
C136 C134 1.285 . S
C136 H155 0.930 . S
C137 C140 1.424 . S
C137 C142 1.245 . S
C137 C143 1.428 . S
C138 C141 1.260 . S
C138 C142 1.477 . S
C138 H156 0.932 . S
C139 C140 1.384 . S
C139 C141 1.479 . S
C139 H157 0.929 . S
C140 C137 1.424 . S
C140 C139 1.384 . S
C140 H158 0.928 . S
C141 C138 1.260 . S
C141 C139 1.479 . S
C142 C137 1.245 . S
C142 C138 1.477 . S
C142 H159 0.932 . S
C143 U126 2.882 . S
C143 C137 1.428 . S
C143 O146 1.301 . S
C143 O147 1.282 . S
O144 U126 2.441 . S
O144 C130 1.249 . S
O145 U126 2.420 . S
O145 C130 1.202 . S
O146 U126 2.455 . S
O146 C143 1.301 . S
O147 U126 2.449 . S
O147 C143 1.282 . S
H148 C121 0.931 . S
H149 C123 0.929 . S
H150 C124 0.930 . S
H151 C125 0.931 . S
H152 C132 0.932 . S
H153 C133 0.930 . S
H154 C134 0.929 . S
H155 C136 0.930 . S
H156 C138 0.932 . S
H157 C139 0.929 . S
H158 C140 0.928 . S
H159 C142 0.932 . S
Tb160 N189 2.617 . S
Tb160 N195 2.572 . S
Tb160 O204 2.465 . S
Tb160 O205 2.387 . S
Tb160 O207 2.428 . S
Tb160 O208 2.308 1_565 S
Tb160 O212 2.361 1_455 S
Tb160 O215 2.393 1_455 S
Tb160 C224 2.802 . S
C161 N162 1.379 . S
C161 C164 1.416 . S
C161 C168 1.424 . S
N162 C161 1.379 . S
N162 C165 1.334 1_655 S
N162 Tb171 2.617 . S
C163 C165 1.390 1_655 S
C163 C166 1.361 . S
C163 H183 0.908 1_655 S
C164 C161 1.416 . S
C164 C166 1.416 . S
C164 C170 1.448 . S
C165 N162 1.334 1_455 S
C165 C163 1.390 1_455 S
C165 H176 0.930 . S
C166 C163 1.361 . S
C166 C164 1.416 . S
C166 H187 0.930 . S
C167 C168 1.413 . S
C167 C169 1.427 . S
C167 C173 1.416 . S
C168 C161 1.424 . S
C168 C167 1.413 . S
C168 N172 1.361 . S
C169 C167 1.427 . S
C169 C170 1.328 . S
C169 H184 0.929 . S
C170 C164 1.448 . S
C170 C169 1.328 . S
C170 H185 0.930 . S
Tb171 N162 2.617 . S
Tb171 N172 2.572 . S
Tb171 O206 2.349 1_655 S
Tb171 O209 2.393 1_655 S
Tb171 O210 2.465 . S
Tb171 O211 2.387 . S
Tb171 O213 2.428 . S
Tb171 O214 2.308 1_545 S
Tb171 C235 2.802 . S
N172 C168 1.361 . S
N172 Tb171 2.572 . S
N172 C174 1.340 . S
C173 C167 1.416 . S
C173 C175 1.332 . S
C173 H181 0.931 . S
C174 N172 1.340 . S
C174 C175 1.407 . S
C174 H180 0.930 . S
C175 C173 1.332 . S
C175 C174 1.407 . S
C175 H177 0.929 . S
H176 C165 0.930 . S
H177 C175 0.929 . S
H178 C193 0.930 1_655 S
H179 C200 0.929 . S
H180 C174 0.930 . S
H181 C173 0.931 . S
H182 C196 0.930 . S
H183 C163 0.908 1_455 S
H184 C169 0.929 . S
H185 C170 0.930 . S
H186 C191 0.930 1_655 S
H187 C166 0.930 . S
H188 C199 0.931 . S
N189 Tb160 2.617 . S
N189 C190 1.379 . S
N189 C193 1.334 . S
C190 N189 1.379 . S
C190 C192 1.416 . S
C190 C198 1.424 . S
C191 H186 0.930 1_455 S
C191 C193 1.390 . S
C191 C194 1.339 . S
C192 C190 1.416 . S
C192 C194 1.416 . S
C192 C225 1.448 . S
C193 H178 0.930 1_455 S
C193 N189 1.334 . S
C193 C191 1.390 . S
C194 C191 1.339 . S
C194 C192 1.416 . S
C194 H201 0.930 . S
N195 Tb160 2.572 . S
N195 C196 1.340 . S
N195 C198 1.361 . S
C196 H182 0.930 . S
C196 N195 1.340 . S
C196 C200 1.407 . S
C197 C198 1.413 . S
C197 C199 1.416 . S
C197 C226 1.427 . S
C198 C190 1.424 . S
C198 N195 1.361 . S
C198 C197 1.413 . S
C199 H188 0.931 . S
C199 C197 1.416 . S
C199 C200 1.332 . S
C200 H179 0.929 . S
C200 C196 1.407 . S
C200 C199 1.332 . S
H201 C194 0.930 . S
H202 C225 0.930 . S
H203 C226 0.929 . S
O204 Tb160 2.465 . S
O204 C224 1.264 . S
O205 Tb160 2.387 . S
O205 C216 1.264 . S
O206 Tb171 2.349 1_455 S
O206 C216 1.243 1_545 S
O207 Tb160 2.428 . S
O207 C224 1.256 . S
O208 Tb160 2.308 1_545 S
O208 C223 1.266 . S
O209 Tb171 2.393 1_455 S
O209 C223 1.248 . S
O210 Tb171 2.465 . S
O210 C235 1.264 . S
O211 Tb171 2.387 . S
O211 C227 1.264 . S
O212 Tb160 2.361 1_655 S
O212 C227 1.224 1_565 S
O213 Tb171 2.428 . S
O213 C235 1.256 . S
O214 Tb171 2.308 1_565 S
O214 C234 1.266 . S
O215 Tb160 2.393 1_655 S
O215 C234 1.248 . S
C216 O205 1.264 . S
C216 O206 1.243 1_565 S
C217 C220 1.399 . S
C217 C222 1.383 . S
C217 C224 1.496 . S
C218 C219 1.399 . S
C218 C222 1.389 . S
C219 C218 1.399 . S
C219 C221 1.380 . S
C219 H236 0.929 . S
C220 C217 1.399 . S
C220 C221 1.392 . S
C220 H237 0.929 . S
C221 C219 1.380 . S
C221 C220 1.392 . S
C221 H238 0.929 . S
C222 C217 1.383 . S
C222 C218 1.389 . S
C222 H239 0.931 . S
C223 O208 1.266 . S
C223 O209 1.248 . S
C224 Tb160 2.802 . S
C224 O204 1.264 . S
C224 O207 1.256 . S
C224 C217 1.496 . S
C225 C192 1.448 . S
C225 H202 0.930 . S
C225 C226 1.328 . S
C226 C197 1.427 . S
C226 H203 0.929 . S
C226 C225 1.328 . S
C227 O211 1.264 . S
C227 O212 1.224 1_545 S
C228 C231 1.399 . S
C228 C232 1.383 . S
C228 C235 1.496 . S
C229 C230 1.399 . S
C229 C232 1.389 . S
C230 C229 1.399 . S
C230 C233 1.380 . S
C230 H240 0.929 . S
C231 C228 1.399 . S
C231 C233 1.392 . S
C231 H241 0.929 . S
C232 C228 1.383 . S
C232 C229 1.389 . S
C232 H242 0.931 . S
C233 C230 1.380 . S
C233 C231 1.392 . S
C233 H243 0.929 . S
C234 O214 1.266 . S
C234 O215 1.248 . S
C235 Tb171 2.802 . S
C235 O210 1.264 . S
C235 O213 1.256 . S
C235 C228 1.496 . S
H236 C219 0.929 . S
H237 C220 0.929 . S
H238 C221 0.929 . S
H239 C222 0.931 . S
H240 C230 0.929 . S
H241 C231 0.929 . S
H242 C232 0.931 . S
H243 C233 0.929 . S
Tb244 N273 2.617 . S
Tb244 N279 2.572 1_556 S
Tb244 O288 2.465 . S
Tb244 O289 2.387 1_556 S
Tb244 O291 2.428 . S
Tb244 O292 2.308 1_556 S
Tb244 O296 2.349 . S
Tb244 O299 2.393 . S
Tb244 C308 2.802 . S
C245 N246 1.379 . S
C245 C248 1.416 . S
C245 C252 1.424 . S
N246 C245 1.379 . S
N246 C249 1.334 . S
N246 Tb255 2.617 . S
C247 C249 1.390 . S
C247 C250 1.339 . S
C247 H267 0.930 . S
C248 C245 1.416 . S
C248 C250 1.416 . S
C248 C254 1.448 . S
C249 N246 1.334 . S
C249 C247 1.390 . S
C249 H260 0.930 . S
C250 C247 1.339 . S
C250 C248 1.416 . S
C250 H271 0.930 . S
C251 C252 1.413 . S
C251 C253 1.427 . S
C251 C257 1.416 . S
C252 C245 1.424 . S
C252 C251 1.413 . S
C252 N256 1.361 . S
C253 C251 1.427 . S
C253 C254 1.328 . S
C253 H268 0.929 . S
C254 C248 1.448 . S
C254 C253 1.328 . S
C254 H269 0.930 . S
Tb255 N246 2.617 . S
Tb255 N256 2.572 . S
Tb255 O290 2.349 . S
Tb255 O293 2.393 . S
Tb255 O294 2.465 . S
Tb255 O295 2.387 1_554 S
Tb255 O297 2.428 . S
Tb255 O298 2.308 . S
Tb255 C319 2.802 . S
N256 C252 1.361 . S
N256 Tb255 2.572 . S
N256 C258 1.340 . S
C257 C251 1.416 . S
C257 C259 1.332 . S
C257 H265 0.931 . S
C258 N256 1.340 . S
C258 C259 1.407 . S
C258 H264 0.930 . S
C259 C257 1.332 . S
C259 C258 1.407 . S
C259 H261 0.929 . S
H260 C249 0.930 . S
H261 C259 0.929 . S
H262 C277 0.930 . S
H263 C284 0.929 . S
H264 C258 0.930 . S
H265 C257 0.931 . S
H266 C280 0.930 . S
H267 C247 0.930 . S
H268 C253 0.929 . S
H269 C254 0.930 . S
H270 C275 0.930 . S
H271 C250 0.930 . S
H272 C283 0.931 . S
N273 Tb244 2.617 . S
N273 C274 1.379 1_556 S
N273 C277 1.334 . S
C274 N273 1.379 1_554 S
C274 C276 1.416 . S
C274 C282 1.424 . S
C275 H270 0.930 . S
C275 C277 1.390 . S
C275 C278 1.339 1_556 S
C276 C274 1.416 . S
C276 C278 1.416 . S
C276 C309 1.448 . S
C277 H262 0.930 . S
C277 N273 1.334 . S
C277 C275 1.390 . S
C278 C275 1.339 1_554 S
C278 C276 1.416 . S
C278 H285 0.930 . S
N279 Tb244 2.572 1_554 S
N279 C280 1.340 . S
N279 C282 1.361 . S
C280 H266 0.930 . S
C280 N279 1.340 . S
C280 C284 1.407 . S
C281 C282 1.413 . S
C281 C283 1.416 . S
C281 C310 1.427 . S
C282 C274 1.424 . S
C282 N279 1.361 . S
C282 C281 1.413 . S
C283 H272 0.931 . S
C283 C281 1.416 . S
C283 C284 1.332 . S
C284 H263 0.929 . S
C284 C280 1.407 . S
C284 C283 1.332 . S
H285 C278 0.930 . S
H286 C309 0.930 . S
H287 C310 0.929 . S
O288 Tb244 2.465 . S
O288 C308 1.264 . S
O289 Tb244 2.387 1_554 S
O289 C300 1.264 . S
O290 Tb255 2.349 . S
O290 C300 1.243 . S
O291 Tb244 2.428 . S
O291 C308 1.256 . S
O292 Tb244 2.308 1_554 S
O292 C307 1.266 . S
O293 Tb255 2.393 . S
O293 C307 1.248 . S
O294 Tb255 2.465 . S
O294 C319 1.264 . S
O295 Tb255 2.387 1_556 S
O295 C311 1.264 . S
O296 Tb244 2.349 . S
O296 C311 1.243 . S
O297 Tb255 2.428 . S
O297 C319 1.256 . S
O298 Tb255 2.308 . S
O298 C318 1.266 . S
O299 Tb244 2.393 . S
O299 C318 1.248 1_556 S
C300 O289 1.264 . S
C300 O290 1.243 . S
C301 C304 1.399 . S
C301 C306 1.383 . S
C301 C308 1.496 . S
C302 C303 1.399 . S
C302 C306 1.389 . S
C303 C302 1.399 . S
C303 C305 1.380 . S
C303 H320 0.929 . S
C304 C301 1.399 . S
C304 C305 1.392 . S
C304 H321 0.929 . S
C305 C303 1.380 . S
C305 C304 1.392 . S
C305 H322 0.929 . S
C306 C301 1.383 . S
C306 C302 1.389 . S
C306 H323 0.931 . S
C307 O292 1.266 . S
C307 O293 1.248 . S
C308 Tb244 2.802 . S
C308 O288 1.264 . S
C308 O291 1.256 . S
C308 C301 1.496 . S
C309 C276 1.448 . S
C309 H286 0.930 . S
C309 C310 1.328 . S
C310 C281 1.427 . S
C310 H287 0.929 . S
C310 C309 1.328 . S
C311 O295 1.264 . S
C311 O296 1.243 . S
C312 C315 1.399 . S
C312 C316 1.383 . S
C312 C319 1.496 . S
C313 C314 1.399 . S
C313 C316 1.389 . S
C314 C313 1.399 . S
C314 C317 1.380 . S
C314 H324 0.929 . S
C315 C312 1.399 . S
C315 C317 1.392 . S
C315 H325 0.929 . S
C316 C312 1.383 . S
C316 C313 1.389 . S
C316 H326 0.931 . S
C317 C314 1.380 . S
C317 C315 1.392 . S
C317 H327 0.929 . S
C318 O298 1.266 . S
C318 O299 1.248 1_554 S
C319 Tb255 2.802 . S
C319 O294 1.264 . S
C319 O297 1.256 . S
C319 C312 1.496 . S
H320 C303 0.929 . S
H321 C304 0.929 . S
H322 C305 0.929 . S
H323 C306 0.931 . S
H324 C314 0.929 . S
H325 C315 0.929 . S
H326 C316 0.931 . S
H327 C317 0.929 . S
H328 C336 0.950 . S
H329 C341 0.950 . S
H330 C338 0.950 . S
H331 C340 0.950 . S
H332 C342 0.950 . S
H333 C344 0.950 . S
H334 C346 0.950 . S
H335 C347 0.950 . S
C336 H328 0.950 . S
C336 C337 1.386 . S
C336 C338 1.391 . S
C337 C336 1.386 . S
C337 C341 1.393 . S
C338 H330 0.950 . S
C338 C336 1.391 . S
C338 C339 1.400 . S
C339 C338 1.400 . S
C339 C340 1.398 . S
C339 C345 1.491 . S
C340 H331 0.950 . S
C340 C339 1.398 . S
C340 C341 1.391 . S
C341 H329 0.950 . S
C341 C337 1.393 . S
C341 C340 1.391 . S
C342 H332 0.950 . S
C342 C343 1.386 . S
C342 C344 1.391 . S
C343 C342 1.386 . S
C343 C347 1.393 . S
C344 H333 0.950 . S
C344 C342 1.391 . S
C344 C345 1.400 . S
C345 C339 1.491 . S
C345 C344 1.400 . S
C345 C346 1.398 . S
C346 H334 0.950 . S
C346 C345 1.398 . S
C346 C347 1.391 . S
C347 H335 0.950 . S
C347 C343 1.393 . S
C347 C346 1.391 . S
H348 C356 0.950 . S
H349 C361 0.950 1_556 S
H350 C358 0.950 . S
H351 C360 0.950 1_556 S
H352 C362 0.950 . S
H353 C364 0.939 1_556 S
H354 C366 0.950 . S
H355 C367 0.950 . S
C356 H348 0.950 . S
C356 C357 1.386 . S
C356 C358 1.391 . S
C357 C356 1.386 . S
C357 C361 1.393 . S
C358 H350 0.950 . S
C358 C356 1.391 . S
C358 C359 1.400 . S
C359 C358 1.400 . S
C359 C360 1.398 . S
C359 C365 1.491 . S
C360 H351 0.950 1_554 S
C360 C359 1.398 . S
C360 C361 1.391 . S
C361 H349 0.950 1_554 S
C361 C357 1.393 . S
C361 C360 1.391 . S
C362 H352 0.950 . S
C362 C363 1.386 1_556 S
C362 C364 1.387 1_556 S
C363 C362 1.386 1_554 S
C363 C367 1.393 . S
C364 H353 0.939 1_554 S
C364 C362 1.387 1_554 S
C364 C365 1.416 . S
C365 C359 1.491 . S
C365 C364 1.416 . S
C365 C366 1.398 . S
C366 H354 0.950 . S
C366 C365 1.398 . S
C366 C367 1.391 . S
C367 H355 0.950 . S
C367 C363 1.393 . S
C367 C366 1.391 . S
H368 C376 0.950 . S
H369 C381 0.950 . S
H370 C378 0.950 . S
H371 C380 0.950 . S
H372 C382 0.950 . S
H373 C384 0.950 . S
H374 C386 0.950 . S
H375 C387 0.950 . S
C376 H368 0.950 . S
C376 C377 1.386 . S
C376 C378 1.391 . S
C377 C376 1.386 . S
C377 C381 1.393 . S
C378 H370 0.950 . S
C378 C376 1.391 . S
C378 C379 1.400 . S
C379 C378 1.400 . S
C379 C380 1.398 . S
C379 C385 1.491 . S
C380 H371 0.950 . S
C380 C379 1.398 . S
C380 C381 1.391 . S
C381 H369 0.950 . S
C381 C377 1.393 . S
C381 C380 1.391 . S
C382 H372 0.950 . S
C382 C383 1.386 . S
C382 C384 1.391 . S
C383 C382 1.386 . S
C383 C387 1.393 . S
C384 H373 0.950 . S
C384 C382 1.391 . S
C384 C385 1.400 . S
C385 C379 1.491 . S
C385 C384 1.400 . S
C385 C386 1.398 . S
C386 H374 0.950 . S
C386 C385 1.398 . S
C386 C387 1.391 . S
C387 H375 0.950 . S
C387 C383 1.393 . S
C387 C386 1.391 . S
H388 C396 0.950 . S
H389 C401 0.950 . S
H390 C398 0.950 . S
H391 C400 0.950 . S
H392 C402 0.950 . S
H393 C404 0.950 . S
H394 C406 0.950 . S
H395 C407 0.950 . S
C396 H388 0.950 . S
C396 C397 1.386 . S
C396 C398 1.391 . S
C397 C396 1.386 . S
C397 C401 1.393 1_554 S
C398 H390 0.950 . S
C398 C396 1.391 . S
C398 C399 1.400 . S
C399 C398 1.400 . S
C399 C400 1.398 1_554 S
C399 C405 1.491 . S
C400 H391 0.950 . S
C400 C399 1.398 1_556 S
C400 C401 1.391 . S
C401 H389 0.950 . S
C401 C397 1.393 1_556 S
C401 C400 1.391 . S
C402 H392 0.950 . S
C402 C403 1.386 1_556 S
C402 C404 1.391 . S
C403 C402 1.386 1_554 S
C403 C407 1.393 . S
C404 H393 0.950 . S
C404 C402 1.391 . S
C404 C405 1.400 1_556 S
C405 C399 1.491 . S
C405 C404 1.400 1_554 S
C405 C406 1.398 . S
C406 H394 0.950 . S
C406 C405 1.398 . S
C406 C407 1.391 . S
C407 H395 0.950 . S
C407 C403 1.393 . S
C407 C406 1.391 . S
H408 C416 0.950 . S
H409 C421 0.950 . S
H410 C418 0.950 . S
H411 C420 0.950 . S
H412 C422 0.950 1_545 S
H413 C424 0.950 . S
H414 C426 0.950 . S
H415 C427 0.950 . S
C416 H408 0.950 . S
C416 C417 1.386 . S
C416 C418 1.391 . S
C417 C416 1.386 . S
C417 C421 1.393 . S
C418 H410 0.950 . S
C418 C416 1.391 . S
C418 C419 1.400 . S
C419 C418 1.400 . S
C419 C420 1.398 . S
C419 C425 1.491 . S
C420 H411 0.950 . S
C420 C419 1.398 . S
C420 C421 1.391 . S
C421 H409 0.950 . S
C421 C417 1.393 . S
C421 C420 1.391 . S
C422 H412 0.950 1_565 S
C422 C423 1.386 . S
C422 C424 1.391 . S
C423 C422 1.386 . S
C423 C427 1.393 . S
C424 H413 0.950 . S
C424 C422 1.391 . S
C424 C425 1.400 . S
C425 C419 1.491 . S
C425 C424 1.400 . S
C425 C426 1.398 . S
C426 H414 0.950 . S
C426 C425 1.398 . S
C426 C427 1.391 . S
C427 H415 0.950 . S
C427 C423 1.393 . S
C427 C426 1.391 . S
H428 C436 0.950 . S
H429 C441 0.950 . S
H430 C438 0.950 . S
H431 C440 0.950 . S
H432 C442 0.950 . S
H433 C444 0.950 . S
H434 C446 0.950 . S
H435 C447 0.950 . S
C436 H428 0.950 . S
C436 C437 1.386 . S
C436 C438 1.391 . S
C437 C436 1.386 . S
C437 C441 1.393 . S
C438 H430 0.950 . S
C438 C436 1.391 . S
C438 C439 1.400 . S
C439 C438 1.400 . S
C439 C440 1.398 . S
C439 C445 1.491 . S
C440 H431 0.950 . S
C440 C439 1.398 . S
C440 C441 1.391 . S
C441 H429 0.950 . S
C441 C437 1.393 . S
C441 C440 1.391 . S
C442 H432 0.950 . S
C442 C443 1.386 . S
C442 C444 1.391 . S
C443 C442 1.386 . S
C443 C447 1.393 . S
C444 H433 0.950 . S
C444 C442 1.391 . S
C444 C445 1.400 . S
C445 C439 1.491 . S
C445 C444 1.400 . S
C445 C446 1.398 . S
C446 H434 0.950 . S
C446 C445 1.398 . S
C446 C447 1.391 . S
C447 H435 0.950 . S
C447 C443 1.393 . S
C447 C446 1.391 . S
H448 C456 0.950 . S
H449 C461 0.950 . S
H450 C458 0.950 . S
H451 C460 0.950 . S
H452 C462 0.950 . S
H453 C464 0.950 . S
H454 C466 0.950 . S
H455 C467 0.950 . S
C456 H448 0.950 . S
C456 C457 1.386 . S
C456 C458 1.391 . S
C457 C456 1.386 . S
C457 C461 1.393 . S
C458 H450 0.950 . S
C458 C456 1.391 . S
C458 C459 1.400 . S
C459 C458 1.400 . S
C459 C460 1.398 . S
C459 C465 1.491 . S
C460 H451 0.950 . S
C460 C459 1.398 . S
C460 C461 1.391 . S
C461 H449 0.950 . S
C461 C457 1.393 . S
C461 C460 1.391 . S
C462 H452 0.950 . S
C462 C463 1.386 . S
C462 C464 1.391 . S
C463 C462 1.386 . S
C463 C467 1.393 . S
C464 H453 0.950 . S
C464 C462 1.391 . S
C464 C465 1.400 . S
C465 C459 1.491 . S
C465 C464 1.400 . S
C465 C466 1.398 . S
C466 H454 0.950 . S
C466 C465 1.398 . S
C466 C467 1.391 . S
C467 H455 0.950 . S
C467 C463 1.393 . S
C467 C466 1.391 . S
H468 C476 0.950 . S
H469 C481 0.950 . S
H470 C478 0.950 . S
H471 C480 0.950 . S
H472 C482 0.950 . S
H473 C484 0.950 . S
H474 C486 0.950 . S
H475 C487 0.950 . S
C476 H468 0.950 . S
C476 C477 1.386 . S
C476 C478 1.391 . S
C477 C476 1.386 . S
C477 C481 1.393 . S
C478 H470 0.950 . S
C478 C476 1.391 . S
C478 C479 1.400 . S
C479 C478 1.400 . S
C479 C480 1.398 . S
C479 C485 1.491 . S
C480 H471 0.950 . S
C480 C479 1.398 . S
C480 C481 1.391 . S
C481 H469 0.950 . S
C481 C477 1.393 . S
C481 C480 1.391 . S
C482 H472 0.950 . S
C482 C483 1.386 . S
C482 C484 1.391 . S
C483 C482 1.386 . S
C483 C487 1.393 . S
C484 H473 0.950 . S
C484 C482 1.391 . S
C484 C485 1.400 . S
C485 C479 1.491 . S
C485 C484 1.400 . S
C485 C486 1.398 . S
C486 H474 0.950 . S
C486 C485 1.398 . S
C486 C487 1.391 . S
C487 H475 0.950 . S
C487 C483 1.393 . S
C487 C486 1.391 . S
H488 C496 0.950 . S
H489 C501 0.950 . S
H490 C498 0.950 . S
H491 C500 0.950 . S
H492 C502 0.950 . S
H493 C504 0.950 . S
H494 C506 0.950 . S
H495 C507 0.950 . S
C496 H488 0.950 . S
C496 C497 1.386 . S
C496 C498 1.391 . S
C497 C496 1.386 . S
C497 C501 1.393 . S
C498 H490 0.950 . S
C498 C496 1.391 . S
C498 C499 1.400 . S
C499 C498 1.400 . S
C499 C500 1.398 . S
C499 C505 1.491 . S
C500 H491 0.950 . S
C500 C499 1.398 . S
C500 C501 1.391 . S
C501 H489 0.950 . S
C501 C497 1.393 . S
C501 C500 1.391 . S
C502 H492 0.950 . S
C502 C503 1.386 . S
C502 C504 1.391 . S
C503 C502 1.386 . S
C503 C507 1.393 . S
C504 H493 0.950 . S
C504 C502 1.391 . S
C504 C505 1.400 . S
C505 C499 1.491 . S
C505 C504 1.400 . S
C505 C506 1.398 . S
C506 H494 0.950 . S
C506 C505 1.398 . S
C506 C507 1.391 . S
C507 H495 0.950 . S
C507 C503 1.393 . S
C507 C506 1.391 . S
H508 C516 0.950 . S
H509 C521 0.950 . S
H510 C518 0.950 . S
H511 C520 0.950 . S
H512 C522 0.950 . S
H513 C524 0.950 . S
H514 C526 0.950 . S
H515 C527 0.950 . S
C516 H508 0.950 . S
C516 C517 1.386 . S
C516 C518 1.391 . S
C517 C516 1.386 . S
C517 C521 1.393 . S
C518 H510 0.950 . S
C518 C516 1.391 . S
C518 C519 1.400 . S
C519 C518 1.400 . S
C519 C520 1.398 . S
C519 C525 1.491 . S
C520 H511 0.950 . S
C520 C519 1.398 . S
C520 C521 1.391 . S
C521 H509 0.950 . S
C521 C517 1.393 . S
C521 C520 1.391 . S
C522 H512 0.950 . S
C522 C523 1.386 . S
C522 C524 1.391 . S
C523 C522 1.386 . S
C523 C527 1.393 . S
C524 H513 0.950 . S
C524 C522 1.391 . S
C524 C525 1.400 . S
C525 C519 1.491 . S
C525 C524 1.400 . S
C525 C526 1.398 . S
C526 H514 0.950 . S
C526 C525 1.398 . S
C526 C527 1.391 . S
C527 H515 0.950 . S
C527 C523 1.393 . S
C527 C526 1.391 . S
H528 C536 0.950 . S
H529 C541 0.950 . S
H530 C538 0.950 . S
H531 C540 0.950 . S
H532 C542 0.950 . S
H533 C544 0.950 . S
H534 C546 0.950 . S
H535 C547 0.950 . S
C536 H528 0.950 . S
C536 C537 1.386 . S
C536 C538 1.391 . S
C537 C536 1.386 . S
C537 C541 1.393 . S
C538 H530 0.950 . S
C538 C536 1.391 . S
C538 C539 1.400 . S
C539 C538 1.400 . S
C539 C540 1.398 . S
C539 C545 1.491 . S
C540 H531 0.950 . S
C540 C539 1.398 . S
C540 C541 1.391 . S
C541 H529 0.950 . S
C541 C537 1.393 . S
C541 C540 1.391 . S
C542 H532 0.950 . S
C542 C543 1.386 . S
C542 C544 1.391 . S
C543 C542 1.386 . S
C543 C547 1.393 . S
C544 H533 0.950 . S
C544 C542 1.391 . S
C544 C545 1.400 . S
C545 C539 1.491 . S
C545 C544 1.400 . S
C545 C546 1.398 . S
C546 H534 0.950 . S
C546 C545 1.398 . S
C546 C547 1.391 . S
C547 H535 0.950 . S
C547 C543 1.393 . S
C547 C546 1.391 . S
H548 C556 0.950 . S
H549 C561 0.950 . S
H550 C558 0.950 . S
H551 C560 0.950 . S
H552 C562 0.950 . S
H553 C564 0.950 . S
H554 C566 0.950 . S
H555 C567 0.950 . S
C556 H548 0.950 . S
C556 C557 1.386 . S
C556 C558 1.391 . S
C557 C556 1.386 . S
C557 C561 1.393 . S
C558 H550 0.950 . S
C558 C556 1.391 . S
C558 C559 1.400 . S
C559 C558 1.400 . S
C559 C560 1.398 . S
C559 C565 1.491 . S
C560 H551 0.950 . S
C560 C559 1.398 . S
C560 C561 1.391 . S
C561 H549 0.950 . S
C561 C557 1.393 . S
C561 C560 1.391 . S
C562 H552 0.950 . S
C562 C563 1.386 . S
C562 C564 1.391 . S
C563 C562 1.386 . S
C563 C567 1.393 . S
C564 H553 0.950 . S
C564 C562 1.391 . S
C564 C565 1.400 . S
C565 C559 1.491 . S
C565 C564 1.400 . S
C565 C566 1.398 . S
C566 H554 0.950 . S
C566 C565 1.398 . S
C566 C567 1.391 . S
C567 H555 0.950 . S
C567 C563 1.393 . S
C567 C566 1.391 . S
C343 C223 1.661 . S
C337 C135 1.656 . S
C357 C15 1.639 . S
C363 C318 1.650 . S
C377 C55 1.660 . S
C383 C234 1.650 . S
C397 C95 1.650 . S
C403 C307 1.668 . S
C423 C218 1.408 . S
C417 C2 1.559 . S
C443 C311 1.619 . S
C437 C42 1.619 . S
C457 C82 1.624 . S
C463 C227 1.631 . S
C477 C141 1.520 . S
C483 C302 1.400 . S
C503 C313 1.417 . S
C497 C61 1.559 . S
C523 C229 1.431 . S
C517 C101 1.588 . S
C543 C300 1.646 . S
C537 C122 1.614 . S
C557 C21 1.660 . S
C563 C216 1.660 . S
