# Generated by pormake.
# Topology gar, (4,6)-cn, num edge types: 1
# Building blocks:
#     Node 0, Type 0, BuildingBlock: QUQFOY_clean_sbu_3, # of connection points: 4
#     Node 1, Type 0, BuildingBlock: QUQFOY_clean_sbu_3, # of connection points: 4
#     Node 2, Type 0, BuildingBlock: QUQFOY_clean_sbu_3, # of connection points: 4
#     Node 3, Type 0, BuildingBlock: QUQFOY_clean_sbu_3, # of connection points: 4
#     Node 4, Type 0, BuildingBlock: QUQFOY_clean_sbu_3, # of connection points: 4
#     Node 5, Type 0, BuildingBlock: QUQFOY_clean_sbu_3, # of connection points: 4
#     Node 6, Type 0, BuildingBlock: QUQFOY_clean_sbu_3, # of connection points: 4
#     Node 7, Type 0, BuildingBlock: QUQFOY_clean_sbu_3, # of connection points: 4
#     Node 8, Type 0, BuildingBlock: QUQFOY_clean_sbu_3, # of connection points: 4
#     Node 9, Type 0, BuildingBlock: QUQFOY_clean_sbu_3, # of connection points: 4
#     Node 10, Type 0, BuildingBlock: QUQFOY_clean_sbu_3, # of connection points: 4
#     Node 11, Type 0, BuildingBlock: QUQFOY_clean_sbu_3, # of connection points: 4
#     Node 12, Type 0, BuildingBlock: QUQFOY_clean_sbu_3, # of connection points: 4
#     Node 13, Type 0, BuildingBlock: QUQFOY_clean_sbu_3, # of connection points: 4
#     Node 14, Type 0, BuildingBlock: QUQFOY_clean_sbu_3, # of connection points: 4
#     Node 15, Type 0, BuildingBlock: QUQFOY_clean_sbu_3, # of connection points: 4
#     Node 16, Type 0, BuildingBlock: QUQFOY_clean_sbu_3, # of connection points: 4
#     Node 17, Type 0, BuildingBlock: QUQFOY_clean_sbu_3, # of connection points: 4
#     Node 18, Type 0, BuildingBlock: QUQFOY_clean_sbu_3, # of connection points: 4
#     Node 19, Type 0, BuildingBlock: QUQFOY_clean_sbu_3, # of connection points: 4
#     Node 20, Type 0, BuildingBlock: QUQFOY_clean_sbu_3, # of connection points: 4
#     Node 21, Type 0, BuildingBlock: QUQFOY_clean_sbu_3, # of connection points: 4
#     Node 22, Type 0, BuildingBlock: QUQFOY_clean_sbu_3, # of connection points: 4
#     Node 23, Type 0, BuildingBlock: QUQFOY_clean_sbu_3, # of connection points: 4
#     Node 24, Type 1, BuildingBlock: BETGAK_clean_sbu_0, # of connection points: 6
#     Node 25, Type 1, BuildingBlock: BETGAK_clean_sbu_0, # of connection points: 6
#     Node 26, Type 1, BuildingBlock: BETGAK_clean_sbu_0, # of connection points: 6
#     Node 27, Type 1, BuildingBlock: BETGAK_clean_sbu_0, # of connection points: 6
#     Node 28, Type 1, BuildingBlock: BETGAK_clean_sbu_0, # of connection points: 6
#     Node 29, Type 1, BuildingBlock: BETGAK_clean_sbu_0, # of connection points: 6
#     Node 30, Type 1, BuildingBlock: BETGAK_clean_sbu_0, # of connection points: 6
#     Node 31, Type 1, BuildingBlock: BETGAK_clean_sbu_0, # of connection points: 6
#     Node 32, Type 1, BuildingBlock: BETGAK_clean_sbu_0, # of connection points: 6
#     Node 33, Type 1, BuildingBlock: BETGAK_clean_sbu_0, # of connection points: 6
#     Node 34, Type 1, BuildingBlock: BETGAK_clean_sbu_0, # of connection points: 6
#     Node 35, Type 1, BuildingBlock: BETGAK_clean_sbu_0, # of connection points: 6
#     Node 36, Type 1, BuildingBlock: BETGAK_clean_sbu_0, # of connection points: 6
#     Node 37, Type 1, BuildingBlock: BETGAK_clean_sbu_0, # of connection points: 6
#     Node 38, Type 1, BuildingBlock: BETGAK_clean_sbu_0, # of connection points: 6
#     Node 39, Type 1, BuildingBlock: BETGAK_clean_sbu_0, # of connection points: 6
#     Edge 40, Type (0, 1), BuildingBlock: OJICUG_clean_linker_0, # of connection points: 2
#     Edge 41, Type (0, 1), BuildingBlock: OJICUG_clean_linker_0, # of connection points: 2
#     Edge 42, Type (0, 1), BuildingBlock: OJICUG_clean_linker_0, # of connection points: 2
#     Edge 43, Type (0, 1), BuildingBlock: OJICUG_clean_linker_0, # of connection points: 2
#     Edge 44, Type (0, 1), BuildingBlock: OJICUG_clean_linker_0, # of connection points: 2
#     Edge 45, Type (0, 1), BuildingBlock: OJICUG_clean_linker_0, # of connection points: 2
#     Edge 46, Type (0, 1), BuildingBlock: OJICUG_clean_linker_0, # of connection points: 2
#     Edge 47, Type (0, 1), BuildingBlock: OJICUG_clean_linker_0, # of connection points: 2
#     Edge 48, Type (0, 1), BuildingBlock: OJICUG_clean_linker_0, # of connection points: 2
#     Edge 49, Type (0, 1), BuildingBlock: OJICUG_clean_linker_0, # of connection points: 2
#     Edge 50, Type (0, 1), BuildingBlock: OJICUG_clean_linker_0, # of connection points: 2
#     Edge 51, Type (0, 1), BuildingBlock: OJICUG_clean_linker_0, # of connection points: 2
#     Edge 52, Type (0, 1), BuildingBlock: OJICUG_clean_linker_0, # of connection points: 2
#     Edge 53, Type (0, 1), BuildingBlock: OJICUG_clean_linker_0, # of connection points: 2
#     Edge 54, Type (0, 1), BuildingBlock: OJICUG_clean_linker_0, # of connection points: 2
#     Edge 55, Type (0, 1), BuildingBlock: OJICUG_clean_linker_0, # of connection points: 2
#     Edge 56, Type (0, 1), BuildingBlock: OJICUG_clean_linker_0, # of connection points: 2
#     Edge 57, Type (0, 1), BuildingBlock: OJICUG_clean_linker_0, # of connection points: 2
#     Edge 58, Type (0, 1), BuildingBlock: OJICUG_clean_linker_0, # of connection points: 2
#     Edge 59, Type (0, 1), BuildingBlock: OJICUG_clean_linker_0, # of connection points: 2
#     Edge 60, Type (0, 1), BuildingBlock: OJICUG_clean_linker_0, # of connection points: 2
#     Edge 61, Type (0, 1), BuildingBlock: OJICUG_clean_linker_0, # of connection points: 2
#     Edge 62, Type (0, 1), BuildingBlock: OJICUG_clean_linker_0, # of connection points: 2
#     Edge 63, Type (0, 1), BuildingBlock: OJICUG_clean_linker_0, # of connection points: 2
#     Edge 64, Type (0, 1), BuildingBlock: OJICUG_clean_linker_0, # of connection points: 2
#     Edge 65, Type (0, 1), BuildingBlock: OJICUG_clean_linker_0, # of connection points: 2
#     Edge 66, Type (0, 1), BuildingBlock: OJICUG_clean_linker_0, # of connection points: 2
#     Edge 67, Type (0, 1), BuildingBlock: OJICUG_clean_linker_0, # of connection points: 2
#     Edge 68, Type (0, 1), BuildingBlock: OJICUG_clean_linker_0, # of connection points: 2
#     Edge 69, Type (0, 1), BuildingBlock: OJICUG_clean_linker_0, # of connection points: 2
#     Edge 70, Type (0, 1), BuildingBlock: OJICUG_clean_linker_0, # of connection points: 2
#     Edge 71, Type (0, 1), BuildingBlock: OJICUG_clean_linker_0, # of connection points: 2
#     Edge 72, Type (0, 1), BuildingBlock: OJICUG_clean_linker_0, # of connection points: 2
#     Edge 73, Type (0, 1), BuildingBlock: OJICUG_clean_linker_0, # of connection points: 2
#     Edge 74, Type (0, 1), BuildingBlock: OJICUG_clean_linker_0, # of connection points: 2
#     Edge 75, Type (0, 1), BuildingBlock: OJICUG_clean_linker_0, # of connection points: 2
#     Edge 76, Type (0, 1), BuildingBlock: OJICUG_clean_linker_0, # of connection points: 2
#     Edge 77, Type (0, 1), BuildingBlock: OJICUG_clean_linker_0, # of connection points: 2
#     Edge 78, Type (0, 1), BuildingBlock: OJICUG_clean_linker_0, # of connection points: 2
#     Edge 79, Type (0, 1), BuildingBlock: OJICUG_clean_linker_0, # of connection points: 2
#     Edge 80, Type (0, 1), BuildingBlock: OJICUG_clean_linker_0, # of connection points: 2
#     Edge 81, Type (0, 1), BuildingBlock: OJICUG_clean_linker_0, # of connection points: 2
#     Edge 82, Type (0, 1), BuildingBlock: OJICUG_clean_linker_0, # of connection points: 2
#     Edge 83, Type (0, 1), BuildingBlock: OJICUG_clean_linker_0, # of connection points: 2
#     Edge 84, Type (0, 1), BuildingBlock: OJICUG_clean_linker_0, # of connection points: 2
#     Edge 85, Type (0, 1), BuildingBlock: OJICUG_clean_linker_0, # of connection points: 2
#     Edge 86, Type (0, 1), BuildingBlock: OJICUG_clean_linker_0, # of connection points: 2
#     Edge 87, Type (0, 1), BuildingBlock: OJICUG_clean_linker_0, # of connection points: 2
#     Edge 88, Type (0, 1), BuildingBlock: OJICUG_clean_linker_0, # of connection points: 2
#     Edge 89, Type (0, 1), BuildingBlock: OJICUG_clean_linker_0, # of connection points: 2
#     Edge 90, Type (0, 1), BuildingBlock: OJICUG_clean_linker_0, # of connection points: 2
#     Edge 91, Type (0, 1), BuildingBlock: OJICUG_clean_linker_0, # of connection points: 2
#     Edge 92, Type (0, 1), BuildingBlock: OJICUG_clean_linker_0, # of connection points: 2
#     Edge 93, Type (0, 1), BuildingBlock: OJICUG_clean_linker_0, # of connection points: 2
#     Edge 94, Type (0, 1), BuildingBlock: OJICUG_clean_linker_0, # of connection points: 2
#     Edge 95, Type (0, 1), BuildingBlock: OJICUG_clean_linker_0, # of connection points: 2
#     Edge 96, Type (0, 1), BuildingBlock: OJICUG_clean_linker_0, # of connection points: 2
#     Edge 97, Type (0, 1), BuildingBlock: OJICUG_clean_linker_0, # of connection points: 2
#     Edge 98, Type (0, 1), BuildingBlock: OJICUG_clean_linker_0, # of connection points: 2
#     Edge 99, Type (0, 1), BuildingBlock: OJICUG_clean_linker_0, # of connection points: 2
#     Edge 100, Type (0, 1), BuildingBlock: OJICUG_clean_linker_0, # of connection points: 2
#     Edge 101, Type (0, 1), BuildingBlock: OJICUG_clean_linker_0, # of connection points: 2
#     Edge 102, Type (0, 1), BuildingBlock: OJICUG_clean_linker_0, # of connection points: 2
#     Edge 103, Type (0, 1), BuildingBlock: OJICUG_clean_linker_0, # of connection points: 2
#     Edge 104, Type (0, 1), BuildingBlock: OJICUG_clean_linker_0, # of connection points: 2
#     Edge 105, Type (0, 1), BuildingBlock: OJICUG_clean_linker_0, # of connection points: 2
#     Edge 106, Type (0, 1), BuildingBlock: OJICUG_clean_linker_0, # of connection points: 2
#     Edge 107, Type (0, 1), BuildingBlock: OJICUG_clean_linker_0, # of connection points: 2
#     Edge 108, Type (0, 1), BuildingBlock: OJICUG_clean_linker_0, # of connection points: 2
#     Edge 109, Type (0, 1), BuildingBlock: OJICUG_clean_linker_0, # of connection points: 2
#     Edge 110, Type (0, 1), BuildingBlock: OJICUG_clean_linker_0, # of connection points: 2
#     Edge 111, Type (0, 1), BuildingBlock: OJICUG_clean_linker_0, # of connection points: 2
#     Edge 112, Type (0, 1), BuildingBlock: OJICUG_clean_linker_0, # of connection points: 2
#     Edge 113, Type (0, 1), BuildingBlock: OJICUG_clean_linker_0, # of connection points: 2
#     Edge 114, Type (0, 1), BuildingBlock: OJICUG_clean_linker_0, # of connection points: 2
#     Edge 115, Type (0, 1), BuildingBlock: OJICUG_clean_linker_0, # of connection points: 2
#     Edge 116, Type (0, 1), BuildingBlock: OJICUG_clean_linker_0, # of connection points: 2
#     Edge 117, Type (0, 1), BuildingBlock: OJICUG_clean_linker_0, # of connection points: 2
#     Edge 118, Type (0, 1), BuildingBlock: OJICUG_clean_linker_0, # of connection points: 2
#     Edge 119, Type (0, 1), BuildingBlock: OJICUG_clean_linker_0, # of connection points: 2
#     Edge 120, Type (0, 1), BuildingBlock: OJICUG_clean_linker_0, # of connection points: 2
#     Edge 121, Type (0, 1), BuildingBlock: OJICUG_clean_linker_0, # of connection points: 2
#     Edge 122, Type (0, 1), BuildingBlock: OJICUG_clean_linker_0, # of connection points: 2
#     Edge 123, Type (0, 1), BuildingBlock: OJICUG_clean_linker_0, # of connection points: 2
#     Edge 124, Type (0, 1), BuildingBlock: OJICUG_clean_linker_0, # of connection points: 2
#     Edge 125, Type (0, 1), BuildingBlock: OJICUG_clean_linker_0, # of connection points: 2
#     Edge 126, Type (0, 1), BuildingBlock: OJICUG_clean_linker_0, # of connection points: 2
#     Edge 127, Type (0, 1), BuildingBlock: OJICUG_clean_linker_0, # of connection points: 2
#     Edge 128, Type (0, 1), BuildingBlock: OJICUG_clean_linker_0, # of connection points: 2
#     Edge 129, Type (0, 1), BuildingBlock: OJICUG_clean_linker_0, # of connection points: 2
#     Edge 130, Type (0, 1), BuildingBlock: OJICUG_clean_linker_0, # of connection points: 2
#     Edge 131, Type (0, 1), BuildingBlock: OJICUG_clean_linker_0, # of connection points: 2
#     Edge 132, Type (0, 1), BuildingBlock: OJICUG_clean_linker_0, # of connection points: 2
#     Edge 133, Type (0, 1), BuildingBlock: OJICUG_clean_linker_0, # of connection points: 2
#     Edge 134, Type (0, 1), BuildingBlock: OJICUG_clean_linker_0, # of connection points: 2
#     Edge 135, Type (0, 1), BuildingBlock: OJICUG_clean_linker_0, # of connection points: 2
# Relax obj value: 0.253
# Max RMSD: 0.351
# Mean RMSD: 0.169
data_MOF--net-gar--node1-QUQFOY_clean_sbu_3--node2-BETGAK_clean_sbu_0--edge1-OJICUG_clean_linker_0
_symmetry_space_group_name_H-M    P1
_symmetry_Int_Tables_number       1
_symmetry_cell_setting            triclinic
loop_
_symmetry_equiv_pos_as_xyz
'x, y, z'
_cell_length_a     48.576591
_cell_length_b     43.592279
_cell_length_c     43.230836
_cell_angle_alpha  100.63623
_cell_angle_beta   95.920627
_cell_angle_gamma 103.22362
loop_
_atom_site_label
_atom_site_type_symbol
_atom_site_fract_x
_atom_site_fract_y
_atom_site_fract_z
_atom_type_partial_charge
C0 C 0.09924 0.35799 0.32506 0.0
O1 O 0.11359 0.37671 0.30986 0.0
Cd2 Cd 0.15932 0.41134 0.33031 0.0
O3 O 0.10956 0.35538 0.35256 0.0
Cd4 Cd 0.15343 0.37232 0.39236 0.0
C5 C 0.14378 0.44919 0.40116 0.0
O6 O 0.17852 0.37169 0.3492 0.0
O7 O 0.20663 0.38484 0.39386 0.0
O8 O 0.13752 0.31749 0.40088 0.0
C9 C 0.20375 0.37972 0.36368 0.0
O10 O 0.14794 0.45065 0.37279 0.0
C11 C 0.14249 0.32521 0.4311 0.0
O12 O 0.14519 0.42446 0.41239 0.0
O13 O 0.15339 0.35493 0.44354 0.0
C14 C 0.96744 0.74167 0.72425 0.0
O15 O 0.97776 0.72128 0.73617 0.0
Cd16 Cd 0.02269 0.70634 0.73223 0.0
O17 O 0.97973 0.75695 0.70482 0.0
Cd18 Cd 0.02232 0.76188 0.67918 0.0
C19 C 0.0183 0.67822 0.65339 0.0
O20 O 0.04858 0.756 0.72477 0.0
O21 O 0.06681 0.80035 0.71207 0.0
O22 O 1.01064 0.80509 0.65516 0.0
C23 C 0.06832 0.78147 0.73081 0.0
O24 O 0.01981 0.67167 0.68092 0.0
C25 C 0.0268 0.80221 0.63393 0.0
O26 O 0.01857 0.70662 0.64949 0.0
O27 O 0.03963 0.77976 0.63311 0.0
C28 C 0.60406 0.86615 0.8212 0.0
O29 O 0.62064 0.88701 0.81 0.0
Cd30 Cd 0.66651 0.91846 0.8364 0.0
O31 O 0.61153 0.85985 0.84804 0.0
Cd32 Cd 0.65192 0.87311 0.89176 0.0
C33 C 0.64647 0.95198 0.90571 0.0
O34 O 0.68266 0.87534 0.85266 0.0
O35 O 0.70433 0.87965 0.8998 0.0
O36 O 0.63293 0.81798 0.89888 0.0
C37 C 0.70585 0.87895 0.87058 0.0
O38 O 0.6536 0.95609 0.87896 0.0
C39 C 0.63639 0.82564 0.92913 0.0
O40 O 0.64523 0.92543 0.91442 0.0
O41 O 0.64717 0.85528 0.9419 0.0
C42 C 0.45854 0.23551 0.21668 0.0
O43 O 0.47243 0.22022 0.23213 0.0
Cd44 Cd 0.5217 0.21908 0.23226 0.0
O45 O 0.46966 0.25101 0.19677 0.0
Cd46 Cd 0.514 0.26257 0.17389 0.0
C47 C 0.5188 0.183 0.15487 0.0
O48 O 0.53957 0.2727 0.2264 0.0
O49 O 0.56544 0.28587 0.19123 0.0
O50 O 0.50892 0.31369 0.16101 0.0
C51 C 0.56404 0.28394 0.21988 0.0
O52 O 0.52413 0.18167 0.18397 0.0
C53 C 0.51327 0.30646 0.13235 0.0
O54 O 0.51355 0.20804 0.14685 0.0
O55 O 0.51567 0.27802 0.12247 0.0
C56 C 0.09688 0.83943 0.1921 0.0
O57 O 0.11428 0.82749 0.207 0.0
Cd58 Cd 0.15847 0.81919 0.19295 0.0
O59 O 0.10276 0.84959 0.16698 0.0
Cd60 Cd 0.14363 0.85516 0.13367 0.0
C61 C 0.13384 0.77099 0.11699 0.0
O62 O 0.18228 0.86733 0.17938 0.0
O63 O 0.1962 0.85169 0.13525 0.0
O64 O 0.14443 0.91328 0.13062 0.0
C65 C 0.20264 0.86124 0.16534 0.0
O66 O 0.14569 0.7753 0.1457 0.0
C67 C 0.13326 0.90832 0.10165 0.0
O68 O 0.1282 0.79471 0.10597 0.0
O69 O 0.128 0.87911 0.08648 0.0
C70 C 0.4701 0.78699 0.37609 0.0
O71 O 0.48813 0.80406 0.3629 0.0
Cd72 Cd 0.53903 0.81829 0.37491 0.0
O73 O 0.47855 0.77511 0.39949 0.0
Cd74 Cd 0.52942 0.77882 0.4313 0.0
C75 C 0.54707 0.86385 0.45069 0.0
O76 O 0.55387 0.77202 0.38377 0.0
O77 O 0.58136 0.79133 0.42856 0.0
O78 O 0.51758 0.72042 0.43807 0.0
C79 C 0.57906 0.78047 0.39888 0.0
O80 O 0.55172 0.86181 0.42204 0.0
C81 C 0.53104 0.72572 0.46616 0.0
O82 O 0.53651 0.83831 0.46078 0.0
O83 O 0.54135 0.7554 0.47925 0.0
C84 C 0.59695 0.33893 0.69022 0.0
O85 O 0.61402 0.3264 0.70484 0.0
Cd86 Cd 0.65795 0.31771 0.69021 0.0
O87 O 0.60308 0.3494 0.66533 0.0
Cd88 Cd 0.644 0.35491 0.63215 0.0
C89 C 0.63318 0.27062 0.61387 0.0
O90 O 0.68241 0.36652 0.67814 0.0
O91 O 0.69674 0.35175 0.63406 0.0
O92 O 0.64468 0.41309 0.6295 0.0
C93 C 0.70297 0.36095 0.6642 0.0
O94 O 0.64494 0.27423 0.64251 0.0
C95 C 0.63366 0.40826 0.6005 0.0
O96 O 0.628 0.29482 0.60344 0.0
O97 O 0.6286 0.37914 0.58516 0.0
C98 C 0.97055 0.2882 0.87649 0.0
O99 O 0.98869 0.30586 0.86391 0.0
Cd100 Cd 0.03962 0.31971 0.87611 0.0
O101 O 0.97886 0.27568 0.89946 0.0
Cd102 Cd 0.02973 0.27915 0.93143 0.0
C103 C 0.04842 0.36426 0.95229 0.0
O104 O 0.05425 0.27291 0.88386 0.0
O105 O 0.08178 0.29127 0.92868 0.0
O106 O 0.01795 0.22052 0.93793 0.0
C107 C 0.07948 0.28098 0.89895 0.0
O108 O 0.05298 0.36268 0.92365 0.0
C109 C 0.03136 0.22571 0.96603 0.0
O110 O 0.03751 0.33851 0.96186 0.0
O111 O 0.04161 0.25536 0.97922 0.0
C112 C 0.5092 0.09016 0.36841 0.0
O113 O 0.52051 0.07995 0.34472 0.0
Cd114 Cd 0.49741 0.05658 0.29177 0.0
O115 O 0.48295 0.09091 0.36539 0.0
Cd116 Cd 0.44376 0.07923 0.31951 0.0
C117 C 0.4412 1.00081 0.3087 0.0
O118 O 0.47136 0.093 0.27889 0.0
O119 O 0.43005 0.061 0.26113 0.0
O120 O 0.42387 0.12562 0.33405 0.0
C121 C 0.45334 0.07685 0.25493 0.0
O122 O 0.46274 1.00636 0.29409 0.0
C123 C 0.39838 0.10836 0.33097 0.0
O124 O 0.43188 0.02368 0.3229 0.0
O125 O 0.39482 0.078 0.32512 0.0
C126 C 0.33613 0.16314 0.52485 0.0
O127 O 0.31669 0.14799 0.53792 0.0
Cd128 Cd 0.27077 0.15702 0.54106 0.0
O129 O 0.33166 0.1854 0.51086 0.0
Cd130 Cd 0.29051 0.21164 0.50042 0.0
C131 C 0.29465 0.23634 0.58234 0.0
O132 O 0.25276 0.16049 0.48905 0.0
O133 O 0.23683 0.20207 0.50173 0.0
O134 O 0.30995 0.21452 0.44889 0.0
C135 C 0.2312 0.1716 0.4927 0.0
O136 O 0.28055 0.20746 0.58075 0.0
C137 C 0.30436 0.2407 0.44487 0.0
O138 O 0.30362 0.24506 0.55761 0.0
O139 O 0.29217 0.25399 0.46638 0.0
C140 C 0.1639 0.0592 0.86253 0.0
O141 O 0.1609 0.08209 0.84927 0.0
Cd142 Cd 0.18712 0.07769 0.80288 0.0
O143 O 0.17833 0.04034 0.84783 0.0
Cd144 Cd 0.2064 0.04061 0.78871 0.0
C145 C 0.23871 0.13092 0.79587 0.0
O146 O 0.16022 0.04933 0.75026 0.0
O147 O 0.19295 0.03586 0.72607 0.0
O148 O 0.2112 0.97692 0.78235 0.0
C149 C 0.16907 0.04332 0.72345 0.0
O150 O 0.21308 0.13123 0.7987 0.0
C151 C 0.23821 0.98012 0.7836 0.0
O152 O 0.24472 0.10299 0.79424 0.0
O153 O 0.25102 1.00997 0.78694 0.0
C154 C 0.39896 1.01641 0.97765 0.0
O155 O 0.38675 0.0346 0.96461 0.0
Cd156 Cd 0.33581 0.02063 0.96449 0.0
O157 O 0.38525 0.99734 0.99281 0.0
Cd158 Cd 0.34263 0.9756 1.01263 0.0
C159 C 0.32646 0.93869 0.93679 0.0
O160 O 0.32663 0.0243 0.01954 0.0
O161 O 0.29563 0.98045 0.02194 0.0
O162 O 0.37293 0.98006 0.06274 0.0
C163 C 0.3021 1.01092 0.02517 0.0
O164 O 0.32692 0.96631 0.93079 0.0
C165 C 0.36539 0.94982 0.06104 0.0
O166 O 0.32988 0.93513 0.9652 0.0
O167 O 0.34576 0.93294 0.0387 0.0
C168 C 0.43003 0.47045 0.0551 0.0
O169 O 0.41416 0.48201 0.03776 0.0
Cd170 Cd 0.36357 0.46755 0.02553 0.0
O171 O 0.41918 0.44725 0.06827 0.0
Cd172 Cd 0.36711 0.41288 0.06657 0.0
C173 C 0.35629 0.39061 0.98305 0.0
O174 O 0.34553 0.45897 0.07293 0.0
O175 O 0.31568 0.41294 0.05564 0.0
O176 O 0.37663 0.40962 0.12469 0.0
C177 C 0.31967 0.44304 0.06565 0.0
O178 O 0.3526 0.41874 0.98422 0.0
C179 C 0.36137 0.38103 0.12162 0.0
O180 O 0.36406 0.38175 1.00864 0.0
O181 O 0.35094 0.36626 0.09311 0.0
C182 C 0.84618 0.09771 0.05086 0.0
O183 O 0.83516 0.08758 0.07358 0.0
Cd184 Cd 0.79844 0.10703 0.09678 0.0
O185 O 0.83893 0.12059 0.04041 0.0
Cd186 Cd 0.80443 0.15232 0.0543 0.0
C187 C 0.82546 0.18743 0.12795 0.0
O188 O 0.76331 0.10867 0.05483 0.0
O189 O 0.76243 0.15602 0.08003 0.0
O190 O 0.79113 0.15562 0.99907 0.0
C191 C 0.74904 0.12718 0.06744 0.0
O192 O 0.81245 0.16005 0.13224 0.0
C193 C 0.7959 0.18614 1.00545 0.0
O194 O 0.83157 0.19048 0.1007 0.0
O195 O 0.80549 0.20051 0.03409 0.0
C196 C 0.16691 0.58179 0.27436 0.0
O197 O 0.15091 0.58407 0.25018 0.0
Cd198 Cd 0.15817 0.5712 0.19685 0.0
O199 O 0.18793 0.56906 0.27143 0.0
Cd200 Cd 0.21117 0.54542 0.22832 0.0
C201 C 0.22457 0.62245 0.21795 0.0
O202 O 0.16838 0.51974 0.1927 0.0
O203 O 0.20511 0.52731 0.16921 0.0
O204 O 0.2259 0.50705 0.25712 0.0
C205 C 0.17814 0.51701 0.16672 0.0
O206 O 0.20021 0.61666 0.20083 0.0
C207 C 0.25228 0.51734 0.25516 0.0
O208 O 0.23207 0.60111 0.23077 0.0
O209 O 0.25876 0.53915 0.2394 0.0
C210 C 0.92744 0.97168 0.55567 0.0
O211 O 0.91204 0.9834 0.53794 0.0
Cd212 Cd 0.86145 0.96966 0.52498 0.0
O213 O 0.91603 0.94877 0.56893 0.0
Cd214 Cd 0.86348 0.91499 0.56711 0.0
C215 C 0.85381 0.89207 0.4836 0.0
O216 O 0.8428 0.96194 0.57229 0.0
O217 O 0.81215 0.91634 0.55655 0.0
O218 O 0.87442 0.91045 0.62489 0.0
C219 C 0.81673 0.94666 0.5653 0.0
O220 O 0.85063 0.92034 0.48426 0.0
C221 C 0.85742 0.88284 0.62212 0.0
O222 O 0.86084 0.88332 0.50951 0.0
O223 O 0.84512 0.86912 0.59393 0.0
C224 C 1.00435 0.07933 0.34136 0.0
O225 O 1.0108 0.06067 0.31878 0.0
Cd226 Cd 0.9793 0.06062 0.27147 0.0
O227 O 0.98614 0.09528 0.33264 0.0
Cd228 Cd 0.95643 0.09355 0.2688 0.0
C229 C 0.92482 1.00476 0.26465 0.0
O230 O 1.0021 0.0916 0.2345 0.0
O231 O 0.96254 0.079 0.2047 0.0
O232 O 0.95132 0.15736 0.28123 0.0
C233 C 0.98968 0.0848 0.20565 0.0
O234 O 0.94967 1.0043 0.25832 0.0
C235 C 0.92431 0.15382 0.27439 0.0
O236 O 0.9196 0.03311 0.27019 0.0
O237 O 0.91168 0.12378 0.265 0.0
C238 C 0.34496 0.59638 0.55244 0.0
O239 O 0.33444 0.58662 0.57559 0.0
Cd240 Cd 0.29738 0.60569 0.59861 0.0
O241 O 0.33704 0.61865 0.54152 0.0
Cd242 Cd 0.30212 0.64981 0.5553 0.0
C243 C 0.32351 0.68625 0.62855 0.0
O244 O 0.2615 0.60584 0.55669 0.0
O245 O 0.26011 0.65324 0.58115 0.0
O246 O 0.28862 0.65262 0.49984 0.0
C247 C 0.24698 0.62421 0.56901 0.0
O248 O 0.31071 0.65907 0.63347 0.0
C249 C 0.2931 0.68312 0.50607 0.0
O250 O 0.32946 0.68868 0.60111 0.0
O251 O 0.30249 0.69765 0.5347 0.0
C252 C 0.50536 0.58005 0.84099 0.0
O253 O 0.51157 0.56113 0.81843 0.0
Cd254 Cd 0.48 0.56102 0.77116 0.0
O255 O 0.48723 0.59609 0.83229 0.0
Cd256 Cd 0.45731 0.59408 0.76849 0.0
C257 C 0.42547 0.50526 0.76432 0.0
O258 O 0.50285 0.59192 0.73417 0.0
O259 O 0.46324 0.57944 0.70443 0.0
O260 O 0.4526 0.65799 0.78059 0.0
C261 C 0.49036 0.58516 0.70535 0.0
O262 O 0.4503 0.50473 0.75796 0.0
C263 C 0.42561 0.65462 0.77383 0.0
O264 O 0.42033 0.53365 0.76991 0.0
O265 O 0.4128 0.62461 0.76469 0.0
C266 C 0.66062 0.08812 0.77585 0.0
O267 O 0.64734 0.09471 0.75206 0.0
Cd268 Cd 0.65202 0.08004 0.69752 0.0
O269 O 0.67918 0.0718 0.77268 0.0
Cd270 Cd 0.70263 0.05182 0.72875 0.0
C271 C 0.71779 0.12879 0.71745 0.0
O272 O 0.66038 0.02738 0.6922 0.0
O273 O 0.69822 0.03254 0.67034 0.0
O274 O 0.71944 1.0128 0.75408 0.0
C275 C 0.67116 0.02296 0.66697 0.0
O276 O 0.69446 0.12369 0.69866 0.0
C277 C 0.74557 0.02556 0.75284 0.0
O278 O 0.72338 0.10728 0.73134 0.0
O279 O 0.75095 0.04944 0.73956 0.0
C280 C 0.84251 0.66562 0.02249 0.0
O281 O 0.8247 0.65118 0.03785 0.0
Cd282 Cd 0.7773 0.65627 0.04153 0.0
O283 O 0.83633 0.68634 1.00735 0.0
Cd284 Cd 0.79426 0.71198 1.00133 0.0
C285 C 0.79722 0.73448 0.08392 0.0
O286 O 0.75629 0.66138 0.99119 0.0
O287 O 0.74119 0.70352 1.00546 0.0
O288 O 0.79414 0.71626 0.94355 0.0
C289 C 0.73513 0.673 0.99612 0.0
O290 O 0.78439 0.70517 0.08232 0.0
C291 C 0.80574 0.74631 0.9487 0.0
O292 O 0.80554 0.74382 0.05918 0.0
O293 O 0.8113 0.76088 0.97782 0.0
C294 C 0.01815 0.5863 0.87065 0.0
O295 O 0.02941 0.57497 0.84735 0.0
Cd296 Cd 1.00655 0.55127 0.79415 0.0
O297 O 0.99216 0.5878 0.86715 0.0
Cd298 Cd 0.95352 0.57517 0.82146 0.0
C299 C 0.94995 0.49687 0.81134 0.0
O300 O 0.98077 0.58757 0.78006 0.0
O301 O 0.93847 0.55717 0.76362 0.0
O302 O 0.93463 0.62179 0.83553 0.0
C303 C 0.96179 0.57205 0.75666 0.0
O304 O 0.97119 0.50164 0.7962 0.0
C305 C 0.90904 0.60502 0.83314 0.0
O306 O 0.94146 0.52023 0.82587 0.0
O307 O 0.90497 0.57461 0.82796 0.0
C308 C 0.8969 0.51661 0.4732 0.0
O309 O 0.88316 0.53411 0.46109 0.0
Cd310 Cd 0.83289 0.5185 0.46444 0.0
O311 O 0.88502 0.4975 0.48952 0.0
Cd312 Cd 0.84443 0.4751 0.5128 0.0
C313 C 0.82423 0.43634 0.43784 0.0
O314 O 0.8272 0.52302 0.52053 0.0
O315 O 0.79785 0.47897 0.52522 0.0
O316 O 0.87643 0.48064 0.56222 0.0
C317 C 0.80349 0.50935 0.52786 0.0
O318 O 0.82372 0.46367 0.43162 0.0
C319 C 0.86988 0.45038 0.56058 0.0
O320 O 0.8295 0.43342 0.46626 0.0
O321 O 0.85033 0.43293 0.53845 0.0
C322 C 0.66329 0.55885 0.36207 0.0
O323 O 0.66032 0.58174 0.3488 0.0
Cd324 Cd 0.68663 0.57725 0.30255 0.0
O325 O 0.6777 0.53996 0.34741 0.0
Cd326 Cd 0.70578 0.54019 0.28844 0.0
C327 C 0.7383 0.63048 0.29596 0.0
O328 O 0.65979 0.54909 0.24992 0.0
O329 O 0.6928 0.53612 0.22591 0.0
O330 O 0.70994 0.47625 0.28161 0.0
C331 C 0.66887 0.54346 0.2232 0.0
O332 O 0.71262 0.63077 0.29853 0.0
C333 C 0.73695 0.4792 0.28325 0.0
O334 O 0.7443 0.60255 0.29438 0.0
O335 O 0.75003 0.50902 0.287 0.0
La336 La 0.05924 0.0464 0.01631 0.0
La337 La 0.09975 0.08683 0.05447 0.0
C338 C 1.01048 1.01663 0.98537 0.0
C339 C 0.98338 0.02396 0.99135 0.0
C340 C 0.95895 1.01331 0.96806 0.0
C341 C 0.93403 0.02294 0.97399 0.0
C342 C 0.93368 0.04314 1.00319 0.0
C343 C 0.95807 0.05355 0.02635 0.0
C344 C 0.98275 0.04414 0.02042 0.0
C345 C 0.10516 0.05232 0.98291 0.0
C346 C 0.06177 0.12 0.01895 0.0
C347 C 0.14904 0.1166 0.08387 0.0
C348 C 0.17593 0.1103 0.07541 0.0
C349 C 0.19941 0.11446 0.09893 0.0
C350 C 0.22247 0.10176 0.09133 0.0
C351 C 0.2218 0.08446 0.06032 0.0
C352 C 0.19902 0.08189 0.03657 0.0
C353 C 0.17631 0.09478 0.04402 0.0
C354 C 0.05379 0.08202 0.08815 0.0
C355 C 0.0979 1.01318 0.05115 0.0
O356 O 0.02811 0.03923 0.97623 0.0
O357 O 0.02329 1.00682 1.00816 0.0
O358 O 0.08723 0.02604 0.98479 0.0
O359 O 0.09788 0.07481 1.00172 0.0
O360 O 0.04456 0.09097 0.0149 0.0
O361 O 0.08804 0.12435 0.03272 0.0
O362 O 0.13251 0.0928 0.09262 0.0
O363 O 0.13477 0.12758 0.06316 0.0
O364 O 0.07326 0.10754 0.08745 0.0
O365 O 0.06037 0.05913 0.06895 0.0
O366 O 0.11477 0.04244 0.05556 0.0
O367 O 0.07159 1.00852 0.03723 0.0
H368 H 0.9593 0.99805 0.94536 0.0
H369 H 0.9152 1.01479 0.95595 0.0
H370 H 0.95806 0.06924 0.04894 0.0
H371 H 1.00157 0.05299 0.03843 0.0
H372 H 0.19922 0.12595 0.12333 0.0
H373 H 0.23991 0.10374 0.10995 0.0
H374 H 0.19822 0.06868 1.01251 0.0
H375 H 0.15826 0.09098 0.02557 0.0
La376 La 0.34596 0.80442 0.24673 0.0
La377 La 0.31734 0.82062 0.29842 0.0
C378 C 0.37266 0.80433 0.1998 0.0
C379 C 0.38168 0.83023 0.18311 0.0
C380 C 0.40264 0.82936 0.16327 0.0
C381 C 0.40985 0.85372 0.14635 0.0
C382 C 0.39648 0.87931 0.14974 0.0
C383 C 0.37675 0.88089 0.17108 0.0
C384 C 0.36912 0.85634 0.18726 0.0
C385 C 0.36559 0.78541 0.29858 0.0
C386 C 0.36561 0.87441 0.28837 0.0
C387 C 0.29317 0.82129 0.34738 0.0
C388 C 0.28699 0.79792 0.36758 0.0
C389 C 0.27149 0.80356 0.39265 0.0
C390 C 0.26803 0.78274 0.41374 0.0
C391 C 0.28003 0.75606 0.40987 0.0
C392 C 0.29453 0.74984 0.38386 0.0
C393 C 0.29807 0.77069 0.36295 0.0
C394 C 0.29785 0.84188 0.24834 0.0
C395 C 0.2975 0.75103 0.25406 0.0
O396 O 0.38514 0.81016 0.22918 0.0
O397 O 0.34502 0.79304 0.19726 0.0
O398 O 0.36086 0.76875 0.26965 0.0
O399 O 0.35875 0.81149 0.29751 0.0
O400 O 0.36092 0.85669 0.25938 0.0
O401 O 0.3524 0.86364 0.31071 0.0
O402 O 0.27935 0.81223 0.31838 0.0
O403 O 0.32033 0.83398 0.34798 0.0
O404 O 0.30224 0.85686 0.27782 0.0
O405 O 0.30444 0.81517 0.24752 0.0
O406 O 0.30225 0.76766 0.28374 0.0
O407 O 0.3104 0.76303 0.2323 0.0
H408 H 0.41263 0.80941 0.16007 0.0
H409 H 0.42484 0.8519 0.12962 0.0
H410 H 0.36551 0.89981 0.17341 0.0
H411 H 0.35247 0.85713 0.20194 0.0
H412 H 0.2628 0.82451 0.39643 0.0
H413 H 0.25659 0.78792 0.4335 0.0
H414 H 0.3044 0.72979 0.38058 0.0
H415 H 0.31042 0.76622 0.34391 0.0
La416 La 0.61743 0.07045 0.5199 0.0
La417 La 0.55669 0.06526 0.5357 0.0
C418 C 0.66804 0.06626 0.51541 0.0
C419 C 0.68792 0.04675 0.52292 0.0
C420 C 0.71557 0.05488 0.51518 0.0
C421 C 0.73567 0.03823 0.52336 0.0
C422 C 0.7286 1.013 0.53957 0.0
C423 C 0.7006 1.00452 0.54693 0.0
C424 C 0.68043 0.02135 0.53876 0.0
C425 C 0.58188 0.08516 0.47818 0.0
C426 C 0.57267 1.00079 0.50855 0.0
C427 C 0.50641 0.07017 0.54046 0.0
C428 C 0.4873 0.09202 0.53767 0.0
C429 C 0.47904 0.10758 0.56528 0.0
C430 C 0.45724 0.12353 0.56318 0.0
C431 C 0.44292 0.12412 0.53337 0.0
C432 C 0.45232 0.11026 0.50569 0.0
C433 C 0.47421 0.09424 0.50779 0.0
C434 C 0.59243 0.05047 0.57695 0.0
C435 C 0.60235 0.13448 0.55007 0.0
O436 O 0.64627 0.05266 0.49275 0.0
O437 O 0.66082 0.08367 0.53971 0.0
O438 O 0.60929 0.09733 0.48332 0.0
O439 O 0.57587 0.06338 0.49358 0.0
O440 O 0.59982 1.01793 0.51453 0.0
O441 O 0.55128 1.01485 0.51181 0.0
O442 O 0.52727 0.07882 0.56457 0.0
O443 O 0.51406 0.05634 0.51437 0.0
O444 O 0.56509 0.03776 0.57184 0.0
O445 O 0.59807 0.07224 0.56158 0.0
O446 O 0.57494 0.11819 0.54295 0.0
O447 O 0.62315 0.11965 0.54654 0.0
H448 H 0.72175 0.07441 0.50298 0.0
H449 H 0.75678 0.04506 0.51679 0.0
H450 H 0.69448 0.98535 0.55955 0.0
H451 H 0.65918 1.01481 0.54507 0.0
H452 H 0.48855 0.10619 0.58862 0.0
H453 H 0.45082 0.13439 0.58499 0.0
H454 H 0.44165 0.11011 0.48238 0.0
H455 H 0.47991 0.08237 0.48598 0.0
La456 La 0.30256 0.32765 0.78138 0.0
La457 La 0.36076 0.30995 0.78219 0.0
C458 C 0.25049 0.32588 0.78406 0.0
C459 C 0.22751 0.31516 0.80286 0.0
C460 C 0.22661 0.33368 0.8329 0.0
C461 C 0.20319 0.32576 0.84883 0.0
C462 C 0.17995 0.29911 0.83523 0.0
C463 C 0.18121 0.28007 0.80555 0.0
C464 C 0.20465 0.28807 0.78954 0.0
C465 C 0.34386 0.38016 0.77434 0.0
C466 C 0.34016 0.33319 0.8481 0.0
C467 C 0.41323 0.31317 0.78115 0.0
C468 C 0.43812 0.32517 0.76553 0.0
C469 C 0.46393 0.34303 0.78473 0.0
C470 C 0.48927 0.34957 0.77169 0.0
C471 C 0.4895 0.33825 0.73906 0.0
C472 C 0.46329 0.32216 0.71942 0.0
C473 C 0.43785 0.3156 0.73253 0.0
C474 C 0.31989 0.25713 0.78855 0.0
C475 C 0.32114 0.30127 0.71575 0.0
O476 O 0.27187 0.35025 0.79855 0.0
O477 O 0.25903 0.30375 0.76537 0.0
O478 O 0.31689 0.37815 0.77464 0.0
O479 O 0.34604 0.35204 0.77735 0.0
O480 O 0.31462 0.33017 0.83203 0.0
O481 O 0.36214 0.32881 0.83346 0.0
O482 O 0.39242 0.28942 0.7643 0.0
O483 O 0.40385 0.3343 0.80013 0.0
O484 O 0.3469 0.25931 0.78821 0.0
O485 O 0.31733 0.28526 0.78588 0.0
O486 O 0.34742 0.30553 0.73086 0.0
O487 O 0.29979 0.30613 0.73114 0.0
H488 H 0.24362 0.35496 0.84382 0.0
H489 H 0.2029 0.34134 0.87136 0.0
H490 H 0.16393 0.25912 0.7945 0.0
H491 H 0.20456 0.27346 0.76634 0.0
H492 H 0.46478 0.35066 0.81021 0.0
H493 H 0.50894 0.36256 0.78744 0.0
H494 H 0.46267 0.31301 0.69424 0.0
H495 H 0.41827 0.30176 0.71704 0.0
La496 La 0.08251 0.09768 0.55045 0.0
La497 La 0.08695 0.03361 0.51948 0.0
C498 C 0.08811 0.15791 0.56309 0.0
C499 C 0.09535 0.18237 0.54379 0.0
C500 C 0.09296 0.21389 0.55442 0.0
C501 C 0.10065 0.23726 0.53636 0.0
C502 C 0.11092 0.2295 0.50734 0.0
C503 C 0.11321 0.19775 0.49687 0.0
C504 C 0.10543 0.17447 0.51483 0.0
C505 C 0.0413 0.04959 0.55884 0.0
C506 C 0.05871 0.0713 0.47311 0.0
C507 C 0.07921 0.97308 0.50594 0.0
C508 C 0.07213 0.94777 0.52427 0.0
C509 C 0.07099 0.91569 0.51057 0.0
C510 C 0.06258 0.89126 0.5272 0.0
C511 C 0.05519 0.89851 0.55791 0.0
C512 C 0.05654 0.93086 0.57154 0.0
C513 C 0.0648 0.95519 0.55484 0.0
C514 C 0.12742 0.08095 0.50874 0.0
C515 C 0.11069 0.0597 0.59685 0.0
O516 O 0.0634 0.13675 0.55372 0.0
O517 O 0.10849 0.14416 0.57009 0.0
O518 O 0.05167 0.07656 0.57956 0.0
O519 O 0.05242 0.05192 0.53401 0.0
O520 O 0.06612 0.09595 0.49857 0.0
O521 O 0.06391 0.04317 0.47622 0.0
O522 O 0.10451 0.9933 0.51441 0.0
O523 O 0.05916 0.98794 0.5012 0.0
O524 O 0.1169 0.05318 0.48927 0.0
O525 O 0.11726 0.07994 0.53451 0.0
O526 O 0.10405 0.03556 0.57099 0.0
O527 O 0.1049 0.08774 0.59425 0.0
H528 H 0.08521 0.22044 0.5767 0.0
H529 H 0.09824 0.26131 0.54498 0.0
H530 H 0.12145 0.19094 0.47498 0.0
H531 H 0.1076 0.15032 0.50624 0.0
H532 H 0.07621 0.90946 0.48683 0.0
H533 H 0.06143 0.86662 0.51574 0.0
H534 H 0.05145 0.9375 0.59526 0.0
H535 H 0.06517 0.97977 0.56569 0.0
La536 La 0.35775 0.84059 0.77523 0.0
La537 La 0.30628 0.79456 0.78576 0.0
C538 C 0.40722 0.87652 0.7866 0.0
C539 C 0.43543 0.8702 0.78532 0.0
C540 C 0.44189 0.85208 0.75779 0.0
C541 C 0.46806 0.84387 0.75843 0.0
C542 C 0.48755 0.85304 0.78675 0.0
C543 C 0.48112 0.87132 0.81405 0.0
C544 C 0.45534 0.88 0.81326 0.0
C545 C 0.32937 0.79942 0.72345 0.0
C546 C 0.36328 0.76634 0.78337 0.0
C547 C 0.25652 0.75999 0.7783 0.0
C548 C 0.22946 0.76891 0.78164 0.0
C549 C 0.21239 0.75732 0.80333 0.0
C550 C 0.18663 0.76585 0.80647 0.0
C551 C 0.17755 0.7859 0.78773 0.0
C552 C 0.1954 0.79848 0.76705 0.0
C553 C 0.22105 0.79017 0.76411 0.0
C554 C 0.33492 0.83556 0.83755 0.0
C555 C 0.30064 0.86847 0.77616 0.0
O556 O 0.39041 0.87144 0.75935 0.0
O557 O 0.39386 0.86515 0.80857 0.0
O558 O 0.3438 0.82853 0.72343 0.0
O559 O 0.33331 0.79497 0.75113 0.0
O560 O 0.37638 0.79714 0.78231 0.0
O561 O 0.33485 0.75958 0.7836 0.0
O562 O 0.27441 0.76585 0.80482 0.0
O563 O 0.26915 0.76849 0.75463 0.0
O564 O 0.32219 0.80571 0.83686 0.0
O565 O 0.33047 0.84039 0.81001 0.0
O566 O 0.28769 0.83787 0.778 0.0
O567 O 0.32899 0.87517 0.7756 0.0
H568 H 0.42666 0.8439 0.73601 0.0
H569 H 0.47294 0.83008 0.7371 0.0
H570 H 0.49625 0.87923 0.83594 0.0
H571 H 0.45066 0.89385 0.83472 0.0
H572 H 0.2188 0.74135 0.81751 0.0
H573 H 0.17343 0.75595 0.82277 0.0
H574 H 0.18894 0.81338 0.75166 0.0
H575 H 0.23391 0.79995 0.74747 0.0
La576 La 0.57243 0.04237 0.04533 0.0
La577 La 0.57136 0.0855 1.00258 0.0
C578 C 0.5601 1.00905 0.08608 0.0
C579 C 0.53729 1.00685 0.10576 0.0
C580 C 0.54377 1.00445 0.13738 0.0
C581 C 0.52605 1.01217 0.15934 0.0
C582 C 0.5016 0.02215 0.1498 0.0
C583 C 0.49361 0.0215 0.11758 0.0
C584 C 0.51151 1.01406 0.09563 0.0
C585 C 0.60111 0.02824 0.99871 0.0
C586 C 0.51893 0.03147 0.99252 0.0
C587 C 0.57967 0.12603 0.96778 0.0
C588 C 0.60032 0.1356 0.9471 0.0
C589 C 0.59076 0.14527 0.91977 0.0
C590 C 0.60687 0.1457 0.89504 0.0
C591 C 0.63285 0.13658 0.89752 0.0
C592 C 0.64388 0.13056 0.92654 0.0
C593 C 0.62751 0.12972 0.95115 0.0
C594 C 0.54325 0.09698 0.05126 0.0
C595 C 0.62742 0.09353 0.04801 0.0
O596 O 0.55245 0.99791 0.05542 0.0
O597 O 0.57828 0.03734 0.09256 0.0
O598 O 0.60643 0.02398 0.02723 0.0
O599 O 0.57823 0.03745 0.99561 0.0
O600 O 0.52802 0.03059 0.02211 0.0
O601 O 0.53579 0.04793 0.97631 0.0
O602 O 0.58908 0.1329 0.9983 0.0
O603 O 0.56369 0.09657 0.95801 0.0
O604 O 0.53537 0.0992 0.02264 0.0
O605 O 0.56689 0.08992 0.05223 0.0
O606 O 0.61646 0.09416 0.01914 0.0
O607 O 0.61173 0.07863 0.06647 0.0
H608 H 0.56368 0.9992 0.14562 0.0
H609 H 0.53241 1.01246 0.18419 0.0
H610 H 0.47488 0.02928 0.1099 0.0
H611 H 0.50621 1.01631 0.07137 0.0
H612 H 0.56973 0.14977 0.91642 0.0
H613 H 0.59757 0.15021 0.873 0.0
H614 H 0.66413 0.12419 0.92936 0.0
H615 H 0.63523 0.1223 0.97226 0.0
La616 La 0.35482 0.34213 0.30282 0.0
La617 La 0.30827 0.28796 0.26872 0.0
C618 C 0.38624 0.39815 0.32331 0.0
C619 C 0.37642 0.42808 0.3257 0.0
C620 C 0.35601 0.43369 0.34547 0.0
C621 C 0.33846 0.45374 0.3391 0.0
C622 C 0.34114 0.46868 0.31304 0.0
C623 C 0.36395 0.46629 0.29593 0.0
C624 C 0.38155 0.44633 0.30236 0.0
C625 C 0.33791 0.2986 0.33755 0.0
C626 C 0.29121 0.3492 0.29803 0.0
C627 C 0.27612 0.23199 0.25426 0.0
C628 C 0.28063 0.20527 0.26902 0.0
C629 C 0.28606 0.178 0.25035 0.0
C630 C 0.29956 0.15801 0.26473 0.0
C631 C 0.3079 0.16522 0.29792 0.0
C632 C 0.29989 0.19051 0.31674 0.0
C633 C 0.28622 0.21027 0.30246 0.0
C634 C 0.32523 0.32962 0.23181 0.0
C635 C 0.37156 0.28193 0.27239 0.0
O636 O 0.3767 0.37908 0.34204 0.0
O637 O 0.38413 0.38195 0.29417 0.0
O638 O 0.36431 0.31372 0.33785 0.0
O639 O 0.32216 0.30855 0.31854 0.0
O640 O 0.31859 0.36392 0.30267 0.0
O641 O 0.28172 0.31802 0.2867 0.0
O642 O 0.29575 0.24238 0.23742 0.0
O643 O 0.27013 0.25588 0.27309 0.0
O644 O 0.29947 0.31184 0.22976 0.0
O645 O 0.34081 0.32161 0.25269 0.0
O646 O 0.34502 0.26688 0.27365 0.0
O647 O 0.38028 0.31354 0.27976 0.0
H648 H 0.35177 0.42042 0.36404 0.0
H649 H 0.32161 0.45588 0.35331 0.0
H650 H 0.36672 0.47753 0.27573 0.0
H651 H 0.39722 0.44262 0.28688 0.0
H652 H 0.28215 0.17378 0.22459 0.0
H653 H 0.30568 0.13864 0.24974 0.0
H654 H 0.30587 0.19623 0.34238 0.0
H655 H 0.28226 0.23101 0.31765 0.0
La656 La 0.58375 0.59894 0.05011 0.0
La657 La 0.58887 0.53536 0.01913 0.0
C658 C 0.58821 0.65891 0.06271 0.0
C659 C 0.59402 0.68317 0.04299 0.0
C660 C 0.58918 0.71372 0.05271 0.0
C661 C 0.59526 0.73691 0.03414 0.0
C662 C 0.60631 0.72989 1.0055 0.0
C663 C 0.61095 0.69908 0.99586 0.0
C664 C 0.60482 0.67598 0.01436 0.0
C665 C 0.54284 0.55048 0.05817 0.0
C666 C 0.56034 0.57268 0.97269 0.0
C667 C 0.58159 0.47495 1.0064 0.0
C668 C 0.57139 0.45055 0.02492 0.0
C669 C 0.57686 0.42004 0.01796 0.0
C670 C 0.56607 0.3966 0.03489 0.0
C671 C 0.54929 0.40313 0.05888 0.0
C672 C 0.54402 0.43394 0.06571 0.0
C673 C 0.55522 0.45742 0.04919 0.0
C674 C 0.62966 0.58301 1.00928 0.0
C675 C 0.61145 0.56094 0.0967 0.0
O676 O 0.5637 0.63726 0.05427 0.0
O677 O 0.60922 0.64581 0.06899 0.0
O678 O 0.55309 0.57731 0.0791 0.0
O679 O 0.55397 0.55304 0.03339 0.0
O680 O 0.56748 0.59726 0.99821 0.0
O681 O 0.56583 0.54469 0.97579 0.0
O682 O 0.60649 0.49522 0.01774 0.0
O683 O 0.56256 0.48967 0.99741 0.0
O684 O 0.6196 0.55518 0.9898 0.0
O685 O 0.61901 0.58181 0.03472 0.0
O686 O 0.60454 0.53675 0.07089 0.0
O687 O 0.60614 0.58917 0.094 0.0
H688 H 0.58077 0.71968 0.07468 0.0
H689 H 0.59109 0.76023 0.0421 0.0
H690 H 0.61984 0.69294 0.97427 0.0
H691 H 0.60882 0.65256 1.00645 0.0
H692 H 0.58943 0.41433 0.99942 0.0
H693 H 0.57118 0.37348 0.02935 0.0
H694 H 0.53091 0.43993 0.08355 0.0
H695 H 0.55096 0.48093 0.05514 0.0
La696 La 0.85582 0.3395 0.27712 0.0
La697 La 0.80358 0.2924 0.28487 0.0
C698 C 0.9052 0.37527 0.2914 0.0
C699 C 0.93281 0.36761 0.29084 0.0
C700 C 0.93639 0.34249 0.26729 0.0
C701 C 0.96159 0.33235 0.26963 0.0
C702 C 0.98298 0.34673 0.29593 0.0
C703 C 0.97941 0.37198 0.31924 0.0
C704 C 0.95449 0.38242 0.31665 0.0
C705 C 0.82932 0.29893 0.22425 0.0
C706 C 0.86115 0.2649 0.28449 0.0
C707 C 0.75391 0.25694 0.27343 0.0
C708 C 0.72616 0.26499 0.27306 0.0
C709 C 0.70785 0.25528 0.29445 0.0
C710 C 0.68174 0.26363 0.29446 0.0
C711 C 0.67357 0.28162 0.27288 0.0
C712 C 0.69229 0.29168 0.25192 0.0
C713 C 0.71829 0.28365 0.25212 0.0
C714 C 0.8305 0.33271 0.33775 0.0
C715 C 0.79848 0.36684 0.27603 0.0
O716 O 0.88947 0.37119 0.26363 0.0
O717 O 0.89071 0.36337 0.31234 0.0
O718 O 0.84383 0.32823 0.22502 0.0
O719 O 0.83218 0.29411 0.25188 0.0
O720 O 0.87425 0.29583 0.28388 0.0
O721 O 0.83262 0.25792 0.28417 0.0
O722 O 0.7698 0.26365 0.30144 0.0
O723 O 0.7686 0.26537 0.25115 0.0
O724 O 0.81744 0.30278 0.33645 0.0
O725 O 0.82704 0.33796 0.31027 0.0
O726 O 0.78531 0.33599 0.27696 0.0
O727 O 0.82697 0.3738 0.27658 0.0
H728 H 0.9195 0.33025 0.24753 0.0
H729 H 0.96422 0.31305 0.25134 0.0
H730 H 0.99605 0.3838 0.33937 0.0
H731 H 0.95179 0.40145 0.33522 0.0
H732 H 0.71371 0.24119 0.31105 0.0
H733 H 0.66781 0.25564 0.31098 0.0
H734 H 0.68649 0.30476 0.23433 0.0
H735 H 0.73199 0.29184 0.23548 0.0
La736 La 0.06956 0.54233 0.53769 0.0
La737 La 0.0718 0.5876 0.49664 0.0
C738 C 0.05535 0.50637 0.57578 0.0
C739 C 0.03297 0.50407 0.59589 0.0
C740 C 0.03821 0.49543 0.62511 0.0
C741 C 0.02192 0.50252 0.64885 0.0
C742 C 1.00018 0.51812 0.64339 0.0
C743 C 0.9931 0.52387 0.61313 0.0
C744 C 1.00958 0.51704 0.58945 0.0
C745 C 0.09915 0.52875 0.4917 0.0
C746 C 0.01692 0.5361 0.48528 0.0
C747 C 0.086 0.62822 0.46312 0.0
C748 C 0.10985 0.63464 0.44554 0.0
C749 C 0.11182 0.65817 0.42731 0.0
C750 C 0.12931 0.6582 0.40371 0.0
C751 C 0.14438 0.63423 0.39793 0.0
C752 C 0.14506 0.61341 0.41905 0.0
C753 C 0.12781 0.6136 0.44276 0.0
C754 C 0.04289 0.5995 0.54434 0.0
C755 C 0.12553 0.5926 0.54494 0.0
O756 O 0.04704 0.49759 0.54505 0.0
O757 O 0.07471 0.53382 0.5837 0.0
O758 O 0.10356 0.52367 0.51998 0.0
O759 O 0.07672 0.53874 0.48843 0.0
O760 O 0.02561 0.53323 0.51431 0.0
O761 O 0.03409 0.55339 0.46992 0.0
O762 O 0.09267 0.63468 0.49407 0.0
O763 O 0.06814 0.5999 0.45223 0.0
O764 O 0.03681 0.60421 0.5162 0.0
O765 O 0.06573 0.59062 0.54571 0.0
O766 O 0.11613 0.59404 0.51581 0.0
O767 O 0.10836 0.57761 0.56203 0.0
H768 H 0.05637 0.48573 0.63049 0.0
H769 H 0.02761 0.49802 0.6722 0.0
H770 H 0.97655 0.53619 0.60872 0.0
H771 H 1.00548 0.52428 0.56714 0.0
H772 H 0.0982 0.67472 0.42954 0.0
H773 H 0.12895 0.67493 0.38809 0.0
H774 H 0.15632 0.5946 0.41517 0.0
H775 H 0.12644 0.59527 0.45678 0.0
La776 La 0.80215 0.82713 0.28184 0.0
La777 La 0.86061 0.80989 0.28381 0.0
C778 C 0.74995 0.82503 0.28377 0.0
C779 C 0.72697 0.81442 0.30259 0.0
C780 C 0.72608 0.83303 0.33258 0.0
C781 C 0.70269 0.82512 0.34856 0.0
C782 C 0.67949 0.79838 0.33505 0.0
C783 C 0.68075 0.77927 0.30542 0.0
C784 C 0.70416 0.78726 0.28935 0.0
C785 C 0.84343 0.87967 0.27485 0.0
C786 C 0.83916 0.83341 0.34912 0.0
C787 C 0.91319 0.81339 0.28341 0.0
C788 C 0.93813 0.82531 0.26785 0.0
C789 C 0.96411 0.8424 0.28713 0.0
C790 C 0.98942 0.84886 0.27402 0.0
C791 C 0.98944 0.8382 0.24123 0.0
C792 C 0.96308 0.8229 0.22156 0.0
C793 C 0.93766 0.81643 0.23474 0.0
C794 C 0.81969 0.75696 0.28981 0.0
C795 C 0.82154 0.80049 0.21688 0.0
O796 O 0.77113 0.84969 0.29809 0.0
O797 O 0.75876 0.80279 0.26555 0.0
O798 O 0.81638 0.8775 0.27471 0.0
O799 O 0.84569 0.85169 0.27823 0.0
O800 O 0.81374 0.83013 0.33266 0.0
O801 O 0.86137 0.82904 0.3349 0.0
O802 O 0.89255 0.78942 0.26662 0.0
O803 O 0.90359 0.83461 0.302 0.0
O804 O 0.84678 0.7593 0.28998 0.0
O805 O 0.81711 0.78502 0.28693 0.0
O806 O 0.84776 0.80516 0.23236 0.0
O807 O 0.79994 0.8052 0.23185 0.0
H808 H 0.74307 0.85434 0.34344 0.0
H809 H 0.7024 0.84076 0.37104 0.0
H810 H 0.66351 0.75825 0.29444 0.0
H811 H 0.70408 0.77258 0.2662 0.0
H812 H 0.9651 0.8495 0.31269 0.0
H813 H 1.00921 0.86125 0.28981 0.0
H814 H 0.96229 0.81428 0.19625 0.0
H815 H 0.91794 0.8032 0.21921 0.0
La816 La 0.84697 0.30543 0.74632 0.0
La817 La 0.81826 0.3225 0.79767 0.0
C818 C 0.87407 0.30501 0.69969 0.0
C819 C 0.88337 0.33088 0.68302 0.0
C820 C 0.90495 0.33024 0.66399 0.0
C821 C 0.91268 0.3547 0.6473 0.0
C822 C 0.89917 0.38018 0.65007 0.0
C823 C 0.87873 0.3815 0.67059 0.0
C824 C 0.87066 0.35688 0.6866 0.0
C825 C 0.866 0.28631 0.79846 0.0
C826 C 0.86773 0.37491 0.78808 0.0
C827 C 0.79373 0.32379 0.84641 0.0
C828 C 0.78808 0.30077 0.86703 0.0
C829 C 0.77286 0.30651 0.89235 0.0
C830 C 0.76984 0.28588 0.91366 0.0
C831 C 0.78197 0.25929 0.90971 0.0
C832 C 0.79625 0.25304 0.88353 0.0
C833 C 0.79938 0.2737 0.86245 0.0
C834 C 0.79932 0.34366 0.74722 0.0
C835 C 0.79761 0.25309 0.75349 0.0
O836 O 0.88632 0.31084 0.72915 0.0
O837 O 0.84639 0.29379 0.69691 0.0
O838 O 0.86127 0.26956 0.76955 0.0
O839 O 0.8594 0.31247 0.79717 0.0
O840 O 0.86228 0.35762 0.75888 0.0
O841 O 0.85442 0.36423 0.81038 0.0
O842 O 0.78013 0.31388 0.81735 0.0
O843 O 0.82076 0.33713 0.84707 0.0
O844 O 0.80385 0.35891 0.77662 0.0
O845 O 0.80568 0.31688 0.74671 0.0
O846 O 0.80263 0.26968 0.78318 0.0
O847 O 0.8109 0.26467 0.73176 0.0
H848 H 0.91511 0.31041 0.66128 0.0
H849 H 0.92827 0.35309 0.63127 0.0
H850 H 0.86739 0.40032 0.67247 0.0
H851 H 0.85364 0.35758 0.7008 0.0
H852 H 0.76403 0.32735 0.89611 0.0
H853 H 0.7586 0.29108 0.93358 0.0
H854 H 0.80623 0.23308 0.88021 0.0
H855 H 0.81155 0.26919 0.84325 0.0
La856 La 0.85549 0.8484 0.80416 0.0
La857 La 0.81365 0.78547 0.76892 0.0
C858 C 0.88281 0.90644 0.81493 0.0
C859 C 0.87266 0.9319 0.8032 0.0
C860 C 0.87522 0.96166 0.82384 0.0
C861 C 0.85736 0.98129 0.81673 0.0
C862 C 0.83686 0.97092 0.78914 0.0
C863 C 0.83607 0.9426 0.76738 0.0
C864 C 0.85377 0.92323 0.77441 0.0
C865 C 0.84134 0.81176 0.84667 0.0
C866 C 0.79076 0.83972 0.80334 0.0
C867 C 0.78757 0.72703 0.75104 0.0
C868 C 0.79288 0.7019 0.76748 0.0
C869 C 0.79407 0.67167 0.75054 0.0
C870 C 0.8075 0.65212 0.76591 0.0
C871 C 0.81982 0.66287 0.79822 0.0
C872 C 0.81615 0.6917 0.81553 0.0
C873 C 0.80331 0.71115 0.80012 0.0
C874 C 0.82522 0.82975 0.73305 0.0
C875 C 0.88047 0.79077 0.78096 0.0
O876 O 0.86718 0.89412 0.83464 0.0
O877 O 0.88799 0.88402 0.79329 0.0
O878 O 0.86058 0.83894 0.85271 0.0
O879 O 0.83294 0.80532 0.81694 0.0
O880 O 0.81387 0.85913 0.79777 0.0
O881 O 0.78755 0.80835 0.79803 0.0
O882 O 0.80943 0.74048 0.73863 0.0
O883 O 0.77664 0.74863 0.76717 0.0
O884 O 0.80086 0.80907 0.73096 0.0
O885 O 0.84209 0.82424 0.75446 0.0
O886 O 0.85417 0.77186 0.77552 0.0
O887 O 0.88637 0.82222 0.79173 0.0
H888 H 0.88921 0.96839 0.84651 0.0
H889 H 0.8581 1.00319 0.83375 0.0
H890 H 0.8204 0.93437 0.74592 0.0
H891 H 0.85064 0.90002 0.7587 0.0
H892 H 0.78677 0.66439 0.72512 0.0
H893 H 0.81036 0.63005 0.75195 0.0
H894 H 0.8254 0.70055 0.84041 0.0
H895 H 0.80404 0.7349 0.81304 0.0
La896 La 0.5589 0.54629 0.51598 0.0
La897 La 0.59999 0.5869 0.55398 0.0
C898 C 0.50982 0.51664 0.48577 0.0
C899 C 0.48286 0.52424 0.49198 0.0
C900 C 0.45801 0.51268 0.46932 0.0
C901 C 0.43308 0.52214 0.47557 0.0
C902 C 0.43313 0.5431 0.50445 0.0
C903 C 0.45796 0.55448 0.52695 0.0
C904 C 0.48265 0.54522 0.52072 0.0
C905 C 0.6046 0.55203 0.48232 0.0
C906 C 0.56167 0.62018 0.51897 0.0
C907 C 0.64955 0.61616 0.58288 0.0
C908 C 0.67607 0.60813 0.57523 0.0
C909 C 0.69991 0.61416 0.59878 0.0
C910 C 0.7229 0.60087 0.59222 0.0
C911 C 0.72178 0.5811 0.56227 0.0
C912 C 0.69848 0.57634 0.53845 0.0
C913 C 0.67587 0.58983 0.54483 0.0
C914 C 0.5542 0.58228 0.58781 0.0
C915 C 0.59783 0.51308 0.55053 0.0
O916 O 0.52742 0.53892 0.47617 0.0
O917 O 0.52277 0.50704 0.50864 0.0
O918 O 0.58658 0.52579 0.48415 0.0
O919 O 0.59745 0.57458 0.50119 0.0
O920 O 0.54454 0.59104 0.51447 0.0
O921 O 0.58788 0.62468 0.53303 0.0
O922 O 0.63232 0.59382 0.59284 0.0
O923 O 0.63594 0.62638 0.56097 0.0
O924 O 0.57368 0.6078 0.58706 0.0
O925 O 0.5607 0.55932 0.56864 0.0
O926 O 0.6147 0.54235 0.55506 0.0
O927 O 0.57151 0.50838 0.53661 0.0
H928 H 0.45799 0.49674 0.4469 0.0
H929 H 0.4139 0.51322 0.45804 0.0
H930 H 0.45826 0.57072 0.54931 0.0
H931 H 0.50176 0.55468 0.53827 0.0
H932 H 0.70019 0.62787 0.62247 0.0
H933 H 0.74077 0.60462 0.61088 0.0
H934 H 0.69735 0.56129 0.51516 0.0
H935 H 0.65756 0.58462 0.5264 0.0
La936 La 0.12068 0.5702 0.02746 0.0
La937 La 0.05986 0.56453 0.04241 0.0
C938 C 0.17111 0.56481 0.02471 0.0
C939 C 0.18954 0.54391 0.03347 0.0
C940 C 0.19024 0.51562 1.01213 0.0
C941 C 0.20982 0.49788 0.01931 0.0
C942 C 0.22924 0.50807 0.04791 0.0
C943 C 0.22789 0.53581 0.06964 0.0
C944 C 0.20843 0.55358 0.06243 0.0
C945 C 0.08634 0.58587 0.98549 0.0
C946 C 0.07556 0.50045 0.01389 0.0
C947 C 1.00924 0.56808 0.04749 0.0
C948 C 0.989 0.58842 0.04426 0.0
C949 C 0.96861 0.58832 0.0649 0.0
C950 C 0.94723 0.60454 0.06106 0.0
C951 C 0.94569 0.6216 0.03649 0.0
C952 C 0.96651 0.6221 0.016 0.0
C953 C 0.98799 0.60568 0.01986 0.0
C954 C 0.09582 0.54963 0.08388 0.0
C955 C 0.10479 0.63407 0.05651 0.0
O956 O 0.14993 0.55238 1.0011 0.0
O957 O 0.16381 0.58336 0.04814 0.0
O958 O 0.11383 0.59744 0.99116 0.0
O959 O 0.07947 0.5637 1.00037 0.0
O960 O 0.10274 0.51748 0.02055 0.0
O961 O 0.05428 0.51458 0.01733 0.0
O962 O 0.03041 0.57831 0.07128 0.0
O963 O 0.01701 0.55438 0.02142 0.0
O964 O 0.0686 0.53626 0.07806 0.0
O965 O 0.10108 0.57162 0.0688 0.0
O966 O 0.07749 0.61746 0.0492 0.0
O967 O 0.12584 0.6195 0.05362 0.0
H968 H 0.17622 0.50763 0.98947 0.0
H969 H 0.21045 0.47686 1.00185 0.0
H970 H 0.2422 0.54411 0.0921 0.0
H971 H 0.20864 0.57538 0.07931 0.0
H972 H 0.96872 0.57486 0.08362 0.0
H973 H 0.93134 0.60279 0.07689 0.0
H974 H 0.9662 0.63512 0.99698 0.0
H975 H 1.00349 0.60607 1.00354 0.0
C976 C 0.02153 0.16629 0.96987 0.0
C977 C 0.03716 0.19874 0.98143 0.0
H978 H 0.01632 0.11645 0.97289 0.0
C979 C 0.06001 0.20489 1.00657 0.0
H980 H 1.00388 0.16033 0.95052 0.0
C981 C 0.06758 0.17959 0.01891 0.0
C982 C 0.05219 0.14713 1.00717 0.0
H983 H 0.07279 0.22933 0.0161 0.0
H984 H 0.08579 0.18551 0.0376 0.0
C985 C 0.02868 0.141 0.98279 0.0
C986 C 0.24362 0.83412 0.17356 0.0
C987 C 0.22933 0.85803 0.18416 0.0
H988 H 0.27614 0.80972 0.18533 0.0
C989 C 0.23919 0.87739 0.21489 0.0
H990 H 0.23649 0.81848 0.15017 0.0
C991 C 0.26206 0.87279 0.23463 0.0
C992 C 0.27562 0.84805 0.22485 0.0
H993 H 0.22884 0.89599 0.22397 0.0
H994 H 0.26849 0.88818 0.25822 0.0
C995 C 0.2663 0.82898 0.19377 0.0
C996 C 0.5818 0.91727 0.47341 0.0
C997 C 0.55429 0.897 0.4713 0.0
H998 H 0.60924 0.96513 0.4871 0.0
C999 C 0.53305 0.91081 0.48344 0.0
H1000 H 0.5985 0.90753 0.46377 0.0
C1001 C 0.53899 0.94433 0.49614 0.0
C1002 C 0.56641 0.96477 0.49738 0.0
H1003 H 0.51147 0.89605 0.48147 0.0
H1004 H 0.5219 0.95433 0.5043 0.0
C1005 C 0.58788 0.95046 0.48661 0.0
C1006 C 0.54705 0.34807 0.68483 0.0
C1007 C 0.56968 0.34065 0.70261 0.0
H1008 H 0.50389 0.35319 0.68228 0.0
C1009 C 0.56582 0.33358 0.73258 0.0
H1010 H 0.54925 0.35357 0.66165 0.0
C1011 C 0.54011 0.33346 0.74433 0.0
C1012 C 0.51727 0.34033 0.72652 0.0
H1013 H 0.58265 0.32774 0.74706 0.0
H1014 H 0.5379 0.32709 0.76717 0.0
C1015 C 0.52103 0.3477 0.69659 0.0
C1016 C 0.01801 0.85008 0.61356 0.0
C1017 C 0.03217 0.82527 0.61257 0.0
H1018 H 0.01367 0.89218 0.59669 0.0
C1019 C 0.05297 0.82386 0.59238 0.0
H1020 H 1.00181 0.8518 0.62877 0.0
C1021 C 0.06008 0.84725 0.57433 0.0
C1022 C 0.04647 0.8726 0.57586 0.0
H1023 H 0.0644 0.80515 0.59113 0.0
H1024 H 0.07691 0.84597 0.55992 0.0
C1025 C 0.02502 0.87341 0.59536 0.0
C1026 C 0.56439 0.86329 0.77841 0.0
C1027 C 0.57413 0.85318 0.80567 0.0
H1028 H 0.52827 0.87057 0.7506 0.0
C1029 C 0.55415 0.83543 0.82119 0.0
H1030 H 0.57929 0.87651 0.76559 0.0
C1031 C 0.52506 0.83209 0.81254 0.0
C1032 C 0.5157 0.84608 0.78807 0.0
H1033 H 0.56096 0.82674 0.84188 0.0
H1034 H 0.5101 0.82113 0.82675 0.0
C1035 C 0.53522 0.85973 0.76964 0.0
C1036 C 0.53962 0.13682 0.13538 0.0
C1037 C 0.52105 0.15631 0.12967 0.0
H1038 H 0.56144 0.1024 0.11452 0.0
C1039 C 0.50683 0.15238 0.09872 0.0
H1040 H 0.55071 0.13924 0.15911 0.0
C1041 C 0.51262 0.13109 0.07352 0.0
C1042 C 0.53316 0.11387 0.07873 0.0
H1043 H 0.49205 0.1667 0.09377 0.0
H1044 H 0.5022 0.12959 0.04969 0.0
C1045 C 0.54581 0.11584 0.10996 0.0
C1046 C 0.25615 0.3887 0.361 0.0
C1047 C 0.22775 0.37957 0.3456 0.0
H1048 H 0.29936 0.38697 0.35694 0.0
C1049 C 0.22186 0.36682 0.31257 0.0
H1050 H 0.26126 0.39891 0.38635 0.0
C1051 C 0.24345 0.35972 0.29598 0.0
C1052 C 0.27132 0.36615 0.31197 0.0
H1053 H 0.20019 0.35997 0.29991 0.0
H1054 H 0.23801 0.34719 0.2712 0.0
C1055 C 0.27794 0.38226 0.34412 0.0
C1056 C 0.03511 0.09958 0.17668 0.0
C1057 C 1.00589 0.08309 0.17523 0.0
H1058 H 0.07185 0.11279 0.15269 0.0
C1059 C 0.993 0.06476 0.144 0.0
H1060 H 0.04674 0.11414 0.19931 0.0
C1061 C 1.00817 0.06296 0.11667 0.0
C1062 C 0.03727 0.08008 0.11812 0.0
H1063 H 0.97084 0.05128 0.14052 0.0
H1064 H 0.99656 0.04855 0.094 0.0
C1065 C 0.04991 0.09863 0.14926 0.0
C1066 C 0.29143 0.73468 0.48996 0.0
C1067 C 0.28775 0.70115 0.48141 0.0
H1068 H 0.29175 0.77824 0.47396 0.0
C1069 C 0.27926 0.68533 0.44929 0.0
H1070 H 0.29778 0.74752 0.51457 0.0
C1071 C 0.27559 0.70298 0.426 0.0
C1072 C 0.2802 0.73668 0.43451 0.0
H1073 H 0.276 0.65945 0.44208 0.0
H1074 H 0.2696 0.69038 0.40129 0.0
C1075 C 0.28766 0.75226 0.46675 0.0
C1076 C 0.66239 0.04917 0.62234 0.0
C1077 C 0.65366 0.02362 0.63757 0.0
H1078 H 0.6491 0.07915 0.59314 0.0
C1079 C 0.62524 1.0049 0.63027 0.0
H1080 H 0.68394 0.06463 0.62838 0.0
C1081 C 0.60544 1.01275 0.60932 0.0
C1082 C 0.61373 0.03984 0.59605 0.0
H1083 H 0.61799 0.98551 0.64232 0.0
H1084 H 0.5834 0.99863 0.60476 0.0
C1085 C 0.64241 0.05758 0.60222 0.0
C1086 C 0.32477 0.36397 0.93141 0.0
C1087 C 0.35117 0.36911 0.95076 0.0
H1088 H 0.30049 0.34836 0.88474 0.0
C1089 C 0.37367 0.35986 0.93656 0.0
H1090 H 0.30719 0.37141 0.94146 0.0
C1091 C 0.3701 0.34713 0.90343 0.0
C1092 C 0.34387 0.34323 0.88382 0.0
H1093 H 0.39451 0.36431 0.95067 0.0
H1094 H 0.38817 0.34147 0.89305 0.0
C1095 C 0.32107 0.35097 0.89865 0.0
C1096 C 0.01943 0.10316 0.40422 0.0
C1097 C 0.01734 0.07912 0.37625 0.0
H1098 H 0.03389 0.12049 0.45531 0.0
C1099 C 0.02917 0.05315 0.38155 0.0
H1100 H 1.01108 0.12383 0.40232 0.0
C1101 C 0.04193 0.05095 0.41209 0.0
C1102 C 0.04446 0.07486 0.44002 0.0
H1103 H 0.02846 0.0337 0.36164 0.0
H1104 H 0.05016 0.03012 0.41364 0.0
C1105 C 0.03284 0.10122 0.4351 0.0
C1106 C 0.33806 0.74658 0.64735 0.0
C1107 C 0.32614 0.71576 0.65285 0.0
H1108 H 0.34789 0.79786 0.66522 0.0
C1109 C 0.31335 0.71337 0.68023 0.0
H1110 H 0.34769 0.74918 0.62616 0.0
C1111 C 0.31264 0.74096 0.70172 0.0
C1112 C 0.32512 0.77171 0.69677 0.0
H1113 H 0.30352 0.69013 0.68502 0.0
H1114 H 0.30311 0.73812 0.7229 0.0
C1115 C 0.33765 0.77442 0.66927 0.0
C1116 C 0.65992 0.08629 0.83289 0.0
C1117 C 0.65612 0.10192 0.80785 0.0
H1118 H 0.65524 0.08492 0.88108 0.0
C1119 C 0.64853 0.13142 0.81363 0.0
H1120 H 0.6661 0.06368 0.82897 0.0
C1121 C 0.6434 0.14433 0.84374 0.0
C1122 C 0.64508 0.12752 0.86833 0.0
H1123 H 0.64633 0.1444 0.7948 0.0
H1124 H 0.63703 0.16681 0.84741 0.0
C1125 C 0.65417 0.09881 0.86286 0.0
C1126 C 0.3287 0.34184 0.14662 0.0
C1127 C 0.3537 0.36681 0.14985 0.0
H1128 H 0.30001 0.31137 0.16948 0.0
C1129 C 0.36978 0.37919 0.1806 0.0
H1130 H 0.31553 0.3318 0.12357 0.0
C1131 C 0.36111 0.36685 0.20714 0.0
C1132 C 0.33563 0.34249 0.20389 0.0
H1133 H 0.38907 0.39852 0.18419 0.0
H1134 H 0.374 0.37693 0.23031 0.0
C1135 C 0.31965 0.33023 0.17316 0.0
C1136 C 0.29134 0.06361 0.04623 0.0
C1137 C 0.28193 0.02996 0.03514 0.0
H1138 H 0.27942 0.10746 0.06363 0.0
C1139 C 0.25299 1.01449 0.03368 0.0
H1140 H 0.31362 0.07606 0.0478 0.0
C1141 C 0.23363 0.03241 0.04235 0.0
C1142 C 0.24296 0.066 0.05309 0.0
H1143 H 0.24518 0.9886 0.0253 0.0
H1144 H 0.21127 0.02006 0.04055 0.0
C1145 C 0.27196 0.08152 0.05544 0.0
C1146 C 0.69731 0.62064 0.97815 0.0
C1147 C 0.70692 0.65144 0.99829 0.0
H1148 H 0.66538 0.57559 0.96533 0.0
C1149 C 0.69049 0.66002 0.02192 0.0
H1150 H 0.70948 0.61316 0.95981 0.0
C1151 C 0.66558 0.63792 0.02586 0.0
C1152 C 0.65596 0.60711 1.00562 0.0
H1153 H 0.69745 0.68338 0.03815 0.0
H1154 H 0.65403 0.64496 0.04485 0.0
C1155 C 0.67201 0.59904 0.98142 0.0
C1156 C 0.78247 0.45432 0.28173 0.0
C1157 C 0.75231 0.44995 0.28102 0.0
H1158 H 0.81959 0.43429 0.28073 0.0
C1159 C 0.73759 0.41681 0.27824 0.0
H1160 H 0.79562 0.47849 0.28383 0.0
C1161 C 0.75179 0.39059 0.27648 0.0
C1162 C 0.782 0.39508 0.27712 0.0
H1163 H 0.71462 0.41085 0.27753 0.0
H1164 H 0.73872 0.36642 0.27462 0.0
C1165 C 0.79659 0.42818 0.27983 0.0
C1166 C 0.94343 0.54264 0.45733 0.0
C1167 C 0.92704 0.51841 0.47 0.0
H1168 H 0.98564 0.56686 0.45157 0.0
C1169 C 0.94014 0.49642 0.48186 0.0
H1170 H 0.93378 0.55961 0.44768 0.0
C1171 C 0.96948 0.50051 0.48403 0.0
C1172 C 0.9862 0.52636 0.47401 0.0
H1173 H 0.92801 0.47693 0.49111 0.0
H1174 H 0.9793 0.48463 0.49538 0.0
C1175 C 0.97297 0.54654 0.45923 0.0
C1176 C 0.34658 0.10275 0.31399 0.0
C1177 C 0.37359 0.12245 0.32892 0.0
H1178 H 0.3044 0.10102 0.29212 0.0
C1179 C 0.37741 0.15597 0.33733 0.0
H1180 H 0.34302 0.0768 0.30711 0.0
C1181 C 0.35513 0.16968 0.32915 0.0
C1182 C 0.32888 0.1501 0.31203 0.0
H1183 H 0.39799 0.17171 0.34877 0.0
H1184 H 0.35907 0.19573 0.33435 0.0
C1185 C 0.32449 0.11651 0.30527 0.0
C1186 C 0.38469 0.16432 0.50763 0.0
C1187 C 0.36417 0.1547 0.527 0.0
H1188 H 0.42581 0.16215 0.49426 0.0
C1189 C 0.37029 0.13591 0.54873 0.0
H1190 H 0.38064 0.17875 0.49062 0.0
C1191 C 0.39594 0.12671 0.55095 0.0
C1192 C 0.41637 0.13583 0.53142 0.0
H1193 H 0.35514 0.12806 0.56415 0.0
H1194 H 0.39945 0.11168 0.56756 0.0
C1195 C 0.41048 0.15473 0.50964 0.0
C1196 C 0.74994 0.69143 0.29404 0.0
C1197 C 0.75953 0.6628 0.29443 0.0
H1198 H 0.75975 0.74229 0.29222 0.0
C1199 C 0.789 0.66636 0.29314 0.0
H1200 H 0.72759 0.6906 0.29489 0.0
C1201 C 0.8076 0.69655 0.29174 0.0
C1202 C 0.79803 0.72509 0.2913 0.0
H1203 H 0.79788 0.64576 0.29331 0.0
H1204 H 0.82997 0.69744 0.2909 0.0
C1205 C 0.76855 0.72163 0.29244 0.0
C1206 C 0.93108 0.44021 0.78121 0.0
C1207 C 0.93195 0.46409 0.80816 0.0
H1208 H 0.90956 0.39346 0.75345 0.0
C1209 C 0.91256 0.45774 0.82961 0.0
H1210 H 0.94561 0.44455 0.76417 0.0
C1211 C 0.89189 0.42842 0.82351 0.0
C1212 C 0.89005 0.40533 0.79562 0.0
H1213 H 0.91284 0.47581 0.85061 0.0
H1214 H 0.87685 0.42428 0.84006 0.0
C1215 C 0.91016 0.41117 0.77486 0.0
C1216 C 0.10312 0.9283 0.06136 0.0
C1217 C 0.12553 0.93501 0.08711 0.0
H1218 H 0.07656 0.94704 0.03038 0.0
C1219 C 0.13942 0.96781 0.09995 0.0
H1220 H 0.09168 0.90354 0.05084 0.0
C1221 C 0.13121 0.99286 0.0876 0.0
C1222 C 0.10818 0.98619 0.06254 0.0
H1223 H 0.15671 0.97421 0.11975 0.0
H1224 H 0.14243 1.01763 0.0984 0.0
C1225 C 0.09434 0.95339 0.04963 0.0
C1226 C 0.9257 0.25638 0.83899 0.0
C1227 C 0.93977 0.28335 0.86329 0.0
H1228 H 0.89135 0.23593 0.79971 0.0
C1229 C 0.92729 0.30968 0.86824 0.0
H1230 H 0.93516 0.23614 0.83382 0.0
C1231 C 0.90222 0.30968 0.84867 0.0
C1232 C 0.88914 0.28358 0.82303 0.0
H1233 H 0.93798 0.33123 0.88609 0.0
H1234 H 0.89411 0.33103 0.85243 0.0
C1235 C 0.90071 0.25645 0.81918 0.0
C1236 C 0.5986 0.22271 0.57537 0.0
C1237 C 0.62582 0.23726 0.59352 0.0
H1238 H 0.56946 0.17875 0.54792 0.0
C1239 C 0.64532 0.21807 0.59574 0.0
H1240 H 0.58291 0.23664 0.57359 0.0
C1241 C 0.63786 0.18527 0.58081 0.0
C1242 C 0.61033 0.17018 0.56374 0.0
H1243 H 0.66637 0.22838 0.60969 0.0
H1244 H 0.65352 0.17147 0.58366 0.0
C1245 C 0.59083 0.18944 0.56094 0.0
C1246 C 0.60174 0.77686 0.349 0.0
C1247 C 0.60464 0.78294 0.38243 0.0
H1248 H 0.62285 0.77735 0.30793 0.0
C1249 C 0.63231 0.7925 0.40005 0.0
H1250 H 0.58074 0.76951 0.33469 0.0
C1251 C 0.65649 0.79665 0.38471 0.0
C1252 C 0.65369 0.79151 0.35129 0.0
H1253 H 0.63533 0.79714 0.42586 0.0
H1254 H 0.67745 0.80406 0.39914 0.0
C1255 C 0.62594 0.78117 0.33363 0.0
C1256 C 0.1413 0.30938 0.48416 0.0
C1257 C 0.13503 0.3008 0.45074 0.0
H1258 H 0.139 0.29368 0.52819 0.0
C1259 C 0.12078 0.2687 0.43615 0.0
H1260 H 0.15226 0.3339 0.49616 0.0
C1261 C 0.1129 0.24575 0.45449 0.0
C1262 C 0.11916 0.25421 0.48794 0.0
H1263 H 0.11541 0.26129 0.41048 0.0
H1264 H 0.1015 0.22141 0.44238 0.0
C1265 C 0.13348 0.28635 0.50254 0.0
C1266 C 0.59346 0.2619 0.2558 0.0
C1267 C 0.58998 0.28756 0.24179 0.0
H1268 H 0.62328 0.23961 0.27653 0.0
C1269 C 0.613 0.31438 0.24464 0.0
H1270 H 0.57578 0.24098 0.25373 0.0
C1271 C 0.64 0.31428 0.25884 0.0
C1272 C 0.64445 0.28665 0.2689 0.0
H1273 H 0.61044 0.33457 0.23428 0.0
H1274 H 0.65777 0.33472 0.2595 0.0
C1275 C 0.62067 0.26127 0.26904 0.0
C1276 C 0.61607 0.99069 0.91779 0.0
C1277 C 0.6387 0.97767 0.92735 0.0
H1278 H 0.58579 1.01725 0.9333 0.0
C1279 C 0.65088 0.98516 0.9594 0.0
H1280 H 0.60626 0.98487 0.89306 0.0
C1281 C 0.63952 1.00356 0.98198 0.0
C1282 C 0.61533 1.01436 0.97311 0.0
H1283 H 0.66838 0.97542 0.9672 0.0
H1284 H 0.64887 1.00789 1.00675 0.0
C1285 C 0.60429 1.00895 0.94069 0.0
C1286 C 0.92354 0.73253 0.75076 0.0
C1287 C 0.94408 0.75274 0.73786 0.0
H1288 H 0.8866 0.72879 0.7747 0.0
C1289 C 0.94411 0.78529 0.74069 0.0
H1290 H 0.92337 0.70739 0.74912 0.0
C1291 C 0.92419 0.79762 0.75624 0.0
C1292 C 0.90328 0.77754 0.76867 0.0
H1293 H 0.96 0.80159 0.73151 0.0
H1294 H 0.92469 0.82283 0.75759 0.0
C1295 C 0.90283 0.74478 0.76562 0.0
C1296 C 0.14318 0.08386 0.91277 0.0
C1297 C 0.15062 0.05674 0.89457 0.0
H1298 H 0.12485 0.10479 0.95297 0.0
C1299 C 0.14342 0.0285 0.90724 0.0
H1300 H 0.14776 0.10648 0.905 0.0
C1301 C 0.12938 0.02747 0.93524 0.0
C1302 C 0.12194 0.05467 0.95328 0.0
H1303 H 0.14797 1.00662 0.89504 0.0
H1304 H 0.12414 1.00476 0.94278 0.0
C1305 C 0.12975 0.08301 0.94104 0.0
C1306 C 0.88587 0.40353 0.57267 0.0
C1307 C 0.88417 0.43541 0.5829 0.0
H1308 H 0.89325 0.36123 0.58634 0.0
C1309 C 0.89398 0.45131 0.61475 0.0
H1310 H 0.87899 0.39105 0.54799 0.0
C1311 C 0.90222 0.43416 0.63683 0.0
C1312 C 0.90107 0.40121 0.62699 0.0
H1313 H 0.89316 0.47607 0.62297 0.0
H1314 H 0.90732 0.44586 0.66184 0.0
C1315 C 0.8945 0.38662 0.59451 0.0
C1316 C 0.51497 0.07619 0.421 0.0
C1317 C 0.52567 0.09529 0.40006 0.0
H1318 H 0.52506 0.05627 0.46087 0.0
C1319 C 0.55427 0.11342 0.40656 0.0
H1320 H 0.4932 0.06125 0.41584 0.0
C1321 C 0.57223 0.11158 0.43319 0.0
C1322 C 0.56205 0.09068 0.45293 0.0
H1323 H 0.563 0.12785 0.39027 0.0
H1324 H 0.59443 0.12514 0.4373 0.0
C1325 C 0.5332 0.0734 0.44686 0.0
C1326 C 0.83136 0.77358 0.12996 0.0
C1327 C 0.80327 0.75667 0.11582 0.0
H1328 H 0.85944 0.80029 0.17311 0.0
C1329 C 0.78129 0.7565 0.13458 0.0
H1330 H 0.84883 0.77358 0.11627 0.0
C1331 C 0.78721 0.77206 0.1668 0.0
C1332 C 0.81545 0.78755 0.1816 0.0
H1333 H 0.7595 0.74333 0.12449 0.0
H1334 H 0.76966 0.77057 0.18048 0.0
C1335 C 0.83745 0.78857 0.1626 0.0
C1336 C 0.13531 0.06808 0.68926 0.0
C1337 C 0.15309 0.04642 0.69099 0.0
H1338 H 0.10936 0.08993 0.66032 0.0
C1339 C 0.1563 0.02912 0.66082 0.0
H1340 H 0.13199 0.0824 0.71117 0.0
C1341 C 0.14236 0.03281 0.63115 0.0
C1342 C 0.12511 0.05499 0.6294 0.0
H1343 H 0.1696 1.01226 0.66003 0.0
H1344 H 0.14571 1.0185 0.60925 0.0
C1345 C 0.1222 0.0726 0.65955 0.0
C1346 C 0.83414 0.41559 0.38391 0.0
C1347 C 0.82444 0.40921 0.41205 0.0
H1348 H 0.84555 0.39658 0.33946 0.0
C1349 C 0.81894 0.37744 0.41688 0.0
H1350 H 0.83941 0.43994 0.37991 0.0
C1351 C 0.82227 0.35233 0.39343 0.0
C1352 C 0.83166 0.35882 0.36514 0.0
H1353 H 0.81195 0.37201 0.43871 0.0
H1354 H 0.8169 0.32788 0.3971 0.0
C1355 C 0.83811 0.39077 0.36096 0.0
C1356 C 0.44651 0.04012 0.2012 0.0
C1357 C 0.46338 0.06645 0.22464 0.0
H1358 H 0.44563 1.0051 0.1587 0.0
C1359 C 0.49178 0.07977 0.22117 0.0
H1360 H 0.42452 0.02938 0.20324 0.0
C1361 C 0.50377 0.06557 0.19625 0.0
C1362 C 0.48751 0.03809 0.17411 0.0
H1363 H 0.50526 0.10017 0.23864 0.0
H1364 H 0.52604 0.07559 0.1947 0.0
C1365 C 0.45852 0.02609 0.17592 0.0
C1366 C 0.84078 0.78541 0.92623 0.0
C1367 C 0.81409 0.76302 0.92233 0.0
H1368 H 0.87041 0.81695 0.90528 0.0
C1369 C 0.796 0.75662 0.89295 0.0
H1370 H 0.85526 0.79104 0.94847 0.0
C1371 C 0.80431 0.77256 0.86841 0.0
C1372 C 0.83165 0.79369 0.87177 0.0
H1373 H 0.77503 0.74003 0.88929 0.0
H1374 H 0.78901 0.76897 0.84722 0.0
C1375 C 0.84951 0.80017 0.9013 0.0
C1376 C 0.87093 0.05328 0.04347 0.0
C1377 C 0.86695 0.08219 0.03605 0.0
H1378 H 0.89515 1.01778 0.03793 0.0
C1379 C 0.88305 0.09604 0.01458 0.0
H1380 H 0.85862 0.04181 0.05962 0.0
C1381 C 0.9037 0.08198 1.00197 0.0
C1382 C 0.90822 0.05383 1.01046 0.0
H1383 H 0.88037 0.11824 1.00834 0.0
H1384 H 0.91698 0.09381 0.98677 0.0
C1385 C 0.89148 0.03926 0.03081 0.0
C1386 C 0.47672 0.50506 0.08694 0.0
C1387 C 0.46133 0.48456 0.0584 0.0
H1388 H 0.51463 0.54222 0.10927 0.0
C1389 C 0.47419 0.4839 0.03067 0.0
H1390 H 0.46705 0.5067 0.10847 0.0
C1391 C 0.50123 0.50415 0.03105 0.0
C1392 C 0.51595 0.52611 0.05907 0.0
H1393 H 0.4626 0.46884 1.00821 0.0
H1394 H 0.50994 0.50373 1.00894 0.0
C1395 C 0.50377 0.52569 0.08725 0.0
C1396 C 0.42464 0.71713 0.78241 0.0
C1397 C 0.40995 0.68363 0.7765 0.0
H1398 H 0.42331 0.76767 0.78877 0.0
C1399 C 0.37956 0.67866 0.77315 0.0
H1400 H 0.44778 0.72354 0.78524 0.0
C1401 C 0.36521 0.70464 0.7757 0.0
C1402 C 0.3798 0.73811 0.78144 0.0
H1403 H 0.36641 0.65416 0.76859 0.0
H1404 H 0.34207 0.69813 0.77278 0.0
C1405 C 0.41023 0.74316 0.78451 0.0
C1406 C 0.20075 0.62686 0.58832 0.0
C1407 C 0.21592 0.61361 0.56559 0.0
H1408 H 0.15921 0.62958 0.59997 0.0
C1409 C 0.20113 0.59221 0.53754 0.0
H1410 H 0.212 0.64356 0.6101 0.0
C1411 C 0.1716 0.58544 0.53138 0.0
C1412 C 0.15633 0.59891 0.55369 0.0
H1413 H 0.21245 0.58208 0.51954 0.0
H1414 H 0.16069 0.57013 0.50879 0.0
C1415 C 0.17083 0.61898 0.58263 0.0
C1416 C 0.79752 0.03091 0.76857 0.0
C1417 C 0.76893 1.01304 0.76556 0.0
H1418 H 0.84183 0.03152 0.77913 0.0
C1419 C 0.76305 0.98272 0.77356 0.0
H1420 H 0.80259 0.05456 0.76289 0.0
C1421 C 0.78545 0.96971 0.78267 0.0
C1422 C 0.81393 0.987 0.78425 0.0
H1423 H 0.74124 0.96858 0.77165 0.0
H1424 H 0.78057 0.9457 0.78757 0.0
C1425 C 0.81993 1.018 0.77804 0.0
C1426 C 0.76501 0.94606 0.55041 0.0
C1427 C 0.79366 0.96352 0.56109 0.0
H1428 H 0.72202 0.94787 0.53521 0.0
C1429 C 0.80031 0.99736 0.56638 0.0
H1430 H 0.75912 0.91996 0.54615 0.0
C1431 C 0.77909 1.0133 0.56016 0.0
C1432 C 0.75058 0.99588 0.54852 0.0
H1433 H 0.82209 1.0116 0.57479 0.0
H1434 H 0.78509 0.03939 0.56426 0.0
C1435 C 0.7437 0.96207 0.54428 0.0
C1436 C 0.41323 0.4438 0.76494 0.0
C1437 C 0.40435 0.47308 0.76657 0.0
H1438 H 0.40279 0.39277 0.76625 0.0
C1439 C 0.37558 0.47058 0.77106 0.0
H1440 H 0.43503 0.44385 0.76169 0.0
C1441 C 0.3569 0.44081 0.77344 0.0
C1442 C 0.36573 0.41161 0.77195 0.0
H1443 H 0.36727 0.49176 0.77264 0.0
H1444 H 0.33509 0.44079 0.77666 0.0
C1445 C 0.39457 0.414 0.76769 0.0
C1446 C 0.25858 0.66689 0.25765 0.0
C1447 C 0.24317 0.65537 0.22665 0.0
H1448 H 0.28738 0.70671 0.29092 0.0
C1449 C 0.24518 0.67576 0.20502 0.0
H1450 H 0.257 0.65169 0.27493 0.0
C1451 C 0.26305 0.70698 0.21402 0.0
C1452 C 0.27837 0.71845 0.24505 0.0
H1453 H 0.23335 0.66741 0.18111 0.0
H1454 H 0.26466 0.72227 0.19682 0.0
C1455 C 0.27574 0.69835 0.26692 0.0
C1456 C 0.52131 0.66638 0.46999 0.0
C1457 C 0.53686 0.69884 0.4816 0.0
H1458 H 0.51624 0.61656 0.47291 0.0
C1459 C 0.55968 0.70506 0.50677 0.0
H1460 H 0.50369 0.66039 0.45059 0.0
C1461 C 0.56732 0.67979 0.5191 0.0
C1462 C 0.55203 0.64731 0.50728 0.0
H1463 H 0.57241 0.72952 0.51633 0.0
H1464 H 0.58551 0.68575 0.53781 0.0
C1465 C 0.52853 0.64113 0.48287 0.0
C1466 C 0.73953 0.37772 0.71382 0.0
C1467 C 0.72988 0.35829 0.68309 0.0
H1468 H 0.76895 0.38907 0.75715 0.0
C1469 C 0.74465 0.33486 0.67249 0.0
H1470 H 0.72881 0.39595 0.72291 0.0
C1471 C 0.76762 0.33025 0.6927 0.0
C1472 C 0.77677 0.3494 0.72377 0.0
H1473 H 0.73771 0.31919 0.6491 0.0
H1474 H 0.77782 0.31132 0.68425 0.0
C1475 C 0.7627 0.37367 0.73356 0.0
C1476 C 0.0836 0.41741 0.97518 0.0
C1477 C 0.05615 0.39715 0.97352 0.0
H1478 H 0.11135 0.46513 0.98951 0.0
C1479 C 0.0354 0.41076 0.9871 0.0
H1480 H 0.09994 0.40784 0.96448 0.0
C1481 C 0.0417 0.4441 1.00077 0.0
C1482 C 0.06905 0.46455 1.00164 0.0
H1483 H 0.01387 0.39602 0.98556 0.0
H1484 H 0.02494 0.45397 1.01005 0.0
C1485 C 0.09008 0.45042 0.98939 0.0
C1486 C 0.06547 0.83281 0.23406 0.0
C1487 C 0.06952 0.84077 0.20446 0.0
H1488 H 0.03745 0.82551 0.2684 0.0
C1489 C 0.04703 0.84879 0.18707 0.0
H1490 H 0.08216 0.82643 0.24823 0.0
C1491 C 0.02102 0.8483 0.1989 0.0
C1492 C 0.01712 0.84016 0.2285 0.0
H1493 H 0.04935 0.85498 0.16417 0.0
H1494 H 1.00401 0.85437 0.18494 0.0
C1495 C 0.03977 0.83253 0.24586 0.0
C1496 C 0.52595 0.36401 0.12702 0.0
C1497 C 0.51888 0.33102 0.11266 0.0
H1498 H 0.54203 0.41237 0.12194 0.0
C1499 C 0.52038 0.32188 0.08008 0.0
H1500 H 0.52537 0.37186 0.15217 0.0
C1501 C 0.5295 0.3452 0.06246 0.0
C1502 C 0.53778 0.37825 0.07709 0.0
H1503 H 0.51502 0.29662 0.06831 0.0
H1504 H 0.53026 0.33721 0.03739 0.0
C1505 C 0.53549 0.3873 0.10955 0.0
C1506 C 0.05017 0.33357 0.33426 0.0
C1507 C 0.06869 0.34369 0.31315 0.0
H1508 H 1.00741 0.32635 0.34486 0.0
C1509 C 0.05716 0.34603 0.28274 0.0
H1510 H 0.05839 0.33103 0.35766 0.0
C1511 C 0.02795 0.343 0.2754 0.0
C1512 C 1.01022 0.33773 0.29845 0.0
H1513 H 0.07094 0.35314 0.26575 0.0
H1514 H 0.01983 0.3482 0.25315 0.0
C1515 C 0.02103 0.33085 0.327 0.0
C1516 C 0.03421 0.62973 0.62934 0.0
C1517 C 0.01971 0.65362 0.62566 0.0
H1518 H 0.05328 0.59374 0.606 0.0
C1519 C 1.00962 0.65628 0.59493 0.0
H1520 H 0.04213 0.6271 0.65281 0.0
C1521 C 0.01558 0.63693 0.56835 0.0
C1522 C 0.03228 0.61512 0.57208 0.0
H1523 H 0.9981 0.67423 0.59146 0.0
H1524 H 1.0085 0.64042 0.54495 0.0
C1525 C 0.04071 0.61078 0.60266 0.0
C1526 C 0.73639 0.88454 0.82822 0.0
C1527 C 0.73112 0.8743 0.85654 0.0
H1528 H 0.76035 0.88195 0.78909 0.0
C1529 C 0.74733 0.8551 0.86842 0.0
H1530 H 0.72396 0.89933 0.81869 0.0
C1531 C 0.76711 0.84433 0.851 0.0
C1532 C 0.77146 0.85338 0.82205 0.0
H1533 H 0.74342 0.84669 0.89003 0.0
H1534 H 0.77863 0.82839 0.85984 0.0
C1535 C 0.75691 0.87455 0.81127 0.0
C1536 C 0.5357 0.59993 0.67633 0.0
C1537 C 0.50651 0.58343 0.67492 0.0
H1538 H 0.57239 0.61312 0.65227 0.0
C1539 C 0.49356 0.56508 0.64373 0.0
H1540 H 0.54736 0.61449 0.69895 0.0
C1541 C 0.50866 0.56326 0.61637 0.0
C1542 C 0.53775 0.5804 0.61779 0.0
H1543 H 0.4714 0.5516 0.6403 0.0
H1544 H 0.49704 0.54884 0.59372 0.0
C1545 C 0.55045 0.59897 0.64889 0.0
C1546 C 0.78165 0.18854 0.94887 0.0
C1547 C 0.79047 0.20431 0.98096 0.0
H1548 H 0.77147 0.19367 0.901 0.0
C1549 C 0.79425 0.23785 0.98963 0.0
H1550 H 0.77831 0.16266 0.94158 0.0
C1551 C 0.7902 0.25548 0.96653 0.0
C1552 C 0.7824 0.23993 0.93431 0.0
H1553 H 0.80083 0.25063 0.01424 0.0
H1554 H 0.79433 0.28147 0.97379 0.0
C1555 C 0.77771 0.20624 0.92571 0.0
C1556 C 0.13116 0.50067 0.13152 0.0
C1557 C 0.15946 0.51984 0.13898 0.0
H1558 H 0.08866 0.49491 0.10772 0.0
C1559 C 0.16696 0.54749 0.12635 0.0
H1560 H 0.12473 0.47973 0.14176 0.0
C1561 C 0.14614 0.55701 0.10845 0.0
C1562 C 0.11771 0.53841 0.10168 0.0
H1563 H 0.18829 0.56346 0.13283 0.0
H1564 H 0.152 0.57993 0.10153 0.0
C1565 C 0.11048 0.50968 0.11264 0.0
C1566 C 0.87176 0.86106 0.43781 0.0
C1567 C 0.84902 0.87026 0.45153 0.0
H1568 H 0.88681 0.8424 0.39477 0.0
C1569 C 0.82276 0.86478 0.4318 0.0
H1570 H 0.8925 0.86578 0.45221 0.0
C1571 C 0.81943 0.85147 0.39914 0.0
C1572 C 0.84248 0.84375 0.38479 0.0
H1573 H 0.80501 0.87219 0.44148 0.0
H1574 H 0.79894 0.8486 0.38491 0.0
C1575 C 0.86856 0.84801 0.40478 0.0
C1576 C 0.52066 0.60414 0.9038 0.0
C1577 C 0.51856 0.58005 0.87586 0.0
H1578 H 0.53524 0.62166 0.95484 0.0
C1579 C 0.53054 0.55419 0.8812 0.0
H1580 H 0.51219 0.62473 0.90186 0.0
C1581 C 0.54345 0.55216 0.91173 0.0
C1582 C 0.54598 0.57612 0.93961 0.0
H1583 H 0.52985 0.5347 0.86133 0.0
H1584 H 0.55179 0.5314 0.9133 0.0
C1585 C 0.53421 0.60236 0.93467 0.0
C1586 C 0.81542 0.21334 0.18016 0.0
C1587 C 0.828 0.21652 0.15278 0.0
H1588 H 0.80473 0.23693 0.22304 0.0
C1589 C 0.83941 0.24767 0.14776 0.0
H1590 H 0.80603 0.18982 0.18463 0.0
C1591 C 0.83853 0.27506 0.17005 0.0
C1592 C 0.82603 0.27156 0.19744 0.0
H1593 H 0.84888 0.25089 0.12659 0.0
H1594 H 0.84825 0.29879 0.16629 0.0
C1595 C 0.81422 0.24045 0.20198 0.0
C1596 C 0.18208 0.59947 0.33331 0.0
C1597 C 0.16229 0.59658 0.30616 0.0
H1598 H 0.19258 0.61511 0.38403 0.0
C1599 C 0.13851 0.60945 0.30932 0.0
H1600 H 0.20091 0.59032 0.3315 0.0
C1601 C 0.13394 0.62376 0.33912 0.0
C1602 C 0.15307 0.62561 0.36647 0.0
H1603 H 0.12299 0.60789 0.28884 0.0
H1604 H 0.11451 0.63177 0.34079 0.0
C1605 C 0.17751 0.61393 0.36328 0.0
C1606 C 0.86967 0.87567 0.67892 0.0
C1607 C 0.85016 0.86862 0.65047 0.0
H1608 H 0.8778 0.86815 0.72664 0.0
C1609 C 0.82267 0.84883 0.64975 0.0
H1610 H 0.89104 0.89081 0.68049 0.0
C1611 C 0.8147 0.83705 0.67663 0.0
C1612 C 0.83415 0.84379 0.70506 0.0
H1613 H 0.80691 0.84302 0.62851 0.0
H1614 H 0.79316 0.8223 0.67496 0.0
C1615 C 0.86199 0.86284 0.70554 0.0
C1616 C 0.79176 0.56174 0.54776 0.0
C1617 C 0.78311 0.52788 0.53839 0.0
H1618 H 0.7789 0.60535 0.56344 0.0
C1619 C 0.75466 0.5118 0.5388 0.0
H1620 H 0.81366 0.57469 0.54788 0.0
C1621 C 0.73495 0.5293 0.54736 0.0
C1622 C 0.74347 0.56309 0.55612 0.0
H1623 H 0.74743 0.48575 0.53178 0.0
H1624 H 0.71291 0.51647 0.54678 0.0
C1625 C 0.77206 0.57925 0.55684 0.0
C1626 C 0.18765 0.15817 0.51997 0.0
C1627 C 0.20331 0.14987 0.49545 0.0
H1628 H 0.15233 0.14267 0.54436 0.0
C1629 C 0.19344 0.11915 0.47523 0.0
H1630 H 0.1949 0.18144 0.53632 0.0
C1631 C 0.16854 0.09736 0.47924 0.0
C1632 C 0.15327 0.10517 0.5043 0.0
H1633 H 0.2051 0.11189 0.45628 0.0
H1634 H 0.16163 0.07398 0.46306 0.0
C1635 C 0.16324 0.13587 0.52467 0.0
C1636 C 0.28396 0.95563 0.78127 0.0
C1637 C 0.25387 0.9511 0.78137 0.0
H1638 H 0.32123 0.93586 0.77954 0.0
C1639 C 0.23948 0.91802 0.77938 0.0
H1640 H 0.29689 0.97978 0.78273 0.0
C1641 C 0.2539 0.892 0.77761 0.0
C1642 C 0.28403 0.89661 0.77741 0.0
H1643 H 0.21659 0.91195 0.77934 0.0
H1644 H 0.24106 0.86787 0.77642 0.0
C1645 C 0.29831 0.92966 0.77932 0.0
C1646 C 0.44628 0.03804 0.96106 0.0
C1647 C 0.42923 1.01706 0.97656 0.0
H1648 H 0.48874 0.05838 0.95319 0.0
C1649 C 0.44154 0.99682 0.99237 0.0
H1650 H 0.43726 0.0535 0.9483 0.0
C1651 C 0.47072 0.9995 0.99507 0.0
C1652 C 0.4881 0.02218 0.98174 0.0
H1653 H 0.4289 0.97985 1.00406 0.0
H1654 H 0.47991 0.98513 1.00915 0.0
C1655 C 0.47562 0.04047 0.9635 0.0
C1656 C 0.85711 0.60022 0.81777 0.0
C1657 C 0.88472 0.61968 0.83076 0.0
H1658 H 0.81465 0.59874 0.79692 0.0
C1659 C 0.88964 0.65331 0.83641 0.0
H1660 H 0.85274 0.57415 0.81305 0.0
C1661 C 0.86791 0.66722 0.82724 0.0
C1662 C 0.84086 0.64774 0.81222 0.0
H1663 H 0.9107 0.66887 0.84627 0.0
H1664 H 0.87285 0.69322 0.83019 0.0
C1665 C 0.83537 0.61417 0.80829 0.0
C1666 C 0.88289 0.64805 0.99809 0.0
C1667 C 0.87134 0.65961 0.02502 0.0
H1668 H 0.91528 0.62634 0.98042 0.0
C1669 C 0.88604 0.66187 0.05536 0.0
H1670 H 0.87179 0.64585 0.97442 0.0
C1671 C 0.91108 0.65146 0.0589 0.0
C1672 C 0.92175 0.63759 0.03215 0.0
H1673 H 0.87768 0.67096 0.07651 0.0
H1674 H 0.92158 0.65339 0.08278 0.0
C1675 C 0.90783 0.63693 1.00161 0.0
C1676 C 0.28926 0.16665 0.79232 0.0
C1677 C 0.25987 0.1632 0.79409 0.0
H1678 H 0.33011 0.19756 0.78942 0.0
C1679 C 0.25031 0.19187 0.7939 0.0
H1680 H 0.29811 0.146 0.7923 0.0
C1681 C 0.26888 0.22201 0.79203 0.0
C1682 C 0.29827 0.22536 0.79039 0.0
H1683 H 0.22803 0.19113 0.79512 0.0
H1684 H 0.2601 0.24271 0.79198 0.0
C1685 C 0.30781 0.19677 0.79063 0.0
C1686 C 0.40494 0.96037 0.3272 0.0
C1687 C 0.42446 0.96746 0.30604 0.0
H1688 H 0.37097 0.92509 0.33831 0.0
C1689 C 0.42552 0.94318 0.28026 0.0
H1690 H 0.40374 0.97868 0.34733 0.0
C1691 C 0.40645 0.91287 0.2748 0.0
C1692 C 0.38629 0.90611 0.29532 0.0
H1693 H 0.4402 0.94798 0.26347 0.0
H1694 H 0.40732 0.89483 0.25425 0.0
C1695 C 0.38615 0.92981 0.32203 0.0
C1696 C 0.60336 0.42822 0.5604 0.0
C1697 C 0.62581 0.43496 0.5861 0.0
H1698 H 0.57664 0.44695 0.52957 0.0
C1699 C 0.63961 0.46776 0.59903 0.0
H1700 H 0.59199 0.40345 0.54982 0.0
C1701 C 0.63127 0.49279 0.5868 0.0
C1702 C 0.6082 0.4861 0.5618 0.0
H1703 H 0.65694 0.47415 0.6188 0.0
H1704 H 0.64244 0.51757 0.59766 0.0
C1705 C 0.59445 0.45331 0.54879 0.0
C1706 C 0.42529 0.75533 0.33863 0.0
C1707 C 0.43929 0.78213 0.36314 0.0
H1708 H 0.39097 0.73511 0.29932 0.0
C1709 C 0.42676 0.80839 0.3684 0.0
H1710 H 0.43481 0.73516 0.33322 0.0
C1711 C 0.40168 0.8085 0.3489 0.0
C1712 C 0.38869 0.78258 0.32308 0.0
H1713 H 0.43742 0.82983 0.38639 0.0
H1714 H 0.39352 0.82981 0.35286 0.0
C1715 C 0.40029 0.7555 0.31894 0.0
C1716 C 0.14685 0.71878 0.10007 0.0
C1717 C 0.12693 0.73738 0.09728 0.0
H1718 H 0.1558 0.67245 0.0893 0.0
C1719 C 0.09974 0.72203 0.07942 0.0
H1720 H 0.16791 0.72972 0.11384 0.0
C1721 C 0.09241 0.68858 0.06585 0.0
C1722 C 0.11232 0.6699 0.06929 0.0
H1723 H 0.08373 0.73551 0.07723 0.0
H1724 H 0.07105 0.67729 0.05302 0.0
C1725 C 0.13982 0.68577 0.08602 0.0
C1726 C 0.10214 0.27771 0.84902 0.0
C1727 C 0.10501 0.28355 0.88243 0.0
H1728 H 0.12331 0.27837 0.80797 0.0
C1729 C 0.13266 0.29297 0.9001 0.0
H1730 H 0.08117 0.27049 0.8347 0.0
C1731 C 0.15688 0.29718 0.88481 0.0
C1732 C 0.15411 0.29222 0.85139 0.0
H1733 H 0.13567 0.29742 0.92585 0.0
H1734 H 0.17778 0.30444 0.89924 0.0
C1735 C 0.12639 0.28205 0.8337 0.0
C1736 C 0.61524 0.76886 0.93403 0.0
C1737 C 0.62829 0.80127 0.94863 0.0
H1738 H 0.59758 0.72114 0.94039 0.0
C1739 C 0.63358 0.81017 0.98207 0.0
H1740 H 0.6107 0.76122 0.90833 0.0
C1741 C 0.62624 0.78714 1.00049 0.0
C1742 C 0.61337 0.75463 0.98592 0.0
H1743 H 0.64365 0.83493 0.99408 0.0
H1744 H 0.63117 0.79473 0.02617 0.0
C1745 C 0.60784 0.74584 0.95244 0.0
C1746 C 0.09804 0.76054 0.76771 0.0
C1747 C 0.09324 0.78664 0.75513 0.0
H1748 H 0.1291 0.73981 0.78822 0.0
C1749 C 0.11456 0.8157 0.7619 0.0
H1750 H 0.0817 0.73802 0.76332 0.0
C1751 C 0.14165 0.81712 0.77719 0.0
C1752 C 0.14782 0.78919 0.78492 0.0
H1753 H 0.11105 0.83646 0.75317 0.0
H1754 H 0.15845 0.83904 0.78001 0.0
C1755 C 0.12525 0.76171 0.78235 0.0
C1756 C 0.11369 0.48867 0.41158 0.0
C1757 C 0.13624 0.47581 0.4218 0.0
H1758 H 0.08366 0.51602 0.42612 0.0
C1759 C 0.14878 0.4847 0.45378 0.0
H1760 H 0.10365 0.48188 0.38691 0.0
C1761 C 0.13765 0.50402 0.47575 0.0
C1762 C 0.11345 0.51456 0.46636 0.0
H1763 H 0.16631 0.47527 0.46211 0.0
H1764 H 0.14709 0.50913 0.50057 0.0
C1765 C 0.10221 0.50798 0.4339 0.0
C1766 C 0.4205 0.22835 0.25174 0.0
C1767 C 0.43139 0.24058 0.22622 0.0
H1768 H 0.39225 0.23199 0.28674 0.0
C1769 C 0.41892 0.26244 0.21342 0.0
H1770 H 0.42951 0.21124 0.26192 0.0
C1771 C 0.39835 0.27456 0.22798 0.0
C1772 C 0.38941 0.26451 0.25506 0.0
H1773 H 0.42645 0.27204 0.19355 0.0
H1774 H 0.39029 0.29292 0.21888 0.0
C1775 C 0.39936 0.2402 0.26603 0.0
C1776 C 0.64279 0.52816 0.40671 0.0
C1777 C 0.65001 0.55642 0.39407 0.0
H1778 H 0.6235 0.50443 0.44224 0.0
C1779 C 0.64262 0.58356 0.41226 0.0
H1780 H 0.64733 0.50628 0.39449 0.0
C1781 C 0.62919 0.58271 0.44052 0.0
C1782 C 0.62136 0.55436 0.45273 0.0
H1783 H 0.64722 0.60618 0.4045 0.0
H1784 H 0.62432 0.6045 0.45247 0.0
C1785 C 0.62876 0.52714 0.4347 0.0
C1786 C 0.37985 0.90197 0.07272 0.0
C1787 C 0.37925 0.93422 0.08309 0.0
H1788 H 0.38719 0.8595 0.08604 0.0
C1789 C 0.39058 0.95032 0.11459 0.0
H1790 H 0.37186 0.88934 0.04826 0.0
C1791 C 0.39942 0.93315 0.13633 0.0
C1792 C 0.39745 0.90002 0.12645 0.0
H1793 H 0.39073 0.97539 0.12287 0.0
H1794 H 0.40579 0.94507 0.16121 0.0
C1795 C 0.38913 0.88506 0.09418 0.0
C1796 C 0.06372 0.60744 0.90817 0.0
C1797 C 0.03431 0.59264 0.90262 0.0
H1798 H 0.10323 0.61773 0.9396 0.0
C1799 C 0.02154 0.57866 0.92602 0.0
H1800 H 0.07394 0.61816 0.89022 0.0
C1801 C 0.03841 0.57723 0.95357 0.0
C1802 C 0.06802 0.59075 0.95857 0.0
H1803 H 0.99894 0.5666 0.92192 0.0
H1804 H 0.02845 0.56427 0.9701 0.0
C1805 C 0.0804 0.607 0.93626 0.0
C1806 C 0.27974 0.25931 0.63335 0.0
C1807 C 0.30147 0.25853 0.61434 0.0
H1808 H 0.26873 0.27374 0.67951 0.0
C1809 C 0.32987 0.27422 0.62838 0.0
H1810 H 0.25771 0.24708 0.62337 0.0
C1811 C 0.33643 0.2889 0.66112 0.0
C1812 C 0.31465 0.28874 0.68036 0.0
H1813 H 0.34715 0.27346 0.61453 0.0
H1814 H 0.3586 0.29963 0.6715 0.0
C1815 C 0.28615 0.27452 0.66568 0.0
C1816 C 0.63548 0.56868 0.1891 0.0
C1817 C 0.65311 0.54686 0.19077 0.0
H1818 H 0.60986 0.59092 0.1602 0.0
C1819 C 0.65641 0.52969 0.1606 0.0
H1820 H 0.63212 0.58292 0.21103 0.0
C1821 C 0.64269 0.53365 0.13095 0.0
C1822 C 0.62559 0.55599 0.12925 0.0
H1823 H 0.66962 0.51273 0.15978 0.0
H1824 H 0.6461 0.51943 0.10903 0.0
C1825 C 0.6226 0.57348 0.15941 0.0
C1826 C 0.32239 0.88007 0.91611 0.0
C1827 C 0.32752 0.91179 0.91117 0.0
H1828 H 0.32129 0.83074 0.89677 0.0
C1829 C 0.33752 0.91831 0.88319 0.0
H1830 H 0.31515 0.8745 0.93779 0.0
C1831 C 0.34204 0.89363 0.86047 0.0
C1832 C 0.33597 0.86174 0.86481 0.0
H1833 H 0.34246 0.94262 0.87909 0.0
H1834 H 0.3495 0.89943 0.83897 0.0
C1835 C 0.32641 0.85516 0.89299 0.0
C1836 C 0.95057 0.5387 0.70102 0.0
C1837 C 0.97005 0.5618 0.72534 0.0
H1838 H 0.94505 0.50644 0.65545 0.0
C1839 C 0.99871 0.57201 0.72107 0.0
H1840 H 0.92833 0.53044 0.70368 0.0
C1841 C 1.00814 0.55791 0.69402 0.0
C1842 C 0.98905 0.53371 0.67061 0.0
H1843 H 0.01419 0.58986 0.73925 0.0
H1844 H 0.03054 0.56548 0.69162 0.0
C1845 C 0.96004 0.52483 0.67363 0.0
C1846 C 0.33575 0.24912 0.40221 0.0
C1847 C 0.31225 0.25502 0.41679 0.0
H1848 H 0.36246 0.2586 0.36649 0.0
C1849 C 0.2966 0.27462 0.40417 0.0
H1850 H 0.34832 0.23415 0.4111 0.0
C1851 C 0.30418 0.28776 0.37775 0.0
C1852 C 0.3282 0.28257 0.36387 0.0
H1853 H 0.27831 0.27959 0.41455 0.0
H1854 H 0.29168 0.30274 0.36874 0.0
C1855 C 0.34389 0.26314 0.37657 0.0
C1856 C 0.38138 0.59471 0.51559 0.0
C1857 C 0.36597 0.58118 0.53772 0.0
H1858 H 0.41491 0.59257 0.48717 0.0
C1859 C 0.37086 0.5529 0.54587 0.0
H1860 H 0.37801 0.61643 0.50879 0.0
C1861 C 0.39158 0.5392 0.53319 0.0
C1862 C 0.4076 0.55345 0.51209 0.0
H1863 H 0.3591 0.54169 0.56257 0.0
H1864 H 0.39592 0.51822 0.5408 0.0
C1865 C 0.4022 0.58097 0.50296 0.0
C1866 C 0.972 0.9838 0.53156 0.0
C1867 C 0.95891 0.98517 0.55916 0.0
H1868 H 1.00813 1.00259 0.50988 0.0
C1869 C 0.97438 1.00578 0.58761 0.0
H1870 H 0.96037 0.96869 0.50913 0.0
C1871 C 1.00174 0.02581 0.58794 0.0
C1872 C 0.01418 0.02553 0.55986 0.0
H1873 H 0.96457 1.008 0.60903 0.0
H1874 H 1.01263 0.04248 0.60986 0.0
C1875 C 0.99934 1.00344 0.53195 0.0
C1876 C 0.87801 0.17746 0.27372 0.0
C1877 C 0.90843 0.18267 0.27723 0.0
H1878 H 0.84031 0.19657 0.27333 0.0
C1879 C 0.92293 0.21626 0.28348 0.0
H1880 H 0.86499 0.15288 0.26889 0.0
C1881 C 0.90831 0.24213 0.28576 0.0
C1882 C 0.87785 0.23683 0.28252 0.0
H1883 H 0.94607 0.22286 0.28646 0.0
H1884 H 0.92127 0.26672 0.29025 0.0
C1885 C 0.86345 0.20327 0.27642 0.0
C1886 C 0.70343 0.12948 0.08836 0.0
C1887 C 0.71804 0.11664 0.06478 0.0
H1888 H 0.6623 0.13123 0.10189 0.0
C1889 C 0.70272 0.09532 0.03693 0.0
H1890 H 0.7151 0.14607 0.11001 0.0
C1891 C 0.67314 0.08802 0.03192 0.0
C1892 C 0.65841 0.10097 0.05517 0.0
H1893 H 0.71362 0.08546 0.01834 0.0
H1894 H 0.66174 0.07247 1.00963 0.0
C1895 C 0.67352 0.12111 0.0838 0.0
C1896 C 0.26776 0.47874 0.28529 0.0
C1897 C 0.27478 0.50553 0.27126 0.0
H1898 H 0.28326 0.44594 0.3093 0.0
C1899 C 0.30372 0.52152 0.27312 0.0
H1900 H 0.24564 0.46603 0.28434 0.0
C1901 C 0.32526 0.51048 0.28798 0.0
C1902 C 0.31837 0.48306 0.30111 0.0
H1903 H 0.30981 0.54256 0.26296 0.0
H1904 H 0.34735 0.5232 0.2888 0.0
C1905 C 0.28934 0.46751 0.29995 0.0
C1906 C 0.30178 0.49307 0.07183 0.0
C1907 C 0.29608 0.4593 0.06291 0.0
H1908 H 0.28542 0.53483 0.07381 0.0
C1909 C 0.26791 0.44147 0.05025 0.0
H1910 H 0.32324 0.50754 0.08162 0.0
C1911 C 0.24609 0.45715 0.04588 0.0
C1912 C 0.25192 0.49102 0.0542 0.0
H1913 H 0.26277 0.4154 0.04324 0.0
H1914 H 0.22465 0.44273 0.03592 0.0
C1915 C 0.28 0.50872 0.06753 0.0
C1916 C 0.91276 0.9434 0.26561 0.0
C1917 C 0.90377 0.97259 0.26697 0.0
H1918 H 0.90245 0.89244 0.26719 0.0
C1919 C 0.87495 0.97001 0.27126 0.0
H1920 H 0.93462 0.94352 0.26253 0.0
C1921 C 0.85632 0.94023 0.27369 0.0
C1922 C 0.86526 0.91112 0.27247 0.0
H1923 H 0.86657 0.99111 0.27263 0.0
H1924 H 0.83446 0.94013 0.27673 0.0
C1925 C 0.89415 0.9136 0.26843 0.0
C1926 C 0.75262 0.17187 0.75746 0.0
C1927 C 0.73779 0.16085 0.72618 0.0
H1928 H 0.78291 0.21017 0.79083 0.0
C1929 C 0.74234 0.18055 0.70409 0.0
H1930 H 0.74914 0.15716 0.77506 0.0
C1931 C 0.76215 0.21058 0.713 0.0
C1932 C 0.77696 0.22152 0.7443 0.0
H1933 H 0.73105 0.17252 0.67992 0.0
H1934 H 0.76565 0.2254 0.69551 0.0
C1935 C 0.77179 0.20216 0.76657 0.0
loop_
_geom_bond_atom_site_label_1
_geom_bond_atom_site_label_2
_geom_bond_distance
_geom_bond_site_symmetry_2
_ccdc_geom_bond_type
C0 O1 1.306 . S
C0 O3 1.160 . S
O1 C0 1.306 . S
O1 Cd2 2.228 . S
Cd2 O1 2.228 . S
Cd2 O6 2.273 . S
Cd2 O10 2.277 . S
O3 C0 1.160 . S
O3 Cd4 2.203 . S
Cd4 O3 2.203 . S
Cd4 O6 2.411 . S
Cd4 O7 2.333 . S
Cd4 O8 2.352 . S
Cd4 O12 2.277 . S
Cd4 O13 2.356 . S
C5 O10 1.209 . S
C5 O12 1.226 . S
O6 Cd2 2.273 . S
O6 Cd4 2.411 . S
O6 C9 1.320 . S
O7 Cd4 2.333 . S
O7 C9 1.214 . S
O8 Cd4 2.352 . S
O8 C11 1.258 . S
C9 O6 1.320 . S
C9 O7 1.214 . S
O10 Cd2 2.277 . S
O10 C5 1.209 . S
C11 O8 1.258 . S
C11 O13 1.282 . S
O12 Cd4 2.277 . S
O12 C5 1.226 . S
O13 Cd4 2.356 . S
O13 C11 1.282 . S
C14 O15 1.306 . S
C14 O17 1.160 . S
O15 C14 1.306 . S
O15 Cd16 2.228 1_655 S
Cd16 O15 2.228 1_455 S
Cd16 O20 2.273 . S
Cd16 O24 2.277 1_455 S
O17 C14 1.160 . S
O17 Cd18 2.203 1_655 S
Cd18 O17 2.203 1_455 S
Cd18 O20 2.411 . S
Cd18 O21 2.333 . S
Cd18 O22 2.352 . S
Cd18 O26 2.277 1_455 S
Cd18 O27 2.356 . S
C19 O24 1.209 . S
C19 O26 1.226 . S
O20 Cd16 2.273 . S
O20 Cd18 2.411 . S
O20 C23 1.320 . S
O21 Cd18 2.333 . S
O21 C23 1.214 . S
O22 Cd18 2.352 . S
O22 C25 1.258 . S
C23 O20 1.320 . S
C23 O21 1.214 . S
O24 Cd16 2.277 1_655 S
O24 C19 1.209 . S
C25 O22 1.258 . S
C25 O27 1.282 . S
O26 Cd18 2.277 1_655 S
O26 C19 1.226 . S
O27 Cd18 2.356 . S
O27 C25 1.282 . S
C28 O29 1.306 . S
C28 O31 1.160 . S
O29 C28 1.306 . S
O29 Cd30 2.228 . S
Cd30 O29 2.228 . S
Cd30 O34 2.273 . S
Cd30 O38 2.277 . S
O31 C28 1.160 . S
O31 Cd32 2.203 . S
Cd32 O31 2.203 . S
Cd32 O34 2.411 . S
Cd32 O35 2.333 . S
Cd32 O36 2.352 . S
Cd32 O40 2.277 . S
Cd32 O41 2.356 . S
C33 O38 1.209 . S
C33 O40 1.226 . S
O34 Cd30 2.273 . S
O34 Cd32 2.411 . S
O34 C37 1.320 . S
O35 Cd32 2.333 . S
O35 C37 1.214 . S
O36 Cd32 2.352 . S
O36 C39 1.258 . S
C37 O34 1.320 . S
C37 O35 1.214 . S
O38 Cd30 2.277 . S
O38 C33 1.209 . S
C39 O36 1.258 . S
C39 O41 1.282 . S
O40 Cd32 2.277 . S
O40 C33 1.226 . S
O41 Cd32 2.356 . S
O41 C39 1.282 . S
C42 O43 1.306 . S
C42 O45 1.160 . S
O43 C42 1.306 . S
O43 Cd44 2.228 . S
Cd44 O43 2.228 . S
Cd44 O48 2.273 . S
Cd44 O52 2.277 . S
O45 C42 1.160 . S
O45 Cd46 2.203 . S
Cd46 O45 2.203 . S
Cd46 O48 2.411 . S
Cd46 O49 2.333 . S
Cd46 O50 2.352 . S
Cd46 O54 2.277 . S
Cd46 O55 2.356 . S
C47 O52 1.209 . S
C47 O54 1.226 . S
O48 Cd44 2.273 . S
O48 Cd46 2.411 . S
O48 C51 1.320 . S
O49 Cd46 2.333 . S
O49 C51 1.214 . S
O50 Cd46 2.352 . S
O50 C53 1.258 . S
C51 O48 1.320 . S
C51 O49 1.214 . S
O52 Cd44 2.277 . S
O52 C47 1.209 . S
C53 O50 1.258 . S
C53 O55 1.282 . S
O54 Cd46 2.277 . S
O54 C47 1.226 . S
O55 Cd46 2.356 . S
O55 C53 1.282 . S
C56 O57 1.306 . S
C56 O59 1.160 . S
O57 C56 1.306 . S
O57 Cd58 2.228 . S
Cd58 O57 2.228 . S
Cd58 O62 2.273 . S
Cd58 O66 2.277 . S
O59 C56 1.160 . S
O59 Cd60 2.203 . S
Cd60 O59 2.203 . S
Cd60 O62 2.411 . S
Cd60 O63 2.333 . S
Cd60 O64 2.352 . S
Cd60 O68 2.277 . S
Cd60 O69 2.356 . S
C61 O66 1.209 . S
C61 O68 1.226 . S
O62 Cd58 2.273 . S
O62 Cd60 2.411 . S
O62 C65 1.320 . S
O63 Cd60 2.333 . S
O63 C65 1.214 . S
O64 Cd60 2.352 . S
O64 C67 1.258 . S
C65 O62 1.320 . S
C65 O63 1.214 . S
O66 Cd58 2.277 . S
O66 C61 1.209 . S
C67 O64 1.258 . S
C67 O69 1.282 . S
O68 Cd60 2.277 . S
O68 C61 1.226 . S
O69 Cd60 2.356 . S
O69 C67 1.282 . S
C70 O71 1.306 . S
C70 O73 1.160 . S
O71 C70 1.306 . S
O71 Cd72 2.228 . S
Cd72 O71 2.228 . S
Cd72 O76 2.273 . S
Cd72 O80 2.277 . S
O73 C70 1.160 . S
O73 Cd74 2.203 . S
Cd74 O73 2.203 . S
Cd74 O76 2.411 . S
Cd74 O77 2.333 . S
Cd74 O78 2.352 . S
Cd74 O82 2.277 . S
Cd74 O83 2.356 . S
C75 O80 1.209 . S
C75 O82 1.226 . S
O76 Cd72 2.273 . S
O76 Cd74 2.411 . S
O76 C79 1.320 . S
O77 Cd74 2.333 . S
O77 C79 1.214 . S
O78 Cd74 2.352 . S
O78 C81 1.258 . S
C79 O76 1.320 . S
C79 O77 1.214 . S
O80 Cd72 2.277 . S
O80 C75 1.209 . S
C81 O78 1.258 . S
C81 O83 1.282 . S
O82 Cd74 2.277 . S
O82 C75 1.226 . S
O83 Cd74 2.356 . S
O83 C81 1.282 . S
C84 O85 1.306 . S
C84 O87 1.160 . S
O85 C84 1.306 . S
O85 Cd86 2.228 . S
Cd86 O85 2.228 . S
Cd86 O90 2.273 . S
Cd86 O94 2.277 . S
O87 C84 1.160 . S
O87 Cd88 2.203 . S
Cd88 O87 2.203 . S
Cd88 O90 2.411 . S
Cd88 O91 2.333 . S
Cd88 O92 2.352 . S
Cd88 O96 2.277 . S
Cd88 O97 2.356 . S
C89 O94 1.209 . S
C89 O96 1.226 . S
O90 Cd86 2.273 . S
O90 Cd88 2.411 . S
O90 C93 1.320 . S
O91 Cd88 2.333 . S
O91 C93 1.214 . S
O92 Cd88 2.352 . S
O92 C95 1.258 . S
C93 O90 1.320 . S
C93 O91 1.214 . S
O94 Cd86 2.277 . S
O94 C89 1.209 . S
C95 O92 1.258 . S
C95 O97 1.282 . S
O96 Cd88 2.277 . S
O96 C89 1.226 . S
O97 Cd88 2.356 . S
O97 C95 1.282 . S
C98 O99 1.306 . S
C98 O101 1.160 . S
O99 C98 1.306 . S
O99 Cd100 2.228 1_655 S
Cd100 O99 2.228 1_455 S
Cd100 O104 2.273 . S
Cd100 O108 2.277 . S
O101 C98 1.160 . S
O101 Cd102 2.203 1_655 S
Cd102 O101 2.203 1_455 S
Cd102 O104 2.411 . S
Cd102 O105 2.333 . S
Cd102 O106 2.352 . S
Cd102 O110 2.277 . S
Cd102 O111 2.356 . S
C103 O108 1.209 . S
C103 O110 1.226 . S
O104 Cd100 2.273 . S
O104 Cd102 2.411 . S
O104 C107 1.320 . S
O105 Cd102 2.333 . S
O105 C107 1.214 . S
O106 Cd102 2.352 . S
O106 C109 1.258 . S
C107 O104 1.320 . S
C107 O105 1.214 . S
O108 Cd100 2.277 . S
O108 C103 1.209 . S
C109 O106 1.258 . S
C109 O111 1.282 . S
O110 Cd102 2.277 . S
O110 C103 1.226 . S
O111 Cd102 2.356 . S
O111 C109 1.282 . S
C112 O113 1.306 1_545 S
C112 O115 1.160 . S
O113 C112 1.306 1_565 S
O113 Cd114 2.228 . S
Cd114 O113 2.228 . S
Cd114 O118 2.273 1_565 S
Cd114 O122 2.277 . S
O115 C112 1.160 . S
O115 Cd116 2.203 . S
Cd116 O115 2.203 . S
Cd116 O118 2.411 . S
Cd116 O119 2.333 1_545 S
Cd116 O120 2.352 . S
Cd116 O124 2.277 1_545 S
Cd116 O125 2.356 . S
C117 O122 1.209 . S
C117 O124 1.226 . S
O118 Cd114 2.273 1_545 S
O118 Cd116 2.411 . S
O118 C121 1.320 1_545 S
O119 Cd116 2.333 1_565 S
O119 C121 1.214 . S
O120 Cd116 2.352 . S
O120 C123 1.258 . S
C121 O118 1.320 1_565 S
C121 O119 1.214 . S
O122 Cd114 2.277 . S
O122 C117 1.209 . S
C123 O120 1.258 . S
C123 O125 1.282 . S
O124 Cd116 2.277 1_565 S
O124 C117 1.226 . S
O125 Cd116 2.356 . S
O125 C123 1.282 . S
C126 O127 1.306 . S
C126 O129 1.160 . S
O127 C126 1.306 . S
O127 Cd128 2.228 . S
Cd128 O127 2.228 . S
Cd128 O132 2.273 . S
Cd128 O136 2.277 . S
O129 C126 1.160 . S
O129 Cd130 2.203 . S
Cd130 O129 2.203 . S
Cd130 O132 2.411 . S
Cd130 O133 2.333 . S
Cd130 O134 2.352 . S
Cd130 O138 2.277 . S
Cd130 O139 2.356 . S
C131 O136 1.209 . S
C131 O138 1.226 . S
O132 Cd128 2.273 . S
O132 Cd130 2.411 . S
O132 C135 1.320 . S
O133 Cd130 2.333 . S
O133 C135 1.214 . S
O134 Cd130 2.352 . S
O134 C137 1.258 . S
C135 O132 1.320 . S
C135 O133 1.214 . S
O136 Cd128 2.277 . S
O136 C131 1.209 . S
C137 O134 1.258 . S
C137 O139 1.282 . S
O138 Cd130 2.277 . S
O138 C131 1.226 . S
O139 Cd130 2.356 . S
O139 C137 1.282 . S
C140 O141 1.306 . S
C140 O143 1.160 . S
O141 C140 1.306 . S
O141 Cd142 2.228 . S
Cd142 O141 2.228 . S
Cd142 O146 2.273 . S
Cd142 O150 2.277 . S
O143 C140 1.160 . S
O143 Cd144 2.203 . S
Cd144 O143 2.203 . S
Cd144 O146 2.411 . S
Cd144 O147 2.333 . S
Cd144 O148 2.352 1_545 S
Cd144 O152 2.277 . S
Cd144 O153 2.356 1_545 S
C145 O150 1.209 . S
C145 O152 1.226 . S
O146 Cd142 2.273 . S
O146 Cd144 2.411 . S
O146 C149 1.320 . S
O147 Cd144 2.333 . S
O147 C149 1.214 . S
O148 Cd144 2.352 1_565 S
O148 C151 1.258 . S
C149 O146 1.320 . S
C149 O147 1.214 . S
O150 Cd142 2.277 . S
O150 C145 1.209 . S
C151 O148 1.258 . S
C151 O153 1.282 . S
O152 Cd144 2.277 . S
O152 C145 1.226 . S
O153 Cd144 2.356 1_565 S
O153 C151 1.282 . S
C154 O155 1.306 1_564 S
C154 O157 1.160 . S
O155 C154 1.306 1_546 S
O155 Cd156 2.219 . S
Cd156 O155 2.219 . S
Cd156 O160 2.264 1_546 S
Cd156 O164 2.251 1_545 S
O157 C154 1.160 . S
O157 Cd158 2.203 . S
Cd158 O157 2.203 . S
Cd158 O160 2.411 . S
Cd158 O161 2.333 . S
Cd158 O162 2.352 . S
Cd158 O166 2.277 1_554 S
Cd158 O167 2.356 . S
C159 O164 1.209 . S
C159 O166 1.226 . S
O160 Cd156 2.264 1_564 S
O160 Cd158 2.411 . S
O160 C163 1.318 . S
O161 Cd158 2.333 . S
O161 C163 1.218 . S
O162 Cd158 2.352 . S
O162 C165 1.258 . S
C163 O160 1.318 . S
C163 O161 1.218 . S
O164 Cd156 2.251 1_565 S
O164 C159 1.209 . S
C165 O162 1.258 . S
C165 O167 1.282 . S
O166 Cd158 2.277 1_556 S
O166 C159 1.226 . S
O167 Cd158 2.356 . S
O167 C165 1.282 . S
C168 O169 1.306 . S
C168 O171 1.160 . S
O169 C168 1.306 . S
O169 Cd170 2.228 1_554 S
Cd170 O169 2.228 1_556 S
Cd170 O174 2.273 1_556 S
Cd170 O178 2.277 . S
O171 C168 1.160 . S
O171 Cd172 2.203 . S
Cd172 O171 2.203 . S
Cd172 O174 2.411 . S
Cd172 O175 2.333 . S
Cd172 O176 2.352 . S
Cd172 O180 2.277 1_554 S
Cd172 O181 2.356 . S
C173 O178 1.209 . S
C173 O180 1.226 . S
O174 Cd170 2.273 1_554 S
O174 Cd172 2.411 . S
O174 C177 1.320 . S
O175 Cd172 2.333 . S
O175 C177 1.214 . S
O176 Cd172 2.352 . S
O176 C179 1.258 . S
C177 O174 1.320 . S
C177 O175 1.214 . S
O178 Cd170 2.277 . S
O178 C173 1.209 . S
C179 O176 1.258 . S
C179 O181 1.282 . S
O180 Cd172 2.277 1_556 S
O180 C173 1.226 . S
O181 Cd172 2.356 . S
O181 C179 1.282 . S
C182 O183 1.306 . S
C182 O185 1.160 . S
O183 C182 1.306 . S
O183 Cd184 2.228 . S
Cd184 O183 2.228 . S
Cd184 O188 2.273 . S
Cd184 O192 2.277 . S
O185 C182 1.160 . S
O185 Cd186 2.203 . S
Cd186 O185 2.203 . S
Cd186 O188 2.411 . S
Cd186 O189 2.333 . S
Cd186 O190 2.352 1_554 S
Cd186 O194 2.277 . S
Cd186 O195 2.356 . S
C187 O192 1.209 . S
C187 O194 1.226 . S
O188 Cd184 2.273 . S
O188 Cd186 2.411 . S
O188 C191 1.320 . S
O189 Cd186 2.333 . S
O189 C191 1.214 . S
O190 Cd186 2.352 1_556 S
O190 C193 1.258 . S
C191 O188 1.320 . S
C191 O189 1.214 . S
O192 Cd184 2.277 . S
O192 C187 1.209 . S
C193 O190 1.258 . S
C193 O195 1.282 1_556 S
O194 Cd186 2.277 . S
O194 C187 1.226 . S
O195 Cd186 2.356 . S
O195 C193 1.282 1_554 S
C196 O197 1.306 . S
C196 O199 1.160 . S
O197 C196 1.306 . S
O197 Cd198 2.228 . S
Cd198 O197 2.228 . S
Cd198 O202 2.273 . S
Cd198 O206 2.277 . S
O199 C196 1.160 . S
O199 Cd200 2.203 . S
Cd200 O199 2.203 . S
Cd200 O202 2.411 . S
Cd200 O203 2.333 . S
Cd200 O204 2.352 . S
Cd200 O208 2.277 . S
Cd200 O209 2.356 . S
C201 O206 1.209 . S
C201 O208 1.226 . S
O202 Cd198 2.273 . S
O202 Cd200 2.411 . S
O202 C205 1.320 . S
O203 Cd200 2.333 . S
O203 C205 1.214 . S
O204 Cd200 2.352 . S
O204 C207 1.258 . S
C205 O202 1.320 . S
C205 O203 1.214 . S
O206 Cd198 2.277 . S
O206 C201 1.209 . S
C207 O204 1.258 . S
C207 O209 1.282 . S
O208 Cd200 2.277 . S
O208 C201 1.226 . S
O209 Cd200 2.356 . S
O209 C207 1.282 . S
C210 O211 1.306 . S
C210 O213 1.160 . S
O211 C210 1.306 . S
O211 Cd212 2.228 . S
Cd212 O211 2.228 . S
Cd212 O216 2.273 . S
Cd212 O220 2.277 . S
O213 C210 1.160 . S
O213 Cd214 2.203 . S
Cd214 O213 2.203 . S
Cd214 O216 2.411 . S
Cd214 O217 2.333 . S
Cd214 O218 2.352 . S
Cd214 O222 2.277 . S
Cd214 O223 2.356 . S
C215 O220 1.209 . S
C215 O222 1.226 . S
O216 Cd212 2.273 . S
O216 Cd214 2.411 . S
O216 C219 1.320 . S
O217 Cd214 2.333 . S
O217 C219 1.214 . S
O218 Cd214 2.352 . S
O218 C221 1.258 . S
C219 O216 1.320 . S
C219 O217 1.214 . S
O220 Cd212 2.277 . S
O220 C215 1.209 . S
C221 O218 1.258 . S
C221 O223 1.282 . S
O222 Cd214 2.277 . S
O222 C215 1.226 . S
O223 Cd214 2.356 . S
O223 C221 1.282 . S
C224 O225 1.306 1_655 S
C224 O227 1.160 . S
O225 C224 1.306 1_455 S
O225 Cd226 2.228 . S
Cd226 O225 2.228 . S
Cd226 O230 2.273 1_455 S
Cd226 O234 2.277 1_455 S
O227 C224 1.160 . S
O227 Cd228 2.203 . S
Cd228 O227 2.203 . S
Cd228 O230 2.411 . S
Cd228 O231 2.333 . S
Cd228 O232 2.352 . S
Cd228 O236 2.277 . S
Cd228 O237 2.356 . S
C229 O234 1.209 . S
C229 O236 1.226 . S
O230 Cd226 2.273 1_655 S
O230 Cd228 2.411 . S
O230 C233 1.320 . S
O231 Cd228 2.333 . S
O231 C233 1.214 . S
O232 Cd228 2.352 . S
O232 C235 1.258 . S
C233 O230 1.320 . S
C233 O231 1.214 . S
O234 Cd226 2.277 1_655 S
O234 C229 1.209 . S
C235 O232 1.258 . S
C235 O237 1.282 . S
O236 Cd228 2.277 . S
O236 C229 1.226 . S
O237 Cd228 2.356 . S
O237 C235 1.282 . S
C238 O239 1.306 . S
C238 O241 1.160 . S
O239 C238 1.306 . S
O239 Cd240 2.228 . S
Cd240 O239 2.228 . S
Cd240 O244 2.273 . S
Cd240 O248 2.277 . S
O241 C238 1.160 . S
O241 Cd242 2.203 . S
Cd242 O241 2.203 . S
Cd242 O244 2.411 . S
Cd242 O245 2.333 . S
Cd242 O246 2.352 . S
Cd242 O250 2.277 . S
Cd242 O251 2.356 . S
C243 O248 1.209 . S
C243 O250 1.226 . S
O244 Cd240 2.273 . S
O244 Cd242 2.411 . S
O244 C247 1.320 . S
O245 Cd242 2.333 . S
O245 C247 1.214 . S
O246 Cd242 2.352 . S
O246 C249 1.258 . S
C247 O244 1.320 . S
C247 O245 1.214 . S
O248 Cd240 2.277 . S
O248 C243 1.209 . S
C249 O246 1.258 . S
C249 O251 1.282 . S
O250 Cd242 2.277 . S
O250 C243 1.226 . S
O251 Cd242 2.356 . S
O251 C249 1.282 . S
C252 O253 1.306 . S
C252 O255 1.160 . S
O253 C252 1.306 . S
O253 Cd254 2.228 . S
Cd254 O253 2.228 . S
Cd254 O258 2.273 . S
Cd254 O262 2.277 . S
O255 C252 1.160 . S
O255 Cd256 2.203 . S
Cd256 O255 2.203 . S
Cd256 O258 2.411 . S
Cd256 O259 2.333 . S
Cd256 O260 2.352 . S
Cd256 O264 2.277 . S
Cd256 O265 2.356 . S
C257 O262 1.209 . S
C257 O264 1.226 . S
O258 Cd254 2.273 . S
O258 Cd256 2.411 . S
O258 C261 1.320 . S
O259 Cd256 2.333 . S
O259 C261 1.214 . S
O260 Cd256 2.352 . S
O260 C263 1.258 . S
C261 O258 1.320 . S
C261 O259 1.214 . S
O262 Cd254 2.277 . S
O262 C257 1.209 . S
C263 O260 1.258 . S
C263 O265 1.282 . S
O264 Cd256 2.277 . S
O264 C257 1.226 . S
O265 Cd256 2.356 . S
O265 C263 1.282 . S
C266 O267 1.306 . S
C266 O269 1.160 . S
O267 C266 1.306 . S
O267 Cd268 2.228 . S
Cd268 O267 2.228 . S
Cd268 O272 2.273 . S
Cd268 O276 2.277 . S
O269 C266 1.160 . S
O269 Cd270 2.203 . S
Cd270 O269 2.203 . S
Cd270 O272 2.411 . S
Cd270 O273 2.333 . S
Cd270 O274 2.352 . S
Cd270 O278 2.277 . S
Cd270 O279 2.356 . S
C271 O276 1.209 . S
C271 O278 1.226 . S
O272 Cd268 2.273 . S
O272 Cd270 2.411 . S
O272 C275 1.320 . S
O273 Cd270 2.333 . S
O273 C275 1.214 . S
O274 Cd270 2.352 . S
O274 C277 1.258 . S
C275 O272 1.320 . S
C275 O273 1.214 . S
O276 Cd268 2.277 . S
O276 C271 1.209 . S
C277 O274 1.258 . S
C277 O279 1.282 . S
O278 Cd270 2.277 . S
O278 C271 1.226 . S
O279 Cd270 2.356 . S
O279 C277 1.282 . S
C280 O281 1.306 . S
C280 O283 1.160 . S
O281 C280 1.306 . S
O281 Cd282 2.228 . S
Cd282 O281 2.228 . S
Cd282 O286 2.273 . S
Cd282 O290 2.277 . S
O283 C280 1.160 . S
O283 Cd284 2.203 . S
Cd284 O283 2.203 . S
Cd284 O286 2.411 . S
Cd284 O287 2.331 . S
Cd284 O288 2.352 1_554 S
Cd284 O292 2.277 . S
Cd284 O293 2.356 1_554 S
C285 O290 1.209 . S
C285 O292 1.226 . S
O286 Cd282 2.273 . S
O286 Cd284 2.411 . S
O286 C289 1.321 . S
O287 Cd284 2.331 . S
O287 C289 1.217 . S
O288 Cd284 2.352 1_556 S
O288 C291 1.258 . S
C289 O286 1.321 . S
C289 O287 1.217 . S
O290 Cd282 2.277 . S
O290 C285 1.209 . S
C291 O288 1.258 . S
C291 O293 1.282 . S
O292 Cd284 2.277 . S
O292 C285 1.226 . S
O293 Cd284 2.356 1_556 S
O293 C291 1.282 . S
C294 O295 1.306 . S
C294 O297 1.160 . S
O295 C294 1.306 . S
O295 Cd296 2.228 . S
Cd296 O295 2.228 . S
Cd296 O300 2.273 . S
Cd296 O304 2.277 . S
O297 C294 1.160 . S
O297 Cd298 2.203 . S
Cd298 O297 2.203 . S
Cd298 O300 2.411 . S
Cd298 O301 2.333 . S
Cd298 O302 2.352 . S
Cd298 O306 2.277 . S
Cd298 O307 2.356 . S
C299 O304 1.209 . S
C299 O306 1.226 . S
O300 Cd296 2.273 . S
O300 Cd298 2.411 . S
O300 C303 1.320 . S
O301 Cd298 2.333 . S
O301 C303 1.214 . S
O302 Cd298 2.352 . S
O302 C305 1.258 . S
C303 O300 1.320 . S
C303 O301 1.214 . S
O304 Cd296 2.277 . S
O304 C299 1.209 . S
C305 O302 1.258 . S
C305 O307 1.282 . S
O306 Cd298 2.277 . S
O306 C299 1.226 . S
O307 Cd298 2.356 . S
O307 C305 1.282 . S
C308 O309 1.306 . S
C308 O311 1.160 . S
O309 C308 1.306 . S
O309 Cd310 2.228 . S
Cd310 O309 2.228 . S
Cd310 O314 2.273 . S
Cd310 O318 2.277 . S
O311 C308 1.160 . S
O311 Cd312 2.203 . S
Cd312 O311 2.203 . S
Cd312 O314 2.411 . S
Cd312 O315 2.333 . S
Cd312 O316 2.352 . S
Cd312 O320 2.277 . S
Cd312 O321 2.356 . S
C313 O318 1.209 . S
C313 O320 1.226 . S
O314 Cd310 2.273 . S
O314 Cd312 2.411 . S
O314 C317 1.320 . S
O315 Cd312 2.333 . S
O315 C317 1.214 . S
O316 Cd312 2.352 . S
O316 C319 1.258 . S
C317 O314 1.320 . S
C317 O315 1.214 . S
O318 Cd310 2.277 . S
O318 C313 1.209 . S
C319 O316 1.258 . S
C319 O321 1.282 . S
O320 Cd312 2.277 . S
O320 C313 1.226 . S
O321 Cd312 2.356 . S
O321 C319 1.282 . S
C322 O323 1.306 . S
C322 O325 1.160 . S
O323 C322 1.306 . S
O323 Cd324 2.228 . S
Cd324 O323 2.228 . S
Cd324 O328 2.273 . S
Cd324 O332 2.277 . S
O325 C322 1.160 . S
O325 Cd326 2.203 . S
Cd326 O325 2.203 . S
Cd326 O328 2.411 . S
Cd326 O329 2.333 . S
Cd326 O330 2.352 . S
Cd326 O334 2.277 . S
Cd326 O335 2.356 . S
C327 O332 1.209 . S
C327 O334 1.226 . S
O328 Cd324 2.273 . S
O328 Cd326 2.411 . S
O328 C331 1.320 . S
O329 Cd326 2.333 . S
O329 C331 1.214 . S
O330 Cd326 2.352 . S
O330 C333 1.258 . S
C331 O328 1.320 . S
C331 O329 1.214 . S
O332 Cd324 2.277 . S
O332 C327 1.209 . S
C333 O330 1.258 . S
C333 O335 1.282 . S
O334 Cd326 2.277 . S
O334 C327 1.226 . S
O335 Cd326 2.356 . S
O335 C333 1.282 . S
La336 C338 2.926 1_454 S
La336 O356 2.511 1_454 S
La336 O357 2.633 1_455 S
La336 O358 2.536 1_554 S
La336 O359 2.750 1_554 S
La336 O360 2.463 1_554 S
La336 O365 2.496 . S
La336 O367 2.510 1_545 S
La337 C347 2.928 . S
La337 O359 2.482 1_554 S
La337 O361 2.503 . S
La337 O362 2.521 . S
La337 O363 2.628 . S
La337 O364 2.554 . S
La337 O365 2.757 . S
La337 O366 2.470 . S
C338 La336 2.926 1_656 S
C338 C339 1.503 . S
C338 O356 1.261 . S
C338 O357 1.243 1_556 S
C339 C338 1.503 . S
C339 C340 1.394 . S
C339 C344 1.373 1_556 S
C340 C339 1.394 . S
C340 C341 1.380 . S
C340 H368 0.930 . S
C341 C340 1.380 . S
C341 C342 1.376 . S
C341 H369 0.930 . S
C342 C341 1.376 . S
C342 C343 1.370 . S
C343 C342 1.370 . S
C343 C344 1.396 1_556 S
C343 H370 0.929 1_556 S
C344 C339 1.373 1_554 S
C344 C343 1.396 1_554 S
C344 H371 0.929 . S
C345 O358 1.240 . S
C345 O359 1.289 . S
C346 O360 1.258 1_554 S
C346 O361 1.256 . S
C347 La337 2.928 . S
C347 C348 1.503 . S
C347 O362 1.261 . S
C347 O363 1.243 . S
C348 C347 1.503 . S
C348 C349 1.394 . S
C348 C353 1.373 . S
C349 C348 1.394 . S
C349 C350 1.380 . S
C349 H372 0.930 . S
C350 C349 1.380 . S
C350 C351 1.376 . S
C350 H373 0.930 . S
C351 C350 1.376 . S
C351 C352 1.370 . S
C352 C351 1.370 . S
C352 C353 1.396 . S
C352 H374 0.929 1_545 S
C353 C348 1.373 . S
C353 C352 1.396 . S
C353 H375 0.929 . S
C354 O364 1.240 . S
C354 O365 1.289 . S
C355 O366 1.258 1_565 S
C355 O367 1.256 . S
O356 La336 2.511 1_656 S
O356 C338 1.261 . S
O357 La336 2.633 1_655 S
O357 C338 1.243 1_554 S
O358 La336 2.536 1_556 S
O358 C345 1.240 . S
O359 La336 2.750 1_556 S
O359 La337 2.482 1_556 S
O359 C345 1.289 . S
O360 La336 2.463 1_556 S
O360 C346 1.258 1_556 S
O361 La337 2.503 . S
O361 C346 1.256 . S
O362 La337 2.521 . S
O362 C347 1.261 . S
O363 La337 2.628 . S
O363 C347 1.243 . S
O364 La337 2.554 . S
O364 C354 1.240 . S
O365 La336 2.496 . S
O365 La337 2.757 . S
O365 C354 1.289 . S
O366 La337 2.470 . S
O366 C355 1.258 1_545 S
O367 La336 2.510 1_565 S
O367 C355 1.256 . S
H368 C340 0.930 . S
H369 C341 0.930 . S
H370 C343 0.929 1_554 S
H371 C344 0.929 . S
H372 C349 0.930 . S
H373 C350 0.930 . S
H374 C352 0.929 1_565 S
H375 C353 0.929 . S
La376 C378 2.928 . S
La376 O396 2.521 . S
La376 O397 2.628 . S
La376 O398 2.554 . S
La376 O399 2.757 . S
La376 O400 2.470 . S
La376 O405 2.482 . S
La376 O407 2.503 . S
La377 C387 2.928 . S
La377 O399 2.482 . S
La377 O401 2.503 . S
La377 O402 2.521 . S
La377 O403 2.628 . S
La377 O404 2.554 . S
La377 O405 2.757 . S
La377 O406 2.470 . S
C378 La376 2.928 . S
C378 C379 1.503 . S
C378 O396 1.261 . S
C378 O397 1.243 . S
C379 C378 1.503 . S
C379 C380 1.394 . S
C379 C384 1.373 . S
C380 C379 1.394 . S
C380 C381 1.380 . S
C380 H408 0.930 . S
C381 C380 1.380 . S
C381 C382 1.376 . S
C381 H409 0.930 . S
C382 C381 1.376 . S
C382 C383 1.370 . S
C383 C382 1.370 . S
C383 C384 1.396 . S
C383 H410 0.929 . S
C384 C379 1.373 . S
C384 C383 1.396 . S
C384 H411 0.929 . S
C385 O398 1.240 . S
C385 O399 1.289 . S
C386 O400 1.258 . S
C386 O401 1.256 . S
C387 La377 2.928 . S
C387 C388 1.503 . S
C387 O402 1.261 . S
C387 O403 1.243 . S
C388 C387 1.503 . S
C388 C389 1.394 . S
C388 C393 1.373 . S
C389 C388 1.394 . S
C389 C390 1.380 . S
C389 H412 0.930 . S
C390 C389 1.380 . S
C390 C391 1.376 . S
C390 H413 0.930 . S
C391 C390 1.376 . S
C391 C392 1.370 . S
C392 C391 1.370 . S
C392 C393 1.396 . S
C392 H414 0.929 . S
C393 C388 1.373 . S
C393 C392 1.396 . S
C393 H415 0.929 . S
C394 O404 1.240 . S
C394 O405 1.289 . S
C395 O406 1.258 . S
C395 O407 1.256 . S
O396 La376 2.521 . S
O396 C378 1.261 . S
O397 La376 2.628 . S
O397 C378 1.243 . S
O398 La376 2.554 . S
O398 C385 1.240 . S
O399 La376 2.757 . S
O399 La377 2.482 . S
O399 C385 1.289 . S
O400 La376 2.470 . S
O400 C386 1.258 . S
O401 La377 2.503 . S
O401 C386 1.256 . S
O402 La377 2.521 . S
O402 C387 1.261 . S
O403 La377 2.628 . S
O403 C387 1.243 . S
O404 La377 2.554 . S
O404 C394 1.240 . S
O405 La376 2.482 . S
O405 La377 2.757 . S
O405 C394 1.289 . S
O406 La377 2.470 . S
O406 C395 1.258 . S
O407 La376 2.503 . S
O407 C395 1.256 . S
H408 C380 0.930 . S
H409 C381 0.930 . S
H410 C383 0.929 . S
H411 C384 0.929 . S
H412 C389 0.930 . S
H413 C390 0.930 . S
H414 C392 0.929 . S
H415 C393 0.929 . S
La416 C418 2.928 . S
La416 O436 2.521 . S
La416 O437 2.628 . S
La416 O438 2.554 . S
La416 O439 2.757 . S
La416 O440 2.470 1_545 S
La416 O445 2.482 . S
La416 O447 2.503 . S
La417 C427 2.928 . S
La417 O439 2.482 . S
La417 O441 2.503 1_545 S
La417 O442 2.521 . S
La417 O443 2.628 . S
La417 O444 2.554 . S
La417 O445 2.757 . S
La417 O446 2.470 . S
C418 La416 2.928 . S
C418 C419 1.503 1_545 S
C418 O436 1.261 . S
C418 O437 1.243 . S
C419 C418 1.503 1_565 S
C419 C420 1.394 . S
C419 C424 1.373 . S
C420 C419 1.394 . S
C420 C421 1.380 . S
C420 H448 0.926 1_565 S
C421 C420 1.380 . S
C421 C422 1.376 . S
C421 H449 0.930 . S
C422 C421 1.376 . S
C422 C423 1.370 . S
C423 C422 1.370 . S
C423 C424 1.396 . S
C423 H450 0.929 . S
C424 C419 1.373 . S
C424 C423 1.396 . S
C424 H451 0.929 . S
C425 O438 1.240 . S
C425 O439 1.289 . S
C426 O440 1.258 . S
C426 O441 1.256 . S
C427 La417 2.928 . S
C427 C428 1.503 . S
C427 O442 1.261 . S
C427 O443 1.243 . S
C428 C427 1.503 . S
C428 C429 1.394 . S
C428 C433 1.373 . S
C429 C428 1.394 . S
C429 C430 1.380 . S
C429 H452 0.930 . S
C430 C429 1.380 . S
C430 C431 1.376 . S
C430 H453 0.930 . S
C431 C430 1.376 . S
C431 C432 1.370 . S
C432 C431 1.370 . S
C432 C433 1.396 . S
C432 H454 0.929 . S
C433 C428 1.373 . S
C433 C432 1.396 . S
C433 H455 0.929 . S
C434 O444 1.240 . S
C434 O445 1.289 . S
C435 O446 1.258 . S
C435 O447 1.256 . S
O436 La416 2.521 . S
O436 C418 1.261 . S
O437 La416 2.628 . S
O437 C418 1.243 . S
O438 La416 2.554 . S
O438 C425 1.240 . S
O439 La416 2.757 . S
O439 La417 2.482 . S
O439 C425 1.289 . S
O440 La416 2.470 1_565 S
O440 C426 1.258 . S
O441 La417 2.503 1_565 S
O441 C426 1.256 . S
O442 La417 2.521 . S
O442 C427 1.261 . S
O443 La417 2.628 . S
O443 C427 1.243 . S
O444 La417 2.554 . S
O444 C434 1.240 . S
O445 La416 2.482 . S
O445 La417 2.757 . S
O445 C434 1.289 . S
O446 La417 2.470 . S
O446 C435 1.258 . S
O447 La416 2.503 . S
O447 C435 1.256 . S
H448 C420 0.926 1_545 S
H449 C421 0.930 . S
H450 C423 0.929 . S
H451 C424 0.929 . S
H452 C429 0.930 . S
H453 C430 0.930 . S
H454 C432 0.929 . S
H455 C433 0.929 . S
La456 C458 2.928 . S
La456 O476 2.521 . S
La456 O477 2.628 . S
La456 O478 2.554 . S
La456 O479 2.757 . S
La456 O480 2.470 . S
La456 O485 2.482 . S
La456 O487 2.503 . S
La457 C467 2.928 . S
La457 O479 2.482 . S
La457 O481 2.503 . S
La457 O482 2.521 . S
La457 O483 2.628 . S
La457 O484 2.554 . S
La457 O485 2.757 . S
La457 O486 2.470 . S
C458 La456 2.928 . S
C458 C459 1.503 . S
C458 O476 1.261 . S
C458 O477 1.243 . S
C459 C458 1.503 . S
C459 C460 1.394 . S
C459 C464 1.373 . S
C460 C459 1.394 . S
C460 C461 1.380 . S
C460 H488 0.930 . S
C461 C460 1.380 . S
C461 C462 1.376 . S
C461 H489 0.930 . S
C462 C461 1.376 . S
C462 C463 1.370 . S
C463 C462 1.370 . S
C463 C464 1.396 . S
C463 H490 0.929 . S
C464 C459 1.373 . S
C464 C463 1.396 . S
C464 H491 0.929 . S
C465 O478 1.240 . S
C465 O479 1.289 . S
C466 O480 1.258 . S
C466 O481 1.256 . S
C467 La457 2.928 . S
C467 C468 1.503 . S
C467 O482 1.261 . S
C467 O483 1.243 . S
C468 C467 1.503 . S
C468 C469 1.394 . S
C468 C473 1.373 . S
C469 C468 1.394 . S
C469 C470 1.380 . S
C469 H492 0.930 . S
C470 C469 1.380 . S
C470 C471 1.376 . S
C470 H493 0.930 . S
C471 C470 1.376 . S
C471 C472 1.370 . S
C472 C471 1.370 . S
C472 C473 1.396 . S
C472 H494 0.929 . S
C473 C468 1.373 . S
C473 C472 1.396 . S
C473 H495 0.929 . S
C474 O484 1.240 . S
C474 O485 1.289 . S
C475 O486 1.258 . S
C475 O487 1.256 . S
O476 La456 2.521 . S
O476 C458 1.261 . S
O477 La456 2.628 . S
O477 C458 1.243 . S
O478 La456 2.554 . S
O478 C465 1.240 . S
O479 La456 2.757 . S
O479 La457 2.482 . S
O479 C465 1.289 . S
O480 La456 2.470 . S
O480 C466 1.258 . S
O481 La457 2.503 . S
O481 C466 1.256 . S
O482 La457 2.521 . S
O482 C467 1.261 . S
O483 La457 2.628 . S
O483 C467 1.243 . S
O484 La457 2.554 . S
O484 C474 1.240 . S
O485 La456 2.482 . S
O485 La457 2.757 . S
O485 C474 1.289 . S
O486 La457 2.470 . S
O486 C475 1.258 . S
O487 La456 2.503 . S
O487 C475 1.256 . S
H488 C460 0.930 . S
H489 C461 0.930 . S
H490 C463 0.929 . S
H491 C464 0.929 . S
H492 C469 0.930 . S
H493 C470 0.930 . S
H494 C472 0.929 . S
H495 C473 0.929 . S
La496 C498 2.928 . S
La496 O516 2.521 . S
La496 O517 2.628 . S
La496 O518 2.554 . S
La496 O519 2.757 . S
La496 O520 2.470 . S
La496 O525 2.482 . S
La496 O527 2.503 . S
La497 C507 2.928 1_545 S
La497 O519 2.482 . S
La497 O521 2.503 . S
La497 O522 2.521 1_545 S
La497 O523 2.628 1_545 S
La497 O524 2.554 . S
La497 O525 2.757 . S
La497 O526 2.470 . S
C498 La496 2.928 . S
C498 C499 1.503 . S
C498 O516 1.261 . S
C498 O517 1.243 . S
C499 C498 1.503 . S
C499 C500 1.394 . S
C499 C504 1.373 . S
C500 C499 1.394 . S
C500 C501 1.380 . S
C500 H528 0.930 . S
C501 C500 1.380 . S
C501 C502 1.376 . S
C501 H529 0.930 . S
C502 C501 1.376 . S
C502 C503 1.370 . S
C503 C502 1.370 . S
C503 C504 1.396 . S
C503 H530 0.929 . S
C504 C499 1.373 . S
C504 C503 1.396 . S
C504 H531 0.929 . S
C505 O518 1.240 . S
C505 O519 1.289 . S
C506 O520 1.258 . S
C506 O521 1.256 . S
C507 La497 2.928 1_565 S
C507 C508 1.503 . S
C507 O522 1.261 . S
C507 O523 1.243 . S
C508 C507 1.503 . S
C508 C509 1.394 . S
C508 C513 1.373 . S
C509 C508 1.394 . S
C509 C510 1.380 . S
C509 H532 0.930 . S
C510 C509 1.380 . S
C510 C511 1.376 . S
C510 H533 0.930 . S
C511 C510 1.376 . S
C511 C512 1.370 . S
C512 C511 1.370 . S
C512 C513 1.396 . S
C512 H534 0.929 . S
C513 C508 1.373 . S
C513 C512 1.396 . S
C513 H535 0.929 . S
C514 O524 1.240 . S
C514 O525 1.289 . S
C515 O526 1.258 . S
C515 O527 1.256 . S
O516 La496 2.521 . S
O516 C498 1.261 . S
O517 La496 2.628 . S
O517 C498 1.243 . S
O518 La496 2.554 . S
O518 C505 1.240 . S
O519 La496 2.757 . S
O519 La497 2.482 . S
O519 C505 1.289 . S
O520 La496 2.470 . S
O520 C506 1.258 . S
O521 La497 2.503 . S
O521 C506 1.256 . S
O522 La497 2.521 1_565 S
O522 C507 1.261 . S
O523 La497 2.628 1_565 S
O523 C507 1.243 . S
O524 La497 2.554 . S
O524 C514 1.240 . S
O525 La496 2.482 . S
O525 La497 2.757 . S
O525 C514 1.289 . S
O526 La497 2.470 . S
O526 C515 1.258 . S
O527 La496 2.503 . S
O527 C515 1.256 . S
H528 C500 0.930 . S
H529 C501 0.930 . S
H530 C503 0.929 . S
H531 C504 0.929 . S
H532 C509 0.930 . S
H533 C510 0.930 . S
H534 C512 0.929 . S
H535 C513 0.929 . S
La536 C538 2.928 . S
La536 O556 2.521 . S
La536 O557 2.628 . S
La536 O558 2.554 . S
La536 O559 2.757 . S
La536 O560 2.470 . S
La536 O565 2.482 . S
La536 O567 2.503 . S
La537 C547 2.928 . S
La537 O559 2.482 . S
La537 O561 2.503 . S
La537 O562 2.521 . S
La537 O563 2.628 . S
La537 O564 2.554 . S
La537 O565 2.757 . S
La537 O566 2.470 . S
C538 La536 2.928 . S
C538 C539 1.503 . S
C538 O556 1.261 . S
C538 O557 1.243 . S
C539 C538 1.503 . S
C539 C540 1.394 . S
C539 C544 1.373 . S
C540 C539 1.394 . S
C540 C541 1.380 . S
C540 H568 0.930 . S
C541 C540 1.380 . S
C541 C542 1.376 . S
C541 H569 0.930 . S
C542 C541 1.376 . S
C542 C543 1.370 . S
C543 C542 1.370 . S
C543 C544 1.396 . S
C543 H570 0.929 . S
C544 C539 1.373 . S
C544 C543 1.396 . S
C544 H571 0.929 . S
C545 O558 1.240 . S
C545 O559 1.289 . S
C546 O560 1.258 . S
C546 O561 1.256 . S
C547 La537 2.928 . S
C547 C548 1.503 . S
C547 O562 1.261 . S
C547 O563 1.243 . S
C548 C547 1.503 . S
C548 C549 1.394 . S
C548 C553 1.373 . S
C549 C548 1.394 . S
C549 C550 1.380 . S
C549 H572 0.930 . S
C550 C549 1.380 . S
C550 C551 1.376 . S
C550 H573 0.930 . S
C551 C550 1.376 . S
C551 C552 1.370 . S
C552 C551 1.370 . S
C552 C553 1.396 . S
C552 H574 0.929 . S
C553 C548 1.373 . S
C553 C552 1.396 . S
C553 H575 0.929 . S
C554 O564 1.240 . S
C554 O565 1.289 . S
C555 O566 1.258 . S
C555 O567 1.256 . S
O556 La536 2.521 . S
O556 C538 1.261 . S
O557 La536 2.628 . S
O557 C538 1.243 . S
O558 La536 2.554 . S
O558 C545 1.240 . S
O559 La536 2.757 . S
O559 La537 2.482 . S
O559 C545 1.289 . S
O560 La536 2.470 . S
O560 C546 1.258 . S
O561 La537 2.503 . S
O561 C546 1.256 . S
O562 La537 2.521 . S
O562 C547 1.261 . S
O563 La537 2.628 . S
O563 C547 1.243 . S
O564 La537 2.554 . S
O564 C554 1.240 . S
O565 La536 2.482 . S
O565 La537 2.757 . S
O565 C554 1.289 . S
O566 La537 2.470 . S
O566 C555 1.258 . S
O567 La536 2.503 . S
O567 C555 1.256 . S
H568 C540 0.930 . S
H569 C541 0.930 . S
H570 C543 0.929 . S
H571 C544 0.929 . S
H572 C549 0.930 . S
H573 C550 0.930 . S
H574 C552 0.929 . S
H575 C553 0.929 . S
La576 C578 2.928 . S
La576 O596 2.521 . S
La576 O597 2.628 . S
La576 O598 2.554 1_545 S
La576 O599 2.757 1_554 S
La576 O600 2.470 . S
La576 O605 2.482 . S
La576 O607 2.503 . S
La577 C587 2.928 . S
La577 O599 2.482 . S
La577 O601 2.503 . S
La577 O602 2.521 . S
La577 O603 2.628 . S
La577 O604 2.554 1_556 S
La577 O605 2.757 1_556 S
La577 O606 2.470 1_556 S
C578 La576 2.928 . S
C578 C579 1.503 . S
C578 O596 1.261 . S
C578 O597 1.243 . S
C579 C578 1.503 . S
C579 C580 1.394 1_545 S
C579 C584 1.373 . S
C580 C579 1.394 1_565 S
C580 C581 1.380 . S
C580 H608 0.930 . S
C581 C580 1.380 . S
C581 C582 1.376 . S
C581 H609 0.930 . S
C582 C581 1.376 . S
C582 C583 1.370 1_565 S
C583 C582 1.370 1_545 S
C583 C584 1.396 . S
C583 H610 0.929 . S
C584 C579 1.373 . S
C584 C583 1.396 . S
C584 H611 0.929 . S
C585 O598 1.240 . S
C585 O599 1.289 1_564 S
C586 O600 1.258 . S
C586 O601 1.256 1_554 S
C587 La577 2.928 . S
C587 C588 1.503 . S
C587 O602 1.261 . S
C587 O603 1.243 . S
C588 C587 1.503 . S
C588 C589 1.394 . S
C588 C593 1.373 . S
C589 C588 1.394 . S
C589 C590 1.380 . S
C589 H612 0.930 . S
C590 C589 1.380 . S
C590 C591 1.376 . S
C590 H613 0.930 . S
C591 C590 1.376 . S
C591 C592 1.370 . S
C592 C591 1.370 . S
C592 C593 1.396 . S
C592 H614 0.929 . S
C593 C588 1.373 . S
C593 C592 1.396 . S
C593 H615 0.929 . S
C594 O604 1.240 . S
C594 O605 1.289 . S
C595 O606 1.258 . S
C595 O607 1.256 . S
O596 La576 2.521 . S
O596 C578 1.261 . S
O597 La576 2.628 . S
O597 C578 1.243 . S
O598 La576 2.554 1_565 S
O598 C585 1.240 . S
O599 La576 2.757 1_556 S
O599 La577 2.482 . S
O599 C585 1.289 1_546 S
O600 La576 2.470 . S
O600 C586 1.258 . S
O601 La577 2.503 . S
O601 C586 1.256 1_556 S
O602 La577 2.521 . S
O602 C587 1.261 . S
O603 La577 2.628 . S
O603 C587 1.243 . S
O604 La577 2.554 1_554 S
O604 C594 1.240 . S
O605 La576 2.482 . S
O605 La577 2.757 1_554 S
O605 C594 1.289 . S
O606 La577 2.470 1_554 S
O606 C595 1.258 . S
O607 La576 2.503 . S
O607 C595 1.256 . S
H608 C580 0.930 . S
H609 C581 0.930 . S
H610 C583 0.929 . S
H611 C584 0.929 . S
H612 C589 0.930 . S
H613 C590 0.930 . S
H614 C592 0.929 . S
H615 C593 0.929 . S
La616 C618 2.928 . S
La616 O636 2.521 . S
La616 O637 2.628 . S
La616 O638 2.554 . S
La616 O639 2.757 . S
La616 O640 2.470 . S
La616 O645 2.482 . S
La616 O647 2.503 . S
La617 C627 2.928 . S
La617 O639 2.482 . S
La617 O641 2.503 . S
La617 O642 2.521 . S
La617 O643 2.628 . S
La617 O644 2.554 . S
La617 O645 2.757 . S
La617 O646 2.470 . S
C618 La616 2.928 . S
C618 C619 1.503 . S
C618 O636 1.261 . S
C618 O637 1.243 . S
C619 C618 1.503 . S
C619 C620 1.394 . S
C619 C624 1.373 . S
C620 C619 1.394 . S
C620 C621 1.380 . S
C620 H648 0.930 . S
C621 C620 1.380 . S
C621 C622 1.376 . S
C621 H649 0.930 . S
C622 C621 1.376 . S
C622 C623 1.370 . S
C623 C622 1.370 . S
C623 C624 1.396 . S
C623 H650 0.929 . S
C624 C619 1.373 . S
C624 C623 1.396 . S
C624 H651 0.929 . S
C625 O638 1.240 . S
C625 O639 1.289 . S
C626 O640 1.258 . S
C626 O641 1.256 . S
C627 La617 2.928 . S
C627 C628 1.503 . S
C627 O642 1.261 . S
C627 O643 1.243 . S
C628 C627 1.503 . S
C628 C629 1.394 . S
C628 C633 1.373 . S
C629 C628 1.394 . S
C629 C630 1.380 . S
C629 H652 0.930 . S
C630 C629 1.380 . S
C630 C631 1.376 . S
C630 H653 0.930 . S
C631 C630 1.376 . S
C631 C632 1.370 . S
C632 C631 1.370 . S
C632 C633 1.396 . S
C632 H654 0.929 . S
C633 C628 1.373 . S
C633 C632 1.396 . S
C633 H655 0.929 . S
C634 O644 1.240 . S
C634 O645 1.289 . S
C635 O646 1.258 . S
C635 O647 1.256 . S
O636 La616 2.521 . S
O636 C618 1.261 . S
O637 La616 2.628 . S
O637 C618 1.243 . S
O638 La616 2.554 . S
O638 C625 1.240 . S
O639 La616 2.757 . S
O639 La617 2.482 . S
O639 C625 1.289 . S
O640 La616 2.470 . S
O640 C626 1.258 . S
O641 La617 2.503 . S
O641 C626 1.256 . S
O642 La617 2.521 . S
O642 C627 1.261 . S
O643 La617 2.628 . S
O643 C627 1.243 . S
O644 La617 2.554 . S
O644 C634 1.240 . S
O645 La616 2.482 . S
O645 La617 2.757 . S
O645 C634 1.289 . S
O646 La617 2.470 . S
O646 C635 1.258 . S
O647 La616 2.503 . S
O647 C635 1.256 . S
H648 C620 0.930 . S
H649 C621 0.930 . S
H650 C623 0.929 . S
H651 C624 0.929 . S
H652 C629 0.930 . S
H653 C630 0.930 . S
H654 C632 0.929 . S
H655 C633 0.929 . S
La656 C658 2.928 . S
La656 O676 2.521 . S
La656 O677 2.628 . S
La656 O678 2.554 . S
La656 O679 2.757 . S
La656 O680 2.470 1_554 S
La656 O685 2.482 . S
La656 O687 2.503 . S
La657 C667 2.928 . S
La657 O679 2.482 . S
La657 O681 2.503 1_554 S
La657 O682 2.521 . S
La657 O683 2.628 . S
La657 O684 2.554 . S
La657 O685 2.757 . S
La657 O686 2.470 . S
C658 La656 2.928 . S
C658 C659 1.503 1_554 S
C658 O676 1.261 . S
C658 O677 1.243 . S
C659 C658 1.503 1_556 S
C659 C660 1.395 . S
C659 C664 1.373 . S
C660 C659 1.395 . S
C660 C661 1.383 . S
C660 H688 0.926 1_556 S
C661 C660 1.383 . S
C661 C662 1.376 . S
C661 H689 0.930 . S
C662 C661 1.376 . S
C662 C663 1.370 . S
C663 C662 1.370 . S
C663 C664 1.396 . S
C663 H690 0.929 . S
C664 C659 1.373 . S
C664 C663 1.396 . S
C664 H691 0.929 . S
C665 O678 1.240 . S
C665 O679 1.289 . S
C666 O680 1.258 . S
C666 O681 1.256 . S
C667 La657 2.928 . S
C667 C668 1.503 . S
C667 O682 1.261 . S
C667 O683 1.243 . S
C668 C667 1.503 . S
C668 C669 1.394 . S
C668 C673 1.373 . S
C669 C668 1.394 . S
C669 C670 1.380 . S
C669 H692 0.930 . S
C670 C669 1.380 . S
C670 C671 1.376 . S
C670 H693 0.930 . S
C671 C670 1.376 . S
C671 C672 1.370 . S
C672 C671 1.370 . S
C672 C673 1.396 . S
C672 H694 0.929 . S
C673 C668 1.373 . S
C673 C672 1.396 . S
C673 H695 0.929 . S
C674 O684 1.240 . S
C674 O685 1.289 . S
C675 O686 1.258 . S
C675 O687 1.256 . S
O676 La656 2.521 . S
O676 C658 1.261 . S
O677 La656 2.628 . S
O677 C658 1.243 . S
O678 La656 2.554 . S
O678 C665 1.240 . S
O679 La656 2.757 . S
O679 La657 2.482 . S
O679 C665 1.289 . S
O680 La656 2.470 1_556 S
O680 C666 1.258 . S
O681 La657 2.503 1_556 S
O681 C666 1.256 . S
O682 La657 2.521 . S
O682 C667 1.261 . S
O683 La657 2.628 . S
O683 C667 1.243 . S
O684 La657 2.554 . S
O684 C674 1.240 . S
O685 La656 2.482 . S
O685 La657 2.757 . S
O685 C674 1.289 . S
O686 La657 2.470 . S
O686 C675 1.258 . S
O687 La656 2.503 . S
O687 C675 1.256 . S
H688 C660 0.926 1_554 S
H689 C661 0.930 . S
H690 C663 0.929 . S
H691 C664 0.929 . S
H692 C669 0.930 . S
H693 C670 0.930 . S
H694 C672 0.929 . S
H695 C673 0.929 . S
La696 C698 2.928 . S
La696 O716 2.521 . S
La696 O717 2.628 . S
La696 O718 2.554 . S
La696 O719 2.757 . S
La696 O720 2.470 . S
La696 O725 2.482 . S
La696 O727 2.503 . S
La697 C707 2.928 . S
La697 O719 2.482 . S
La697 O721 2.503 . S
La697 O722 2.521 . S
La697 O723 2.628 . S
La697 O724 2.554 . S
La697 O725 2.757 . S
La697 O726 2.470 . S
C698 La696 2.928 . S
C698 C699 1.503 . S
C698 O716 1.261 . S
C698 O717 1.243 . S
C699 C698 1.503 . S
C699 C700 1.394 . S
C699 C704 1.373 . S
C700 C699 1.394 . S
C700 C701 1.380 . S
C700 H728 0.930 . S
C701 C700 1.380 . S
C701 C702 1.376 1_655 S
C701 H729 0.930 1_655 S
C702 C701 1.376 1_455 S
C702 C703 1.370 1_455 S
C703 C702 1.370 1_655 S
C703 C704 1.396 . S
C703 H730 0.929 . S
C704 C699 1.373 . S
C704 C703 1.396 . S
C704 H731 0.929 . S
C705 O718 1.240 . S
C705 O719 1.289 . S
C706 O720 1.258 . S
C706 O721 1.256 . S
C707 La697 2.928 . S
C707 C708 1.503 . S
C707 O722 1.261 . S
C707 O723 1.243 . S
C708 C707 1.503 . S
C708 C709 1.394 . S
C708 C713 1.373 . S
C709 C708 1.394 . S
C709 C710 1.380 . S
C709 H732 0.930 . S
C710 C709 1.380 . S
C710 C711 1.376 . S
C710 H733 0.930 . S
C711 C710 1.376 . S
C711 C712 1.370 . S
C712 C711 1.370 . S
C712 C713 1.396 . S
C712 H734 0.929 . S
C713 C708 1.373 . S
C713 C712 1.396 . S
C713 H735 0.929 . S
C714 O724 1.240 . S
C714 O725 1.289 . S
C715 O726 1.258 . S
C715 O727 1.256 . S
O716 La696 2.521 . S
O716 C698 1.261 . S
O717 La696 2.628 . S
O717 C698 1.243 . S
O718 La696 2.554 . S
O718 C705 1.240 . S
O719 La696 2.757 . S
O719 La697 2.482 . S
O719 C705 1.289 . S
O720 La696 2.470 . S
O720 C706 1.258 . S
O721 La697 2.503 . S
O721 C706 1.256 . S
O722 La697 2.521 . S
O722 C707 1.261 . S
O723 La697 2.628 . S
O723 C707 1.243 . S
O724 La697 2.554 . S
O724 C714 1.240 . S
O725 La696 2.482 . S
O725 La697 2.757 . S
O725 C714 1.289 . S
O726 La697 2.470 . S
O726 C715 1.258 . S
O727 La696 2.503 . S
O727 C715 1.256 . S
H728 C700 0.930 . S
H729 C701 0.930 1_455 S
H730 C703 0.929 . S
H731 C704 0.929 . S
H732 C709 0.930 . S
H733 C710 0.930 . S
H734 C712 0.929 . S
H735 C713 0.929 . S
La736 C738 2.928 . S
La736 O756 2.521 . S
La736 O757 2.628 . S
La736 O758 2.554 . S
La736 O759 2.757 . S
La736 O760 2.470 . S
La736 O765 2.482 . S
La736 O767 2.503 . S
La737 C747 2.928 . S
La737 O759 2.482 . S
La737 O761 2.503 . S
La737 O762 2.521 . S
La737 O763 2.628 . S
La737 O764 2.554 . S
La737 O765 2.757 . S
La737 O766 2.470 . S
C738 La736 2.928 . S
C738 C739 1.503 . S
C738 O756 1.261 . S
C738 O757 1.243 . S
C739 C738 1.503 . S
C739 C740 1.394 . S
C739 C744 1.373 . S
C740 C739 1.394 . S
C740 C741 1.380 . S
C740 H768 0.930 . S
C741 C740 1.380 . S
C741 C742 1.376 1_455 S
C741 H769 0.930 . S
C742 C741 1.376 1_655 S
C742 C743 1.370 . S
C743 C742 1.370 . S
C743 C744 1.396 1_655 S
C743 H770 0.929 . S
C744 C739 1.373 . S
C744 C743 1.396 1_455 S
C744 H771 0.943 . S
C745 O758 1.240 . S
C745 O759 1.289 . S
C746 O760 1.258 . S
C746 O761 1.256 . S
C747 La737 2.928 . S
C747 C748 1.503 . S
C747 O762 1.261 . S
C747 O763 1.243 . S
C748 C747 1.503 . S
C748 C749 1.394 . S
C748 C753 1.373 . S
C749 C748 1.394 . S
C749 C750 1.380 . S
C749 H772 0.930 . S
C750 C749 1.380 . S
C750 C751 1.376 . S
C750 H773 0.930 . S
C751 C750 1.376 . S
C751 C752 1.370 . S
C752 C751 1.370 . S
C752 C753 1.396 . S
C752 H774 0.929 . S
C753 C748 1.373 . S
C753 C752 1.396 . S
C753 H775 0.929 . S
C754 O764 1.240 . S
C754 O765 1.289 . S
C755 O766 1.258 . S
C755 O767 1.256 . S
O756 La736 2.521 . S
O756 C738 1.261 . S
O757 La736 2.628 . S
O757 C738 1.243 . S
O758 La736 2.554 . S
O758 C745 1.240 . S
O759 La736 2.757 . S
O759 La737 2.482 . S
O759 C745 1.289 . S
O760 La736 2.470 . S
O760 C746 1.258 . S
O761 La737 2.503 . S
O761 C746 1.256 . S
O762 La737 2.521 . S
O762 C747 1.261 . S
O763 La737 2.628 . S
O763 C747 1.243 . S
O764 La737 2.554 . S
O764 C754 1.240 . S
O765 La736 2.482 . S
O765 La737 2.757 . S
O765 C754 1.289 . S
O766 La737 2.470 . S
O766 C755 1.258 . S
O767 La736 2.503 . S
O767 C755 1.256 . S
H768 C740 0.930 . S
H769 C741 0.930 . S
H770 C743 0.929 . S
H771 C744 0.943 . S
H772 C749 0.930 . S
H773 C750 0.930 . S
H774 C752 0.929 . S
H775 C753 0.929 . S
La776 C778 2.928 . S
La776 O796 2.521 . S
La776 O797 2.628 . S
La776 O798 2.554 . S
La776 O799 2.757 . S
La776 O800 2.470 . S
La776 O805 2.482 . S
La776 O807 2.503 . S
La777 C787 2.928 . S
La777 O799 2.482 . S
La777 O801 2.503 . S
La777 O802 2.521 . S
La777 O803 2.628 . S
La777 O804 2.554 . S
La777 O805 2.757 . S
La777 O806 2.470 . S
C778 La776 2.928 . S
C778 C779 1.503 . S
C778 O796 1.261 . S
C778 O797 1.243 . S
C779 C778 1.503 . S
C779 C780 1.394 . S
C779 C784 1.373 . S
C780 C779 1.394 . S
C780 C781 1.380 . S
C780 H808 0.930 . S
C781 C780 1.380 . S
C781 C782 1.376 . S
C781 H809 0.930 . S
C782 C781 1.376 . S
C782 C783 1.370 . S
C783 C782 1.370 . S
C783 C784 1.396 . S
C783 H810 0.929 . S
C784 C779 1.373 . S
C784 C783 1.396 . S
C784 H811 0.929 . S
C785 O798 1.240 . S
C785 O799 1.289 . S
C786 O800 1.258 . S
C786 O801 1.256 . S
C787 La777 2.928 . S
C787 C788 1.503 . S
C787 O802 1.261 . S
C787 O803 1.243 . S
C788 C787 1.503 . S
C788 C789 1.394 . S
C788 C793 1.373 . S
C789 C788 1.394 . S
C789 C790 1.380 . S
C789 H812 0.930 . S
C790 C789 1.380 . S
C790 C791 1.376 . S
C790 H813 0.930 . S
C791 C790 1.376 . S
C791 C792 1.370 . S
C792 C791 1.370 . S
C792 C793 1.396 . S
C792 H814 0.929 . S
C793 C788 1.373 . S
C793 C792 1.396 . S
C793 H815 0.929 . S
C794 O804 1.240 . S
C794 O805 1.289 . S
C795 O806 1.258 . S
C795 O807 1.256 . S
O796 La776 2.521 . S
O796 C778 1.261 . S
O797 La776 2.628 . S
O797 C778 1.243 . S
O798 La776 2.554 . S
O798 C785 1.240 . S
O799 La776 2.757 . S
O799 La777 2.482 . S
O799 C785 1.289 . S
O800 La776 2.470 . S
O800 C786 1.258 . S
O801 La777 2.503 . S
O801 C786 1.256 . S
O802 La777 2.521 . S
O802 C787 1.261 . S
O803 La777 2.628 . S
O803 C787 1.243 . S
O804 La777 2.554 . S
O804 C794 1.240 . S
O805 La776 2.482 . S
O805 La777 2.757 . S
O805 C794 1.289 . S
O806 La777 2.470 . S
O806 C795 1.258 . S
O807 La776 2.503 . S
O807 C795 1.256 . S
H808 C780 0.930 . S
H809 C781 0.930 . S
H810 C783 0.929 . S
H811 C784 0.929 . S
H812 C789 0.930 . S
H813 C790 0.930 . S
H814 C792 0.929 . S
H815 C793 0.929 . S
La816 C818 2.928 . S
La816 O836 2.521 . S
La816 O837 2.628 . S
La816 O838 2.554 . S
La816 O839 2.757 . S
La816 O840 2.470 . S
La816 O845 2.482 . S
La816 O847 2.503 . S
La817 C827 2.928 . S
La817 O839 2.482 . S
La817 O841 2.503 . S
La817 O842 2.521 . S
La817 O843 2.628 . S
La817 O844 2.554 . S
La817 O845 2.757 . S
La817 O846 2.470 . S
C818 La816 2.928 . S
C818 C819 1.503 . S
C818 O836 1.261 . S
C818 O837 1.243 . S
C819 C818 1.503 . S
C819 C820 1.394 . S
C819 C824 1.373 . S
C820 C819 1.394 . S
C820 C821 1.380 . S
C820 H848 0.930 . S
C821 C820 1.380 . S
C821 C822 1.376 . S
C821 H849 0.930 . S
C822 C821 1.376 . S
C822 C823 1.370 . S
C823 C822 1.370 . S
C823 C824 1.396 . S
C823 H850 0.929 . S
C824 C819 1.373 . S
C824 C823 1.396 . S
C824 H851 0.929 . S
C825 O838 1.240 . S
C825 O839 1.289 . S
C826 O840 1.258 . S
C826 O841 1.256 . S
C827 La817 2.928 . S
C827 C828 1.503 . S
C827 O842 1.261 . S
C827 O843 1.243 . S
C828 C827 1.503 . S
C828 C829 1.394 . S
C828 C833 1.373 . S
C829 C828 1.394 . S
C829 C830 1.380 . S
C829 H852 0.930 . S
C830 C829 1.380 . S
C830 C831 1.376 . S
C830 H853 0.930 . S
C831 C830 1.376 . S
C831 C832 1.370 . S
C832 C831 1.370 . S
C832 C833 1.396 . S
C832 H854 0.929 . S
C833 C828 1.373 . S
C833 C832 1.396 . S
C833 H855 0.929 . S
C834 O844 1.240 . S
C834 O845 1.289 . S
C835 O846 1.258 . S
C835 O847 1.256 . S
O836 La816 2.521 . S
O836 C818 1.261 . S
O837 La816 2.628 . S
O837 C818 1.243 . S
O838 La816 2.554 . S
O838 C825 1.240 . S
O839 La816 2.757 . S
O839 La817 2.482 . S
O839 C825 1.289 . S
O840 La816 2.470 . S
O840 C826 1.258 . S
O841 La817 2.503 . S
O841 C826 1.256 . S
O842 La817 2.521 . S
O842 C827 1.261 . S
O843 La817 2.628 . S
O843 C827 1.243 . S
O844 La817 2.554 . S
O844 C834 1.240 . S
O845 La816 2.482 . S
O845 La817 2.757 . S
O845 C834 1.289 . S
O846 La817 2.470 . S
O846 C835 1.258 . S
O847 La816 2.503 . S
O847 C835 1.256 . S
H848 C820 0.930 . S
H849 C821 0.930 . S
H850 C823 0.929 . S
H851 C824 0.929 . S
H852 C829 0.930 . S
H853 C830 0.930 . S
H854 C832 0.929 . S
H855 C833 0.929 . S
La856 C858 2.928 . S
La856 O876 2.521 . S
La856 O877 2.628 . S
La856 O878 2.554 . S
La856 O879 2.757 . S
La856 O880 2.470 . S
La856 O885 2.482 . S
La856 O887 2.503 . S
La857 C867 2.928 . S
La857 O879 2.482 . S
La857 O881 2.503 . S
La857 O882 2.521 . S
La857 O883 2.628 . S
La857 O884 2.554 . S
La857 O885 2.757 . S
La857 O886 2.470 . S
C858 La856 2.928 . S
C858 C859 1.503 . S
C858 O876 1.261 . S
C858 O877 1.243 . S
C859 C858 1.503 . S
C859 C860 1.394 . S
C859 C864 1.373 . S
C860 C859 1.394 . S
C860 C861 1.380 . S
C860 H888 0.930 . S
C861 C860 1.380 . S
C861 C862 1.376 . S
C861 H889 0.930 . S
C862 C861 1.376 . S
C862 C863 1.370 . S
C863 C862 1.370 . S
C863 C864 1.396 . S
C863 H890 0.929 . S
C864 C859 1.373 . S
C864 C863 1.396 . S
C864 H891 0.929 . S
C865 O878 1.240 . S
C865 O879 1.289 . S
C866 O880 1.258 . S
C866 O881 1.256 . S
C867 La857 2.928 . S
C867 C868 1.503 . S
C867 O882 1.261 . S
C867 O883 1.243 . S
C868 C867 1.503 . S
C868 C869 1.394 . S
C868 C873 1.373 . S
C869 C868 1.394 . S
C869 C870 1.380 . S
C869 H892 0.930 . S
C870 C869 1.380 . S
C870 C871 1.376 . S
C870 H893 0.930 . S
C871 C870 1.376 . S
C871 C872 1.370 . S
C872 C871 1.370 . S
C872 C873 1.396 . S
C872 H894 0.929 . S
C873 C868 1.373 . S
C873 C872 1.396 . S
C873 H895 0.929 . S
C874 O884 1.240 . S
C874 O885 1.289 . S
C875 O886 1.258 . S
C875 O887 1.256 . S
O876 La856 2.521 . S
O876 C858 1.261 . S
O877 La856 2.628 . S
O877 C858 1.243 . S
O878 La856 2.554 . S
O878 C865 1.240 . S
O879 La856 2.757 . S
O879 La857 2.482 . S
O879 C865 1.289 . S
O880 La856 2.470 . S
O880 C866 1.258 . S
O881 La857 2.503 . S
O881 C866 1.256 . S
O882 La857 2.521 . S
O882 C867 1.261 . S
O883 La857 2.628 . S
O883 C867 1.243 . S
O884 La857 2.554 . S
O884 C874 1.240 . S
O885 La856 2.482 . S
O885 La857 2.757 . S
O885 C874 1.289 . S
O886 La857 2.470 . S
O886 C875 1.258 . S
O887 La856 2.503 . S
O887 C875 1.256 . S
H888 C860 0.930 . S
H889 C861 0.930 . S
H890 C863 0.929 . S
H891 C864 0.929 . S
H892 C869 0.930 . S
H893 C870 0.930 . S
H894 C872 0.929 . S
H895 C873 0.929 . S
La896 C898 2.928 . S
La896 O916 2.521 . S
La896 O917 2.628 . S
La896 O918 2.554 . S
La896 O919 2.757 . S
La896 O920 2.470 . S
La896 O925 2.482 . S
La896 O927 2.503 . S
La897 C907 2.928 . S
La897 O919 2.482 . S
La897 O921 2.503 . S
La897 O922 2.521 . S
La897 O923 2.628 . S
La897 O924 2.554 . S
La897 O925 2.757 . S
La897 O926 2.470 . S
C898 La896 2.928 . S
C898 C899 1.503 . S
C898 O916 1.261 . S
C898 O917 1.243 . S
C899 C898 1.503 . S
C899 C900 1.394 . S
C899 C904 1.373 . S
C900 C899 1.394 . S
C900 C901 1.380 . S
C900 H928 0.930 . S
C901 C900 1.380 . S
C901 C902 1.376 . S
C901 H929 0.930 . S
C902 C901 1.376 . S
C902 C903 1.370 . S
C903 C902 1.370 . S
C903 C904 1.396 . S
C903 H930 0.929 . S
C904 C899 1.373 . S
C904 C903 1.396 . S
C904 H931 0.929 . S
C905 O918 1.240 . S
C905 O919 1.289 . S
C906 O920 1.258 . S
C906 O921 1.256 . S
C907 La897 2.928 . S
C907 C908 1.503 . S
C907 O922 1.261 . S
C907 O923 1.243 . S
C908 C907 1.503 . S
C908 C909 1.394 . S
C908 C913 1.373 . S
C909 C908 1.394 . S
C909 C910 1.380 . S
C909 H932 0.930 . S
C910 C909 1.380 . S
C910 C911 1.376 . S
C910 H933 0.930 . S
C911 C910 1.376 . S
C911 C912 1.370 . S
C912 C911 1.370 . S
C912 C913 1.396 . S
C912 H934 0.929 . S
C913 C908 1.373 . S
C913 C912 1.396 . S
C913 H935 0.929 . S
C914 O924 1.240 . S
C914 O925 1.289 . S
C915 O926 1.258 . S
C915 O927 1.256 . S
O916 La896 2.521 . S
O916 C898 1.261 . S
O917 La896 2.628 . S
O917 C898 1.243 . S
O918 La896 2.554 . S
O918 C905 1.240 . S
O919 La896 2.757 . S
O919 La897 2.482 . S
O919 C905 1.289 . S
O920 La896 2.470 . S
O920 C906 1.258 . S
O921 La897 2.503 . S
O921 C906 1.256 . S
O922 La897 2.521 . S
O922 C907 1.261 . S
O923 La897 2.628 . S
O923 C907 1.243 . S
O924 La897 2.554 . S
O924 C914 1.240 . S
O925 La896 2.482 . S
O925 La897 2.757 . S
O925 C914 1.289 . S
O926 La897 2.470 . S
O926 C915 1.258 . S
O927 La896 2.503 . S
O927 C915 1.256 . S
H928 C900 0.930 . S
H929 C901 0.930 . S
H930 C903 0.929 . S
H931 C904 0.929 . S
H932 C909 0.930 . S
H933 C910 0.930 . S
H934 C912 0.929 . S
H935 C913 0.929 . S
La936 C938 2.928 1_554 S
La936 O956 2.521 1_554 S
La936 O957 2.628 . S
La936 O958 2.554 1_554 S
La936 O959 2.757 1_554 S
La936 O960 2.470 1_554 S
La936 O965 2.482 . S
La936 O967 2.503 . S
La937 C947 2.928 1_455 S
La937 O959 2.482 1_554 S
La937 O961 2.503 . S
La937 O962 2.521 1_455 S
La937 O963 2.628 1_455 S
La937 O964 2.554 . S
La937 O965 2.757 . S
La937 O966 2.470 . S
C938 La936 2.928 1_556 S
C938 C939 1.503 . S
C938 O956 1.261 . S
C938 O957 1.243 1_556 S
C939 C938 1.503 . S
C939 C940 1.394 . S
C939 C944 1.373 1_556 S
C940 C939 1.394 . S
C940 C941 1.380 . S
C940 H968 0.930 . S
C941 C940 1.380 . S
C941 C942 1.376 . S
C941 H969 0.930 . S
C942 C941 1.376 . S
C942 C943 1.370 1_556 S
C943 C942 1.370 1_554 S
C943 C944 1.396 . S
C943 H970 0.929 . S
C944 C939 1.373 1_554 S
C944 C943 1.396 . S
C944 H971 0.929 . S
C945 O958 1.240 . S
C945 O959 1.289 . S
C946 O960 1.258 1_554 S
C946 O961 1.256 . S
C947 La937 2.928 1_655 S
C947 C948 1.503 . S
C947 O962 1.261 . S
C947 O963 1.243 . S
C948 C947 1.503 . S
C948 C949 1.394 . S
C948 C953 1.373 . S
C949 C948 1.394 . S
C949 C950 1.380 . S
C949 H972 0.930 . S
C950 C949 1.380 . S
C950 C951 1.376 . S
C950 H973 0.930 . S
C951 C950 1.376 . S
C951 C952 1.370 . S
C952 C951 1.370 . S
C952 C953 1.396 . S
C952 H974 0.929 . S
C953 C948 1.373 . S
C953 C952 1.396 . S
C953 H975 0.929 . S
C954 O964 1.240 . S
C954 O965 1.289 . S
C955 O966 1.258 . S
C955 O967 1.256 . S
O956 La936 2.521 1_556 S
O956 C938 1.261 . S
O957 La936 2.628 . S
O957 C938 1.243 1_554 S
O958 La936 2.554 1_556 S
O958 C945 1.240 . S
O959 La936 2.757 1_556 S
O959 La937 2.482 1_556 S
O959 C945 1.289 . S
O960 La936 2.470 1_556 S
O960 C946 1.258 1_556 S
O961 La937 2.503 . S
O961 C946 1.256 . S
O962 La937 2.521 1_655 S
O962 C947 1.261 . S
O963 La937 2.628 1_655 S
O963 C947 1.243 . S
O964 La937 2.554 . S
O964 C954 1.240 . S
O965 La936 2.482 . S
O965 La937 2.757 . S
O965 C954 1.289 . S
O966 La937 2.470 . S
O966 C955 1.258 . S
O967 La936 2.503 . S
O967 C955 1.256 . S
H968 C940 0.930 . S
H969 C941 0.930 . S
H970 C943 0.929 . S
H971 C944 0.929 . S
H972 C949 0.930 . S
H973 C950 0.930 . S
H974 C952 0.929 . S
H975 C953 0.929 . S
C976 C977 1.387 . S
C976 H980 0.950 . S
C976 C985 1.390 . S
C977 C976 1.387 . S
C977 C979 1.387 1_556 S
H978 C985 0.950 . S
C979 C977 1.387 1_554 S
C979 C981 1.390 . S
C979 H983 0.950 . S
H980 C976 0.950 . S
C981 C979 1.390 . S
C981 C982 1.387 1_554 S
C981 H984 0.950 . S
C982 C981 1.387 1_556 S
C982 C985 1.387 . S
H983 C979 0.950 . S
H984 C981 0.950 . S
C985 C976 1.390 . S
C985 H978 0.950 . S
C985 C982 1.387 . S
C986 C987 1.387 . S
C986 H990 0.950 . S
C986 C995 1.390 . S
C987 C986 1.387 . S
C987 C989 1.387 . S
H988 C995 0.950 . S
C989 C987 1.387 . S
C989 C991 1.390 . S
C989 H993 0.950 . S
H990 C986 0.950 . S
C991 C989 1.390 . S
C991 C992 1.387 . S
C991 H994 0.950 . S
C992 C991 1.387 . S
C992 C995 1.387 . S
H993 C989 0.950 . S
H994 C991 0.950 . S
C995 C986 1.390 . S
C995 H988 0.950 . S
C995 C992 1.387 . S
C996 C997 1.387 . S
C996 H1000 0.950 . S
C996 C1005 1.390 . S
C997 C996 1.387 . S
C997 C999 1.387 . S
H998 C1005 0.950 . S
C999 C997 1.387 . S
C999 C1001 1.390 . S
C999 H1003 0.950 . S
H1000 C996 0.950 . S
C1001 C999 1.390 . S
C1001 C1002 1.387 . S
C1001 H1004 0.950 . S
C1002 C1001 1.387 . S
C1002 C1005 1.387 . S
H1003 C999 0.950 . S
H1004 C1001 0.950 . S
C1005 C996 1.390 . S
C1005 H998 0.950 . S
C1005 C1002 1.387 . S
C1006 C1007 1.387 . S
C1006 H1010 0.950 . S
C1006 C1015 1.390 . S
C1007 C1006 1.387 . S
C1007 C1009 1.387 . S
H1008 C1015 0.950 . S
C1009 C1007 1.387 . S
C1009 C1011 1.390 . S
C1009 H1013 0.950 . S
H1010 C1006 0.950 . S
C1011 C1009 1.390 . S
C1011 C1012 1.387 . S
C1011 H1014 0.950 . S
C1012 C1011 1.387 . S
C1012 C1015 1.387 . S
H1013 C1009 0.950 . S
H1014 C1011 0.950 . S
C1015 C1006 1.390 . S
C1015 H1008 0.950 . S
C1015 C1012 1.387 . S
C1016 C1017 1.387 . S
C1016 H1020 0.950 . S
C1016 C1025 1.390 . S
C1017 C1016 1.387 . S
C1017 C1019 1.387 . S
H1018 C1025 0.950 . S
C1019 C1017 1.387 . S
C1019 C1021 1.390 . S
C1019 H1023 0.950 . S
H1020 C1016 0.950 . S
C1021 C1019 1.390 . S
C1021 C1022 1.387 . S
C1021 H1024 0.950 . S
C1022 C1021 1.387 . S
C1022 C1025 1.387 . S
H1023 C1019 0.950 . S
H1024 C1021 0.950 . S
C1025 C1016 1.390 . S
C1025 H1018 0.950 . S
C1025 C1022 1.387 . S
C1026 C1027 1.387 . S
C1026 H1030 0.950 . S
C1026 C1035 1.390 . S
C1027 C1026 1.387 . S
C1027 C1029 1.387 . S
H1028 C1035 0.950 . S
C1029 C1027 1.387 . S
C1029 C1031 1.390 . S
C1029 H1033 0.950 . S
H1030 C1026 0.950 . S
C1031 C1029 1.390 . S
C1031 C1032 1.387 . S
C1031 H1034 0.950 . S
C1032 C1031 1.387 . S
C1032 C1035 1.387 . S
H1033 C1029 0.950 . S
H1034 C1031 0.950 . S
C1035 C1026 1.390 . S
C1035 H1028 0.950 . S
C1035 C1032 1.387 . S
C1036 C1037 1.387 . S
C1036 H1040 0.950 . S
C1036 C1045 1.390 . S
C1037 C1036 1.387 . S
C1037 C1039 1.387 . S
H1038 C1045 0.950 . S
C1039 C1037 1.387 . S
C1039 C1041 1.390 . S
C1039 H1043 0.950 . S
H1040 C1036 0.950 . S
C1041 C1039 1.390 . S
C1041 C1042 1.387 . S
C1041 H1044 0.950 . S
C1042 C1041 1.387 . S
C1042 C1045 1.387 . S
H1043 C1039 0.950 . S
H1044 C1041 0.950 . S
C1045 C1036 1.390 . S
C1045 H1038 0.950 . S
C1045 C1042 1.387 . S
C1046 C1047 1.387 . S
C1046 H1050 0.950 . S
C1046 C1055 1.390 . S
C1047 C1046 1.387 . S
C1047 C1049 1.387 . S
H1048 C1055 0.950 . S
C1049 C1047 1.387 . S
C1049 C1051 1.390 . S
C1049 H1053 0.950 . S
H1050 C1046 0.950 . S
C1051 C1049 1.390 . S
C1051 C1052 1.387 . S
C1051 H1054 0.950 . S
C1052 C1051 1.387 . S
C1052 C1055 1.387 . S
H1053 C1049 0.950 . S
H1054 C1051 0.950 . S
C1055 C1046 1.390 . S
C1055 H1048 0.950 . S
C1055 C1052 1.387 . S
C1056 C1057 1.387 . S
C1056 H1060 0.950 . S
C1056 C1065 1.390 . S
C1057 C1056 1.387 . S
C1057 C1059 1.387 . S
H1058 C1065 0.950 . S
C1059 C1057 1.387 . S
C1059 C1061 1.390 . S
C1059 H1063 0.950 . S
H1060 C1056 0.950 . S
C1061 C1059 1.390 . S
C1061 C1062 1.387 . S
C1061 H1064 0.950 . S
C1062 C1061 1.387 . S
C1062 C1065 1.387 . S
H1063 C1059 0.950 . S
H1064 C1061 0.950 . S
C1065 C1056 1.390 . S
C1065 H1058 0.950 . S
C1065 C1062 1.387 . S
C1066 C1067 1.387 . S
C1066 H1070 0.950 . S
C1066 C1075 1.390 . S
C1067 C1066 1.387 . S
C1067 C1069 1.387 . S
H1068 C1075 0.950 . S
C1069 C1067 1.387 . S
C1069 C1071 1.390 . S
C1069 H1073 0.950 . S
H1070 C1066 0.950 . S
C1071 C1069 1.390 . S
C1071 C1072 1.387 . S
C1071 H1074 0.950 . S
C1072 C1071 1.387 . S
C1072 C1075 1.387 . S
H1073 C1069 0.950 . S
H1074 C1071 0.950 . S
C1075 C1066 1.390 . S
C1075 H1068 0.950 . S
C1075 C1072 1.387 . S
C1076 C1077 1.387 . S
C1076 H1080 0.950 . S
C1076 C1085 1.390 . S
C1077 C1076 1.387 . S
C1077 C1079 1.387 . S
H1078 C1085 0.950 . S
C1079 C1077 1.387 . S
C1079 C1081 1.390 . S
C1079 H1083 0.950 . S
H1080 C1076 0.950 . S
C1081 C1079 1.390 . S
C1081 C1082 1.387 . S
C1081 H1084 0.950 . S
C1082 C1081 1.387 . S
C1082 C1085 1.387 . S
H1083 C1079 0.950 . S
H1084 C1081 0.950 . S
C1085 C1076 1.390 . S
C1085 H1078 0.950 . S
C1085 C1082 1.387 . S
C1086 C1087 1.387 . S
C1086 H1090 0.950 . S
C1086 C1095 1.390 . S
C1087 C1086 1.387 . S
C1087 C1089 1.387 . S
H1088 C1095 0.950 . S
C1089 C1087 1.387 . S
C1089 C1091 1.390 . S
C1089 H1093 0.950 . S
H1090 C1086 0.950 . S
C1091 C1089 1.390 . S
C1091 C1092 1.387 . S
C1091 H1094 0.950 . S
C1092 C1091 1.387 . S
C1092 C1095 1.387 . S
H1093 C1089 0.950 . S
H1094 C1091 0.950 . S
C1095 C1086 1.390 . S
C1095 H1088 0.950 . S
C1095 C1092 1.387 . S
C1096 C1097 1.387 . S
C1096 H1100 0.950 . S
C1096 C1105 1.390 . S
C1097 C1096 1.387 . S
C1097 C1099 1.387 . S
H1098 C1105 0.950 . S
C1099 C1097 1.387 . S
C1099 C1101 1.390 . S
C1099 H1103 0.950 1_455 S
H1100 C1096 0.950 . S
C1101 C1099 1.390 . S
C1101 C1102 1.387 . S
C1101 H1104 0.950 . S
C1102 C1101 1.387 . S
C1102 C1105 1.387 . S
H1103 C1099 0.950 1_655 S
H1104 C1101 0.950 . S
C1105 C1096 1.390 . S
C1105 H1098 0.950 . S
C1105 C1102 1.387 . S
C1106 C1107 1.387 . S
C1106 H1110 0.950 . S
C1106 C1115 1.390 . S
C1107 C1106 1.387 . S
C1107 C1109 1.387 . S
H1108 C1115 0.950 . S
C1109 C1107 1.387 . S
C1109 C1111 1.390 . S
C1109 H1113 0.950 . S
H1110 C1106 0.950 . S
C1111 C1109 1.390 . S
C1111 C1112 1.387 . S
C1111 H1114 0.950 . S
C1112 C1111 1.387 . S
C1112 C1115 1.387 . S
H1113 C1109 0.950 . S
H1114 C1111 0.950 . S
C1115 C1106 1.390 . S
C1115 H1108 0.950 . S
C1115 C1112 1.387 . S
C1116 C1117 1.387 . S
C1116 H1120 0.950 . S
C1116 C1125 1.390 . S
C1117 C1116 1.387 . S
C1117 C1119 1.387 . S
H1118 C1125 0.950 . S
C1119 C1117 1.387 . S
C1119 C1121 1.390 . S
C1119 H1123 0.950 . S
H1120 C1116 0.950 . S
C1121 C1119 1.390 . S
C1121 C1122 1.387 . S
C1121 H1124 0.950 . S
C1122 C1121 1.387 . S
C1122 C1125 1.387 . S
H1123 C1119 0.950 . S
H1124 C1121 0.950 . S
C1125 C1116 1.390 . S
C1125 H1118 0.950 . S
C1125 C1122 1.387 . S
C1126 C1127 1.387 . S
C1126 H1130 0.950 . S
C1126 C1135 1.390 . S
C1127 C1126 1.387 . S
C1127 C1129 1.387 . S
H1128 C1135 0.950 . S
C1129 C1127 1.387 . S
C1129 C1131 1.390 . S
C1129 H1133 0.950 . S
H1130 C1126 0.950 . S
C1131 C1129 1.390 . S
C1131 C1132 1.387 . S
C1131 H1134 0.950 . S
C1132 C1131 1.387 . S
C1132 C1135 1.387 . S
H1133 C1129 0.950 . S
H1134 C1131 0.950 . S
C1135 C1126 1.390 . S
C1135 H1128 0.950 . S
C1135 C1132 1.387 . S
C1136 C1137 1.387 1_545 S
C1136 H1140 0.950 1_554 S
C1136 C1145 1.390 . S
C1137 C1136 1.387 1_565 S
C1137 C1139 1.387 . S
H1138 C1145 0.950 . S
C1139 C1137 1.387 . S
C1139 C1141 1.390 . S
C1139 H1143 0.950 . S
H1140 C1136 0.950 1_556 S
C1141 C1139 1.390 . S
C1141 C1142 1.387 1_565 S
C1141 H1144 0.950 . S
C1142 C1141 1.387 1_545 S
C1142 C1145 1.387 . S
H1143 C1139 0.950 . S
H1144 C1141 0.950 . S
C1145 C1136 1.390 . S
C1145 H1138 0.950 . S
C1145 C1142 1.387 . S
C1146 C1147 1.387 1_556 S
C1146 H1150 0.950 . S
C1146 C1155 1.390 . S
C1147 C1146 1.387 1_554 S
C1147 C1149 1.387 . S
H1148 C1155 0.950 . S
C1149 C1147 1.387 . S
C1149 C1151 1.390 . S
C1149 H1153 0.950 . S
H1150 C1146 0.950 . S
C1151 C1149 1.390 . S
C1151 C1152 1.387 . S
C1151 H1154 0.950 . S
C1152 C1151 1.387 . S
C1152 C1155 1.387 1_554 S
H1153 C1149 0.950 . S
H1154 C1151 0.950 . S
C1155 C1146 1.390 . S
C1155 H1148 0.950 . S
C1155 C1152 1.387 1_556 S
C1156 C1157 1.387 . S
C1156 H1160 0.950 . S
C1156 C1165 1.390 . S
C1157 C1156 1.387 . S
C1157 C1159 1.387 . S
H1158 C1165 0.950 . S
C1159 C1157 1.387 . S
C1159 C1161 1.390 . S
C1159 H1163 0.950 . S
H1160 C1156 0.950 . S
C1161 C1159 1.390 . S
C1161 C1162 1.387 . S
C1161 H1164 0.950 . S
C1162 C1161 1.387 . S
C1162 C1165 1.387 . S
H1163 C1159 0.950 . S
H1164 C1161 0.950 . S
C1165 C1156 1.390 . S
C1165 H1158 0.950 . S
C1165 C1162 1.387 . S
C1166 C1167 1.387 . S
C1166 H1170 0.950 . S
C1166 C1175 1.390 . S
C1167 C1166 1.387 . S
C1167 C1169 1.387 . S
H1168 C1175 0.950 . S
C1169 C1167 1.387 . S
C1169 C1171 1.390 . S
C1169 H1173 0.950 . S
H1170 C1166 0.950 . S
C1171 C1169 1.390 . S
C1171 C1172 1.387 . S
C1171 H1174 0.950 . S
C1172 C1171 1.387 . S
C1172 C1175 1.387 . S
H1173 C1169 0.950 . S
H1174 C1171 0.950 . S
C1175 C1166 1.390 . S
C1175 H1168 0.950 . S
C1175 C1172 1.387 . S
C1176 C1177 1.387 . S
C1176 H1180 0.950 . S
C1176 C1185 1.390 . S
C1177 C1176 1.387 . S
C1177 C1179 1.387 . S
H1178 C1185 0.950 . S
C1179 C1177 1.387 . S
C1179 C1181 1.390 . S
C1179 H1183 0.950 . S
H1180 C1176 0.950 . S
C1181 C1179 1.390 . S
C1181 C1182 1.387 . S
C1181 H1184 0.950 . S
C1182 C1181 1.387 . S
C1182 C1185 1.387 . S
H1183 C1179 0.950 . S
H1184 C1181 0.950 . S
C1185 C1176 1.390 . S
C1185 H1178 0.950 . S
C1185 C1182 1.387 . S
C1186 C1187 1.387 . S
C1186 H1190 0.950 . S
C1186 C1195 1.390 . S
C1187 C1186 1.387 . S
C1187 C1189 1.387 . S
H1188 C1195 0.950 . S
C1189 C1187 1.387 . S
C1189 C1191 1.390 . S
C1189 H1193 0.950 . S
H1190 C1186 0.950 . S
C1191 C1189 1.390 . S
C1191 C1192 1.387 . S
C1191 H1194 0.950 . S
C1192 C1191 1.387 . S
C1192 C1195 1.387 . S
H1193 C1189 0.950 . S
H1194 C1191 0.950 . S
C1195 C1186 1.390 . S
C1195 H1188 0.950 . S
C1195 C1192 1.387 . S
C1196 C1197 1.387 . S
C1196 H1200 0.950 . S
C1196 C1205 1.390 . S
C1197 C1196 1.387 . S
C1197 C1199 1.387 . S
H1198 C1205 0.950 . S
C1199 C1197 1.387 . S
C1199 C1201 1.390 . S
C1199 H1203 0.950 . S
H1200 C1196 0.950 . S
C1201 C1199 1.390 . S
C1201 C1202 1.387 . S
C1201 H1204 0.950 . S
C1202 C1201 1.387 . S
C1202 C1205 1.387 . S
H1203 C1199 0.950 . S
H1204 C1201 0.950 . S
C1205 C1196 1.390 . S
C1205 H1198 0.950 . S
C1205 C1202 1.387 . S
C1206 C1207 1.387 . S
C1206 H1210 0.950 . S
C1206 C1215 1.390 . S
C1207 C1206 1.387 . S
C1207 C1209 1.387 . S
H1208 C1215 0.950 . S
C1209 C1207 1.387 . S
C1209 C1211 1.390 . S
C1209 H1213 0.950 . S
H1210 C1206 0.950 . S
C1211 C1209 1.390 . S
C1211 C1212 1.387 . S
C1211 H1214 0.950 . S
C1212 C1211 1.387 . S
C1212 C1215 1.387 . S
H1213 C1209 0.950 . S
H1214 C1211 0.950 . S
C1215 C1206 1.390 . S
C1215 H1208 0.950 . S
C1215 C1212 1.387 . S
C1216 C1217 1.387 . S
C1216 H1220 0.950 . S
C1216 C1225 1.390 . S
C1217 C1216 1.387 . S
C1217 C1219 1.387 . S
H1218 C1225 0.950 . S
C1219 C1217 1.387 . S
C1219 C1221 1.390 . S
C1219 H1223 0.950 . S
H1220 C1216 0.950 . S
C1221 C1219 1.390 . S
C1221 C1222 1.387 . S
C1221 H1224 0.950 . S
C1222 C1221 1.387 . S
C1222 C1225 1.387 . S
H1223 C1219 0.950 . S
H1224 C1221 0.950 . S
C1225 C1216 1.390 . S
C1225 H1218 0.950 . S
C1225 C1222 1.387 . S
C1226 C1227 1.387 . S
C1226 H1230 0.950 . S
C1226 C1235 1.390 . S
C1227 C1226 1.387 . S
C1227 C1229 1.387 . S
H1228 C1235 0.950 . S
C1229 C1227 1.387 . S
C1229 C1231 1.390 . S
C1229 H1233 0.950 . S
H1230 C1226 0.950 . S
C1231 C1229 1.390 . S
C1231 C1232 1.387 . S
C1231 H1234 0.950 . S
C1232 C1231 1.387 . S
C1232 C1235 1.387 . S
H1233 C1229 0.950 . S
H1234 C1231 0.950 . S
C1235 C1226 1.390 . S
C1235 H1228 0.950 . S
C1235 C1232 1.387 . S
C1236 C1237 1.387 . S
C1236 H1240 0.950 . S
C1236 C1245 1.390 . S
C1237 C1236 1.387 . S
C1237 C1239 1.387 . S
H1238 C1245 0.950 . S
C1239 C1237 1.387 . S
C1239 C1241 1.390 . S
C1239 H1243 0.950 . S
H1240 C1236 0.950 . S
C1241 C1239 1.390 . S
C1241 C1242 1.387 . S
C1241 H1244 0.950 . S
C1242 C1241 1.387 . S
C1242 C1245 1.387 . S
H1243 C1239 0.950 . S
H1244 C1241 0.950 . S
C1245 C1236 1.390 . S
C1245 H1238 0.950 . S
C1245 C1242 1.387 . S
C1246 C1247 1.387 . S
C1246 H1250 0.950 . S
C1246 C1255 1.390 . S
C1247 C1246 1.387 . S
C1247 C1249 1.387 . S
H1248 C1255 0.950 . S
C1249 C1247 1.387 . S
C1249 C1251 1.390 . S
C1249 H1253 0.950 . S
H1250 C1246 0.950 . S
C1251 C1249 1.390 . S
C1251 C1252 1.387 . S
C1251 H1254 0.950 . S
C1252 C1251 1.387 . S
C1252 C1255 1.387 . S
H1253 C1249 0.950 . S
H1254 C1251 0.950 . S
C1255 C1246 1.390 . S
C1255 H1248 0.950 . S
C1255 C1252 1.387 . S
C1256 C1257 1.387 . S
C1256 H1260 0.950 . S
C1256 C1265 1.390 . S
C1257 C1256 1.387 . S
C1257 C1259 1.387 . S
H1258 C1265 0.950 . S
C1259 C1257 1.387 . S
C1259 C1261 1.390 . S
C1259 H1263 0.950 . S
H1260 C1256 0.950 . S
C1261 C1259 1.390 . S
C1261 C1262 1.387 . S
C1261 H1264 0.950 . S
C1262 C1261 1.387 . S
C1262 C1265 1.387 . S
H1263 C1259 0.950 . S
H1264 C1261 0.950 . S
C1265 C1256 1.390 . S
C1265 H1258 0.950 . S
C1265 C1262 1.387 . S
C1266 C1267 1.387 . S
C1266 H1270 0.950 . S
C1266 C1275 1.390 . S
C1267 C1266 1.387 . S
C1267 C1269 1.387 . S
H1268 C1275 0.950 . S
C1269 C1267 1.387 . S
C1269 C1271 1.390 . S
C1269 H1273 0.950 . S
H1270 C1266 0.950 . S
C1271 C1269 1.390 . S
C1271 C1272 1.387 . S
C1271 H1274 0.950 . S
C1272 C1271 1.387 . S
C1272 C1275 1.387 . S
H1273 C1269 0.950 . S
H1274 C1271 0.950 . S
C1275 C1266 1.390 . S
C1275 H1268 0.950 . S
C1275 C1272 1.387 . S
C1276 C1277 1.387 . S
C1276 H1280 0.950 . S
C1276 C1285 1.390 . S
C1277 C1276 1.387 . S
C1277 C1279 1.387 . S
H1278 C1285 0.950 . S
C1279 C1277 1.387 . S
C1279 C1281 1.390 . S
C1279 H1283 0.950 . S
H1280 C1276 0.950 . S
C1281 C1279 1.390 . S
C1281 C1282 1.387 . S
C1281 H1284 0.950 1_556 S
C1282 C1281 1.387 . S
C1282 C1285 1.387 . S
H1283 C1279 0.950 . S
H1284 C1281 0.950 1_554 S
C1285 C1276 1.390 . S
C1285 H1278 0.950 . S
C1285 C1282 1.387 . S
C1286 C1287 1.387 . S
C1286 H1290 0.950 . S
C1286 C1295 1.390 . S
C1287 C1286 1.387 . S
C1287 C1289 1.387 . S
H1288 C1295 0.950 . S
C1289 C1287 1.387 . S
C1289 C1291 1.390 . S
C1289 H1293 0.950 . S
H1290 C1286 0.950 . S
C1291 C1289 1.390 . S
C1291 C1292 1.387 . S
C1291 H1294 0.950 . S
C1292 C1291 1.387 . S
C1292 C1295 1.387 . S
H1293 C1289 0.950 . S
H1294 C1291 0.950 . S
C1295 C1286 1.390 . S
C1295 H1288 0.950 . S
C1295 C1292 1.387 . S
C1296 C1297 1.387 . S
C1296 H1300 0.950 . S
C1296 C1305 1.390 . S
C1297 C1296 1.387 . S
C1297 C1299 1.367 1_545 S
H1298 C1305 0.950 . S
C1299 C1297 1.367 1_565 S
C1299 C1301 1.391 . S
C1299 H1303 0.970 . S
H1300 C1296 0.950 . S
C1301 C1299 1.391 . S
C1301 C1302 1.381 1_565 S
C1301 H1304 0.956 . S
C1302 C1301 1.381 1_545 S
C1302 C1305 1.387 . S
H1303 C1299 0.970 . S
H1304 C1301 0.956 . S
C1305 C1296 1.390 . S
C1305 H1298 0.950 . S
C1305 C1302 1.387 . S
C1306 C1307 1.387 . S
C1306 H1310 0.950 . S
C1306 C1315 1.390 . S
C1307 C1306 1.387 . S
C1307 C1309 1.387 . S
H1308 C1315 0.950 . S
C1309 C1307 1.387 . S
C1309 C1311 1.390 . S
C1309 H1313 0.950 . S
H1310 C1306 0.950 . S
C1311 C1309 1.390 . S
C1311 C1312 1.387 . S
C1311 H1314 0.950 . S
C1312 C1311 1.387 . S
C1312 C1315 1.387 . S
H1313 C1309 0.950 . S
H1314 C1311 0.950 . S
C1315 C1306 1.390 . S
C1315 H1308 0.950 . S
C1315 C1312 1.387 . S
C1316 C1317 1.387 1_565 S
C1316 H1320 0.950 . S
C1316 C1325 1.390 1_565 S
C1317 C1316 1.387 1_545 S
C1317 C1319 1.387 . S
H1318 C1325 0.950 1_565 S
C1319 C1317 1.387 . S
C1319 C1321 1.390 . S
C1319 H1323 0.950 . S
H1320 C1316 0.950 . S
C1321 C1319 1.390 . S
C1321 C1322 1.387 . S
C1321 H1324 0.950 . S
C1322 C1321 1.387 . S
C1322 C1325 1.387 . S
H1323 C1319 0.950 . S
H1324 C1321 0.950 . S
C1325 C1316 1.390 1_545 S
C1325 H1318 0.950 1_545 S
C1325 C1322 1.387 . S
C1326 C1327 1.387 . S
C1326 H1330 0.950 . S
C1326 C1335 1.390 . S
C1327 C1326 1.387 . S
C1327 C1329 1.387 . S
H1328 C1335 0.950 . S
C1329 C1327 1.387 . S
C1329 C1331 1.390 . S
C1329 H1333 0.950 . S
H1330 C1326 0.950 . S
C1331 C1329 1.390 . S
C1331 C1332 1.387 . S
C1331 H1334 0.950 . S
C1332 C1331 1.387 . S
C1332 C1335 1.387 . S
H1333 C1329 0.950 . S
H1334 C1331 0.950 . S
C1335 C1326 1.390 . S
C1335 H1328 0.950 . S
C1335 C1332 1.387 . S
C1336 C1337 1.387 . S
C1336 H1340 0.950 . S
C1336 C1345 1.390 . S
C1337 C1336 1.387 . S
C1337 C1339 1.387 . S
H1338 C1345 0.950 . S
C1339 C1337 1.387 . S
C1339 C1341 1.390 . S
C1339 H1343 0.950 1_545 S
H1340 C1336 0.950 . S
C1341 C1339 1.390 . S
C1341 C1342 1.387 . S
C1341 H1344 0.950 . S
C1342 C1341 1.387 . S
C1342 C1345 1.387 . S
H1343 C1339 0.950 1_565 S
H1344 C1341 0.950 . S
C1345 C1336 1.390 . S
C1345 H1338 0.950 . S
C1345 C1342 1.387 . S
C1346 C1347 1.387 . S
C1346 H1350 0.950 . S
C1346 C1355 1.390 . S
C1347 C1346 1.387 . S
C1347 C1349 1.387 . S
H1348 C1355 0.950 . S
C1349 C1347 1.387 . S
C1349 C1351 1.390 . S
C1349 H1353 0.950 . S
H1350 C1346 0.950 . S
C1351 C1349 1.390 . S
C1351 C1352 1.387 . S
C1351 H1354 0.950 . S
C1352 C1351 1.387 . S
C1352 C1355 1.387 . S
H1353 C1349 0.950 . S
H1354 C1351 0.950 . S
C1355 C1346 1.390 . S
C1355 H1348 0.950 . S
C1355 C1352 1.387 . S
C1356 C1357 1.387 . S
C1356 H1360 0.950 . S
C1356 C1365 1.390 . S
C1357 C1356 1.387 . S
C1357 C1359 1.387 1_565 S
H1358 C1365 0.950 . S
C1359 C1357 1.387 1_545 S
C1359 C1361 1.390 . S
C1359 H1363 0.950 . S
H1360 C1356 0.950 . S
C1361 C1359 1.390 . S
C1361 C1362 1.387 1_545 S
C1361 H1364 0.950 . S
C1362 C1361 1.387 1_565 S
C1362 C1365 1.387 . S
H1363 C1359 0.950 . S
H1364 C1361 0.950 . S
C1365 C1356 1.390 . S
C1365 H1358 0.950 . S
C1365 C1362 1.387 . S
C1366 C1367 1.387 . S
C1366 H1370 0.950 . S
C1366 C1375 1.390 . S
C1367 C1366 1.387 . S
C1367 C1369 1.387 . S
H1368 C1375 0.950 . S
C1369 C1367 1.387 . S
C1369 C1371 1.390 . S
C1369 H1373 0.950 . S
H1370 C1366 0.950 . S
C1371 C1369 1.390 . S
C1371 C1372 1.387 . S
C1371 H1374 0.950 . S
C1372 C1371 1.387 . S
C1372 C1375 1.387 . S
H1373 C1369 0.950 . S
H1374 C1371 0.950 . S
C1375 C1366 1.390 . S
C1375 H1368 0.950 . S
C1375 C1372 1.387 . S
C1376 C1377 1.387 1_556 S
C1376 H1380 0.950 . S
C1376 C1385 1.390 . S
C1377 C1376 1.387 1_554 S
C1377 C1379 1.387 . S
H1378 C1385 0.950 . S
C1379 C1377 1.387 . S
C1379 C1381 1.390 . S
C1379 H1383 0.950 . S
H1380 C1376 0.950 . S
C1381 C1379 1.390 . S
C1381 C1382 1.387 1_554 S
C1381 H1384 0.950 . S
C1382 C1381 1.387 1_556 S
C1382 C1385 1.387 . S
H1383 C1379 0.950 . S
H1384 C1381 0.950 . S
C1385 C1376 1.390 . S
C1385 H1378 0.950 . S
C1385 C1382 1.387 . S
C1386 C1387 1.387 . S
C1386 H1390 0.950 . S
C1386 C1395 1.390 . S
C1387 C1386 1.387 . S
C1387 C1389 1.387 . S
H1388 C1395 0.950 . S
C1389 C1387 1.387 . S
C1389 C1391 1.390 . S
C1389 H1393 0.950 1_554 S
H1390 C1386 0.950 . S
C1391 C1389 1.390 . S
C1391 C1392 1.387 . S
C1391 H1394 0.950 1_554 S
C1392 C1391 1.387 . S
C1392 C1395 1.387 . S
H1393 C1389 0.950 1_556 S
H1394 C1391 0.950 1_556 S
C1395 C1386 1.390 . S
C1395 H1388 0.950 . S
C1395 C1392 1.387 . S
C1396 C1397 1.387 . S
C1396 H1400 0.950 . S
C1396 C1405 1.390 . S
C1397 C1396 1.387 . S
C1397 C1399 1.387 . S
H1398 C1405 0.950 . S
C1399 C1397 1.387 . S
C1399 C1401 1.390 . S
C1399 H1403 0.950 . S
H1400 C1396 0.950 . S
C1401 C1399 1.390 . S
C1401 C1402 1.387 . S
C1401 H1404 0.950 . S
C1402 C1401 1.387 . S
C1402 C1405 1.387 . S
H1403 C1399 0.950 . S
H1404 C1401 0.950 . S
C1405 C1396 1.390 . S
C1405 H1398 0.950 . S
C1405 C1402 1.387 . S
C1406 C1407 1.387 . S
C1406 H1410 0.950 . S
C1406 C1415 1.390 . S
C1407 C1406 1.387 . S
C1407 C1409 1.387 . S
H1408 C1415 0.950 . S
C1409 C1407 1.387 . S
C1409 C1411 1.390 . S
C1409 H1413 0.950 . S
H1410 C1406 0.950 . S
C1411 C1409 1.390 . S
C1411 C1412 1.387 . S
C1411 H1414 0.950 . S
C1412 C1411 1.387 . S
C1412 C1415 1.387 . S
H1413 C1409 0.950 . S
H1414 C1411 0.950 . S
C1415 C1406 1.390 . S
C1415 H1408 0.950 . S
C1415 C1412 1.387 . S
C1416 C1417 1.387 . S
C1416 H1420 0.950 . S
C1416 C1425 1.390 . S
C1417 C1416 1.387 . S
C1417 C1419 1.387 1_545 S
H1418 C1425 0.950 . S
C1419 C1417 1.387 1_565 S
C1419 C1421 1.390 . S
C1419 H1423 0.950 . S
H1420 C1416 0.950 . S
C1421 C1419 1.390 . S
C1421 C1422 1.389 1_565 S
C1421 H1424 0.950 . S
C1422 C1421 1.389 1_545 S
C1422 C1425 1.384 . S
H1423 C1419 0.950 . S
H1424 C1421 0.950 . S
C1425 C1416 1.390 . S
C1425 H1418 0.950 . S
C1425 C1422 1.384 . S
C1426 C1427 1.387 . S
C1426 H1430 0.950 . S
C1426 C1435 1.390 . S
C1427 C1426 1.387 . S
C1427 C1429 1.387 . S
H1428 C1435 0.950 . S
C1429 C1427 1.387 . S
C1429 C1431 1.390 . S
C1429 H1433 0.950 . S
H1430 C1426 0.950 . S
C1431 C1429 1.390 . S
C1431 C1432 1.387 . S
C1431 H1434 0.950 . S
C1432 C1431 1.387 . S
C1432 C1435 1.387 . S
H1433 C1429 0.950 . S
H1434 C1431 0.950 . S
C1435 C1426 1.390 . S
C1435 H1428 0.950 . S
C1435 C1432 1.387 . S
C1436 C1437 1.387 . S
C1436 H1440 0.950 . S
C1436 C1445 1.390 . S
C1437 C1436 1.387 . S
C1437 C1439 1.387 . S
H1438 C1445 0.950 . S
C1439 C1437 1.387 . S
C1439 C1441 1.390 . S
C1439 H1443 0.950 . S
H1440 C1436 0.950 . S
C1441 C1439 1.390 . S
C1441 C1442 1.387 . S
C1441 H1444 0.950 . S
C1442 C1441 1.387 . S
C1442 C1445 1.387 . S
H1443 C1439 0.950 . S
H1444 C1441 0.950 . S
C1445 C1436 1.390 . S
C1445 H1438 0.950 . S
C1445 C1442 1.387 . S
C1446 C1447 1.387 . S
C1446 H1450 0.950 . S
C1446 C1455 1.390 . S
C1447 C1446 1.387 . S
C1447 C1449 1.387 . S
H1448 C1455 0.950 . S
C1449 C1447 1.387 . S
C1449 C1451 1.390 . S
C1449 H1453 0.950 . S
H1450 C1446 0.950 . S
C1451 C1449 1.390 . S
C1451 C1452 1.387 . S
C1451 H1454 0.950 . S
C1452 C1451 1.387 . S
C1452 C1455 1.387 . S
H1453 C1449 0.950 . S
H1454 C1451 0.950 . S
C1455 C1446 1.390 . S
C1455 H1448 0.950 . S
C1455 C1452 1.387 . S
C1456 C1457 1.387 . S
C1456 H1460 0.950 . S
C1456 C1465 1.390 . S
C1457 C1456 1.387 . S
C1457 C1459 1.387 . S
H1458 C1465 0.950 . S
C1459 C1457 1.387 . S
C1459 C1461 1.390 . S
C1459 H1463 0.950 . S
H1460 C1456 0.950 . S
C1461 C1459 1.390 . S
C1461 C1462 1.387 . S
C1461 H1464 0.950 . S
C1462 C1461 1.387 . S
C1462 C1465 1.387 . S
H1463 C1459 0.950 . S
H1464 C1461 0.950 . S
C1465 C1456 1.390 . S
C1465 H1458 0.950 . S
C1465 C1462 1.387 . S
C1466 C1467 1.387 . S
C1466 H1470 0.950 . S
C1466 C1475 1.390 . S
C1467 C1466 1.387 . S
C1467 C1469 1.387 . S
H1468 C1475 0.950 . S
C1469 C1467 1.387 . S
C1469 C1471 1.390 . S
C1469 H1473 0.950 . S
H1470 C1466 0.950 . S
C1471 C1469 1.390 . S
C1471 C1472 1.387 . S
C1471 H1474 0.950 . S
C1472 C1471 1.387 . S
C1472 C1475 1.387 . S
H1473 C1469 0.950 . S
H1474 C1471 0.950 . S
C1475 C1466 1.390 . S
C1475 H1468 0.950 . S
C1475 C1472 1.387 . S
C1476 C1477 1.387 . S
C1476 H1480 0.950 . S
C1476 C1485 1.390 . S
C1477 C1476 1.387 . S
C1477 C1479 1.387 1_556 S
H1478 C1485 0.950 . S
C1479 C1477 1.387 1_554 S
C1479 C1481 1.390 . S
C1479 H1483 0.950 . S
H1480 C1476 0.950 . S
C1481 C1479 1.390 . S
C1481 C1482 1.387 . S
C1481 H1484 0.950 . S
C1482 C1481 1.387 . S
C1482 C1485 1.387 1_554 S
H1483 C1479 0.950 . S
H1484 C1481 0.950 . S
C1485 C1476 1.390 . S
C1485 H1478 0.950 . S
C1485 C1482 1.387 1_556 S
C1486 C1487 1.387 . S
C1486 H1490 0.950 . S
C1486 C1495 1.390 1_455 S
C1487 C1486 1.387 . S
C1487 C1489 1.387 . S
H1488 C1495 0.950 . S
C1489 C1487 1.387 . S
C1489 C1491 1.390 1_455 S
C1489 H1493 0.950 . S
H1490 C1486 0.950 . S
C1491 C1489 1.390 1_655 S
C1491 C1492 1.387 . S
C1491 H1494 0.950 . S
C1492 C1491 1.387 . S
C1492 C1495 1.387 . S
H1493 C1489 0.950 . S
H1494 C1491 0.950 . S
C1495 C1486 1.390 1_655 S
C1495 H1488 0.950 . S
C1495 C1492 1.387 . S
C1496 C1497 1.387 . S
C1496 H1500 0.950 . S
C1496 C1505 1.390 . S
C1497 C1496 1.387 . S
C1497 C1499 1.387 . S
H1498 C1505 0.950 . S
C1499 C1497 1.387 . S
C1499 C1501 1.390 . S
C1499 H1503 0.950 . S
H1500 C1496 0.950 . S
C1501 C1499 1.390 . S
C1501 C1502 1.387 . S
C1501 H1504 0.950 . S
C1502 C1501 1.387 . S
C1502 C1505 1.387 . S
H1503 C1499 0.950 . S
H1504 C1501 0.950 . S
C1505 C1496 1.390 . S
C1505 H1498 0.950 . S
C1505 C1502 1.387 . S
C1506 C1507 1.387 . S
C1506 H1510 0.950 . S
C1506 C1515 1.390 . S
C1507 C1506 1.387 . S
C1507 C1509 1.387 . S
H1508 C1515 0.950 . S
C1509 C1507 1.387 . S
C1509 C1511 1.390 . S
C1509 H1513 0.950 . S
H1510 C1506 0.950 . S
C1511 C1509 1.390 . S
C1511 C1512 1.387 . S
C1511 H1514 0.950 . S
C1512 C1511 1.387 . S
C1512 C1515 1.387 . S
H1513 C1509 0.950 . S
H1514 C1511 0.950 . S
C1515 C1506 1.390 . S
C1515 H1508 0.950 . S
C1515 C1512 1.387 . S
C1516 C1517 1.387 1_655 S
C1516 H1520 0.950 . S
C1516 C1525 1.390 1_655 S
C1517 C1516 1.387 1_455 S
C1517 C1519 1.387 . S
H1518 C1525 0.950 . S
C1519 C1517 1.387 . S
C1519 C1521 1.390 . S
C1519 H1523 0.950 . S
H1520 C1516 0.950 . S
C1521 C1519 1.390 . S
C1521 C1522 1.387 . S
C1521 H1524 0.950 . S
C1522 C1521 1.387 . S
C1522 C1525 1.387 . S
H1523 C1519 0.950 . S
H1524 C1521 0.950 . S
C1525 C1516 1.390 1_455 S
C1525 H1518 0.950 . S
C1525 C1522 1.387 . S
C1526 C1527 1.387 . S
C1526 H1530 0.950 . S
C1526 C1535 1.390 . S
C1527 C1526 1.387 . S
C1527 C1529 1.387 . S
H1528 C1535 0.950 . S
C1529 C1527 1.387 . S
C1529 C1531 1.390 . S
C1529 H1533 0.950 . S
H1530 C1526 0.950 . S
C1531 C1529 1.390 . S
C1531 C1532 1.387 . S
C1531 H1534 0.950 . S
C1532 C1531 1.387 . S
C1532 C1535 1.387 . S
H1533 C1529 0.950 . S
H1534 C1531 0.950 . S
C1535 C1526 1.390 . S
C1535 H1528 0.950 . S
C1535 C1532 1.387 . S
C1536 C1537 1.387 . S
C1536 H1540 0.950 . S
C1536 C1545 1.390 . S
C1537 C1536 1.387 . S
C1537 C1539 1.387 . S
H1538 C1545 0.950 . S
C1539 C1537 1.387 . S
C1539 C1541 1.390 . S
C1539 H1543 0.950 . S
H1540 C1536 0.950 . S
C1541 C1539 1.390 . S
C1541 C1542 1.387 . S
C1541 H1544 0.950 . S
C1542 C1541 1.387 . S
C1542 C1545 1.387 . S
H1543 C1539 0.950 . S
H1544 C1541 0.950 . S
C1545 C1536 1.390 . S
C1545 H1538 0.950 . S
C1545 C1542 1.387 . S
C1546 C1547 1.387 . S
C1546 H1550 0.950 . S
C1546 C1555 1.390 . S
C1547 C1546 1.387 . S
C1547 C1549 1.387 . S
H1548 C1555 0.950 . S
C1549 C1547 1.387 . S
C1549 C1551 1.390 . S
C1549 H1553 0.944 1_556 S
H1550 C1546 0.950 . S
C1551 C1549 1.390 . S
C1551 C1552 1.387 . S
C1551 H1554 0.950 . S
C1552 C1551 1.387 . S
C1552 C1555 1.387 . S
H1553 C1549 0.944 1_554 S
H1554 C1551 0.950 . S
C1555 C1546 1.390 . S
C1555 H1548 0.950 . S
C1555 C1552 1.387 . S
C1556 C1557 1.387 . S
C1556 H1560 0.950 . S
C1556 C1565 1.390 . S
C1557 C1556 1.387 . S
C1557 C1559 1.387 . S
H1558 C1565 0.950 . S
C1559 C1557 1.387 . S
C1559 C1561 1.390 . S
C1559 H1563 0.950 . S
H1560 C1556 0.950 . S
C1561 C1559 1.390 . S
C1561 C1562 1.387 . S
C1561 H1564 0.950 . S
C1562 C1561 1.387 . S
C1562 C1565 1.387 . S
H1563 C1559 0.950 . S
H1564 C1561 0.950 . S
C1565 C1556 1.390 . S
C1565 H1558 0.950 . S
C1565 C1562 1.387 . S
C1566 C1567 1.387 . S
C1566 H1570 0.950 . S
C1566 C1575 1.390 . S
C1567 C1566 1.387 . S
C1567 C1569 1.387 . S
H1568 C1575 0.950 . S
C1569 C1567 1.387 . S
C1569 C1571 1.390 . S
C1569 H1573 0.950 . S
H1570 C1566 0.950 . S
C1571 C1569 1.390 . S
C1571 C1572 1.387 . S
C1571 H1574 0.950 . S
C1572 C1571 1.387 . S
C1572 C1575 1.387 . S
H1573 C1569 0.950 . S
H1574 C1571 0.950 . S
C1575 C1566 1.390 . S
C1575 H1568 0.950 . S
C1575 C1572 1.387 . S
C1576 C1577 1.387 . S
C1576 H1580 0.950 . S
C1576 C1585 1.390 . S
C1577 C1576 1.387 . S
C1577 C1579 1.387 . S
H1578 C1585 0.950 . S
C1579 C1577 1.387 . S
C1579 C1581 1.390 . S
C1579 H1583 0.950 . S
H1580 C1576 0.950 . S
C1581 C1579 1.390 . S
C1581 C1582 1.387 . S
C1581 H1584 0.950 . S
C1582 C1581 1.387 . S
C1582 C1585 1.387 . S
H1583 C1579 0.950 . S
H1584 C1581 0.950 . S
C1585 C1576 1.390 . S
C1585 H1578 0.950 . S
C1585 C1582 1.387 . S
C1586 C1587 1.387 . S
C1586 H1590 0.950 . S
C1586 C1595 1.390 . S
C1587 C1586 1.387 . S
C1587 C1589 1.387 . S
H1588 C1595 0.950 . S
C1589 C1587 1.387 . S
C1589 C1591 1.390 . S
C1589 H1593 0.950 . S
H1590 C1586 0.950 . S
C1591 C1589 1.390 . S
C1591 C1592 1.387 . S
C1591 H1594 0.950 . S
C1592 C1591 1.387 . S
C1592 C1595 1.387 . S
H1593 C1589 0.950 . S
H1594 C1591 0.950 . S
C1595 C1586 1.390 . S
C1595 H1588 0.950 . S
C1595 C1592 1.387 . S
C1596 C1597 1.387 . S
C1596 H1600 0.950 . S
C1596 C1605 1.390 . S
C1597 C1596 1.387 . S
C1597 C1599 1.387 . S
H1598 C1605 0.950 . S
C1599 C1597 1.387 . S
C1599 C1601 1.390 . S
C1599 H1603 0.950 . S
H1600 C1596 0.950 . S
C1601 C1599 1.390 . S
C1601 C1602 1.387 . S
C1601 H1604 0.950 . S
C1602 C1601 1.387 . S
C1602 C1605 1.387 . S
H1603 C1599 0.950 . S
H1604 C1601 0.950 . S
C1605 C1596 1.390 . S
C1605 H1598 0.950 . S
C1605 C1602 1.387 . S
C1606 C1607 1.387 . S
C1606 H1610 0.950 . S
C1606 C1615 1.390 . S
C1607 C1606 1.387 . S
C1607 C1609 1.387 . S
H1608 C1615 0.950 . S
C1609 C1607 1.387 . S
C1609 C1611 1.390 . S
C1609 H1613 0.950 . S
H1610 C1606 0.950 . S
C1611 C1609 1.390 . S
C1611 C1612 1.387 . S
C1611 H1614 0.950 . S
C1612 C1611 1.387 . S
C1612 C1615 1.387 . S
H1613 C1609 0.950 . S
H1614 C1611 0.950 . S
C1615 C1606 1.390 . S
C1615 H1608 0.950 . S
C1615 C1612 1.387 . S
C1616 C1617 1.387 . S
C1616 H1620 0.950 . S
C1616 C1625 1.390 . S
C1617 C1616 1.387 . S
C1617 C1619 1.387 . S
H1618 C1625 0.950 . S
C1619 C1617 1.387 . S
C1619 C1621 1.390 . S
C1619 H1623 0.950 . S
H1620 C1616 0.950 . S
C1621 C1619 1.390 . S
C1621 C1622 1.387 . S
C1621 H1624 0.950 . S
C1622 C1621 1.387 . S
C1622 C1625 1.387 . S
H1623 C1619 0.950 . S
H1624 C1621 0.950 . S
C1625 C1616 1.390 . S
C1625 H1618 0.950 . S
C1625 C1622 1.387 . S
C1626 C1627 1.387 . S
C1626 H1630 0.950 . S
C1626 C1635 1.390 . S
C1627 C1626 1.387 . S
C1627 C1629 1.387 . S
H1628 C1635 0.950 . S
C1629 C1627 1.387 . S
C1629 C1631 1.390 . S
C1629 H1633 0.950 . S
H1630 C1626 0.950 . S
C1631 C1629 1.390 . S
C1631 C1632 1.387 . S
C1631 H1634 0.950 . S
C1632 C1631 1.387 . S
C1632 C1635 1.387 . S
H1633 C1629 0.950 . S
H1634 C1631 0.950 . S
C1635 C1626 1.390 . S
C1635 H1628 0.950 . S
C1635 C1632 1.387 . S
C1636 C1637 1.387 . S
C1636 H1640 0.950 . S
C1636 C1645 1.390 . S
C1637 C1636 1.387 . S
C1637 C1639 1.387 . S
H1638 C1645 0.950 . S
C1639 C1637 1.387 . S
C1639 C1641 1.390 . S
C1639 H1643 0.950 . S
H1640 C1636 0.950 . S
C1641 C1639 1.390 . S
C1641 C1642 1.387 . S
C1641 H1644 0.950 . S
C1642 C1641 1.387 . S
C1642 C1645 1.387 . S
H1643 C1639 0.950 . S
H1644 C1641 0.950 . S
C1645 C1636 1.390 . S
C1645 H1638 0.950 . S
C1645 C1642 1.387 . S
C1646 C1647 1.387 1_556 S
C1646 H1650 0.950 . S
C1646 C1655 1.390 1_565 S
C1647 C1646 1.387 1_554 S
C1647 C1649 1.387 . S
H1648 C1655 0.950 . S
C1649 C1647 1.387 . S
C1649 C1651 1.390 1_565 S
C1649 H1653 0.950 . S
H1650 C1646 0.950 . S
C1651 C1649 1.390 1_545 S
C1651 C1652 1.387 . S
C1651 H1654 0.950 . S
C1652 C1651 1.387 . S
C1652 C1655 1.387 1_554 S
H1653 C1649 0.950 . S
H1654 C1651 0.950 . S
C1655 C1646 1.390 1_545 S
C1655 H1648 0.950 . S
C1655 C1652 1.387 1_556 S
C1656 C1657 1.387 . S
C1656 H1660 0.950 . S
C1656 C1665 1.390 . S
C1657 C1656 1.387 . S
C1657 C1659 1.387 . S
H1658 C1665 0.950 . S
C1659 C1657 1.387 . S
C1659 C1661 1.390 . S
C1659 H1663 0.950 . S
H1660 C1656 0.950 . S
C1661 C1659 1.390 . S
C1661 C1662 1.387 . S
C1661 H1664 0.950 . S
C1662 C1661 1.387 . S
C1662 C1665 1.387 . S
H1663 C1659 0.950 . S
H1664 C1661 0.950 . S
C1665 C1656 1.390 . S
C1665 H1658 0.950 . S
C1665 C1662 1.387 . S
C1666 C1667 1.387 . S
C1666 H1670 0.950 1_554 S
C1666 C1675 1.390 . S
C1667 C1666 1.387 . S
C1667 C1669 1.387 . S
H1668 C1675 0.950 . S
C1669 C1667 1.387 . S
C1669 C1671 1.390 . S
C1669 H1673 0.950 . S
H1670 C1666 0.950 1_556 S
C1671 C1669 1.390 . S
C1671 C1672 1.387 . S
C1671 H1674 0.950 . S
C1672 C1671 1.387 . S
C1672 C1675 1.387 . S
H1673 C1669 0.950 . S
H1674 C1671 0.950 . S
C1675 C1666 1.390 . S
C1675 H1668 0.950 . S
C1675 C1672 1.387 . S
C1676 C1677 1.387 . S
C1676 H1680 0.950 . S
C1676 C1685 1.390 . S
C1677 C1676 1.387 . S
C1677 C1679 1.387 . S
H1678 C1685 0.950 . S
C1679 C1677 1.387 . S
C1679 C1681 1.390 . S
C1679 H1683 0.950 . S
H1680 C1676 0.950 . S
C1681 C1679 1.390 . S
C1681 C1682 1.387 . S
C1681 H1684 0.950 . S
C1682 C1681 1.387 . S
C1682 C1685 1.387 . S
H1683 C1679 0.950 . S
H1684 C1681 0.950 . S
C1685 C1676 1.390 . S
C1685 H1678 0.950 . S
C1685 C1682 1.387 . S
C1686 C1687 1.387 . S
C1686 H1690 0.950 . S
C1686 C1695 1.390 . S
C1687 C1686 1.387 . S
C1687 C1689 1.387 . S
H1688 C1695 0.950 . S
C1689 C1687 1.387 . S
C1689 C1691 1.390 . S
C1689 H1693 0.950 . S
H1690 C1686 0.950 . S
C1691 C1689 1.390 . S
C1691 C1692 1.387 . S
C1691 H1694 0.950 . S
C1692 C1691 1.387 . S
C1692 C1695 1.387 . S
H1693 C1689 0.950 . S
H1694 C1691 0.950 . S
C1695 C1686 1.390 . S
C1695 H1688 0.950 . S
C1695 C1692 1.387 . S
C1696 C1697 1.387 . S
C1696 H1700 0.950 . S
C1696 C1705 1.390 . S
C1697 C1696 1.387 . S
C1697 C1699 1.387 . S
H1698 C1705 0.950 . S
C1699 C1697 1.387 . S
C1699 C1701 1.390 . S
C1699 H1703 0.950 . S
H1700 C1696 0.950 . S
C1701 C1699 1.390 . S
C1701 C1702 1.387 . S
C1701 H1704 0.950 . S
C1702 C1701 1.387 . S
C1702 C1705 1.387 . S
H1703 C1699 0.950 . S
H1704 C1701 0.950 . S
C1705 C1696 1.390 . S
C1705 H1698 0.950 . S
C1705 C1702 1.387 . S
C1706 C1707 1.387 . S
C1706 H1710 0.950 . S
C1706 C1715 1.390 . S
C1707 C1706 1.387 . S
C1707 C1709 1.387 . S
H1708 C1715 0.950 . S
C1709 C1707 1.387 . S
C1709 C1711 1.390 . S
C1709 H1713 0.950 . S
H1710 C1706 0.950 . S
C1711 C1709 1.390 . S
C1711 C1712 1.387 . S
C1711 H1714 0.950 . S
C1712 C1711 1.387 . S
C1712 C1715 1.387 . S
H1713 C1709 0.950 . S
H1714 C1711 0.950 . S
C1715 C1706 1.390 . S
C1715 H1708 0.950 . S
C1715 C1712 1.387 . S
C1716 C1717 1.387 . S
C1716 H1720 0.950 . S
C1716 C1725 1.390 . S
C1717 C1716 1.387 . S
C1717 C1719 1.387 . S
H1718 C1725 0.950 . S
C1719 C1717 1.387 . S
C1719 C1721 1.390 . S
C1719 H1723 0.950 . S
H1720 C1716 0.950 . S
C1721 C1719 1.390 . S
C1721 C1722 1.387 . S
C1721 H1724 0.950 . S
C1722 C1721 1.387 . S
C1722 C1725 1.387 . S
H1723 C1719 0.950 . S
H1724 C1721 0.950 . S
C1725 C1716 1.390 . S
C1725 H1718 0.950 . S
C1725 C1722 1.387 . S
C1726 C1727 1.387 . S
C1726 H1730 0.950 . S
C1726 C1735 1.390 . S
C1727 C1726 1.387 . S
C1727 C1729 1.387 . S
H1728 C1735 0.950 . S
C1729 C1727 1.387 . S
C1729 C1731 1.390 . S
C1729 H1733 0.950 . S
H1730 C1726 0.950 . S
C1731 C1729 1.390 . S
C1731 C1732 1.387 . S
C1731 H1734 0.950 . S
C1732 C1731 1.387 . S
C1732 C1735 1.387 . S
H1733 C1729 0.950 . S
H1734 C1731 0.950 . S
C1735 C1726 1.390 . S
C1735 H1728 0.950 . S
C1735 C1732 1.387 . S
C1736 C1737 1.387 . S
C1736 H1740 0.950 . S
C1736 C1745 1.390 . S
C1737 C1736 1.387 . S
C1737 C1739 1.387 . S
H1738 C1745 0.950 . S
C1739 C1737 1.387 . S
C1739 C1741 1.390 . S
C1739 H1743 0.950 . S
H1740 C1736 0.950 . S
C1741 C1739 1.390 . S
C1741 C1742 1.387 . S
C1741 H1744 0.950 . S
C1742 C1741 1.387 . S
C1742 C1745 1.387 . S
H1743 C1739 0.950 . S
H1744 C1741 0.950 . S
C1745 C1736 1.390 . S
C1745 H1738 0.950 . S
C1745 C1742 1.387 . S
C1746 C1747 1.387 . S
C1746 H1750 0.950 . S
C1746 C1755 1.390 . S
C1747 C1746 1.387 . S
C1747 C1749 1.387 . S
H1748 C1755 0.950 . S
C1749 C1747 1.387 . S
C1749 C1751 1.390 . S
C1749 H1753 0.950 . S
H1750 C1746 0.950 . S
C1751 C1749 1.390 . S
C1751 C1752 1.387 . S
C1751 H1754 0.950 . S
C1752 C1751 1.387 . S
C1752 C1755 1.387 . S
H1753 C1749 0.950 . S
H1754 C1751 0.950 . S
C1755 C1746 1.390 . S
C1755 H1748 0.950 . S
C1755 C1752 1.387 . S
C1756 C1757 1.387 . S
C1756 H1760 0.950 . S
C1756 C1765 1.390 . S
C1757 C1756 1.387 . S
C1757 C1759 1.387 . S
H1758 C1765 0.950 . S
C1759 C1757 1.387 . S
C1759 C1761 1.390 . S
C1759 H1763 0.950 . S
H1760 C1756 0.950 . S
C1761 C1759 1.390 . S
C1761 C1762 1.387 . S
C1761 H1764 0.950 . S
C1762 C1761 1.387 . S
C1762 C1765 1.387 . S
H1763 C1759 0.950 . S
H1764 C1761 0.950 . S
C1765 C1756 1.390 . S
C1765 H1758 0.950 . S
C1765 C1762 1.387 . S
C1766 C1767 1.387 . S
C1766 H1770 0.950 . S
C1766 C1775 1.390 . S
C1767 C1766 1.387 . S
C1767 C1769 1.387 . S
H1768 C1775 0.950 . S
C1769 C1767 1.387 . S
C1769 C1771 1.390 . S
C1769 H1773 0.950 . S
H1770 C1766 0.950 . S
C1771 C1769 1.390 . S
C1771 C1772 1.387 . S
C1771 H1774 0.950 . S
C1772 C1771 1.387 . S
C1772 C1775 1.387 . S
H1773 C1769 0.950 . S
H1774 C1771 0.950 . S
C1775 C1766 1.390 . S
C1775 H1768 0.950 . S
C1775 C1772 1.387 . S
C1776 C1777 1.387 . S
C1776 H1780 0.950 . S
C1776 C1785 1.390 . S
C1777 C1776 1.387 . S
C1777 C1779 1.387 . S
H1778 C1785 0.950 . S
C1779 C1777 1.387 . S
C1779 C1781 1.390 . S
C1779 H1783 0.950 . S
H1780 C1776 0.950 . S
C1781 C1779 1.390 . S
C1781 C1782 1.387 . S
C1781 H1784 0.950 . S
C1782 C1781 1.387 . S
C1782 C1785 1.387 . S
H1783 C1779 0.950 . S
H1784 C1781 0.950 . S
C1785 C1776 1.390 . S
C1785 H1778 0.950 . S
C1785 C1782 1.387 . S
C1786 C1787 1.387 . S
C1786 H1790 0.950 . S
C1786 C1795 1.390 . S
C1787 C1786 1.387 . S
C1787 C1789 1.387 . S
H1788 C1795 0.950 . S
C1789 C1787 1.387 . S
C1789 C1791 1.390 . S
C1789 H1793 0.950 . S
H1790 C1786 0.950 . S
C1791 C1789 1.390 . S
C1791 C1792 1.387 . S
C1791 H1794 0.950 . S
C1792 C1791 1.387 . S
C1792 C1795 1.387 . S
H1793 C1789 0.950 . S
H1794 C1791 0.950 . S
C1795 C1786 1.390 . S
C1795 H1788 0.950 . S
C1795 C1792 1.387 . S
C1796 C1797 1.387 1_455 S
C1796 H1800 0.950 . S
C1796 C1805 1.390 . S
C1797 C1796 1.387 1_655 S
C1797 C1799 1.387 . S
H1798 C1805 0.950 . S
C1799 C1797 1.387 . S
C1799 C1801 1.390 1_655 S
C1799 H1803 0.950 . S
H1800 C1796 0.950 . S
C1801 C1799 1.390 1_455 S
C1801 C1802 1.387 . S
C1801 H1804 0.950 . S
C1802 C1801 1.387 . S
C1802 C1805 1.387 . S
H1803 C1799 0.950 . S
H1804 C1801 0.950 . S
C1805 C1796 1.390 . S
C1805 H1798 0.950 . S
C1805 C1802 1.387 . S
C1806 C1807 1.387 . S
C1806 H1810 0.950 . S
C1806 C1815 1.390 . S
C1807 C1806 1.387 . S
C1807 C1809 1.387 . S
H1808 C1815 0.950 . S
C1809 C1807 1.387 . S
C1809 C1811 1.390 . S
C1809 H1813 0.950 . S
H1810 C1806 0.950 . S
C1811 C1809 1.390 . S
C1811 C1812 1.387 . S
C1811 H1814 0.950 . S
C1812 C1811 1.387 . S
C1812 C1815 1.387 . S
H1813 C1809 0.950 . S
H1814 C1811 0.950 . S
C1815 C1806 1.390 . S
C1815 H1808 0.950 . S
C1815 C1812 1.387 . S
C1816 C1817 1.387 . S
C1816 H1820 0.950 . S
C1816 C1825 1.390 . S
C1817 C1816 1.387 . S
C1817 C1819 1.387 . S
H1818 C1825 0.950 . S
C1819 C1817 1.387 . S
C1819 C1821 1.390 . S
C1819 H1823 0.950 . S
H1820 C1816 0.950 . S
C1821 C1819 1.390 . S
C1821 C1822 1.387 . S
C1821 H1824 0.950 . S
C1822 C1821 1.387 . S
C1822 C1825 1.387 . S
H1823 C1819 0.950 . S
H1824 C1821 0.950 . S
C1825 C1816 1.390 . S
C1825 H1818 0.950 . S
C1825 C1822 1.387 . S
C1826 C1827 1.387 . S
C1826 H1830 0.950 . S
C1826 C1835 1.390 . S
C1827 C1826 1.387 . S
C1827 C1829 1.387 . S
H1828 C1835 0.950 . S
C1829 C1827 1.387 . S
C1829 C1831 1.390 . S
C1829 H1833 0.950 . S
H1830 C1826 0.950 . S
C1831 C1829 1.390 . S
C1831 C1832 1.387 . S
C1831 H1834 0.950 . S
C1832 C1831 1.387 . S
C1832 C1835 1.387 . S
H1833 C1829 0.950 . S
H1834 C1831 0.950 . S
C1835 C1826 1.390 . S
C1835 H1828 0.950 . S
C1835 C1832 1.387 . S
C1836 C1837 1.387 . S
C1836 H1840 0.950 . S
C1836 C1845 1.390 . S
C1837 C1836 1.387 . S
C1837 C1839 1.387 . S
H1838 C1845 0.950 . S
C1839 C1837 1.387 . S
C1839 C1841 1.390 . S
C1839 H1843 0.950 . S
H1840 C1836 0.950 . S
C1841 C1839 1.390 . S
C1841 C1842 1.387 . S
C1841 H1844 0.950 . S
C1842 C1841 1.387 . S
C1842 C1845 1.387 . S
H1843 C1839 0.950 . S
H1844 C1841 0.950 . S
C1845 C1836 1.390 . S
C1845 H1838 0.950 . S
C1845 C1842 1.387 . S
C1846 C1847 1.387 . S
C1846 H1850 0.950 . S
C1846 C1855 1.390 . S
C1847 C1846 1.387 . S
C1847 C1849 1.387 . S
H1848 C1855 0.950 . S
C1849 C1847 1.387 . S
C1849 C1851 1.390 . S
C1849 H1853 0.950 . S
H1850 C1846 0.950 . S
C1851 C1849 1.390 . S
C1851 C1852 1.387 . S
C1851 H1854 0.950 . S
C1852 C1851 1.387 . S
C1852 C1855 1.387 . S
H1853 C1849 0.950 . S
H1854 C1851 0.950 . S
C1855 C1846 1.390 . S
C1855 H1848 0.950 . S
C1855 C1852 1.387 . S
C1856 C1857 1.387 . S
C1856 H1860 0.950 . S
C1856 C1865 1.390 . S
C1857 C1856 1.387 . S
C1857 C1859 1.387 . S
H1858 C1865 0.950 . S
C1859 C1857 1.387 . S
C1859 C1861 1.390 . S
C1859 H1863 0.950 . S
H1860 C1856 0.950 . S
C1861 C1859 1.390 . S
C1861 C1862 1.387 . S
C1861 H1864 0.950 . S
C1862 C1861 1.387 . S
C1862 C1865 1.387 . S
H1863 C1859 0.950 . S
H1864 C1861 0.950 . S
C1865 C1856 1.390 . S
C1865 H1858 0.950 . S
C1865 C1862 1.387 . S
C1866 C1867 1.387 . S
C1866 H1870 0.950 . S
C1866 C1875 1.390 . S
C1867 C1866 1.387 . S
C1867 C1869 1.387 . S
H1868 C1875 0.950 . S
C1869 C1867 1.387 . S
C1869 C1871 1.390 . S
C1869 H1873 0.950 . S
H1870 C1866 0.950 . S
C1871 C1869 1.390 . S
C1871 C1872 1.387 . S
C1871 H1874 0.950 1_565 S
C1872 C1871 1.387 . S
C1872 C1875 1.387 . S
H1873 C1869 0.950 . S
H1874 C1871 0.950 1_545 S
C1875 C1866 1.390 . S
C1875 H1868 0.950 . S
C1875 C1872 1.387 . S
C1876 C1877 1.387 . S
C1876 H1880 0.950 . S
C1876 C1885 1.390 . S
C1877 C1876 1.387 . S
C1877 C1879 1.387 . S
H1878 C1885 0.950 . S
C1879 C1877 1.387 . S
C1879 C1881 1.390 . S
C1879 H1883 0.950 . S
H1880 C1876 0.950 . S
C1881 C1879 1.390 . S
C1881 C1882 1.387 . S
C1881 H1884 0.950 . S
C1882 C1881 1.387 . S
C1882 C1885 1.387 . S
H1883 C1879 0.950 . S
H1884 C1881 0.950 . S
C1885 C1876 1.390 . S
C1885 H1878 0.950 . S
C1885 C1882 1.387 . S
C1886 C1887 1.387 . S
C1886 H1890 0.950 . S
C1886 C1895 1.390 . S
C1887 C1886 1.387 . S
C1887 C1889 1.387 1_554 S
H1888 C1895 0.950 . S
C1889 C1887 1.387 1_556 S
C1889 C1891 1.390 . S
C1889 H1893 0.950 . S
H1890 C1886 0.950 . S
C1891 C1889 1.390 . S
C1891 C1892 1.387 1_556 S
C1891 H1894 0.950 . S
C1892 C1891 1.387 1_554 S
C1892 C1895 1.387 . S
H1893 C1889 0.950 . S
H1894 C1891 0.950 . S
C1895 C1886 1.390 . S
C1895 H1888 0.950 . S
C1895 C1892 1.387 . S
C1896 C1897 1.387 . S
C1896 H1900 0.950 . S
C1896 C1905 1.390 . S
C1897 C1896 1.387 . S
C1897 C1899 1.387 . S
H1898 C1905 0.950 . S
C1899 C1897 1.387 . S
C1899 C1901 1.390 . S
C1899 H1903 0.950 . S
H1900 C1896 0.950 . S
C1901 C1899 1.390 . S
C1901 C1902 1.387 . S
C1901 H1904 0.950 . S
C1902 C1901 1.387 . S
C1902 C1905 1.387 . S
H1903 C1899 0.950 . S
H1904 C1901 0.950 . S
C1905 C1896 1.390 . S
C1905 H1898 0.950 . S
C1905 C1902 1.387 . S
C1906 C1907 1.387 . S
C1906 H1910 0.950 . S
C1906 C1915 1.390 . S
C1907 C1906 1.387 . S
C1907 C1909 1.387 1_554 S
H1908 C1915 0.950 . S
C1909 C1907 1.387 1_556 S
C1909 C1911 1.390 . S
C1909 H1913 0.950 . S
H1910 C1906 0.950 . S
C1911 C1909 1.390 . S
C1911 C1912 1.387 . S
C1911 H1914 0.950 . S
C1912 C1911 1.387 . S
C1912 C1915 1.387 1_556 S
H1913 C1909 0.950 . S
H1914 C1911 0.950 . S
C1915 C1906 1.390 . S
C1915 H1908 0.950 . S
C1915 C1912 1.387 1_554 S
C1916 C1917 1.387 . S
C1916 H1920 0.950 . S
C1916 C1925 1.390 . S
C1917 C1916 1.387 . S
C1917 C1919 1.387 . S
H1918 C1925 0.950 . S
C1919 C1917 1.387 . S
C1919 C1921 1.390 . S
C1919 H1923 0.950 . S
H1920 C1916 0.950 . S
C1921 C1919 1.390 . S
C1921 C1922 1.387 . S
C1921 H1924 0.950 . S
C1922 C1921 1.387 . S
C1922 C1925 1.387 . S
H1923 C1919 0.950 . S
H1924 C1921 0.950 . S
C1925 C1916 1.390 . S
C1925 H1918 0.950 . S
C1925 C1922 1.387 . S
C1926 C1927 1.387 . S
C1926 H1930 0.950 . S
C1926 C1935 1.390 . S
C1927 C1926 1.387 . S
C1927 C1929 1.387 . S
H1928 C1935 0.950 . S
C1929 C1927 1.387 . S
C1929 C1931 1.390 . S
C1929 H1933 0.950 . S
H1930 C1926 0.950 . S
C1931 C1929 1.390 . S
C1931 C1932 1.387 . S
C1931 H1934 0.950 . S
C1932 C1931 1.387 . S
C1932 C1935 1.387 . S
H1933 C1929 0.950 . S
H1934 C1931 0.950 . S
C1935 C1926 1.390 . S
C1935 H1928 0.950 . S
C1935 C1932 1.387 . S
C977 C109 2.331 . S
C982 C346 2.303 1_556 S
C987 C65 2.227 . S
C992 C394 2.249 . S
C997 C75 1.418 . S
C1002 C426 1.361 . S
C1012 C471 1.376 . S
C1007 C84 1.389 . S
C1017 C25 1.684 . S
C1022 C511 1.627 . S
C1032 C542 0.817 . S
C1027 C28 0.824 . S
C1042 C594 1.694 . S
C1037 C47 1.568 . S
C1047 C9 2.071 . S
C1052 C626 1.986 . S
C1062 C354 2.614 . S
C1057 C233 2.617 1_455 S
C1067 C249 0.912 . S
C1072 C391 0.880 . S
C1082 C434 1.293 . S
C1077 C275 1.286 . S
C1092 C466 1.493 . S
C1087 C173 1.524 . S
C1097 C224 2.074 1_455 S
C1102 C506 2.091 . S
C1112 C545 1.493 . S
C1107 C243 1.480 . S
C1122 C591 0.638 . S
C1117 C266 0.606 . S
C1132 C634 2.178 . S
C1127 C179 2.174 . S
C1142 C351 1.716 . S
C1137 C163 1.764 . S
C1147 C289 1.972 . S
C1152 C674 1.981 . S
C1162 C715 2.620 . S
C1157 C333 2.677 . S
C1172 C746 0.716 1_655 S
C1167 C308 0.714 . S
C1177 C123 1.922 . S
C1182 C631 1.873 . S
C1187 C126 1.670 . S
C1192 C431 1.659 . S
C1197 C327 2.269 . S
C1202 C794 2.266 . S
C1212 C826 0.829 . S
C1207 C299 0.863 . S
C1222 C355 2.313 . S
C1217 C67 2.353 . S
C1232 C825 2.262 . S
C1227 C98 2.177 . S
C1237 C89 1.441 . S
C1242 C435 1.394 . S
C1247 C79 1.451 . S
C1252 C782 1.411 . S
C1262 C502 1.613 . S
C1257 C11 1.703 . S
C1267 C51 0.819 . S
C1272 C711 0.806 . S
C1282 C585 1.751 1_556 S
C1277 C33 1.637 . S
C1292 C875 1.950 . S
C1287 C14 2.044 . S
C1302 C345 2.590 . S
C1297 C140 2.578 . S
C1312 C822 0.862 . S
C1307 C319 0.893 . S
C1317 C112 1.293 . S
C1322 C425 1.307 . S
C1327 C285 1.536 . S
C1332 C795 1.513 . S
C1337 C149 2.140 . S
C1342 C515 2.105 . S
C1352 C714 1.500 . S
C1347 C313 1.492 . S
C1357 C121 0.605 . S
C1362 C582 0.635 . S
C1367 C291 2.204 . S
C1372 C865 2.193 . S
C1377 C182 1.818 . S
C1382 C342 1.703 . S
C1387 C168 1.920 . S
C1392 C665 1.987 . S
C1397 C263 2.716 . S
C1402 C546 2.658 . S
C1407 C247 0.779 . S
C1412 C755 0.778 . S
C1422 C862 1.847 1_545 S
C1417 C277 1.925 . S
C1427 C219 1.722 . S
C1432 C422 1.659 . S
C1442 C465 2.300 . S
C1437 C257 2.304 . S
C1452 C395 0.811 . S
C1447 C201 0.830 . S
C1457 C81 2.331 . S
C1462 C906 2.304 . S
C1472 C834 2.248 . S
C1467 C93 2.228 . S
C1477 C103 1.418 . S
C1482 C946 1.362 . S
C1487 C56 1.391 . S
C1492 C791 1.376 . S
C1497 C53 1.685 . S
C1502 C671 1.628 . S
C1512 C702 0.810 . S
C1507 C0 0.820 . S
C1522 C754 1.694 . S
C1517 C19 1.569 1_455 S
C1532 C866 1.984 . S
C1527 C37 2.069 . S
C1542 C914 2.614 . S
C1537 C261 2.617 . S
C1547 C193 0.915 . S
C1552 C831 0.887 . S
C1562 C954 1.293 . S
C1557 C205 1.288 . S
C1572 C786 1.495 . S
C1567 C215 1.524 . S
C1582 C666 2.091 . S
C1577 C252 2.075 . S
C1587 C187 1.479 . S
C1592 C705 1.491 . S
C1602 C751 0.640 . S
C1597 C196 0.609 . S
C1607 C221 2.174 . S
C1612 C874 2.180 . S
C1622 C911 1.715 . S
C1617 C317 1.760 . S
C1627 C135 1.969 . S
C1632 C514 1.981 . S
C1642 C555 2.620 . S
C1637 C151 2.677 . S
C1652 C586 0.716 . S
C1647 C154 0.714 . S
C1662 C871 1.875 . S
C1657 C305 1.921 . S
C1667 C280 1.667 . S
C1672 C951 1.656 . S
C1682 C474 2.267 . S
C1677 C145 2.269 . S
C1692 C386 0.838 . S
C1687 C117 0.873 . S
C1697 C95 2.353 . S
C1702 C915 2.313 . S
C1712 C385 2.262 . S
C1707 C70 2.177 . S
C1717 C61 1.442 . S
C1722 C955 1.392 . S
C1727 C107 1.451 . S
C1732 C462 1.411 . S
C1737 C39 1.699 . S
C1742 C662 1.609 . S
C1752 C551 0.806 . S
C1747 C23 0.819 . S
C1757 C5 1.637 . S
C1762 C745 1.752 . S
C1767 C42 2.044 . S
C1772 C635 1.950 . S
C1782 C905 2.591 . S
C1777 C322 2.578 . S
C1787 C165 0.894 . S
C1792 C382 0.860 . S
C1802 C945 1.308 . S
C1797 C294 1.291 . S
C1807 C131 1.537 . S
C1812 C475 1.511 . S
C1817 C331 2.140 . S
C1822 C675 2.105 . S
C1832 C554 1.501 . S
C1827 C159 1.498 . S
C1837 C303 0.605 . S
C1842 C742 0.639 . S
C1852 C625 2.193 . S
C1847 C137 2.204 . S
C1862 C902 1.700 . S
C1857 C238 1.816 . S
C1872 C505 1.987 1_665 S
C1867 C210 1.922 . S
C1877 C235 2.717 . S
C1882 C706 2.658 . S
C1892 C595 0.778 . S
C1887 C191 0.779 . S
C1897 C207 1.923 . S
C1902 C622 1.841 . S
C1907 C177 1.724 . S
C1912 C942 1.662 . S
C1922 C785 2.300 . S
C1917 C229 2.304 1_565 S
C1932 C835 0.811 . S
C1927 C271 0.830 . S
