# Generated by pormake.
# Topology tbo, (3,4)-cn, num edge types: 1
# Building blocks:
#     Node 0, Type 0, BuildingBlock: WUSLED_clean_sbu_0, # of connection points: 3
#     Node 1, Type 0, BuildingBlock: WUSLED_clean_sbu_0, # of connection points: 3
#     Node 2, Type 0, BuildingBlock: WUSLED_clean_sbu_0, # of connection points: 3
#     Node 3, Type 0, BuildingBlock: WUSLED_clean_sbu_0, # of connection points: 3
#     Node 4, Type 0, BuildingBlock: WUSLED_clean_sbu_0, # of connection points: 3
#     Node 5, Type 0, BuildingBlock: WUSLED_clean_sbu_0, # of connection points: 3
#     Node 6, Type 0, BuildingBlock: WUSLED_clean_sbu_0, # of connection points: 3
#     Node 7, Type 0, BuildingBlock: WUSLED_clean_sbu_0, # of connection points: 3
#     Node 8, Type 0, BuildingBlock: WUSLED_clean_sbu_0, # of connection points: 3
#     Node 9, Type 0, BuildingBlock: WUSLED_clean_sbu_0, # of connection points: 3
#     Node 10, Type 0, BuildingBlock: WUSLED_clean_sbu_0, # of connection points: 3
#     Node 11, Type 0, BuildingBlock: WUSLED_clean_sbu_0, # of connection points: 3
#     Node 12, Type 0, BuildingBlock: WUSLED_clean_sbu_0, # of connection points: 3
#     Node 13, Type 0, BuildingBlock: WUSLED_clean_sbu_0, # of connection points: 3
#     Node 14, Type 0, BuildingBlock: WUSLED_clean_sbu_0, # of connection points: 3
#     Node 15, Type 0, BuildingBlock: WUSLED_clean_sbu_0, # of connection points: 3
#     Node 16, Type 0, BuildingBlock: WUSLED_clean_sbu_0, # of connection points: 3
#     Node 17, Type 0, BuildingBlock: WUSLED_clean_sbu_0, # of connection points: 3
#     Node 18, Type 0, BuildingBlock: WUSLED_clean_sbu_0, # of connection points: 3
#     Node 19, Type 0, BuildingBlock: WUSLED_clean_sbu_0, # of connection points: 3
#     Node 20, Type 0, BuildingBlock: WUSLED_clean_sbu_0, # of connection points: 3
#     Node 21, Type 0, BuildingBlock: WUSLED_clean_sbu_0, # of connection points: 3
#     Node 22, Type 0, BuildingBlock: WUSLED_clean_sbu_0, # of connection points: 3
#     Node 23, Type 0, BuildingBlock: WUSLED_clean_sbu_0, # of connection points: 3
#     Node 24, Type 0, BuildingBlock: WUSLED_clean_sbu_0, # of connection points: 3
#     Node 25, Type 0, BuildingBlock: WUSLED_clean_sbu_0, # of connection points: 3
#     Node 26, Type 0, BuildingBlock: WUSLED_clean_sbu_0, # of connection points: 3
#     Node 27, Type 0, BuildingBlock: WUSLED_clean_sbu_0, # of connection points: 3
#     Node 28, Type 0, BuildingBlock: WUSLED_clean_sbu_0, # of connection points: 3
#     Node 29, Type 0, BuildingBlock: WUSLED_clean_sbu_0, # of connection points: 3
#     Node 30, Type 0, BuildingBlock: WUSLED_clean_sbu_0, # of connection points: 3
#     Node 31, Type 0, BuildingBlock: WUSLED_clean_sbu_0, # of connection points: 3
#     Node 32, Type 1, BuildingBlock: ESEHIV_clean_sbu_0, # of connection points: 4
#     Node 33, Type 1, BuildingBlock: ESEHIV_clean_sbu_0, # of connection points: 4
#     Node 34, Type 1, BuildingBlock: ESEHIV_clean_sbu_0, # of connection points: 4
#     Node 35, Type 1, BuildingBlock: ESEHIV_clean_sbu_0, # of connection points: 4
#     Node 36, Type 1, BuildingBlock: ESEHIV_clean_sbu_0, # of connection points: 4
#     Node 37, Type 1, BuildingBlock: ESEHIV_clean_sbu_0, # of connection points: 4
#     Node 38, Type 1, BuildingBlock: ESEHIV_clean_sbu_0, # of connection points: 4
#     Node 39, Type 1, BuildingBlock: ESEHIV_clean_sbu_0, # of connection points: 4
#     Node 40, Type 1, BuildingBlock: ESEHIV_clean_sbu_0, # of connection points: 4
#     Node 41, Type 1, BuildingBlock: ESEHIV_clean_sbu_0, # of connection points: 4
#     Node 42, Type 1, BuildingBlock: ESEHIV_clean_sbu_0, # of connection points: 4
#     Node 43, Type 1, BuildingBlock: ESEHIV_clean_sbu_0, # of connection points: 4
#     Node 44, Type 1, BuildingBlock: ESEHIV_clean_sbu_0, # of connection points: 4
#     Node 45, Type 1, BuildingBlock: ESEHIV_clean_sbu_0, # of connection points: 4
#     Node 46, Type 1, BuildingBlock: ESEHIV_clean_sbu_0, # of connection points: 4
#     Node 47, Type 1, BuildingBlock: ESEHIV_clean_sbu_0, # of connection points: 4
#     Node 48, Type 1, BuildingBlock: ESEHIV_clean_sbu_0, # of connection points: 4
#     Node 49, Type 1, BuildingBlock: ESEHIV_clean_sbu_0, # of connection points: 4
#     Node 50, Type 1, BuildingBlock: ESEHIV_clean_sbu_0, # of connection points: 4
#     Node 51, Type 1, BuildingBlock: ESEHIV_clean_sbu_0, # of connection points: 4
#     Node 52, Type 1, BuildingBlock: ESEHIV_clean_sbu_0, # of connection points: 4
#     Node 53, Type 1, BuildingBlock: ESEHIV_clean_sbu_0, # of connection points: 4
#     Node 54, Type 1, BuildingBlock: ESEHIV_clean_sbu_0, # of connection points: 4
#     Node 55, Type 1, BuildingBlock: ESEHIV_clean_sbu_0, # of connection points: 4
#     Edge 56, Type (0, 1), BuildingBlock: UVAHIK_clean_linker_0, # of connection points: 2
#     Edge 57, Type (0, 1), BuildingBlock: UVAHIK_clean_linker_0, # of connection points: 2
#     Edge 58, Type (0, 1), BuildingBlock: UVAHIK_clean_linker_0, # of connection points: 2
#     Edge 59, Type (0, 1), BuildingBlock: UVAHIK_clean_linker_0, # of connection points: 2
#     Edge 60, Type (0, 1), BuildingBlock: UVAHIK_clean_linker_0, # of connection points: 2
#     Edge 61, Type (0, 1), BuildingBlock: UVAHIK_clean_linker_0, # of connection points: 2
#     Edge 62, Type (0, 1), BuildingBlock: UVAHIK_clean_linker_0, # of connection points: 2
#     Edge 63, Type (0, 1), BuildingBlock: UVAHIK_clean_linker_0, # of connection points: 2
#     Edge 64, Type (0, 1), BuildingBlock: UVAHIK_clean_linker_0, # of connection points: 2
#     Edge 65, Type (0, 1), BuildingBlock: UVAHIK_clean_linker_0, # of connection points: 2
#     Edge 66, Type (0, 1), BuildingBlock: UVAHIK_clean_linker_0, # of connection points: 2
#     Edge 67, Type (0, 1), BuildingBlock: UVAHIK_clean_linker_0, # of connection points: 2
#     Edge 68, Type (0, 1), BuildingBlock: UVAHIK_clean_linker_0, # of connection points: 2
#     Edge 69, Type (0, 1), BuildingBlock: UVAHIK_clean_linker_0, # of connection points: 2
#     Edge 70, Type (0, 1), BuildingBlock: UVAHIK_clean_linker_0, # of connection points: 2
#     Edge 71, Type (0, 1), BuildingBlock: UVAHIK_clean_linker_0, # of connection points: 2
#     Edge 72, Type (0, 1), BuildingBlock: UVAHIK_clean_linker_0, # of connection points: 2
#     Edge 73, Type (0, 1), BuildingBlock: UVAHIK_clean_linker_0, # of connection points: 2
#     Edge 74, Type (0, 1), BuildingBlock: UVAHIK_clean_linker_0, # of connection points: 2
#     Edge 75, Type (0, 1), BuildingBlock: UVAHIK_clean_linker_0, # of connection points: 2
#     Edge 76, Type (0, 1), BuildingBlock: UVAHIK_clean_linker_0, # of connection points: 2
#     Edge 77, Type (0, 1), BuildingBlock: UVAHIK_clean_linker_0, # of connection points: 2
#     Edge 78, Type (0, 1), BuildingBlock: UVAHIK_clean_linker_0, # of connection points: 2
#     Edge 79, Type (0, 1), BuildingBlock: UVAHIK_clean_linker_0, # of connection points: 2
#     Edge 80, Type (0, 1), BuildingBlock: UVAHIK_clean_linker_0, # of connection points: 2
#     Edge 81, Type (0, 1), BuildingBlock: UVAHIK_clean_linker_0, # of connection points: 2
#     Edge 82, Type (0, 1), BuildingBlock: UVAHIK_clean_linker_0, # of connection points: 2
#     Edge 83, Type (0, 1), BuildingBlock: UVAHIK_clean_linker_0, # of connection points: 2
#     Edge 84, Type (0, 1), BuildingBlock: UVAHIK_clean_linker_0, # of connection points: 2
#     Edge 85, Type (0, 1), BuildingBlock: UVAHIK_clean_linker_0, # of connection points: 2
#     Edge 86, Type (0, 1), BuildingBlock: UVAHIK_clean_linker_0, # of connection points: 2
#     Edge 87, Type (0, 1), BuildingBlock: UVAHIK_clean_linker_0, # of connection points: 2
#     Edge 88, Type (0, 1), BuildingBlock: UVAHIK_clean_linker_0, # of connection points: 2
#     Edge 89, Type (0, 1), BuildingBlock: UVAHIK_clean_linker_0, # of connection points: 2
#     Edge 90, Type (0, 1), BuildingBlock: UVAHIK_clean_linker_0, # of connection points: 2
#     Edge 91, Type (0, 1), BuildingBlock: UVAHIK_clean_linker_0, # of connection points: 2
#     Edge 92, Type (0, 1), BuildingBlock: UVAHIK_clean_linker_0, # of connection points: 2
#     Edge 93, Type (0, 1), BuildingBlock: UVAHIK_clean_linker_0, # of connection points: 2
#     Edge 94, Type (0, 1), BuildingBlock: UVAHIK_clean_linker_0, # of connection points: 2
#     Edge 95, Type (0, 1), BuildingBlock: UVAHIK_clean_linker_0, # of connection points: 2
#     Edge 96, Type (0, 1), BuildingBlock: UVAHIK_clean_linker_0, # of connection points: 2
#     Edge 97, Type (0, 1), BuildingBlock: UVAHIK_clean_linker_0, # of connection points: 2
#     Edge 98, Type (0, 1), BuildingBlock: UVAHIK_clean_linker_0, # of connection points: 2
#     Edge 99, Type (0, 1), BuildingBlock: UVAHIK_clean_linker_0, # of connection points: 2
#     Edge 100, Type (0, 1), BuildingBlock: UVAHIK_clean_linker_0, # of connection points: 2
#     Edge 101, Type (0, 1), BuildingBlock: UVAHIK_clean_linker_0, # of connection points: 2
#     Edge 102, Type (0, 1), BuildingBlock: UVAHIK_clean_linker_0, # of connection points: 2
#     Edge 103, Type (0, 1), BuildingBlock: UVAHIK_clean_linker_0, # of connection points: 2
#     Edge 104, Type (0, 1), BuildingBlock: UVAHIK_clean_linker_0, # of connection points: 2
#     Edge 105, Type (0, 1), BuildingBlock: UVAHIK_clean_linker_0, # of connection points: 2
#     Edge 106, Type (0, 1), BuildingBlock: UVAHIK_clean_linker_0, # of connection points: 2
#     Edge 107, Type (0, 1), BuildingBlock: UVAHIK_clean_linker_0, # of connection points: 2
#     Edge 108, Type (0, 1), BuildingBlock: UVAHIK_clean_linker_0, # of connection points: 2
#     Edge 109, Type (0, 1), BuildingBlock: UVAHIK_clean_linker_0, # of connection points: 2
#     Edge 110, Type (0, 1), BuildingBlock: UVAHIK_clean_linker_0, # of connection points: 2
#     Edge 111, Type (0, 1), BuildingBlock: UVAHIK_clean_linker_0, # of connection points: 2
#     Edge 112, Type (0, 1), BuildingBlock: UVAHIK_clean_linker_0, # of connection points: 2
#     Edge 113, Type (0, 1), BuildingBlock: UVAHIK_clean_linker_0, # of connection points: 2
#     Edge 114, Type (0, 1), BuildingBlock: UVAHIK_clean_linker_0, # of connection points: 2
#     Edge 115, Type (0, 1), BuildingBlock: UVAHIK_clean_linker_0, # of connection points: 2
#     Edge 116, Type (0, 1), BuildingBlock: UVAHIK_clean_linker_0, # of connection points: 2
#     Edge 117, Type (0, 1), BuildingBlock: UVAHIK_clean_linker_0, # of connection points: 2
#     Edge 118, Type (0, 1), BuildingBlock: UVAHIK_clean_linker_0, # of connection points: 2
#     Edge 119, Type (0, 1), BuildingBlock: UVAHIK_clean_linker_0, # of connection points: 2
#     Edge 120, Type (0, 1), BuildingBlock: UVAHIK_clean_linker_0, # of connection points: 2
#     Edge 121, Type (0, 1), BuildingBlock: UVAHIK_clean_linker_0, # of connection points: 2
#     Edge 122, Type (0, 1), BuildingBlock: UVAHIK_clean_linker_0, # of connection points: 2
#     Edge 123, Type (0, 1), BuildingBlock: UVAHIK_clean_linker_0, # of connection points: 2
#     Edge 124, Type (0, 1), BuildingBlock: UVAHIK_clean_linker_0, # of connection points: 2
#     Edge 125, Type (0, 1), BuildingBlock: UVAHIK_clean_linker_0, # of connection points: 2
#     Edge 126, Type (0, 1), BuildingBlock: UVAHIK_clean_linker_0, # of connection points: 2
#     Edge 127, Type (0, 1), BuildingBlock: UVAHIK_clean_linker_0, # of connection points: 2
#     Edge 128, Type (0, 1), BuildingBlock: UVAHIK_clean_linker_0, # of connection points: 2
#     Edge 129, Type (0, 1), BuildingBlock: UVAHIK_clean_linker_0, # of connection points: 2
#     Edge 130, Type (0, 1), BuildingBlock: UVAHIK_clean_linker_0, # of connection points: 2
#     Edge 131, Type (0, 1), BuildingBlock: UVAHIK_clean_linker_0, # of connection points: 2
#     Edge 132, Type (0, 1), BuildingBlock: UVAHIK_clean_linker_0, # of connection points: 2
#     Edge 133, Type (0, 1), BuildingBlock: UVAHIK_clean_linker_0, # of connection points: 2
#     Edge 134, Type (0, 1), BuildingBlock: UVAHIK_clean_linker_0, # of connection points: 2
#     Edge 135, Type (0, 1), BuildingBlock: UVAHIK_clean_linker_0, # of connection points: 2
#     Edge 136, Type (0, 1), BuildingBlock: UVAHIK_clean_linker_0, # of connection points: 2
#     Edge 137, Type (0, 1), BuildingBlock: UVAHIK_clean_linker_0, # of connection points: 2
#     Edge 138, Type (0, 1), BuildingBlock: UVAHIK_clean_linker_0, # of connection points: 2
#     Edge 139, Type (0, 1), BuildingBlock: UVAHIK_clean_linker_0, # of connection points: 2
#     Edge 140, Type (0, 1), BuildingBlock: UVAHIK_clean_linker_0, # of connection points: 2
#     Edge 141, Type (0, 1), BuildingBlock: UVAHIK_clean_linker_0, # of connection points: 2
#     Edge 142, Type (0, 1), BuildingBlock: UVAHIK_clean_linker_0, # of connection points: 2
#     Edge 143, Type (0, 1), BuildingBlock: UVAHIK_clean_linker_0, # of connection points: 2
#     Edge 144, Type (0, 1), BuildingBlock: UVAHIK_clean_linker_0, # of connection points: 2
#     Edge 145, Type (0, 1), BuildingBlock: UVAHIK_clean_linker_0, # of connection points: 2
#     Edge 146, Type (0, 1), BuildingBlock: UVAHIK_clean_linker_0, # of connection points: 2
#     Edge 147, Type (0, 1), BuildingBlock: UVAHIK_clean_linker_0, # of connection points: 2
#     Edge 148, Type (0, 1), BuildingBlock: UVAHIK_clean_linker_0, # of connection points: 2
#     Edge 149, Type (0, 1), BuildingBlock: UVAHIK_clean_linker_0, # of connection points: 2
#     Edge 150, Type (0, 1), BuildingBlock: UVAHIK_clean_linker_0, # of connection points: 2
#     Edge 151, Type (0, 1), BuildingBlock: UVAHIK_clean_linker_0, # of connection points: 2
# Relax obj value: 0.001
# Max RMSD: 0.113
# Mean RMSD: 0.046
data_MOF--net-tbo--node1-WUSLED_clean_sbu_0--node2-ESEHIV_clean_sbu_0--edge1-UVAHIK_clean_linker_0
_symmetry_space_group_name_H-M    P1
_symmetry_Int_Tables_number       1
_symmetry_cell_setting            triclinic
loop_
_symmetry_equiv_pos_as_xyz
'x, y, z'
_cell_length_a     116.92243
_cell_length_b     117.26438
_cell_length_c     117.12679
_cell_angle_alpha  89.7214
_cell_angle_beta   91.833217
_cell_angle_gamma 91.129264
loop_
_atom_site_label
_atom_site_type_symbol
_atom_site_fract_x
_atom_site_fract_y
_atom_site_fract_z
_atom_type_partial_charge
C0 C 0.1942 0.15312 0.20268 0.0
C1 C 0.20398 0.15333 0.21001 0.0
C2 C 0.2056 0.13265 0.20865 0.0
C3 C 0.20963 0.14323 0.21292 0.0
C4 C 0.19592 0.13248 0.20119 0.0
C5 C 0.19027 0.14256 0.19829 0.0
U6 U 0.18782 0.18095 0.18593 0.0
O7 O 0.1713 0.18778 0.17977 0.0
O8 O 0.18213 0.19757 0.19202 0.0
C9 C 0.17233 0.19692 0.1862 0.0
C10 C 0.18756 0.16363 0.20029 0.0
C11 C 0.16196 0.20045 0.19202 0.0
C12 C 0.15098 0.20343 0.20907 0.0
C13 C 0.16069 0.1992 0.20386 0.0
C14 C 0.14369 0.21 0.19066 0.0
C15 C 0.14238 0.20894 0.20252 0.0
C16 C 0.15334 0.2058 0.1855 0.0
C17 C 0.20657 0.19016 0.16085 0.0
C18 C 0.21678 0.2069 0.15362 0.0
C19 C 0.20632 0.19443 0.14043 0.0
C20 C 0.20306 0.18747 0.14956 0.0
C21 C 0.21327 0.2042 0.14233 0.0
C22 C 0.21349 0.19996 0.16276 0.0
C23 C 0.20355 0.18238 0.17041 0.0
O24 O 0.19268 0.17348 0.20265 0.0
O25 O 0.18144 0.16385 0.19068 0.0
O26 O 0.19402 0.17634 0.16905 0.0
O27 O 0.20507 0.18636 0.18084 0.0
H28 H 0.20716 0.16127 0.2137 0.0
H29 H 0.21695 0.1437 0.21881 0.0
H30 H 0.19264 0.12452 0.1976 0.0
H31 H 0.1827 0.14203 0.19272 0.0
H32 H 0.15021 0.20236 0.2182 0.0
H33 H 0.16723 0.19509 0.20908 0.0
H34 H 0.13739 0.21436 0.18536 0.0
H35 H 0.15419 0.20694 0.17638 0.0
H36 H 0.22205 0.21442 0.15541 0.0
H37 H 0.20362 0.19197 0.13185 0.0
H38 H 0.1979 0.17988 0.14775 0.0
H39 H 0.21647 0.20224 0.17131 0.0
C40 C 0.84301 0.19421 0.15793 0.0
C41 C 0.84134 0.20604 0.15851 0.0
C42 C 0.83556 0.20659 0.13828 0.0
C43 C 0.83764 0.21215 0.1488 0.0
C44 C 0.83747 0.19479 0.13771 0.0
C45 C 0.8411 0.18869 0.14742 0.0
U46 U 0.86224 0.1876 0.18446 0.0
O47 O 0.85762 0.18154 0.20152 0.0
O48 O 0.8684 0.17105 0.1909 0.0
C49 C 0.86294 0.17184 0.20049 0.0
C50 C 0.84626 0.18736 0.16815 0.0
C51 C 0.85689 0.16146 0.20439 0.0
C52 C 0.83954 0.15011 0.20717 0.0
C53 C 0.84506 0.15973 0.20254 0.0
C54 C 0.85767 0.14378 0.21525 0.0
C55 C 0.84577 0.14211 0.21374 0.0
C56 C 0.86314 0.15335 0.21064 0.0
C57 C 0.88827 0.20608 0.19267 0.0
C58 C 0.89857 0.20392 0.21091 0.0
C59 C 0.90697 0.21515 0.1958 0.0
C60 C 0.89733 0.21286 0.18873 0.0
C61 C 0.9077 0.21072 0.20699 0.0
C62 C 0.88896 0.20158 0.2038 0.0
C63 C 0.87828 0.20359 0.18503 0.0
O64 O 0.85579 0.18164 0.16758 0.0
O65 O 0.84498 0.1921 0.17818 0.0
O66 O 0.86822 0.2048 0.18953 0.0
O67 O 0.87893 0.19426 0.17894 0.0
H68 H 0.84273 0.21056 0.16649 0.0
H69 H 0.83616 0.22118 0.14963 0.0
H70 H 0.83618 0.19023 0.12974 0.0
H71 H 0.84233 0.17958 0.14673 0.0
H72 H 0.83036 0.14911 0.20588 0.0
H73 H 0.84007 0.1659 0.19773 0.0
H74 H 0.86276 0.1377 0.22006 0.0
H75 H 0.87229 0.15451 0.21212 0.0
H76 H 0.89892 0.20027 0.21943 0.0
H77 H 0.91379 0.22052 0.19256 0.0
H78 H 0.89697 0.21639 0.18016 0.0
H79 H 0.88209 0.19622 0.20696 0.0
C80 C 0.83326 0.85375 0.15412 0.0
C81 C 0.82966 0.84223 0.15446 0.0
C82 C 0.82812 0.84161 0.13362 0.0
C83 C 0.82713 0.83623 0.14433 0.0
C84 C 0.83202 0.85304 0.13333 0.0
C85 C 0.8345 0.85903 0.14344 0.0
U86 U 0.84874 0.86139 0.18289 0.0
O87 O 0.85353 0.87828 0.18987 0.0
O88 O 0.84151 0.8672 0.19896 0.0
C89 C 0.84636 0.87739 0.19828 0.0
C90 C 0.83503 0.86064 0.16466 0.0
C91 C 0.83902 0.88739 0.20031 0.0
C92 C 0.82315 0.89593 0.21005 0.0
C93 C 0.82941 0.88633 0.20721 0.0
C94 C 0.83587 0.90788 0.1991 0.0
C95 C 0.82639 0.90687 0.20618 0.0
C96 C 0.84212 0.89829 0.19624 0.0
C97 C 0.87433 0.84281 0.19306 0.0
C98 C 0.88812 0.84686 0.20861 0.0
C99 C 0.88855 0.82883 0.19867 0.0
C100 C 0.87926 0.83213 0.1917 0.0
C101 C 0.89314 0.83614 0.20721 0.0
C102 C 0.87878 0.85017 0.2016 0.0
C103 C 0.86484 0.84609 0.1852 0.0
O104 O 0.83255 0.85574 0.17442 0.0
O105 O 0.84441 0.86701 0.16532 0.0
O106 O 0.86618 0.85577 0.17965 0.0
O107 O 0.85443 0.84452 0.18891 0.0
H108 H 0.82856 0.83789 0.16255 0.0
H109 H 0.82405 0.82748 0.14491 0.0
H110 H 0.83309 0.85743 0.12527 0.0
H111 H 0.83722 0.8679 0.1429 0.0
H112 H 0.816 0.89482 0.21564 0.0
H113 H 0.82688 0.87811 0.21065 0.0
H114 H 0.83854 0.91613 0.19583 0.0
H115 H 0.84953 0.89949 0.19101 0.0
H116 H 0.89136 0.85267 0.21516 0.0
H117 H 0.89228 0.8206 0.19719 0.0
H118 H 0.87599 0.82636 0.18511 0.0
H119 H 0.87509 0.85846 0.20279 0.0
C120 C 0.14978 0.8233 0.18119 0.0
C121 C 0.14441 0.8299 0.18933 0.0
C122 C 0.13015 0.81471 0.19218 0.0
C123 C 0.13468 0.82567 0.19474 0.0
C124 C 0.1356 0.80815 0.18399 0.0
C125 C 0.14531 0.81241 0.17856 0.0
U126 U 0.17455 0.84485 0.17863 0.0
O127 O 0.19251 0.84231 0.17434 0.0
O128 O 0.18164 0.85318 0.16346 0.0
C129 C 0.19167 0.84842 0.16493 0.0
C130 C 0.16003 0.82765 0.17542 0.0
C131 C 0.19659 0.8435 0.15467 0.0
C132 C 0.19714 0.829 0.13989 0.0
C133 C 0.19222 0.83339 0.1497 0.0
C134 C 0.2108 0.84479 0.14001 0.0
C135 C 0.20647 0.8347 0.13489 0.0
C136 C 0.20591 0.84913 0.14977 0.0
C137 C 0.17724 0.86902 0.20092 0.0
C138 C 0.19195 0.88401 0.20127 0.0
C139 C 0.17738 0.88369 0.21551 0.0
C140 C 0.17249 0.87384 0.21056 0.0
C141 C 0.18714 0.88895 0.21092 0.0
C142 C 0.18702 0.87413 0.1963 0.0
C143 C 0.17175 0.85871 0.19588 0.0
O144 O 0.15896 0.83758 0.17027 0.0
O145 O 0.16975 0.82678 0.18128 0.0
O146 O 0.17763 0.8493 0.19673 0.0
O147 O 0.16669 0.86004 0.18579 0.0
H148 H 0.14772 0.83835 0.19147 0.0
H149 H 0.13065 0.83106 0.20085 0.0
H150 H 0.13249 0.79963 0.1819 0.0
H151 H 0.14937 0.80717 0.17232 0.0
H152 H 0.19353 0.82126 0.13614 0.0
H153 H 0.185 0.82892 0.15336 0.0
H154 H 0.21809 0.8493 0.13655 0.0
H155 H 0.20943 0.85692 0.15352 0.0
H156 H 0.19941 0.88788 0.19746 0.0
H157 H 0.17355 0.88711 0.22304 0.0
H158 H 0.16497 0.86999 0.21428 0.0
H159 H 0.1908 0.87052 0.18884 0.0
C160 C 0.1542 0.82943 0.84208 0.0
C161 C 0.15312 0.83453 0.83124 0.0
C162 C 0.1344 0.82531 0.82811 0.0
C163 C 0.14333 0.83245 0.82429 0.0
C164 C 0.13557 0.82022 0.83899 0.0
C165 C 0.14538 0.82226 0.84589 0.0
U166 U 0.18071 0.84734 0.85042 0.0
O167 O 0.18735 0.85284 0.86737 0.0
O168 O 0.19782 0.84218 0.85663 0.0
C169 C 0.19675 0.84694 0.86668 0.0
C170 C 0.16434 0.83167 0.8496 0.0
C171 C 0.19973 0.83983 0.87673 0.0
C172 C 0.19817 0.82223 0.88776 0.0
C173 C 0.19519 0.82874 0.87806 0.0
C174 C 0.21019 0.83785 0.89489 0.0
C175 C 0.20567 0.82673 0.89633 0.0
C176 C 0.20725 0.84431 0.8852 0.0
C177 C 0.18649 0.87384 0.83104 0.0
C178 C 0.20353 0.88607 0.83044 0.0
C179 C 0.18656 0.89088 0.81918 0.0
C180 C 0.18089 0.88122 0.82339 0.0
C181 C 0.19799 0.89337 0.82253 0.0
C182 C 0.19782 0.87635 0.83466 0.0
C183 C 0.18029 0.86347 0.83474 0.0
O184 O 0.17431 0.8304 0.84493 0.0
O185 O 0.16392 0.84089 0.85588 0.0
O186 O 0.17489 0.86414 0.84437 0.0
O187 O 0.18549 0.85373 0.8335 0.0
H188 H 0.15982 0.84017 0.82818 0.0
H189 H 0.14265 0.83659 0.81601 0.0
H190 H 0.12894 0.81457 0.84214 0.0
H191 H 0.14606 0.81826 0.85423 0.0
H192 H 0.19446 0.81375 0.88863 0.0
H193 H 0.18933 0.82515 0.87163 0.0
H194 H 0.21611 0.84153 0.9012 0.0
H195 H 0.21086 0.85284 0.88432 0.0
H196 H 0.21234 0.88771 0.83316 0.0
H197 H 0.18195 0.89641 0.81328 0.0
H198 H 0.17213 0.87946 0.82054 0.0
H199 H 0.20228 0.87073 0.84058 0.0
C200 C 0.17682 0.18687 0.84356 0.0
C201 C 0.17171 0.19346 0.85191 0.0
C202 C 0.15761 0.20036 0.83777 0.0
C203 C 0.16219 0.20012 0.84906 0.0
C204 C 0.1629 0.19384 0.82944 0.0
C205 C 0.17237 0.18718 0.83231 0.0
U206 U 0.20344 0.17886 0.86187 0.0
O207 O 0.20962 0.16202 0.86733 0.0
O208 O 0.22018 0.17291 0.85642 0.0
C209 C 0.21887 0.16284 0.86125 0.0
C210 C 0.18671 0.17959 0.84633 0.0
C211 C 0.22184 0.15277 0.85435 0.0
C212 C 0.23557 0.14327 0.84255 0.0
C213 C 0.23204 0.15297 0.84831 0.0
C214 C 0.21874 0.13292 0.84867 0.0
C215 C 0.22903 0.13307 0.84273 0.0
C216 C 0.2152 0.14264 0.85442 0.0
C217 C 0.21211 0.19778 0.88784 0.0
C218 C 0.22671 0.19364 0.90249 0.0
C219 C 0.21809 0.21224 0.90168 0.0
C220 C 0.21127 0.20879 0.89226 0.0
C221 C 0.22593 0.20474 0.90691 0.0
C222 C 0.21988 0.19019 0.893 0.0
C223 C 0.20473 0.19451 0.8779 0.0
O224 O 0.19685 0.18431 0.8449 0.0
O225 O 0.18617 0.1735 0.85576 0.0
O226 O 0.19877 0.18494 0.87882 0.0
O227 O 0.20926 0.19585 0.86785 0.0
H228 H 0.17504 0.19338 0.86066 0.0
H229 H 0.15831 0.20492 0.85573 0.0
H230 H 0.15979 0.19396 0.82063 0.0
H231 H 0.17623 0.18222 0.82572 0.0
H232 H 0.24345 0.14379 0.83793 0.0
H233 H 0.23741 0.1606 0.84819 0.0
H234 H 0.21354 0.1252 0.84915 0.0
H235 H 0.20736 0.14211 0.85909 0.0
H236 H 0.23272 0.18767 0.90625 0.0
H237 H 0.21711 0.22078 0.90495 0.0
H238 H 0.20529 0.21475 0.88843 0.0
H239 H 0.22067 0.18165 0.88968 0.0
C240 C 0.84607 0.16174 0.84721 0.0
C241 C 0.84706 0.15967 0.83548 0.0
C242 C 0.83502 0.14248 0.837 0.0
C243 C 0.84159 0.15011 0.83042 0.0
C244 C 0.83433 0.1445 0.84879 0.0
C245 C 0.83978 0.15402 0.85381 0.0
U246 U 0.86817 0.18674 0.8508 0.0
O247 O 0.86496 0.20443 0.85581 0.0
O248 O 0.87578 0.19365 0.86682 0.0
C249 C 0.87051 0.20341 0.86569 0.0
C250 C 0.85107 0.17203 0.85276 0.0
C251 C 0.8644 0.2072 0.87577 0.0
C252 C 0.84826 0.20592 0.88838 0.0
C253 C 0.85389 0.20219 0.87872 0.0
C254 C 0.86361 0.21967 0.89223 0.0
C255 C 0.85308 0.21469 0.89529 0.0
C256 C 0.8692 0.21596 0.88258 0.0
C257 C 0.89314 0.19081 0.83029 0.0
C258 C 0.91011 0.20283 0.83367 0.0
C259 C 0.90608 0.19497 0.81487 0.0
C260 C 0.89616 0.18963 0.81887 0.0
C261 C 0.91324 0.20162 0.82221 0.0
C262 C 0.90016 0.1975 0.83766 0.0
C263 C 0.88278 0.18481 0.83431 0.0
O264 O 0.86104 0.17086 0.85809 0.0
O265 O 0.85026 0.18165 0.84701 0.0
O266 O 0.87315 0.19035 0.83311 0.0
O267 O 0.88384 0.17948 0.84418 0.0
H268 H 0.8519 0.16552 0.83022 0.0
H269 H 0.84226 0.14887 0.82132 0.0
H270 H 0.82956 0.13871 0.85417 0.0
H271 H 0.83895 0.15544 0.86289 0.0
H272 H 0.84023 0.20182 0.89053 0.0
H273 H 0.85007 0.19538 0.87357 0.0
H274 H 0.86749 0.22655 0.89722 0.0
H275 H 0.87729 0.21995 0.88042 0.0
H276 H 0.91545 0.20776 0.83963 0.0
H277 H 0.90805 0.19399 0.80596 0.0
H278 H 0.89084 0.18453 0.81303 0.0
H279 H 0.89799 0.19853 0.84651 0.0
C280 C 0.8522 0.88809 0.82334 0.0
C281 C 0.8438 0.89361 0.82944 0.0
C282 C 0.84117 0.90742 0.81393 0.0
C283 C 0.83835 0.90319 0.8248 0.0
C284 C 0.84962 0.90183 0.80788 0.0
C285 C 0.85507 0.89227 0.81255 0.0
U286 U 0.85534 0.86409 0.8455 0.0
O287 O 0.85953 0.84606 0.8432 0.0
O288 O 0.87092 0.85709 0.85374 0.0
C289 C 0.86928 0.84701 0.84905 0.0
C290 C 0.858 0.87797 0.82804 0.0
C291 C 0.87931 0.84198 0.84382 0.0
C292 C 0.89097 0.8383 0.82743 0.0
C293 C 0.88166 0.84367 0.83224 0.0
C294 C 0.89579 0.82972 0.84576 0.0
C295 C 0.89809 0.83115 0.83411 0.0
C296 C 0.88651 0.83506 0.85054 0.0
C297 C 0.83395 0.86202 0.86983 0.0
C298 C 0.83489 0.8481 0.88531 0.0
C299 C 0.81931 0.86142 0.8841 0.0
C300 C 0.82386 0.8662 0.87423 0.0
C301 C 0.82478 0.85234 0.88982 0.0
C302 C 0.83944 0.85291 0.8754 0.0
C303 C 0.83855 0.86734 0.85947 0.0
O304 O 0.86338 0.87937 0.83798 0.0
O305 O 0.8521 0.86834 0.82736 0.0
O306 O 0.83737 0.86132 0.85006 0.0
O307 O 0.84867 0.87234 0.86069 0.0
H308 H 0.84148 0.89051 0.8378 0.0
H309 H 0.83201 0.90735 0.82977 0.0
H310 H 0.8519 0.90471 0.79944 0.0
H311 H 0.8615 0.88809 0.80769 0.0
H312 H 0.89242 0.83953 0.81842 0.0
H313 H 0.87621 0.849 0.8269 0.0
H314 H 0.9012 0.82448 0.85122 0.0
H315 H 0.88487 0.8337 0.8595 0.0
H316 H 0.83938 0.8412 0.88953 0.0
H317 H 0.81142 0.86477 0.88718 0.0
H318 H 0.81948 0.87318 0.87002 0.0
H319 H 0.84725 0.84958 0.87212 0.0
C320 C 0.19457 0.66453 0.69353 0.0
C321 C 0.20054 0.65864 0.68525 0.0
C322 C 0.20798 0.64551 0.69983 0.0
C323 C 0.20718 0.64922 0.68837 0.0
C324 C 0.20213 0.65161 0.70809 0.0
C325 C 0.19549 0.66099 0.70496 0.0
U326 U 0.18567 0.6905 0.67509 0.0
O327 O 0.16839 0.69594 0.6697 0.0
O328 O 0.17925 0.70702 0.6807 0.0
C329 C 0.16909 0.7053 0.67582 0.0
C330 C 0.18712 0.67419 0.69052 0.0
C331 C 0.15926 0.70751 0.683 0.0
C332 C 0.14737 0.7029 0.69914 0.0
C333 C 0.15679 0.70058 0.69245 0.0
C334 C 0.14284 0.71907 0.68699 0.0
C335 C 0.14025 0.71217 0.69647 0.0
C336 C 0.15224 0.71675 0.68034 0.0
C337 C 0.20354 0.69966 0.64933 0.0
C338 C 0.19799 0.7134 0.6346 0.0
C339 C 0.21751 0.70688 0.63603 0.0
C340 C 0.21469 0.69993 0.6453 0.0
C341 C 0.20922 0.71373 0.63056 0.0
C342 C 0.19518 0.70646 0.64394 0.0
C343 C 0.20092 0.69218 0.65911 0.0
O344 O 0.19167 0.68442 0.69204 0.0
O345 O 0.18093 0.67326 0.68098 0.0
O346 O 0.19155 0.68583 0.65811 0.0
O347 O 0.20238 0.6968 0.66927 0.0
H348 H 0.19997 0.66125 0.67636 0.0
H349 H 0.21148 0.64469 0.68176 0.0
H350 H 0.20271 0.64919 0.71702 0.0
H351 H 0.19101 0.66545 0.71149 0.0
H352 H 0.14558 0.69734 0.7063 0.0
H353 H 0.16212 0.69339 0.69463 0.0
H354 H 0.1377 0.72638 0.68478 0.0
H355 H 0.15404 0.72222 0.67311 0.0
H356 H 0.19143 0.71864 0.63066 0.0
H357 H 0.22618 0.70677 0.63305 0.0
H358 H 0.22125 0.69472 0.64931 0.0
H359 H 0.18652 0.7064 0.64696 0.0
C360 C 0.83235 0.69792 0.64648 0.0
C361 C 0.83923 0.69961 0.63697 0.0
C362 C 0.8232 0.70788 0.62617 0.0
C363 C 0.8347 0.70451 0.62693 0.0
C364 C 0.81643 0.7064 0.63581 0.0
C365 C 0.82095 0.70144 0.64582 0.0
U366 U 0.85361 0.69291 0.67201 0.0
O367 O 0.85 0.68746 0.68955 0.0
O368 O 0.86011 0.67659 0.67869 0.0
C369 C 0.85469 0.67746 0.68831 0.0
C370 C 0.83656 0.69183 0.65685 0.0
C371 C 0.84786 0.66728 0.69172 0.0
C372 C 0.83025 0.65837 0.69835 0.0
C373 C 0.83641 0.66809 0.69492 0.0
C374 C 0.84681 0.64682 0.69535 0.0
C375 C 0.83537 0.64761 0.6986 0.0
C376 C 0.85299 0.65654 0.692 0.0
C377 C 0.88002 0.71286 0.67709 0.0
C378 C 0.89969 0.70976 0.68371 0.0
C379 C 0.891 0.72798 0.68687 0.0
C380 C 0.88087 0.72399 0.68144 0.0
C381 C 0.9006 0.72095 0.68801 0.0
C382 C 0.88953 0.70575 0.67834 0.0
C383 C 0.86939 0.70912 0.6708 0.0
O384 O 0.84605 0.6861 0.65598 0.0
O385 O 0.83598 0.69729 0.66658 0.0
O386 O 0.85977 0.71036 0.67613 0.0
O387 O 0.86973 0.69949 0.66511 0.0
H388 H 0.84806 0.69696 0.63719 0.0
H389 H 0.84015 0.70538 0.61966 0.0
H390 H 0.80761 0.70905 0.63563 0.0
H391 H 0.81546 0.70021 0.65302 0.0
H392 H 0.82143 0.65925 0.70069 0.0
H393 H 0.83218 0.67623 0.69479 0.0
H394 H 0.85105 0.63869 0.69558 0.0
H395 H 0.86182 0.65568 0.68968 0.0
H396 H 0.90692 0.70413 0.68427 0.0
H397 H 0.89128 0.73658 0.69021 0.0
H398 H 0.87369 0.72967 0.68055 0.0
H399 H 0.8892 0.69714 0.67503 0.0
C400 C 0.8452 0.35151 0.66442 0.0
C401 C 0.83542 0.34435 0.66437 0.0
C402 C 0.83894 0.33814 0.64493 0.0
C403 C 0.83236 0.33773 0.65479 0.0
C404 C 0.8488 0.34525 0.64503 0.0
C405 C 0.85189 0.35186 0.65463 0.0
U406 U 0.86338 0.3607 0.69114 0.0
O407 O 0.86806 0.37785 0.69753 0.0
O408 O 0.85785 0.36619 0.70804 0.0
C409 C 0.86248 0.37643 0.70703 0.0
C410 C 0.84785 0.35899 0.67445 0.0
C411 C 0.85568 0.38608 0.71092 0.0
C412 C 0.84377 0.40264 0.70743 0.0
C413 C 0.84954 0.39318 0.70332 0.0
C414 C 0.8501 0.39792 0.72673 0.0
C415 C 0.84401 0.40517 0.71921 0.0
C416 C 0.85584 0.38852 0.72263 0.0
C417 C 0.89018 0.34355 0.70017 0.0
C418 C 0.89931 0.33115 0.71438 0.0
C419 C 0.9101 0.3469 0.70637 0.0
C420 C 0.90049 0.34992 0.69964 0.0
C421 C 0.90967 0.3374 0.71376 0.0
C422 C 0.88973 0.33415 0.70764 0.0
C423 C 0.88016 0.34608 0.69249 0.0
O424 O 0.84658 0.35433 0.68458 0.0
O425 O 0.85697 0.36572 0.674 0.0
O426 O 0.88061 0.35553 0.68641 0.0
O427 O 0.87001 0.34405 0.69666 0.0
H428 H 0.83004 0.34395 0.67173 0.0
H429 H 0.82481 0.33225 0.65514 0.0
H430 H 0.85401 0.34594 0.63757 0.0
H431 H 0.85942 0.35735 0.6543 0.0
H432 H 0.83907 0.40795 0.7014 0.0
H433 H 0.8493 0.39146 0.69424 0.0
H434 H 0.85068 0.39966 0.7358 0.0
H435 H 0.8606 0.38321 0.72863 0.0
H436 H 0.89858 0.32389 0.72008 0.0
H437 H 0.91796 0.35183 0.70554 0.0
H438 H 0.90122 0.35713 0.69388 0.0
H439 H 0.88198 0.32899 0.70818 0.0
C440 C 0.16488 0.33594 0.69563 0.0
C441 C 0.16062 0.34069 0.70557 0.0
C442 C 0.14561 0.32588 0.70608 0.0
C443 C 0.15107 0.33571 0.71075 0.0
C444 C 0.14999 0.32117 0.69612 0.0
C445 C 0.15951 0.32615 0.69097 0.0
U446 U 0.18886 0.35873 0.69243 0.0
O447 O 0.20661 0.35656 0.68724 0.0
O448 O 0.19494 0.36698 0.67675 0.0
C449 C 0.2051 0.36243 0.67774 0.0
C450 C 0.1748 0.34105 0.68989 0.0
C451 C 0.20943 0.35728 0.66731 0.0
C452 C 0.20968 0.34201 0.65331 0.0
C453 C 0.20531 0.34667 0.66325 0.0
C454 C 0.22226 0.35852 0.6514 0.0
C455 C 0.2182 0.3479 0.64723 0.0
C456 C 0.21792 0.36314 0.66132 0.0
C457 C 0.19259 0.38346 0.71368 0.0
C458 C 0.2067 0.3988 0.71158 0.0
C459 C 0.19443 0.39855 0.72784 0.0
C460 C 0.18916 0.38845 0.72384 0.0
C461 C 0.20324 0.4039 0.72175 0.0
C462 C 0.20143 0.38867 0.70759 0.0
C463 C 0.18677 0.37293 0.70953 0.0
O464 O 0.17309 0.35096 0.68489 0.0
O465 O 0.18468 0.3406 0.69553 0.0
O466 O 0.19278 0.36359 0.7103 0.0
O467 O 0.18101 0.37384 0.69975 0.0
H468 H 0.16467 0.34824 0.70931 0.0
H469 H 0.14803 0.3395 0.71847 0.0
H470 H 0.14594 0.31374 0.69217 0.0
H471 H 0.16265 0.32238 0.68327 0.0
H472 H 0.20628 0.33387 0.6503 0.0
H473 H 0.19873 0.34203 0.66776 0.0
H474 H 0.22893 0.36321 0.64709 0.0
H475 H 0.22123 0.37131 0.66434 0.0
H476 H 0.21355 0.40258 0.70674 0.0
H477 H 0.19142 0.40229 0.73561 0.0
H478 H 0.18233 0.38456 0.72865 0.0
H479 H 0.20423 0.38492 0.69974 0.0
C480 C 0.15921 0.3277 0.35636 0.0
C481 C 0.1594 0.31784 0.3496 0.0
C482 C 0.13899 0.31929 0.34501 0.0
C483 C 0.14944 0.31371 0.34396 0.0
C484 C 0.13881 0.32921 0.35173 0.0
C485 C 0.14878 0.33335 0.35735 0.0
U486 U 0.18566 0.34742 0.36293 0.0
O487 O 0.19259 0.35329 0.37961 0.0
O488 O 0.20297 0.3426 0.36883 0.0
C489 C 0.20201 0.34744 0.37884 0.0
C490 C 0.16964 0.33136 0.36304 0.0
C491 C 0.20501 0.34025 0.38878 0.0
C492 C 0.20041 0.32516 0.40231 0.0
C493 C 0.19732 0.33197 0.39288 0.0
C494 C 0.2189 0.33484 0.40358 0.0
C495 C 0.21127 0.32648 0.40774 0.0
C496 C 0.21579 0.34165 0.3942 0.0
C497 C 0.1925 0.37326 0.34384 0.0
C498 C 0.20884 0.3861 0.34724 0.0
C499 C 0.19618 0.38895 0.33075 0.0
C500 C 0.18954 0.3795 0.33399 0.0
C501 C 0.20595 0.39237 0.3373 0.0
C502 C 0.20218 0.37661 0.35047 0.0
C503 C 0.18541 0.36326 0.34695 0.0
O504 O 0.17948 0.3302 0.35807 0.0
O505 O 0.16912 0.34088 0.36888 0.0
O506 O 0.17987 0.36408 0.35649 0.0
O507 O 0.19017 0.35329 0.34574 0.0
H508 H 0.16726 0.3132 0.34877 0.0
H509 H 0.14995 0.30614 0.33875 0.0
H510 H 0.1309 0.33364 0.35288 0.0
H511 H 0.14825 0.34086 0.36262 0.0
H512 H 0.19438 0.31874 0.40522 0.0
H513 H 0.18896 0.33074 0.38875 0.0
H514 H 0.22726 0.33621 0.40766 0.0
H515 H 0.22182 0.34802 0.39117 0.0
H516 H 0.21636 0.38842 0.35243 0.0
H517 H 0.19358 0.39366 0.32316 0.0
H518 H 0.18207 0.37706 0.32878 0.0
H519 H 0.20461 0.37187 0.3581 0.0
C520 C 0.16084 0.68246 0.33026 0.0
C521 C 0.15641 0.68943 0.3387 0.0
C522 C 0.14139 0.69587 0.32532 0.0
C523 C 0.14677 0.69606 0.33626 0.0
C524 C 0.146 0.68897 0.31687 0.0
C525 C 0.1556 0.68234 0.31933 0.0
U526 U 0.18794 0.67429 0.34767 0.0
O527 O 0.19393 0.65729 0.35297 0.0
O528 O 0.20431 0.66799 0.3417 0.0
C529 C 0.203 0.65797 0.34664 0.0
C530 C 0.17076 0.67514 0.33265 0.0
C531 C 0.2052 0.64788 0.33958 0.0
C532 C 0.2034 0.63724 0.32177 0.0
C533 C 0.20095 0.64688 0.32827 0.0
C534 C 0.21426 0.62951 0.33785 0.0
C535 C 0.21008 0.62841 0.3265 0.0
C536 C 0.21185 0.63912 0.3443 0.0
C537 C 0.19726 0.69325 0.37358 0.0
C538 C 0.2121 0.68926 0.38804 0.0
C539 C 0.20279 0.70753 0.38779 0.0
C540 C 0.19607 0.7041 0.37829 0.0
C541 C 0.21091 0.70018 0.39282 0.0
C542 C 0.20534 0.68583 0.37848 0.0
C543 C 0.1898 0.68993 0.3637 0.0
O544 O 0.18086 0.67983 0.33092 0.0
O545 O 0.17048 0.66905 0.3421 0.0
O546 O 0.18377 0.68042 0.36475 0.0
O547 O 0.1942 0.69117 0.35358 0.0
H548 H 0.16035 0.68967 0.3472 0.0
H549 H 0.14342 0.70117 0.34302 0.0
H550 H 0.14226 0.68875 0.3083 0.0
H551 H 0.15893 0.67707 0.31267 0.0
H552 H 0.19996 0.63664 0.3131 0.0
H553 H 0.19576 0.65353 0.32447 0.0
H554 H 0.21958 0.623 0.34173 0.0
H555 H 0.21525 0.63975 0.353 0.0
H556 H 0.21832 0.68342 0.39161 0.0
H557 H 0.20147 0.7159 0.39132 0.0
H558 H 0.18984 0.70992 0.37467 0.0
H559 H 0.20641 0.67742 0.37494 0.0
C560 C 0.83247 0.65812 0.34278 0.0
C561 C 0.83993 0.64994 0.33869 0.0
C562 C 0.8237 0.63768 0.33271 0.0
C563 C 0.83559 0.63982 0.33376 0.0
C564 C 0.81628 0.64599 0.3367 0.0
C565 C 0.82063 0.65607 0.34169 0.0
U566 U 0.85383 0.68342 0.34608 0.0
O567 O 0.85069 0.70135 0.3502 0.0
O568 O 0.86153 0.69109 0.36173 0.0
C569 C 0.85647 0.70088 0.36 0.0
C570 C 0.8368 0.66868 0.34842 0.0
C571 C 0.85096 0.70582 0.36996 0.0
C572 C 0.83443 0.70861 0.3817 0.0
C573 C 0.83947 0.70343 0.37237 0.0
C574 C 0.85235 0.71846 0.38636 0.0
C575 C 0.84079 0.71629 0.38876 0.0
C576 C 0.85736 0.7133 0.37707 0.0
C577 C 0.87869 0.68647 0.3254 0.0
C578 C 0.8918 0.70282 0.32488 0.0
C579 C 0.89497 0.68644 0.31296 0.0
C580 C 0.88522 0.68104 0.31728 0.0
C581 C 0.8984 0.69742 0.31668 0.0
C582 C 0.88205 0.6974 0.3292 0.0
C583 C 0.86839 0.68062 0.3297 0.0
O584 O 0.84665 0.66799 0.35411 0.0
O585 O 0.83588 0.67812 0.34239 0.0
O586 O 0.85875 0.68609 0.32827 0.0
O587 O 0.86953 0.67583 0.33983 0.0
H588 H 0.84911 0.65132 0.33941 0.0
H589 H 0.8416 0.6336 0.33095 0.0
H590 H 0.80709 0.64478 0.33587 0.0
H591 H 0.81471 0.66227 0.34475 0.0
H592 H 0.82549 0.70679 0.38323 0.0
H593 H 0.83438 0.69765 0.36699 0.0
H594 H 0.85759 0.72413 0.39171 0.0
H595 H 0.86625 0.71521 0.37539 0.0
H596 H 0.89408 0.71132 0.32785 0.0
H597 H 0.8999 0.68193 0.30681 0.0
H598 H 0.88278 0.67258 0.31427 0.0
H599 H 0.8771 0.70174 0.33546 0.0
C600 C 0.8533 0.38072 0.3361 0.0
C601 C 0.84335 0.3852 0.34056 0.0
C602 C 0.84331 0.40026 0.32606 0.0
C603 C 0.83837 0.39489 0.33556 0.0
C604 C 0.85325 0.39564 0.32164 0.0
C605 C 0.85818 0.38599 0.32662 0.0
U606 U 0.85692 0.3561 0.35813 0.0
O607 O 0.86199 0.33848 0.35484 0.0
O608 O 0.87308 0.34959 0.36556 0.0
C609 C 0.87202 0.33984 0.36011 0.0
C610 C 0.85886 0.37061 0.34107 0.0
C611 C 0.88199 0.33661 0.35351 0.0
C612 C 0.89297 0.33767 0.33622 0.0
C613 C 0.88349 0.34083 0.34241 0.0
C614 C 0.89966 0.32616 0.35221 0.0
C615 C 0.90119 0.33029 0.34104 0.0
C616 C 0.89015 0.32929 0.35837 0.0
C617 C 0.83611 0.35201 0.38291 0.0
C618 C 0.83865 0.33898 0.39899 0.0
C619 C 0.82078 0.34885 0.3962 0.0
C620 C 0.82503 0.3542 0.38647 0.0
C621 C 0.82752 0.34117 0.40263 0.0
C622 C 0.8429 0.34434 0.38922 0.0
C623 C 0.84034 0.3579 0.37266 0.0
O624 O 0.8641 0.37202 0.35107 0.0
O625 O 0.85304 0.36093 0.34026 0.0
O626 O 0.8392 0.35224 0.36302 0.0
O627 O 0.85027 0.3633 0.37386 0.0
H628 H 0.83947 0.38123 0.3479 0.0
H629 H 0.83076 0.39827 0.33923 0.0
H630 H 0.85718 0.3994 0.31423 0.0
H631 H 0.86584 0.38261 0.32303 0.0
H632 H 0.89394 0.34112 0.3277 0.0
H633 H 0.87732 0.34657 0.33854 0.0
H634 H 0.90575 0.32038 0.35614 0.0
H635 H 0.88915 0.32595 0.36693 0.0
H636 H 0.84415 0.33323 0.40377 0.0
H637 H 0.81212 0.35061 0.39858 0.0
H638 H 0.81964 0.36006 0.38169 0.0
H639 H 0.85148 0.34254 0.38661 0.0
C640 C 0.70492 0.16008 0.69544 0.0
C641 C 0.70793 0.15255 0.68677 0.0
C642 C 0.71774 0.14039 0.7008 0.0
C643 C 0.71424 0.14279 0.68944 0.0
C644 C 0.71489 0.14809 0.70939 0.0
C645 C 0.70854 0.15779 0.70673 0.0
U646 U 0.69535 0.18665 0.67808 0.0
O647 O 0.67793 0.19244 0.67389 0.0
O648 O 0.68961 0.2032 0.68442 0.0
C649 C 0.67917 0.20171 0.68013 0.0
C650 C 0.69758 0.17003 0.6931 0.0
C651 C 0.66976 0.20418 0.68781 0.0
C652 C 0.6548 0.19813 0.70066 0.0
C653 C 0.66409 0.19553 0.6939 0.0
C654 C 0.65692 0.21806 0.69553 0.0
C655 C 0.65101 0.20943 0.70147 0.0
C656 C 0.66616 0.21546 0.68877 0.0
C657 C 0.71133 0.19561 0.65096 0.0
C658 C 0.70948 0.21362 0.64067 0.0
C659 C 0.71981 0.19815 0.63241 0.0
C660 C 0.7176 0.19137 0.64197 0.0
C661 C 0.71578 0.20937 0.63161 0.0
C662 C 0.70724 0.20678 0.65025 0.0
C663 C 0.70937 0.18822 0.66098 0.0
O664 O 0.70246 0.18014 0.69447 0.0
O665 O 0.69063 0.16944 0.68406 0.0
O666 O 0.69991 0.18197 0.66062 0.0
O667 O 0.71159 0.19281 0.67105 0.0
H668 H 0.70529 0.15413 0.67796 0.0
H669 H 0.7164 0.13712 0.68259 0.0
H670 H 0.7173 0.14646 0.71825 0.0
H671 H 0.70628 0.16343 0.71357 0.0
H672 H 0.65043 0.19125 0.70503 0.0
H673 H 0.66674 0.18676 0.6933 0.0
H674 H 0.65443 0.22688 0.6961 0.0
H675 H 0.67045 0.22227 0.68419 0.0
H676 H 0.70616 0.22217 0.6403 0.0
H677 H 0.72484 0.19464 0.62571 0.0
H678 H 0.72088 0.18279 0.64237 0.0
H679 H 0.70235 0.21021 0.6571 0.0
C680 C 0.33822 0.19196 0.66107 0.0
C681 C 0.34391 0.2013 0.65614 0.0
C682 C 0.32858 0.20286 0.64159 0.0
C683 C 0.33913 0.20671 0.64647 0.0
C684 C 0.32298 0.19345 0.64659 0.0
C685 C 0.32776 0.18806 0.65623 0.0
U686 U 0.36035 0.18842 0.68593 0.0
O687 O 0.3572 0.18333 0.70369 0.0
O688 O 0.36752 0.17256 0.69296 0.0
C689 C 0.36219 0.17346 0.70262 0.0
C690 C 0.34293 0.18617 0.6713 0.0
C691 C 0.35524 0.16341 0.70586 0.0
C692 C 0.33991 0.14962 0.70159 0.0
C693 C 0.34651 0.15915 0.69846 0.0
C694 C 0.35059 0.14858 0.71961 0.0
C695 C 0.34187 0.1442 0.71221 0.0
C696 C 0.35722 0.15809 0.71645 0.0
C697 C 0.3859 0.20964 0.68948 0.0
C698 C 0.40168 0.20777 0.70338 0.0
C699 C 0.40079 0.22438 0.69102 0.0
C700 C 0.39061 0.22011 0.68594 0.0
C701 C 0.40651 0.21825 0.69978 0.0
C702 C 0.39146 0.20351 0.69828 0.0
C703 C 0.37533 0.20526 0.68372 0.0
O704 O 0.35273 0.18108 0.67012 0.0
O705 O 0.34244 0.19184 0.68092 0.0
O706 O 0.36588 0.20617 0.68939 0.0
O707 O 0.3761 0.19539 0.67855 0.0
H708 H 0.35202 0.20441 0.65977 0.0
H709 H 0.34374 0.21385 0.64277 0.0
H710 H 0.31478 0.19036 0.64319 0.0
H711 H 0.32324 0.18088 0.65997 0.0
H712 H 0.33317 0.14659 0.69575 0.0
H713 H 0.3448 0.16321 0.69027 0.0
H714 H 0.35241 0.14455 0.7278 0.0
H715 H 0.36392 0.16127 0.72228 0.0
H716 H 0.40576 0.20289 0.71018 0.0
H717 H 0.40432 0.23237 0.68791 0.0
H718 H 0.38646 0.22494 0.67914 0.0
H719 H 0.38792 0.19542 0.70115 0.0
C720 C 0.33866 0.85349 0.66265 0.0
C721 C 0.34509 0.84395 0.65993 0.0
C722 C 0.33281 0.84038 0.64298 0.0
C723 C 0.3422 0.83746 0.65018 0.0
C724 C 0.32646 0.85001 0.64576 0.0
C725 C 0.32936 0.85648 0.65548 0.0
U726 U 0.35744 0.86031 0.68926 0.0
O727 O 0.36312 0.87683 0.69651 0.0
O728 O 0.35263 0.86507 0.70662 0.0
C729 C 0.35771 0.87515 0.70606 0.0
C730 C 0.34146 0.86036 0.67293 0.0
C731 C 0.3514 0.88486 0.71056 0.0
C732 C 0.33957 0.90163 0.70812 0.0
C733 C 0.34494 0.89217 0.70348 0.0
C734 C 0.34698 0.89647 0.72694 0.0
C735 C 0.34056 0.90392 0.71993 0.0
C736 C 0.35231 0.88707 0.7223 0.0
C737 C 0.38358 0.84172 0.69611 0.0
C738 C 0.39915 0.8464 0.70968 0.0
C739 C 0.39723 0.8273 0.70201 0.0
C740 C 0.38752 0.83054 0.6956 0.0
C741 C 0.40325 0.8352 0.70908 0.0
C742 C 0.3894 0.84963 0.70327 0.0
C743 C 0.37348 0.84491 0.68902 0.0
O744 O 0.34027 0.85507 0.68275 0.0
O745 O 0.35089 0.86662 0.6726 0.0
O746 O 0.37419 0.85473 0.6836 0.0
O747 O 0.3635 0.8431 0.69362 0.0
H748 H 0.3523 0.84149 0.66537 0.0
H749 H 0.34721 0.83005 0.6484 0.0
H750 H 0.3193 0.85265 0.64034 0.0
H751 H 0.32431 0.86384 0.65741 0.0
H752 H 0.33461 0.9071 0.70248 0.0
H753 H 0.3441 0.89061 0.69437 0.0
H754 H 0.34812 0.89803 0.73601 0.0
H755 H 0.35733 0.88159 0.72791 0.0
H756 H 0.4036 0.85275 0.71494 0.0
H757 H 0.39997 0.81855 0.70148 0.0
H758 H 0.38311 0.82429 0.69019 0.0
H759 H 0.38646 0.85831 0.70382 0.0
C760 C 0.65527 0.82782 0.68369 0.0
C761 C 0.65134 0.83307 0.69353 0.0
C762 C 0.63625 0.81845 0.69512 0.0
C763 C 0.64192 0.82843 0.69919 0.0
C764 C 0.64031 0.81323 0.68527 0.0
C765 C 0.64971 0.81788 0.67963 0.0
U766 U 0.67887 0.85057 0.67928 0.0
O767 O 0.69659 0.84865 0.67392 0.0
O768 O 0.68457 0.85862 0.66333 0.0
C769 C 0.69484 0.85428 0.66431 0.0
C770 C 0.66502 0.83265 0.67746 0.0
C771 C 0.69936 0.84925 0.65386 0.0
C772 C 0.70504 0.83302 0.64257 0.0
C773 C 0.70003 0.83741 0.65232 0.0
C774 C 0.70853 0.85224 0.6357 0.0
C775 C 0.70949 0.8404 0.63419 0.0
C776 C 0.70355 0.85659 0.64542 0.0
C777 C 0.68197 0.87582 0.70018 0.0
C778 C 0.69763 0.88982 0.7005 0.0
C779 C 0.68125 0.89259 0.71224 0.0
C780 C 0.67632 0.88239 0.70812 0.0
C781 C 0.69197 0.89646 0.70849 0.0
C782 C 0.69266 0.87961 0.69635 0.0
C783 C 0.67655 0.86507 0.69608 0.0
O784 O 0.66315 0.84235 0.67212 0.0
O785 O 0.67503 0.83246 0.6829 0.0
O786 O 0.68283 0.85592 0.69698 0.0
O787 O 0.67075 0.86569 0.68631 0.0
H788 H 0.65554 0.84075 0.69681 0.0
H789 H 0.63914 0.83261 0.70681 0.0
H790 H 0.63609 0.80566 0.68177 0.0
H791 H 0.6526 0.81373 0.67202 0.0
H792 H 0.70569 0.82387 0.64175 0.0
H793 H 0.69683 0.83156 0.65871 0.0
H794 H 0.71162 0.85819 0.62935 0.0
H795 H 0.7031 0.86576 0.64641 0.0
H796 H 0.70584 0.8926 0.69735 0.0
H797 H 0.67671 0.89737 0.7185 0.0
H798 H 0.66808 0.87959 0.7112 0.0
H799 H 0.69714 0.87467 0.69017 0.0
C800 C 0.64771 0.83381 0.33929 0.0
C801 C 0.64867 0.82823 0.32876 0.0
C802 C 0.62797 0.82861 0.32542 0.0
C803 C 0.63892 0.82567 0.32191 0.0
C804 C 0.62704 0.8343 0.33588 0.0
C805 C 0.63677 0.83682 0.34275 0.0
U806 U 0.67529 0.85025 0.34902 0.0
O807 O 0.68126 0.85519 0.36637 0.0
O808 O 0.69158 0.84387 0.35616 0.0
C809 C 0.69027 0.84868 0.36614 0.0
C810 C 0.65783 0.83583 0.34709 0.0
C811 C 0.69248 0.84153 0.37638 0.0
C812 C 0.69397 0.82307 0.38589 0.0
C813 C 0.69116 0.82959 0.37617 0.0
C814 C 0.69918 0.84034 0.39622 0.0
C815 C 0.69806 0.82837 0.39603 0.0
C816 C 0.69644 0.84682 0.38651 0.0
C817 C 0.6855 0.87618 0.3316 0.0
C818 C 0.70119 0.88894 0.33762 0.0
C819 C 0.69185 0.89142 0.31904 0.0
C820 C 0.68456 0.88213 0.32122 0.0
C821 C 0.70025 0.89498 0.32721 0.0
C822 C 0.69389 0.87961 0.33979 0.0
C823 C 0.67755 0.86657 0.33373 0.0
O824 O 0.66797 0.83381 0.34304 0.0
O825 O 0.65775 0.84509 0.35338 0.0
O826 O 0.67129 0.86749 0.34279 0.0
O827 O 0.68171 0.85633 0.33254 0.0
H828 H 0.65694 0.8257 0.32585 0.0
H829 H 0.63997 0.82136 0.31386 0.0
H830 H 0.61873 0.83652 0.33895 0.0
H831 H 0.63569 0.84094 0.35089 0.0
H832 H 0.6929 0.81389 0.38549 0.0
H833 H 0.68807 0.8253 0.36847 0.0
H834 H 0.70245 0.84469 0.40382 0.0
H835 H 0.69758 0.85601 0.38685 0.0
H836 H 0.70763 0.89137 0.34404 0.0
H837 H 0.69076 0.89596 0.31101 0.0
H838 H 0.67811 0.87963 0.31482 0.0
H839 H 0.69476 0.87508 0.34785 0.0
C840 C 0.65652 0.18861 0.33269 0.0
C841 C 0.65678 0.20057 0.33355 0.0
C842 C 0.6366 0.2013 0.32753 0.0
C843 C 0.64693 0.20686 0.33095 0.0
C844 C 0.63637 0.18932 0.32682 0.0
C845 C 0.64622 0.18307 0.32934 0.0
U846 U 0.68433 0.18068 0.34947 0.0
O847 O 0.69084 0.16366 0.3538 0.0
O848 O 0.70082 0.17518 0.34297 0.0
C849 C 0.69989 0.16494 0.3475 0.0
C850 C 0.66685 0.18169 0.33481 0.0
C851 C 0.70256 0.15529 0.34004 0.0
C852 C 0.69712 0.14081 0.32592 0.0
C853 C 0.69427 0.15013 0.33269 0.0
C854 C 0.71654 0.14179 0.33373 0.0
C855 C 0.70832 0.13653 0.32633 0.0
C856 C 0.71368 0.15105 0.34048 0.0
C857 C 0.69389 0.19846 0.37604 0.0
C858 C 0.71078 0.19512 0.38821 0.0
C859 C 0.69857 0.21098 0.39208 0.0
C860 C 0.69143 0.20791 0.38274 0.0
C861 C 0.70837 0.20467 0.39494 0.0
C862 C 0.70361 0.19205 0.37882 0.0
C863 C 0.68616 0.19557 0.36622 0.0
O864 O 0.67681 0.18672 0.33313 0.0
O865 O 0.66686 0.17518 0.34398 0.0
O866 O 0.68037 0.18588 0.36693 0.0
O867 O 0.69024 0.19742 0.35604 0.0
H868 H 0.66461 0.20507 0.33615 0.0
H869 H 0.64738 0.21606 0.3317 0.0
H870 H 0.62863 0.18476 0.32407 0.0
H871 H 0.64581 0.17387 0.32855 0.0
H872 H 0.69061 0.13704 0.32026 0.0
H873 H 0.68563 0.15329 0.33221 0.0
H874 H 0.72518 0.13864 0.33445 0.0
H875 H 0.72018 0.15487 0.34614 0.0
H876 H 0.7183 0.19011 0.39009 0.0
H877 H 0.6963 0.21825 0.39715 0.0
H878 H 0.68393 0.21293 0.38076 0.0
H879 H 0.70566 0.18473 0.37373 0.0
C880 C 0.33145 0.15657 0.35788 0.0
C881 C 0.33301 0.15435 0.34627 0.0
C882 C 0.32077 0.13727 0.34736 0.0
C883 C 0.32771 0.14479 0.34105 0.0
C884 C 0.31944 0.13946 0.35905 0.0
C885 C 0.32471 0.14901 0.36423 0.0
U886 U 0.35395 0.18094 0.36076 0.0
O887 O 0.35174 0.19888 0.36549 0.0
O888 O 0.36253 0.18788 0.37633 0.0
C889 C 0.35759 0.19783 0.37521 0.0
C890 C 0.33654 0.16676 0.36354 0.0
C891 C 0.35245 0.20249 0.38561 0.0
C892 C 0.35408 0.2066 0.406 0.0
C893 C 0.35831 0.20155 0.39623 0.0
C894 C 0.33796 0.21365 0.39479 0.0
C895 C 0.3439 0.21283 0.40541 0.0
C896 C 0.34218 0.20856 0.38502 0.0
C897 C 0.37797 0.18331 0.33884 0.0
C898 C 0.38983 0.19992 0.33428 0.0
C899 C 0.39512 0.18119 0.3279 0.0
C900 C 0.38553 0.17641 0.33309 0.0
C901 C 0.39734 0.19303 0.32829 0.0
C902 C 0.38023 0.1951 0.33952 0.0
C903 C 0.36763 0.17799 0.34368 0.0
O904 O 0.34662 0.16543 0.36861 0.0
O905 O 0.33575 0.17641 0.35784 0.0
O906 O 0.35818 0.18387 0.34281 0.0
O907 O 0.36906 0.17293 0.35365 0.0
H908 H 0.33821 0.16007 0.34121 0.0
H909 H 0.32885 0.14345 0.33203 0.0
H910 H 0.31437 0.13376 0.36425 0.0
H911 H 0.32346 0.15053 0.37322 0.0
H912 H 0.35881 0.20563 0.41403 0.0
H913 H 0.36629 0.19703 0.39696 0.0
H914 H 0.33019 0.21849 0.39395 0.0
H915 H 0.33749 0.20958 0.37697 0.0
H916 H 0.3912 0.20907 0.3347 0.0
H917 H 0.4008 0.17558 0.32359 0.0
H918 H 0.38397 0.16729 0.33252 0.0
H919 H 0.37452 0.2006 0.34394 0.0
C920 C 0.341 0.87892 0.32979 0.0
C921 C 0.3318 0.88372 0.33533 0.0
C922 C 0.33046 0.89869 0.32077 0.0
C923 C 0.32658 0.89352 0.33087 0.0
C924 C 0.33964 0.89374 0.31523 0.0
C925 C 0.34484 0.88397 0.31971 0.0
U926 U 0.34506 0.85467 0.35183 0.0
O927 O 0.34986 0.83687 0.34911 0.0
O928 O 0.36111 0.84815 0.35954 0.0
C929 C 0.35971 0.83809 0.35474 0.0
C930 C 0.34687 0.86881 0.33444 0.0
C931 C 0.3698 0.83346 0.34923 0.0
C932 C 0.38114 0.83017 0.33252 0.0
C933 C 0.37176 0.83519 0.33758 0.0
C934 C 0.38678 0.82184 0.35076 0.0
C935 C 0.38871 0.82331 0.33903 0.0
C936 C 0.37743 0.82685 0.35578 0.0
C937 C 0.32497 0.85111 0.37707 0.0
C938 C 0.32904 0.84242 0.39566 0.0
C939 C 0.30942 0.84411 0.38874 0.0
C940 C 0.31324 0.8493 0.37872 0.0
C941 C 0.31726 0.84064 0.39739 0.0
C942 C 0.33285 0.84754 0.3856 0.0
C943 C 0.32874 0.85692 0.36655 0.0
O944 O 0.35243 0.87026 0.34427 0.0
O945 O 0.34105 0.85911 0.33387 0.0
O946 O 0.32736 0.85109 0.35703 0.0
O947 O 0.33857 0.86256 0.36728 0.0
H948 H 0.3287 0.87993 0.34313 0.0
H949 H 0.31945 0.897 0.33529 0.0
H950 H 0.34299 0.89754 0.30755 0.0
H951 H 0.35197 0.8804 0.31533 0.0
H952 H 0.3823 0.83143 0.32347 0.0
H953 H 0.36597 0.84029 0.33237 0.0
H954 H 0.39252 0.81683 0.35609 0.0
H955 H 0.37609 0.82545 0.36479 0.0
H956 H 0.33535 0.84003 0.40215 0.0
H957 H 0.30031 0.84273 0.38964 0.0
H958 H 0.30701 0.85194 0.37225 0.0
H959 H 0.34196 0.84881 0.38456 0.0
C960 C 0.68688 0.66206 0.19638 0.0
C961 C 0.69356 0.65713 0.18803 0.0
C962 C 0.7004 0.64291 0.2018 0.0
C963 C 0.70024 0.64763 0.19071 0.0
C964 C 0.69382 0.64804 0.21015 0.0
C965 C 0.68713 0.65749 0.20745 0.0
U966 U 0.67841 0.68844 0.17862 0.0
O967 O 0.66127 0.69422 0.1732 0.0
O968 O 0.67224 0.70498 0.18442 0.0
C969 C 0.66207 0.70347 0.17949 0.0
C970 C 0.6795 0.67184 0.19375 0.0
C971 C 0.65228 0.70561 0.18675 0.0
C972 C 0.64046 0.70078 0.20287 0.0
C973 C 0.64975 0.69847 0.19602 0.0
C974 C 0.63613 0.71736 0.19122 0.0
C975 C 0.63355 0.71029 0.20058 0.0
C976 C 0.6454 0.71504 0.18439 0.0
C977 C 0.69676 0.69751 0.15307 0.0
C978 C 0.69151 0.7087 0.13619 0.0
C979 C 0.71149 0.7062 0.14148 0.0
C980 C 0.70833 0.69967 0.15093 0.0
C981 C 0.70314 0.7107 0.13389 0.0
C982 C 0.68835 0.70217 0.1457 0.0
C983 C 0.69382 0.69006 0.1628 0.0
O984 O 0.6842 0.68198 0.19549 0.0
O985 O 0.6733 0.6712 0.18421 0.0
O986 O 0.68438 0.68382 0.16166 0.0
O987 O 0.69528 0.69456 0.17301 0.0
H988 H 0.69351 0.66055 0.17942 0.0
H989 H 0.70511 0.64386 0.18404 0.0
H990 H 0.69389 0.64481 0.21883 0.0
H991 H 0.6821 0.66123 0.21403 0.0
H992 H 0.6388 0.69522 0.21007 0.0
H993 H 0.655 0.69116 0.19798 0.0
H994 H 0.63091 0.72464 0.18909 0.0
H995 H 0.64719 0.72062 0.17724 0.0
H996 H 0.68484 0.71194 0.1305 0.0
H997 H 0.72051 0.70774 0.14015 0.0
H998 H 0.71496 0.6962 0.15653 0.0
H999 H 0.67935 0.70065 0.14718 0.0
C1000 C 0.32861 0.68704 0.15024 0.0
C1001 C 0.33612 0.69078 0.14181 0.0
C1002 C 0.32005 0.69731 0.12979 0.0
C1003 C 0.33189 0.6958 0.1317 0.0
C1004 C 0.31258 0.69365 0.13833 0.0
C1005 C 0.31681 0.68856 0.14841 0.0
U1006 U 0.3498 0.68442 0.17585 0.0
O1007 O 0.34675 0.6798 0.19376 0.0
O1008 O 0.35778 0.66923 0.18351 0.0
C1009 C 0.35283 0.6705 0.19333 0.0
C1010 C 0.33282 0.68136 0.16084 0.0
C1011 C 0.34775 0.6601 0.19836 0.0
C1012 C 0.33331 0.64487 0.19871 0.0
C1013 C 0.33777 0.65486 0.19372 0.0
C1014 C 0.34874 0.64537 0.213 0.0
C1015 C 0.33879 0.63997 0.20839 0.0
C1016 C 0.35316 0.65531 0.20803 0.0
C1017 C 0.37448 0.70639 0.17935 0.0
C1018 C 0.38898 0.70558 0.19468 0.0
C1019 C 0.38966 0.72084 0.18069 0.0
C1020 C 0.37981 0.7163 0.17518 0.0
C1021 C 0.39441 0.71553 0.1905 0.0
C1022 C 0.3791 0.70106 0.18916 0.0
C1023 C 0.36418 0.70172 0.17331 0.0
O1024 O 0.34266 0.67617 0.16031 0.0
O1025 O 0.33182 0.68712 0.17035 0.0
O1026 O 0.35456 0.70247 0.17874 0.0
O1027 O 0.36535 0.69178 0.16839 0.0
H1028 H 0.34527 0.68975 0.14299 0.0
H1029 H 0.33793 0.69834 0.12529 0.0
H1030 H 0.30344 0.69482 0.1373 0.0
H1031 H 0.31085 0.68577 0.15479 0.0
H1032 H 0.32568 0.6409 0.19489 0.0
H1033 H 0.33349 0.65844 0.18623 0.0
H1034 H 0.35308 0.64198 0.22055 0.0
H1035 H 0.36085 0.65926 0.21176 0.0
H1036 H 0.3923 0.70134 0.20229 0.0
H1037 H 0.39368 0.72839 0.17713 0.0
H1038 H 0.37637 0.72051 0.1676 0.0
H1039 H 0.37508 0.6934 0.19252 0.0
C1040 C 0.34214 0.34727 0.16209 0.0
C1041 C 0.34791 0.33708 0.16025 0.0
C1042 C 0.33737 0.33436 0.14207 0.0
C1043 C 0.34552 0.33066 0.15034 0.0
C1044 C 0.33159 0.34455 0.14406 0.0
C1045 C 0.33395 0.35091 0.15395 0.0
U1046 U 0.35991 0.35594 0.18913 0.0
O1047 O 0.36426 0.3732 0.19543 0.0
O1048 O 0.354 0.36153 0.20584 0.0
C1049 C 0.35838 0.37187 0.20473 0.0
C1050 C 0.34449 0.35432 0.17232 0.0
C1051 C 0.35094 0.38136 0.20771 0.0
C1052 C 0.33476 0.39377 0.20387 0.0
C1053 C 0.34162 0.38467 0.20067 0.0
C1054 C 0.34653 0.3963 0.22109 0.0
C1055 C 0.33709 0.39965 0.21418 0.0
C1056 C 0.35334 0.38727 0.21789 0.0
C1057 C 0.3875 0.33942 0.19757 0.0
C1058 C 0.39677 0.3303 0.21413 0.0
C1059 C 0.40832 0.33877 0.19944 0.0
C1060 C 0.39838 0.34204 0.1934 0.0
C1061 C 0.40766 0.33267 0.20979 0.0
C1062 C 0.38681 0.3336 0.20808 0.0
C1063 C 0.37711 0.34179 0.19034 0.0
O1064 O 0.3434 0.34919 0.18225 0.0
O1065 O 0.35357 0.36108 0.17199 0.0
O1066 O 0.37726 0.35127 0.1843 0.0
O1067 O 0.36709 0.33955 0.19473 0.0
H1068 H 0.3543 0.33415 0.16644 0.0
H1069 H 0.3502 0.32291 0.14905 0.0
H1070 H 0.32513 0.34757 0.138 0.0
H1071 H 0.32938 0.35873 0.15523 0.0
H1072 H 0.32754 0.39608 0.19837 0.0
H1073 H 0.33963 0.38021 0.19276 0.0
H1074 H 0.34875 0.40074 0.22896 0.0
H1075 H 0.36053 0.3849 0.22341 0.0
H1076 H 0.39591 0.32552 0.22199 0.0
H1077 H 0.41653 0.34092 0.19591 0.0
H1078 H 0.39923 0.34641 0.18529 0.0
H1079 H 0.37859 0.3313 0.21151 0.0
C1080 C 0.6632 0.33397 0.18653 0.0
C1081 C 0.66116 0.33521 0.19821 0.0
C1082 C 0.64366 0.32357 0.1961 0.0
C1083 C 0.65147 0.33006 0.20295 0.0
C1084 C 0.64566 0.32262 0.18436 0.0
C1085 C 0.65532 0.32775 0.17965 0.0
U1086 U 0.68866 0.35545 0.18418 0.0
O1087 O 0.7064 0.3519 0.17966 0.0
O1088 O 0.69583 0.36293 0.16864 0.0
C1089 C 0.70546 0.35737 0.16987 0.0
C1090 C 0.67362 0.33866 0.18132 0.0
C1091 C 0.70902 0.35103 0.15976 0.0
C1092 C 0.70469 0.33842 0.14367 0.0
C1093 C 0.70117 0.34428 0.15332 0.0
C1094 C 0.72399 0.34583 0.1469 0.0
C1095 C 0.71615 0.33913 0.14033 0.0
C1096 C 0.72045 0.35173 0.1565 0.0
C1097 C 0.69262 0.38024 0.20573 0.0
C1098 C 0.70604 0.39625 0.20409 0.0
C1099 C 0.69471 0.39424 0.22095 0.0
C1100 C 0.68961 0.38427 0.21645 0.0
C1101 C 0.70294 0.40042 0.21481 0.0
C1102 C 0.70094 0.38624 0.1996 0.0
C1103 C 0.68672 0.36997 0.20105 0.0
O1104 O 0.67265 0.3486 0.17619 0.0
O1105 O 0.68325 0.33768 0.18732 0.0
O1106 O 0.69226 0.36035 0.20211 0.0
O1107 O 0.68155 0.37116 0.191 0.0
H1108 H 0.66714 0.34 0.20367 0.0
H1109 H 0.65025 0.33091 0.21203 0.0
H1110 H 0.63973 0.3179 0.17878 0.0
H1111 H 0.65671 0.32674 0.17061 0.0
H1112 H 0.69846 0.33323 0.13891 0.0
H1113 H 0.69232 0.34354 0.15574 0.0
H1114 H 0.73284 0.34667 0.14452 0.0
H1115 H 0.72664 0.35689 0.16135 0.0
H1116 H 0.71244 0.4007 0.19918 0.0
H1117 H 0.69197 0.39724 0.22914 0.0
H1118 H 0.68318 0.37977 0.2213 0.0
H1119 H 0.7034 0.38324 0.19131 0.0
C1120 C 0.66159 0.3339 0.84761 0.0
C1121 C 0.65939 0.33937 0.8371 0.0
C1122 C 0.64177 0.32809 0.83426 0.0
C1123 C 0.64958 0.33647 0.83046 0.0
C1124 C 0.6441 0.32261 0.84478 0.0
C1125 C 0.65391 0.3255 0.85138 0.0
U1126 U 0.6879 0.35284 0.85394 0.0
O1127 O 0.69479 0.35992 0.8702 0.0
O1128 O 0.70521 0.34848 0.86024 0.0
C1129 C 0.70436 0.35427 0.86975 0.0
C1130 C 0.67177 0.33697 0.85478 0.0
C1131 C 0.70814 0.34845 0.88037 0.0
C1132 C 0.70725 0.33262 0.89386 0.0
C1133 C 0.70331 0.33797 0.88377 0.0
C1134 C 0.72081 0.34822 0.89723 0.0
C1135 C 0.71605 0.3377 0.90074 0.0
C1136 C 0.71688 0.35352 0.88717 0.0
C1137 C 0.69399 0.37751 0.83255 0.0
C1138 C 0.69948 0.39768 0.83326 0.0
C1139 C 0.7044 0.38632 0.81701 0.0
C1140 C 0.6992 0.37674 0.82195 0.0
C1141 C 0.70444 0.39697 0.8225 0.0
C1142 C 0.6943 0.38807 0.83823 0.0
C1143 C 0.68744 0.36754 0.83691 0.0
O1144 O 0.68169 0.33539 0.85012 0.0
O1145 O 0.67129 0.34675 0.86015 0.0
O1146 O 0.68185 0.36891 0.84636 0.0
O1147 O 0.69238 0.35758 0.83638 0.0
H1148 H 0.66522 0.34593 0.83407 0.0
H1149 H 0.64801 0.34094 0.82247 0.0
H1150 H 0.63838 0.316 0.84789 0.0
H1151 H 0.65548 0.32117 0.85945 0.0
H1152 H 0.70332 0.32459 0.89635 0.0
H1153 H 0.69652 0.33393 0.87863 0.0
H1154 H 0.72771 0.3523 0.90216 0.0
H1155 H 0.72075 0.36158 0.88466 0.0
H1156 H 0.69925 0.40575 0.83769 0.0
H1157 H 0.70829 0.38539 0.80881 0.0
H1158 H 0.69903 0.36875 0.81734 0.0
H1159 H 0.6903 0.38901 0.84637 0.0
C1160 C 0.67338 0.68692 0.83579 0.0
C1161 C 0.66842 0.69364 0.84412 0.0
C1162 C 0.65374 0.69986 0.83023 0.0
C1163 C 0.65868 0.70003 0.84138 0.0
C1164 C 0.65888 0.6932 0.82192 0.0
C1165 C 0.66857 0.6868 0.82468 0.0
U1166 U 0.70036 0.67996 0.85392 0.0
O1167 O 0.70721 0.66342 0.85947 0.0
O1168 O 0.71731 0.67463 0.84843 0.0
C1169 C 0.71641 0.66456 0.85336 0.0
C1170 C 0.68353 0.67997 0.83846 0.0
C1171 C 0.71971 0.6546 0.84649 0.0
C1172 C 0.73426 0.64504 0.8358 0.0
C1173 C 0.73051 0.65463 0.84158 0.0
C1174 C 0.71644 0.63516 0.83965 0.0
C1175 C 0.72733 0.63512 0.83484 0.0
C1176 C 0.71267 0.64477 0.84541 0.0
C1177 C 0.7084 0.69937 0.87969 0.0
C1178 C 0.72278 0.69572 0.8947 0.0
C1179 C 0.71419 0.71431 0.89309 0.0
C1180 C 0.70752 0.71055 0.88369 0.0
C1181 C 0.72193 0.70697 0.89872 0.0
C1182 C 0.71609 0.69196 0.88523 0.0
C1183 C 0.70111 0.69575 0.86981 0.0
O1184 O 0.69349 0.68504 0.83694 0.0
O1185 O 0.68328 0.67391 0.84793 0.0
O1186 O 0.69552 0.68598 0.87083 0.0
O1187 O 0.70554 0.69719 0.85973 0.0
H1188 H 0.67202 0.69389 0.85275 0.0
H1189 H 0.65492 0.70495 0.84804 0.0
H1190 H 0.65549 0.693 0.81321 0.0
H1191 H 0.67232 0.68173 0.8181 0.0
H1192 H 0.74261 0.64543 0.83206 0.0
H1193 H 0.73614 0.66205 0.84234 0.0
H1194 H 0.7109 0.62765 0.83921 0.0
H1195 H 0.70432 0.64442 0.84916 0.0
H1196 H 0.72871 0.68988 0.89878 0.0
H1197 H 0.71316 0.72296 0.89605 0.0
H1198 H 0.7016 0.71638 0.87956 0.0
H1199 H 0.71692 0.6833 0.88224 0.0
C1200 C 0.3399 0.65996 0.84449 0.0
C1201 C 0.34323 0.65705 0.83349 0.0
C1202 C 0.33062 0.64017 0.83365 0.0
C1203 C 0.33862 0.64727 0.82811 0.0
C1204 C 0.32742 0.64311 0.84472 0.0
C1205 C 0.33201 0.6529 0.85006 0.0
U1206 U 0.36146 0.68512 0.84829 0.0
O1207 O 0.35821 0.70296 0.85277 0.0
O1208 O 0.36891 0.69246 0.86418 0.0
C1209 C 0.36383 0.70227 0.86264 0.0
C1210 C 0.34438 0.67035 0.85027 0.0
C1211 C 0.35801 0.7068 0.87259 0.0
C1212 C 0.34291 0.70597 0.88643 0.0
C1213 C 0.34818 0.70146 0.87689 0.0
C1214 C 0.35722 0.72117 0.88742 0.0
C1215 C 0.3474 0.71586 0.89186 0.0
C1216 C 0.36245 0.71668 0.8779 0.0
C1217 C 0.38663 0.68865 0.828 0.0
C1218 C 0.40065 0.70426 0.82905 0.0
C1219 C 0.40257 0.68928 0.81512 0.0
C1220 C 0.39263 0.68391 0.81906 0.0
C1221 C 0.40674 0.69953 0.82007 0.0
C1222 C 0.39069 0.69887 0.83297 0.0
C1223 C 0.37624 0.68273 0.83202 0.0
O1224 O 0.35426 0.66939 0.85583 0.0
O1225 O 0.34358 0.6799 0.84441 0.0
O1226 O 0.36662 0.68825 0.8306 0.0
O1227 O 0.37724 0.67771 0.84204 0.0
H1228 H 0.34936 0.66237 0.82907 0.0
H1229 H 0.3414 0.64519 0.81965 0.0
H1230 H 0.32121 0.63795 0.84919 0.0
H1231 H 0.32931 0.65502 0.85855 0.0
H1232 H 0.33543 0.7016 0.88967 0.0
H1233 H 0.34463 0.69381 0.87289 0.0
H1234 H 0.36082 0.72889 0.89122 0.0
H1235 H 0.37 0.72094 0.87468 0.0
H1236 H 0.4035 0.71221 0.83297 0.0
H1237 H 0.40708 0.68528 0.80833 0.0
H1238 H 0.38965 0.676 0.81513 0.0
H1239 H 0.38616 0.70267 0.83988 0.0
C1240 C 0.36127 0.37998 0.83033 0.0
C1241 C 0.35189 0.38489 0.83549 0.0
C1242 C 0.35124 0.39979 0.82084 0.0
C1243 C 0.3469 0.3947 0.83077 0.0
C1244 C 0.36063 0.39476 0.81572 0.0
C1245 C 0.36558 0.38497 0.82042 0.0
U1246 U 0.36394 0.35593 0.85263 0.0
O1247 O 0.36773 0.3378 0.85019 0.0
O1248 O 0.37941 0.34859 0.86066 0.0
C1249 C 0.37754 0.33854 0.85595 0.0
C1250 C 0.36672 0.3697 0.8351 0.0
C1251 C 0.38742 0.33346 0.85052 0.0
C1252 C 0.40209 0.33365 0.83623 0.0
C1253 C 0.39257 0.3386 0.84108 0.0
C1254 C 0.40134 0.31836 0.85018 0.0
C1255 C 0.40665 0.32348 0.84078 0.0
C1256 C 0.39185 0.32331 0.85499 0.0
C1257 C 0.34306 0.35436 0.8774 0.0
C1258 C 0.34091 0.33826 0.89041 0.0
C1259 C 0.33133 0.35594 0.89407 0.0
C1260 C 0.33598 0.36074 0.88425 0.0
C1261 C 0.33365 0.3446 0.89725 0.0
C1262 C 0.34557 0.3431 0.88058 0.0
C1263 C 0.34754 0.35959 0.86694 0.0
O1264 O 0.37224 0.37101 0.84498 0.0
O1265 O 0.36049 0.36025 0.83455 0.0
O1266 O 0.34603 0.35363 0.85752 0.0
O1267 O 0.35777 0.36439 0.86796 0.0
H1268 H 0.34846 0.38115 0.84317 0.0
H1269 H 0.33977 0.39839 0.83501 0.0
H1270 H 0.36408 0.39831 0.80797 0.0
H1271 H 0.37279 0.38127 0.81629 0.0
H1272 H 0.40601 0.33788 0.82906 0.0
H1273 H 0.38926 0.34647 0.83752 0.0
H1274 H 0.40446 0.31044 0.85379 0.0
H1275 H 0.38796 0.31919 0.86225 0.0
H1276 H 0.3428 0.32949 0.89253 0.0
H1277 H 0.32598 0.36116 0.89921 0.0
H1278 H 0.33399 0.36947 0.88198 0.0
H1279 H 0.35105 0.33803 0.8754 0.0
Cu1280 Cu 0.27664 0.27596 0.02284 0.0
N1281 N 0.27684 0.28903 0.01349 0.0
N1282 N 0.28157 0.30048 0.99894 0.0
C1283 C 0.28373 0.29064 1.00459 0.0
C1284 C 0.27298 0.30526 1.00458 0.0
C1285 C 0.27009 0.29819 0.01353 0.0
O1286 O 0.27713 0.26296 1.01243 0.0
C1287 C 0.28955 0.28695 0.03954 0.0
O1288 O 0.28187 0.2946 0.03683 0.0
H1289 H 0.28995 0.28448 1.0021 0.0
H1290 H 0.26347 0.29959 0.01958 0.0
N1291 N 0.26324 0.27444 0.03108 0.0
N1292 N 0.25162 0.26834 0.04477 0.0
C1293 C 0.26244 0.26873 0.04104 0.0
C1294 C 0.25256 0.27782 0.02837 0.0
C1295 C 0.24538 0.27408 0.0368 0.0
C1296 C 0.26989 0.26348 1.00406 0.0
O1297 O 0.26282 0.27204 1.00352 0.0
H1298 H 0.26963 0.26461 0.04525 0.0
H1299 H 0.25012 0.28247 0.02071 0.0
O1300 O 0.28922 0.27747 0.03422 0.0
H1301 H 0.26907 0.31331 1.00242 0.0
H1302 H 0.23626 0.27546 0.03699 0.0
Cu1303 Cu 0.77726 0.27001 0.01769 0.0
N1304 N 0.76389 0.27292 0.02684 0.0
N1305 N 0.75296 0.2795 0.0406 0.0
C1306 C 0.76331 0.28008 0.03577 0.0
C1307 C 0.74682 0.2717 0.03438 0.0
C1308 C 0.75359 0.26766 0.02591 0.0
O1309 O 0.78487 0.26209 0.03146 0.0
C1310 C 0.76795 0.28802 1.00277 0.0
O1311 O 0.77165 0.29476 1.01107 0.0
H1312 H 0.77044 0.28536 0.03884 0.0
H1313 H 0.75122 0.26125 0.01961 0.0
N1314 N 0.79075 0.26727 1.00864 0.0
N1315 N 0.80237 0.26107 0.99529 0.0
C1316 C 0.79164 0.26065 0.99932 0.0
C1317 C 0.80116 0.27209 1.01051 0.0
C1318 C 0.80834 0.26827 1.00233 0.0
C1319 C 0.79104 0.26737 0.03896 0.0
O1320 O 0.79285 0.2784 0.03781 0.0
H1321 H 0.7846 0.25563 0.99563 0.0
H1322 H 0.80334 0.27807 0.01726 0.0
O1323 O 0.76938 0.27732 1.00374 0.0
H1324 H 0.73805 0.26909 0.03582 0.0
H1325 H 0.81722 0.27083 1.0015 0.0
Cu1326 Cu 0.76691 0.78173 0.01402 0.0
N1327 N 0.76673 0.79468 1.0045 0.0
N1328 N 0.77148 0.80629 0.99008 0.0
C1329 C 0.77362 0.79638 0.99561 0.0
C1330 C 0.76291 0.81103 0.99578 0.0
C1331 C 0.75999 0.80384 1.00464 0.0
O1332 O 0.76868 0.76868 1.00392 0.0
C1333 C 0.77744 0.79325 0.0317 0.0
O1334 O 0.76842 0.79942 0.0293 0.0
H1335 H 0.7801 0.79042 0.99329 0.0
H1336 H 0.75338 0.80519 1.01071 0.0
N1337 N 0.75325 0.77942 0.02169 0.0
N1338 N 0.7414 0.77271 0.03491 0.0
C1339 C 0.75228 0.77327 0.03136 0.0
C1340 C 0.7426 0.78289 0.01895 0.0
C1341 C 0.73528 0.7788 0.02712 0.0
C1342 C 0.76172 0.76861 0.9953 0.0
O1343 O 0.75413 0.7767 0.99432 0.0
H1344 H 0.75949 0.76932 0.03572 0.0
H1345 H 0.74029 0.78788 1.01147 0.0
O1346 O 0.77891 0.78429 0.02582 0.0
H1347 H 0.75888 0.819 0.99359 0.0
H1348 H 0.72613 0.78 0.02715 0.0
Cu1349 Cu 0.27335 0.77234 1.01262 0.0
N1350 N 0.27204 0.78504 0.02223 0.0
N1351 N 0.26579 0.79573 0.03649 0.0
C1352 C 0.26523 0.78544 0.03129 0.0
C1353 C 0.27328 0.80201 0.03043 0.0
C1354 C 0.27712 0.79542 0.02167 0.0
O1355 O 0.27513 0.75923 0.02292 0.0
C1356 C 0.2585 0.78154 0.9967 0.0
O1357 O 0.2654 0.79022 0.99913 0.0
H1358 H 0.2598 0.77837 0.03386 0.0
H1359 H 0.28305 0.79809 0.01525 0.0
N1360 N 0.28631 0.77315 1.00354 0.0
N1361 N 0.29813 0.76878 0.98957 0.0
C1362 C 0.28774 0.76692 0.99405 0.0
C1363 C 0.29613 0.77919 1.00512 0.0
C1364 C 0.30342 0.77653 0.99654 0.0
C1365 C 0.28389 0.76022 0.02965 0.0
O1366 O 0.29044 0.76939 0.02874 0.0
H1367 H 0.28136 0.76089 0.99072 0.0
H1368 H 0.298 0.78493 1.01215 0.0
O1369 O 0.26014 0.77208 1.00188 0.0
H1370 H 0.27588 0.81075 0.0322 0.0
H1371 H 0.31195 0.78004 0.99555 0.0
Cu1372 Cu 0.02112 0.27024 0.26967 0.0
N1373 N 0.02989 0.27051 0.25657 0.0
N1374 N 0.04383 0.26541 0.24503 0.0
C1375 C 0.04054 0.26638 0.25594 0.0
C1376 C 0.03488 0.26916 0.23856 0.0
C1377 C 0.02629 0.27219 0.24568 0.0
O1378 O 0.03193 0.27186 0.28262 0.0
C1379 C 1.00356 0.25325 0.27414 0.0
O1380 O 1.0012 0.25914 0.28323 0.0
H1381 H 0.04541 0.26332 0.26332 0.0
H1382 H 0.01775 0.27467 0.24304 0.0
N1383 N 1.01063 0.28223 0.26999 0.0
N1384 N 0.99666 0.29324 0.27621 0.0
C1385 C 1.00385 0.28463 0.27873 0.0
C1386 C 1.00781 0.28979 0.26172 0.0
C1387 C 0.99921 0.29657 0.26553 0.0
C1388 C 0.03641 0.28183 0.28356 0.0
O1389 O 0.03304 0.28975 0.2763 0.0
H1390 H 1.00422 0.28018 0.28683 0.0
H1391 H 1.01161 0.29029 0.25345 0.0
O1392 O 1.01232 0.25599 0.26848 0.0
H1393 H 0.03436 0.26926 0.22932 0.0
H1394 H 0.99492 0.30318 0.26065 0.0
Cu1395 Cu 0.77153 0.02018 0.27392 0.0
N1396 N 0.78504 0.02909 0.27399 0.0
N1397 N 0.79715 0.04315 0.269 0.0
C1398 C 0.78689 0.03796 0.26689 0.0
C1399 C 0.80195 0.03725 0.27781 0.0
C1400 C 0.79446 0.02859 0.28086 0.0
O1401 O 0.75898 0.03108 0.2737 0.0
C1402 C 0.78147 1.00389 0.26115 0.0
O1403 O 0.78904 1.00558 0.26952 0.0
H1404 H 0.78064 0.0407 0.26049 0.0
H1405 H 0.79579 0.0224 0.28761 0.0
N1406 N 0.77029 1.01108 0.287 0.0
N1407 N 0.76459 0.99649 0.29798 0.0
C1408 C 0.76462 1.00098 0.28734 0.0
C1409 C 0.774 0.0131 0.29781 0.0
C1410 C 0.7705 1.00411 0.3046 0.0
C1411 C 0.7603 0.03904 0.28106 0.0
O1412 O 0.76929 0.03892 0.28807 0.0
H1413 H 0.76033 0.99719 0.27992 0.0
H1414 H 0.77877 0.02064 0.30059 0.0
O1415 O 0.77228 1.00962 0.26103 0.0
H1416 H 0.81029 0.039 0.28174 0.0
H1417 H 0.77219 1.00328 0.3137 0.0
Cu1418 Cu 0.01704 0.76987 0.27122 0.0
N1419 N 1.00865 0.78336 0.27124 0.0
N1420 N 0.99459 0.79541 0.26652 0.0
C1421 C 0.99858 0.78473 0.2655 0.0
C1422 C 1.00249 0.80097 0.27319 0.0
C1423 C 1.01113 0.79352 0.2761 0.0
O1424 O 1.00557 0.75747 0.27177 0.0
C1425 C 0.03491 0.77843 0.25949 0.0
O1426 O 0.03481 0.78474 0.26872 0.0
H1427 H 0.99444 0.77806 0.26043 0.0
H1428 H 0.01875 0.79546 0.28126 0.0
N1429 N 0.0269 0.76818 0.28411 0.0
N1430 N 0.04155 0.76151 0.29482 0.0
C1431 C 0.03545 0.76064 0.28485 0.0
C1432 C 0.02757 0.77404 0.29396 0.0
C1433 C 0.0366 0.76996 0.30058 0.0
C1434 C 1.00012 0.75756 0.28105 0.0
O1435 O 1.00291 0.76542 0.28864 0.0
H1436 H 0.03732 0.75483 0.27804 0.0
H1437 H 0.02192 0.78081 0.29619 0.0
O1438 O 0.02713 0.77071 0.25814 0.0
H1439 H 1.00207 0.80978 0.27583 0.0
H1440 H 0.03924 0.77293 0.30901 0.0
Cu1441 Cu 0.25603 0.01436 0.27498 0.0
N1442 N 0.25654 0.02376 0.28793 0.0
N1443 N 0.26206 0.03824 0.2994 0.0
C1444 C 0.26322 0.03321 0.28914 0.0
C1445 C 0.25433 0.03165 0.30484 0.0
C1446 C 0.25097 0.02273 0.29778 0.0
O1447 O 0.25503 0.02483 0.26191 0.0
C1448 C 0.27033 0.99889 0.28522 0.0
O1449 O 0.26282 1.00052 0.29312 0.0
H1450 H 0.26877 0.03635 0.28256 0.0
H1451 H 0.24509 0.01585 0.29981 0.0
N1452 N 0.24322 1.00441 0.2743 0.0
N1453 N 0.23196 0.98966 0.26864 0.0
C1454 C 0.24226 0.995 0.26773 0.0
C1455 C 0.23321 1.00505 0.27958 0.0
C1456 C 0.22626 0.99599 0.27612 0.0
C1457 C 0.24559 0.0301 0.26098 0.0
O1458 O 0.23763 0.02778 0.26834 0.0
H1459 H 0.24892 0.9923 0.2622 0.0
H1460 H 0.23098 1.01175 0.28536 0.0
O1461 O 0.26934 1.00448 0.27587 0.0
H1462 H 0.2515 0.033 0.31343 0.0
H1463 H 0.21768 0.99421 0.27893 0.0
Cu1464 Cu 0.01773 0.76534 0.76693 0.0
N1465 N 0.02776 0.75305 0.76684 0.0
N1466 N 0.04273 0.74286 0.76157 0.0
C1467 C 0.03731 0.75292 0.76069 0.0
C1468 C 0.0363 0.7364 0.76859 0.0
C1469 C 0.02709 0.7427 0.77182 0.0
O1470 O 0.02768 0.77895 0.76782 0.0
C1471 C 1.00166 0.75483 0.75307 0.0
O1472 O 1.00322 0.74739 0.76137 0.0
H1473 H 0.03999 0.75999 0.75538 0.0
H1474 H 0.02025 0.73979 0.77716 0.0
N1475 N 1.008 0.76531 0.77939 0.0
N1476 N 0.99366 0.77073 0.79027 0.0
C1477 C 0.99908 0.77231 0.78034 0.0
C1478 C 1.00827 0.75904 0.78905 0.0
C1479 C 0.99943 0.76235 0.79576 0.0
C1480 C 0.03181 0.7814 0.77774 0.0
O1481 O 0.02859 0.77525 0.7865 0.0
H1482 H 0.99662 0.77843 0.77381 0.0
H1483 H 0.0146 0.75274 0.79123 0.0
O1484 O 1.00758 0.76409 0.75339 0.0
H1485 H 0.03805 0.72773 0.77118 0.0
H1486 H 0.99761 0.75903 0.80416 0.0
Cu1487 Cu 0.27181 0.01829 0.76674 0.0
N1488 N 0.27225 0.02807 0.75409 0.0
N1489 N 0.27767 0.04309 0.74351 0.0
C1490 C 0.27707 0.0386 0.75414 0.0
C1491 C 0.27299 0.035 0.73652 0.0
C1492 C 0.26975 0.02574 0.74305 0.0
O1493 O 0.27072 0.02822 0.78005 0.0
C1494 C 0.28827 1.00063 0.77204 0.0
O1495 O 0.28313 0.99906 0.78174 0.0
H1496 H 0.28067 0.04259 0.76179 0.0
H1497 H 0.26632 0.01768 0.7399 0.0
N1498 N 0.25896 1.00836 0.76602 0.0
N1499 N 0.24696 0.99396 0.77045 0.0
C1500 C 0.25655 0.99996 0.77353 0.0
C1501 C 0.25047 1.00779 0.758 0.0
C1502 C 0.2431 0.99892 0.76067 0.0
C1503 C 0.26111 0.03315 0.78056 0.0
O1504 O 0.25315 0.03067 0.77275 0.0
H1505 H 0.26182 0.99817 0.78104 0.0
H1506 H 0.24964 0.01344 0.75072 0.0
O1507 O 0.28536 1.00892 0.76558 0.0
H1508 H 0.27223 0.03556 0.72731 0.0
H1509 H 0.23546 0.99638 0.7558 0.0
Cu1510 Cu 0.03355 0.27431 0.78138 0.0
N1511 N 0.02474 0.28755 0.78143 0.0
N1512 N 1.01037 0.29908 0.7763 0.0
C1513 C 0.01521 0.28884 0.77482 0.0
C1514 C 0.0172 0.30446 0.78418 0.0
C1515 C 0.02604 0.29733 0.78734 0.0
O1516 O 0.02222 0.26178 0.78203 0.0
C1517 C 0.04924 0.2845 0.76782 0.0
O1518 O 0.04845 0.29174 0.77626 0.0
H1519 H 1.01201 0.28239 0.7689 0.0
H1520 H 0.03295 0.2992 0.79344 0.0
N1521 N 0.04377 0.2729 0.794 0.0
N1522 N 0.05865 0.26639 0.80451 0.0
C1523 C 0.05274 0.26584 0.7944 0.0
C1524 C 0.04396 0.2781 0.80422 0.0
C1525 C 0.05314 0.27413 0.8107 0.0
C1526 C 0.01605 0.26245 0.7908 0.0
O1527 O 0.01855 0.27053 0.79825 0.0
H1528 H 0.05492 0.26048 0.78733 0.0
H1529 H 0.03779 0.28422 0.80686 0.0
O1530 O 0.04311 0.27536 0.76796 0.0
H1531 H 0.01588 0.3129 0.78753 0.0
H1532 H 0.05542 0.2766 0.81938 0.0
Cu1533 Cu 0.76653 0.02247 0.76391 0.0
N1534 N 0.76719 0.03136 0.77713 0.0
N1535 N 0.77313 0.04518 0.7892 0.0
C1536 C 0.7745 0.04024 0.77894 0.0
C1537 C 0.76458 0.03911 0.79402 0.0
C1538 C 0.76095 0.0306 0.78656 0.0
O1539 O 0.76812 0.0335 0.75144 0.0
C1540 C 0.77667 1.00387 0.77365 0.0
O1541 O 0.76766 1.00518 0.7799 0.0
H1542 H 0.78059 0.0431 0.77273 0.0
H1543 H 0.75427 0.02427 0.78794 0.0
N1544 N 0.75252 0.01448 0.76219 0.0
N1545 N 0.73995 1.00064 0.75697 0.0
C1546 C 0.75103 1.00418 0.75723 0.0
C1547 C 0.74204 0.01762 0.76518 0.0
C1548 C 0.73427 1.00911 0.76199 0.0
C1549 C 0.76129 0.03391 0.74274 0.0
O1550 O 0.75412 0.02534 0.74073 0.0
H1551 H 0.75796 0.99952 0.75367 0.0
H1552 H 0.74017 0.02556 0.76933 0.0
O1553 O 0.77841 1.01099 0.76559 0.0
H1554 H 0.76127 0.04059 0.8024 0.0
H1555 H 0.72516 1.00915 0.76334 0.0
Cu1556 Cu 0.27539 0.76858 0.51687 0.0
N1557 N 0.28839 0.77023 0.52664 0.0
N1558 N 0.29924 0.77657 0.54153 0.0
C1559 C 0.28915 0.77738 0.53563 0.0
C1560 C 0.30508 0.7686 0.53595 0.0
C1561 C 0.29836 0.76469 0.5268 0.0
O1562 O 0.26225 0.76862 0.52684 0.0
C1563 C 0.2851 0.77974 0.49912 0.0
O1564 O 0.29216 0.77139 0.5014 0.0
H1565 H 0.28236 0.78305 0.53778 0.0
H1566 H 0.30054 0.75816 0.5208 0.0
N1567 N 0.27475 0.75477 0.50883 0.0
N1568 N 0.26966 0.7424 0.49495 0.0
C1569 C 0.26915 0.75325 0.49869 0.0
C1570 C 0.27897 0.74451 0.51165 0.0
C1571 C 0.27583 0.73685 0.50311 0.0
C1572 C 0.26326 0.76174 0.53528 0.0
O1573 O 0.27234 0.75535 0.53614 0.0
H1574 H 0.26457 0.75999 0.49429 0.0
H1575 H 0.28389 0.74268 0.5194 0.0
O1576 O 0.27633 0.78061 0.50526 0.0
H1577 H 0.31349 0.76559 0.53843 0.0
H1578 H 0.27798 0.72792 0.50293 0.0
Cu1579 Cu 0.76982 0.77752 0.50887 0.0
N1580 N 0.78228 0.77846 0.4992 0.0
N1581 N 0.79368 0.77386 0.48496 0.0
C1582 C 0.78392 0.77134 0.49042 0.0
C1583 C 0.79833 0.78296 0.49057 0.0
C1584 C 0.7913 0.78576 0.49933 0.0
O1585 O 0.75641 0.7758 0.49856 0.0
C1586 C 0.78194 0.76588 0.52525 0.0
O1587 O 0.7886 0.7748 0.52336 0.0
H1588 H 0.77798 0.7645 0.48806 0.0
H1589 H 0.79275 0.79254 0.50547 0.0
N1590 N 0.76853 0.79059 0.51789 0.0
N1591 N 0.76336 0.80148 0.53245 0.0
C1592 C 0.76373 0.7908 0.5282 0.0
C1593 C 0.77134 0.8015 0.5155 0.0
C1594 C 0.76821 0.80823 0.52449 0.0
C1595 C 0.74772 0.78217 0.49884 0.0
O1596 O 0.74659 0.78894 0.50761 0.0
H1597 H 0.76044 0.78325 0.53241 0.0
H1598 H 0.77511 0.8044 0.50767 0.0
O1599 O 0.77254 0.7649 0.51948 0.0
H1600 H 0.80636 0.78718 0.48864 0.0
H1601 H 0.76908 0.81743 0.52493 0.0
Cu1602 Cu 0.78009 0.26704 0.51875 0.0
N1603 N 0.77935 0.25384 0.50963 0.0
N1604 N 0.77361 0.24242 0.49514 0.0
C1605 C 0.77253 0.25267 0.50019 0.0
C1606 C 0.78146 0.23691 0.50172 0.0
C1607 C 0.785 0.24397 0.51062 0.0
O1608 O 0.78172 0.27963 0.5078 0.0
C1609 C 0.76466 0.2574 0.53332 0.0
O1610 O 0.77136 0.24881 0.5314 0.0
H1611 H 0.76677 0.25923 0.49719 0.0
H1612 H 0.79118 0.242 0.51736 0.0
N1613 N 0.79268 0.26777 0.52912 0.0
N1614 N 0.80338 0.27377 0.54427 0.0
C1615 C 0.79324 0.27451 0.53843 0.0
C1616 C 0.80281 0.26255 0.52902 0.0
C1617 C 0.80942 0.26622 0.53833 0.0
C1618 C 0.79033 0.27847 0.50148 0.0
O1619 O 0.79709 0.26983 0.50355 0.0
H1620 H 0.78639 0.28006 0.54068 0.0
H1621 H 0.80532 0.25663 0.52256 0.0
O1622 O 0.76659 0.26689 0.52827 0.0
H1623 H 0.78455 0.22844 0.50017 0.0
H1624 H 0.81799 0.26349 0.54054 0.0
Cu1625 Cu 0.27809 0.27763 0.52608 0.0
N1626 N 0.27663 0.29143 0.53386 0.0
N1627 N 0.27096 0.30354 0.54721 0.0
C1628 C 0.27058 0.29269 0.54336 0.0
C1629 C 0.2775 0.30935 0.53976 0.0
C1630 C 0.28099 0.30186 0.53155 0.0
O1631 O 0.27889 0.26569 0.53772 0.0
C1632 C 0.26645 0.2833 0.50645 0.0
O1633 O 0.27527 0.29042 0.50644 0.0
H1634 H 0.2659 0.28573 0.54729 0.0
H1635 H 0.28633 0.30388 0.52441 0.0
N1636 N 0.29152 0.27688 0.51779 0.0
N1637 N 0.30314 0.27133 0.5041 0.0
C1638 C 0.29281 0.26991 0.50883 0.0
C1639 C 0.30138 0.28292 0.51886 0.0
C1640 C 0.30858 0.27951 0.51044 0.0
C1641 C 0.28667 0.26762 0.54539 0.0
O1642 O 0.29314 0.27685 0.54447 0.0
H1643 H 0.28624 0.26391 0.50587 0.0
H1644 H 0.30318 0.28943 0.52521 0.0
O1645 O 0.26541 0.27644 0.51485 0.0
H1646 H 0.27975 0.31833 0.54026 0.0
H1647 H 0.31705 0.28298 0.50897 0.0
Cu1648 Cu 0.77298 0.52068 0.75962 0.0
N1649 N 0.77352 0.52964 0.74639 0.0
N1650 N 0.77842 0.54414 0.73492 0.0
C1651 C 0.77728 0.54056 0.74582 0.0
C1652 C 0.77521 0.53509 0.7284 0.0
C1653 C 0.77227 0.52616 0.73549 0.0
O1654 O 0.77145 0.53124 0.77237 0.0
C1655 C 0.78917 0.50322 0.76614 0.0
O1656 O 0.78356 0.50199 0.77561 0.0
H1657 H 0.7798 0.54554 0.75328 0.0
H1658 H 0.76993 0.51756 0.73289 0.0
N1659 N 0.76023 0.51064 0.75914 0.0
N1660 N 0.74819 0.49649 0.76412 0.0
C1661 C 0.75742 0.503 0.76727 0.0
C1662 C 0.75236 0.50909 0.75063 0.0
C1663 C 0.74496 0.50036 0.75365 0.0
C1664 C 0.76184 0.53622 0.77226 0.0
O1665 O 0.75423 0.53352 0.76418 0.0
H1666 H 0.7622 0.50206 0.77524 0.0
H1667 H 0.75205 0.51389 0.74273 0.0
O1668 O 0.78663 0.51134 0.75932 0.0
H1669 H 0.77529 0.53481 0.71917 0.0
H1670 H 0.73778 0.49713 0.74849 0.0
Cu1671 Cu 0.27999 0.52307 0.76012 0.0
N1672 N 0.29267 0.51352 0.75979 0.0
N1673 N 0.30414 0.4991 0.76479 0.0
C1674 C 0.29403 0.50416 0.76639 0.0
C1675 C 0.30933 0.50556 0.75682 0.0
C1676 C 0.30225 0.51442 0.75375 0.0
O1677 O 0.26663 0.51274 0.76045 0.0
C1678 C 0.29159 0.53941 0.77259 0.0
O1679 O 0.29836 0.53765 0.76407 0.0
H1680 H 0.2878 0.50132 0.77248 0.0
H1681 H 0.30411 0.52116 0.74773 0.0
N1682 N 0.27841 0.53251 0.74717 0.0
N1683 N 0.27205 0.54692 0.7362 0.0
C1684 C 0.2717 0.54172 0.74652 0.0
C1685 C 0.28319 0.53182 0.73689 0.0
C1686 C 0.2793 0.5407 0.73013 0.0
C1687 C 0.26484 0.50713 0.75122 0.0
O1688 O 0.27161 0.50909 0.74267 0.0
H1689 H 0.26674 0.54458 0.75356 0.0
H1690 H 0.2889 0.52521 0.73439 0.0
O1691 O 0.28232 0.53352 0.77303 0.0
H1692 H 0.31766 0.50402 0.75342 0.0
H1693 H 0.28146 0.54228 0.72134 0.0
Cu1694 Cu 0.27565 0.51476 0.27432 0.0
N1695 N 0.27471 0.50612 0.28785 0.0
N1696 N 0.269 0.49197 0.29941 0.0
C1697 C 0.2679 0.49681 0.28895 0.0
C1698 C 0.27683 0.49857 0.30514 0.0
C1699 C 0.28037 0.50726 0.29798 0.0
O1700 O 0.27743 0.50345 0.26221 0.0
C1701 C 0.26067 0.53012 0.28252 0.0
O1702 O 0.26774 0.52863 0.29131 0.0
H1703 H 0.26219 0.4937 0.28215 0.0
H1704 H 0.28661 0.51392 0.30004 0.0
N1705 N 0.28833 0.52477 0.27411 0.0
N1706 N 0.29919 0.53961 0.26851 0.0
C1707 C 0.28889 0.5342 0.26751 0.0
C1708 C 0.29862 0.52416 0.27952 0.0
C1709 C 0.30534 0.53329 0.27609 0.0
C1710 C 0.28552 0.49657 0.26454 0.0
O1711 O 0.29178 0.49825 0.27392 0.0
H1712 H 0.28195 0.53683 0.26183 0.0
H1713 H 0.30115 0.51745 0.28539 0.0
O1714 O 0.26223 0.52453 0.27338 0.0
H1715 H 0.27994 0.49713 0.31382 0.0
H1716 H 0.31407 0.5351 0.27896 0.0
Cu1717 Cu 0.77413 0.52071 0.25876 0.0
N1718 N 0.78693 0.51135 0.25873 0.0
N1719 N 0.79833 0.4971 0.26432 0.0
C1720 C 0.78803 0.50196 0.26531 0.0
C1721 C 0.80393 0.50373 0.25677 0.0
C1722 C 0.79688 0.5125 0.25334 0.0
O1723 O 0.76094 0.51015 0.25884 0.0
C1724 C 0.785 0.53779 0.27063 0.0
O1725 O 0.79121 0.53661 0.26158 0.0
H1726 H 0.7815 0.499 0.27103 0.0
H1727 H 0.79901 0.51937 0.24755 0.0
N1728 N 0.77259 0.53011 0.24579 0.0
N1729 N 0.76599 0.54439 0.23482 0.0
C1730 C 0.76535 0.53889 0.24495 0.0
C1731 C 0.77802 0.53001 0.23583 0.0
C1732 C 0.77399 0.53883 0.22906 0.0
C1733 C 0.75924 0.50482 0.24943 0.0
O1734 O 0.76594 0.50721 0.24092 0.0
H1735 H 0.75986 0.54128 0.25176 0.0
H1736 H 0.78437 0.5239 0.23357 0.0
O1737 O 0.77627 0.53119 0.27168 0.0
H1738 H 0.81253 0.5024 0.25397 0.0
H1739 H 0.77662 0.54086 0.2205 0.0
Cu1740 Cu 0.5274 0.2617 0.77233 0.0
N1741 N 0.51776 0.26088 0.78484 0.0
N1742 N 0.50341 0.2657 0.79601 0.0
C1743 C 0.50858 0.26752 0.78599 0.0
C1744 C 0.50961 0.25754 0.80137 0.0
C1745 C 0.51843 0.25459 0.79447 0.0
O1746 O 0.51702 0.26128 0.75891 0.0
C1747 C 0.54206 0.27648 0.78388 0.0
O1748 O 0.53993 0.26882 0.79178 0.0
H1749 H 0.50599 0.27382 0.77969 0.0
H1750 H 0.52503 0.24853 0.79652 0.0
N1751 N 0.53755 0.24953 0.77145 0.0
N1752 N 0.55246 0.23964 0.7655 0.0
C1753 C 0.54678 0.24957 0.76484 0.0
C1754 C 0.53735 0.23919 0.7765 0.0
C1755 C 0.54654 0.2331 0.77288 0.0
C1756 C 0.51194 0.25168 0.75722 0.0
O1757 O 0.51456 0.24312 0.76402 0.0
H1758 H 0.54927 0.25681 0.75965 0.0
H1759 H 0.53084 0.23615 0.78217 0.0
O1760 O 0.53714 0.27539 0.77406 0.0
H1761 H 0.50794 0.25397 0.8097 0.0
H1762 H 0.54849 0.22441 0.77525 0.0
Cu1763 Cu 0.52672 0.77071 0.77625 0.0
N1764 N 0.53752 0.76973 0.78846 0.0
N1765 N 0.55293 0.76368 0.79847 0.0
C1766 C 0.54665 0.76287 0.7886 0.0
C1767 C 0.5475 0.77138 0.80478 0.0
C1768 C 0.538 0.77507 0.79861 0.0
O1769 O 0.53571 0.77161 0.76243 0.0
C1770 C 0.51079 0.75752 0.78699 0.0
O1771 O 0.51389 0.76503 0.79483 0.0
H1772 H 0.54865 0.75744 0.78152 0.0
H1773 H 0.53178 0.78102 0.80148 0.0
N1774 N 0.5177 0.78379 0.77649 0.0
N1775 N 0.50347 0.79542 0.77125 0.0
C1776 C 0.50832 0.78521 0.76968 0.0
C1777 C 0.51886 0.79346 0.7826 0.0
C1778 C 0.51007 0.80063 0.77941 0.0
C1779 C 0.54149 0.78091 0.76158 0.0
O1780 O 0.54067 0.7886 0.76961 0.0
H1781 H 0.50513 0.7788 0.76371 0.0
H1782 H 0.52574 0.79533 0.78872 0.0
O1783 O 0.51574 0.75794 0.77744 0.0
H1784 H 0.55002 0.77397 0.81337 0.0
H1785 H 0.50884 0.80914 0.78264 0.0
Cu1786 Cu 0.51002 0.76179 0.27045 0.0
N1787 N 0.5003 0.76148 0.28291 0.0
N1788 N 0.48579 0.7664 0.29383 0.0
C1789 C 0.49111 0.76813 0.28386 0.0
C1790 C 0.49192 0.7583 0.29935 0.0
C1791 C 0.50086 0.75531 0.29262 0.0
O1792 O 0.49991 0.76101 0.25683 0.0
C1793 C 0.5254 0.77607 0.28149 0.0
O1794 O 0.52337 0.76831 0.28932 0.0
H1795 H 0.48837 0.7741 0.2773 0.0
H1796 H 0.50744 0.74927 0.29481 0.0
N1797 N 0.51996 0.74943 0.27008 0.0
N1798 N 0.53489 0.73924 0.26473 0.0
C1799 C 0.52948 0.74931 0.2639 0.0
C1800 C 0.5193 0.73907 0.27505 0.0
C1801 C 0.52849 0.73277 0.27176 0.0
C1802 C 0.49441 0.75155 0.25575 0.0
O1803 O 0.49623 0.74354 0.26343 0.0
H1804 H 0.53218 0.75641 0.25864 0.0
H1805 H 0.51251 0.73618 0.28047 0.0
O1806 O 0.52003 0.77529 0.27186 0.0
H1807 H 0.49027 0.75497 0.30778 0.0
H1808 H 0.53027 0.7241 0.27436 0.0
Cu1809 Cu 0.52132 0.26026 0.26509 0.0
N1810 N 0.51171 0.24732 0.2659 0.0
N1811 N 0.49696 0.23624 0.27116 0.0
C1812 C 0.50172 0.24683 0.27133 0.0
C1813 C 0.50422 0.22983 0.2653 0.0
C1814 C 0.51334 0.23668 0.26212 0.0
O1815 O 0.51122 0.27337 0.26359 0.0
C1816 C 0.53233 0.25303 0.28606 0.0
O1817 O 0.52315 0.24657 0.28729 0.0
H1818 H 0.49813 0.25411 0.27548 0.0
H1819 H 0.52078 0.234 0.25766 0.0
N1820 N 0.5304 0.26017 0.2522 0.0
N1821 N 0.54456 0.26534 0.24069 0.0
C1822 C 0.53957 0.2671 0.25077 0.0
C1823 C 0.52951 0.25376 0.2427 0.0
C1824 C 0.53823 0.25693 0.23559 0.0
C1825 C 0.50533 0.27354 0.25422 0.0
O1826 O 0.50669 0.26531 0.24684 0.0
H1827 H 0.54257 0.27323 0.25711 0.0
H1828 H 0.52291 0.24735 0.24098 0.0
O1829 O 0.53249 0.26033 0.27795 0.0
H1830 H 0.50324 0.22077 0.26378 0.0
H1831 H 0.53964 0.25343 0.22724 0.0
C1832 C 0.22833 0.21575 0.13226 0.0
C1833 C 0.21705 0.21139 0.13255 0.0
C1834 C 0.23197 0.22224 0.12295 0.0
C1835 C 0.22129 0.23942 0.09829 0.0
H1836 H 0.25136 0.23411 0.08659 0.0
C1837 C 0.23612 0.25871 0.05542 0.0
C1838 C 0.24757 0.26254 0.05484 0.0
C1839 C 0.23232 0.25277 0.06503 0.0
C1840 C 0.24299 0.23582 0.08982 0.0
H1841 H 0.20069 0.21068 0.12329 0.0
H1842 H 0.20708 0.22185 0.10698 0.0
H1843 H 0.2449 0.22327 0.10305 0.0
H1844 H 0.26388 0.2634 0.06419 0.0
H1845 H 0.25727 0.2531 0.08091 0.0
H1846 H 0.21938 0.25196 0.08504 0.0
C1847 C 0.2131 0.22031 0.11401 0.0
C1848 C 0.23929 0.22958 0.09928 0.0
C1849 C 0.20947 0.21379 0.12331 0.0
C1850 C 0.25507 0.26041 0.06421 0.0
C1851 C 0.25127 0.25449 0.07382 0.0
C1852 C 0.225 0.24566 0.08883 0.0
C1853 C 0.22442 0.22457 0.11367 0.0
C1854 C 0.22838 0.23129 0.10364 0.0
C1855 C 0.23987 0.25052 0.07434 0.0
C1856 C 0.23591 0.24394 0.08447 0.0
H1857 H 0.23444 0.21398 0.13916 0.0
H1858 H 0.24071 0.22548 0.12305 0.0
H1859 H 0.21291 0.24108 0.10151 0.0
H1860 H 0.23013 0.26005 0.04833 0.0
H1861 H 0.22352 0.24972 0.06505 0.0
C1862 C 0.83508 0.22421 0.12576 0.0
C1863 C 0.83124 0.21299 0.12799 0.0
C1864 C 0.83097 0.23018 0.11613 0.0
C1865 C 0.81718 0.22585 0.08754 0.0
H1866 H 0.80888 0.25755 0.0902 0.0
C1867 C 0.79312 0.24962 0.05093 0.0
C1868 C 0.79596 0.26117 0.04902 0.0
C1869 C 0.79761 0.24383 0.0605 0.0
C1870 C 0.8113 0.24875 0.08925 0.0
H1871 H 0.81982 0.19939 0.12183 0.0
H1872 H 0.8128 0.20972 0.10502 0.0
H1873 H 0.81645 0.24738 0.10692 0.0
H1874 H 0.80587 0.27563 0.05567 0.0
H1875 H 0.81386 0.2655 0.0722 0.0
H1876 H 0.81214 0.2272 0.06987 0.0
C1877 C 0.81911 0.21386 0.11065 0.0
C1878 C 0.81563 0.24291 0.09886 0.0
C1879 C 0.82317 0.20792 0.1203 0.0
C1880 C 0.80345 0.26676 0.05688 0.0
C1881 C 0.80799 0.26095 0.06643 0.0
C1882 C 0.81291 0.2317 0.07792 0.0
C1883 C 0.82295 0.22506 0.10843 0.0
C1884 C 0.81857 0.23137 0.09815 0.0
C1885 C 0.80511 0.24941 0.06839 0.0
C1886 C 0.80986 0.24322 0.07863 0.0
H1887 H 0.84141 0.22836 0.13137 0.0
H1888 H 0.83421 0.23875 0.11461 0.0
H1889 H 0.81952 0.21702 0.08664 0.0
H1890 H 0.78733 0.24506 0.04509 0.0
H1891 H 0.79504 0.23501 0.06179 0.0
C1892 C 0.81892 0.84139 0.11391 0.0
C1893 C 0.82469 0.83554 0.12281 0.0
C1894 C 0.81564 0.83583 0.10376 0.0
C1895 C 0.80926 0.80747 0.09131 0.0
H1896 H 0.81153 0.82421 0.06282 0.0
C1897 C 0.79243 0.78933 0.04725 0.0
C1898 C 0.78541 0.79698 0.04113 0.0
C1899 C 0.799 0.79307 0.05685 0.0
C1900 C 0.81084 0.8194 0.0707 0.0
H1901 H 0.83151 0.81915 0.1279 0.0
H1902 H 0.82569 0.80941 0.11015 0.0
H1903 H 0.81948 0.83254 0.08042 0.0
H1904 H 0.7801 0.81459 0.04003 0.0
H1905 H 0.79149 0.82103 0.05647 0.0
H1906 H 0.80035 0.79443 0.08152 0.0
C1907 C 0.82367 0.81832 0.1111 0.0
C1908 C 0.81536 0.8242 0.0808 0.0
C1909 C 0.827 0.82391 0.12129 0.0
C1910 C 0.78538 0.80845 0.04456 0.0
C1911 C 0.792 0.81218 0.05397 0.0
C1912 C 0.80472 0.80264 0.08115 0.0
C1913 C 0.818 0.82424 0.10218 0.0
C1914 C 0.81435 0.81845 0.0913 0.0
C1915 C 0.7988 0.80455 0.06033 0.0
C1916 C 0.80517 0.80871 0.07078 0.0
H1917 H 0.81672 0.85025 0.11484 0.0
H1918 H 0.81105 0.8406 0.0972 0.0
H1919 H 0.8083 0.80281 0.09924 0.0
H1920 H 0.79258 0.78043 0.04484 0.0
H1921 H 0.80418 0.78699 0.06157 0.0
C1922 C 0.21356 0.81848 0.12305 0.0
C1923 C 0.21177 0.83022 0.12442 0.0
C1924 C 0.21909 0.81443 0.11346 0.0
C1925 C 0.2388 0.82407 0.09102 0.0
H1926 H 0.22887 0.79625 0.0756 0.0
C1927 C 0.25737 0.81092 0.04805 0.0
C1928 C 0.25956 0.79931 0.04629 0.0
C1929 C 0.25141 0.81442 0.05755 0.0
C1930 C 0.23184 0.80396 0.07989 0.0
H1931 H 0.21396 0.84682 0.11644 0.0
H1932 H 0.22356 0.83979 0.09982 0.0
H1933 H 0.21862 0.80276 0.09213 0.0
H1934 H 0.25719 0.78232 0.05332 0.0
H1935 H 0.24683 0.78843 0.0699 0.0
H1936 H 0.25203 0.82529 0.07885 0.0
C1937 C 0.22093 0.83372 0.10627 0.0
C1938 C 0.22595 0.80771 0.08937 0.0
C1939 C 0.2154 0.83775 0.11582 0.0
C1940 C 0.25555 0.7913 0.05429 0.0
C1941 C 0.24959 0.79482 0.06381 0.0
C1942 C 0.24469 0.82033 0.08157 0.0
C1943 C 0.22297 0.82202 0.10501 0.0
C1944 C 0.22931 0.81785 0.09502 0.0
C1945 C 0.24747 0.80644 0.0656 0.0
C1946 C 0.24126 0.81026 0.07582 0.0
H1947 H 0.21097 0.81243 0.12954 0.0
H1948 H 0.2206 0.80537 0.11283 0.0
H1949 H 0.24179 0.83179 0.09529 0.0
H1950 H 0.26013 0.81732 0.04199 0.0
H1951 H 0.24976 0.82342 0.0585 0.0
C1952 C 0.20955 0.82528 0.91753 0.0
C1953 C 0.20878 0.81998 0.90678 0.0
C1954 C 0.21291 0.81917 0.92731 0.0
C1955 C 0.22895 0.79376 0.93667 0.0
H1956 H 0.21602 0.80068 0.96586 0.0
C1957 C 0.24696 0.77466 0.97942 0.0
C1958 C 0.24952 0.78308 0.98766 0.0
C1959 C 0.24009 0.77724 0.9697 0.0
C1960 C 0.21971 0.79862 0.95777 0.0
H1961 H 0.21083 0.80396 0.89798 0.0
H1962 H 0.2166 0.79323 0.91512 0.0
H1963 H 0.20772 0.80891 0.94841 0.0
H1964 H 0.24645 0.80052 0.99253 0.0
H1965 H 0.23439 0.80491 0.97589 0.0
H1966 H 0.24113 0.7837 0.94613 0.0
C1967 C 0.21468 0.80218 0.91594 0.0
C1968 C 0.21498 0.80338 0.94776 0.0
C1969 C 0.21126 0.80831 0.90613 0.0
C1970 C 0.24459 0.79385 0.98634 0.0
C1971 C 0.23763 0.79635 0.9768 0.0
C1972 C 0.23367 0.78897 0.94671 0.0
C1973 C 0.2156 0.80755 0.92666 0.0
C1974 C 0.21974 0.80129 0.9371 0.0
C1975 C 0.23551 0.7882 0.9682 0.0
C1976 C 0.22932 0.79161 0.95742 0.0
H1977 H 0.20757 0.83421 0.9184 0.0
H1978 H 0.21366 0.82366 0.93537 0.0
H1979 H 0.23289 0.79201 0.92864 0.0
H1980 H 0.25076 0.76633 0.98017 0.0
H1981 H 0.23857 0.77075 0.96325 0.0
C1982 C 0.23511 0.2015 0.92647 0.0
C1983 C 0.23322 0.20862 0.91691 0.0
C1984 C 0.24138 0.20551 0.9361 0.0
C1985 C 0.26149 0.22892 0.94579 0.0
H1986 H 0.2491 0.22312 0.97563 0.0
C1987 C 0.26783 0.25955 0.98335 0.0
C1988 C 0.26962 0.25532 0.99448 0.0
C1989 C 0.26581 0.25216 0.97419 0.0
C1990 C 0.25282 0.22463 0.96739 0.0
H1991 H 0.23689 0.22537 0.90984 0.0
H1992 H 0.24755 0.23239 0.92658 0.0
H1993 H 0.24075 0.21331 0.95889 0.0
H1994 H 0.27095 0.24 1.00478 0.0
H1995 H 0.26712 0.22689 0.98863 0.0
H1996 H 0.27318 0.24065 0.95422 0.0
C1997 C 0.24429 0.22368 0.92668 0.0
C1998 C 0.24803 0.21902 0.95777 0.0
C1999 C 0.23803 0.2197 0.9171 0.0
C2000 C 0.26971 0.24346 0.99625 0.0
C2001 C 0.26744 0.236 0.98704 0.0
C2002 C 0.26622 0.23457 0.95537 0.0
C2003 C 0.24599 0.2167 0.93636 0.0
C2004 C 0.25208 0.22136 0.94679 0.0
C2005 C 0.26532 0.2403 0.97593 0.0
C2006 C 0.26172 0.23275 0.96623 0.0
H2007 H 0.23148 0.19294 0.92664 0.0
H2008 H 0.24259 0.19986 0.94336 0.0
H2009 H 0.26503 0.23073 0.93753 0.0
H2010 H 0.2677 0.26866 0.98176 0.0
H2011 H 0.26409 0.25577 0.96579 0.0
C2012 C 0.83529 0.22004 0.90558 0.0
C2013 C 0.84723 0.21866 0.90566 0.0
C2014 C 0.82993 0.2242 0.91522 0.0
C2015 C 0.83629 0.24081 0.94161 0.0
H2016 H 0.80707 0.22867 0.95133 0.0
C2017 C 0.81844 0.253 0.98493 0.0
C2018 C 0.80672 0.25537 0.98544 0.0
C2019 C 0.82288 0.24816 0.97519 0.0
C2020 C 0.81517 0.23224 0.94866 0.0
H2021 H 0.86279 0.22015 0.91618 0.0
H2022 H 0.85349 0.22734 0.93291 0.0
H2023 H 0.81574 0.2209 0.93437 0.0
H2024 H 0.79044 0.2542 0.97609 0.0
H2025 H 0.79823 0.24574 0.959 0.0
H2026 H 0.83577 0.25214 0.95583 0.0
C2027 C 0.84828 0.22547 0.92532 0.0
C2028 C 0.82015 0.22778 0.93893 0.0
C2029 C 0.85362 0.22133 0.91571 0.0
C2030 C 0.79949 0.25243 0.97603 0.0
C2031 C 0.80396 0.24758 0.96622 0.0
C2032 C 0.83133 0.24525 0.9513 0.0
C2033 C 0.83638 0.22708 0.92518 0.0
C2034 C 0.83083 0.23195 0.93534 0.0
C2035 C 0.81576 0.24554 0.96562 0.0
C2036 C 0.82076 0.24096 0.95504 0.0
H2037 H 0.83011 0.21818 0.89796 0.0
H2038 H 0.82078 0.22543 0.91476 0.0
H2039 H 0.84438 0.24443 0.93897 0.0
H2040 H 0.82422 0.25488 0.9921 0.0
H2041 H 0.83195 0.24646 0.97516 0.0
C2042 C 0.81508 0.8545 0.90856 0.0
C2043 C 0.8199 0.84738 0.90042 0.0
C2044 C 0.8101 0.8499 0.9183 0.0
C2045 C 0.80899 0.82404 0.93662 0.0
H2046 H 0.78059 0.83685 0.94634 0.0
C2047 C 0.78222 0.80341 0.97241 0.0
C2048 C 0.77704 0.81076 0.9801 0.0
C2049 C 0.78755 0.80774 0.96272 0.0
C2050 C 0.78859 0.83325 0.94384 0.0
H2051 H 0.82328 0.82979 0.89629 0.0
H2052 H 0.8146 0.82175 0.91331 0.0
H2053 H 0.78976 0.84458 0.92953 0.0
H2054 H 0.77364 0.82848 0.98364 0.0
H2055 H 0.78295 0.83602 0.96681 0.0
H2056 H 0.80781 0.81272 0.95096 0.0
C2057 C 0.81478 0.83093 0.91219 0.0
C2058 C 0.79386 0.83769 0.93418 0.0
C2059 C 0.81977 0.83554 0.90242 0.0
C2060 C 0.77737 0.82255 0.97784 0.0
C2061 C 0.78271 0.82688 0.96816 0.0
C2062 C 0.80372 0.8196 0.9463 0.0
C2063 C 0.80979 0.83805 0.92021 0.0
C2064 C 0.80415 0.83318 0.93045 0.0
C2065 C 0.78786 0.81954 0.96045 0.0
C2066 C 0.79346 0.82417 0.95007 0.0
H2067 H 0.81523 0.86367 0.90744 0.0
H2068 H 0.80656 0.85566 0.92439 0.0
H2069 H 0.81698 0.82044 0.93408 0.0
H2070 H 0.78198 0.79428 0.97376 0.0
H2071 H 0.79125 0.80181 0.9569 0.0
C2072 C 0.13327 0.21969 0.21843 0.0
C2073 C 0.13219 0.21388 0.20794 0.0
C2074 C 0.12385 0.22511 0.22297 0.0
C2075 C 0.09621 0.23752 0.21392 0.0
H2076 H 0.08943 0.23634 0.24609 0.0
C2077 C 0.0539 0.2545 0.23047 0.0
C2078 C 0.05401 0.26003 0.2411 0.0
C2079 C 0.06362 0.24901 0.22677 0.0
C2080 C 0.09128 0.2369 0.2371 0.0
H2081 H 0.12013 0.20874 0.19437 0.0
H2082 H 0.10383 0.21823 0.20223 0.0
H2083 H 0.10596 0.22629 0.2392 0.0
H2084 H 0.06455 0.26422 0.2561 0.0
H2085 H 0.08159 0.25477 0.24958 0.0
H2086 H 0.08167 0.24819 0.21177 0.0
C2087 C 0.112 0.21879 0.20683 0.0
C2088 C 0.10075 0.23111 0.23315 0.0
C2089 C 0.12137 0.21334 0.20233 0.0
C2090 C 0.06414 0.25995 0.24792 0.0
C2091 C 0.0739 0.2545 0.24418 0.0
C2092 C 0.0868 0.24336 0.21786 0.0
C2093 C 0.11315 0.22489 0.21712 0.0
C2094 C 0.10326 0.23125 0.22148 0.0
C2095 C 0.07378 0.24894 0.23355 0.0
C2096 C 0.08412 0.24305 0.22949 0.0
H2097 H 0.14148 0.22039 0.22294 0.0
H2098 H 0.12505 0.22979 0.23088 0.0
H2099 H 0.09802 0.23803 0.20492 0.0
H2100 H 0.04622 0.25415 0.22508 0.0
H2101 H 0.06308 0.24463 0.21865 0.0
C2102 C 0.8313 0.12584 0.21347 0.0
C2103 C 0.83995 0.13222 0.21929 0.0
C2104 C 0.82614 0.11635 0.21869 0.0
C2105 C 0.82155 0.10307 0.24705 0.0
H2106 H 0.81632 0.0753 0.22967 0.0
C2107 C 0.81007 0.06018 0.26874 0.0
C2108 C 0.8018 0.05307 0.26325 0.0
C2109 C 0.81438 0.0699 0.26325 0.0
C2110 C 0.81759 0.08302 0.23462 0.0
H2111 H 0.84969 0.13379 0.23531 0.0
H2112 H 0.84087 0.11723 0.24429 0.0
H2113 H 0.82414 0.09224 0.22032 0.0
H2114 H 0.79179 0.05057 0.24751 0.0
H2115 H 0.79914 0.06759 0.23804 0.0
H2116 H 0.81505 0.09387 0.26136 0.0
C2117 C 0.83801 0.11956 0.23572 0.0
C2118 C 0.82207 0.09275 0.22925 0.0
C2119 C 0.84317 0.12899 0.2305 0.0
C2120 C 0.79803 0.0559 0.25208 0.0
C2121 C 0.80236 0.06561 0.24658 0.0
C2122 C 0.81707 0.09336 0.25242 0.0
C2123 C 0.82946 0.11308 0.22987 0.0
C2124 C 0.82419 0.10287 0.23542 0.0
C2125 C 0.81056 0.07276 0.2521 0.0
C2126 C 0.81511 0.08318 0.2463 0.0
H2127 H 0.82866 0.12805 0.20481 0.0
H2128 H 0.81951 0.11161 0.21398 0.0
H2129 H 0.82289 0.11077 0.25202 0.0
H2130 H 0.81311 0.05836 0.27737 0.0
H2131 H 0.8208 0.07513 0.26772 0.0
C2132 C 0.91217 0.84036 0.2173 0.0
C2133 C 0.90323 0.83258 0.21444 0.0
C2134 C 0.9219 0.8368 0.22356 0.0
C2135 C 0.93273 0.81333 0.24233 0.0
H2136 H 0.96253 0.82465 0.23344 0.0
C2137 C 0.97487 0.79269 0.25842 0.0
C2138 C 0.98424 0.79994 0.26129 0.0
C2139 C 0.96492 0.79702 0.25319 0.0
C2140 C 0.95428 0.82151 0.23614 0.0
H2141 H 0.89743 0.815 0.21632 0.0
H2142 H 0.91441 0.80878 0.22696 0.0
H2143 H 0.94534 0.83163 0.22361 0.0
H2144 H 0.99043 0.81748 0.26084 0.0
H2145 H 0.97305 0.82505 0.25182 0.0
H2146 H 0.94169 0.80311 0.25475 0.0
C2147 C 0.9139 0.81766 0.22446 0.0
C2148 C 0.94439 0.82552 0.2305 0.0
C2149 C 0.90419 0.82121 0.21822 0.0
C2150 C 0.98336 0.81166 0.25884 0.0
C2151 C 0.97343 0.81598 0.25355 0.0
C2152 C 0.94261 0.80929 0.24794 0.0
C2153 C 0.92294 0.82538 0.22715 0.0
C2154 C 0.93347 0.82144 0.23347 0.0
C2155 C 0.96407 0.80872 0.25064 0.0
C2156 C 0.95352 0.81327 0.24488 0.0
H2157 H 0.91179 0.84915 0.21447 0.0
H2158 H 0.92861 0.84303 0.22558 0.0
H2159 H 0.92448 0.81013 0.245 0.0
H2160 H 0.97517 0.78365 0.26027 0.0
H2161 H 0.95794 0.79115 0.25097 0.0
C2162 C 0.18503 0.90804 0.22028 0.0
C2163 C 0.19218 0.89955 0.21622 0.0
C2164 C 0.18965 0.91775 0.22572 0.0
C2165 C 0.21626 0.93524 0.22969 0.0
H2166 H 0.20111 0.94614 0.25639 0.0
C2167 C 0.23546 0.97156 0.25849 0.0
C2168 C 0.22781 0.97954 0.26267 0.0
C2169 C 0.23139 0.96175 0.25275 0.0
C2170 C 0.20539 0.94331 0.24887 0.0
H2171 H 0.20988 0.89476 0.21462 0.0
H2172 H 0.21795 0.91175 0.2241 0.0
H2173 H 0.19359 0.92929 0.24645 0.0
H2174 H 0.20983 0.98349 0.26379 0.0
H2175 H 0.20278 0.96649 0.25383 0.0
H2176 H 0.22806 0.94931 0.23214 0.0
C2177 C 0.20874 0.91092 0.22298 0.0
C2178 C 0.20106 0.93362 0.24316 0.0
C2179 C 0.20411 0.90117 0.21753 0.0
C2180 C 0.21599 0.97746 0.2609 0.0
C2181 C 0.21194 0.96768 0.25517 0.0
C2182 C 0.22059 0.94496 0.23542 0.0
C2183 C 0.20156 0.91928 0.22726 0.0
C2184 C 0.20639 0.92949 0.23344 0.0
C2185 C 0.21957 0.95966 0.25104 0.0
C2186 C 0.21517 0.94916 0.24505 0.0
H2187 H 0.17582 0.90721 0.21921 0.0
H2188 H 0.18385 0.92412 0.22866 0.0
H2189 H 0.22052 0.93239 0.22217 0.0
H2190 H 0.2446 0.97277 0.25981 0.0
H2191 H 0.23753 0.9557 0.24983 0.0
C2192 C 0.11303 0.82313 0.82578 0.0
C2193 C 0.12385 0.82322 0.82087 0.0
C2194 C 0.10312 0.82083 0.81913 0.0
C2195 C 0.09302 0.80635 0.79279 0.0
H2196 H 0.06484 0.82184 0.79873 0.0
C2197 C 0.04971 0.79172 0.77165 0.0
C2198 C 0.04113 0.78997 0.77964 0.0
C2199 C 0.05973 0.79796 0.77469 0.0
C2200 C 0.07264 0.81744 0.79695 0.0
H2201 H 0.1327 0.82105 0.80506 0.0
H2202 H 0.11534 0.81707 0.79341 0.0
H2203 H 0.08273 0.82839 0.80802 0.0
H2204 H 0.03593 0.79395 0.79672 0.0
H2205 H 0.05314 0.80486 0.80193 0.0
H2206 H 0.08284 0.79515 0.78201 0.0
C2207 C 0.11456 0.81874 0.80244 0.0
C2208 C 0.08289 0.82118 0.8023 0.0
C2209 C 0.12449 0.82111 0.80909 0.0
C2210 C 0.0424 0.79517 0.79038 0.0
C2211 C 0.05227 0.80149 0.79336 0.0
C2212 C 0.08274 0.8026 0.78743 0.0
C2213 C 0.10375 0.81853 0.80739 0.0
C2214 C 0.09316 0.81548 0.80055 0.0
C2215 C 0.06123 0.80268 0.78569 0.0
C2216 C 0.07237 0.80789 0.78971 0.0
H2217 H 0.11221 0.82484 0.83479 0.0
H2218 H 0.09497 0.8206 0.82327 0.0
H2219 H 0.10075 0.80172 0.79129 0.0
H2220 H 0.04901 0.7877 0.76334 0.0
H2221 H 0.06644 0.79879 0.76856 0.0
C2222 C 0.2251 0.11528 0.83109 0.0
C2223 C 0.23298 0.12262 0.83685 0.0
C2224 C 0.22878 0.10551 0.82558 0.0
C2225 C 0.25309 0.08556 0.82408 0.0
H2226 H 0.23821 0.07745 0.79514 0.0
C2227 C 0.26773 0.04863 0.79442 0.0
C2228 C 0.25886 0.04224 0.78894 0.0
C2229 C 0.26522 0.05826 0.80095 0.0
C2230 C 0.2424 0.07951 0.80327 0.0
H2231 H 0.25097 0.12519 0.84145 0.0
H2232 H 0.2574 0.10831 0.83159 0.0
H2233 H 0.2326 0.09458 0.80492 0.0
H2234 H 0.24042 0.04053 0.78666 0.0
H2235 H 0.23611 0.05701 0.79806 0.0
H2236 H 0.26293 0.07042 0.8223 0.0
C2237 C 0.24834 0.11006 0.83144 0.0
C2238 C 0.23915 0.08935 0.80891 0.0
C2239 C 0.24465 0.11985 0.83698 0.0
C2240 C 0.24748 0.04533 0.79062 0.0
C2241 C 0.24499 0.05485 0.79711 0.0
C2242 C 0.25636 0.07568 0.8184 0.0
C2243 C 0.24045 0.10278 0.82561 0.0
C2244 C 0.24433 0.09246 0.81947 0.0
C2245 C 0.25381 0.06165 0.8021 0.0
C2246 C 0.25093 0.07245 0.808 0.0
H2247 H 0.21606 0.11715 0.83071 0.0
H2248 H 0.22241 0.10004 0.82133 0.0
H2249 H 0.25722 0.08763 0.83224 0.0
H2250 H 0.27658 0.04649 0.79325 0.0
H2251 H 0.27222 0.06331 0.80469 0.0
C2252 C 0.93067 0.20186 0.80996 0.0
C2253 C 0.92384 0.20731 0.81791 0.0
C2254 C 0.94051 0.20727 0.80581 0.0
C2255 C 0.95427 0.23603 0.80301 0.0
H2256 H 0.98204 0.2192 0.79873 0.0
C2257 C 0.99804 0.2583 0.80097 0.0
C2258 C 1.00562 0.25522 0.79246 0.0
C2259 C 0.98802 0.252 0.80272 0.0
C2260 C 0.97429 0.22397 0.79971 0.0
H2261 H 0.92213 0.22283 0.82765 0.0
H2262 H 0.93936 0.23209 0.82072 0.0
H2263 H 0.96467 0.2091 0.80467 0.0
H2264 H 1.00859 0.24292 0.77919 0.0
H2265 H 0.99095 0.23164 0.78244 0.0
H2266 H 0.96397 0.25093 0.7984 0.0
C2267 C 0.93703 0.22369 0.81752 0.0
C2268 C 0.96433 0.2182 0.80313 0.0
C2269 C 0.92719 0.21829 0.82164 0.0
C2270 C 1.00293 0.24552 0.7858 0.0
C2271 C 0.99287 0.23906 0.78768 0.0
C2272 C 0.96421 0.24178 0.79968 0.0
C2273 C 0.9438 0.2183 0.80949 0.0
C2274 C 0.95423 0.2242 0.80505 0.0
C2275 C 0.98525 0.24234 0.7961 0.0
C2276 C 0.97441 0.23587 0.79821 0.0
H2277 H 0.92847 0.19334 0.80699 0.0
H2278 H 0.94544 0.20287 0.79959 0.0
H2279 H 0.94662 0.24092 0.80407 0.0
H2280 H 0.99975 0.2657 0.80629 0.0
H2281 H 0.98245 0.25465 0.80939 0.0
C2282 C 0.82341 0.91888 0.81022 0.0
C2283 C 0.83521 0.91749 0.80884 0.0
C2284 C 0.81775 0.92818 0.80529 0.0
C2285 C 0.82255 0.95721 0.7933 0.0
H2286 H 0.7916 0.95245 0.78116 0.0
C2287 C 0.79524 0.99332 0.77182 0.0
C2288 C 0.78411 0.99394 0.77596 0.0
C2289 C 0.80214 0.98395 0.77463 0.0
C2290 C 0.80024 0.95393 0.78452 0.0
H2291 H 0.85031 0.92502 0.80129 0.0
H2292 H 0.84038 0.9411 0.79249 0.0
H2293 H 0.80234 0.93627 0.78849 0.0
H2294 H 0.77146 0.98509 0.78611 0.0
H2295 H 0.78332 0.96894 0.79085 0.0
H2296 H 0.82032 0.97495 0.78935 0.0
C2297 C 0.83552 0.93503 0.79748 0.0
C2298 C 0.80639 0.94466 0.78879 0.0
C2299 C 0.84119 0.92572 0.80243 0.0
C2300 C 0.77999 0.98495 0.78278 0.0
C2301 C 0.78677 0.9756 0.78545 0.0
C2302 C 0.81639 0.96651 0.78896 0.0
C2303 C 0.8237 0.93635 0.7988 0.0
C2304 C 0.81754 0.94618 0.79347 0.0
C2305 C 0.79794 0.97497 0.78147 0.0
C2306 C 0.80507 0.96501 0.78476 0.0
H2307 H 0.81848 0.91268 0.81499 0.0
H2308 H 0.80869 0.92899 0.80666 0.0
H2309 H 0.83109 0.95874 0.79689 0.0
H2310 H 0.79866 1.00013 0.76657 0.0
H2311 H 0.81071 0.98369 0.77141 0.0
C2312 C 0.22313 0.12109 0.21369 0.0
C2313 C 0.21115 0.12178 0.21229 0.0
C2314 C 0.22823 0.11089 0.21726 0.0
C2315 C 0.22229 0.07965 0.21974 0.0
H2316 H 0.24675 0.08041 0.24288 0.0
C2317 C 0.23212 0.04161 0.24906 0.0
C2318 C 0.24347 0.03926 0.25243 0.0
C2319 C 0.22957 0.05116 0.24237 0.0
C2320 C 0.24008 0.08004 0.23626 0.0
H2321 H 0.19519 0.11223 0.21384 0.0
H2322 H 0.20403 0.09457 0.22002 0.0
H2323 H 0.23956 0.09827 0.23487 0.0
H2324 H 0.26112 0.04493 0.25117 0.0
H2325 H 0.25663 0.06184 0.23945 0.0
H2326 H 0.22257 0.06147 0.22136 0.0
C2327 C 0.20953 0.10182 0.21812 0.0
C2328 C 0.23593 0.09029 0.23167 0.0
C2329 C 0.20444 0.11199 0.21457 0.0
C2330 C 0.2523 0.04648 0.24861 0.0
C2331 C 0.24972 0.0562 0.242 0.0
C2332 C 0.22642 0.06944 0.22433 0.0
C2333 C 0.22149 0.10111 0.21951 0.0
C2334 C 0.22678 0.09024 0.22355 0.0
C2335 C 0.23828 0.05873 0.23894 0.0
C2336 C 0.23517 0.0695 0.23286 0.0
H2337 H 0.22859 0.12841 0.2119 0.0
H2338 H 0.23747 0.11063 0.21814 0.0
H2339 H 0.21544 0.07925 0.2133 0.0
H2340 H 0.22512 0.03621 0.25186 0.0
H2341 H 0.22067 0.05287 0.24031 0.0
C2342 C 0.21118 0.91064 0.82434 0.0
C2343 C 0.20406 0.90344 0.81753 0.0
C2344 C 0.21644 0.92034 0.81961 0.0
C2345 C 0.2246 0.93312 0.79186 0.0
H2346 H 0.22471 0.96172 0.80833 0.0
C2347 C 0.23541 0.97599 0.76994 0.0
C2348 C 0.24222 0.98402 0.7761 0.0
C2349 C 0.23115 0.96617 0.7753 0.0
C2350 C 0.22488 0.95378 0.80367 0.0
H2351 H 0.19723 0.90061 0.80032 0.0
H2352 H 0.20622 0.91751 0.79216 0.0
H2353 H 0.21692 0.94447 0.81716 0.0
H2354 H 0.24962 0.98803 0.79286 0.0
H2355 H 0.24233 0.97084 0.80213 0.0
H2356 H 0.23248 0.94241 0.77834 0.0
C2357 C 0.2078 0.91569 0.80113 0.0
C2358 C 0.22042 0.94387 0.80874 0.0
C2359 C 0.20252 0.90605 0.80586 0.0
C2360 C 0.24453 0.982 0.7878 0.0
C2361 C 0.24024 0.97218 0.79316 0.0
C2362 C 0.22905 0.94301 0.78679 0.0
C2363 C 0.21479 0.923 0.80794 0.0
C2364 C 0.22012 0.93344 0.80285 0.0
C2365 C 0.23356 0.96409 0.78696 0.0
C2366 C 0.22915 0.9535 0.79257 0.0
H2367 H 0.21249 0.90892 0.83337 0.0
H2368 H 0.22186 0.92573 0.82508 0.0
H2369 H 0.22471 0.9252 0.78715 0.0
H2370 H 0.23353 0.97716 0.76092 0.0
H2371 H 0.2259 0.96022 0.77028 0.0
C2372 C 0.13897 0.20316 0.82674 0.0
C2373 C 0.14733 0.20729 0.83467 0.0
C2374 C 0.12947 0.20969 0.82362 0.0
C2375 C 0.11202 0.23377 0.83301 0.0
H2376 H 0.10187 0.23461 0.80118 0.0
C2377 C 0.07643 0.26409 0.81643 0.0
C2378 C 0.06862 0.25993 0.80798 0.0
C2379 C 0.08608 0.25784 0.81975 0.0
C2380 C 0.10448 0.23437 0.81013 0.0
H2381 H 0.15214 0.22166 0.84552 0.0
H2382 H 0.13551 0.233 0.84015 0.0
H2383 H 0.11845 0.22343 0.80689 0.0
H2384 H 0.06482 0.24572 0.7966 0.0
H2385 H 0.08153 0.23483 0.80242 0.0
H2386 H 0.09799 0.24464 0.83627 0.0
C2387 C 0.13628 0.22463 0.83641 0.0
C2388 C 0.11402 0.22795 0.81341 0.0
C2389 C 0.14582 0.21811 0.83951 0.0
C2390 C 0.07072 0.24931 0.80298 0.0
C2391 C 0.08035 0.24305 0.80633 0.0
C2392 C 0.10244 0.24016 0.82974 0.0
C2393 C 0.128 0.22054 0.82837 0.0
C2394 C 0.11791 0.22753 0.8249 0.0
C2395 C 0.08819 0.24723 0.81474 0.0
C2396 C 0.09851 0.24053 0.81825 0.0
H2397 H 0.13968 0.19478 0.823 0.0
H2398 H 0.12317 0.20616 0.81756 0.0
H2399 H 0.11468 0.23353 0.84195 0.0
H2400 H 0.07519 0.27229 0.82036 0.0
H2401 H 0.092 0.26143 0.82613 0.0
C2402 C 0.8337 0.126 0.82317 0.0
C2403 C 0.82873 0.13256 0.83166 0.0
C2404 C 0.82782 0.11653 0.81842 0.0
C2405 C 0.80416 0.09594 0.82424 0.0
H2406 H 0.80514 0.08967 0.79183 0.0
C2407 C 0.77476 0.06167 0.80241 0.0
C2408 C 0.77947 0.05487 0.79395 0.0
C2409 C 0.78087 0.07109 0.80694 0.0
C2410 C 0.80487 0.09122 0.80092 0.0
H2411 H 0.81346 0.1345 0.84147 0.0
H2412 H 0.80327 0.11807 0.83322 0.0
H2413 H 0.81562 0.10616 0.79974 0.0
H2414 H 0.79449 0.05262 0.78384 0.0
H2415 H 0.80509 0.06899 0.79171 0.0
H2416 H 0.79341 0.08102 0.82544 0.0
C2417 C 0.81181 0.12007 0.8304 0.0
C2418 C 0.8109 0.10068 0.80546 0.0
C2419 C 0.81767 0.12951 0.83514 0.0
C2420 C 0.79048 0.05774 0.79018 0.0
C2421 C 0.79658 0.06716 0.79471 0.0
C2422 C 0.79814 0.08649 0.81971 0.0
C2423 C 0.81682 0.1134 0.82203 0.0
C2424 C 0.81058 0.1032 0.81718 0.0
C2425 C 0.79187 0.07397 0.80315 0.0
C2426 C 0.79838 0.08401 0.80798 0.0
H2427 H 0.84224 0.12803 0.82037 0.0
H2428 H 0.832 0.11153 0.81208 0.0
H2429 H 0.80388 0.09749 0.83334 0.0
H2430 H 0.76627 0.05986 0.80541 0.0
H2431 H 0.77689 0.07623 0.81329 0.0
C2432 C 0.91472 0.83038 0.82089 0.0
C2433 C 0.90776 0.82503 0.82898 0.0
C2434 C 0.92388 0.82462 0.81626 0.0
C2435 C 0.93512 0.79551 0.81215 0.0
H2436 H 0.96398 0.81157 0.80789 0.0
C2437 C 0.97663 0.7719 0.80228 0.0
C2438 C 0.98395 0.77686 0.79427 0.0
C2439 C 0.96725 0.77785 0.80617 0.0
C2440 C 0.95594 0.80698 0.8089 0.0
H2441 H 0.90488 0.80926 0.83833 0.0
H2442 H 0.92092 0.79936 0.8305 0.0
H2443 H 0.94779 0.8218 0.81515 0.0
H2444 H 0.98714 0.79211 0.7842 0.0
H2445 H 0.97073 0.80238 0.79084 0.0
H2446 H 0.9433 0.78068 0.80597 0.0
C2447 C 0.91927 0.80798 0.82762 0.0
C2448 C 0.94664 0.81286 0.81306 0.0
C2449 C 0.91014 0.81373 0.83224 0.0
C2450 C 0.98164 0.78795 0.79026 0.0
C2451 C 0.97228 0.79391 0.79418 0.0
C2452 C 0.94442 0.78964 0.80801 0.0
C2453 C 0.92629 0.81334 0.81959 0.0
C2454 C 0.93612 0.80719 0.8148 0.0
C2455 C 0.96496 0.78893 0.80218 0.0
C2456 C 0.95498 0.79527 0.80638 0.0
H2457 H 0.91321 0.8391 0.81823 0.0
H2458 H 0.92902 0.82899 0.81001 0.0
H2459 H 0.9271 0.7909 0.81318 0.0
H2460 H 0.97806 0.76337 0.80549 0.0
H2461 H 0.96188 0.77379 0.81243 0.0
C2462 C 0.82646 0.92725 0.21285 0.0
C2463 C 0.82027 0.91723 0.2099 0.0
C2464 C 0.82086 0.93691 0.2166 0.0
C2465 C 0.79393 0.94617 0.22934 0.0
H2466 H 0.80579 0.9762 0.22146 0.0
C2467 C 0.77546 0.98814 0.24741 0.0
C2468 C 0.78399 0.99534 0.25234 0.0
C2469 C 0.77848 0.97896 0.24048 0.0
C2470 C 0.80235 0.96787 0.22373 0.0
H2471 H 0.80322 0.90964 0.20847 0.0
H2472 H 0.79343 0.92654 0.21499 0.0
H2473 H 0.81376 0.95937 0.21284 0.0
H2474 H 0.80224 0.99892 0.25348 0.0
H2475 H 0.80744 0.98325 0.24133 0.0
H2476 H 0.78264 0.95477 0.2404 0.0
C2477 C 0.80266 0.92686 0.21453 0.0
C2478 C 0.80696 0.9582 0.21883 0.0
C2479 C 0.80828 0.91716 0.21078 0.0
C2480 C 0.79547 0.99353 0.24979 0.0
C2481 C 0.79845 0.98456 0.24277 0.0
C2482 C 0.78927 0.95588 0.23422 0.0
C2483 C 0.80888 0.93687 0.2175 0.0
C2484 C 0.80305 0.94719 0.22179 0.0
C2485 C 0.79005 0.97701 0.2382 0.0
C2486 C 0.79364 0.96684 0.2317 0.0
H2487 H 0.8357 0.92757 0.21253 0.0
H2488 H 0.82599 0.94434 0.21906 0.0
H2489 H 0.79073 0.93785 0.23189 0.0
H2490 H 0.76656 0.98927 0.24933 0.0
H2491 H 0.77181 0.97331 0.23704 0.0
C2492 C 0.1184 0.81247 0.20974 0.0
C2493 C 0.11987 0.81015 0.19811 0.0
C2494 C 0.10869 0.80847 0.21528 0.0
C2495 C 0.08515 0.78697 0.2141 0.0
H2496 H 0.07117 0.80795 0.23471 0.0
C2497 C 0.0437 0.77658 0.24001 0.0
C2498 C 0.04425 0.78048 0.25136 0.0
C2499 C 0.05242 0.7796 0.23245 0.0
C2500 C 0.07499 0.80194 0.22904 0.0
H2501 H 0.11218 0.80163 0.18326 0.0
H2502 H 0.09526 0.79453 0.19303 0.0
H2503 H 0.08735 0.81436 0.22368 0.0
H2504 H 0.05472 0.79001 0.2638 0.0
H2505 H 0.06969 0.79505 0.25087 0.0
H2506 H 0.0728 0.77448 0.21971 0.0
C2507 C 0.1017 0.79944 0.19783 0.0
C2508 C 0.08429 0.80562 0.22272 0.0
C2509 C 0.11142 0.8035 0.19225 0.0
C2510 C 0.05385 0.78702 0.25507 0.0
C2511 C 0.06247 0.78998 0.24762 0.0
C2512 C 0.0758 0.78324 0.2205 0.0
C2513 C 0.10016 0.80198 0.2094 0.0
C2514 C 0.08967 0.79813 0.21536 0.0
C2515 C 0.06178 0.78657 0.23614 0.0
C2516 C 0.0708 0.79063 0.22826 0.0
H2517 H 0.12482 0.81731 0.21462 0.0
H2518 H 0.10791 0.81039 0.22426 0.0
H2519 H 0.0891 0.78098 0.2085 0.0
H2520 H 0.03643 0.77149 0.2369 0.0
H2521 H 0.05166 0.77679 0.22366 0.0
C2522 C 0.92901 0.2129 0.21014 0.0
C2523 C 0.91796 0.21321 0.21451 0.0
C2524 C 0.93863 0.21558 0.21708 0.0
C2525 C 0.9486 0.21924 0.24743 0.0
H2526 H 0.97258 0.23762 0.23389 0.0
C2527 C 0.98388 0.24422 0.27358 0.0
C2528 C 0.9948 0.24533 0.26895 0.0
C2529 C 0.97494 0.2386 0.26751 0.0
C2530 C 0.96607 0.23232 0.23778 0.0
H2531 H 0.90839 0.21652 0.22965 0.0
H2532 H 0.92516 0.22135 0.24173 0.0
H2533 H 0.95614 0.23138 0.22217 0.0
H2534 H 1.00507 0.24062 0.25466 0.0
H2535 H 0.98955 0.23072 0.24419 0.0
H2536 H 0.95849 0.22047 0.26314 0.0
C2537 C 0.92642 0.21883 0.23298 0.0
C2538 C 0.95661 0.22874 0.23104 0.0
C2539 C 0.91679 0.21609 0.22605 0.0
C2540 C 0.99676 0.24002 0.25846 0.0
C2541 C 0.98783 0.23442 0.2524 0.0
C2542 C 0.95807 0.22288 0.2542 0.0
C2543 C 0.93747 0.21871 0.22856 0.0
C2544 C 0.94771 0.22219 0.23576 0.0
C2545 C 0.97672 0.23396 0.25667 0.0
C2546 C 0.9669 0.2295 0.24946 0.0
H2547 H 0.93023 0.21052 0.20134 0.0
H2548 H 0.94701 0.21516 0.21343 0.0
H2549 H 0.94201 0.21408 0.25133 0.0
H2550 H 0.98205 0.2482 0.28163 0.0
H2551 H 0.96649 0.23844 0.27104 0.0
C2552 C 0.22293 0.72714 0.62089 0.0
C2553 C 0.21239 0.72115 0.62071 0.0
C2554 C 0.22627 0.73361 0.61147 0.0
C2555 C 0.22143 0.73621 0.58027 0.0
H2556 H 0.23982 0.76383 0.58458 0.0
C2557 C 0.24326 0.75949 0.54248 0.0
C2558 C 0.25506 0.76116 0.54461 0.0
C2559 C 0.23605 0.75663 0.55149 0.0
C2560 C 0.23465 0.75616 0.58322 0.0
H2561 H 0.19699 0.71749 0.61047 0.0
H2562 H 0.20278 0.72893 0.59403 0.0
H2563 H 0.23089 0.7548 0.60094 0.0
H2564 H 0.26849 0.76182 0.55775 0.0
H2565 H 0.25602 0.7572 0.5734 0.0
H2566 H 0.22547 0.73745 0.56256 0.0
C2567 C 0.20851 0.72851 0.60146 0.0
C2568 C 0.22957 0.75094 0.59261 0.0
C2569 C 0.20514 0.72204 0.61093 0.0
C2570 C 0.25941 0.76061 0.5559 0.0
C2571 C 0.25224 0.758 0.56487 0.0
C2572 C 0.22648 0.74147 0.57085 0.0
C2573 C 0.21917 0.73432 0.60158 0.0
C2574 C 0.22319 0.7407 0.59133 0.0
C2575 C 0.24053 0.75566 0.56277 0.0
C2576 C 0.23344 0.75131 0.57228 0.0
H2577 H 0.22867 0.72678 0.62832 0.0
H2578 H 0.2346 0.73783 0.61186 0.0
H2579 H 0.21664 0.72831 0.57896 0.0
H2580 H 0.23974 0.75973 0.53381 0.0
H2581 H 0.22706 0.75492 0.54962 0.0
C2582 C 0.82482 0.72007 0.60848 0.0
C2583 C 0.81825 0.71272 0.61532 0.0
C2584 C 0.82027 0.72442 0.59821 0.0
C2585 C 0.79309 0.73059 0.58277 0.0
H2586 H 0.81242 0.7324 0.55651 0.0
C2587 C 0.77757 0.74991 0.53913 0.0
C2588 C 0.7854 0.75766 0.53432 0.0
C2589 C 0.78096 0.74296 0.5484 0.0
C2590 C 0.80691 0.732 0.56377 0.0
H2591 H 0.80169 0.70417 0.61655 0.0
H2592 H 0.79372 0.71194 0.59871 0.0
H2593 H 0.81954 0.72341 0.57406 0.0
H2594 H 0.80301 0.7639 0.53523 0.0
H2595 H 0.80883 0.75194 0.5512 0.0
H2596 H 0.78056 0.73946 0.57252 0.0
C2597 C 0.80238 0.71436 0.60137 0.0
C2598 C 0.81101 0.72686 0.57384 0.0
C2599 C 0.80696 0.70994 0.61162 0.0
C2600 C 0.79673 0.75805 0.53873 0.0
C2601 C 0.80011 0.75111 0.54786 0.0
C2602 C 0.789 0.73578 0.57268 0.0
C2603 C 0.80901 0.72161 0.5945 0.0
C2604 C 0.80425 0.7263 0.58354 0.0
C2605 C 0.79227 0.74355 0.55291 0.0
C2606 C 0.79596 0.73677 0.56314 0.0
H2607 H 0.83346 0.72258 0.61113 0.0
H2608 H 0.82554 0.73015 0.59324 0.0
H2609 H 0.78768 0.73035 0.59011 0.0
H2610 H 0.76877 0.74944 0.53594 0.0
H2611 H 0.77473 0.73717 0.55206 0.0
C2612 C 0.84359 0.32625 0.62777 0.0
C2613 C 0.8354 0.33137 0.63454 0.0
C2614 C 0.84024 0.31997 0.61802 0.0
C2615 C 0.81577 0.31551 0.59722 0.0
H2616 H 0.83169 0.28796 0.58978 0.0
C2617 C 0.79898 0.28471 0.56167 0.0
C2618 C 0.80705 0.27999 0.55447 0.0
C2619 C 0.80251 0.29089 0.57141 0.0
C2620 C 0.82722 0.2957 0.59166 0.0
H2621 H 0.81719 0.33394 0.63614 0.0
H2622 H 0.81137 0.3228 0.61941 0.0
H2623 H 0.83768 0.29884 0.60671 0.0
H2624 H 0.82524 0.27822 0.552 0.0
H2625 H 0.83136 0.28892 0.56897 0.0
H2626 H 0.80526 0.31232 0.58221 0.0
C2627 C 0.82042 0.32373 0.62154 0.0
C2628 C 0.83067 0.30197 0.60138 0.0
C2629 C 0.82376 0.33002 0.63127 0.0
C2630 C 0.81875 0.28156 0.55737 0.0
C2631 C 0.82228 0.28772 0.56714 0.0
C2632 C 0.8123 0.30923 0.58753 0.0
C2633 C 0.8286 0.31863 0.61475 0.0
C2634 C 0.82499 0.31196 0.60432 0.0
C2635 C 0.81421 0.29252 0.57427 0.0
C2636 C 0.81796 0.29923 0.58461 0.0
H2637 H 0.85262 0.32698 0.63006 0.0
H2638 H 0.84682 0.31629 0.61297 0.0
H2639 H 0.8113 0.32326 0.59905 0.0
H2640 H 0.78991 0.28354 0.55989 0.0
H2641 H 0.79604 0.29428 0.5768 0.0
C2642 C 0.22541 0.35016 0.62729 0.0
C2643 C 0.22294 0.34304 0.63664 0.0
C2644 C 0.23033 0.34576 0.61755 0.0
C2645 C 0.23527 0.31883 0.60205 0.0
H2646 H 0.25915 0.33674 0.58778 0.0
C2647 C 0.26278 0.30065 0.56634 0.0
C2648 C 0.26554 0.30792 0.55719 0.0
C2649 C 0.25747 0.30486 0.57596 0.0
C2650 C 0.2524 0.33168 0.59156 0.0
H2651 H 0.22365 0.32565 0.64296 0.0
H2652 H 0.23222 0.31798 0.62595 0.0
H2653 H 0.25002 0.34411 0.60455 0.0
H2654 H 0.26472 0.32537 0.55104 0.0
H2655 H 0.25548 0.3327 0.56778 0.0
H2656 H 0.23768 0.3064 0.58905 0.0
C2657 C 0.23024 0.32696 0.62611 0.0
C2658 C 0.24715 0.33591 0.6012 0.0
C2659 C 0.22531 0.33136 0.63588 0.0
C2660 C 0.26288 0.31954 0.55796 0.0
C2661 C 0.25757 0.32375 0.56759 0.0
C2662 C 0.24053 0.3146 0.5924 0.0
C2663 C 0.23291 0.33413 0.61685 0.0
C2664 C 0.2385 0.32956 0.60658 0.0
C2665 C 0.25479 0.31647 0.57672 0.0
C2666 C 0.24916 0.32097 0.58701 0.0
H2667 H 0.2235 0.35915 0.62747 0.0
H2668 H 0.23203 0.3515 0.61051 0.0
H2669 H 0.22854 0.31377 0.60586 0.0
H2670 H 0.26486 0.29171 0.56617 0.0
H2671 H 0.25565 0.29903 0.5829 0.0
C2672 C 0.20713 0.3167 0.42643 0.0
C2673 C 0.21474 0.31917 0.41765 0.0
C2674 C 0.21067 0.31027 0.43599 0.0
C2675 C 0.23349 0.2907 0.44641 0.0
H2676 H 0.22682 0.30235 0.47635 0.0
C2677 C 0.26305 0.28496 0.48557 0.0
C2678 C 0.25852 0.28318 0.4964 0.0
C2679 C 0.25586 0.28664 0.47602 0.0
C2680 C 0.22855 0.29882 0.46807 0.0
H2681 H 0.23189 0.31645 0.41183 0.0
H2682 H 0.2381 0.30548 0.42849 0.0
H2683 H 0.21764 0.31071 0.45935 0.0
H2684 H 0.24292 0.2814 0.50575 0.0
H2685 H 0.23017 0.28461 0.48891 0.0
H2686 H 0.24481 0.27918 0.4551 0.0
C2687 C 0.22937 0.3084 0.42801 0.0
C2688 C 0.2233 0.30363 0.45831 0.0
C2689 C 0.22585 0.31484 0.41851 0.0
C2690 C 0.24659 0.28266 0.49745 0.0
C2691 C 0.23934 0.28458 0.48786 0.0
C2692 C 0.23875 0.28594 0.45614 0.0
C2693 C 0.22187 0.3061 0.43692 0.0
C2694 C 0.22601 0.29988 0.44734 0.0
C2695 C 0.24394 0.28676 0.47707 0.0
C2696 C 0.23663 0.29019 0.46706 0.0
H2697 H 0.19853 0.31996 0.42606 0.0
H2698 H 0.20465 0.3086 0.44266 0.0
H2699 H 0.23556 0.28742 0.43811 0.0
H2700 H 0.27223 0.28538 0.48453 0.0
H2701 H 0.2597 0.28842 0.46789 0.0
C2702 C 0.22021 0.69645 0.41223 0.0
C2703 C 0.21795 0.70395 0.40305 0.0
C2704 C 0.22624 0.70025 0.42209 0.0
C2705 C 0.2337 0.72678 0.43797 0.0
H2706 H 0.25617 0.70814 0.45387 0.0
C2707 C 0.26217 0.74483 0.47506 0.0
C2708 C 0.26444 0.73775 0.48456 0.0
C2709 C 0.25682 0.74045 0.46511 0.0
C2710 C 0.24983 0.71341 0.44962 0.0
H2711 H 0.22077 0.72122 0.3969 0.0
H2712 H 0.23121 0.72782 0.41401 0.0
H2713 H 0.24635 0.70092 0.43658 0.0
H2714 H 0.26282 0.72043 0.49094 0.0
H2715 H 0.25342 0.7128 0.47363 0.0
H2716 H 0.23706 0.73924 0.45099 0.0
C2717 C 0.22812 0.71905 0.41371 0.0
C2718 C 0.2442 0.70927 0.43968 0.0
C2719 C 0.22213 0.71526 0.40388 0.0
C2720 C 0.26133 0.72611 0.48377 0.0
C2721 C 0.25594 0.72173 0.47381 0.0
C2722 C 0.23929 0.73091 0.44789 0.0
C2723 C 0.23015 0.71165 0.42301 0.0
C2724 C 0.2361 0.71593 0.43369 0.0
C2725 C 0.25353 0.72886 0.46437 0.0
C2726 C 0.24749 0.72432 0.45384 0.0
H2727 H 0.21703 0.68771 0.41195 0.0
H2728 H 0.22755 0.69433 0.42911 0.0
H2729 H 0.22735 0.73206 0.43373 0.0
H2730 H 0.26463 0.75377 0.47525 0.0
H2731 H 0.25535 0.74617 0.45795 0.0
C2732 C 0.82771 0.7163 0.40555 0.0
C2733 C 0.83545 0.72213 0.39852 0.0
C2734 C 0.82299 0.72177 0.41487 0.0
C2735 C 0.82798 0.74647 0.43426 0.0
H2736 H 0.79615 0.7415 0.44151 0.0
C2737 C 0.80591 0.77356 0.46802 0.0
C2738 C 0.79822 0.76799 0.47528 0.0
C2739 C 0.81033 0.76788 0.45868 0.0
C2740 C 0.80509 0.74289 0.43969 0.0
H2741 H 0.84391 0.73847 0.39562 0.0
H2742 H 0.83574 0.74795 0.41181 0.0
H2743 H 0.80398 0.73174 0.42523 0.0
H2744 H 0.78931 0.75192 0.4784 0.0
H2745 H 0.797 0.74206 0.46218 0.0
H2746 H 0.82912 0.7576 0.4487 0.0
C2747 C 0.83349 0.73907 0.41028 0.0
C2748 C 0.80959 0.73728 0.43034 0.0
C2749 C 0.83819 0.73362 0.40097 0.0
C2750 C 0.79506 0.75658 0.47292 0.0
C2751 C 0.79948 0.7509 0.46359 0.0
C2752 C 0.8235 0.75206 0.4436 0.0
C2753 C 0.82588 0.73321 0.41741 0.0
C2754 C 0.82109 0.73903 0.42747 0.0
C2755 C 0.80719 0.75646 0.45635 0.0
C2756 C 0.81198 0.75039 0.44643 0.0
H2757 H 0.82549 0.70742 0.40401 0.0
H2758 H 0.81726 0.71694 0.42024 0.0
H2759 H 0.83693 0.74787 0.43245 0.0
H2760 H 0.80842 0.78239 0.46942 0.0
H2761 H 0.81609 0.77252 0.4532 0.0
C2762 C 0.82526 0.32391 0.41536 0.0
C2763 C 0.82288 0.3354 0.41297 0.0
C2764 C 0.82067 0.31841 0.42487 0.0
C2765 C 0.80758 0.3237 0.45288 0.0
H2766 H 0.79834 0.2919 0.44993 0.0
C2767 C 0.7873 0.29646 0.48966 0.0
C2768 C 0.79255 0.28587 0.49141 0.0
C2769 C 0.78985 0.30318 0.48003 0.0
C2770 C 0.80089 0.30079 0.4509 0.0
H2771 H 0.81394 0.35015 0.41898 0.0
H2772 H 0.80575 0.34049 0.43539 0.0
H2773 H 0.80514 0.30226 0.43333 0.0
H2774 H 0.80446 0.27403 0.48429 0.0
H2775 H 0.8087 0.28555 0.46772 0.0
H2776 H 0.80332 0.32209 0.47054 0.0
C2777 C 0.81125 0.33574 0.42995 0.0
C2778 C 0.80486 0.30672 0.44139 0.0
C2779 C 0.81585 0.34126 0.42044 0.0
C2780 C 0.80025 0.28214 0.48329 0.0
C2781 C 0.80265 0.28872 0.4737 0.0
C2782 C 0.80353 0.31775 0.46241 0.0
C2783 C 0.81353 0.32421 0.43226 0.0
C2784 C 0.80852 0.3182 0.44228 0.0
C2785 C 0.7975 0.29931 0.47191 0.0
C2786 C 0.80038 0.30615 0.46158 0.0
H2787 H 0.83052 0.31906 0.40978 0.0
H2788 H 0.8228 0.30958 0.42645 0.0
H2789 H 0.81037 0.33251 0.45393 0.0
H2790 H 0.78134 0.29957 0.49576 0.0
H2791 H 0.78574 0.31132 0.47887 0.0
C2792 C 0.11987 0.71835 0.69826 0.0
C2793 C 0.13017 0.7147 0.7035 0.0
C2794 C 0.11054 0.72114 0.70481 0.0
C2795 C 0.09826 0.71726 0.73341 0.0
H2796 H 0.08074 0.74379 0.72455 0.0
C2797 C 0.05509 0.72803 0.75364 0.0
C2798 C 0.05289 0.73958 0.75574 0.0
C2799 C 0.06472 0.72491 0.74764 0.0
C2800 C 0.08558 0.73641 0.72721 0.0
H2801 H 0.13864 0.7111 0.71982 0.0
H2802 H 0.12234 0.71595 0.73126 0.0
H2803 H 0.0971 0.73853 0.71348 0.0
H2804 H 0.05944 0.75685 0.75346 0.0
H2805 H 0.07614 0.75143 0.74301 0.0
H2806 H 0.0868 0.71525 0.74724 0.0
C2807 C 0.12145 0.71653 0.72205 0.0
C2808 C 0.0949 0.7333 0.72077 0.0
C2809 C 0.13081 0.71374 0.71548 0.0
C2810 C 0.06069 0.7479 0.75183 0.0
C2811 C 0.0703 0.74478 0.74582 0.0
C2812 C 0.08891 0.72035 0.73984 0.0
C2813 C 0.11123 0.72036 0.7168 0.0
C2814 C 0.10135 0.72367 0.72376 0.0
C2815 C 0.0724 0.73325 0.74357 0.0
C2816 C 0.08244 0.72997 0.73682 0.0
H2817 H 0.11897 0.71897 0.68904 0.0
H2818 H 0.10274 0.72383 0.70045 0.0
H2819 H 0.10297 0.70974 0.73591 0.0
H2820 H 0.04924 0.72138 0.75638 0.0
H2821 H 0.06598 0.71596 0.74595 0.0
C2822 C 0.82959 0.62696 0.69625 0.0
C2823 C 0.82885 0.63726 0.70226 0.0
C2824 C 0.82356 0.61719 0.69974 0.0
C2825 C 0.81025 0.60398 0.72481 0.0
H2826 H 0.79472 0.58458 0.70227 0.0
C2827 C 0.78255 0.56477 0.73779 0.0
C2828 C 0.78327 0.55488 0.73112 0.0
C2829 C 0.78756 0.57509 0.73425 0.0
C2830 C 0.79911 0.58982 0.70868 0.0
H2831 H 0.82124 0.64531 0.71673 0.0
H2832 H 0.81068 0.62826 0.72281 0.0
H2833 H 0.80457 0.60197 0.69616 0.0
H2834 H 0.78999 0.54814 0.71554 0.0
H2835 H 0.79877 0.56602 0.70945 0.0
H2836 H 0.80499 0.59175 0.73731 0.0
C2837 C 0.81596 0.62775 0.7154 0.0
C2838 C 0.80475 0.59981 0.70516 0.0
C2839 C 0.82192 0.63755 0.71185 0.0
C2840 C 0.78907 0.55561 0.7208 0.0
C2841 C 0.79412 0.5659 0.71729 0.0
C2842 C 0.80467 0.59395 0.72832 0.0
C2843 C 0.8167 0.61745 0.70938 0.0
C2844 C 0.81044 0.60698 0.71317 0.0
C2845 C 0.79346 0.57579 0.72398 0.0
C2846 C 0.79908 0.58669 0.72029 0.0
H2847 H 0.83477 0.62647 0.68877 0.0
H2848 H 0.82441 0.60938 0.69498 0.0
H2849 H 0.81467 0.60924 0.73118 0.0
H2850 H 0.77803 0.56455 0.74571 0.0
H2851 H 0.78671 0.58256 0.73954 0.0
C2852 C 0.92761 0.34199 0.72562 0.0
C2853 C 0.92003 0.33384 0.72059 0.0
C2854 C 0.93732 0.33858 0.73198 0.0
C2855 C 0.94937 0.3138 0.74772 0.0
H2856 H 0.97842 0.32974 0.74423 0.0
C2857 C 0.99182 0.29568 0.76588 0.0
C2858 C 1.00012 0.3033 0.77058 0.0
C2859 C 0.98201 0.29971 0.76016 0.0
C2860 C 0.97035 0.32528 0.74544 0.0
H2861 H 0.91698 0.31569 0.71816 0.0
H2862 H 0.9338 0.30979 0.72927 0.0
H2863 H 0.96146 0.33622 0.73359 0.0
H2864 H 1.00449 0.32122 0.77289 0.0
H2865 H 0.98728 0.32825 0.7631 0.0
H2866 H 0.95822 0.30285 0.75954 0.0
C2867 C 0.93214 0.31882 0.72846 0.0
C2868 C 0.96061 0.329 0.73932 0.0
C2869 C 0.92246 0.32221 0.72208 0.0
C2870 C 0.99827 0.31509 0.76947 0.0
C2871 C 0.98844 0.31912 0.76373 0.0
C2872 C 0.95909 0.3101 0.75385 0.0
C2873 C 0.9397 0.32695 0.73351 0.0
C2874 C 0.95001 0.32325 0.74031 0.0
C2875 C 0.98018 0.31149 0.75897 0.0
C2876 C 0.96974 0.31572 0.75273 0.0
H2877 H 0.92595 0.35101 0.72478 0.0
H2878 H 0.94288 0.34508 0.73586 0.0
H2879 H 0.94131 0.30929 0.74886 0.0
H2880 H 0.99283 0.28656 0.76667 0.0
H2881 H 0.97593 0.29356 0.75651 0.0
C2882 C 0.21136 0.42362 0.71816 0.0
C2883 C 0.20864 0.41485 0.72589 0.0
C2884 C 0.21622 0.43396 0.72202 0.0
C2885 C 0.23228 0.44723 0.74652 0.0
H2886 H 0.22312 0.47533 0.73158 0.0
C2887 C 0.25227 0.49148 0.75932 0.0
C2888 C 0.25594 0.49799 0.74997 0.0
C2889 C 0.24514 0.4818 0.75756 0.0
C2890 C 0.22579 0.46756 0.73584 0.0
H2891 H 0.20912 0.41009 0.74382 0.0
H2892 H 0.21744 0.42819 0.75058 0.0
H2893 H 0.21363 0.4574 0.72613 0.0
H2894 H 0.25461 0.49977 0.73154 0.0
H2895 H 0.24222 0.48316 0.72852 0.0
H2896 H 0.24459 0.45744 0.75609 0.0
C2897 C 0.21587 0.42704 0.74149 0.0
C2898 C 0.22038 0.45726 0.73267 0.0
C2899 C 0.21098 0.41669 0.73762 0.0
C2900 C 0.25194 0.49494 0.73894 0.0
C2901 C 0.24477 0.48542 0.7372 0.0
C2902 C 0.2377 0.45757 0.7497 0.0
C2903 C 0.21851 0.43584 0.73375 0.0
C2904 C 0.22371 0.44691 0.73779 0.0
C2905 C 0.24144 0.47858 0.74644 0.0
C2906 C 0.23469 0.46783 0.74422 0.0
H2907 H 0.20958 0.42258 0.70909 0.0
H2908 H 0.21828 0.44046 0.71578 0.0
H2909 H 0.23513 0.43943 0.7506 0.0
H2910 H 0.25528 0.49358 0.76791 0.0
H2911 H 0.24267 0.47674 0.76488 0.0
C2912 C 0.12033 0.32222 0.33418 0.0
C2913 C 0.12831 0.31476 0.33921 0.0
C2914 C 0.11032 0.318 0.32871 0.0
C2915 C 0.09106 0.29251 0.32634 0.0
H2916 H 0.08087 0.30736 0.29829 0.0
C2917 C 0.05288 0.27608 0.2967 0.0
C2918 C 0.04593 0.28457 0.29181 0.0
C2919 C 0.0628 0.27911 0.30318 0.0
C2920 C 0.08352 0.30318 0.30618 0.0
H2921 H 0.13184 0.29694 0.34259 0.0
H2922 H 0.11451 0.28957 0.33281 0.0
H2923 H 0.09846 0.31388 0.30799 0.0
H2924 H 0.04349 0.30284 0.29053 0.0
H2925 H 0.06051 0.30804 0.30186 0.0
H2926 H 0.07603 0.28176 0.32442 0.0
C2927 C 0.11595 0.29871 0.33319 0.0
C2928 C 0.09362 0.30694 0.31175 0.0
C2929 C 0.12597 0.30294 0.33868 0.0
C2930 C 0.04875 0.29607 0.29403 0.0
C2931 C 0.05856 0.29907 0.30048 0.0
C2932 C 0.08092 0.28872 0.32072 0.0
C2933 C 0.10802 0.30619 0.32809 0.0
C2934 C 0.09746 0.30177 0.32199 0.0
C2935 C 0.0659 0.29066 0.30486 0.0
C2936 C 0.07695 0.29413 0.31066 0.0
H2937 H 0.12186 0.33136 0.33433 0.0
H2938 H 0.10434 0.32403 0.32502 0.0
H2939 H 0.09373 0.28838 0.33424 0.0
H2940 H 0.05094 0.26715 0.29512 0.0
H2941 H 0.06828 0.27242 0.30645 0.0
C2942 C 0.21274 0.60724 0.32485 0.0
C2943 C 0.21278 0.6181 0.3197 0.0
C2944 C 0.21583 0.59761 0.31875 0.0
C2945 C 0.23247 0.58893 0.29401 0.0
H2946 H 0.21811 0.5595 0.29992 0.0
C2947 C 0.24959 0.54698 0.27516 0.0
C2948 C 0.2516 0.53863 0.28358 0.0
C2949 C 0.24289 0.55648 0.27752 0.0
C2950 C 0.2222 0.56766 0.29815 0.0
H2951 H 0.21597 0.62725 0.30396 0.0
H2952 H 0.22124 0.6104 0.29324 0.0
H2953 H 0.21024 0.57667 0.30801 0.0
H2954 H 0.24773 0.53329 0.30077 0.0
H2955 H 0.23591 0.54951 0.30477 0.0
H2956 H 0.24461 0.57983 0.28437 0.0
C2957 C 0.2189 0.60936 0.30207 0.0
C2958 C 0.21772 0.57751 0.30283 0.0
C2959 C 0.21577 0.61902 0.30818 0.0
C2960 C 0.24625 0.53956 0.29409 0.0
C2961 C 0.23945 0.54887 0.29637 0.0
C2962 C 0.23695 0.57906 0.28929 0.0
C2963 C 0.21906 0.59853 0.3073 0.0
C2964 C 0.22298 0.58825 0.3011 0.0
C2965 C 0.23793 0.55763 0.28827 0.0
C2966 C 0.23206 0.56826 0.29157 0.0
H2967 H 0.21035 0.60616 0.33365 0.0
H2968 H 0.21598 0.58946 0.32314 0.0
H2969 H 0.23682 0.59703 0.29255 0.0
H2970 H 0.25376 0.54655 0.26705 0.0
H2971 H 0.24184 0.56306 0.27107 0.0
C2972 C 0.91625 0.70965 0.3193 0.0
C2973 C 0.90883 0.70316 0.31209 0.0
C2974 C 0.92601 0.71506 0.31504 0.0
C2975 C 0.946 0.71498 0.29103 0.0
H2976 H 0.95392 0.74521 0.30235 0.0
C2977 C 0.98419 0.74369 0.27482 0.0
C2978 C 0.99042 0.74962 0.28346 0.0
C2979 C 0.97418 0.73744 0.27741 0.0
C2980 C 0.95189 0.73674 0.29915 0.0
H2981 H 0.90592 0.69738 0.29465 0.0
H2982 H 0.92297 0.70682 0.28723 0.0
H2983 H 0.93657 0.73565 0.30861 0.0
H2984 H 0.99143 0.75299 0.30168 0.0
H2985 H 0.97432 0.74214 0.30612 0.0
H2986 H 0.96146 0.71616 0.28159 0.0
C2987 C 0.92129 0.70759 0.29623 0.0
C2988 C 0.94194 0.73123 0.30276 0.0
C2989 C 0.91151 0.70218 0.3005 0.0
C2990 C 0.98676 0.7487 0.29476 0.0
C2991 C 0.97688 0.74251 0.29732 0.0
C2992 C 0.95602 0.72053 0.28738 0.0
C2993 C 0.92864 0.71417 0.30343 0.0
C2994 C 0.93894 0.7202 0.29894 0.0
C2995 C 0.97027 0.73705 0.28867 0.0
C2996 C 0.95919 0.73139 0.29159 0.0
H2997 H 0.91463 0.71042 0.32831 0.0
H2998 H 0.93158 0.71986 0.3209 0.0
H2999 H 0.94399 0.70647 0.28793 0.0
H3000 H 0.98678 0.74425 0.26603 0.0
H3001 H 0.96929 0.73328 0.27055 0.0
C3002 C 0.82628 0.41149 0.31898 0.0
C3003 C 0.8382 0.41062 0.32068 0.0
C3004 C 0.8216 0.42098 0.31336 0.0
C3005 C 0.82845 0.45086 0.30467 0.0
H3006 H 0.8037 0.44599 0.2823 0.0
C3007 C 0.8144 0.486 0.2727 0.0
C3008 C 0.8026 0.48729 0.27054 0.0
C3009 C 0.81849 0.47669 0.27904 0.0
C3010 C 0.81052 0.44752 0.28861 0.0
H3011 H 0.85448 0.41929 0.31814 0.0
H3012 H 0.84638 0.43566 0.3082 0.0
H3013 H 0.81112 0.42985 0.29325 0.0
H3014 H 0.78587 0.47958 0.27315 0.0
H3015 H 0.79297 0.46344 0.28429 0.0
H3016 H 0.82791 0.46851 0.29996 0.0
C3017 C 0.84062 0.42906 0.31125 0.0
C3018 C 0.81477 0.43826 0.29491 0.0
C3019 C 0.84528 0.41959 0.31685 0.0
C3020 C 0.795 0.47895 0.27476 0.0
C3021 C 0.79908 0.46962 0.28105 0.0
C3022 C 0.82421 0.4601 0.29836 0.0
C3023 C 0.82872 0.42986 0.30935 0.0
C3024 C 0.82385 0.43979 0.30298 0.0
C3025 C 0.81088 0.4684 0.28333 0.0
C3026 C 0.81524 0.45855 0.2902 0.0
H3027 H 0.82058 0.40471 0.32175 0.0
H3028 H 0.8124 0.42136 0.31216 0.0
H3029 H 0.8353 0.4524 0.31095 0.0
H3030 H 0.8205 0.49229 0.26969 0.0
H3031 H 0.82764 0.47596 0.2805 0.0
C3032 C 0.21072 0.62764 0.71156 0.0
C3033 C 0.21474 0.63528 0.70322 0.0
C3034 C 0.2171 0.61818 0.71496 0.0
C3035 C 0.24014 0.59931 0.70595 0.0
H3036 H 0.24219 0.59152 0.73815 0.0
C3037 C 0.26995 0.56392 0.72364 0.0
C3038 C 0.26583 0.55688 0.73242 0.0
C3039 C 0.26393 0.57355 0.72 0.0
C3040 C 0.24161 0.59347 0.72911 0.0
H3041 H 0.22871 0.63882 0.6919 0.0
H3042 H 0.23982 0.62224 0.69779 0.0
H3043 H 0.23134 0.60805 0.7319 0.0
H3044 H 0.25194 0.55441 0.74407 0.0
H3045 H 0.24143 0.5711 0.73771 0.0
H3046 H 0.25035 0.58467 0.70316 0.0
C3047 C 0.23165 0.62356 0.70163 0.0
C3048 C 0.23538 0.60298 0.72552 0.0
C3049 C 0.22527 0.63307 0.69825 0.0
C3050 C 0.2555 0.55972 0.73743 0.0
C3051 C 0.24946 0.56933 0.73377 0.0
C3052 C 0.24635 0.58977 0.70954 0.0
C3053 C 0.22768 0.61603 0.71009 0.0
C3054 C 0.23452 0.60601 0.71389 0.0
C3055 C 0.25359 0.5764 0.72502 0.0
C3056 C 0.24713 0.58668 0.72117 0.0
H3057 H 0.20254 0.6289 0.71541 0.0
H3058 H 0.21366 0.61245 0.72133 0.0
H3059 H 0.23955 0.60131 0.69692 0.0
H3060 H 0.27795 0.5621 0.71968 0.0
H3061 H 0.26748 0.57888 0.71336 0.0
C3062 C 0.21752 0.4103 0.34178 0.0
C3063 C 0.21304 0.40242 0.33371 0.0
C3064 C 0.22384 0.41992 0.33831 0.0
C3065 C 0.22879 0.4382 0.31292 0.0
H3066 H 0.25561 0.44889 0.33034 0.0
C3067 C 0.2588 0.47354 0.29576 0.0
C3068 C 0.26311 0.48185 0.30349 0.0
C3069 C 0.2529 0.46385 0.29964 0.0
C3070 C 0.24807 0.4461 0.32544 0.0
H3071 H 0.21209 0.39833 0.31566 0.0
H3072 H 0.22308 0.41502 0.30963 0.0
H3073 H 0.24502 0.43202 0.33675 0.0
H3074 H 0.26455 0.48636 0.32141 0.0
H3075 H 0.25424 0.46947 0.32818 0.0
H3076 H 0.2318 0.45225 0.30162 0.0
C3077 C 0.22151 0.41392 0.31864 0.0
C3078 C 0.24199 0.43641 0.32912 0.0
C3079 C 0.2152 0.40432 0.3221 0.0
C3080 C 0.26147 0.48011 0.31522 0.0
C3081 C 0.25555 0.4704 0.31911 0.0
C3082 C 0.23486 0.44787 0.30925 0.0
C3083 C 0.22585 0.4219 0.32668 0.0
C3084 C 0.23229 0.4323 0.32288 0.0
C3085 C 0.25113 0.46217 0.31136 0.0
C3086 C 0.24461 0.45193 0.31542 0.0
H3087 H 0.21591 0.40919 0.35078 0.0
H3088 H 0.22693 0.42594 0.34474 0.0
H3089 H 0.22124 0.43543 0.30802 0.0
H3090 H 0.26009 0.47444 0.2867 0.0
H3091 H 0.24983 0.4576 0.29344 0.0
C3092 C 0.12988 0.71376 0.32715 0.0
C3093 C 0.13095 0.70271 0.32271 0.0
C3094 C 0.12013 0.72018 0.32456 0.0
C3095 C 0.0899 0.71734 0.31373 0.0
H3096 H 0.09319 0.74976 0.30774 0.0
C3097 C 0.05298 0.74395 0.29404 0.0
C3098 C 0.05141 0.75495 0.29839 0.0
C3099 C 0.06258 0.73764 0.29738 0.0
C3100 C 0.09209 0.74074 0.30952 0.0
H3101 H 0.1224 0.68973 0.31221 0.0
H3102 H 0.10564 0.70098 0.30748 0.0
H3103 H 0.11005 0.7387 0.31287 0.0
H3104 H 0.05884 0.76793 0.30965 0.0
H3105 H 0.07551 0.75689 0.31554 0.0
H3106 H 0.07196 0.71937 0.31025 0.0
C3107 C 0.11226 0.70466 0.31307 0.0
C3108 C 0.10178 0.73439 0.31248 0.0
C3109 C 0.12198 0.69825 0.31567 0.0
C3110 C 0.05969 0.75946 0.30619 0.0
C3111 C 0.06933 0.75317 0.30948 0.0
C3112 C 0.08023 0.72368 0.31073 0.0
C3113 C 0.11119 0.71573 0.31746 0.0
C3114 C 0.10083 0.72258 0.31457 0.0
C3115 C 0.0709 0.74217 0.30512 0.0
C3116 C 0.08119 0.73546 0.30854 0.0
H3117 H 0.13664 0.71753 0.33251 0.0
H3118 H 0.11958 0.72861 0.32821 0.0
H3119 H 0.08878 0.70832 0.31548 0.0
H3120 H 0.04674 0.74014 0.28812 0.0
H3121 H 0.06355 0.72925 0.29375 0.0
C3122 C 0.8092 0.62137 0.33166 0.0
C3123 C 0.81907 0.62684 0.32748 0.0
C3124 C 0.80495 0.61117 0.32679 0.0
C3125 C 0.81396 0.58664 0.3099 0.0
H3126 H 0.78172 0.58239 0.30187 0.0
C3127 C 0.79863 0.55301 0.27754 0.0
C3128 C 0.78828 0.54692 0.27896 0.0
C3129 C 0.80187 0.56198 0.28477 0.0
C3130 C 0.79072 0.58334 0.30424 0.0
H3131 H 0.83198 0.62588 0.31463 0.0
H3132 H 0.82472 0.60807 0.30634 0.0
H3133 H 0.78834 0.59971 0.31188 0.0
H3134 H 0.77324 0.5455 0.28925 0.0
H3135 H 0.779 0.5613 0.30208 0.0
H3136 H 0.81643 0.57039 0.30227 0.0
C3137 C 0.82034 0.61161 0.31348 0.0
C3138 C 0.79452 0.59329 0.30995 0.0
C3139 C 0.82452 0.62184 0.31827 0.0
C3140 C 0.78128 0.54999 0.28795 0.0
C3141 C 0.78455 0.55908 0.29524 0.0
C3142 C 0.81018 0.57671 0.30429 0.0
C3143 C 0.81052 0.60612 0.3177 0.0
C3144 C 0.80623 0.59517 0.31258 0.0
C3145 C 0.79492 0.56518 0.29373 0.0
C3146 C 0.79855 0.57505 0.3011 0.0
H3147 H 0.80484 0.62484 0.33885 0.0
H3148 H 0.79743 0.60711 0.3303 0.0
H3149 H 0.823 0.58769 0.31204 0.0
H3150 H 0.80426 0.55095 0.27072 0.0
H3151 H 0.80978 0.56658 0.28315 0.0
C3152 C 0.91004 0.32413 0.32278 0.0
C3153 C 0.91127 0.32687 0.33443 0.0
C3154 C 0.91947 0.32079 0.31661 0.0
C3155 C 0.94888 0.30953 0.32047 0.0
H3156 H 0.95159 0.3189 0.28887 0.0
C3157 C 0.98238 0.29024 0.29119 0.0
C3158 C 0.9876 0.2974 0.28312 0.0
C3159 C 0.97332 0.2941 0.29758 0.0
C3160 C 0.95105 0.31629 0.29772 0.0
H3161 H 0.9235 0.32849 0.34866 0.0
H3162 H 0.93996 0.3228 0.33792 0.0
H3163 H 0.93552 0.32534 0.29971 0.0
H3164 H 0.98751 0.31435 0.27569 0.0
H3165 H 0.97182 0.32114 0.28692 0.0
H3166 H 0.96454 0.30069 0.31856 0.0
C3167 C 0.93165 0.32298 0.33357 0.0
C3168 C 0.94172 0.31986 0.30391 0.0
C3169 C 0.92221 0.32626 0.33975 0.0
C3170 C 0.9836 0.30857 0.28171 0.0
C3171 C 0.97457 0.31245 0.28815 0.0
C3172 C 0.95822 0.30597 0.31429 0.0
C3173 C 0.93042 0.32016 0.32192 0.0
C3174 C 0.94047 0.3165 0.31536 0.0
C3175 C 0.96925 0.30524 0.29613 0.0
C3176 C 0.95942 0.30926 0.30281 0.0
H3177 H 0.90172 0.32434 0.31845 0.0
H3178 H 0.91813 0.31851 0.30772 0.0
H3179 H 0.94817 0.30665 0.32922 0.0
H3180 H 0.98508 0.28153 0.29237 0.0
H3181 H 0.96933 0.28822 0.30348 0.0
C3182 C 0.83265 0.4148 0.73422 0.0
C3183 C 0.83816 0.41537 0.72372 0.0
C3184 C 0.82772 0.42446 0.73882 0.0
C3185 C 0.8284 0.45617 0.73719 0.0
H3186 H 0.80022 0.45313 0.75359 0.0
C3187 C 0.80216 0.49487 0.75176 0.0
C3188 C 0.79678 0.49404 0.76233 0.0
C3189 C 0.80792 0.48556 0.74737 0.0
C3190 C 0.80818 0.45412 0.74917 0.0
H3191 H 0.84266 0.42668 0.70979 0.0
H3192 H 0.8338 0.44347 0.71766 0.0
H3193 H 0.80831 0.4364 0.74493 0.0
H3194 H 0.79372 0.48285 0.77676 0.0
H3195 H 0.80381 0.4667 0.76915 0.0
H3196 H 0.82815 0.47396 0.74134 0.0
C3197 C 0.83346 0.43555 0.72245 0.0
C3198 C 0.81283 0.4445 0.74418 0.0
C3199 C 0.83841 0.42587 0.71784 0.0
C3200 C 0.79773 0.48382 0.7686 0.0
C3201 C 0.80343 0.4745 0.76418 0.0
C3202 C 0.82372 0.46581 0.74215 0.0
C3203 C 0.82811 0.43501 0.73305 0.0
C3204 C 0.82303 0.44536 0.73815 0.0
C3205 C 0.80839 0.47516 0.75339 0.0
C3206 C 0.81356 0.46491 0.74824 0.0
H3207 H 0.83214 0.40685 0.73894 0.0
H3208 H 0.8238 0.42369 0.74705 0.0
H3209 H 0.83636 0.45717 0.73277 0.0
H3210 H 0.8016 0.50259 0.74668 0.0
H3211 H 0.81158 0.48638 0.73902 0.0
C3212 C 0.12681 0.32754 0.71585 0.0
C3213 C 0.1353 0.32064 0.71141 0.0
C3214 C 0.11701 0.32265 0.72058 0.0
C3215 C 0.1055 0.29577 0.73304 0.0
H3216 H 0.07643 0.31065 0.7281 0.0
C3217 C 0.06333 0.27877 0.75303 0.0
C3218 C 0.0574 0.28724 0.75873 0.0
C3219 C 0.07223 0.28181 0.74573 0.0
C3220 C 0.08448 0.30638 0.72958 0.0
H3221 H 0.14016 0.30312 0.70872 0.0
H3222 H 0.12299 0.29462 0.7168 0.0
H3223 H 0.09333 0.31804 0.71869 0.0
H3224 H 0.05575 0.30549 0.76081 0.0
H3225 H 0.07097 0.31074 0.74809 0.0
H3226 H 0.09661 0.28421 0.7441 0.0
C3227 C 0.12394 0.30382 0.71668 0.0
C3228 C 0.09419 0.31066 0.72422 0.0
C3229 C 0.13375 0.30871 0.71193 0.0
C3230 C 0.06016 0.29875 0.75656 0.0
C3231 C 0.06887 0.30178 0.74921 0.0
C3232 C 0.09574 0.29147 0.7384 0.0
C3233 C 0.1154 0.31072 0.72102 0.0
C3234 C 0.1049 0.30558 0.72607 0.0
C3235 C 0.07518 0.29338 0.74385 0.0
C3236 C 0.08517 0.29688 0.73693 0.0
H3237 H 0.12763 0.33674 0.71551 0.0
H3238 H 0.11072 0.32825 0.72399 0.0
H3239 H 0.11359 0.29167 0.73473 0.0
H3240 H 0.06143 0.26983 0.7546 0.0
H3241 H 0.07689 0.27514 0.74167 0.0
C3242 C 0.91829 0.71807 0.70049 0.0
C3243 C 0.91152 0.72528 0.69357 0.0
C3244 C 0.9286 0.72205 0.70555 0.0
C3245 C 0.94429 0.74819 0.71473 0.0
H3246 H 0.97041 0.72832 0.71536 0.0
C3247 C 0.988 0.76096 0.73708 0.0
C3248 C 0.99271 0.75237 0.74409 0.0
C3249 C 0.97875 0.75843 0.72947 0.0
C3250 C 0.9632 0.73397 0.71531 0.0
H3251 H 0.91045 0.74241 0.68654 0.0
H3252 H 0.92835 0.74937 0.69555 0.0
H3253 H 0.95281 0.72238 0.70521 0.0
H3254 H 0.99164 0.73434 0.74832 0.0
H3255 H 0.97572 0.73001 0.73527 0.0
H3256 H 0.95463 0.75965 0.72512 0.0
C3257 C 0.92561 0.74064 0.69709 0.0
C3258 C 0.95309 0.73055 0.7095 0.0
C3259 C 0.91532 0.73664 0.69195 0.0
C3260 C 0.98824 0.74119 0.74307 0.0
C3261 C 0.97912 0.73867 0.73549 0.0
C3262 C 0.95442 0.7516 0.72062 0.0
C3263 C 0.93242 0.73337 0.7039 0.0
C3264 C 0.94343 0.7375 0.70933 0.0
C3265 C 0.97415 0.74724 0.72866 0.0
C3266 C 0.96392 0.74441 0.72119 0.0
H3267 H 0.91557 0.70935 0.70214 0.0
H3268 H 0.93352 0.71627 0.71093 0.0
H3269 H 0.937 0.75373 0.71481 0.0
H3270 H 0.99124 0.76966 0.73769 0.0
H3271 H 0.97517 0.76522 0.72428 0.0
C3272 C 0.71779 0.21168 0.61038 0.0
C3273 C 0.71825 0.21653 0.62135 0.0
C3274 C 0.72071 0.21813 0.6008 0.0
C3275 C 0.7376 0.2436 0.5923 0.0
H3276 H 0.72241 0.23794 0.56291 0.0
C3277 C 0.75409 0.26398 0.55041 0.0
C3278 C 0.75577 0.25582 0.54192 0.0
C3279 C 0.74754 0.26118 0.55994 0.0
C3280 C 0.72673 0.23965 0.57106 0.0
H3281 H 0.722 0.23212 0.63074 0.0
H3282 H 0.72696 0.24345 0.61396 0.0
H3283 H 0.71479 0.2292 0.58008 0.0
H3284 H 0.75145 0.23864 0.53635 0.0
H3285 H 0.73989 0.23388 0.55265 0.0
H3286 H 0.74971 0.25384 0.58319 0.0
C3287 C 0.72444 0.23458 0.61281 0.0
C3288 C 0.72239 0.2346 0.58091 0.0
C3289 C 0.72148 0.22812 0.62243 0.0
C3290 C 0.75023 0.24512 0.54274 0.0
C3291 C 0.74358 0.24241 0.55209 0.0
C3292 C 0.74193 0.2487 0.58243 0.0
C3293 C 0.72418 0.22965 0.60186 0.0
C3294 C 0.72795 0.23623 0.59163 0.0
C3295 C 0.74242 0.25025 0.56099 0.0
C3296 C 0.73673 0.24652 0.57165 0.0
H3297 H 0.71521 0.20284 0.60919 0.0
H3298 H 0.72054 0.21396 0.59256 0.0
H3299 H 0.74218 0.245 0.60038 0.0
H3300 H 0.7584 0.27223 0.55006 0.0
H3301 H 0.74676 0.26743 0.56663 0.0
C3302 C 0.32366 0.2207 0.63063 0.0
C3303 C 0.32328 0.20874 0.63147 0.0
C3304 C 0.31837 0.22625 0.62134 0.0
C3305 C 0.30742 0.22185 0.59163 0.0
H3306 H 0.29216 0.25028 0.59704 0.0
C3307 C 0.28513 0.24848 0.5553 0.0
C3308 C 0.28853 0.26004 0.5554 0.0
C3309 C 0.28788 0.24139 0.56466 0.0
C3310 C 0.29638 0.24235 0.59539 0.0
H3311 H 0.31723 0.19324 0.62302 0.0
H3312 H 0.30783 0.20294 0.60692 0.0
H3313 H 0.30012 0.23951 0.61315 0.0
H3314 H 0.29708 0.27332 0.56552 0.0
H3315 H 0.30172 0.26111 0.5817 0.0
H3316 H 0.30375 0.22484 0.5738 0.0
C3317 C 0.31228 0.20803 0.61342 0.0
C3318 C 0.30101 0.2362 0.60462 0.0
C3319 C 0.31758 0.20247 0.62272 0.0
C3320 C 0.29438 0.26444 0.56513 0.0
C3321 C 0.29697 0.25745 0.57447 0.0
C3322 C 0.30274 0.228 0.58237 0.0
C3323 C 0.31254 0.22 0.61265 0.0
C3324 C 0.30682 0.22601 0.60285 0.0
C3325 C 0.29388 0.24583 0.57433 0.0
C3326 C 0.2974 0.23845 0.58414 0.0
H3327 H 0.32787 0.22582 0.63725 0.0
H3328 H 0.31892 0.23548 0.62095 0.0
H3329 H 0.31189 0.21407 0.58994 0.0
H3330 H 0.28064 0.24486 0.54789 0.0
H3331 H 0.28536 0.23246 0.56433 0.0
C3332 C 0.31801 0.83125 0.62959 0.0
C3333 C 0.32959 0.83342 0.63265 0.0
C3334 C 0.31495 0.82485 0.61985 0.0
C3335 C 0.32609 0.81508 0.59228 0.0
H3336 H 0.30035 0.79376 0.59305 0.0
C3337 C 0.3145 0.7844 0.55469 0.0
C3338 C 0.30282 0.7827 0.55178 0.0
C3339 C 0.31795 0.79038 0.56459 0.0
C3340 C 0.30749 0.79976 0.59263 0.0
H3341 H 0.34701 0.83055 0.62771 0.0
H3342 H 0.34169 0.81923 0.61086 0.0
H3343 H 0.30602 0.80446 0.61016 0.0
H3344 H 0.28563 0.78587 0.55726 0.0
H3345 H 0.2916 0.79643 0.57433 0.0
H3346 H 0.32753 0.81039 0.57473 0.0
C3347 C 0.33496 0.82258 0.61595 0.0
C3348 C 0.31075 0.80591 0.60246 0.0
C3349 C 0.33802 0.82897 0.6257 0.0
C3350 C 0.29469 0.78711 0.5591 0.0
C3351 C 0.29813 0.79306 0.569 0.0
C3352 C 0.32283 0.80892 0.58244 0.0
C3353 C 0.32337 0.82044 0.61288 0.0
C3354 C 0.32006 0.8137 0.60243 0.0
C3355 C 0.30981 0.7948 0.57189 0.0
C3356 C 0.31345 0.80121 0.58245 0.0
H3357 H 0.31127 0.83441 0.63478 0.0
H3358 H 0.30595 0.8235 0.61772 0.0
H3359 H 0.3332 0.82111 0.59186 0.0
H3360 H 0.32102 0.78121 0.54924 0.0
H3361 H 0.32702 0.79143 0.56658 0.0
C3362 C 0.72501 0.84149 0.61976 0.0
C3363 C 0.71527 0.83587 0.62399 0.0
C3364 C 0.7303 0.83751 0.61004 0.0
C3365 C 0.73319 0.81203 0.59187 0.0
H3366 H 0.74316 0.83416 0.5694 0.0
C3367 C 0.74927 0.79861 0.54765 0.0
C3368 C 0.75827 0.80501 0.54293 0.0
C3369 C 0.74414 0.80217 0.55763 0.0
C3370 C 0.74059 0.82785 0.57564 0.0
H3371 H 0.70353 0.82152 0.62124 0.0
H3372 H 0.71282 0.81452 0.60431 0.0
H3373 H 0.73405 0.84062 0.58655 0.0
H3374 H 0.76911 0.82007 0.54526 0.0
H3375 H 0.7603 0.82623 0.56272 0.0
H3376 H 0.73979 0.79925 0.581 0.0
C3377 C 0.71641 0.82199 0.6086 0.0
C3378 C 0.73533 0.83157 0.58549 0.0
C3379 C 0.71108 0.82601 0.61832 0.0
C3380 C 0.76209 0.81502 0.54854 0.0
C3381 C 0.757 0.81856 0.55857 0.0
C3382 C 0.7385 0.8083 0.58203 0.0
C3383 C 0.72603 0.82775 0.60428 0.0
C3384 C 0.73157 0.82372 0.59375 0.0
C3385 C 0.7479 0.81223 0.56323 0.0
C3386 C 0.74228 0.81617 0.57377 0.0
H3387 H 0.72866 0.84895 0.62403 0.0
H3388 H 0.73783 0.84203 0.60711 0.0
H3389 H 0.73053 0.80575 0.59811 0.0
H3390 H 0.74597 0.79095 0.54348 0.0
H3391 H 0.73704 0.79716 0.56083 0.0
C3392 C 0.70783 0.81154 0.40526 0.0
C3393 C 0.70145 0.82151 0.40631 0.0
C3394 C 0.71165 0.80554 0.41498 0.0
C3395 C 0.707 0.80181 0.44603 0.0
H3396 H 0.73867 0.79259 0.44723 0.0
C3397 C 0.73153 0.79178 0.48834 0.0
C3398 C 0.74026 0.78369 0.48845 0.0
C3399 C 0.7257 0.79467 0.47816 0.0
C3400 C 0.72974 0.79488 0.44699 0.0
H3401 H 0.69373 0.83272 0.41842 0.0
H3402 H 0.70047 0.82234 0.43534 0.0
H3403 H 0.73059 0.80088 0.42974 0.0
H3404 H 0.74921 0.77181 0.47795 0.0
H3405 H 0.73887 0.77668 0.46021 0.0
H3406 H 0.70619 0.79596 0.46334 0.0
C3407 C 0.70249 0.81912 0.42701 0.0
C3408 C 0.72511 0.79967 0.43694 0.0
C3409 C 0.69873 0.82515 0.41731 0.0
C3410 C 0.74257 0.7781 0.4782 0.0
C3411 C 0.73671 0.78098 0.46799 0.0
C3412 C 0.71162 0.79697 0.45607 0.0
C3413 C 0.70912 0.80931 0.42599 0.0
C3414 C 0.71374 0.80337 0.43639 0.0
C3415 C 0.7284 0.78952 0.46778 0.0
C3416 C 0.72311 0.79362 0.45676 0.0
H3417 H 0.71015 0.80855 0.39693 0.0
H3418 H 0.71664 0.79797 0.41388 0.0
H3419 H 0.69815 0.80438 0.44584 0.0
H3420 H 0.72951 0.79628 0.49606 0.0
H3421 H 0.71945 0.80135 0.47835 0.0
C3422 C 0.71836 0.21972 0.40714 0.0
C3423 C 0.71598 0.20811 0.40489 0.0
C3424 C 0.72512 0.22304 0.41667 0.0
C3425 C 0.73547 0.2129 0.44515 0.0
H3426 H 0.75662 0.23864 0.44302 0.0
C3427 C 0.76613 0.22651 0.4829 0.0
C3428 C 0.76763 0.23828 0.4849 0.0
C3429 C 0.76022 0.22253 0.47305 0.0
C3430 C 0.75067 0.23151 0.44381 0.0
H3431 H 0.71901 0.19091 0.41098 0.0
H3432 H 0.73098 0.1967 0.42751 0.0
H3433 H 0.74581 0.23221 0.42605 0.0
H3434 H 0.7642 0.25506 0.47787 0.0
H3435 H 0.75379 0.24816 0.46088 0.0
H3436 H 0.74029 0.21224 0.46294 0.0
C3437 C 0.72748 0.20325 0.42195 0.0
C3438 C 0.74446 0.22781 0.43405 0.0
C3439 C 0.72072 0.19991 0.41238 0.0
C3440 C 0.76312 0.24595 0.47673 0.0
C3441 C 0.75725 0.24198 0.46688 0.0
C3442 C 0.74169 0.2166 0.45492 0.0
C3443 C 0.72973 0.21486 0.42425 0.0
C3444 C 0.7367 0.2185 0.43459 0.0
C3445 C 0.7557 0.23021 0.4649 0.0
C3446 C 0.74932 0.22602 0.45441 0.0
H3447 H 0.715 0.22628 0.4015 0.0
H3448 H 0.72655 0.23206 0.4182 0.0
H3449 H 0.72947 0.20581 0.44595 0.0
H3450 H 0.76938 0.22033 0.48902 0.0
H3451 H 0.75931 0.21341 0.47178 0.0
C3452 C 0.3474 0.22403 0.42356 0.0
C3453 C 0.33968 0.21867 0.41573 0.0
C3454 C 0.34348 0.22964 0.43315 0.0
C3455 C 0.31823 0.23181 0.4515 0.0
H3456 H 0.33306 0.26017 0.46119 0.0
C3457 C 0.29959 0.26052 0.48612 0.0
C3458 C 0.30729 0.26552 0.49421 0.0
C3459 C 0.30358 0.2548 0.47661 0.0
C3460 C 0.3289 0.2522 0.45868 0.0
H3461 H 0.32169 0.21498 0.41204 0.0
H3462 H 0.31484 0.22499 0.4286 0.0
H3463 H 0.33984 0.25025 0.44454 0.0
H3464 H 0.3253 0.26831 0.49856 0.0
H3465 H 0.33223 0.25839 0.48196 0.0
H3466 H 0.30724 0.23382 0.46561 0.0
C3467 C 0.32397 0.22473 0.42739 0.0
C3468 C 0.3328 0.24649 0.44912 0.0
C3469 C 0.3279 0.21909 0.4178 0.0
C3470 C 0.3191 0.2647 0.49247 0.0
C3471 C 0.32309 0.259 0.48293 0.0
C3472 C 0.31432 0.23754 0.46104 0.0
C3473 C 0.3317 0.23011 0.4352 0.0
C3474 C 0.32753 0.23621 0.44539 0.0
C3475 C 0.31538 0.25395 0.47489 0.0
C3476 C 0.3196 0.24782 0.46476 0.0
H3477 H 0.35652 0.22403 0.4222 0.0
H3478 H 0.34971 0.23355 0.43903 0.0
H3479 H 0.31407 0.22383 0.44902 0.0
H3480 H 0.29045 0.26115 0.487 0.0
H3481 H 0.29738 0.25119 0.4705 0.0
C3482 C 0.30312 0.83884 0.41325 0.0
C3483 C 0.3132 0.83524 0.40818 0.0
C3484 C 0.29943 0.83385 0.42344 0.0
C3485 C 0.31024 0.8179 0.44866 0.0
H3486 H 0.2786 0.80848 0.45242 0.0
C3487 C 0.29773 0.78622 0.48352 0.0
C3488 C 0.28752 0.78753 0.48938 0.0
C3489 C 0.30027 0.7931 0.47417 0.0
C3490 C 0.28743 0.81123 0.4516 0.0
H3491 H 0.32707 0.82325 0.40981 0.0
H3492 H 0.32077 0.81475 0.42759 0.0
H3493 H 0.28414 0.81834 0.4349 0.0
H3494 H 0.27194 0.79719 0.48991 0.0
H3495 H 0.27645 0.80939 0.47344 0.0
H3496 H 0.31361 0.81081 0.46524 0.0
C3497 C 0.31579 0.82154 0.42376 0.0
C3498 C 0.29061 0.81686 0.44154 0.0
C3499 C 0.31942 0.82645 0.41355 0.0
C3500 C 0.27989 0.79598 0.48561 0.0
C3501 C 0.28245 0.80292 0.47615 0.0
C3502 C 0.30707 0.81236 0.45869 0.0
C3503 C 0.30578 0.82521 0.42887 0.0
C3504 C 0.30211 0.82003 0.43985 0.0
C3505 C 0.29272 0.80157 0.47034 0.0
C3506 C 0.29568 0.80869 0.4602 0.0
H3507 H 0.29817 0.84568 0.40949 0.0
H3508 H 0.29174 0.83694 0.4272 0.0
H3509 H 0.31912 0.82046 0.44776 0.0
H3510 H 0.30382 0.77979 0.48609 0.0
H3511 H 0.30812 0.79161 0.4698 0.0
C3512 C 0.63302 0.22042 0.70429 0.0
C3513 C 0.64086 0.21225 0.70829 0.0
C3514 C 0.6236 0.22325 0.71071 0.0
C3515 C 0.60527 0.21278 0.73392 0.0
H3516 H 0.59677 0.24451 0.7356 0.0
C3517 C 0.56987 0.22808 0.76361 0.0
C3518 C 0.56249 0.23656 0.75936 0.0
C3519 C 0.57954 0.22507 0.75762 0.0
C3520 C 0.59892 0.23559 0.73512 0.0
H3521 H 0.64483 0.20065 0.72228 0.0
H3522 H 0.62835 0.20555 0.73345 0.0
H3523 H 0.6133 0.2393 0.72476 0.0
H3524 H 0.5595 0.24833 0.74529 0.0
H3525 H 0.57626 0.24307 0.73487 0.0
H3526 H 0.59083 0.20908 0.74423 0.0
C3527 C 0.62946 0.2097 0.72527 0.0
C3528 C 0.60843 0.2326 0.7289 0.0
C3529 C 0.63892 0.20688 0.71885 0.0
C3530 C 0.56506 0.24192 0.74895 0.0
C3531 C 0.5747 0.23889 0.74296 0.0
C3532 C 0.59573 0.21578 0.74013 0.0
C3533 C 0.62171 0.21798 0.72131 0.0
C3534 C 0.6117 0.22115 0.72816 0.0
C3535 C 0.5821 0.23043 0.74721 0.0
C3536 C 0.59239 0.22722 0.74078 0.0
H3537 H 0.63407 0.22456 0.6961 0.0
H3538 H 0.6177 0.22949 0.70727 0.0
H3539 H 0.60744 0.20387 0.73342 0.0
H3540 H 0.56827 0.22387 0.77166 0.0
H3541 H 0.58511 0.21864 0.76126 0.0
C3542 C 0.33198 0.12546 0.70751 0.0
C3543 C 0.33485 0.13403 0.71552 0.0
C3544 C 0.32541 0.1159 0.7106 0.0
C3545 C 0.3162 0.09923 0.73586 0.0
H3546 H 0.29352 0.08653 0.71437 0.0
C3547 C 0.28498 0.06258 0.74824 0.0
C3548 C 0.28324 0.05371 0.74028 0.0
C3549 C 0.29084 0.07264 0.74528 0.0
C3550 C 0.29989 0.08991 0.72044 0.0
H3551 H 0.33286 0.1393 0.73305 0.0
H3552 H 0.32135 0.12268 0.73843 0.0
H3553 H 0.30457 0.10351 0.70915 0.0
H3554 H 0.28634 0.04865 0.72286 0.0
H3555 H 0.29642 0.06616 0.7177 0.0
H3556 H 0.31148 0.08562 0.74714 0.0
C3557 C 0.32436 0.12324 0.72979 0.0
C3558 C 0.30625 0.09965 0.71744 0.0
C3559 C 0.33096 0.13279 0.72671 0.0
C3560 C 0.28734 0.0553 0.7292 0.0
C3561 C 0.29315 0.06537 0.72623 0.0
C3562 C 0.30981 0.08951 0.73887 0.0
C3563 C 0.3215 0.11465 0.72179 0.0
C3564 C 0.31454 0.10441 0.72508 0.0
C3565 C 0.29506 0.07414 0.73425 0.0
C3566 C 0.30161 0.08469 0.73117 0.0
H3567 H 0.33498 0.12605 0.69887 0.0
H3568 H 0.32357 0.10938 0.70425 0.0
H3569 H 0.32262 0.10253 0.7419 0.0
H3570 H 0.2818 0.06179 0.75679 0.0
H3571 H 0.292 0.07929 0.75162 0.0
C3572 C 0.41612 0.83571 0.72683 0.0
C3573 C 0.4138 0.83176 0.71565 0.0
C3574 C 0.42595 0.83231 0.733 0.0
C3575 C 0.45459 0.81974 0.72923 0.0
H3576 H 0.45278 0.8126 0.76149 0.0
C3577 C 0.49051 0.79615 0.7541 0.0
C3578 C 0.49354 0.7999 0.7652 0.0
C3579 C 0.48093 0.80047 0.74821 0.0
C3580 C 0.45347 0.81469 0.75252 0.0
H3581 H 0.42024 0.82126 0.70216 0.0
H3582 H 0.43712 0.81511 0.71297 0.0
H3583 H 0.43587 0.81935 0.75096 0.0
H3584 H 0.48871 0.81111 0.77882 0.0
H3585 H 0.47201 0.81872 0.76852 0.0
H3586 H 0.47215 0.81494 0.73076 0.0
C3587 C 0.43143 0.82096 0.71696 0.0
C3588 C 0.44377 0.81858 0.74647 0.0
C3589 C 0.42163 0.82437 0.7108 0.0
C3590 C 0.4867 0.8081 0.77026 0.0
C3591 C 0.47706 0.81238 0.76439 0.0
C3592 C 0.46427 0.81581 0.73526 0.0
C3593 C 0.43373 0.82487 0.72815 0.0
C3594 C 0.44417 0.82109 0.73472 0.0
C3595 C 0.47406 0.80863 0.75328 0.0
C3596 C 0.46382 0.81316 0.74697 0.0
H3597 H 0.41025 0.84132 0.7309 0.0
H3598 H 0.42749 0.8356 0.74154 0.0
H3599 H 0.45531 0.8218 0.72026 0.0
H3600 H 0.49563 0.78996 0.74987 0.0
H3601 H 0.47882 0.79731 0.73972 0.0
C3602 C 0.70893 0.90819 0.71591 0.0
C3603 C 0.69718 0.90734 0.713 0.0
C3604 C 0.71369 0.91828 0.72055 0.0
C3605 C 0.70561 0.94474 0.73542 0.0
H3606 H 0.73574 0.95557 0.72701 0.0
C3607 C 0.72359 0.98926 0.74871 0.0
C3608 C 0.73521 0.99015 0.75216 0.0
C3609 C 0.71904 0.97915 0.74395 0.0
C3610 C 0.72737 0.9526 0.72955 0.0
H3611 H 0.68133 0.91664 0.71231 0.0
H3612 H 0.6896 0.93419 0.72029 0.0
H3613 H 0.72773 0.93807 0.71856 0.0
H3614 H 0.75108 0.98085 0.75345 0.0
H3615 H 0.74317 0.9633 0.74513 0.0
H3616 H 0.70523 0.95928 0.74638 0.0
C3617 C 0.69512 0.92699 0.71925 0.0
C3618 C 0.72276 0.94255 0.7247 0.0
C3619 C 0.69036 0.9169 0.71465 0.0
C3620 C 0.74215 0.9806 0.75074 0.0
C3621 C 0.7376 0.9705 0.74595 0.0
C3622 C 0.7102 0.95479 0.74025 0.0
C3623 C 0.70683 0.9278 0.72235 0.0
C3624 C 0.71181 0.93849 0.72755 0.0
C3625 C 0.72599 0.96964 0.74248 0.0
C3626 C 0.72114 0.95888 0.73737 0.0
H3627 H 0.71442 0.90095 0.71489 0.0
H3628 H 0.72271 0.91852 0.72295 0.0
H3629 H 0.69725 0.94178 0.738 0.0
H3630 H 0.71801 0.99644 0.74949 0.0
H3631 H 0.7101 0.97886 0.74123 0.0
C3632 C 0.60829 0.83285 0.31726 0.0
C3633 C 0.6175 0.82535 0.31847 0.0
C3634 C 0.59816 0.82948 0.3114 0.0
C3635 C 0.58541 0.8073 0.29173 0.0
H3636 H 0.55724 0.81485 0.30628 0.0
C3637 C 0.54104 0.78967 0.27525 0.0
C3638 C 0.53446 0.78482 0.28393 0.0
C3639 C 0.55072 0.79653 0.27805 0.0
C3640 C 0.56502 0.81269 0.30207 0.0
H3641 H 0.62328 0.80847 0.31428 0.0
H3642 H 0.60564 0.80257 0.30418 0.0
H3643 H 0.57534 0.82278 0.31371 0.0
H3644 H 0.53248 0.78383 0.30225 0.0
H3645 H 0.54911 0.79573 0.30708 0.0
H3646 H 0.57505 0.79675 0.28044 0.0
C3647 C 0.60629 0.81114 0.30757 0.0
C3648 C 0.57542 0.81734 0.30627 0.0
C3649 C 0.61643 0.81452 0.3134 0.0
C3650 C 0.53739 0.78742 0.29536 0.0
C3651 C 0.54691 0.79433 0.29813 0.0
C3652 C 0.57498 0.80265 0.28752 0.0
C3653 C 0.59695 0.81852 0.30662 0.0
C3654 C 0.5858 0.81451 0.30133 0.0
C3655 C 0.55386 0.79878 0.28955 0.0
C3656 C 0.56468 0.80506 0.29283 0.0
H3657 H 0.60888 0.84132 0.32089 0.0
H3658 H 0.59124 0.83547 0.31068 0.0
H3659 H 0.5932 0.80507 0.28759 0.0
H3660 H 0.53903 0.78774 0.26637 0.0
H3661 H 0.55586 0.7999 0.27123 0.0
C3662 C 0.72227 0.12646 0.31412 0.0
C3663 C 0.71153 0.12662 0.31918 0.0
C3664 C 0.72564 0.11697 0.30796 0.0
C3665 C 0.7199 0.08594 0.30462 0.0
H3666 H 0.7398 0.08988 0.27899 0.0
C3667 C 0.7407 0.04756 0.28207 0.0
C3668 C 0.75264 0.04891 0.28156 0.0
C3669 C 0.73392 0.05693 0.28471 0.0
C3670 C 0.73421 0.08862 0.28611 0.0
H3671 H 0.69581 0.11687 0.32148 0.0
H3672 H 0.70162 0.10037 0.31054 0.0
H3673 H 0.73117 0.10649 0.28739 0.0
H3674 H 0.76678 0.06107 0.28284 0.0
H3675 H 0.75506 0.07733 0.28706 0.0
H3676 H 0.72316 0.06803 0.30341 0.0
C3677 C 0.70751 0.10757 0.31148 0.0
C3678 C 0.72931 0.09816 0.29098 0.0
C3679 C 0.70412 0.1171 0.31765 0.0
C3680 C 0.75759 0.05981 0.28313 0.0
C3681 C 0.75086 0.06914 0.28552 0.0
C3682 C 0.72476 0.07637 0.29969 0.0
C3683 C 0.71836 0.10734 0.30661 0.0
C3684 C 0.72235 0.09701 0.30053 0.0
C3685 C 0.73898 0.0678 0.28662 0.0
C3686 C 0.73224 0.07763 0.29058 0.0
H3687 H 0.72816 0.13368 0.31495 0.0
H3688 H 0.73412 0.1171 0.3045 0.0
H3689 H 0.71467 0.08469 0.312 0.0
H3690 H 0.7367 0.03921 0.28103 0.0
H3691 H 0.72478 0.05564 0.28547 0.0
C3692 C 0.4139 0.20714 0.3272 0.0
C3693 C 0.40734 0.19811 0.32232 0.0
C3694 C 0.42338 0.21173 0.32161 0.0
C3695 C 0.43667 0.21328 0.2931 0.0
H3696 H 0.46409 0.22171 0.31082 0.0
C3697 C 0.48016 0.22311 0.27239 0.0
C3698 C 0.48668 0.23243 0.27669 0.0
C3699 C 0.4703 0.21931 0.27785 0.0
C3700 C 0.45646 0.21951 0.30575 0.0
H3701 H 0.40555 0.18707 0.30753 0.0
H3702 H 0.42217 0.1948 0.29801 0.0
H3703 H 0.44728 0.21445 0.32054 0.0
H3704 H 0.48795 0.24497 0.29024 0.0
H3705 H 0.47074 0.23839 0.29973 0.0
H3706 H 0.44595 0.21818 0.27831 0.0
C3707 C 0.41994 0.19845 0.30609 0.0
C3708 C 0.44679 0.21537 0.31133 0.0
C3709 C 0.41047 0.19389 0.31166 0.0
C3710 C 0.48308 0.23786 0.2866 0.0
C3711 C 0.47327 0.234 0.29213 0.0
C3712 C 0.44636 0.21736 0.28753 0.0
C3713 C 0.42655 0.20743 0.31099 0.0
C3714 C 0.43677 0.21215 0.30508 0.0
C3715 C 0.46676 0.22468 0.28783 0.0
C3716 C 0.45639 0.22049 0.29378 0.0
H3717 H 0.41182 0.21056 0.33544 0.0
H3718 H 0.42817 0.21872 0.3256 0.0
H3719 H 0.42906 0.2111 0.288 0.0
H3720 H 0.48264 0.21879 0.26473 0.0
H3721 H 0.46554 0.21204 0.27437 0.0
C3722 C 0.32346 0.91092 0.30426 0.0
C3723 C 0.32515 0.9093 0.31612 0.0
C3724 C 0.31876 0.92101 0.29991 0.0
C3725 C 0.31362 0.95112 0.30782 0.0
H3726 H 0.29102 0.95007 0.28287 0.0
C3727 C 0.28232 0.98734 0.29863 0.0
C3728 C 0.27916 0.99016 0.28731 0.0
C3729 C 0.28941 0.97815 0.30106 0.0
C3730 C 0.29747 0.95055 0.2897 0.0
H3731 H 0.32321 0.91716 0.33265 0.0
H3732 H 0.31479 0.93458 0.3251 0.0
H3733 H 0.30012 0.93252 0.28936 0.0
H3734 H 0.28124 0.9857 0.26958 0.0
H3735 H 0.29368 0.96943 0.27385 0.0
H3736 H 0.31077 0.96908 0.30835 0.0
C3737 C 0.31725 0.92811 0.31914 0.0
C3738 C 0.30268 0.94047 0.29345 0.0
C3739 C 0.32194 0.91803 0.32349 0.0
C3740 C 0.2836 0.98378 0.27839 0.0
C3741 C 0.29062 0.97442 0.28084 0.0
C3742 C 0.3084 0.96116 0.30409 0.0
C3743 C 0.31564 0.92978 0.30729 0.0
C3744 C 0.31067 0.94059 0.30271 0.0
C3745 C 0.29348 0.97142 0.29224 0.0
C3746 C 0.30009 0.96098 0.29514 0.0
H3747 H 0.32572 0.90435 0.29832 0.0
H3748 H 0.31772 0.922 0.29074 0.0
H3749 H 0.31993 0.9516 0.31478 0.0
H3750 H 0.27906 0.99209 0.3057 0.0
H3751 H 0.2913 0.97604 0.30993 0.0
C3752 C 0.73303 0.12991 0.71205 0.0
C3753 C 0.72401 0.12975 0.7038 0.0
C3754 C 0.7385 0.11983 0.71533 0.0
C3755 C 0.74246 0.08957 0.70675 0.0
H3756 H 0.74974 0.0853 0.73899 0.0
C3757 C 0.75177 0.04544 0.72714 0.0
C3758 C 0.75975 0.04482 0.73636 0.0
C3759 C 0.74887 0.05597 0.72229 0.0
C3760 C 0.74795 0.0864 0.72992 0.0
H3761 H 0.71375 0.11879 0.6925 0.0
H3762 H 0.72319 0.10123 0.69825 0.0
H3763 H 0.74179 0.10325 0.73232 0.0
H3764 H 0.77137 0.05483 0.7473 0.0
H3765 H 0.76639 0.07318 0.73876 0.0
H3766 H 0.74842 0.07258 0.70443 0.0
C3767 C 0.7262 0.10917 0.70207 0.0
C3768 C 0.74337 0.09673 0.72608 0.0
C3769 C 0.72076 0.11926 0.69876 0.0
C3770 C 0.76518 0.05496 0.74022 0.0
C3771 C 0.76224 0.06551 0.73539 0.0
C3772 C 0.74702 0.07922 0.7106 0.0
C3773 C 0.73508 0.10929 0.71048 0.0
C3774 C 0.74046 0.09844 0.71445 0.0
C3775 C 0.75384 0.06618 0.72654 0.0
C3776 C 0.74974 0.07746 0.72226 0.0
H3777 H 0.7359 0.13785 0.71598 0.0
H3778 H 0.74543 0.12031 0.72167 0.0
H3779 H 0.74052 0.09062 0.69771 0.0
H3780 H 0.74741 0.03782 0.72394 0.0
H3781 H 0.74231 0.05613 0.71555 0.0
C3782 C 0.7123 0.90674 0.31395 0.0
C3783 C 0.70787 0.90502 0.32486 0.0
C3784 C 0.71907 0.91637 0.31158 0.0
C3785 C 0.72549 0.94573 0.32163 0.0
H3786 H 0.75153 0.94354 0.30212 0.0
C3787 C 0.75553 0.98447 0.31282 0.0
C3788 C 0.75902 0.98598 0.30151 0.0
C3789 C 0.74981 0.97443 0.31611 0.0
C3790 C 0.74422 0.94433 0.3075 0.0
H3791 H 0.70721 0.91212 0.34188 0.0
H3792 H 0.71919 0.92885 0.33781 0.0
H3793 H 0.7407 0.92634 0.3071 0.0
H3794 H 0.75946 0.9779 0.28492 0.0
H3795 H 0.74934 0.96056 0.29059 0.0
H3796 H 0.72895 0.96373 0.32195 0.0
C3797 C 0.71731 0.92278 0.33104 0.0
C3798 C 0.73801 0.93445 0.31036 0.0
C3799 C 0.71055 0.91312 0.33341 0.0
C3800 C 0.75679 0.97712 0.29365 0.0
C3801 C 0.75109 0.96709 0.29694 0.0
C3802 C 0.73171 0.95561 0.31877 0.0
C3803 C 0.72161 0.92457 0.32007 0.0
C3804 C 0.72851 0.93503 0.3174 0.0
C3805 C 0.74747 0.96563 0.3082 0.0
C3806 C 0.74111 0.95505 0.3116 0.0
H3807 H 0.71053 0.90061 0.30719 0.0
H3808 H 0.72214 0.91751 0.30302 0.0
H3809 H 0.71814 0.94653 0.32693 0.0
H3810 H 0.75701 0.99111 0.31909 0.0
H3811 H 0.74726 0.97356 0.32488 0.0
C3812 C 0.61529 0.20396 0.328 0.0
C3813 C 0.62609 0.20789 0.32456 0.0
C3814 C 0.60535 0.20975 0.32474 0.0
C3815 C 0.59463 0.23736 0.31297 0.0
H3816 H 0.56787 0.21881 0.30467 0.0
C3817 C 0.55372 0.25485 0.28944 0.0
C3818 C 0.54308 0.25012 0.2925 0.0
C3819 C 0.56397 0.25063 0.29422 0.0
C3820 C 0.5752 0.22415 0.3071 0.0
H3821 H 0.63485 0.22115 0.31505 0.0
H3822 H 0.6175 0.23121 0.30925 0.0
H3823 H 0.58539 0.20965 0.31111 0.0
H3824 H 0.53494 0.23769 0.30353 0.0
H3825 H 0.5527 0.23047 0.31189 0.0
H3826 H 0.58437 0.25186 0.30871 0.0
C3827 C 0.61672 0.22372 0.31464 0.0
C3828 C 0.58529 0.21888 0.31082 0.0
C3829 C 0.6267 0.21794 0.31796 0.0
C3830 C 0.54295 0.2415 0.30089 0.0
C3831 C 0.55316 0.23728 0.30563 0.0
C3832 C 0.58451 0.24264 0.30919 0.0
C3833 C 0.60589 0.21963 0.31787 0.0
C3834 C 0.59515 0.22539 0.31387 0.0
C3835 C 0.56382 0.24156 0.30214 0.0
C3836 C 0.57464 0.23609 0.30626 0.0
H3837 H 0.61451 0.19639 0.33327 0.0
H3838 H 0.59722 0.20647 0.32763 0.0
H3839 H 0.60199 0.24267 0.31534 0.0
H3840 H 0.55417 0.26147 0.28298 0.0
H3841 H 0.57202 0.25411 0.2913 0.0
C3842 C 0.30361 0.12409 0.34481 0.0
C3843 C 0.31479 0.12726 0.34181 0.0
C3844 C 0.29801 0.11463 0.33978 0.0
C3845 C 0.30339 0.0879 0.32415 0.0
H3846 H 0.27081 0.08895 0.31702 0.0
C3847 C 0.27879 0.05161 0.2997 0.0
C3848 C 0.26799 0.04835 0.30372 0.0
C3849 C 0.28458 0.06133 0.30399 0.0
C3850 C 0.27989 0.08847 0.31906 0.0
H3851 H 0.32882 0.12286 0.3311 0.0
H3852 H 0.31896 0.10653 0.32213 0.0
H3853 H 0.28074 0.10571 0.32497 0.0
H3854 H 0.25477 0.05292 0.31534 0.0
H3855 H 0.26489 0.06976 0.32289 0.0
H3856 H 0.30251 0.07064 0.3182 0.0
C3857 C 0.31457 0.11129 0.32851 0.0
C3858 C 0.2856 0.09809 0.32363 0.0
C3859 C 0.32018 0.12075 0.33356 0.0
C3860 C 0.26311 0.0551 0.31211 0.0
C3861 C 0.26886 0.06484 0.31636 0.0
C3862 C 0.29768 0.07828 0.31953 0.0
C3863 C 0.30341 0.10808 0.33157 0.0
C3864 C 0.29742 0.09792 0.32632 0.0
C3865 C 0.27968 0.06808 0.31238 0.0
C3866 C 0.28584 0.07841 0.317 0.0
H3867 H 0.2991 0.12897 0.35101 0.0
H3868 H 0.28948 0.11238 0.34247 0.0
H3869 H 0.31245 0.08738 0.32625 0.0
H3870 H 0.28287 0.04657 0.29334 0.0
H3871 H 0.29285 0.06361 0.30066 0.0
C3872 C 0.40501 0.82311 0.32537 0.0
C3873 C 0.39845 0.81754 0.33367 0.0
C3874 C 0.41427 0.81769 0.32055 0.0
C3875 C 0.42656 0.78903 0.31631 0.0
H3876 H 0.45469 0.80614 0.31141 0.0
C3877 C 0.46881 0.76698 0.30597 0.0
C3878 C 0.47586 0.77216 0.29784 0.0
C3879 C 0.45924 0.77257 0.30991 0.0
C3880 C 0.44686 0.80126 0.31259 0.0
H3881 H 0.3964 0.80172 0.34313 0.0
H3882 H 0.41261 0.79241 0.33495 0.0
H3883 H 0.43825 0.81578 0.31891 0.0
H3884 H 0.47833 0.78743 0.28761 0.0
H3885 H 0.46158 0.79709 0.29436 0.0
H3886 H 0.43519 0.77449 0.31007 0.0
C3887 C 0.41056 0.80094 0.33208 0.0
C3888 C 0.43741 0.8068 0.31689 0.0
C3889 C 0.40133 0.80635 0.3369 0.0
C3890 C 0.47306 0.7831 0.29377 0.0
C3891 C 0.46351 0.78871 0.29774 0.0
C3892 C 0.436 0.78349 0.31203 0.0
C3893 C 0.41719 0.80653 0.32386 0.0
C3894 C 0.42715 0.80074 0.31888 0.0
C3895 C 0.45646 0.78353 0.30587 0.0
C3896 C 0.44631 0.78951 0.31017 0.0
H3897 H 0.4031 0.83175 0.32273 0.0
H3898 H 0.4191 0.82222 0.31416 0.0
H3899 H 0.41875 0.78412 0.31752 0.0
H3900 H 0.47061 0.75853 0.30923 0.0
H3901 H 0.4541 0.76836 0.31627 0.0
C3902 C 0.33027 0.91342 0.7358 0.0
C3903 C 0.33516 0.91411 0.72499 0.0
C3904 C 0.3258 0.92307 0.74089 0.0
C3905 C 0.31506 0.95202 0.73459 0.0
H3906 H 0.32086 0.95671 0.76703 0.0
C3907 C 0.30079 0.99302 0.75687 0.0
C3908 C 0.29578 0.99168 0.76757 0.0
C3909 C 0.30647 0.98399 0.75188 0.0
C3910 C 0.31906 0.9555 0.75798 0.0
H3911 H 0.33905 0.92563 0.71103 0.0
H3912 H 0.33116 0.94245 0.71987 0.0
H3913 H 0.32861 0.9401 0.75776 0.0
H3914 H 0.29325 0.97985 0.7816 0.0
H3915 H 0.30305 0.96411 0.77289 0.0
H3916 H 0.30539 0.96733 0.73481 0.0
C3917 C 0.33072 0.93438 0.72438 0.0
C3918 C 0.32351 0.94595 0.75266 0.0
C3919 C 0.33523 0.92471 0.71929 0.0
C3920 C 0.29704 0.98123 0.77337 0.0
C3921 C 0.3027 0.97218 0.76837 0.0
C3922 C 0.31058 0.96156 0.73991 0.0
C3923 C 0.32605 0.93371 0.7353 0.0
C3924 C 0.32151 0.94404 0.7409 0.0
C3925 C 0.30729 0.97335 0.75745 0.0
C3926 C 0.31247 0.96341 0.7517 0.0
H3927 H 0.32984 0.90537 0.74036 0.0
H3928 H 0.32205 0.92216 0.74919 0.0
H3929 H 0.31322 0.95077 0.72555 0.0
H3930 H 0.30005 1.00096 0.75216 0.0
H3931 H 0.3101 0.98531 0.74358 0.0
C3932 C 0.62439 0.80173 0.70209 0.0
C3933 C 0.62605 0.81361 0.70097 0.0
C3934 C 0.61471 0.7972 0.70739 0.0
C3935 C 0.58536 0.80482 0.71566 0.0
H3936 H 0.5882 0.77925 0.73661 0.0
C3937 C 0.55223 0.79464 0.74951 0.0
C3938 C 0.54947 0.78325 0.75221 0.0
C3939 C 0.56076 0.79729 0.74181 0.0
C3940 C 0.58721 0.78626 0.73063 0.0
H3941 H 0.6187 0.82999 0.70455 0.0
H3942 H 0.60203 0.82215 0.71398 0.0
H3943 H 0.60489 0.78604 0.72634 0.0
H3944 H 0.55331 0.76565 0.74871 0.0
H3945 H 0.56842 0.7703 0.73518 0.0
H3946 H 0.56777 0.80523 0.72016 0.0
C3947 C 0.60812 0.8163 0.71063 0.0
C3948 C 0.5968 0.79018 0.72475 0.0
C3949 C 0.61779 0.82082 0.70535 0.0
C3950 C 0.5552 0.7745 0.74673 0.0
C3951 C 0.56391 0.77717 0.73908 0.0
C3952 C 0.57581 0.80093 0.72155 0.0
C3953 C 0.60641 0.80442 0.71169 0.0
C3954 C 0.59605 0.79967 0.71735 0.0
C3955 C 0.56687 0.78863 0.73664 0.0
C3956 C 0.57666 0.79174 0.72928 0.0
H3957 H 0.63061 0.7959 0.69895 0.0
H3958 H 0.61366 0.78802 0.70798 0.0
H3959 H 0.58437 0.81196 0.70983 0.0
H3960 H 0.54797 0.80159 0.75358 0.0
H3961 H 0.56287 0.80619 0.74027 0.0
C3962 C 0.41925 0.23442 0.70711 0.0
C3963 C 0.41756 0.2227 0.70493 0.0
C3964 C 0.42974 0.23863 0.71161 0.0
C3965 C 0.46039 0.23115 0.71507 0.0
H3966 H 0.46123 0.25406 0.73886 0.0
C3967 C 0.49967 0.23894 0.74486 0.0
C3968 C 0.50249 0.25004 0.7486 0.0
C3969 C 0.48984 0.23679 0.73809 0.0
C3970 C 0.46116 0.24781 0.73207 0.0
H3971 H 0.42569 0.20624 0.7058 0.0
H3972 H 0.44385 0.21352 0.71385 0.0
H3973 H 0.44286 0.24782 0.73027 0.0
H3974 H 0.49738 0.26769 0.74786 0.0
H3975 H 0.48004 0.26391 0.73594 0.0
H3976 H 0.47865 0.23095 0.71704 0.0
C3977 C 0.43711 0.2195 0.71194 0.0
C3978 C 0.45062 0.24421 0.72716 0.0
C3979 C 0.42662 0.2153 0.70746 0.0
C3980 C 0.49546 0.25906 0.74504 0.0
C3981 C 0.48549 0.25687 0.73832 0.0
C3982 C 0.4709 0.23474 0.71998 0.0
C3983 C 0.43884 0.23123 0.71402 0.0
C3984 C 0.45008 0.23567 0.71874 0.0
C3985 C 0.48248 0.24566 0.73491 0.0
C3986 C 0.47142 0.24296 0.7287 0.0
H3987 H 0.41243 0.24037 0.70539 0.0
H3988 H 0.43077 0.24772 0.71303 0.0
H3989 H 0.46034 0.22476 0.70842 0.0
H3990 H 0.50491 0.2318 0.74746 0.0
H3991 H 0.48776 0.22805 0.73576 0.0
C3992 C 0.71612 0.7139 0.11738 0.0
C3993 C 0.70662 0.71725 0.12355 0.0
C3994 C 0.7196 0.72012 0.10784 0.0
C3995 C 0.70965 0.74073 0.08587 0.0
H3996 H 0.74213 0.74624 0.08216 0.0
C3997 C 0.72725 0.77011 0.05011 0.0
C3998 C 0.73722 0.76667 0.04478 0.0
C3999 C 0.72331 0.7643 0.05976 0.0
C4000 C 0.73303 0.74467 0.08297 0.0
H4001 H 0.69331 0.72982 0.12439 0.0
H4002 H 0.69934 0.74063 0.10765 0.0
H4003 H 0.73561 0.73572 0.09879 0.0
H4004 H 0.75065 0.75417 0.0453 0.0
H4005 H 0.74379 0.74405 0.06198 0.0
H4006 H 0.70708 0.7496 0.06998 0.0
C4007 C 0.70405 0.73312 0.11019 0.0
C4008 C 0.72929 0.73864 0.09253 0.0
C4009 C 0.70059 0.72691 0.11979 0.0
C4010 C 0.74308 0.75721 0.04929 0.0
C4011 C 0.73913 0.7514 0.05889 0.0
C4012 C 0.71339 0.74674 0.07627 0.0
C4013 C 0.71366 0.72984 0.10415 0.0
C4014 C 0.71755 0.73653 0.09408 0.0
C4015 C 0.72922 0.75489 0.0643 0.0
C4016 C 0.72515 0.74873 0.07465 0.0
H4017 H 0.72083 0.70638 0.11985 0.0
H4018 H 0.72689 0.71721 0.10326 0.0
H4019 H 0.70056 0.73915 0.08672 0.0
H4020 H 0.72259 0.77742 0.04696 0.0
H4021 H 0.71573 0.76734 0.06377 0.0
C4022 C 0.30514 0.69889 0.11373 0.0
C4023 C 0.31555 0.70266 0.11896 0.0
C4024 C 0.30105 0.70384 0.1035 0.0
C4025 C 0.31091 0.72007 0.07847 0.0
H4026 H 0.27936 0.72936 0.07458 0.0
C4027 C 0.2975 0.75272 0.04452 0.0
C4028 C 0.28684 0.7517 0.03867 0.0
C4029 C 0.30041 0.7454 0.0535 0.0
C4030 C 0.28814 0.72663 0.07543 0.0
H4031 H 0.3296 0.71491 0.11755 0.0
H4032 H 0.3226 0.72333 0.0997 0.0
H4033 H 0.28554 0.71928 0.092 0.0
H4034 H 0.27088 0.74201 0.03768 0.0
H4035 H 0.27602 0.72902 0.05352 0.0
H4036 H 0.3136 0.72743 0.06202 0.0
C4037 C 0.31766 0.71643 0.10344 0.0
C4038 C 0.29169 0.72089 0.08544 0.0
C4039 C 0.3217 0.71157 0.11369 0.0
C4040 C 0.27917 0.74299 0.04198 0.0
C4041 C 0.28209 0.73562 0.05109 0.0
C4042 C 0.30736 0.72572 0.06848 0.0
C4043 C 0.30731 0.71261 0.09819 0.0
C4044 C 0.30319 0.71779 0.08719 0.0
C4045 C 0.29277 0.73676 0.05698 0.0
C4046 C 0.29601 0.72936 0.06694 0.0
H4047 H 0.30022 0.69195 0.1174 0.0
H4048 H 0.29309 0.70063 0.09963 0.0
H4049 H 0.31976 0.71757 0.07942 0.0
H4050 H 0.30365 0.75931 0.04225 0.0
H4051 H 0.3086 0.74672 0.05793 0.0
C4052 C 0.33329 0.33355 0.12088 0.0
C4053 C 0.33492 0.32779 0.13135 0.0
C4054 C 0.3305 0.32754 0.11086 0.0
C4055 C 0.31756 0.30038 0.10044 0.0
H4056 H 0.32885 0.31121 0.07149 0.0
C4057 C 0.30171 0.28117 0.05673 0.0
C4058 C 0.29794 0.28956 0.04896 0.0
C4059 C 0.30816 0.28428 0.06662 0.0
C4060 C 0.32564 0.30805 0.07951 0.0
H4061 H 0.33501 0.3111 0.1394 0.0
H4062 H 0.33024 0.30057 0.12183 0.0
H4063 H 0.33644 0.31958 0.08924 0.0
H4064 H 0.29842 0.30765 0.04511 0.0
H4065 H 0.30976 0.31301 0.06204 0.0
H4066 H 0.30656 0.28902 0.0906 0.0
C4067 C 0.33104 0.30978 0.12142 0.0
C4068 C 0.32995 0.31289 0.0897 0.0
C4069 C 0.33388 0.31581 0.13148 0.0
C4070 C 0.3012 0.30099 0.05094 0.0
C4071 C 0.30776 0.30406 0.06064 0.0
C4072 C 0.31326 0.29551 0.09022 0.0
C4073 C 0.32926 0.31558 0.11098 0.0
C4074 C 0.32573 0.30937 0.10029 0.0
C4075 C 0.31113 0.29581 0.06874 0.0
C4076 C 0.31702 0.29953 0.07962 0.0
H4077 H 0.33416 0.34275 0.12042 0.0
H4078 H 0.32904 0.33234 0.10305 0.0
H4079 H 0.31405 0.29749 0.10842 0.0
H4080 H 0.29922 0.27231 0.05547 0.0
H4081 H 0.31066 0.27772 0.07269 0.0
C4082 C 0.71306 0.33273 0.11993 0.0
C4083 C 0.71991 0.33296 0.13003 0.0
C4084 C 0.71666 0.32706 0.11022 0.0
C4085 C 0.7426 0.31554 0.09707 0.0
H4086 H 0.72032 0.29908 0.07791 0.0
C4087 C 0.75431 0.2962 0.05356 0.0
C4088 C 0.74932 0.28558 0.05054 0.0
C4089 C 0.75074 0.30207 0.06318 0.0
C4090 C 0.72669 0.30355 0.0832 0.0
H4091 H 0.73584 0.32719 0.13784 0.0
H4092 H 0.74204 0.3172 0.12098 0.0
H4093 H 0.71413 0.30879 0.09489 0.0
H4094 H 0.73681 0.27273 0.05549 0.0
H4095 H 0.73069 0.28286 0.07223 0.0
H4096 H 0.75521 0.31001 0.08556 0.0
C4097 C 0.734 0.32161 0.12047 0.0
C4098 C 0.72311 0.30926 0.09289 0.0
C4099 C 0.73042 0.32733 0.13016 0.0
C4100 C 0.74071 0.28097 0.05741 0.0
C4101 C 0.73719 0.28681 0.06704 0.0
C4102 C 0.7462 0.30979 0.0874 0.0
C4103 C 0.72718 0.32142 0.11034 0.0
C4104 C 0.73101 0.31534 0.09997 0.0
C4105 C 0.74212 0.29746 0.07006 0.0
C4106 C 0.73829 0.30369 0.08033 0.0
H4107 H 0.70499 0.33712 0.11947 0.0
H4108 H 0.71125 0.32728 0.10254 0.0
H4109 H 0.74893 0.32023 0.10222 0.0
H4110 H 0.76085 0.30008 0.0484 0.0
H4111 H 0.75463 0.31032 0.06511 0.0
C4112 C 0.72326 0.33864 0.92122 0.0
C4113 C 0.72039 0.3321 0.91147 0.0
C4114 C 0.72782 0.33353 0.93114 0.0
C4115 C 0.74298 0.30772 0.94125 0.0
H4116 H 0.73471 0.31832 0.97113 0.0
C4117 C 0.75872 0.28568 0.98319 0.0
C4118 C 0.76216 0.2928 0.99236 0.0
C4119 C 0.7533 0.2902 0.97337 0.0
C4120 C 0.73721 0.31533 0.96286 0.0
H4121 H 0.71999 0.31494 0.90462 0.0
H4122 H 0.72775 0.30598 0.92199 0.0
H4123 H 0.72565 0.32653 0.95405 0.0
H4124 H 0.76257 0.31027 0.99836 0.0
H4125 H 0.7532 0.31814 0.98125 0.0
H4126 H 0.75456 0.29654 0.95009 0.0
C4127 C 0.7266 0.31512 0.92191 0.0
C4128 C 0.732 0.32004 0.95304 0.0
C4129 C 0.72202 0.32025 0.91198 0.0
C4130 C 0.76002 0.30453 0.99148 0.0
C4131 C 0.75457 0.30904 0.98168 0.0
C4132 C 0.74817 0.30299 0.95108 0.0
C4133 C 0.72963 0.32171 0.93161 0.0
C4134 C 0.73487 0.31636 0.94209 0.0
C4135 C 0.75115 0.30194 0.97249 0.0
C4136 C 0.74541 0.30678 0.96202 0.0
H4137 H 0.72198 0.34777 0.92121 0.0
H4138 H 0.73014 0.33891 0.93837 0.0
H4139 H 0.74554 0.30478 0.93298 0.0
H4140 H 0.76021 0.2766 0.98356 0.0
H4141 H 0.75067 0.28445 0.96653 0.0
C4142 C 0.73064 0.70434 0.91856 0.0
C4143 C 0.729 0.71115 0.90874 0.0
C4144 C 0.73665 0.70865 0.92822 0.0
C4145 C 0.75633 0.73246 0.93781 0.0
H4146 H 0.74295 0.72744 0.96733 0.0
C4147 C 0.76102 0.76418 0.97466 0.0
C4148 C 0.76225 0.76025 0.98596 0.0
C4149 C 0.75954 0.75653 0.96564 0.0
C4150 C 0.74695 0.72874 0.9592 0.0
H4151 H 0.73284 0.72768 0.90126 0.0
H4152 H 0.74303 0.73524 0.91805 0.0
H4153 H 0.73524 0.71709 0.95065 0.0
H4154 H 0.76318 0.74524 0.99673 0.0
H4155 H 0.76032 0.73167 0.98083 0.0
H4156 H 0.76766 0.74452 0.94628 0.0
C4157 C 0.73979 0.72653 0.91832 0.0
C4158 C 0.74252 0.72281 0.94961 0.0
C4159 C 0.7338 0.72224 0.90871 0.0
C4160 C 0.76239 0.74846 0.98806 0.0
C4161 C 0.76066 0.74073 0.97899 0.0
C4162 C 0.76069 0.73842 0.94736 0.0
C4163 C 0.74121 0.71985 0.92826 0.0
C4164 C 0.74693 0.72486 0.93872 0.0
C4165 C 0.75903 0.74472 0.9677 0.0
C4166 C 0.75584 0.73688 0.9581 0.0
H4167 H 0.72701 0.69578 0.91891 0.0
H4168 H 0.73766 0.70322 0.93568 0.0
H4169 H 0.76014 0.73405 0.92964 0.0
H4170 H 0.76085 0.77325 0.97283 0.0
H4171 H 0.7582 0.7599 0.95708 0.0
C4172 C 0.34876 0.7252 0.9112 0.0
C4173 C 0.34196 0.7207 0.9021 0.0
C4174 C 0.34376 0.73017 0.9206 0.0
C4175 C 0.31658 0.73191 0.93601 0.0
H4176 H 0.33072 0.75953 0.94847 0.0
C4177 C 0.29552 0.75867 0.97103 0.0
C4178 C 0.30278 0.76334 0.9797 0.0
C4179 C 0.30005 0.7534 0.9615 0.0
C4180 C 0.32672 0.75175 0.9452 0.0
H4181 H 0.32447 0.71785 0.89591 0.0
H4182 H 0.31572 0.72652 0.91234 0.0
H4183 H 0.339 0.75039 0.93213 0.0
H4184 H 0.32056 0.76584 0.98515 0.0
H4185 H 0.32841 0.75669 0.96862 0.0
H4186 H 0.3043 0.73329 0.94912 0.0
C4187 C 0.32496 0.7261 0.91223 0.0
C4188 C 0.33148 0.74649 0.93581 0.0
C4189 C 0.32998 0.72111 0.9028 0.0
C4190 C 0.31469 0.76255 0.97858 0.0
C4191 C 0.31921 0.75729 0.96907 0.0
C4192 C 0.31182 0.73717 0.94543 0.0
C4193 C 0.33179 0.7308 0.92121 0.0
C4194 C 0.32652 0.73646 0.93111 0.0
C4195 C 0.31197 0.75266 0.96037 0.0
C4196 C 0.31686 0.74714 0.95019 0.0
H4197 H 0.35801 0.72483 0.91109 0.0
H4198 H 0.34929 0.73347 0.92745 0.0
H4199 H 0.3126 0.72413 0.93272 0.0
H4200 H 0.28633 0.75924 0.9715 0.0
H4201 H 0.29421 0.75008 0.95492 0.0
C4202 C 0.33467 0.3322 0.91494 0.0
C4203 C 0.3284 0.33945 0.90758 0.0
C4204 C 0.32974 0.32758 0.92473 0.0
C4205 C 0.3016 0.32172 0.93777 0.0
H4206 H 0.31967 0.32013 0.96604 0.0
C4207 C 0.28117 0.31207 0.98116 0.0
C4208 C 0.28698 0.30472 0.98878 0.0
C4209 C 0.28633 0.31601 0.97123 0.0
C4210 C 0.31453 0.32039 0.95819 0.0
H4211 H 0.31188 0.34727 0.90469 0.0
H4212 H 0.30343 0.33948 0.92183 0.0
H4213 H 0.32844 0.32737 0.94877 0.0
H4214 H 0.30293 0.29593 0.99194 0.0
H4215 H 0.31188 0.3027 0.97458 0.0
H4216 H 0.28766 0.31483 0.94721 0.0
C4217 C 0.31213 0.33725 0.92 0.0
C4218 C 0.31957 0.32454 0.94826 0.0
C4219 C 0.31704 0.34186 0.91022 0.0
C4220 C 0.29814 0.30148 0.98623 0.0
C4221 C 0.30332 0.30546 0.97632 0.0
C4222 C 0.29655 0.31761 0.94769 0.0
C4223 C 0.31841 0.33007 0.92741 0.0
C4224 C 0.31316 0.32532 0.93792 0.0
C4225 C 0.29747 0.31275 0.96867 0.0
C4226 C 0.30293 0.31694 0.95805 0.0
H4227 H 0.34345 0.33022 0.91323 0.0
H4228 H 0.3348 0.32198 0.93016 0.0
H4229 H 0.29644 0.32199 0.92993 0.0
H4230 H 0.27254 0.31466 0.98277 0.0
H4231 H 0.28161 0.32172 0.96561 0.0
C4232 C 0.6214 0.72422 0.21081 0.0
C4233 C 0.62372 0.71289 0.2079 0.0
C4234 C 0.61204 0.72674 0.21744 0.0
C4235 C 0.58403 0.71501 0.22631 0.0
H4236 H 0.58671 0.73872 0.24926 0.0
C4237 C 0.5473 0.72448 0.25678 0.0
C4238 C 0.54511 0.73601 0.25898 0.0
C4239 C 0.55704 0.72139 0.25095 0.0
C4240 C 0.58577 0.73215 0.24281 0.0
H4241 H 0.61793 0.69532 0.20975 0.0
H4242 H 0.6017 0.69969 0.22148 0.0
H4243 H 0.60338 0.73379 0.23845 0.0
H4244 H 0.5517 0.75329 0.25694 0.0
H4245 H 0.56853 0.74795 0.24664 0.0
H4246 H 0.56641 0.71342 0.23062 0.0
C4247 C 0.60708 0.70665 0.21852 0.0
C4248 C 0.59535 0.72932 0.2366 0.0
C4249 C 0.61647 0.70413 0.2119 0.0
C4250 C 0.553 0.74435 0.2553 0.0
C4251 C 0.56275 0.74126 0.2495 0.0
C4252 C 0.57446 0.71785 0.23252 0.0
C4253 C 0.60472 0.718 0.22135 0.0
C4254 C 0.59459 0.72076 0.22822 0.0
C4255 C 0.56489 0.72975 0.2472 0.0
C4256 C 0.57518 0.7265 0.24081 0.0
H4257 H 0.62687 0.73118 0.20801 0.0
H4258 H 0.61043 0.73558 0.21934 0.0
H4259 H 0.58308 0.70849 0.21982 0.0
H4260 H 0.54139 0.71782 0.25938 0.0
H4261 H 0.55846 0.71243 0.24946 0.0
C4262 C 0.32244 0.62749 0.21509 0.0
C4263 C 0.33425 0.62927 0.21373 0.0
C4264 C 0.3183 0.61766 0.22059 0.0
C4265 C 0.32653 0.58831 0.22939 0.0
H4266 H 0.30224 0.59115 0.25091 0.0
C4267 C 0.3146 0.55182 0.26051 0.0
C4268 C 0.30292 0.54971 0.26241 0.0
C4269 C 0.31817 0.56145 0.25437 0.0
C4270 C 0.30894 0.59016 0.24483 0.0
H4271 H 0.35093 0.62186 0.2168 0.0
H4272 H 0.34378 0.60491 0.22652 0.0
H4273 H 0.30877 0.60789 0.24033 0.0
H4274 H 0.28589 0.55635 0.25946 0.0
H4275 H 0.29209 0.57302 0.24863 0.0
H4276 H 0.32675 0.5706 0.23393 0.0
C4277 C 0.33767 0.61105 0.22329 0.0
C4278 C 0.31268 0.59978 0.23875 0.0
C4279 C 0.34179 0.62087 0.21782 0.0
C4280 C 0.29493 0.55759 0.25807 0.0
C4281 C 0.29851 0.56724 0.25195 0.0
C4282 C 0.3228 0.5787 0.23548 0.0
C4283 C 0.32587 0.60934 0.22482 0.0
C4284 C 0.32157 0.599 0.23099 0.0
C4285 C 0.31017 0.56928 0.24997 0.0
C4286 C 0.314 0.5795 0.24334 0.0
H4287 H 0.31639 0.63381 0.21212 0.0
H4288 H 0.30916 0.61657 0.22149 0.0
H4289 H 0.33325 0.58732 0.22335 0.0
H4290 H 0.321 0.54592 0.26361 0.0
H4291 H 0.32724 0.56281 0.25314 0.0
C4292 C 0.42718 0.32403 0.2093 0.0
C4293 C 0.41827 0.32836 0.2157 0.0
C4294 C 0.43707 0.31982 0.21471 0.0
C4295 C 0.44833 0.30811 0.24215 0.0
H4296 H 0.47751 0.31307 0.22792 0.0
C4297 C 0.49081 0.28808 0.2598 0.0
C4298 C 0.49682 0.28242 0.25137 0.0
C4299 C 0.48177 0.29533 0.25668 0.0
C4300 C 0.46943 0.31161 0.23202 0.0
H4301 H 0.41291 0.33167 0.23291 0.0
H4302 H 0.4302 0.32426 0.24237 0.0
H4303 H 0.46055 0.32246 0.22014 0.0
H4304 H 0.4984 0.28033 0.23311 0.0
H4305 H 0.48294 0.29295 0.22773 0.0
H4306 H 0.45726 0.29705 0.25391 0.0
C4307 C 0.42946 0.32406 0.23313 0.0
C4308 C 0.45968 0.31695 0.22752 0.0
C4309 C 0.41954 0.32831 0.2277 0.0
C4310 C 0.49394 0.28453 0.23983 0.0
C4311 C 0.48509 0.29184 0.23673 0.0
C4312 C 0.45812 0.30276 0.24668 0.0
C4313 C 0.43838 0.31978 0.2267 0.0
C4314 C 0.44893 0.31505 0.23233 0.0
C4315 C 0.47876 0.29721 0.24508 0.0
C4316 C 0.46873 0.30421 0.24147 0.0
H4317 H 0.42644 0.32366 0.20007 0.0
H4318 H 0.44361 0.31635 0.20946 0.0
H4319 H 0.4402 0.3064 0.24605 0.0
H4320 H 0.49279 0.28655 0.26877 0.0
H4321 H 0.47708 0.29938 0.26332 0.0
C4322 C 0.70982 0.42076 0.21228 0.0
C4323 C 0.70801 0.4113 0.21948 0.0
C4324 C 0.71418 0.43109 0.2167 0.0
C4325 C 0.73032 0.4437 0.24152 0.0
H4326 H 0.7185 0.47199 0.22913 0.0
C4327 C 0.74774 0.48809 0.25691 0.0
C4328 C 0.75062 0.49547 0.24792 0.0
C4329 C 0.74113 0.47814 0.25471 0.0
C4330 C 0.72191 0.46417 0.23268 0.0
H4331 H 0.70964 0.40532 0.237 0.0
H4332 H 0.71709 0.42338 0.24472 0.0
H4333 H 0.71014 0.45386 0.22265 0.0
H4334 H 0.74837 0.49856 0.22973 0.0
H4335 H 0.73683 0.48148 0.22596 0.0
H4336 H 0.74223 0.45407 0.2514 0.0
C4337 C 0.71519 0.42278 0.23563 0.0
C4338 C 0.71715 0.45376 0.22892 0.0
C4339 C 0.7108 0.41244 0.23121 0.0
C4340 C 0.74629 0.49304 0.23685 0.0
C4341 C 0.73961 0.48325 0.23469 0.0
C4342 C 0.73508 0.45414 0.24529 0.0
C4343 C 0.71686 0.43228 0.22845 0.0
C4344 C 0.72143 0.44337 0.2331 0.0
C4345 C 0.73715 0.47552 0.24352 0.0
C4346 C 0.7311 0.46451 0.24074 0.0
H4347 H 0.70767 0.42026 0.20323 0.0
H4348 H 0.71552 0.43815 0.21087 0.0
H4349 H 0.73389 0.43588 0.24488 0.0
H4350 H 0.75106 0.4897 0.26551 0.0
H4351 H 0.73932 0.4724 0.26172 0.0
C4352 C 0.6314 0.32403 0.81542 0.0
C4353 C 0.63118 0.32511 0.82737 0.0
C4354 C 0.62147 0.32089 0.80906 0.0
C4355 C 0.58973 0.31898 0.8108 0.0
H4356 H 0.59179 0.29563 0.78768 0.0
C4357 C 0.55222 0.28921 0.79789 0.0
C4358 C 0.55072 0.28553 0.78654 0.0
C4359 C 0.5615 0.29623 0.80119 0.0
C4360 C 0.59108 0.30232 0.79394 0.0
H4361 H 0.62021 0.32404 0.84194 0.0
H4362 H 0.60304 0.3184 0.83095 0.0
H4363 H 0.60926 0.30354 0.79678 0.0
H4364 H 0.55757 0.28664 0.76961 0.0
H4365 H 0.57403 0.29894 0.77541 0.0
H4366 H 0.57155 0.31748 0.80825 0.0
C4367 C 0.61084 0.32006 0.82643 0.0
C4368 C 0.6011 0.30685 0.79918 0.0
C4369 C 0.62074 0.32316 0.83277 0.0
C4370 C 0.55847 0.28944 0.77839 0.0
C4371 C 0.56792 0.29637 0.78174 0.0
C4372 C 0.57974 0.31445 0.80559 0.0
C4373 C 0.61107 0.31883 0.8145 0.0
C4374 C 0.60054 0.31502 0.80791 0.0
C4375 C 0.56964 0.29967 0.79324 0.0
C4376 C 0.58026 0.30584 0.79731 0.0
H4377 H 0.6393 0.32539 0.81098 0.0
H4378 H 0.62195 0.32009 0.79988 0.0
H4379 H 0.58898 0.32545 0.81729 0.0
H4380 H 0.54639 0.28632 0.80436 0.0
H4381 H 0.5626 0.29847 0.81012 0.0
C4382 C 0.74301 0.62155 0.83008 0.0
C4383 C 0.73148 0.62478 0.82892 0.0
C4384 C 0.74691 0.61191 0.82446 0.0
C4385 C 0.73937 0.5927 0.80013 0.0
H4386 H 0.76101 0.57221 0.81482 0.0
C4387 C 0.74781 0.54907 0.78093 0.0
C4388 C 0.75918 0.54547 0.78035 0.0
C4389 C 0.74509 0.55853 0.7874 0.0
C4390 C 0.75506 0.57792 0.81056 0.0
H4391 H 0.71507 0.62028 0.82085 0.0
H4392 H 0.72177 0.6034 0.81132 0.0
H4393 H 0.7549 0.58914 0.82497 0.0
H4394 H 0.77658 0.54879 0.78654 0.0
H4395 H 0.77179 0.5655 0.79795 0.0
H4396 H 0.73944 0.58151 0.78579 0.0
C4397 C 0.72786 0.60841 0.81645 0.0
C4398 C 0.75155 0.58763 0.81637 0.0
C4399 C 0.72396 0.61804 0.82205 0.0
C4400 C 0.76774 0.55133 0.78683 0.0
C4401 C 0.76499 0.5609 0.79335 0.0
C4402 C 0.74285 0.58302 0.79437 0.0
C4403 C 0.7394 0.60523 0.81751 0.0
C4404 C 0.74354 0.59508 0.81128 0.0
C4405 C 0.75365 0.56475 0.79348 0.0
C4406 C 0.75061 0.5754 0.79955 0.0
H4407 H 0.74903 0.62642 0.83542 0.0
H4408 H 0.75586 0.6098 0.82543 0.0
H4409 H 0.73344 0.59836 0.7958 0.0
H4410 H 0.74096 0.54468 0.77619 0.0
H4411 H 0.73623 0.56104 0.78754 0.0
C4412 C 0.41989 0.70539 0.80425 0.0
C4413 C 0.41745 0.70516 0.81595 0.0
C4414 C 0.42998 0.71059 0.80043 0.0
C4415 C 0.45259 0.73168 0.80927 0.0
H4416 H 0.47016 0.71799 0.78557 0.0
C4417 C 0.49791 0.74788 0.8007 0.0
C4418 C 0.50105 0.7496 0.78933 0.0
C4419 C 0.48789 0.74187 0.80325 0.0
C4420 C 0.46529 0.72198 0.7921 0.0
H4421 H 0.42396 0.71005 0.8328 0.0
H4422 H 0.44147 0.7191 0.82618 0.0
H4423 H 0.45225 0.70883 0.79141 0.0
H4424 H 0.49634 0.74586 0.77169 0.0
H4425 H 0.47865 0.73527 0.77616 0.0
H4426 H 0.46554 0.74479 0.81004 0.0
C4427 C 0.43548 0.71544 0.81991 0.0
C4428 C 0.45501 0.71674 0.79546 0.0
C4429 C 0.42541 0.71024 0.82372 0.0
C4430 C 0.49417 0.74464 0.78054 0.0
C4431 C 0.48404 0.7386 0.78311 0.0
C4432 C 0.46281 0.73689 0.80594 0.0
C4433 C 0.4379 0.71572 0.80821 0.0
C4434 C 0.4486 0.72145 0.80421 0.0
C4435 C 0.48063 0.73742 0.7945 0.0
C4436 C 0.4694 0.73204 0.79744 0.0
H4437 H 0.4139 0.70171 0.79799 0.0
H4438 H 0.43147 0.71077 0.79135 0.0
H4439 H 0.44776 0.73573 0.81582 0.0
H4440 H 0.50307 0.75143 0.80771 0.0
H4441 H 0.48574 0.74086 0.81213 0.0
C4442 C 0.35305 0.419 0.81128 0.0
C4443 C 0.34606 0.41028 0.81578 0.0
C4444 C 0.34824 0.4287 0.80622 0.0
C4445 C 0.3213 0.43922 0.79278 0.0
H4446 H 0.33598 0.46888 0.79718 0.0
C4447 C 0.30117 0.48098 0.77545 0.0
C4448 C 0.3086 0.48915 0.77065 0.0
C4449 C 0.3055 0.47142 0.78121 0.0
C4450 C 0.33183 0.46065 0.79576 0.0
H4451 H 0.32847 0.40503 0.81851 0.0
H4452 H 0.32008 0.42205 0.80987 0.0
H4453 H 0.34386 0.45224 0.80691 0.0
H4454 H 0.32646 0.49361 0.76828 0.0
H4455 H 0.33397 0.4769 0.77813 0.0
H4456 H 0.30929 0.44763 0.78158 0.0
C4457 C 0.3293 0.42131 0.81014 0.0
C4458 C 0.33636 0.45109 0.80135 0.0
C4459 C 0.33412 0.4116 0.81521 0.0
C4460 C 0.32046 0.48748 0.77175 0.0
C4461 C 0.32479 0.47794 0.77754 0.0
C4462 C 0.31677 0.44878 0.78718 0.0
C4463 C 0.33629 0.42997 0.80553 0.0
C4464 C 0.33121 0.44023 0.79988 0.0
C4465 C 0.31737 0.46978 0.78236 0.0
C4466 C 0.32202 0.45962 0.78854 0.0
H4467 H 0.36228 0.41836 0.81169 0.0
H4468 H 0.3539 0.43511 0.80267 0.0
H4469 H 0.3172 0.43097 0.79131 0.0
H4470 H 0.29199 0.48191 0.77468 0.0
H4471 H 0.29952 0.46537 0.78489 0.0
C4472 C 0.70298 0.62415 0.21203 0.0
C4473 C 0.70729 0.63263 0.20469 0.0
C4474 C 0.70949 0.61464 0.21501 0.0
C4475 C 0.73379 0.59744 0.20605 0.0
H4476 H 0.7342 0.5872 0.23758 0.0
C4477 C 0.76389 0.5619 0.22301 0.0
C4478 C 0.7595 0.55416 0.23106 0.0
C4479 C 0.75768 0.5715 0.21959 0.0
C4480 C 0.73408 0.58984 0.22871 0.0
H4481 H 0.72188 0.63765 0.19471 0.0
H4482 H 0.7332 0.62099 0.19984 0.0
H4483 H 0.72311 0.60377 0.23196 0.0
H4484 H 0.74494 0.55031 0.24151 0.0
H4485 H 0.73411 0.56692 0.23551 0.0
H4486 H 0.7447 0.58344 0.20279 0.0
C4487 C 0.72473 0.62169 0.20322 0.0
C4488 C 0.72772 0.59937 0.22549 0.0
C4489 C 0.71823 0.63124 0.20027 0.0
C4490 C 0.74869 0.55619 0.23548 0.0
C4491 C 0.74247 0.56575 0.23203 0.0
C4492 C 0.74013 0.58787 0.20927 0.0
C4493 C 0.72047 0.61331 0.2107 0.0
C4494 C 0.72744 0.60327 0.21411 0.0
C4495 C 0.7469 0.57358 0.2241 0.0
C4496 C 0.74032 0.5839 0.22064 0.0
H4497 H 0.69451 0.62478 0.21541 0.0
H4498 H 0.70585 0.60825 0.22061 0.0
H4499 H 0.73367 0.60014 0.19719 0.0
H4500 H 0.77224 0.56068 0.21953 0.0
H4501 H 0.76144 0.57741 0.21358 0.0
C4502 C 0.70742 0.40899 0.80496 0.0
C4503 C 0.70921 0.40734 0.81678 0.0
C4504 C 0.71176 0.41873 0.79954 0.0
C4505 C 0.72196 0.44831 0.80495 0.0
H4506 H 0.73525 0.44531 0.77523 0.0
C4507 C 0.74506 0.48592 0.78221 0.0
C4508 C 0.74338 0.48691 0.77029 0.0
C4509 C 0.74087 0.47638 0.78809 0.0
C4510 C 0.73144 0.44634 0.78346 0.0
H4511 H 0.71707 0.4147 0.83214 0.0
H4512 H 0.7246 0.43174 0.82267 0.0
H4513 H 0.7282 0.42839 0.7851 0.0
H4514 H 0.73583 0.47855 0.7553 0.0
H4515 H 0.72833 0.46211 0.76556 0.0
H4516 H 0.72516 0.46629 0.80327 0.0
C4517 C 0.71973 0.42551 0.81762 0.0
C4518 C 0.72741 0.43662 0.78914 0.0
C4519 C 0.71541 0.41574 0.82305 0.0
C4520 C 0.73723 0.47817 0.76446 0.0
C4521 C 0.73304 0.46864 0.77034 0.0
C4522 C 0.72598 0.45805 0.79925 0.0
C4523 C 0.71798 0.42711 0.80578 0.0
C4524 C 0.72256 0.43747 0.79992 0.0
C4525 C 0.73488 0.46756 0.78222 0.0
C4526 C 0.73072 0.4572 0.7884 0.0
H4527 H 0.70248 0.40285 0.79988 0.0
H4528 H 0.71005 0.41977 0.79045 0.0
H4529 H 0.71815 0.4493 0.81318 0.0
H4530 H 0.74962 0.49252 0.78702 0.0
H4531 H 0.74252 0.47581 0.79723 0.0
C4532 C 0.64172 0.71745 0.83184 0.0
C4533 C 0.64326 0.70652 0.82727 0.0
C4534 C 0.63195 0.7237 0.82893 0.0
C4535 C 0.60224 0.7204 0.81672 0.0
H4536 H 0.60494 0.75306 0.81184 0.0
C4537 C 0.56513 0.74671 0.7969 0.0
C4538 C 0.56309 0.75743 0.80171 0.0
C4539 C 0.57488 0.74059 0.80014 0.0
C4540 C 0.60401 0.74396 0.81328 0.0
H4541 H 0.63547 0.69358 0.81618 0.0
H4542 H 0.61866 0.70455 0.81089 0.0
H4543 H 0.6219 0.74226 0.81729 0.0
H4544 H 0.5699 0.77014 0.81361 0.0
H4545 H 0.58684 0.75943 0.81934 0.0
H4546 H 0.58436 0.7221 0.81261 0.0
C4547 C 0.62495 0.70826 0.81684 0.0
C4548 C 0.61374 0.73776 0.81643 0.0
C4549 C 0.6347 0.70201 0.81976 0.0
C4550 C 0.57112 0.76188 0.8098 0.0
C4551 C 0.58091 0.75578 0.813 0.0
C4552 C 0.59252 0.7266 0.81352 0.0
C4553 C 0.62342 0.7192 0.82137 0.0
C4554 C 0.61301 0.72588 0.81817 0.0
C4555 C 0.5829 0.74503 0.80825 0.0
C4556 C 0.59327 0.73846 0.81174 0.0
H4557 H 0.64816 0.72126 0.83756 0.0
H4558 H 0.63103 0.73203 0.8327 0.0
H4559 H 0.60126 0.71132 0.81818 0.0
H4560 H 0.55911 0.74295 0.79073 0.0
H4561 H 0.57619 0.7324 0.79621 0.0
C4562 C 0.32388 0.61959 0.83402 0.0
C4563 C 0.32559 0.62981 0.82789 0.0
C4564 C 0.31925 0.60985 0.82859 0.0
C4565 C 0.31545 0.597 0.79989 0.0
H4566 H 0.29483 0.57589 0.81497 0.0
C4567 C 0.30613 0.55271 0.78141 0.0
C4568 C 0.29474 0.54864 0.78081 0.0
C4569 C 0.30922 0.56232 0.78783 0.0
C4570 C 0.30051 0.58175 0.81061 0.0
H4571 H 0.32337 0.63782 0.81127 0.0
H4572 H 0.31531 0.62089 0.80181 0.0
H4573 H 0.30117 0.59351 0.82461 0.0
H4574 H 0.27772 0.55121 0.78699 0.0
H4575 H 0.28314 0.56822 0.7983 0.0
H4576 H 0.31474 0.5854 0.78587 0.0
C4577 C 0.31775 0.62033 0.81079 0.0
C4578 C 0.30424 0.5918 0.81618 0.0
C4579 C 0.3224 0.63006 0.81622 0.0
C4580 C 0.28657 0.55413 0.78729 0.0
C4581 C 0.28968 0.56387 0.79375 0.0
C4582 C 0.31175 0.587 0.79436 0.0
C4583 C 0.31619 0.61006 0.81687 0.0
C4584 C 0.31183 0.59952 0.81091 0.0
C4585 C 0.30101 0.56824 0.79384 0.0
C4586 C 0.30434 0.57916 0.79968 0.0
H4587 H 0.32635 0.61904 0.843 0.0
H4588 H 0.31835 0.60206 0.83352 0.0
H4589 H 0.32137 0.60265 0.79558 0.0
H4590 H 0.31269 0.5486 0.77667 0.0
H4591 H 0.31807 0.56523 0.78795 0.0
C4592 C 0.42538 0.31334 0.843 0.0
C4593 C 0.4169 0.31821 0.83583 0.0
C4594 C 0.43483 0.30808 0.83842 0.0
C4595 C 0.4447 0.29478 0.81194 0.0
H4596 H 0.47463 0.29802 0.82692 0.0
C4597 C 0.4857 0.27673 0.79268 0.0
C4598 C 0.49367 0.2716 0.80026 0.0
C4599 C 0.47638 0.28261 0.79679 0.0
C4600 C 0.46631 0.29692 0.8227 0.0
H4601 H 0.41182 0.32139 0.81815 0.0
H4602 H 0.42842 0.31239 0.81016 0.0
H4603 H 0.45847 0.30812 0.83438 0.0
H4604 H 0.498 0.26875 0.81817 0.0
H4605 H 0.4817 0.27882 0.82532 0.0
H4606 H 0.45255 0.28356 0.80027 0.0
C4607 C 0.42768 0.31252 0.81935 0.0
C4608 C 0.45703 0.30272 0.82698 0.0
C4609 C 0.41821 0.31781 0.82394 0.0
C4610 C 0.49202 0.27248 0.81207 0.0
C4611 C 0.48272 0.27839 0.81618 0.0
C4612 C 0.45399 0.28898 0.80765 0.0
C4613 C 0.43609 0.30755 0.82654 0.0
C4614 C 0.44607 0.30168 0.82171 0.0
C4615 C 0.47478 0.28356 0.8086 0.0
C4616 C 0.46491 0.28992 0.81301 0.0
H4617 H 0.42475 0.31362 0.8522 0.0
H4618 H 0.44106 0.30425 0.84423 0.0
H4619 H 0.43637 0.29363 0.80775 0.0
H4620 H 0.4866 0.27613 0.78354 0.0
H4621 H 0.47051 0.28656 0.7907 0.0
C4622 C 0.32724 0.41034 0.22948 0.0
C4623 C 0.32982 0.40922 0.21789 0.0
C4624 C 0.32133 0.41976 0.23328 0.0
C4625 C 0.30271 0.44366 0.22473 0.0
H4626 H 0.31574 0.45708 0.25251 0.0
C4627 C 0.28749 0.48631 0.24571 0.0
C4628 C 0.28771 0.48627 0.25772 0.0
C4629 C 0.29164 0.47692 0.23973 0.0
C4630 C 0.31188 0.45339 0.24481 0.0
H4631 H 0.3277 0.41701 0.20115 0.0
H4632 H 0.31726 0.43352 0.20784 0.0
H4633 H 0.32474 0.44074 0.24423 0.0
H4634 H 0.29149 0.47609 0.27281 0.0
H4635 H 0.29831 0.45982 0.26253 0.0
H4636 H 0.28975 0.45641 0.22547 0.0
C4637 C 0.31986 0.42703 0.21395 0.0
C4638 C 0.31707 0.444 0.24005 0.0
C4639 C 0.32584 0.41757 0.21012 0.0
C4640 C 0.2914 0.47646 0.26356 0.0
C4641 C 0.29539 0.46714 0.25765 0.0
C4642 C 0.29744 0.45312 0.22956 0.0
C4643 C 0.31778 0.42836 0.22563 0.0
C4644 C 0.31245 0.43885 0.23008 0.0
C4645 C 0.29601 0.46738 0.24569 0.0
C4646 C 0.30185 0.45793 0.23981 0.0
H4647 H 0.32988 0.40395 0.23567 0.0
H4648 H 0.31963 0.42035 0.2423 0.0
H4649 H 0.29895 0.43991 0.21702 0.0
H4650 H 0.28472 0.49379 0.24101 0.0
H4651 H 0.29195 0.47736 0.23051 0.0
C4652 C 0.62714 0.3229 0.2095 0.0
C4653 C 0.63357 0.31764 0.20112 0.0
C4654 C 0.61753 0.31735 0.21396 0.0
C4655 C 0.59628 0.29419 0.20737 0.0
H4656 H 0.59014 0.29586 0.23965 0.0
C4657 C 0.56117 0.26622 0.22802 0.0
C4658 C 0.55448 0.27127 0.23631 0.0
C4659 C 0.57079 0.27195 0.22381 0.0
C4660 C 0.59165 0.29541 0.23059 0.0
H4661 H 0.6351 0.3022 0.1912 0.0
H4662 H 0.61841 0.29257 0.19893 0.0
H4663 H 0.60693 0.30574 0.23226 0.0
H4664 H 0.55266 0.28651 0.24649 0.0
H4665 H 0.56938 0.29645 0.23919 0.0
H4666 H 0.58102 0.28387 0.20569 0.0
C4667 C 0.62064 0.30109 0.20189 0.0
C4668 C 0.60129 0.30108 0.22635 0.0
C4669 C 0.63023 0.30662 0.19745 0.0
C4670 C 0.55768 0.28223 0.24026 0.0
C4671 C 0.5673 0.28796 0.23607 0.0
C4672 C 0.58665 0.28852 0.21161 0.0
C4673 C 0.61411 0.3064 0.21015 0.0
C4674 C 0.60375 0.30052 0.21469 0.0
C4675 C 0.57398 0.2829 0.22778 0.0
C4676 C 0.58422 0.28902 0.22328 0.0
H4677 H 0.62939 0.33142 0.21244 0.0
H4678 H 0.61264 0.32175 0.22022 0.0
H4679 H 0.59778 0.29373 0.19831 0.0
H4680 H 0.5591 0.25774 0.22488 0.0
H4681 H 0.57583 0.26771 0.21757 0.0
C4682 C 0.40685 0.73212 0.19737 0.0
C4683 C 0.40507 0.72026 0.19621 0.0
C4684 C 0.41695 0.73654 0.20255 0.0
C4685 C 0.44689 0.72876 0.21025 0.0
H4686 H 0.44572 0.75379 0.23167 0.0
C4687 C 0.48266 0.73808 0.2437 0.0
C4688 C 0.48563 0.74941 0.24655 0.0
C4689 C 0.47353 0.73562 0.23611 0.0
C4690 C 0.44623 0.74694 0.22555 0.0
H4691 H 0.41263 0.7038 0.19958 0.0
H4692 H 0.43007 0.71146 0.2088 0.0
H4693 H 0.42822 0.74725 0.22155 0.0
H4694 H 0.4815 0.7671 0.24342 0.0
H4695 H 0.46533 0.76278 0.23008 0.0
H4696 H 0.46482 0.72826 0.21445 0.0
C4697 C 0.42373 0.71737 0.20558 0.0
C4698 C 0.43618 0.74316 0.21977 0.0
C4699 C 0.41364 0.71296 0.20042 0.0
C4700 C 0.47945 0.75829 0.24133 0.0
C4701 C 0.47015 0.75581 0.23378 0.0
C4702 C 0.4569 0.73251 0.21604 0.0
C4703 C 0.42555 0.72923 0.20668 0.0
C4704 C 0.43634 0.73386 0.21221 0.0
C4705 C 0.46701 0.74442 0.23119 0.0
C4706 C 0.45666 0.74149 0.22394 0.0
H4707 H 0.4004 0.738 0.19435 0.0
H4708 H 0.41808 0.7457 0.20319 0.0
H4709 H 0.4474 0.72177 0.20429 0.0
H4710 H 0.48726 0.73104 0.24756 0.0
H4711 H 0.4713 0.72677 0.23444 0.0
loop_
_geom_bond_atom_site_label_1
_geom_bond_atom_site_label_2
_geom_bond_distance
_geom_bond_site_symmetry_2
_ccdc_geom_bond_type
C0 C1 1.264 . S
C0 C5 1.479 . S
C0 C10 1.465 . S
C1 C0 1.264 . S
C1 C3 1.339 . S
C1 H28 0.931 . S
C2 C3 1.395 . S
C2 C4 1.320 . S
C3 C1 1.339 . S
C3 C2 1.395 . S
C3 H29 0.929 . S
C4 C2 1.320 . S
C4 C5 1.405 . S
C4 H30 0.930 . S
C5 C0 1.479 . S
C5 C4 1.405 . S
C5 H31 0.931 . S
U6 O7 2.454 . S
U6 O8 2.458 . S
U6 C9 2.984 . S
U6 C10 2.847 . S
U6 C23 2.882 . S
U6 O24 2.441 . S
U6 O25 2.420 . S
U6 O26 2.455 . S
U6 O27 2.449 . S
O7 U6 2.454 . S
O7 C9 1.353 . S
O8 U6 2.458 . S
O8 C9 1.286 . S
C9 U6 2.984 . S
C9 O7 1.353 . S
C9 O8 1.286 . S
C9 C11 1.363 . S
C10 C0 1.465 . S
C10 U6 2.847 . S
C10 O24 1.249 . S
C10 O25 1.202 . S
C11 C9 1.363 . S
C11 C13 1.408 . S
C11 C16 1.342 . S
C12 C13 1.310 . S
C12 C15 1.461 . S
C12 H32 0.932 . S
C13 C11 1.408 . S
C13 C12 1.310 . S
C13 H33 0.930 . S
C14 C15 1.474 . S
C14 C16 1.285 . S
C14 H34 0.929 . S
C15 C12 1.461 . S
C15 C14 1.474 . S
C16 C11 1.342 . S
C16 C14 1.285 . S
C16 H35 0.930 . S
C17 C20 1.424 . S
C17 C22 1.245 . S
C17 C23 1.428 . S
C18 C21 1.260 . S
C18 C22 1.477 . S
C18 H36 0.932 . S
C19 C20 1.384 . S
C19 C21 1.479 . S
C19 H37 0.929 . S
C20 C17 1.424 . S
C20 C19 1.384 . S
C20 H38 0.928 . S
C21 C18 1.260 . S
C21 C19 1.479 . S
C22 C17 1.245 . S
C22 C18 1.477 . S
C22 H39 0.932 . S
C23 U6 2.882 . S
C23 C17 1.428 . S
C23 O26 1.301 . S
C23 O27 1.282 . S
O24 U6 2.441 . S
O24 C10 1.249 . S
O25 U6 2.420 . S
O25 C10 1.202 . S
O26 U6 2.455 . S
O26 C23 1.301 . S
O27 U6 2.449 . S
O27 C23 1.282 . S
H28 C1 0.931 . S
H29 C3 0.929 . S
H30 C4 0.930 . S
H31 C5 0.931 . S
H32 C12 0.932 . S
H33 C13 0.930 . S
H34 C14 0.929 . S
H35 C16 0.930 . S
H36 C18 0.932 . S
H37 C19 0.929 . S
H38 C20 0.928 . S
H39 C22 0.932 . S
C40 C41 1.264 . S
C40 C45 1.479 . S
C40 C50 1.465 . S
C41 C40 1.264 . S
C41 C43 1.339 . S
C41 H68 0.931 . S
C42 C43 1.395 . S
C42 C44 1.320 . S
C43 C41 1.339 . S
C43 C42 1.395 . S
C43 H69 0.929 . S
C44 C42 1.320 . S
C44 C45 1.405 . S
C44 H70 0.930 . S
C45 C40 1.479 . S
C45 C44 1.405 . S
C45 H71 0.931 . S
U46 O47 2.454 . S
U46 O48 2.458 . S
U46 C49 2.984 . S
U46 C50 2.847 . S
U46 C63 2.882 . S
U46 O64 2.441 . S
U46 O65 2.420 . S
U46 O66 2.455 . S
U46 O67 2.449 . S
O47 U46 2.454 . S
O47 C49 1.353 . S
O48 U46 2.458 . S
O48 C49 1.286 . S
C49 U46 2.984 . S
C49 O47 1.353 . S
C49 O48 1.286 . S
C49 C51 1.363 . S
C50 C40 1.465 . S
C50 U46 2.847 . S
C50 O64 1.249 . S
C50 O65 1.202 . S
C51 C49 1.363 . S
C51 C53 1.408 . S
C51 C56 1.342 . S
C52 C53 1.310 . S
C52 C55 1.461 . S
C52 H72 0.932 . S
C53 C51 1.408 . S
C53 C52 1.310 . S
C53 H73 0.930 . S
C54 C55 1.474 . S
C54 C56 1.285 . S
C54 H74 0.929 . S
C55 C52 1.461 . S
C55 C54 1.474 . S
C56 C51 1.342 . S
C56 C54 1.285 . S
C56 H75 0.930 . S
C57 C60 1.424 . S
C57 C62 1.245 . S
C57 C63 1.428 . S
C58 C61 1.260 . S
C58 C62 1.477 . S
C58 H76 0.932 . S
C59 C60 1.384 . S
C59 C61 1.479 . S
C59 H77 0.929 . S
C60 C57 1.424 . S
C60 C59 1.384 . S
C60 H78 0.928 . S
C61 C58 1.260 . S
C61 C59 1.479 . S
C62 C57 1.245 . S
C62 C58 1.477 . S
C62 H79 0.932 . S
C63 U46 2.882 . S
C63 C57 1.428 . S
C63 O66 1.301 . S
C63 O67 1.282 . S
O64 U46 2.441 . S
O64 C50 1.249 . S
O65 U46 2.420 . S
O65 C50 1.202 . S
O66 U46 2.455 . S
O66 C63 1.301 . S
O67 U46 2.449 . S
O67 C63 1.282 . S
H68 C41 0.931 . S
H69 C43 0.929 . S
H70 C44 0.930 . S
H71 C45 0.931 . S
H72 C52 0.932 . S
H73 C53 0.930 . S
H74 C54 0.929 . S
H75 C56 0.930 . S
H76 C58 0.932 . S
H77 C59 0.929 . S
H78 C60 0.928 . S
H79 C62 0.932 . S
C80 C81 1.264 . S
C80 C85 1.479 . S
C80 C90 1.465 . S
C81 C80 1.264 . S
C81 C83 1.339 . S
C81 H108 0.931 . S
C82 C83 1.395 . S
C82 C84 1.320 . S
C83 C81 1.339 . S
C83 C82 1.395 . S
C83 H109 0.929 . S
C84 C82 1.320 . S
C84 C85 1.405 . S
C84 H110 0.930 . S
C85 C80 1.479 . S
C85 C84 1.405 . S
C85 H111 0.931 . S
U86 O87 2.454 . S
U86 O88 2.458 . S
U86 C89 2.984 . S
U86 C90 2.847 . S
U86 C103 2.882 . S
U86 O104 2.441 . S
U86 O105 2.420 . S
U86 O106 2.455 . S
U86 O107 2.449 . S
O87 U86 2.454 . S
O87 C89 1.353 . S
O88 U86 2.458 . S
O88 C89 1.286 . S
C89 U86 2.984 . S
C89 O87 1.353 . S
C89 O88 1.286 . S
C89 C91 1.363 . S
C90 C80 1.465 . S
C90 U86 2.847 . S
C90 O104 1.249 . S
C90 O105 1.202 . S
C91 C89 1.363 . S
C91 C93 1.408 . S
C91 C96 1.342 . S
C92 C93 1.310 . S
C92 C95 1.461 . S
C92 H112 0.932 . S
C93 C91 1.408 . S
C93 C92 1.310 . S
C93 H113 0.930 . S
C94 C95 1.474 . S
C94 C96 1.285 . S
C94 H114 0.929 . S
C95 C92 1.461 . S
C95 C94 1.474 . S
C96 C91 1.342 . S
C96 C94 1.285 . S
C96 H115 0.930 . S
C97 C100 1.424 . S
C97 C102 1.245 . S
C97 C103 1.428 . S
C98 C101 1.260 . S
C98 C102 1.477 . S
C98 H116 0.932 . S
C99 C100 1.384 . S
C99 C101 1.479 . S
C99 H117 0.929 . S
C100 C97 1.424 . S
C100 C99 1.384 . S
C100 H118 0.928 . S
C101 C98 1.260 . S
C101 C99 1.479 . S
C102 C97 1.245 . S
C102 C98 1.477 . S
C102 H119 0.932 . S
C103 U86 2.882 . S
C103 C97 1.428 . S
C103 O106 1.301 . S
C103 O107 1.282 . S
O104 U86 2.441 . S
O104 C90 1.249 . S
O105 U86 2.420 . S
O105 C90 1.202 . S
O106 U86 2.455 . S
O106 C103 1.301 . S
O107 U86 2.449 . S
O107 C103 1.282 . S
H108 C81 0.931 . S
H109 C83 0.929 . S
H110 C84 0.930 . S
H111 C85 0.931 . S
H112 C92 0.932 . S
H113 C93 0.930 . S
H114 C94 0.929 . S
H115 C96 0.930 . S
H116 C98 0.932 . S
H117 C99 0.929 . S
H118 C100 0.928 . S
H119 C102 0.932 . S
C120 C121 1.264 . S
C120 C125 1.479 . S
C120 C130 1.465 . S
C121 C120 1.264 . S
C121 C123 1.339 . S
C121 H148 0.931 . S
C122 C123 1.395 . S
C122 C124 1.320 . S
C123 C121 1.339 . S
C123 C122 1.395 . S
C123 H149 0.929 . S
C124 C122 1.320 . S
C124 C125 1.405 . S
C124 H150 0.930 . S
C125 C120 1.479 . S
C125 C124 1.405 . S
C125 H151 0.931 . S
U126 O127 2.454 . S
U126 O128 2.458 . S
U126 C129 2.984 . S
U126 C130 2.847 . S
U126 C143 2.882 . S
U126 O144 2.441 . S
U126 O145 2.420 . S
U126 O146 2.455 . S
U126 O147 2.449 . S
O127 U126 2.454 . S
O127 C129 1.353 . S
O128 U126 2.458 . S
O128 C129 1.286 . S
C129 U126 2.984 . S
C129 O127 1.353 . S
C129 O128 1.286 . S
C129 C131 1.363 . S
C130 C120 1.465 . S
C130 U126 2.847 . S
C130 O144 1.249 . S
C130 O145 1.202 . S
C131 C129 1.363 . S
C131 C133 1.408 . S
C131 C136 1.342 . S
C132 C133 1.310 . S
C132 C135 1.461 . S
C132 H152 0.932 . S
C133 C131 1.408 . S
C133 C132 1.310 . S
C133 H153 0.930 . S
C134 C135 1.474 . S
C134 C136 1.285 . S
C134 H154 0.929 . S
C135 C132 1.461 . S
C135 C134 1.474 . S
C136 C131 1.342 . S
C136 C134 1.285 . S
C136 H155 0.930 . S
C137 C140 1.424 . S
C137 C142 1.245 . S
C137 C143 1.428 . S
C138 C141 1.260 . S
C138 C142 1.477 . S
C138 H156 0.932 . S
C139 C140 1.384 . S
C139 C141 1.479 . S
C139 H157 0.929 . S
C140 C137 1.424 . S
C140 C139 1.384 . S
C140 H158 0.928 . S
C141 C138 1.260 . S
C141 C139 1.479 . S
C142 C137 1.245 . S
C142 C138 1.477 . S
C142 H159 0.932 . S
C143 U126 2.882 . S
C143 C137 1.428 . S
C143 O146 1.301 . S
C143 O147 1.282 . S
O144 U126 2.441 . S
O144 C130 1.249 . S
O145 U126 2.420 . S
O145 C130 1.202 . S
O146 U126 2.455 . S
O146 C143 1.301 . S
O147 U126 2.449 . S
O147 C143 1.282 . S
H148 C121 0.931 . S
H149 C123 0.929 . S
H150 C124 0.930 . S
H151 C125 0.931 . S
H152 C132 0.932 . S
H153 C133 0.930 . S
H154 C134 0.929 . S
H155 C136 0.930 . S
H156 C138 0.932 . S
H157 C139 0.929 . S
H158 C140 0.928 . S
H159 C142 0.932 . S
C160 C161 1.264 . S
C160 C165 1.479 . S
C160 C170 1.465 . S
C161 C160 1.264 . S
C161 C163 1.339 . S
C161 H188 0.931 . S
C162 C163 1.395 . S
C162 C164 1.320 . S
C163 C161 1.339 . S
C163 C162 1.395 . S
C163 H189 0.929 . S
C164 C162 1.320 . S
C164 C165 1.405 . S
C164 H190 0.930 . S
C165 C160 1.479 . S
C165 C164 1.405 . S
C165 H191 0.931 . S
U166 O167 2.454 . S
U166 O168 2.458 . S
U166 C169 2.984 . S
U166 C170 2.847 . S
U166 C183 2.882 . S
U166 O184 2.441 . S
U166 O185 2.420 . S
U166 O186 2.455 . S
U166 O187 2.449 . S
O167 U166 2.454 . S
O167 C169 1.353 . S
O168 U166 2.458 . S
O168 C169 1.286 . S
C169 U166 2.984 . S
C169 O167 1.353 . S
C169 O168 1.286 . S
C169 C171 1.363 . S
C170 C160 1.465 . S
C170 U166 2.847 . S
C170 O184 1.249 . S
C170 O185 1.202 . S
C171 C169 1.363 . S
C171 C173 1.408 . S
C171 C176 1.342 . S
C172 C173 1.310 . S
C172 C175 1.461 . S
C172 H192 0.932 . S
C173 C171 1.408 . S
C173 C172 1.310 . S
C173 H193 0.930 . S
C174 C175 1.474 . S
C174 C176 1.285 . S
C174 H194 0.929 . S
C175 C172 1.461 . S
C175 C174 1.474 . S
C176 C171 1.342 . S
C176 C174 1.285 . S
C176 H195 0.930 . S
C177 C180 1.424 . S
C177 C182 1.245 . S
C177 C183 1.428 . S
C178 C181 1.260 . S
C178 C182 1.477 . S
C178 H196 0.932 . S
C179 C180 1.384 . S
C179 C181 1.479 . S
C179 H197 0.929 . S
C180 C177 1.424 . S
C180 C179 1.384 . S
C180 H198 0.928 . S
C181 C178 1.260 . S
C181 C179 1.479 . S
C182 C177 1.245 . S
C182 C178 1.477 . S
C182 H199 0.932 . S
C183 U166 2.882 . S
C183 C177 1.428 . S
C183 O186 1.301 . S
C183 O187 1.282 . S
O184 U166 2.441 . S
O184 C170 1.249 . S
O185 U166 2.420 . S
O185 C170 1.202 . S
O186 U166 2.455 . S
O186 C183 1.301 . S
O187 U166 2.449 . S
O187 C183 1.282 . S
H188 C161 0.931 . S
H189 C163 0.929 . S
H190 C164 0.930 . S
H191 C165 0.931 . S
H192 C172 0.932 . S
H193 C173 0.930 . S
H194 C174 0.929 . S
H195 C176 0.930 . S
H196 C178 0.932 . S
H197 C179 0.929 . S
H198 C180 0.928 . S
H199 C182 0.932 . S
C200 C201 1.264 . S
C200 C205 1.479 . S
C200 C210 1.465 . S
C201 C200 1.264 . S
C201 C203 1.339 . S
C201 H228 0.931 . S
C202 C203 1.395 . S
C202 C204 1.320 . S
C203 C201 1.339 . S
C203 C202 1.395 . S
C203 H229 0.929 . S
C204 C202 1.320 . S
C204 C205 1.405 . S
C204 H230 0.930 . S
C205 C200 1.479 . S
C205 C204 1.405 . S
C205 H231 0.931 . S
U206 O207 2.454 . S
U206 O208 2.458 . S
U206 C209 2.984 . S
U206 C210 2.847 . S
U206 C223 2.882 . S
U206 O224 2.441 . S
U206 O225 2.420 . S
U206 O226 2.455 . S
U206 O227 2.449 . S
O207 U206 2.454 . S
O207 C209 1.353 . S
O208 U206 2.458 . S
O208 C209 1.286 . S
C209 U206 2.984 . S
C209 O207 1.353 . S
C209 O208 1.286 . S
C209 C211 1.363 . S
C210 C200 1.465 . S
C210 U206 2.847 . S
C210 O224 1.249 . S
C210 O225 1.202 . S
C211 C209 1.363 . S
C211 C213 1.408 . S
C211 C216 1.342 . S
C212 C213 1.310 . S
C212 C215 1.461 . S
C212 H232 0.932 . S
C213 C211 1.408 . S
C213 C212 1.310 . S
C213 H233 0.930 . S
C214 C215 1.474 . S
C214 C216 1.285 . S
C214 H234 0.929 . S
C215 C212 1.461 . S
C215 C214 1.474 . S
C216 C211 1.342 . S
C216 C214 1.285 . S
C216 H235 0.930 . S
C217 C220 1.424 . S
C217 C222 1.245 . S
C217 C223 1.428 . S
C218 C221 1.260 . S
C218 C222 1.477 . S
C218 H236 0.932 . S
C219 C220 1.384 . S
C219 C221 1.479 . S
C219 H237 0.929 . S
C220 C217 1.424 . S
C220 C219 1.384 . S
C220 H238 0.928 . S
C221 C218 1.260 . S
C221 C219 1.479 . S
C222 C217 1.245 . S
C222 C218 1.477 . S
C222 H239 0.932 . S
C223 U206 2.882 . S
C223 C217 1.428 . S
C223 O226 1.301 . S
C223 O227 1.282 . S
O224 U206 2.441 . S
O224 C210 1.249 . S
O225 U206 2.420 . S
O225 C210 1.202 . S
O226 U206 2.455 . S
O226 C223 1.301 . S
O227 U206 2.449 . S
O227 C223 1.282 . S
H228 C201 0.931 . S
H229 C203 0.929 . S
H230 C204 0.930 . S
H231 C205 0.931 . S
H232 C212 0.932 . S
H233 C213 0.930 . S
H234 C214 0.929 . S
H235 C216 0.930 . S
H236 C218 0.932 . S
H237 C219 0.929 . S
H238 C220 0.928 . S
H239 C222 0.932 . S
C240 C241 1.264 . S
C240 C245 1.479 . S
C240 C250 1.465 . S
C241 C240 1.264 . S
C241 C243 1.339 . S
C241 H268 0.931 . S
C242 C243 1.395 . S
C242 C244 1.320 . S
C243 C241 1.339 . S
C243 C242 1.395 . S
C243 H269 0.929 . S
C244 C242 1.320 . S
C244 C245 1.405 . S
C244 H270 0.930 . S
C245 C240 1.479 . S
C245 C244 1.405 . S
C245 H271 0.931 . S
U246 O247 2.454 . S
U246 O248 2.458 . S
U246 C249 2.984 . S
U246 C250 2.847 . S
U246 C263 2.882 . S
U246 O264 2.441 . S
U246 O265 2.420 . S
U246 O266 2.455 . S
U246 O267 2.449 . S
O247 U246 2.454 . S
O247 C249 1.353 . S
O248 U246 2.458 . S
O248 C249 1.286 . S
C249 U246 2.984 . S
C249 O247 1.353 . S
C249 O248 1.286 . S
C249 C251 1.363 . S
C250 C240 1.465 . S
C250 U246 2.847 . S
C250 O264 1.249 . S
C250 O265 1.202 . S
C251 C249 1.363 . S
C251 C253 1.408 . S
C251 C256 1.342 . S
C252 C253 1.310 . S
C252 C255 1.461 . S
C252 H272 0.932 . S
C253 C251 1.408 . S
C253 C252 1.310 . S
C253 H273 0.930 . S
C254 C255 1.474 . S
C254 C256 1.285 . S
C254 H274 0.929 . S
C255 C252 1.461 . S
C255 C254 1.474 . S
C256 C251 1.342 . S
C256 C254 1.285 . S
C256 H275 0.930 . S
C257 C260 1.424 . S
C257 C262 1.245 . S
C257 C263 1.428 . S
C258 C261 1.260 . S
C258 C262 1.477 . S
C258 H276 0.932 . S
C259 C260 1.384 . S
C259 C261 1.479 . S
C259 H277 0.929 . S
C260 C257 1.424 . S
C260 C259 1.384 . S
C260 H278 0.928 . S
C261 C258 1.260 . S
C261 C259 1.479 . S
C262 C257 1.245 . S
C262 C258 1.477 . S
C262 H279 0.932 . S
C263 U246 2.882 . S
C263 C257 1.428 . S
C263 O266 1.301 . S
C263 O267 1.282 . S
O264 U246 2.441 . S
O264 C250 1.249 . S
O265 U246 2.420 . S
O265 C250 1.202 . S
O266 U246 2.455 . S
O266 C263 1.301 . S
O267 U246 2.449 . S
O267 C263 1.282 . S
H268 C241 0.931 . S
H269 C243 0.929 . S
H270 C244 0.930 . S
H271 C245 0.931 . S
H272 C252 0.932 . S
H273 C253 0.930 . S
H274 C254 0.929 . S
H275 C256 0.930 . S
H276 C258 0.932 . S
H277 C259 0.929 . S
H278 C260 0.928 . S
H279 C262 0.932 . S
C280 C281 1.264 . S
C280 C285 1.479 . S
C280 C290 1.465 . S
C281 C280 1.264 . S
C281 C283 1.339 . S
C281 H308 0.931 . S
C282 C283 1.395 . S
C282 C284 1.320 . S
C283 C281 1.339 . S
C283 C282 1.395 . S
C283 H309 0.929 . S
C284 C282 1.320 . S
C284 C285 1.405 . S
C284 H310 0.930 . S
C285 C280 1.479 . S
C285 C284 1.405 . S
C285 H311 0.931 . S
U286 O287 2.454 . S
U286 O288 2.458 . S
U286 C289 2.984 . S
U286 C290 2.847 . S
U286 C303 2.882 . S
U286 O304 2.441 . S
U286 O305 2.420 . S
U286 O306 2.455 . S
U286 O307 2.449 . S
O287 U286 2.454 . S
O287 C289 1.353 . S
O288 U286 2.458 . S
O288 C289 1.286 . S
C289 U286 2.984 . S
C289 O287 1.353 . S
C289 O288 1.286 . S
C289 C291 1.363 . S
C290 C280 1.465 . S
C290 U286 2.847 . S
C290 O304 1.249 . S
C290 O305 1.202 . S
C291 C289 1.363 . S
C291 C293 1.408 . S
C291 C296 1.342 . S
C292 C293 1.310 . S
C292 C295 1.461 . S
C292 H312 0.932 . S
C293 C291 1.408 . S
C293 C292 1.310 . S
C293 H313 0.930 . S
C294 C295 1.474 . S
C294 C296 1.285 . S
C294 H314 0.929 . S
C295 C292 1.461 . S
C295 C294 1.474 . S
C296 C291 1.342 . S
C296 C294 1.285 . S
C296 H315 0.930 . S
C297 C300 1.424 . S
C297 C302 1.245 . S
C297 C303 1.428 . S
C298 C301 1.260 . S
C298 C302 1.477 . S
C298 H316 0.932 . S
C299 C300 1.384 . S
C299 C301 1.479 . S
C299 H317 0.929 . S
C300 C297 1.424 . S
C300 C299 1.384 . S
C300 H318 0.928 . S
C301 C298 1.260 . S
C301 C299 1.479 . S
C302 C297 1.245 . S
C302 C298 1.477 . S
C302 H319 0.932 . S
C303 U286 2.882 . S
C303 C297 1.428 . S
C303 O306 1.301 . S
C303 O307 1.282 . S
O304 U286 2.441 . S
O304 C290 1.249 . S
O305 U286 2.420 . S
O305 C290 1.202 . S
O306 U286 2.455 . S
O306 C303 1.301 . S
O307 U286 2.449 . S
O307 C303 1.282 . S
H308 C281 0.931 . S
H309 C283 0.929 . S
H310 C284 0.930 . S
H311 C285 0.931 . S
H312 C292 0.932 . S
H313 C293 0.930 . S
H314 C294 0.929 . S
H315 C296 0.930 . S
H316 C298 0.932 . S
H317 C299 0.929 . S
H318 C300 0.928 . S
H319 C302 0.932 . S
C320 C321 1.264 . S
C320 C325 1.479 . S
C320 C330 1.465 . S
C321 C320 1.264 . S
C321 C323 1.339 . S
C321 H348 0.931 . S
C322 C323 1.395 . S
C322 C324 1.320 . S
C323 C321 1.339 . S
C323 C322 1.395 . S
C323 H349 0.929 . S
C324 C322 1.320 . S
C324 C325 1.405 . S
C324 H350 0.930 . S
C325 C320 1.479 . S
C325 C324 1.405 . S
C325 H351 0.931 . S
U326 O327 2.454 . S
U326 O328 2.458 . S
U326 C329 2.984 . S
U326 C330 2.847 . S
U326 C343 2.882 . S
U326 O344 2.441 . S
U326 O345 2.420 . S
U326 O346 2.455 . S
U326 O347 2.449 . S
O327 U326 2.454 . S
O327 C329 1.353 . S
O328 U326 2.458 . S
O328 C329 1.286 . S
C329 U326 2.984 . S
C329 O327 1.353 . S
C329 O328 1.286 . S
C329 C331 1.363 . S
C330 C320 1.465 . S
C330 U326 2.847 . S
C330 O344 1.249 . S
C330 O345 1.202 . S
C331 C329 1.363 . S
C331 C333 1.408 . S
C331 C336 1.342 . S
C332 C333 1.310 . S
C332 C335 1.461 . S
C332 H352 0.932 . S
C333 C331 1.408 . S
C333 C332 1.310 . S
C333 H353 0.930 . S
C334 C335 1.474 . S
C334 C336 1.285 . S
C334 H354 0.929 . S
C335 C332 1.461 . S
C335 C334 1.474 . S
C336 C331 1.342 . S
C336 C334 1.285 . S
C336 H355 0.930 . S
C337 C340 1.424 . S
C337 C342 1.245 . S
C337 C343 1.428 . S
C338 C341 1.260 . S
C338 C342 1.477 . S
C338 H356 0.932 . S
C339 C340 1.384 . S
C339 C341 1.479 . S
C339 H357 0.929 . S
C340 C337 1.424 . S
C340 C339 1.384 . S
C340 H358 0.928 . S
C341 C338 1.260 . S
C341 C339 1.479 . S
C342 C337 1.245 . S
C342 C338 1.477 . S
C342 H359 0.932 . S
C343 U326 2.882 . S
C343 C337 1.428 . S
C343 O346 1.301 . S
C343 O347 1.282 . S
O344 U326 2.441 . S
O344 C330 1.249 . S
O345 U326 2.420 . S
O345 C330 1.202 . S
O346 U326 2.455 . S
O346 C343 1.301 . S
O347 U326 2.449 . S
O347 C343 1.282 . S
H348 C321 0.931 . S
H349 C323 0.929 . S
H350 C324 0.930 . S
H351 C325 0.931 . S
H352 C332 0.932 . S
H353 C333 0.930 . S
H354 C334 0.929 . S
H355 C336 0.930 . S
H356 C338 0.932 . S
H357 C339 0.929 . S
H358 C340 0.928 . S
H359 C342 0.932 . S
C360 C361 1.264 . S
C360 C365 1.479 . S
C360 C370 1.465 . S
C361 C360 1.264 . S
C361 C363 1.339 . S
C361 H388 0.931 . S
C362 C363 1.395 . S
C362 C364 1.320 . S
C363 C361 1.339 . S
C363 C362 1.395 . S
C363 H389 0.929 . S
C364 C362 1.320 . S
C364 C365 1.405 . S
C364 H390 0.930 . S
C365 C360 1.479 . S
C365 C364 1.405 . S
C365 H391 0.931 . S
U366 O367 2.454 . S
U366 O368 2.458 . S
U366 C369 2.984 . S
U366 C370 2.847 . S
U366 C383 2.882 . S
U366 O384 2.441 . S
U366 O385 2.420 . S
U366 O386 2.455 . S
U366 O387 2.449 . S
O367 U366 2.454 . S
O367 C369 1.353 . S
O368 U366 2.458 . S
O368 C369 1.286 . S
C369 U366 2.984 . S
C369 O367 1.353 . S
C369 O368 1.286 . S
C369 C371 1.363 . S
C370 C360 1.465 . S
C370 U366 2.847 . S
C370 O384 1.249 . S
C370 O385 1.202 . S
C371 C369 1.363 . S
C371 C373 1.408 . S
C371 C376 1.342 . S
C372 C373 1.310 . S
C372 C375 1.461 . S
C372 H392 0.932 . S
C373 C371 1.408 . S
C373 C372 1.310 . S
C373 H393 0.930 . S
C374 C375 1.474 . S
C374 C376 1.285 . S
C374 H394 0.929 . S
C375 C372 1.461 . S
C375 C374 1.474 . S
C376 C371 1.342 . S
C376 C374 1.285 . S
C376 H395 0.930 . S
C377 C380 1.424 . S
C377 C382 1.245 . S
C377 C383 1.428 . S
C378 C381 1.260 . S
C378 C382 1.477 . S
C378 H396 0.932 . S
C379 C380 1.384 . S
C379 C381 1.479 . S
C379 H397 0.929 . S
C380 C377 1.424 . S
C380 C379 1.384 . S
C380 H398 0.928 . S
C381 C378 1.260 . S
C381 C379 1.479 . S
C382 C377 1.245 . S
C382 C378 1.477 . S
C382 H399 0.932 . S
C383 U366 2.882 . S
C383 C377 1.428 . S
C383 O386 1.301 . S
C383 O387 1.282 . S
O384 U366 2.441 . S
O384 C370 1.249 . S
O385 U366 2.420 . S
O385 C370 1.202 . S
O386 U366 2.455 . S
O386 C383 1.301 . S
O387 U366 2.449 . S
O387 C383 1.282 . S
H388 C361 0.931 . S
H389 C363 0.929 . S
H390 C364 0.930 . S
H391 C365 0.931 . S
H392 C372 0.932 . S
H393 C373 0.930 . S
H394 C374 0.929 . S
H395 C376 0.930 . S
H396 C378 0.932 . S
H397 C379 0.929 . S
H398 C380 0.928 . S
H399 C382 0.932 . S
C400 C401 1.264 . S
C400 C405 1.479 . S
C400 C410 1.465 . S
C401 C400 1.264 . S
C401 C403 1.339 . S
C401 H428 0.931 . S
C402 C403 1.395 . S
C402 C404 1.320 . S
C403 C401 1.339 . S
C403 C402 1.395 . S
C403 H429 0.929 . S
C404 C402 1.320 . S
C404 C405 1.405 . S
C404 H430 0.930 . S
C405 C400 1.479 . S
C405 C404 1.405 . S
C405 H431 0.931 . S
U406 O407 2.454 . S
U406 O408 2.458 . S
U406 C409 2.984 . S
U406 C410 2.847 . S
U406 C423 2.882 . S
U406 O424 2.441 . S
U406 O425 2.420 . S
U406 O426 2.455 . S
U406 O427 2.449 . S
O407 U406 2.454 . S
O407 C409 1.353 . S
O408 U406 2.458 . S
O408 C409 1.286 . S
C409 U406 2.984 . S
C409 O407 1.353 . S
C409 O408 1.286 . S
C409 C411 1.363 . S
C410 C400 1.465 . S
C410 U406 2.847 . S
C410 O424 1.249 . S
C410 O425 1.202 . S
C411 C409 1.363 . S
C411 C413 1.408 . S
C411 C416 1.342 . S
C412 C413 1.310 . S
C412 C415 1.461 . S
C412 H432 0.932 . S
C413 C411 1.408 . S
C413 C412 1.310 . S
C413 H433 0.930 . S
C414 C415 1.474 . S
C414 C416 1.285 . S
C414 H434 0.929 . S
C415 C412 1.461 . S
C415 C414 1.474 . S
C416 C411 1.342 . S
C416 C414 1.285 . S
C416 H435 0.930 . S
C417 C420 1.424 . S
C417 C422 1.245 . S
C417 C423 1.428 . S
C418 C421 1.260 . S
C418 C422 1.477 . S
C418 H436 0.932 . S
C419 C420 1.384 . S
C419 C421 1.479 . S
C419 H437 0.929 . S
C420 C417 1.424 . S
C420 C419 1.384 . S
C420 H438 0.928 . S
C421 C418 1.260 . S
C421 C419 1.479 . S
C422 C417 1.245 . S
C422 C418 1.477 . S
C422 H439 0.932 . S
C423 U406 2.882 . S
C423 C417 1.428 . S
C423 O426 1.301 . S
C423 O427 1.282 . S
O424 U406 2.441 . S
O424 C410 1.249 . S
O425 U406 2.420 . S
O425 C410 1.202 . S
O426 U406 2.455 . S
O426 C423 1.301 . S
O427 U406 2.449 . S
O427 C423 1.282 . S
H428 C401 0.931 . S
H429 C403 0.929 . S
H430 C404 0.930 . S
H431 C405 0.931 . S
H432 C412 0.932 . S
H433 C413 0.930 . S
H434 C414 0.929 . S
H435 C416 0.930 . S
H436 C418 0.932 . S
H437 C419 0.929 . S
H438 C420 0.928 . S
H439 C422 0.932 . S
C440 C441 1.264 . S
C440 C445 1.479 . S
C440 C450 1.465 . S
C441 C440 1.264 . S
C441 C443 1.339 . S
C441 H468 0.931 . S
C442 C443 1.395 . S
C442 C444 1.320 . S
C443 C441 1.339 . S
C443 C442 1.395 . S
C443 H469 0.929 . S
C444 C442 1.320 . S
C444 C445 1.405 . S
C444 H470 0.930 . S
C445 C440 1.479 . S
C445 C444 1.405 . S
C445 H471 0.931 . S
U446 O447 2.454 . S
U446 O448 2.458 . S
U446 C449 2.984 . S
U446 C450 2.847 . S
U446 C463 2.882 . S
U446 O464 2.441 . S
U446 O465 2.420 . S
U446 O466 2.455 . S
U446 O467 2.449 . S
O447 U446 2.454 . S
O447 C449 1.353 . S
O448 U446 2.458 . S
O448 C449 1.286 . S
C449 U446 2.984 . S
C449 O447 1.353 . S
C449 O448 1.286 . S
C449 C451 1.363 . S
C450 C440 1.465 . S
C450 U446 2.847 . S
C450 O464 1.249 . S
C450 O465 1.202 . S
C451 C449 1.363 . S
C451 C453 1.408 . S
C451 C456 1.342 . S
C452 C453 1.310 . S
C452 C455 1.461 . S
C452 H472 0.932 . S
C453 C451 1.408 . S
C453 C452 1.310 . S
C453 H473 0.930 . S
C454 C455 1.474 . S
C454 C456 1.285 . S
C454 H474 0.929 . S
C455 C452 1.461 . S
C455 C454 1.474 . S
C456 C451 1.342 . S
C456 C454 1.285 . S
C456 H475 0.930 . S
C457 C460 1.424 . S
C457 C462 1.245 . S
C457 C463 1.428 . S
C458 C461 1.260 . S
C458 C462 1.477 . S
C458 H476 0.932 . S
C459 C460 1.384 . S
C459 C461 1.479 . S
C459 H477 0.929 . S
C460 C457 1.424 . S
C460 C459 1.384 . S
C460 H478 0.928 . S
C461 C458 1.260 . S
C461 C459 1.479 . S
C462 C457 1.245 . S
C462 C458 1.477 . S
C462 H479 0.932 . S
C463 U446 2.882 . S
C463 C457 1.428 . S
C463 O466 1.301 . S
C463 O467 1.282 . S
O464 U446 2.441 . S
O464 C450 1.249 . S
O465 U446 2.420 . S
O465 C450 1.202 . S
O466 U446 2.455 . S
O466 C463 1.301 . S
O467 U446 2.449 . S
O467 C463 1.282 . S
H468 C441 0.931 . S
H469 C443 0.929 . S
H470 C444 0.930 . S
H471 C445 0.931 . S
H472 C452 0.932 . S
H473 C453 0.930 . S
H474 C454 0.929 . S
H475 C456 0.930 . S
H476 C458 0.932 . S
H477 C459 0.929 . S
H478 C460 0.928 . S
H479 C462 0.932 . S
C480 C481 1.264 . S
C480 C485 1.479 . S
C480 C490 1.465 . S
C481 C480 1.264 . S
C481 C483 1.339 . S
C481 H508 0.931 . S
C482 C483 1.395 . S
C482 C484 1.320 . S
C483 C481 1.339 . S
C483 C482 1.395 . S
C483 H509 0.929 . S
C484 C482 1.320 . S
C484 C485 1.405 . S
C484 H510 0.930 . S
C485 C480 1.479 . S
C485 C484 1.405 . S
C485 H511 0.931 . S
U486 O487 2.454 . S
U486 O488 2.458 . S
U486 C489 2.984 . S
U486 C490 2.847 . S
U486 C503 2.882 . S
U486 O504 2.441 . S
U486 O505 2.420 . S
U486 O506 2.455 . S
U486 O507 2.449 . S
O487 U486 2.454 . S
O487 C489 1.353 . S
O488 U486 2.458 . S
O488 C489 1.286 . S
C489 U486 2.984 . S
C489 O487 1.353 . S
C489 O488 1.286 . S
C489 C491 1.363 . S
C490 C480 1.465 . S
C490 U486 2.847 . S
C490 O504 1.249 . S
C490 O505 1.202 . S
C491 C489 1.363 . S
C491 C493 1.408 . S
C491 C496 1.342 . S
C492 C493 1.310 . S
C492 C495 1.461 . S
C492 H512 0.932 . S
C493 C491 1.408 . S
C493 C492 1.310 . S
C493 H513 0.930 . S
C494 C495 1.474 . S
C494 C496 1.285 . S
C494 H514 0.929 . S
C495 C492 1.461 . S
C495 C494 1.474 . S
C496 C491 1.342 . S
C496 C494 1.285 . S
C496 H515 0.930 . S
C497 C500 1.424 . S
C497 C502 1.245 . S
C497 C503 1.428 . S
C498 C501 1.260 . S
C498 C502 1.477 . S
C498 H516 0.932 . S
C499 C500 1.384 . S
C499 C501 1.479 . S
C499 H517 0.929 . S
C500 C497 1.424 . S
C500 C499 1.384 . S
C500 H518 0.928 . S
C501 C498 1.260 . S
C501 C499 1.479 . S
C502 C497 1.245 . S
C502 C498 1.477 . S
C502 H519 0.932 . S
C503 U486 2.882 . S
C503 C497 1.428 . S
C503 O506 1.301 . S
C503 O507 1.282 . S
O504 U486 2.441 . S
O504 C490 1.249 . S
O505 U486 2.420 . S
O505 C490 1.202 . S
O506 U486 2.455 . S
O506 C503 1.301 . S
O507 U486 2.449 . S
O507 C503 1.282 . S
H508 C481 0.931 . S
H509 C483 0.929 . S
H510 C484 0.930 . S
H511 C485 0.931 . S
H512 C492 0.932 . S
H513 C493 0.930 . S
H514 C494 0.929 . S
H515 C496 0.930 . S
H516 C498 0.932 . S
H517 C499 0.929 . S
H518 C500 0.928 . S
H519 C502 0.932 . S
C520 C521 1.264 . S
C520 C525 1.479 . S
C520 C530 1.465 . S
C521 C520 1.264 . S
C521 C523 1.339 . S
C521 H548 0.931 . S
C522 C523 1.395 . S
C522 C524 1.320 . S
C523 C521 1.339 . S
C523 C522 1.395 . S
C523 H549 0.929 . S
C524 C522 1.320 . S
C524 C525 1.405 . S
C524 H550 0.930 . S
C525 C520 1.479 . S
C525 C524 1.405 . S
C525 H551 0.931 . S
U526 O527 2.454 . S
U526 O528 2.458 . S
U526 C529 2.984 . S
U526 C530 2.847 . S
U526 C543 2.882 . S
U526 O544 2.441 . S
U526 O545 2.420 . S
U526 O546 2.455 . S
U526 O547 2.449 . S
O527 U526 2.454 . S
O527 C529 1.353 . S
O528 U526 2.458 . S
O528 C529 1.286 . S
C529 U526 2.984 . S
C529 O527 1.353 . S
C529 O528 1.286 . S
C529 C531 1.363 . S
C530 C520 1.465 . S
C530 U526 2.847 . S
C530 O544 1.249 . S
C530 O545 1.202 . S
C531 C529 1.363 . S
C531 C533 1.408 . S
C531 C536 1.342 . S
C532 C533 1.310 . S
C532 C535 1.461 . S
C532 H552 0.932 . S
C533 C531 1.408 . S
C533 C532 1.310 . S
C533 H553 0.930 . S
C534 C535 1.474 . S
C534 C536 1.285 . S
C534 H554 0.929 . S
C535 C532 1.461 . S
C535 C534 1.474 . S
C536 C531 1.342 . S
C536 C534 1.285 . S
C536 H555 0.930 . S
C537 C540 1.424 . S
C537 C542 1.245 . S
C537 C543 1.428 . S
C538 C541 1.260 . S
C538 C542 1.477 . S
C538 H556 0.932 . S
C539 C540 1.384 . S
C539 C541 1.479 . S
C539 H557 0.929 . S
C540 C537 1.424 . S
C540 C539 1.384 . S
C540 H558 0.928 . S
C541 C538 1.260 . S
C541 C539 1.479 . S
C542 C537 1.245 . S
C542 C538 1.477 . S
C542 H559 0.932 . S
C543 U526 2.882 . S
C543 C537 1.428 . S
C543 O546 1.301 . S
C543 O547 1.282 . S
O544 U526 2.441 . S
O544 C530 1.249 . S
O545 U526 2.420 . S
O545 C530 1.202 . S
O546 U526 2.455 . S
O546 C543 1.301 . S
O547 U526 2.449 . S
O547 C543 1.282 . S
H548 C521 0.931 . S
H549 C523 0.929 . S
H550 C524 0.930 . S
H551 C525 0.931 . S
H552 C532 0.932 . S
H553 C533 0.930 . S
H554 C534 0.929 . S
H555 C536 0.930 . S
H556 C538 0.932 . S
H557 C539 0.929 . S
H558 C540 0.928 . S
H559 C542 0.932 . S
C560 C561 1.264 . S
C560 C565 1.479 . S
C560 C570 1.465 . S
C561 C560 1.264 . S
C561 C563 1.339 . S
C561 H588 0.931 . S
C562 C563 1.395 . S
C562 C564 1.320 . S
C563 C561 1.339 . S
C563 C562 1.395 . S
C563 H589 0.929 . S
C564 C562 1.320 . S
C564 C565 1.405 . S
C564 H590 0.930 . S
C565 C560 1.479 . S
C565 C564 1.405 . S
C565 H591 0.931 . S
U566 O567 2.454 . S
U566 O568 2.458 . S
U566 C569 2.984 . S
U566 C570 2.847 . S
U566 C583 2.882 . S
U566 O584 2.441 . S
U566 O585 2.420 . S
U566 O586 2.455 . S
U566 O587 2.449 . S
O567 U566 2.454 . S
O567 C569 1.353 . S
O568 U566 2.458 . S
O568 C569 1.286 . S
C569 U566 2.984 . S
C569 O567 1.353 . S
C569 O568 1.286 . S
C569 C571 1.363 . S
C570 C560 1.465 . S
C570 U566 2.847 . S
C570 O584 1.249 . S
C570 O585 1.202 . S
C571 C569 1.363 . S
C571 C573 1.408 . S
C571 C576 1.342 . S
C572 C573 1.310 . S
C572 C575 1.461 . S
C572 H592 0.932 . S
C573 C571 1.408 . S
C573 C572 1.310 . S
C573 H593 0.930 . S
C574 C575 1.474 . S
C574 C576 1.285 . S
C574 H594 0.929 . S
C575 C572 1.461 . S
C575 C574 1.474 . S
C576 C571 1.342 . S
C576 C574 1.285 . S
C576 H595 0.930 . S
C577 C580 1.424 . S
C577 C582 1.245 . S
C577 C583 1.428 . S
C578 C581 1.260 . S
C578 C582 1.477 . S
C578 H596 0.932 . S
C579 C580 1.384 . S
C579 C581 1.479 . S
C579 H597 0.929 . S
C580 C577 1.424 . S
C580 C579 1.384 . S
C580 H598 0.928 . S
C581 C578 1.260 . S
C581 C579 1.479 . S
C582 C577 1.245 . S
C582 C578 1.477 . S
C582 H599 0.932 . S
C583 U566 2.882 . S
C583 C577 1.428 . S
C583 O586 1.301 . S
C583 O587 1.282 . S
O584 U566 2.441 . S
O584 C570 1.249 . S
O585 U566 2.420 . S
O585 C570 1.202 . S
O586 U566 2.455 . S
O586 C583 1.301 . S
O587 U566 2.449 . S
O587 C583 1.282 . S
H588 C561 0.931 . S
H589 C563 0.929 . S
H590 C564 0.930 . S
H591 C565 0.931 . S
H592 C572 0.932 . S
H593 C573 0.930 . S
H594 C574 0.929 . S
H595 C576 0.930 . S
H596 C578 0.932 . S
H597 C579 0.929 . S
H598 C580 0.928 . S
H599 C582 0.932 . S
C600 C601 1.264 . S
C600 C605 1.479 . S
C600 C610 1.465 . S
C601 C600 1.264 . S
C601 C603 1.339 . S
C601 H628 0.931 . S
C602 C603 1.395 . S
C602 C604 1.320 . S
C603 C601 1.339 . S
C603 C602 1.395 . S
C603 H629 0.929 . S
C604 C602 1.320 . S
C604 C605 1.405 . S
C604 H630 0.930 . S
C605 C600 1.479 . S
C605 C604 1.405 . S
C605 H631 0.931 . S
U606 O607 2.454 . S
U606 O608 2.458 . S
U606 C609 2.984 . S
U606 C610 2.847 . S
U606 C623 2.882 . S
U606 O624 2.441 . S
U606 O625 2.420 . S
U606 O626 2.455 . S
U606 O627 2.449 . S
O607 U606 2.454 . S
O607 C609 1.353 . S
O608 U606 2.458 . S
O608 C609 1.286 . S
C609 U606 2.984 . S
C609 O607 1.353 . S
C609 O608 1.286 . S
C609 C611 1.363 . S
C610 C600 1.465 . S
C610 U606 2.847 . S
C610 O624 1.249 . S
C610 O625 1.202 . S
C611 C609 1.363 . S
C611 C613 1.408 . S
C611 C616 1.342 . S
C612 C613 1.310 . S
C612 C615 1.461 . S
C612 H632 0.932 . S
C613 C611 1.408 . S
C613 C612 1.310 . S
C613 H633 0.930 . S
C614 C615 1.474 . S
C614 C616 1.285 . S
C614 H634 0.929 . S
C615 C612 1.461 . S
C615 C614 1.474 . S
C616 C611 1.342 . S
C616 C614 1.285 . S
C616 H635 0.930 . S
C617 C620 1.424 . S
C617 C622 1.245 . S
C617 C623 1.428 . S
C618 C621 1.260 . S
C618 C622 1.477 . S
C618 H636 0.932 . S
C619 C620 1.384 . S
C619 C621 1.479 . S
C619 H637 0.929 . S
C620 C617 1.424 . S
C620 C619 1.384 . S
C620 H638 0.928 . S
C621 C618 1.260 . S
C621 C619 1.479 . S
C622 C617 1.245 . S
C622 C618 1.477 . S
C622 H639 0.932 . S
C623 U606 2.882 . S
C623 C617 1.428 . S
C623 O626 1.301 . S
C623 O627 1.282 . S
O624 U606 2.441 . S
O624 C610 1.249 . S
O625 U606 2.420 . S
O625 C610 1.202 . S
O626 U606 2.455 . S
O626 C623 1.301 . S
O627 U606 2.449 . S
O627 C623 1.282 . S
H628 C601 0.931 . S
H629 C603 0.929 . S
H630 C604 0.930 . S
H631 C605 0.931 . S
H632 C612 0.932 . S
H633 C613 0.930 . S
H634 C614 0.929 . S
H635 C616 0.930 . S
H636 C618 0.932 . S
H637 C619 0.929 . S
H638 C620 0.928 . S
H639 C622 0.932 . S
C640 C641 1.264 . S
C640 C645 1.479 . S
C640 C650 1.465 . S
C641 C640 1.264 . S
C641 C643 1.339 . S
C641 H668 0.931 . S
C642 C643 1.395 . S
C642 C644 1.320 . S
C643 C641 1.339 . S
C643 C642 1.395 . S
C643 H669 0.929 . S
C644 C642 1.320 . S
C644 C645 1.405 . S
C644 H670 0.930 . S
C645 C640 1.479 . S
C645 C644 1.405 . S
C645 H671 0.931 . S
U646 O647 2.454 . S
U646 O648 2.458 . S
U646 C649 2.984 . S
U646 C650 2.847 . S
U646 C663 2.882 . S
U646 O664 2.441 . S
U646 O665 2.420 . S
U646 O666 2.455 . S
U646 O667 2.449 . S
O647 U646 2.454 . S
O647 C649 1.353 . S
O648 U646 2.458 . S
O648 C649 1.286 . S
C649 U646 2.984 . S
C649 O647 1.353 . S
C649 O648 1.286 . S
C649 C651 1.363 . S
C650 C640 1.465 . S
C650 U646 2.847 . S
C650 O664 1.249 . S
C650 O665 1.202 . S
C651 C649 1.363 . S
C651 C653 1.408 . S
C651 C656 1.342 . S
C652 C653 1.310 . S
C652 C655 1.461 . S
C652 H672 0.932 . S
C653 C651 1.408 . S
C653 C652 1.310 . S
C653 H673 0.930 . S
C654 C655 1.474 . S
C654 C656 1.285 . S
C654 H674 0.929 . S
C655 C652 1.461 . S
C655 C654 1.474 . S
C656 C651 1.342 . S
C656 C654 1.285 . S
C656 H675 0.930 . S
C657 C660 1.424 . S
C657 C662 1.245 . S
C657 C663 1.428 . S
C658 C661 1.260 . S
C658 C662 1.477 . S
C658 H676 0.932 . S
C659 C660 1.384 . S
C659 C661 1.479 . S
C659 H677 0.929 . S
C660 C657 1.424 . S
C660 C659 1.384 . S
C660 H678 0.928 . S
C661 C658 1.260 . S
C661 C659 1.479 . S
C662 C657 1.245 . S
C662 C658 1.477 . S
C662 H679 0.932 . S
C663 U646 2.882 . S
C663 C657 1.428 . S
C663 O666 1.301 . S
C663 O667 1.282 . S
O664 U646 2.441 . S
O664 C650 1.249 . S
O665 U646 2.420 . S
O665 C650 1.202 . S
O666 U646 2.455 . S
O666 C663 1.301 . S
O667 U646 2.449 . S
O667 C663 1.282 . S
H668 C641 0.931 . S
H669 C643 0.929 . S
H670 C644 0.930 . S
H671 C645 0.931 . S
H672 C652 0.932 . S
H673 C653 0.930 . S
H674 C654 0.929 . S
H675 C656 0.930 . S
H676 C658 0.932 . S
H677 C659 0.929 . S
H678 C660 0.928 . S
H679 C662 0.932 . S
C680 C681 1.264 . S
C680 C685 1.479 . S
C680 C690 1.465 . S
C681 C680 1.264 . S
C681 C683 1.339 . S
C681 H708 0.931 . S
C682 C683 1.395 . S
C682 C684 1.320 . S
C683 C681 1.339 . S
C683 C682 1.395 . S
C683 H709 0.929 . S
C684 C682 1.320 . S
C684 C685 1.405 . S
C684 H710 0.930 . S
C685 C680 1.479 . S
C685 C684 1.405 . S
C685 H711 0.931 . S
U686 O687 2.454 . S
U686 O688 2.458 . S
U686 C689 2.984 . S
U686 C690 2.847 . S
U686 C703 2.882 . S
U686 O704 2.441 . S
U686 O705 2.420 . S
U686 O706 2.455 . S
U686 O707 2.449 . S
O687 U686 2.454 . S
O687 C689 1.353 . S
O688 U686 2.458 . S
O688 C689 1.286 . S
C689 U686 2.984 . S
C689 O687 1.353 . S
C689 O688 1.286 . S
C689 C691 1.363 . S
C690 C680 1.465 . S
C690 U686 2.847 . S
C690 O704 1.249 . S
C690 O705 1.202 . S
C691 C689 1.363 . S
C691 C693 1.408 . S
C691 C696 1.342 . S
C692 C693 1.310 . S
C692 C695 1.461 . S
C692 H712 0.932 . S
C693 C691 1.408 . S
C693 C692 1.310 . S
C693 H713 0.930 . S
C694 C695 1.474 . S
C694 C696 1.285 . S
C694 H714 0.929 . S
C695 C692 1.461 . S
C695 C694 1.474 . S
C696 C691 1.342 . S
C696 C694 1.285 . S
C696 H715 0.930 . S
C697 C700 1.424 . S
C697 C702 1.245 . S
C697 C703 1.428 . S
C698 C701 1.260 . S
C698 C702 1.477 . S
C698 H716 0.932 . S
C699 C700 1.384 . S
C699 C701 1.479 . S
C699 H717 0.929 . S
C700 C697 1.424 . S
C700 C699 1.384 . S
C700 H718 0.928 . S
C701 C698 1.260 . S
C701 C699 1.479 . S
C702 C697 1.245 . S
C702 C698 1.477 . S
C702 H719 0.932 . S
C703 U686 2.882 . S
C703 C697 1.428 . S
C703 O706 1.301 . S
C703 O707 1.282 . S
O704 U686 2.441 . S
O704 C690 1.249 . S
O705 U686 2.420 . S
O705 C690 1.202 . S
O706 U686 2.455 . S
O706 C703 1.301 . S
O707 U686 2.449 . S
O707 C703 1.282 . S
H708 C681 0.931 . S
H709 C683 0.929 . S
H710 C684 0.930 . S
H711 C685 0.931 . S
H712 C692 0.932 . S
H713 C693 0.930 . S
H714 C694 0.929 . S
H715 C696 0.930 . S
H716 C698 0.932 . S
H717 C699 0.929 . S
H718 C700 0.928 . S
H719 C702 0.932 . S
C720 C721 1.264 . S
C720 C725 1.479 . S
C720 C730 1.465 . S
C721 C720 1.264 . S
C721 C723 1.339 . S
C721 H748 0.931 . S
C722 C723 1.395 . S
C722 C724 1.320 . S
C723 C721 1.339 . S
C723 C722 1.395 . S
C723 H749 0.929 . S
C724 C722 1.320 . S
C724 C725 1.405 . S
C724 H750 0.930 . S
C725 C720 1.479 . S
C725 C724 1.405 . S
C725 H751 0.931 . S
U726 O727 2.454 . S
U726 O728 2.458 . S
U726 C729 2.984 . S
U726 C730 2.847 . S
U726 C743 2.882 . S
U726 O744 2.441 . S
U726 O745 2.420 . S
U726 O746 2.455 . S
U726 O747 2.449 . S
O727 U726 2.454 . S
O727 C729 1.353 . S
O728 U726 2.458 . S
O728 C729 1.286 . S
C729 U726 2.984 . S
C729 O727 1.353 . S
C729 O728 1.286 . S
C729 C731 1.363 . S
C730 C720 1.465 . S
C730 U726 2.847 . S
C730 O744 1.249 . S
C730 O745 1.202 . S
C731 C729 1.363 . S
C731 C733 1.408 . S
C731 C736 1.342 . S
C732 C733 1.310 . S
C732 C735 1.461 . S
C732 H752 0.932 . S
C733 C731 1.408 . S
C733 C732 1.310 . S
C733 H753 0.930 . S
C734 C735 1.474 . S
C734 C736 1.285 . S
C734 H754 0.929 . S
C735 C732 1.461 . S
C735 C734 1.474 . S
C736 C731 1.342 . S
C736 C734 1.285 . S
C736 H755 0.930 . S
C737 C740 1.424 . S
C737 C742 1.245 . S
C737 C743 1.428 . S
C738 C741 1.260 . S
C738 C742 1.477 . S
C738 H756 0.932 . S
C739 C740 1.384 . S
C739 C741 1.479 . S
C739 H757 0.929 . S
C740 C737 1.424 . S
C740 C739 1.384 . S
C740 H758 0.928 . S
C741 C738 1.260 . S
C741 C739 1.479 . S
C742 C737 1.245 . S
C742 C738 1.477 . S
C742 H759 0.932 . S
C743 U726 2.882 . S
C743 C737 1.428 . S
C743 O746 1.301 . S
C743 O747 1.282 . S
O744 U726 2.441 . S
O744 C730 1.249 . S
O745 U726 2.420 . S
O745 C730 1.202 . S
O746 U726 2.455 . S
O746 C743 1.301 . S
O747 U726 2.449 . S
O747 C743 1.282 . S
H748 C721 0.931 . S
H749 C723 0.929 . S
H750 C724 0.930 . S
H751 C725 0.931 . S
H752 C732 0.932 . S
H753 C733 0.930 . S
H754 C734 0.929 . S
H755 C736 0.930 . S
H756 C738 0.932 . S
H757 C739 0.929 . S
H758 C740 0.928 . S
H759 C742 0.932 . S
C760 C761 1.264 . S
C760 C765 1.479 . S
C760 C770 1.465 . S
C761 C760 1.264 . S
C761 C763 1.339 . S
C761 H788 0.931 . S
C762 C763 1.395 . S
C762 C764 1.320 . S
C763 C761 1.339 . S
C763 C762 1.395 . S
C763 H789 0.929 . S
C764 C762 1.320 . S
C764 C765 1.405 . S
C764 H790 0.930 . S
C765 C760 1.479 . S
C765 C764 1.405 . S
C765 H791 0.931 . S
U766 O767 2.454 . S
U766 O768 2.458 . S
U766 C769 2.984 . S
U766 C770 2.847 . S
U766 C783 2.882 . S
U766 O784 2.441 . S
U766 O785 2.420 . S
U766 O786 2.455 . S
U766 O787 2.449 . S
O767 U766 2.454 . S
O767 C769 1.353 . S
O768 U766 2.458 . S
O768 C769 1.286 . S
C769 U766 2.984 . S
C769 O767 1.353 . S
C769 O768 1.286 . S
C769 C771 1.363 . S
C770 C760 1.465 . S
C770 U766 2.847 . S
C770 O784 1.249 . S
C770 O785 1.202 . S
C771 C769 1.363 . S
C771 C773 1.408 . S
C771 C776 1.342 . S
C772 C773 1.310 . S
C772 C775 1.461 . S
C772 H792 0.932 . S
C773 C771 1.408 . S
C773 C772 1.310 . S
C773 H793 0.930 . S
C774 C775 1.474 . S
C774 C776 1.285 . S
C774 H794 0.929 . S
C775 C772 1.461 . S
C775 C774 1.474 . S
C776 C771 1.342 . S
C776 C774 1.285 . S
C776 H795 0.930 . S
C777 C780 1.424 . S
C777 C782 1.245 . S
C777 C783 1.428 . S
C778 C781 1.260 . S
C778 C782 1.477 . S
C778 H796 0.932 . S
C779 C780 1.384 . S
C779 C781 1.479 . S
C779 H797 0.929 . S
C780 C777 1.424 . S
C780 C779 1.384 . S
C780 H798 0.928 . S
C781 C778 1.260 . S
C781 C779 1.479 . S
C782 C777 1.245 . S
C782 C778 1.477 . S
C782 H799 0.932 . S
C783 U766 2.882 . S
C783 C777 1.428 . S
C783 O786 1.301 . S
C783 O787 1.282 . S
O784 U766 2.441 . S
O784 C770 1.249 . S
O785 U766 2.420 . S
O785 C770 1.202 . S
O786 U766 2.455 . S
O786 C783 1.301 . S
O787 U766 2.449 . S
O787 C783 1.282 . S
H788 C761 0.931 . S
H789 C763 0.929 . S
H790 C764 0.930 . S
H791 C765 0.931 . S
H792 C772 0.932 . S
H793 C773 0.930 . S
H794 C774 0.929 . S
H795 C776 0.930 . S
H796 C778 0.932 . S
H797 C779 0.929 . S
H798 C780 0.928 . S
H799 C782 0.932 . S
C800 C801 1.264 . S
C800 C805 1.479 . S
C800 C810 1.465 . S
C801 C800 1.264 . S
C801 C803 1.339 . S
C801 H828 0.931 . S
C802 C803 1.395 . S
C802 C804 1.320 . S
C803 C801 1.339 . S
C803 C802 1.395 . S
C803 H829 0.929 . S
C804 C802 1.320 . S
C804 C805 1.405 . S
C804 H830 0.930 . S
C805 C800 1.479 . S
C805 C804 1.405 . S
C805 H831 0.931 . S
U806 O807 2.454 . S
U806 O808 2.458 . S
U806 C809 2.984 . S
U806 C810 2.847 . S
U806 C823 2.882 . S
U806 O824 2.441 . S
U806 O825 2.420 . S
U806 O826 2.455 . S
U806 O827 2.449 . S
O807 U806 2.454 . S
O807 C809 1.353 . S
O808 U806 2.458 . S
O808 C809 1.286 . S
C809 U806 2.984 . S
C809 O807 1.353 . S
C809 O808 1.286 . S
C809 C811 1.363 . S
C810 C800 1.465 . S
C810 U806 2.847 . S
C810 O824 1.249 . S
C810 O825 1.202 . S
C811 C809 1.363 . S
C811 C813 1.408 . S
C811 C816 1.342 . S
C812 C813 1.310 . S
C812 C815 1.461 . S
C812 H832 0.932 . S
C813 C811 1.408 . S
C813 C812 1.310 . S
C813 H833 0.930 . S
C814 C815 1.474 . S
C814 C816 1.285 . S
C814 H834 0.929 . S
C815 C812 1.461 . S
C815 C814 1.474 . S
C816 C811 1.342 . S
C816 C814 1.285 . S
C816 H835 0.930 . S
C817 C820 1.424 . S
C817 C822 1.245 . S
C817 C823 1.428 . S
C818 C821 1.260 . S
C818 C822 1.477 . S
C818 H836 0.932 . S
C819 C820 1.384 . S
C819 C821 1.479 . S
C819 H837 0.929 . S
C820 C817 1.424 . S
C820 C819 1.384 . S
C820 H838 0.928 . S
C821 C818 1.260 . S
C821 C819 1.479 . S
C822 C817 1.245 . S
C822 C818 1.477 . S
C822 H839 0.932 . S
C823 U806 2.882 . S
C823 C817 1.428 . S
C823 O826 1.301 . S
C823 O827 1.282 . S
O824 U806 2.441 . S
O824 C810 1.249 . S
O825 U806 2.420 . S
O825 C810 1.202 . S
O826 U806 2.455 . S
O826 C823 1.301 . S
O827 U806 2.449 . S
O827 C823 1.282 . S
H828 C801 0.931 . S
H829 C803 0.929 . S
H830 C804 0.930 . S
H831 C805 0.931 . S
H832 C812 0.932 . S
H833 C813 0.930 . S
H834 C814 0.929 . S
H835 C816 0.930 . S
H836 C818 0.932 . S
H837 C819 0.929 . S
H838 C820 0.928 . S
H839 C822 0.932 . S
C840 C841 1.264 . S
C840 C845 1.479 . S
C840 C850 1.465 . S
C841 C840 1.264 . S
C841 C843 1.339 . S
C841 H868 0.931 . S
C842 C843 1.395 . S
C842 C844 1.320 . S
C843 C841 1.339 . S
C843 C842 1.395 . S
C843 H869 0.929 . S
C844 C842 1.320 . S
C844 C845 1.405 . S
C844 H870 0.930 . S
C845 C840 1.479 . S
C845 C844 1.405 . S
C845 H871 0.931 . S
U846 O847 2.454 . S
U846 O848 2.458 . S
U846 C849 2.984 . S
U846 C850 2.847 . S
U846 C863 2.882 . S
U846 O864 2.441 . S
U846 O865 2.420 . S
U846 O866 2.455 . S
U846 O867 2.449 . S
O847 U846 2.454 . S
O847 C849 1.353 . S
O848 U846 2.458 . S
O848 C849 1.286 . S
C849 U846 2.984 . S
C849 O847 1.353 . S
C849 O848 1.286 . S
C849 C851 1.363 . S
C850 C840 1.465 . S
C850 U846 2.847 . S
C850 O864 1.249 . S
C850 O865 1.202 . S
C851 C849 1.363 . S
C851 C853 1.408 . S
C851 C856 1.342 . S
C852 C853 1.310 . S
C852 C855 1.461 . S
C852 H872 0.932 . S
C853 C851 1.408 . S
C853 C852 1.310 . S
C853 H873 0.930 . S
C854 C855 1.474 . S
C854 C856 1.285 . S
C854 H874 0.929 . S
C855 C852 1.461 . S
C855 C854 1.474 . S
C856 C851 1.342 . S
C856 C854 1.285 . S
C856 H875 0.930 . S
C857 C860 1.424 . S
C857 C862 1.245 . S
C857 C863 1.428 . S
C858 C861 1.260 . S
C858 C862 1.477 . S
C858 H876 0.932 . S
C859 C860 1.384 . S
C859 C861 1.479 . S
C859 H877 0.929 . S
C860 C857 1.424 . S
C860 C859 1.384 . S
C860 H878 0.928 . S
C861 C858 1.260 . S
C861 C859 1.479 . S
C862 C857 1.245 . S
C862 C858 1.477 . S
C862 H879 0.932 . S
C863 U846 2.882 . S
C863 C857 1.428 . S
C863 O866 1.301 . S
C863 O867 1.282 . S
O864 U846 2.441 . S
O864 C850 1.249 . S
O865 U846 2.420 . S
O865 C850 1.202 . S
O866 U846 2.455 . S
O866 C863 1.301 . S
O867 U846 2.449 . S
O867 C863 1.282 . S
H868 C841 0.931 . S
H869 C843 0.929 . S
H870 C844 0.930 . S
H871 C845 0.931 . S
H872 C852 0.932 . S
H873 C853 0.930 . S
H874 C854 0.929 . S
H875 C856 0.930 . S
H876 C858 0.932 . S
H877 C859 0.929 . S
H878 C860 0.928 . S
H879 C862 0.932 . S
C880 C881 1.264 . S
C880 C885 1.479 . S
C880 C890 1.465 . S
C881 C880 1.264 . S
C881 C883 1.339 . S
C881 H908 0.931 . S
C882 C883 1.395 . S
C882 C884 1.320 . S
C883 C881 1.339 . S
C883 C882 1.395 . S
C883 H909 0.929 . S
C884 C882 1.320 . S
C884 C885 1.405 . S
C884 H910 0.930 . S
C885 C880 1.479 . S
C885 C884 1.405 . S
C885 H911 0.931 . S
U886 O887 2.454 . S
U886 O888 2.458 . S
U886 C889 2.984 . S
U886 C890 2.847 . S
U886 C903 2.882 . S
U886 O904 2.441 . S
U886 O905 2.420 . S
U886 O906 2.455 . S
U886 O907 2.449 . S
O887 U886 2.454 . S
O887 C889 1.353 . S
O888 U886 2.458 . S
O888 C889 1.286 . S
C889 U886 2.984 . S
C889 O887 1.353 . S
C889 O888 1.286 . S
C889 C891 1.363 . S
C890 C880 1.465 . S
C890 U886 2.847 . S
C890 O904 1.249 . S
C890 O905 1.202 . S
C891 C889 1.363 . S
C891 C893 1.408 . S
C891 C896 1.342 . S
C892 C893 1.310 . S
C892 C895 1.461 . S
C892 H912 0.932 . S
C893 C891 1.408 . S
C893 C892 1.310 . S
C893 H913 0.930 . S
C894 C895 1.474 . S
C894 C896 1.285 . S
C894 H914 0.929 . S
C895 C892 1.461 . S
C895 C894 1.474 . S
C896 C891 1.342 . S
C896 C894 1.285 . S
C896 H915 0.930 . S
C897 C900 1.424 . S
C897 C902 1.245 . S
C897 C903 1.428 . S
C898 C901 1.260 . S
C898 C902 1.477 . S
C898 H916 0.932 . S
C899 C900 1.384 . S
C899 C901 1.479 . S
C899 H917 0.929 . S
C900 C897 1.424 . S
C900 C899 1.384 . S
C900 H918 0.928 . S
C901 C898 1.260 . S
C901 C899 1.479 . S
C902 C897 1.245 . S
C902 C898 1.477 . S
C902 H919 0.932 . S
C903 U886 2.882 . S
C903 C897 1.428 . S
C903 O906 1.301 . S
C903 O907 1.282 . S
O904 U886 2.441 . S
O904 C890 1.249 . S
O905 U886 2.420 . S
O905 C890 1.202 . S
O906 U886 2.455 . S
O906 C903 1.301 . S
O907 U886 2.449 . S
O907 C903 1.282 . S
H908 C881 0.931 . S
H909 C883 0.929 . S
H910 C884 0.930 . S
H911 C885 0.931 . S
H912 C892 0.932 . S
H913 C893 0.930 . S
H914 C894 0.929 . S
H915 C896 0.930 . S
H916 C898 0.932 . S
H917 C899 0.929 . S
H918 C900 0.928 . S
H919 C902 0.932 . S
C920 C921 1.264 . S
C920 C925 1.479 . S
C920 C930 1.465 . S
C921 C920 1.264 . S
C921 C923 1.339 . S
C921 H948 0.931 . S
C922 C923 1.395 . S
C922 C924 1.320 . S
C923 C921 1.339 . S
C923 C922 1.395 . S
C923 H949 0.929 . S
C924 C922 1.320 . S
C924 C925 1.405 . S
C924 H950 0.930 . S
C925 C920 1.479 . S
C925 C924 1.405 . S
C925 H951 0.931 . S
U926 O927 2.454 . S
U926 O928 2.458 . S
U926 C929 2.984 . S
U926 C930 2.847 . S
U926 C943 2.882 . S
U926 O944 2.441 . S
U926 O945 2.420 . S
U926 O946 2.455 . S
U926 O947 2.449 . S
O927 U926 2.454 . S
O927 C929 1.353 . S
O928 U926 2.458 . S
O928 C929 1.286 . S
C929 U926 2.984 . S
C929 O927 1.353 . S
C929 O928 1.286 . S
C929 C931 1.363 . S
C930 C920 1.465 . S
C930 U926 2.847 . S
C930 O944 1.249 . S
C930 O945 1.202 . S
C931 C929 1.363 . S
C931 C933 1.408 . S
C931 C936 1.342 . S
C932 C933 1.310 . S
C932 C935 1.461 . S
C932 H952 0.932 . S
C933 C931 1.408 . S
C933 C932 1.310 . S
C933 H953 0.930 . S
C934 C935 1.474 . S
C934 C936 1.285 . S
C934 H954 0.929 . S
C935 C932 1.461 . S
C935 C934 1.474 . S
C936 C931 1.342 . S
C936 C934 1.285 . S
C936 H955 0.930 . S
C937 C940 1.424 . S
C937 C942 1.245 . S
C937 C943 1.428 . S
C938 C941 1.260 . S
C938 C942 1.477 . S
C938 H956 0.932 . S
C939 C940 1.384 . S
C939 C941 1.479 . S
C939 H957 0.929 . S
C940 C937 1.424 . S
C940 C939 1.384 . S
C940 H958 0.928 . S
C941 C938 1.260 . S
C941 C939 1.479 . S
C942 C937 1.245 . S
C942 C938 1.477 . S
C942 H959 0.932 . S
C943 U926 2.882 . S
C943 C937 1.428 . S
C943 O946 1.301 . S
C943 O947 1.282 . S
O944 U926 2.441 . S
O944 C930 1.249 . S
O945 U926 2.420 . S
O945 C930 1.202 . S
O946 U926 2.455 . S
O946 C943 1.301 . S
O947 U926 2.449 . S
O947 C943 1.282 . S
H948 C921 0.931 . S
H949 C923 0.929 . S
H950 C924 0.930 . S
H951 C925 0.931 . S
H952 C932 0.932 . S
H953 C933 0.930 . S
H954 C934 0.929 . S
H955 C936 0.930 . S
H956 C938 0.932 . S
H957 C939 0.929 . S
H958 C940 0.928 . S
H959 C942 0.932 . S
C960 C961 1.264 . S
C960 C965 1.479 . S
C960 C970 1.465 . S
C961 C960 1.264 . S
C961 C963 1.339 . S
C961 H988 0.931 . S
C962 C963 1.395 . S
C962 C964 1.320 . S
C963 C961 1.339 . S
C963 C962 1.395 . S
C963 H989 0.929 . S
C964 C962 1.320 . S
C964 C965 1.405 . S
C964 H990 0.930 . S
C965 C960 1.479 . S
C965 C964 1.405 . S
C965 H991 0.931 . S
U966 O967 2.454 . S
U966 O968 2.458 . S
U966 C969 2.984 . S
U966 C970 2.847 . S
U966 C983 2.882 . S
U966 O984 2.441 . S
U966 O985 2.420 . S
U966 O986 2.455 . S
U966 O987 2.449 . S
O967 U966 2.454 . S
O967 C969 1.353 . S
O968 U966 2.458 . S
O968 C969 1.286 . S
C969 U966 2.984 . S
C969 O967 1.353 . S
C969 O968 1.286 . S
C969 C971 1.363 . S
C970 C960 1.465 . S
C970 U966 2.847 . S
C970 O984 1.249 . S
C970 O985 1.202 . S
C971 C969 1.363 . S
C971 C973 1.408 . S
C971 C976 1.342 . S
C972 C973 1.310 . S
C972 C975 1.461 . S
C972 H992 0.932 . S
C973 C971 1.408 . S
C973 C972 1.310 . S
C973 H993 0.930 . S
C974 C975 1.474 . S
C974 C976 1.285 . S
C974 H994 0.929 . S
C975 C972 1.461 . S
C975 C974 1.474 . S
C976 C971 1.342 . S
C976 C974 1.285 . S
C976 H995 0.930 . S
C977 C980 1.424 . S
C977 C982 1.245 . S
C977 C983 1.428 . S
C978 C981 1.260 . S
C978 C982 1.477 . S
C978 H996 0.932 . S
C979 C980 1.384 . S
C979 C981 1.479 . S
C979 H997 0.929 . S
C980 C977 1.424 . S
C980 C979 1.384 . S
C980 H998 0.928 . S
C981 C978 1.260 . S
C981 C979 1.479 . S
C982 C977 1.245 . S
C982 C978 1.477 . S
C982 H999 0.932 . S
C983 U966 2.882 . S
C983 C977 1.428 . S
C983 O986 1.301 . S
C983 O987 1.282 . S
O984 U966 2.441 . S
O984 C970 1.249 . S
O985 U966 2.420 . S
O985 C970 1.202 . S
O986 U966 2.455 . S
O986 C983 1.301 . S
O987 U966 2.449 . S
O987 C983 1.282 . S
H988 C961 0.931 . S
H989 C963 0.929 . S
H990 C964 0.930 . S
H991 C965 0.931 . S
H992 C972 0.932 . S
H993 C973 0.930 . S
H994 C974 0.929 . S
H995 C976 0.930 . S
H996 C978 0.932 . S
H997 C979 0.929 . S
H998 C980 0.928 . S
H999 C982 0.932 . S
C1000 C1001 1.264 . S
C1000 C1005 1.479 . S
C1000 C1010 1.465 . S
C1001 C1000 1.264 . S
C1001 C1003 1.339 . S
C1001 H1028 0.931 . S
C1002 C1003 1.395 . S
C1002 C1004 1.320 . S
C1003 C1001 1.339 . S
C1003 C1002 1.395 . S
C1003 H1029 0.929 . S
C1004 C1002 1.320 . S
C1004 C1005 1.405 . S
C1004 H1030 0.930 . S
C1005 C1000 1.479 . S
C1005 C1004 1.405 . S
C1005 H1031 0.931 . S
U1006 O1007 2.454 . S
U1006 O1008 2.458 . S
U1006 C1009 2.984 . S
U1006 C1010 2.847 . S
U1006 C1023 2.882 . S
U1006 O1024 2.441 . S
U1006 O1025 2.420 . S
U1006 O1026 2.455 . S
U1006 O1027 2.449 . S
O1007 U1006 2.454 . S
O1007 C1009 1.353 . S
O1008 U1006 2.458 . S
O1008 C1009 1.286 . S
C1009 U1006 2.984 . S
C1009 O1007 1.353 . S
C1009 O1008 1.286 . S
C1009 C1011 1.363 . S
C1010 C1000 1.465 . S
C1010 U1006 2.847 . S
C1010 O1024 1.249 . S
C1010 O1025 1.202 . S
C1011 C1009 1.363 . S
C1011 C1013 1.408 . S
C1011 C1016 1.342 . S
C1012 C1013 1.310 . S
C1012 C1015 1.461 . S
C1012 H1032 0.932 . S
C1013 C1011 1.408 . S
C1013 C1012 1.310 . S
C1013 H1033 0.930 . S
C1014 C1015 1.474 . S
C1014 C1016 1.285 . S
C1014 H1034 0.929 . S
C1015 C1012 1.461 . S
C1015 C1014 1.474 . S
C1016 C1011 1.342 . S
C1016 C1014 1.285 . S
C1016 H1035 0.930 . S
C1017 C1020 1.424 . S
C1017 C1022 1.245 . S
C1017 C1023 1.428 . S
C1018 C1021 1.260 . S
C1018 C1022 1.477 . S
C1018 H1036 0.932 . S
C1019 C1020 1.384 . S
C1019 C1021 1.479 . S
C1019 H1037 0.929 . S
C1020 C1017 1.424 . S
C1020 C1019 1.384 . S
C1020 H1038 0.928 . S
C1021 C1018 1.260 . S
C1021 C1019 1.479 . S
C1022 C1017 1.245 . S
C1022 C1018 1.477 . S
C1022 H1039 0.932 . S
C1023 U1006 2.882 . S
C1023 C1017 1.428 . S
C1023 O1026 1.301 . S
C1023 O1027 1.282 . S
O1024 U1006 2.441 . S
O1024 C1010 1.249 . S
O1025 U1006 2.420 . S
O1025 C1010 1.202 . S
O1026 U1006 2.455 . S
O1026 C1023 1.301 . S
O1027 U1006 2.449 . S
O1027 C1023 1.282 . S
H1028 C1001 0.931 . S
H1029 C1003 0.929 . S
H1030 C1004 0.930 . S
H1031 C1005 0.931 . S
H1032 C1012 0.932 . S
H1033 C1013 0.930 . S
H1034 C1014 0.929 . S
H1035 C1016 0.930 . S
H1036 C1018 0.932 . S
H1037 C1019 0.929 . S
H1038 C1020 0.928 . S
H1039 C1022 0.932 . S
C1040 C1041 1.264 . S
C1040 C1045 1.479 . S
C1040 C1050 1.465 . S
C1041 C1040 1.264 . S
C1041 C1043 1.339 . S
C1041 H1068 0.931 . S
C1042 C1043 1.395 . S
C1042 C1044 1.320 . S
C1043 C1041 1.339 . S
C1043 C1042 1.395 . S
C1043 H1069 0.929 . S
C1044 C1042 1.320 . S
C1044 C1045 1.405 . S
C1044 H1070 0.930 . S
C1045 C1040 1.479 . S
C1045 C1044 1.405 . S
C1045 H1071 0.931 . S
U1046 O1047 2.454 . S
U1046 O1048 2.458 . S
U1046 C1049 2.984 . S
U1046 C1050 2.847 . S
U1046 C1063 2.882 . S
U1046 O1064 2.441 . S
U1046 O1065 2.420 . S
U1046 O1066 2.455 . S
U1046 O1067 2.449 . S
O1047 U1046 2.454 . S
O1047 C1049 1.353 . S
O1048 U1046 2.458 . S
O1048 C1049 1.286 . S
C1049 U1046 2.984 . S
C1049 O1047 1.353 . S
C1049 O1048 1.286 . S
C1049 C1051 1.363 . S
C1050 C1040 1.465 . S
C1050 U1046 2.847 . S
C1050 O1064 1.249 . S
C1050 O1065 1.202 . S
C1051 C1049 1.363 . S
C1051 C1053 1.408 . S
C1051 C1056 1.342 . S
C1052 C1053 1.310 . S
C1052 C1055 1.461 . S
C1052 H1072 0.932 . S
C1053 C1051 1.408 . S
C1053 C1052 1.310 . S
C1053 H1073 0.930 . S
C1054 C1055 1.474 . S
C1054 C1056 1.285 . S
C1054 H1074 0.929 . S
C1055 C1052 1.461 . S
C1055 C1054 1.474 . S
C1056 C1051 1.342 . S
C1056 C1054 1.285 . S
C1056 H1075 0.930 . S
C1057 C1060 1.424 . S
C1057 C1062 1.245 . S
C1057 C1063 1.428 . S
C1058 C1061 1.260 . S
C1058 C1062 1.477 . S
C1058 H1076 0.932 . S
C1059 C1060 1.384 . S
C1059 C1061 1.479 . S
C1059 H1077 0.929 . S
C1060 C1057 1.424 . S
C1060 C1059 1.384 . S
C1060 H1078 0.928 . S
C1061 C1058 1.260 . S
C1061 C1059 1.479 . S
C1062 C1057 1.245 . S
C1062 C1058 1.477 . S
C1062 H1079 0.932 . S
C1063 U1046 2.882 . S
C1063 C1057 1.428 . S
C1063 O1066 1.301 . S
C1063 O1067 1.282 . S
O1064 U1046 2.441 . S
O1064 C1050 1.249 . S
O1065 U1046 2.420 . S
O1065 C1050 1.202 . S
O1066 U1046 2.455 . S
O1066 C1063 1.301 . S
O1067 U1046 2.449 . S
O1067 C1063 1.282 . S
H1068 C1041 0.931 . S
H1069 C1043 0.929 . S
H1070 C1044 0.930 . S
H1071 C1045 0.931 . S
H1072 C1052 0.932 . S
H1073 C1053 0.930 . S
H1074 C1054 0.929 . S
H1075 C1056 0.930 . S
H1076 C1058 0.932 . S
H1077 C1059 0.929 . S
H1078 C1060 0.928 . S
H1079 C1062 0.932 . S
C1080 C1081 1.264 . S
C1080 C1085 1.479 . S
C1080 C1090 1.465 . S
C1081 C1080 1.264 . S
C1081 C1083 1.339 . S
C1081 H1108 0.931 . S
C1082 C1083 1.395 . S
C1082 C1084 1.320 . S
C1083 C1081 1.339 . S
C1083 C1082 1.395 . S
C1083 H1109 0.929 . S
C1084 C1082 1.320 . S
C1084 C1085 1.405 . S
C1084 H1110 0.930 . S
C1085 C1080 1.479 . S
C1085 C1084 1.405 . S
C1085 H1111 0.931 . S
U1086 O1087 2.454 . S
U1086 O1088 2.458 . S
U1086 C1089 2.984 . S
U1086 C1090 2.847 . S
U1086 C1103 2.882 . S
U1086 O1104 2.441 . S
U1086 O1105 2.420 . S
U1086 O1106 2.455 . S
U1086 O1107 2.449 . S
O1087 U1086 2.454 . S
O1087 C1089 1.353 . S
O1088 U1086 2.458 . S
O1088 C1089 1.286 . S
C1089 U1086 2.984 . S
C1089 O1087 1.353 . S
C1089 O1088 1.286 . S
C1089 C1091 1.363 . S
C1090 C1080 1.465 . S
C1090 U1086 2.847 . S
C1090 O1104 1.249 . S
C1090 O1105 1.202 . S
C1091 C1089 1.363 . S
C1091 C1093 1.408 . S
C1091 C1096 1.342 . S
C1092 C1093 1.310 . S
C1092 C1095 1.461 . S
C1092 H1112 0.932 . S
C1093 C1091 1.408 . S
C1093 C1092 1.310 . S
C1093 H1113 0.930 . S
C1094 C1095 1.474 . S
C1094 C1096 1.285 . S
C1094 H1114 0.929 . S
C1095 C1092 1.461 . S
C1095 C1094 1.474 . S
C1096 C1091 1.342 . S
C1096 C1094 1.285 . S
C1096 H1115 0.930 . S
C1097 C1100 1.424 . S
C1097 C1102 1.245 . S
C1097 C1103 1.428 . S
C1098 C1101 1.260 . S
C1098 C1102 1.477 . S
C1098 H1116 0.932 . S
C1099 C1100 1.384 . S
C1099 C1101 1.479 . S
C1099 H1117 0.929 . S
C1100 C1097 1.424 . S
C1100 C1099 1.384 . S
C1100 H1118 0.928 . S
C1101 C1098 1.260 . S
C1101 C1099 1.479 . S
C1102 C1097 1.245 . S
C1102 C1098 1.477 . S
C1102 H1119 0.932 . S
C1103 U1086 2.882 . S
C1103 C1097 1.428 . S
C1103 O1106 1.301 . S
C1103 O1107 1.282 . S
O1104 U1086 2.441 . S
O1104 C1090 1.249 . S
O1105 U1086 2.420 . S
O1105 C1090 1.202 . S
O1106 U1086 2.455 . S
O1106 C1103 1.301 . S
O1107 U1086 2.449 . S
O1107 C1103 1.282 . S
H1108 C1081 0.931 . S
H1109 C1083 0.929 . S
H1110 C1084 0.930 . S
H1111 C1085 0.931 . S
H1112 C1092 0.932 . S
H1113 C1093 0.930 . S
H1114 C1094 0.929 . S
H1115 C1096 0.930 . S
H1116 C1098 0.932 . S
H1117 C1099 0.929 . S
H1118 C1100 0.928 . S
H1119 C1102 0.932 . S
C1120 C1121 1.264 . S
C1120 C1125 1.479 . S
C1120 C1130 1.465 . S
C1121 C1120 1.264 . S
C1121 C1123 1.339 . S
C1121 H1148 0.931 . S
C1122 C1123 1.395 . S
C1122 C1124 1.320 . S
C1123 C1121 1.339 . S
C1123 C1122 1.395 . S
C1123 H1149 0.929 . S
C1124 C1122 1.320 . S
C1124 C1125 1.405 . S
C1124 H1150 0.930 . S
C1125 C1120 1.479 . S
C1125 C1124 1.405 . S
C1125 H1151 0.931 . S
U1126 O1127 2.454 . S
U1126 O1128 2.458 . S
U1126 C1129 2.984 . S
U1126 C1130 2.847 . S
U1126 C1143 2.882 . S
U1126 O1144 2.441 . S
U1126 O1145 2.420 . S
U1126 O1146 2.455 . S
U1126 O1147 2.449 . S
O1127 U1126 2.454 . S
O1127 C1129 1.353 . S
O1128 U1126 2.458 . S
O1128 C1129 1.286 . S
C1129 U1126 2.984 . S
C1129 O1127 1.353 . S
C1129 O1128 1.286 . S
C1129 C1131 1.363 . S
C1130 C1120 1.465 . S
C1130 U1126 2.847 . S
C1130 O1144 1.249 . S
C1130 O1145 1.202 . S
C1131 C1129 1.363 . S
C1131 C1133 1.408 . S
C1131 C1136 1.342 . S
C1132 C1133 1.310 . S
C1132 C1135 1.461 . S
C1132 H1152 0.932 . S
C1133 C1131 1.408 . S
C1133 C1132 1.310 . S
C1133 H1153 0.930 . S
C1134 C1135 1.474 . S
C1134 C1136 1.285 . S
C1134 H1154 0.929 . S
C1135 C1132 1.461 . S
C1135 C1134 1.474 . S
C1136 C1131 1.342 . S
C1136 C1134 1.285 . S
C1136 H1155 0.930 . S
C1137 C1140 1.424 . S
C1137 C1142 1.245 . S
C1137 C1143 1.428 . S
C1138 C1141 1.260 . S
C1138 C1142 1.477 . S
C1138 H1156 0.932 . S
C1139 C1140 1.384 . S
C1139 C1141 1.479 . S
C1139 H1157 0.929 . S
C1140 C1137 1.424 . S
C1140 C1139 1.384 . S
C1140 H1158 0.928 . S
C1141 C1138 1.260 . S
C1141 C1139 1.479 . S
C1142 C1137 1.245 . S
C1142 C1138 1.477 . S
C1142 H1159 0.932 . S
C1143 U1126 2.882 . S
C1143 C1137 1.428 . S
C1143 O1146 1.301 . S
C1143 O1147 1.282 . S
O1144 U1126 2.441 . S
O1144 C1130 1.249 . S
O1145 U1126 2.420 . S
O1145 C1130 1.202 . S
O1146 U1126 2.455 . S
O1146 C1143 1.301 . S
O1147 U1126 2.449 . S
O1147 C1143 1.282 . S
H1148 C1121 0.931 . S
H1149 C1123 0.929 . S
H1150 C1124 0.930 . S
H1151 C1125 0.931 . S
H1152 C1132 0.932 . S
H1153 C1133 0.930 . S
H1154 C1134 0.929 . S
H1155 C1136 0.930 . S
H1156 C1138 0.932 . S
H1157 C1139 0.929 . S
H1158 C1140 0.928 . S
H1159 C1142 0.932 . S
C1160 C1161 1.264 . S
C1160 C1165 1.479 . S
C1160 C1170 1.465 . S
C1161 C1160 1.264 . S
C1161 C1163 1.339 . S
C1161 H1188 0.931 . S
C1162 C1163 1.395 . S
C1162 C1164 1.320 . S
C1163 C1161 1.339 . S
C1163 C1162 1.395 . S
C1163 H1189 0.929 . S
C1164 C1162 1.320 . S
C1164 C1165 1.405 . S
C1164 H1190 0.930 . S
C1165 C1160 1.479 . S
C1165 C1164 1.405 . S
C1165 H1191 0.931 . S
U1166 O1167 2.454 . S
U1166 O1168 2.458 . S
U1166 C1169 2.984 . S
U1166 C1170 2.847 . S
U1166 C1183 2.882 . S
U1166 O1184 2.441 . S
U1166 O1185 2.420 . S
U1166 O1186 2.455 . S
U1166 O1187 2.449 . S
O1167 U1166 2.454 . S
O1167 C1169 1.353 . S
O1168 U1166 2.458 . S
O1168 C1169 1.286 . S
C1169 U1166 2.984 . S
C1169 O1167 1.353 . S
C1169 O1168 1.286 . S
C1169 C1171 1.363 . S
C1170 C1160 1.465 . S
C1170 U1166 2.847 . S
C1170 O1184 1.249 . S
C1170 O1185 1.202 . S
C1171 C1169 1.363 . S
C1171 C1173 1.408 . S
C1171 C1176 1.342 . S
C1172 C1173 1.310 . S
C1172 C1175 1.461 . S
C1172 H1192 0.932 . S
C1173 C1171 1.408 . S
C1173 C1172 1.310 . S
C1173 H1193 0.930 . S
C1174 C1175 1.474 . S
C1174 C1176 1.285 . S
C1174 H1194 0.929 . S
C1175 C1172 1.461 . S
C1175 C1174 1.474 . S
C1176 C1171 1.342 . S
C1176 C1174 1.285 . S
C1176 H1195 0.930 . S
C1177 C1180 1.424 . S
C1177 C1182 1.245 . S
C1177 C1183 1.428 . S
C1178 C1181 1.260 . S
C1178 C1182 1.477 . S
C1178 H1196 0.932 . S
C1179 C1180 1.384 . S
C1179 C1181 1.479 . S
C1179 H1197 0.929 . S
C1180 C1177 1.424 . S
C1180 C1179 1.384 . S
C1180 H1198 0.928 . S
C1181 C1178 1.260 . S
C1181 C1179 1.479 . S
C1182 C1177 1.245 . S
C1182 C1178 1.477 . S
C1182 H1199 0.932 . S
C1183 U1166 2.882 . S
C1183 C1177 1.428 . S
C1183 O1186 1.301 . S
C1183 O1187 1.282 . S
O1184 U1166 2.441 . S
O1184 C1170 1.249 . S
O1185 U1166 2.420 . S
O1185 C1170 1.202 . S
O1186 U1166 2.455 . S
O1186 C1183 1.301 . S
O1187 U1166 2.449 . S
O1187 C1183 1.282 . S
H1188 C1161 0.931 . S
H1189 C1163 0.929 . S
H1190 C1164 0.930 . S
H1191 C1165 0.931 . S
H1192 C1172 0.932 . S
H1193 C1173 0.930 . S
H1194 C1174 0.929 . S
H1195 C1176 0.930 . S
H1196 C1178 0.932 . S
H1197 C1179 0.929 . S
H1198 C1180 0.928 . S
H1199 C1182 0.932 . S
C1200 C1201 1.264 . S
C1200 C1205 1.479 . S
C1200 C1210 1.465 . S
C1201 C1200 1.264 . S
C1201 C1203 1.339 . S
C1201 H1228 0.931 . S
C1202 C1203 1.395 . S
C1202 C1204 1.320 . S
C1203 C1201 1.339 . S
C1203 C1202 1.395 . S
C1203 H1229 0.929 . S
C1204 C1202 1.320 . S
C1204 C1205 1.405 . S
C1204 H1230 0.930 . S
C1205 C1200 1.479 . S
C1205 C1204 1.405 . S
C1205 H1231 0.931 . S
U1206 O1207 2.454 . S
U1206 O1208 2.458 . S
U1206 C1209 2.984 . S
U1206 C1210 2.847 . S
U1206 C1223 2.882 . S
U1206 O1224 2.441 . S
U1206 O1225 2.420 . S
U1206 O1226 2.455 . S
U1206 O1227 2.449 . S
O1207 U1206 2.454 . S
O1207 C1209 1.353 . S
O1208 U1206 2.458 . S
O1208 C1209 1.286 . S
C1209 U1206 2.984 . S
C1209 O1207 1.353 . S
C1209 O1208 1.286 . S
C1209 C1211 1.363 . S
C1210 C1200 1.465 . S
C1210 U1206 2.847 . S
C1210 O1224 1.249 . S
C1210 O1225 1.202 . S
C1211 C1209 1.363 . S
C1211 C1213 1.408 . S
C1211 C1216 1.342 . S
C1212 C1213 1.310 . S
C1212 C1215 1.461 . S
C1212 H1232 0.932 . S
C1213 C1211 1.408 . S
C1213 C1212 1.310 . S
C1213 H1233 0.930 . S
C1214 C1215 1.474 . S
C1214 C1216 1.285 . S
C1214 H1234 0.929 . S
C1215 C1212 1.461 . S
C1215 C1214 1.474 . S
C1216 C1211 1.342 . S
C1216 C1214 1.285 . S
C1216 H1235 0.930 . S
C1217 C1220 1.424 . S
C1217 C1222 1.245 . S
C1217 C1223 1.428 . S
C1218 C1221 1.260 . S
C1218 C1222 1.477 . S
C1218 H1236 0.932 . S
C1219 C1220 1.384 . S
C1219 C1221 1.479 . S
C1219 H1237 0.929 . S
C1220 C1217 1.424 . S
C1220 C1219 1.384 . S
C1220 H1238 0.928 . S
C1221 C1218 1.260 . S
C1221 C1219 1.479 . S
C1222 C1217 1.245 . S
C1222 C1218 1.477 . S
C1222 H1239 0.932 . S
C1223 U1206 2.882 . S
C1223 C1217 1.428 . S
C1223 O1226 1.301 . S
C1223 O1227 1.282 . S
O1224 U1206 2.441 . S
O1224 C1210 1.249 . S
O1225 U1206 2.420 . S
O1225 C1210 1.202 . S
O1226 U1206 2.455 . S
O1226 C1223 1.301 . S
O1227 U1206 2.449 . S
O1227 C1223 1.282 . S
H1228 C1201 0.931 . S
H1229 C1203 0.929 . S
H1230 C1204 0.930 . S
H1231 C1205 0.931 . S
H1232 C1212 0.932 . S
H1233 C1213 0.930 . S
H1234 C1214 0.929 . S
H1235 C1216 0.930 . S
H1236 C1218 0.932 . S
H1237 C1219 0.929 . S
H1238 C1220 0.928 . S
H1239 C1222 0.932 . S
C1240 C1241 1.264 . S
C1240 C1245 1.479 . S
C1240 C1250 1.465 . S
C1241 C1240 1.264 . S
C1241 C1243 1.339 . S
C1241 H1268 0.931 . S
C1242 C1243 1.395 . S
C1242 C1244 1.320 . S
C1243 C1241 1.339 . S
C1243 C1242 1.395 . S
C1243 H1269 0.929 . S
C1244 C1242 1.320 . S
C1244 C1245 1.405 . S
C1244 H1270 0.930 . S
C1245 C1240 1.479 . S
C1245 C1244 1.405 . S
C1245 H1271 0.931 . S
U1246 O1247 2.454 . S
U1246 O1248 2.458 . S
U1246 C1249 2.984 . S
U1246 C1250 2.847 . S
U1246 C1263 2.882 . S
U1246 O1264 2.441 . S
U1246 O1265 2.420 . S
U1246 O1266 2.455 . S
U1246 O1267 2.449 . S
O1247 U1246 2.454 . S
O1247 C1249 1.353 . S
O1248 U1246 2.458 . S
O1248 C1249 1.286 . S
C1249 U1246 2.984 . S
C1249 O1247 1.353 . S
C1249 O1248 1.286 . S
C1249 C1251 1.363 . S
C1250 C1240 1.465 . S
C1250 U1246 2.847 . S
C1250 O1264 1.249 . S
C1250 O1265 1.202 . S
C1251 C1249 1.363 . S
C1251 C1253 1.408 . S
C1251 C1256 1.342 . S
C1252 C1253 1.310 . S
C1252 C1255 1.461 . S
C1252 H1272 0.932 . S
C1253 C1251 1.408 . S
C1253 C1252 1.310 . S
C1253 H1273 0.930 . S
C1254 C1255 1.474 . S
C1254 C1256 1.285 . S
C1254 H1274 0.929 . S
C1255 C1252 1.461 . S
C1255 C1254 1.474 . S
C1256 C1251 1.342 . S
C1256 C1254 1.285 . S
C1256 H1275 0.930 . S
C1257 C1260 1.424 . S
C1257 C1262 1.245 . S
C1257 C1263 1.428 . S
C1258 C1261 1.260 . S
C1258 C1262 1.477 . S
C1258 H1276 0.932 . S
C1259 C1260 1.384 . S
C1259 C1261 1.479 . S
C1259 H1277 0.929 . S
C1260 C1257 1.424 . S
C1260 C1259 1.384 . S
C1260 H1278 0.928 . S
C1261 C1258 1.260 . S
C1261 C1259 1.479 . S
C1262 C1257 1.245 . S
C1262 C1258 1.477 . S
C1262 H1279 0.932 . S
C1263 U1246 2.882 . S
C1263 C1257 1.428 . S
C1263 O1266 1.301 . S
C1263 O1267 1.282 . S
O1264 U1246 2.441 . S
O1264 C1250 1.249 . S
O1265 U1246 2.420 . S
O1265 C1250 1.202 . S
O1266 U1246 2.455 . S
O1266 C1263 1.301 . S
O1267 U1246 2.449 . S
O1267 C1263 1.282 . S
H1268 C1241 0.931 . S
H1269 C1243 0.929 . S
H1270 C1244 0.930 . S
H1271 C1245 0.931 . S
H1272 C1252 0.932 . S
H1273 C1253 0.930 . S
H1274 C1254 0.929 . S
H1275 C1256 0.930 . S
H1276 C1258 0.932 . S
H1277 C1259 0.929 . S
H1278 C1260 0.928 . S
H1279 C1262 0.932 . S
Cu1280 N1281 1.999 . S
Cu1280 O1286 1.974 1_554 S
Cu1280 N1291 1.985 . S
Cu1280 O1300 1.959 . S
N1281 Cu1280 1.999 . S
N1281 C1283 1.263 1_554 S
N1281 C1285 1.389 . S
N1282 C1283 1.358 . S
N1282 C1284 1.400 . S
C1283 N1281 1.263 1_556 S
C1283 N1282 1.358 . S
C1283 H1289 0.930 . S
C1284 N1282 1.400 . S
C1284 C1285 1.351 1_556 S
C1284 H1301 0.930 . S
C1285 N1281 1.389 . S
C1285 C1284 1.351 1_554 S
C1285 H1290 0.930 . S
O1286 Cu1280 1.974 1_556 S
O1286 C1296 1.282 . S
C1287 O1288 1.261 . S
C1287 O1300 1.251 . S
O1288 C1287 1.261 . S
H1289 C1283 0.930 . S
H1290 C1285 0.930 . S
N1291 Cu1280 1.985 . S
N1291 C1293 1.335 . S
N1291 C1294 1.390 . S
N1292 C1293 1.345 . S
N1292 C1295 1.336 . S
C1293 N1291 1.335 . S
C1293 N1292 1.345 . S
C1293 H1298 0.930 . S
C1294 N1291 1.390 . S
C1294 C1295 1.346 . S
C1294 H1299 0.930 . S
C1295 N1292 1.336 . S
C1295 C1294 1.346 . S
C1295 H1302 0.929 . S
C1296 O1286 1.282 . S
C1296 O1297 1.216 . S
O1297 C1296 1.216 . S
H1298 C1293 0.930 . S
H1299 C1294 0.930 . S
O1300 Cu1280 1.959 . S
O1300 C1287 1.251 . S
H1301 C1284 0.930 . S
H1302 C1295 0.929 . S
Cu1303 N1304 1.999 . S
Cu1303 O1309 1.974 . S
Cu1303 N1314 1.985 1_554 S
Cu1303 O1323 1.959 1_554 S
N1304 Cu1303 1.999 . S
N1304 C1306 1.263 . S
N1304 C1308 1.389 . S
N1305 C1306 1.358 . S
N1305 C1307 1.400 . S
C1306 N1304 1.263 . S
C1306 N1305 1.358 . S
C1306 H1312 0.930 . S
C1307 N1305 1.400 . S
C1307 C1308 1.351 . S
C1307 H1324 0.930 . S
C1308 N1304 1.389 . S
C1308 C1307 1.351 . S
C1308 H1313 0.930 . S
O1309 Cu1303 1.974 . S
O1309 C1319 1.282 . S
C1310 O1311 1.261 . S
C1310 O1323 1.251 . S
O1311 C1310 1.261 . S
H1312 C1306 0.930 . S
H1313 C1308 0.930 . S
N1314 Cu1303 1.985 1_556 S
N1314 C1316 1.335 . S
N1314 C1317 1.387 1_556 S
N1315 C1316 1.345 . S
N1315 C1318 1.336 . S
C1316 N1314 1.335 . S
C1316 N1315 1.345 . S
C1316 H1321 0.930 . S
C1317 N1314 1.387 1_554 S
C1317 C1318 1.333 1_554 S
C1317 H1322 0.944 . S
C1318 N1315 1.336 . S
C1318 C1317 1.333 1_556 S
C1318 H1325 0.929 . S
C1319 O1309 1.282 . S
C1319 O1320 1.216 . S
O1320 C1319 1.216 . S
H1321 C1316 0.930 . S
H1322 C1317 0.944 . S
O1323 Cu1303 1.959 1_556 S
O1323 C1310 1.251 . S
H1324 C1307 0.930 . S
H1325 C1318 0.929 . S
Cu1326 N1327 1.960 1_554 S
Cu1326 O1332 1.925 1_554 S
Cu1326 N1337 2.024 . S
Cu1326 O1346 2.008 . S
N1327 Cu1326 1.960 1_556 S
N1327 C1329 1.263 . S
N1327 C1331 1.389 . S
N1328 C1329 1.358 . S
N1328 C1330 1.400 . S
C1329 N1327 1.263 . S
C1329 N1328 1.358 . S
C1329 H1335 0.930 . S
C1330 N1328 1.400 . S
C1330 C1331 1.351 . S
C1330 H1347 0.930 . S
C1331 N1327 1.389 . S
C1331 C1330 1.351 . S
C1331 H1336 0.930 . S
O1332 Cu1326 1.925 1_556 S
O1332 C1342 1.282 . S
C1333 O1334 1.261 . S
C1333 O1346 1.251 . S
O1334 C1333 1.261 . S
H1335 C1329 0.930 . S
H1336 C1331 0.930 . S
N1337 Cu1326 2.024 . S
N1337 C1339 1.335 . S
N1337 C1340 1.390 . S
N1338 C1339 1.345 . S
N1338 C1341 1.336 . S
C1339 N1337 1.335 . S
C1339 N1338 1.345 . S
C1339 H1344 0.930 . S
C1340 N1337 1.390 . S
C1340 C1341 1.346 . S
C1340 H1345 0.993 . S
C1341 N1338 1.336 . S
C1341 C1340 1.346 . S
C1341 H1348 0.929 . S
C1342 O1332 1.282 . S
C1342 O1343 1.216 . S
O1343 C1342 1.216 . S
H1344 C1339 0.930 . S
H1345 C1340 0.993 . S
O1346 Cu1326 2.008 . S
O1346 C1333 1.251 . S
H1347 C1330 0.930 . S
H1348 C1341 0.929 . S
Cu1349 N1350 1.999 . S
Cu1349 O1355 1.974 . S
Cu1349 N1360 1.985 1_554 S
Cu1349 O1369 1.959 1_554 S
N1350 Cu1349 1.999 . S
N1350 C1352 1.263 . S
N1350 C1354 1.389 . S
N1351 C1352 1.358 . S
N1351 C1353 1.400 . S
C1352 N1350 1.263 . S
C1352 N1351 1.358 . S
C1352 H1358 0.930 . S
C1353 N1351 1.400 . S
C1353 C1354 1.351 . S
C1353 H1370 0.930 . S
C1354 N1350 1.389 . S
C1354 C1353 1.351 . S
C1354 H1359 0.930 . S
O1355 Cu1349 1.974 . S
O1355 C1365 1.282 . S
C1356 O1357 1.261 . S
C1356 O1369 1.251 . S
O1357 C1356 1.261 . S
H1358 C1352 0.930 . S
H1359 C1354 0.930 . S
N1360 Cu1349 1.985 1_556 S
N1360 C1362 1.335 . S
N1360 C1363 1.390 . S
N1361 C1362 1.345 . S
N1361 C1364 1.336 . S
C1362 N1360 1.335 . S
C1362 N1361 1.345 . S
C1362 H1367 0.930 . S
C1363 N1360 1.390 . S
C1363 C1364 1.346 . S
C1363 H1368 0.930 1_556 S
C1364 N1361 1.336 . S
C1364 C1363 1.346 . S
C1364 H1371 0.929 . S
C1365 O1355 1.282 . S
C1365 O1366 1.216 . S
O1366 C1365 1.216 . S
H1367 C1362 0.930 . S
H1368 C1363 0.930 1_554 S
O1369 Cu1349 1.959 1_556 S
O1369 C1356 1.251 . S
H1370 C1353 0.930 . S
H1371 C1364 0.929 . S
Cu1372 N1373 1.999 . S
Cu1372 O1378 1.974 . S
Cu1372 N1383 1.919 1_455 S
Cu1372 O1392 1.959 1_455 S
N1373 Cu1372 1.999 . S
N1373 C1375 1.263 . S
N1373 C1377 1.389 . S
N1374 C1375 1.358 . S
N1374 C1376 1.400 . S
C1375 N1373 1.263 . S
C1375 N1374 1.358 . S
C1375 H1381 0.930 . S
C1376 N1374 1.400 . S
C1376 C1377 1.351 . S
C1376 H1393 0.930 . S
C1377 N1373 1.389 . S
C1377 C1376 1.351 . S
C1377 H1382 0.930 . S
O1378 Cu1372 1.974 . S
O1378 C1388 1.282 . S
C1379 O1380 1.261 . S
C1379 O1392 1.251 . S
O1380 C1379 1.261 . S
H1381 C1375 0.930 . S
H1382 C1377 0.930 . S
N1383 Cu1372 1.919 1_655 S
N1383 C1385 1.437 . S
N1383 C1386 1.374 1_655 S
N1384 C1385 1.345 . S
N1384 C1387 1.336 . S
C1385 N1383 1.437 . S
C1385 N1384 1.345 . S
C1385 H1390 0.930 . S
C1386 N1383 1.374 1_455 S
C1386 C1387 1.346 1_455 S
C1386 H1391 0.930 . S
C1387 N1384 1.336 . S
C1387 C1386 1.346 1_655 S
C1387 H1394 0.929 . S
C1388 O1378 1.282 . S
C1388 O1389 1.216 . S
O1389 C1388 1.216 . S
H1390 C1385 0.930 . S
H1391 C1386 0.930 . S
O1392 Cu1372 1.959 1_655 S
O1392 C1379 1.251 . S
H1393 C1376 0.930 . S
H1394 C1387 0.929 . S
Cu1395 N1396 1.999 . S
Cu1395 O1401 1.974 . S
Cu1395 N1406 1.985 1_545 S
Cu1395 O1415 1.959 1_545 S
N1396 Cu1395 1.999 . S
N1396 C1398 1.263 . S
N1396 C1400 1.389 . S
N1397 C1398 1.358 . S
N1397 C1399 1.400 . S
C1398 N1396 1.263 . S
C1398 N1397 1.358 . S
C1398 H1404 0.930 . S
C1399 N1397 1.400 . S
C1399 C1400 1.351 . S
C1399 H1416 0.930 . S
C1400 N1396 1.389 . S
C1400 C1399 1.351 . S
C1400 H1405 0.930 . S
O1401 Cu1395 1.974 . S
O1401 C1411 1.282 . S
C1402 O1403 1.261 . S
C1402 O1415 1.251 . S
O1403 C1402 1.261 . S
H1404 C1398 0.930 . S
H1405 C1400 0.930 . S
N1406 Cu1395 1.985 1_565 S
N1406 C1408 1.335 . S
N1406 C1409 1.390 . S
N1407 C1408 1.345 . S
N1407 C1410 1.336 . S
C1408 N1406 1.335 . S
C1408 N1407 1.345 . S
C1408 H1413 0.930 . S
C1409 N1406 1.390 . S
C1409 C1410 1.346 . S
C1409 H1414 0.930 1_565 S
C1410 N1407 1.336 . S
C1410 C1409 1.346 . S
C1410 H1417 0.929 . S
C1411 O1401 1.282 . S
C1411 O1412 1.216 . S
O1412 C1411 1.216 . S
H1413 C1408 0.930 . S
H1414 C1409 0.930 1_545 S
O1415 Cu1395 1.959 1_565 S
O1415 C1402 1.251 . S
H1416 C1399 0.930 . S
H1417 C1410 0.929 . S
Cu1418 N1419 2.006 1_455 S
Cu1418 O1424 1.981 1_455 S
Cu1418 N1429 1.979 . S
Cu1418 O1438 1.952 . S
N1419 Cu1418 2.006 1_655 S
N1419 C1421 1.263 . S
N1419 C1423 1.389 . S
N1420 C1421 1.358 . S
N1420 C1422 1.400 . S
C1421 N1419 1.263 . S
C1421 N1420 1.358 . S
C1421 H1427 0.930 . S
C1422 N1420 1.400 . S
C1422 C1423 1.351 . S
C1422 H1439 0.930 . S
C1423 N1419 1.389 . S
C1423 C1422 1.351 . S
C1423 H1428 0.930 . S
O1424 Cu1418 1.981 1_655 S
O1424 C1434 1.282 . S
C1425 O1426 1.261 . S
C1425 O1438 1.251 . S
O1426 C1425 1.261 . S
H1427 C1421 0.930 . S
H1428 C1423 0.930 . S
N1429 Cu1418 1.979 . S
N1429 C1431 1.335 . S
N1429 C1432 1.390 . S
N1430 C1431 1.345 . S
N1430 C1433 1.336 . S
C1431 N1429 1.335 . S
C1431 N1430 1.345 . S
C1431 H1436 0.930 . S
C1432 N1429 1.390 . S
C1432 C1433 1.346 . S
C1432 H1437 0.930 . S
C1433 N1430 1.336 . S
C1433 C1432 1.346 . S
C1433 H1440 0.929 . S
C1434 O1424 1.282 . S
C1434 O1435 1.216 . S
O1435 C1434 1.216 . S
H1436 C1431 0.930 . S
H1437 C1432 0.930 . S
O1438 Cu1418 1.952 . S
O1438 C1425 1.251 . S
H1439 C1422 0.930 . S
H1440 C1433 0.929 . S
Cu1441 N1442 2.000 1_565 S
Cu1441 O1447 1.974 1_565 S
Cu1441 N1452 1.984 . S
Cu1441 O1461 1.959 . S
N1442 Cu1441 2.000 1_545 S
N1442 C1444 1.263 . S
N1442 C1446 1.389 . S
N1443 C1444 1.358 . S
N1443 C1445 1.400 . S
C1444 N1442 1.263 . S
C1444 N1443 1.358 . S
C1444 H1450 0.930 . S
C1445 N1443 1.400 . S
C1445 C1446 1.351 . S
C1445 H1462 0.930 . S
C1446 N1442 1.389 . S
C1446 C1445 1.351 . S
C1446 H1451 0.930 . S
O1447 Cu1441 1.974 1_545 S
O1447 C1457 1.282 . S
C1448 O1449 1.261 . S
C1448 O1461 1.251 . S
O1449 C1448 1.261 . S
H1450 C1444 0.930 . S
H1451 C1446 0.930 . S
N1452 Cu1441 1.984 . S
N1452 C1454 1.335 . S
N1452 C1455 1.390 . S
N1453 C1454 1.345 . S
N1453 C1456 1.336 . S
C1454 N1452 1.335 . S
C1454 N1453 1.345 . S
C1454 H1459 0.930 . S
C1455 N1452 1.390 . S
C1455 C1456 1.346 . S
C1455 H1460 0.930 . S
C1456 N1453 1.336 . S
C1456 C1455 1.346 . S
C1456 H1463 0.929 . S
C1457 O1447 1.282 . S
C1457 O1458 1.216 . S
O1458 C1457 1.216 . S
H1459 C1454 0.930 . S
H1460 C1455 0.930 . S
O1461 Cu1441 1.959 . S
O1461 C1448 1.251 . S
H1462 C1445 0.930 . S
H1463 C1456 0.929 . S
Cu1464 N1465 1.999 . S
Cu1464 O1470 1.974 . S
Cu1464 N1475 1.985 1_455 S
Cu1464 O1484 1.959 1_455 S
N1465 Cu1464 1.999 . S
N1465 C1467 1.263 . S
N1465 C1469 1.389 . S
N1466 C1467 1.358 . S
N1466 C1468 1.400 . S
C1467 N1465 1.263 . S
C1467 N1466 1.358 . S
C1467 H1473 0.930 . S
C1468 N1466 1.400 . S
C1468 C1469 1.351 . S
C1468 H1485 0.930 . S
C1469 N1465 1.389 . S
C1469 C1468 1.351 . S
C1469 H1474 0.930 . S
O1470 Cu1464 1.974 . S
O1470 C1480 1.282 . S
C1471 O1472 1.261 . S
C1471 O1484 1.251 . S
O1472 C1471 1.261 . S
H1473 C1467 0.930 . S
H1474 C1469 0.930 . S
N1475 Cu1464 1.985 1_655 S
N1475 C1477 1.335 . S
N1475 C1478 1.390 1_655 S
N1476 C1477 1.345 . S
N1476 C1479 1.336 . S
C1477 N1475 1.335 . S
C1477 N1476 1.345 . S
C1477 H1482 0.930 . S
C1478 N1475 1.390 1_455 S
C1478 C1479 1.346 1_455 S
C1478 H1483 0.930 . S
C1479 N1476 1.336 . S
C1479 C1478 1.346 1_655 S
C1479 H1486 0.929 . S
C1480 O1470 1.282 . S
C1480 O1481 1.216 . S
O1481 C1480 1.216 . S
H1482 C1477 0.930 . S
H1483 C1478 0.930 . S
O1484 Cu1464 1.959 1_655 S
O1484 C1471 1.251 . S
H1485 C1468 0.930 . S
H1486 C1479 0.929 . S
Cu1487 N1488 1.999 . S
Cu1487 O1493 1.974 . S
Cu1487 N1498 1.985 1_545 S
Cu1487 O1507 1.959 1_545 S
N1488 Cu1487 1.999 . S
N1488 C1490 1.263 . S
N1488 C1492 1.389 . S
N1489 C1490 1.358 . S
N1489 C1491 1.400 . S
C1490 N1488 1.263 . S
C1490 N1489 1.358 . S
C1490 H1496 0.930 . S
C1491 N1489 1.400 . S
C1491 C1492 1.351 . S
C1491 H1508 0.930 . S
C1492 N1488 1.389 . S
C1492 C1491 1.351 . S
C1492 H1497 0.930 . S
O1493 Cu1487 1.974 . S
O1493 C1503 1.282 . S
C1494 O1495 1.261 . S
C1494 O1507 1.251 . S
O1495 C1494 1.261 . S
H1496 C1490 0.930 . S
H1497 C1492 0.930 . S
N1498 Cu1487 1.985 1_565 S
N1498 C1500 1.335 . S
N1498 C1501 1.396 . S
N1499 C1500 1.345 . S
N1499 C1502 1.336 . S
C1500 N1498 1.335 . S
C1500 N1499 1.345 . S
C1500 H1505 0.930 . S
C1501 N1498 1.396 . S
C1501 C1502 1.375 . S
C1501 H1506 0.901 1_565 S
C1502 N1499 1.336 . S
C1502 C1501 1.375 . S
C1502 H1509 0.929 . S
C1503 O1493 1.282 . S
C1503 O1504 1.216 . S
O1504 C1503 1.216 . S
H1505 C1500 0.930 . S
H1506 C1501 0.901 1_545 S
O1507 Cu1487 1.959 1_565 S
O1507 C1494 1.251 . S
H1508 C1491 0.930 . S
H1509 C1502 0.929 . S
Cu1510 N1511 1.999 . S
Cu1510 O1516 1.974 . S
Cu1510 N1521 1.985 . S
Cu1510 O1530 1.959 . S
N1511 Cu1510 1.999 . S
N1511 C1513 1.263 1_455 S
N1511 C1515 1.389 . S
N1512 C1513 1.358 . S
N1512 C1514 1.400 . S
C1513 N1511 1.263 1_655 S
C1513 N1512 1.358 . S
C1513 H1519 0.930 . S
C1514 N1512 1.400 . S
C1514 C1515 1.351 1_655 S
C1514 H1531 0.930 . S
C1515 N1511 1.389 . S
C1515 C1514 1.351 1_455 S
C1515 H1520 0.930 . S
O1516 Cu1510 1.974 . S
O1516 C1526 1.282 1_455 S
C1517 O1518 1.261 . S
C1517 O1530 1.251 . S
O1518 C1517 1.261 . S
H1519 C1513 0.930 . S
H1520 C1515 0.930 . S
N1521 Cu1510 1.985 . S
N1521 C1523 1.335 . S
N1521 C1524 1.390 . S
N1522 C1523 1.345 . S
N1522 C1525 1.336 . S
C1523 N1521 1.335 . S
C1523 N1522 1.345 . S
C1523 H1528 0.930 . S
C1524 N1521 1.390 . S
C1524 C1525 1.346 . S
C1524 H1529 0.930 . S
C1525 N1522 1.336 . S
C1525 C1524 1.346 . S
C1525 H1532 0.929 . S
C1526 O1516 1.282 1_655 S
C1526 O1527 1.216 1_655 S
O1527 C1526 1.216 1_455 S
H1528 C1523 0.930 . S
H1529 C1524 0.930 . S
O1530 Cu1510 1.959 . S
O1530 C1517 1.251 . S
H1531 C1514 0.930 . S
H1532 C1525 0.929 . S
Cu1533 N1534 1.999 . S
Cu1533 O1539 1.974 . S
Cu1533 N1544 2.025 . S
Cu1533 O1553 1.959 1_545 S
N1534 Cu1533 1.999 . S
N1534 C1536 1.263 . S
N1534 C1538 1.389 . S
N1535 C1536 1.358 . S
N1535 C1537 1.400 . S
C1536 N1534 1.263 . S
C1536 N1535 1.358 . S
C1536 H1542 0.930 . S
C1537 N1535 1.400 . S
C1537 C1538 1.351 . S
C1537 H1554 0.930 . S
C1538 N1534 1.389 . S
C1538 C1537 1.351 . S
C1538 H1543 0.930 . S
O1539 Cu1533 1.974 . S
O1539 C1549 1.282 . S
C1540 O1541 1.258 . S
C1540 O1553 1.251 . S
O1541 C1540 1.258 . S
H1542 C1536 0.930 . S
H1543 C1538 0.930 . S
N1544 Cu1533 2.025 . S
N1544 C1546 1.272 1_545 S
N1544 C1547 1.406 . S
N1545 C1546 1.345 . S
N1545 C1548 1.336 . S
C1546 N1544 1.272 1_565 S
C1546 N1545 1.345 . S
C1546 H1551 0.930 . S
C1547 N1544 1.406 . S
C1547 C1548 1.346 1_545 S
C1547 H1552 0.930 . S
C1548 N1545 1.336 . S
C1548 C1547 1.346 1_565 S
C1548 H1555 0.929 . S
C1549 O1539 1.282 . S
C1549 O1550 1.216 . S
O1550 C1549 1.216 . S
H1551 C1546 0.930 . S
H1552 C1547 0.930 . S
O1553 Cu1533 1.959 1_565 S
O1553 C1540 1.251 . S
H1554 C1537 0.930 . S
H1555 C1548 0.929 . S
Cu1556 N1557 1.999 . S
Cu1556 O1562 1.974 . S
Cu1556 N1567 1.985 . S
Cu1556 O1576 1.959 . S
N1557 Cu1556 1.999 . S
N1557 C1559 1.263 . S
N1557 C1561 1.389 . S
N1558 C1559 1.358 . S
N1558 C1560 1.400 . S
C1559 N1557 1.263 . S
C1559 N1558 1.358 . S
C1559 H1565 0.930 . S
C1560 N1558 1.400 . S
C1560 C1561 1.351 . S
C1560 H1577 0.930 . S
C1561 N1557 1.389 . S
C1561 C1560 1.351 . S
C1561 H1566 0.930 . S
O1562 Cu1556 1.974 . S
O1562 C1572 1.282 . S
C1563 O1564 1.261 . S
C1563 O1576 1.251 . S
O1564 C1563 1.261 . S
H1565 C1559 0.930 . S
H1566 C1561 0.930 . S
N1567 Cu1556 1.985 . S
N1567 C1569 1.335 . S
N1567 C1570 1.390 . S
N1568 C1569 1.345 . S
N1568 C1571 1.336 . S
C1569 N1567 1.335 . S
C1569 N1568 1.345 . S
C1569 H1574 0.930 . S
C1570 N1567 1.390 . S
C1570 C1571 1.346 . S
C1570 H1575 0.930 . S
C1571 N1568 1.336 . S
C1571 C1570 1.346 . S
C1571 H1578 0.929 . S
C1572 O1562 1.282 . S
C1572 O1573 1.216 . S
O1573 C1572 1.216 . S
H1574 C1569 0.930 . S
H1575 C1570 0.930 . S
O1576 Cu1556 1.959 . S
O1576 C1563 1.251 . S
H1577 C1560 0.930 . S
H1578 C1571 0.929 . S
Cu1579 N1580 1.999 . S
Cu1579 O1585 1.974 . S
Cu1579 N1590 1.985 . S
Cu1579 O1599 1.959 . S
N1580 Cu1579 1.999 . S
N1580 C1582 1.263 . S
N1580 C1584 1.389 . S
N1581 C1582 1.358 . S
N1581 C1583 1.400 . S
C1582 N1580 1.263 . S
C1582 N1581 1.358 . S
C1582 H1588 0.930 . S
C1583 N1581 1.400 . S
C1583 C1584 1.351 . S
C1583 H1600 0.930 . S
C1584 N1580 1.389 . S
C1584 C1583 1.351 . S
C1584 H1589 0.930 . S
O1585 Cu1579 1.974 . S
O1585 C1595 1.282 . S
C1586 O1587 1.261 . S
C1586 O1599 1.251 . S
O1587 C1586 1.261 . S
H1588 C1582 0.930 . S
H1589 C1584 0.930 . S
N1590 Cu1579 1.985 . S
N1590 C1592 1.335 . S
N1590 C1593 1.390 . S
N1591 C1592 1.345 . S
N1591 C1594 1.336 . S
C1592 N1590 1.335 . S
C1592 N1591 1.345 . S
C1592 H1597 0.930 . S
C1593 N1590 1.390 . S
C1593 C1594 1.346 . S
C1593 H1598 0.930 . S
C1594 N1591 1.336 . S
C1594 C1593 1.346 . S
C1594 H1601 0.929 . S
C1595 O1585 1.282 . S
C1595 O1596 1.216 . S
O1596 C1595 1.216 . S
H1597 C1592 0.930 . S
H1598 C1593 0.930 . S
O1599 Cu1579 1.959 . S
O1599 C1586 1.251 . S
H1600 C1583 0.930 . S
H1601 C1594 0.929 . S
Cu1602 N1603 1.999 . S
Cu1602 O1608 1.974 . S
Cu1602 N1613 1.985 . S
Cu1602 O1622 1.959 . S
N1603 Cu1602 1.999 . S
N1603 C1605 1.263 . S
N1603 C1607 1.389 . S
N1604 C1605 1.358 . S
N1604 C1606 1.400 . S
C1605 N1603 1.263 . S
C1605 N1604 1.358 . S
C1605 H1611 0.930 . S
C1606 N1604 1.400 . S
C1606 C1607 1.351 . S
C1606 H1623 0.930 . S
C1607 N1603 1.389 . S
C1607 C1606 1.351 . S
C1607 H1612 0.930 . S
O1608 Cu1602 1.974 . S
O1608 C1618 1.282 . S
C1609 O1610 1.261 . S
C1609 O1622 1.251 . S
O1610 C1609 1.261 . S
H1611 C1605 0.930 . S
H1612 C1607 0.930 . S
N1613 Cu1602 1.985 . S
N1613 C1615 1.335 . S
N1613 C1616 1.390 . S
N1614 C1615 1.345 . S
N1614 C1617 1.336 . S
C1615 N1613 1.335 . S
C1615 N1614 1.345 . S
C1615 H1620 0.930 . S
C1616 N1613 1.390 . S
C1616 C1617 1.346 . S
C1616 H1621 0.930 . S
C1617 N1614 1.336 . S
C1617 C1616 1.346 . S
C1617 H1624 0.929 . S
C1618 O1608 1.282 . S
C1618 O1619 1.216 . S
O1619 C1618 1.216 . S
H1620 C1615 0.930 . S
H1621 C1616 0.930 . S
O1622 Cu1602 1.959 . S
O1622 C1609 1.251 . S
H1623 C1606 0.930 . S
H1624 C1617 0.929 . S
Cu1625 N1626 1.999 . S
Cu1625 O1631 1.974 . S
Cu1625 N1636 1.985 . S
Cu1625 O1645 1.959 . S
N1626 Cu1625 1.999 . S
N1626 C1628 1.263 . S
N1626 C1630 1.389 . S
N1627 C1628 1.358 . S
N1627 C1629 1.400 . S
C1628 N1626 1.263 . S
C1628 N1627 1.358 . S
C1628 H1634 0.930 . S
C1629 N1627 1.400 . S
C1629 C1630 1.351 . S
C1629 H1646 0.930 . S
C1630 N1626 1.389 . S
C1630 C1629 1.351 . S
C1630 H1635 0.930 . S
O1631 Cu1625 1.974 . S
O1631 C1641 1.282 . S
C1632 O1633 1.261 . S
C1632 O1645 1.251 . S
O1633 C1632 1.261 . S
H1634 C1628 0.930 . S
H1635 C1630 0.930 . S
N1636 Cu1625 1.985 . S
N1636 C1638 1.335 . S
N1636 C1639 1.390 . S
N1637 C1638 1.345 . S
N1637 C1640 1.336 . S
C1638 N1636 1.335 . S
C1638 N1637 1.345 . S
C1638 H1643 0.930 . S
C1639 N1636 1.390 . S
C1639 C1640 1.346 . S
C1639 H1644 0.930 . S
C1640 N1637 1.336 . S
C1640 C1639 1.346 . S
C1640 H1647 0.929 . S
C1641 O1631 1.282 . S
C1641 O1642 1.216 . S
O1642 C1641 1.216 . S
H1643 C1638 0.930 . S
H1644 C1639 0.930 . S
O1645 Cu1625 1.959 . S
O1645 C1632 1.251 . S
H1646 C1629 0.930 . S
H1647 C1640 0.929 . S
Cu1648 N1649 1.999 . S
Cu1648 O1654 1.974 . S
Cu1648 N1659 1.985 . S
Cu1648 O1668 1.959 . S
N1649 Cu1648 1.999 . S
N1649 C1651 1.263 . S
N1649 C1653 1.389 . S
N1650 C1651 1.358 . S
N1650 C1652 1.400 . S
C1651 N1649 1.263 . S
C1651 N1650 1.358 . S
C1651 H1657 0.930 . S
C1652 N1650 1.400 . S
C1652 C1653 1.351 . S
C1652 H1669 0.930 . S
C1653 N1649 1.389 . S
C1653 C1652 1.351 . S
C1653 H1658 0.930 . S
O1654 Cu1648 1.974 . S
O1654 C1664 1.282 . S
C1655 O1656 1.261 . S
C1655 O1668 1.251 . S
O1656 C1655 1.261 . S
H1657 C1651 0.930 . S
H1658 C1653 0.930 . S
N1659 Cu1648 1.985 . S
N1659 C1661 1.335 . S
N1659 C1662 1.390 . S
N1660 C1661 1.345 . S
N1660 C1663 1.336 . S
C1661 N1659 1.335 . S
C1661 N1660 1.345 . S
C1661 H1666 0.930 . S
C1662 N1659 1.390 . S
C1662 C1663 1.346 . S
C1662 H1667 0.930 . S
C1663 N1660 1.336 . S
C1663 C1662 1.346 . S
C1663 H1670 0.929 . S
C1664 O1654 1.282 . S
C1664 O1665 1.216 . S
O1665 C1664 1.216 . S
H1666 C1661 0.930 . S
H1667 C1662 0.930 . S
O1668 Cu1648 1.959 . S
O1668 C1655 1.251 . S
H1669 C1652 0.930 . S
H1670 C1663 0.929 . S
Cu1671 N1672 1.999 . S
Cu1671 O1677 1.974 . S
Cu1671 N1682 1.985 . S
Cu1671 O1691 1.959 . S
N1672 Cu1671 1.999 . S
N1672 C1674 1.263 . S
N1672 C1676 1.389 . S
N1673 C1674 1.358 . S
N1673 C1675 1.400 . S
C1674 N1672 1.263 . S
C1674 N1673 1.358 . S
C1674 H1680 0.930 . S
C1675 N1673 1.400 . S
C1675 C1676 1.351 . S
C1675 H1692 0.930 . S
C1676 N1672 1.389 . S
C1676 C1675 1.351 . S
C1676 H1681 0.930 . S
O1677 Cu1671 1.974 . S
O1677 C1687 1.282 . S
C1678 O1679 1.261 . S
C1678 O1691 1.251 . S
O1679 C1678 1.261 . S
H1680 C1674 0.930 . S
H1681 C1676 0.930 . S
N1682 Cu1671 1.985 . S
N1682 C1684 1.335 . S
N1682 C1685 1.390 . S
N1683 C1684 1.345 . S
N1683 C1686 1.336 . S
C1684 N1682 1.335 . S
C1684 N1683 1.345 . S
C1684 H1689 0.930 . S
C1685 N1682 1.390 . S
C1685 C1686 1.346 . S
C1685 H1690 0.930 . S
C1686 N1683 1.336 . S
C1686 C1685 1.346 . S
C1686 H1693 0.929 . S
C1687 O1677 1.282 . S
C1687 O1688 1.216 . S
O1688 C1687 1.216 . S
H1689 C1684 0.930 . S
H1690 C1685 0.930 . S
O1691 Cu1671 1.959 . S
O1691 C1678 1.251 . S
H1692 C1675 0.930 . S
H1693 C1686 0.929 . S
Cu1694 N1695 1.999 . S
Cu1694 O1700 1.974 . S
Cu1694 N1705 1.985 . S
Cu1694 O1714 1.959 . S
N1695 Cu1694 1.999 . S
N1695 C1697 1.263 . S
N1695 C1699 1.389 . S
N1696 C1697 1.358 . S
N1696 C1698 1.400 . S
C1697 N1695 1.263 . S
C1697 N1696 1.358 . S
C1697 H1703 0.930 . S
C1698 N1696 1.400 . S
C1698 C1699 1.351 . S
C1698 H1715 0.930 . S
C1699 N1695 1.389 . S
C1699 C1698 1.351 . S
C1699 H1704 0.930 . S
O1700 Cu1694 1.974 . S
O1700 C1710 1.282 . S
C1701 O1702 1.261 . S
C1701 O1714 1.251 . S
O1702 C1701 1.261 . S
H1703 C1697 0.930 . S
H1704 C1699 0.930 . S
N1705 Cu1694 1.985 . S
N1705 C1707 1.335 . S
N1705 C1708 1.390 . S
N1706 C1707 1.345 . S
N1706 C1709 1.336 . S
C1707 N1705 1.335 . S
C1707 N1706 1.345 . S
C1707 H1712 0.930 . S
C1708 N1705 1.390 . S
C1708 C1709 1.346 . S
C1708 H1713 0.930 . S
C1709 N1706 1.336 . S
C1709 C1708 1.346 . S
C1709 H1716 0.929 . S
C1710 O1700 1.282 . S
C1710 O1711 1.216 . S
O1711 C1710 1.216 . S
H1712 C1707 0.930 . S
H1713 C1708 0.930 . S
O1714 Cu1694 1.959 . S
O1714 C1701 1.251 . S
H1715 C1698 0.930 . S
H1716 C1709 0.929 . S
Cu1717 N1718 1.999 . S
Cu1717 O1723 1.974 . S
Cu1717 N1728 1.985 . S
Cu1717 O1737 1.959 . S
N1718 Cu1717 1.999 . S
N1718 C1720 1.263 . S
N1718 C1722 1.389 . S
N1719 C1720 1.358 . S
N1719 C1721 1.400 . S
C1720 N1718 1.263 . S
C1720 N1719 1.358 . S
C1720 H1726 0.930 . S
C1721 N1719 1.400 . S
C1721 C1722 1.351 . S
C1721 H1738 0.930 . S
C1722 N1718 1.389 . S
C1722 C1721 1.351 . S
C1722 H1727 0.930 . S
O1723 Cu1717 1.974 . S
O1723 C1733 1.282 . S
C1724 O1725 1.261 . S
C1724 O1737 1.251 . S
O1725 C1724 1.261 . S
H1726 C1720 0.930 . S
H1727 C1722 0.930 . S
N1728 Cu1717 1.985 . S
N1728 C1730 1.335 . S
N1728 C1731 1.390 . S
N1729 C1730 1.345 . S
N1729 C1732 1.336 . S
C1730 N1728 1.335 . S
C1730 N1729 1.345 . S
C1730 H1735 0.930 . S
C1731 N1728 1.390 . S
C1731 C1732 1.346 . S
C1731 H1736 0.930 . S
C1732 N1729 1.336 . S
C1732 C1731 1.346 . S
C1732 H1739 0.929 . S
C1733 O1723 1.282 . S
C1733 O1734 1.216 . S
O1734 C1733 1.216 . S
H1735 C1730 0.930 . S
H1736 C1731 0.930 . S
O1737 Cu1717 1.959 . S
O1737 C1724 1.251 . S
H1738 C1721 0.930 . S
H1739 C1732 0.929 . S
Cu1740 N1741 1.999 . S
Cu1740 O1746 1.974 . S
Cu1740 N1751 1.985 . S
Cu1740 O1760 1.959 . S
N1741 Cu1740 1.999 . S
N1741 C1743 1.263 . S
N1741 C1745 1.389 . S
N1742 C1743 1.358 . S
N1742 C1744 1.400 . S
C1743 N1741 1.263 . S
C1743 N1742 1.358 . S
C1743 H1749 0.930 . S
C1744 N1742 1.400 . S
C1744 C1745 1.351 . S
C1744 H1761 0.930 . S
C1745 N1741 1.389 . S
C1745 C1744 1.351 . S
C1745 H1750 0.930 . S
O1746 Cu1740 1.974 . S
O1746 C1756 1.282 . S
C1747 O1748 1.261 . S
C1747 O1760 1.251 . S
O1748 C1747 1.261 . S
H1749 C1743 0.930 . S
H1750 C1745 0.930 . S
N1751 Cu1740 1.985 . S
N1751 C1753 1.335 . S
N1751 C1754 1.390 . S
N1752 C1753 1.345 . S
N1752 C1755 1.336 . S
C1753 N1751 1.335 . S
C1753 N1752 1.345 . S
C1753 H1758 0.930 . S
C1754 N1751 1.390 . S
C1754 C1755 1.346 . S
C1754 H1759 0.930 . S
C1755 N1752 1.336 . S
C1755 C1754 1.346 . S
C1755 H1762 0.929 . S
C1756 O1746 1.282 . S
C1756 O1757 1.216 . S
O1757 C1756 1.216 . S
H1758 C1753 0.930 . S
H1759 C1754 0.930 . S
O1760 Cu1740 1.959 . S
O1760 C1747 1.251 . S
H1761 C1744 0.930 . S
H1762 C1755 0.929 . S
Cu1763 N1764 1.999 . S
Cu1763 O1769 1.974 . S
Cu1763 N1774 1.985 . S
Cu1763 O1783 1.959 . S
N1764 Cu1763 1.999 . S
N1764 C1766 1.263 . S
N1764 C1768 1.389 . S
N1765 C1766 1.358 . S
N1765 C1767 1.400 . S
C1766 N1764 1.263 . S
C1766 N1765 1.358 . S
C1766 H1772 0.930 . S
C1767 N1765 1.400 . S
C1767 C1768 1.351 . S
C1767 H1784 0.930 . S
C1768 N1764 1.389 . S
C1768 C1767 1.351 . S
C1768 H1773 0.930 . S
O1769 Cu1763 1.974 . S
O1769 C1779 1.282 . S
C1770 O1771 1.261 . S
C1770 O1783 1.251 . S
O1771 C1770 1.261 . S
H1772 C1766 0.930 . S
H1773 C1768 0.930 . S
N1774 Cu1763 1.985 . S
N1774 C1776 1.335 . S
N1774 C1777 1.390 . S
N1775 C1776 1.345 . S
N1775 C1778 1.336 . S
C1776 N1774 1.335 . S
C1776 N1775 1.345 . S
C1776 H1781 0.930 . S
C1777 N1774 1.390 . S
C1777 C1778 1.346 . S
C1777 H1782 0.930 . S
C1778 N1775 1.336 . S
C1778 C1777 1.346 . S
C1778 H1785 0.929 . S
C1779 O1769 1.282 . S
C1779 O1780 1.216 . S
O1780 C1779 1.216 . S
H1781 C1776 0.930 . S
H1782 C1777 0.930 . S
O1783 Cu1763 1.959 . S
O1783 C1770 1.251 . S
H1784 C1767 0.930 . S
H1785 C1778 0.929 . S
Cu1786 N1787 1.999 . S
Cu1786 O1792 1.974 . S
Cu1786 N1797 1.985 . S
Cu1786 O1806 1.959 . S
N1787 Cu1786 1.999 . S
N1787 C1789 1.263 . S
N1787 C1791 1.389 . S
N1788 C1789 1.358 . S
N1788 C1790 1.400 . S
C1789 N1787 1.263 . S
C1789 N1788 1.358 . S
C1789 H1795 0.930 . S
C1790 N1788 1.400 . S
C1790 C1791 1.351 . S
C1790 H1807 0.930 . S
C1791 N1787 1.389 . S
C1791 C1790 1.351 . S
C1791 H1796 0.930 . S
O1792 Cu1786 1.974 . S
O1792 C1802 1.282 . S
C1793 O1794 1.261 . S
C1793 O1806 1.251 . S
O1794 C1793 1.261 . S
H1795 C1789 0.930 . S
H1796 C1791 0.930 . S
N1797 Cu1786 1.985 . S
N1797 C1799 1.335 . S
N1797 C1800 1.390 . S
N1798 C1799 1.345 . S
N1798 C1801 1.336 . S
C1799 N1797 1.335 . S
C1799 N1798 1.345 . S
C1799 H1804 0.930 . S
C1800 N1797 1.390 . S
C1800 C1801 1.346 . S
C1800 H1805 0.930 . S
C1801 N1798 1.336 . S
C1801 C1800 1.346 . S
C1801 H1808 0.929 . S
C1802 O1792 1.282 . S
C1802 O1803 1.216 . S
O1803 C1802 1.216 . S
H1804 C1799 0.930 . S
H1805 C1800 0.930 . S
O1806 Cu1786 1.959 . S
O1806 C1793 1.251 . S
H1807 C1790 0.930 . S
H1808 C1801 0.929 . S
Cu1809 N1810 1.999 . S
Cu1809 O1815 1.974 . S
Cu1809 N1820 1.985 . S
Cu1809 O1829 1.959 . S
N1810 Cu1809 1.999 . S
N1810 C1812 1.263 . S
N1810 C1814 1.389 . S
N1811 C1812 1.358 . S
N1811 C1813 1.400 . S
C1812 N1810 1.263 . S
C1812 N1811 1.358 . S
C1812 H1818 0.930 . S
C1813 N1811 1.400 . S
C1813 C1814 1.351 . S
C1813 H1830 0.930 . S
C1814 N1810 1.389 . S
C1814 C1813 1.351 . S
C1814 H1819 0.930 . S
O1815 Cu1809 1.974 . S
O1815 C1825 1.282 . S
C1816 O1817 1.261 . S
C1816 O1829 1.251 . S
O1817 C1816 1.261 . S
H1818 C1812 0.930 . S
H1819 C1814 0.930 . S
N1820 Cu1809 1.985 . S
N1820 C1822 1.335 . S
N1820 C1823 1.390 . S
N1821 C1822 1.345 . S
N1821 C1824 1.336 . S
C1822 N1820 1.335 . S
C1822 N1821 1.345 . S
C1822 H1827 0.930 . S
C1823 N1820 1.390 . S
C1823 C1824 1.346 . S
C1823 H1828 0.930 . S
C1824 N1821 1.336 . S
C1824 C1823 1.346 . S
C1824 H1831 0.929 . S
C1825 O1815 1.282 . S
C1825 O1826 1.216 . S
O1826 C1825 1.216 . S
H1827 C1822 0.930 . S
H1828 C1823 0.930 . S
O1829 Cu1809 1.959 . S
O1829 C1816 1.251 . S
H1830 C1813 0.930 . S
H1831 C1824 0.929 . S
C1832 C1833 1.349 . S
C1832 C1834 1.327 . S
C1832 H1857 0.950 . S
C1833 C1832 1.349 . S
C1833 C1849 1.349 . S
C1834 C1832 1.327 . S
C1834 C1853 1.429 . S
C1834 H1858 0.950 . S
C1835 C1852 1.574 . S
C1835 C1854 1.368 . S
C1835 H1859 0.949 . S
H1836 C1840 0.949 . S
C1837 C1838 1.349 . S
C1837 C1839 1.327 . S
C1837 H1860 0.950 . S
C1838 C1837 1.349 . S
C1838 C1850 1.349 . S
C1839 C1837 1.327 . S
C1839 C1855 1.429 . S
C1839 H1861 0.950 . S
C1840 H1836 0.949 . S
C1840 C1848 1.574 . S
C1840 C1856 1.368 . S
H1841 C1849 0.950 . S
H1842 C1847 0.950 . S
H1843 C1848 0.949 . S
H1844 C1850 0.950 . S
H1845 C1851 0.950 . S
H1846 C1852 0.949 . S
C1847 H1842 0.950 . S
C1847 C1849 1.327 . S
C1847 C1853 1.429 . S
C1848 C1840 1.574 . S
C1848 H1843 0.949 . S
C1848 C1854 1.368 . S
C1849 C1833 1.349 . S
C1849 H1841 0.950 . S
C1849 C1847 1.327 . S
C1850 C1838 1.349 . S
C1850 H1844 0.950 . S
C1850 C1851 1.327 . S
C1851 H1845 0.950 . S
C1851 C1850 1.327 . S
C1851 C1855 1.429 . S
C1852 C1835 1.574 . S
C1852 H1846 0.949 . S
C1852 C1856 1.368 . S
C1853 C1834 1.429 . S
C1853 C1847 1.429 . S
C1853 C1854 1.523 . S
C1854 C1835 1.368 . S
C1854 C1848 1.368 . S
C1854 C1853 1.523 . S
C1855 C1839 1.429 . S
C1855 C1851 1.429 . S
C1855 C1856 1.523 . S
C1856 C1840 1.368 . S
C1856 C1852 1.368 . S
C1856 C1855 1.523 . S
H1857 C1832 0.950 . S
H1858 C1834 0.950 . S
H1859 C1835 0.949 . S
H1860 C1837 0.950 . S
H1861 C1839 0.950 . S
C1862 C1863 1.349 . S
C1862 C1864 1.327 . S
C1862 H1887 0.950 . S
C1863 C1862 1.349 . S
C1863 C1879 1.349 . S
C1864 C1862 1.327 . S
C1864 C1883 1.429 . S
C1864 H1888 0.950 . S
C1865 C1882 1.574 . S
C1865 C1884 1.368 . S
C1865 H1889 0.949 . S
H1866 C1870 0.949 . S
C1867 C1868 1.349 . S
C1867 C1869 1.327 . S
C1867 H1890 0.950 . S
C1868 C1867 1.349 . S
C1868 C1880 1.349 . S
C1869 C1867 1.327 . S
C1869 C1885 1.429 . S
C1869 H1891 0.950 . S
C1870 H1866 0.949 . S
C1870 C1878 1.574 . S
C1870 C1886 1.368 . S
H1871 C1879 0.950 . S
H1872 C1877 0.950 . S
H1873 C1878 0.949 . S
H1874 C1880 0.950 . S
H1875 C1881 0.950 . S
H1876 C1882 0.949 . S
C1877 H1872 0.950 . S
C1877 C1879 1.327 . S
C1877 C1883 1.429 . S
C1878 C1870 1.574 . S
C1878 H1873 0.949 . S
C1878 C1884 1.368 . S
C1879 C1863 1.349 . S
C1879 H1871 0.950 . S
C1879 C1877 1.327 . S
C1880 C1868 1.349 . S
C1880 H1874 0.950 . S
C1880 C1881 1.327 . S
C1881 H1875 0.950 . S
C1881 C1880 1.327 . S
C1881 C1885 1.429 . S
C1882 C1865 1.574 . S
C1882 H1876 0.949 . S
C1882 C1886 1.368 . S
C1883 C1864 1.429 . S
C1883 C1877 1.429 . S
C1883 C1884 1.523 . S
C1884 C1865 1.368 . S
C1884 C1878 1.368 . S
C1884 C1883 1.523 . S
C1885 C1869 1.429 . S
C1885 C1881 1.429 . S
C1885 C1886 1.523 . S
C1886 C1870 1.368 . S
C1886 C1882 1.368 . S
C1886 C1885 1.523 . S
H1887 C1862 0.950 . S
H1888 C1864 0.950 . S
H1889 C1865 0.949 . S
H1890 C1867 0.950 . S
H1891 C1869 0.950 . S
C1892 C1893 1.349 . S
C1892 C1894 1.327 . S
C1892 H1917 0.950 . S
C1893 C1892 1.349 . S
C1893 C1909 1.349 . S
C1894 C1892 1.327 . S
C1894 C1913 1.429 . S
C1894 H1918 0.950 . S
C1895 C1912 1.574 . S
C1895 C1914 1.368 . S
C1895 H1919 0.949 . S
H1896 C1900 0.949 . S
C1897 C1898 1.349 . S
C1897 C1899 1.327 . S
C1897 H1920 0.950 . S
C1898 C1897 1.349 . S
C1898 C1910 1.349 . S
C1899 C1897 1.327 . S
C1899 C1915 1.429 . S
C1899 H1921 0.950 . S
C1900 H1896 0.949 . S
C1900 C1908 1.574 . S
C1900 C1916 1.368 . S
H1901 C1909 0.950 . S
H1902 C1907 0.950 . S
H1903 C1908 0.949 . S
H1904 C1910 0.950 . S
H1905 C1911 0.950 . S
H1906 C1912 0.949 . S
C1907 H1902 0.950 . S
C1907 C1909 1.327 . S
C1907 C1913 1.429 . S
C1908 C1900 1.574 . S
C1908 H1903 0.949 . S
C1908 C1914 1.368 . S
C1909 C1893 1.349 . S
C1909 H1901 0.950 . S
C1909 C1907 1.327 . S
C1910 C1898 1.349 . S
C1910 H1904 0.950 . S
C1910 C1911 1.327 . S
C1911 H1905 0.950 . S
C1911 C1910 1.327 . S
C1911 C1915 1.429 . S
C1912 C1895 1.574 . S
C1912 H1906 0.949 . S
C1912 C1916 1.368 . S
C1913 C1894 1.429 . S
C1913 C1907 1.429 . S
C1913 C1914 1.523 . S
C1914 C1895 1.368 . S
C1914 C1908 1.368 . S
C1914 C1913 1.523 . S
C1915 C1899 1.429 . S
C1915 C1911 1.429 . S
C1915 C1916 1.523 . S
C1916 C1900 1.368 . S
C1916 C1912 1.368 . S
C1916 C1915 1.523 . S
H1917 C1892 0.950 . S
H1918 C1894 0.950 . S
H1919 C1895 0.949 . S
H1920 C1897 0.950 . S
H1921 C1899 0.950 . S
C1922 C1923 1.349 . S
C1922 C1924 1.327 . S
C1922 H1947 0.950 . S
C1923 C1922 1.349 . S
C1923 C1939 1.349 . S
C1924 C1922 1.327 . S
C1924 C1943 1.429 . S
C1924 H1948 0.950 . S
C1925 C1942 1.574 . S
C1925 C1944 1.368 . S
C1925 H1949 0.949 . S
H1926 C1930 0.949 . S
C1927 C1928 1.349 . S
C1927 C1929 1.327 . S
C1927 H1950 0.950 . S
C1928 C1927 1.349 . S
C1928 C1940 1.349 . S
C1929 C1927 1.327 . S
C1929 C1945 1.429 . S
C1929 H1951 0.950 . S
C1930 H1926 0.949 . S
C1930 C1938 1.574 . S
C1930 C1946 1.368 . S
H1931 C1939 0.950 . S
H1932 C1937 0.950 . S
H1933 C1938 0.949 . S
H1934 C1940 0.950 . S
H1935 C1941 0.950 . S
H1936 C1942 0.949 . S
C1937 H1932 0.950 . S
C1937 C1939 1.327 . S
C1937 C1943 1.429 . S
C1938 C1930 1.574 . S
C1938 H1933 0.949 . S
C1938 C1944 1.368 . S
C1939 C1923 1.349 . S
C1939 H1931 0.950 . S
C1939 C1937 1.327 . S
C1940 C1928 1.349 . S
C1940 H1934 0.950 . S
C1940 C1941 1.327 . S
C1941 H1935 0.950 . S
C1941 C1940 1.327 . S
C1941 C1945 1.429 . S
C1942 C1925 1.574 . S
C1942 H1936 0.949 . S
C1942 C1946 1.368 . S
C1943 C1924 1.429 . S
C1943 C1937 1.429 . S
C1943 C1944 1.523 . S
C1944 C1925 1.368 . S
C1944 C1938 1.368 . S
C1944 C1943 1.523 . S
C1945 C1929 1.429 . S
C1945 C1941 1.429 . S
C1945 C1946 1.523 . S
C1946 C1930 1.368 . S
C1946 C1942 1.368 . S
C1946 C1945 1.523 . S
H1947 C1922 0.950 . S
H1948 C1924 0.950 . S
H1949 C1925 0.949 . S
H1950 C1927 0.950 . S
H1951 C1929 0.950 . S
C1952 C1953 1.349 . S
C1952 C1954 1.327 . S
C1952 H1977 0.950 . S
C1953 C1952 1.349 . S
C1953 C1969 1.349 . S
C1954 C1952 1.327 . S
C1954 C1973 1.429 . S
C1954 H1978 0.950 . S
C1955 C1972 1.574 . S
C1955 C1974 1.368 . S
C1955 H1979 0.949 . S
H1956 C1960 0.949 . S
C1957 C1958 1.349 . S
C1957 C1959 1.327 . S
C1957 H1980 0.950 . S
C1958 C1957 1.349 . S
C1958 C1970 1.349 . S
C1959 C1957 1.327 . S
C1959 C1975 1.429 . S
C1959 H1981 0.950 . S
C1960 H1956 0.949 . S
C1960 C1968 1.574 . S
C1960 C1976 1.368 . S
H1961 C1969 0.950 . S
H1962 C1967 0.950 . S
H1963 C1968 0.949 . S
H1964 C1970 0.950 . S
H1965 C1971 0.950 . S
H1966 C1972 0.949 . S
C1967 H1962 0.950 . S
C1967 C1969 1.327 . S
C1967 C1973 1.429 . S
C1968 C1960 1.574 . S
C1968 H1963 0.949 . S
C1968 C1974 1.368 . S
C1969 C1953 1.349 . S
C1969 H1961 0.950 . S
C1969 C1967 1.327 . S
C1970 C1958 1.349 . S
C1970 H1964 0.950 . S
C1970 C1971 1.327 . S
C1971 H1965 0.950 . S
C1971 C1970 1.327 . S
C1971 C1975 1.429 . S
C1972 C1955 1.574 . S
C1972 H1966 0.949 . S
C1972 C1976 1.368 . S
C1973 C1954 1.429 . S
C1973 C1967 1.429 . S
C1973 C1974 1.523 . S
C1974 C1955 1.368 . S
C1974 C1968 1.368 . S
C1974 C1973 1.523 . S
C1975 C1959 1.429 . S
C1975 C1971 1.429 . S
C1975 C1976 1.523 . S
C1976 C1960 1.368 . S
C1976 C1972 1.368 . S
C1976 C1975 1.523 . S
H1977 C1952 0.950 . S
H1978 C1954 0.950 . S
H1979 C1955 0.949 . S
H1980 C1957 0.950 . S
H1981 C1959 0.950 . S
C1982 C1983 1.349 . S
C1982 C1984 1.327 . S
C1982 H2007 0.950 . S
C1983 C1982 1.349 . S
C1983 C1999 1.349 . S
C1984 C1982 1.327 . S
C1984 C2003 1.429 . S
C1984 H2008 0.950 . S
C1985 C2002 1.574 . S
C1985 C2004 1.368 . S
C1985 H2009 0.949 . S
H1986 C1990 0.949 . S
C1987 C1988 1.349 . S
C1987 C1989 1.327 . S
C1987 H2010 0.950 . S
C1988 C1987 1.349 . S
C1988 C2000 1.349 . S
C1989 C1987 1.327 . S
C1989 C2005 1.429 . S
C1989 H2011 0.950 . S
C1990 H1986 0.949 . S
C1990 C1998 1.574 . S
C1990 C2006 1.368 . S
H1991 C1999 0.950 . S
H1992 C1997 0.950 . S
H1993 C1998 0.949 . S
H1994 C2000 0.950 . S
H1995 C2001 0.950 . S
H1996 C2002 0.949 . S
C1997 H1992 0.950 . S
C1997 C1999 1.327 . S
C1997 C2003 1.429 . S
C1998 C1990 1.574 . S
C1998 H1993 0.949 . S
C1998 C2004 1.368 . S
C1999 C1983 1.349 . S
C1999 H1991 0.950 . S
C1999 C1997 1.327 . S
C2000 C1988 1.349 . S
C2000 H1994 0.950 . S
C2000 C2001 1.327 . S
C2001 H1995 0.950 . S
C2001 C2000 1.327 . S
C2001 C2005 1.429 . S
C2002 C1985 1.574 . S
C2002 H1996 0.949 . S
C2002 C2006 1.368 . S
C2003 C1984 1.429 . S
C2003 C1997 1.429 . S
C2003 C2004 1.523 . S
C2004 C1985 1.368 . S
C2004 C1998 1.368 . S
C2004 C2003 1.523 . S
C2005 C1989 1.429 . S
C2005 C2001 1.429 . S
C2005 C2006 1.523 . S
C2006 C1990 1.368 . S
C2006 C2002 1.368 . S
C2006 C2005 1.523 . S
H2007 C1982 0.950 . S
H2008 C1984 0.950 . S
H2009 C1985 0.949 . S
H2010 C1987 0.950 . S
H2011 C1989 0.950 . S
C2012 C2013 1.349 . S
C2012 C2014 1.327 . S
C2012 H2037 0.950 . S
C2013 C2012 1.349 . S
C2013 C2029 1.349 . S
C2014 C2012 1.327 . S
C2014 C2033 1.429 . S
C2014 H2038 0.950 . S
C2015 C2032 1.574 . S
C2015 C2034 1.368 . S
C2015 H2039 0.949 . S
H2016 C2020 0.949 . S
C2017 C2018 1.349 . S
C2017 C2019 1.327 . S
C2017 H2040 0.950 . S
C2018 C2017 1.349 . S
C2018 C2030 1.349 . S
C2019 C2017 1.327 . S
C2019 C2035 1.429 . S
C2019 H2041 0.950 . S
C2020 H2016 0.949 . S
C2020 C2028 1.574 . S
C2020 C2036 1.368 . S
H2021 C2029 0.950 . S
H2022 C2027 0.950 . S
H2023 C2028 0.949 . S
H2024 C2030 0.950 . S
H2025 C2031 0.950 . S
H2026 C2032 0.949 . S
C2027 H2022 0.950 . S
C2027 C2029 1.327 . S
C2027 C2033 1.429 . S
C2028 C2020 1.574 . S
C2028 H2023 0.949 . S
C2028 C2034 1.368 . S
C2029 C2013 1.349 . S
C2029 H2021 0.950 . S
C2029 C2027 1.327 . S
C2030 C2018 1.349 . S
C2030 H2024 0.950 . S
C2030 C2031 1.327 . S
C2031 H2025 0.950 . S
C2031 C2030 1.327 . S
C2031 C2035 1.429 . S
C2032 C2015 1.574 . S
C2032 H2026 0.949 . S
C2032 C2036 1.368 . S
C2033 C2014 1.429 . S
C2033 C2027 1.429 . S
C2033 C2034 1.523 . S
C2034 C2015 1.368 . S
C2034 C2028 1.368 . S
C2034 C2033 1.523 . S
C2035 C2019 1.429 . S
C2035 C2031 1.429 . S
C2035 C2036 1.523 . S
C2036 C2020 1.368 . S
C2036 C2032 1.368 . S
C2036 C2035 1.523 . S
H2037 C2012 0.950 . S
H2038 C2014 0.950 . S
H2039 C2015 0.949 . S
H2040 C2017 0.950 . S
H2041 C2019 0.950 . S
C2042 C2043 1.349 . S
C2042 C2044 1.327 . S
C2042 H2067 0.950 . S
C2043 C2042 1.349 . S
C2043 C2059 1.349 . S
C2044 C2042 1.327 . S
C2044 C2063 1.429 . S
C2044 H2068 0.950 . S
C2045 C2062 1.574 . S
C2045 C2064 1.368 . S
C2045 H2069 0.949 . S
H2046 C2050 0.949 . S
C2047 C2048 1.349 . S
C2047 C2049 1.327 . S
C2047 H2070 0.950 . S
C2048 C2047 1.349 . S
C2048 C2060 1.349 . S
C2049 C2047 1.327 . S
C2049 C2065 1.429 . S
C2049 H2071 0.950 . S
C2050 H2046 0.949 . S
C2050 C2058 1.574 . S
C2050 C2066 1.368 . S
H2051 C2059 0.950 . S
H2052 C2057 0.950 . S
H2053 C2058 0.949 . S
H2054 C2060 0.950 . S
H2055 C2061 0.950 . S
H2056 C2062 0.949 . S
C2057 H2052 0.950 . S
C2057 C2059 1.327 . S
C2057 C2063 1.429 . S
C2058 C2050 1.574 . S
C2058 H2053 0.949 . S
C2058 C2064 1.368 . S
C2059 C2043 1.349 . S
C2059 H2051 0.950 . S
C2059 C2057 1.327 . S
C2060 C2048 1.349 . S
C2060 H2054 0.950 . S
C2060 C2061 1.327 . S
C2061 H2055 0.950 . S
C2061 C2060 1.327 . S
C2061 C2065 1.429 . S
C2062 C2045 1.574 . S
C2062 H2056 0.949 . S
C2062 C2066 1.368 . S
C2063 C2044 1.429 . S
C2063 C2057 1.429 . S
C2063 C2064 1.523 . S
C2064 C2045 1.368 . S
C2064 C2058 1.368 . S
C2064 C2063 1.523 . S
C2065 C2049 1.429 . S
C2065 C2061 1.429 . S
C2065 C2066 1.523 . S
C2066 C2050 1.368 . S
C2066 C2062 1.368 . S
C2066 C2065 1.523 . S
H2067 C2042 0.950 . S
H2068 C2044 0.950 . S
H2069 C2045 0.949 . S
H2070 C2047 0.950 . S
H2071 C2049 0.950 . S
C2072 C2073 1.349 . S
C2072 C2074 1.327 . S
C2072 H2097 0.950 . S
C2073 C2072 1.349 . S
C2073 C2089 1.349 . S
C2074 C2072 1.327 . S
C2074 C2093 1.429 . S
C2074 H2098 0.950 . S
C2075 C2092 1.574 . S
C2075 C2094 1.368 . S
C2075 H2099 0.949 . S
H2076 C2080 0.949 . S
C2077 C2078 1.349 . S
C2077 C2079 1.327 . S
C2077 H2100 0.950 . S
C2078 C2077 1.349 . S
C2078 C2090 1.349 . S
C2079 C2077 1.327 . S
C2079 C2095 1.429 . S
C2079 H2101 0.950 . S
C2080 H2076 0.949 . S
C2080 C2088 1.574 . S
C2080 C2096 1.368 . S
H2081 C2089 0.950 . S
H2082 C2087 0.950 . S
H2083 C2088 0.949 . S
H2084 C2090 0.950 . S
H2085 C2091 0.950 . S
H2086 C2092 0.949 . S
C2087 H2082 0.950 . S
C2087 C2089 1.327 . S
C2087 C2093 1.429 . S
C2088 C2080 1.574 . S
C2088 H2083 0.949 . S
C2088 C2094 1.368 . S
C2089 C2073 1.349 . S
C2089 H2081 0.950 . S
C2089 C2087 1.327 . S
C2090 C2078 1.349 . S
C2090 H2084 0.950 . S
C2090 C2091 1.327 . S
C2091 H2085 0.950 . S
C2091 C2090 1.327 . S
C2091 C2095 1.429 . S
C2092 C2075 1.574 . S
C2092 H2086 0.949 . S
C2092 C2096 1.368 . S
C2093 C2074 1.429 . S
C2093 C2087 1.429 . S
C2093 C2094 1.523 . S
C2094 C2075 1.368 . S
C2094 C2088 1.368 . S
C2094 C2093 1.523 . S
C2095 C2079 1.429 . S
C2095 C2091 1.429 . S
C2095 C2096 1.523 . S
C2096 C2080 1.368 . S
C2096 C2092 1.368 . S
C2096 C2095 1.523 . S
H2097 C2072 0.950 . S
H2098 C2074 0.950 . S
H2099 C2075 0.949 . S
H2100 C2077 0.950 . S
H2101 C2079 0.950 . S
C2102 C2103 1.349 . S
C2102 C2104 1.327 . S
C2102 H2127 0.950 . S
C2103 C2102 1.349 . S
C2103 C2119 1.349 . S
C2104 C2102 1.327 . S
C2104 C2123 1.429 . S
C2104 H2128 0.950 . S
C2105 C2122 1.574 . S
C2105 C2124 1.368 . S
C2105 H2129 0.949 . S
H2106 C2110 0.949 . S
C2107 C2108 1.349 . S
C2107 C2109 1.327 . S
C2107 H2130 0.950 . S
C2108 C2107 1.349 . S
C2108 C2120 1.349 . S
C2109 C2107 1.327 . S
C2109 C2125 1.429 . S
C2109 H2131 0.950 . S
C2110 H2106 0.949 . S
C2110 C2118 1.574 . S
C2110 C2126 1.368 . S
H2111 C2119 0.950 . S
H2112 C2117 0.950 . S
H2113 C2118 0.949 . S
H2114 C2120 0.950 . S
H2115 C2121 0.950 . S
H2116 C2122 0.949 . S
C2117 H2112 0.950 . S
C2117 C2119 1.327 . S
C2117 C2123 1.429 . S
C2118 C2110 1.574 . S
C2118 H2113 0.949 . S
C2118 C2124 1.368 . S
C2119 C2103 1.349 . S
C2119 H2111 0.950 . S
C2119 C2117 1.327 . S
C2120 C2108 1.349 . S
C2120 H2114 0.950 . S
C2120 C2121 1.327 . S
C2121 H2115 0.950 . S
C2121 C2120 1.327 . S
C2121 C2125 1.429 . S
C2122 C2105 1.574 . S
C2122 H2116 0.949 . S
C2122 C2126 1.368 . S
C2123 C2104 1.429 . S
C2123 C2117 1.429 . S
C2123 C2124 1.523 . S
C2124 C2105 1.368 . S
C2124 C2118 1.368 . S
C2124 C2123 1.523 . S
C2125 C2109 1.429 . S
C2125 C2121 1.429 . S
C2125 C2126 1.523 . S
C2126 C2110 1.368 . S
C2126 C2122 1.368 . S
C2126 C2125 1.523 . S
H2127 C2102 0.950 . S
H2128 C2104 0.950 . S
H2129 C2105 0.949 . S
H2130 C2107 0.950 . S
H2131 C2109 0.950 . S
C2132 C2133 1.349 . S
C2132 C2134 1.327 . S
C2132 H2157 0.950 . S
C2133 C2132 1.349 . S
C2133 C2149 1.349 . S
C2134 C2132 1.327 . S
C2134 C2153 1.429 . S
C2134 H2158 0.950 . S
C2135 C2152 1.574 . S
C2135 C2154 1.368 . S
C2135 H2159 0.949 . S
H2136 C2140 0.949 . S
C2137 C2138 1.349 . S
C2137 C2139 1.327 . S
C2137 H2160 0.950 . S
C2138 C2137 1.349 . S
C2138 C2150 1.349 . S
C2139 C2137 1.327 . S
C2139 C2155 1.429 . S
C2139 H2161 0.950 . S
C2140 H2136 0.949 . S
C2140 C2148 1.574 . S
C2140 C2156 1.368 . S
H2141 C2149 0.950 . S
H2142 C2147 0.950 . S
H2143 C2148 0.949 . S
H2144 C2150 0.950 . S
H2145 C2151 0.950 . S
H2146 C2152 0.949 . S
C2147 H2142 0.950 . S
C2147 C2149 1.327 . S
C2147 C2153 1.429 . S
C2148 C2140 1.574 . S
C2148 H2143 0.949 . S
C2148 C2154 1.368 . S
C2149 C2133 1.349 . S
C2149 H2141 0.950 . S
C2149 C2147 1.327 . S
C2150 C2138 1.349 . S
C2150 H2144 0.950 . S
C2150 C2151 1.327 . S
C2151 H2145 0.950 . S
C2151 C2150 1.327 . S
C2151 C2155 1.429 . S
C2152 C2135 1.574 . S
C2152 H2146 0.949 . S
C2152 C2156 1.368 . S
C2153 C2134 1.429 . S
C2153 C2147 1.429 . S
C2153 C2154 1.523 . S
C2154 C2135 1.368 . S
C2154 C2148 1.368 . S
C2154 C2153 1.523 . S
C2155 C2139 1.429 . S
C2155 C2151 1.429 . S
C2155 C2156 1.523 . S
C2156 C2140 1.368 . S
C2156 C2152 1.368 . S
C2156 C2155 1.523 . S
H2157 C2132 0.950 . S
H2158 C2134 0.950 . S
H2159 C2135 0.949 . S
H2160 C2137 0.950 . S
H2161 C2139 0.950 . S
C2162 C2163 1.349 . S
C2162 C2164 1.327 . S
C2162 H2187 0.950 . S
C2163 C2162 1.349 . S
C2163 C2179 1.349 . S
C2164 C2162 1.327 . S
C2164 C2183 1.429 . S
C2164 H2188 0.950 . S
C2165 C2182 1.574 . S
C2165 C2184 1.368 . S
C2165 H2189 0.949 . S
H2166 C2170 0.949 . S
C2167 C2168 1.349 . S
C2167 C2169 1.327 . S
C2167 H2190 0.950 . S
C2168 C2167 1.349 . S
C2168 C2180 1.349 . S
C2169 C2167 1.327 . S
C2169 C2185 1.429 . S
C2169 H2191 0.950 . S
C2170 H2166 0.949 . S
C2170 C2178 1.574 . S
C2170 C2186 1.368 . S
H2171 C2179 0.950 . S
H2172 C2177 0.950 . S
H2173 C2178 0.949 . S
H2174 C2180 0.950 . S
H2175 C2181 0.950 . S
H2176 C2182 0.949 . S
C2177 H2172 0.950 . S
C2177 C2179 1.327 . S
C2177 C2183 1.429 . S
C2178 C2170 1.574 . S
C2178 H2173 0.949 . S
C2178 C2184 1.368 . S
C2179 C2163 1.349 . S
C2179 H2171 0.950 . S
C2179 C2177 1.327 . S
C2180 C2168 1.349 . S
C2180 H2174 0.950 . S
C2180 C2181 1.327 . S
C2181 H2175 0.950 . S
C2181 C2180 1.327 . S
C2181 C2185 1.429 . S
C2182 C2165 1.574 . S
C2182 H2176 0.949 . S
C2182 C2186 1.368 . S
C2183 C2164 1.429 . S
C2183 C2177 1.429 . S
C2183 C2184 1.523 . S
C2184 C2165 1.368 . S
C2184 C2178 1.368 . S
C2184 C2183 1.523 . S
C2185 C2169 1.429 . S
C2185 C2181 1.429 . S
C2185 C2186 1.523 . S
C2186 C2170 1.368 . S
C2186 C2182 1.368 . S
C2186 C2185 1.523 . S
H2187 C2162 0.950 . S
H2188 C2164 0.950 . S
H2189 C2165 0.949 . S
H2190 C2167 0.950 . S
H2191 C2169 0.950 . S
C2192 C2193 1.349 . S
C2192 C2194 1.327 . S
C2192 H2217 0.950 . S
C2193 C2192 1.349 . S
C2193 C2209 1.349 . S
C2194 C2192 1.327 . S
C2194 C2213 1.429 . S
C2194 H2218 0.950 . S
C2195 C2212 1.574 . S
C2195 C2214 1.368 . S
C2195 H2219 0.949 . S
H2196 C2200 0.949 . S
C2197 C2198 1.349 . S
C2197 C2199 1.327 . S
C2197 H2220 0.950 . S
C2198 C2197 1.349 . S
C2198 C2210 1.349 . S
C2199 C2197 1.327 . S
C2199 C2215 1.429 . S
C2199 H2221 0.950 . S
C2200 H2196 0.949 . S
C2200 C2208 1.574 . S
C2200 C2216 1.368 . S
H2201 C2209 0.950 . S
H2202 C2207 0.950 . S
H2203 C2208 0.949 . S
H2204 C2210 0.950 . S
H2205 C2211 0.950 . S
H2206 C2212 0.949 . S
C2207 H2202 0.950 . S
C2207 C2209 1.327 . S
C2207 C2213 1.429 . S
C2208 C2200 1.574 . S
C2208 H2203 0.949 . S
C2208 C2214 1.368 . S
C2209 C2193 1.349 . S
C2209 H2201 0.950 . S
C2209 C2207 1.327 . S
C2210 C2198 1.349 . S
C2210 H2204 0.950 . S
C2210 C2211 1.327 . S
C2211 H2205 0.950 . S
C2211 C2210 1.327 . S
C2211 C2215 1.429 . S
C2212 C2195 1.574 . S
C2212 H2206 0.949 . S
C2212 C2216 1.368 . S
C2213 C2194 1.429 . S
C2213 C2207 1.429 . S
C2213 C2214 1.523 . S
C2214 C2195 1.368 . S
C2214 C2208 1.368 . S
C2214 C2213 1.523 . S
C2215 C2199 1.429 . S
C2215 C2211 1.429 . S
C2215 C2216 1.523 . S
C2216 C2200 1.368 . S
C2216 C2212 1.368 . S
C2216 C2215 1.523 . S
H2217 C2192 0.950 . S
H2218 C2194 0.950 . S
H2219 C2195 0.949 . S
H2220 C2197 0.950 . S
H2221 C2199 0.950 . S
C2222 C2223 1.349 . S
C2222 C2224 1.327 . S
C2222 H2247 0.950 . S
C2223 C2222 1.349 . S
C2223 C2239 1.349 . S
C2224 C2222 1.327 . S
C2224 C2243 1.429 . S
C2224 H2248 0.950 . S
C2225 C2242 1.574 . S
C2225 C2244 1.368 . S
C2225 H2249 0.949 . S
H2226 C2230 0.949 . S
C2227 C2228 1.349 . S
C2227 C2229 1.327 . S
C2227 H2250 0.950 . S
C2228 C2227 1.349 . S
C2228 C2240 1.349 . S
C2229 C2227 1.327 . S
C2229 C2245 1.429 . S
C2229 H2251 0.950 . S
C2230 H2226 0.949 . S
C2230 C2238 1.574 . S
C2230 C2246 1.368 . S
H2231 C2239 0.950 . S
H2232 C2237 0.950 . S
H2233 C2238 0.949 . S
H2234 C2240 0.950 . S
H2235 C2241 0.950 . S
H2236 C2242 0.949 . S
C2237 H2232 0.950 . S
C2237 C2239 1.327 . S
C2237 C2243 1.429 . S
C2238 C2230 1.574 . S
C2238 H2233 0.949 . S
C2238 C2244 1.368 . S
C2239 C2223 1.349 . S
C2239 H2231 0.950 . S
C2239 C2237 1.327 . S
C2240 C2228 1.349 . S
C2240 H2234 0.950 . S
C2240 C2241 1.327 . S
C2241 H2235 0.950 . S
C2241 C2240 1.327 . S
C2241 C2245 1.429 . S
C2242 C2225 1.574 . S
C2242 H2236 0.949 . S
C2242 C2246 1.368 . S
C2243 C2224 1.429 . S
C2243 C2237 1.429 . S
C2243 C2244 1.523 . S
C2244 C2225 1.368 . S
C2244 C2238 1.368 . S
C2244 C2243 1.523 . S
C2245 C2229 1.429 . S
C2245 C2241 1.429 . S
C2245 C2246 1.523 . S
C2246 C2230 1.368 . S
C2246 C2242 1.368 . S
C2246 C2245 1.523 . S
H2247 C2222 0.950 . S
H2248 C2224 0.950 . S
H2249 C2225 0.949 . S
H2250 C2227 0.950 . S
H2251 C2229 0.950 . S
C2252 C2253 1.349 . S
C2252 C2254 1.327 . S
C2252 H2277 0.950 . S
C2253 C2252 1.349 . S
C2253 C2269 1.349 . S
C2254 C2252 1.327 . S
C2254 C2273 1.429 . S
C2254 H2278 0.950 . S
C2255 C2272 1.574 . S
C2255 C2274 1.368 . S
C2255 H2279 0.949 . S
H2256 C2260 0.949 . S
C2257 C2258 1.349 . S
C2257 C2259 1.327 . S
C2257 H2280 0.950 . S
C2258 C2257 1.349 . S
C2258 C2270 1.349 . S
C2259 C2257 1.327 . S
C2259 C2275 1.429 . S
C2259 H2281 0.950 . S
C2260 H2256 0.949 . S
C2260 C2268 1.574 . S
C2260 C2276 1.368 . S
H2261 C2269 0.950 . S
H2262 C2267 0.950 . S
H2263 C2268 0.949 . S
H2264 C2270 0.950 . S
H2265 C2271 0.950 . S
H2266 C2272 0.949 . S
C2267 H2262 0.950 . S
C2267 C2269 1.327 . S
C2267 C2273 1.429 . S
C2268 C2260 1.574 . S
C2268 H2263 0.949 . S
C2268 C2274 1.368 . S
C2269 C2253 1.349 . S
C2269 H2261 0.950 . S
C2269 C2267 1.327 . S
C2270 C2258 1.349 . S
C2270 H2264 0.950 . S
C2270 C2271 1.327 . S
C2271 H2265 0.950 . S
C2271 C2270 1.327 . S
C2271 C2275 1.429 . S
C2272 C2255 1.574 . S
C2272 H2266 0.949 . S
C2272 C2276 1.368 . S
C2273 C2254 1.429 . S
C2273 C2267 1.429 . S
C2273 C2274 1.523 . S
C2274 C2255 1.368 . S
C2274 C2268 1.368 . S
C2274 C2273 1.523 . S
C2275 C2259 1.429 . S
C2275 C2271 1.429 . S
C2275 C2276 1.523 . S
C2276 C2260 1.368 . S
C2276 C2272 1.368 . S
C2276 C2275 1.523 . S
H2277 C2252 0.950 . S
H2278 C2254 0.950 . S
H2279 C2255 0.949 . S
H2280 C2257 0.950 . S
H2281 C2259 0.950 . S
C2282 C2283 1.349 . S
C2282 C2284 1.327 . S
C2282 H2307 0.950 . S
C2283 C2282 1.349 . S
C2283 C2299 1.349 . S
C2284 C2282 1.327 . S
C2284 C2303 1.429 . S
C2284 H2308 0.950 . S
C2285 C2302 1.574 . S
C2285 C2304 1.368 . S
C2285 H2309 0.949 . S
H2286 C2290 0.949 . S
C2287 C2288 1.349 . S
C2287 C2289 1.327 . S
C2287 H2310 0.950 . S
C2288 C2287 1.349 . S
C2288 C2300 1.349 . S
C2289 C2287 1.327 . S
C2289 C2305 1.429 . S
C2289 H2311 0.950 . S
C2290 H2286 0.949 . S
C2290 C2298 1.574 . S
C2290 C2306 1.368 . S
H2291 C2299 0.950 . S
H2292 C2297 0.950 . S
H2293 C2298 0.949 . S
H2294 C2300 0.950 . S
H2295 C2301 0.950 . S
H2296 C2302 0.949 . S
C2297 H2292 0.950 . S
C2297 C2299 1.327 . S
C2297 C2303 1.429 . S
C2298 C2290 1.574 . S
C2298 H2293 0.949 . S
C2298 C2304 1.368 . S
C2299 C2283 1.349 . S
C2299 H2291 0.950 . S
C2299 C2297 1.327 . S
C2300 C2288 1.349 . S
C2300 H2294 0.950 . S
C2300 C2301 1.327 . S
C2301 H2295 0.950 . S
C2301 C2300 1.327 . S
C2301 C2305 1.429 . S
C2302 C2285 1.574 . S
C2302 H2296 0.949 . S
C2302 C2306 1.368 . S
C2303 C2284 1.429 . S
C2303 C2297 1.429 . S
C2303 C2304 1.523 . S
C2304 C2285 1.368 . S
C2304 C2298 1.368 . S
C2304 C2303 1.523 . S
C2305 C2289 1.429 . S
C2305 C2301 1.429 . S
C2305 C2306 1.523 . S
C2306 C2290 1.368 . S
C2306 C2302 1.368 . S
C2306 C2305 1.523 . S
H2307 C2282 0.950 . S
H2308 C2284 0.950 . S
H2309 C2285 0.949 . S
H2310 C2287 0.950 . S
H2311 C2289 0.950 . S
C2312 C2313 1.349 . S
C2312 C2314 1.327 . S
C2312 H2337 0.950 . S
C2313 C2312 1.349 . S
C2313 C2329 1.349 . S
C2314 C2312 1.327 . S
C2314 C2333 1.429 . S
C2314 H2338 0.950 . S
C2315 C2332 1.574 . S
C2315 C2334 1.368 . S
C2315 H2339 0.949 . S
H2316 C2320 0.949 . S
C2317 C2318 1.349 . S
C2317 C2319 1.327 . S
C2317 H2340 0.950 . S
C2318 C2317 1.349 . S
C2318 C2330 1.349 . S
C2319 C2317 1.327 . S
C2319 C2335 1.429 . S
C2319 H2341 0.950 . S
C2320 H2316 0.949 . S
C2320 C2328 1.574 . S
C2320 C2336 1.368 . S
H2321 C2329 0.950 . S
H2322 C2327 0.950 . S
H2323 C2328 0.949 . S
H2324 C2330 0.950 . S
H2325 C2331 0.950 . S
H2326 C2332 0.949 . S
C2327 H2322 0.950 . S
C2327 C2329 1.327 . S
C2327 C2333 1.429 . S
C2328 C2320 1.574 . S
C2328 H2323 0.949 . S
C2328 C2334 1.368 . S
C2329 C2313 1.349 . S
C2329 H2321 0.950 . S
C2329 C2327 1.327 . S
C2330 C2318 1.349 . S
C2330 H2324 0.950 . S
C2330 C2331 1.327 . S
C2331 H2325 0.950 . S
C2331 C2330 1.327 . S
C2331 C2335 1.429 . S
C2332 C2315 1.574 . S
C2332 H2326 0.949 . S
C2332 C2336 1.368 . S
C2333 C2314 1.429 . S
C2333 C2327 1.429 . S
C2333 C2334 1.523 . S
C2334 C2315 1.368 . S
C2334 C2328 1.368 . S
C2334 C2333 1.523 . S
C2335 C2319 1.429 . S
C2335 C2331 1.429 . S
C2335 C2336 1.523 . S
C2336 C2320 1.368 . S
C2336 C2332 1.368 . S
C2336 C2335 1.523 . S
H2337 C2312 0.950 . S
H2338 C2314 0.950 . S
H2339 C2315 0.949 . S
H2340 C2317 0.950 . S
H2341 C2319 0.950 . S
C2342 C2343 1.349 . S
C2342 C2344 1.327 . S
C2342 H2367 0.950 . S
C2343 C2342 1.349 . S
C2343 C2359 1.349 . S
C2344 C2342 1.327 . S
C2344 C2363 1.429 . S
C2344 H2368 0.950 . S
C2345 C2362 1.574 . S
C2345 C2364 1.368 . S
C2345 H2369 0.949 . S
H2346 C2350 0.949 . S
C2347 C2348 1.349 . S
C2347 C2349 1.327 . S
C2347 H2370 0.950 . S
C2348 C2347 1.349 . S
C2348 C2360 1.349 . S
C2349 C2347 1.327 . S
C2349 C2365 1.429 . S
C2349 H2371 0.950 . S
C2350 H2346 0.949 . S
C2350 C2358 1.574 . S
C2350 C2366 1.368 . S
H2351 C2359 0.950 . S
H2352 C2357 0.950 . S
H2353 C2358 0.949 . S
H2354 C2360 0.950 . S
H2355 C2361 0.950 . S
H2356 C2362 0.949 . S
C2357 H2352 0.950 . S
C2357 C2359 1.327 . S
C2357 C2363 1.429 . S
C2358 C2350 1.574 . S
C2358 H2353 0.949 . S
C2358 C2364 1.368 . S
C2359 C2343 1.349 . S
C2359 H2351 0.950 . S
C2359 C2357 1.327 . S
C2360 C2348 1.349 . S
C2360 H2354 0.950 . S
C2360 C2361 1.327 . S
C2361 H2355 0.950 . S
C2361 C2360 1.327 . S
C2361 C2365 1.429 . S
C2362 C2345 1.574 . S
C2362 H2356 0.949 . S
C2362 C2366 1.368 . S
C2363 C2344 1.429 . S
C2363 C2357 1.429 . S
C2363 C2364 1.523 . S
C2364 C2345 1.368 . S
C2364 C2358 1.368 . S
C2364 C2363 1.523 . S
C2365 C2349 1.429 . S
C2365 C2361 1.429 . S
C2365 C2366 1.523 . S
C2366 C2350 1.368 . S
C2366 C2362 1.368 . S
C2366 C2365 1.523 . S
H2367 C2342 0.950 . S
H2368 C2344 0.950 . S
H2369 C2345 0.949 . S
H2370 C2347 0.950 . S
H2371 C2349 0.950 . S
C2372 C2373 1.349 . S
C2372 C2374 1.327 . S
C2372 H2397 0.950 . S
C2373 C2372 1.349 . S
C2373 C2389 1.349 . S
C2374 C2372 1.327 . S
C2374 C2393 1.429 . S
C2374 H2398 0.950 . S
C2375 C2392 1.574 . S
C2375 C2394 1.368 . S
C2375 H2399 0.949 . S
H2376 C2380 0.949 . S
C2377 C2378 1.349 . S
C2377 C2379 1.327 . S
C2377 H2400 0.950 . S
C2378 C2377 1.349 . S
C2378 C2390 1.349 . S
C2379 C2377 1.327 . S
C2379 C2395 1.429 . S
C2379 H2401 0.950 . S
C2380 H2376 0.949 . S
C2380 C2388 1.574 . S
C2380 C2396 1.368 . S
H2381 C2389 0.950 . S
H2382 C2387 0.950 . S
H2383 C2388 0.949 . S
H2384 C2390 0.950 . S
H2385 C2391 0.950 . S
H2386 C2392 0.949 . S
C2387 H2382 0.950 . S
C2387 C2389 1.327 . S
C2387 C2393 1.429 . S
C2388 C2380 1.574 . S
C2388 H2383 0.949 . S
C2388 C2394 1.368 . S
C2389 C2373 1.349 . S
C2389 H2381 0.950 . S
C2389 C2387 1.327 . S
C2390 C2378 1.349 . S
C2390 H2384 0.950 . S
C2390 C2391 1.327 . S
C2391 H2385 0.950 . S
C2391 C2390 1.327 . S
C2391 C2395 1.429 . S
C2392 C2375 1.574 . S
C2392 H2386 0.949 . S
C2392 C2396 1.368 . S
C2393 C2374 1.429 . S
C2393 C2387 1.429 . S
C2393 C2394 1.523 . S
C2394 C2375 1.368 . S
C2394 C2388 1.368 . S
C2394 C2393 1.523 . S
C2395 C2379 1.429 . S
C2395 C2391 1.429 . S
C2395 C2396 1.523 . S
C2396 C2380 1.368 . S
C2396 C2392 1.368 . S
C2396 C2395 1.523 . S
H2397 C2372 0.950 . S
H2398 C2374 0.950 . S
H2399 C2375 0.949 . S
H2400 C2377 0.950 . S
H2401 C2379 0.950 . S
C2402 C2403 1.349 . S
C2402 C2404 1.327 . S
C2402 H2427 0.950 . S
C2403 C2402 1.349 . S
C2403 C2419 1.349 . S
C2404 C2402 1.327 . S
C2404 C2423 1.429 . S
C2404 H2428 0.950 . S
C2405 C2422 1.574 . S
C2405 C2424 1.368 . S
C2405 H2429 0.949 . S
H2406 C2410 0.949 . S
C2407 C2408 1.349 . S
C2407 C2409 1.327 . S
C2407 H2430 0.950 . S
C2408 C2407 1.349 . S
C2408 C2420 1.349 . S
C2409 C2407 1.327 . S
C2409 C2425 1.429 . S
C2409 H2431 0.950 . S
C2410 H2406 0.949 . S
C2410 C2418 1.574 . S
C2410 C2426 1.368 . S
H2411 C2419 0.950 . S
H2412 C2417 0.950 . S
H2413 C2418 0.949 . S
H2414 C2420 0.950 . S
H2415 C2421 0.950 . S
H2416 C2422 0.949 . S
C2417 H2412 0.950 . S
C2417 C2419 1.327 . S
C2417 C2423 1.429 . S
C2418 C2410 1.574 . S
C2418 H2413 0.949 . S
C2418 C2424 1.368 . S
C2419 C2403 1.349 . S
C2419 H2411 0.950 . S
C2419 C2417 1.327 . S
C2420 C2408 1.349 . S
C2420 H2414 0.950 . S
C2420 C2421 1.327 . S
C2421 H2415 0.950 . S
C2421 C2420 1.327 . S
C2421 C2425 1.429 . S
C2422 C2405 1.574 . S
C2422 H2416 0.949 . S
C2422 C2426 1.368 . S
C2423 C2404 1.429 . S
C2423 C2417 1.429 . S
C2423 C2424 1.523 . S
C2424 C2405 1.368 . S
C2424 C2418 1.368 . S
C2424 C2423 1.523 . S
C2425 C2409 1.429 . S
C2425 C2421 1.429 . S
C2425 C2426 1.523 . S
C2426 C2410 1.368 . S
C2426 C2422 1.368 . S
C2426 C2425 1.523 . S
H2427 C2402 0.950 . S
H2428 C2404 0.950 . S
H2429 C2405 0.949 . S
H2430 C2407 0.950 . S
H2431 C2409 0.950 . S
C2432 C2433 1.349 . S
C2432 C2434 1.327 . S
C2432 H2457 0.950 . S
C2433 C2432 1.349 . S
C2433 C2449 1.349 . S
C2434 C2432 1.327 . S
C2434 C2453 1.429 . S
C2434 H2458 0.950 . S
C2435 C2452 1.574 . S
C2435 C2454 1.368 . S
C2435 H2459 0.949 . S
H2436 C2440 0.949 . S
C2437 C2438 1.349 . S
C2437 C2439 1.327 . S
C2437 H2460 0.950 . S
C2438 C2437 1.349 . S
C2438 C2450 1.349 . S
C2439 C2437 1.327 . S
C2439 C2455 1.429 . S
C2439 H2461 0.950 . S
C2440 H2436 0.949 . S
C2440 C2448 1.574 . S
C2440 C2456 1.368 . S
H2441 C2449 0.950 . S
H2442 C2447 0.950 . S
H2443 C2448 0.949 . S
H2444 C2450 0.950 . S
H2445 C2451 0.950 . S
H2446 C2452 0.949 . S
C2447 H2442 0.950 . S
C2447 C2449 1.327 . S
C2447 C2453 1.429 . S
C2448 C2440 1.574 . S
C2448 H2443 0.949 . S
C2448 C2454 1.368 . S
C2449 C2433 1.349 . S
C2449 H2441 0.950 . S
C2449 C2447 1.327 . S
C2450 C2438 1.349 . S
C2450 H2444 0.950 . S
C2450 C2451 1.327 . S
C2451 H2445 0.950 . S
C2451 C2450 1.327 . S
C2451 C2455 1.429 . S
C2452 C2435 1.574 . S
C2452 H2446 0.949 . S
C2452 C2456 1.368 . S
C2453 C2434 1.429 . S
C2453 C2447 1.429 . S
C2453 C2454 1.523 . S
C2454 C2435 1.368 . S
C2454 C2448 1.368 . S
C2454 C2453 1.523 . S
C2455 C2439 1.429 . S
C2455 C2451 1.429 . S
C2455 C2456 1.523 . S
C2456 C2440 1.368 . S
C2456 C2452 1.368 . S
C2456 C2455 1.523 . S
H2457 C2432 0.950 . S
H2458 C2434 0.950 . S
H2459 C2435 0.949 . S
H2460 C2437 0.950 . S
H2461 C2439 0.950 . S
C2462 C2463 1.349 . S
C2462 C2464 1.327 . S
C2462 H2487 0.950 . S
C2463 C2462 1.349 . S
C2463 C2479 1.349 . S
C2464 C2462 1.327 . S
C2464 C2483 1.429 . S
C2464 H2488 0.950 . S
C2465 C2482 1.574 . S
C2465 C2484 1.368 . S
C2465 H2489 0.949 . S
H2466 C2470 0.949 . S
C2467 C2468 1.349 . S
C2467 C2469 1.327 . S
C2467 H2490 0.950 . S
C2468 C2467 1.349 . S
C2468 C2480 1.349 . S
C2469 C2467 1.327 . S
C2469 C2485 1.429 . S
C2469 H2491 0.950 . S
C2470 H2466 0.949 . S
C2470 C2478 1.574 . S
C2470 C2486 1.368 . S
H2471 C2479 0.950 . S
H2472 C2477 0.950 . S
H2473 C2478 0.949 . S
H2474 C2480 0.950 . S
H2475 C2481 0.950 . S
H2476 C2482 0.949 . S
C2477 H2472 0.950 . S
C2477 C2479 1.327 . S
C2477 C2483 1.429 . S
C2478 C2470 1.574 . S
C2478 H2473 0.949 . S
C2478 C2484 1.368 . S
C2479 C2463 1.349 . S
C2479 H2471 0.950 . S
C2479 C2477 1.327 . S
C2480 C2468 1.349 . S
C2480 H2474 0.950 . S
C2480 C2481 1.327 . S
C2481 H2475 0.950 . S
C2481 C2480 1.327 . S
C2481 C2485 1.429 . S
C2482 C2465 1.574 . S
C2482 H2476 0.949 . S
C2482 C2486 1.368 . S
C2483 C2464 1.429 . S
C2483 C2477 1.429 . S
C2483 C2484 1.523 . S
C2484 C2465 1.368 . S
C2484 C2478 1.368 . S
C2484 C2483 1.523 . S
C2485 C2469 1.429 . S
C2485 C2481 1.429 . S
C2485 C2486 1.523 . S
C2486 C2470 1.368 . S
C2486 C2482 1.368 . S
C2486 C2485 1.523 . S
H2487 C2462 0.950 . S
H2488 C2464 0.950 . S
H2489 C2465 0.949 . S
H2490 C2467 0.950 . S
H2491 C2469 0.950 . S
C2492 C2493 1.349 . S
C2492 C2494 1.327 . S
C2492 H2517 0.950 . S
C2493 C2492 1.349 . S
C2493 C2509 1.349 . S
C2494 C2492 1.327 . S
C2494 C2513 1.429 . S
C2494 H2518 0.950 . S
C2495 C2512 1.574 . S
C2495 C2514 1.368 . S
C2495 H2519 0.949 . S
H2496 C2500 0.949 . S
C2497 C2498 1.349 . S
C2497 C2499 1.327 . S
C2497 H2520 0.950 . S
C2498 C2497 1.349 . S
C2498 C2510 1.349 . S
C2499 C2497 1.327 . S
C2499 C2515 1.429 . S
C2499 H2521 0.950 . S
C2500 H2496 0.949 . S
C2500 C2508 1.574 . S
C2500 C2516 1.368 . S
H2501 C2509 0.950 . S
H2502 C2507 0.950 . S
H2503 C2508 0.949 . S
H2504 C2510 0.950 . S
H2505 C2511 0.950 . S
H2506 C2512 0.949 . S
C2507 H2502 0.950 . S
C2507 C2509 1.327 . S
C2507 C2513 1.429 . S
C2508 C2500 1.574 . S
C2508 H2503 0.949 . S
C2508 C2514 1.368 . S
C2509 C2493 1.349 . S
C2509 H2501 0.950 . S
C2509 C2507 1.327 . S
C2510 C2498 1.349 . S
C2510 H2504 0.950 . S
C2510 C2511 1.327 . S
C2511 H2505 0.950 . S
C2511 C2510 1.327 . S
C2511 C2515 1.429 . S
C2512 C2495 1.574 . S
C2512 H2506 0.949 . S
C2512 C2516 1.368 . S
C2513 C2494 1.429 . S
C2513 C2507 1.429 . S
C2513 C2514 1.523 . S
C2514 C2495 1.368 . S
C2514 C2508 1.368 . S
C2514 C2513 1.523 . S
C2515 C2499 1.429 . S
C2515 C2511 1.429 . S
C2515 C2516 1.523 . S
C2516 C2500 1.368 . S
C2516 C2512 1.368 . S
C2516 C2515 1.523 . S
H2517 C2492 0.950 . S
H2518 C2494 0.950 . S
H2519 C2495 0.949 . S
H2520 C2497 0.950 . S
H2521 C2499 0.950 . S
C2522 C2523 1.349 . S
C2522 C2524 1.327 . S
C2522 H2547 0.950 . S
C2523 C2522 1.349 . S
C2523 C2539 1.349 . S
C2524 C2522 1.327 . S
C2524 C2543 1.429 . S
C2524 H2548 0.950 . S
C2525 C2542 1.574 . S
C2525 C2544 1.368 . S
C2525 H2549 0.949 . S
H2526 C2530 0.949 . S
C2527 C2528 1.349 . S
C2527 C2529 1.327 . S
C2527 H2550 0.950 . S
C2528 C2527 1.349 . S
C2528 C2540 1.349 . S
C2529 C2527 1.327 . S
C2529 C2545 1.429 . S
C2529 H2551 0.950 . S
C2530 H2526 0.949 . S
C2530 C2538 1.574 . S
C2530 C2546 1.368 . S
H2531 C2539 0.950 . S
H2532 C2537 0.950 . S
H2533 C2538 0.949 . S
H2534 C2540 0.950 . S
H2535 C2541 0.950 . S
H2536 C2542 0.949 . S
C2537 H2532 0.950 . S
C2537 C2539 1.327 . S
C2537 C2543 1.429 . S
C2538 C2530 1.574 . S
C2538 H2533 0.949 . S
C2538 C2544 1.368 . S
C2539 C2523 1.349 . S
C2539 H2531 0.950 . S
C2539 C2537 1.327 . S
C2540 C2528 1.349 . S
C2540 H2534 0.950 . S
C2540 C2541 1.327 . S
C2541 H2535 0.950 . S
C2541 C2540 1.327 . S
C2541 C2545 1.429 . S
C2542 C2525 1.574 . S
C2542 H2536 0.949 . S
C2542 C2546 1.368 . S
C2543 C2524 1.429 . S
C2543 C2537 1.429 . S
C2543 C2544 1.523 . S
C2544 C2525 1.368 . S
C2544 C2538 1.368 . S
C2544 C2543 1.523 . S
C2545 C2529 1.429 . S
C2545 C2541 1.429 . S
C2545 C2546 1.523 . S
C2546 C2530 1.368 . S
C2546 C2542 1.368 . S
C2546 C2545 1.523 . S
H2547 C2522 0.950 . S
H2548 C2524 0.950 . S
H2549 C2525 0.949 . S
H2550 C2527 0.950 . S
H2551 C2529 0.950 . S
C2552 C2553 1.349 . S
C2552 C2554 1.327 . S
C2552 H2577 0.950 . S
C2553 C2552 1.349 . S
C2553 C2569 1.349 . S
C2554 C2552 1.327 . S
C2554 C2573 1.429 . S
C2554 H2578 0.950 . S
C2555 C2572 1.574 . S
C2555 C2574 1.368 . S
C2555 H2579 0.949 . S
H2556 C2560 0.949 . S
C2557 C2558 1.349 . S
C2557 C2559 1.327 . S
C2557 H2580 0.950 . S
C2558 C2557 1.349 . S
C2558 C2570 1.349 . S
C2559 C2557 1.327 . S
C2559 C2575 1.429 . S
C2559 H2581 0.950 . S
C2560 H2556 0.949 . S
C2560 C2568 1.574 . S
C2560 C2576 1.368 . S
H2561 C2569 0.950 . S
H2562 C2567 0.950 . S
H2563 C2568 0.949 . S
H2564 C2570 0.950 . S
H2565 C2571 0.950 . S
H2566 C2572 0.949 . S
C2567 H2562 0.950 . S
C2567 C2569 1.327 . S
C2567 C2573 1.429 . S
C2568 C2560 1.574 . S
C2568 H2563 0.949 . S
C2568 C2574 1.368 . S
C2569 C2553 1.349 . S
C2569 H2561 0.950 . S
C2569 C2567 1.327 . S
C2570 C2558 1.349 . S
C2570 H2564 0.950 . S
C2570 C2571 1.327 . S
C2571 H2565 0.950 . S
C2571 C2570 1.327 . S
C2571 C2575 1.429 . S
C2572 C2555 1.574 . S
C2572 H2566 0.949 . S
C2572 C2576 1.368 . S
C2573 C2554 1.429 . S
C2573 C2567 1.429 . S
C2573 C2574 1.523 . S
C2574 C2555 1.368 . S
C2574 C2568 1.368 . S
C2574 C2573 1.523 . S
C2575 C2559 1.429 . S
C2575 C2571 1.429 . S
C2575 C2576 1.523 . S
C2576 C2560 1.368 . S
C2576 C2572 1.368 . S
C2576 C2575 1.523 . S
H2577 C2552 0.950 . S
H2578 C2554 0.950 . S
H2579 C2555 0.949 . S
H2580 C2557 0.950 . S
H2581 C2559 0.950 . S
C2582 C2583 1.349 . S
C2582 C2584 1.327 . S
C2582 H2607 0.950 . S
C2583 C2582 1.349 . S
C2583 C2599 1.349 . S
C2584 C2582 1.327 . S
C2584 C2603 1.429 . S
C2584 H2608 0.950 . S
C2585 C2602 1.574 . S
C2585 C2604 1.368 . S
C2585 H2609 0.949 . S
H2586 C2590 0.949 . S
C2587 C2588 1.349 . S
C2587 C2589 1.327 . S
C2587 H2610 0.950 . S
C2588 C2587 1.349 . S
C2588 C2600 1.349 . S
C2589 C2587 1.327 . S
C2589 C2605 1.429 . S
C2589 H2611 0.950 . S
C2590 H2586 0.949 . S
C2590 C2598 1.574 . S
C2590 C2606 1.368 . S
H2591 C2599 0.950 . S
H2592 C2597 0.950 . S
H2593 C2598 0.949 . S
H2594 C2600 0.950 . S
H2595 C2601 0.950 . S
H2596 C2602 0.949 . S
C2597 H2592 0.950 . S
C2597 C2599 1.327 . S
C2597 C2603 1.429 . S
C2598 C2590 1.574 . S
C2598 H2593 0.949 . S
C2598 C2604 1.368 . S
C2599 C2583 1.349 . S
C2599 H2591 0.950 . S
C2599 C2597 1.327 . S
C2600 C2588 1.349 . S
C2600 H2594 0.950 . S
C2600 C2601 1.327 . S
C2601 H2595 0.950 . S
C2601 C2600 1.327 . S
C2601 C2605 1.429 . S
C2602 C2585 1.574 . S
C2602 H2596 0.949 . S
C2602 C2606 1.368 . S
C2603 C2584 1.429 . S
C2603 C2597 1.429 . S
C2603 C2604 1.523 . S
C2604 C2585 1.368 . S
C2604 C2598 1.368 . S
C2604 C2603 1.523 . S
C2605 C2589 1.429 . S
C2605 C2601 1.429 . S
C2605 C2606 1.523 . S
C2606 C2590 1.368 . S
C2606 C2602 1.368 . S
C2606 C2605 1.523 . S
H2607 C2582 0.950 . S
H2608 C2584 0.950 . S
H2609 C2585 0.949 . S
H2610 C2587 0.950 . S
H2611 C2589 0.950 . S
C2612 C2613 1.349 . S
C2612 C2614 1.327 . S
C2612 H2637 0.950 . S
C2613 C2612 1.349 . S
C2613 C2629 1.349 . S
C2614 C2612 1.327 . S
C2614 C2633 1.429 . S
C2614 H2638 0.950 . S
C2615 C2632 1.574 . S
C2615 C2634 1.368 . S
C2615 H2639 0.949 . S
H2616 C2620 0.949 . S
C2617 C2618 1.349 . S
C2617 C2619 1.327 . S
C2617 H2640 0.950 . S
C2618 C2617 1.349 . S
C2618 C2630 1.349 . S
C2619 C2617 1.327 . S
C2619 C2635 1.429 . S
C2619 H2641 0.950 . S
C2620 H2616 0.949 . S
C2620 C2628 1.574 . S
C2620 C2636 1.368 . S
H2621 C2629 0.950 . S
H2622 C2627 0.950 . S
H2623 C2628 0.949 . S
H2624 C2630 0.950 . S
H2625 C2631 0.950 . S
H2626 C2632 0.949 . S
C2627 H2622 0.950 . S
C2627 C2629 1.327 . S
C2627 C2633 1.429 . S
C2628 C2620 1.574 . S
C2628 H2623 0.949 . S
C2628 C2634 1.368 . S
C2629 C2613 1.349 . S
C2629 H2621 0.950 . S
C2629 C2627 1.327 . S
C2630 C2618 1.349 . S
C2630 H2624 0.950 . S
C2630 C2631 1.327 . S
C2631 H2625 0.950 . S
C2631 C2630 1.327 . S
C2631 C2635 1.429 . S
C2632 C2615 1.574 . S
C2632 H2626 0.949 . S
C2632 C2636 1.368 . S
C2633 C2614 1.429 . S
C2633 C2627 1.429 . S
C2633 C2634 1.523 . S
C2634 C2615 1.368 . S
C2634 C2628 1.368 . S
C2634 C2633 1.523 . S
C2635 C2619 1.429 . S
C2635 C2631 1.429 . S
C2635 C2636 1.523 . S
C2636 C2620 1.368 . S
C2636 C2632 1.368 . S
C2636 C2635 1.523 . S
H2637 C2612 0.950 . S
H2638 C2614 0.950 . S
H2639 C2615 0.949 . S
H2640 C2617 0.950 . S
H2641 C2619 0.950 . S
C2642 C2643 1.349 . S
C2642 C2644 1.327 . S
C2642 H2667 0.950 . S
C2643 C2642 1.349 . S
C2643 C2659 1.349 . S
C2644 C2642 1.327 . S
C2644 C2663 1.429 . S
C2644 H2668 0.950 . S
C2645 C2662 1.574 . S
C2645 C2664 1.368 . S
C2645 H2669 0.949 . S
H2646 C2650 0.949 . S
C2647 C2648 1.349 . S
C2647 C2649 1.327 . S
C2647 H2670 0.950 . S
C2648 C2647 1.349 . S
C2648 C2660 1.349 . S
C2649 C2647 1.327 . S
C2649 C2665 1.429 . S
C2649 H2671 0.950 . S
C2650 H2646 0.949 . S
C2650 C2658 1.574 . S
C2650 C2666 1.368 . S
H2651 C2659 0.950 . S
H2652 C2657 0.950 . S
H2653 C2658 0.949 . S
H2654 C2660 0.950 . S
H2655 C2661 0.950 . S
H2656 C2662 0.949 . S
C2657 H2652 0.950 . S
C2657 C2659 1.327 . S
C2657 C2663 1.429 . S
C2658 C2650 1.574 . S
C2658 H2653 0.949 . S
C2658 C2664 1.368 . S
C2659 C2643 1.349 . S
C2659 H2651 0.950 . S
C2659 C2657 1.327 . S
C2660 C2648 1.349 . S
C2660 H2654 0.950 . S
C2660 C2661 1.327 . S
C2661 H2655 0.950 . S
C2661 C2660 1.327 . S
C2661 C2665 1.429 . S
C2662 C2645 1.574 . S
C2662 H2656 0.949 . S
C2662 C2666 1.368 . S
C2663 C2644 1.429 . S
C2663 C2657 1.429 . S
C2663 C2664 1.523 . S
C2664 C2645 1.368 . S
C2664 C2658 1.368 . S
C2664 C2663 1.523 . S
C2665 C2649 1.429 . S
C2665 C2661 1.429 . S
C2665 C2666 1.523 . S
C2666 C2650 1.368 . S
C2666 C2662 1.368 . S
C2666 C2665 1.523 . S
H2667 C2642 0.950 . S
H2668 C2644 0.950 . S
H2669 C2645 0.949 . S
H2670 C2647 0.950 . S
H2671 C2649 0.950 . S
C2672 C2673 1.349 . S
C2672 C2674 1.327 . S
C2672 H2697 0.950 . S
C2673 C2672 1.349 . S
C2673 C2689 1.349 . S
C2674 C2672 1.327 . S
C2674 C2693 1.429 . S
C2674 H2698 0.950 . S
C2675 C2692 1.574 . S
C2675 C2694 1.368 . S
C2675 H2699 0.949 . S
H2676 C2680 0.949 . S
C2677 C2678 1.349 . S
C2677 C2679 1.327 . S
C2677 H2700 0.950 . S
C2678 C2677 1.349 . S
C2678 C2690 1.349 . S
C2679 C2677 1.327 . S
C2679 C2695 1.429 . S
C2679 H2701 0.950 . S
C2680 H2676 0.949 . S
C2680 C2688 1.574 . S
C2680 C2696 1.368 . S
H2681 C2689 0.950 . S
H2682 C2687 0.950 . S
H2683 C2688 0.949 . S
H2684 C2690 0.950 . S
H2685 C2691 0.950 . S
H2686 C2692 0.949 . S
C2687 H2682 0.950 . S
C2687 C2689 1.327 . S
C2687 C2693 1.429 . S
C2688 C2680 1.574 . S
C2688 H2683 0.949 . S
C2688 C2694 1.368 . S
C2689 C2673 1.349 . S
C2689 H2681 0.950 . S
C2689 C2687 1.327 . S
C2690 C2678 1.349 . S
C2690 H2684 0.950 . S
C2690 C2691 1.327 . S
C2691 H2685 0.950 . S
C2691 C2690 1.327 . S
C2691 C2695 1.429 . S
C2692 C2675 1.574 . S
C2692 H2686 0.949 . S
C2692 C2696 1.368 . S
C2693 C2674 1.429 . S
C2693 C2687 1.429 . S
C2693 C2694 1.523 . S
C2694 C2675 1.368 . S
C2694 C2688 1.368 . S
C2694 C2693 1.523 . S
C2695 C2679 1.429 . S
C2695 C2691 1.429 . S
C2695 C2696 1.523 . S
C2696 C2680 1.368 . S
C2696 C2692 1.368 . S
C2696 C2695 1.523 . S
H2697 C2672 0.950 . S
H2698 C2674 0.950 . S
H2699 C2675 0.949 . S
H2700 C2677 0.950 . S
H2701 C2679 0.950 . S
C2702 C2703 1.349 . S
C2702 C2704 1.327 . S
C2702 H2727 0.950 . S
C2703 C2702 1.349 . S
C2703 C2719 1.349 . S
C2704 C2702 1.327 . S
C2704 C2723 1.429 . S
C2704 H2728 0.950 . S
C2705 C2722 1.574 . S
C2705 C2724 1.368 . S
C2705 H2729 0.949 . S
H2706 C2710 0.949 . S
C2707 C2708 1.349 . S
C2707 C2709 1.327 . S
C2707 H2730 0.950 . S
C2708 C2707 1.349 . S
C2708 C2720 1.349 . S
C2709 C2707 1.327 . S
C2709 C2725 1.429 . S
C2709 H2731 0.950 . S
C2710 H2706 0.949 . S
C2710 C2718 1.574 . S
C2710 C2726 1.368 . S
H2711 C2719 0.950 . S
H2712 C2717 0.950 . S
H2713 C2718 0.949 . S
H2714 C2720 0.950 . S
H2715 C2721 0.950 . S
H2716 C2722 0.949 . S
C2717 H2712 0.950 . S
C2717 C2719 1.327 . S
C2717 C2723 1.429 . S
C2718 C2710 1.574 . S
C2718 H2713 0.949 . S
C2718 C2724 1.368 . S
C2719 C2703 1.349 . S
C2719 H2711 0.950 . S
C2719 C2717 1.327 . S
C2720 C2708 1.349 . S
C2720 H2714 0.950 . S
C2720 C2721 1.327 . S
C2721 H2715 0.950 . S
C2721 C2720 1.327 . S
C2721 C2725 1.429 . S
C2722 C2705 1.574 . S
C2722 H2716 0.949 . S
C2722 C2726 1.368 . S
C2723 C2704 1.429 . S
C2723 C2717 1.429 . S
C2723 C2724 1.523 . S
C2724 C2705 1.368 . S
C2724 C2718 1.368 . S
C2724 C2723 1.523 . S
C2725 C2709 1.429 . S
C2725 C2721 1.429 . S
C2725 C2726 1.523 . S
C2726 C2710 1.368 . S
C2726 C2722 1.368 . S
C2726 C2725 1.523 . S
H2727 C2702 0.950 . S
H2728 C2704 0.950 . S
H2729 C2705 0.949 . S
H2730 C2707 0.950 . S
H2731 C2709 0.950 . S
C2732 C2733 1.349 . S
C2732 C2734 1.327 . S
C2732 H2757 0.950 . S
C2733 C2732 1.349 . S
C2733 C2749 1.349 . S
C2734 C2732 1.327 . S
C2734 C2753 1.429 . S
C2734 H2758 0.950 . S
C2735 C2752 1.574 . S
C2735 C2754 1.368 . S
C2735 H2759 0.949 . S
H2736 C2740 0.949 . S
C2737 C2738 1.349 . S
C2737 C2739 1.327 . S
C2737 H2760 0.950 . S
C2738 C2737 1.349 . S
C2738 C2750 1.349 . S
C2739 C2737 1.327 . S
C2739 C2755 1.429 . S
C2739 H2761 0.950 . S
C2740 H2736 0.949 . S
C2740 C2748 1.574 . S
C2740 C2756 1.368 . S
H2741 C2749 0.950 . S
H2742 C2747 0.950 . S
H2743 C2748 0.949 . S
H2744 C2750 0.950 . S
H2745 C2751 0.950 . S
H2746 C2752 0.949 . S
C2747 H2742 0.950 . S
C2747 C2749 1.327 . S
C2747 C2753 1.429 . S
C2748 C2740 1.574 . S
C2748 H2743 0.949 . S
C2748 C2754 1.368 . S
C2749 C2733 1.349 . S
C2749 H2741 0.950 . S
C2749 C2747 1.327 . S
C2750 C2738 1.349 . S
C2750 H2744 0.950 . S
C2750 C2751 1.327 . S
C2751 H2745 0.950 . S
C2751 C2750 1.327 . S
C2751 C2755 1.429 . S
C2752 C2735 1.574 . S
C2752 H2746 0.949 . S
C2752 C2756 1.368 . S
C2753 C2734 1.429 . S
C2753 C2747 1.429 . S
C2753 C2754 1.523 . S
C2754 C2735 1.368 . S
C2754 C2748 1.368 . S
C2754 C2753 1.523 . S
C2755 C2739 1.429 . S
C2755 C2751 1.429 . S
C2755 C2756 1.523 . S
C2756 C2740 1.368 . S
C2756 C2752 1.368 . S
C2756 C2755 1.523 . S
H2757 C2732 0.950 . S
H2758 C2734 0.950 . S
H2759 C2735 0.949 . S
H2760 C2737 0.950 . S
H2761 C2739 0.950 . S
C2762 C2763 1.349 . S
C2762 C2764 1.327 . S
C2762 H2787 0.950 . S
C2763 C2762 1.349 . S
C2763 C2779 1.349 . S
C2764 C2762 1.327 . S
C2764 C2783 1.429 . S
C2764 H2788 0.950 . S
C2765 C2782 1.574 . S
C2765 C2784 1.368 . S
C2765 H2789 0.949 . S
H2766 C2770 0.949 . S
C2767 C2768 1.349 . S
C2767 C2769 1.327 . S
C2767 H2790 0.950 . S
C2768 C2767 1.349 . S
C2768 C2780 1.349 . S
C2769 C2767 1.327 . S
C2769 C2785 1.429 . S
C2769 H2791 0.950 . S
C2770 H2766 0.949 . S
C2770 C2778 1.574 . S
C2770 C2786 1.368 . S
H2771 C2779 0.950 . S
H2772 C2777 0.950 . S
H2773 C2778 0.949 . S
H2774 C2780 0.950 . S
H2775 C2781 0.950 . S
H2776 C2782 0.949 . S
C2777 H2772 0.950 . S
C2777 C2779 1.327 . S
C2777 C2783 1.429 . S
C2778 C2770 1.574 . S
C2778 H2773 0.949 . S
C2778 C2784 1.368 . S
C2779 C2763 1.349 . S
C2779 H2771 0.950 . S
C2779 C2777 1.327 . S
C2780 C2768 1.349 . S
C2780 H2774 0.950 . S
C2780 C2781 1.327 . S
C2781 H2775 0.950 . S
C2781 C2780 1.327 . S
C2781 C2785 1.429 . S
C2782 C2765 1.574 . S
C2782 H2776 0.949 . S
C2782 C2786 1.368 . S
C2783 C2764 1.429 . S
C2783 C2777 1.429 . S
C2783 C2784 1.523 . S
C2784 C2765 1.368 . S
C2784 C2778 1.368 . S
C2784 C2783 1.523 . S
C2785 C2769 1.429 . S
C2785 C2781 1.429 . S
C2785 C2786 1.523 . S
C2786 C2770 1.368 . S
C2786 C2782 1.368 . S
C2786 C2785 1.523 . S
H2787 C2762 0.950 . S
H2788 C2764 0.950 . S
H2789 C2765 0.949 . S
H2790 C2767 0.950 . S
H2791 C2769 0.950 . S
C2792 C2793 1.349 . S
C2792 C2794 1.327 . S
C2792 H2817 0.950 . S
C2793 C2792 1.349 . S
C2793 C2809 1.349 . S
C2794 C2792 1.327 . S
C2794 C2813 1.429 . S
C2794 H2818 0.950 . S
C2795 C2812 1.574 . S
C2795 C2814 1.368 . S
C2795 H2819 0.949 . S
H2796 C2800 0.949 . S
C2797 C2798 1.349 . S
C2797 C2799 1.327 . S
C2797 H2820 0.950 . S
C2798 C2797 1.349 . S
C2798 C2810 1.349 . S
C2799 C2797 1.327 . S
C2799 C2815 1.429 . S
C2799 H2821 0.950 . S
C2800 H2796 0.949 . S
C2800 C2808 1.574 . S
C2800 C2816 1.368 . S
H2801 C2809 0.950 . S
H2802 C2807 0.950 . S
H2803 C2808 0.949 . S
H2804 C2810 0.950 . S
H2805 C2811 0.950 . S
H2806 C2812 0.949 . S
C2807 H2802 0.950 . S
C2807 C2809 1.327 . S
C2807 C2813 1.429 . S
C2808 C2800 1.574 . S
C2808 H2803 0.949 . S
C2808 C2814 1.368 . S
C2809 C2793 1.349 . S
C2809 H2801 0.950 . S
C2809 C2807 1.327 . S
C2810 C2798 1.349 . S
C2810 H2804 0.950 . S
C2810 C2811 1.327 . S
C2811 H2805 0.950 . S
C2811 C2810 1.327 . S
C2811 C2815 1.429 . S
C2812 C2795 1.574 . S
C2812 H2806 0.949 . S
C2812 C2816 1.368 . S
C2813 C2794 1.429 . S
C2813 C2807 1.429 . S
C2813 C2814 1.523 . S
C2814 C2795 1.368 . S
C2814 C2808 1.368 . S
C2814 C2813 1.523 . S
C2815 C2799 1.429 . S
C2815 C2811 1.429 . S
C2815 C2816 1.523 . S
C2816 C2800 1.368 . S
C2816 C2812 1.368 . S
C2816 C2815 1.523 . S
H2817 C2792 0.950 . S
H2818 C2794 0.950 . S
H2819 C2795 0.949 . S
H2820 C2797 0.950 . S
H2821 C2799 0.950 . S
C2822 C2823 1.349 . S
C2822 C2824 1.327 . S
C2822 H2847 0.950 . S
C2823 C2822 1.349 . S
C2823 C2839 1.349 . S
C2824 C2822 1.327 . S
C2824 C2843 1.429 . S
C2824 H2848 0.950 . S
C2825 C2842 1.574 . S
C2825 C2844 1.368 . S
C2825 H2849 0.949 . S
H2826 C2830 0.949 . S
C2827 C2828 1.349 . S
C2827 C2829 1.327 . S
C2827 H2850 0.950 . S
C2828 C2827 1.349 . S
C2828 C2840 1.349 . S
C2829 C2827 1.327 . S
C2829 C2845 1.429 . S
C2829 H2851 0.950 . S
C2830 H2826 0.949 . S
C2830 C2838 1.574 . S
C2830 C2846 1.368 . S
H2831 C2839 0.950 . S
H2832 C2837 0.950 . S
H2833 C2838 0.949 . S
H2834 C2840 0.950 . S
H2835 C2841 0.950 . S
H2836 C2842 0.949 . S
C2837 H2832 0.950 . S
C2837 C2839 1.327 . S
C2837 C2843 1.429 . S
C2838 C2830 1.574 . S
C2838 H2833 0.949 . S
C2838 C2844 1.368 . S
C2839 C2823 1.349 . S
C2839 H2831 0.950 . S
C2839 C2837 1.327 . S
C2840 C2828 1.349 . S
C2840 H2834 0.950 . S
C2840 C2841 1.327 . S
C2841 H2835 0.950 . S
C2841 C2840 1.327 . S
C2841 C2845 1.429 . S
C2842 C2825 1.574 . S
C2842 H2836 0.949 . S
C2842 C2846 1.368 . S
C2843 C2824 1.429 . S
C2843 C2837 1.429 . S
C2843 C2844 1.523 . S
C2844 C2825 1.368 . S
C2844 C2838 1.368 . S
C2844 C2843 1.523 . S
C2845 C2829 1.429 . S
C2845 C2841 1.429 . S
C2845 C2846 1.523 . S
C2846 C2830 1.368 . S
C2846 C2842 1.368 . S
C2846 C2845 1.523 . S
H2847 C2822 0.950 . S
H2848 C2824 0.950 . S
H2849 C2825 0.949 . S
H2850 C2827 0.950 . S
H2851 C2829 0.950 . S
C2852 C2853 1.349 . S
C2852 C2854 1.327 . S
C2852 H2877 0.950 . S
C2853 C2852 1.349 . S
C2853 C2869 1.349 . S
C2854 C2852 1.327 . S
C2854 C2873 1.429 . S
C2854 H2878 0.950 . S
C2855 C2872 1.574 . S
C2855 C2874 1.368 . S
C2855 H2879 0.949 . S
H2856 C2860 0.949 . S
C2857 C2858 1.349 . S
C2857 C2859 1.327 . S
C2857 H2880 0.950 . S
C2858 C2857 1.349 . S
C2858 C2870 1.349 . S
C2859 C2857 1.327 . S
C2859 C2875 1.429 . S
C2859 H2881 0.950 . S
C2860 H2856 0.949 . S
C2860 C2868 1.574 . S
C2860 C2876 1.368 . S
H2861 C2869 0.950 . S
H2862 C2867 0.950 . S
H2863 C2868 0.949 . S
H2864 C2870 0.950 . S
H2865 C2871 0.950 . S
H2866 C2872 0.949 . S
C2867 H2862 0.950 . S
C2867 C2869 1.327 . S
C2867 C2873 1.429 . S
C2868 C2860 1.574 . S
C2868 H2863 0.949 . S
C2868 C2874 1.368 . S
C2869 C2853 1.349 . S
C2869 H2861 0.950 . S
C2869 C2867 1.327 . S
C2870 C2858 1.349 . S
C2870 H2864 0.950 . S
C2870 C2871 1.327 . S
C2871 H2865 0.950 . S
C2871 C2870 1.327 . S
C2871 C2875 1.429 . S
C2872 C2855 1.574 . S
C2872 H2866 0.949 . S
C2872 C2876 1.368 . S
C2873 C2854 1.429 . S
C2873 C2867 1.429 . S
C2873 C2874 1.523 . S
C2874 C2855 1.368 . S
C2874 C2868 1.368 . S
C2874 C2873 1.523 . S
C2875 C2859 1.429 . S
C2875 C2871 1.429 . S
C2875 C2876 1.523 . S
C2876 C2860 1.368 . S
C2876 C2872 1.368 . S
C2876 C2875 1.523 . S
H2877 C2852 0.950 . S
H2878 C2854 0.950 . S
H2879 C2855 0.949 . S
H2880 C2857 0.950 . S
H2881 C2859 0.950 . S
C2882 C2883 1.349 . S
C2882 C2884 1.327 . S
C2882 H2907 0.950 . S
C2883 C2882 1.349 . S
C2883 C2899 1.349 . S
C2884 C2882 1.327 . S
C2884 C2903 1.429 . S
C2884 H2908 0.950 . S
C2885 C2902 1.574 . S
C2885 C2904 1.368 . S
C2885 H2909 0.949 . S
H2886 C2890 0.949 . S
C2887 C2888 1.349 . S
C2887 C2889 1.327 . S
C2887 H2910 0.950 . S
C2888 C2887 1.349 . S
C2888 C2900 1.349 . S
C2889 C2887 1.327 . S
C2889 C2905 1.429 . S
C2889 H2911 0.950 . S
C2890 H2886 0.949 . S
C2890 C2898 1.574 . S
C2890 C2906 1.368 . S
H2891 C2899 0.950 . S
H2892 C2897 0.950 . S
H2893 C2898 0.949 . S
H2894 C2900 0.950 . S
H2895 C2901 0.950 . S
H2896 C2902 0.949 . S
C2897 H2892 0.950 . S
C2897 C2899 1.327 . S
C2897 C2903 1.429 . S
C2898 C2890 1.574 . S
C2898 H2893 0.949 . S
C2898 C2904 1.368 . S
C2899 C2883 1.349 . S
C2899 H2891 0.950 . S
C2899 C2897 1.327 . S
C2900 C2888 1.349 . S
C2900 H2894 0.950 . S
C2900 C2901 1.327 . S
C2901 H2895 0.950 . S
C2901 C2900 1.327 . S
C2901 C2905 1.429 . S
C2902 C2885 1.574 . S
C2902 H2896 0.949 . S
C2902 C2906 1.368 . S
C2903 C2884 1.429 . S
C2903 C2897 1.429 . S
C2903 C2904 1.523 . S
C2904 C2885 1.368 . S
C2904 C2898 1.368 . S
C2904 C2903 1.523 . S
C2905 C2889 1.429 . S
C2905 C2901 1.429 . S
C2905 C2906 1.523 . S
C2906 C2890 1.368 . S
C2906 C2902 1.368 . S
C2906 C2905 1.523 . S
H2907 C2882 0.950 . S
H2908 C2884 0.950 . S
H2909 C2885 0.949 . S
H2910 C2887 0.950 . S
H2911 C2889 0.950 . S
C2912 C2913 1.349 . S
C2912 C2914 1.327 . S
C2912 H2937 0.950 . S
C2913 C2912 1.349 . S
C2913 C2929 1.349 . S
C2914 C2912 1.327 . S
C2914 C2933 1.429 . S
C2914 H2938 0.950 . S
C2915 C2932 1.574 . S
C2915 C2934 1.368 . S
C2915 H2939 0.949 . S
H2916 C2920 0.949 . S
C2917 C2918 1.349 . S
C2917 C2919 1.327 . S
C2917 H2940 0.950 . S
C2918 C2917 1.349 . S
C2918 C2930 1.349 . S
C2919 C2917 1.327 . S
C2919 C2935 1.429 . S
C2919 H2941 0.950 . S
C2920 H2916 0.949 . S
C2920 C2928 1.574 . S
C2920 C2936 1.368 . S
H2921 C2929 0.950 . S
H2922 C2927 0.950 . S
H2923 C2928 0.949 . S
H2924 C2930 0.950 . S
H2925 C2931 0.950 . S
H2926 C2932 0.949 . S
C2927 H2922 0.950 . S
C2927 C2929 1.327 . S
C2927 C2933 1.429 . S
C2928 C2920 1.574 . S
C2928 H2923 0.949 . S
C2928 C2934 1.368 . S
C2929 C2913 1.349 . S
C2929 H2921 0.950 . S
C2929 C2927 1.327 . S
C2930 C2918 1.349 . S
C2930 H2924 0.950 . S
C2930 C2931 1.327 . S
C2931 H2925 0.950 . S
C2931 C2930 1.327 . S
C2931 C2935 1.429 . S
C2932 C2915 1.574 . S
C2932 H2926 0.949 . S
C2932 C2936 1.368 . S
C2933 C2914 1.429 . S
C2933 C2927 1.429 . S
C2933 C2934 1.523 . S
C2934 C2915 1.368 . S
C2934 C2928 1.368 . S
C2934 C2933 1.523 . S
C2935 C2919 1.429 . S
C2935 C2931 1.429 . S
C2935 C2936 1.523 . S
C2936 C2920 1.368 . S
C2936 C2932 1.368 . S
C2936 C2935 1.523 . S
H2937 C2912 0.950 . S
H2938 C2914 0.950 . S
H2939 C2915 0.949 . S
H2940 C2917 0.950 . S
H2941 C2919 0.950 . S
C2942 C2943 1.349 . S
C2942 C2944 1.327 . S
C2942 H2967 0.950 . S
C2943 C2942 1.349 . S
C2943 C2959 1.349 . S
C2944 C2942 1.327 . S
C2944 C2963 1.429 . S
C2944 H2968 0.950 . S
C2945 C2962 1.574 . S
C2945 C2964 1.368 . S
C2945 H2969 0.949 . S
H2946 C2950 0.949 . S
C2947 C2948 1.349 . S
C2947 C2949 1.327 . S
C2947 H2970 0.950 . S
C2948 C2947 1.349 . S
C2948 C2960 1.349 . S
C2949 C2947 1.327 . S
C2949 C2965 1.429 . S
C2949 H2971 0.950 . S
C2950 H2946 0.949 . S
C2950 C2958 1.574 . S
C2950 C2966 1.368 . S
H2951 C2959 0.950 . S
H2952 C2957 0.950 . S
H2953 C2958 0.949 . S
H2954 C2960 0.950 . S
H2955 C2961 0.950 . S
H2956 C2962 0.949 . S
C2957 H2952 0.950 . S
C2957 C2959 1.327 . S
C2957 C2963 1.429 . S
C2958 C2950 1.574 . S
C2958 H2953 0.949 . S
C2958 C2964 1.368 . S
C2959 C2943 1.349 . S
C2959 H2951 0.950 . S
C2959 C2957 1.327 . S
C2960 C2948 1.349 . S
C2960 H2954 0.950 . S
C2960 C2961 1.327 . S
C2961 H2955 0.950 . S
C2961 C2960 1.327 . S
C2961 C2965 1.429 . S
C2962 C2945 1.574 . S
C2962 H2956 0.949 . S
C2962 C2966 1.368 . S
C2963 C2944 1.429 . S
C2963 C2957 1.429 . S
C2963 C2964 1.523 . S
C2964 C2945 1.368 . S
C2964 C2958 1.368 . S
C2964 C2963 1.523 . S
C2965 C2949 1.429 . S
C2965 C2961 1.429 . S
C2965 C2966 1.523 . S
C2966 C2950 1.368 . S
C2966 C2962 1.368 . S
C2966 C2965 1.523 . S
H2967 C2942 0.950 . S
H2968 C2944 0.950 . S
H2969 C2945 0.949 . S
H2970 C2947 0.950 . S
H2971 C2949 0.950 . S
C2972 C2973 1.349 . S
C2972 C2974 1.327 . S
C2972 H2997 0.950 . S
C2973 C2972 1.349 . S
C2973 C2989 1.349 . S
C2974 C2972 1.327 . S
C2974 C2993 1.429 . S
C2974 H2998 0.950 . S
C2975 C2992 1.574 . S
C2975 C2994 1.368 . S
C2975 H2999 0.949 . S
H2976 C2980 0.949 . S
C2977 C2978 1.349 . S
C2977 C2979 1.327 . S
C2977 H3000 0.950 . S
C2978 C2977 1.349 . S
C2978 C2990 1.349 . S
C2979 C2977 1.327 . S
C2979 C2995 1.429 . S
C2979 H3001 0.950 . S
C2980 H2976 0.949 . S
C2980 C2988 1.574 . S
C2980 C2996 1.368 . S
H2981 C2989 0.950 . S
H2982 C2987 0.950 . S
H2983 C2988 0.949 . S
H2984 C2990 0.950 . S
H2985 C2991 0.950 . S
H2986 C2992 0.949 . S
C2987 H2982 0.950 . S
C2987 C2989 1.327 . S
C2987 C2993 1.429 . S
C2988 C2980 1.574 . S
C2988 H2983 0.949 . S
C2988 C2994 1.368 . S
C2989 C2973 1.349 . S
C2989 H2981 0.950 . S
C2989 C2987 1.327 . S
C2990 C2978 1.349 . S
C2990 H2984 0.950 . S
C2990 C2991 1.327 . S
C2991 H2985 0.950 . S
C2991 C2990 1.327 . S
C2991 C2995 1.429 . S
C2992 C2975 1.574 . S
C2992 H2986 0.949 . S
C2992 C2996 1.368 . S
C2993 C2974 1.429 . S
C2993 C2987 1.429 . S
C2993 C2994 1.523 . S
C2994 C2975 1.368 . S
C2994 C2988 1.368 . S
C2994 C2993 1.523 . S
C2995 C2979 1.429 . S
C2995 C2991 1.429 . S
C2995 C2996 1.523 . S
C2996 C2980 1.368 . S
C2996 C2992 1.368 . S
C2996 C2995 1.523 . S
H2997 C2972 0.950 . S
H2998 C2974 0.950 . S
H2999 C2975 0.949 . S
H3000 C2977 0.950 . S
H3001 C2979 0.950 . S
C3002 C3003 1.349 . S
C3002 C3004 1.327 . S
C3002 H3027 0.950 . S
C3003 C3002 1.349 . S
C3003 C3019 1.349 . S
C3004 C3002 1.327 . S
C3004 C3023 1.429 . S
C3004 H3028 0.950 . S
C3005 C3022 1.574 . S
C3005 C3024 1.368 . S
C3005 H3029 0.949 . S
H3006 C3010 0.949 . S
C3007 C3008 1.349 . S
C3007 C3009 1.327 . S
C3007 H3030 0.950 . S
C3008 C3007 1.349 . S
C3008 C3020 1.349 . S
C3009 C3007 1.327 . S
C3009 C3025 1.429 . S
C3009 H3031 0.950 . S
C3010 H3006 0.949 . S
C3010 C3018 1.574 . S
C3010 C3026 1.368 . S
H3011 C3019 0.950 . S
H3012 C3017 0.950 . S
H3013 C3018 0.949 . S
H3014 C3020 0.950 . S
H3015 C3021 0.950 . S
H3016 C3022 0.949 . S
C3017 H3012 0.950 . S
C3017 C3019 1.327 . S
C3017 C3023 1.429 . S
C3018 C3010 1.574 . S
C3018 H3013 0.949 . S
C3018 C3024 1.368 . S
C3019 C3003 1.349 . S
C3019 H3011 0.950 . S
C3019 C3017 1.327 . S
C3020 C3008 1.349 . S
C3020 H3014 0.950 . S
C3020 C3021 1.327 . S
C3021 H3015 0.950 . S
C3021 C3020 1.327 . S
C3021 C3025 1.429 . S
C3022 C3005 1.574 . S
C3022 H3016 0.949 . S
C3022 C3026 1.368 . S
C3023 C3004 1.429 . S
C3023 C3017 1.429 . S
C3023 C3024 1.523 . S
C3024 C3005 1.368 . S
C3024 C3018 1.368 . S
C3024 C3023 1.523 . S
C3025 C3009 1.429 . S
C3025 C3021 1.429 . S
C3025 C3026 1.523 . S
C3026 C3010 1.368 . S
C3026 C3022 1.368 . S
C3026 C3025 1.523 . S
H3027 C3002 0.950 . S
H3028 C3004 0.950 . S
H3029 C3005 0.949 . S
H3030 C3007 0.950 . S
H3031 C3009 0.950 . S
C3032 C3033 1.349 . S
C3032 C3034 1.327 . S
C3032 H3057 0.950 . S
C3033 C3032 1.349 . S
C3033 C3049 1.349 . S
C3034 C3032 1.327 . S
C3034 C3053 1.429 . S
C3034 H3058 0.950 . S
C3035 C3052 1.574 . S
C3035 C3054 1.368 . S
C3035 H3059 0.949 . S
H3036 C3040 0.949 . S
C3037 C3038 1.349 . S
C3037 C3039 1.327 . S
C3037 H3060 0.950 . S
C3038 C3037 1.349 . S
C3038 C3050 1.349 . S
C3039 C3037 1.327 . S
C3039 C3055 1.429 . S
C3039 H3061 0.950 . S
C3040 H3036 0.949 . S
C3040 C3048 1.574 . S
C3040 C3056 1.368 . S
H3041 C3049 0.950 . S
H3042 C3047 0.950 . S
H3043 C3048 0.949 . S
H3044 C3050 0.950 . S
H3045 C3051 0.950 . S
H3046 C3052 0.949 . S
C3047 H3042 0.950 . S
C3047 C3049 1.327 . S
C3047 C3053 1.429 . S
C3048 C3040 1.574 . S
C3048 H3043 0.949 . S
C3048 C3054 1.368 . S
C3049 C3033 1.349 . S
C3049 H3041 0.950 . S
C3049 C3047 1.327 . S
C3050 C3038 1.349 . S
C3050 H3044 0.950 . S
C3050 C3051 1.327 . S
C3051 H3045 0.950 . S
C3051 C3050 1.327 . S
C3051 C3055 1.429 . S
C3052 C3035 1.574 . S
C3052 H3046 0.949 . S
C3052 C3056 1.368 . S
C3053 C3034 1.429 . S
C3053 C3047 1.429 . S
C3053 C3054 1.523 . S
C3054 C3035 1.368 . S
C3054 C3048 1.368 . S
C3054 C3053 1.523 . S
C3055 C3039 1.429 . S
C3055 C3051 1.429 . S
C3055 C3056 1.523 . S
C3056 C3040 1.368 . S
C3056 C3052 1.368 . S
C3056 C3055 1.523 . S
H3057 C3032 0.950 . S
H3058 C3034 0.950 . S
H3059 C3035 0.949 . S
H3060 C3037 0.950 . S
H3061 C3039 0.950 . S
C3062 C3063 1.349 . S
C3062 C3064 1.327 . S
C3062 H3087 0.950 . S
C3063 C3062 1.349 . S
C3063 C3079 1.349 . S
C3064 C3062 1.327 . S
C3064 C3083 1.429 . S
C3064 H3088 0.950 . S
C3065 C3082 1.574 . S
C3065 C3084 1.368 . S
C3065 H3089 0.949 . S
H3066 C3070 0.949 . S
C3067 C3068 1.349 . S
C3067 C3069 1.327 . S
C3067 H3090 0.950 . S
C3068 C3067 1.349 . S
C3068 C3080 1.349 . S
C3069 C3067 1.327 . S
C3069 C3085 1.429 . S
C3069 H3091 0.950 . S
C3070 H3066 0.949 . S
C3070 C3078 1.574 . S
C3070 C3086 1.368 . S
H3071 C3079 0.950 . S
H3072 C3077 0.950 . S
H3073 C3078 0.949 . S
H3074 C3080 0.950 . S
H3075 C3081 0.950 . S
H3076 C3082 0.949 . S
C3077 H3072 0.950 . S
C3077 C3079 1.327 . S
C3077 C3083 1.429 . S
C3078 C3070 1.574 . S
C3078 H3073 0.949 . S
C3078 C3084 1.368 . S
C3079 C3063 1.349 . S
C3079 H3071 0.950 . S
C3079 C3077 1.327 . S
C3080 C3068 1.349 . S
C3080 H3074 0.950 . S
C3080 C3081 1.327 . S
C3081 H3075 0.950 . S
C3081 C3080 1.327 . S
C3081 C3085 1.429 . S
C3082 C3065 1.574 . S
C3082 H3076 0.949 . S
C3082 C3086 1.368 . S
C3083 C3064 1.429 . S
C3083 C3077 1.429 . S
C3083 C3084 1.523 . S
C3084 C3065 1.368 . S
C3084 C3078 1.368 . S
C3084 C3083 1.523 . S
C3085 C3069 1.429 . S
C3085 C3081 1.429 . S
C3085 C3086 1.523 . S
C3086 C3070 1.368 . S
C3086 C3082 1.368 . S
C3086 C3085 1.523 . S
H3087 C3062 0.950 . S
H3088 C3064 0.950 . S
H3089 C3065 0.949 . S
H3090 C3067 0.950 . S
H3091 C3069 0.950 . S
C3092 C3093 1.349 . S
C3092 C3094 1.327 . S
C3092 H3117 0.950 . S
C3093 C3092 1.349 . S
C3093 C3109 1.349 . S
C3094 C3092 1.327 . S
C3094 C3113 1.429 . S
C3094 H3118 0.950 . S
C3095 C3112 1.574 . S
C3095 C3114 1.368 . S
C3095 H3119 0.949 . S
H3096 C3100 0.949 . S
C3097 C3098 1.349 . S
C3097 C3099 1.327 . S
C3097 H3120 0.950 . S
C3098 C3097 1.349 . S
C3098 C3110 1.349 . S
C3099 C3097 1.327 . S
C3099 C3115 1.429 . S
C3099 H3121 0.950 . S
C3100 H3096 0.949 . S
C3100 C3108 1.574 . S
C3100 C3116 1.368 . S
H3101 C3109 0.950 . S
H3102 C3107 0.950 . S
H3103 C3108 0.949 . S
H3104 C3110 0.950 . S
H3105 C3111 0.950 . S
H3106 C3112 0.949 . S
C3107 H3102 0.950 . S
C3107 C3109 1.327 . S
C3107 C3113 1.429 . S
C3108 C3100 1.574 . S
C3108 H3103 0.949 . S
C3108 C3114 1.368 . S
C3109 C3093 1.349 . S
C3109 H3101 0.950 . S
C3109 C3107 1.327 . S
C3110 C3098 1.349 . S
C3110 H3104 0.950 . S
C3110 C3111 1.327 . S
C3111 H3105 0.950 . S
C3111 C3110 1.327 . S
C3111 C3115 1.429 . S
C3112 C3095 1.574 . S
C3112 H3106 0.949 . S
C3112 C3116 1.368 . S
C3113 C3094 1.429 . S
C3113 C3107 1.429 . S
C3113 C3114 1.523 . S
C3114 C3095 1.368 . S
C3114 C3108 1.368 . S
C3114 C3113 1.523 . S
C3115 C3099 1.429 . S
C3115 C3111 1.429 . S
C3115 C3116 1.523 . S
C3116 C3100 1.368 . S
C3116 C3112 1.368 . S
C3116 C3115 1.523 . S
H3117 C3092 0.950 . S
H3118 C3094 0.950 . S
H3119 C3095 0.949 . S
H3120 C3097 0.950 . S
H3121 C3099 0.950 . S
C3122 C3123 1.349 . S
C3122 C3124 1.327 . S
C3122 H3147 0.950 . S
C3123 C3122 1.349 . S
C3123 C3139 1.349 . S
C3124 C3122 1.327 . S
C3124 C3143 1.429 . S
C3124 H3148 0.950 . S
C3125 C3142 1.574 . S
C3125 C3144 1.368 . S
C3125 H3149 0.949 . S
H3126 C3130 0.949 . S
C3127 C3128 1.349 . S
C3127 C3129 1.327 . S
C3127 H3150 0.950 . S
C3128 C3127 1.349 . S
C3128 C3140 1.349 . S
C3129 C3127 1.327 . S
C3129 C3145 1.429 . S
C3129 H3151 0.950 . S
C3130 H3126 0.949 . S
C3130 C3138 1.574 . S
C3130 C3146 1.368 . S
H3131 C3139 0.950 . S
H3132 C3137 0.950 . S
H3133 C3138 0.949 . S
H3134 C3140 0.950 . S
H3135 C3141 0.950 . S
H3136 C3142 0.949 . S
C3137 H3132 0.950 . S
C3137 C3139 1.327 . S
C3137 C3143 1.429 . S
C3138 C3130 1.574 . S
C3138 H3133 0.949 . S
C3138 C3144 1.368 . S
C3139 C3123 1.349 . S
C3139 H3131 0.950 . S
C3139 C3137 1.327 . S
C3140 C3128 1.349 . S
C3140 H3134 0.950 . S
C3140 C3141 1.327 . S
C3141 H3135 0.950 . S
C3141 C3140 1.327 . S
C3141 C3145 1.429 . S
C3142 C3125 1.574 . S
C3142 H3136 0.949 . S
C3142 C3146 1.368 . S
C3143 C3124 1.429 . S
C3143 C3137 1.429 . S
C3143 C3144 1.523 . S
C3144 C3125 1.368 . S
C3144 C3138 1.368 . S
C3144 C3143 1.523 . S
C3145 C3129 1.429 . S
C3145 C3141 1.429 . S
C3145 C3146 1.523 . S
C3146 C3130 1.368 . S
C3146 C3142 1.368 . S
C3146 C3145 1.523 . S
H3147 C3122 0.950 . S
H3148 C3124 0.950 . S
H3149 C3125 0.949 . S
H3150 C3127 0.950 . S
H3151 C3129 0.950 . S
C3152 C3153 1.349 . S
C3152 C3154 1.327 . S
C3152 H3177 0.950 . S
C3153 C3152 1.349 . S
C3153 C3169 1.349 . S
C3154 C3152 1.327 . S
C3154 C3173 1.429 . S
C3154 H3178 0.950 . S
C3155 C3172 1.574 . S
C3155 C3174 1.368 . S
C3155 H3179 0.949 . S
H3156 C3160 0.949 . S
C3157 C3158 1.349 . S
C3157 C3159 1.327 . S
C3157 H3180 0.950 . S
C3158 C3157 1.349 . S
C3158 C3170 1.349 . S
C3159 C3157 1.327 . S
C3159 C3175 1.429 . S
C3159 H3181 0.950 . S
C3160 H3156 0.949 . S
C3160 C3168 1.574 . S
C3160 C3176 1.368 . S
H3161 C3169 0.950 . S
H3162 C3167 0.950 . S
H3163 C3168 0.949 . S
H3164 C3170 0.950 . S
H3165 C3171 0.950 . S
H3166 C3172 0.949 . S
C3167 H3162 0.950 . S
C3167 C3169 1.327 . S
C3167 C3173 1.429 . S
C3168 C3160 1.574 . S
C3168 H3163 0.949 . S
C3168 C3174 1.368 . S
C3169 C3153 1.349 . S
C3169 H3161 0.950 . S
C3169 C3167 1.327 . S
C3170 C3158 1.349 . S
C3170 H3164 0.950 . S
C3170 C3171 1.327 . S
C3171 H3165 0.950 . S
C3171 C3170 1.327 . S
C3171 C3175 1.429 . S
C3172 C3155 1.574 . S
C3172 H3166 0.949 . S
C3172 C3176 1.368 . S
C3173 C3154 1.429 . S
C3173 C3167 1.429 . S
C3173 C3174 1.523 . S
C3174 C3155 1.368 . S
C3174 C3168 1.368 . S
C3174 C3173 1.523 . S
C3175 C3159 1.429 . S
C3175 C3171 1.429 . S
C3175 C3176 1.523 . S
C3176 C3160 1.368 . S
C3176 C3172 1.368 . S
C3176 C3175 1.523 . S
H3177 C3152 0.950 . S
H3178 C3154 0.950 . S
H3179 C3155 0.949 . S
H3180 C3157 0.950 . S
H3181 C3159 0.950 . S
C3182 C3183 1.349 . S
C3182 C3184 1.327 . S
C3182 H3207 0.950 . S
C3183 C3182 1.349 . S
C3183 C3199 1.349 . S
C3184 C3182 1.327 . S
C3184 C3203 1.429 . S
C3184 H3208 0.950 . S
C3185 C3202 1.574 . S
C3185 C3204 1.368 . S
C3185 H3209 0.949 . S
H3186 C3190 0.949 . S
C3187 C3188 1.349 . S
C3187 C3189 1.327 . S
C3187 H3210 0.950 . S
C3188 C3187 1.349 . S
C3188 C3200 1.349 . S
C3189 C3187 1.327 . S
C3189 C3205 1.429 . S
C3189 H3211 0.950 . S
C3190 H3186 0.949 . S
C3190 C3198 1.574 . S
C3190 C3206 1.368 . S
H3191 C3199 0.950 . S
H3192 C3197 0.950 . S
H3193 C3198 0.949 . S
H3194 C3200 0.950 . S
H3195 C3201 0.950 . S
H3196 C3202 0.949 . S
C3197 H3192 0.950 . S
C3197 C3199 1.327 . S
C3197 C3203 1.429 . S
C3198 C3190 1.574 . S
C3198 H3193 0.949 . S
C3198 C3204 1.368 . S
C3199 C3183 1.349 . S
C3199 H3191 0.950 . S
C3199 C3197 1.327 . S
C3200 C3188 1.349 . S
C3200 H3194 0.950 . S
C3200 C3201 1.327 . S
C3201 H3195 0.950 . S
C3201 C3200 1.327 . S
C3201 C3205 1.429 . S
C3202 C3185 1.574 . S
C3202 H3196 0.949 . S
C3202 C3206 1.368 . S
C3203 C3184 1.429 . S
C3203 C3197 1.429 . S
C3203 C3204 1.523 . S
C3204 C3185 1.368 . S
C3204 C3198 1.368 . S
C3204 C3203 1.523 . S
C3205 C3189 1.429 . S
C3205 C3201 1.429 . S
C3205 C3206 1.523 . S
C3206 C3190 1.368 . S
C3206 C3202 1.368 . S
C3206 C3205 1.523 . S
H3207 C3182 0.950 . S
H3208 C3184 0.950 . S
H3209 C3185 0.949 . S
H3210 C3187 0.950 . S
H3211 C3189 0.950 . S
C3212 C3213 1.349 . S
C3212 C3214 1.327 . S
C3212 H3237 0.950 . S
C3213 C3212 1.349 . S
C3213 C3229 1.349 . S
C3214 C3212 1.327 . S
C3214 C3233 1.429 . S
C3214 H3238 0.950 . S
C3215 C3232 1.574 . S
C3215 C3234 1.368 . S
C3215 H3239 0.949 . S
H3216 C3220 0.949 . S
C3217 C3218 1.349 . S
C3217 C3219 1.327 . S
C3217 H3240 0.950 . S
C3218 C3217 1.349 . S
C3218 C3230 1.349 . S
C3219 C3217 1.327 . S
C3219 C3235 1.429 . S
C3219 H3241 0.950 . S
C3220 H3216 0.949 . S
C3220 C3228 1.574 . S
C3220 C3236 1.368 . S
H3221 C3229 0.950 . S
H3222 C3227 0.950 . S
H3223 C3228 0.949 . S
H3224 C3230 0.950 . S
H3225 C3231 0.950 . S
H3226 C3232 0.949 . S
C3227 H3222 0.950 . S
C3227 C3229 1.327 . S
C3227 C3233 1.429 . S
C3228 C3220 1.574 . S
C3228 H3223 0.949 . S
C3228 C3234 1.368 . S
C3229 C3213 1.349 . S
C3229 H3221 0.950 . S
C3229 C3227 1.327 . S
C3230 C3218 1.349 . S
C3230 H3224 0.950 . S
C3230 C3231 1.327 . S
C3231 H3225 0.950 . S
C3231 C3230 1.327 . S
C3231 C3235 1.429 . S
C3232 C3215 1.574 . S
C3232 H3226 0.949 . S
C3232 C3236 1.368 . S
C3233 C3214 1.429 . S
C3233 C3227 1.429 . S
C3233 C3234 1.523 . S
C3234 C3215 1.368 . S
C3234 C3228 1.368 . S
C3234 C3233 1.523 . S
C3235 C3219 1.429 . S
C3235 C3231 1.429 . S
C3235 C3236 1.523 . S
C3236 C3220 1.368 . S
C3236 C3232 1.368 . S
C3236 C3235 1.523 . S
H3237 C3212 0.950 . S
H3238 C3214 0.950 . S
H3239 C3215 0.949 . S
H3240 C3217 0.950 . S
H3241 C3219 0.950 . S
C3242 C3243 1.349 . S
C3242 C3244 1.327 . S
C3242 H3267 0.950 . S
C3243 C3242 1.349 . S
C3243 C3259 1.349 . S
C3244 C3242 1.327 . S
C3244 C3263 1.429 . S
C3244 H3268 0.950 . S
C3245 C3262 1.574 . S
C3245 C3264 1.368 . S
C3245 H3269 0.949 . S
H3246 C3250 0.949 . S
C3247 C3248 1.349 . S
C3247 C3249 1.327 . S
C3247 H3270 0.950 . S
C3248 C3247 1.349 . S
C3248 C3260 1.349 . S
C3249 C3247 1.327 . S
C3249 C3265 1.429 . S
C3249 H3271 0.950 . S
C3250 H3246 0.949 . S
C3250 C3258 1.574 . S
C3250 C3266 1.368 . S
H3251 C3259 0.950 . S
H3252 C3257 0.950 . S
H3253 C3258 0.949 . S
H3254 C3260 0.950 . S
H3255 C3261 0.950 . S
H3256 C3262 0.949 . S
C3257 H3252 0.950 . S
C3257 C3259 1.327 . S
C3257 C3263 1.429 . S
C3258 C3250 1.574 . S
C3258 H3253 0.949 . S
C3258 C3264 1.368 . S
C3259 C3243 1.349 . S
C3259 H3251 0.950 . S
C3259 C3257 1.327 . S
C3260 C3248 1.349 . S
C3260 H3254 0.950 . S
C3260 C3261 1.327 . S
C3261 H3255 0.950 . S
C3261 C3260 1.327 . S
C3261 C3265 1.429 . S
C3262 C3245 1.574 . S
C3262 H3256 0.949 . S
C3262 C3266 1.368 . S
C3263 C3244 1.429 . S
C3263 C3257 1.429 . S
C3263 C3264 1.523 . S
C3264 C3245 1.368 . S
C3264 C3258 1.368 . S
C3264 C3263 1.523 . S
C3265 C3249 1.429 . S
C3265 C3261 1.429 . S
C3265 C3266 1.523 . S
C3266 C3250 1.368 . S
C3266 C3262 1.368 . S
C3266 C3265 1.523 . S
H3267 C3242 0.950 . S
H3268 C3244 0.950 . S
H3269 C3245 0.949 . S
H3270 C3247 0.950 . S
H3271 C3249 0.950 . S
C3272 C3273 1.349 . S
C3272 C3274 1.327 . S
C3272 H3297 0.950 . S
C3273 C3272 1.349 . S
C3273 C3289 1.349 . S
C3274 C3272 1.327 . S
C3274 C3293 1.429 . S
C3274 H3298 0.950 . S
C3275 C3292 1.574 . S
C3275 C3294 1.368 . S
C3275 H3299 0.949 . S
H3276 C3280 0.949 . S
C3277 C3278 1.349 . S
C3277 C3279 1.327 . S
C3277 H3300 0.950 . S
C3278 C3277 1.349 . S
C3278 C3290 1.349 . S
C3279 C3277 1.327 . S
C3279 C3295 1.429 . S
C3279 H3301 0.950 . S
C3280 H3276 0.949 . S
C3280 C3288 1.574 . S
C3280 C3296 1.368 . S
H3281 C3289 0.950 . S
H3282 C3287 0.950 . S
H3283 C3288 0.949 . S
H3284 C3290 0.950 . S
H3285 C3291 0.950 . S
H3286 C3292 0.949 . S
C3287 H3282 0.950 . S
C3287 C3289 1.327 . S
C3287 C3293 1.429 . S
C3288 C3280 1.574 . S
C3288 H3283 0.949 . S
C3288 C3294 1.368 . S
C3289 C3273 1.349 . S
C3289 H3281 0.950 . S
C3289 C3287 1.327 . S
C3290 C3278 1.349 . S
C3290 H3284 0.950 . S
C3290 C3291 1.327 . S
C3291 H3285 0.950 . S
C3291 C3290 1.327 . S
C3291 C3295 1.429 . S
C3292 C3275 1.574 . S
C3292 H3286 0.949 . S
C3292 C3296 1.368 . S
C3293 C3274 1.429 . S
C3293 C3287 1.429 . S
C3293 C3294 1.523 . S
C3294 C3275 1.368 . S
C3294 C3288 1.368 . S
C3294 C3293 1.523 . S
C3295 C3279 1.429 . S
C3295 C3291 1.429 . S
C3295 C3296 1.523 . S
C3296 C3280 1.368 . S
C3296 C3292 1.368 . S
C3296 C3295 1.523 . S
H3297 C3272 0.950 . S
H3298 C3274 0.950 . S
H3299 C3275 0.949 . S
H3300 C3277 0.950 . S
H3301 C3279 0.950 . S
C3302 C3303 1.349 . S
C3302 C3304 1.327 . S
C3302 H3327 0.950 . S
C3303 C3302 1.349 . S
C3303 C3319 1.349 . S
C3304 C3302 1.327 . S
C3304 C3323 1.429 . S
C3304 H3328 0.950 . S
C3305 C3322 1.574 . S
C3305 C3324 1.368 . S
C3305 H3329 0.949 . S
H3306 C3310 0.949 . S
C3307 C3308 1.349 . S
C3307 C3309 1.327 . S
C3307 H3330 0.950 . S
C3308 C3307 1.349 . S
C3308 C3320 1.349 . S
C3309 C3307 1.327 . S
C3309 C3325 1.429 . S
C3309 H3331 0.950 . S
C3310 H3306 0.949 . S
C3310 C3318 1.574 . S
C3310 C3326 1.368 . S
H3311 C3319 0.950 . S
H3312 C3317 0.950 . S
H3313 C3318 0.949 . S
H3314 C3320 0.950 . S
H3315 C3321 0.950 . S
H3316 C3322 0.949 . S
C3317 H3312 0.950 . S
C3317 C3319 1.327 . S
C3317 C3323 1.429 . S
C3318 C3310 1.574 . S
C3318 H3313 0.949 . S
C3318 C3324 1.368 . S
C3319 C3303 1.349 . S
C3319 H3311 0.950 . S
C3319 C3317 1.327 . S
C3320 C3308 1.349 . S
C3320 H3314 0.950 . S
C3320 C3321 1.327 . S
C3321 H3315 0.950 . S
C3321 C3320 1.327 . S
C3321 C3325 1.429 . S
C3322 C3305 1.574 . S
C3322 H3316 0.949 . S
C3322 C3326 1.368 . S
C3323 C3304 1.429 . S
C3323 C3317 1.429 . S
C3323 C3324 1.523 . S
C3324 C3305 1.368 . S
C3324 C3318 1.368 . S
C3324 C3323 1.523 . S
C3325 C3309 1.429 . S
C3325 C3321 1.429 . S
C3325 C3326 1.523 . S
C3326 C3310 1.368 . S
C3326 C3322 1.368 . S
C3326 C3325 1.523 . S
H3327 C3302 0.950 . S
H3328 C3304 0.950 . S
H3329 C3305 0.949 . S
H3330 C3307 0.950 . S
H3331 C3309 0.950 . S
C3332 C3333 1.349 . S
C3332 C3334 1.327 . S
C3332 H3357 0.950 . S
C3333 C3332 1.349 . S
C3333 C3349 1.349 . S
C3334 C3332 1.327 . S
C3334 C3353 1.429 . S
C3334 H3358 0.950 . S
C3335 C3352 1.574 . S
C3335 C3354 1.368 . S
C3335 H3359 0.949 . S
H3336 C3340 0.949 . S
C3337 C3338 1.349 . S
C3337 C3339 1.327 . S
C3337 H3360 0.950 . S
C3338 C3337 1.349 . S
C3338 C3350 1.349 . S
C3339 C3337 1.327 . S
C3339 C3355 1.429 . S
C3339 H3361 0.950 . S
C3340 H3336 0.949 . S
C3340 C3348 1.574 . S
C3340 C3356 1.368 . S
H3341 C3349 0.950 . S
H3342 C3347 0.950 . S
H3343 C3348 0.949 . S
H3344 C3350 0.950 . S
H3345 C3351 0.950 . S
H3346 C3352 0.949 . S
C3347 H3342 0.950 . S
C3347 C3349 1.327 . S
C3347 C3353 1.429 . S
C3348 C3340 1.574 . S
C3348 H3343 0.949 . S
C3348 C3354 1.368 . S
C3349 C3333 1.349 . S
C3349 H3341 0.950 . S
C3349 C3347 1.327 . S
C3350 C3338 1.349 . S
C3350 H3344 0.950 . S
C3350 C3351 1.327 . S
C3351 H3345 0.950 . S
C3351 C3350 1.327 . S
C3351 C3355 1.429 . S
C3352 C3335 1.574 . S
C3352 H3346 0.949 . S
C3352 C3356 1.368 . S
C3353 C3334 1.429 . S
C3353 C3347 1.429 . S
C3353 C3354 1.523 . S
C3354 C3335 1.368 . S
C3354 C3348 1.368 . S
C3354 C3353 1.523 . S
C3355 C3339 1.429 . S
C3355 C3351 1.429 . S
C3355 C3356 1.523 . S
C3356 C3340 1.368 . S
C3356 C3352 1.368 . S
C3356 C3355 1.523 . S
H3357 C3332 0.950 . S
H3358 C3334 0.950 . S
H3359 C3335 0.949 . S
H3360 C3337 0.950 . S
H3361 C3339 0.950 . S
C3362 C3363 1.349 . S
C3362 C3364 1.327 . S
C3362 H3387 0.950 . S
C3363 C3362 1.349 . S
C3363 C3379 1.349 . S
C3364 C3362 1.327 . S
C3364 C3383 1.429 . S
C3364 H3388 0.950 . S
C3365 C3382 1.574 . S
C3365 C3384 1.368 . S
C3365 H3389 0.949 . S
H3366 C3370 0.949 . S
C3367 C3368 1.349 . S
C3367 C3369 1.327 . S
C3367 H3390 0.950 . S
C3368 C3367 1.349 . S
C3368 C3380 1.349 . S
C3369 C3367 1.327 . S
C3369 C3385 1.429 . S
C3369 H3391 0.950 . S
C3370 H3366 0.949 . S
C3370 C3378 1.574 . S
C3370 C3386 1.368 . S
H3371 C3379 0.950 . S
H3372 C3377 0.950 . S
H3373 C3378 0.949 . S
H3374 C3380 0.950 . S
H3375 C3381 0.950 . S
H3376 C3382 0.949 . S
C3377 H3372 0.950 . S
C3377 C3379 1.327 . S
C3377 C3383 1.429 . S
C3378 C3370 1.574 . S
C3378 H3373 0.949 . S
C3378 C3384 1.368 . S
C3379 C3363 1.349 . S
C3379 H3371 0.950 . S
C3379 C3377 1.327 . S
C3380 C3368 1.349 . S
C3380 H3374 0.950 . S
C3380 C3381 1.327 . S
C3381 H3375 0.950 . S
C3381 C3380 1.327 . S
C3381 C3385 1.429 . S
C3382 C3365 1.574 . S
C3382 H3376 0.949 . S
C3382 C3386 1.368 . S
C3383 C3364 1.429 . S
C3383 C3377 1.429 . S
C3383 C3384 1.523 . S
C3384 C3365 1.368 . S
C3384 C3378 1.368 . S
C3384 C3383 1.523 . S
C3385 C3369 1.429 . S
C3385 C3381 1.429 . S
C3385 C3386 1.523 . S
C3386 C3370 1.368 . S
C3386 C3382 1.368 . S
C3386 C3385 1.523 . S
H3387 C3362 0.950 . S
H3388 C3364 0.950 . S
H3389 C3365 0.949 . S
H3390 C3367 0.950 . S
H3391 C3369 0.950 . S
C3392 C3393 1.349 . S
C3392 C3394 1.327 . S
C3392 H3417 0.950 . S
C3393 C3392 1.349 . S
C3393 C3409 1.349 . S
C3394 C3392 1.327 . S
C3394 C3413 1.429 . S
C3394 H3418 0.950 . S
C3395 C3412 1.574 . S
C3395 C3414 1.368 . S
C3395 H3419 0.949 . S
H3396 C3400 0.949 . S
C3397 C3398 1.349 . S
C3397 C3399 1.327 . S
C3397 H3420 0.950 . S
C3398 C3397 1.349 . S
C3398 C3410 1.349 . S
C3399 C3397 1.327 . S
C3399 C3415 1.429 . S
C3399 H3421 0.950 . S
C3400 H3396 0.949 . S
C3400 C3408 1.574 . S
C3400 C3416 1.368 . S
H3401 C3409 0.950 . S
H3402 C3407 0.950 . S
H3403 C3408 0.949 . S
H3404 C3410 0.950 . S
H3405 C3411 0.950 . S
H3406 C3412 0.949 . S
C3407 H3402 0.950 . S
C3407 C3409 1.327 . S
C3407 C3413 1.429 . S
C3408 C3400 1.574 . S
C3408 H3403 0.949 . S
C3408 C3414 1.368 . S
C3409 C3393 1.349 . S
C3409 H3401 0.950 . S
C3409 C3407 1.327 . S
C3410 C3398 1.349 . S
C3410 H3404 0.950 . S
C3410 C3411 1.327 . S
C3411 H3405 0.950 . S
C3411 C3410 1.327 . S
C3411 C3415 1.429 . S
C3412 C3395 1.574 . S
C3412 H3406 0.949 . S
C3412 C3416 1.368 . S
C3413 C3394 1.429 . S
C3413 C3407 1.429 . S
C3413 C3414 1.523 . S
C3414 C3395 1.368 . S
C3414 C3408 1.368 . S
C3414 C3413 1.523 . S
C3415 C3399 1.429 . S
C3415 C3411 1.429 . S
C3415 C3416 1.523 . S
C3416 C3400 1.368 . S
C3416 C3412 1.368 . S
C3416 C3415 1.523 . S
H3417 C3392 0.950 . S
H3418 C3394 0.950 . S
H3419 C3395 0.949 . S
H3420 C3397 0.950 . S
H3421 C3399 0.950 . S
C3422 C3423 1.349 . S
C3422 C3424 1.327 . S
C3422 H3447 0.950 . S
C3423 C3422 1.349 . S
C3423 C3439 1.349 . S
C3424 C3422 1.327 . S
C3424 C3443 1.429 . S
C3424 H3448 0.950 . S
C3425 C3442 1.574 . S
C3425 C3444 1.368 . S
C3425 H3449 0.949 . S
H3426 C3430 0.949 . S
C3427 C3428 1.349 . S
C3427 C3429 1.327 . S
C3427 H3450 0.950 . S
C3428 C3427 1.349 . S
C3428 C3440 1.349 . S
C3429 C3427 1.327 . S
C3429 C3445 1.429 . S
C3429 H3451 0.950 . S
C3430 H3426 0.949 . S
C3430 C3438 1.574 . S
C3430 C3446 1.368 . S
H3431 C3439 0.950 . S
H3432 C3437 0.950 . S
H3433 C3438 0.949 . S
H3434 C3440 0.950 . S
H3435 C3441 0.950 . S
H3436 C3442 0.949 . S
C3437 H3432 0.950 . S
C3437 C3439 1.327 . S
C3437 C3443 1.429 . S
C3438 C3430 1.574 . S
C3438 H3433 0.949 . S
C3438 C3444 1.368 . S
C3439 C3423 1.349 . S
C3439 H3431 0.950 . S
C3439 C3437 1.327 . S
C3440 C3428 1.349 . S
C3440 H3434 0.950 . S
C3440 C3441 1.327 . S
C3441 H3435 0.950 . S
C3441 C3440 1.327 . S
C3441 C3445 1.429 . S
C3442 C3425 1.574 . S
C3442 H3436 0.949 . S
C3442 C3446 1.368 . S
C3443 C3424 1.429 . S
C3443 C3437 1.429 . S
C3443 C3444 1.523 . S
C3444 C3425 1.368 . S
C3444 C3438 1.368 . S
C3444 C3443 1.523 . S
C3445 C3429 1.429 . S
C3445 C3441 1.429 . S
C3445 C3446 1.523 . S
C3446 C3430 1.368 . S
C3446 C3442 1.368 . S
C3446 C3445 1.523 . S
H3447 C3422 0.950 . S
H3448 C3424 0.950 . S
H3449 C3425 0.949 . S
H3450 C3427 0.950 . S
H3451 C3429 0.950 . S
C3452 C3453 1.349 . S
C3452 C3454 1.327 . S
C3452 H3477 0.950 . S
C3453 C3452 1.349 . S
C3453 C3469 1.349 . S
C3454 C3452 1.327 . S
C3454 C3473 1.429 . S
C3454 H3478 0.950 . S
C3455 C3472 1.574 . S
C3455 C3474 1.368 . S
C3455 H3479 0.949 . S
H3456 C3460 0.949 . S
C3457 C3458 1.349 . S
C3457 C3459 1.327 . S
C3457 H3480 0.950 . S
C3458 C3457 1.349 . S
C3458 C3470 1.349 . S
C3459 C3457 1.327 . S
C3459 C3475 1.429 . S
C3459 H3481 0.950 . S
C3460 H3456 0.949 . S
C3460 C3468 1.574 . S
C3460 C3476 1.368 . S
H3461 C3469 0.950 . S
H3462 C3467 0.950 . S
H3463 C3468 0.949 . S
H3464 C3470 0.950 . S
H3465 C3471 0.950 . S
H3466 C3472 0.949 . S
C3467 H3462 0.950 . S
C3467 C3469 1.327 . S
C3467 C3473 1.429 . S
C3468 C3460 1.574 . S
C3468 H3463 0.949 . S
C3468 C3474 1.368 . S
C3469 C3453 1.349 . S
C3469 H3461 0.950 . S
C3469 C3467 1.327 . S
C3470 C3458 1.349 . S
C3470 H3464 0.950 . S
C3470 C3471 1.327 . S
C3471 H3465 0.950 . S
C3471 C3470 1.327 . S
C3471 C3475 1.429 . S
C3472 C3455 1.574 . S
C3472 H3466 0.949 . S
C3472 C3476 1.368 . S
C3473 C3454 1.429 . S
C3473 C3467 1.429 . S
C3473 C3474 1.523 . S
C3474 C3455 1.368 . S
C3474 C3468 1.368 . S
C3474 C3473 1.523 . S
C3475 C3459 1.429 . S
C3475 C3471 1.429 . S
C3475 C3476 1.523 . S
C3476 C3460 1.368 . S
C3476 C3472 1.368 . S
C3476 C3475 1.523 . S
H3477 C3452 0.950 . S
H3478 C3454 0.950 . S
H3479 C3455 0.949 . S
H3480 C3457 0.950 . S
H3481 C3459 0.950 . S
C3482 C3483 1.349 . S
C3482 C3484 1.327 . S
C3482 H3507 0.950 . S
C3483 C3482 1.349 . S
C3483 C3499 1.349 . S
C3484 C3482 1.327 . S
C3484 C3503 1.429 . S
C3484 H3508 0.950 . S
C3485 C3502 1.574 . S
C3485 C3504 1.368 . S
C3485 H3509 0.949 . S
H3486 C3490 0.949 . S
C3487 C3488 1.349 . S
C3487 C3489 1.327 . S
C3487 H3510 0.950 . S
C3488 C3487 1.349 . S
C3488 C3500 1.349 . S
C3489 C3487 1.327 . S
C3489 C3505 1.429 . S
C3489 H3511 0.950 . S
C3490 H3486 0.949 . S
C3490 C3498 1.574 . S
C3490 C3506 1.368 . S
H3491 C3499 0.950 . S
H3492 C3497 0.950 . S
H3493 C3498 0.949 . S
H3494 C3500 0.950 . S
H3495 C3501 0.950 . S
H3496 C3502 0.949 . S
C3497 H3492 0.950 . S
C3497 C3499 1.327 . S
C3497 C3503 1.429 . S
C3498 C3490 1.574 . S
C3498 H3493 0.949 . S
C3498 C3504 1.368 . S
C3499 C3483 1.349 . S
C3499 H3491 0.950 . S
C3499 C3497 1.327 . S
C3500 C3488 1.349 . S
C3500 H3494 0.950 . S
C3500 C3501 1.327 . S
C3501 H3495 0.950 . S
C3501 C3500 1.327 . S
C3501 C3505 1.429 . S
C3502 C3485 1.574 . S
C3502 H3496 0.949 . S
C3502 C3506 1.368 . S
C3503 C3484 1.429 . S
C3503 C3497 1.429 . S
C3503 C3504 1.523 . S
C3504 C3485 1.368 . S
C3504 C3498 1.368 . S
C3504 C3503 1.523 . S
C3505 C3489 1.429 . S
C3505 C3501 1.429 . S
C3505 C3506 1.523 . S
C3506 C3490 1.368 . S
C3506 C3502 1.368 . S
C3506 C3505 1.523 . S
H3507 C3482 0.950 . S
H3508 C3484 0.950 . S
H3509 C3485 0.949 . S
H3510 C3487 0.950 . S
H3511 C3489 0.950 . S
C3512 C3513 1.349 . S
C3512 C3514 1.327 . S
C3512 H3537 0.950 . S
C3513 C3512 1.349 . S
C3513 C3529 1.349 . S
C3514 C3512 1.327 . S
C3514 C3533 1.429 . S
C3514 H3538 0.950 . S
C3515 C3532 1.574 . S
C3515 C3534 1.368 . S
C3515 H3539 0.949 . S
H3516 C3520 0.949 . S
C3517 C3518 1.349 . S
C3517 C3519 1.327 . S
C3517 H3540 0.950 . S
C3518 C3517 1.349 . S
C3518 C3530 1.349 . S
C3519 C3517 1.327 . S
C3519 C3535 1.429 . S
C3519 H3541 0.950 . S
C3520 H3516 0.949 . S
C3520 C3528 1.574 . S
C3520 C3536 1.368 . S
H3521 C3529 0.950 . S
H3522 C3527 0.950 . S
H3523 C3528 0.949 . S
H3524 C3530 0.950 . S
H3525 C3531 0.950 . S
H3526 C3532 0.949 . S
C3527 H3522 0.950 . S
C3527 C3529 1.327 . S
C3527 C3533 1.429 . S
C3528 C3520 1.574 . S
C3528 H3523 0.949 . S
C3528 C3534 1.368 . S
C3529 C3513 1.349 . S
C3529 H3521 0.950 . S
C3529 C3527 1.327 . S
C3530 C3518 1.349 . S
C3530 H3524 0.950 . S
C3530 C3531 1.327 . S
C3531 H3525 0.950 . S
C3531 C3530 1.327 . S
C3531 C3535 1.429 . S
C3532 C3515 1.574 . S
C3532 H3526 0.949 . S
C3532 C3536 1.368 . S
C3533 C3514 1.429 . S
C3533 C3527 1.429 . S
C3533 C3534 1.523 . S
C3534 C3515 1.368 . S
C3534 C3528 1.368 . S
C3534 C3533 1.523 . S
C3535 C3519 1.429 . S
C3535 C3531 1.429 . S
C3535 C3536 1.523 . S
C3536 C3520 1.368 . S
C3536 C3532 1.368 . S
C3536 C3535 1.523 . S
H3537 C3512 0.950 . S
H3538 C3514 0.950 . S
H3539 C3515 0.949 . S
H3540 C3517 0.950 . S
H3541 C3519 0.950 . S
C3542 C3543 1.349 . S
C3542 C3544 1.327 . S
C3542 H3567 0.950 . S
C3543 C3542 1.349 . S
C3543 C3559 1.349 . S
C3544 C3542 1.327 . S
C3544 C3563 1.429 . S
C3544 H3568 0.950 . S
C3545 C3562 1.574 . S
C3545 C3564 1.368 . S
C3545 H3569 0.949 . S
H3546 C3550 0.949 . S
C3547 C3548 1.349 . S
C3547 C3549 1.327 . S
C3547 H3570 0.950 . S
C3548 C3547 1.349 . S
C3548 C3560 1.349 . S
C3549 C3547 1.327 . S
C3549 C3565 1.429 . S
C3549 H3571 0.950 . S
C3550 H3546 0.949 . S
C3550 C3558 1.574 . S
C3550 C3566 1.368 . S
H3551 C3559 0.950 . S
H3552 C3557 0.950 . S
H3553 C3558 0.949 . S
H3554 C3560 0.950 . S
H3555 C3561 0.950 . S
H3556 C3562 0.949 . S
C3557 H3552 0.950 . S
C3557 C3559 1.327 . S
C3557 C3563 1.429 . S
C3558 C3550 1.574 . S
C3558 H3553 0.949 . S
C3558 C3564 1.368 . S
C3559 C3543 1.349 . S
C3559 H3551 0.950 . S
C3559 C3557 1.327 . S
C3560 C3548 1.349 . S
C3560 H3554 0.950 . S
C3560 C3561 1.327 . S
C3561 H3555 0.950 . S
C3561 C3560 1.327 . S
C3561 C3565 1.429 . S
C3562 C3545 1.574 . S
C3562 H3556 0.949 . S
C3562 C3566 1.368 . S
C3563 C3544 1.429 . S
C3563 C3557 1.429 . S
C3563 C3564 1.523 . S
C3564 C3545 1.368 . S
C3564 C3558 1.368 . S
C3564 C3563 1.523 . S
C3565 C3549 1.429 . S
C3565 C3561 1.429 . S
C3565 C3566 1.523 . S
C3566 C3550 1.368 . S
C3566 C3562 1.368 . S
C3566 C3565 1.523 . S
H3567 C3542 0.950 . S
H3568 C3544 0.950 . S
H3569 C3545 0.949 . S
H3570 C3547 0.950 . S
H3571 C3549 0.950 . S
C3572 C3573 1.349 . S
C3572 C3574 1.327 . S
C3572 H3597 0.950 . S
C3573 C3572 1.349 . S
C3573 C3589 1.349 . S
C3574 C3572 1.327 . S
C3574 C3593 1.429 . S
C3574 H3598 0.950 . S
C3575 C3592 1.574 . S
C3575 C3594 1.368 . S
C3575 H3599 0.949 . S
H3576 C3580 0.949 . S
C3577 C3578 1.349 . S
C3577 C3579 1.327 . S
C3577 H3600 0.950 . S
C3578 C3577 1.349 . S
C3578 C3590 1.349 . S
C3579 C3577 1.327 . S
C3579 C3595 1.429 . S
C3579 H3601 0.950 . S
C3580 H3576 0.949 . S
C3580 C3588 1.574 . S
C3580 C3596 1.368 . S
H3581 C3589 0.950 . S
H3582 C3587 0.950 . S
H3583 C3588 0.949 . S
H3584 C3590 0.950 . S
H3585 C3591 0.950 . S
H3586 C3592 0.949 . S
C3587 H3582 0.950 . S
C3587 C3589 1.327 . S
C3587 C3593 1.429 . S
C3588 C3580 1.574 . S
C3588 H3583 0.949 . S
C3588 C3594 1.368 . S
C3589 C3573 1.349 . S
C3589 H3581 0.950 . S
C3589 C3587 1.327 . S
C3590 C3578 1.349 . S
C3590 H3584 0.950 . S
C3590 C3591 1.327 . S
C3591 H3585 0.950 . S
C3591 C3590 1.327 . S
C3591 C3595 1.429 . S
C3592 C3575 1.574 . S
C3592 H3586 0.949 . S
C3592 C3596 1.368 . S
C3593 C3574 1.429 . S
C3593 C3587 1.429 . S
C3593 C3594 1.523 . S
C3594 C3575 1.368 . S
C3594 C3588 1.368 . S
C3594 C3593 1.523 . S
C3595 C3579 1.429 . S
C3595 C3591 1.429 . S
C3595 C3596 1.523 . S
C3596 C3580 1.368 . S
C3596 C3592 1.368 . S
C3596 C3595 1.523 . S
H3597 C3572 0.950 . S
H3598 C3574 0.950 . S
H3599 C3575 0.949 . S
H3600 C3577 0.950 . S
H3601 C3579 0.950 . S
C3602 C3603 1.349 . S
C3602 C3604 1.327 . S
C3602 H3627 0.950 . S
C3603 C3602 1.349 . S
C3603 C3619 1.349 . S
C3604 C3602 1.327 . S
C3604 C3623 1.429 . S
C3604 H3628 0.950 . S
C3605 C3622 1.574 . S
C3605 C3624 1.368 . S
C3605 H3629 0.949 . S
H3606 C3610 0.949 . S
C3607 C3608 1.349 . S
C3607 C3609 1.327 . S
C3607 H3630 0.950 . S
C3608 C3607 1.349 . S
C3608 C3620 1.349 . S
C3609 C3607 1.327 . S
C3609 C3625 1.429 . S
C3609 H3631 0.950 . S
C3610 H3606 0.949 . S
C3610 C3618 1.574 . S
C3610 C3626 1.368 . S
H3611 C3619 0.950 . S
H3612 C3617 0.950 . S
H3613 C3618 0.949 . S
H3614 C3620 0.950 . S
H3615 C3621 0.950 . S
H3616 C3622 0.949 . S
C3617 H3612 0.950 . S
C3617 C3619 1.327 . S
C3617 C3623 1.429 . S
C3618 C3610 1.574 . S
C3618 H3613 0.949 . S
C3618 C3624 1.368 . S
C3619 C3603 1.349 . S
C3619 H3611 0.950 . S
C3619 C3617 1.327 . S
C3620 C3608 1.349 . S
C3620 H3614 0.950 . S
C3620 C3621 1.327 . S
C3621 H3615 0.950 . S
C3621 C3620 1.327 . S
C3621 C3625 1.429 . S
C3622 C3605 1.574 . S
C3622 H3616 0.949 . S
C3622 C3626 1.368 . S
C3623 C3604 1.429 . S
C3623 C3617 1.429 . S
C3623 C3624 1.523 . S
C3624 C3605 1.368 . S
C3624 C3618 1.368 . S
C3624 C3623 1.523 . S
C3625 C3609 1.429 . S
C3625 C3621 1.429 . S
C3625 C3626 1.523 . S
C3626 C3610 1.368 . S
C3626 C3622 1.368 . S
C3626 C3625 1.523 . S
H3627 C3602 0.950 . S
H3628 C3604 0.950 . S
H3629 C3605 0.949 . S
H3630 C3607 0.950 . S
H3631 C3609 0.950 . S
C3632 C3633 1.349 . S
C3632 C3634 1.327 . S
C3632 H3657 0.950 . S
C3633 C3632 1.349 . S
C3633 C3649 1.349 . S
C3634 C3632 1.327 . S
C3634 C3653 1.429 . S
C3634 H3658 0.950 . S
C3635 C3652 1.574 . S
C3635 C3654 1.368 . S
C3635 H3659 0.949 . S
H3636 C3640 0.949 . S
C3637 C3638 1.349 . S
C3637 C3639 1.327 . S
C3637 H3660 0.950 . S
C3638 C3637 1.349 . S
C3638 C3650 1.349 . S
C3639 C3637 1.327 . S
C3639 C3655 1.429 . S
C3639 H3661 0.950 . S
C3640 H3636 0.949 . S
C3640 C3648 1.574 . S
C3640 C3656 1.368 . S
H3641 C3649 0.950 . S
H3642 C3647 0.950 . S
H3643 C3648 0.949 . S
H3644 C3650 0.950 . S
H3645 C3651 0.950 . S
H3646 C3652 0.949 . S
C3647 H3642 0.950 . S
C3647 C3649 1.327 . S
C3647 C3653 1.429 . S
C3648 C3640 1.574 . S
C3648 H3643 0.949 . S
C3648 C3654 1.368 . S
C3649 C3633 1.349 . S
C3649 H3641 0.950 . S
C3649 C3647 1.327 . S
C3650 C3638 1.349 . S
C3650 H3644 0.950 . S
C3650 C3651 1.327 . S
C3651 H3645 0.950 . S
C3651 C3650 1.327 . S
C3651 C3655 1.429 . S
C3652 C3635 1.574 . S
C3652 H3646 0.949 . S
C3652 C3656 1.368 . S
C3653 C3634 1.429 . S
C3653 C3647 1.429 . S
C3653 C3654 1.523 . S
C3654 C3635 1.368 . S
C3654 C3648 1.368 . S
C3654 C3653 1.523 . S
C3655 C3639 1.429 . S
C3655 C3651 1.429 . S
C3655 C3656 1.523 . S
C3656 C3640 1.368 . S
C3656 C3652 1.368 . S
C3656 C3655 1.523 . S
H3657 C3632 0.950 . S
H3658 C3634 0.950 . S
H3659 C3635 0.949 . S
H3660 C3637 0.950 . S
H3661 C3639 0.950 . S
C3662 C3663 1.349 . S
C3662 C3664 1.327 . S
C3662 H3687 0.950 . S
C3663 C3662 1.349 . S
C3663 C3679 1.349 . S
C3664 C3662 1.327 . S
C3664 C3683 1.429 . S
C3664 H3688 0.950 . S
C3665 C3682 1.574 . S
C3665 C3684 1.368 . S
C3665 H3689 0.949 . S
H3666 C3670 0.949 . S
C3667 C3668 1.349 . S
C3667 C3669 1.327 . S
C3667 H3690 0.950 . S
C3668 C3667 1.349 . S
C3668 C3680 1.349 . S
C3669 C3667 1.327 . S
C3669 C3685 1.429 . S
C3669 H3691 0.950 . S
C3670 H3666 0.949 . S
C3670 C3678 1.574 . S
C3670 C3686 1.368 . S
H3671 C3679 0.950 . S
H3672 C3677 0.950 . S
H3673 C3678 0.949 . S
H3674 C3680 0.950 . S
H3675 C3681 0.950 . S
H3676 C3682 0.949 . S
C3677 H3672 0.950 . S
C3677 C3679 1.327 . S
C3677 C3683 1.429 . S
C3678 C3670 1.574 . S
C3678 H3673 0.949 . S
C3678 C3684 1.368 . S
C3679 C3663 1.349 . S
C3679 H3671 0.950 . S
C3679 C3677 1.327 . S
C3680 C3668 1.349 . S
C3680 H3674 0.950 . S
C3680 C3681 1.327 . S
C3681 H3675 0.950 . S
C3681 C3680 1.327 . S
C3681 C3685 1.429 . S
C3682 C3665 1.574 . S
C3682 H3676 0.949 . S
C3682 C3686 1.368 . S
C3683 C3664 1.429 . S
C3683 C3677 1.429 . S
C3683 C3684 1.523 . S
C3684 C3665 1.368 . S
C3684 C3678 1.368 . S
C3684 C3683 1.523 . S
C3685 C3669 1.429 . S
C3685 C3681 1.429 . S
C3685 C3686 1.523 . S
C3686 C3670 1.368 . S
C3686 C3682 1.368 . S
C3686 C3685 1.523 . S
H3687 C3662 0.950 . S
H3688 C3664 0.950 . S
H3689 C3665 0.949 . S
H3690 C3667 0.950 . S
H3691 C3669 0.950 . S
C3692 C3693 1.349 . S
C3692 C3694 1.327 . S
C3692 H3717 0.950 . S
C3693 C3692 1.349 . S
C3693 C3709 1.349 . S
C3694 C3692 1.327 . S
C3694 C3713 1.429 . S
C3694 H3718 0.950 . S
C3695 C3712 1.574 . S
C3695 C3714 1.368 . S
C3695 H3719 0.949 . S
H3696 C3700 0.949 . S
C3697 C3698 1.349 . S
C3697 C3699 1.327 . S
C3697 H3720 0.950 . S
C3698 C3697 1.349 . S
C3698 C3710 1.349 . S
C3699 C3697 1.327 . S
C3699 C3715 1.429 . S
C3699 H3721 0.950 . S
C3700 H3696 0.949 . S
C3700 C3708 1.574 . S
C3700 C3716 1.368 . S
H3701 C3709 0.950 . S
H3702 C3707 0.950 . S
H3703 C3708 0.949 . S
H3704 C3710 0.950 . S
H3705 C3711 0.950 . S
H3706 C3712 0.949 . S
C3707 H3702 0.950 . S
C3707 C3709 1.327 . S
C3707 C3713 1.429 . S
C3708 C3700 1.574 . S
C3708 H3703 0.949 . S
C3708 C3714 1.368 . S
C3709 C3693 1.349 . S
C3709 H3701 0.950 . S
C3709 C3707 1.327 . S
C3710 C3698 1.349 . S
C3710 H3704 0.950 . S
C3710 C3711 1.327 . S
C3711 H3705 0.950 . S
C3711 C3710 1.327 . S
C3711 C3715 1.429 . S
C3712 C3695 1.574 . S
C3712 H3706 0.949 . S
C3712 C3716 1.368 . S
C3713 C3694 1.429 . S
C3713 C3707 1.429 . S
C3713 C3714 1.523 . S
C3714 C3695 1.368 . S
C3714 C3708 1.368 . S
C3714 C3713 1.523 . S
C3715 C3699 1.429 . S
C3715 C3711 1.429 . S
C3715 C3716 1.523 . S
C3716 C3700 1.368 . S
C3716 C3712 1.368 . S
C3716 C3715 1.523 . S
H3717 C3692 0.950 . S
H3718 C3694 0.950 . S
H3719 C3695 0.949 . S
H3720 C3697 0.950 . S
H3721 C3699 0.950 . S
C3722 C3723 1.349 . S
C3722 C3724 1.327 . S
C3722 H3747 0.950 . S
C3723 C3722 1.349 . S
C3723 C3739 1.349 . S
C3724 C3722 1.327 . S
C3724 C3743 1.429 . S
C3724 H3748 0.950 . S
C3725 C3742 1.574 . S
C3725 C3744 1.368 . S
C3725 H3749 0.949 . S
H3726 C3730 0.949 . S
C3727 C3728 1.349 . S
C3727 C3729 1.327 . S
C3727 H3750 0.950 . S
C3728 C3727 1.349 . S
C3728 C3740 1.349 . S
C3729 C3727 1.327 . S
C3729 C3745 1.429 . S
C3729 H3751 0.950 . S
C3730 H3726 0.949 . S
C3730 C3738 1.574 . S
C3730 C3746 1.368 . S
H3731 C3739 0.950 . S
H3732 C3737 0.950 . S
H3733 C3738 0.949 . S
H3734 C3740 0.950 . S
H3735 C3741 0.950 . S
H3736 C3742 0.949 . S
C3737 H3732 0.950 . S
C3737 C3739 1.327 . S
C3737 C3743 1.429 . S
C3738 C3730 1.574 . S
C3738 H3733 0.949 . S
C3738 C3744 1.368 . S
C3739 C3723 1.349 . S
C3739 H3731 0.950 . S
C3739 C3737 1.327 . S
C3740 C3728 1.349 . S
C3740 H3734 0.950 . S
C3740 C3741 1.327 . S
C3741 H3735 0.950 . S
C3741 C3740 1.327 . S
C3741 C3745 1.429 . S
C3742 C3725 1.574 . S
C3742 H3736 0.949 . S
C3742 C3746 1.368 . S
C3743 C3724 1.429 . S
C3743 C3737 1.429 . S
C3743 C3744 1.523 . S
C3744 C3725 1.368 . S
C3744 C3738 1.368 . S
C3744 C3743 1.523 . S
C3745 C3729 1.429 . S
C3745 C3741 1.429 . S
C3745 C3746 1.523 . S
C3746 C3730 1.368 . S
C3746 C3742 1.368 . S
C3746 C3745 1.523 . S
H3747 C3722 0.950 . S
H3748 C3724 0.950 . S
H3749 C3725 0.949 . S
H3750 C3727 0.950 . S
H3751 C3729 0.950 . S
C3752 C3753 1.349 . S
C3752 C3754 1.327 . S
C3752 H3777 0.950 . S
C3753 C3752 1.349 . S
C3753 C3769 1.349 . S
C3754 C3752 1.327 . S
C3754 C3773 1.429 . S
C3754 H3778 0.950 . S
C3755 C3772 1.574 . S
C3755 C3774 1.368 . S
C3755 H3779 0.949 . S
H3756 C3760 0.949 . S
C3757 C3758 1.349 . S
C3757 C3759 1.327 . S
C3757 H3780 0.950 . S
C3758 C3757 1.349 . S
C3758 C3770 1.349 . S
C3759 C3757 1.327 . S
C3759 C3775 1.429 . S
C3759 H3781 0.950 . S
C3760 H3756 0.949 . S
C3760 C3768 1.574 . S
C3760 C3776 1.368 . S
H3761 C3769 0.950 . S
H3762 C3767 0.950 . S
H3763 C3768 0.949 . S
H3764 C3770 0.950 . S
H3765 C3771 0.950 . S
H3766 C3772 0.949 . S
C3767 H3762 0.950 . S
C3767 C3769 1.327 . S
C3767 C3773 1.429 . S
C3768 C3760 1.574 . S
C3768 H3763 0.949 . S
C3768 C3774 1.368 . S
C3769 C3753 1.349 . S
C3769 H3761 0.950 . S
C3769 C3767 1.327 . S
C3770 C3758 1.349 . S
C3770 H3764 0.950 . S
C3770 C3771 1.327 . S
C3771 H3765 0.950 . S
C3771 C3770 1.327 . S
C3771 C3775 1.429 . S
C3772 C3755 1.574 . S
C3772 H3766 0.949 . S
C3772 C3776 1.368 . S
C3773 C3754 1.429 . S
C3773 C3767 1.429 . S
C3773 C3774 1.523 . S
C3774 C3755 1.368 . S
C3774 C3768 1.368 . S
C3774 C3773 1.523 . S
C3775 C3759 1.429 . S
C3775 C3771 1.429 . S
C3775 C3776 1.523 . S
C3776 C3760 1.368 . S
C3776 C3772 1.368 . S
C3776 C3775 1.523 . S
H3777 C3752 0.950 . S
H3778 C3754 0.950 . S
H3779 C3755 0.949 . S
H3780 C3757 0.950 . S
H3781 C3759 0.950 . S
C3782 C3783 1.349 . S
C3782 C3784 1.327 . S
C3782 H3807 0.950 . S
C3783 C3782 1.349 . S
C3783 C3799 1.349 . S
C3784 C3782 1.327 . S
C3784 C3803 1.429 . S
C3784 H3808 0.950 . S
C3785 C3802 1.574 . S
C3785 C3804 1.368 . S
C3785 H3809 0.949 . S
H3786 C3790 0.949 . S
C3787 C3788 1.349 . S
C3787 C3789 1.327 . S
C3787 H3810 0.950 . S
C3788 C3787 1.349 . S
C3788 C3800 1.349 . S
C3789 C3787 1.327 . S
C3789 C3805 1.429 . S
C3789 H3811 0.950 . S
C3790 H3786 0.949 . S
C3790 C3798 1.574 . S
C3790 C3806 1.368 . S
H3791 C3799 0.950 . S
H3792 C3797 0.950 . S
H3793 C3798 0.949 . S
H3794 C3800 0.950 . S
H3795 C3801 0.950 . S
H3796 C3802 0.949 . S
C3797 H3792 0.950 . S
C3797 C3799 1.327 . S
C3797 C3803 1.429 . S
C3798 C3790 1.574 . S
C3798 H3793 0.949 . S
C3798 C3804 1.368 . S
C3799 C3783 1.349 . S
C3799 H3791 0.950 . S
C3799 C3797 1.327 . S
C3800 C3788 1.349 . S
C3800 H3794 0.950 . S
C3800 C3801 1.327 . S
C3801 H3795 0.950 . S
C3801 C3800 1.327 . S
C3801 C3805 1.429 . S
C3802 C3785 1.574 . S
C3802 H3796 0.949 . S
C3802 C3806 1.368 . S
C3803 C3784 1.429 . S
C3803 C3797 1.429 . S
C3803 C3804 1.523 . S
C3804 C3785 1.368 . S
C3804 C3798 1.368 . S
C3804 C3803 1.523 . S
C3805 C3789 1.429 . S
C3805 C3801 1.429 . S
C3805 C3806 1.523 . S
C3806 C3790 1.368 . S
C3806 C3802 1.368 . S
C3806 C3805 1.523 . S
H3807 C3782 0.950 . S
H3808 C3784 0.950 . S
H3809 C3785 0.949 . S
H3810 C3787 0.950 . S
H3811 C3789 0.950 . S
C3812 C3813 1.349 . S
C3812 C3814 1.327 . S
C3812 H3837 0.950 . S
C3813 C3812 1.349 . S
C3813 C3829 1.349 . S
C3814 C3812 1.327 . S
C3814 C3833 1.429 . S
C3814 H3838 0.950 . S
C3815 C3832 1.574 . S
C3815 C3834 1.368 . S
C3815 H3839 0.949 . S
H3816 C3820 0.949 . S
C3817 C3818 1.349 . S
C3817 C3819 1.327 . S
C3817 H3840 0.950 . S
C3818 C3817 1.349 . S
C3818 C3830 1.349 . S
C3819 C3817 1.327 . S
C3819 C3835 1.429 . S
C3819 H3841 0.950 . S
C3820 H3816 0.949 . S
C3820 C3828 1.574 . S
C3820 C3836 1.368 . S
H3821 C3829 0.950 . S
H3822 C3827 0.950 . S
H3823 C3828 0.949 . S
H3824 C3830 0.950 . S
H3825 C3831 0.950 . S
H3826 C3832 0.949 . S
C3827 H3822 0.950 . S
C3827 C3829 1.327 . S
C3827 C3833 1.429 . S
C3828 C3820 1.574 . S
C3828 H3823 0.949 . S
C3828 C3834 1.368 . S
C3829 C3813 1.349 . S
C3829 H3821 0.950 . S
C3829 C3827 1.327 . S
C3830 C3818 1.349 . S
C3830 H3824 0.950 . S
C3830 C3831 1.327 . S
C3831 H3825 0.950 . S
C3831 C3830 1.327 . S
C3831 C3835 1.429 . S
C3832 C3815 1.574 . S
C3832 H3826 0.949 . S
C3832 C3836 1.368 . S
C3833 C3814 1.429 . S
C3833 C3827 1.429 . S
C3833 C3834 1.523 . S
C3834 C3815 1.368 . S
C3834 C3828 1.368 . S
C3834 C3833 1.523 . S
C3835 C3819 1.429 . S
C3835 C3831 1.429 . S
C3835 C3836 1.523 . S
C3836 C3820 1.368 . S
C3836 C3832 1.368 . S
C3836 C3835 1.523 . S
H3837 C3812 0.950 . S
H3838 C3814 0.950 . S
H3839 C3815 0.949 . S
H3840 C3817 0.950 . S
H3841 C3819 0.950 . S
C3842 C3843 1.349 . S
C3842 C3844 1.327 . S
C3842 H3867 0.950 . S
C3843 C3842 1.349 . S
C3843 C3859 1.349 . S
C3844 C3842 1.327 . S
C3844 C3863 1.429 . S
C3844 H3868 0.950 . S
C3845 C3862 1.574 . S
C3845 C3864 1.368 . S
C3845 H3869 0.949 . S
H3846 C3850 0.949 . S
C3847 C3848 1.349 . S
C3847 C3849 1.327 . S
C3847 H3870 0.950 . S
C3848 C3847 1.349 . S
C3848 C3860 1.349 . S
C3849 C3847 1.327 . S
C3849 C3865 1.429 . S
C3849 H3871 0.950 . S
C3850 H3846 0.949 . S
C3850 C3858 1.574 . S
C3850 C3866 1.368 . S
H3851 C3859 0.950 . S
H3852 C3857 0.950 . S
H3853 C3858 0.949 . S
H3854 C3860 0.950 . S
H3855 C3861 0.950 . S
H3856 C3862 0.949 . S
C3857 H3852 0.950 . S
C3857 C3859 1.327 . S
C3857 C3863 1.429 . S
C3858 C3850 1.574 . S
C3858 H3853 0.949 . S
C3858 C3864 1.368 . S
C3859 C3843 1.349 . S
C3859 H3851 0.950 . S
C3859 C3857 1.327 . S
C3860 C3848 1.349 . S
C3860 H3854 0.950 . S
C3860 C3861 1.327 . S
C3861 H3855 0.950 . S
C3861 C3860 1.327 . S
C3861 C3865 1.429 . S
C3862 C3845 1.574 . S
C3862 H3856 0.949 . S
C3862 C3866 1.368 . S
C3863 C3844 1.429 . S
C3863 C3857 1.429 . S
C3863 C3864 1.523 . S
C3864 C3845 1.368 . S
C3864 C3858 1.368 . S
C3864 C3863 1.523 . S
C3865 C3849 1.429 . S
C3865 C3861 1.429 . S
C3865 C3866 1.523 . S
C3866 C3850 1.368 . S
C3866 C3862 1.368 . S
C3866 C3865 1.523 . S
H3867 C3842 0.950 . S
H3868 C3844 0.950 . S
H3869 C3845 0.949 . S
H3870 C3847 0.950 . S
H3871 C3849 0.950 . S
C3872 C3873 1.349 . S
C3872 C3874 1.327 . S
C3872 H3897 0.950 . S
C3873 C3872 1.349 . S
C3873 C3889 1.349 . S
C3874 C3872 1.327 . S
C3874 C3893 1.429 . S
C3874 H3898 0.950 . S
C3875 C3892 1.574 . S
C3875 C3894 1.368 . S
C3875 H3899 0.949 . S
H3876 C3880 0.949 . S
C3877 C3878 1.349 . S
C3877 C3879 1.327 . S
C3877 H3900 0.950 . S
C3878 C3877 1.349 . S
C3878 C3890 1.349 . S
C3879 C3877 1.327 . S
C3879 C3895 1.429 . S
C3879 H3901 0.950 . S
C3880 H3876 0.949 . S
C3880 C3888 1.574 . S
C3880 C3896 1.368 . S
H3881 C3889 0.950 . S
H3882 C3887 0.950 . S
H3883 C3888 0.949 . S
H3884 C3890 0.950 . S
H3885 C3891 0.950 . S
H3886 C3892 0.949 . S
C3887 H3882 0.950 . S
C3887 C3889 1.327 . S
C3887 C3893 1.429 . S
C3888 C3880 1.574 . S
C3888 H3883 0.949 . S
C3888 C3894 1.368 . S
C3889 C3873 1.349 . S
C3889 H3881 0.950 . S
C3889 C3887 1.327 . S
C3890 C3878 1.349 . S
C3890 H3884 0.950 . S
C3890 C3891 1.327 . S
C3891 H3885 0.950 . S
C3891 C3890 1.327 . S
C3891 C3895 1.429 . S
C3892 C3875 1.574 . S
C3892 H3886 0.949 . S
C3892 C3896 1.368 . S
C3893 C3874 1.429 . S
C3893 C3887 1.429 . S
C3893 C3894 1.523 . S
C3894 C3875 1.368 . S
C3894 C3888 1.368 . S
C3894 C3893 1.523 . S
C3895 C3879 1.429 . S
C3895 C3891 1.429 . S
C3895 C3896 1.523 . S
C3896 C3880 1.368 . S
C3896 C3892 1.368 . S
C3896 C3895 1.523 . S
H3897 C3872 0.950 . S
H3898 C3874 0.950 . S
H3899 C3875 0.949 . S
H3900 C3877 0.950 . S
H3901 C3879 0.950 . S
C3902 C3903 1.349 . S
C3902 C3904 1.327 . S
C3902 H3927 0.950 . S
C3903 C3902 1.349 . S
C3903 C3919 1.349 . S
C3904 C3902 1.327 . S
C3904 C3923 1.429 . S
C3904 H3928 0.950 . S
C3905 C3922 1.574 . S
C3905 C3924 1.368 . S
C3905 H3929 0.949 . S
H3906 C3910 0.949 . S
C3907 C3908 1.349 . S
C3907 C3909 1.327 . S
C3907 H3930 0.950 . S
C3908 C3907 1.349 . S
C3908 C3920 1.349 . S
C3909 C3907 1.327 . S
C3909 C3925 1.429 . S
C3909 H3931 0.950 . S
C3910 H3906 0.949 . S
C3910 C3918 1.574 . S
C3910 C3926 1.368 . S
H3911 C3919 0.950 . S
H3912 C3917 0.950 . S
H3913 C3918 0.949 . S
H3914 C3920 0.950 . S
H3915 C3921 0.950 . S
H3916 C3922 0.949 . S
C3917 H3912 0.950 . S
C3917 C3919 1.327 . S
C3917 C3923 1.429 . S
C3918 C3910 1.574 . S
C3918 H3913 0.949 . S
C3918 C3924 1.368 . S
C3919 C3903 1.349 . S
C3919 H3911 0.950 . S
C3919 C3917 1.327 . S
C3920 C3908 1.349 . S
C3920 H3914 0.950 . S
C3920 C3921 1.327 . S
C3921 H3915 0.950 . S
C3921 C3920 1.327 . S
C3921 C3925 1.429 . S
C3922 C3905 1.574 . S
C3922 H3916 0.949 . S
C3922 C3926 1.368 . S
C3923 C3904 1.429 . S
C3923 C3917 1.429 . S
C3923 C3924 1.523 . S
C3924 C3905 1.368 . S
C3924 C3918 1.368 . S
C3924 C3923 1.523 . S
C3925 C3909 1.429 . S
C3925 C3921 1.429 . S
C3925 C3926 1.523 . S
C3926 C3910 1.368 . S
C3926 C3922 1.368 . S
C3926 C3925 1.523 . S
H3927 C3902 0.950 . S
H3928 C3904 0.950 . S
H3929 C3905 0.949 . S
H3930 C3907 0.950 . S
H3931 C3909 0.950 . S
C3932 C3933 1.349 . S
C3932 C3934 1.327 . S
C3932 H3957 0.950 . S
C3933 C3932 1.349 . S
C3933 C3949 1.349 . S
C3934 C3932 1.327 . S
C3934 C3953 1.429 . S
C3934 H3958 0.950 . S
C3935 C3952 1.574 . S
C3935 C3954 1.368 . S
C3935 H3959 0.949 . S
H3936 C3940 0.949 . S
C3937 C3938 1.349 . S
C3937 C3939 1.327 . S
C3937 H3960 0.950 . S
C3938 C3937 1.349 . S
C3938 C3950 1.349 . S
C3939 C3937 1.327 . S
C3939 C3955 1.429 . S
C3939 H3961 0.950 . S
C3940 H3936 0.949 . S
C3940 C3948 1.574 . S
C3940 C3956 1.368 . S
H3941 C3949 0.950 . S
H3942 C3947 0.950 . S
H3943 C3948 0.949 . S
H3944 C3950 0.950 . S
H3945 C3951 0.950 . S
H3946 C3952 0.949 . S
C3947 H3942 0.950 . S
C3947 C3949 1.327 . S
C3947 C3953 1.429 . S
C3948 C3940 1.574 . S
C3948 H3943 0.949 . S
C3948 C3954 1.368 . S
C3949 C3933 1.349 . S
C3949 H3941 0.950 . S
C3949 C3947 1.327 . S
C3950 C3938 1.349 . S
C3950 H3944 0.950 . S
C3950 C3951 1.327 . S
C3951 H3945 0.950 . S
C3951 C3950 1.327 . S
C3951 C3955 1.429 . S
C3952 C3935 1.574 . S
C3952 H3946 0.949 . S
C3952 C3956 1.368 . S
C3953 C3934 1.429 . S
C3953 C3947 1.429 . S
C3953 C3954 1.523 . S
C3954 C3935 1.368 . S
C3954 C3948 1.368 . S
C3954 C3953 1.523 . S
C3955 C3939 1.429 . S
C3955 C3951 1.429 . S
C3955 C3956 1.523 . S
C3956 C3940 1.368 . S
C3956 C3952 1.368 . S
C3956 C3955 1.523 . S
H3957 C3932 0.950 . S
H3958 C3934 0.950 . S
H3959 C3935 0.949 . S
H3960 C3937 0.950 . S
H3961 C3939 0.950 . S
C3962 C3963 1.349 . S
C3962 C3964 1.327 . S
C3962 H3987 0.950 . S
C3963 C3962 1.349 . S
C3963 C3979 1.349 . S
C3964 C3962 1.327 . S
C3964 C3983 1.429 . S
C3964 H3988 0.950 . S
C3965 C3982 1.574 . S
C3965 C3984 1.368 . S
C3965 H3989 0.949 . S
H3966 C3970 0.949 . S
C3967 C3968 1.349 . S
C3967 C3969 1.327 . S
C3967 H3990 0.950 . S
C3968 C3967 1.349 . S
C3968 C3980 1.349 . S
C3969 C3967 1.327 . S
C3969 C3985 1.429 . S
C3969 H3991 0.950 . S
C3970 H3966 0.949 . S
C3970 C3978 1.574 . S
C3970 C3986 1.368 . S
H3971 C3979 0.950 . S
H3972 C3977 0.950 . S
H3973 C3978 0.949 . S
H3974 C3980 0.950 . S
H3975 C3981 0.950 . S
H3976 C3982 0.949 . S
C3977 H3972 0.950 . S
C3977 C3979 1.327 . S
C3977 C3983 1.429 . S
C3978 C3970 1.574 . S
C3978 H3973 0.949 . S
C3978 C3984 1.368 . S
C3979 C3963 1.349 . S
C3979 H3971 0.950 . S
C3979 C3977 1.327 . S
C3980 C3968 1.349 . S
C3980 H3974 0.950 . S
C3980 C3981 1.327 . S
C3981 H3975 0.950 . S
C3981 C3980 1.327 . S
C3981 C3985 1.429 . S
C3982 C3965 1.574 . S
C3982 H3976 0.949 . S
C3982 C3986 1.368 . S
C3983 C3964 1.429 . S
C3983 C3977 1.429 . S
C3983 C3984 1.523 . S
C3984 C3965 1.368 . S
C3984 C3978 1.368 . S
C3984 C3983 1.523 . S
C3985 C3969 1.429 . S
C3985 C3981 1.429 . S
C3985 C3986 1.523 . S
C3986 C3970 1.368 . S
C3986 C3982 1.368 . S
C3986 C3985 1.523 . S
H3987 C3962 0.950 . S
H3988 C3964 0.950 . S
H3989 C3965 0.949 . S
H3990 C3967 0.950 . S
H3991 C3969 0.950 . S
C3992 C3993 1.349 . S
C3992 C3994 1.327 . S
C3992 H4017 0.950 . S
C3993 C3992 1.349 . S
C3993 C4009 1.349 . S
C3994 C3992 1.327 . S
C3994 C4013 1.429 . S
C3994 H4018 0.950 . S
C3995 C4012 1.574 . S
C3995 C4014 1.368 . S
C3995 H4019 0.949 . S
H3996 C4000 0.949 . S
C3997 C3998 1.349 . S
C3997 C3999 1.327 . S
C3997 H4020 0.950 . S
C3998 C3997 1.349 . S
C3998 C4010 1.349 . S
C3999 C3997 1.327 . S
C3999 C4015 1.429 . S
C3999 H4021 0.950 . S
C4000 H3996 0.949 . S
C4000 C4008 1.574 . S
C4000 C4016 1.368 . S
H4001 C4009 0.950 . S
H4002 C4007 0.950 . S
H4003 C4008 0.949 . S
H4004 C4010 0.950 . S
H4005 C4011 0.950 . S
H4006 C4012 0.949 . S
C4007 H4002 0.950 . S
C4007 C4009 1.327 . S
C4007 C4013 1.429 . S
C4008 C4000 1.574 . S
C4008 H4003 0.949 . S
C4008 C4014 1.368 . S
C4009 C3993 1.349 . S
C4009 H4001 0.950 . S
C4009 C4007 1.327 . S
C4010 C3998 1.349 . S
C4010 H4004 0.950 . S
C4010 C4011 1.327 . S
C4011 H4005 0.950 . S
C4011 C4010 1.327 . S
C4011 C4015 1.429 . S
C4012 C3995 1.574 . S
C4012 H4006 0.949 . S
C4012 C4016 1.368 . S
C4013 C3994 1.429 . S
C4013 C4007 1.429 . S
C4013 C4014 1.523 . S
C4014 C3995 1.368 . S
C4014 C4008 1.368 . S
C4014 C4013 1.523 . S
C4015 C3999 1.429 . S
C4015 C4011 1.429 . S
C4015 C4016 1.523 . S
C4016 C4000 1.368 . S
C4016 C4012 1.368 . S
C4016 C4015 1.523 . S
H4017 C3992 0.950 . S
H4018 C3994 0.950 . S
H4019 C3995 0.949 . S
H4020 C3997 0.950 . S
H4021 C3999 0.950 . S
C4022 C4023 1.349 . S
C4022 C4024 1.327 . S
C4022 H4047 0.950 . S
C4023 C4022 1.349 . S
C4023 C4039 1.349 . S
C4024 C4022 1.327 . S
C4024 C4043 1.429 . S
C4024 H4048 0.950 . S
C4025 C4042 1.574 . S
C4025 C4044 1.368 . S
C4025 H4049 0.949 . S
H4026 C4030 0.949 . S
C4027 C4028 1.349 . S
C4027 C4029 1.327 . S
C4027 H4050 0.950 . S
C4028 C4027 1.349 . S
C4028 C4040 1.349 . S
C4029 C4027 1.327 . S
C4029 C4045 1.429 . S
C4029 H4051 0.950 . S
C4030 H4026 0.949 . S
C4030 C4038 1.574 . S
C4030 C4046 1.368 . S
H4031 C4039 0.950 . S
H4032 C4037 0.950 . S
H4033 C4038 0.949 . S
H4034 C4040 0.950 . S
H4035 C4041 0.950 . S
H4036 C4042 0.949 . S
C4037 H4032 0.950 . S
C4037 C4039 1.327 . S
C4037 C4043 1.429 . S
C4038 C4030 1.574 . S
C4038 H4033 0.949 . S
C4038 C4044 1.368 . S
C4039 C4023 1.349 . S
C4039 H4031 0.950 . S
C4039 C4037 1.327 . S
C4040 C4028 1.349 . S
C4040 H4034 0.950 . S
C4040 C4041 1.327 . S
C4041 H4035 0.950 . S
C4041 C4040 1.327 . S
C4041 C4045 1.429 . S
C4042 C4025 1.574 . S
C4042 H4036 0.949 . S
C4042 C4046 1.368 . S
C4043 C4024 1.429 . S
C4043 C4037 1.429 . S
C4043 C4044 1.523 . S
C4044 C4025 1.368 . S
C4044 C4038 1.368 . S
C4044 C4043 1.523 . S
C4045 C4029 1.429 . S
C4045 C4041 1.429 . S
C4045 C4046 1.523 . S
C4046 C4030 1.368 . S
C4046 C4042 1.368 . S
C4046 C4045 1.523 . S
H4047 C4022 0.950 . S
H4048 C4024 0.950 . S
H4049 C4025 0.949 . S
H4050 C4027 0.950 . S
H4051 C4029 0.950 . S
C4052 C4053 1.349 . S
C4052 C4054 1.327 . S
C4052 H4077 0.950 . S
C4053 C4052 1.349 . S
C4053 C4069 1.349 . S
C4054 C4052 1.327 . S
C4054 C4073 1.429 . S
C4054 H4078 0.950 . S
C4055 C4072 1.574 . S
C4055 C4074 1.368 . S
C4055 H4079 0.949 . S
H4056 C4060 0.949 . S
C4057 C4058 1.349 . S
C4057 C4059 1.327 . S
C4057 H4080 0.950 . S
C4058 C4057 1.349 . S
C4058 C4070 1.349 . S
C4059 C4057 1.327 . S
C4059 C4075 1.429 . S
C4059 H4081 0.950 . S
C4060 H4056 0.949 . S
C4060 C4068 1.574 . S
C4060 C4076 1.368 . S
H4061 C4069 0.950 . S
H4062 C4067 0.950 . S
H4063 C4068 0.949 . S
H4064 C4070 0.950 . S
H4065 C4071 0.950 . S
H4066 C4072 0.949 . S
C4067 H4062 0.950 . S
C4067 C4069 1.327 . S
C4067 C4073 1.429 . S
C4068 C4060 1.574 . S
C4068 H4063 0.949 . S
C4068 C4074 1.368 . S
C4069 C4053 1.349 . S
C4069 H4061 0.950 . S
C4069 C4067 1.327 . S
C4070 C4058 1.349 . S
C4070 H4064 0.950 . S
C4070 C4071 1.327 . S
C4071 H4065 0.950 . S
C4071 C4070 1.327 . S
C4071 C4075 1.429 . S
C4072 C4055 1.574 . S
C4072 H4066 0.949 . S
C4072 C4076 1.368 . S
C4073 C4054 1.429 . S
C4073 C4067 1.429 . S
C4073 C4074 1.523 . S
C4074 C4055 1.368 . S
C4074 C4068 1.368 . S
C4074 C4073 1.523 . S
C4075 C4059 1.429 . S
C4075 C4071 1.429 . S
C4075 C4076 1.523 . S
C4076 C4060 1.368 . S
C4076 C4072 1.368 . S
C4076 C4075 1.523 . S
H4077 C4052 0.950 . S
H4078 C4054 0.950 . S
H4079 C4055 0.949 . S
H4080 C4057 0.950 . S
H4081 C4059 0.950 . S
C4082 C4083 1.349 . S
C4082 C4084 1.327 . S
C4082 H4107 0.950 . S
C4083 C4082 1.349 . S
C4083 C4099 1.349 . S
C4084 C4082 1.327 . S
C4084 C4103 1.429 . S
C4084 H4108 0.950 . S
C4085 C4102 1.574 . S
C4085 C4104 1.368 . S
C4085 H4109 0.949 . S
H4086 C4090 0.949 . S
C4087 C4088 1.349 . S
C4087 C4089 1.327 . S
C4087 H4110 0.950 . S
C4088 C4087 1.349 . S
C4088 C4100 1.349 . S
C4089 C4087 1.327 . S
C4089 C4105 1.429 . S
C4089 H4111 0.950 . S
C4090 H4086 0.949 . S
C4090 C4098 1.574 . S
C4090 C4106 1.368 . S
H4091 C4099 0.950 . S
H4092 C4097 0.950 . S
H4093 C4098 0.949 . S
H4094 C4100 0.950 . S
H4095 C4101 0.950 . S
H4096 C4102 0.949 . S
C4097 H4092 0.950 . S
C4097 C4099 1.327 . S
C4097 C4103 1.429 . S
C4098 C4090 1.574 . S
C4098 H4093 0.949 . S
C4098 C4104 1.368 . S
C4099 C4083 1.349 . S
C4099 H4091 0.950 . S
C4099 C4097 1.327 . S
C4100 C4088 1.349 . S
C4100 H4094 0.950 . S
C4100 C4101 1.327 . S
C4101 H4095 0.950 . S
C4101 C4100 1.327 . S
C4101 C4105 1.429 . S
C4102 C4085 1.574 . S
C4102 H4096 0.949 . S
C4102 C4106 1.368 . S
C4103 C4084 1.429 . S
C4103 C4097 1.429 . S
C4103 C4104 1.523 . S
C4104 C4085 1.368 . S
C4104 C4098 1.368 . S
C4104 C4103 1.523 . S
C4105 C4089 1.429 . S
C4105 C4101 1.429 . S
C4105 C4106 1.523 . S
C4106 C4090 1.368 . S
C4106 C4102 1.368 . S
C4106 C4105 1.523 . S
H4107 C4082 0.950 . S
H4108 C4084 0.950 . S
H4109 C4085 0.949 . S
H4110 C4087 0.950 . S
H4111 C4089 0.950 . S
C4112 C4113 1.349 . S
C4112 C4114 1.327 . S
C4112 H4137 0.950 . S
C4113 C4112 1.349 . S
C4113 C4129 1.349 . S
C4114 C4112 1.327 . S
C4114 C4133 1.429 . S
C4114 H4138 0.950 . S
C4115 C4132 1.574 . S
C4115 C4134 1.368 . S
C4115 H4139 0.949 . S
H4116 C4120 0.949 . S
C4117 C4118 1.349 . S
C4117 C4119 1.327 . S
C4117 H4140 0.950 . S
C4118 C4117 1.349 . S
C4118 C4130 1.349 . S
C4119 C4117 1.327 . S
C4119 C4135 1.429 . S
C4119 H4141 0.950 . S
C4120 H4116 0.949 . S
C4120 C4128 1.574 . S
C4120 C4136 1.368 . S
H4121 C4129 0.950 . S
H4122 C4127 0.950 . S
H4123 C4128 0.949 . S
H4124 C4130 0.950 . S
H4125 C4131 0.950 . S
H4126 C4132 0.949 . S
C4127 H4122 0.950 . S
C4127 C4129 1.327 . S
C4127 C4133 1.429 . S
C4128 C4120 1.574 . S
C4128 H4123 0.949 . S
C4128 C4134 1.368 . S
C4129 C4113 1.349 . S
C4129 H4121 0.950 . S
C4129 C4127 1.327 . S
C4130 C4118 1.349 . S
C4130 H4124 0.950 . S
C4130 C4131 1.327 . S
C4131 H4125 0.950 . S
C4131 C4130 1.327 . S
C4131 C4135 1.429 . S
C4132 C4115 1.574 . S
C4132 H4126 0.949 . S
C4132 C4136 1.368 . S
C4133 C4114 1.429 . S
C4133 C4127 1.429 . S
C4133 C4134 1.523 . S
C4134 C4115 1.368 . S
C4134 C4128 1.368 . S
C4134 C4133 1.523 . S
C4135 C4119 1.429 . S
C4135 C4131 1.429 . S
C4135 C4136 1.523 . S
C4136 C4120 1.368 . S
C4136 C4132 1.368 . S
C4136 C4135 1.523 . S
H4137 C4112 0.950 . S
H4138 C4114 0.950 . S
H4139 C4115 0.949 . S
H4140 C4117 0.950 . S
H4141 C4119 0.950 . S
C4142 C4143 1.349 . S
C4142 C4144 1.327 . S
C4142 H4167 0.950 . S
C4143 C4142 1.349 . S
C4143 C4159 1.349 . S
C4144 C4142 1.327 . S
C4144 C4163 1.429 . S
C4144 H4168 0.950 . S
C4145 C4162 1.574 . S
C4145 C4164 1.368 . S
C4145 H4169 0.949 . S
H4146 C4150 0.949 . S
C4147 C4148 1.349 . S
C4147 C4149 1.327 . S
C4147 H4170 0.950 . S
C4148 C4147 1.349 . S
C4148 C4160 1.349 . S
C4149 C4147 1.327 . S
C4149 C4165 1.429 . S
C4149 H4171 0.950 . S
C4150 H4146 0.949 . S
C4150 C4158 1.574 . S
C4150 C4166 1.368 . S
H4151 C4159 0.950 . S
H4152 C4157 0.950 . S
H4153 C4158 0.949 . S
H4154 C4160 0.950 . S
H4155 C4161 0.950 . S
H4156 C4162 0.949 . S
C4157 H4152 0.950 . S
C4157 C4159 1.327 . S
C4157 C4163 1.429 . S
C4158 C4150 1.574 . S
C4158 H4153 0.949 . S
C4158 C4164 1.368 . S
C4159 C4143 1.349 . S
C4159 H4151 0.950 . S
C4159 C4157 1.327 . S
C4160 C4148 1.349 . S
C4160 H4154 0.950 . S
C4160 C4161 1.327 . S
C4161 H4155 0.950 . S
C4161 C4160 1.327 . S
C4161 C4165 1.429 . S
C4162 C4145 1.574 . S
C4162 H4156 0.949 . S
C4162 C4166 1.368 . S
C4163 C4144 1.429 . S
C4163 C4157 1.429 . S
C4163 C4164 1.523 . S
C4164 C4145 1.368 . S
C4164 C4158 1.368 . S
C4164 C4163 1.523 . S
C4165 C4149 1.429 . S
C4165 C4161 1.429 . S
C4165 C4166 1.523 . S
C4166 C4150 1.368 . S
C4166 C4162 1.368 . S
C4166 C4165 1.523 . S
H4167 C4142 0.950 . S
H4168 C4144 0.950 . S
H4169 C4145 0.949 . S
H4170 C4147 0.950 . S
H4171 C4149 0.950 . S
C4172 C4173 1.349 . S
C4172 C4174 1.327 . S
C4172 H4197 0.950 . S
C4173 C4172 1.349 . S
C4173 C4189 1.349 . S
C4174 C4172 1.327 . S
C4174 C4193 1.429 . S
C4174 H4198 0.950 . S
C4175 C4192 1.574 . S
C4175 C4194 1.368 . S
C4175 H4199 0.949 . S
H4176 C4180 0.949 . S
C4177 C4178 1.349 . S
C4177 C4179 1.327 . S
C4177 H4200 0.950 . S
C4178 C4177 1.349 . S
C4178 C4190 1.349 . S
C4179 C4177 1.327 . S
C4179 C4195 1.429 . S
C4179 H4201 0.950 . S
C4180 H4176 0.949 . S
C4180 C4188 1.574 . S
C4180 C4196 1.368 . S
H4181 C4189 0.950 . S
H4182 C4187 0.950 . S
H4183 C4188 0.949 . S
H4184 C4190 0.950 . S
H4185 C4191 0.950 . S
H4186 C4192 0.949 . S
C4187 H4182 0.950 . S
C4187 C4189 1.327 . S
C4187 C4193 1.429 . S
C4188 C4180 1.574 . S
C4188 H4183 0.949 . S
C4188 C4194 1.368 . S
C4189 C4173 1.349 . S
C4189 H4181 0.950 . S
C4189 C4187 1.327 . S
C4190 C4178 1.349 . S
C4190 H4184 0.950 . S
C4190 C4191 1.327 . S
C4191 H4185 0.950 . S
C4191 C4190 1.327 . S
C4191 C4195 1.429 . S
C4192 C4175 1.574 . S
C4192 H4186 0.949 . S
C4192 C4196 1.368 . S
C4193 C4174 1.429 . S
C4193 C4187 1.429 . S
C4193 C4194 1.523 . S
C4194 C4175 1.368 . S
C4194 C4188 1.368 . S
C4194 C4193 1.523 . S
C4195 C4179 1.429 . S
C4195 C4191 1.429 . S
C4195 C4196 1.523 . S
C4196 C4180 1.368 . S
C4196 C4192 1.368 . S
C4196 C4195 1.523 . S
H4197 C4172 0.950 . S
H4198 C4174 0.950 . S
H4199 C4175 0.949 . S
H4200 C4177 0.950 . S
H4201 C4179 0.950 . S
C4202 C4203 1.349 . S
C4202 C4204 1.327 . S
C4202 H4227 0.950 . S
C4203 C4202 1.349 . S
C4203 C4219 1.349 . S
C4204 C4202 1.327 . S
C4204 C4223 1.429 . S
C4204 H4228 0.950 . S
C4205 C4222 1.574 . S
C4205 C4224 1.368 . S
C4205 H4229 0.949 . S
H4206 C4210 0.949 . S
C4207 C4208 1.349 . S
C4207 C4209 1.327 . S
C4207 H4230 0.950 . S
C4208 C4207 1.349 . S
C4208 C4220 1.349 . S
C4209 C4207 1.327 . S
C4209 C4225 1.429 . S
C4209 H4231 0.950 . S
C4210 H4206 0.949 . S
C4210 C4218 1.574 . S
C4210 C4226 1.368 . S
H4211 C4219 0.950 . S
H4212 C4217 0.950 . S
H4213 C4218 0.949 . S
H4214 C4220 0.950 . S
H4215 C4221 0.950 . S
H4216 C4222 0.949 . S
C4217 H4212 0.950 . S
C4217 C4219 1.327 . S
C4217 C4223 1.429 . S
C4218 C4210 1.574 . S
C4218 H4213 0.949 . S
C4218 C4224 1.368 . S
C4219 C4203 1.349 . S
C4219 H4211 0.950 . S
C4219 C4217 1.327 . S
C4220 C4208 1.349 . S
C4220 H4214 0.950 . S
C4220 C4221 1.327 . S
C4221 H4215 0.950 . S
C4221 C4220 1.327 . S
C4221 C4225 1.429 . S
C4222 C4205 1.574 . S
C4222 H4216 0.949 . S
C4222 C4226 1.368 . S
C4223 C4204 1.429 . S
C4223 C4217 1.429 . S
C4223 C4224 1.523 . S
C4224 C4205 1.368 . S
C4224 C4218 1.368 . S
C4224 C4223 1.523 . S
C4225 C4209 1.429 . S
C4225 C4221 1.429 . S
C4225 C4226 1.523 . S
C4226 C4210 1.368 . S
C4226 C4222 1.368 . S
C4226 C4225 1.523 . S
H4227 C4202 0.950 . S
H4228 C4204 0.950 . S
H4229 C4205 0.949 . S
H4230 C4207 0.950 . S
H4231 C4209 0.950 . S
C4232 C4233 1.349 . S
C4232 C4234 1.327 . S
C4232 H4257 0.950 . S
C4233 C4232 1.349 . S
C4233 C4249 1.349 . S
C4234 C4232 1.327 . S
C4234 C4253 1.429 . S
C4234 H4258 0.950 . S
C4235 C4252 1.574 . S
C4235 C4254 1.368 . S
C4235 H4259 0.949 . S
H4236 C4240 0.949 . S
C4237 C4238 1.349 . S
C4237 C4239 1.327 . S
C4237 H4260 0.950 . S
C4238 C4237 1.349 . S
C4238 C4250 1.349 . S
C4239 C4237 1.327 . S
C4239 C4255 1.429 . S
C4239 H4261 0.950 . S
C4240 H4236 0.949 . S
C4240 C4248 1.574 . S
C4240 C4256 1.368 . S
H4241 C4249 0.950 . S
H4242 C4247 0.950 . S
H4243 C4248 0.949 . S
H4244 C4250 0.950 . S
H4245 C4251 0.950 . S
H4246 C4252 0.949 . S
C4247 H4242 0.950 . S
C4247 C4249 1.327 . S
C4247 C4253 1.429 . S
C4248 C4240 1.574 . S
C4248 H4243 0.949 . S
C4248 C4254 1.368 . S
C4249 C4233 1.349 . S
C4249 H4241 0.950 . S
C4249 C4247 1.327 . S
C4250 C4238 1.349 . S
C4250 H4244 0.950 . S
C4250 C4251 1.327 . S
C4251 H4245 0.950 . S
C4251 C4250 1.327 . S
C4251 C4255 1.429 . S
C4252 C4235 1.574 . S
C4252 H4246 0.949 . S
C4252 C4256 1.368 . S
C4253 C4234 1.429 . S
C4253 C4247 1.429 . S
C4253 C4254 1.523 . S
C4254 C4235 1.368 . S
C4254 C4248 1.368 . S
C4254 C4253 1.523 . S
C4255 C4239 1.429 . S
C4255 C4251 1.429 . S
C4255 C4256 1.523 . S
C4256 C4240 1.368 . S
C4256 C4252 1.368 . S
C4256 C4255 1.523 . S
H4257 C4232 0.950 . S
H4258 C4234 0.950 . S
H4259 C4235 0.949 . S
H4260 C4237 0.950 . S
H4261 C4239 0.950 . S
C4262 C4263 1.349 . S
C4262 C4264 1.327 . S
C4262 H4287 0.950 . S
C4263 C4262 1.349 . S
C4263 C4279 1.349 . S
C4264 C4262 1.327 . S
C4264 C4283 1.429 . S
C4264 H4288 0.950 . S
C4265 C4282 1.574 . S
C4265 C4284 1.368 . S
C4265 H4289 0.949 . S
H4266 C4270 0.949 . S
C4267 C4268 1.349 . S
C4267 C4269 1.327 . S
C4267 H4290 0.950 . S
C4268 C4267 1.349 . S
C4268 C4280 1.349 . S
C4269 C4267 1.327 . S
C4269 C4285 1.429 . S
C4269 H4291 0.950 . S
C4270 H4266 0.949 . S
C4270 C4278 1.574 . S
C4270 C4286 1.368 . S
H4271 C4279 0.950 . S
H4272 C4277 0.950 . S
H4273 C4278 0.949 . S
H4274 C4280 0.950 . S
H4275 C4281 0.950 . S
H4276 C4282 0.949 . S
C4277 H4272 0.950 . S
C4277 C4279 1.327 . S
C4277 C4283 1.429 . S
C4278 C4270 1.574 . S
C4278 H4273 0.949 . S
C4278 C4284 1.368 . S
C4279 C4263 1.349 . S
C4279 H4271 0.950 . S
C4279 C4277 1.327 . S
C4280 C4268 1.349 . S
C4280 H4274 0.950 . S
C4280 C4281 1.327 . S
C4281 H4275 0.950 . S
C4281 C4280 1.327 . S
C4281 C4285 1.429 . S
C4282 C4265 1.574 . S
C4282 H4276 0.949 . S
C4282 C4286 1.368 . S
C4283 C4264 1.429 . S
C4283 C4277 1.429 . S
C4283 C4284 1.523 . S
C4284 C4265 1.368 . S
C4284 C4278 1.368 . S
C4284 C4283 1.523 . S
C4285 C4269 1.429 . S
C4285 C4281 1.429 . S
C4285 C4286 1.523 . S
C4286 C4270 1.368 . S
C4286 C4282 1.368 . S
C4286 C4285 1.523 . S
H4287 C4262 0.950 . S
H4288 C4264 0.950 . S
H4289 C4265 0.949 . S
H4290 C4267 0.950 . S
H4291 C4269 0.950 . S
C4292 C4293 1.349 . S
C4292 C4294 1.327 . S
C4292 H4317 0.950 . S
C4293 C4292 1.349 . S
C4293 C4309 1.349 . S
C4294 C4292 1.327 . S
C4294 C4313 1.429 . S
C4294 H4318 0.950 . S
C4295 C4312 1.574 . S
C4295 C4314 1.368 . S
C4295 H4319 0.949 . S
H4296 C4300 0.949 . S
C4297 C4298 1.349 . S
C4297 C4299 1.327 . S
C4297 H4320 0.950 . S
C4298 C4297 1.349 . S
C4298 C4310 1.349 . S
C4299 C4297 1.327 . S
C4299 C4315 1.429 . S
C4299 H4321 0.950 . S
C4300 H4296 0.949 . S
C4300 C4308 1.574 . S
C4300 C4316 1.368 . S
H4301 C4309 0.950 . S
H4302 C4307 0.950 . S
H4303 C4308 0.949 . S
H4304 C4310 0.950 . S
H4305 C4311 0.950 . S
H4306 C4312 0.949 . S
C4307 H4302 0.950 . S
C4307 C4309 1.327 . S
C4307 C4313 1.429 . S
C4308 C4300 1.574 . S
C4308 H4303 0.949 . S
C4308 C4314 1.368 . S
C4309 C4293 1.349 . S
C4309 H4301 0.950 . S
C4309 C4307 1.327 . S
C4310 C4298 1.349 . S
C4310 H4304 0.950 . S
C4310 C4311 1.327 . S
C4311 H4305 0.950 . S
C4311 C4310 1.327 . S
C4311 C4315 1.429 . S
C4312 C4295 1.574 . S
C4312 H4306 0.949 . S
C4312 C4316 1.368 . S
C4313 C4294 1.429 . S
C4313 C4307 1.429 . S
C4313 C4314 1.523 . S
C4314 C4295 1.368 . S
C4314 C4308 1.368 . S
C4314 C4313 1.523 . S
C4315 C4299 1.429 . S
C4315 C4311 1.429 . S
C4315 C4316 1.523 . S
C4316 C4300 1.368 . S
C4316 C4312 1.368 . S
C4316 C4315 1.523 . S
H4317 C4292 0.950 . S
H4318 C4294 0.950 . S
H4319 C4295 0.949 . S
H4320 C4297 0.950 . S
H4321 C4299 0.950 . S
C4322 C4323 1.349 . S
C4322 C4324 1.327 . S
C4322 H4347 0.950 . S
C4323 C4322 1.349 . S
C4323 C4339 1.349 . S
C4324 C4322 1.327 . S
C4324 C4343 1.429 . S
C4324 H4348 0.950 . S
C4325 C4342 1.574 . S
C4325 C4344 1.368 . S
C4325 H4349 0.949 . S
H4326 C4330 0.949 . S
C4327 C4328 1.349 . S
C4327 C4329 1.327 . S
C4327 H4350 0.950 . S
C4328 C4327 1.349 . S
C4328 C4340 1.349 . S
C4329 C4327 1.327 . S
C4329 C4345 1.429 . S
C4329 H4351 0.950 . S
C4330 H4326 0.949 . S
C4330 C4338 1.574 . S
C4330 C4346 1.368 . S
H4331 C4339 0.950 . S
H4332 C4337 0.950 . S
H4333 C4338 0.949 . S
H4334 C4340 0.950 . S
H4335 C4341 0.950 . S
H4336 C4342 0.949 . S
C4337 H4332 0.950 . S
C4337 C4339 1.327 . S
C4337 C4343 1.429 . S
C4338 C4330 1.574 . S
C4338 H4333 0.949 . S
C4338 C4344 1.368 . S
C4339 C4323 1.349 . S
C4339 H4331 0.950 . S
C4339 C4337 1.327 . S
C4340 C4328 1.349 . S
C4340 H4334 0.950 . S
C4340 C4341 1.327 . S
C4341 H4335 0.950 . S
C4341 C4340 1.327 . S
C4341 C4345 1.429 . S
C4342 C4325 1.574 . S
C4342 H4336 0.949 . S
C4342 C4346 1.368 . S
C4343 C4324 1.429 . S
C4343 C4337 1.429 . S
C4343 C4344 1.523 . S
C4344 C4325 1.368 . S
C4344 C4338 1.368 . S
C4344 C4343 1.523 . S
C4345 C4329 1.429 . S
C4345 C4341 1.429 . S
C4345 C4346 1.523 . S
C4346 C4330 1.368 . S
C4346 C4342 1.368 . S
C4346 C4345 1.523 . S
H4347 C4322 0.950 . S
H4348 C4324 0.950 . S
H4349 C4325 0.949 . S
H4350 C4327 0.950 . S
H4351 C4329 0.950 . S
C4352 C4353 1.349 . S
C4352 C4354 1.327 . S
C4352 H4377 0.950 . S
C4353 C4352 1.349 . S
C4353 C4369 1.349 . S
C4354 C4352 1.327 . S
C4354 C4373 1.429 . S
C4354 H4378 0.950 . S
C4355 C4372 1.574 . S
C4355 C4374 1.368 . S
C4355 H4379 0.949 . S
H4356 C4360 0.949 . S
C4357 C4358 1.349 . S
C4357 C4359 1.327 . S
C4357 H4380 0.950 . S
C4358 C4357 1.349 . S
C4358 C4370 1.349 . S
C4359 C4357 1.327 . S
C4359 C4375 1.429 . S
C4359 H4381 0.950 . S
C4360 H4356 0.949 . S
C4360 C4368 1.574 . S
C4360 C4376 1.368 . S
H4361 C4369 0.950 . S
H4362 C4367 0.950 . S
H4363 C4368 0.949 . S
H4364 C4370 0.950 . S
H4365 C4371 0.950 . S
H4366 C4372 0.949 . S
C4367 H4362 0.950 . S
C4367 C4369 1.327 . S
C4367 C4373 1.429 . S
C4368 C4360 1.574 . S
C4368 H4363 0.949 . S
C4368 C4374 1.368 . S
C4369 C4353 1.349 . S
C4369 H4361 0.950 . S
C4369 C4367 1.327 . S
C4370 C4358 1.349 . S
C4370 H4364 0.950 . S
C4370 C4371 1.327 . S
C4371 H4365 0.950 . S
C4371 C4370 1.327 . S
C4371 C4375 1.429 . S
C4372 C4355 1.574 . S
C4372 H4366 0.949 . S
C4372 C4376 1.368 . S
C4373 C4354 1.429 . S
C4373 C4367 1.429 . S
C4373 C4374 1.523 . S
C4374 C4355 1.368 . S
C4374 C4368 1.368 . S
C4374 C4373 1.523 . S
C4375 C4359 1.429 . S
C4375 C4371 1.429 . S
C4375 C4376 1.523 . S
C4376 C4360 1.368 . S
C4376 C4372 1.368 . S
C4376 C4375 1.523 . S
H4377 C4352 0.950 . S
H4378 C4354 0.950 . S
H4379 C4355 0.949 . S
H4380 C4357 0.950 . S
H4381 C4359 0.950 . S
C4382 C4383 1.349 . S
C4382 C4384 1.327 . S
C4382 H4407 0.950 . S
C4383 C4382 1.349 . S
C4383 C4399 1.349 . S
C4384 C4382 1.327 . S
C4384 C4403 1.429 . S
C4384 H4408 0.950 . S
C4385 C4402 1.574 . S
C4385 C4404 1.368 . S
C4385 H4409 0.949 . S
H4386 C4390 0.949 . S
C4387 C4388 1.349 . S
C4387 C4389 1.327 . S
C4387 H4410 0.950 . S
C4388 C4387 1.349 . S
C4388 C4400 1.349 . S
C4389 C4387 1.327 . S
C4389 C4405 1.429 . S
C4389 H4411 0.950 . S
C4390 H4386 0.949 . S
C4390 C4398 1.574 . S
C4390 C4406 1.368 . S
H4391 C4399 0.950 . S
H4392 C4397 0.950 . S
H4393 C4398 0.949 . S
H4394 C4400 0.950 . S
H4395 C4401 0.950 . S
H4396 C4402 0.949 . S
C4397 H4392 0.950 . S
C4397 C4399 1.327 . S
C4397 C4403 1.429 . S
C4398 C4390 1.574 . S
C4398 H4393 0.949 . S
C4398 C4404 1.368 . S
C4399 C4383 1.349 . S
C4399 H4391 0.950 . S
C4399 C4397 1.327 . S
C4400 C4388 1.349 . S
C4400 H4394 0.950 . S
C4400 C4401 1.327 . S
C4401 H4395 0.950 . S
C4401 C4400 1.327 . S
C4401 C4405 1.429 . S
C4402 C4385 1.574 . S
C4402 H4396 0.949 . S
C4402 C4406 1.368 . S
C4403 C4384 1.429 . S
C4403 C4397 1.429 . S
C4403 C4404 1.523 . S
C4404 C4385 1.368 . S
C4404 C4398 1.368 . S
C4404 C4403 1.523 . S
C4405 C4389 1.429 . S
C4405 C4401 1.429 . S
C4405 C4406 1.523 . S
C4406 C4390 1.368 . S
C4406 C4402 1.368 . S
C4406 C4405 1.523 . S
H4407 C4382 0.950 . S
H4408 C4384 0.950 . S
H4409 C4385 0.949 . S
H4410 C4387 0.950 . S
H4411 C4389 0.950 . S
C4412 C4413 1.349 . S
C4412 C4414 1.327 . S
C4412 H4437 0.950 . S
C4413 C4412 1.349 . S
C4413 C4429 1.349 . S
C4414 C4412 1.327 . S
C4414 C4433 1.429 . S
C4414 H4438 0.950 . S
C4415 C4432 1.574 . S
C4415 C4434 1.368 . S
C4415 H4439 0.949 . S
H4416 C4420 0.949 . S
C4417 C4418 1.349 . S
C4417 C4419 1.327 . S
C4417 H4440 0.950 . S
C4418 C4417 1.349 . S
C4418 C4430 1.349 . S
C4419 C4417 1.327 . S
C4419 C4435 1.429 . S
C4419 H4441 0.950 . S
C4420 H4416 0.949 . S
C4420 C4428 1.574 . S
C4420 C4436 1.368 . S
H4421 C4429 0.950 . S
H4422 C4427 0.950 . S
H4423 C4428 0.949 . S
H4424 C4430 0.950 . S
H4425 C4431 0.950 . S
H4426 C4432 0.949 . S
C4427 H4422 0.950 . S
C4427 C4429 1.327 . S
C4427 C4433 1.429 . S
C4428 C4420 1.574 . S
C4428 H4423 0.949 . S
C4428 C4434 1.368 . S
C4429 C4413 1.349 . S
C4429 H4421 0.950 . S
C4429 C4427 1.327 . S
C4430 C4418 1.349 . S
C4430 H4424 0.950 . S
C4430 C4431 1.327 . S
C4431 H4425 0.950 . S
C4431 C4430 1.327 . S
C4431 C4435 1.429 . S
C4432 C4415 1.574 . S
C4432 H4426 0.949 . S
C4432 C4436 1.368 . S
C4433 C4414 1.429 . S
C4433 C4427 1.429 . S
C4433 C4434 1.523 . S
C4434 C4415 1.368 . S
C4434 C4428 1.368 . S
C4434 C4433 1.523 . S
C4435 C4419 1.429 . S
C4435 C4431 1.429 . S
C4435 C4436 1.523 . S
C4436 C4420 1.368 . S
C4436 C4432 1.368 . S
C4436 C4435 1.523 . S
H4437 C4412 0.950 . S
H4438 C4414 0.950 . S
H4439 C4415 0.949 . S
H4440 C4417 0.950 . S
H4441 C4419 0.950 . S
C4442 C4443 1.349 . S
C4442 C4444 1.327 . S
C4442 H4467 0.950 . S
C4443 C4442 1.349 . S
C4443 C4459 1.349 . S
C4444 C4442 1.327 . S
C4444 C4463 1.429 . S
C4444 H4468 0.950 . S
C4445 C4462 1.574 . S
C4445 C4464 1.368 . S
C4445 H4469 0.949 . S
H4446 C4450 0.949 . S
C4447 C4448 1.349 . S
C4447 C4449 1.327 . S
C4447 H4470 0.950 . S
C4448 C4447 1.349 . S
C4448 C4460 1.349 . S
C4449 C4447 1.327 . S
C4449 C4465 1.429 . S
C4449 H4471 0.950 . S
C4450 H4446 0.949 . S
C4450 C4458 1.574 . S
C4450 C4466 1.368 . S
H4451 C4459 0.950 . S
H4452 C4457 0.950 . S
H4453 C4458 0.949 . S
H4454 C4460 0.950 . S
H4455 C4461 0.950 . S
H4456 C4462 0.949 . S
C4457 H4452 0.950 . S
C4457 C4459 1.327 . S
C4457 C4463 1.429 . S
C4458 C4450 1.574 . S
C4458 H4453 0.949 . S
C4458 C4464 1.368 . S
C4459 C4443 1.349 . S
C4459 H4451 0.950 . S
C4459 C4457 1.327 . S
C4460 C4448 1.349 . S
C4460 H4454 0.950 . S
C4460 C4461 1.327 . S
C4461 H4455 0.950 . S
C4461 C4460 1.327 . S
C4461 C4465 1.429 . S
C4462 C4445 1.574 . S
C4462 H4456 0.949 . S
C4462 C4466 1.368 . S
C4463 C4444 1.429 . S
C4463 C4457 1.429 . S
C4463 C4464 1.523 . S
C4464 C4445 1.368 . S
C4464 C4458 1.368 . S
C4464 C4463 1.523 . S
C4465 C4449 1.429 . S
C4465 C4461 1.429 . S
C4465 C4466 1.523 . S
C4466 C4450 1.368 . S
C4466 C4462 1.368 . S
C4466 C4465 1.523 . S
H4467 C4442 0.950 . S
H4468 C4444 0.950 . S
H4469 C4445 0.949 . S
H4470 C4447 0.950 . S
H4471 C4449 0.950 . S
C4472 C4473 1.349 . S
C4472 C4474 1.327 . S
C4472 H4497 0.950 . S
C4473 C4472 1.349 . S
C4473 C4489 1.349 . S
C4474 C4472 1.327 . S
C4474 C4493 1.429 . S
C4474 H4498 0.950 . S
C4475 C4492 1.574 . S
C4475 C4494 1.368 . S
C4475 H4499 0.949 . S
H4476 C4480 0.949 . S
C4477 C4478 1.349 . S
C4477 C4479 1.327 . S
C4477 H4500 0.950 . S
C4478 C4477 1.349 . S
C4478 C4490 1.349 . S
C4479 C4477 1.327 . S
C4479 C4495 1.429 . S
C4479 H4501 0.950 . S
C4480 H4476 0.949 . S
C4480 C4488 1.574 . S
C4480 C4496 1.368 . S
H4481 C4489 0.950 . S
H4482 C4487 0.950 . S
H4483 C4488 0.949 . S
H4484 C4490 0.950 . S
H4485 C4491 0.950 . S
H4486 C4492 0.949 . S
C4487 H4482 0.950 . S
C4487 C4489 1.327 . S
C4487 C4493 1.429 . S
C4488 C4480 1.574 . S
C4488 H4483 0.949 . S
C4488 C4494 1.368 . S
C4489 C4473 1.349 . S
C4489 H4481 0.950 . S
C4489 C4487 1.327 . S
C4490 C4478 1.349 . S
C4490 H4484 0.950 . S
C4490 C4491 1.327 . S
C4491 H4485 0.950 . S
C4491 C4490 1.327 . S
C4491 C4495 1.429 . S
C4492 C4475 1.574 . S
C4492 H4486 0.949 . S
C4492 C4496 1.368 . S
C4493 C4474 1.429 . S
C4493 C4487 1.429 . S
C4493 C4494 1.523 . S
C4494 C4475 1.368 . S
C4494 C4488 1.368 . S
C4494 C4493 1.523 . S
C4495 C4479 1.429 . S
C4495 C4491 1.429 . S
C4495 C4496 1.523 . S
C4496 C4480 1.368 . S
C4496 C4492 1.368 . S
C4496 C4495 1.523 . S
H4497 C4472 0.950 . S
H4498 C4474 0.950 . S
H4499 C4475 0.949 . S
H4500 C4477 0.950 . S
H4501 C4479 0.950 . S
C4502 C4503 1.349 . S
C4502 C4504 1.327 . S
C4502 H4527 0.950 . S
C4503 C4502 1.349 . S
C4503 C4519 1.349 . S
C4504 C4502 1.327 . S
C4504 C4523 1.429 . S
C4504 H4528 0.950 . S
C4505 C4522 1.574 . S
C4505 C4524 1.368 . S
C4505 H4529 0.949 . S
H4506 C4510 0.949 . S
C4507 C4508 1.349 . S
C4507 C4509 1.327 . S
C4507 H4530 0.950 . S
C4508 C4507 1.349 . S
C4508 C4520 1.349 . S
C4509 C4507 1.327 . S
C4509 C4525 1.429 . S
C4509 H4531 0.950 . S
C4510 H4506 0.949 . S
C4510 C4518 1.574 . S
C4510 C4526 1.368 . S
H4511 C4519 0.950 . S
H4512 C4517 0.950 . S
H4513 C4518 0.949 . S
H4514 C4520 0.950 . S
H4515 C4521 0.950 . S
H4516 C4522 0.949 . S
C4517 H4512 0.950 . S
C4517 C4519 1.327 . S
C4517 C4523 1.429 . S
C4518 C4510 1.574 . S
C4518 H4513 0.949 . S
C4518 C4524 1.368 . S
C4519 C4503 1.349 . S
C4519 H4511 0.950 . S
C4519 C4517 1.327 . S
C4520 C4508 1.349 . S
C4520 H4514 0.950 . S
C4520 C4521 1.327 . S
C4521 H4515 0.950 . S
C4521 C4520 1.327 . S
C4521 C4525 1.429 . S
C4522 C4505 1.574 . S
C4522 H4516 0.949 . S
C4522 C4526 1.368 . S
C4523 C4504 1.429 . S
C4523 C4517 1.429 . S
C4523 C4524 1.523 . S
C4524 C4505 1.368 . S
C4524 C4518 1.368 . S
C4524 C4523 1.523 . S
C4525 C4509 1.429 . S
C4525 C4521 1.429 . S
C4525 C4526 1.523 . S
C4526 C4510 1.368 . S
C4526 C4522 1.368 . S
C4526 C4525 1.523 . S
H4527 C4502 0.950 . S
H4528 C4504 0.950 . S
H4529 C4505 0.949 . S
H4530 C4507 0.950 . S
H4531 C4509 0.950 . S
C4532 C4533 1.349 . S
C4532 C4534 1.327 . S
C4532 H4557 0.950 . S
C4533 C4532 1.349 . S
C4533 C4549 1.349 . S
C4534 C4532 1.327 . S
C4534 C4553 1.429 . S
C4534 H4558 0.950 . S
C4535 C4552 1.574 . S
C4535 C4554 1.368 . S
C4535 H4559 0.949 . S
H4536 C4540 0.949 . S
C4537 C4538 1.349 . S
C4537 C4539 1.327 . S
C4537 H4560 0.950 . S
C4538 C4537 1.349 . S
C4538 C4550 1.349 . S
C4539 C4537 1.327 . S
C4539 C4555 1.429 . S
C4539 H4561 0.950 . S
C4540 H4536 0.949 . S
C4540 C4548 1.574 . S
C4540 C4556 1.368 . S
H4541 C4549 0.950 . S
H4542 C4547 0.950 . S
H4543 C4548 0.949 . S
H4544 C4550 0.950 . S
H4545 C4551 0.950 . S
H4546 C4552 0.949 . S
C4547 H4542 0.950 . S
C4547 C4549 1.327 . S
C4547 C4553 1.429 . S
C4548 C4540 1.574 . S
C4548 H4543 0.949 . S
C4548 C4554 1.368 . S
C4549 C4533 1.349 . S
C4549 H4541 0.950 . S
C4549 C4547 1.327 . S
C4550 C4538 1.349 . S
C4550 H4544 0.950 . S
C4550 C4551 1.327 . S
C4551 H4545 0.950 . S
C4551 C4550 1.327 . S
C4551 C4555 1.429 . S
C4552 C4535 1.574 . S
C4552 H4546 0.949 . S
C4552 C4556 1.368 . S
C4553 C4534 1.429 . S
C4553 C4547 1.429 . S
C4553 C4554 1.523 . S
C4554 C4535 1.368 . S
C4554 C4548 1.368 . S
C4554 C4553 1.523 . S
C4555 C4539 1.429 . S
C4555 C4551 1.429 . S
C4555 C4556 1.523 . S
C4556 C4540 1.368 . S
C4556 C4552 1.368 . S
C4556 C4555 1.523 . S
H4557 C4532 0.950 . S
H4558 C4534 0.950 . S
H4559 C4535 0.949 . S
H4560 C4537 0.950 . S
H4561 C4539 0.950 . S
C4562 C4563 1.349 . S
C4562 C4564 1.327 . S
C4562 H4587 0.950 . S
C4563 C4562 1.349 . S
C4563 C4579 1.349 . S
C4564 C4562 1.327 . S
C4564 C4583 1.429 . S
C4564 H4588 0.950 . S
C4565 C4582 1.574 . S
C4565 C4584 1.368 . S
C4565 H4589 0.949 . S
H4566 C4570 0.949 . S
C4567 C4568 1.349 . S
C4567 C4569 1.327 . S
C4567 H4590 0.950 . S
C4568 C4567 1.349 . S
C4568 C4580 1.349 . S
C4569 C4567 1.327 . S
C4569 C4585 1.429 . S
C4569 H4591 0.950 . S
C4570 H4566 0.949 . S
C4570 C4578 1.574 . S
C4570 C4586 1.368 . S
H4571 C4579 0.950 . S
H4572 C4577 0.950 . S
H4573 C4578 0.949 . S
H4574 C4580 0.950 . S
H4575 C4581 0.950 . S
H4576 C4582 0.949 . S
C4577 H4572 0.950 . S
C4577 C4579 1.327 . S
C4577 C4583 1.429 . S
C4578 C4570 1.574 . S
C4578 H4573 0.949 . S
C4578 C4584 1.368 . S
C4579 C4563 1.349 . S
C4579 H4571 0.950 . S
C4579 C4577 1.327 . S
C4580 C4568 1.349 . S
C4580 H4574 0.950 . S
C4580 C4581 1.327 . S
C4581 H4575 0.950 . S
C4581 C4580 1.327 . S
C4581 C4585 1.429 . S
C4582 C4565 1.574 . S
C4582 H4576 0.949 . S
C4582 C4586 1.368 . S
C4583 C4564 1.429 . S
C4583 C4577 1.429 . S
C4583 C4584 1.523 . S
C4584 C4565 1.368 . S
C4584 C4578 1.368 . S
C4584 C4583 1.523 . S
C4585 C4569 1.429 . S
C4585 C4581 1.429 . S
C4585 C4586 1.523 . S
C4586 C4570 1.368 . S
C4586 C4582 1.368 . S
C4586 C4585 1.523 . S
H4587 C4562 0.950 . S
H4588 C4564 0.950 . S
H4589 C4565 0.949 . S
H4590 C4567 0.950 . S
H4591 C4569 0.950 . S
C4592 C4593 1.349 . S
C4592 C4594 1.327 . S
C4592 H4617 0.950 . S
C4593 C4592 1.349 . S
C4593 C4609 1.349 . S
C4594 C4592 1.327 . S
C4594 C4613 1.429 . S
C4594 H4618 0.950 . S
C4595 C4612 1.574 . S
C4595 C4614 1.368 . S
C4595 H4619 0.949 . S
H4596 C4600 0.949 . S
C4597 C4598 1.349 . S
C4597 C4599 1.327 . S
C4597 H4620 0.950 . S
C4598 C4597 1.349 . S
C4598 C4610 1.349 . S
C4599 C4597 1.327 . S
C4599 C4615 1.429 . S
C4599 H4621 0.950 . S
C4600 H4596 0.949 . S
C4600 C4608 1.574 . S
C4600 C4616 1.368 . S
H4601 C4609 0.950 . S
H4602 C4607 0.950 . S
H4603 C4608 0.949 . S
H4604 C4610 0.950 . S
H4605 C4611 0.950 . S
H4606 C4612 0.949 . S
C4607 H4602 0.950 . S
C4607 C4609 1.327 . S
C4607 C4613 1.429 . S
C4608 C4600 1.574 . S
C4608 H4603 0.949 . S
C4608 C4614 1.368 . S
C4609 C4593 1.349 . S
C4609 H4601 0.950 . S
C4609 C4607 1.327 . S
C4610 C4598 1.349 . S
C4610 H4604 0.950 . S
C4610 C4611 1.327 . S
C4611 H4605 0.950 . S
C4611 C4610 1.327 . S
C4611 C4615 1.429 . S
C4612 C4595 1.574 . S
C4612 H4606 0.949 . S
C4612 C4616 1.368 . S
C4613 C4594 1.429 . S
C4613 C4607 1.429 . S
C4613 C4614 1.523 . S
C4614 C4595 1.368 . S
C4614 C4608 1.368 . S
C4614 C4613 1.523 . S
C4615 C4599 1.429 . S
C4615 C4611 1.429 . S
C4615 C4616 1.523 . S
C4616 C4600 1.368 . S
C4616 C4612 1.368 . S
C4616 C4615 1.523 . S
H4617 C4592 0.950 . S
H4618 C4594 0.950 . S
H4619 C4595 0.949 . S
H4620 C4597 0.950 . S
H4621 C4599 0.950 . S
C4622 C4623 1.349 . S
C4622 C4624 1.327 . S
C4622 H4647 0.950 . S
C4623 C4622 1.349 . S
C4623 C4639 1.349 . S
C4624 C4622 1.327 . S
C4624 C4643 1.429 . S
C4624 H4648 0.950 . S
C4625 C4642 1.574 . S
C4625 C4644 1.368 . S
C4625 H4649 0.949 . S
H4626 C4630 0.949 . S
C4627 C4628 1.349 . S
C4627 C4629 1.327 . S
C4627 H4650 0.950 . S
C4628 C4627 1.349 . S
C4628 C4640 1.349 . S
C4629 C4627 1.327 . S
C4629 C4645 1.429 . S
C4629 H4651 0.950 . S
C4630 H4626 0.949 . S
C4630 C4638 1.574 . S
C4630 C4646 1.368 . S
H4631 C4639 0.950 . S
H4632 C4637 0.950 . S
H4633 C4638 0.949 . S
H4634 C4640 0.950 . S
H4635 C4641 0.950 . S
H4636 C4642 0.949 . S
C4637 H4632 0.950 . S
C4637 C4639 1.327 . S
C4637 C4643 1.429 . S
C4638 C4630 1.574 . S
C4638 H4633 0.949 . S
C4638 C4644 1.368 . S
C4639 C4623 1.349 . S
C4639 H4631 0.950 . S
C4639 C4637 1.327 . S
C4640 C4628 1.349 . S
C4640 H4634 0.950 . S
C4640 C4641 1.327 . S
C4641 H4635 0.950 . S
C4641 C4640 1.327 . S
C4641 C4645 1.429 . S
C4642 C4625 1.574 . S
C4642 H4636 0.949 . S
C4642 C4646 1.368 . S
C4643 C4624 1.429 . S
C4643 C4637 1.429 . S
C4643 C4644 1.523 . S
C4644 C4625 1.368 . S
C4644 C4638 1.368 . S
C4644 C4643 1.523 . S
C4645 C4629 1.429 . S
C4645 C4641 1.429 . S
C4645 C4646 1.523 . S
C4646 C4630 1.368 . S
C4646 C4642 1.368 . S
C4646 C4645 1.523 . S
H4647 C4622 0.950 . S
H4648 C4624 0.950 . S
H4649 C4625 0.949 . S
H4650 C4627 0.950 . S
H4651 C4629 0.950 . S
C4652 C4653 1.349 . S
C4652 C4654 1.327 . S
C4652 H4677 0.950 . S
C4653 C4652 1.349 . S
C4653 C4669 1.349 . S
C4654 C4652 1.327 . S
C4654 C4673 1.429 . S
C4654 H4678 0.950 . S
C4655 C4672 1.574 . S
C4655 C4674 1.368 . S
C4655 H4679 0.949 . S
H4656 C4660 0.949 . S
C4657 C4658 1.349 . S
C4657 C4659 1.327 . S
C4657 H4680 0.950 . S
C4658 C4657 1.349 . S
C4658 C4670 1.349 . S
C4659 C4657 1.327 . S
C4659 C4675 1.429 . S
C4659 H4681 0.950 . S
C4660 H4656 0.949 . S
C4660 C4668 1.574 . S
C4660 C4676 1.368 . S
H4661 C4669 0.950 . S
H4662 C4667 0.950 . S
H4663 C4668 0.949 . S
H4664 C4670 0.950 . S
H4665 C4671 0.950 . S
H4666 C4672 0.949 . S
C4667 H4662 0.950 . S
C4667 C4669 1.327 . S
C4667 C4673 1.429 . S
C4668 C4660 1.574 . S
C4668 H4663 0.949 . S
C4668 C4674 1.368 . S
C4669 C4653 1.349 . S
C4669 H4661 0.950 . S
C4669 C4667 1.327 . S
C4670 C4658 1.349 . S
C4670 H4664 0.950 . S
C4670 C4671 1.327 . S
C4671 H4665 0.950 . S
C4671 C4670 1.327 . S
C4671 C4675 1.429 . S
C4672 C4655 1.574 . S
C4672 H4666 0.949 . S
C4672 C4676 1.368 . S
C4673 C4654 1.429 . S
C4673 C4667 1.429 . S
C4673 C4674 1.523 . S
C4674 C4655 1.368 . S
C4674 C4668 1.368 . S
C4674 C4673 1.523 . S
C4675 C4659 1.429 . S
C4675 C4671 1.429 . S
C4675 C4676 1.523 . S
C4676 C4660 1.368 . S
C4676 C4672 1.368 . S
C4676 C4675 1.523 . S
H4677 C4652 0.950 . S
H4678 C4654 0.950 . S
H4679 C4655 0.949 . S
H4680 C4657 0.950 . S
H4681 C4659 0.950 . S
C4682 C4683 1.349 . S
C4682 C4684 1.327 . S
C4682 H4707 0.950 . S
C4683 C4682 1.349 . S
C4683 C4699 1.349 . S
C4684 C4682 1.327 . S
C4684 C4703 1.429 . S
C4684 H4708 0.950 . S
C4685 C4702 1.574 . S
C4685 C4704 1.368 . S
C4685 H4709 0.949 . S
H4686 C4690 0.949 . S
C4687 C4688 1.349 . S
C4687 C4689 1.327 . S
C4687 H4710 0.950 . S
C4688 C4687 1.349 . S
C4688 C4700 1.349 . S
C4689 C4687 1.327 . S
C4689 C4705 1.429 . S
C4689 H4711 0.950 . S
C4690 H4686 0.949 . S
C4690 C4698 1.574 . S
C4690 C4706 1.368 . S
H4691 C4699 0.950 . S
H4692 C4697 0.950 . S
H4693 C4698 0.949 . S
H4694 C4700 0.950 . S
H4695 C4701 0.950 . S
H4696 C4702 0.949 . S
C4697 H4692 0.950 . S
C4697 C4699 1.327 . S
C4697 C4703 1.429 . S
C4698 C4690 1.574 . S
C4698 H4693 0.949 . S
C4698 C4704 1.368 . S
C4699 C4683 1.349 . S
C4699 H4691 0.950 . S
C4699 C4697 1.327 . S
C4700 C4688 1.349 . S
C4700 H4694 0.950 . S
C4700 C4701 1.327 . S
C4701 H4695 0.950 . S
C4701 C4700 1.327 . S
C4701 C4705 1.429 . S
C4702 C4685 1.574 . S
C4702 H4696 0.949 . S
C4702 C4706 1.368 . S
C4703 C4684 1.429 . S
C4703 C4697 1.429 . S
C4703 C4704 1.523 . S
C4704 C4685 1.368 . S
C4704 C4698 1.368 . S
C4704 C4703 1.523 . S
C4705 C4689 1.429 . S
C4705 C4701 1.429 . S
C4705 C4706 1.523 . S
C4706 C4690 1.368 . S
C4706 C4702 1.368 . S
C4706 C4705 1.523 . S
H4707 C4682 0.950 . S
H4708 C4684 0.950 . S
H4709 C4685 0.949 . S
H4710 C4687 0.950 . S
H4711 C4689 0.950 . S
C1838 N1292 1.500 . S
C1833 C21 1.538 . S
C1868 C1319 1.515 . S
C1863 C42 1.502 . S
C1893 C82 1.534 . S
C1898 C1333 1.530 . S
C1928 N1351 1.433 . S
C1923 C135 1.474 . S
C1953 C175 1.484 . S
C1958 C1356 1.483 . S
C1983 C221 1.525 . S
C1988 C1296 1.526 . S
C2013 C255 1.395 . S
C2018 N1315 1.363 . S
C2048 N1328 1.513 . S
C2043 C301 1.542 . S
C2078 N1374 1.419 . S
C2073 C15 1.458 . S
C2103 C55 1.466 . S
C2108 N1397 1.435 . S
C2133 C101 1.600 . S
C2138 N1420 1.579 . S
C2168 N1453 1.426 . S
C2163 C141 1.456 . S
C2193 C162 1.480 . S
C2198 C1480 1.477 . S
C2228 C1503 1.567 . S
C2223 C215 1.572 . S
C2253 C261 1.472 . S
C2258 C1526 1.485 . S
C2288 C1540 1.459 . S
C2283 C282 1.439 . S
C2313 C2 1.455 . S
C2318 C1457 1.452 . S
C2343 C181 1.419 . S
C2348 N1499 1.393 . S
C2378 N1522 1.475 . S
C2373 C202 1.506 . S
C2403 C242 1.455 . S
C2408 N1535 1.437 . S
C2438 N1476 1.426 . S
C2433 C295 1.467 . S
C2468 C1402 1.689 . S
C2463 C95 1.691 . S
C2493 C122 1.494 . S
C2498 C1425 1.502 . S
C2528 C1379 1.519 . S
C2523 C61 1.505 . S
C2558 C1572 1.499 . S
C2553 C341 1.501 . S
C2583 C362 1.514 . S
C2588 C1586 1.532 . S
C2613 C402 1.524 . S
C2618 N1614 1.489 . S
C2648 N1627 1.421 . S
C2643 C455 1.462 . S
C2673 C495 1.499 . S
C2678 C1632 1.498 . S
C2703 C541 1.512 . S
C2708 N1568 1.475 . S
C2733 C575 1.490 . S
C2738 N1581 1.453 . S
C2763 C621 1.487 . S
C2768 C1618 1.498 . S
C2798 N1466 1.425 . S
C2793 C335 1.460 . S
C2823 C375 1.460 . S
C2828 N1650 1.420 . S
C2858 N1512 1.492 . S
C2853 C421 1.525 . S
C2883 C461 1.489 . S
C2888 C1687 1.502 . S
C2913 C482 1.504 . S
C2918 C1388 1.506 . S
C2948 C1701 1.606 . S
C2943 C535 1.607 . S
C2973 C581 1.530 . S
C2978 C1434 1.549 . S
C3008 N1719 1.416 . S
C3003 C602 1.434 . S
C3033 C322 1.486 . S
C3038 N1683 1.455 . S
C3068 N1696 1.422 . S
C3063 C501 1.454 . S
C3093 C522 1.508 . S
C3098 N1430 1.465 . S
C3128 C1724 1.447 . S
C3123 C562 1.430 . S
C3153 C615 1.437 . S
C3158 N1384 1.400 . S
C3183 C415 1.589 . S
C3188 C1655 1.587 . S
C3213 C442 1.529 . S
C3218 C1517 1.546 . S
C3243 C381 1.524 . S
C3248 C1471 1.540 . S
C3273 C661 1.565 . S
C3278 C1609 1.569 . S
C3308 C1641 1.466 . S
C3303 C682 1.456 . S
C3333 C722 1.492 . S
C3338 N1558 1.460 . S
C3363 C775 1.438 . S
C3368 N1591 1.402 . S
C3393 C815 1.499 . S
C3398 C1595 1.493 . S
C3423 C861 1.590 . S
C3428 N1604 1.556 . S
C3458 N1637 1.350 . S
C3453 C895 1.384 . S
C3483 C941 1.550 . S
C3488 C1563 1.567 . S
C3518 N1752 1.444 . S
C3513 C655 1.485 . S
C3543 C695 1.405 . S
C3548 N1489 1.371 . S
C3578 N1775 1.423 . S
C3573 C741 1.463 . S
C3603 C781 1.454 . S
C3608 N1545 1.433 . S
C3633 C802 1.480 . S
C3638 C1793 1.489 . S
C3663 C855 1.673 . S
C3668 C1411 1.666 . S
C3698 N1811 1.394 . S
C3693 C901 1.414 . S
C3723 C922 1.489 . S
C3728 C1448 1.516 . S
C3758 C1549 1.512 . S
C3753 C642 1.506 . S
C3788 N1407 1.426 . S
C3783 C821 1.460 . S
C3813 C842 1.612 . S
C3818 C1816 1.618 . S
C3843 C882 1.392 . S
C3848 N1443 1.363 . S
C3878 N1788 1.480 . S
C3873 C935 1.513 . S
C3908 C1494 1.584 . S
C3903 C735 1.586 . S
C3938 C1779 1.533 . S
C3933 C762 1.521 . S
C3968 C1756 1.484 . S
C3963 C701 1.477 . S
C3993 C981 1.449 . S
C3998 N1338 1.405 . S
C4023 C1002 1.464 . S
C4028 C1365 1.473 . S
C4058 C1287 1.566 . S
C4053 C1042 1.558 . S
C4088 N1305 1.367 . S
C4083 C1095 1.406 . S
C4118 C1310 1.501 . S
C4113 C1135 1.504 . S
C4148 C1342 1.518 . S
C4143 C1181 1.524 . S
C4178 N1361 1.461 . S
C4173 C1215 1.497 . S
C4203 C1261 1.551 . S
C4208 N1282 1.538 . S
C4233 C975 1.394 . S
C4238 N1798 1.356 . S
C4268 N1706 1.389 . S
C4263 C1015 1.421 . S
C4298 C1825 1.623 . S
C4293 C1061 1.621 . S
C4328 C1733 1.382 . S
C4323 C1101 1.372 . S
C4353 C1122 1.519 . S
C4358 C1747 1.526 . S
C4388 C1664 1.594 . S
C4383 C1175 1.600 . S
C4418 C1770 1.638 . S
C4413 C1221 1.622 . S
C4443 C1242 1.485 . S
C4448 N1673 1.469 . S
C4478 N1729 1.376 . S
C4473 C962 1.404 . S
C4508 N1660 1.402 . S
C4503 C1141 1.427 . S
C4538 N1765 1.434 . S
C4533 C1162 1.460 . S
C4563 C1202 1.491 . S
C4568 C1678 1.511 . S
C4593 C1255 1.457 . S
C4598 N1742 1.423 . S
C4623 C1055 1.681 . S
C4628 C1710 1.673 . S
C4653 C1082 1.418 . S
C4658 N1821 1.400 . S
C4688 C1802 1.462 . S
C4683 C1021 1.455 . S
