# Generated by pormake.
# Topology ocu, (6,8)-cn, num edge types: 1
# Building blocks:
#     Node 0, Type 0, BuildingBlock: KUMBOL_clean_sbu_0, # of connection points: 6
#     Node 1, Type 0, BuildingBlock: KUMBOL_clean_sbu_0, # of connection points: 6
#     Node 2, Type 0, BuildingBlock: KUMBOL_clean_sbu_0, # of connection points: 6
#     Node 3, Type 0, BuildingBlock: KUMBOL_clean_sbu_0, # of connection points: 6
#     Node 4, Type 0, BuildingBlock: KUMBOL_clean_sbu_0, # of connection points: 6
#     Node 5, Type 0, BuildingBlock: KUMBOL_clean_sbu_0, # of connection points: 6
#     Node 6, Type 0, BuildingBlock: KUMBOL_clean_sbu_0, # of connection points: 6
#     Node 7, Type 0, BuildingBlock: KUMBOL_clean_sbu_0, # of connection points: 6
#     Node 8, Type 1, BuildingBlock: VETTIZ_charged_sbu_0, # of connection points: 8
#     Node 9, Type 1, BuildingBlock: VETTIZ_charged_sbu_0, # of connection points: 8
#     Node 10, Type 1, BuildingBlock: VETTIZ_charged_sbu_0, # of connection points: 8
#     Node 11, Type 1, BuildingBlock: VETTIZ_charged_sbu_0, # of connection points: 8
#     Node 12, Type 1, BuildingBlock: VETTIZ_charged_sbu_0, # of connection points: 8
#     Node 13, Type 1, BuildingBlock: VETTIZ_charged_sbu_0, # of connection points: 8
#     Edge 14, Type (0, 1), BuildingBlock: UVAHIK_clean_linker_0, # of connection points: 2
#     Edge 15, Type (0, 1), BuildingBlock: UVAHIK_clean_linker_0, # of connection points: 2
#     Edge 16, Type (0, 1), BuildingBlock: UVAHIK_clean_linker_0, # of connection points: 2
#     Edge 17, Type (0, 1), BuildingBlock: UVAHIK_clean_linker_0, # of connection points: 2
#     Edge 18, Type (0, 1), BuildingBlock: UVAHIK_clean_linker_0, # of connection points: 2
#     Edge 19, Type (0, 1), BuildingBlock: UVAHIK_clean_linker_0, # of connection points: 2
#     Edge 20, Type (0, 1), BuildingBlock: UVAHIK_clean_linker_0, # of connection points: 2
#     Edge 21, Type (0, 1), BuildingBlock: UVAHIK_clean_linker_0, # of connection points: 2
#     Edge 22, Type (0, 1), BuildingBlock: UVAHIK_clean_linker_0, # of connection points: 2
#     Edge 23, Type (0, 1), BuildingBlock: UVAHIK_clean_linker_0, # of connection points: 2
#     Edge 24, Type (0, 1), BuildingBlock: UVAHIK_clean_linker_0, # of connection points: 2
#     Edge 25, Type (0, 1), BuildingBlock: UVAHIK_clean_linker_0, # of connection points: 2
#     Edge 26, Type (0, 1), BuildingBlock: UVAHIK_clean_linker_0, # of connection points: 2
#     Edge 27, Type (0, 1), BuildingBlock: UVAHIK_clean_linker_0, # of connection points: 2
#     Edge 28, Type (0, 1), BuildingBlock: UVAHIK_clean_linker_0, # of connection points: 2
#     Edge 29, Type (0, 1), BuildingBlock: UVAHIK_clean_linker_0, # of connection points: 2
#     Edge 30, Type (0, 1), BuildingBlock: UVAHIK_clean_linker_0, # of connection points: 2
#     Edge 31, Type (0, 1), BuildingBlock: UVAHIK_clean_linker_0, # of connection points: 2
#     Edge 32, Type (0, 1), BuildingBlock: UVAHIK_clean_linker_0, # of connection points: 2
#     Edge 33, Type (0, 1), BuildingBlock: UVAHIK_clean_linker_0, # of connection points: 2
#     Edge 34, Type (0, 1), BuildingBlock: UVAHIK_clean_linker_0, # of connection points: 2
#     Edge 35, Type (0, 1), BuildingBlock: UVAHIK_clean_linker_0, # of connection points: 2
#     Edge 36, Type (0, 1), BuildingBlock: UVAHIK_clean_linker_0, # of connection points: 2
#     Edge 37, Type (0, 1), BuildingBlock: UVAHIK_clean_linker_0, # of connection points: 2
#     Edge 38, Type (0, 1), BuildingBlock: UVAHIK_clean_linker_0, # of connection points: 2
#     Edge 39, Type (0, 1), BuildingBlock: UVAHIK_clean_linker_0, # of connection points: 2
#     Edge 40, Type (0, 1), BuildingBlock: UVAHIK_clean_linker_0, # of connection points: 2
#     Edge 41, Type (0, 1), BuildingBlock: UVAHIK_clean_linker_0, # of connection points: 2
#     Edge 42, Type (0, 1), BuildingBlock: UVAHIK_clean_linker_0, # of connection points: 2
#     Edge 43, Type (0, 1), BuildingBlock: UVAHIK_clean_linker_0, # of connection points: 2
#     Edge 44, Type (0, 1), BuildingBlock: UVAHIK_clean_linker_0, # of connection points: 2
#     Edge 45, Type (0, 1), BuildingBlock: UVAHIK_clean_linker_0, # of connection points: 2
#     Edge 46, Type (0, 1), BuildingBlock: UVAHIK_clean_linker_0, # of connection points: 2
#     Edge 47, Type (0, 1), BuildingBlock: UVAHIK_clean_linker_0, # of connection points: 2
#     Edge 48, Type (0, 1), BuildingBlock: UVAHIK_clean_linker_0, # of connection points: 2
#     Edge 49, Type (0, 1), BuildingBlock: UVAHIK_clean_linker_0, # of connection points: 2
#     Edge 50, Type (0, 1), BuildingBlock: UVAHIK_clean_linker_0, # of connection points: 2
#     Edge 51, Type (0, 1), BuildingBlock: UVAHIK_clean_linker_0, # of connection points: 2
#     Edge 52, Type (0, 1), BuildingBlock: UVAHIK_clean_linker_0, # of connection points: 2
#     Edge 53, Type (0, 1), BuildingBlock: UVAHIK_clean_linker_0, # of connection points: 2
#     Edge 54, Type (0, 1), BuildingBlock: UVAHIK_clean_linker_0, # of connection points: 2
#     Edge 55, Type (0, 1), BuildingBlock: UVAHIK_clean_linker_0, # of connection points: 2
#     Edge 56, Type (0, 1), BuildingBlock: UVAHIK_clean_linker_0, # of connection points: 2
#     Edge 57, Type (0, 1), BuildingBlock: UVAHIK_clean_linker_0, # of connection points: 2
#     Edge 58, Type (0, 1), BuildingBlock: UVAHIK_clean_linker_0, # of connection points: 2
#     Edge 59, Type (0, 1), BuildingBlock: UVAHIK_clean_linker_0, # of connection points: 2
#     Edge 60, Type (0, 1), BuildingBlock: UVAHIK_clean_linker_0, # of connection points: 2
#     Edge 61, Type (0, 1), BuildingBlock: UVAHIK_clean_linker_0, # of connection points: 2
# Relax obj value: 0.114
# Max RMSD: 0.254
# Mean RMSD: 0.158
data_MOF--net-ocu--node1-KUMBOL_clean_sbu_0--node2-VETTIZ_charged_sbu_0--edge1-UVAHIK_clean_linker_0
_symmetry_space_group_name_H-M    P1
_symmetry_Int_Tables_number       1
_symmetry_cell_setting            triclinic
loop_
_symmetry_equiv_pos_as_xyz
'x, y, z'
_cell_length_a     50.264946
_cell_length_b     47.614108
_cell_length_c     52.784691
_cell_angle_alpha  85.202921
_cell_angle_beta   93.848888
_cell_angle_gamma 100.83843
loop_
_atom_site_label
_atom_site_type_symbol
_atom_site_fract_x
_atom_site_fract_y
_atom_site_fract_z
_atom_type_partial_charge
Gd0 Gd 0.28538 0.30749 0.2922 0.0
Gd1 Gd 0.26397 0.25279 0.2507 0.0
C2 C 0.21236 0.27946 0.18239 0.0
C3 C 0.16987 0.24616 0.18748 0.0
C4 C 0.20638 0.24684 0.22042 0.0
C5 C 0.22257 0.26853 0.20606 0.0
C6 C 0.17987 0.23538 0.21103 0.0
C7 C 0.18603 0.26813 0.17323 0.0
C8 C 0.22885 0.30166 0.16861 0.0
C9 C 0.25481 0.31254 0.17842 0.0
N10 N 0.24813 0.27908 0.21512 0.0
C11 C 0.26424 0.30079 0.20165 0.0
H12 H 0.2841 0.30986 0.20902 0.0
C13 C 0.20189 0.21287 0.25595 0.0
N14 N 0.21678 0.23612 0.24288 0.0
C15 C 0.17547 0.20137 0.24761 0.0
C16 C 0.16435 0.21273 0.22512 0.0
H17 H 0.21076 0.20166 0.27199 0.0
H18 H 0.17799 0.2762 0.15508 0.0
H19 H 0.26645 0.25187 0.33628 0.0
H20 H 0.22163 0.31071 0.15051 0.0
H21 H 0.26761 0.32998 0.16809 0.0
H22 H 0.14967 0.23743 0.17999 0.0
H23 H 0.33505 0.36356 0.27299 0.0
H24 H 0.33185 0.25002 0.39112 0.0
H25 H 0.28524 0.23075 0.37534 0.0
H26 H 0.4002 0.32736 0.36237 0.0
H27 H 0.16407 0.18301 0.2581 0.0
H28 H 0.14406 0.20328 0.2184 0.0
H29 H 0.3743 0.28591 0.38613 0.0
H30 H 0.38066 0.38593 0.28828 0.0
N31 N 0.30221 0.28223 0.32809 0.0
C32 C 0.32378 0.25923 0.37346 0.0
C33 C 0.2975 0.24829 0.36463 0.0
C34 C 0.33923 0.28219 0.35964 0.0
C35 C 0.32792 0.2934 0.33655 0.0
C36 C 0.28687 0.26036 0.3421 0.0
N37 N 0.33164 0.3279 0.30089 0.0
C38 C 0.34295 0.31663 0.32268 0.0
C39 C 0.37052 0.36625 0.2979 0.0
C40 C 0.38288 0.35408 0.31933 0.0
C41 C 0.34475 0.3532 0.28916 0.0
C42 C 0.36905 0.32934 0.33221 0.0
H43 H 0.40277 0.36448 0.32626 0.0
O44 O 0.29397 0.35155 0.30011 0.0
O45 O 0.25683 0.29821 0.25672 0.0
O46 O 0.30434 0.27497 0.2373 0.0
O47 O 0.31555 0.31385 0.26211 0.0
O48 O 0.2629 0.33866 0.26692 0.0
O49 O 0.27202 0.32016 0.32716 0.0
O50 O 0.252 0.2087 0.24111 0.0
O51 O 0.29281 0.26245 0.28592 0.0
O52 O 0.24386 0.28393 0.30343 0.0
O53 O 0.24203 0.24064 0.28622 0.0
O54 O 0.28892 0.2227 0.27388 0.0
O55 O 0.28076 0.23966 0.21791 0.0
C56 C 0.24835 0.32273 0.25061 0.0
C57 C 0.38024 0.31783 0.35489 0.0
C58 C 0.36544 0.2943 0.36849 0.0
C59 C 0.28176 0.34731 0.32132 0.0
C60 C 0.26513 0.3685 0.32466 0.0
C61 C 0.27415 0.39743 0.31641 0.0
C62 C 0.24079 0.36042 0.33663 0.0
C63 C 0.22546 0.38098 0.34036 0.0
C64 C 0.25851 0.41794 0.31979 0.0
C65 C 0.23413 0.40978 0.3318 0.0
C66 C 0.32057 0.29835 0.24417 0.0
C67 C 0.30256 0.23851 0.29077 0.0
C68 C 0.26656 0.21377 0.22122 0.0
C69 C 0.26801 0.1916 0.20448 0.0
C70 C 0.24567 0.16976 0.19984 0.0
C71 C 0.29291 0.19093 0.19487 0.0
C72 C 0.29598 0.16795 0.18153 0.0
C73 C 0.2486 0.1471 0.18567 0.0
C74 C 0.2739 0.14595 0.17674 0.0
C75 C 0.23257 0.25691 0.30089 0.0
H76 H 0.29332 0.40417 0.30746 0.0
H77 H 0.23398 0.33834 0.34372 0.0
H78 H 0.26554 0.44019 0.3136 0.0
H79 H 0.22265 0.42603 0.33534 0.0
H80 H 0.22622 0.17009 0.20739 0.0
H81 H 0.31038 0.20745 0.19901 0.0
H82 H 0.23147 0.13012 0.18216 0.0
H83 H 0.27637 0.12788 0.16652 0.0
Gd84 Gd 0.74489 0.30105 0.27751 0.0
Gd85 Gd 0.79465 0.25721 0.26686 0.0
C86 C 0.86668 0.30359 0.21987 0.0
C87 C 0.8569 0.28141 0.17984 0.0
C88 C 0.82626 0.26745 0.21453 0.0
C89 C 0.84291 0.28645 0.22978 0.0
C90 C 0.83367 0.26409 0.18968 0.0
C91 C 0.87326 0.30127 0.19483 0.0
C92 C 0.88351 0.32245 0.2354 0.0
C93 C 0.87718 0.3233 0.26043 0.0
N94 N 0.8364 0.28775 0.25429 0.0
C95 C 0.85402 0.30553 0.26969 0.0
H96 H 0.85153 0.30675 0.28942 0.0
C97 C 0.79029 0.22809 0.2115 0.0
N98 N 0.80378 0.25093 0.22435 0.0
C99 C 0.79669 0.2241 0.18691 0.0
C100 C 0.81817 0.24256 0.17571 0.0
H101 H 0.77454 0.21244 0.22016 0.0
H102 H 0.89134 0.31432 0.18707 0.0
H103 H 0.70151 0.23717 0.26227 0.0
H104 H 0.90168 0.33609 0.22839 0.0
H105 H 0.89038 0.33749 0.27283 0.0
H106 H 0.86272 0.27919 0.16081 0.0
H107 H 0.76544 0.34397 0.32614 0.0
H108 H 0.63807 0.22036 0.31299 0.0
H109 H 0.65891 0.20933 0.27496 0.0
H110 H 0.66666 0.28701 0.37616 0.0
H111 H 0.78535 0.20641 0.17683 0.0
H112 H 0.82336 0.23922 0.15673 0.0
H113 H 0.64111 0.24935 0.35043 0.0
H114 H 0.75006 0.35302 0.36675 0.0
N115 N 0.7052 0.26774 0.29048 0.0
C116 C 0.65681 0.23369 0.30692 0.0
C117 C 0.6684 0.22753 0.28541 0.0
C118 C 0.67021 0.25609 0.32104 0.0
C119 C 0.69481 0.27271 0.31247 0.0
C120 C 0.69271 0.24444 0.27769 0.0
N121 N 0.73376 0.30795 0.31937 0.0
C122 C 0.70955 0.29334 0.32734 0.0
C123 C 0.73867 0.33578 0.35615 0.0
C124 C 0.71454 0.32003 0.36502 0.0
C125 C 0.7477 0.32987 0.33309 0.0
C126 C 0.69951 0.29873 0.35054 0.0
H127 H 0.70742 0.32486 0.38281 0.0
O128 O 0.75668 0.34684 0.27941 0.0
O129 O 0.78393 0.29974 0.2609 0.0
O130 O 0.81285 0.28027 0.30184 0.0
O131 O 0.78332 0.31251 0.30347 0.0
O132 O 0.75504 0.31636 0.23721 0.0
O133 O 0.71501 0.3282 0.26835 0.0
O134 O 0.78086 0.21137 0.2671 0.0
O135 O 0.75604 0.25869 0.28435 0.0
O136 O 0.72609 0.27925 0.24213 0.0
O137 O 0.75697 0.24864 0.23897 0.0
O138 O 0.7857 0.243 0.30764 0.0
O139 O 0.82371 0.22894 0.27407 0.0
C140 C 0.77927 0.31092 0.23906 0.0
C141 C 0.67466 0.28301 0.35852 0.0
C142 C 0.66006 0.2617 0.34381 0.0
C143 C 0.73312 0.35172 0.27046 0.0
C144 C 0.73431 0.3736 0.24924 0.0
C145 C 0.74631 0.40207 0.25296 0.0
C146 C 0.72397 0.36605 0.22507 0.0
C147 C 0.72277 0.38703 0.20506 0.0
C148 C 0.74699 0.42295 0.2327 0.0
C149 C 0.73485 0.41567 0.20896 0.0
C150 C 0.80579 0.30272 0.31129 0.0
C151 C 0.76143 0.24837 0.30642 0.0
C152 C 0.80471 0.20594 0.27444 0.0
C153 C 0.80493 0.18575 0.29681 0.0
C154 C 0.79184 0.15717 0.29565 0.0
C155 C 0.81779 0.19517 0.31962 0.0
C156 C 0.82035 0.17579 0.34061 0.0
C157 C 0.79253 0.13799 0.31707 0.0
C158 C 0.8071 0.14704 0.33935 0.0
C159 C 0.73445 0.25849 0.23113 0.0
H160 H 0.75503 0.40811 0.27149 0.0
H161 H 0.71586 0.34377 0.22212 0.0
H162 H 0.75607 0.445 0.23563 0.0
H163 H 0.73394 0.43269 0.19419 0.0
H164 H 0.78124 0.14974 0.27821 0.0
H165 H 0.82696 0.21755 0.32068 0.0
H166 H 0.78262 0.11584 0.31613 0.0
H167 H 0.80902 0.13119 0.35496 0.0
Gd168 Gd 0.77355 0.75844 0.28755 0.0
Gd169 Gd 0.78192 0.81701 0.24508 0.0
C170 C 0.82303 0.79666 0.17627 0.0
C171 C 0.86812 0.82505 0.18165 0.0
C172 C 0.83517 0.82357 0.21392 0.0
C173 C 0.81591 0.80549 0.19947 0.0
C174 C 0.86137 0.83365 0.20477 0.0
C175 C 0.84906 0.80661 0.16749 0.0
C176 C 0.80401 0.77747 0.16271 0.0
C177 C 0.77862 0.76728 0.17224 0.0
N178 N 0.79064 0.79593 0.20819 0.0
C179 C 0.77219 0.77681 0.19495 0.0
H180 H 0.75276 0.76769 0.20189 0.0
C181 C 0.84624 0.85223 0.24898 0.0
N182 N 0.82833 0.83191 0.23635 0.0
C183 C 0.87234 0.86225 0.2408 0.0
C184 C 0.88006 0.85272 0.21875 0.0
H185 H 0.84038 0.86257 0.26451 0.0
H186 H 0.85472 0.80002 0.14976 0.0
H187 H 0.79066 0.80202 0.33574 0.0
H188 H 0.80891 0.76999 0.14506 0.0
H189 H 0.76395 0.75192 0.16216 0.0
H190 H 0.88809 0.83267 0.17446 0.0
H191 H 0.73593 0.69572 0.27158 0.0
H192 H 0.72641 0.78682 0.38649 0.0
H193 H 0.77185 0.81227 0.37468 0.0
H194 H 0.66517 0.70752 0.35352 0.0
H195 H 0.88618 0.87817 0.25107 0.0
H196 H 0.90021 0.86098 0.21222 0.0
H197 H 0.68631 0.74838 0.37794 0.0
H198 H 0.69427 0.66282 0.28494 0.0
N199 N 0.75622 0.77154 0.32439 0.0
C200 C 0.73455 0.78232 0.36908 0.0
C201 C 0.7602 0.79667 0.36252 0.0
C202 C 0.72031 0.7613 0.35377 0.0
C203 C 0.73197 0.756 0.33141 0.0
C204 C 0.77072 0.79103 0.34004 0.0
N205 N 0.73306 0.72672 0.29765 0.0
C206 C 0.72002 0.73295 0.31762 0.0
C207 C 0.70113 0.68259 0.2941 0.0
C208 C 0.68653 0.68962 0.31349 0.0
C209 C 0.72467 0.70125 0.2866 0.0
C210 C 0.6962 0.7147 0.32588 0.0
H211 H 0.66841 0.67502 0.31939 0.0
O212 O 0.78418 0.71654 0.29281 0.0
O213 O 0.80063 0.77548 0.25371 0.0
O214 O 0.74056 0.79232 0.23381 0.0
O215 O 0.73444 0.75357 0.26379 0.0
O216 O 0.77982 0.73383 0.25364 0.0
O217 O 0.79735 0.74751 0.32138 0.0
O218 O 0.79375 0.86285 0.23722 0.0
O219 O 0.75993 0.80152 0.28151 0.0
O220 O 0.81317 0.7876 0.29815 0.0
O221 O 0.80456 0.83091 0.28112 0.0
O222 O 0.75298 0.83951 0.26551 0.0
O223 O 0.76681 0.83717 0.21048 0.0
C224 C 0.79865 0.75158 0.24209 0.0
C225 C 0.68361 0.72112 0.34708 0.0
C226 C 0.69565 0.74439 0.36099 0.0
C227 C 0.79636 0.72159 0.31486 0.0
C228 C 0.79199 0.69861 0.33459 0.0
C229 C 0.76639 0.68293 0.34071 0.0
C230 C 0.81521 0.69062 0.34583 0.0
C231 C 0.81341 0.66634 0.3624 0.0
C232 C 0.76452 0.65852 0.35764 0.0
C233 C 0.78813 0.64988 0.3683 0.0
C234 C 0.72607 0.76835 0.24366 0.0
C235 C 0.74672 0.82219 0.28528 0.0
C236 C 0.77792 0.86292 0.2167 0.0
C237 C 0.76027 0.8841 0.2147 0.0
C238 C 0.77146 0.91323 0.21599 0.0
C239 C 0.73227 0.87545 0.21072 0.0
C240 C 0.71558 0.89578 0.206 0.0
C241 C 0.75468 0.93362 0.21273 0.0
C242 C 0.72689 0.92505 0.2074 0.0
C243 C 0.81848 0.81576 0.29689 0.0
H244 H 0.74807 0.689 0.33233 0.0
H245 H 0.83499 0.70266 0.34077 0.0
H246 H 0.74486 0.6461 0.36216 0.0
H247 H 0.78676 0.63069 0.38106 0.0
H248 H 0.79313 0.92016 0.21922 0.0
H249 H 0.72347 0.85288 0.21008 0.0
H250 H 0.76335 0.95615 0.21344 0.0
H251 H 0.71455 0.94139 0.20321 0.0
Gd252 Gd 0.25638 0.80438 0.26772 0.0
Gd253 Gd 0.29858 0.75082 0.27634 0.0
C254 C 0.25813 0.66788 0.32053 0.0
C255 C 0.28689 0.66785 0.35923 0.0
C256 C 0.29558 0.70744 0.32659 0.0
C257 C 0.27403 0.69414 0.31135 0.0
C258 C 0.30259 0.69387 0.35038 0.0
C259 C 0.26458 0.65504 0.34446 0.0
C260 C 0.23596 0.65516 0.30555 0.0
C261 C 0.23022 0.66814 0.28183 0.0
N262 N 0.2683 0.70683 0.28796 0.0
C263 C 0.24667 0.69365 0.27318 0.0
H264 H 0.24073 0.70235 0.25486 0.0
C265 C 0.33414 0.74383 0.33094 0.0
N266 N 0.31033 0.73295 0.31799 0.0
C267 C 0.34186 0.73115 0.35436 0.0
C268 C 0.32576 0.7063 0.36436 0.0
H269 H 0.34819 0.7617 0.32294 0.0
H270 H 0.25257 0.63496 0.35163 0.0
H271 H 0.31315 0.85216 0.27838 0.0
H272 H 0.22315 0.63532 0.31213 0.0
H273 H 0.21297 0.65851 0.27009 0.0
H274 H 0.29199 0.65732 0.37742 0.0
H275 H 0.19702 0.78982 0.23455 0.0
H276 H 0.3194 0.91808 0.21774 0.0
H277 H 0.33747 0.89754 0.25846 0.0
H278 H 0.23829 0.89073 0.16568 0.0
H279 H 0.36061 0.74022 0.36435 0.0
H280 H 0.33194 0.69631 0.38246 0.0
H281 H 0.28254 0.91508 0.18295 0.0
H282 H 0.17417 0.80869 0.19555 0.0
N283 N 0.2817 0.84676 0.24923 0.0
C284 C 0.30857 0.89818 0.22648 0.0
C285 C 0.31881 0.88668 0.24948 0.0
C286 C 0.28422 0.8841 0.21526 0.0
C287 C 0.27096 0.85821 0.22739 0.0
C288 C 0.30497 0.86088 0.26072 0.0
N289 N 0.23359 0.82023 0.23038 0.0
C290 C 0.24621 0.84441 0.21757 0.0
C291 C 0.19453 0.81879 0.20138 0.0
C292 C 0.20787 0.84276 0.18719 0.0
C293 C 0.20753 0.80812 0.22335 0.0
C294 C 0.23384 0.85621 0.19546 0.0
H295 H 0.19767 0.85117 0.1703 0.0
O296 O 0.21812 0.80651 0.28278 0.0
O297 O 0.26344 0.76499 0.2921 0.0
O298 O 0.27116 0.74042 0.2418 0.0
O299 O 0.24717 0.77846 0.23402 0.0
O300 O 0.22453 0.76539 0.27604 0.0
O301 O 0.2533 0.84028 0.28922 0.0
O302 O 0.34228 0.75675 0.27704 0.0
O303 O 0.29683 0.79553 0.2599 0.0
O304 O 0.28144 0.81243 0.30345 0.0
O305 O 0.31579 0.7866 0.30152 0.0
O306 O 0.31063 0.76889 0.23662 0.0
O307 O 0.31753 0.71573 0.26803 0.0
C308 C 0.23898 0.75156 0.29186 0.0
C309 C 0.24737 0.88145 0.1828 0.0
C310 C 0.27254 0.89535 0.19266 0.0
C311 C 0.22783 0.83048 0.29298 0.0
C312 C 0.21002 0.8509 0.29306 0.0
C313 C 0.19379 0.85819 0.27177 0.0
C314 C 0.20643 0.85961 0.31676 0.0
C315 C 0.18545 0.87388 0.31997 0.0
C316 C 0.17334 0.87375 0.27479 0.0
C317 C 0.16878 0.88118 0.29903 0.0
C318 C 0.25331 0.75398 0.22884 0.0
C319 C 0.30584 0.79439 0.23807 0.0
C320 C 0.34198 0.73067 0.27116 0.0
C321 C 0.36198 0.72728 0.25358 0.0
C322 C 0.389 0.72914 0.26285 0.0
C323 C 0.35467 0.72171 0.22817 0.0
C324 C 0.37459 0.7181 0.21219 0.0
C325 C 0.40878 0.72542 0.24685 0.0
C326 C 0.40164 0.7199 0.22157 0.0
C327 C 0.30468 0.80563 0.31173 0.0
H328 H 0.19628 0.85112 0.25328 0.0
H329 H 0.21846 0.85297 0.33332 0.0
H330 H 0.1603 0.87892 0.2586 0.0
H331 H 0.15182 0.89152 0.30161 0.0
H332 H 0.39473 0.73328 0.28254 0.0
H333 H 0.33376 0.72004 0.22093 0.0
H334 H 0.42959 0.72658 0.25409 0.0
H335 H 0.41711 0.71656 0.20938 0.0
Gd336 Gd 0.25597 0.809 0.76934 0.0
Gd337 Gd 0.29751 0.75768 0.77208 0.0
C338 C 0.37221 0.79212 0.72571 0.0
C339 C 0.36055 0.7683 0.68657 0.0
C340 C 0.32891 0.75995 0.72067 0.0
C341 C 0.34707 0.77842 0.73541 0.0
C342 C 0.33599 0.75405 0.69641 0.0
C343 C 0.37854 0.78738 0.70113 0.0
C344 C 0.39039 0.81023 0.74098 0.0
C345 C 0.38393 0.81347 0.76564 0.0
N346 N 0.34046 0.78282 0.75921 0.0
C347 C 0.35919 0.79902 0.77468 0.0
H348 H 0.35604 0.80052 0.79433 0.0
C349 C 0.28981 0.7239 0.71849 0.0
N350 N 0.30511 0.7465 0.73047 0.0
C351 C 0.29581 0.71757 0.69442 0.0
C352 C 0.3187 0.73316 0.68305 0.0
H353 H 0.27301 0.71008 0.72749 0.0
H354 H 0.39756 0.79802 0.69336 0.0
H355 H 0.20296 0.7546 0.75231 0.0
H356 H 0.40967 0.82135 0.73408 0.0
H357 H 0.39824 0.82672 0.77793 0.0
H358 H 0.36606 0.76426 0.66789 0.0
H359 H 0.28055 0.85687 0.8139 0.0
H360 H 0.14599 0.74072 0.80935 0.0
H361 H 0.16169 0.72791 0.76936 0.0
H362 H 0.18078 0.8118 0.86727 0.0
H363 H 0.28308 0.70019 0.68493 0.0
H364 H 0.32353 0.72797 0.66449 0.0
H365 H 0.15269 0.77273 0.84489 0.0
H366 H 0.26645 0.87183 0.85297 0.0
N367 N 0.21447 0.78085 0.7835 0.0
C368 C 0.16509 0.75215 0.80228 0.0
C369 C 0.17391 0.74482 0.7798 0.0
C370 C 0.18078 0.77443 0.81519 0.0
C371 C 0.20593 0.78831 0.80554 0.0
C372 C 0.19819 0.75991 0.77034 0.0
N373 N 0.24716 0.82175 0.8101 0.0
C374 C 0.22247 0.8095 0.81892 0.0
C375 C 0.25413 0.85387 0.84393 0.0
C376 C 0.22956 0.84064 0.85375 0.0
C377 C 0.2624 0.84454 0.82188 0.0
C378 C 0.2133 0.81837 0.84123 0.0
H379 H 0.22304 0.8482 0.8707 0.0
O380 O 0.26244 0.85534 0.76774 0.0
O381 O 0.2971 0.80331 0.75686 0.0
O382 O 0.31211 0.78224 0.80617 0.0
O383 O 0.29514 0.82294 0.79157 0.0
O384 O 0.27182 0.81989 0.72952 0.0
O385 O 0.22327 0.83103 0.75598 0.0
O386 O 0.28764 0.71128 0.77442 0.0
O387 O 0.25693 0.76368 0.78531 0.0
O388 O 0.24193 0.78671 0.73424 0.0
O389 O 0.25888 0.74613 0.74836 0.0
O390 O 0.28318 0.74846 0.81244 0.0
O391 O 0.32852 0.73278 0.78411 0.0
C392 C 0.29564 0.81336 0.73352 0.0
C393 C 0.18805 0.80514 0.85027 0.0
C394 C 0.17199 0.78301 0.83747 0.0
C395 C 0.23834 0.85638 0.75759 0.0
C396 C 0.23766 0.87615 0.73514 0.0
C397 C 0.23907 0.9054 0.73782 0.0
C398 C 0.23534 0.86582 0.71094 0.0
C399 C 0.23332 0.8843 0.68927 0.0
C400 C 0.23791 0.92422 0.71622 0.0
C401 C 0.23491 0.91378 0.69203 0.0
C402 C 0.3095 0.80891 0.8081 0.0
C403 C 0.25924 0.75471 0.80892 0.0
C404 C 0.31155 0.70841 0.78399 0.0
C405 C 0.31147 0.68991 0.80738 0.0
C406 C 0.30594 0.66005 0.80666 0.0
C407 C 0.31625 0.70225 0.83072 0.0
C408 C 0.3162 0.68515 0.85344 0.0
C409 C 0.30538 0.64268 0.82935 0.0
C410 C 0.31055 0.6551 0.85269 0.0
C411 C 0.24568 0.76074 0.73117 0.0
H412 H 0.2408 0.91354 0.75654 0.0
H413 H 0.23358 0.84308 0.70893 0.0
H414 H 0.23852 0.94676 0.71826 0.0
H415 H 0.23233 0.92848 0.67564 0.0
H416 H 0.30214 0.65028 0.78863 0.0
H417 H 0.32103 0.72535 0.83124 0.0
H418 H 0.30149 0.61958 0.82883 0.0
H419 H 0.31136 0.64126 0.86997 0.0
Gd420 Gd 0.29177 0.28446 0.74876 0.0
Gd421 Gd 0.2403 0.27648 0.79682 0.0
C422 C 0.24771 0.22603 0.87416 0.0
C423 C 0.21325 0.18347 0.86898 0.0
C424 C 0.22024 0.22134 0.83492 0.0
C425 C 0.24137 0.2363 0.84903 0.0
C426 C 0.20493 0.19552 0.84527 0.0
C427 C 0.23466 0.19878 0.88348 0.0
C428 C 0.26501 0.24443 0.88992 0.0
C429 C 0.27388 0.27285 0.88107 0.0
N430 N 0.25255 0.26298 0.83972 0.0
C431 C 0.2671 0.28193 0.85596 0.0
H432 H 0.27402 0.30412 0.84989 0.0
C433 C 0.18675 0.22507 0.80202 0.0
N434 N 0.21198 0.23447 0.81288 0.0
C435 C 0.17096 0.19932 0.81125 0.0
C436 C 0.18051 0.18397 0.83253 0.0
H437 H 0.1794 0.23685 0.78544 0.0
H438 H 0.23967 0.19026 0.90252 0.0
H439 H 0.24458 0.27288 0.70011 0.0
H440 H 0.27018 0.23748 0.90939 0.0
H441 H 0.28608 0.28777 0.8935 0.0
H442 H 0.2021 0.16336 0.87704 0.0
H443 H 0.35271 0.3199 0.76741 0.0
H444 H 0.26173 0.3416 0.643 0.0
H445 H 0.23316 0.29629 0.65881 0.0
H446 H 0.34505 0.39707 0.67456 0.0
H447 H 0.1515 0.19133 0.80191 0.0
H448 H 0.16812 0.16421 0.83985 0.0
H449 H 0.30349 0.37909 0.64905 0.0
H450 H 0.38595 0.36242 0.75288 0.0
N451 N 0.2789 0.30514 0.70877 0.0
C452 C 0.26681 0.33152 0.6614 0.0
C453 C 0.25069 0.30591 0.67021 0.0
C454 C 0.28972 0.34337 0.67611 0.0
C455 C 0.29532 0.32951 0.70003 0.0
C456 C 0.25732 0.29269 0.69382 0.0
N457 N 0.32382 0.32527 0.73689 0.0
C458 C 0.3185 0.33988 0.71453 0.0
C459 C 0.36697 0.35645 0.74202 0.0
C460 C 0.36128 0.37249 0.71961 0.0
C461 C 0.34813 0.33247 0.75021 0.0
C462 C 0.33701 0.36405 0.70534 0.0
H463 H 0.37604 0.3909 0.71315 0.0
O464 O 0.32726 0.2644 0.74934 0.0
O465 O 0.27691 0.26102 0.78525 0.0
O466 O 0.279 0.30801 0.80588 0.0
O467 O 0.29786 0.32608 0.76753 0.0
O468 O 0.31811 0.27536 0.7835 0.0
O469 O 0.29612 0.2562 0.71936 0.0
O470 O 0.20194 0.29129 0.79721 0.0
O471 O 0.25436 0.29881 0.75971 0.0
O472 O 0.2562 0.24992 0.73952 0.0
O473 O 0.23178 0.2353 0.77585 0.0
O474 O 0.21348 0.28166 0.76197 0.0
O475 O 0.23702 0.31403 0.81693 0.0
C476 C 0.29954 0.26107 0.79762 0.0
C477 C 0.33115 0.37839 0.68188 0.0
C478 C 0.3075 0.36813 0.66734 0.0
C479 C 0.31989 0.25179 0.72837 0.0
C480 C 0.3412 0.25389 0.70995 0.0
C481 C 0.35521 0.28088 0.70117 0.0
C482 C 0.34834 0.22894 0.70163 0.0
C483 C 0.36908 0.23127 0.68435 0.0
C484 C 0.37598 0.28323 0.68452 0.0
C485 C 0.38286 0.25869 0.67613 0.0
C486 C 0.29496 0.32776 0.79197 0.0
C487 C 0.23141 0.29669 0.74762 0.0
C488 C 0.21089 0.31105 0.81283 0.0
C489 C 0.19462 0.31052 0.83536 0.0
C490 C 0.18497 0.28406 0.84846 0.0
C491 C 0.18813 0.33582 0.84377 0.0
C492 C 0.17229 0.33427 0.86526 0.0
C493 C 0.16897 0.28245 0.8692 0.0
C494 C 0.16266 0.30725 0.87754 0.0
C495 C 0.23775 0.2318 0.75228 0.0
H496 H 0.35031 0.3002 0.7073 0.0
H497 H 0.33764 0.20796 0.70828 0.0
H498 H 0.3868 0.30419 0.67807 0.0
H499 H 0.39917 0.26115 0.66325 0.0
H500 H 0.18956 0.26445 0.84253 0.0
H501 H 0.19561 0.35643 0.83398 0.0
H502 H 0.16143 0.26183 0.87891 0.0
H503 H 0.15011 0.30531 0.89373 0.0
Gd504 Gd 0.75033 0.30915 0.76762 0.0
Gd505 Gd 0.79472 0.25638 0.77692 0.0
C506 C 0.75823 0.17361 0.8233 0.0
C507 C 0.77848 0.18229 0.8656 0.0
C508 C 0.79136 0.21653 0.82968 0.0
C509 C 0.77334 0.20001 0.81383 0.0
C510 C 0.79534 0.20702 0.85548 0.0
C511 C 0.75983 0.16559 0.84949 0.0
C512 C 0.7433 0.15534 0.80598 0.0
C513 C 0.74597 0.16234 0.77999 0.0
N514 N 0.77294 0.20828 0.78863 0.0
C515 C 0.76193 0.18842 0.77168 0.0
H516 H 0.7651 0.19255 0.75157 0.0
C517 C 0.83098 0.25143 0.83205 0.0
N518 N 0.80755 0.23984 0.81902 0.0
C519 C 0.83581 0.24313 0.85772 0.0
C520 C 0.81733 0.22146 0.86979 0.0
H521 H 0.84619 0.26718 0.82276 0.0
H522 H 0.74793 0.14572 0.85719 0.0
H523 H 0.8028 0.36349 0.77851 0.0
H524 H 0.73121 0.13501 0.81244 0.0
H525 H 0.73611 0.14748 0.76633 0.0
H526 H 0.78077 0.17504 0.8855 0.0
H527 H 0.6912 0.29198 0.73399 0.0
H528 H 0.81183 0.42064 0.71191 0.0
H529 H 0.82677 0.40674 0.75598 0.0
H530 H 0.73516 0.38409 0.65767 0.0
H531 H 0.85396 0.25321 0.86804 0.0
H532 H 0.82124 0.21477 0.8896 0.0
H533 H 0.77787 0.41164 0.67511 0.0
H534 H 0.66992 0.30593 0.69233 0.0
N535 N 0.77415 0.35193 0.74771 0.0
C536 C 0.80099 0.40149 0.72182 0.0
C537 C 0.80943 0.39378 0.74669 0.0
C538 C 0.77814 0.38488 0.71036 0.0
C539 C 0.76483 0.36005 0.72407 0.0
C540 C 0.79561 0.36898 0.75947 0.0
N541 N 0.728 0.32178 0.72866 0.0
C542 C 0.741 0.34444 0.7142 0.0
C543 C 0.69003 0.31676 0.69812 0.0
C544 C 0.70403 0.33875 0.68225 0.0
C545 C 0.70211 0.30892 0.72162 0.0
C546 C 0.72957 0.35334 0.69044 0.0
H547 H 0.69455 0.34495 0.66412 0.0
O548 O 0.71275 0.30783 0.78564 0.0
O549 O 0.76042 0.27153 0.79117 0.0
O550 O 0.75801 0.23967 0.74977 0.0
O551 O 0.74036 0.27983 0.73402 0.0
O552 O 0.72005 0.26956 0.77805 0.0
O553 O 0.74443 0.34541 0.78748 0.0
O554 O 0.83868 0.2643 0.7764 0.0
O555 O 0.79049 0.30026 0.76164 0.0
O556 O 0.78011 0.32236 0.80138 0.0
O557 O 0.8126 0.29323 0.80301 0.0
O558 O 0.79999 0.27357 0.73621 0.0
O559 O 0.8139 0.23295 0.75276 0.0
C560 C 0.73692 0.25661 0.79175 0.0
C561 C 0.74346 0.37713 0.67611 0.0
C562 C 0.76775 0.39285 0.68604 0.0
C563 C 0.71998 0.33348 0.79323 0.0
C564 C 0.69954 0.35146 0.7901 0.0
C565 C 0.684 0.35421 0.7673 0.0
C566 C 0.69435 0.36451 0.81135 0.0
C567 C 0.67289 0.37944 0.81042 0.0
C568 C 0.66277 0.36944 0.76608 0.0
C569 C 0.65702 0.38185 0.78762 0.0
C570 C 0.74194 0.2523 0.73323 0.0
C571 C 0.79728 0.29931 0.73926 0.0
C572 C 0.83822 0.24544 0.75984 0.0
C573 C 0.85846 0.22725 0.76232 0.0
C574 C 0.87009 0.21817 0.78571 0.0
C575 C 0.86568 0.21832 0.73976 0.0
C576 C 0.88451 0.2003 0.74011 0.0
C577 C 0.88901 0.19997 0.7862 0.0
C578 C 0.89615 0.19088 0.76345 0.0
C579 C 0.80331 0.3153 0.811 0.0
H580 H 0.68791 0.34435 0.75068 0.0
H581 H 0.7068 0.36251 0.82879 0.0
H582 H 0.65047 0.37118 0.74859 0.0
H583 H 0.63988 0.39276 0.78657 0.0
H584 H 0.86455 0.22492 0.80338 0.0
H585 H 0.85628 0.22521 0.72174 0.0
H586 H 0.89812 0.19291 0.80418 0.0
H587 H 0.91093 0.17695 0.76402 0.0
Gd588 Gd 0.77726 0.81221 0.79409 0.0
Gd589 Gd 0.76893 0.75621 0.75136 0.0
C590 C 0.71527 0.76134 0.67833 0.0
C591 C 0.68153 0.71779 0.68368 0.0
C592 C 0.71756 0.72941 0.71629 0.0
C593 C 0.7278 0.7544 0.70217 0.0
C594 C 0.69491 0.71029 0.70676 0.0
C595 C 0.69163 0.74334 0.66953 0.0
C596 C 0.72745 0.78551 0.66356 0.0
C597 C 0.75217 0.80128 0.67211 0.0
N598 N 0.75112 0.77083 0.71087 0.0
C599 C 0.76403 0.7933 0.69566 0.0
H600 H 0.78315 0.80587 0.70171 0.0
C601 C 0.72487 0.6959 0.75051 0.0
N602 N 0.73122 0.72256 0.73828 0.0
C603 C 0.70257 0.67618 0.7418 0.0
C604 C 0.68719 0.68363 0.7201 0.0
H605 H 0.73671 0.6901 0.76732 0.0
H606 H 0.68161 0.74846 0.65138 0.0
H607 H 0.75764 0.76484 0.84424 0.0
H608 H 0.71841 0.79162 0.6452 0.0
H609 H 0.76215 0.81961 0.66057 0.0
H610 H 0.6639 0.70354 0.67618 0.0
H611 H 0.81457 0.87629 0.77864 0.0
H612 H 0.82141 0.77374 0.90202 0.0
H613 H 0.77611 0.74991 0.88614 0.0
H614 H 0.88359 0.85636 0.87109 0.0
H615 H 0.69723 0.65531 0.75184 0.0
H616 H 0.66999 0.66829 0.71333 0.0
H617 H 0.86169 0.81322 0.89601 0.0
H618 H 0.85662 0.90741 0.79427 0.0
N619 N 0.79238 0.79678 0.83537 0.0
C620 C 0.8134 0.78051 0.8834 0.0
C621 C 0.7878 0.76709 0.87457 0.0
C622 C 0.82783 0.80333 0.86859 0.0
C623 C 0.81652 0.81123 0.84444 0.0
C624 C 0.77738 0.77576 0.85057 0.0
N625 N 0.81652 0.84334 0.80808 0.0
C626 C 0.82893 0.83537 0.8304 0.0
C627 C 0.84923 0.88706 0.80448 0.0
C628 C 0.86323 0.87828 0.82658 0.0
C629 C 0.82553 0.86943 0.79566 0.0
C630 C 0.85286 0.85242 0.84011 0.0
H631 H 0.88151 0.89203 0.83346 0.0
O632 O 0.76148 0.85169 0.79087 0.0
O633 O 0.75433 0.79691 0.75805 0.0
O634 O 0.80323 0.7918 0.74096 0.0
O635 O 0.81737 0.81834 0.77589 0.0
O636 O 0.7731 0.83926 0.75722 0.0
O637 O 0.74986 0.82009 0.82192 0.0
O638 O 0.78721 0.7182 0.75337 0.0
O639 O 0.79114 0.77112 0.78792 0.0
O640 O 0.74149 0.77727 0.80309 0.0
O641 O 0.72861 0.74966 0.76851 0.0
O642 O 0.77286 0.72867 0.78822 0.0
O643 O 0.79616 0.75078 0.72258 0.0
C644 C 0.75673 0.82075 0.74437 0.0
C645 C 0.86503 0.84373 0.86346 0.0
C646 C 0.85256 0.81917 0.87765 0.0
C647 C 0.74807 0.84544 0.81144 0.0
C648 C 0.74961 0.86865 0.82838 0.0
C649 C 0.77372 0.88843 0.83218 0.0
C650 C 0.72601 0.8722 0.83952 0.0
C651 C 0.72636 0.89572 0.85405 0.0
C652 C 0.77419 0.91185 0.84641 0.0
C653 C 0.75067 0.91565 0.85714 0.0
C654 C 0.82118 0.81021 0.75336 0.0
C655 C 0.78812 0.74733 0.80173 0.0
C656 C 0.79965 0.72567 0.73236 0.0
C657 C 0.79799 0.7032 0.71466 0.0
C658 C 0.77292 0.68967 0.70423 0.0
C659 C 0.82182 0.69437 0.70889 0.0
C660 C 0.82043 0.67149 0.69346 0.0
C661 C 0.7715 0.66693 0.68891 0.0
C662 C 0.79512 0.65769 0.68367 0.0
C663 C 0.72413 0.75813 0.79072 0.0
H664 H 0.79205 0.88622 0.82381 0.0
H665 H 0.70743 0.85676 0.8367 0.0
H666 H 0.79276 0.92732 0.84886 0.0
H667 H 0.75146 0.9345 0.86751 0.0
H668 H 0.75444 0.69646 0.70791 0.0
H669 H 0.8413 0.70484 0.71678 0.0
H670 H 0.75205 0.65642 0.68112 0.0
H671 H 0.79369 0.64004 0.67165 0.0
Fe672 Fe 0.03114 0.0571 0.52293 0.0
O673 O 1.00427 0.02361 0.53641 0.0
Fe674 Fe 0.09021 0.03048 0.52339 0.0
Fe675 Fe 0.96493 0.01759 0.52716 0.0
O676 O 0.05166 0.02774 0.51442 0.0
O677 O 0.05093 0.02487 0.51376 0.0
O678 O 1.00341 0.02102 0.5352 0.0
Fe679 Fe 0.02465 0.99164 0.52878 0.0
C680 C 0.98477 0.07596 0.54805 0.0
O681 O 1.01231 0.0541 0.48775 0.0
O682 O 0.96884 0.04749 0.49701 0.0
O683 O 0.05063 0.96505 0.52032 0.0
O684 O 0.08656 0.99607 0.50211 0.0
O685 O 0.09317 0.06248 0.49475 0.0
O686 O 0.06155 0.08834 0.50579 0.0
O687 O 0.96299 0.98606 0.5023 0.0
O688 O 1.00545 0.98416 0.49355 0.0
C689 C 0.08221 0.08524 0.49318 0.0
O690 O 0.0428 0.99764 0.56397 0.0
O691 O 0.08552 1.001 0.55427 0.0
O692 O 1.00564 0.08344 0.53399 0.0
O693 O 0.9688 0.05114 0.54937 0.0
C694 C 0.98785 0.05586 0.48191 0.0
C695 C 0.97996 0.97883 0.48841 0.0
C696 C 0.97516 0.96428 0.55934 0.0
O697 O 0.9629 0.98602 0.55604 0.0
O698 O 0.99524 0.96052 0.54651 0.0
C699 C 0.07146 0.97111 0.50632 0.0
O700 O 0.09264 0.06289 0.54688 0.0
O701 O 0.05087 0.0616 0.55868 0.0
C702 C 0.06669 0.99408 0.56984 0.0
C703 C 0.07649 0.06867 0.56228 0.0
Fe704 Fe 0.49896 0.98748 0.0274 0.0
O705 O 0.5044 0.02962 0.02614 0.0
Fe706 Fe 0.47259 0.04841 0.00885 0.0
Fe707 Fe 0.53529 0.05513 0.0088 0.0
O708 O 0.50155 0.02904 0.02582 0.0
O709 O 0.50379 0.07456 0.99214 0.0
O710 O 0.50661 0.07551 0.99301 0.0
Fe711 Fe 0.51 0.11702 0.9914 0.0
C712 C 0.55678 0.01037 0.04517 0.0
O713 O 0.5243 0.98662 0.99844 0.0
O714 O 0.5303 0.03028 0.97836 0.0
O715 O 0.47671 0.10977 0.96612 0.0
O716 O 0.44679 0.07362 0.98728 0.0
O717 O 0.46766 0.0227 0.97907 0.0
O718 O 0.46629 0.98111 0.00191 0.0
O719 O 0.5639 0.08393 0.98818 0.0
O720 O 0.53972 0.11607 0.96671 0.0
C721 C 0.45998 0.99578 0.98199 0.0
O722 O 0.48304 0.1175 0.01856 0.0
O723 O 0.47673 0.07349 0.03823 0.0
O724 O 0.53338 0.99517 0.05058 0.0
O725 O 0.56147 0.03036 0.02702 0.0
C726 C 0.53132 1.00377 0.97926 0.0
C727 C 0.56102 0.10431 0.97086 0.0
C728 C 0.54939 0.10786 0.0385 0.0
O729 O 0.54298 0.08056 0.03958 0.0
O730 O 0.54143 0.12327 0.01955 0.0
C731 C 0.45282 0.0941 0.96916 0.0
O732 O 0.44383 0.01759 0.03121 0.0
O733 O 0.47105 0.98881 0.05357 0.0
C734 C 0.47689 0.1001 0.03772 0.0
C735 C 0.4485 0.9984 0.04978 0.0
Fe736 Fe 1.01212 0.61794 0.0248 0.0
O737 O 1.00581 0.5762 0.02444 0.0
Fe738 Fe 0.03935 0.55277 0.04022 0.0
Fe739 Fe 0.97213 0.55063 0.03666 0.0
O740 O 1.01011 0.57519 0.02413 0.0
O741 O 1.00629 0.52822 0.05473 0.0
O742 O 1.00134 0.52934 0.05529 0.0
Fe743 Fe 1.00063 0.48645 0.05451 0.0
C744 C 0.96767 0.60394 0.06852 0.0
O745 O 0.98051 0.61458 0.99702 0.0
O746 O 0.94791 0.57739 0.01222 0.0
O747 O 0.03078 0.4862 0.02978 0.0
O748 O 0.03693 0.52886 0.00871 0.0
O749 O 0.06917 0.58452 0.01918 0.0
O750 O 0.04379 0.61757 1.00066 0.0
O751 O 0.96945 0.52494 0.00493 0.0
O752 O 0.97197 0.48181 0.02405 0.0
C753 C 0.06563 0.60613 0.00243 0.0
O754 O 0.03323 0.4889 0.08275 0.0
O755 O 0.06526 0.52309 0.06319 0.0
O756 O 0.98212 0.62036 0.0519 0.0
O757 O 0.96715 0.57643 0.06848 0.0
C758 C 0.95586 0.60015 0.99644 0.0
C759 C 0.96459 0.49734 0.00496 0.0
C760 C 0.9466 0.49848 0.07128 0.0
O761 O 0.94296 0.51873 0.05379 0.0
O762 O 0.96835 0.48737 0.07629 0.0
C763 C 0.03952 0.50268 0.01077 0.0
O764 O 0.04313 0.57641 0.07113 0.0
O765 O 0.04175 0.62054 0.05327 0.0
C766 C 0.0588 0.50012 0.07987 0.0
C767 C 0.04914 0.60347 0.07102 0.0
Fe768 Fe 0.5197 0.53861 0.9927 0.0
O769 O 0.54047 0.55831 0.02161 0.0
Fe770 Fe 0.45442 0.51968 0.01236 0.0
Fe771 Fe 0.57928 0.56013 0.02838 0.0
O772 O 0.49337 0.52057 0.0183 0.0
O773 O 0.49315 0.52093 0.02042 0.0
O774 O 0.54007 0.55917 0.02362 0.0
Fe775 Fe 0.51393 0.54085 0.04944 0.0
C776 C 0.56404 0.50617 0.99892 0.0
O777 O 0.54961 0.56042 0.96911 0.0
O778 O 0.58083 0.58714 0.99593 0.0
O779 O 0.49428 0.57455 0.04355 0.0
O780 O 0.45199 0.55158 0.03522 0.0
O781 O 0.45859 0.54966 0.98157 0.0
O782 O 0.50127 0.57268 0.98628 0.0
O783 O 0.57553 0.58898 0.05386 0.0
O784 O 0.53961 0.56465 0.07687 0.0
C785 C 0.4772 0.57144 0.97757 0.0
O786 O 0.48374 0.51828 0.07281 0.0
O787 O 0.45204 0.49321 0.0451 0.0
O788 O 0.5387 0.50469 0.99919 0.0
O789 O 0.58114 0.52822 0.00486 0.0
C790 C 0.56926 0.58166 0.97371 0.0
C791 C 0.56075 0.58508 0.07354 0.0
C792 C 0.55792 0.50823 0.06273 0.0
O793 O 0.57607 0.53038 0.05893 0.0
O794 O 0.53325 0.5071 0.05576 0.0
C795 C 0.46885 0.57337 0.04201 0.0
O796 O 0.45817 0.49049 0.987 0.0
O797 O 0.49405 0.516 0.96481 0.0
C798 C 0.46321 0.49798 0.06765 0.0
C799 C 0.47251 0.49605 0.96709 0.0
Fe800 Fe 0.02438 0.44623 0.54209 0.0
O801 O 0.02752 0.48786 0.54244 0.0
Fe802 Fe 0.04476 0.51439 0.51166 0.0
Fe803 Fe 0.04683 0.51022 0.57068 0.0
O804 O 0.02747 0.48811 0.53999 0.0
O805 O 0.0655 0.53569 0.53981 0.0
O806 O 0.06583 0.5353 0.54251 0.0
Fe807 Fe 0.06992 0.57725 0.54116 0.0
C808 C 1.00261 0.46051 0.59111 0.0
O809 O 0.05443 0.44277 0.57058 0.0
O810 O 0.07745 0.48698 0.57467 0.0
O811 O 0.09399 0.57771 0.51095 0.0
O812 O 0.06679 0.54595 0.48513 0.0
O813 O 0.07509 0.49236 0.51196 0.0
O814 O 0.05199 0.4475 0.5153 0.0
O815 O 0.0706 0.53673 0.5965 0.0
O816 O 0.09706 0.57072 0.57034 0.0
C817 C 0.07273 0.46597 0.50945 0.0
O818 O 0.03961 0.58112 0.51426 0.0
O819 O 1.01493 0.53713 0.51214 0.0
O820 O 0.99906 0.44696 0.57049 0.0
O821 O 0.02297 0.48106 0.59624 0.0
C822 C 0.07514 0.46004 0.57871 0.0
C823 C 0.0924 0.55555 0.59173 0.0
C824 C 0.02066 0.5603 0.5734 0.0
O825 O 1.01667 0.53401 0.56895 0.0
O826 O 0.04294 0.57707 0.56888 0.0
C827 C 0.0867 0.56771 0.48891 0.0
O828 O 0.01924 0.48688 0.48551 0.0
O829 O 0.99693 0.44981 0.51178 0.0
C830 C 0.0176 0.56413 0.50908 0.0
C831 C 1.00041 0.46395 0.48976 0.0
Fe832 Fe 0.54723 0.94899 0.50891 0.0
O833 O 0.55351 0.9917 0.50908 0.0
Fe834 Fe 0.53628 0.0136 0.47346 0.0
Fe835 Fe 0.54033 0.01108 0.53769 0.0
O836 O 0.55305 0.99206 0.5041 0.0
O837 O 0.52472 0.03328 0.50254 0.0
O838 O 0.52513 0.03309 0.50681 0.0
Fe839 Fe 0.52811 0.07528 0.50375 0.0
C840 C 0.5013 0.95491 0.546 0.0
O841 O 0.57607 0.95359 0.53919 0.0
O842 O 0.56038 0.9831 0.56508 0.0
O843 O 0.55652 0.08388 0.47673 0.0
O844 O 0.57113 0.04339 0.47046 0.0
O845 O 0.55571 0.98557 0.44864 0.0
O846 O 0.57351 0.9543 0.47809 0.0
O847 O 0.57623 0.04207 0.54126 0.0
O848 O 0.5591 0.08185 0.53216 0.0
C849 C 0.57153 0.96556 0.45468 0.0
O850 O 0.49841 0.07164 0.47366 0.0
O851 O 0.51236 0.04249 0.44647 0.0
O852 O 0.51795 0.94091 0.53764 0.0
O853 O 0.50378 0.98173 0.5399 0.0
C854 C 0.57507 0.96353 0.5613 0.0
C855 C 0.57702 0.06892 0.54361 0.0
C856 C 0.50463 0.0528 0.55529 0.0
O857 O 0.5215 0.03505 0.56182 0.0
O858 O 0.50229 0.06571 0.53283 0.0
C859 C 0.57362 0.07058 0.46863 0.0
O860 O 0.50108 0.985 0.47594 0.0
O861 O 0.51626 0.94387 0.48132 0.0
C862 C 0.4976 0.06244 0.45109 0.0
C863 C 0.4975 0.95809 0.4753 0.0
C864 C 0.21009 0.21289 0.32544 0.0
C865 C 0.21208 0.24245 0.31878 0.0
C866 C 0.19209 0.19901 0.34336 0.0
C867 C 0.13469 0.18182 0.37125 0.0
H868 H 0.16554 0.18839 0.44037 0.0
C869 C 0.07889 0.12493 0.4595 0.0
C870 C 0.09475 0.10902 0.47569 0.0
C871 C 0.09091 0.14443 0.44038 0.0
C872 C 0.15657 0.18653 0.4212 0.0
H873 H 0.19651 0.2805 0.32542 0.0
H874 H 0.16495 0.2559 0.3574 0.0
H875 H 0.18959 0.21633 0.40507 0.0
H876 H 0.13561 0.10174 0.48549 0.0
H877 H 0.1566 0.13596 0.45255 0.0
H878 H 0.10208 0.15125 0.38723 0.0
C879 C 0.17733 0.24376 0.34831 0.0
C880 C 0.17022 0.20261 0.40113 0.0
C881 C 0.19538 0.25776 0.33022 0.0
C882 C 0.12291 0.11377 0.47322 0.0
C883 C 0.13494 0.13343 0.45444 0.0
C884 C 0.12084 0.16589 0.3914 0.0
C885 C 0.17582 0.21439 0.35505 0.0
C886 C 0.1595 0.20011 0.37608 0.0
C887 C 0.11903 0.14861 0.43755 0.0
C888 C 0.13192 0.16776 0.41652 0.0
H889 H 0.22315 0.20058 0.31749 0.0
H890 H 0.19153 0.17644 0.34876 0.0
H891 H 0.12642 0.17937 0.3519 0.0
H892 H 0.05714 0.12137 0.46082 0.0
H893 H 0.07823 0.15596 0.42762 0.0
C894 C 0.83846 0.17059 0.3859 0.0
C895 C 0.84075 0.18447 0.36139 0.0
C896 C 0.86145 0.17135 0.40231 0.0
C897 C 0.92337 0.16126 0.3863 0.0
H898 H 0.94291 0.1546 0.45849 0.0
C899 C 0.96053 0.06893 0.444 0.0
C900 C 0.98285 0.07597 0.46098 0.0
C901 C 0.95102 0.09059 0.42887 0.0
C902 C 0.93808 0.1571 0.4382 0.0
H903 H 0.86814 0.21423 0.33682 0.0
H904 H 0.90724 0.21588 0.36563 0.0
H905 H 0.90897 0.18372 0.44281 0.0
H906 H 1.01336 0.11004 0.47557 0.0
H907 H 0.99652 0.14816 0.44907 0.0
H908 H 0.95016 0.13221 0.38201 0.0
C909 C 0.88788 0.20424 0.37198 0.0
C910 C 0.91878 0.17357 0.42938 0.0
C911 C 0.86521 0.20311 0.35543 0.0
C912 C 0.99676 0.10434 0.46169 0.0
C913 C 0.98701 0.12603 0.4469 0.0
C914 C 0.94218 0.14443 0.39517 0.0
C915 C 0.88664 0.18624 0.39429 0.0
C916 C 0.91096 0.17516 0.40346 0.0
C917 C 0.96355 0.11927 0.43122 0.0
C918 C 0.94905 0.14177 0.42117 0.0
H919 H 0.81968 0.15695 0.39142 0.0
H920 H 0.86017 0.15738 0.41965 0.0
H921 H 0.91696 0.16158 0.36628 0.0
H922 H 0.94941 0.04711 0.44378 0.0
H923 H 0.93255 0.08524 0.41707 0.0
C924 C 0.85679 0.81677 0.33065 0.0
C925 C 0.83861 0.83098 0.31541 0.0
C926 C 0.87455 0.83129 0.349 0.0
C927 C 0.8797 0.89179 0.38885 0.0
H928 H 0.957 0.89196 0.39613 0.0
C929 C 0.94734 0.97159 0.45106 0.0
C930 C 0.96885 0.96289 0.46605 0.0
C931 C 0.93377 0.95477 0.43209 0.0
C932 C 0.9354 0.89187 0.3946 0.0
H933 H 0.82501 0.87167 0.30759 0.0
H934 H 0.85571 0.89665 0.33925 0.0
H935 H 0.92873 0.86279 0.36475 0.0
H936 H 0.99365 0.93017 0.47259 0.0
H937 H 0.96918 0.89991 0.43991 0.0
H938 H 0.88575 0.92011 0.41875 0.0
C939 C 0.8563 0.87434 0.33712 0.0
C940 C 0.91924 0.87516 0.37658 0.0
C941 C 0.83881 0.86001 0.31879 0.0
C942 C 0.97723 0.93744 0.46109 0.0
C943 C 0.96319 0.92015 0.44237 0.0
C944 C 0.89567 0.90812 0.40693 0.0
C945 C 0.87414 0.86014 0.35267 0.0
C946 C 0.8913 0.87551 0.37315 0.0
C947 C 0.94078 0.92827 0.42803 0.0
C948 C 0.92388 0.90905 0.40969 0.0
H949 H 0.8571 0.79439 0.3286 0.0
H950 H 0.88802 0.81976 0.36079 0.0
H951 H 0.85814 0.89199 0.38709 0.0
H952 H 0.94066 0.99127 0.45435 0.0
H953 H 0.91736 0.96239 0.4209 0.0
C954 C 0.16336 0.85058 0.3581 0.0
C955 C 0.17815 0.87525 0.34588 0.0
C956 C 0.15652 0.85093 0.38303 0.0
C957 C 0.16245 0.89375 0.43867 0.0
H958 H 0.08379 0.87844 0.43034 0.0
C959 C 0.09311 0.92907 0.50737 0.0
C960 C 0.07864 0.94829 0.49375 0.0
C961 C 0.10559 0.91146 0.49421 0.0
C962 C 0.10569 0.88206 0.43322 0.0
H963 H 0.20073 0.91809 0.35017 0.0
H964 H 0.18716 0.91961 0.39379 0.0
H965 H 0.11022 0.86307 0.3992 0.0
H966 H 0.06448 0.96436 0.45672 0.0
H967 H 0.08578 0.93307 0.43353 0.0
H968 H 0.15748 0.9151 0.4717 0.0
C969 C 0.18107 0.89996 0.38423 0.0
C970 C 0.12083 0.87316 0.41558 0.0
C971 C 0.18817 0.89947 0.35925 0.0
C972 C 0.07528 0.94905 0.46727 0.0
C973 C 0.0874 0.9313 0.45417 0.0
C974 C 0.14716 0.90261 0.4565 0.0
C975 C 0.16413 0.8761 0.39576 0.0
C976 C 0.14927 0.87974 0.41773 0.0
C977 C 0.10312 0.91295 0.46757 0.0
C978 C 0.11877 0.89765 0.4532 0.0
H979 H 0.15659 0.8313 0.34812 0.0
H980 H 0.14375 0.83223 0.3918 0.0
H981 H 0.18438 0.89917 0.44044 0.0
H982 H 0.0961 0.92897 0.52791 0.0
H983 H 0.11785 0.89748 0.50465 0.0
C984 C 0.20036 0.85049 0.66445 0.0
C985 C 0.22352 0.87225 0.66481 0.0
C986 C 0.18232 0.84915 0.64327 0.0
C987 C 0.16888 0.91475 0.61284 0.0
H988 H 0.09552 0.87128 0.61061 0.0
C989 C 0.08828 0.97767 0.60996 0.0
C990 C 0.07001 0.97155 0.58924 0.0
C991 C 0.10166 0.95637 0.62118 0.0
C992 C 0.11592 0.88368 0.61113 0.0
H993 H 0.25046 0.90293 0.64133 0.0
H994 H 0.21935 0.89958 0.60385 0.0
H995 H 0.13369 0.84619 0.6115 0.0
H996 H 0.04744 0.9383 0.56656 0.0
H997 H 0.0725 0.90198 0.58426 0.0
H998 H 0.15162 0.95214 0.61161 0.0
C999 C 0.21415 0.88492 0.62035 0.0
C1000 C 0.13779 0.86934 0.61142 0.0
C1001 C 0.23196 0.88703 0.64181 0.0
C1002 C 0.0619 0.94328 0.58244 0.0
C1003 C 0.0762 0.92239 0.59272 0.0
C1004 C 0.14722 0.92894 0.6121 0.0
C1005 C 0.18734 0.87002 0.62287 0.0
C1006 C 0.16461 0.88462 0.6134 0.0
C1007 C 0.09802 0.92971 0.6104 0.0
C1008 C 0.12052 0.91359 0.61223 0.0
H1009 H 0.19374 0.83783 0.68167 0.0
H1010 H 0.16252 0.83582 0.64539 0.0
H1011 H 0.18898 0.92766 0.61472 0.0
H1012 H 0.09438 0.99945 0.61553 0.0
H1013 H 0.11746 0.96205 0.63583 0.0
C1014 C 0.22939 0.20472 0.71308 0.0
C1015 C 0.22132 0.20872 0.73738 0.0
C1016 C 0.21211 0.18756 0.69646 0.0
C1017 C 0.15031 0.13232 0.68991 0.0
H1018 H 0.1463 0.16978 0.62199 0.0
C1019 C 0.07643 0.08448 0.60696 0.0
C1020 C 0.0889 0.08568 0.58374 0.0
C1021 C 0.0902 0.09925 0.62741 0.0
C1022 C 0.14721 0.15891 0.64081 0.0
H1023 H 0.18972 0.19467 0.7639 0.0
H1024 H 0.15917 0.16506 0.73471 0.0
H1025 H 0.1761 0.19368 0.65486 0.0
H1026 H 0.12519 0.10391 0.56359 0.0
H1027 H 0.14875 0.12912 0.59868 0.0
H1028 H 0.12163 0.0972 0.6754 0.0
C1029 C 0.1789 0.1757 0.72854 0.0
C1030 C 0.16439 0.17259 0.65966 0.0
C1031 C 0.19637 0.19292 0.74529 0.0
C1032 C 0.11495 0.10236 0.58122 0.0
C1033 C 0.12846 0.11709 0.60135 0.0
C1034 C 0.13309 0.11846 0.67087 0.0
C1035 C 0.18622 0.17378 0.70359 0.0
C1036 C 0.1666 0.15928 0.68429 0.0
C1037 C 0.11641 0.11573 0.62474 0.0
C1038 C 0.13181 0.1314 0.64596 0.0
H1039 H 0.24873 0.21579 0.70631 0.0
H1040 H 0.21876 0.1858 0.67765 0.0
H1041 H 0.15155 0.12155 0.70873 0.0
H1042 H 0.05646 0.07164 0.6095 0.0
H1043 H 0.08036 0.09788 0.64522 0.0
C1044 C 0.89896 0.21297 0.69594 0.0
C1045 C 0.89177 0.1919 0.71579 0.0
C1046 C 0.90557 0.20524 0.67269 0.0
C1047 C 0.90158 0.14457 0.63358 0.0
H1048 H 0.97438 0.1808 0.61542 0.0
C1049 C 0.96845 0.08487 0.58865 0.0
C1050 C 0.97872 0.09609 0.56511 0.0
C1051 C 0.95714 0.10173 0.60331 0.0
C1052 C 0.95378 0.17112 0.61984 0.0
H1053 H 0.88409 0.1464 0.72678 0.0
H1054 H 0.89626 0.13271 0.68606 0.0
H1055 H 0.95217 0.20059 0.6478 0.0
H1056 H 0.98817 0.13415 0.5395 0.0
H1057 H 0.96835 0.16444 0.56596 0.0
H1058 H 0.90392 0.11404 0.60678 0.0
C1059 C 0.8967 0.15517 0.68851 0.0
C1060 C 0.94109 0.18232 0.63826 0.0
C1061 C 0.89025 0.16293 0.71185 0.0
C1062 C 0.98001 0.1252 0.55751 0.0
C1063 C 0.96864 0.14231 0.57243 0.0
C1064 C 0.91423 0.13344 0.61517 0.0
C1065 C 0.90488 0.17635 0.66898 0.0
C1066 C 0.9154 0.16837 0.64594 0.0
C1067 C 0.95608 0.13011 0.59474 0.0
C1068 C 0.9408 0.14596 0.60908 0.0
H1069 H 0.89991 0.23547 0.69858 0.0
H1070 H 0.91168 0.2218 0.65777 0.0
H1071 H 0.88164 0.13374 0.63908 0.0
H1072 H 0.96801 0.06258 0.59519 0.0
H1073 H 0.9483 0.0923 0.62094 0.0
C1074 C 0.85719 0.85218 0.74074 0.0
C1075 C 0.84553 0.8231 0.73966 0.0
C1076 C 0.87662 0.86516 0.72358 0.0
C1077 C 0.89328 0.858 0.65908 0.0
H1078 H 0.95951 0.9115 0.67443 0.0
C1079 C 0.96104 0.91488 0.57976 0.0
C1080 C 0.96748 0.9446 0.58142 0.0
C1081 C 0.95048 0.89725 0.60064 0.0
C1082 C 0.94107 0.89656 0.6699 0.0
H1083 H 0.84642 0.78426 0.7212 0.0
H1084 H 0.88008 0.80688 0.69131 0.0
H1085 H 0.93235 0.88687 0.70921 0.0
H1086 H 0.97008 0.97932 0.60605 0.0
H1087 H 0.95181 0.94883 0.64227 0.0
H1088 H 0.90118 0.86849 0.61983 0.0
C1089 C 0.87403 0.81973 0.70514 0.0
C1090 C 0.92559 0.88259 0.68976 0.0
C1091 C 0.85483 0.80683 0.72228 0.0
C1092 C 0.96487 0.95637 0.60439 0.0
C1093 C 0.9547 0.93889 0.62519 0.0
C1094 C 0.90862 0.87209 0.63925 0.0
C1095 C 0.88444 0.84914 0.70511 0.0
C1096 C 0.90153 0.86332 0.68446 0.0
C1097 C 0.94679 0.90925 0.62337 0.0
C1098 C 0.93252 0.89171 0.64446 0.0
H1099 H 0.85015 0.86536 0.75351 0.0
H1100 H 0.88429 0.88798 0.72377 0.0
H1101 H 0.87449 0.84359 0.65453 0.0
H1102 H 0.96298 0.90554 0.5621 0.0
H1103 H 0.94465 0.87439 0.59885 0.0
C1104 C 0.33902 0.15122 0.19182 0.0
C1105 C 0.32313 0.16623 0.17497 0.0
C1106 C 0.36549 0.1505 0.18631 0.0
C1107 C 0.41763 0.17764 0.13884 0.0
H1108 H 0.42291 0.0972 0.14205 0.0
C1109 C 0.48145 0.1347 0.07057 0.0
C1110 C 0.46698 0.11037 0.05948 0.0
C1111 C 0.472 0.14374 0.09209 0.0
C1112 C 0.42193 0.11981 0.14124 0.0
H1113 H 0.32217 0.1946 0.14088 0.0
H1114 H 0.36787 0.19173 0.12992 0.0
H1115 H 0.39121 0.1124 0.16788 0.0
H1116 H 0.4317 0.07636 0.06096 0.0
H1117 H 0.41417 0.093 0.09751 0.0
H1118 H 0.44583 0.18418 0.10955 0.0
C1119 C 0.36045 0.18096 0.14765 0.0
C1120 C 0.40409 0.12866 0.15639 0.0
C1121 C 0.33414 0.18205 0.15345 0.0
C1122 C 0.4431 0.09511 0.06965 0.0
C1123 C 0.43338 0.10443 0.0907 0.0
C1124 C 0.43507 0.16863 0.1232 0.0
C1125 C 0.37606 0.16441 0.16365 0.0
C1126 C 0.40068 0.15738 0.15424 0.0
C1127 C 0.44784 0.12869 0.10223 0.0
C1128 C 0.43608 0.13938 0.12331 0.0
H1129 H 0.33086 0.13993 0.2091 0.0
H1130 H 0.37729 0.1381 0.1992 0.0
H1131 H 0.41576 0.20003 0.13728 0.0
H1132 H 0.50015 0.14633 0.06285 0.0
H1133 H 0.48345 0.16247 0.1007 0.0
C1134 C 0.81972 0.34836 0.23382 0.0
C1135 C 0.80008 0.32709 0.22322 0.0
C1136 C 0.83783 0.36643 0.21829 0.0
C1137 C 0.86508 0.37654 0.15458 0.0
H1138 H 0.86869 0.45725 0.16377 0.0
C1139 C 0.90463 0.46377 0.07823 0.0
C1140 C 0.92442 0.48598 0.08716 0.0
C1141 C 0.88907 0.44494 0.09548 0.0
C1142 C 0.86802 0.4348 0.16113 0.0
H1143 H 0.78323 0.30755 0.18876 0.0
H1144 H 0.81525 0.33915 0.16125 0.0
H1145 H 0.84512 0.42119 0.19396 0.0
H1146 H 0.94342 0.50701 0.12027 0.0
H1147 H 0.91576 0.47452 0.15054 0.0
H1148 H 0.88773 0.39031 0.12148 0.0
C1149 C 0.81701 0.34159 0.18155 0.0
C1150 C 0.85474 0.4142 0.17845 0.0
C1151 C 0.79866 0.32373 0.1971 0.0
C1152 C 0.92755 0.49039 0.11316 0.0
C1153 C 0.91196 0.4717 0.13038 0.0
C1154 C 0.87835 0.39719 0.1372 0.0
C1155 C 0.83632 0.36347 0.19198 0.0
C1156 C 0.85285 0.38493 0.17511 0.0
C1157 C 0.89329 0.44826 0.12172 0.0
C1158 C 0.87953 0.42645 0.14017 0.0
H1159 H 0.82051 0.3515 0.25399 0.0
H1160 H 0.85263 0.38308 0.22674 0.0
H1161 H 0.86415 0.35406 0.15187 0.0
H1162 H 0.90266 0.45969 0.05823 0.0
H1163 H 0.87455 0.42712 0.08842 0.0
C1164 C 0.68287 0.86762 0.17599 0.0
C1165 C 0.68772 0.88687 0.19536 0.0
C1166 C 0.65968 0.86632 0.15996 0.0
C1167 C 0.60187 0.90362 0.14253 0.0
H1168 H 0.6454 0.93366 0.08483 0.0
C1169 C 0.58239 1.00235 0.08479 0.0
C1170 C 0.57951 1.0005 0.05848 0.0
C1171 C 0.59412 0.9822 0.0998 0.0
C1172 C 0.63276 0.9249 0.10049 0.0
H1173 H 0.67011 0.91539 0.2163 0.0
H1174 H 0.63027 0.91433 0.18758 0.0
H1175 H 0.66109 0.89941 0.11606 0.0
H1176 H 0.58846 0.97892 0.02645 0.0
H1177 H 0.60932 0.94346 0.05279 0.0
H1178 H 0.57444 0.93081 0.12755 0.0
C1179 C 0.64408 0.90006 0.18476 0.0
C1180 C 0.64148 0.90497 0.11825 0.0
C1181 C 0.66715 0.90115 0.20097 0.0
C1182 C 0.59117 0.98075 0.04684 0.0
C1183 C 0.60265 0.96032 0.06187 0.0
C1184 C 0.59313 0.92355 0.12472 0.0
C1185 C 0.64156 0.88472 0.16282 0.0
C1186 C 0.62692 0.89551 0.1402 0.0
C1187 C 0.6026 0.95996 0.08845 0.0
C1188 C 0.60937 0.93546 0.10446 0.0
H1189 H 0.69827 0.85608 0.17124 0.0
H1190 H 0.65785 0.85399 0.14336 0.0
H1191 H 0.59028 0.89647 0.1592 0.0
H1192 H 0.57309 0.01743 0.09384 0.0
H1193 H 0.59477 0.98276 0.12031 0.0
C1194 C 0.2441 0.73073 0.18817 0.0
C1195 C 0.23506 0.73817 0.2107 0.0
C1196 C 0.22596 0.71375 0.17209 0.0
C1197 C 0.16727 0.65869 0.17177 0.0
H1198 H 0.14508 0.69257 0.10627 0.0
C1199 C 0.0705 0.61185 0.11402 0.0
C1200 C 0.07178 0.61513 0.08756 0.0
C1201 C 0.09259 0.62434 0.12918 0.0
C1202 C 0.15149 0.68254 0.12424 0.0
H1203 H 0.20119 0.73422 0.23493 0.0
H1204 H 0.16967 0.70376 0.20714 0.0
H1205 H 0.18163 0.7193 0.132 0.0
H1206 H 0.09678 0.63125 0.05575 0.0
H1207 H 0.13579 0.6519 0.08212 0.0
H1208 H 0.13722 0.62184 0.16411 0.0
C1209 C 0.19037 0.71123 0.20172 0.0
C1210 C 0.17229 0.69785 0.13884 0.0
C1211 C 0.20817 0.72875 0.21731 0.0
C1212 C 0.09545 0.62934 0.07626 0.0
C1213 C 0.11762 0.64112 0.09129 0.0
C1214 C 0.14674 0.64308 0.15695 0.0
C1215 C 0.19924 0.70365 0.17916 0.0
C1216 C 0.17996 0.68608 0.16269 0.0
C1217 C 0.11612 0.63947 0.11781 0.0
C1218 C 0.13855 0.65505 0.13319 0.0
H1219 H 0.26493 0.73803 0.18311 0.0
H1220 H 0.23275 0.70813 0.15446 0.0
H1221 H 0.17304 0.64961 0.19038 0.0
H1222 H 0.05227 0.60051 0.12279 0.0
H1223 H 0.09093 0.62294 0.14962 0.0
C1224 C 0.32362 0.81905 0.85259 0.0
C1225 C 0.32668 0.82576 0.82654 0.0
C1226 C 0.33648 0.83842 0.86991 0.0
C1227 C 0.36649 0.91506 0.8727 0.0
H1228 H 0.40014 0.8893 0.93645 0.0
C1229 C 0.44338 0.98706 0.93727 0.0
C1230 C 0.44053 0.98113 0.9635 0.0
C1231 C 0.42661 0.96992 0.9202 0.0
C1232 C 0.39053 0.89674 0.91882 0.0
H1233 H 0.34567 0.85656 0.79765 0.0
H1234 H 0.36945 0.88972 0.82789 0.0
H1235 H 0.37723 0.8541 0.90766 0.0
H1236 H 0.41687 0.95498 0.99267 0.0
H1237 H 0.38737 0.92549 0.9629 0.0
H1238 H 0.38057 0.95782 0.88375 0.0
C1239 C 0.35655 0.87023 0.83507 0.0
C1240 C 0.3774 0.87662 0.90241 0.0
C1241 C 0.34336 0.85118 0.81785 0.0
C1242 C 0.41971 0.95942 0.97245 0.0
C1243 C 0.40289 0.94262 0.95551 0.0
C1244 C 0.37985 0.93522 0.88907 0.0
C1245 C 0.3527 0.86439 0.8612 0.0
C1246 C 0.36547 0.88561 0.87912 0.0
C1247 C 0.40684 0.94706 0.92937 0.0
C1248 C 0.39199 0.92615 0.91219 0.0
H1249 H 0.31021 0.79969 0.85936 0.0
H1250 H 0.33298 0.83355 0.88996 0.0
H1251 H 0.35698 0.92252 0.85504 0.0
H1252 H 0.45938 1.0038 0.93012 0.0
H1253 H 0.43 0.97359 0.90004 0.0
C1254 C 0.1703 0.36316 0.90222 0.0
C1255 C 0.16561 0.36 0.87599 0.0
C1256 C 0.15945 0.38332 0.91405 0.0
C1257 C 0.10372 0.42574 0.90566 0.0
H1258 H 0.13835 0.45709 0.96761 0.0
C1259 C 0.05574 0.49952 0.96666 0.0
C1260 C 0.05603 0.49135 0.9929 0.0
C1261 C 0.07042 0.48693 0.95027 0.0
C1262 C 0.12833 0.44851 0.95035 0.0
H1263 H 0.14688 0.3767 0.84129 0.0
H1264 H 0.12842 0.41285 0.86182 0.0
H1265 H 0.16256 0.43064 0.94242 0.0
H1266 H 0.07281 0.46438 0.02254 0.0
H1267 H 0.09862 0.44321 0.99437 0.0
H1268 H 0.06947 0.44396 0.91383 0.0
C1269 C 0.14009 0.39917 0.87342 0.0
C1270 C 0.14221 0.43313 0.93587 0.0
C1271 C 0.15101 0.37877 0.86152 0.0
C1272 C 0.07191 0.47102 0.0024 0.0
C1273 C 0.08691 0.45899 0.98624 0.0
C1274 C 0.08992 0.44149 0.92005 0.0
C1275 C 0.14362 0.4013 0.90003 0.0
C1276 C 0.12992 0.42082 0.91361 0.0
C1277 C 0.08626 0.46651 0.9599 0.0
C1278 C 0.10182 0.45252 0.94292 0.0
H1279 H 0.18145 0.34899 0.91389 0.0
H1280 H 0.16246 0.38372 0.93452 0.0
H1281 H 0.09332 0.41645 0.88886 0.0
H1282 H 0.04366 0.51505 0.95874 0.0
H1283 H 0.06955 0.49331 0.93009 0.0
C1284 C 0.73617 0.23884 0.83714 0.0
C1285 C 0.72742 0.23473 0.8117 0.0
C1286 C 0.72305 0.22116 0.85668 0.0
C1287 C 0.68611 0.15806 0.88205 0.0
H1288 H 0.62839 0.19563 0.89949 0.0
C1289 C 0.59612 0.10028 0.94097 0.0
C1290 C 0.5844 0.11693 0.95612 0.0
C1291 C 0.61695 0.11336 0.92528 0.0
C1292 C 0.64468 0.18502 0.89536 0.0
H1293 H 0.69896 0.20918 0.78632 0.0
H1294 H 0.67605 0.1779 0.82072 0.0
H1295 H 0.66074 0.21954 0.86887 0.0
H1296 H 0.58583 0.15938 0.96848 0.0
H1297 H 0.62313 0.18206 0.94236 0.0
H1298 H 0.67034 0.12357 0.90872 0.0
C1299 C 0.69326 0.1944 0.8254 0.0
C1300 C 0.66301 0.19867 0.87769 0.0
C1301 C 0.70618 0.21223 0.80589 0.0
C1302 C 0.59447 0.14636 0.95652 0.0
C1303 C 0.61566 0.15928 0.94144 0.0
C1304 C 0.66792 0.14443 0.90009 0.0
C1305 C 0.70121 0.19929 0.85083 0.0
C1306 C 0.68361 0.18519 0.87085 0.0
C1307 C 0.62664 0.14313 0.92506 0.0
C1308 C 0.64687 0.15772 0.90682 0.0
H1309 H 0.75213 0.25658 0.8419 0.0
H1310 H 0.729 0.22542 0.87629 0.0
H1311 H 0.70192 0.14742 0.87672 0.0
H1312 H 0.58844 0.07749 0.94047 0.0
H1313 H 0.6247 0.10032 0.91271 0.0
C1314 C 0.79496 0.71344 0.84046 0.0
C1315 C 0.80624 0.73686 0.82382 0.0
C1316 C 0.81088 0.70015 0.85934 0.0
C1317 C 0.88234 0.68772 0.87719 0.0
H1318 H 0.85266 0.65768 0.94188 0.0
C1319 C 0.94812 0.63032 0.95518 0.0
C1320 C 0.93676 0.61232 0.97601 0.0
C1321 C 0.93247 0.64507 0.93724 0.0
C1322 C 0.8615 0.6653 0.9239 0.0
H1323 H 0.84451 0.76369 0.81436 0.0
H1324 H 0.8725 0.74014 0.84681 0.0
H1325 H 0.82682 0.68436 0.91112 0.0
H1326 H 0.89843 0.5962 0.99307 0.0
H1327 H 0.87089 0.62097 0.9616 0.0
H1328 H 0.91656 0.66808 0.88926 0.0
C1329 C 0.85083 0.73236 0.84555 0.0
C1330 C 0.84641 0.68104 0.90596 0.0
C1331 C 0.83463 0.74625 0.82691 0.0
C1332 C 0.90837 0.60937 0.97747 0.0
C1333 C 0.89247 0.62422 0.95927 0.0
C1334 C 0.89728 0.67162 0.89496 0.0
C1335 C 0.83932 0.70881 0.86226 0.0
C1336 C 0.85636 0.69273 0.88207 0.0
C1337 C 0.90411 0.6428 0.93863 0.0
C1338 C 0.88743 0.65989 0.91901 0.0
H1339 H 0.77339 0.70507 0.83875 0.0
H1340 H 0.80074 0.68218 0.87118 0.0
H1341 H 0.89102 0.69563 0.85916 0.0
H1342 H 0.96975 0.63361 0.95279 0.0
H1343 H 0.94324 0.65896 0.92257 0.0
C1344 C 0.23599 0.36705 0.22146 0.0
C1345 C 0.22882 0.33717 0.22952 0.0
C1346 C 0.2187 0.38352 0.20565 0.0
C1347 C 0.1472 0.37999 0.16585 0.0
H1348 H 0.16918 0.46232 0.15666 0.0
C1349 C 0.07248 0.45344 0.10502 0.0
C1350 C 0.08034 0.48299 0.09602 0.0
C1351 C 0.09 0.43657 0.12008 0.0
C1352 C 0.16207 0.43938 0.15841 0.0
H1353 H 0.19312 0.30379 0.22675 0.0
H1354 H 0.16432 0.33097 0.19847 0.0
H1355 H 0.19755 0.43349 0.18269 0.0
H1356 H 0.1162 0.51617 0.09837 0.0
H1357 H 0.14593 0.4878 0.12439 0.0
H1358 H 0.11165 0.38597 0.14159 0.0
C1359 C 0.18434 0.3421 0.20416 0.0
C1360 C 0.17903 0.42207 0.17399 0.0
C1361 C 0.20168 0.32562 0.22051 0.0
C1362 C 0.10797 0.49399 0.10388 0.0
C1363 C 0.12553 0.47709 0.11945 0.0
C1364 C 0.13021 0.39732 0.1503 0.0
C1365 C 0.19185 0.37215 0.19603 0.0
C1366 C 0.17263 0.39136 0.17861 0.0
C1367 C 0.11748 0.44735 0.12836 0.0
C1368 C 0.13666 0.42803 0.14566 0.0
H1369 H 0.25565 0.37847 0.22792 0.0
H1370 H 0.22692 0.40589 0.20115 0.0
H1371 H 0.14006 0.35707 0.16764 0.0
H1372 H 0.05203 0.44269 0.10021 0.0
H1373 H 0.08132 0.41453 0.12551 0.0
C1374 C 0.22156 0.71275 0.82331 0.0
C1375 C 0.237 0.74036 0.82684 0.0
C1376 C 0.20403 0.69761 0.84211 0.0
C1377 C 0.16508 0.70788 0.89869 0.0
H1378 H 0.16222 0.62685 0.91679 0.0
C1379 C 0.083 0.64436 0.96717 0.0
C1380 C 0.08731 0.62007 0.98335 0.0
C1381 C 0.10151 0.6579 0.94887 0.0
C1382 C 0.16261 0.6495 0.91226 0.0
H1383 H 0.24689 0.77209 0.85461 0.0
H1384 H 0.21486 0.74741 0.88588 0.0
H1385 H 0.19229 0.65176 0.8839 0.0
H1386 H 0.11623 0.59168 0.99166 0.0
H1387 H 0.14867 0.61536 0.9599 0.0
H1388 H 0.13569 0.70605 0.92679 0.0
C1389 C 0.21617 0.73721 0.86855 0.0
C1390 C 0.1799 0.66391 0.89294 0.0
C1391 C 0.23449 0.75172 0.85028 0.0
C1392 C 0.11164 0.61015 0.98 0.0
C1393 C 0.13038 0.62385 0.96141 0.0
C1394 C 0.14759 0.69347 0.91767 0.0
C1395 C 0.20068 0.70956 0.86518 0.0
C1396 C 0.18163 0.69353 0.88567 0.0
C1397 C 0.12585 0.64827 0.94534 0.0
C1398 C 0.1457 0.6638 0.92507 0.0
H1399 H 0.22365 0.7024 0.80624 0.0
H1400 H 0.19293 0.67643 0.83847 0.0
H1401 H 0.16535 0.73051 0.89396 0.0
H1402 H 0.06486 0.65324 0.9684 0.0
H1403 H 0.0962 0.67592 0.93706 0.0
C1404 C 0.31091 0.24034 0.84112 0.0
C1405 C 0.30677 0.23719 0.81507 0.0
C1406 C 0.32237 0.22062 0.85741 0.0
C1407 C 0.35688 0.15497 0.85722 0.0
H1408 H 0.3778 0.17581 0.9261 0.0
C1409 C 0.43738 0.10833 0.92484 0.0
C1410 C 0.43135 0.10169 0.95057 0.0
C1411 C 0.41985 0.12102 0.90771 0.0
C1412 C 0.37185 0.16946 0.907 0.0
H1413 H 0.31546 0.21287 0.78484 0.0
H1414 H 0.3387 0.1807 0.81213 0.0
H1415 H 0.35364 0.20574 0.89831 0.0
H1416 H 0.40184 0.1025 0.97834 0.0
H1417 H 0.37117 0.12513 0.94843 0.0
H1418 H 0.37772 0.11958 0.86635 0.0
C1419 C 0.33013 0.19618 0.8212 0.0
C1420 C 0.35749 0.18669 0.89067 0.0
C1421 C 0.31663 0.21482 0.80521 0.0
C1422 C 0.40681 0.10697 0.95858 0.0
C1423 C 0.38945 0.12021 0.94151 0.0
C1424 C 0.37205 0.13821 0.87345 0.0
C1425 C 0.3334 0.19864 0.84787 0.0
C1426 C 0.34921 0.17979 0.86539 0.0
C1427 C 0.39604 0.12791 0.91599 0.0
C1428 C 0.37941 0.14507 0.89865 0.0
H1429 H 0.30713 0.25923 0.84882 0.0
H1430 H 0.32332 0.22394 0.87742 0.0
H1431 H 0.35123 0.14798 0.83836 0.0
H1432 H 0.45628 0.10468 0.91815 0.0
H1433 H 0.42566 0.12683 0.88831 0.0
C1434 C 0.81185 0.35945 0.83759 0.0
C1435 C 0.81996 0.33422 0.83088 0.0
C1436 C 0.82724 0.37748 0.85553 0.0
C1437 C 0.88127 0.37897 0.90952 0.0
H1438 H 0.88862 0.46147 0.89913 0.0
C1439 C 0.95309 0.45313 0.9793 0.0
C1440 C 0.94955 0.48134 0.98264 0.0
C1441 C 0.93778 0.43629 0.96063 0.0
C1442 C 0.88671 0.43852 0.90289 0.0
H1443 H 0.85204 0.30959 0.83873 0.0
H1444 H 0.87786 0.3398 0.87021 0.0
H1445 H 0.86155 0.4308 0.8685 0.0
H1446 H 0.92619 0.51343 0.96781 0.0
H1447 H 0.89904 0.48417 0.93583 0.0
H1448 H 0.90549 0.3862 0.94413 0.0
C1449 C 0.85939 0.34575 0.86155 0.0
C1450 C 0.87097 0.42067 0.88495 0.0
C1451 C 0.84428 0.32804 0.84323 0.0
C1452 C 0.93003 0.49208 0.96595 0.0
C1453 C 0.91429 0.47497 0.94737 0.0
C1454 C 0.89665 0.39674 0.92762 0.0
C1455 C 0.85137 0.37104 0.8681 0.0
C1456 C 0.868 0.39042 0.8877 0.0
C1457 C 0.91751 0.44638 0.94435 0.0
C1458 C 0.90012 0.42712 0.92479 0.0
H1459 H 0.7935 0.36555 0.82879 0.0
H1460 H 0.81987 0.3964 0.85983 0.0
H1461 H 0.87939 0.35597 0.91299 0.0
H1462 H 0.96789 0.44374 0.99137 0.0
H1463 H 0.9422 0.41516 0.95911 0.0
C1464 C 0.67614 0.89575 0.85175 0.0
C1465 C 0.70146 0.90033 0.8654 0.0
C1466 C 0.65364 0.90391 0.8613 0.0
C1467 C 0.63781 0.95978 0.89199 0.0
H1468 H 0.57663 0.91209 0.9246 0.0
C1469 C 0.57301 1.00734 0.95604 0.0
C1470 C 0.54627 0.99371 0.96002 0.0
C1471 C 0.5892 0.99535 0.94114 0.0
C1472 C 0.59314 0.92585 0.91501 0.0
H1473 H 0.72233 0.91451 0.90072 0.0
H1474 H 0.68332 0.92967 0.91676 0.0
H1475 H 0.60908 0.88975 0.90474 0.0
H1476 H 0.51483 0.95774 0.95106 0.0
H1477 H 0.54233 0.93777 0.92321 0.0
H1478 H 0.62219 0.9959 0.90146 0.0
C1479 C 0.68106 0.91991 0.89872 0.0
C1480 C 0.61176 0.91292 0.90382 0.0
C1481 C 0.70335 0.91147 0.88942 0.0
C1482 C 0.53546 0.96859 0.94805 0.0
C1483 C 0.55138 0.95702 0.93242 0.0
C1484 C 0.61897 0.97272 0.90261 0.0
C1485 C 0.65633 0.91685 0.88445 0.0
C1486 C 0.63451 0.92987 0.89287 0.0
C1487 C 0.57872 0.96983 0.92926 0.0
C1488 C 0.59678 0.95598 0.915 0.0
H1489 H 0.67401 0.88725 0.83318 0.0
H1490 H 0.63459 0.90144 0.8501 0.0
H1491 H 0.65533 0.97313 0.88351 0.0
H1492 H 0.5819 0.02639 0.96567 0.0
H1493 H 0.61025 1.00556 0.93994 0.0
C1494 C 0.84526 0.75138 0.2172 0.0
C1495 C 0.81814 0.73912 0.22405 0.0
C1496 C 0.8612 0.73787 0.20106 0.0
C1497 C 0.86429 0.66401 0.17043 0.0
H1498 H 0.92372 0.70769 0.13316 0.0
C1499 C 0.93202 0.60332 0.10548 0.0
C1500 C 0.95112 0.61842 0.08778 0.0
C1501 C 0.91674 0.61737 0.12172 0.0
C1502 C 0.9073 0.69433 0.14312 0.0
H1503 H 0.78934 0.69989 0.2184 0.0
H1504 H 0.81617 0.67696 0.19239 0.0
H1505 H 0.89803 0.73164 0.15976 0.0
H1506 H 0.96709 0.66256 0.07545 0.0
H1507 H 0.94182 0.68604 0.10265 0.0
H1508 H 0.87356 0.62669 0.15404 0.0
C1509 C 0.82539 0.69779 0.19866 0.0
C1510 C 0.89208 0.70865 0.1591 0.0
C1511 C 0.80936 0.71154 0.21409 0.0
C1512 C 0.95335 0.64889 0.08816 0.0
C1513 C 0.93828 0.66288 0.10441 0.0
C1514 C 0.87968 0.64965 0.15469 0.0
C1515 C 0.85213 0.71017 0.19107 0.0
C1516 C 0.86961 0.69431 0.17355 0.0
C1517 C 0.91902 0.648 0.12208 0.0
C1518 C 0.90199 0.66398 0.14001 0.0
H1519 H 0.85463 0.77166 0.22447 0.0
H1520 H 0.8813 0.74932 0.19687 0.0
H1521 H 0.84797 0.65067 0.18058 0.0
H1522 H 0.92851 0.58012 0.10678 0.0
H1523 H 0.90293 0.60362 0.13428 0.0
C1524 C 0.34149 0.83643 0.224 0.0
C1525 C 0.31629 0.81866 0.2192 0.0
C1526 C 0.35325 0.85703 0.20528 0.0
C1527 C 0.33922 0.89655 0.14191 0.0
H1528 H 0.41754 0.91035 0.14047 0.0
C1529 C 0.4021 0.96894 0.06059 0.0
C1530 C 0.42753 0.98481 0.06831 0.0
C1531 C 0.38633 0.94962 0.07819 0.0
C1532 C 0.39565 0.90721 0.14063 0.0
H1533 H 0.28437 0.80773 0.19023 0.0
H1534 H 0.30459 0.84377 0.15756 0.0
H1535 H 0.39501 0.87566 0.17208 0.0
H1536 H 0.45561 0.99312 0.10086 0.0
H1537 H 0.42838 0.96072 0.13113 0.0
H1538 H 0.34016 0.92811 0.11 0.0
C1539 C 0.31511 0.84242 0.17607 0.0
C1540 C 0.38259 0.88712 0.159 0.0
C1541 C 0.30344 0.82164 0.19484 0.0
C1542 C 0.43601 0.98167 0.0942 0.0
C1543 C 0.42049 0.96255 0.11159 0.0
C1544 C 0.35238 0.91671 0.12336 0.0
C1545 C 0.34048 0.86033 0.1808 0.0
C1546 C 0.35412 0.88158 0.16033 0.0
C1547 C 0.39572 0.94543 0.1039 0.0
C1548 C 0.38093 0.92277 0.12263 0.0
H1549 H 0.35231 0.83418 0.2423 0.0
H1550 H 0.37251 0.87041 0.21013 0.0
H1551 H 0.31733 0.89322 0.14213 0.0
H1552 H 0.39521 0.97003 0.0407 0.0
H1553 H 0.36747 0.93689 0.07133 0.0
C1554 C 0.69934 0.25742 0.19398 0.0
C1555 C 0.71626 0.24319 0.21077 0.0
C1556 C 0.68195 0.24264 0.17535 0.0
C1557 C 0.64688 0.16904 0.15938 0.0
H1558 H 0.63813 0.20498 0.09156 0.0
C1559 C 0.58116 0.10691 0.07829 0.0
C1560 C 0.56783 0.12247 0.05915 0.0
C1561 C 0.59944 0.12104 0.09668 0.0
C1562 C 0.63978 0.19458 0.11047 0.0
H1563 H 0.72695 0.20164 0.22155 0.0
H1564 H 0.69696 0.17609 0.18931 0.0
H1565 H 0.66867 0.23054 0.12321 0.0
H1566 H 0.56338 0.16553 0.04508 0.0
H1567 H 0.59412 0.18982 0.07711 0.0
H1568 H 0.61765 0.13331 0.14693 0.0
C1569 C 0.69726 0.19878 0.19024 0.0
C1570 C 0.65757 0.20938 0.12874 0.0
C1571 C 0.71488 0.21362 0.20858 0.0
C1572 C 0.57318 0.1526 0.05931 0.0
C1573 C 0.59124 0.16668 0.07774 0.0
C1574 C 0.62884 0.15433 0.14119 0.0
C1575 C 0.68046 0.21299 0.17322 0.0
C1576 C 0.66144 0.19696 0.15357 0.0
C1577 C 0.60497 0.1513 0.09675 0.0
C1578 C 0.62479 0.16681 0.11632 0.0
H1579 H 0.69965 0.28008 0.19514 0.0
H1580 H 0.66923 0.25442 0.1629 0.0
H1581 H 0.64894 0.15869 0.17829 0.0
H1582 H 0.57786 0.08372 0.07883 0.0
H1583 H 0.60962 0.1081 0.11055 0.0
C1584 C 0.69371 0.75435 0.82657 0.0
C1585 C 0.70011 0.74361 0.80417 0.0
C1586 C 0.67436 0.73812 0.8421 0.0
C1587 C 0.64908 0.66371 0.85955 0.0
H1588 H 0.59571 0.69207 0.89534 0.0
C1589 C 0.57862 0.59079 0.92789 0.0
C1590 C 0.57936 0.60099 0.95213 0.0
C1591 C 0.58972 0.60898 0.90775 0.0
C1592 C 0.61055 0.684 0.88539 0.0
H1593 H 0.68895 0.70904 0.77914 0.0
H1594 H 0.65586 0.68018 0.80667 0.0
H1595 H 0.62131 0.72343 0.86268 0.0
H1596 H 0.59063 0.6382 0.9743 0.0
H1597 H 0.60999 0.67007 0.93895 0.0
H1598 H 0.63894 0.62461 0.88265 0.0
C1599 C 0.66615 0.701 0.81228 0.0
C1600 C 0.62509 0.70181 0.86683 0.0
C1601 C 0.6852 0.71746 0.79657 0.0
C1602 C 0.59025 0.62982 0.95579 0.0
C1603 C 0.60101 0.64807 0.93559 0.0
C1604 C 0.63455 0.64593 0.87804 0.0
C1605 C 0.66124 0.71087 0.8355 0.0
C1606 C 0.64447 0.69177 0.85385 0.0
C1607 C 0.60126 0.6376 0.9116 0.0
C1608 C 0.61528 0.65599 0.89111 0.0
H1609 H 0.70446 0.77475 0.83275 0.0
H1610 H 0.67083 0.74618 0.85994 0.0
H1611 H 0.66448 0.6558 0.85023 0.0
H1612 H 0.57025 0.56861 0.92468 0.0
H1613 H 0.58964 0.60062 0.88927 0.0
C1614 C 0.31663 0.68726 0.90061 0.0
C1615 C 0.3269 0.69854 0.87711 0.0
C1616 C 0.33319 0.69137 0.92276 0.0
C1617 C 0.40862 0.70422 0.93722 0.0
H1618 H 0.39238 0.62118 0.93964 0.0
C1619 C 0.47617 0.62285 0.97537 0.0
C1620 C 0.47021 0.59675 0.96392 0.0
C1621 C 0.4637 0.64539 0.96557 0.0
C1622 C 0.39731 0.6444 0.93878 0.0
H1623 H 0.35939 0.72865 0.85899 0.0
H1624 H 0.38838 0.73391 0.89677 0.0
H1625 H 0.35613 0.64728 0.93209 0.0
H1626 H 0.4512 0.57446 0.93148 0.0
H1627 H 0.43006 0.6144 0.91359 0.0
H1628 H 0.45055 0.70029 0.94264 0.0
C1629 C 0.36788 0.72216 0.89873 0.0
C1630 C 0.37634 0.65953 0.93533 0.0
C1631 C 0.35121 0.71877 0.87673 0.0
C1632 C 0.45519 0.59441 0.94075 0.0
C1633 C 0.4434 0.61721 0.93054 0.0
C1634 C 0.42984 0.68884 0.94067 0.0
C1635 C 0.36057 0.70457 0.92078 0.0
C1636 C 0.38168 0.68971 0.93351 0.0
C1637 C 0.44564 0.64174 0.94421 0.0
C1638 C 0.42423 0.65889 0.94047 0.0
H1639 H 0.29733 0.67267 0.9015 0.0
H1640 H 0.32648 0.67911 0.94014 0.0
H1641 H 0.41338 0.72742 0.93593 0.0
H1642 H 0.48817 0.62482 0.99319 0.0
H1643 H 0.46579 0.66419 0.97628 0.0
C1644 C 0.33536 0.33704 0.82126 0.0
C1645 C 0.31524 0.34783 0.80589 0.0
C1646 C 0.35329 0.35485 0.83686 0.0
C1647 C 0.38103 0.43039 0.84857 0.0
H1648 H 0.39752 0.39718 0.91608 0.0
C1649 C 0.44274 0.496 0.92794 0.0
C1650 C 0.46007 0.48213 0.94439 0.0
C1651 C 0.42571 0.48092 0.90965 0.0
C1652 C 0.39349 0.40669 0.89719 0.0
H1653 H 0.29783 0.38537 0.79428 0.0
H1654 H 0.32907 0.41687 0.82215 0.0
H1655 H 0.36612 0.36887 0.88694 0.0
H1656 H 0.4737 0.44214 0.95482 0.0
H1657 H 0.44495 0.4159 0.92202 0.0
H1658 H 0.40848 0.4683 0.85896 0.0
C1659 C 0.33135 0.39475 0.82176 0.0
C1660 C 0.37539 0.39046 0.88047 0.0
C1661 C 0.31351 0.37685 0.80587 0.0
C1662 C 0.46084 0.45329 0.94189 0.0
C1663 C 0.44406 0.43826 0.92342 0.0
C1664 C 0.39922 0.44668 0.86533 0.0
C1665 C 0.35117 0.38378 0.83774 0.0
C1666 C 0.36926 0.40192 0.85582 0.0
C1667 C 0.42577 0.45168 0.90752 0.0
C1668 C 0.40598 0.43485 0.88972 0.0
H1669 H 0.33697 0.31463 0.82148 0.0
H1670 H 0.36868 0.34586 0.84845 0.0
H1671 H 0.37678 0.43982 0.82969 0.0
H1672 H 0.44128 0.51807 0.93019 0.0
H1673 H 0.41162 0.49183 0.89805 0.0
C1674 C 0.66718 0.37513 0.85727 0.0
C1675 C 0.66631 0.39112 0.83363 0.0
C1676 C 0.65846 0.38496 0.87876 0.0
C1677 C 0.60653 0.41802 0.89397 0.0
H1678 H 0.64659 0.44471 0.95539 0.0
C1679 C 0.56556 0.48723 0.95773 0.0
C1680 C 0.57301 0.48628 0.98373 0.0
C1681 C 0.57622 0.47085 0.94195 0.0
C1682 C 0.63498 0.43657 0.93868 0.0
H1683 H 0.65781 0.43073 0.8143 0.0
H1684 H 0.64135 0.44727 0.85186 0.0
H1685 H 0.67 0.42647 0.92293 0.0
H1686 H 0.59601 0.46732 0.01439 0.0
H1687 H 0.61388 0.43701 0.98681 0.0
H1688 H 0.57146 0.4275 0.90937 0.0
C1689 C 0.64893 0.4273 0.85352 0.0
C1690 C 0.64845 0.42649 0.92013 0.0
C1691 C 0.658 0.41772 0.83213 0.0
C1692 C 0.59027 0.46808 0.99422 0.0
C1693 C 0.6005 0.45104 0.97848 0.0
C1694 C 0.59295 0.42744 0.91265 0.0
C1695 C 0.64848 0.41057 0.87664 0.0
C1696 C 0.63436 0.41815 0.89745 0.0
C1697 C 0.594 0.45277 0.95212 0.0
C1698 C 0.60725 0.43781 0.93475 0.0
H1699 H 0.67334 0.35441 0.85895 0.0
H1700 H 0.658 0.37187 0.89659 0.0
H1701 H 0.59544 0.41114 0.87656 0.0
H1702 H 0.55246 0.50164 0.94945 0.0
H1703 H 0.57139 0.47336 0.92168 0.0
C1704 C 0.70973 0.3958 0.15868 0.0
C1705 C 0.70523 0.3796 0.18198 0.0
C1706 C 0.68907 0.39433 0.13959 0.0
C1707 C 0.61867 0.38882 0.14432 0.0
H1708 H 0.62029 0.41271 0.07236 0.0
C1709 C 0.58226 0.48552 0.09801 0.0
C1710 C 0.56586 0.48297 0.07561 0.0
C1711 C 0.59199 0.46184 0.10919 0.0
C1712 C 0.61915 0.40514 0.09227 0.0
H1713 H 0.67666 0.34588 0.20175 0.0
H1714 H 0.64204 0.3424 0.16812 0.0
H1715 H 0.65486 0.3867 0.0922 0.0
H1716 H 0.5459 0.45462 0.04724 0.0
H1717 H 0.56419 0.41294 0.06649 0.0
H1718 H 0.58473 0.40979 0.14492 0.0
C1719 C 0.66116 0.35676 0.16491 0.0
C1720 C 0.63892 0.39053 0.10357 0.0
C1721 C 0.68134 0.35878 0.18421 0.0
C1722 C 0.55847 0.45657 0.06474 0.0
C1723 C 0.56879 0.43297 0.0756 0.0
C1724 C 0.59915 0.40355 0.13309 0.0
C1725 C 0.66396 0.37621 0.1435 0.0
C1726 C 0.63945 0.38339 0.12988 0.0
C1727 C 0.58579 0.43571 0.09769 0.0
C1728 C 0.6001 0.41286 0.10732 0.0
H1729 H 0.72826 0.41125 0.15593 0.0
H1730 H 0.69176 0.40953 0.1231 0.0
H1731 H 0.61893 0.38421 0.16478 0.0
H1732 H 0.58793 0.5059 0.1065 0.0
H1733 H 0.60548 0.4643 0.12609 0.0
C1734 C 0.68371 0.73097 0.24042 0.0
C1735 C 0.70119 0.75473 0.2293 0.0
C1736 C 0.66487 0.71316 0.22537 0.0
C1737 C 0.65662 0.69189 0.15976 0.0
H1738 H 0.58392 0.65479 0.17704 0.0
C1739 C 0.58487 0.63245 0.08637 0.0
C1740 C 0.57025 0.6051 0.09356 0.0
C1741 C 0.5983 0.65024 0.10457 0.0
C1742 C 0.6043 0.66475 0.17216 0.0
H1743 H 0.70949 0.78092 0.19407 0.0
H1744 H 0.6765 0.75016 0.16788 0.0
H1745 H 0.61136 0.68815 0.20577 0.0
H1746 H 0.55703 0.57553 0.12564 0.0
H1747 H 0.58072 0.60708 0.15792 0.0
H1748 H 0.64989 0.66859 0.12638 0.0
C1749 C 0.67826 0.74451 0.18815 0.0
C1750 C 0.61996 0.6839 0.18853 0.0
C1751 C 0.69705 0.76228 0.20323 0.0
C1752 C 0.56803 0.59657 0.11959 0.0
C1753 C 0.58166 0.61455 0.138 0.0
C1754 C 0.6411 0.67281 0.14354 0.0
C1755 C 0.66282 0.71908 0.19888 0.0
C1756 C 0.6461 0.69811 0.18221 0.0
C1757 C 0.59761 0.64122 0.13054 0.0
C1758 C 0.61455 0.65947 0.14924 0.0
H1759 H 0.68527 0.7255 0.26064 0.0
H1760 H 0.65299 0.69399 0.23431 0.0
H1761 H 0.67699 0.70174 0.15474 0.0
H1762 H 0.58668 0.63986 0.06647 0.0
H1763 H 0.60978 0.67095 0.0982 0.0
C1764 C 0.3564 0.68212 0.18153 0.0
C1765 C 0.36763 0.7106 0.18603 0.0
C1766 C 0.35996 0.67166 0.15835 0.0
C1767 C 0.416 0.68643 0.118 0.0
H1768 H 0.37739 0.62099 0.08345 0.0
C1769 C 0.46988 0.60819 0.07432 0.0
C1770 C 0.45804 0.59618 0.05198 0.0
C1771 C 0.45665 0.62591 0.08655 0.0
C1772 C 0.38828 0.63963 0.09259 0.0
H1773 H 0.3873 0.75168 0.16948 0.0
H1774 H 0.3927 0.73374 0.12854 0.0
H1775 H 0.35265 0.64625 0.10957 0.0
H1776 H 0.42457 0.59432 0.02375 0.0
H1777 H 0.40186 0.62641 0.0446 0.0
H1778 H 0.45167 0.67963 0.10157 0.0
C1779 C 0.38187 0.71928 0.14292 0.0
C1780 C 0.37416 0.65391 0.10758 0.0
C1781 C 0.37866 0.72959 0.16617 0.0
C1782 C 0.43381 0.60336 0.04112 0.0
C1783 C 0.42079 0.62143 0.05311 0.0
C1784 C 0.43004 0.6723 0.10297 0.0
C1785 C 0.37465 0.6898 0.1397 0.0
C1786 C 0.38798 0.67727 0.12061 0.0
C1787 C 0.4317 0.63217 0.07628 0.0
C1788 C 0.4164 0.64855 0.09043 0.0
H1789 H 0.34782 0.66727 0.19682 0.0
H1790 H 0.3541 0.64884 0.15633 0.0
H1791 H 0.4274 0.70379 0.12848 0.0
H1792 H 0.48843 0.60247 0.08314 0.0
H1793 H 0.46531 0.63359 0.1046 0.0
C1794 C 0.36611 0.32843 0.23875 0.0
C1795 C 0.34313 0.31097 0.22818 0.0
C1796 C 0.38285 0.34831 0.22322 0.0
C1797 C 0.37469 0.38939 0.1633 0.0
H1798 H 0.45294 0.41315 0.16783 0.0
C1799 C 0.43084 0.45509 0.08334 0.0
C1800 C 0.45143 0.47848 0.08878 0.0
C1801 C 0.41935 0.43637 0.10278 0.0
C1802 C 0.43104 0.40699 0.16677 0.0
H1803 H 0.32256 0.29623 0.19298 0.0
H1804 H 0.35223 0.33036 0.16567 0.0
H1805 H 0.43123 0.37371 0.19673 0.0
H1806 H 0.47637 0.50031 0.11904 0.0
H1807 H 0.45585 0.46709 0.15341 0.0
H1808 H 0.37433 0.42226 0.1333 0.0
C1809 C 0.35641 0.3299 0.18609 0.0
C1810 C 0.4187 0.3844 0.18308 0.0
C1811 C 0.33959 0.31023 0.20168 0.0
C1812 C 0.46048 0.48254 0.11425 0.0
C1813 C 0.44886 0.46359 0.13387 0.0
C1814 C 0.38694 0.41189 0.14716 0.0
C1815 C 0.37709 0.35022 0.19686 0.0
C1816 C 0.39051 0.3749 0.18086 0.0
C1817 C 0.42805 0.44055 0.12817 0.0
C1818 C 0.41524 0.42027 0.14823 0.0
H1819 H 0.37032 0.32771 0.25908 0.0
H1820 H 0.39905 0.36335 0.23196 0.0
H1821 H 0.3528 0.38312 0.16184 0.0
H1822 H 0.42352 0.45098 0.06398 0.0
H1823 H 0.40374 0.41835 0.09789 0.0
C1824 C 0.8656 0.6806 0.67431 0.0
C1825 C 0.84516 0.66177 0.68721 0.0
C1826 C 0.88669 0.67008 0.6646 0.0
C1827 C 0.89908 0.60265 0.64289 0.0
H1828 H 0.97343 0.64278 0.63903 0.0
C1829 C 0.98061 0.55287 0.60056 0.0
C1830 C 1.00006 0.57143 0.58622 0.0
C1831 C 0.96252 0.56392 0.61418 0.0
C1832 C 0.95265 0.63144 0.63972 0.0
H1833 H 0.83167 0.61807 0.70219 0.0
H1834 H 0.86892 0.59977 0.68599 0.0
H1835 H 0.94153 0.66275 0.66184 0.0
H1836 H 1.01528 0.6159 0.57417 0.0
H1837 H 0.98317 0.63506 0.59711 0.0
H1838 H 0.90985 0.57169 0.62042 0.0
C1839 C 0.86825 0.62237 0.68251 0.0
C1840 C 0.93444 0.64286 0.65286 0.0
C1841 C 0.84707 0.63281 0.69191 0.0
C1842 C 1.00066 0.6011 0.58526 0.0
C1843 C 0.9824 0.6121 0.59859 0.0
C1844 C 0.91721 0.59132 0.6297 0.0
C1845 C 0.88768 0.64065 0.66792 0.0
C1846 C 0.90747 0.62852 0.65463 0.0
C1847 C 0.96331 0.59369 0.61343 0.0
C1848 C 0.9442 0.60557 0.62791 0.0
H1849 H 0.86439 0.70306 0.6705 0.0
H1850 H 0.90133 0.68468 0.65337 0.0
H1851 H 0.87825 0.59142 0.64337 0.0
H1852 H 0.97986 0.52991 0.60184 0.0
H1853 H 0.9483 0.54915 0.62569 0.0
C1854 C 0.34081 0.84743 0.72268 0.0
C1855 C 0.3184 0.82635 0.71563 0.0
C1856 C 0.36026 0.86105 0.70483 0.0
C1857 C 0.37678 0.86379 0.6327 0.0
H1858 H 0.43983 0.91816 0.65418 0.0
C1859 C 0.46705 0.91096 0.56398 0.0
C1860 C 0.47962 0.94015 0.56467 0.0
C1861 C 0.4475 0.89749 0.58176 0.0
C1862 C 0.42231 0.90317 0.64753 0.0
H1863 H 0.29892 0.80462 0.6832 0.0
H1864 H 0.33221 0.82651 0.65299 0.0
H1865 H 0.40763 0.89497 0.68514 0.0
H1866 H 0.48079 0.97732 0.58601 0.0
H1867 H 0.44802 0.9539 0.61715 0.0
H1868 H 0.39221 0.87197 0.59504 0.0
C1869 C 0.33558 0.83332 0.6721 0.0
C1870 C 0.4033 0.88945 0.66569 0.0
C1871 C 0.31604 0.82017 0.68981 0.0
C1872 C 0.47178 0.95499 0.5843 0.0
C1873 C 0.45287 0.94131 0.60252 0.0
C1874 C 0.39601 0.87719 0.61469 0.0
C1875 C 0.35847 0.85444 0.6788 0.0
C1876 C 0.37966 0.86929 0.65899 0.0
C1877 C 0.44005 0.91217 0.60175 0.0
C1878 C 0.4193 0.89738 0.62149 0.0
H1879 H 0.34317 0.85379 0.74204 0.0
H1880 H 0.37661 0.87703 0.71188 0.0
H1881 H 0.3595 0.84912 0.62541 0.0
H1882 H 0.47216 0.89843 0.54944 0.0
H1883 H 0.43858 0.87515 0.58008 0.0
C1884 C 0.2372 0.34465 0.7211 0.0
C1885 C 0.22219 0.31721 0.72761 0.0
C1886 C 0.22546 0.36439 0.7046 0.0
C1887 C 0.16103 0.38592 0.68791 0.0
H1888 H 0.18184 0.40859 0.61872 0.0
C1889 C 0.10554 0.46035 0.61835 0.0
C1890 C 0.09621 0.44845 0.59516 0.0
C1891 C 0.12383 0.44798 0.63496 0.0
C1892 C 0.17596 0.40264 0.63808 0.0
H1893 H 0.18315 0.28931 0.72209 0.0
H1894 H 0.16262 0.32393 0.69482 0.0
H1895 H 0.20969 0.38104 0.64743 0.0
H1896 H 0.09929 0.41507 0.57073 0.0
H1897 H 0.13218 0.39416 0.59924 0.0
H1898 H 0.12705 0.40693 0.67858 0.0
C1899 C 0.18354 0.32996 0.70175 0.0
C1900 C 0.19201 0.38713 0.65452 0.0
C1901 C 0.19542 0.31012 0.71732 0.0
C1902 C 0.10615 0.42458 0.58851 0.0
C1903 C 0.12504 0.41274 0.60476 0.0
C1904 C 0.14531 0.40191 0.67168 0.0
C1905 C 0.19825 0.35734 0.69535 0.0
C1906 C 0.18435 0.37807 0.6794 0.0
C1907 C 0.1338 0.42402 0.62834 0.0
C1908 C 0.15222 0.40987 0.64637 0.0
H1909 H 0.25758 0.35107 0.72923 0.0
H1910 H 0.23724 0.38545 0.69985 0.0
H1911 H 0.15454 0.37896 0.70695 0.0
H1912 H 0.098 0.47863 0.62402 0.0
H1913 H 0.13016 0.45711 0.653 0.0
C1914 C 0.71505 0.2046 0.71886 0.0
C1915 C 0.72453 0.23421 0.71346 0.0
C1916 C 0.69974 0.18713 0.70061 0.0
C1917 C 0.67941 0.18513 0.62946 0.0
H1918 H 0.62957 0.11649 0.6517 0.0
C1919 C 0.60492 0.1164 0.55699 0.0
C1920 C 0.59771 0.0863 0.56156 0.0
C1921 C 0.62092 0.13382 0.5749 0.0
C1922 C 0.6436 0.13532 0.64491 0.0
H1923 H 0.72371 0.26841 0.6839 0.0
H1924 H 0.69692 0.23838 0.65223 0.0
H1925 H 0.65445 0.1477 0.683 0.0
H1926 H 0.60221 0.05152 0.58968 0.0
H1927 H 0.62994 0.08169 0.6209 0.0
H1928 H 0.66814 0.17285 0.5913 0.0
C1929 C 0.70187 0.22823 0.6706 0.0
C1930 C 0.65815 0.15352 0.66313 0.0
C1931 C 0.7172 0.24577 0.68902 0.0
C1932 C 0.60755 0.07438 0.58495 0.0
C1933 C 0.62327 0.09195 0.60315 0.0
C1934 C 0.66472 0.16701 0.61123 0.0
C1935 C 0.69284 0.19832 0.67585 0.0
C1936 C 0.67657 0.17892 0.65596 0.0
C1937 C 0.63022 0.12219 0.59864 0.0
C1938 C 0.64646 0.14156 0.61846 0.0
H1939 H 0.71909 0.19476 0.73754 0.0
H1940 H 0.69371 0.16452 0.70602 0.0
H1941 H 0.69345 0.20388 0.62258 0.0
H1942 H 0.59769 0.12676 0.53951 0.0
H1943 H 0.62521 0.15676 0.57033 0.0
C1944 C 0.82605 0.3491 0.33112 0.0
C1945 C 0.82484 0.31938 0.33029 0.0
C1946 C 0.84482 0.36541 0.34768 0.0
C1947 C 0.90896 0.36206 0.38909 0.0
H1948 H 0.89466 0.4323 0.41304 0.0
C1949 C 0.97578 0.4199 0.46973 0.0
C1950 C 0.98262 0.45011 0.46844 0.0
C1951 C 0.9572 0.40546 0.45209 0.0
C1952 C 0.89918 0.41294 0.40631 0.0
H1953 H 0.84247 0.28358 0.34693 0.0
H1954 H 0.87428 0.31143 0.37651 0.0
H1955 H 0.86057 0.40372 0.38589 0.0
H1956 H 0.97481 0.48868 0.44691 0.0
H1957 H 0.94192 0.46327 0.41574 0.0
H1958 H 0.94722 0.37093 0.41018 0.0
C1959 C 0.86134 0.32264 0.3638 0.0
C1960 C 0.87951 0.39635 0.39057 0.0
C1961 C 0.84281 0.3064 0.3469 0.0
C1962 C 0.97035 0.46547 0.44841 0.0
C1963 C 0.95125 0.45084 0.43072 0.0
C1964 C 0.92839 0.37842 0.40504 0.0
C1965 C 0.86303 0.35262 0.36435 0.0
C1966 C 0.88395 0.37048 0.3816 0.0
C1967 C 0.94437 0.42051 0.43234 0.0
C1968 C 0.9239 0.40413 0.41401 0.0
H1969 H 0.81306 0.36012 0.31827 0.0
H1970 H 0.84542 0.3883 0.34677 0.0
H1971 H 0.91393 0.34292 0.3824 0.0
H1972 H 0.98468 0.40716 0.48479 0.0
H1973 H 0.95237 0.38227 0.4544 0.0
C1974 C 0.7375 0.84552 0.32793 0.0
C1975 C 0.72743 0.83004 0.30601 0.0
C1976 C 0.72088 0.85872 0.34344 0.0
C1977 C 0.64988 0.88525 0.34465 0.0
H1978 H 0.67197 0.90068 0.41434 0.0
C1979 C 0.5862 0.95346 0.40791 0.0
C1980 C 0.58914 0.95265 0.43519 0.0
C1981 C 0.60196 0.93913 0.39222 0.0
C1982 C 0.66473 0.89692 0.39495 0.0
H1983 H 0.68982 0.82167 0.28316 0.0
H1984 H 0.66176 0.84413 0.30893 0.0
H1985 H 0.69891 0.8762 0.38965 0.0
H1986 H 0.61341 0.93392 0.46525 0.0
H1987 H 0.63959 0.91065 0.43931 0.0
H1988 H 0.6158 0.90629 0.34994 0.0
C1989 C 0.68275 0.84484 0.31536 0.0
C1990 C 0.68095 0.88246 0.38017 0.0
C1991 C 0.69928 0.83102 0.30029 0.0
C1992 C 0.60942 0.93632 0.44485 0.0
C1993 C 0.62518 0.92243 0.42936 0.0
C1994 C 0.63384 0.90013 0.35934 0.0
C1995 C 0.69263 0.85952 0.33777 0.0
C1996 C 0.67441 0.87572 0.35422 0.0
C1997 C 0.62239 0.92286 0.40219 0.0
C1998 C 0.64031 0.9067 0.38537 0.0
H1999 H 0.75905 0.84853 0.33284 0.0
H2000 H 0.73092 0.86961 0.35961 0.0
H2001 H 0.64286 0.88157 0.32518 0.0
H2002 H 0.57124 0.96488 0.39838 0.0
H2003 H 0.59797 0.94109 0.37182 0.0
C2004 C 0.19829 0.71803 0.30882 0.0
C2005 C 0.22547 0.73171 0.31289 0.0
C2006 C 0.18415 0.70068 0.32823 0.0
C2007 C 0.19019 0.65305 0.38509 0.0
H2008 H 0.12112 0.66964 0.40202 0.0
C2009 C 0.11176 0.57294 0.44762 0.0
C2010 C 0.1007 0.58514 0.46691 0.0
C2011 C 0.12758 0.59055 0.42909 0.0
C2012 C 0.14034 0.66459 0.39759 0.0
H2013 H 0.25833 0.73899 0.34163 0.0
H2014 H 0.23426 0.70663 0.37511 0.0
H2015 H 0.14823 0.70106 0.37043 0.0
H2016 H 0.09703 0.62557 0.48117 0.0
H2017 H 0.12345 0.65584 0.44876 0.0
H2018 H 0.18192 0.61611 0.41184 0.0
C2019 C 0.22398 0.70953 0.35665 0.0
C2020 C 0.1559 0.68265 0.3794 0.0
C2021 C 0.2379 0.72784 0.33737 0.0
C2022 C 0.10518 0.61532 0.46663 0.0
C2023 C 0.12036 0.63279 0.44794 0.0
C2024 C 0.1743 0.63455 0.40292 0.0
C2025 C 0.19677 0.69588 0.35237 0.0
C2026 C 0.18106 0.6772 0.37285 0.0
C2027 C 0.13217 0.6208 0.42901 0.0
C2028 C 0.14907 0.64001 0.40948 0.0
H2029 H 0.18775 0.72092 0.29047 0.0
H2030 H 0.16324 0.69072 0.32424 0.0
H2031 H 0.20938 0.6481 0.38044 0.0
H2032 H 0.10898 0.54985 0.44735 0.0
H2033 H 0.13615 0.58047 0.41474 0.0
C2034 C 0.31712 0.1941 0.31727 0.0
C2035 C 0.32301 0.22439 0.31076 0.0
C2036 C 0.33555 0.17772 0.33136 0.0
C2037 C 0.4066 0.1821 0.37079 0.0
H2038 H 0.39243 0.09965 0.36815 0.0
C2039 C 0.47892 0.10909 0.43394 0.0
C2040 C 0.47961 0.07956 0.43088 0.0
C2041 C 0.46108 0.12579 0.4194 0.0
C2042 C 0.39741 0.12259 0.36952 0.0
H2043 H 0.3574 0.25914 0.31448 0.0
H2044 H 0.38824 0.23186 0.34014 0.0
H2045 H 0.36203 0.12865 0.34516 0.0
H2046 H 0.45828 0.04588 0.40792 0.0
H2047 H 0.4278 0.07431 0.38285 0.0
H2048 H 0.442 0.17608 0.39509 0.0
C2049 C 0.36841 0.22032 0.33438 0.0
C2050 C 0.37918 0.13992 0.35597 0.0
C2051 C 0.34991 0.23674 0.31966 0.0
C2052 C 0.46016 0.06824 0.41147 0.0
C2053 C 0.44187 0.08508 0.39689 0.0
C2054 C 0.42469 0.16475 0.38453 0.0
C2055 C 0.36228 0.18976 0.34063 0.0
C2056 C 0.38278 0.17063 0.35583 0.0
C2057 C 0.44138 0.11481 0.40019 0.0
C2058 C 0.42113 0.13403 0.38464 0.0
H2059 H 0.29764 0.18227 0.3108 0.0
H2060 H 0.32837 0.15496 0.33486 0.0
H2061 H 0.41147 0.20503 0.37227 0.0
H2062 H 0.49247 0.11983 0.4484 0.0
H2063 H 0.46264 0.14775 0.42399 0.0
C2064 C 0.70951 0.81726 0.71913 0.0
C2065 C 0.73625 0.83177 0.7248 0.0
C2066 C 0.69094 0.83039 0.70247 0.0
C2067 C 0.68065 0.9045 0.67179 0.0
H2068 H 0.62334 0.86064 0.63112 0.0
C2069 C 0.60185 0.96154 0.6057 0.0
C2070 C 0.59098 0.94902 0.58298 0.0
C2071 C 0.61814 0.9473 0.62399 0.0
C2072 C 0.6393 0.87364 0.64203 0.0
H2073 H 0.76358 0.87187 0.7164 0.0
H2074 H 0.73227 0.89406 0.68812 0.0
H2075 H 0.65364 0.83603 0.65897 0.0
H2076 H 0.58882 0.91044 0.56311 0.0
H2077 H 0.61638 0.88665 0.59379 0.0
H2078 H 0.66674 0.94213 0.65446 0.0
C2079 C 0.72501 0.87274 0.69656 0.0
C2080 C 0.65676 0.85918 0.65856 0.0
C2081 C 0.7434 0.85965 0.71286 0.0
C2082 C 0.59665 0.92146 0.57994 0.0
C2083 C 0.61256 0.90732 0.59806 0.0
C2084 C 0.6632 0.91896 0.65527 0.0
C2085 C 0.69809 0.85881 0.69105 0.0
C2086 C 0.67819 0.87418 0.67376 0.0
C2087 C 0.62402 0.91973 0.62059 0.0
C2088 C 0.64215 0.90402 0.63966 0.0
H2089 H 0.7027 0.79598 0.72795 0.0
H2090 H 0.67065 0.8184 0.69914 0.0
H2091 H 0.69615 0.91747 0.68321 0.0
H2092 H 0.59833 0.98261 0.60915 0.0
H2093 H 0.62602 0.95802 0.64094 0.0
C2094 C 0.72604 0.20612 0.31497 0.0
C2095 C 0.7412 0.23195 0.32288 0.0
C2096 C 0.70781 0.18905 0.33107 0.0
C2097 C 0.66596 0.18925 0.3837 0.0
H2098 H 0.67583 0.11064 0.39928 0.0
C2099 C 0.60536 0.11641 0.45968 0.0
C2100 C 0.5959 0.08773 0.45446 0.0
C2101 C 0.62411 0.13396 0.44434 0.0
C2102 C 0.67252 0.13237 0.39485 0.0
H2103 H 0.75072 0.26003 0.35367 0.0
H2104 H 0.7177 0.23047 0.38187 0.0
H2105 H 0.70542 0.14213 0.36996 0.0
H2106 H 0.5988 0.05458 0.42958 0.0
H2107 H 0.63099 0.08544 0.4022 0.0
H2108 H 0.63248 0.17945 0.40775 0.0
C2109 C 0.71979 0.22365 0.36315 0.0
C2110 C 0.68952 0.15036 0.37819 0.0
C2111 C 0.73853 0.24042 0.34719 0.0
C2112 C 0.60606 0.07657 0.43413 0.0
C2113 C 0.6245 0.09427 0.4185 0.0
C2114 C 0.6486 0.17112 0.40001 0.0
C2115 C 0.7046 0.19771 0.35524 0.0
C2116 C 0.68639 0.17889 0.37262 0.0
C2117 C 0.63342 0.12327 0.42323 0.0
C2118 C 0.6518 0.14251 0.40588 0.0
H2119 H 0.72852 0.19906 0.29641 0.0
H2120 H 0.69627 0.16907 0.32472 0.0
H2121 H 0.66319 0.21119 0.37945 0.0
H2122 H 0.59795 0.12541 0.47542 0.0
H2123 H 0.63109 0.15598 0.4489 0.0
C2124 C 0.85768 0.67766 0.38542 0.0
C2125 C 0.83858 0.65814 0.37208 0.0
C2126 C 0.88215 0.67029 0.39421 0.0
C2127 C 0.89781 0.60687 0.42164 0.0
H2128 H 0.97205 0.64732 0.42991 0.0
C2129 C 0.97752 0.55794 0.47959 0.0
C2130 C 0.99612 0.57578 0.49487 0.0
C2131 C 0.95971 0.56966 0.46283 0.0
C2132 C 0.95125 0.63613 0.42781 0.0
H2133 H 0.83056 0.61787 0.35426 0.0
H2134 H 0.87354 0.60435 0.37045 0.0
H2135 H 0.94094 0.66604 0.39785 0.0
H2136 H 1.00994 0.61918 0.50616 0.0
H2137 H 0.97762 0.6397 0.47712 0.0
H2138 H 0.9072 0.57793 0.45224 0.0
C2139 C 0.86941 0.62513 0.37415 0.0
C2140 C 0.93383 0.64649 0.40939 0.0
C2141 C 0.84482 0.6324 0.36558 0.0
C2142 C 0.99578 0.60519 0.49429 0.0
C2143 C 0.97762 0.6169 0.47767 0.0
C2144 C 0.91496 0.59683 0.44015 0.0
C2145 C 0.88744 0.64343 0.38956 0.0
C2146 C 0.90719 0.63161 0.40617 0.0
C2147 C 0.95993 0.59919 0.4616 0.0
C2148 C 0.94176 0.61121 0.44315 0.0
H2149 H 0.85322 0.69811 0.3897 0.0
H2150 H 0.89586 0.68446 0.40629 0.0
H2151 H 0.8769 0.59584 0.42002 0.0
H2152 H 0.97758 0.53519 0.47956 0.0
H2153 H 0.94637 0.55575 0.45027 0.0
C2154 C 0.3073 0.84079 0.34461 0.0
C2155 C 0.31985 0.82242 0.33178 0.0
C2156 C 0.32246 0.8592 0.36155 0.0
C2157 C 0.39228 0.89441 0.37341 0.0
H2158 H 0.37358 0.89963 0.44281 0.0
C2159 C 0.47114 0.9179 0.45217 0.0
C2160 C 0.47208 0.94385 0.46323 0.0
C2161 C 0.44847 0.90659 0.43734 0.0
C2162 C 0.37862 0.8987 0.42329 0.0
H2163 H 0.35791 0.80879 0.32695 0.0
H2164 H 0.38381 0.8394 0.3576 0.0
H2165 H 0.34043 0.87247 0.41337 0.0
H2166 H 0.44951 0.97724 0.46923 0.0
H2167 H 0.4094 0.95684 0.44325 0.0
H2168 H 0.43095 0.91897 0.38369 0.0
C2169 C 0.36243 0.84002 0.35407 0.0
C2170 C 0.35984 0.88331 0.40657 0.0
C2171 C 0.34745 0.822 0.33692 0.0
C2172 C 0.4493 0.95732 0.46064 0.0
C2173 C 0.42643 0.94574 0.44597 0.0
C2174 C 0.41098 0.90949 0.39008 0.0
C2175 C 0.35024 0.85933 0.36587 0.0
C2176 C 0.36716 0.88001 0.38194 0.0
C2177 C 0.42641 0.92087 0.43369 0.0
C2178 C 0.40461 0.91063 0.41532 0.0
H2179 H 0.28596 0.84158 0.34105 0.0
H2180 H 0.31273 0.87394 0.37057 0.0
H2181 H 0.39799 0.89269 0.35424 0.0
H2182 H 0.48839 0.9071 0.45386 0.0
H2183 H 0.44849 0.88718 0.42796 0.0
C2184 C 0.20745 0.36264 0.38176 0.0
C2185 C 0.20269 0.37319 0.35658 0.0
C2186 C 0.18885 0.36365 0.39968 0.0
C2187 C 0.12558 0.38417 0.41243 0.0
H2188 H 0.17221 0.4443 0.44867 0.0
C2189 C 0.08047 0.45861 0.46609 0.0
C2190 C 0.08975 0.45864 0.49162 0.0
C2191 C 0.09524 0.44889 0.4487 0.0
C2192 C 0.15913 0.42739 0.43882 0.0
H2193 H 0.17395 0.38863 0.32907 0.0
H2194 H 0.14121 0.39066 0.36066 0.0
H2195 H 0.19222 0.4151 0.42223 0.0
H2196 H 0.12184 0.45192 0.51952 0.0
H2197 H 0.1478 0.43367 0.48897 0.0
H2198 H 0.09244 0.39664 0.42889 0.0
C2199 C 0.15906 0.38157 0.3665 0.0
C2200 C 0.17046 0.41054 0.42409 0.0
C2201 C 0.17779 0.3808 0.34859 0.0
C2202 C 0.1146 0.45125 0.49972 0.0
C2203 C 0.12936 0.44127 0.48233 0.0
C2204 C 0.11425 0.40086 0.42739 0.0
C2205 C 0.16567 0.37518 0.39228 0.0
C2206 C 0.15368 0.38894 0.41086 0.0
C2207 C 0.11905 0.43893 0.45705 0.0
C2208 C 0.13102 0.42262 0.44045 0.0
H2209 H 0.22672 0.35668 0.38811 0.0
H2210 H 0.19408 0.35882 0.41963 0.0
H2211 H 0.11253 0.36793 0.40182 0.0
H2212 H 0.06136 0.46508 0.45988 0.0
H2213 H 0.08741 0.44773 0.4291 0.0
C2214 C 0.38518 0.18378 0.69052 0.0
C2215 C 0.37686 0.20581 0.67425 0.0
C2216 C 0.39746 0.16303 0.6807 0.0
C2217 C 0.43543 0.1556 0.6243 0.0
H2218 H 0.4276 0.07519 0.6477 0.0
C2219 C 0.46533 0.07469 0.56443 0.0
C2220 C 0.48715 0.06137 0.57406 0.0
C2221 C 0.45184 0.08882 0.58006 0.0
C2222 C 0.43026 0.09771 0.64133 0.0
H2223 H 0.37259 0.22187 0.63489 0.0
H2224 H 0.39305 0.18563 0.61778 0.0
H2225 H 0.40244 0.10643 0.66763 0.0
H2226 H 0.50989 0.05039 0.60862 0.0
H2227 H 0.48508 0.0746 0.63657 0.0
H2228 H 0.46228 0.14678 0.59742 0.0
C2229 C 0.39121 0.18476 0.63817 0.0
C2230 C 0.41583 0.11561 0.65265 0.0
C2231 C 0.37921 0.20543 0.64793 0.0
C2232 C 0.49335 0.06045 0.60051 0.0
C2233 C 0.47925 0.07439 0.61645 0.0
C2234 C 0.44955 0.13779 0.61297 0.0
C2235 C 0.40154 0.16394 0.65445 0.0
C2236 C 0.41781 0.1447 0.64388 0.0
C2237 C 0.45908 0.08961 0.60606 0.0
C2238 C 0.44684 0.10859 0.62104 0.0
H2239 H 0.38362 0.18356 0.7109 0.0
H2240 H 0.405 0.14725 0.69382 0.0
H2241 H 0.43822 0.178 0.61748 0.0
H2242 H 0.45934 0.07553 0.54432 0.0
H2243 H 0.4362 0.10006 0.57158 0.0
C2244 C 0.81222 0.32842 0.69977 0.0
C2245 C 0.81527 0.32291 0.72615 0.0
C2246 C 0.83125 0.3491 0.68712 0.0
C2247 C 0.90276 0.38459 0.69475 0.0
H2248 H 0.88385 0.43189 0.6354 0.0
C2249 C 0.98452 0.45709 0.63495 0.0
C2250 C 0.98068 0.45213 0.609 0.0
C2251 C 0.96347 0.44691 0.65138 0.0
C2252 C 0.88939 0.41894 0.65208 0.0
H2253 H 0.84054 0.33345 0.76013 0.0
H2254 H 0.87328 0.37021 0.73834 0.0
H2255 H 0.84791 0.40265 0.66002 0.0
H2256 H 0.95124 0.43434 0.57967 0.0
H2257 H 0.91535 0.41659 0.60807 0.0
H2258 H 0.94419 0.40029 0.68641 0.0
C2259 C 0.85644 0.3587 0.72725 0.0
C2260 C 0.86884 0.40207 0.66605 0.0
C2261 C 0.83758 0.33794 0.73977 0.0
C2262 C 0.95516 0.43814 0.59965 0.0
C2263 C 0.93431 0.42827 0.61587 0.0
C2264 C 0.92328 0.40156 0.68088 0.0
C2265 C 0.85375 0.36423 0.70073 0.0
C2266 C 0.87532 0.38425 0.68722 0.0
C2267 C 0.9383 0.43213 0.64194 0.0
C2268 C 0.91679 0.41836 0.65908 0.0
H2269 H 0.79536 0.31647 0.68897 0.0
H2270 H 0.82885 0.35246 0.66661 0.0
H2271 H 0.90849 0.37075 0.71071 0.0
H2272 H 1.00389 0.46798 0.64262 0.0
H2273 H 0.96696 0.45022 0.67148 0.0
C2274 C 0.21693 0.71579 0.71973 0.0
C2275 C 0.22808 0.74432 0.71258 0.0
C2276 C 0.20157 0.69885 0.70225 0.0
C2277 C 0.20015 0.67055 0.65202 0.0
H2278 H 0.12166 0.65154 0.64842 0.0
C2279 C 0.13924 0.57258 0.60589 0.0
C2280 C 0.11217 0.56398 0.6123 0.0
C2281 C 0.15574 0.59457 0.61811 0.0
C2282 C 0.14361 0.65637 0.64963 0.0
H2283 H 0.23115 0.77835 0.68235 0.0
H2284 H 0.20425 0.74751 0.65072 0.0
H2285 H 0.14422 0.69755 0.66337 0.0
H2286 H 0.08271 0.56603 0.63984 0.0
H2287 H 0.11261 0.60284 0.6631 0.0
H2288 H 0.2001 0.62845 0.64139 0.0
C2289 C 0.20748 0.73886 0.67009 0.0
C2290 C 0.15635 0.68308 0.6572 0.0
C2291 C 0.22273 0.75621 0.68794 0.0
C2292 C 0.10349 0.57283 0.63445 0.0
C2293 C 0.12036 0.59438 0.64725 0.0
C2294 C 0.18752 0.64361 0.64511 0.0
C2295 C 0.19739 0.71006 0.67732 0.0
C2296 C 0.18463 0.68976 0.65926 0.0
C2297 C 0.14555 0.60725 0.63753 0.0
C2298 C 0.15913 0.63589 0.64466 0.0
H2299 H 0.22036 0.70639 0.73881 0.0
H2300 H 0.19373 0.67656 0.70793 0.0
H2301 H 0.2221 0.6753 0.65428 0.0
H2302 H 0.14629 0.56546 0.58897 0.0
H2303 H 0.1751 0.60359 0.61025 0.0
loop_
_geom_bond_atom_site_label_1
_geom_bond_atom_site_label_2
_geom_bond_distance
_geom_bond_site_symmetry_2
_ccdc_geom_bond_type
Gd0 N31 2.661 . S
Gd0 N37 2.601 . S
Gd0 O44 2.545 . S
Gd0 O45 2.606 . S
Gd0 O47 2.429 . S
Gd0 O48 2.545 . S
Gd0 O49 2.412 . S
Gd0 O51 2.362 . S
Gd0 O52 2.324 . S
Gd0 C59 2.828 . S
Gd1 N10 2.661 . S
Gd1 N14 2.601 . S
Gd1 O45 2.362 . S
Gd1 O46 2.324 . S
Gd1 O50 2.545 . S
Gd1 O51 2.606 . S
Gd1 O53 2.429 . S
Gd1 O54 2.545 . S
Gd1 O55 2.412 . S
Gd1 C68 2.828 . S
C2 C5 1.417 . S
C2 C7 1.431 . S
C2 C8 1.412 . S
C3 C6 1.437 . S
C3 C7 1.317 . S
C3 H22 0.929 . S
C4 C5 1.426 . S
C4 C6 1.413 . S
C4 N14 1.359 . S
C5 C2 1.417 . S
C5 C4 1.426 . S
C5 N10 1.350 . S
C6 C3 1.437 . S
C6 C4 1.413 . S
C6 C16 1.391 . S
C7 C2 1.431 . S
C7 C3 1.317 . S
C7 H18 0.930 . S
C8 C2 1.412 . S
C8 C9 1.355 . S
C8 H20 0.930 . S
C9 C8 1.355 . S
C9 C11 1.402 . S
C9 H21 0.930 . S
N10 Gd1 2.661 . S
N10 C5 1.350 . S
N10 C11 1.307 . S
C11 C9 1.402 . S
C11 N10 1.307 . S
C11 H12 0.930 . S
H12 C11 0.930 . S
C13 N14 1.334 . S
C13 C15 1.394 . S
C13 H17 0.930 . S
N14 Gd1 2.601 . S
N14 C4 1.359 . S
N14 C13 1.334 . S
C15 C13 1.394 . S
C15 C16 1.359 . S
C15 H27 0.930 . S
C16 C6 1.391 . S
C16 C15 1.359 . S
C16 H28 0.929 . S
H17 C13 0.930 . S
H18 C7 0.930 . S
H19 C36 0.930 . S
H20 C8 0.930 . S
H21 C9 0.930 . S
H22 C3 0.929 . S
H23 C41 0.930 . S
H24 C32 0.930 . S
H25 C33 0.930 . S
H26 C57 0.929 . S
H27 C15 0.930 . S
H28 C16 0.929 . S
H29 C58 0.930 . S
H30 C39 0.930 . S
N31 Gd0 2.661 . S
N31 C35 1.350 . S
N31 C36 1.307 . S
C32 H24 0.930 . S
C32 C33 1.355 . S
C32 C34 1.412 . S
C33 H25 0.930 . S
C33 C32 1.355 . S
C33 C36 1.402 . S
C34 C32 1.412 . S
C34 C35 1.417 . S
C34 C58 1.431 . S
C35 N31 1.350 . S
C35 C34 1.417 . S
C35 C38 1.426 . S
C36 H19 0.930 . S
C36 N31 1.307 . S
C36 C33 1.402 . S
N37 Gd0 2.601 . S
N37 C38 1.359 . S
N37 C41 1.334 . S
C38 C35 1.426 . S
C38 N37 1.359 . S
C38 C42 1.413 . S
C39 H30 0.930 . S
C39 C40 1.359 . S
C39 C41 1.394 . S
C40 C39 1.359 . S
C40 C42 1.391 . S
C40 H43 0.929 . S
C41 H23 0.930 . S
C41 N37 1.334 . S
C41 C39 1.394 . S
C42 C38 1.413 . S
C42 C40 1.391 . S
C42 C57 1.437 . S
H43 C40 0.929 . S
O44 Gd0 2.545 . S
O44 C59 1.258 . S
O45 Gd0 2.606 . S
O45 Gd1 2.362 . S
O45 C56 1.284 . S
O46 Gd1 2.324 . S
O46 C66 1.254 . S
O47 Gd0 2.429 . S
O47 C66 1.268 . S
O48 Gd0 2.545 . S
O48 C56 1.250 . S
O49 Gd0 2.412 . S
O49 C59 1.252 . S
O50 Gd1 2.545 . S
O50 C68 1.258 . S
O51 Gd0 2.362 . S
O51 Gd1 2.606 . S
O51 C67 1.284 . S
O52 Gd0 2.324 . S
O52 C75 1.254 . S
O53 Gd1 2.429 . S
O53 C75 1.268 . S
O54 Gd1 2.545 . S
O54 C67 1.250 . S
O55 Gd1 2.412 . S
O55 C68 1.252 . S
C56 O45 1.284 . S
C56 O48 1.250 . S
C57 H26 0.929 . S
C57 C42 1.437 . S
C57 C58 1.317 . S
C58 H29 0.930 . S
C58 C34 1.431 . S
C58 C57 1.317 . S
C59 Gd0 2.828 . S
C59 O44 1.258 . S
C59 O49 1.252 . S
C59 C60 1.497 . S
C60 C59 1.497 . S
C60 C61 1.395 . S
C60 C62 1.380 . S
C61 C60 1.395 . S
C61 C64 1.398 . S
C61 H76 0.930 . S
C62 C60 1.380 . S
C62 C63 1.391 . S
C62 H77 0.930 . S
C63 C62 1.391 . S
C63 C65 1.387 . S
C64 C61 1.398 . S
C64 C65 1.380 . S
C64 H78 0.930 . S
C65 C63 1.387 . S
C65 C64 1.380 . S
C65 H79 0.930 . S
C66 O46 1.254 . S
C66 O47 1.268 . S
C67 O51 1.284 . S
C67 O54 1.250 . S
C68 Gd1 2.828 . S
C68 O50 1.258 . S
C68 O55 1.252 . S
C68 C69 1.497 . S
C69 C68 1.497 . S
C69 C70 1.395 . S
C69 C71 1.380 . S
C70 C69 1.395 . S
C70 C73 1.398 . S
C70 H80 0.930 . S
C71 C69 1.380 . S
C71 C72 1.391 . S
C71 H81 0.930 . S
C72 C71 1.391 . S
C72 C74 1.387 . S
C73 C70 1.398 . S
C73 C74 1.380 . S
C73 H82 0.930 . S
C74 C72 1.387 . S
C74 C73 1.380 . S
C74 H83 0.930 . S
C75 O52 1.254 . S
C75 O53 1.268 . S
H76 C61 0.930 . S
H77 C62 0.930 . S
H78 C64 0.930 . S
H79 C65 0.930 . S
H80 C70 0.930 . S
H81 C71 0.930 . S
H82 C73 0.930 . S
H83 C74 0.930 . S
Gd84 N115 2.661 . S
Gd84 N121 2.601 . S
Gd84 O128 2.545 . S
Gd84 O129 2.606 . S
Gd84 O131 2.429 . S
Gd84 O132 2.545 . S
Gd84 O133 2.412 . S
Gd84 O135 2.362 . S
Gd84 O136 2.324 . S
Gd84 C143 2.828 . S
Gd85 N94 2.661 . S
Gd85 N98 2.601 . S
Gd85 O129 2.362 . S
Gd85 O130 2.324 . S
Gd85 O134 2.545 . S
Gd85 O135 2.606 . S
Gd85 O137 2.429 . S
Gd85 O138 2.545 . S
Gd85 O139 2.412 . S
Gd85 C152 2.828 . S
C86 C89 1.417 . S
C86 C91 1.431 . S
C86 C92 1.412 . S
C87 C90 1.437 . S
C87 C91 1.317 . S
C87 H106 0.929 . S
C88 C89 1.426 . S
C88 C90 1.413 . S
C88 N98 1.359 . S
C89 C86 1.417 . S
C89 C88 1.426 . S
C89 N94 1.350 . S
C90 C87 1.437 . S
C90 C88 1.413 . S
C90 C100 1.391 . S
C91 C86 1.431 . S
C91 C87 1.317 . S
C91 H102 0.930 . S
C92 C86 1.412 . S
C92 C93 1.355 . S
C92 H104 0.930 . S
C93 C92 1.355 . S
C93 C95 1.402 . S
C93 H105 0.930 . S
N94 Gd85 2.661 . S
N94 C89 1.350 . S
N94 C95 1.307 . S
C95 C93 1.402 . S
C95 N94 1.307 . S
C95 H96 0.930 . S
H96 C95 0.930 . S
C97 N98 1.334 . S
C97 C99 1.394 . S
C97 H101 0.930 . S
N98 Gd85 2.601 . S
N98 C88 1.359 . S
N98 C97 1.334 . S
C99 C97 1.394 . S
C99 C100 1.359 . S
C99 H111 0.930 . S
C100 C90 1.391 . S
C100 C99 1.359 . S
C100 H112 0.929 . S
H101 C97 0.930 . S
H102 C91 0.930 . S
H103 C120 0.930 . S
H104 C92 0.930 . S
H105 C93 0.930 . S
H106 C87 0.929 . S
H107 C125 0.930 . S
H108 C116 0.930 . S
H109 C117 0.930 . S
H110 C141 0.929 . S
H111 C99 0.930 . S
H112 C100 0.929 . S
H113 C142 0.930 . S
H114 C123 0.930 . S
N115 Gd84 2.661 . S
N115 C119 1.350 . S
N115 C120 1.307 . S
C116 H108 0.930 . S
C116 C117 1.355 . S
C116 C118 1.412 . S
C117 H109 0.930 . S
C117 C116 1.355 . S
C117 C120 1.402 . S
C118 C116 1.412 . S
C118 C119 1.417 . S
C118 C142 1.431 . S
C119 N115 1.350 . S
C119 C118 1.417 . S
C119 C122 1.426 . S
C120 H103 0.930 . S
C120 N115 1.307 . S
C120 C117 1.402 . S
N121 Gd84 2.601 . S
N121 C122 1.359 . S
N121 C125 1.334 . S
C122 C119 1.426 . S
C122 N121 1.359 . S
C122 C126 1.413 . S
C123 H114 0.930 . S
C123 C124 1.359 . S
C123 C125 1.394 . S
C124 C123 1.359 . S
C124 C126 1.391 . S
C124 H127 0.929 . S
C125 H107 0.930 . S
C125 N121 1.334 . S
C125 C123 1.394 . S
C126 C122 1.413 . S
C126 C124 1.391 . S
C126 C141 1.437 . S
H127 C124 0.929 . S
O128 Gd84 2.545 . S
O128 C143 1.258 . S
O129 Gd84 2.606 . S
O129 Gd85 2.362 . S
O129 C140 1.284 . S
O130 Gd85 2.324 . S
O130 C150 1.254 . S
O131 Gd84 2.429 . S
O131 C150 1.268 . S
O132 Gd84 2.545 . S
O132 C140 1.250 . S
O133 Gd84 2.412 . S
O133 C143 1.252 . S
O134 Gd85 2.545 . S
O134 C152 1.258 . S
O135 Gd84 2.362 . S
O135 Gd85 2.606 . S
O135 C151 1.284 . S
O136 Gd84 2.324 . S
O136 C159 1.254 . S
O137 Gd85 2.429 . S
O137 C159 1.268 . S
O138 Gd85 2.545 . S
O138 C151 1.250 . S
O139 Gd85 2.412 . S
O139 C152 1.252 . S
C140 O129 1.284 . S
C140 O132 1.250 . S
C141 H110 0.929 . S
C141 C126 1.437 . S
C141 C142 1.317 . S
C142 H113 0.930 . S
C142 C118 1.431 . S
C142 C141 1.317 . S
C143 Gd84 2.828 . S
C143 O128 1.258 . S
C143 O133 1.252 . S
C143 C144 1.497 . S
C144 C143 1.497 . S
C144 C145 1.395 . S
C144 C146 1.380 . S
C145 C144 1.395 . S
C145 C148 1.398 . S
C145 H160 0.930 . S
C146 C144 1.380 . S
C146 C147 1.391 . S
C146 H161 0.930 . S
C147 C146 1.391 . S
C147 C149 1.387 . S
C148 C145 1.398 . S
C148 C149 1.380 . S
C148 H162 0.930 . S
C149 C147 1.387 . S
C149 C148 1.380 . S
C149 H163 0.930 . S
C150 O130 1.254 . S
C150 O131 1.268 . S
C151 O135 1.284 . S
C151 O138 1.250 . S
C152 Gd85 2.828 . S
C152 O134 1.258 . S
C152 O139 1.252 . S
C152 C153 1.497 . S
C153 C152 1.497 . S
C153 C154 1.395 . S
C153 C155 1.380 . S
C154 C153 1.395 . S
C154 C157 1.398 . S
C154 H164 0.930 . S
C155 C153 1.380 . S
C155 C156 1.391 . S
C155 H165 0.930 . S
C156 C155 1.391 . S
C156 C158 1.387 . S
C157 C154 1.398 . S
C157 C158 1.380 . S
C157 H166 0.930 . S
C158 C156 1.387 . S
C158 C157 1.380 . S
C158 H167 0.930 . S
C159 O136 1.254 . S
C159 O137 1.268 . S
H160 C145 0.930 . S
H161 C146 0.930 . S
H162 C148 0.930 . S
H163 C149 0.930 . S
H164 C154 0.930 . S
H165 C155 0.930 . S
H166 C157 0.930 . S
H167 C158 0.930 . S
Gd168 N199 2.661 . S
Gd168 N205 2.601 . S
Gd168 O212 2.545 . S
Gd168 O213 2.606 . S
Gd168 O215 2.429 . S
Gd168 O216 2.545 . S
Gd168 O217 2.412 . S
Gd168 O219 2.362 . S
Gd168 O220 2.324 . S
Gd168 C227 2.828 . S
Gd169 N178 2.661 . S
Gd169 N182 2.601 . S
Gd169 O213 2.362 . S
Gd169 O214 2.324 . S
Gd169 O218 2.545 . S
Gd169 O219 2.606 . S
Gd169 O221 2.429 . S
Gd169 O222 2.545 . S
Gd169 O223 2.412 . S
Gd169 C236 2.828 . S
C170 C173 1.417 . S
C170 C175 1.431 . S
C170 C176 1.412 . S
C171 C174 1.437 . S
C171 C175 1.317 . S
C171 H190 0.929 . S
C172 C173 1.426 . S
C172 C174 1.413 . S
C172 N182 1.359 . S
C173 C170 1.417 . S
C173 C172 1.426 . S
C173 N178 1.350 . S
C174 C171 1.437 . S
C174 C172 1.413 . S
C174 C184 1.391 . S
C175 C170 1.431 . S
C175 C171 1.317 . S
C175 H186 0.930 . S
C176 C170 1.412 . S
C176 C177 1.355 . S
C176 H188 0.930 . S
C177 C176 1.355 . S
C177 C179 1.402 . S
C177 H189 0.930 . S
N178 Gd169 2.661 . S
N178 C173 1.350 . S
N178 C179 1.307 . S
C179 C177 1.402 . S
C179 N178 1.307 . S
C179 H180 0.930 . S
H180 C179 0.930 . S
C181 N182 1.334 . S
C181 C183 1.394 . S
C181 H185 0.930 . S
N182 Gd169 2.601 . S
N182 C172 1.359 . S
N182 C181 1.334 . S
C183 C181 1.394 . S
C183 C184 1.359 . S
C183 H195 0.930 . S
C184 C174 1.391 . S
C184 C183 1.359 . S
C184 H196 0.929 . S
H185 C181 0.930 . S
H186 C175 0.930 . S
H187 C204 0.930 . S
H188 C176 0.930 . S
H189 C177 0.930 . S
H190 C171 0.929 . S
H191 C209 0.930 . S
H192 C200 0.930 . S
H193 C201 0.930 . S
H194 C225 0.929 . S
H195 C183 0.930 . S
H196 C184 0.929 . S
H197 C226 0.930 . S
H198 C207 0.930 . S
N199 Gd168 2.661 . S
N199 C203 1.350 . S
N199 C204 1.307 . S
C200 H192 0.930 . S
C200 C201 1.355 . S
C200 C202 1.412 . S
C201 H193 0.930 . S
C201 C200 1.355 . S
C201 C204 1.402 . S
C202 C200 1.412 . S
C202 C203 1.417 . S
C202 C226 1.431 . S
C203 N199 1.350 . S
C203 C202 1.417 . S
C203 C206 1.426 . S
C204 H187 0.930 . S
C204 N199 1.307 . S
C204 C201 1.402 . S
N205 Gd168 2.601 . S
N205 C206 1.359 . S
N205 C209 1.334 . S
C206 C203 1.426 . S
C206 N205 1.359 . S
C206 C210 1.413 . S
C207 H198 0.930 . S
C207 C208 1.359 . S
C207 C209 1.394 . S
C208 C207 1.359 . S
C208 C210 1.391 . S
C208 H211 0.929 . S
C209 H191 0.930 . S
C209 N205 1.334 . S
C209 C207 1.394 . S
C210 C206 1.413 . S
C210 C208 1.391 . S
C210 C225 1.437 . S
H211 C208 0.929 . S
O212 Gd168 2.545 . S
O212 C227 1.258 . S
O213 Gd168 2.606 . S
O213 Gd169 2.362 . S
O213 C224 1.284 . S
O214 Gd169 2.324 . S
O214 C234 1.254 . S
O215 Gd168 2.429 . S
O215 C234 1.268 . S
O216 Gd168 2.545 . S
O216 C224 1.250 . S
O217 Gd168 2.412 . S
O217 C227 1.252 . S
O218 Gd169 2.545 . S
O218 C236 1.258 . S
O219 Gd168 2.362 . S
O219 Gd169 2.606 . S
O219 C235 1.284 . S
O220 Gd168 2.324 . S
O220 C243 1.254 . S
O221 Gd169 2.429 . S
O221 C243 1.268 . S
O222 Gd169 2.545 . S
O222 C235 1.250 . S
O223 Gd169 2.412 . S
O223 C236 1.252 . S
C224 O213 1.284 . S
C224 O216 1.250 . S
C225 H194 0.929 . S
C225 C210 1.437 . S
C225 C226 1.317 . S
C226 H197 0.930 . S
C226 C202 1.431 . S
C226 C225 1.317 . S
C227 Gd168 2.828 . S
C227 O212 1.258 . S
C227 O217 1.252 . S
C227 C228 1.497 . S
C228 C227 1.497 . S
C228 C229 1.395 . S
C228 C230 1.380 . S
C229 C228 1.395 . S
C229 C232 1.398 . S
C229 H244 0.930 . S
C230 C228 1.380 . S
C230 C231 1.391 . S
C230 H245 0.930 . S
C231 C230 1.391 . S
C231 C233 1.387 . S
C232 C229 1.398 . S
C232 C233 1.380 . S
C232 H246 0.930 . S
C233 C231 1.387 . S
C233 C232 1.380 . S
C233 H247 0.930 . S
C234 O214 1.254 . S
C234 O215 1.268 . S
C235 O219 1.284 . S
C235 O222 1.250 . S
C236 Gd169 2.828 . S
C236 O218 1.258 . S
C236 O223 1.252 . S
C236 C237 1.497 . S
C237 C236 1.497 . S
C237 C238 1.395 . S
C237 C239 1.380 . S
C238 C237 1.395 . S
C238 C241 1.398 . S
C238 H248 0.930 . S
C239 C237 1.380 . S
C239 C240 1.391 . S
C239 H249 0.930 . S
C240 C239 1.391 . S
C240 C242 1.387 . S
C241 C238 1.398 . S
C241 C242 1.380 . S
C241 H250 0.930 . S
C242 C240 1.387 . S
C242 C241 1.380 . S
C242 H251 0.930 . S
C243 O220 1.254 . S
C243 O221 1.268 . S
H244 C229 0.930 . S
H245 C230 0.930 . S
H246 C232 0.930 . S
H247 C233 0.930 . S
H248 C238 0.930 . S
H249 C239 0.930 . S
H250 C241 0.930 . S
H251 C242 0.930 . S
Gd252 N283 2.661 . S
Gd252 N289 2.601 . S
Gd252 O296 2.545 . S
Gd252 O297 2.606 . S
Gd252 O299 2.429 . S
Gd252 O300 2.545 . S
Gd252 O301 2.412 . S
Gd252 O303 2.362 . S
Gd252 O304 2.324 . S
Gd252 C311 2.828 . S
Gd253 N262 2.661 . S
Gd253 N266 2.601 . S
Gd253 O297 2.362 . S
Gd253 O298 2.324 . S
Gd253 O302 2.545 . S
Gd253 O303 2.606 . S
Gd253 O305 2.429 . S
Gd253 O306 2.545 . S
Gd253 O307 2.412 . S
Gd253 C320 2.828 . S
C254 C257 1.417 . S
C254 C259 1.431 . S
C254 C260 1.412 . S
C255 C258 1.437 . S
C255 C259 1.317 . S
C255 H274 0.929 . S
C256 C257 1.426 . S
C256 C258 1.413 . S
C256 N266 1.359 . S
C257 C254 1.417 . S
C257 C256 1.426 . S
C257 N262 1.350 . S
C258 C255 1.437 . S
C258 C256 1.413 . S
C258 C268 1.391 . S
C259 C254 1.431 . S
C259 C255 1.317 . S
C259 H270 0.930 . S
C260 C254 1.412 . S
C260 C261 1.355 . S
C260 H272 0.930 . S
C261 C260 1.355 . S
C261 C263 1.402 . S
C261 H273 0.930 . S
N262 Gd253 2.661 . S
N262 C257 1.350 . S
N262 C263 1.307 . S
C263 C261 1.402 . S
C263 N262 1.307 . S
C263 H264 0.930 . S
H264 C263 0.930 . S
C265 N266 1.334 . S
C265 C267 1.394 . S
C265 H269 0.930 . S
N266 Gd253 2.601 . S
N266 C256 1.359 . S
N266 C265 1.334 . S
C267 C265 1.394 . S
C267 C268 1.359 . S
C267 H279 0.930 . S
C268 C258 1.391 . S
C268 C267 1.359 . S
C268 H280 0.929 . S
H269 C265 0.930 . S
H270 C259 0.930 . S
H271 C288 0.930 . S
H272 C260 0.930 . S
H273 C261 0.930 . S
H274 C255 0.929 . S
H275 C293 0.930 . S
H276 C284 0.930 . S
H277 C285 0.930 . S
H278 C309 0.929 . S
H279 C267 0.930 . S
H280 C268 0.929 . S
H281 C310 0.930 . S
H282 C291 0.930 . S
N283 Gd252 2.661 . S
N283 C287 1.350 . S
N283 C288 1.307 . S
C284 H276 0.930 . S
C284 C285 1.355 . S
C284 C286 1.412 . S
C285 H277 0.930 . S
C285 C284 1.355 . S
C285 C288 1.402 . S
C286 C284 1.412 . S
C286 C287 1.417 . S
C286 C310 1.431 . S
C287 N283 1.350 . S
C287 C286 1.417 . S
C287 C290 1.426 . S
C288 H271 0.930 . S
C288 N283 1.307 . S
C288 C285 1.402 . S
N289 Gd252 2.601 . S
N289 C290 1.359 . S
N289 C293 1.334 . S
C290 C287 1.426 . S
C290 N289 1.359 . S
C290 C294 1.413 . S
C291 H282 0.930 . S
C291 C292 1.359 . S
C291 C293 1.394 . S
C292 C291 1.359 . S
C292 C294 1.391 . S
C292 H295 0.929 . S
C293 H275 0.930 . S
C293 N289 1.334 . S
C293 C291 1.394 . S
C294 C290 1.413 . S
C294 C292 1.391 . S
C294 C309 1.437 . S
H295 C292 0.929 . S
O296 Gd252 2.545 . S
O296 C311 1.258 . S
O297 Gd252 2.606 . S
O297 Gd253 2.362 . S
O297 C308 1.284 . S
O298 Gd253 2.324 . S
O298 C318 1.254 . S
O299 Gd252 2.429 . S
O299 C318 1.268 . S
O300 Gd252 2.545 . S
O300 C308 1.250 . S
O301 Gd252 2.412 . S
O301 C311 1.252 . S
O302 Gd253 2.545 . S
O302 C320 1.258 . S
O303 Gd252 2.362 . S
O303 Gd253 2.606 . S
O303 C319 1.284 . S
O304 Gd252 2.324 . S
O304 C327 1.254 . S
O305 Gd253 2.429 . S
O305 C327 1.268 . S
O306 Gd253 2.545 . S
O306 C319 1.250 . S
O307 Gd253 2.412 . S
O307 C320 1.252 . S
C308 O297 1.284 . S
C308 O300 1.250 . S
C309 H278 0.929 . S
C309 C294 1.437 . S
C309 C310 1.317 . S
C310 H281 0.930 . S
C310 C286 1.431 . S
C310 C309 1.317 . S
C311 Gd252 2.828 . S
C311 O296 1.258 . S
C311 O301 1.252 . S
C311 C312 1.497 . S
C312 C311 1.497 . S
C312 C313 1.395 . S
C312 C314 1.380 . S
C313 C312 1.395 . S
C313 C316 1.398 . S
C313 H328 0.930 . S
C314 C312 1.380 . S
C314 C315 1.391 . S
C314 H329 0.930 . S
C315 C314 1.391 . S
C315 C317 1.387 . S
C316 C313 1.398 . S
C316 C317 1.380 . S
C316 H330 0.930 . S
C317 C315 1.387 . S
C317 C316 1.380 . S
C317 H331 0.930 . S
C318 O298 1.254 . S
C318 O299 1.268 . S
C319 O303 1.284 . S
C319 O306 1.250 . S
C320 Gd253 2.828 . S
C320 O302 1.258 . S
C320 O307 1.252 . S
C320 C321 1.497 . S
C321 C320 1.497 . S
C321 C322 1.395 . S
C321 C323 1.380 . S
C322 C321 1.395 . S
C322 C325 1.398 . S
C322 H332 0.930 . S
C323 C321 1.380 . S
C323 C324 1.391 . S
C323 H333 0.930 . S
C324 C323 1.391 . S
C324 C326 1.387 . S
C325 C322 1.398 . S
C325 C326 1.380 . S
C325 H334 0.930 . S
C326 C324 1.387 . S
C326 C325 1.380 . S
C326 H335 0.930 . S
C327 O304 1.254 . S
C327 O305 1.268 . S
H328 C313 0.930 . S
H329 C314 0.930 . S
H330 C316 0.930 . S
H331 C317 0.930 . S
H332 C322 0.930 . S
H333 C323 0.930 . S
H334 C325 0.930 . S
H335 C326 0.930 . S
Gd336 N367 2.661 . S
Gd336 N373 2.601 . S
Gd336 O380 2.545 . S
Gd336 O381 2.606 . S
Gd336 O383 2.429 . S
Gd336 O384 2.545 . S
Gd336 O385 2.412 . S
Gd336 O387 2.362 . S
Gd336 O388 2.324 . S
Gd336 C395 2.828 . S
Gd337 N346 2.661 . S
Gd337 N350 2.601 . S
Gd337 O381 2.362 . S
Gd337 O382 2.324 . S
Gd337 O386 2.545 . S
Gd337 O387 2.606 . S
Gd337 O389 2.429 . S
Gd337 O390 2.545 . S
Gd337 O391 2.412 . S
Gd337 C404 2.828 . S
C338 C341 1.417 . S
C338 C343 1.431 . S
C338 C344 1.412 . S
C339 C342 1.437 . S
C339 C343 1.317 . S
C339 H358 0.929 . S
C340 C341 1.426 . S
C340 C342 1.413 . S
C340 N350 1.359 . S
C341 C338 1.417 . S
C341 C340 1.426 . S
C341 N346 1.350 . S
C342 C339 1.437 . S
C342 C340 1.413 . S
C342 C352 1.391 . S
C343 C338 1.431 . S
C343 C339 1.317 . S
C343 H354 0.930 . S
C344 C338 1.412 . S
C344 C345 1.355 . S
C344 H356 0.930 . S
C345 C344 1.355 . S
C345 C347 1.402 . S
C345 H357 0.930 . S
N346 Gd337 2.661 . S
N346 C341 1.350 . S
N346 C347 1.307 . S
C347 C345 1.402 . S
C347 N346 1.307 . S
C347 H348 0.930 . S
H348 C347 0.930 . S
C349 N350 1.334 . S
C349 C351 1.394 . S
C349 H353 0.930 . S
N350 Gd337 2.601 . S
N350 C340 1.359 . S
N350 C349 1.334 . S
C351 C349 1.394 . S
C351 C352 1.359 . S
C351 H363 0.930 . S
C352 C342 1.391 . S
C352 C351 1.359 . S
C352 H364 0.929 . S
H353 C349 0.930 . S
H354 C343 0.930 . S
H355 C372 0.930 . S
H356 C344 0.930 . S
H357 C345 0.930 . S
H358 C339 0.929 . S
H359 C377 0.930 . S
H360 C368 0.930 . S
H361 C369 0.930 . S
H362 C393 0.929 . S
H363 C351 0.930 . S
H364 C352 0.929 . S
H365 C394 0.930 . S
H366 C375 0.930 . S
N367 Gd336 2.661 . S
N367 C371 1.350 . S
N367 C372 1.307 . S
C368 H360 0.930 . S
C368 C369 1.355 . S
C368 C370 1.412 . S
C369 H361 0.930 . S
C369 C368 1.355 . S
C369 C372 1.402 . S
C370 C368 1.412 . S
C370 C371 1.417 . S
C370 C394 1.431 . S
C371 N367 1.350 . S
C371 C370 1.417 . S
C371 C374 1.426 . S
C372 H355 0.930 . S
C372 N367 1.307 . S
C372 C369 1.402 . S
N373 Gd336 2.601 . S
N373 C374 1.359 . S
N373 C377 1.334 . S
C374 C371 1.426 . S
C374 N373 1.359 . S
C374 C378 1.413 . S
C375 H366 0.930 . S
C375 C376 1.359 . S
C375 C377 1.394 . S
C376 C375 1.359 . S
C376 C378 1.391 . S
C376 H379 0.929 . S
C377 H359 0.930 . S
C377 N373 1.334 . S
C377 C375 1.394 . S
C378 C374 1.413 . S
C378 C376 1.391 . S
C378 C393 1.437 . S
H379 C376 0.929 . S
O380 Gd336 2.545 . S
O380 C395 1.258 . S
O381 Gd336 2.606 . S
O381 Gd337 2.362 . S
O381 C392 1.284 . S
O382 Gd337 2.324 . S
O382 C402 1.254 . S
O383 Gd336 2.429 . S
O383 C402 1.268 . S
O384 Gd336 2.545 . S
O384 C392 1.250 . S
O385 Gd336 2.412 . S
O385 C395 1.252 . S
O386 Gd337 2.545 . S
O386 C404 1.258 . S
O387 Gd336 2.362 . S
O387 Gd337 2.606 . S
O387 C403 1.284 . S
O388 Gd336 2.324 . S
O388 C411 1.254 . S
O389 Gd337 2.429 . S
O389 C411 1.268 . S
O390 Gd337 2.545 . S
O390 C403 1.250 . S
O391 Gd337 2.412 . S
O391 C404 1.252 . S
C392 O381 1.284 . S
C392 O384 1.250 . S
C393 H362 0.929 . S
C393 C378 1.437 . S
C393 C394 1.317 . S
C394 H365 0.930 . S
C394 C370 1.431 . S
C394 C393 1.317 . S
C395 Gd336 2.828 . S
C395 O380 1.258 . S
C395 O385 1.252 . S
C395 C396 1.497 . S
C396 C395 1.497 . S
C396 C397 1.395 . S
C396 C398 1.380 . S
C397 C396 1.395 . S
C397 C400 1.398 . S
C397 H412 0.930 . S
C398 C396 1.380 . S
C398 C399 1.391 . S
C398 H413 0.930 . S
C399 C398 1.391 . S
C399 C401 1.387 . S
C400 C397 1.398 . S
C400 C401 1.380 . S
C400 H414 0.930 . S
C401 C399 1.387 . S
C401 C400 1.380 . S
C401 H415 0.930 . S
C402 O382 1.254 . S
C402 O383 1.268 . S
C403 O387 1.284 . S
C403 O390 1.250 . S
C404 Gd337 2.828 . S
C404 O386 1.258 . S
C404 O391 1.252 . S
C404 C405 1.497 . S
C405 C404 1.497 . S
C405 C406 1.395 . S
C405 C407 1.380 . S
C406 C405 1.395 . S
C406 C409 1.398 . S
C406 H416 0.930 . S
C407 C405 1.380 . S
C407 C408 1.391 . S
C407 H417 0.930 . S
C408 C407 1.391 . S
C408 C410 1.387 . S
C409 C406 1.398 . S
C409 C410 1.380 . S
C409 H418 0.930 . S
C410 C408 1.387 . S
C410 C409 1.380 . S
C410 H419 0.930 . S
C411 O388 1.254 . S
C411 O389 1.268 . S
H412 C397 0.930 . S
H413 C398 0.930 . S
H414 C400 0.930 . S
H415 C401 0.930 . S
H416 C406 0.930 . S
H417 C407 0.930 . S
H418 C409 0.930 . S
H419 C410 0.930 . S
Gd420 N451 2.661 . S
Gd420 N457 2.601 . S
Gd420 O464 2.545 . S
Gd420 O465 2.606 . S
Gd420 O467 2.429 . S
Gd420 O468 2.545 . S
Gd420 O469 2.412 . S
Gd420 O471 2.362 . S
Gd420 O472 2.324 . S
Gd420 C479 2.828 . S
Gd421 N430 2.661 . S
Gd421 N434 2.601 . S
Gd421 O465 2.362 . S
Gd421 O466 2.324 . S
Gd421 O470 2.545 . S
Gd421 O471 2.606 . S
Gd421 O473 2.429 . S
Gd421 O474 2.545 . S
Gd421 O475 2.412 . S
Gd421 C488 2.828 . S
C422 C425 1.417 . S
C422 C427 1.431 . S
C422 C428 1.412 . S
C423 C426 1.437 . S
C423 C427 1.317 . S
C423 H442 0.929 . S
C424 C425 1.426 . S
C424 C426 1.413 . S
C424 N434 1.359 . S
C425 C422 1.417 . S
C425 C424 1.426 . S
C425 N430 1.350 . S
C426 C423 1.437 . S
C426 C424 1.413 . S
C426 C436 1.391 . S
C427 C422 1.431 . S
C427 C423 1.317 . S
C427 H438 0.930 . S
C428 C422 1.412 . S
C428 C429 1.355 . S
C428 H440 0.930 . S
C429 C428 1.355 . S
C429 C431 1.402 . S
C429 H441 0.930 . S
N430 Gd421 2.661 . S
N430 C425 1.350 . S
N430 C431 1.307 . S
C431 C429 1.402 . S
C431 N430 1.307 . S
C431 H432 0.930 . S
H432 C431 0.930 . S
C433 N434 1.334 . S
C433 C435 1.394 . S
C433 H437 0.930 . S
N434 Gd421 2.601 . S
N434 C424 1.359 . S
N434 C433 1.334 . S
C435 C433 1.394 . S
C435 C436 1.359 . S
C435 H447 0.930 . S
C436 C426 1.391 . S
C436 C435 1.359 . S
C436 H448 0.929 . S
H437 C433 0.930 . S
H438 C427 0.930 . S
H439 C456 0.930 . S
H440 C428 0.930 . S
H441 C429 0.930 . S
H442 C423 0.929 . S
H443 C461 0.930 . S
H444 C452 0.930 . S
H445 C453 0.930 . S
H446 C477 0.929 . S
H447 C435 0.930 . S
H448 C436 0.929 . S
H449 C478 0.930 . S
H450 C459 0.930 . S
N451 Gd420 2.661 . S
N451 C455 1.350 . S
N451 C456 1.307 . S
C452 H444 0.930 . S
C452 C453 1.355 . S
C452 C454 1.412 . S
C453 H445 0.930 . S
C453 C452 1.355 . S
C453 C456 1.402 . S
C454 C452 1.412 . S
C454 C455 1.417 . S
C454 C478 1.431 . S
C455 N451 1.350 . S
C455 C454 1.417 . S
C455 C458 1.426 . S
C456 H439 0.930 . S
C456 N451 1.307 . S
C456 C453 1.402 . S
N457 Gd420 2.601 . S
N457 C458 1.359 . S
N457 C461 1.334 . S
C458 C455 1.426 . S
C458 N457 1.359 . S
C458 C462 1.413 . S
C459 H450 0.930 . S
C459 C460 1.359 . S
C459 C461 1.394 . S
C460 C459 1.359 . S
C460 C462 1.391 . S
C460 H463 0.929 . S
C461 H443 0.930 . S
C461 N457 1.334 . S
C461 C459 1.394 . S
C462 C458 1.413 . S
C462 C460 1.391 . S
C462 C477 1.437 . S
H463 C460 0.929 . S
O464 Gd420 2.545 . S
O464 C479 1.258 . S
O465 Gd420 2.606 . S
O465 Gd421 2.362 . S
O465 C476 1.284 . S
O466 Gd421 2.324 . S
O466 C486 1.254 . S
O467 Gd420 2.429 . S
O467 C486 1.268 . S
O468 Gd420 2.545 . S
O468 C476 1.250 . S
O469 Gd420 2.412 . S
O469 C479 1.252 . S
O470 Gd421 2.545 . S
O470 C488 1.258 . S
O471 Gd420 2.362 . S
O471 Gd421 2.606 . S
O471 C487 1.284 . S
O472 Gd420 2.324 . S
O472 C495 1.254 . S
O473 Gd421 2.429 . S
O473 C495 1.268 . S
O474 Gd421 2.545 . S
O474 C487 1.250 . S
O475 Gd421 2.412 . S
O475 C488 1.252 . S
C476 O465 1.284 . S
C476 O468 1.250 . S
C477 H446 0.929 . S
C477 C462 1.437 . S
C477 C478 1.317 . S
C478 H449 0.930 . S
C478 C454 1.431 . S
C478 C477 1.317 . S
C479 Gd420 2.828 . S
C479 O464 1.258 . S
C479 O469 1.252 . S
C479 C480 1.497 . S
C480 C479 1.497 . S
C480 C481 1.395 . S
C480 C482 1.380 . S
C481 C480 1.395 . S
C481 C484 1.398 . S
C481 H496 0.930 . S
C482 C480 1.380 . S
C482 C483 1.391 . S
C482 H497 0.930 . S
C483 C482 1.391 . S
C483 C485 1.387 . S
C484 C481 1.398 . S
C484 C485 1.380 . S
C484 H498 0.930 . S
C485 C483 1.387 . S
C485 C484 1.380 . S
C485 H499 0.930 . S
C486 O466 1.254 . S
C486 O467 1.268 . S
C487 O471 1.284 . S
C487 O474 1.250 . S
C488 Gd421 2.828 . S
C488 O470 1.258 . S
C488 O475 1.252 . S
C488 C489 1.497 . S
C489 C488 1.497 . S
C489 C490 1.395 . S
C489 C491 1.380 . S
C490 C489 1.395 . S
C490 C493 1.398 . S
C490 H500 0.930 . S
C491 C489 1.380 . S
C491 C492 1.391 . S
C491 H501 0.930 . S
C492 C491 1.391 . S
C492 C494 1.387 . S
C493 C490 1.398 . S
C493 C494 1.380 . S
C493 H502 0.930 . S
C494 C492 1.387 . S
C494 C493 1.380 . S
C494 H503 0.930 . S
C495 O472 1.254 . S
C495 O473 1.268 . S
H496 C481 0.930 . S
H497 C482 0.930 . S
H498 C484 0.930 . S
H499 C485 0.930 . S
H500 C490 0.930 . S
H501 C491 0.930 . S
H502 C493 0.930 . S
H503 C494 0.930 . S
Gd504 N535 2.661 . S
Gd504 N541 2.601 . S
Gd504 O548 2.545 . S
Gd504 O549 2.606 . S
Gd504 O551 2.429 . S
Gd504 O552 2.545 . S
Gd504 O553 2.412 . S
Gd504 O555 2.362 . S
Gd504 O556 2.324 . S
Gd504 C563 2.828 . S
Gd505 N514 2.661 . S
Gd505 N518 2.601 . S
Gd505 O549 2.362 . S
Gd505 O550 2.324 . S
Gd505 O554 2.545 . S
Gd505 O555 2.606 . S
Gd505 O557 2.429 . S
Gd505 O558 2.545 . S
Gd505 O559 2.412 . S
Gd505 C572 2.828 . S
C506 C509 1.417 . S
C506 C511 1.431 . S
C506 C512 1.412 . S
C507 C510 1.437 . S
C507 C511 1.317 . S
C507 H526 0.929 . S
C508 C509 1.426 . S
C508 C510 1.413 . S
C508 N518 1.359 . S
C509 C506 1.417 . S
C509 C508 1.426 . S
C509 N514 1.350 . S
C510 C507 1.437 . S
C510 C508 1.413 . S
C510 C520 1.391 . S
C511 C506 1.431 . S
C511 C507 1.317 . S
C511 H522 0.930 . S
C512 C506 1.412 . S
C512 C513 1.355 . S
C512 H524 0.930 . S
C513 C512 1.355 . S
C513 C515 1.402 . S
C513 H525 0.930 . S
N514 Gd505 2.661 . S
N514 C509 1.350 . S
N514 C515 1.307 . S
C515 C513 1.402 . S
C515 N514 1.307 . S
C515 H516 0.930 . S
H516 C515 0.930 . S
C517 N518 1.334 . S
C517 C519 1.394 . S
C517 H521 0.930 . S
N518 Gd505 2.601 . S
N518 C508 1.359 . S
N518 C517 1.334 . S
C519 C517 1.394 . S
C519 C520 1.359 . S
C519 H531 0.930 . S
C520 C510 1.391 . S
C520 C519 1.359 . S
C520 H532 0.929 . S
H521 C517 0.930 . S
H522 C511 0.930 . S
H523 C540 0.930 . S
H524 C512 0.930 . S
H525 C513 0.930 . S
H526 C507 0.929 . S
H527 C545 0.930 . S
H528 C536 0.930 . S
H529 C537 0.930 . S
H530 C561 0.929 . S
H531 C519 0.930 . S
H532 C520 0.929 . S
H533 C562 0.930 . S
H534 C543 0.930 . S
N535 Gd504 2.661 . S
N535 C539 1.350 . S
N535 C540 1.307 . S
C536 H528 0.930 . S
C536 C537 1.355 . S
C536 C538 1.412 . S
C537 H529 0.930 . S
C537 C536 1.355 . S
C537 C540 1.402 . S
C538 C536 1.412 . S
C538 C539 1.417 . S
C538 C562 1.431 . S
C539 N535 1.350 . S
C539 C538 1.417 . S
C539 C542 1.426 . S
C540 H523 0.930 . S
C540 N535 1.307 . S
C540 C537 1.402 . S
N541 Gd504 2.601 . S
N541 C542 1.359 . S
N541 C545 1.334 . S
C542 C539 1.426 . S
C542 N541 1.359 . S
C542 C546 1.413 . S
C543 H534 0.930 . S
C543 C544 1.359 . S
C543 C545 1.394 . S
C544 C543 1.359 . S
C544 C546 1.391 . S
C544 H547 0.929 . S
C545 H527 0.930 . S
C545 N541 1.334 . S
C545 C543 1.394 . S
C546 C542 1.413 . S
C546 C544 1.391 . S
C546 C561 1.437 . S
H547 C544 0.929 . S
O548 Gd504 2.545 . S
O548 C563 1.258 . S
O549 Gd504 2.606 . S
O549 Gd505 2.362 . S
O549 C560 1.284 . S
O550 Gd505 2.324 . S
O550 C570 1.254 . S
O551 Gd504 2.429 . S
O551 C570 1.268 . S
O552 Gd504 2.545 . S
O552 C560 1.250 . S
O553 Gd504 2.412 . S
O553 C563 1.252 . S
O554 Gd505 2.545 . S
O554 C572 1.258 . S
O555 Gd504 2.362 . S
O555 Gd505 2.606 . S
O555 C571 1.284 . S
O556 Gd504 2.324 . S
O556 C579 1.254 . S
O557 Gd505 2.429 . S
O557 C579 1.268 . S
O558 Gd505 2.545 . S
O558 C571 1.250 . S
O559 Gd505 2.412 . S
O559 C572 1.252 . S
C560 O549 1.284 . S
C560 O552 1.250 . S
C561 H530 0.929 . S
C561 C546 1.437 . S
C561 C562 1.317 . S
C562 H533 0.930 . S
C562 C538 1.431 . S
C562 C561 1.317 . S
C563 Gd504 2.828 . S
C563 O548 1.258 . S
C563 O553 1.252 . S
C563 C564 1.497 . S
C564 C563 1.497 . S
C564 C565 1.395 . S
C564 C566 1.380 . S
C565 C564 1.395 . S
C565 C568 1.398 . S
C565 H580 0.930 . S
C566 C564 1.380 . S
C566 C567 1.391 . S
C566 H581 0.930 . S
C567 C566 1.391 . S
C567 C569 1.387 . S
C568 C565 1.398 . S
C568 C569 1.380 . S
C568 H582 0.930 . S
C569 C567 1.387 . S
C569 C568 1.380 . S
C569 H583 0.930 . S
C570 O550 1.254 . S
C570 O551 1.268 . S
C571 O555 1.284 . S
C571 O558 1.250 . S
C572 Gd505 2.828 . S
C572 O554 1.258 . S
C572 O559 1.252 . S
C572 C573 1.497 . S
C573 C572 1.497 . S
C573 C574 1.395 . S
C573 C575 1.380 . S
C574 C573 1.395 . S
C574 C577 1.398 . S
C574 H584 0.930 . S
C575 C573 1.380 . S
C575 C576 1.391 . S
C575 H585 0.930 . S
C576 C575 1.391 . S
C576 C578 1.387 . S
C577 C574 1.398 . S
C577 C578 1.380 . S
C577 H586 0.930 . S
C578 C576 1.387 . S
C578 C577 1.380 . S
C578 H587 0.930 . S
C579 O556 1.254 . S
C579 O557 1.268 . S
H580 C565 0.930 . S
H581 C566 0.930 . S
H582 C568 0.930 . S
H583 C569 0.930 . S
H584 C574 0.930 . S
H585 C575 0.930 . S
H586 C577 0.930 . S
H587 C578 0.930 . S
Gd588 N619 2.661 . S
Gd588 N625 2.601 . S
Gd588 O632 2.545 . S
Gd588 O633 2.606 . S
Gd588 O635 2.429 . S
Gd588 O636 2.545 . S
Gd588 O637 2.412 . S
Gd588 O639 2.362 . S
Gd588 O640 2.324 . S
Gd588 C647 2.828 . S
Gd589 N598 2.661 . S
Gd589 N602 2.601 . S
Gd589 O633 2.362 . S
Gd589 O634 2.324 . S
Gd589 O638 2.545 . S
Gd589 O639 2.606 . S
Gd589 O641 2.429 . S
Gd589 O642 2.545 . S
Gd589 O643 2.412 . S
Gd589 C656 2.828 . S
C590 C593 1.417 . S
C590 C595 1.431 . S
C590 C596 1.412 . S
C591 C594 1.437 . S
C591 C595 1.317 . S
C591 H610 0.929 . S
C592 C593 1.426 . S
C592 C594 1.413 . S
C592 N602 1.359 . S
C593 C590 1.417 . S
C593 C592 1.426 . S
C593 N598 1.350 . S
C594 C591 1.437 . S
C594 C592 1.413 . S
C594 C604 1.391 . S
C595 C590 1.431 . S
C595 C591 1.317 . S
C595 H606 0.930 . S
C596 C590 1.412 . S
C596 C597 1.355 . S
C596 H608 0.930 . S
C597 C596 1.355 . S
C597 C599 1.402 . S
C597 H609 0.930 . S
N598 Gd589 2.661 . S
N598 C593 1.350 . S
N598 C599 1.307 . S
C599 C597 1.402 . S
C599 N598 1.307 . S
C599 H600 0.930 . S
H600 C599 0.930 . S
C601 N602 1.334 . S
C601 C603 1.394 . S
C601 H605 0.930 . S
N602 Gd589 2.601 . S
N602 C592 1.359 . S
N602 C601 1.334 . S
C603 C601 1.394 . S
C603 C604 1.359 . S
C603 H615 0.930 . S
C604 C594 1.391 . S
C604 C603 1.359 . S
C604 H616 0.929 . S
H605 C601 0.930 . S
H606 C595 0.930 . S
H607 C624 0.930 . S
H608 C596 0.930 . S
H609 C597 0.930 . S
H610 C591 0.929 . S
H611 C629 0.930 . S
H612 C620 0.930 . S
H613 C621 0.930 . S
H614 C645 0.929 . S
H615 C603 0.930 . S
H616 C604 0.929 . S
H617 C646 0.930 . S
H618 C627 0.930 . S
N619 Gd588 2.661 . S
N619 C623 1.350 . S
N619 C624 1.307 . S
C620 H612 0.930 . S
C620 C621 1.355 . S
C620 C622 1.412 . S
C621 H613 0.930 . S
C621 C620 1.355 . S
C621 C624 1.402 . S
C622 C620 1.412 . S
C622 C623 1.417 . S
C622 C646 1.431 . S
C623 N619 1.350 . S
C623 C622 1.417 . S
C623 C626 1.426 . S
C624 H607 0.930 . S
C624 N619 1.307 . S
C624 C621 1.402 . S
N625 Gd588 2.601 . S
N625 C626 1.359 . S
N625 C629 1.334 . S
C626 C623 1.426 . S
C626 N625 1.359 . S
C626 C630 1.413 . S
C627 H618 0.930 . S
C627 C628 1.359 . S
C627 C629 1.394 . S
C628 C627 1.359 . S
C628 C630 1.391 . S
C628 H631 0.929 . S
C629 H611 0.930 . S
C629 N625 1.334 . S
C629 C627 1.394 . S
C630 C626 1.413 . S
C630 C628 1.391 . S
C630 C645 1.437 . S
H631 C628 0.929 . S
O632 Gd588 2.545 . S
O632 C647 1.258 . S
O633 Gd588 2.606 . S
O633 Gd589 2.362 . S
O633 C644 1.284 . S
O634 Gd589 2.324 . S
O634 C654 1.254 . S
O635 Gd588 2.429 . S
O635 C654 1.268 . S
O636 Gd588 2.545 . S
O636 C644 1.250 . S
O637 Gd588 2.412 . S
O637 C647 1.252 . S
O638 Gd589 2.545 . S
O638 C656 1.258 . S
O639 Gd588 2.362 . S
O639 Gd589 2.606 . S
O639 C655 1.284 . S
O640 Gd588 2.324 . S
O640 C663 1.254 . S
O641 Gd589 2.429 . S
O641 C663 1.268 . S
O642 Gd589 2.545 . S
O642 C655 1.250 . S
O643 Gd589 2.412 . S
O643 C656 1.252 . S
C644 O633 1.284 . S
C644 O636 1.250 . S
C645 H614 0.929 . S
C645 C630 1.437 . S
C645 C646 1.317 . S
C646 H617 0.930 . S
C646 C622 1.431 . S
C646 C645 1.317 . S
C647 Gd588 2.828 . S
C647 O632 1.258 . S
C647 O637 1.252 . S
C647 C648 1.497 . S
C648 C647 1.497 . S
C648 C649 1.395 . S
C648 C650 1.380 . S
C649 C648 1.395 . S
C649 C652 1.398 . S
C649 H664 0.930 . S
C650 C648 1.380 . S
C650 C651 1.391 . S
C650 H665 0.930 . S
C651 C650 1.391 . S
C651 C653 1.387 . S
C652 C649 1.398 . S
C652 C653 1.380 . S
C652 H666 0.930 . S
C653 C651 1.387 . S
C653 C652 1.380 . S
C653 H667 0.930 . S
C654 O634 1.254 . S
C654 O635 1.268 . S
C655 O639 1.284 . S
C655 O642 1.250 . S
C656 Gd589 2.828 . S
C656 O638 1.258 . S
C656 O643 1.252 . S
C656 C657 1.497 . S
C657 C656 1.497 . S
C657 C658 1.395 . S
C657 C659 1.380 . S
C658 C657 1.395 . S
C658 C661 1.398 . S
C658 H668 0.930 . S
C659 C657 1.380 . S
C659 C660 1.391 . S
C659 H669 0.930 . S
C660 C659 1.391 . S
C660 C662 1.387 . S
C661 C658 1.398 . S
C661 C662 1.380 . S
C661 H670 0.930 . S
C662 C660 1.387 . S
C662 C661 1.380 . S
C662 H671 0.930 . S
C663 O640 1.254 . S
C663 O641 1.268 . S
H664 C649 0.930 . S
H665 C650 0.930 . S
H666 C652 0.930 . S
H667 C653 0.930 . S
H668 C658 0.930 . S
H669 C659 0.930 . S
H670 C661 0.930 . S
H671 C662 0.930 . S
Fe672 O673 1.886 1_455 S
Fe672 O676 1.715 . S
Fe672 O681 2.077 1_455 S
Fe672 O686 1.935 . S
Fe672 O692 2.077 1_455 S
Fe672 O701 1.935 . S
O673 Fe672 1.886 1_655 S
O673 Fe675 1.715 . S
Fe674 O676 1.886 . S
Fe674 O677 1.715 1_545 S
Fe674 O684 1.936 1_545 S
Fe674 O685 2.077 . S
Fe674 O691 1.935 1_545 S
Fe674 O700 2.077 . S
Fe675 O673 1.715 . S
Fe675 O678 1.886 1_545 S
Fe675 O682 1.935 . S
Fe675 O687 2.077 1_545 S
Fe675 O693 1.935 . S
Fe675 O697 2.077 1_545 S
O676 Fe672 1.715 . S
O676 Fe674 1.886 . S
O677 Fe674 1.715 1_565 S
O677 Fe679 1.886 . S
O678 Fe675 1.886 1_565 S
O678 Fe679 1.715 1_655 S
Fe679 O677 1.886 . S
Fe679 O678 1.715 1_455 S
Fe679 O683 2.077 . S
Fe679 O688 1.935 1_455 S
Fe679 O690 2.077 . S
Fe679 O698 1.935 1_455 S
C680 O692 1.381 . S
C680 O693 1.421 . S
O681 Fe672 2.077 1_655 S
O681 C694 1.381 . S
O682 Fe675 1.935 . S
O682 C694 1.421 . S
O683 Fe679 2.077 . S
O683 C699 1.381 . S
O684 Fe674 1.936 1_565 S
O684 C699 1.419 . S
O685 Fe674 2.077 . S
O685 C689 1.381 . S
O686 Fe672 1.935 . S
O686 C689 1.421 . S
O687 Fe675 2.077 1_565 S
O687 C695 1.381 . S
O688 Fe679 1.935 1_655 S
O688 C695 1.421 . S
C689 O685 1.381 . S
C689 O686 1.421 . S
O690 Fe679 2.077 . S
O690 C702 1.381 . S
O691 Fe674 1.935 1_565 S
O691 C702 1.421 . S
O692 Fe672 2.077 1_655 S
O692 C680 1.381 . S
O693 Fe675 1.935 . S
O693 C680 1.421 . S
C694 O681 1.381 . S
C694 O682 1.421 . S
C695 O687 1.381 . S
C695 O688 1.421 . S
C696 O697 1.381 . S
C696 O698 1.421 . S
O697 Fe675 2.077 1_565 S
O697 C696 1.381 . S
O698 Fe679 1.935 1_655 S
O698 C696 1.421 . S
C699 O683 1.381 . S
C699 O684 1.419 . S
O700 Fe674 2.077 . S
O700 C703 1.381 . S
O701 Fe672 1.935 . S
O701 C703 1.421 . S
C702 O690 1.381 . S
C702 O691 1.421 . S
C703 O700 1.381 . S
C703 O701 1.421 . S
Fe704 O705 1.886 1_565 S
Fe704 O708 1.715 . S
Fe704 O713 2.077 1_554 S
Fe704 O718 1.935 1_554 S
Fe704 O724 2.077 . S
Fe704 O733 1.935 . S
O705 Fe704 1.886 1_545 S
O705 Fe707 1.715 . S
Fe706 O708 1.886 1_546 S
Fe706 O709 1.715 . S
Fe706 O716 1.943 . S
Fe706 O717 2.084 1_545 S
Fe706 O723 1.927 1_556 S
Fe706 O732 2.070 1_546 S
Fe707 O705 1.715 . S
Fe707 O710 1.884 . S
Fe707 O714 1.935 1_554 S
Fe707 O719 2.077 1_554 S
Fe707 O725 1.935 . S
Fe707 O729 2.077 . S
O708 Fe704 1.715 . S
O708 Fe706 1.886 1_564 S
O709 Fe706 1.715 . S
O709 Fe711 1.886 . S
O710 Fe707 1.884 . S
O710 Fe711 1.718 1_554 S
Fe711 O709 1.886 . S
Fe711 O710 1.718 1_556 S
Fe711 O715 2.090 . S
Fe711 O720 1.951 . S
Fe711 O722 2.063 1_556 S
Fe711 O730 1.920 1_556 S
C712 O724 1.381 . S
C712 O725 1.421 1_565 S
O713 Fe704 2.077 1_556 S
O713 C726 1.381 . S
O714 Fe707 1.935 1_556 S
O714 C726 1.421 1_545 S
O715 Fe711 2.090 . S
O715 C731 1.381 . S
O716 Fe706 1.943 . S
O716 C731 1.421 . S
O717 Fe706 2.084 1_565 S
O717 C721 1.381 . S
O718 Fe704 1.935 1_556 S
O718 C721 1.421 . S
O719 Fe707 2.077 1_556 S
O719 C727 1.381 . S
O720 Fe711 1.951 . S
O720 C727 1.421 . S
C721 O717 1.381 . S
C721 O718 1.421 . S
O722 Fe711 2.063 1_554 S
O722 C734 1.381 . S
O723 Fe706 1.927 1_554 S
O723 C734 1.421 . S
O724 Fe704 2.077 . S
O724 C712 1.381 . S
O725 Fe707 1.935 . S
O725 C712 1.421 1_545 S
C726 O713 1.381 . S
C726 O714 1.421 1_565 S
C727 O719 1.381 . S
C727 O720 1.421 . S
C728 O729 1.381 . S
C728 O730 1.421 . S
O729 Fe707 2.077 . S
O729 C728 1.381 . S
O730 Fe711 1.920 1_554 S
O730 C728 1.421 . S
C731 O715 1.381 . S
C731 O716 1.421 . S
O732 Fe706 2.070 1_564 S
O732 C735 1.381 . S
O733 Fe704 1.935 . S
O733 C735 1.421 . S
C734 O722 1.381 . S
C734 O723 1.421 . S
C735 O732 1.381 . S
C735 O733 1.421 . S
Fe736 O737 1.886 1_455 S
Fe736 O740 1.715 . S
Fe736 O745 2.077 1_455 S
Fe736 O750 1.935 . S
Fe736 O756 2.077 1_455 S
Fe736 O765 1.935 . S
O737 Fe736 1.886 1_655 S
O737 Fe739 1.715 . S
Fe738 O740 1.886 . S
Fe738 O741 1.715 . S
Fe738 O748 1.935 . S
Fe738 O749 2.077 . S
Fe738 O755 1.935 . S
Fe738 O764 2.077 . S
Fe739 O737 1.715 . S
Fe739 O742 1.886 . S
Fe739 O746 1.935 . S
Fe739 O751 2.077 . S
Fe739 O757 1.935 . S
Fe739 O761 2.077 . S
O740 Fe736 1.715 . S
O740 Fe738 1.886 . S
O741 Fe738 1.715 . S
O741 Fe743 1.886 1_455 S
O742 Fe739 1.886 . S
O742 Fe743 1.715 . S
Fe743 O741 1.886 1_655 S
Fe743 O742 1.715 . S
Fe743 O747 2.077 1_655 S
Fe743 O752 1.935 . S
Fe743 O754 2.077 1_655 S
Fe743 O762 1.935 . S
C744 O756 1.381 . S
C744 O757 1.421 . S
O745 Fe736 2.077 1_655 S
O745 C758 1.377 1_554 S
O746 Fe739 1.935 . S
O746 C758 1.418 1_554 S
O747 Fe743 2.077 1_455 S
O747 C763 1.381 . S
O748 Fe738 1.935 . S
O748 C763 1.421 . S
O749 Fe738 2.077 . S
O749 C753 1.381 . S
O750 Fe736 1.935 . S
O750 C753 1.421 . S
O751 Fe739 2.077 . S
O751 C759 1.381 . S
O752 Fe743 1.935 . S
O752 C759 1.421 . S
C753 O749 1.381 . S
C753 O750 1.421 . S
O754 Fe743 2.077 1_455 S
O754 C766 1.381 . S
O755 Fe738 1.935 . S
O755 C766 1.421 . S
O756 Fe736 2.077 1_655 S
O756 C744 1.381 . S
O757 Fe739 1.935 . S
O757 C744 1.421 . S
C758 O745 1.377 1_556 S
C758 O746 1.418 1_556 S
C759 O751 1.381 . S
C759 O752 1.421 . S
C760 O761 1.381 . S
C760 O762 1.421 . S
O761 Fe739 2.077 . S
O761 C760 1.381 . S
O762 Fe743 1.935 . S
O762 C760 1.421 . S
C763 O747 1.381 . S
C763 O748 1.421 . S
O764 Fe738 2.077 . S
O764 C767 1.381 . S
O765 Fe736 1.935 . S
O765 C767 1.421 . S
C766 O754 1.381 . S
C766 O755 1.421 . S
C767 O764 1.381 . S
C767 O765 1.421 . S
Fe768 O769 1.886 . S
Fe768 O772 1.715 . S
Fe768 O777 2.077 . S
Fe768 O782 1.935 . S
Fe768 O788 2.077 . S
Fe768 O797 1.935 . S
O769 Fe768 1.886 . S
O769 Fe771 1.715 1_556 S
Fe770 O772 1.886 1_554 S
Fe770 O773 1.715 . S
Fe770 O780 1.935 . S
Fe770 O781 2.077 1_554 S
Fe770 O787 1.935 . S
Fe770 O796 2.077 1_554 S
Fe771 O769 1.715 1_554 S
Fe771 O774 1.886 . S
Fe771 O778 1.947 . S
Fe771 O783 2.077 . S
Fe771 O789 1.935 . S
Fe771 O793 2.077 . S
O772 Fe768 1.715 . S
O772 Fe770 1.886 1_556 S
O773 Fe770 1.715 . S
O773 Fe775 1.886 . S
O774 Fe771 1.886 . S
O774 Fe775 1.715 . S
Fe775 O773 1.886 . S
Fe775 O774 1.715 . S
Fe775 O779 2.077 . S
Fe775 O784 1.935 . S
Fe775 O786 2.077 . S
Fe775 O794 1.935 . S
C776 O788 1.381 . S
C776 O789 1.421 1_556 S
O777 Fe768 2.077 . S
O777 C790 1.381 . S
O778 Fe771 1.947 . S
O778 C790 1.401 1_554 S
O779 Fe775 2.077 . S
O779 C795 1.381 . S
O780 Fe770 1.935 . S
O780 C795 1.421 . S
O781 Fe770 2.077 1_556 S
O781 C785 1.381 . S
O782 Fe768 1.935 . S
O782 C785 1.421 . S
O783 Fe771 2.077 . S
O783 C791 1.381 . S
O784 Fe775 1.935 . S
O784 C791 1.421 . S
C785 O781 1.381 . S
C785 O782 1.421 . S
O786 Fe775 2.077 . S
O786 C798 1.381 . S
O787 Fe770 1.935 . S
O787 C798 1.421 . S
O788 Fe768 2.077 . S
O788 C776 1.381 . S
O789 Fe771 1.935 . S
O789 C776 1.421 1_554 S
C790 O777 1.381 . S
C790 O778 1.401 1_556 S
C791 O783 1.381 . S
C791 O784 1.421 . S
C792 O793 1.381 . S
C792 O794 1.421 . S
O793 Fe771 2.077 . S
O793 C792 1.381 . S
O794 Fe775 1.935 . S
O794 C792 1.421 . S
C795 O779 1.381 . S
C795 O780 1.421 . S
O796 Fe770 2.077 1_556 S
O796 C799 1.381 . S
O797 Fe768 1.935 . S
O797 C799 1.421 . S
C798 O786 1.381 . S
C798 O787 1.421 . S
C799 O796 1.381 . S
C799 O797 1.421 . S
Fe800 O801 1.886 . S
Fe800 O804 1.715 . S
Fe800 O809 2.077 . S
Fe800 O814 1.935 . S
Fe800 O820 2.077 1_455 S
Fe800 O829 1.935 1_455 S
O801 Fe800 1.886 . S
O801 Fe803 1.715 . S
Fe802 O804 1.886 . S
Fe802 O805 1.715 . S
Fe802 O812 1.935 . S
Fe802 O813 2.077 . S
Fe802 O819 1.935 1_455 S
Fe802 O828 2.077 1_455 S
Fe803 O801 1.715 . S
Fe803 O806 1.886 . S
Fe803 O810 1.935 . S
Fe803 O815 2.077 . S
Fe803 O821 1.935 1_455 S
Fe803 O825 2.085 . S
O804 Fe800 1.715 . S
O804 Fe802 1.886 . S
O805 Fe802 1.715 . S
O805 Fe807 1.886 . S
O806 Fe803 1.886 . S
O806 Fe807 1.715 . S
Fe807 O805 1.886 . S
Fe807 O806 1.715 . S
Fe807 O811 2.077 . S
Fe807 O816 1.935 . S
Fe807 O818 2.077 . S
Fe807 O826 1.972 . S
C808 O820 1.381 . S
C808 O821 1.421 . S
O809 Fe800 2.077 . S
O809 C822 1.381 . S
O810 Fe803 1.935 . S
O810 C822 1.421 . S
O811 Fe807 2.077 . S
O811 C827 1.381 . S
O812 Fe802 1.935 . S
O812 C827 1.421 . S
O813 Fe802 2.077 . S
O813 C817 1.381 . S
O814 Fe800 1.935 . S
O814 C817 1.421 . S
O815 Fe803 2.077 . S
O815 C823 1.381 . S
O816 Fe807 1.935 . S
O816 C823 1.421 . S
C817 O813 1.381 . S
C817 O814 1.421 . S
O818 Fe807 2.077 . S
O818 C830 1.381 1_455 S
O819 Fe802 1.935 1_655 S
O819 C830 1.421 . S
O820 Fe800 2.077 1_655 S
O820 C808 1.381 . S
O821 Fe803 1.935 1_655 S
O821 C808 1.421 . S
C822 O809 1.381 . S
C822 O810 1.421 . S
C823 O815 1.381 . S
C823 O816 1.421 . S
C824 O825 1.377 1_655 S
C824 O826 1.411 1_655 S
O825 Fe803 2.085 . S
O825 C824 1.377 1_455 S
O826 Fe807 1.972 . S
O826 C824 1.411 1_455 S
C827 O811 1.381 . S
C827 O812 1.421 . S
O828 Fe802 2.077 1_655 S
O828 C831 1.381 . S
O829 Fe800 1.935 1_655 S
O829 C831 1.421 . S
C830 O818 1.381 1_655 S
C830 O819 1.421 . S
C831 O828 1.381 . S
C831 O829 1.421 . S
Fe832 O833 1.886 . S
Fe832 O836 1.715 . S
Fe832 O841 2.077 . S
Fe832 O846 1.935 . S
Fe832 O852 2.077 . S
Fe832 O861 1.935 . S
O833 Fe832 1.886 . S
O833 Fe835 1.715 1_565 S
Fe834 O836 1.886 1_545 S
Fe834 O837 1.715 . S
Fe834 O844 1.935 . S
Fe834 O845 2.077 1_545 S
Fe834 O851 1.935 . S
Fe834 O860 2.077 1_545 S
Fe835 O833 1.715 1_545 S
Fe835 O838 1.886 . S
Fe835 O842 1.935 1_545 S
Fe835 O847 2.077 . S
Fe835 O853 1.935 1_545 S
Fe835 O857 2.077 . S
O836 Fe832 1.715 . S
O836 Fe834 1.886 1_565 S
O837 Fe834 1.715 . S
O837 Fe839 1.886 . S
O838 Fe835 1.886 . S
O838 Fe839 1.715 . S
Fe839 O837 1.886 . S
Fe839 O838 1.715 . S
Fe839 O843 2.077 . S
Fe839 O848 1.935 . S
Fe839 O850 2.077 . S
Fe839 O858 1.935 . S
C840 O852 1.381 . S
C840 O853 1.421 . S
O841 Fe832 2.077 . S
O841 C854 1.381 . S
O842 Fe835 1.935 1_565 S
O842 C854 1.421 . S
O843 Fe839 2.077 . S
O843 C859 1.381 . S
O844 Fe834 1.935 . S
O844 C859 1.421 . S
O845 Fe834 2.077 1_565 S
O845 C849 1.381 . S
O846 Fe832 1.935 . S
O846 C849 1.421 . S
O847 Fe835 2.077 . S
O847 C855 1.381 . S
O848 Fe839 1.935 . S
O848 C855 1.421 . S
C849 O845 1.381 . S
C849 O846 1.421 . S
O850 Fe839 2.077 . S
O850 C862 1.381 . S
O851 Fe834 1.935 . S
O851 C862 1.421 . S
O852 Fe832 2.077 . S
O852 C840 1.381 . S
O853 Fe835 1.935 1_565 S
O853 C840 1.421 . S
C854 O841 1.381 . S
C854 O842 1.421 . S
C855 O847 1.381 . S
C855 O848 1.421 . S
C856 O857 1.381 . S
C856 O858 1.421 . S
O857 Fe835 2.077 . S
O857 C856 1.381 . S
O858 Fe839 1.935 . S
O858 C856 1.421 . S
C859 O843 1.381 . S
C859 O844 1.421 . S
O860 Fe834 2.077 1_565 S
O860 C863 1.381 . S
O861 Fe832 1.935 . S
O861 C863 1.421 . S
C862 O850 1.381 . S
C862 O851 1.421 . S
C863 O860 1.381 . S
C863 O861 1.421 . S
C864 C865 1.349 . S
C864 C866 1.327 . S
C864 H889 0.950 . S
C865 C864 1.349 . S
C865 C881 1.349 . S
C866 C864 1.327 . S
C866 C885 1.429 . S
C866 H890 0.950 . S
C867 C884 1.574 . S
C867 C886 1.368 . S
C867 H891 0.949 . S
H868 C872 0.949 . S
C869 C870 1.349 . S
C869 C871 1.327 . S
C869 H892 0.950 . S
C870 C869 1.349 . S
C870 C882 1.349 . S
C871 C869 1.327 . S
C871 C887 1.429 . S
C871 H893 0.950 . S
C872 H868 0.949 . S
C872 C880 1.574 . S
C872 C888 1.368 . S
H873 C881 0.950 . S
H874 C879 0.950 . S
H875 C880 0.949 . S
H876 C882 0.950 . S
H877 C883 0.950 . S
H878 C884 0.949 . S
C879 H874 0.950 . S
C879 C881 1.327 . S
C879 C885 1.429 . S
C880 C872 1.574 . S
C880 H875 0.949 . S
C880 C886 1.368 . S
C881 C865 1.349 . S
C881 H873 0.950 . S
C881 C879 1.327 . S
C882 C870 1.349 . S
C882 H876 0.950 . S
C882 C883 1.327 . S
C883 H877 0.950 . S
C883 C882 1.327 . S
C883 C887 1.429 . S
C884 C867 1.574 . S
C884 H878 0.949 . S
C884 C888 1.368 . S
C885 C866 1.429 . S
C885 C879 1.429 . S
C885 C886 1.523 . S
C886 C867 1.368 . S
C886 C880 1.368 . S
C886 C885 1.523 . S
C887 C871 1.429 . S
C887 C883 1.429 . S
C887 C888 1.523 . S
C888 C872 1.368 . S
C888 C884 1.368 . S
C888 C887 1.523 . S
H889 C864 0.950 . S
H890 C866 0.950 . S
H891 C867 0.949 . S
H892 C869 0.950 . S
H893 C871 0.950 . S
C894 C895 1.349 . S
C894 C896 1.327 . S
C894 H919 0.950 . S
C895 C894 1.349 . S
C895 C911 1.349 . S
C896 C894 1.327 . S
C896 C915 1.429 . S
C896 H920 0.950 . S
C897 C914 1.574 . S
C897 C916 1.368 . S
C897 H921 0.949 . S
H898 C902 0.949 . S
C899 C900 1.349 . S
C899 C901 1.327 . S
C899 H922 0.950 . S
C900 C899 1.349 . S
C900 C912 1.349 . S
C901 C899 1.327 . S
C901 C917 1.429 . S
C901 H923 0.950 . S
C902 H898 0.949 . S
C902 C910 1.574 . S
C902 C918 1.368 . S
H903 C911 0.950 . S
H904 C909 0.950 . S
H905 C910 0.949 . S
H906 C912 0.950 . S
H907 C913 0.950 . S
H908 C914 0.949 . S
C909 H904 0.950 . S
C909 C911 1.327 . S
C909 C915 1.429 . S
C910 C902 1.574 . S
C910 H905 0.949 . S
C910 C916 1.368 . S
C911 C895 1.349 . S
C911 H903 0.950 . S
C911 C909 1.327 . S
C912 C900 1.349 . S
C912 H906 0.950 . S
C912 C913 1.327 . S
C913 H907 0.950 . S
C913 C912 1.327 . S
C913 C917 1.429 . S
C914 C897 1.574 . S
C914 H908 0.949 . S
C914 C918 1.368 . S
C915 C896 1.429 . S
C915 C909 1.429 . S
C915 C916 1.523 . S
C916 C897 1.368 . S
C916 C910 1.368 . S
C916 C915 1.523 . S
C917 C901 1.429 . S
C917 C913 1.429 . S
C917 C918 1.523 . S
C918 C902 1.368 . S
C918 C914 1.368 . S
C918 C917 1.523 . S
H919 C894 0.950 . S
H920 C896 0.950 . S
H921 C897 0.949 . S
H922 C899 0.950 . S
H923 C901 0.950 . S
C924 C925 1.349 . S
C924 C926 1.327 . S
C924 H949 0.950 . S
C925 C924 1.349 . S
C925 C941 1.349 . S
C926 C924 1.327 . S
C926 C945 1.429 . S
C926 H950 0.950 . S
C927 C944 1.574 . S
C927 C946 1.368 . S
C927 H951 0.949 . S
H928 C932 0.949 . S
C929 C930 1.349 . S
C929 C931 1.327 . S
C929 H952 0.950 . S
C930 C929 1.349 . S
C930 C942 1.349 . S
C931 C929 1.327 . S
C931 C947 1.429 . S
C931 H953 0.950 . S
C932 H928 0.949 . S
C932 C940 1.574 . S
C932 C948 1.368 . S
H933 C941 0.950 . S
H934 C939 0.950 . S
H935 C940 0.949 . S
H936 C942 0.950 . S
H937 C943 0.950 . S
H938 C944 0.949 . S
C939 H934 0.950 . S
C939 C941 1.327 . S
C939 C945 1.429 . S
C940 C932 1.574 . S
C940 H935 0.949 . S
C940 C946 1.368 . S
C941 C925 1.349 . S
C941 H933 0.950 . S
C941 C939 1.327 . S
C942 C930 1.349 . S
C942 H936 0.950 . S
C942 C943 1.327 . S
C943 H937 0.950 . S
C943 C942 1.327 . S
C943 C947 1.429 . S
C944 C927 1.574 . S
C944 H938 0.949 . S
C944 C948 1.368 . S
C945 C926 1.429 . S
C945 C939 1.429 . S
C945 C946 1.523 . S
C946 C927 1.368 . S
C946 C940 1.368 . S
C946 C945 1.523 . S
C947 C931 1.429 . S
C947 C943 1.429 . S
C947 C948 1.523 . S
C948 C932 1.368 . S
C948 C944 1.368 . S
C948 C947 1.523 . S
H949 C924 0.950 . S
H950 C926 0.950 . S
H951 C927 0.949 . S
H952 C929 0.950 . S
H953 C931 0.950 . S
C954 C955 1.349 . S
C954 C956 1.327 . S
C954 H979 0.950 . S
C955 C954 1.349 . S
C955 C971 1.349 . S
C956 C954 1.327 . S
C956 C975 1.429 . S
C956 H980 0.950 . S
C957 C974 1.574 . S
C957 C976 1.368 . S
C957 H981 0.949 . S
H958 C962 0.949 . S
C959 C960 1.349 . S
C959 C961 1.327 . S
C959 H982 0.950 . S
C960 C959 1.349 . S
C960 C972 1.349 . S
C961 C959 1.327 . S
C961 C977 1.429 . S
C961 H983 0.950 . S
C962 H958 0.949 . S
C962 C970 1.574 . S
C962 C978 1.368 . S
H963 C971 0.950 . S
H964 C969 0.950 . S
H965 C970 0.949 . S
H966 C972 0.950 . S
H967 C973 0.950 . S
H968 C974 0.949 . S
C969 H964 0.950 . S
C969 C971 1.327 . S
C969 C975 1.429 . S
C970 C962 1.574 . S
C970 H965 0.949 . S
C970 C976 1.368 . S
C971 C955 1.349 . S
C971 H963 0.950 . S
C971 C969 1.327 . S
C972 C960 1.349 . S
C972 H966 0.950 . S
C972 C973 1.327 . S
C973 H967 0.950 . S
C973 C972 1.327 . S
C973 C977 1.429 . S
C974 C957 1.574 . S
C974 H968 0.949 . S
C974 C978 1.368 . S
C975 C956 1.429 . S
C975 C969 1.429 . S
C975 C976 1.523 . S
C976 C957 1.368 . S
C976 C970 1.368 . S
C976 C975 1.523 . S
C977 C961 1.429 . S
C977 C973 1.429 . S
C977 C978 1.523 . S
C978 C962 1.368 . S
C978 C974 1.368 . S
C978 C977 1.523 . S
H979 C954 0.950 . S
H980 C956 0.950 . S
H981 C957 0.949 . S
H982 C959 0.950 . S
H983 C961 0.950 . S
C984 C985 1.349 . S
C984 C986 1.327 . S
C984 H1009 0.950 . S
C985 C984 1.349 . S
C985 C1001 1.349 . S
C986 C984 1.327 . S
C986 C1005 1.429 . S
C986 H1010 0.950 . S
C987 C1004 1.574 . S
C987 C1006 1.368 . S
C987 H1011 0.949 . S
H988 C992 0.949 . S
C989 C990 1.349 . S
C989 C991 1.327 . S
C989 H1012 0.950 1_565 S
C990 C989 1.349 . S
C990 C1002 1.349 . S
C991 C989 1.327 . S
C991 C1007 1.429 . S
C991 H1013 0.950 . S
C992 H988 0.949 . S
C992 C1000 1.574 . S
C992 C1008 1.368 . S
H993 C1001 0.950 . S
H994 C999 0.950 . S
H995 C1000 0.949 . S
H996 C1002 0.950 . S
H997 C1003 0.950 . S
H998 C1004 0.949 . S
C999 H994 0.950 . S
C999 C1001 1.327 . S
C999 C1005 1.429 . S
C1000 C992 1.574 . S
C1000 H995 0.949 . S
C1000 C1006 1.368 . S
C1001 C985 1.349 . S
C1001 H993 0.950 . S
C1001 C999 1.327 . S
C1002 C990 1.349 . S
C1002 H996 0.950 . S
C1002 C1003 1.327 . S
C1003 H997 0.950 . S
C1003 C1002 1.327 . S
C1003 C1007 1.429 . S
C1004 C987 1.574 . S
C1004 H998 0.949 . S
C1004 C1008 1.368 . S
C1005 C986 1.429 . S
C1005 C999 1.429 . S
C1005 C1006 1.523 . S
C1006 C987 1.368 . S
C1006 C1000 1.368 . S
C1006 C1005 1.523 . S
C1007 C991 1.429 . S
C1007 C1003 1.429 . S
C1007 C1008 1.523 . S
C1008 C992 1.368 . S
C1008 C1004 1.368 . S
C1008 C1007 1.523 . S
H1009 C984 0.950 . S
H1010 C986 0.950 . S
H1011 C987 0.949 . S
H1012 C989 0.950 1_545 S
H1013 C991 0.950 . S
C1014 C1015 1.349 . S
C1014 C1016 1.327 . S
C1014 H1039 0.950 . S
C1015 C1014 1.349 . S
C1015 C1031 1.349 . S
C1016 C1014 1.327 . S
C1016 C1035 1.429 . S
C1016 H1040 0.950 . S
C1017 C1034 1.574 . S
C1017 C1036 1.368 . S
C1017 H1041 0.949 . S
H1018 C1022 0.949 . S
C1019 C1020 1.349 . S
C1019 C1021 1.327 . S
C1019 H1042 0.950 . S
C1020 C1019 1.349 . S
C1020 C1032 1.349 . S
C1021 C1019 1.327 . S
C1021 C1037 1.429 . S
C1021 H1043 0.950 . S
C1022 H1018 0.949 . S
C1022 C1030 1.574 . S
C1022 C1038 1.368 . S
H1023 C1031 0.950 . S
H1024 C1029 0.950 . S
H1025 C1030 0.949 . S
H1026 C1032 0.950 . S
H1027 C1033 0.950 . S
H1028 C1034 0.949 . S
C1029 H1024 0.950 . S
C1029 C1031 1.327 . S
C1029 C1035 1.429 . S
C1030 C1022 1.574 . S
C1030 H1025 0.949 . S
C1030 C1036 1.368 . S
C1031 C1015 1.349 . S
C1031 H1023 0.950 . S
C1031 C1029 1.327 . S
C1032 C1020 1.349 . S
C1032 H1026 0.950 . S
C1032 C1033 1.327 . S
C1033 H1027 0.950 . S
C1033 C1032 1.327 . S
C1033 C1037 1.429 . S
C1034 C1017 1.574 . S
C1034 H1028 0.949 . S
C1034 C1038 1.368 . S
C1035 C1016 1.429 . S
C1035 C1029 1.429 . S
C1035 C1036 1.523 . S
C1036 C1017 1.368 . S
C1036 C1030 1.368 . S
C1036 C1035 1.523 . S
C1037 C1021 1.429 . S
C1037 C1033 1.429 . S
C1037 C1038 1.523 . S
C1038 C1022 1.368 . S
C1038 C1034 1.368 . S
C1038 C1037 1.523 . S
H1039 C1014 0.950 . S
H1040 C1016 0.950 . S
H1041 C1017 0.949 . S
H1042 C1019 0.950 . S
H1043 C1021 0.950 . S
C1044 C1045 1.349 . S
C1044 C1046 1.327 . S
C1044 H1069 0.950 . S
C1045 C1044 1.349 . S
C1045 C1061 1.349 . S
C1046 C1044 1.327 . S
C1046 C1065 1.429 . S
C1046 H1070 0.950 . S
C1047 C1064 1.574 . S
C1047 C1066 1.368 . S
C1047 H1071 0.949 . S
H1048 C1052 0.949 . S
C1049 C1050 1.349 . S
C1049 C1051 1.327 . S
C1049 H1072 0.950 . S
C1050 C1049 1.349 . S
C1050 C1062 1.349 . S
C1051 C1049 1.327 . S
C1051 C1067 1.429 . S
C1051 H1073 0.950 . S
C1052 H1048 0.949 . S
C1052 C1060 1.574 . S
C1052 C1068 1.368 . S
H1053 C1061 0.950 . S
H1054 C1059 0.950 . S
H1055 C1060 0.949 . S
H1056 C1062 0.950 . S
H1057 C1063 0.950 . S
H1058 C1064 0.949 . S
C1059 H1054 0.950 . S
C1059 C1061 1.327 . S
C1059 C1065 1.429 . S
C1060 C1052 1.574 . S
C1060 H1055 0.949 . S
C1060 C1066 1.368 . S
C1061 C1045 1.349 . S
C1061 H1053 0.950 . S
C1061 C1059 1.327 . S
C1062 C1050 1.349 . S
C1062 H1056 0.950 . S
C1062 C1063 1.327 . S
C1063 H1057 0.950 . S
C1063 C1062 1.327 . S
C1063 C1067 1.429 . S
C1064 C1047 1.574 . S
C1064 H1058 0.949 . S
C1064 C1068 1.368 . S
C1065 C1046 1.429 . S
C1065 C1059 1.429 . S
C1065 C1066 1.523 . S
C1066 C1047 1.368 . S
C1066 C1060 1.368 . S
C1066 C1065 1.523 . S
C1067 C1051 1.429 . S
C1067 C1063 1.429 . S
C1067 C1068 1.523 . S
C1068 C1052 1.368 . S
C1068 C1064 1.368 . S
C1068 C1067 1.523 . S
H1069 C1044 0.950 . S
H1070 C1046 0.950 . S
H1071 C1047 0.949 . S
H1072 C1049 0.950 . S
H1073 C1051 0.950 . S
C1074 C1075 1.349 . S
C1074 C1076 1.327 . S
C1074 H1099 0.950 . S
C1075 C1074 1.349 . S
C1075 C1091 1.349 . S
C1076 C1074 1.327 . S
C1076 C1095 1.429 . S
C1076 H1100 0.950 . S
C1077 C1094 1.574 . S
C1077 C1096 1.368 . S
C1077 H1101 0.949 . S
H1078 C1082 0.949 . S
C1079 C1080 1.349 . S
C1079 C1081 1.327 . S
C1079 H1102 0.950 . S
C1080 C1079 1.349 . S
C1080 C1092 1.349 . S
C1081 C1079 1.327 . S
C1081 C1097 1.429 . S
C1081 H1103 0.950 . S
C1082 H1078 0.949 . S
C1082 C1090 1.574 . S
C1082 C1098 1.368 . S
H1083 C1091 0.950 . S
H1084 C1089 0.950 . S
H1085 C1090 0.949 . S
H1086 C1092 0.950 . S
H1087 C1093 0.950 . S
H1088 C1094 0.949 . S
C1089 H1084 0.950 . S
C1089 C1091 1.327 . S
C1089 C1095 1.429 . S
C1090 C1082 1.574 . S
C1090 H1085 0.949 . S
C1090 C1096 1.368 . S
C1091 C1075 1.349 . S
C1091 H1083 0.950 . S
C1091 C1089 1.327 . S
C1092 C1080 1.349 . S
C1092 H1086 0.950 . S
C1092 C1093 1.327 . S
C1093 H1087 0.950 . S
C1093 C1092 1.327 . S
C1093 C1097 1.429 . S
C1094 C1077 1.574 . S
C1094 H1088 0.949 . S
C1094 C1098 1.368 . S
C1095 C1076 1.429 . S
C1095 C1089 1.429 . S
C1095 C1096 1.523 . S
C1096 C1077 1.368 . S
C1096 C1090 1.368 . S
C1096 C1095 1.523 . S
C1097 C1081 1.429 . S
C1097 C1093 1.429 . S
C1097 C1098 1.523 . S
C1098 C1082 1.368 . S
C1098 C1094 1.368 . S
C1098 C1097 1.523 . S
H1099 C1074 0.950 . S
H1100 C1076 0.950 . S
H1101 C1077 0.949 . S
H1102 C1079 0.950 . S
H1103 C1081 0.950 . S
C1104 C1105 1.349 . S
C1104 C1106 1.327 . S
C1104 H1129 0.950 . S
C1105 C1104 1.349 . S
C1105 C1121 1.349 . S
C1106 C1104 1.327 . S
C1106 C1125 1.429 . S
C1106 H1130 0.950 . S
C1107 C1124 1.574 . S
C1107 C1126 1.368 . S
C1107 H1131 0.949 . S
H1108 C1112 0.949 . S
C1109 C1110 1.349 . S
C1109 C1111 1.327 . S
C1109 H1132 0.950 . S
C1110 C1109 1.349 . S
C1110 C1122 1.349 . S
C1111 C1109 1.327 . S
C1111 C1127 1.429 . S
C1111 H1133 0.950 . S
C1112 H1108 0.949 . S
C1112 C1120 1.574 . S
C1112 C1128 1.368 . S
H1113 C1121 0.950 . S
H1114 C1119 0.950 . S
H1115 C1120 0.949 . S
H1116 C1122 0.950 . S
H1117 C1123 0.950 . S
H1118 C1124 0.949 . S
C1119 H1114 0.950 . S
C1119 C1121 1.327 . S
C1119 C1125 1.429 . S
C1120 C1112 1.574 . S
C1120 H1115 0.949 . S
C1120 C1126 1.368 . S
C1121 C1105 1.349 . S
C1121 H1113 0.950 . S
C1121 C1119 1.327 . S
C1122 C1110 1.349 . S
C1122 H1116 0.950 . S
C1122 C1123 1.327 . S
C1123 H1117 0.950 . S
C1123 C1122 1.327 . S
C1123 C1127 1.429 . S
C1124 C1107 1.574 . S
C1124 H1118 0.949 . S
C1124 C1128 1.368 . S
C1125 C1106 1.429 . S
C1125 C1119 1.429 . S
C1125 C1126 1.523 . S
C1126 C1107 1.368 . S
C1126 C1120 1.368 . S
C1126 C1125 1.523 . S
C1127 C1111 1.429 . S
C1127 C1123 1.429 . S
C1127 C1128 1.523 . S
C1128 C1112 1.368 . S
C1128 C1124 1.368 . S
C1128 C1127 1.523 . S
H1129 C1104 0.950 . S
H1130 C1106 0.950 . S
H1131 C1107 0.949 . S
H1132 C1109 0.950 . S
H1133 C1111 0.950 . S
C1134 C1135 1.349 . S
C1134 C1136 1.327 . S
C1134 H1159 0.950 . S
C1135 C1134 1.349 . S
C1135 C1151 1.349 . S
C1136 C1134 1.327 . S
C1136 C1155 1.429 . S
C1136 H1160 0.950 . S
C1137 C1154 1.574 . S
C1137 C1156 1.368 . S
C1137 H1161 0.949 . S
H1138 C1142 0.949 . S
C1139 C1140 1.349 . S
C1139 C1141 1.327 . S
C1139 H1162 0.950 . S
C1140 C1139 1.349 . S
C1140 C1152 1.349 . S
C1141 C1139 1.327 . S
C1141 C1157 1.429 . S
C1141 H1163 0.950 . S
C1142 H1138 0.949 . S
C1142 C1150 1.574 . S
C1142 C1158 1.368 . S
H1143 C1151 0.950 . S
H1144 C1149 0.950 . S
H1145 C1150 0.949 . S
H1146 C1152 0.950 . S
H1147 C1153 0.950 . S
H1148 C1154 0.949 . S
C1149 H1144 0.950 . S
C1149 C1151 1.327 . S
C1149 C1155 1.429 . S
C1150 C1142 1.574 . S
C1150 H1145 0.949 . S
C1150 C1156 1.368 . S
C1151 C1135 1.349 . S
C1151 H1143 0.950 . S
C1151 C1149 1.327 . S
C1152 C1140 1.349 . S
C1152 H1146 0.950 . S
C1152 C1153 1.327 . S
C1153 H1147 0.950 . S
C1153 C1152 1.327 . S
C1153 C1157 1.429 . S
C1154 C1137 1.574 . S
C1154 H1148 0.949 . S
C1154 C1158 1.368 . S
C1155 C1136 1.429 . S
C1155 C1149 1.429 . S
C1155 C1156 1.523 . S
C1156 C1137 1.368 . S
C1156 C1150 1.368 . S
C1156 C1155 1.523 . S
C1157 C1141 1.429 . S
C1157 C1153 1.429 . S
C1157 C1158 1.523 . S
C1158 C1142 1.368 . S
C1158 C1154 1.368 . S
C1158 C1157 1.523 . S
H1159 C1134 0.950 . S
H1160 C1136 0.950 . S
H1161 C1137 0.949 . S
H1162 C1139 0.950 . S
H1163 C1141 0.950 . S
C1164 C1165 1.349 . S
C1164 C1166 1.327 . S
C1164 H1189 0.950 . S
C1165 C1164 1.349 . S
C1165 C1181 1.349 . S
C1166 C1164 1.327 . S
C1166 C1185 1.429 . S
C1166 H1190 0.950 . S
C1167 C1184 1.574 . S
C1167 C1186 1.368 . S
C1167 H1191 0.949 . S
H1168 C1172 0.949 . S
C1169 C1170 1.349 . S
C1169 C1171 1.327 . S
C1169 H1192 0.950 . S
C1170 C1169 1.349 . S
C1170 C1182 1.349 . S
C1171 C1169 1.327 . S
C1171 C1187 1.429 . S
C1171 H1193 0.950 . S
C1172 H1168 0.949 . S
C1172 C1180 1.574 . S
C1172 C1188 1.368 . S
H1173 C1181 0.950 . S
H1174 C1179 0.950 . S
H1175 C1180 0.949 . S
H1176 C1182 0.950 . S
H1177 C1183 0.950 . S
H1178 C1184 0.949 . S
C1179 H1174 0.950 . S
C1179 C1181 1.327 . S
C1179 C1185 1.429 . S
C1180 C1172 1.574 . S
C1180 H1175 0.949 . S
C1180 C1186 1.368 . S
C1181 C1165 1.349 . S
C1181 H1173 0.950 . S
C1181 C1179 1.327 . S
C1182 C1170 1.349 . S
C1182 H1176 0.950 . S
C1182 C1183 1.327 . S
C1183 H1177 0.950 . S
C1183 C1182 1.327 . S
C1183 C1187 1.429 . S
C1184 C1167 1.574 . S
C1184 H1178 0.949 . S
C1184 C1188 1.368 . S
C1185 C1166 1.429 . S
C1185 C1179 1.429 . S
C1185 C1186 1.523 . S
C1186 C1167 1.368 . S
C1186 C1180 1.368 . S
C1186 C1185 1.523 . S
C1187 C1171 1.429 . S
C1187 C1183 1.429 . S
C1187 C1188 1.523 . S
C1188 C1172 1.368 . S
C1188 C1184 1.368 . S
C1188 C1187 1.523 . S
H1189 C1164 0.950 . S
H1190 C1166 0.950 . S
H1191 C1167 0.949 . S
H1192 C1169 0.950 . S
H1193 C1171 0.950 . S
C1194 C1195 1.349 . S
C1194 C1196 1.327 . S
C1194 H1219 0.950 . S
C1195 C1194 1.349 . S
C1195 C1211 1.349 . S
C1196 C1194 1.327 . S
C1196 C1215 1.429 . S
C1196 H1220 0.950 . S
C1197 C1214 1.574 . S
C1197 C1216 1.368 . S
C1197 H1221 0.949 . S
H1198 C1202 0.949 . S
C1199 C1200 1.349 . S
C1199 C1201 1.327 . S
C1199 H1222 0.950 . S
C1200 C1199 1.349 . S
C1200 C1212 1.349 . S
C1201 C1199 1.327 . S
C1201 C1217 1.429 . S
C1201 H1223 0.950 . S
C1202 H1198 0.949 . S
C1202 C1210 1.574 . S
C1202 C1218 1.368 . S
H1203 C1211 0.950 . S
H1204 C1209 0.950 . S
H1205 C1210 0.949 . S
H1206 C1212 0.950 . S
H1207 C1213 0.950 . S
H1208 C1214 0.949 . S
C1209 H1204 0.950 . S
C1209 C1211 1.327 . S
C1209 C1215 1.429 . S
C1210 C1202 1.574 . S
C1210 H1205 0.949 . S
C1210 C1216 1.368 . S
C1211 C1195 1.349 . S
C1211 H1203 0.950 . S
C1211 C1209 1.327 . S
C1212 C1200 1.349 . S
C1212 H1206 0.950 . S
C1212 C1213 1.327 . S
C1213 H1207 0.950 . S
C1213 C1212 1.327 . S
C1213 C1217 1.429 . S
C1214 C1197 1.574 . S
C1214 H1208 0.949 . S
C1214 C1218 1.368 . S
C1215 C1196 1.429 . S
C1215 C1209 1.429 . S
C1215 C1216 1.523 . S
C1216 C1197 1.368 . S
C1216 C1210 1.368 . S
C1216 C1215 1.523 . S
C1217 C1201 1.429 . S
C1217 C1213 1.429 . S
C1217 C1218 1.523 . S
C1218 C1202 1.368 . S
C1218 C1214 1.368 . S
C1218 C1217 1.523 . S
H1219 C1194 0.950 . S
H1220 C1196 0.950 . S
H1221 C1197 0.949 . S
H1222 C1199 0.950 . S
H1223 C1201 0.950 . S
C1224 C1225 1.349 . S
C1224 C1226 1.327 . S
C1224 H1249 0.950 . S
C1225 C1224 1.349 . S
C1225 C1241 1.349 . S
C1226 C1224 1.327 . S
C1226 C1245 1.429 . S
C1226 H1250 0.950 . S
C1227 C1244 1.574 . S
C1227 C1246 1.368 . S
C1227 H1251 0.949 . S
H1228 C1232 0.949 . S
C1229 C1230 1.349 . S
C1229 C1231 1.327 . S
C1229 H1252 0.950 . S
C1230 C1229 1.349 . S
C1230 C1242 1.349 . S
C1231 C1229 1.327 . S
C1231 C1247 1.429 . S
C1231 H1253 0.950 . S
C1232 H1228 0.949 . S
C1232 C1240 1.574 . S
C1232 C1248 1.368 . S
H1233 C1241 0.950 . S
H1234 C1239 0.950 . S
H1235 C1240 0.949 . S
H1236 C1242 0.950 . S
H1237 C1243 0.950 . S
H1238 C1244 0.949 . S
C1239 H1234 0.950 . S
C1239 C1241 1.327 . S
C1239 C1245 1.429 . S
C1240 C1232 1.574 . S
C1240 H1235 0.949 . S
C1240 C1246 1.368 . S
C1241 C1225 1.349 . S
C1241 H1233 0.950 . S
C1241 C1239 1.327 . S
C1242 C1230 1.349 . S
C1242 H1236 0.950 . S
C1242 C1243 1.327 . S
C1243 H1237 0.950 . S
C1243 C1242 1.327 . S
C1243 C1247 1.429 . S
C1244 C1227 1.574 . S
C1244 H1238 0.949 . S
C1244 C1248 1.368 . S
C1245 C1226 1.429 . S
C1245 C1239 1.429 . S
C1245 C1246 1.523 . S
C1246 C1227 1.368 . S
C1246 C1240 1.368 . S
C1246 C1245 1.523 . S
C1247 C1231 1.429 . S
C1247 C1243 1.429 . S
C1247 C1248 1.523 . S
C1248 C1232 1.368 . S
C1248 C1244 1.368 . S
C1248 C1247 1.523 . S
H1249 C1224 0.950 . S
H1250 C1226 0.950 . S
H1251 C1227 0.949 . S
H1252 C1229 0.950 . S
H1253 C1231 0.950 . S
C1254 C1255 1.349 . S
C1254 C1256 1.327 . S
C1254 H1279 0.950 . S
C1255 C1254 1.349 . S
C1255 C1271 1.349 . S
C1256 C1254 1.327 . S
C1256 C1275 1.429 . S
C1256 H1280 0.950 . S
C1257 C1274 1.574 . S
C1257 C1276 1.368 . S
C1257 H1281 0.949 . S
H1258 C1262 0.949 . S
C1259 C1260 1.349 . S
C1259 C1261 1.327 . S
C1259 H1282 0.950 . S
C1260 C1259 1.349 . S
C1260 C1272 1.349 . S
C1261 C1259 1.327 . S
C1261 C1277 1.429 . S
C1261 H1283 0.950 . S
C1262 H1258 0.949 . S
C1262 C1270 1.574 . S
C1262 C1278 1.368 . S
H1263 C1271 0.950 . S
H1264 C1269 0.950 . S
H1265 C1270 0.949 . S
H1266 C1272 0.950 1_554 S
H1267 C1273 0.950 . S
H1268 C1274 0.949 . S
C1269 H1264 0.950 . S
C1269 C1271 1.327 . S
C1269 C1275 1.429 . S
C1270 C1262 1.574 . S
C1270 H1265 0.949 . S
C1270 C1276 1.368 . S
C1271 C1255 1.349 . S
C1271 H1263 0.950 . S
C1271 C1269 1.327 . S
C1272 C1260 1.349 . S
C1272 H1266 0.950 1_556 S
C1272 C1273 1.327 . S
C1273 H1267 0.950 . S
C1273 C1272 1.327 . S
C1273 C1277 1.429 . S
C1274 C1257 1.574 . S
C1274 H1268 0.949 . S
C1274 C1278 1.368 . S
C1275 C1256 1.429 . S
C1275 C1269 1.429 . S
C1275 C1276 1.523 . S
C1276 C1257 1.368 . S
C1276 C1270 1.368 . S
C1276 C1275 1.523 . S
C1277 C1261 1.429 . S
C1277 C1273 1.429 . S
C1277 C1278 1.523 . S
C1278 C1262 1.368 . S
C1278 C1274 1.368 . S
C1278 C1277 1.523 . S
H1279 C1254 0.950 . S
H1280 C1256 0.950 . S
H1281 C1257 0.949 . S
H1282 C1259 0.950 . S
H1283 C1261 0.950 . S
C1284 C1285 1.349 . S
C1284 C1286 1.327 . S
C1284 H1309 0.950 . S
C1285 C1284 1.349 . S
C1285 C1301 1.349 . S
C1286 C1284 1.327 . S
C1286 C1305 1.429 . S
C1286 H1310 0.950 . S
C1287 C1304 1.574 . S
C1287 C1306 1.368 . S
C1287 H1311 0.949 . S
H1288 C1292 0.949 . S
C1289 C1290 1.349 . S
C1289 C1291 1.327 . S
C1289 H1312 0.950 . S
C1290 C1289 1.349 . S
C1290 C1302 1.349 . S
C1291 C1289 1.327 . S
C1291 C1307 1.429 . S
C1291 H1313 0.950 . S
C1292 H1288 0.949 . S
C1292 C1300 1.574 . S
C1292 C1308 1.368 . S
H1293 C1301 0.950 . S
H1294 C1299 0.950 . S
H1295 C1300 0.949 . S
H1296 C1302 0.950 . S
H1297 C1303 0.950 . S
H1298 C1304 0.949 . S
C1299 H1294 0.950 . S
C1299 C1301 1.327 . S
C1299 C1305 1.429 . S
C1300 C1292 1.574 . S
C1300 H1295 0.949 . S
C1300 C1306 1.368 . S
C1301 C1285 1.349 . S
C1301 H1293 0.950 . S
C1301 C1299 1.327 . S
C1302 C1290 1.349 . S
C1302 H1296 0.950 . S
C1302 C1303 1.327 . S
C1303 H1297 0.950 . S
C1303 C1302 1.327 . S
C1303 C1307 1.429 . S
C1304 C1287 1.574 . S
C1304 H1298 0.949 . S
C1304 C1308 1.368 . S
C1305 C1286 1.429 . S
C1305 C1299 1.429 . S
C1305 C1306 1.523 . S
C1306 C1287 1.368 . S
C1306 C1300 1.368 . S
C1306 C1305 1.523 . S
C1307 C1291 1.429 . S
C1307 C1303 1.429 . S
C1307 C1308 1.523 . S
C1308 C1292 1.368 . S
C1308 C1304 1.368 . S
C1308 C1307 1.523 . S
H1309 C1284 0.950 . S
H1310 C1286 0.950 . S
H1311 C1287 0.949 . S
H1312 C1289 0.950 . S
H1313 C1291 0.950 . S
C1314 C1315 1.349 . S
C1314 C1316 1.327 . S
C1314 H1339 0.950 . S
C1315 C1314 1.349 . S
C1315 C1331 1.349 . S
C1316 C1314 1.327 . S
C1316 C1335 1.429 . S
C1316 H1340 0.950 . S
C1317 C1334 1.574 . S
C1317 C1336 1.368 . S
C1317 H1341 0.949 . S
H1318 C1322 0.949 . S
C1319 C1320 1.349 . S
C1319 C1321 1.327 . S
C1319 H1342 0.950 . S
C1320 C1319 1.349 . S
C1320 C1332 1.349 . S
C1321 C1319 1.327 . S
C1321 C1337 1.429 . S
C1321 H1343 0.950 . S
C1322 H1318 0.949 . S
C1322 C1330 1.574 . S
C1322 C1338 1.368 . S
H1323 C1331 0.950 . S
H1324 C1329 0.950 . S
H1325 C1330 0.949 . S
H1326 C1332 0.950 . S
H1327 C1333 0.950 . S
H1328 C1334 0.949 . S
C1329 H1324 0.950 . S
C1329 C1331 1.327 . S
C1329 C1335 1.429 . S
C1330 C1322 1.574 . S
C1330 H1325 0.949 . S
C1330 C1336 1.368 . S
C1331 C1315 1.349 . S
C1331 H1323 0.950 . S
C1331 C1329 1.327 . S
C1332 C1320 1.349 . S
C1332 H1326 0.950 . S
C1332 C1333 1.327 . S
C1333 H1327 0.950 . S
C1333 C1332 1.327 . S
C1333 C1337 1.429 . S
C1334 C1317 1.574 . S
C1334 H1328 0.949 . S
C1334 C1338 1.368 . S
C1335 C1316 1.429 . S
C1335 C1329 1.429 . S
C1335 C1336 1.523 . S
C1336 C1317 1.368 . S
C1336 C1330 1.368 . S
C1336 C1335 1.523 . S
C1337 C1321 1.429 . S
C1337 C1333 1.429 . S
C1337 C1338 1.523 . S
C1338 C1322 1.368 . S
C1338 C1334 1.368 . S
C1338 C1337 1.523 . S
H1339 C1314 0.950 . S
H1340 C1316 0.950 . S
H1341 C1317 0.949 . S
H1342 C1319 0.950 . S
H1343 C1321 0.950 . S
C1344 C1345 1.349 . S
C1344 C1346 1.327 . S
C1344 H1369 0.950 . S
C1345 C1344 1.349 . S
C1345 C1361 1.349 . S
C1346 C1344 1.327 . S
C1346 C1365 1.429 . S
C1346 H1370 0.950 . S
C1347 C1364 1.574 . S
C1347 C1366 1.368 . S
C1347 H1371 0.949 . S
H1348 C1352 0.949 . S
C1349 C1350 1.349 . S
C1349 C1351 1.327 . S
C1349 H1372 0.950 . S
C1350 C1349 1.349 . S
C1350 C1362 1.349 . S
C1351 C1349 1.327 . S
C1351 C1367 1.429 . S
C1351 H1373 0.950 . S
C1352 H1348 0.949 . S
C1352 C1360 1.574 . S
C1352 C1368 1.368 . S
H1353 C1361 0.950 . S
H1354 C1359 0.950 . S
H1355 C1360 0.949 . S
H1356 C1362 0.950 . S
H1357 C1363 0.950 . S
H1358 C1364 0.949 . S
C1359 H1354 0.950 . S
C1359 C1361 1.327 . S
C1359 C1365 1.429 . S
C1360 C1352 1.574 . S
C1360 H1355 0.949 . S
C1360 C1366 1.368 . S
C1361 C1345 1.349 . S
C1361 H1353 0.950 . S
C1361 C1359 1.327 . S
C1362 C1350 1.349 . S
C1362 H1356 0.950 . S
C1362 C1363 1.327 . S
C1363 H1357 0.950 . S
C1363 C1362 1.327 . S
C1363 C1367 1.429 . S
C1364 C1347 1.574 . S
C1364 H1358 0.949 . S
C1364 C1368 1.368 . S
C1365 C1346 1.429 . S
C1365 C1359 1.429 . S
C1365 C1366 1.523 . S
C1366 C1347 1.368 . S
C1366 C1360 1.368 . S
C1366 C1365 1.523 . S
C1367 C1351 1.429 . S
C1367 C1363 1.429 . S
C1367 C1368 1.523 . S
C1368 C1352 1.368 . S
C1368 C1364 1.368 . S
C1368 C1367 1.523 . S
H1369 C1344 0.950 . S
H1370 C1346 0.950 . S
H1371 C1347 0.949 . S
H1372 C1349 0.950 . S
H1373 C1351 0.950 . S
C1374 C1375 1.349 . S
C1374 C1376 1.327 . S
C1374 H1399 0.950 . S
C1375 C1374 1.349 . S
C1375 C1391 1.349 . S
C1376 C1374 1.327 . S
C1376 C1395 1.429 . S
C1376 H1400 0.950 . S
C1377 C1394 1.574 . S
C1377 C1396 1.368 . S
C1377 H1401 0.949 . S
H1378 C1382 0.949 . S
C1379 C1380 1.349 . S
C1379 C1381 1.327 . S
C1379 H1402 0.950 . S
C1380 C1379 1.349 . S
C1380 C1392 1.349 . S
C1381 C1379 1.327 . S
C1381 C1397 1.429 . S
C1381 H1403 0.950 . S
C1382 H1378 0.949 . S
C1382 C1390 1.574 . S
C1382 C1398 1.368 . S
H1383 C1391 0.950 . S
H1384 C1389 0.950 . S
H1385 C1390 0.949 . S
H1386 C1392 0.950 . S
H1387 C1393 0.950 . S
H1388 C1394 0.949 . S
C1389 H1384 0.950 . S
C1389 C1391 1.327 . S
C1389 C1395 1.429 . S
C1390 C1382 1.574 . S
C1390 H1385 0.949 . S
C1390 C1396 1.368 . S
C1391 C1375 1.349 . S
C1391 H1383 0.950 . S
C1391 C1389 1.327 . S
C1392 C1380 1.349 . S
C1392 H1386 0.950 . S
C1392 C1393 1.327 . S
C1393 H1387 0.950 . S
C1393 C1392 1.327 . S
C1393 C1397 1.429 . S
C1394 C1377 1.574 . S
C1394 H1388 0.949 . S
C1394 C1398 1.368 . S
C1395 C1376 1.429 . S
C1395 C1389 1.429 . S
C1395 C1396 1.523 . S
C1396 C1377 1.368 . S
C1396 C1390 1.368 . S
C1396 C1395 1.523 . S
C1397 C1381 1.429 . S
C1397 C1393 1.429 . S
C1397 C1398 1.523 . S
C1398 C1382 1.368 . S
C1398 C1394 1.368 . S
C1398 C1397 1.523 . S
H1399 C1374 0.950 . S
H1400 C1376 0.950 . S
H1401 C1377 0.949 . S
H1402 C1379 0.950 . S
H1403 C1381 0.950 . S
C1404 C1405 1.349 . S
C1404 C1406 1.327 . S
C1404 H1429 0.950 . S
C1405 C1404 1.349 . S
C1405 C1421 1.349 . S
C1406 C1404 1.327 . S
C1406 C1425 1.429 . S
C1406 H1430 0.950 . S
C1407 C1424 1.574 . S
C1407 C1426 1.368 . S
C1407 H1431 0.949 . S
H1408 C1412 0.949 . S
C1409 C1410 1.349 . S
C1409 C1411 1.327 . S
C1409 H1432 0.950 . S
C1410 C1409 1.349 . S
C1410 C1422 1.349 . S
C1411 C1409 1.327 . S
C1411 C1427 1.429 . S
C1411 H1433 0.950 . S
C1412 H1408 0.949 . S
C1412 C1420 1.574 . S
C1412 C1428 1.368 . S
H1413 C1421 0.950 . S
H1414 C1419 0.950 . S
H1415 C1420 0.949 . S
H1416 C1422 0.950 . S
H1417 C1423 0.950 . S
H1418 C1424 0.949 . S
C1419 H1414 0.950 . S
C1419 C1421 1.327 . S
C1419 C1425 1.429 . S
C1420 C1412 1.574 . S
C1420 H1415 0.949 . S
C1420 C1426 1.368 . S
C1421 C1405 1.349 . S
C1421 H1413 0.950 . S
C1421 C1419 1.327 . S
C1422 C1410 1.349 . S
C1422 H1416 0.950 . S
C1422 C1423 1.327 . S
C1423 H1417 0.950 . S
C1423 C1422 1.327 . S
C1423 C1427 1.429 . S
C1424 C1407 1.574 . S
C1424 H1418 0.949 . S
C1424 C1428 1.368 . S
C1425 C1406 1.429 . S
C1425 C1419 1.429 . S
C1425 C1426 1.523 . S
C1426 C1407 1.368 . S
C1426 C1420 1.368 . S
C1426 C1425 1.523 . S
C1427 C1411 1.429 . S
C1427 C1423 1.429 . S
C1427 C1428 1.523 . S
C1428 C1412 1.368 . S
C1428 C1424 1.368 . S
C1428 C1427 1.523 . S
H1429 C1404 0.950 . S
H1430 C1406 0.950 . S
H1431 C1407 0.949 . S
H1432 C1409 0.950 . S
H1433 C1411 0.950 . S
C1434 C1435 1.349 . S
C1434 C1436 1.327 . S
C1434 H1459 0.950 . S
C1435 C1434 1.349 . S
C1435 C1451 1.349 . S
C1436 C1434 1.327 . S
C1436 C1455 1.429 . S
C1436 H1460 0.950 . S
C1437 C1454 1.574 . S
C1437 C1456 1.368 . S
C1437 H1461 0.949 . S
H1438 C1442 0.949 . S
C1439 C1440 1.349 . S
C1439 C1441 1.327 . S
C1439 H1462 0.950 . S
C1440 C1439 1.349 . S
C1440 C1452 1.349 . S
C1441 C1439 1.327 . S
C1441 C1457 1.429 . S
C1441 H1463 0.950 . S
C1442 H1438 0.949 . S
C1442 C1450 1.574 . S
C1442 C1458 1.368 . S
H1443 C1451 0.950 . S
H1444 C1449 0.950 . S
H1445 C1450 0.949 . S
H1446 C1452 0.950 . S
H1447 C1453 0.950 . S
H1448 C1454 0.949 . S
C1449 H1444 0.950 . S
C1449 C1451 1.327 . S
C1449 C1455 1.429 . S
C1450 C1442 1.574 . S
C1450 H1445 0.949 . S
C1450 C1456 1.368 . S
C1451 C1435 1.349 . S
C1451 H1443 0.950 . S
C1451 C1449 1.327 . S
C1452 C1440 1.349 . S
C1452 H1446 0.950 . S
C1452 C1453 1.327 . S
C1453 H1447 0.950 . S
C1453 C1452 1.327 . S
C1453 C1457 1.429 . S
C1454 C1437 1.574 . S
C1454 H1448 0.949 . S
C1454 C1458 1.368 . S
C1455 C1436 1.429 . S
C1455 C1449 1.429 . S
C1455 C1456 1.523 . S
C1456 C1437 1.368 . S
C1456 C1450 1.368 . S
C1456 C1455 1.523 . S
C1457 C1441 1.429 . S
C1457 C1453 1.429 . S
C1457 C1458 1.523 . S
C1458 C1442 1.368 . S
C1458 C1454 1.368 . S
C1458 C1457 1.523 . S
H1459 C1434 0.950 . S
H1460 C1436 0.950 . S
H1461 C1437 0.949 . S
H1462 C1439 0.950 . S
H1463 C1441 0.950 . S
C1464 C1465 1.349 . S
C1464 C1466 1.327 . S
C1464 H1489 0.950 . S
C1465 C1464 1.349 . S
C1465 C1481 1.349 . S
C1466 C1464 1.327 . S
C1466 C1485 1.429 . S
C1466 H1490 0.950 . S
C1467 C1484 1.574 . S
C1467 C1486 1.368 . S
C1467 H1491 0.949 . S
H1468 C1472 0.949 . S
C1469 C1470 1.349 . S
C1469 C1471 1.327 . S
C1469 H1492 0.950 1_565 S
C1470 C1469 1.349 . S
C1470 C1482 1.349 . S
C1471 C1469 1.327 . S
C1471 C1487 1.429 . S
C1471 H1493 0.950 . S
C1472 H1468 0.949 . S
C1472 C1480 1.574 . S
C1472 C1488 1.368 . S
H1473 C1481 0.950 . S
H1474 C1479 0.950 . S
H1475 C1480 0.949 . S
H1476 C1482 0.950 . S
H1477 C1483 0.950 . S
H1478 C1484 0.949 . S
C1479 H1474 0.950 . S
C1479 C1481 1.327 . S
C1479 C1485 1.429 . S
C1480 C1472 1.574 . S
C1480 H1475 0.949 . S
C1480 C1486 1.368 . S
C1481 C1465 1.349 . S
C1481 H1473 0.950 . S
C1481 C1479 1.327 . S
C1482 C1470 1.349 . S
C1482 H1476 0.950 . S
C1482 C1483 1.327 . S
C1483 H1477 0.950 . S
C1483 C1482 1.327 . S
C1483 C1487 1.429 . S
C1484 C1467 1.574 . S
C1484 H1478 0.949 . S
C1484 C1488 1.368 . S
C1485 C1466 1.429 . S
C1485 C1479 1.429 . S
C1485 C1486 1.523 . S
C1486 C1467 1.368 . S
C1486 C1480 1.368 . S
C1486 C1485 1.523 . S
C1487 C1471 1.429 . S
C1487 C1483 1.429 . S
C1487 C1488 1.523 . S
C1488 C1472 1.368 . S
C1488 C1484 1.368 . S
C1488 C1487 1.523 . S
H1489 C1464 0.950 . S
H1490 C1466 0.950 . S
H1491 C1467 0.949 . S
H1492 C1469 0.950 1_545 S
H1493 C1471 0.950 . S
C1494 C1495 1.349 . S
C1494 C1496 1.327 . S
C1494 H1519 0.950 . S
C1495 C1494 1.349 . S
C1495 C1511 1.349 . S
C1496 C1494 1.327 . S
C1496 C1515 1.429 . S
C1496 H1520 0.950 . S
C1497 C1514 1.574 . S
C1497 C1516 1.368 . S
C1497 H1521 0.949 . S
H1498 C1502 0.949 . S
C1499 C1500 1.349 . S
C1499 C1501 1.327 . S
C1499 H1522 0.950 . S
C1500 C1499 1.349 . S
C1500 C1512 1.349 . S
C1501 C1499 1.327 . S
C1501 C1517 1.429 . S
C1501 H1523 0.950 . S
C1502 H1498 0.949 . S
C1502 C1510 1.574 . S
C1502 C1518 1.368 . S
H1503 C1511 0.950 . S
H1504 C1509 0.950 . S
H1505 C1510 0.949 . S
H1506 C1512 0.950 . S
H1507 C1513 0.950 . S
H1508 C1514 0.949 . S
C1509 H1504 0.950 . S
C1509 C1511 1.327 . S
C1509 C1515 1.429 . S
C1510 C1502 1.574 . S
C1510 H1505 0.949 . S
C1510 C1516 1.368 . S
C1511 C1495 1.349 . S
C1511 H1503 0.950 . S
C1511 C1509 1.327 . S
C1512 C1500 1.349 . S
C1512 H1506 0.950 . S
C1512 C1513 1.327 . S
C1513 H1507 0.950 . S
C1513 C1512 1.327 . S
C1513 C1517 1.429 . S
C1514 C1497 1.574 . S
C1514 H1508 0.949 . S
C1514 C1518 1.368 . S
C1515 C1496 1.429 . S
C1515 C1509 1.429 . S
C1515 C1516 1.523 . S
C1516 C1497 1.368 . S
C1516 C1510 1.368 . S
C1516 C1515 1.523 . S
C1517 C1501 1.429 . S
C1517 C1513 1.429 . S
C1517 C1518 1.523 . S
C1518 C1502 1.368 . S
C1518 C1514 1.368 . S
C1518 C1517 1.523 . S
H1519 C1494 0.950 . S
H1520 C1496 0.950 . S
H1521 C1497 0.949 . S
H1522 C1499 0.950 . S
H1523 C1501 0.950 . S
C1524 C1525 1.349 . S
C1524 C1526 1.327 . S
C1524 H1549 0.950 . S
C1525 C1524 1.349 . S
C1525 C1541 1.349 . S
C1526 C1524 1.327 . S
C1526 C1545 1.429 . S
C1526 H1550 0.950 . S
C1527 C1544 1.574 . S
C1527 C1546 1.368 . S
C1527 H1551 0.949 . S
H1528 C1532 0.949 . S
C1529 C1530 1.349 . S
C1529 C1531 1.327 . S
C1529 H1552 0.950 . S
C1530 C1529 1.349 . S
C1530 C1542 1.349 . S
C1531 C1529 1.327 . S
C1531 C1547 1.429 . S
C1531 H1553 0.950 . S
C1532 H1528 0.949 . S
C1532 C1540 1.574 . S
C1532 C1548 1.368 . S
H1533 C1541 0.950 . S
H1534 C1539 0.950 . S
H1535 C1540 0.949 . S
H1536 C1542 0.950 . S
H1537 C1543 0.950 . S
H1538 C1544 0.949 . S
C1539 H1534 0.950 . S
C1539 C1541 1.327 . S
C1539 C1545 1.429 . S
C1540 C1532 1.574 . S
C1540 H1535 0.949 . S
C1540 C1546 1.368 . S
C1541 C1525 1.349 . S
C1541 H1533 0.950 . S
C1541 C1539 1.327 . S
C1542 C1530 1.349 . S
C1542 H1536 0.950 . S
C1542 C1543 1.327 . S
C1543 H1537 0.950 . S
C1543 C1542 1.327 . S
C1543 C1547 1.429 . S
C1544 C1527 1.574 . S
C1544 H1538 0.949 . S
C1544 C1548 1.368 . S
C1545 C1526 1.429 . S
C1545 C1539 1.429 . S
C1545 C1546 1.523 . S
C1546 C1527 1.368 . S
C1546 C1540 1.368 . S
C1546 C1545 1.523 . S
C1547 C1531 1.429 . S
C1547 C1543 1.429 . S
C1547 C1548 1.523 . S
C1548 C1532 1.368 . S
C1548 C1544 1.368 . S
C1548 C1547 1.523 . S
H1549 C1524 0.950 . S
H1550 C1526 0.950 . S
H1551 C1527 0.949 . S
H1552 C1529 0.950 . S
H1553 C1531 0.950 . S
C1554 C1555 1.349 . S
C1554 C1556 1.327 . S
C1554 H1579 0.950 . S
C1555 C1554 1.349 . S
C1555 C1571 1.349 . S
C1556 C1554 1.327 . S
C1556 C1575 1.429 . S
C1556 H1580 0.950 . S
C1557 C1574 1.574 . S
C1557 C1576 1.368 . S
C1557 H1581 0.949 . S
H1558 C1562 0.949 . S
C1559 C1560 1.349 . S
C1559 C1561 1.327 . S
C1559 H1582 0.950 . S
C1560 C1559 1.349 . S
C1560 C1572 1.349 . S
C1561 C1559 1.327 . S
C1561 C1577 1.429 . S
C1561 H1583 0.950 . S
C1562 H1558 0.949 . S
C1562 C1570 1.574 . S
C1562 C1578 1.368 . S
H1563 C1571 0.950 . S
H1564 C1569 0.950 . S
H1565 C1570 0.949 . S
H1566 C1572 0.950 . S
H1567 C1573 0.950 . S
H1568 C1574 0.949 . S
C1569 H1564 0.950 . S
C1569 C1571 1.327 . S
C1569 C1575 1.429 . S
C1570 C1562 1.574 . S
C1570 H1565 0.949 . S
C1570 C1576 1.368 . S
C1571 C1555 1.349 . S
C1571 H1563 0.950 . S
C1571 C1569 1.327 . S
C1572 C1560 1.349 . S
C1572 H1566 0.950 . S
C1572 C1573 1.327 . S
C1573 H1567 0.950 . S
C1573 C1572 1.327 . S
C1573 C1577 1.429 . S
C1574 C1557 1.574 . S
C1574 H1568 0.949 . S
C1574 C1578 1.368 . S
C1575 C1556 1.429 . S
C1575 C1569 1.429 . S
C1575 C1576 1.523 . S
C1576 C1557 1.368 . S
C1576 C1570 1.368 . S
C1576 C1575 1.523 . S
C1577 C1561 1.429 . S
C1577 C1573 1.429 . S
C1577 C1578 1.523 . S
C1578 C1562 1.368 . S
C1578 C1574 1.368 . S
C1578 C1577 1.523 . S
H1579 C1554 0.950 . S
H1580 C1556 0.950 . S
H1581 C1557 0.949 . S
H1582 C1559 0.950 . S
H1583 C1561 0.950 . S
C1584 C1585 1.349 . S
C1584 C1586 1.327 . S
C1584 H1609 0.950 . S
C1585 C1584 1.349 . S
C1585 C1601 1.349 . S
C1586 C1584 1.327 . S
C1586 C1605 1.429 . S
C1586 H1610 0.950 . S
C1587 C1604 1.574 . S
C1587 C1606 1.368 . S
C1587 H1611 0.949 . S
H1588 C1592 0.949 . S
C1589 C1590 1.349 . S
C1589 C1591 1.327 . S
C1589 H1612 0.950 . S
C1590 C1589 1.349 . S
C1590 C1602 1.349 . S
C1591 C1589 1.327 . S
C1591 C1607 1.429 . S
C1591 H1613 0.950 . S
C1592 H1588 0.949 . S
C1592 C1600 1.574 . S
C1592 C1608 1.368 . S
H1593 C1601 0.950 . S
H1594 C1599 0.950 . S
H1595 C1600 0.949 . S
H1596 C1602 0.950 . S
H1597 C1603 0.950 . S
H1598 C1604 0.949 . S
C1599 H1594 0.950 . S
C1599 C1601 1.327 . S
C1599 C1605 1.429 . S
C1600 C1592 1.574 . S
C1600 H1595 0.949 . S
C1600 C1606 1.368 . S
C1601 C1585 1.349 . S
C1601 H1593 0.950 . S
C1601 C1599 1.327 . S
C1602 C1590 1.349 . S
C1602 H1596 0.950 . S
C1602 C1603 1.327 . S
C1603 H1597 0.950 . S
C1603 C1602 1.327 . S
C1603 C1607 1.429 . S
C1604 C1587 1.574 . S
C1604 H1598 0.949 . S
C1604 C1608 1.368 . S
C1605 C1586 1.429 . S
C1605 C1599 1.429 . S
C1605 C1606 1.523 . S
C1606 C1587 1.368 . S
C1606 C1600 1.368 . S
C1606 C1605 1.523 . S
C1607 C1591 1.429 . S
C1607 C1603 1.429 . S
C1607 C1608 1.523 . S
C1608 C1592 1.368 . S
C1608 C1604 1.368 . S
C1608 C1607 1.523 . S
H1609 C1584 0.950 . S
H1610 C1586 0.950 . S
H1611 C1587 0.949 . S
H1612 C1589 0.950 . S
H1613 C1591 0.950 . S
C1614 C1615 1.349 . S
C1614 C1616 1.327 . S
C1614 H1639 0.950 . S
C1615 C1614 1.349 . S
C1615 C1631 1.349 . S
C1616 C1614 1.327 . S
C1616 C1635 1.429 . S
C1616 H1640 0.950 . S
C1617 C1634 1.574 . S
C1617 C1636 1.368 . S
C1617 H1641 0.949 . S
H1618 C1622 0.949 . S
C1619 C1620 1.349 . S
C1619 C1621 1.327 . S
C1619 H1642 0.950 . S
C1620 C1619 1.349 . S
C1620 C1632 1.349 . S
C1621 C1619 1.327 . S
C1621 C1637 1.429 . S
C1621 H1643 0.950 . S
C1622 H1618 0.949 . S
C1622 C1630 1.574 . S
C1622 C1638 1.368 . S
H1623 C1631 0.950 . S
H1624 C1629 0.950 . S
H1625 C1630 0.949 . S
H1626 C1632 0.950 . S
H1627 C1633 0.950 . S
H1628 C1634 0.949 . S
C1629 H1624 0.950 . S
C1629 C1631 1.327 . S
C1629 C1635 1.429 . S
C1630 C1622 1.574 . S
C1630 H1625 0.949 . S
C1630 C1636 1.368 . S
C1631 C1615 1.349 . S
C1631 H1623 0.950 . S
C1631 C1629 1.327 . S
C1632 C1620 1.349 . S
C1632 H1626 0.950 . S
C1632 C1633 1.327 . S
C1633 H1627 0.950 . S
C1633 C1632 1.327 . S
C1633 C1637 1.429 . S
C1634 C1617 1.574 . S
C1634 H1628 0.949 . S
C1634 C1638 1.368 . S
C1635 C1616 1.429 . S
C1635 C1629 1.429 . S
C1635 C1636 1.523 . S
C1636 C1617 1.368 . S
C1636 C1630 1.368 . S
C1636 C1635 1.523 . S
C1637 C1621 1.429 . S
C1637 C1633 1.429 . S
C1637 C1638 1.523 . S
C1638 C1622 1.368 . S
C1638 C1634 1.368 . S
C1638 C1637 1.523 . S
H1639 C1614 0.950 . S
H1640 C1616 0.950 . S
H1641 C1617 0.949 . S
H1642 C1619 0.950 . S
H1643 C1621 0.950 . S
C1644 C1645 1.349 . S
C1644 C1646 1.327 . S
C1644 H1669 0.950 . S
C1645 C1644 1.349 . S
C1645 C1661 1.349 . S
C1646 C1644 1.327 . S
C1646 C1665 1.429 . S
C1646 H1670 0.950 . S
C1647 C1664 1.574 . S
C1647 C1666 1.368 . S
C1647 H1671 0.949 . S
H1648 C1652 0.949 . S
C1649 C1650 1.349 . S
C1649 C1651 1.327 . S
C1649 H1672 0.950 . S
C1650 C1649 1.349 . S
C1650 C1662 1.349 . S
C1651 C1649 1.327 . S
C1651 C1667 1.429 . S
C1651 H1673 0.950 . S
C1652 H1648 0.949 . S
C1652 C1660 1.574 . S
C1652 C1668 1.368 . S
H1653 C1661 0.950 . S
H1654 C1659 0.950 . S
H1655 C1660 0.949 . S
H1656 C1662 0.950 . S
H1657 C1663 0.950 . S
H1658 C1664 0.949 . S
C1659 H1654 0.950 . S
C1659 C1661 1.327 . S
C1659 C1665 1.429 . S
C1660 C1652 1.574 . S
C1660 H1655 0.949 . S
C1660 C1666 1.368 . S
C1661 C1645 1.349 . S
C1661 H1653 0.950 . S
C1661 C1659 1.327 . S
C1662 C1650 1.349 . S
C1662 H1656 0.950 . S
C1662 C1663 1.327 . S
C1663 H1657 0.950 . S
C1663 C1662 1.327 . S
C1663 C1667 1.429 . S
C1664 C1647 1.574 . S
C1664 H1658 0.949 . S
C1664 C1668 1.368 . S
C1665 C1646 1.429 . S
C1665 C1659 1.429 . S
C1665 C1666 1.523 . S
C1666 C1647 1.368 . S
C1666 C1660 1.368 . S
C1666 C1665 1.523 . S
C1667 C1651 1.429 . S
C1667 C1663 1.429 . S
C1667 C1668 1.523 . S
C1668 C1652 1.368 . S
C1668 C1664 1.368 . S
C1668 C1667 1.523 . S
H1669 C1644 0.950 . S
H1670 C1646 0.950 . S
H1671 C1647 0.949 . S
H1672 C1649 0.950 . S
H1673 C1651 0.950 . S
C1674 C1675 1.349 . S
C1674 C1676 1.327 . S
C1674 H1699 0.950 . S
C1675 C1674 1.349 . S
C1675 C1691 1.349 . S
C1676 C1674 1.327 . S
C1676 C1695 1.429 . S
C1676 H1700 0.950 . S
C1677 C1694 1.574 . S
C1677 C1696 1.368 . S
C1677 H1701 0.949 . S
H1678 C1682 0.949 . S
C1679 C1680 1.349 . S
C1679 C1681 1.327 . S
C1679 H1702 0.950 . S
C1680 C1679 1.349 . S
C1680 C1692 1.349 . S
C1681 C1679 1.327 . S
C1681 C1697 1.429 . S
C1681 H1703 0.950 . S
C1682 H1678 0.949 . S
C1682 C1690 1.574 . S
C1682 C1698 1.368 . S
H1683 C1691 0.950 . S
H1684 C1689 0.950 . S
H1685 C1690 0.949 . S
H1686 C1692 0.950 . S
H1687 C1693 0.950 . S
H1688 C1694 0.949 . S
C1689 H1684 0.950 . S
C1689 C1691 1.327 . S
C1689 C1695 1.429 . S
C1690 C1682 1.574 . S
C1690 H1685 0.949 . S
C1690 C1696 1.368 . S
C1691 C1675 1.349 . S
C1691 H1683 0.950 . S
C1691 C1689 1.327 . S
C1692 C1680 1.349 . S
C1692 H1686 0.950 . S
C1692 C1693 1.327 . S
C1693 H1687 0.950 . S
C1693 C1692 1.327 . S
C1693 C1697 1.429 . S
C1694 C1677 1.574 . S
C1694 H1688 0.949 . S
C1694 C1698 1.368 . S
C1695 C1676 1.429 . S
C1695 C1689 1.429 . S
C1695 C1696 1.523 . S
C1696 C1677 1.368 . S
C1696 C1690 1.368 . S
C1696 C1695 1.523 . S
C1697 C1681 1.429 . S
C1697 C1693 1.429 . S
C1697 C1698 1.523 . S
C1698 C1682 1.368 . S
C1698 C1694 1.368 . S
C1698 C1697 1.523 . S
H1699 C1674 0.950 . S
H1700 C1676 0.950 . S
H1701 C1677 0.949 . S
H1702 C1679 0.950 . S
H1703 C1681 0.950 . S
C1704 C1705 1.349 . S
C1704 C1706 1.327 . S
C1704 H1729 0.950 . S
C1705 C1704 1.349 . S
C1705 C1721 1.349 . S
C1706 C1704 1.327 . S
C1706 C1725 1.429 . S
C1706 H1730 0.950 . S
C1707 C1724 1.574 . S
C1707 C1726 1.368 . S
C1707 H1731 0.949 . S
H1708 C1712 0.949 . S
C1709 C1710 1.349 . S
C1709 C1711 1.327 . S
C1709 H1732 0.950 . S
C1710 C1709 1.349 . S
C1710 C1722 1.349 . S
C1711 C1709 1.327 . S
C1711 C1727 1.429 . S
C1711 H1733 0.950 . S
C1712 H1708 0.949 . S
C1712 C1720 1.574 . S
C1712 C1728 1.368 . S
H1713 C1721 0.950 . S
H1714 C1719 0.950 . S
H1715 C1720 0.949 . S
H1716 C1722 0.950 . S
H1717 C1723 0.950 . S
H1718 C1724 0.949 . S
C1719 H1714 0.950 . S
C1719 C1721 1.327 . S
C1719 C1725 1.429 . S
C1720 C1712 1.574 . S
C1720 H1715 0.949 . S
C1720 C1726 1.368 . S
C1721 C1705 1.349 . S
C1721 H1713 0.950 . S
C1721 C1719 1.327 . S
C1722 C1710 1.349 . S
C1722 H1716 0.950 . S
C1722 C1723 1.327 . S
C1723 H1717 0.950 . S
C1723 C1722 1.327 . S
C1723 C1727 1.429 . S
C1724 C1707 1.574 . S
C1724 H1718 0.949 . S
C1724 C1728 1.368 . S
C1725 C1706 1.429 . S
C1725 C1719 1.429 . S
C1725 C1726 1.523 . S
C1726 C1707 1.368 . S
C1726 C1720 1.368 . S
C1726 C1725 1.523 . S
C1727 C1711 1.429 . S
C1727 C1723 1.429 . S
C1727 C1728 1.523 . S
C1728 C1712 1.368 . S
C1728 C1724 1.368 . S
C1728 C1727 1.523 . S
H1729 C1704 0.950 . S
H1730 C1706 0.950 . S
H1731 C1707 0.949 . S
H1732 C1709 0.950 . S
H1733 C1711 0.950 . S
C1734 C1735 1.349 . S
C1734 C1736 1.327 . S
C1734 H1759 0.950 . S
C1735 C1734 1.349 . S
C1735 C1751 1.349 . S
C1736 C1734 1.327 . S
C1736 C1755 1.429 . S
C1736 H1760 0.950 . S
C1737 C1754 1.574 . S
C1737 C1756 1.368 . S
C1737 H1761 0.949 . S
H1738 C1742 0.949 . S
C1739 C1740 1.349 . S
C1739 C1741 1.327 . S
C1739 H1762 0.950 . S
C1740 C1739 1.349 . S
C1740 C1752 1.349 . S
C1741 C1739 1.327 . S
C1741 C1757 1.429 . S
C1741 H1763 0.950 . S
C1742 H1738 0.949 . S
C1742 C1750 1.574 . S
C1742 C1758 1.368 . S
H1743 C1751 0.950 . S
H1744 C1749 0.950 . S
H1745 C1750 0.949 . S
H1746 C1752 0.950 . S
H1747 C1753 0.950 . S
H1748 C1754 0.949 . S
C1749 H1744 0.950 . S
C1749 C1751 1.327 . S
C1749 C1755 1.429 . S
C1750 C1742 1.574 . S
C1750 H1745 0.949 . S
C1750 C1756 1.368 . S
C1751 C1735 1.349 . S
C1751 H1743 0.950 . S
C1751 C1749 1.327 . S
C1752 C1740 1.349 . S
C1752 H1746 0.950 . S
C1752 C1753 1.327 . S
C1753 H1747 0.950 . S
C1753 C1752 1.327 . S
C1753 C1757 1.429 . S
C1754 C1737 1.574 . S
C1754 H1748 0.949 . S
C1754 C1758 1.368 . S
C1755 C1736 1.429 . S
C1755 C1749 1.429 . S
C1755 C1756 1.523 . S
C1756 C1737 1.368 . S
C1756 C1750 1.368 . S
C1756 C1755 1.523 . S
C1757 C1741 1.429 . S
C1757 C1753 1.429 . S
C1757 C1758 1.523 . S
C1758 C1742 1.368 . S
C1758 C1754 1.368 . S
C1758 C1757 1.523 . S
H1759 C1734 0.950 . S
H1760 C1736 0.950 . S
H1761 C1737 0.949 . S
H1762 C1739 0.950 . S
H1763 C1741 0.950 . S
C1764 C1765 1.349 . S
C1764 C1766 1.327 . S
C1764 H1789 0.950 . S
C1765 C1764 1.349 . S
C1765 C1781 1.349 . S
C1766 C1764 1.327 . S
C1766 C1785 1.429 . S
C1766 H1790 0.950 . S
C1767 C1784 1.574 . S
C1767 C1786 1.368 . S
C1767 H1791 0.949 . S
H1768 C1772 0.949 . S
C1769 C1770 1.349 . S
C1769 C1771 1.327 . S
C1769 H1792 0.950 . S
C1770 C1769 1.349 . S
C1770 C1782 1.349 . S
C1771 C1769 1.327 . S
C1771 C1787 1.429 . S
C1771 H1793 0.950 . S
C1772 H1768 0.949 . S
C1772 C1780 1.574 . S
C1772 C1788 1.368 . S
H1773 C1781 0.950 . S
H1774 C1779 0.950 . S
H1775 C1780 0.949 . S
H1776 C1782 0.950 . S
H1777 C1783 0.950 . S
H1778 C1784 0.949 . S
C1779 H1774 0.950 . S
C1779 C1781 1.327 . S
C1779 C1785 1.429 . S
C1780 C1772 1.574 . S
C1780 H1775 0.949 . S
C1780 C1786 1.368 . S
C1781 C1765 1.349 . S
C1781 H1773 0.950 . S
C1781 C1779 1.327 . S
C1782 C1770 1.349 . S
C1782 H1776 0.950 . S
C1782 C1783 1.327 . S
C1783 H1777 0.950 . S
C1783 C1782 1.327 . S
C1783 C1787 1.429 . S
C1784 C1767 1.574 . S
C1784 H1778 0.949 . S
C1784 C1788 1.368 . S
C1785 C1766 1.429 . S
C1785 C1779 1.429 . S
C1785 C1786 1.523 . S
C1786 C1767 1.368 . S
C1786 C1780 1.368 . S
C1786 C1785 1.523 . S
C1787 C1771 1.429 . S
C1787 C1783 1.429 . S
C1787 C1788 1.523 . S
C1788 C1772 1.368 . S
C1788 C1784 1.368 . S
C1788 C1787 1.523 . S
H1789 C1764 0.950 . S
H1790 C1766 0.950 . S
H1791 C1767 0.949 . S
H1792 C1769 0.950 . S
H1793 C1771 0.950 . S
C1794 C1795 1.349 . S
C1794 C1796 1.327 . S
C1794 H1819 0.950 . S
C1795 C1794 1.349 . S
C1795 C1811 1.349 . S
C1796 C1794 1.327 . S
C1796 C1815 1.429 . S
C1796 H1820 0.950 . S
C1797 C1814 1.574 . S
C1797 C1816 1.368 . S
C1797 H1821 0.949 . S
H1798 C1802 0.949 . S
C1799 C1800 1.349 . S
C1799 C1801 1.327 . S
C1799 H1822 0.950 . S
C1800 C1799 1.349 . S
C1800 C1812 1.349 . S
C1801 C1799 1.327 . S
C1801 C1817 1.429 . S
C1801 H1823 0.950 . S
C1802 H1798 0.949 . S
C1802 C1810 1.574 . S
C1802 C1818 1.368 . S
H1803 C1811 0.950 . S
H1804 C1809 0.950 . S
H1805 C1810 0.949 . S
H1806 C1812 0.950 . S
H1807 C1813 0.950 . S
H1808 C1814 0.949 . S
C1809 H1804 0.950 . S
C1809 C1811 1.327 . S
C1809 C1815 1.429 . S
C1810 C1802 1.574 . S
C1810 H1805 0.949 . S
C1810 C1816 1.368 . S
C1811 C1795 1.349 . S
C1811 H1803 0.950 . S
C1811 C1809 1.327 . S
C1812 C1800 1.349 . S
C1812 H1806 0.950 . S
C1812 C1813 1.327 . S
C1813 H1807 0.950 . S
C1813 C1812 1.327 . S
C1813 C1817 1.429 . S
C1814 C1797 1.574 . S
C1814 H1808 0.949 . S
C1814 C1818 1.368 . S
C1815 C1796 1.429 . S
C1815 C1809 1.429 . S
C1815 C1816 1.523 . S
C1816 C1797 1.368 . S
C1816 C1810 1.368 . S
C1816 C1815 1.523 . S
C1817 C1801 1.429 . S
C1817 C1813 1.429 . S
C1817 C1818 1.523 . S
C1818 C1802 1.368 . S
C1818 C1814 1.368 . S
C1818 C1817 1.523 . S
H1819 C1794 0.950 . S
H1820 C1796 0.950 . S
H1821 C1797 0.949 . S
H1822 C1799 0.950 . S
H1823 C1801 0.950 . S
C1824 C1825 1.349 . S
C1824 C1826 1.327 . S
C1824 H1849 0.950 . S
C1825 C1824 1.349 . S
C1825 C1841 1.349 . S
C1826 C1824 1.327 . S
C1826 C1845 1.429 . S
C1826 H1850 0.950 . S
C1827 C1844 1.574 . S
C1827 C1846 1.368 . S
C1827 H1851 0.949 . S
H1828 C1832 0.949 . S
C1829 C1830 1.349 . S
C1829 C1831 1.327 . S
C1829 H1852 0.950 . S
C1830 C1829 1.349 . S
C1830 C1842 1.349 . S
C1831 C1829 1.327 . S
C1831 C1847 1.429 . S
C1831 H1853 0.950 . S
C1832 H1828 0.949 . S
C1832 C1840 1.574 . S
C1832 C1848 1.368 . S
H1833 C1841 0.950 . S
H1834 C1839 0.950 . S
H1835 C1840 0.949 . S
H1836 C1842 0.986 . S
H1837 C1843 0.950 . S
H1838 C1844 0.949 . S
C1839 H1834 0.950 . S
C1839 C1841 1.327 . S
C1839 C1845 1.429 . S
C1840 C1832 1.574 . S
C1840 H1835 0.949 . S
C1840 C1846 1.368 . S
C1841 C1825 1.349 . S
C1841 H1833 0.950 . S
C1841 C1839 1.327 . S
C1842 C1830 1.349 . S
C1842 H1836 0.986 . S
C1842 C1843 1.327 . S
C1843 H1837 0.950 . S
C1843 C1842 1.327 . S
C1843 C1847 1.429 . S
C1844 C1827 1.574 . S
C1844 H1838 0.949 . S
C1844 C1848 1.368 . S
C1845 C1826 1.429 . S
C1845 C1839 1.429 . S
C1845 C1846 1.523 . S
C1846 C1827 1.368 . S
C1846 C1840 1.368 . S
C1846 C1845 1.523 . S
C1847 C1831 1.429 . S
C1847 C1843 1.429 . S
C1847 C1848 1.523 . S
C1848 C1832 1.368 . S
C1848 C1844 1.368 . S
C1848 C1847 1.523 . S
H1849 C1824 0.950 . S
H1850 C1826 0.950 . S
H1851 C1827 0.949 . S
H1852 C1829 0.950 . S
H1853 C1831 0.950 . S
C1854 C1855 1.349 . S
C1854 C1856 1.327 . S
C1854 H1879 0.950 . S
C1855 C1854 1.349 . S
C1855 C1871 1.349 . S
C1856 C1854 1.327 . S
C1856 C1875 1.429 . S
C1856 H1880 0.950 . S
C1857 C1874 1.574 . S
C1857 C1876 1.368 . S
C1857 H1881 0.949 . S
H1858 C1862 0.949 . S
C1859 C1860 1.349 . S
C1859 C1861 1.327 . S
C1859 H1882 0.950 . S
C1860 C1859 1.349 . S
C1860 C1872 1.349 . S
C1861 C1859 1.327 . S
C1861 C1877 1.429 . S
C1861 H1883 0.950 . S
C1862 H1858 0.949 . S
C1862 C1870 1.574 . S
C1862 C1878 1.368 . S
H1863 C1871 0.950 . S
H1864 C1869 0.950 . S
H1865 C1870 0.949 . S
H1866 C1872 0.950 . S
H1867 C1873 0.950 . S
H1868 C1874 0.949 . S
C1869 H1864 0.950 . S
C1869 C1871 1.327 . S
C1869 C1875 1.429 . S
C1870 C1862 1.574 . S
C1870 H1865 0.949 . S
C1870 C1876 1.368 . S
C1871 C1855 1.349 . S
C1871 H1863 0.950 . S
C1871 C1869 1.327 . S
C1872 C1860 1.349 . S
C1872 H1866 0.950 . S
C1872 C1873 1.327 . S
C1873 H1867 0.950 . S
C1873 C1872 1.327 . S
C1873 C1877 1.429 . S
C1874 C1857 1.574 . S
C1874 H1868 0.949 . S
C1874 C1878 1.368 . S
C1875 C1856 1.429 . S
C1875 C1869 1.429 . S
C1875 C1876 1.523 . S
C1876 C1857 1.368 . S
C1876 C1870 1.368 . S
C1876 C1875 1.523 . S
C1877 C1861 1.429 . S
C1877 C1873 1.429 . S
C1877 C1878 1.523 . S
C1878 C1862 1.368 . S
C1878 C1874 1.368 . S
C1878 C1877 1.523 . S
H1879 C1854 0.950 . S
H1880 C1856 0.950 . S
H1881 C1857 0.949 . S
H1882 C1859 0.950 . S
H1883 C1861 0.950 . S
C1884 C1885 1.349 . S
C1884 C1886 1.327 . S
C1884 H1909 0.950 . S
C1885 C1884 1.349 . S
C1885 C1901 1.349 . S
C1886 C1884 1.327 . S
C1886 C1905 1.429 . S
C1886 H1910 0.950 . S
C1887 C1904 1.574 . S
C1887 C1906 1.368 . S
C1887 H1911 0.949 . S
H1888 C1892 0.949 . S
C1889 C1890 1.349 . S
C1889 C1891 1.327 . S
C1889 H1912 0.950 . S
C1890 C1889 1.349 . S
C1890 C1902 1.349 . S
C1891 C1889 1.327 . S
C1891 C1907 1.429 . S
C1891 H1913 0.950 . S
C1892 H1888 0.949 . S
C1892 C1900 1.574 . S
C1892 C1908 1.368 . S
H1893 C1901 0.950 . S
H1894 C1899 0.950 . S
H1895 C1900 0.949 . S
H1896 C1902 0.950 . S
H1897 C1903 0.950 . S
H1898 C1904 0.949 . S
C1899 H1894 0.950 . S
C1899 C1901 1.327 . S
C1899 C1905 1.429 . S
C1900 C1892 1.574 . S
C1900 H1895 0.949 . S
C1900 C1906 1.368 . S
C1901 C1885 1.349 . S
C1901 H1893 0.950 . S
C1901 C1899 1.327 . S
C1902 C1890 1.349 . S
C1902 H1896 0.950 . S
C1902 C1903 1.327 . S
C1903 H1897 0.950 . S
C1903 C1902 1.327 . S
C1903 C1907 1.429 . S
C1904 C1887 1.574 . S
C1904 H1898 0.949 . S
C1904 C1908 1.368 . S
C1905 C1886 1.429 . S
C1905 C1899 1.429 . S
C1905 C1906 1.523 . S
C1906 C1887 1.368 . S
C1906 C1900 1.368 . S
C1906 C1905 1.523 . S
C1907 C1891 1.429 . S
C1907 C1903 1.429 . S
C1907 C1908 1.523 . S
C1908 C1892 1.368 . S
C1908 C1904 1.368 . S
C1908 C1907 1.523 . S
H1909 C1884 0.950 . S
H1910 C1886 0.950 . S
H1911 C1887 0.949 . S
H1912 C1889 0.950 . S
H1913 C1891 0.950 . S
C1914 C1915 1.349 . S
C1914 C1916 1.327 . S
C1914 H1939 0.950 . S
C1915 C1914 1.349 . S
C1915 C1931 1.349 . S
C1916 C1914 1.327 . S
C1916 C1935 1.429 . S
C1916 H1940 0.950 . S
C1917 C1934 1.574 . S
C1917 C1936 1.368 . S
C1917 H1941 0.949 . S
H1918 C1922 0.949 . S
C1919 C1920 1.349 . S
C1919 C1921 1.327 . S
C1919 H1942 0.950 . S
C1920 C1919 1.349 . S
C1920 C1932 1.349 . S
C1921 C1919 1.327 . S
C1921 C1937 1.429 . S
C1921 H1943 0.950 . S
C1922 H1918 0.949 . S
C1922 C1930 1.574 . S
C1922 C1938 1.368 . S
H1923 C1931 0.950 . S
H1924 C1929 0.950 . S
H1925 C1930 0.949 . S
H1926 C1932 0.950 . S
H1927 C1933 0.950 . S
H1928 C1934 0.949 . S
C1929 H1924 0.950 . S
C1929 C1931 1.327 . S
C1929 C1935 1.429 . S
C1930 C1922 1.574 . S
C1930 H1925 0.949 . S
C1930 C1936 1.368 . S
C1931 C1915 1.349 . S
C1931 H1923 0.950 . S
C1931 C1929 1.327 . S
C1932 C1920 1.349 . S
C1932 H1926 0.950 . S
C1932 C1933 1.327 . S
C1933 H1927 0.950 . S
C1933 C1932 1.327 . S
C1933 C1937 1.429 . S
C1934 C1917 1.574 . S
C1934 H1928 0.949 . S
C1934 C1938 1.368 . S
C1935 C1916 1.429 . S
C1935 C1929 1.429 . S
C1935 C1936 1.523 . S
C1936 C1917 1.368 . S
C1936 C1930 1.368 . S
C1936 C1935 1.523 . S
C1937 C1921 1.429 . S
C1937 C1933 1.429 . S
C1937 C1938 1.523 . S
C1938 C1922 1.368 . S
C1938 C1934 1.368 . S
C1938 C1937 1.523 . S
H1939 C1914 0.950 . S
H1940 C1916 0.950 . S
H1941 C1917 0.949 . S
H1942 C1919 0.950 . S
H1943 C1921 0.950 . S
C1944 C1945 1.349 . S
C1944 C1946 1.327 . S
C1944 H1969 0.950 . S
C1945 C1944 1.349 . S
C1945 C1961 1.349 . S
C1946 C1944 1.327 . S
C1946 C1965 1.429 . S
C1946 H1970 0.950 . S
C1947 C1964 1.574 . S
C1947 C1966 1.368 . S
C1947 H1971 0.949 . S
H1948 C1952 0.949 . S
C1949 C1950 1.349 . S
C1949 C1951 1.327 . S
C1949 H1972 0.950 . S
C1950 C1949 1.349 . S
C1950 C1962 1.349 . S
C1951 C1949 1.327 . S
C1951 C1967 1.429 . S
C1951 H1973 0.950 . S
C1952 H1948 0.949 . S
C1952 C1960 1.574 . S
C1952 C1968 1.368 . S
H1953 C1961 0.950 . S
H1954 C1959 0.950 . S
H1955 C1960 0.949 . S
H1956 C1962 0.950 . S
H1957 C1963 0.950 . S
H1958 C1964 0.949 . S
C1959 H1954 0.950 . S
C1959 C1961 1.327 . S
C1959 C1965 1.429 . S
C1960 C1952 1.574 . S
C1960 H1955 0.949 . S
C1960 C1966 1.368 . S
C1961 C1945 1.349 . S
C1961 H1953 0.950 . S
C1961 C1959 1.327 . S
C1962 C1950 1.349 . S
C1962 H1956 0.950 . S
C1962 C1963 1.327 . S
C1963 H1957 0.950 . S
C1963 C1962 1.327 . S
C1963 C1967 1.429 . S
C1964 C1947 1.574 . S
C1964 H1958 0.949 . S
C1964 C1968 1.368 . S
C1965 C1946 1.429 . S
C1965 C1959 1.429 . S
C1965 C1966 1.523 . S
C1966 C1947 1.368 . S
C1966 C1960 1.368 . S
C1966 C1965 1.523 . S
C1967 C1951 1.429 . S
C1967 C1963 1.429 . S
C1967 C1968 1.523 . S
C1968 C1952 1.368 . S
C1968 C1964 1.368 . S
C1968 C1967 1.523 . S
H1969 C1944 0.950 . S
H1970 C1946 0.950 . S
H1971 C1947 0.949 . S
H1972 C1949 0.950 . S
H1973 C1951 0.950 . S
C1974 C1975 1.349 . S
C1974 C1976 1.327 . S
C1974 H1999 0.950 . S
C1975 C1974 1.349 . S
C1975 C1991 1.349 . S
C1976 C1974 1.327 . S
C1976 C1995 1.429 . S
C1976 H2000 0.950 . S
C1977 C1994 1.574 . S
C1977 C1996 1.368 . S
C1977 H2001 0.949 . S
H1978 C1982 0.949 . S
C1979 C1980 1.349 . S
C1979 C1981 1.327 . S
C1979 H2002 0.950 . S
C1980 C1979 1.349 . S
C1980 C1992 1.349 . S
C1981 C1979 1.327 . S
C1981 C1997 1.429 . S
C1981 H2003 0.950 . S
C1982 H1978 0.949 . S
C1982 C1990 1.574 . S
C1982 C1998 1.368 . S
H1983 C1991 0.950 . S
H1984 C1989 0.950 . S
H1985 C1990 0.949 . S
H1986 C1992 0.950 . S
H1987 C1993 0.950 . S
H1988 C1994 0.949 . S
C1989 H1984 0.950 . S
C1989 C1991 1.327 . S
C1989 C1995 1.429 . S
C1990 C1982 1.574 . S
C1990 H1985 0.949 . S
C1990 C1996 1.368 . S
C1991 C1975 1.349 . S
C1991 H1983 0.950 . S
C1991 C1989 1.327 . S
C1992 C1980 1.349 . S
C1992 H1986 0.950 . S
C1992 C1993 1.327 . S
C1993 H1987 0.950 . S
C1993 C1992 1.327 . S
C1993 C1997 1.429 . S
C1994 C1977 1.574 . S
C1994 H1988 0.949 . S
C1994 C1998 1.368 . S
C1995 C1976 1.429 . S
C1995 C1989 1.429 . S
C1995 C1996 1.523 . S
C1996 C1977 1.368 . S
C1996 C1990 1.368 . S
C1996 C1995 1.523 . S
C1997 C1981 1.429 . S
C1997 C1993 1.429 . S
C1997 C1998 1.523 . S
C1998 C1982 1.368 . S
C1998 C1994 1.368 . S
C1998 C1997 1.523 . S
H1999 C1974 0.950 . S
H2000 C1976 0.950 . S
H2001 C1977 0.949 . S
H2002 C1979 0.950 . S
H2003 C1981 0.950 . S
C2004 C2005 1.349 . S
C2004 C2006 1.327 . S
C2004 H2029 0.950 . S
C2005 C2004 1.349 . S
C2005 C2021 1.349 . S
C2006 C2004 1.327 . S
C2006 C2025 1.429 . S
C2006 H2030 0.950 . S
C2007 C2024 1.574 . S
C2007 C2026 1.368 . S
C2007 H2031 0.949 . S
H2008 C2012 0.949 . S
C2009 C2010 1.349 . S
C2009 C2011 1.327 . S
C2009 H2032 0.950 . S
C2010 C2009 1.349 . S
C2010 C2022 1.349 . S
C2011 C2009 1.327 . S
C2011 C2027 1.429 . S
C2011 H2033 0.950 . S
C2012 H2008 0.949 . S
C2012 C2020 1.574 . S
C2012 C2028 1.368 . S
H2013 C2021 0.950 . S
H2014 C2019 0.950 . S
H2015 C2020 0.949 . S
H2016 C2022 0.950 . S
H2017 C2023 0.950 . S
H2018 C2024 0.949 . S
C2019 H2014 0.950 . S
C2019 C2021 1.327 . S
C2019 C2025 1.429 . S
C2020 C2012 1.574 . S
C2020 H2015 0.949 . S
C2020 C2026 1.368 . S
C2021 C2005 1.349 . S
C2021 H2013 0.950 . S
C2021 C2019 1.327 . S
C2022 C2010 1.349 . S
C2022 H2016 0.950 . S
C2022 C2023 1.327 . S
C2023 H2017 0.950 . S
C2023 C2022 1.327 . S
C2023 C2027 1.429 . S
C2024 C2007 1.574 . S
C2024 H2018 0.949 . S
C2024 C2028 1.368 . S
C2025 C2006 1.429 . S
C2025 C2019 1.429 . S
C2025 C2026 1.523 . S
C2026 C2007 1.368 . S
C2026 C2020 1.368 . S
C2026 C2025 1.523 . S
C2027 C2011 1.429 . S
C2027 C2023 1.429 . S
C2027 C2028 1.523 . S
C2028 C2012 1.368 . S
C2028 C2024 1.368 . S
C2028 C2027 1.523 . S
H2029 C2004 0.950 . S
H2030 C2006 0.950 . S
H2031 C2007 0.949 . S
H2032 C2009 0.950 . S
H2033 C2011 0.950 . S
C2034 C2035 1.349 . S
C2034 C2036 1.327 . S
C2034 H2059 0.950 . S
C2035 C2034 1.349 . S
C2035 C2051 1.349 . S
C2036 C2034 1.327 . S
C2036 C2055 1.429 . S
C2036 H2060 0.950 . S
C2037 C2054 1.574 . S
C2037 C2056 1.368 . S
C2037 H2061 0.949 . S
H2038 C2042 0.949 . S
C2039 C2040 1.349 . S
C2039 C2041 1.327 . S
C2039 H2062 0.950 . S
C2040 C2039 1.349 . S
C2040 C2052 1.349 . S
C2041 C2039 1.327 . S
C2041 C2057 1.429 . S
C2041 H2063 0.950 . S
C2042 H2038 0.949 . S
C2042 C2050 1.574 . S
C2042 C2058 1.368 . S
H2043 C2051 0.950 . S
H2044 C2049 0.950 . S
H2045 C2050 0.949 . S
H2046 C2052 0.950 . S
H2047 C2053 0.950 . S
H2048 C2054 0.949 . S
C2049 H2044 0.950 . S
C2049 C2051 1.327 . S
C2049 C2055 1.429 . S
C2050 C2042 1.574 . S
C2050 H2045 0.949 . S
C2050 C2056 1.368 . S
C2051 C2035 1.349 . S
C2051 H2043 0.950 . S
C2051 C2049 1.327 . S
C2052 C2040 1.349 . S
C2052 H2046 0.950 . S
C2052 C2053 1.327 . S
C2053 H2047 0.950 . S
C2053 C2052 1.327 . S
C2053 C2057 1.429 . S
C2054 C2037 1.574 . S
C2054 H2048 0.949 . S
C2054 C2058 1.368 . S
C2055 C2036 1.429 . S
C2055 C2049 1.429 . S
C2055 C2056 1.523 . S
C2056 C2037 1.368 . S
C2056 C2050 1.368 . S
C2056 C2055 1.523 . S
C2057 C2041 1.429 . S
C2057 C2053 1.429 . S
C2057 C2058 1.523 . S
C2058 C2042 1.368 . S
C2058 C2054 1.368 . S
C2058 C2057 1.523 . S
H2059 C2034 0.950 . S
H2060 C2036 0.950 . S
H2061 C2037 0.949 . S
H2062 C2039 0.950 . S
H2063 C2041 0.950 . S
C2064 C2065 1.349 . S
C2064 C2066 1.327 . S
C2064 H2089 0.950 . S
C2065 C2064 1.349 . S
C2065 C2081 1.349 . S
C2066 C2064 1.327 . S
C2066 C2085 1.429 . S
C2066 H2090 0.950 . S
C2067 C2084 1.574 . S
C2067 C2086 1.368 . S
C2067 H2091 0.949 . S
H2068 C2072 0.949 . S
C2069 C2070 1.349 . S
C2069 C2071 1.327 . S
C2069 H2092 0.950 . S
C2070 C2069 1.349 . S
C2070 C2082 1.349 . S
C2071 C2069 1.327 . S
C2071 C2087 1.429 . S
C2071 H2093 0.950 . S
C2072 H2068 0.949 . S
C2072 C2080 1.574 . S
C2072 C2088 1.368 . S
H2073 C2081 0.950 . S
H2074 C2079 0.950 . S
H2075 C2080 0.949 . S
H2076 C2082 0.950 . S
H2077 C2083 0.950 . S
H2078 C2084 0.949 . S
C2079 H2074 0.950 . S
C2079 C2081 1.327 . S
C2079 C2085 1.429 . S
C2080 C2072 1.574 . S
C2080 H2075 0.949 . S
C2080 C2086 1.368 . S
C2081 C2065 1.349 . S
C2081 H2073 0.950 . S
C2081 C2079 1.327 . S
C2082 C2070 1.349 . S
C2082 H2076 0.950 . S
C2082 C2083 1.327 . S
C2083 H2077 0.950 . S
C2083 C2082 1.327 . S
C2083 C2087 1.429 . S
C2084 C2067 1.574 . S
C2084 H2078 0.949 . S
C2084 C2088 1.368 . S
C2085 C2066 1.429 . S
C2085 C2079 1.429 . S
C2085 C2086 1.523 . S
C2086 C2067 1.368 . S
C2086 C2080 1.368 . S
C2086 C2085 1.523 . S
C2087 C2071 1.429 . S
C2087 C2083 1.429 . S
C2087 C2088 1.523 . S
C2088 C2072 1.368 . S
C2088 C2084 1.368 . S
C2088 C2087 1.523 . S
H2089 C2064 0.950 . S
H2090 C2066 0.950 . S
H2091 C2067 0.949 . S
H2092 C2069 0.950 . S
H2093 C2071 0.950 . S
C2094 C2095 1.349 . S
C2094 C2096 1.327 . S
C2094 H2119 0.950 . S
C2095 C2094 1.349 . S
C2095 C2111 1.349 . S
C2096 C2094 1.327 . S
C2096 C2115 1.429 . S
C2096 H2120 0.950 . S
C2097 C2114 1.574 . S
C2097 C2116 1.368 . S
C2097 H2121 0.949 . S
H2098 C2102 0.949 . S
C2099 C2100 1.349 . S
C2099 C2101 1.327 . S
C2099 H2122 0.950 . S
C2100 C2099 1.349 . S
C2100 C2112 1.349 . S
C2101 C2099 1.327 . S
C2101 C2117 1.429 . S
C2101 H2123 0.950 . S
C2102 H2098 0.949 . S
C2102 C2110 1.574 . S
C2102 C2118 1.368 . S
H2103 C2111 0.950 . S
H2104 C2109 0.950 . S
H2105 C2110 0.949 . S
H2106 C2112 0.950 . S
H2107 C2113 0.950 . S
H2108 C2114 0.949 . S
C2109 H2104 0.950 . S
C2109 C2111 1.327 . S
C2109 C2115 1.429 . S
C2110 C2102 1.574 . S
C2110 H2105 0.949 . S
C2110 C2116 1.368 . S
C2111 C2095 1.349 . S
C2111 H2103 0.950 . S
C2111 C2109 1.327 . S
C2112 C2100 1.349 . S
C2112 H2106 0.950 . S
C2112 C2113 1.327 . S
C2113 H2107 0.950 . S
C2113 C2112 1.327 . S
C2113 C2117 1.429 . S
C2114 C2097 1.574 . S
C2114 H2108 0.949 . S
C2114 C2118 1.368 . S
C2115 C2096 1.429 . S
C2115 C2109 1.429 . S
C2115 C2116 1.523 . S
C2116 C2097 1.368 . S
C2116 C2110 1.368 . S
C2116 C2115 1.523 . S
C2117 C2101 1.429 . S
C2117 C2113 1.429 . S
C2117 C2118 1.523 . S
C2118 C2102 1.368 . S
C2118 C2114 1.368 . S
C2118 C2117 1.523 . S
H2119 C2094 0.950 . S
H2120 C2096 0.950 . S
H2121 C2097 0.949 . S
H2122 C2099 0.950 . S
H2123 C2101 0.950 . S
C2124 C2125 1.349 . S
C2124 C2126 1.327 . S
C2124 H2149 0.950 . S
C2125 C2124 1.349 . S
C2125 C2141 1.349 . S
C2126 C2124 1.327 . S
C2126 C2145 1.429 . S
C2126 H2150 0.950 . S
C2127 C2144 1.574 . S
C2127 C2146 1.368 . S
C2127 H2151 0.949 . S
H2128 C2132 0.949 . S
C2129 C2130 1.349 . S
C2129 C2131 1.327 . S
C2129 H2152 0.950 . S
C2130 C2129 1.349 . S
C2130 C2142 1.349 . S
C2131 C2129 1.327 . S
C2131 C2147 1.429 . S
C2131 H2153 0.950 . S
C2132 H2128 0.949 . S
C2132 C2140 1.574 . S
C2132 C2148 1.368 . S
H2133 C2141 0.950 . S
H2134 C2139 0.950 . S
H2135 C2140 0.949 . S
H2136 C2142 0.950 1_455 S
H2137 C2143 0.950 . S
H2138 C2144 0.949 . S
C2139 H2134 0.950 . S
C2139 C2141 1.327 . S
C2139 C2145 1.429 . S
C2140 C2132 1.574 . S
C2140 H2135 0.949 . S
C2140 C2146 1.368 . S
C2141 C2125 1.349 . S
C2141 H2133 0.950 . S
C2141 C2139 1.327 . S
C2142 C2130 1.349 . S
C2142 H2136 0.950 1_655 S
C2142 C2143 1.327 . S
C2143 H2137 0.950 . S
C2143 C2142 1.327 . S
C2143 C2147 1.429 . S
C2144 C2127 1.574 . S
C2144 H2138 0.949 . S
C2144 C2148 1.368 . S
C2145 C2126 1.429 . S
C2145 C2139 1.429 . S
C2145 C2146 1.523 . S
C2146 C2127 1.368 . S
C2146 C2140 1.368 . S
C2146 C2145 1.523 . S
C2147 C2131 1.429 . S
C2147 C2143 1.429 . S
C2147 C2148 1.523 . S
C2148 C2132 1.368 . S
C2148 C2144 1.368 . S
C2148 C2147 1.523 . S
H2149 C2124 0.950 . S
H2150 C2126 0.950 . S
H2151 C2127 0.949 . S
H2152 C2129 0.950 . S
H2153 C2131 0.950 . S
C2154 C2155 1.349 . S
C2154 C2156 1.327 . S
C2154 H2179 0.950 . S
C2155 C2154 1.349 . S
C2155 C2171 1.349 . S
C2156 C2154 1.327 . S
C2156 C2175 1.429 . S
C2156 H2180 0.950 . S
C2157 C2174 1.574 . S
C2157 C2176 1.368 . S
C2157 H2181 0.949 . S
H2158 C2162 0.949 . S
C2159 C2160 1.349 . S
C2159 C2161 1.327 . S
C2159 H2182 0.950 . S
C2160 C2159 1.349 . S
C2160 C2172 1.349 . S
C2161 C2159 1.327 . S
C2161 C2177 1.429 . S
C2161 H2183 0.950 . S
C2162 H2158 0.949 . S
C2162 C2170 1.574 . S
C2162 C2178 1.368 . S
H2163 C2171 0.950 . S
H2164 C2169 0.950 . S
H2165 C2170 0.949 . S
H2166 C2172 0.950 . S
H2167 C2173 0.950 . S
H2168 C2174 0.949 . S
C2169 H2164 0.950 . S
C2169 C2171 1.327 . S
C2169 C2175 1.429 . S
C2170 C2162 1.574 . S
C2170 H2165 0.949 . S
C2170 C2176 1.368 . S
C2171 C2155 1.349 . S
C2171 H2163 0.950 . S
C2171 C2169 1.327 . S
C2172 C2160 1.349 . S
C2172 H2166 0.950 . S
C2172 C2173 1.327 . S
C2173 H2167 0.950 . S
C2173 C2172 1.327 . S
C2173 C2177 1.429 . S
C2174 C2157 1.574 . S
C2174 H2168 0.949 . S
C2174 C2178 1.368 . S
C2175 C2156 1.429 . S
C2175 C2169 1.429 . S
C2175 C2176 1.523 . S
C2176 C2157 1.368 . S
C2176 C2170 1.368 . S
C2176 C2175 1.523 . S
C2177 C2161 1.429 . S
C2177 C2173 1.429 . S
C2177 C2178 1.523 . S
C2178 C2162 1.368 . S
C2178 C2174 1.368 . S
C2178 C2177 1.523 . S
H2179 C2154 0.950 . S
H2180 C2156 0.950 . S
H2181 C2157 0.949 . S
H2182 C2159 0.950 . S
H2183 C2161 0.950 . S
C2184 C2185 1.349 . S
C2184 C2186 1.327 . S
C2184 H2209 0.950 . S
C2185 C2184 1.349 . S
C2185 C2201 1.349 . S
C2186 C2184 1.327 . S
C2186 C2205 1.429 . S
C2186 H2210 0.950 . S
C2187 C2204 1.574 . S
C2187 C2206 1.368 . S
C2187 H2211 0.949 . S
H2188 C2192 0.949 . S
C2189 C2190 1.349 . S
C2189 C2191 1.327 . S
C2189 H2212 0.950 . S
C2190 C2189 1.349 . S
C2190 C2202 1.349 . S
C2191 C2189 1.327 . S
C2191 C2207 1.429 . S
C2191 H2213 0.950 . S
C2192 H2188 0.949 . S
C2192 C2200 1.574 . S
C2192 C2208 1.368 . S
H2193 C2201 0.950 . S
H2194 C2199 0.950 . S
H2195 C2200 0.949 . S
H2196 C2202 0.950 . S
H2197 C2203 0.950 . S
H2198 C2204 0.949 . S
C2199 H2194 0.950 . S
C2199 C2201 1.327 . S
C2199 C2205 1.429 . S
C2200 C2192 1.574 . S
C2200 H2195 0.949 . S
C2200 C2206 1.368 . S
C2201 C2185 1.349 . S
C2201 H2193 0.950 . S
C2201 C2199 1.327 . S
C2202 C2190 1.349 . S
C2202 H2196 0.950 . S
C2202 C2203 1.327 . S
C2203 H2197 0.950 . S
C2203 C2202 1.327 . S
C2203 C2207 1.429 . S
C2204 C2187 1.574 . S
C2204 H2198 0.949 . S
C2204 C2208 1.368 . S
C2205 C2186 1.429 . S
C2205 C2199 1.429 . S
C2205 C2206 1.523 . S
C2206 C2187 1.368 . S
C2206 C2200 1.368 . S
C2206 C2205 1.523 . S
C2207 C2191 1.429 . S
C2207 C2203 1.429 . S
C2207 C2208 1.523 . S
C2208 C2192 1.368 . S
C2208 C2204 1.368 . S
C2208 C2207 1.523 . S
H2209 C2184 0.950 . S
H2210 C2186 0.950 . S
H2211 C2187 0.949 . S
H2212 C2189 0.950 . S
H2213 C2191 0.950 . S
C2214 C2215 1.349 . S
C2214 C2216 1.327 . S
C2214 H2239 0.950 . S
C2215 C2214 1.349 . S
C2215 C2231 1.349 . S
C2216 C2214 1.327 . S
C2216 C2235 1.429 . S
C2216 H2240 0.950 . S
C2217 C2234 1.574 . S
C2217 C2236 1.368 . S
C2217 H2241 0.949 . S
H2218 C2222 0.949 . S
C2219 C2220 1.349 . S
C2219 C2221 1.327 . S
C2219 H2242 0.950 . S
C2220 C2219 1.349 . S
C2220 C2232 1.349 . S
C2221 C2219 1.327 . S
C2221 C2237 1.429 . S
C2221 H2243 0.950 . S
C2222 H2218 0.949 . S
C2222 C2230 1.574 . S
C2222 C2238 1.368 . S
H2223 C2231 0.950 . S
H2224 C2229 0.950 . S
H2225 C2230 0.949 . S
H2226 C2232 0.950 . S
H2227 C2233 0.950 . S
H2228 C2234 0.949 . S
C2229 H2224 0.950 . S
C2229 C2231 1.327 . S
C2229 C2235 1.429 . S
C2230 C2222 1.574 . S
C2230 H2225 0.949 . S
C2230 C2236 1.368 . S
C2231 C2215 1.349 . S
C2231 H2223 0.950 . S
C2231 C2229 1.327 . S
C2232 C2220 1.349 . S
C2232 H2226 0.950 . S
C2232 C2233 1.327 . S
C2233 H2227 0.950 . S
C2233 C2232 1.327 . S
C2233 C2237 1.429 . S
C2234 C2217 1.574 . S
C2234 H2228 0.949 . S
C2234 C2238 1.368 . S
C2235 C2216 1.429 . S
C2235 C2229 1.429 . S
C2235 C2236 1.523 . S
C2236 C2217 1.368 . S
C2236 C2230 1.368 . S
C2236 C2235 1.523 . S
C2237 C2221 1.429 . S
C2237 C2233 1.429 . S
C2237 C2238 1.523 . S
C2238 C2222 1.368 . S
C2238 C2234 1.368 . S
C2238 C2237 1.523 . S
H2239 C2214 0.950 . S
H2240 C2216 0.950 . S
H2241 C2217 0.949 . S
H2242 C2219 0.950 . S
H2243 C2221 0.950 . S
C2244 C2245 1.349 . S
C2244 C2246 1.327 . S
C2244 H2269 0.950 . S
C2245 C2244 1.349 . S
C2245 C2261 1.349 . S
C2246 C2244 1.327 . S
C2246 C2265 1.429 . S
C2246 H2270 0.950 . S
C2247 C2264 1.574 . S
C2247 C2266 1.368 . S
C2247 H2271 0.949 . S
H2248 C2252 0.949 . S
C2249 C2250 1.349 . S
C2249 C2251 1.327 . S
C2249 H2272 0.950 . S
C2250 C2249 1.349 . S
C2250 C2262 1.349 . S
C2251 C2249 1.327 . S
C2251 C2267 1.429 . S
C2251 H2273 0.950 . S
C2252 H2248 0.949 . S
C2252 C2260 1.574 . S
C2252 C2268 1.368 . S
H2253 C2261 0.950 . S
H2254 C2259 0.950 . S
H2255 C2260 0.949 . S
H2256 C2262 0.950 . S
H2257 C2263 0.950 . S
H2258 C2264 0.949 . S
C2259 H2254 0.950 . S
C2259 C2261 1.327 . S
C2259 C2265 1.429 . S
C2260 C2252 1.574 . S
C2260 H2255 0.949 . S
C2260 C2266 1.368 . S
C2261 C2245 1.349 . S
C2261 H2253 0.950 . S
C2261 C2259 1.327 . S
C2262 C2250 1.349 . S
C2262 H2256 0.950 . S
C2262 C2263 1.327 . S
C2263 H2257 0.950 . S
C2263 C2262 1.327 . S
C2263 C2267 1.429 . S
C2264 C2247 1.574 . S
C2264 H2258 0.949 . S
C2264 C2268 1.368 . S
C2265 C2246 1.429 . S
C2265 C2259 1.429 . S
C2265 C2266 1.523 . S
C2266 C2247 1.368 . S
C2266 C2260 1.368 . S
C2266 C2265 1.523 . S
C2267 C2251 1.429 . S
C2267 C2263 1.429 . S
C2267 C2268 1.523 . S
C2268 C2252 1.368 . S
C2268 C2264 1.368 . S
C2268 C2267 1.523 . S
H2269 C2244 0.950 . S
H2270 C2246 0.950 . S
H2271 C2247 0.949 . S
H2272 C2249 0.950 . S
H2273 C2251 0.950 . S
C2274 C2275 1.349 . S
C2274 C2276 1.327 . S
C2274 H2299 0.950 . S
C2275 C2274 1.349 . S
C2275 C2291 1.349 . S
C2276 C2274 1.327 . S
C2276 C2295 1.429 . S
C2276 H2300 0.950 . S
C2277 C2294 1.574 . S
C2277 C2296 1.368 . S
C2277 H2301 0.949 . S
H2278 C2282 0.949 . S
C2279 C2280 1.349 . S
C2279 C2281 1.327 . S
C2279 H2302 0.950 . S
C2280 C2279 1.349 . S
C2280 C2292 1.349 . S
C2281 C2279 1.327 . S
C2281 C2297 1.429 . S
C2281 H2303 0.950 . S
C2282 H2278 0.949 . S
C2282 C2290 1.574 . S
C2282 C2298 1.368 . S
H2283 C2291 0.950 . S
H2284 C2289 0.950 . S
H2285 C2290 0.949 . S
H2286 C2292 0.950 . S
H2287 C2293 0.950 . S
H2288 C2294 0.949 . S
C2289 H2284 0.950 . S
C2289 C2291 1.327 . S
C2289 C2295 1.429 . S
C2290 C2282 1.574 . S
C2290 H2285 0.949 . S
C2290 C2296 1.368 . S
C2291 C2275 1.349 . S
C2291 H2283 0.950 . S
C2291 C2289 1.327 . S
C2292 C2280 1.349 . S
C2292 H2286 0.950 . S
C2292 C2293 1.327 . S
C2293 H2287 0.950 . S
C2293 C2292 1.327 . S
C2293 C2297 1.429 . S
C2294 C2277 1.574 . S
C2294 H2288 0.949 . S
C2294 C2298 1.368 . S
C2295 C2276 1.429 . S
C2295 C2289 1.429 . S
C2295 C2296 1.523 . S
C2296 C2277 1.368 . S
C2296 C2290 1.368 . S
C2296 C2295 1.523 . S
C2297 C2281 1.429 . S
C2297 C2293 1.429 . S
C2297 C2298 1.523 . S
C2298 C2282 1.368 . S
C2298 C2294 1.368 . S
C2298 C2297 1.523 . S
H2299 C2274 0.950 . S
H2300 C2276 0.950 . S
H2301 C2277 0.949 . S
H2302 C2279 0.950 . S
H2303 C2281 0.950 . S
C870 C689 1.416 . S
C865 C75 1.333 . S
C900 C694 0.630 . S
C895 C156 0.679 . S
C930 C695 1.422 . S
C925 C243 1.340 . S
C955 C315 0.742 . S
C960 C699 0.736 . S
C985 C399 0.868 . S
C990 C702 0.527 . S
C1020 C703 1.398 . S
C1015 C495 1.319 . S
C1045 C576 1.253 . S
C1050 C680 1.350 . S
C1075 C654 1.326 . S
C1080 C696 1.399 . S
C1110 C734 0.951 . S
C1105 C72 0.909 . S
C1135 C140 1.225 . S
C1140 C760 1.249 . S
C1170 C712 0.893 . S
C1165 C240 0.870 . S
C1200 C767 0.873 . S
C1195 C318 0.863 . S
C1225 C402 0.855 . S
C1230 C721 0.863 . S
C1260 C763 1.610 1_556 S
C1255 C492 1.513 . S
C1285 C560 1.232 . S
C1290 C727 1.278 . S
C1315 C655 2.660 . S
C1320 C758 2.758 . S
C1345 C56 2.881 . S
C1350 C766 2.946 . S
C1375 C403 1.592 . S
C1380 C753 1.629 1_556 S
C1410 C731 2.147 . S
C1405 C476 2.080 . S
C1440 C759 1.770 1_556 S
C1435 C579 1.724 . S
C1465 C651 1.127 . S
C1470 C726 1.167 . S
C1495 C224 3.002 . S
C1500 C744 3.085 . S
C1530 C735 1.631 . S
C1525 C319 1.573 . S
C1555 C159 1.773 . S
C1560 C728 1.821 . S
C1585 C663 1.297 . S
C1590 C790 1.313 . S
C1615 C408 0.890 . S
C1620 C785 0.445 . S
C1650 C799 1.315 . S
C1645 C486 1.287 . S
C1680 C776 1.326 . S
C1675 C567 1.226 . S
C1705 C147 0.671 . S
C1710 C792 0.598 . S
C1740 C791 1.338 . S
C1735 C234 1.311 . S
C1765 C324 0.724 . S
C1770 C795 0.707 . S
C1795 C66 1.309 . S
C1800 C798 1.361 . S
C1825 C660 1.130 . S
C1830 C824 1.206 . S
C1860 C840 1.620 . S
C1855 C392 1.612 . S
C1885 C487 2.084 . S
C1890 C822 2.192 . S
C1915 C570 1.738 . S
C1920 C855 1.747 . S
C1950 C831 1.788 . S
C1945 C150 1.761 . S
C1975 C235 3.043 . S
C1980 C849 3.129 . S
C2010 C827 1.565 . S
C2005 C308 1.553 . S
C2040 C862 3.018 . S
C2035 C67 2.919 . S
C2070 C854 2.771 . S
C2065 C644 2.699 . S
C2095 C151 1.246 . S
C2100 C859 1.274 . S
C2125 C231 0.871 . S
C2130 C830 0.906 . S
C2160 C863 0.891 . S
C2155 C327 0.879 . S
C2185 C63 0.913 . S
C2190 C817 0.955 . S
C2215 C483 1.538 . S
C2220 C856 1.631 . S
C2250 C808 1.278 . S
C2245 C571 1.216 . S
C2280 C823 0.840 . S
C2275 C411 0.838 . S
