# Generated by pormake.
# Topology cml, (3,6)-cn, num edge types: 1
# Building blocks:
#     Node 0, Type 0, BuildingBlock: WUSLED_clean_sbu_0, # of connection points: 3
#     Node 1, Type 0, BuildingBlock: WUSLED_clean_sbu_0, # of connection points: 3
#     Node 2, Type 0, BuildingBlock: WUSLED_clean_sbu_0, # of connection points: 3
#     Node 3, Type 0, BuildingBlock: WUSLED_clean_sbu_0, # of connection points: 3
#     Node 4, Type 0, BuildingBlock: WUSLED_clean_sbu_0, # of connection points: 3
#     Node 5, Type 0, BuildingBlock: WUSLED_clean_sbu_0, # of connection points: 3
#     Node 6, Type 0, BuildingBlock: WUSLED_clean_sbu_0, # of connection points: 3
#     Node 7, Type 0, BuildingBlock: WUSLED_clean_sbu_0, # of connection points: 3
#     Node 8, Type 1, BuildingBlock: IZENUY_clean_sbu_0, # of connection points: 6
#     Node 9, Type 1, BuildingBlock: IZENUY_clean_sbu_0, # of connection points: 6
#     Node 10, Type 1, BuildingBlock: IZENUY_clean_sbu_0, # of connection points: 6
#     Node 11, Type 1, BuildingBlock: IZENUY_clean_sbu_0, # of connection points: 6
#     Edge 12, Type (0, 1), BuildingBlock: ZUJKAS_clean_linker_0, # of connection points: 2
#     Edge 13, Type (0, 1), BuildingBlock: ZUJKAS_clean_linker_0, # of connection points: 2
#     Edge 14, Type (0, 1), BuildingBlock: ZUJKAS_clean_linker_0, # of connection points: 2
#     Edge 15, Type (0, 1), BuildingBlock: ZUJKAS_clean_linker_0, # of connection points: 2
#     Edge 16, Type (0, 1), BuildingBlock: ZUJKAS_clean_linker_0, # of connection points: 2
#     Edge 17, Type (0, 1), BuildingBlock: ZUJKAS_clean_linker_0, # of connection points: 2
#     Edge 18, Type (0, 1), BuildingBlock: ZUJKAS_clean_linker_0, # of connection points: 2
#     Edge 19, Type (0, 1), BuildingBlock: ZUJKAS_clean_linker_0, # of connection points: 2
#     Edge 20, Type (0, 1), BuildingBlock: ZUJKAS_clean_linker_0, # of connection points: 2
#     Edge 21, Type (0, 1), BuildingBlock: ZUJKAS_clean_linker_0, # of connection points: 2
#     Edge 22, Type (0, 1), BuildingBlock: ZUJKAS_clean_linker_0, # of connection points: 2
#     Edge 23, Type (0, 1), BuildingBlock: ZUJKAS_clean_linker_0, # of connection points: 2
#     Edge 24, Type (0, 1), BuildingBlock: ZUJKAS_clean_linker_0, # of connection points: 2
#     Edge 25, Type (0, 1), BuildingBlock: ZUJKAS_clean_linker_0, # of connection points: 2
#     Edge 26, Type (0, 1), BuildingBlock: ZUJKAS_clean_linker_0, # of connection points: 2
#     Edge 27, Type (0, 1), BuildingBlock: ZUJKAS_clean_linker_0, # of connection points: 2
#     Edge 28, Type (0, 1), BuildingBlock: ZUJKAS_clean_linker_0, # of connection points: 2
#     Edge 29, Type (0, 1), BuildingBlock: ZUJKAS_clean_linker_0, # of connection points: 2
#     Edge 30, Type (0, 1), BuildingBlock: ZUJKAS_clean_linker_0, # of connection points: 2
#     Edge 31, Type (0, 1), BuildingBlock: ZUJKAS_clean_linker_0, # of connection points: 2
#     Edge 32, Type (0, 1), BuildingBlock: ZUJKAS_clean_linker_0, # of connection points: 2
#     Edge 33, Type (0, 1), BuildingBlock: ZUJKAS_clean_linker_0, # of connection points: 2
#     Edge 34, Type (0, 1), BuildingBlock: ZUJKAS_clean_linker_0, # of connection points: 2
#     Edge 35, Type (0, 1), BuildingBlock: ZUJKAS_clean_linker_0, # of connection points: 2
# Relax obj value: 0.052
# Max RMSD: 0.067
# Mean RMSD: 0.065
data_MOF--net-cml--node1-WUSLED_clean_sbu_0--node2-IZENUY_clean_sbu_0--edge1-ZUJKAS_clean_linker_0
_symmetry_space_group_name_H-M    P1
_symmetry_Int_Tables_number       1
_symmetry_cell_setting            triclinic
loop_
_symmetry_equiv_pos_as_xyz
'x, y, z'
_cell_length_a     56.181186
_cell_length_b     64.854965
_cell_length_c     60.009371
_cell_angle_alpha  90.230257
_cell_angle_beta   90.025262
_cell_angle_gamma 90.003526
loop_
_atom_site_label
_atom_site_type_symbol
_atom_site_fract_x
_atom_site_fract_y
_atom_site_fract_z
_atom_type_partial_charge
C0 C 0.31078 0.42568 0.96313 0.0
C1 C 0.33069 0.43342 0.97454 0.0
C2 C 0.33525 0.46052 0.94683 0.0
C3 C 0.34285 0.45064 0.96643 0.0
C4 C 0.31521 0.45268 0.93552 0.0
C5 C 0.3031 0.43541 0.94362 0.0
U6 U 0.29888 0.38801 1.00983 0.0
O7 O 0.26527 0.37483 0.02221 0.0
O8 O 0.29341 0.35445 1.00951 0.0
C9 C 0.27128 0.35596 0.01648 0.0
C10 C 0.29783 0.40769 0.97172 0.0
C11 C 0.25345 0.34452 1.00335 0.0
C12 C 0.23677 0.33359 0.9678 0.0
C13 C 0.25369 0.34483 0.97995 0.0
C14 C 0.21894 0.32198 1.00229 0.0
C15 C 0.2192 0.32202 0.97884 0.0
C16 C 0.23593 0.3331 0.0144 0.0
C17 C 0.33508 0.3962 0.06386 0.0
C18 C 0.33694 0.37259 0.09519 0.0
C19 C 0.35623 0.40595 0.09757 0.0
C20 C 0.34852 0.41052 0.07603 0.0
C21 C 0.35064 0.3869 0.10741 0.0
C22 C 0.32917 0.37723 0.07357 0.0
C23 C 0.328 0.40135 0.04097 0.0
O24 O 0.31089 0.39117 0.97514 0.0
O25 O 0.28305 0.41163 0.98814 0.0
O26 O 0.30622 0.40837 0.03847 0.0
O27 O 0.33428 0.38808 0.02544 0.0
H28 H 0.33685 0.42611 0.98969 0.0
H29 H 0.35839 0.45603 0.9754 0.0
H30 H 0.30866 0.46006 0.92057 0.0
H31 H 0.28766 0.4297 0.93469 0.0
H32 H 0.23729 0.33413 0.94977 0.0
H33 H 0.26698 0.35371 0.9711 0.0
H34 H 0.20583 0.31305 1.0113 0.0
H35 H 0.23546 0.3327 0.03245 0.0
H36 H 0.33215 0.35787 0.10235 0.0
H37 H 0.36706 0.41718 0.10631 0.0
H38 H 0.35331 0.42521 0.06874 0.0
H39 H 0.31873 0.366 0.0644 0.0
C40 C 0.71117 0.66407 0.57271 0.0
C41 C 0.69579 0.64777 0.57803 0.0
C42 C 0.68623 0.66413 0.61353 0.0
C43 C 0.68346 0.64778 0.59826 0.0
C44 C 0.70171 0.68043 0.60808 0.0
C45 C 0.71408 0.68038 0.58784 0.0
U46 U 0.72173 0.63993 0.51625 0.0
O47 O 0.72648 0.65353 0.48307 0.0
O48 O 0.75476 0.63429 0.49737 0.0
C49 C 0.74845 0.64674 0.48117 0.0
C50 C 0.72387 0.66417 0.55129 0.0
C51 C 0.76652 0.66196 0.47424 0.0
C52 C 0.78081 0.69726 0.47113 0.0
C53 C 0.76381 0.68312 0.47868 0.0
C54 C 0.80372 0.66925 0.45514 0.0
C55 C 0.80091 0.69049 0.45919 0.0
C56 C 0.78665 0.65516 0.46253 0.0
C57 C 0.68399 0.59173 0.50289 0.0
C58 C 0.68248 0.57419 0.46704 0.0
C59 C 0.65946 0.56125 0.49814 0.0
C60 C 0.66824 0.57712 0.5116 0.0
C61 C 0.66625 0.5597 0.47563 0.0
C62 C 0.69125 0.59014 0.48058 0.0
C63 C 0.69194 0.60873 0.51732 0.0
O64 O 0.73845 0.64859 0.54809 0.0
O65 O 0.71054 0.66815 0.53383 0.0
O66 O 0.68587 0.62733 0.51084 0.0
O67 O 0.71395 0.6076 0.52465 0.0
H68 H 0.69322 0.6351 0.56645 0.0
H69 H 0.67144 0.63515 0.60176 0.0
H70 H 0.70442 0.69315 0.61956 0.0
H71 H 0.7259 0.69308 0.58398 0.0
H72 H 0.77828 0.71349 0.47474 0.0
H73 H 0.74852 0.68876 0.48785 0.0
H74 H 0.81887 0.66355 0.4458 0.0
H75 H 0.78906 0.63891 0.4589 0.0
H76 H 0.68794 0.57349 0.44975 0.0
H77 H 0.64734 0.55015 0.50539 0.0
H78 H 0.66254 0.57808 0.52882 0.0
H79 H 0.70342 0.60135 0.4736 0.0
C80 C 0.70999 0.42886 0.96824 0.0
C81 C 0.69554 0.43985 0.98321 0.0
C82 C 0.68522 0.46434 0.95404 0.0
C83 C 0.68331 0.45746 0.97619 0.0
C84 C 0.69992 0.45332 0.93919 0.0
C85 C 0.71219 0.43575 0.94624 0.0
U86 U 0.72099 0.38736 1.01144 0.0
O87 O 0.72474 0.3537 1.00765 0.0
O88 O 0.75389 0.37193 0.0221 0.0
C89 C 0.74687 0.35379 0.01476 0.0
C90 C 0.72226 0.40993 0.97524 0.0
C91 C 0.76407 0.3423 1.00094 0.0
C92 C 0.79536 0.34106 0.97294 0.0
C93 C 0.77855 0.35228 0.98525 0.0
C94 C 0.78298 0.30973 0.99147 0.0
C95 C 0.79783 0.31965 0.97597 0.0
C96 C 0.76632 0.32097 1.00383 0.0
C97 C 0.68648 0.39164 0.06675 0.0
C98 C 0.67892 0.36427 0.09343 0.0
C99 C 0.67162 0.39988 0.10372 0.0
C100 C 0.67916 0.40618 0.08265 0.0
C101 C 0.6712 0.37884 0.10933 0.0
C102 C 0.68658 0.37063 0.07233 0.0
C103 C 0.69312 0.39882 0.04435 0.0
O104 O 0.73743 0.41213 0.99177 0.0
O105 O 0.70848 0.39368 0.97741 0.0
O106 O 0.68588 0.38737 0.02754 0.0
O107 O 0.71507 0.40547 0.04209 0.0
H108 H 0.69353 0.43465 1.00024 0.0
H109 H 0.67192 0.46542 0.98798 0.0
H110 H 0.70202 0.45833 0.92211 0.0
H111 H 0.72327 0.42744 0.93447 0.0
H112 H 0.80633 0.34912 0.96096 0.0
H113 H 0.77698 0.36875 0.98263 0.0
H114 H 0.7846 0.29332 0.99442 0.0
H115 H 0.75532 0.313 0.01588 0.0
H116 H 0.67901 0.34798 0.09731 0.0
H117 H 0.66547 0.41147 0.11541 0.0
H118 H 0.67891 0.42246 0.07862 0.0
H119 H 0.69231 0.35915 0.06031 0.0
C120 C 0.30947 0.66725 0.57209 0.0
C121 C 0.32868 0.65391 0.57587 0.0
C122 C 0.33419 0.66839 0.61307 0.0
C123 C 0.34097 0.65451 0.59612 0.0
C124 C 0.31483 0.68171 0.60917 0.0
C125 C 0.30259 0.68112 0.58884 0.0
U126 U 0.29749 0.64063 0.51711 0.0
O127 O 0.26428 0.63499 0.49868 0.0
O128 O 0.29288 0.65304 0.48327 0.0
C129 C 0.27079 0.6465 0.48175 0.0
C130 C 0.29655 0.66658 0.55077 0.0
C131 C 0.25327 0.66188 0.47431 0.0
C132 C 0.22563 0.68989 0.48197 0.0
C133 C 0.24264 0.67568 0.48938 0.0
C134 C 0.23002 0.67686 0.44431 0.0
C135 C 0.219 0.69058 0.45933 0.0
C136 C 0.24695 0.66265 0.45175 0.0
C137 C 0.33304 0.59052 0.50652 0.0
C138 C 0.33565 0.57183 0.47141 0.0
C139 C 0.35366 0.55767 0.5047 0.0
C140 C 0.34584 0.57473 0.51692 0.0
C141 C 0.34881 0.55603 0.48175 0.0
C142 C 0.32778 0.58894 0.48372 0.0
C143 C 0.32598 0.60861 0.51981 0.0
O144 O 0.3098 0.66933 0.53298 0.0
O145 O 0.28142 0.65125 0.5486 0.0
O146 O 0.30406 0.60858 0.52742 0.0
O147 O 0.33272 0.62663 0.5121 0.0
H148 H 0.33424 0.64307 0.5631 0.0
H149 H 0.35599 0.64426 0.59837 0.0
H150 H 0.30893 0.6924 0.62192 0.0
H151 H 0.28771 0.69146 0.58622 0.0
H152 H 0.21737 0.70007 0.49404 0.0
H153 H 0.24735 0.67534 0.50689 0.0
H154 H 0.22572 0.67717 0.42673 0.0
H155 H 0.25509 0.6522 0.43986 0.0
H156 H 0.33141 0.57096 0.45382 0.0
H157 H 0.36406 0.54601 0.51314 0.0
H158 H 0.35012 0.57575 0.5345 0.0
H159 H 0.31782 0.60099 0.47544 0.0
C160 C 0.81111 0.92654 0.96303 0.0
C161 C 0.83085 0.93426 0.9747 0.0
C162 C 0.83574 0.96146 0.94717 0.0
C163 C 0.84308 0.95153 0.96683 0.0
C164 C 0.81585 0.95366 0.9356 0.0
C165 C 0.80365 0.93634 0.94348 0.0
U166 U 0.80097 0.88691 1.00816 0.0
O167 O 0.7678 0.87344 0.0213 0.0
O168 O 0.79507 0.85346 1.00635 0.0
C169 C 0.77328 0.85483 0.01423 0.0
C170 C 0.79824 0.90837 0.97127 0.0
C171 C 0.75458 0.84394 1.00148 0.0
C172 C 0.73958 0.82854 0.96718 0.0
C173 C 0.75714 0.83964 0.97863 0.0
C174 C 0.71634 0.82639 1.00106 0.0
C175 C 0.719 0.82164 0.97827 0.0
C176 C 0.73398 0.83735 0.01252 0.0
C177 C 0.8407 0.89176 0.06059 0.0
C178 C 0.83415 0.87796 0.09773 0.0
C179 C 0.87326 0.8902 0.08714 0.0
C180 C 0.86461 0.89522 0.06604 0.0
C181 C 0.85813 0.88161 0.10331 0.0
C182 C 0.8255 0.88292 0.0765 0.0
C183 C 0.83214 0.89817 0.03847 0.0
O184 O 0.8111 0.89154 0.97315 0.0
O185 O 0.78449 0.91176 0.98861 0.0
O186 O 0.8104 0.90563 0.03747 0.0
O187 O 0.83733 0.88575 0.02182 0.0
H188 H 0.83685 0.92686 0.98986 0.0
H189 H 0.85849 0.95691 0.976 0.0
H190 H 0.80952 0.96107 0.92058 0.0
H191 H 0.78836 0.93063 0.93434 0.0
H192 H 0.7424 0.82501 0.94973 0.0
H193 H 0.77284 0.84463 0.96967 0.0
H194 H 0.70057 0.82171 1.01008 0.0
H195 H 0.73158 0.84059 0.0301 0.0
H196 H 0.8221 0.8712 0.10974 0.0
H197 H 0.89172 0.89352 0.09096 0.0
H198 H 0.87658 0.9021 0.05402 0.0
H199 H 0.80697 0.88003 0.07259 0.0
C200 C 0.21231 0.16532 0.57267 0.0
C201 C 0.19708 0.14895 0.57811 0.0
C202 C 0.18799 0.16512 0.61382 0.0
C203 C 0.18506 0.14883 0.5985 0.0
C204 C 0.2033 0.1815 0.60825 0.0
C205 C 0.21537 0.18158 0.58783 0.0
U206 U 0.22214 0.14094 0.51633 0.0
O207 O 0.22644 0.1543 0.48296 0.0
O208 O 0.25479 0.13503 0.49705 0.0
C209 C 0.24823 0.14719 0.48069 0.0
C210 C 0.22473 0.16547 0.5511 0.0
C211 C 0.26614 0.16225 0.47333 0.0
C212 C 0.28616 0.19534 0.4769 0.0
C213 C 0.26924 0.18113 0.48447 0.0
C214 C 0.29719 0.1718 0.4472 0.0
C215 C 0.30028 0.19088 0.45809 0.0
C216 C 0.28027 0.15766 0.45475 0.0
C217 C 0.18451 0.0924 0.50425 0.0
C218 C 0.18619 0.07194 0.47025 0.0
C219 C 0.15864 0.06275 0.49965 0.0
C220 C 0.16668 0.07939 0.5124 0.0
C221 C 0.16834 0.05874 0.47845 0.0
C222 C 0.19426 0.08865 0.48309 0.0
C223 C 0.19246 0.10971 0.51822 0.0
O224 O 0.2394 0.14997 0.54779 0.0
O225 O 0.21112 0.16928 0.53378 0.0
O226 O 0.18624 0.12817 0.51139 0.0
O227 O 0.21453 0.10879 0.52541 0.0
H228 H 0.1944 0.13631 0.56651 0.0
H229 H 0.17316 0.13614 0.6021 0.0
H230 H 0.20612 0.19418 0.61975 0.0
H231 H 0.22707 0.19433 0.58388 0.0
H232 H 0.28789 0.20994 0.48556 0.0
H233 H 0.25848 0.18491 0.49889 0.0
H234 H 0.30802 0.16768 0.43294 0.0
H235 H 0.2782 0.1431 0.44603 0.0
H236 H 0.19411 0.06921 0.45406 0.0
H237 H 0.14456 0.05319 0.50631 0.0
H238 H 0.15888 0.08215 0.52865 0.0
H239 H 0.20807 0.0986 0.47657 0.0
C240 C 0.21106 0.92941 0.96927 0.0
C241 C 0.19632 0.94034 0.98404 0.0
C242 C 0.18599 0.9646 0.95465 0.0
C243 C 0.18394 0.9578 0.97682 0.0
C244 C 0.20092 0.9536 0.93997 0.0
C245 C 0.21334 0.93618 0.94723 0.0
U246 U 0.22245 0.88864 0.0131 0.0
O247 O 0.22736 0.85511 1.01016 0.0
O248 O 0.25578 0.87424 0.02452 0.0
C249 C 0.24933 0.85578 0.01769 0.0
C250 C 0.22373 0.91079 0.97661 0.0
C251 C 0.26715 0.84432 1.00461 0.0
C252 C 0.28536 0.83459 0.96933 0.0
C253 C 0.26865 0.8462 0.98136 0.0
C254 C 0.29945 0.81944 1.00373 0.0
C255 C 0.30086 0.82094 0.98038 0.0
C256 C 0.28275 0.83099 0.01569 0.0
C257 C 0.18691 0.89268 0.06779 0.0
C258 C 0.17908 0.86528 0.09437 0.0
C259 C 0.172 0.9009 0.10475 0.0
C260 C 0.17964 0.90722 0.08371 0.0
C261 C 0.1714 0.87984 0.11028 0.0
C262 C 0.18686 0.87165 0.07332 0.0
C263 C 0.19365 0.89985 0.0454 0.0
O264 O 0.23857 0.91347 0.99331 0.0
O265 O 0.21039 0.89427 0.97876 0.0
O266 O 0.18704 0.88809 0.02861 0.0
O267 O 0.21542 0.90702 0.04336 0.0
H268 H 0.19426 0.93524 1.00111 0.0
H269 H 0.17238 0.96573 0.98847 0.0
H270 H 0.20312 0.95855 0.92288 0.0
H271 H 0.22466 0.92793 0.93562 0.0
H272 H 0.28582 0.83602 0.95137 0.0
H273 H 0.25677 0.85647 0.97252 0.0
H274 H 0.31137 0.80941 0.01284 0.0
H275 H 0.28194 0.82943 0.03365 0.0
H276 H 0.17905 0.84898 0.0982 0.0
H277 H 0.1659 0.91249 0.11646 0.0
H278 H 0.17951 0.9235 0.07973 0.0
H279 H 0.19256 0.86016 0.0613 0.0
C280 C 0.80963 0.16729 0.57246 0.0
C281 C 0.82976 0.15486 0.57568 0.0
C282 C 0.83482 0.16879 0.61319 0.0
C283 C 0.84229 0.15565 0.5958 0.0
C284 C 0.81456 0.1812 0.60984 0.0
C285 C 0.8021 0.18044 0.58964 0.0
U286 U 0.79613 0.14019 0.51789 0.0
O287 O 0.76213 0.13467 0.50056 0.0
O288 O 0.79046 0.15227 0.48413 0.0
C289 C 0.7682 0.14601 0.48337 0.0
C290 C 0.79628 0.16635 0.55138 0.0
C291 C 0.75058 0.16153 0.47642 0.0
C292 C 0.73421 0.19623 0.47799 0.0
C293 C 0.75092 0.18165 0.48514 0.0
C294 C 0.71642 0.17063 0.45364 0.0
C295 C 0.71676 0.19089 0.46213 0.0
C296 C 0.7332 0.15613 0.4607 0.0
C297 C 0.83102 0.08984 0.5065 0.0
C298 C 0.83657 0.07248 0.47088 0.0
C299 C 0.84839 0.05557 0.50506 0.0
C300 C 0.84065 0.07265 0.51731 0.0
C301 C 0.84669 0.05533 0.48167 0.0
C302 C 0.82874 0.08959 0.4832 0.0
C303 C 0.82446 0.10802 0.51991 0.0
O304 O 0.80907 0.16892 0.53326 0.0
O305 O 0.78108 0.15102 0.54974 0.0
O306 O 0.8028 0.10812 0.52817 0.0
O307 O 0.8311 0.12601 0.51204 0.0
H308 H 0.83582 0.14456 0.56259 0.0
H309 H 0.85798 0.14612 0.59762 0.0
H310 H 0.80811 0.19128 0.62293 0.0
H311 H 0.7865 0.19005 0.58748 0.0
H312 H 0.73479 0.21162 0.48504 0.0
H313 H 0.76411 0.18608 0.49743 0.0
H314 H 0.70343 0.16607 0.44123 0.0
H315 H 0.73267 0.14067 0.45378 0.0
H316 H 0.83476 0.0727 0.45292 0.0
H317 H 0.85639 0.0428 0.51391 0.0
H318 H 0.84261 0.07261 0.53528 0.0
H319 H 0.82124 0.1027 0.47455 0.0
Fe320 Fe 0.00969 0.83784 0.33841 0.0
Fe321 Fe 0.00988 0.86199 0.38261 0.0
O322 O 0.00987 0.86168 0.35304 0.0
Fe323 Fe 0.00998 0.88521 0.33813 0.0
O324 O 0.98211 0.87897 0.32441 0.0
O325 O 0.992 0.84738 0.31481 0.0
O326 O 0.98183 0.83025 0.35128 0.0
C327 C 0.97829 0.82922 0.372 0.0
C328 C 0.04078 0.8596 0.31254 0.0
O329 O 0.99204 0.83837 0.38555 0.0
C330 C 0.04124 0.8948 0.37146 0.0
O331 O 0.02742 0.82391 0.35934 0.0
O332 O 0.03762 0.84773 0.38368 0.0
O333 O 0.02744 0.87522 0.31463 0.0
O334 O 0.0375 0.84377 0.32432 0.0
C335 C 0.97903 0.89369 0.37451 0.0
O336 O 0.02773 0.88562 0.38511 0.0
O337 O 0.03788 0.89319 0.35075 0.0
C338 C 0.0411 0.83039 0.37466 0.0
O339 O 0.98214 0.87641 0.38367 0.0
O340 O 0.99255 0.89954 0.35888 0.0
C341 C 0.97873 0.86306 0.31266 0.0
Fe342 Fe 0.01066 0.16177 0.88074 0.0
Fe343 Fe 0.01106 0.1403 0.83502 0.0
O344 O 0.01083 0.16323 0.85121 0.0
Fe345 Fe 0.01075 0.18762 0.83787 0.0
O346 O 0.03843 0.19503 0.85128 0.0
O347 O 0.02829 0.18534 0.88501 0.0
O348 O 0.0385 0.14751 0.88123 0.0
C349 C 0.04192 0.13067 0.87112 0.0
C350 C 0.97914 0.19342 0.87432 0.0
O351 O 0.02863 0.12532 0.85505 0.0
C352 C 0.97994 0.16655 0.8108 0.0
O353 O 0.99301 0.13793 0.8819 0.0
O354 O 0.98323 0.1316 0.84709 0.0
O355 O 0.99276 0.20057 0.8594 0.0
O356 O 0.98279 0.17579 0.88244 0.0
C357 C 0.04219 0.16374 0.81099 0.0
O358 O 0.99351 0.151 0.81201 0.0
O359 O 0.98309 0.18196 0.82337 0.0
C360 C 0.97971 0.12918 0.86767 0.0
O361 O 0.0389 0.1473 0.82174 0.0
O362 O 0.02867 0.17916 0.8139 0.0
C363 C 0.04193 0.1952 0.87204 0.0
Fe364 Fe 0.50983 0.33756 0.33798 0.0
Fe365 Fe 0.50992 0.36244 0.38174 0.0
O366 O 0.50969 0.36162 0.35219 0.0
Fe367 Fe 0.50927 0.38488 0.33681 0.0
O368 O 0.48133 0.37808 0.32352 0.0
O369 O 0.49176 0.34652 0.31433 0.0
O370 O 0.48222 0.32979 0.35118 0.0
C371 C 0.47873 0.32915 0.37193 0.0
C372 C 0.54031 0.35929 0.31149 0.0
O373 O 0.49236 0.33873 0.38525 0.0
C374 C 0.54078 0.39533 0.36964 0.0
O375 O 0.52795 0.32418 0.35902 0.0
O376 O 0.53782 0.34845 0.38297 0.0
O377 O 0.52661 0.37471 0.31332 0.0
O378 O 0.53743 0.34363 0.32361 0.0
C379 C 0.47857 0.39368 0.37326 0.0
O380 O 0.52753 0.38629 0.38363 0.0
O381 O 0.53718 0.39333 0.34899 0.0
C382 C 0.54153 0.33103 0.37423 0.0
O383 O 0.48202 0.3766 0.38273 0.0
O384 O 0.49187 0.39942 0.35743 0.0
C385 C 0.47812 0.36195 0.31208 0.0
Fe386 Fe 0.50956 0.66152 0.88083 0.0
Fe387 Fe 0.50994 0.64006 0.83511 0.0
O388 O 0.50971 0.66299 0.85131 0.0
Fe389 Fe 0.50961 0.68739 0.83798 0.0
O390 O 0.5373 0.69482 0.85136 0.0
O391 O 0.52717 0.68511 0.88509 0.0
O392 O 0.53742 0.6473 0.8813 0.0
C393 C 0.54087 0.63047 0.87119 0.0
C394 C 0.478 0.69314 0.87441 0.0
O395 O 0.52758 0.62511 0.85511 0.0
C396 C 0.47874 0.66631 0.81098 0.0
O397 O 0.49196 0.63766 0.882 0.0
O398 O 0.48215 0.63132 0.8472 0.0
O399 O 0.49165 0.70033 0.85953 0.0
O400 O 0.48166 0.67551 0.88252 0.0
C401 C 0.54103 0.66354 0.81107 0.0
O402 O 0.49232 0.65076 0.81214 0.0
O403 O 0.48194 0.68173 0.82353 0.0
C404 C 0.47869 0.62885 0.86779 0.0
O405 O 0.53775 0.6471 0.82182 0.0
O406 O 0.52751 0.67895 0.81397 0.0
C407 C 0.5408 0.69497 0.87213 0.0
H408 H 0.17136 0.3187 0.98671 0.0
H409 H 0.14234 0.29741 0.96667 0.0
H410 H 0.19738 0.27676 0.9218 0.0
H411 H 0.22664 0.29775 0.94199 0.0
H412 H 0.12974 0.2979 0.91994 0.0
H413 H 0.16765 0.2229 0.94724 0.0
H414 H 0.1747 0.24697 0.96095 0.0
H415 H 0.18826 0.24062 0.93472 0.0
C416 C 0.17733 0.30955 0.97265 0.0
C417 C 0.20135 0.30981 0.96604 0.0
C418 C 0.16069 0.2975 0.96114 0.0
C419 C 0.16777 0.28534 0.94293 0.0
C420 C 0.19162 0.28585 0.93599 0.0
H421 H 0.07215 0.22153 0.85009 0.0
H422 H 0.10309 0.24356 0.86633 0.0
C423 C 0.20826 0.29799 0.94742 0.0
C424 C 0.15018 0.27197 0.93142 0.0
H425 H 0.13542 0.22158 0.92201 0.0
C426 C 0.13099 0.28121 0.92029 0.0
C427 C 0.15179 0.25021 0.93213 0.0
C428 C 0.17157 0.23949 0.94453 0.0
C429 C 0.11335 0.26925 0.9098 0.0
C430 C 0.11507 0.2475 0.91034 0.0
C431 C 0.13425 0.23826 0.92149 0.0
C432 C 0.09658 0.23401 0.90028 0.0
C433 C 0.09267 0.27996 0.89873 0.0
C434 C 0.08302 0.22101 0.91393 0.0
C435 C 0.06538 0.20839 0.90473 0.0
C436 C 0.061 0.20839 0.88163 0.0
C437 C 0.07492 0.22121 0.86794 0.0
C438 C 0.09255 0.23389 0.8772 0.0
H439 H 0.0914 0.29644 0.90375 0.0
H440 H 0.09501 0.27929 0.88038 0.0
H441 H 0.07564 0.27217 0.90287 0.0
H442 H 0.08593 0.2208 0.93177 0.0
H443 H 0.05512 0.19866 0.91578 0.0
H444 H 0.79257 0.72734 0.4385 0.0
H445 H 0.82187 0.75134 0.42315 0.0
H446 H 0.87871 0.71174 0.44541 0.0
H447 H 0.8495 0.68758 0.46056 0.0
H448 H 0.85744 0.77316 0.44263 0.0
H449 H 0.89533 0.71906 0.38037 0.0
H450 H 0.86812 0.71371 0.39524 0.0
H451 H 0.89652 0.70928 0.40827 0.0
C452 C 0.81131 0.7238 0.44023 0.0
C453 C 0.81871 0.70548 0.45061 0.0
C454 C 0.82804 0.7375 0.43138 0.0
C455 C 0.85249 0.73316 0.43272 0.0
C456 C 0.85994 0.71514 0.4436 0.0
H457 H 0.96891 0.81952 0.41549 0.0
H458 H 0.93786 0.79682 0.42978 0.0
C459 C 0.84323 0.70137 0.45231 0.0
C460 C 0.87018 0.74759 0.42298 0.0
H461 H 0.91655 0.7504 0.3863 0.0
C462 C 0.87029 0.76821 0.43024 0.0
C463 C 0.8867 0.74123 0.40652 0.0
C464 C 0.88656 0.71967 0.39696 0.0
C465 C 0.88679 0.7825 0.42187 0.0
C466 C 0.90399 0.7759 0.40614 0.0
C467 C 0.90354 0.75541 0.39852 0.0
C468 C 0.92268 0.78995 0.39744 0.0
C469 C 0.88538 0.80461 0.4297 0.0
C470 C 0.92494 0.79325 0.37442 0.0
C471 C 0.94289 0.80607 0.36613 0.0
C472 C 0.95903 0.8158 0.38071 0.0
C473 C 0.95673 0.8124 0.40376 0.0
C474 C 0.93885 0.79952 0.41201 0.0
H475 H 0.86742 0.80841 0.43627 0.0
H476 H 0.8984 0.80705 0.44337 0.0
H477 H 0.88968 0.81545 0.41601 0.0
H478 H 0.91274 0.78594 0.36285 0.0
H479 H 0.94411 0.80833 0.34829 0.0
H480 H 0.84409 0.33046 0.96758 0.0
H481 H 0.87463 0.31008 0.94843 0.0
H482 H 0.82383 0.26123 0.93761 0.0
H483 H 0.79309 0.28165 0.95633 0.0
H484 H 0.89104 0.27061 0.96097 0.0
H485 H 0.85341 0.26998 0.87543 0.0
H486 H 0.84398 0.28814 0.89654 0.0
H487 H 0.83295 0.26214 0.89679 0.0
C488 C 0.83931 0.31552 0.9608 0.0
C489 C 0.81613 0.3077 0.96346 0.0
C490 C 0.85682 0.30385 0.94999 0.0
C491 C 0.85144 0.28423 0.94139 0.0
C492 C 0.82829 0.27645 0.94382 0.0
H493 H 0.94866 0.18459 0.9087 0.0
H494 H 0.9179 0.20684 0.9247 0.0
C495 C 0.8108 0.28806 0.95472 0.0
C496 C 0.87032 0.27151 0.93081 0.0
H497 H 0.88579 0.24723 0.88229 0.0
C498 C 0.88996 0.26556 0.94375 0.0
C499 C 0.86897 0.26512 0.90828 0.0
C500 C 0.84882 0.2718 0.89334 0.0
C501 C 0.90806 0.25304 0.93488 0.0
C502 C 0.90633 0.24609 0.91256 0.0
C503 C 0.88695 0.2524 0.89947 0.0
C504 C 0.92458 0.23238 0.90248 0.0
C505 C 0.92903 0.24755 0.94941 0.0
C506 C 0.93813 0.23914 0.88428 0.0
C507 C 0.95572 0.22645 0.87504 0.0
C508 C 0.96 0.20665 0.88373 0.0
C509 C 0.94599 0.19977 0.90167 0.0
C510 C 0.92846 0.21251 0.91093 0.0
H511 H 0.93059 0.25806 0.96401 0.0
H512 H 0.92673 0.23161 0.95573 0.0
H513 H 0.94589 0.24812 0.93979 0.0
H514 H 0.93533 0.25438 0.87743 0.0
H515 H 0.96604 0.23222 0.86117 0.0
H516 H 0.21234 0.73095 0.47204 0.0
H517 H 0.18188 0.75501 0.45888 0.0
H518 H 0.15415 0.70815 0.41482 0.0
H519 H 0.18384 0.68379 0.42846 0.0
H520 H 0.17384 0.76943 0.41629 0.0
H521 H 0.09452 0.72738 0.44693 0.0
H522 H 0.12431 0.72135 0.45611 0.0
H523 H 0.11358 0.71183 0.42975 0.0
C524 C 0.19954 0.72565 0.4598 0.0
C525 C 0.20054 0.70537 0.45139 0.0
C526 C 0.18224 0.73948 0.45218 0.0
C527 C 0.16549 0.7333 0.43611 0.0
C528 C 0.16657 0.71316 0.42755 0.0
H529 H 0.05148 0.7908 0.36185 0.0
H530 H 0.08219 0.76803 0.37687 0.0
C531 C 0.18379 0.69932 0.43517 0.0
C532 C 0.14729 0.74805 0.42783 0.0
H533 H 0.08734 0.75485 0.42158 0.0
C534 C 0.15492 0.76633 0.4176 0.0
C535 C 0.1226 0.744 0.42956 0.0
C536 C 0.11321 0.72518 0.44137 0.0
C537 C 0.13856 0.78039 0.40852 0.0
C538 C 0.1139 0.77617 0.40996 0.0
C539 C 0.10626 0.758 0.42039 0.0
C540 C 0.09569 0.79032 0.40062 0.0
C541 C 0.14781 0.79936 0.39691 0.0
C542 C 0.09297 0.81038 0.40909 0.0
C543 C 0.0754 0.82347 0.40056 0.0
C544 C 0.0601 0.8167 0.38343 0.0
C545 C 0.06292 0.79656 0.375 0.0
C546 C 0.08046 0.78349 0.38358 0.0
H547 H 0.16697 0.79792 0.39263 0.0
H548 H 0.1376 0.80239 0.38141 0.0
H549 H 0.14569 0.8129 0.4081 0.0
H550 H 0.10426 0.81585 0.4225 0.0
H551 H 0.07373 0.83884 0.4075 0.0
H552 H 0.70295 0.82615 0.93521 0.0
H553 H 0.67295 0.80542 0.91573 0.0
H554 H 0.66303 0.76863 0.97463 0.0
H555 H 0.6934 0.78878 0.99406 0.0
H556 H 0.67281 0.76002 0.90957 0.0
H557 H 0.5949 0.78965 0.95689 0.0
H558 H 0.62293 0.80326 0.95569 0.0
H559 H 0.6197 0.78126 0.9735 0.0
C560 C 0.69457 0.81353 0.944 0.0
C561 C 0.70058 0.80925 0.9663 0.0
C562 C 0.67734 0.80178 0.93285 0.0
C563 C 0.6656 0.78568 0.94384 0.0
C564 C 0.67161 0.78124 0.96599 0.0
H565 H 0.55548 0.69695 0.91552 0.0
H566 H 0.58626 0.71903 0.93159 0.0
C567 C 0.68892 0.79286 0.9771 0.0
C568 C 0.64725 0.77326 0.93216 0.0
H569 H 0.5882 0.76092 0.9332 0.0
C570 C 0.65426 0.76029 0.91457 0.0
C571 C 0.62313 0.77366 0.9388 0.0
C572 C 0.61456 0.78781 0.95713 0.0
C573 C 0.63786 0.74718 0.90389 0.0
C574 C 0.61372 0.74744 0.91067 0.0
C575 C 0.6067 0.76069 0.92804 0.0
C576 C 0.5955 0.73371 0.90046 0.0
C577 C 0.64672 0.73268 0.886 0.0
C578 C 0.59034 0.73465 0.87758 0.0
C579 C 0.5728 0.72191 0.86827 0.0
C580 C 0.55985 0.70817 0.88173 0.0
C581 C 0.56503 0.70736 0.90465 0.0
C582 C 0.58264 0.71999 0.91389 0.0
H583 H 0.66631 0.7305 0.88692 0.0
H584 H 0.638 0.71737 0.8873 0.0
H585 H 0.64247 0.7392 0.8694 0.0
H586 H 0.59965 0.74543 0.86696 0.0
H587 H 0.56919 0.72305 0.85058 0.0
H588 H 0.31062 0.20055 0.41473 0.0
H589 H 0.3408 0.22447 0.401 0.0
H590 H 0.35984 0.24015 0.46858 0.0
H591 H 0.33029 0.21566 0.48251 0.0
H592 H 0.34525 0.26656 0.40779 0.0
H593 H 0.42398 0.22514 0.44119 0.0
H594 H 0.39483 0.21351 0.43975 0.0
H595 H 0.40187 0.23143 0.46172 0.0
C596 C 0.32142 0.20887 0.42671 0.0
C597 C 0.31815 0.206 0.44975 0.0
C598 C 0.33855 0.22267 0.41882 0.0
C599 C 0.35284 0.23385 0.43374 0.0
C600 C 0.34933 0.23138 0.45674 0.0
H601 H 0.46711 0.32278 0.41569 0.0
H602 H 0.43598 0.30039 0.43058 0.0
C603 C 0.33222 0.21755 0.46468 0.0
C604 C 0.37122 0.24825 0.42516 0.0
H605 H 0.43103 0.2578 0.42494 0.0
C606 C 0.36402 0.26463 0.41149 0.0
C607 C 0.3957 0.2457 0.43001 0.0
C608 C 0.40466 0.2279 0.4438 0.0
C609 C 0.38058 0.27868 0.40277 0.0
C610 C 0.40506 0.27608 0.40755 0.0
C611 C 0.41226 0.25977 0.42132 0.0
C612 C 0.42355 0.29 0.39832 0.0
C613 C 0.3717 0.2964 0.38884 0.0
C614 C 0.42703 0.29148 0.37522 0.0
C615 C 0.44482 0.30428 0.36661 0.0
C616 C 0.45961 0.31576 0.38097 0.0
C617 C 0.45608 0.31418 0.40413 0.0
C618 C 0.43829 0.30138 0.4127 0.0
H619 H 0.35243 0.29933 0.39158 0.0
H620 H 0.38172 0.31075 0.39262 0.0
H621 H 0.37428 0.29265 0.37094 0.0
H622 H 0.41617 0.28253 0.36383 0.0
H623 H 0.44706 0.30504 0.34871 0.0
H624 H 0.31303 0.78061 0.98759 0.0
H625 H 0.34267 0.75993 0.96784 0.0
H626 H 0.35715 0.811 0.92411 0.0
H627 H 0.32811 0.83211 0.94432 0.0
H628 H 0.34466 0.74847 0.92327 0.0
H629 H 0.42343 0.79569 0.9466 0.0
H630 H 0.39497 0.79851 0.96022 0.0
H631 H 0.39986 0.8097 0.93326 0.0
C632 C 0.32271 0.78758 0.97395 0.0
C633 C 0.31833 0.80814 0.96772 0.0
C634 C 0.33952 0.77566 0.96256 0.0
C635 C 0.3524 0.78401 0.94472 0.0
C636 C 0.34775 0.80436 0.93811 0.0
H637 H 0.46565 0.73235 0.86204 0.0
H638 H 0.43444 0.75422 0.8779 0.0
C639 C 0.33093 0.81633 0.94952 0.0
C640 C 0.37055 0.77126 0.93306 0.0
H641 H 0.43 0.76804 0.92158 0.0
C642 C 0.36333 0.75275 0.92289 0.0
C643 C 0.39489 0.77688 0.93254 0.0
C644 C 0.40387 0.79618 0.94389 0.0
C645 C 0.37975 0.73975 0.91214 0.0
C646 C 0.40413 0.74522 0.91189 0.0
C647 C 0.41131 0.76387 0.92179 0.0
C648 C 0.42257 0.73163 0.90188 0.0
C649 C 0.37079 0.7204 0.90089 0.0
C650 C 0.4264 0.7117 0.91019 0.0
C651 C 0.44421 0.69913 0.90115 0.0
C652 C 0.45872 0.70629 0.8837 0.0
C653 C 0.45483 0.7263 0.87544 0.0
C654 C 0.437 0.73885 0.8845 0.0
H655 H 0.35145 0.72136 0.89715 0.0
H656 H 0.38054 0.71738 0.88512 0.0
H657 H 0.37362 0.70708 0.91213 0.0
H658 H 0.41582 0.70596 0.92391 0.0
H659 H 0.44673 0.68386 0.908 0.0
H660 H 0.72458 0.23131 0.45111 0.0
H661 H 0.69558 0.25646 0.43735 0.0
H662 H 0.64024 0.21054 0.44099 0.0
H663 H 0.66898 0.18544 0.45514 0.0
H664 H 0.66706 0.25309 0.39826 0.0
H665 H 0.61201 0.26062 0.47466 0.0
H666 H 0.64158 0.24968 0.47491 0.0
H667 H 0.61673 0.23454 0.46545 0.0
C668 C 0.70617 0.22664 0.44927 0.0
C669 C 0.69909 0.20637 0.45428 0.0
C670 C 0.68966 0.24099 0.44128 0.0
C671 C 0.66571 0.23543 0.43838 0.0
C672 C 0.65856 0.21525 0.44341 0.0
H673 H 0.55537 0.2929 0.35925 0.0
H674 H 0.58624 0.27053 0.37467 0.0
C675 C 0.67506 0.20087 0.45129 0.0
C676 C 0.64833 0.25052 0.42941 0.0
H677 H 0.59652 0.27571 0.44165 0.0
C678 C 0.6517 0.25813 0.40777 0.0
C679 C 0.62844 0.25724 0.44194 0.0
C680 C 0.6245 0.25028 0.46561 0.0
C681 C 0.63538 0.27188 0.39812 0.0
C682 C 0.61506 0.27804 0.41037 0.0
C683 C 0.61201 0.27084 0.43221 0.0
C684 C 0.59665 0.29182 0.40075 0.0
C685 C 0.64012 0.27985 0.37495 0.0
C686 C 0.59198 0.3111 0.4105 0.0
C687 C 0.5743 0.32395 0.40176 0.0
C688 C 0.56074 0.31766 0.3832 0.0
C689 C 0.56547 0.29828 0.37351 0.0
C690 C 0.58321 0.2855 0.38223 0.0
H691 H 0.65906 0.27785 0.37011 0.0
H692 H 0.629 0.27115 0.36286 0.0
H693 H 0.63541 0.29643 0.37367 0.0
H694 H 0.60209 0.31624 0.42487 0.0
H695 H 0.57115 0.33873 0.40968 0.0
H696 H 0.35445 0.49256 0.9708 0.0
H697 H 0.37687 0.52209 0.95673 0.0
H698 H 0.36774 0.49985 0.88948 0.0
H699 H 0.34567 0.47005 0.90338 0.0
H700 H 0.41943 0.52039 0.93076 0.0
H701 H 0.3463 0.56095 0.88653 0.0
H702 H 0.34086 0.54144 0.90731 0.0
H703 H 0.34976 0.53411 0.87966 0.0
C704 C 0.35729 0.49386 0.95302 0.0
C705 C 0.34824 0.47888 0.93824 0.0
C706 C 0.36997 0.51083 0.94501 0.0
C707 C 0.37369 0.51329 0.92206 0.0
C708 C 0.36464 0.49846 0.90723 0.0
H709 H 0.45249 0.60177 0.84243 0.0
H710 H 0.42653 0.57408 0.85567 0.0
C711 C 0.35201 0.48144 0.91522 0.0
C712 C 0.38797 0.53089 0.91377 0.0
H713 H 0.38528 0.57416 0.88159 0.0
C714 C 0.41196 0.53221 0.92009 0.0
C715 C 0.37818 0.54618 0.89975 0.0
C716 C 0.35231 0.54579 0.89301 0.0
C717 C 0.42657 0.54828 0.91251 0.0
C718 C 0.41674 0.56371 0.89865 0.0
C719 C 0.39275 0.56234 0.89225 0.0
C720 C 0.43119 0.58134 0.89062 0.0
C721 C 0.45253 0.54829 0.919 0.0
C722 C 0.44182 0.59499 0.90585 0.0
C723 C 0.45673 0.61076 0.89837 0.0
C724 C 0.46114 0.61333 0.87546 0.0
C725 C 0.44958 0.60019 0.86018 0.0
C726 C 0.43474 0.58435 0.86771 0.0
H727 H 0.45857 0.53277 0.92439 0.0
H728 H 0.4639 0.55341 0.90494 0.0
H729 H 0.45524 0.55911 0.93315 0.0
H730 H 0.43885 0.59328 0.92357 0.0
H731 H 0.46509 0.62073 0.9106 0.0
H732 H 0.68912 0.53544 0.4447 0.0
H733 H 0.67195 0.5076 0.42198 0.0
H734 H 0.60332 0.51857 0.4519 0.0
H735 H 0.6201 0.5466 0.47413 0.0
H736 H 0.64939 0.47163 0.43723 0.0
H737 H 0.5883 0.51799 0.38513 0.0
H738 H 0.61246 0.52935 0.40081 0.0
H739 H 0.58486 0.52304 0.41438 0.0
C740 C 0.6703 0.5321 0.44617 0.0
C741 C 0.65598 0.54322 0.46124 0.0
C742 C 0.66056 0.51613 0.43329 0.0
C743 C 0.6363 0.5112 0.43505 0.0
C744 C 0.62198 0.52234 0.44998 0.0
H745 H 0.55399 0.40309 0.4127 0.0
H746 H 0.58024 0.43031 0.42638 0.0
C747 C 0.63168 0.53822 0.46287 0.0
C748 C 0.62595 0.49384 0.42213 0.0
H749 H 0.58041 0.48167 0.38677 0.0
C750 C 0.63453 0.47383 0.42595 0.0
C751 C 0.6068 0.49675 0.40716 0.0
C752 C 0.5977 0.51797 0.40143 0.0
C753 C 0.62363 0.45656 0.41607 0.0
C754 C 0.60349 0.4594 0.40226 0.0
C755 C 0.59571 0.47948 0.39754 0.0
C756 C 0.58929 0.4418 0.39366 0.0
C757 C 0.63363 0.43542 0.42069 0.0
C758 C 0.58549 0.43928 0.37069 0.0
C759 C 0.57037 0.42373 0.36277 0.0
C760 C 0.55853 0.41058 0.37772 0.0
C761 C 0.5628 0.41291 0.4007 0.0
C762 C 0.57796 0.42839 0.40857 0.0
H763 H 0.65268 0.43622 0.4256 0.0
H764 H 0.62363 0.42837 0.43467 0.0
H765 H 0.63191 0.42518 0.4059 0.0
H766 H 0.59396 0.44955 0.35891 0.0
H767 H 0.56749 0.4224 0.34497 0.0
H768 H 0.67809 0.50113 0.97587 0.0
H769 H 0.65448 0.5307 0.96334 0.0
H770 H 0.6382 0.49866 0.90212 0.0
H771 H 0.66122 0.46892 0.91468 0.0
H772 H 0.65975 0.55507 0.9239 0.0
H773 H 0.57243 0.51524 0.9269 0.0
H774 H 0.5986 0.50535 0.94068 0.0
H775 H 0.59473 0.50169 0.91119 0.0
C776 C 0.66932 0.50032 0.95981 0.0
C777 C 0.67148 0.48261 0.94631 0.0
C778 C 0.65598 0.51728 0.95263 0.0
C779 C 0.64436 0.51676 0.93193 0.0
C780 C 0.64675 0.49926 0.91829 0.0
H781 H 0.55389 0.59369 0.85259 0.0
H782 H 0.58018 0.56751 0.86813 0.0
C783 C 0.66012 0.48235 0.92541 0.0
C784 C 0.62971 0.53449 0.92447 0.0
H785 H 0.5734 0.54763 0.90854 0.0
C786 C 0.64083 0.55355 0.9207 0.0
C787 C 0.60502 0.53244 0.92042 0.0
C788 C 0.59189 0.51265 0.92519 0.0
C789 C 0.62806 0.57042 0.91216 0.0
C790 C 0.60347 0.56821 0.90762 0.0
C791 C 0.59229 0.54927 0.91189 0.0
C792 C 0.58901 0.58503 0.89774 0.0
C793 C 0.64112 0.59023 0.90735 0.0
C794 C 0.58539 0.60372 0.90914 0.0
C795 C 0.57035 0.61885 0.90024 0.0
C796 C 0.5585 0.61545 0.87988 0.0
C797 C 0.56262 0.59685 0.86834 0.0
C798 C 0.57765 0.58182 0.8772 0.0
H799 H 0.66071 0.58795 0.90695 0.0
H800 H 0.63535 0.5968 0.89116 0.0
H801 H 0.63702 0.60166 0.92061 0.0
H802 H 0.59366 0.6064 0.92519 0.0
H803 H 0.56752 0.63294 0.90962 0.0
H804 H 0.35059 0.51534 0.49393 0.0
H805 H 0.36986 0.48686 0.47407 0.0
H806 H 0.38714 0.52773 0.41996 0.0
H807 H 0.36863 0.55646 0.44 0.0
H808 H 0.36226 0.46923 0.43166 0.0
H809 H 0.45202 0.50455 0.43852 0.0
H810 H 0.42688 0.51368 0.45445 0.0
H811 H 0.43013 0.52082 0.42569 0.0
C812 C 0.35855 0.5183 0.47783 0.0
C813 C 0.35831 0.53827 0.46869 0.0
C814 C 0.3694 0.50196 0.46643 0.0
C815 C 0.3803 0.50525 0.44573 0.0
C816 C 0.37921 0.52493 0.43611 0.0
H817 H 0.46688 0.43163 0.35703 0.0
H818 H 0.44121 0.45758 0.37407 0.0
C819 C 0.36838 0.54129 0.44749 0.0
C820 C 0.39351 0.48828 0.43458 0.0
H821 H 0.44885 0.47436 0.41647 0.0
C822 C 0.3812 0.4703 0.42837 0.0
C823 C 0.41825 0.48967 0.43046 0.0
C824 C 0.43269 0.50812 0.4378 0.0
C825 C 0.39291 0.45385 0.41765 0.0
C826 C 0.4176 0.45536 0.41334 0.0
C827 C 0.42989 0.47329 0.41969 0.0
C828 C 0.43121 0.43867 0.40214 0.0
C829 C 0.37872 0.43519 0.4106 0.0
C830 C 0.43393 0.41927 0.41216 0.0
C831 C 0.44867 0.4043 0.40244 0.0
C832 C 0.46107 0.40855 0.38261 0.0
C833 C 0.45771 0.42781 0.37235 0.0
C834 C 0.44303 0.44271 0.38206 0.0
H835 H 0.3593 0.43842 0.41035 0.0
H836 H 0.38427 0.42979 0.3938 0.0
H837 H 0.38197 0.42249 0.42256 0.0
H838 H 0.42529 0.41594 0.42787 0.0
H839 H 0.45087 0.38967 0.41082 0.0
H840 H 0.84693 0.97088 0.90387 0.0
H841 H 0.86945 1.00058 0.89026 0.0
H842 H 0.87711 0.02306 0.95758 0.0
H843 H 0.8543 0.99363 0.97135 0.0
H844 H 0.86034 0.04406 0.89616 0.0
H845 H 0.94618 0.01953 0.93371 0.0
H846 H 0.9213 1.00216 0.93031 0.0
H847 H 0.92146 0.02065 0.95268 0.0
C848 C 0.85317 0.98225 0.91579 0.0
C849 C 0.84891 0.97977 0.93874 0.0
C850 C 0.86612 0.99916 0.90797 0.0
C851 C 0.87521 0.01384 0.92295 0.0
C852 C 0.87063 1.01168 0.94579 0.0
H853 H 0.96632 0.12093 0.91051 0.0
H854 H 0.93941 0.09395 0.92344 0.0
C855 C 0.85764 0.99481 0.95363 0.0
C856 C 0.88965 0.03136 0.91469 0.0
H857 H 0.94523 0.05249 0.91708 0.0
C858 C 0.87892 0.04591 0.90065 0.0
C859 C 0.91386 0.0337 0.92063 0.0
C860 C 0.92652 0.01812 0.935 0.0
C861 C 0.89168 0.06302 0.89271 0.0
C862 C 0.91593 0.06535 0.89861 0.0
C863 C 0.92663 0.05073 0.91262 0.0
C864 C 0.93071 0.08272 0.89044 0.0
C865 C 0.87895 0.07867 0.8785 0.0
C866 C 0.93466 0.08549 0.86754 0.0
C867 C 0.94998 0.101 0.86004 0.0
C868 C 0.96188 0.11388 0.87534 0.0
C869 C 0.95753 0.11127 0.89825 0.0
C870 C 0.94215 0.09584 0.9057 0.0
H871 H 0.85933 0.07778 0.88065 0.0
H872 H 0.88489 0.09458 0.88256 0.0
H873 H 0.883 0.07561 0.86069 0.0
H874 H 0.92641 0.07529 0.85547 0.0
H875 H 0.953 0.1025 0.8423 0.0
H876 H 0.15876 0.05724 0.43355 0.0
H877 H 0.14067 0.02871 0.41254 0.0
H878 H 0.13934 0.99181 0.47209 0.0
H879 H 0.15778 0.01994 0.49308 0.0
H880 H 0.15549 0.98326 0.40901 0.0
H881 H 0.068 0.99804 0.44933 0.0
H882 H 0.09132 0.0172 0.4483 0.0
H883 H 0.09313 0.99634 0.46781 0.0
C884 C 0.15503 0.04292 0.44208 0.0
C885 C 0.15944 0.04097 0.46507 0.0
C886 C 0.14464 0.02668 0.43006 0.0
C887 C 0.13845 1.00831 0.44087 0.0
C888 C 0.14374 1.00599 0.46355 0.0
H889 H 0.05618 0.89955 0.41443 0.0
H890 H 0.08169 0.9266 0.42963 0.0
C891 C 0.15415 0.02213 0.47553 0.0
C892 C 0.12524 0.9919 0.42894 0.0
H893 H 0.07133 0.96774 0.42757 0.0
C894 C 0.13704 0.97989 0.41288 0.0
C895 C 0.1012 0.98765 0.43408 0.0
C896 C 0.08751 1.00055 0.45069 0.0
C897 C 0.12557 0.9632 0.40234 0.0
C898 C 0.10161 0.95874 0.40779 0.0
C899 C 0.08974 0.97109 0.42352 0.0
C900 C 0.0884 0.94113 0.39786 0.0
C901 C 0.1394 0.9501 0.38605 0.0
C902 C 0.08398 0.9401 0.37485 0.0
C903 C 0.06944 0.92452 0.36604 0.0
C904 C 0.05883 0.90987 0.38015 0.0
C905 C 0.06392 0.91064 0.40309 0.0
C906 C 0.07852 0.9261 0.41183 0.0
H907 H 0.15891 0.95234 0.38789 0.0
H908 H 0.13524 0.9335 0.38828 0.0
H909 H 0.13439 0.95447 0.36882 0.0
H910 H 0.09104 0.95175 0.3638 0.0
H911 H 0.06581 0.92445 0.34831 0.0
H912 H 0.17857 1.0014 0.97632 0.0
H913 H 0.15501 0.0309 0.96355 0.0
H914 H 0.13935 0.99873 0.90227 0.0
H915 H 0.16233 0.96904 0.91508 0.0
H916 H 0.1606 0.05522 0.92416 0.0
H917 H 0.07332 0.01526 0.92647 0.0
H918 H 0.09938 1.00541 0.94047 0.0
H919 H 0.09581 1.00176 0.91094 0.0
C920 C 0.16995 1.00054 0.9602 0.0
C921 C 0.17226 0.98281 0.94676 0.0
C922 C 0.15663 0.01746 0.95288 0.0
C923 C 0.1452 0.0169 0.93209 0.0
C924 C 0.14775 0.99937 0.91851 0.0
H925 H 0.05502 0.09394 0.85246 0.0
H926 H 0.08125 0.06772 0.868 0.0
C927 C 0.1611 0.98249 0.92577 0.0
C928 C 0.13059 0.03459 0.92449 0.0
H929 H 0.07438 0.0477 0.90824 0.0
C930 C 0.14171 0.05368 0.92083 0.0
C931 C 0.10594 0.03252 0.92028 0.0
C932 C 0.0928 0.0127 0.92492 0.0
C933 C 0.12897 0.07055 0.91225 0.0
C934 C 0.10441 0.06832 0.90757 0.0
C935 C 0.09323 0.04935 0.91171 0.0
C936 C 0.08998 0.08516 0.89769 0.0
C937 C 0.14203 0.09038 0.90757 0.0
C938 C 0.08631 0.10383 0.90913 0.0
C939 C 0.0713 0.11898 0.90024 0.0
C940 C 0.05953 0.11563 0.87982 0.0
C941 C 0.06369 0.09706 0.86825 0.0
C942 C 0.07869 0.08201 0.87711 0.0
H943 H 0.16163 0.08811 0.90721 0.0
H944 H 0.13631 0.09702 0.8914 0.0
H945 H 0.13789 0.10176 0.92087 0.0
H946 H 0.09452 0.10646 0.92522 0.0
H947 H 0.06843 0.13305 0.90965 0.0
H948 H 0.87268 0.05648 0.4431 0.0
H949 H 0.89142 0.02761 0.42349 0.0
H950 H 0.86268 0.98538 0.47184 0.0
H951 H 0.84326 0.01407 0.49114 0.0
H952 H 0.9253 1.00177 0.44168 0.0
H953 H 0.84714 0.95647 0.41305 0.0
H954 H 0.84479 0.98292 0.4223 0.0
H955 H 0.84705 0.96246 0.44229 0.0
C956 C 0.86986 0.04101 0.44927 0.0
C957 C 0.85644 0.03761 0.4687 0.0
C958 C 0.88072 0.02453 0.43813 0.0
C959 C 0.87826 1.0043 0.44606 0.0
C960 C 0.86449 1.00079 0.46518 0.0
H961 H 0.94977 0.88894 0.41096 0.0
H962 H 0.92427 0.91522 0.42829 0.0
C963 C 0.85363 0.01726 0.47634 0.0
C964 C 0.89155 0.98716 0.43528 0.0
H965 H 0.88507 0.9405 0.40922 0.0
C966 C 0.91648 0.98844 0.43448 0.0
C967 C 0.88003 0.96968 0.42607 0.0
C968 C 0.85327 0.9678 0.42575 0.0
C969 C 0.93021 0.97268 0.42486 0.0
C970 C 0.9187 0.95529 0.41549 0.0
C971 C 0.8938 0.95386 0.41645 0.0
C972 C 0.9324 0.93882 0.40409 0.0
C973 C 0.95698 0.97464 0.42501 0.0
C974 C 0.94482 0.94324 0.38443 0.0
C975 C 0.95932 0.92833 0.3745 0.0
C976 C 0.96172 0.90863 0.38402 0.0
C977 C 0.94844 0.90396 0.40325 0.0
C978 C 0.93385 0.91894 0.41317 0.0
H979 H 0.96317 0.98636 0.43726 0.0
H980 H 0.96547 0.95963 0.42898 0.0
H981 H 0.96313 0.97941 0.40823 0.0
H982 H 0.94364 0.95839 0.37699 0.0
H983 H 0.96907 0.93246 0.35961 0.0
H984 H 0.35287 0.41229 0.14395 0.0
H985 H 0.37146 0.40521 0.17997 0.0
H986 H 0.38701 0.34311 0.15859 0.0
H987 H 0.36916 0.35027 0.12221 0.0
H988 H 0.36225 0.37544 0.21279 0.0
H989 H 0.45245 0.36589 0.17614 0.0
H990 H 0.42794 0.37681 0.16075 0.0
H991 H 0.42997 0.34938 0.16446 0.0
C992 C 0.36032 0.39714 0.14686 0.0
C993 C 0.35979 0.38193 0.13006 0.0
C994 C 0.37077 0.39308 0.16752 0.0
C995 C 0.38097 0.37376 0.17182 0.0
C996 C 0.37961 0.35825 0.15547 0.0
H997 H 0.46847 0.33103 0.28223 0.0
H998 H 0.4428 0.3326 0.24941 0.0
C999 C 0.36917 0.3623 0.13477 0.0
C1000 C 0.39373 0.37018 0.19312 0.0
H1001 H 0.44874 0.36015 0.21474 0.0
C1002 C 0.38115 0.37204 0.21325 0.0
C1003 C 0.4184 0.3658 0.19366 0.0
C1004 C 0.43309 0.36452 0.17264 0.0
C1005 C 0.39257 0.36953 0.23391 0.0
C1006 C 0.41728 0.36537 0.23443 0.0
C1007 C 0.42977 0.36326 0.2143 0.0
C1008 C 0.43083 0.3638 0.2556 0.0
C1009 C 0.37805 0.37115 0.25499 0.0
C1010 C 0.43249 0.38077 0.27012 0.0
C1011 C 0.44716 0.37994 0.28894 0.0
C1012 C 0.46064 0.36216 0.29352 0.0
C1013 C 0.4584 0.34499 0.27924 0.0
C1014 C 0.44374 0.34585 0.26044 0.0
H1015 H 0.35881 0.36859 0.25172 0.0
H1016 H 0.38417 0.35982 0.26759 0.0
H1017 H 0.38015 0.38684 0.26215 0.0
H1018 H 0.42306 0.39493 0.26649 0.0
H1019 H 0.44847 0.39347 0.29951 0.0
H1020 H 0.6781 0.6318 0.64181 0.0
H1021 H 0.65465 0.63186 0.6762 0.0
H1022 H 0.64098 0.69683 0.66831 0.0
H1023 H 0.66386 0.69682 0.63363 0.0
H1024 H 0.66103 0.65564 0.71578 0.0
H1025 H 0.57412 0.67148 0.67516 0.0
H1026 H 0.59992 0.66293 0.65976 0.0
H1027 H 0.59733 0.68942 0.66833 0.0
C1028 C 0.66994 0.64607 0.64729 0.0
C1029 C 0.67273 0.66428 0.63488 0.0
C1030 C 0.65669 0.6461 0.66702 0.0
C1031 C 0.64583 0.66428 0.67464 0.0
C1032 C 0.64892 0.68256 0.66254 0.0
H1033 H 0.55291 0.69613 0.78452 0.0
H1034 H 0.57972 0.69621 0.75251 0.0
C1035 C 0.66221 0.68257 0.64284 0.0
C1036 C 0.63121 0.66412 0.69522 0.0
H1037 H 0.57488 0.67239 0.7146 0.0
C1038 C 0.64217 0.65923 0.71555 0.0
C1039 C 0.60662 0.66878 0.69483 0.0
C1040 C 0.59369 0.67328 0.67335 0.0
C1041 C 0.62928 0.65931 0.73563 0.0
C1042 C 0.60469 0.66406 0.73525 0.0
C1043 C 0.59375 0.66884 0.71487 0.0
C1044 C 0.58987 0.66418 0.75572 0.0
C1045 C 0.64219 0.65479 0.75711 0.0
C1046 C 0.58675 0.64616 0.76828 0.0
C1047 C 0.57146 0.64607 0.78669 0.0
C1048 C 0.55879 0.66396 0.79276 0.0
C1049 C 0.56231 0.68206 0.78034 0.0
C1050 C 0.57763 0.68214 0.762 0.0
H1051 H 0.66173 0.65688 0.75536 0.0
H1052 H 0.63573 0.6649 0.7708 0.0
H1053 H 0.63885 0.63854 0.7619 0.0
H1054 H 0.59565 0.63201 0.7635 0.0
H1055 H 0.56911 0.63182 0.7958 0.0
H1056 H 0.67935 0.39645 0.15019 0.0
H1057 H 0.66024 0.38805 0.18558 0.0
H1058 H 0.6227 0.33788 0.15389 0.0
H1059 H 0.64125 0.34657 0.11824 0.0
H1060 H 0.59318 0.36362 0.17699 0.0
H1061 H 0.6694 0.34169 0.23035 0.0
H1062 H 0.67372 0.36603 0.21681 0.0
H1063 H 0.67148 0.34286 0.20034 0.0
C1064 C 0.66717 0.38352 0.15078 0.0
C1065 C 0.66175 0.37224 0.13135 0.0
C1066 C 0.65649 0.37857 0.1711 0.0
C1067 C 0.64028 0.36215 0.17247 0.0
C1068 C 0.63532 0.3505 0.15326 0.0
H1069 H 0.56758 0.32665 0.29674 0.0
H1070 H 0.59264 0.32545 0.26322 0.0
C1071 C 0.64603 0.35542 0.13291 0.0
C1072 C 0.62678 0.35855 0.19337 0.0
H1073 H 0.63314 0.35077 0.24938 0.0
C1074 C 0.60191 0.36052 0.19275 0.0
C1075 C 0.63814 0.35431 0.21391 0.0
C1076 C 0.66464 0.35089 0.21541 0.0
C1077 C 0.58821 0.35928 0.21222 0.0
C1078 C 0.59969 0.35627 0.23294 0.0
C1079 C 0.62443 0.35334 0.23349 0.0
C1080 C 0.58626 0.35722 0.25417 0.0
C1081 C 0.56152 0.36145 0.2105 0.0
C1082 C 0.57506 0.37564 0.2605 0.0
C1083 C 0.56081 0.37639 0.27952 0.0
C1084 C 0.5575 0.35874 0.29272 0.0
C1085 C 0.56965 0.3405 0.2869 0.0
C1086 C 0.58396 0.33977 0.26777 0.0
H1087 H 0.55507 0.35811 0.19336 0.0
H1088 H 0.55237 0.35096 0.22231 0.0
H1089 H 0.55643 0.37752 0.21475 0.0
H1090 H 0.57698 0.38938 0.25045 0.0
H1091 H 0.55199 0.39077 0.2836 0.0
H1092 H 0.34652 0.70228 0.63821 0.0
H1093 H 0.36926 0.70303 0.67304 0.0
H1094 H 0.37472 0.63675 0.67145 0.0
H1095 H 0.35163 0.63576 0.63695 0.0
H1096 H 0.35978 0.68184 0.71527 0.0
H1097 H 0.44472 0.65799 0.6754 0.0
H1098 H 0.41989 0.66801 0.65968 0.0
H1099 H 0.41958 0.6418 0.66924 0.0
C1100 C 0.35229 0.68783 0.64539 0.0
C1101 C 0.34737 0.66896 0.63463 0.0
C1102 C 0.36538 0.68831 0.66524 0.0
C1103 C 0.37393 0.66997 0.67463 0.0
C1104 C 0.36863 0.65111 0.66425 0.0
H1105 H 0.46381 0.63475 0.78424 0.0
H1106 H 0.43702 0.6365 0.75231 0.0
C1107 C 0.3555 0.65059 0.64447 0.0
C1108 C 0.38865 0.67048 0.69513 0.0
H1109 H 0.44407 0.65906 0.71482 0.0
C1110 C 0.37826 0.67699 0.71522 0.0
C1111 C 0.41273 0.66416 0.69493 0.0
C1112 C 0.42503 0.65775 0.67365 0.0
C1113 C 0.39114 0.67672 0.73533 0.0
C1114 C 0.41518 0.67017 0.73517 0.0
C1115 C 0.42562 0.66398 0.71496 0.0
C1116 C 0.42985 0.66913 0.75574 0.0
C1117 C 0.37869 0.68281 0.75662 0.0
C1118 C 0.43459 0.68689 0.76849 0.0
C1119 C 0.44984 0.68592 0.78694 0.0
C1120 C 0.46089 0.66723 0.79277 0.0
C1121 C 0.45572 0.64943 0.78018 0.0
C1122 C 0.4404 0.65039 0.76189 0.0
H1123 H 0.35901 0.68216 0.75484 0.0
H1124 H 0.38407 0.67264 0.77059 0.0
H1125 H 0.38364 0.69887 0.76104 0.0
H1126 H 0.42705 0.70161 0.76381 0.0
H1127 H 0.45354 0.69994 0.79618 0.0
H1128 H 0.90078 0.86407 0.11443 0.0
H1129 H 0.91761 0.85955 0.15165 0.0
H1130 H 0.85363 0.88452 0.18083 0.0
H1131 H 0.83667 0.88922 0.14357 0.0
H1132 H 0.92592 0.8913 0.18206 0.0
H1133 H 0.86556 0.83212 0.21769 0.0
H1134 H 0.86735 0.8371 0.18815 0.0
H1135 H 0.85096 0.85425 0.20602 0.0
C1136 C 0.89022 0.86853 0.12876 0.0
C1137 C 0.86741 0.8771 0.12601 0.0
C1138 C 0.89983 0.86585 0.15002 0.0
C1139 C 0.88681 0.87155 0.16902 0.0
C1140 C 0.86382 0.87966 0.16642 0.0
H1141 H 0.95212 0.89602 0.29851 0.0
H1142 H 0.92785 0.8982 0.26472 0.0
C1143 C 0.85415 0.88234 0.14511 0.0
C1144 C 0.89806 0.87024 0.19135 0.0
H1145 H 0.89373 0.8472 0.24232 0.0
C1146 C 0.91886 0.88168 0.19525 0.0
C1147 C 0.88888 0.85757 0.20847 0.0
C1148 C 0.86707 0.8444 0.20491 0.0
C1149 C 0.93077 0.88082 0.21578 0.0
C1150 C 0.92143 0.86841 0.23301 0.0
C1151 C 0.90067 0.85688 0.22914 0.0
C1152 C 0.93376 0.86652 0.25475 0.0
C1153 C 0.95359 0.89282 0.2187 0.0
C1154 C 0.94435 0.84777 0.26075 0.0
C1155 C 0.95822 0.84645 0.28004 0.0
C1156 C 0.96168 0.86385 0.29377 0.0
C1157 C 0.94999 0.88235 0.28827 0.0
C1158 C 0.93618 0.88366 0.26893 0.0
H1159 H 0.96087 0.89819 0.20252 0.0
H1160 H 0.95012 0.90657 0.22927 0.0
H1161 H 0.96729 0.88329 0.22714 0.0
H1162 H 0.94261 0.83435 0.25007 0.0
H1163 H 0.9668 0.83192 0.28383 0.0
H1164 H 0.16558 0.19754 0.63436 0.0
H1165 H 0.1431 0.19721 0.66929 0.0
H1166 H 0.1574 0.13227 0.67654 0.0
H1167 H 0.18042 0.13256 0.64194 0.0
H1168 H 0.10251 0.17307 0.67845 0.0
H1169 H 0.17583 0.15619 0.73778 0.0
H1170 H 0.18117 0.16522 0.70979 0.0
H1171 H 0.17359 0.13869 0.71458 0.0
C1172 C 0.16429 0.18326 0.64357 0.0
C1173 C 0.17487 0.16508 0.63537 0.0
C1174 C 0.15131 0.18307 0.66345 0.0
C1175 C 0.14883 0.16478 0.67565 0.0
C1176 C 0.15943 0.14663 0.6676 0.0
H1177 H 0.06966 0.13187 0.79508 0.0
H1178 H 0.09592 0.13216 0.76251 0.0
C1179 C 0.17235 0.14678 0.64768 0.0
C1180 C 0.13424 0.16451 0.69625 0.0
H1181 H 0.13656 0.15552 0.75229 0.0
C1182 C 0.10996 0.16934 0.69462 0.0
C1183 C 0.14399 0.15947 0.71728 0.0
C1184 C 0.17011 0.15476 0.72011 0.0
C1185 C 0.09508 0.16903 0.7134 0.0
C1186 C 0.10486 0.16421 0.73449 0.0
C1187 C 0.12912 0.15926 0.73612 0.0
C1188 C 0.09013 0.16437 0.75502 0.0
C1189 C 0.06889 0.17344 0.71038 0.0
C1190 C 0.07873 0.18253 0.76199 0.0
C1191 C 0.06368 0.18242 0.78052 0.0
C1192 C 0.05984 0.16416 0.7926 0.0
C1193 C 0.07211 0.14618 0.78612 0.0
C1194 C 0.08713 0.1463 0.76751 0.0
H1195 H 0.06321 0.17129 0.69279 0.0
H1196 H 0.0579 0.16329 0.72112 0.0
H1197 H 0.06525 0.18968 0.71514 0.0
H1198 H 0.08125 0.19676 0.75291 0.0
H1199 H 0.05476 0.1966 0.78515 0.0
H1200 H 0.17974 0.89716 0.15125 0.0
H1201 H 0.16061 0.88864 0.18661 0.0
H1202 H 0.12243 0.83904 0.15455 0.0
H1203 H 0.14104 0.84782 0.11895 0.0
H1204 H 0.09329 0.8651 0.17807 0.0
H1205 H 0.16942 0.84153 0.23075 0.0
H1206 H 0.17407 0.8659 0.21736 0.0
H1207 H 0.17128 0.84287 0.20074 0.0
C1208 C 0.16741 0.88433 0.15175 0.0
C1209 C 0.16185 0.87322 0.13225 0.0
C1210 C 0.15671 0.87932 0.17205 0.0
C1211 C 0.14033 0.86302 0.17331 0.0
C1212 C 0.13519 0.85156 0.154 0.0
H1213 H 0.06727 0.82673 0.2971 0.0
H1214 H 0.09224 0.82566 0.26353 0.0
C1215 C 0.14593 0.85653 0.13369 0.0
C1216 C 0.12687 0.85935 0.19421 0.0
H1217 H 0.13339 0.85069 0.25004 0.0
C1218 C 0.10204 0.86167 0.19374 0.0
C1219 C 0.13826 0.85467 0.21462 0.0
C1220 C 0.16471 0.85088 0.21592 0.0
C1221 C 0.08842 0.86035 0.21326 0.0
C1222 C 0.09996 0.85688 0.23386 0.0
C1223 C 0.12464 0.8536 0.23425 0.0
C1224 C 0.08665 0.85771 0.25517 0.0
C1225 C 0.06177 0.86295 0.21172 0.0
C1226 C 0.07594 0.87622 0.26191 0.0
C1227 C 0.06176 0.87691 0.28097 0.0
C1228 C 0.05802 0.85908 0.2938 0.0
C1229 C 0.0697 0.84072 0.28757 0.0
C1230 C 0.08395 0.84007 0.2684 0.0
H1231 H 0.05516 0.86002 0.19454 0.0
H1232 H 0.05248 0.85237 0.22334 0.0
H1233 H 0.05701 0.87901 0.21635 0.0
H1234 H 0.07818 0.8901 0.25213 0.0
H1235 H 0.0533 0.89137 0.28536 0.0
H1236 H 0.85488 0.13655 0.63591 0.0
H1237 H 0.87786 0.13786 0.67047 0.0
H1238 H 0.8677 0.20366 0.67406 0.0
H1239 H 0.84508 0.20262 0.6392 0.0
H1240 H 0.92037 0.16189 0.67785 0.0
H1241 H 0.84761 0.1824 0.73676 0.0
H1242 H 0.84192 0.17166 0.70945 0.0
H1243 H 0.85031 0.19823 0.71235 0.0
C1244 C 0.85762 0.15135 0.64393 0.0
C1245 C 0.84813 0.16949 0.63468 0.0
C1246 C 0.87063 0.15203 0.66378 0.0
C1247 C 0.87425 0.17081 0.67494 0.0
C1248 C 0.86473 0.18895 0.66592 0.0
H1249 H 0.95431 0.20008 0.79626 0.0
H1250 H 0.9283 0.20185 0.76347 0.0
C1251 C 0.85178 0.18831 0.64599 0.0
C1252 C 0.88889 0.17143 0.6955 0.0
H1253 H 0.88656 0.18067 0.75156 0.0
C1254 C 0.91299 0.16598 0.69397 0.0
C1255 C 0.87924 0.17696 0.71645 0.0
C1256 C 0.85331 0.18252 0.71904 0.0
C1257 C 0.92775 0.16592 0.71284 0.0
C1258 C 0.918 0.17094 0.73392 0.0
C1259 C 0.89397 0.17675 0.73541 0.0
C1260 C 0.9324 0.16968 0.75462 0.0
C1261 C 0.95377 0.16072 0.70994 0.0
C1262 C 0.94269 0.15087 0.76091 0.0
C1263 C 0.95757 0.14982 0.7795 0.0
C1264 C 0.96234 0.16752 0.79239 0.0
C1265 C 0.95111 0.18617 0.78666 0.0
C1266 C 0.93626 0.18722 0.76793 0.0
H1267 H 0.95974 0.16317 0.6925 0.0
H1268 H 0.96508 0.17017 0.72121 0.0
H1269 H 0.95661 0.14423 0.71402 0.0
H1270 H 0.93946 0.13702 0.75123 0.0
H1271 H 0.96564 0.13513 0.78358 0.0
loop_
_geom_bond_atom_site_label_1
_geom_bond_atom_site_label_2
_geom_bond_distance
_geom_bond_site_symmetry_2
_ccdc_geom_bond_type
C0 C1 1.264 . S
C0 C5 1.479 . S
C0 C10 1.465 . S
C1 C0 1.264 . S
C1 C3 1.339 . S
C1 H28 0.931 1_556 S
C2 C3 1.395 . S
C2 C4 1.320 . S
C3 C1 1.339 . S
C3 C2 1.395 . S
C3 H29 0.929 . S
C4 C2 1.320 . S
C4 C5 1.405 . S
C4 H30 0.930 . S
C5 C0 1.479 . S
C5 C4 1.405 . S
C5 H31 0.931 . S
U6 O7 2.454 1_554 S
U6 O8 2.458 . S
U6 C9 2.984 1_554 S
U6 C10 2.847 1_554 S
U6 C23 2.882 . S
U6 O24 2.441 1_554 S
U6 O25 2.420 . S
U6 O26 2.455 . S
U6 O27 2.449 . S
O7 U6 2.454 1_556 S
O7 C9 1.353 . S
O8 U6 2.458 . S
O8 C9 1.286 1_554 S
C9 U6 2.984 1_556 S
C9 O7 1.353 . S
C9 O8 1.286 1_556 S
C9 C11 1.363 . S
C10 C0 1.465 . S
C10 U6 2.847 1_556 S
C10 O24 1.249 . S
C10 O25 1.202 1_556 S
C11 C9 1.363 . S
C11 C13 1.408 . S
C11 C16 1.342 . S
C12 C13 1.310 . S
C12 C15 1.461 . S
C12 H32 0.932 . S
C13 C11 1.408 . S
C13 C12 1.310 . S
C13 H33 0.930 . S
C14 C15 1.474 . S
C14 C16 1.285 . S
C14 H34 0.929 . S
C15 C12 1.461 . S
C15 C14 1.474 . S
C16 C11 1.342 . S
C16 C14 1.285 . S
C16 H35 0.930 1_556 S
C17 C20 1.424 . S
C17 C22 1.245 . S
C17 C23 1.428 . S
C18 C21 1.260 . S
C18 C22 1.477 . S
C18 H36 0.932 . S
C19 C20 1.384 . S
C19 C21 1.479 . S
C19 H37 0.929 . S
C20 C17 1.424 . S
C20 C19 1.384 . S
C20 H38 0.928 . S
C21 C18 1.260 . S
C21 C19 1.479 . S
C22 C17 1.245 . S
C22 C18 1.477 . S
C22 H39 0.932 . S
C23 U6 2.882 . S
C23 C17 1.428 . S
C23 O26 1.301 . S
C23 O27 1.282 . S
O24 U6 2.441 1_556 S
O24 C10 1.249 . S
O25 U6 2.420 . S
O25 C10 1.202 1_554 S
O26 U6 2.455 . S
O26 C23 1.301 . S
O27 U6 2.449 . S
O27 C23 1.282 . S
H28 C1 0.931 1_554 S
H29 C3 0.929 . S
H30 C4 0.930 . S
H31 C5 0.931 . S
H32 C12 0.932 . S
H33 C13 0.930 . S
H34 C14 0.929 . S
H35 C16 0.930 1_554 S
H36 C18 0.932 . S
H37 C19 0.929 . S
H38 C20 0.928 . S
H39 C22 0.932 . S
C40 C41 1.264 . S
C40 C45 1.479 . S
C40 C50 1.465 . S
C41 C40 1.264 . S
C41 C43 1.339 . S
C41 H68 0.931 . S
C42 C43 1.395 . S
C42 C44 1.320 . S
C43 C41 1.339 . S
C43 C42 1.395 . S
C43 H69 0.929 . S
C44 C42 1.320 . S
C44 C45 1.405 . S
C44 H70 0.930 . S
C45 C40 1.479 . S
C45 C44 1.405 . S
C45 H71 0.931 . S
U46 O47 2.454 . S
U46 O48 2.458 . S
U46 C49 2.984 . S
U46 C50 2.847 . S
U46 C63 2.882 . S
U46 O64 2.441 . S
U46 O65 2.420 . S
U46 O66 2.455 . S
U46 O67 2.449 . S
O47 U46 2.454 . S
O47 C49 1.353 . S
O48 U46 2.458 . S
O48 C49 1.286 . S
C49 U46 2.984 . S
C49 O47 1.353 . S
C49 O48 1.286 . S
C49 C51 1.363 . S
C50 C40 1.465 . S
C50 U46 2.847 . S
C50 O64 1.249 . S
C50 O65 1.202 . S
C51 C49 1.363 . S
C51 C53 1.408 . S
C51 C56 1.342 . S
C52 C53 1.310 . S
C52 C55 1.461 . S
C52 H72 0.932 . S
C53 C51 1.408 . S
C53 C52 1.310 . S
C53 H73 0.930 . S
C54 C55 1.474 . S
C54 C56 1.285 . S
C54 H74 0.929 . S
C55 C52 1.461 . S
C55 C54 1.474 . S
C56 C51 1.342 . S
C56 C54 1.285 . S
C56 H75 0.930 . S
C57 C60 1.424 . S
C57 C62 1.245 . S
C57 C63 1.428 . S
C58 C61 1.260 . S
C58 C62 1.477 . S
C58 H76 0.932 . S
C59 C60 1.384 . S
C59 C61 1.479 . S
C59 H77 0.929 . S
C60 C57 1.424 . S
C60 C59 1.384 . S
C60 H78 0.928 . S
C61 C58 1.260 . S
C61 C59 1.479 . S
C62 C57 1.245 . S
C62 C58 1.477 . S
C62 H79 0.932 . S
C63 U46 2.882 . S
C63 C57 1.428 . S
C63 O66 1.301 . S
C63 O67 1.282 . S
O64 U46 2.441 . S
O64 C50 1.249 . S
O65 U46 2.420 . S
O65 C50 1.202 . S
O66 U46 2.455 . S
O66 C63 1.301 . S
O67 U46 2.449 . S
O67 C63 1.282 . S
H68 C41 0.931 . S
H69 C43 0.929 . S
H70 C44 0.930 . S
H71 C45 0.931 . S
H72 C52 0.932 . S
H73 C53 0.930 . S
H74 C54 0.929 . S
H75 C56 0.930 . S
H76 C58 0.932 . S
H77 C59 0.929 . S
H78 C60 0.928 . S
H79 C62 0.932 . S
C80 C81 1.264 . S
C80 C85 1.479 . S
C80 C90 1.465 . S
C81 C80 1.264 . S
C81 C83 1.339 . S
C81 H108 0.931 . S
C82 C83 1.395 . S
C82 C84 1.320 . S
C83 C81 1.339 . S
C83 C82 1.395 . S
C83 H109 0.929 . S
C84 C82 1.320 . S
C84 C85 1.405 . S
C84 H110 0.930 . S
C85 C80 1.479 . S
C85 C84 1.405 . S
C85 H111 0.931 . S
U86 O87 2.454 1_554 S
U86 O88 2.458 . S
U86 C89 2.984 1_554 S
U86 C90 2.847 1_554 S
U86 C103 2.882 . S
U86 O104 2.441 1_554 S
U86 O105 2.420 1_554 S
U86 O106 2.455 . S
U86 O107 2.449 . S
O87 U86 2.454 1_556 S
O87 C89 1.353 . S
O88 U86 2.458 . S
O88 C89 1.286 1_554 S
C89 U86 2.984 1_556 S
C89 O87 1.353 . S
C89 O88 1.286 1_556 S
C89 C91 1.363 . S
C90 C80 1.465 . S
C90 U86 2.847 1_556 S
C90 O104 1.249 . S
C90 O105 1.202 . S
C91 C89 1.363 . S
C91 C93 1.408 . S
C91 C96 1.342 . S
C92 C93 1.310 . S
C92 C95 1.461 . S
C92 H112 0.932 . S
C93 C91 1.408 . S
C93 C92 1.310 . S
C93 H113 0.930 . S
C94 C95 1.474 . S
C94 C96 1.285 . S
C94 H114 0.929 . S
C95 C92 1.461 . S
C95 C94 1.474 . S
C96 C91 1.342 . S
C96 C94 1.285 . S
C96 H115 0.930 1_556 S
C97 C100 1.424 . S
C97 C102 1.245 . S
C97 C103 1.428 . S
C98 C101 1.260 . S
C98 C102 1.477 . S
C98 H116 0.932 . S
C99 C100 1.384 . S
C99 C101 1.479 . S
C99 H117 0.929 . S
C100 C97 1.424 . S
C100 C99 1.384 . S
C100 H118 0.928 . S
C101 C98 1.260 . S
C101 C99 1.479 . S
C102 C97 1.245 . S
C102 C98 1.477 . S
C102 H119 0.932 . S
C103 U86 2.882 . S
C103 C97 1.428 . S
C103 O106 1.301 . S
C103 O107 1.282 . S
O104 U86 2.441 1_556 S
O104 C90 1.249 . S
O105 U86 2.420 1_556 S
O105 C90 1.202 . S
O106 U86 2.455 . S
O106 C103 1.301 . S
O107 U86 2.449 . S
O107 C103 1.282 . S
H108 C81 0.931 . S
H109 C83 0.929 . S
H110 C84 0.930 . S
H111 C85 0.931 . S
H112 C92 0.932 . S
H113 C93 0.930 . S
H114 C94 0.929 . S
H115 C96 0.930 1_554 S
H116 C98 0.932 . S
H117 C99 0.929 . S
H118 C100 0.928 . S
H119 C102 0.932 . S
C120 C121 1.264 . S
C120 C125 1.479 . S
C120 C130 1.465 . S
C121 C120 1.264 . S
C121 C123 1.339 . S
C121 H148 0.931 . S
C122 C123 1.395 . S
C122 C124 1.320 . S
C123 C121 1.339 . S
C123 C122 1.395 . S
C123 H149 0.929 . S
C124 C122 1.320 . S
C124 C125 1.405 . S
C124 H150 0.930 . S
C125 C120 1.479 . S
C125 C124 1.405 . S
C125 H151 0.931 . S
U126 O127 2.454 . S
U126 O128 2.458 . S
U126 C129 2.984 . S
U126 C130 2.847 . S
U126 C143 2.882 . S
U126 O144 2.441 . S
U126 O145 2.420 . S
U126 O146 2.455 . S
U126 O147 2.449 . S
O127 U126 2.454 . S
O127 C129 1.353 . S
O128 U126 2.458 . S
O128 C129 1.286 . S
C129 U126 2.984 . S
C129 O127 1.353 . S
C129 O128 1.286 . S
C129 C131 1.363 . S
C130 C120 1.465 . S
C130 U126 2.847 . S
C130 O144 1.249 . S
C130 O145 1.202 . S
C131 C129 1.363 . S
C131 C133 1.408 . S
C131 C136 1.342 . S
C132 C133 1.310 . S
C132 C135 1.461 . S
C132 H152 0.932 . S
C133 C131 1.408 . S
C133 C132 1.310 . S
C133 H153 0.930 . S
C134 C135 1.474 . S
C134 C136 1.285 . S
C134 H154 0.929 . S
C135 C132 1.461 . S
C135 C134 1.474 . S
C136 C131 1.342 . S
C136 C134 1.285 . S
C136 H155 0.930 . S
C137 C140 1.424 . S
C137 C142 1.245 . S
C137 C143 1.428 . S
C138 C141 1.260 . S
C138 C142 1.477 . S
C138 H156 0.932 . S
C139 C140 1.384 . S
C139 C141 1.479 . S
C139 H157 0.929 . S
C140 C137 1.424 . S
C140 C139 1.384 . S
C140 H158 0.928 . S
C141 C138 1.260 . S
C141 C139 1.479 . S
C142 C137 1.245 . S
C142 C138 1.477 . S
C142 H159 0.932 . S
C143 U126 2.882 . S
C143 C137 1.428 . S
C143 O146 1.301 . S
C143 O147 1.282 . S
O144 U126 2.441 . S
O144 C130 1.249 . S
O145 U126 2.420 . S
O145 C130 1.202 . S
O146 U126 2.455 . S
O146 C143 1.301 . S
O147 U126 2.449 . S
O147 C143 1.282 . S
H148 C121 0.931 . S
H149 C123 0.929 . S
H150 C124 0.930 . S
H151 C125 0.931 . S
H152 C132 0.932 . S
H153 C133 0.930 . S
H154 C134 0.929 . S
H155 C136 0.930 . S
H156 C138 0.932 . S
H157 C139 0.929 . S
H158 C140 0.928 . S
H159 C142 0.932 . S
C160 C161 1.264 . S
C160 C165 1.479 . S
C160 C170 1.465 . S
C161 C160 1.264 . S
C161 C163 1.339 . S
C161 H188 0.931 1_556 S
C162 C163 1.395 . S
C162 C164 1.320 . S
C163 C161 1.339 . S
C163 C162 1.395 . S
C163 H189 0.929 . S
C164 C162 1.320 . S
C164 C165 1.405 . S
C164 H190 0.930 . S
C165 C160 1.479 . S
C165 C164 1.405 . S
C165 H191 0.931 . S
U166 O167 2.454 1_554 S
U166 O168 2.458 . S
U166 C169 2.984 1_554 S
U166 C170 2.847 1_554 S
U166 C183 2.882 . S
U166 O184 2.441 1_554 S
U166 O185 2.420 . S
U166 O186 2.455 . S
U166 O187 2.449 . S
O167 U166 2.454 1_556 S
O167 C169 1.353 . S
O168 U166 2.458 . S
O168 C169 1.286 1_554 S
C169 U166 2.984 1_556 S
C169 O167 1.353 . S
C169 O168 1.286 1_556 S
C169 C171 1.363 . S
C170 C160 1.465 . S
C170 U166 2.847 1_556 S
C170 O184 1.249 . S
C170 O185 1.202 1_556 S
C171 C169 1.363 . S
C171 C173 1.408 . S
C171 C176 1.342 . S
C172 C173 1.310 . S
C172 C175 1.461 . S
C172 H192 0.932 . S
C173 C171 1.408 . S
C173 C172 1.310 . S
C173 H193 0.930 . S
C174 C175 1.474 . S
C174 C176 1.285 . S
C174 H194 0.929 . S
C175 C172 1.461 . S
C175 C174 1.474 . S
C176 C171 1.342 . S
C176 C174 1.285 . S
C176 H195 0.930 1_556 S
C177 C180 1.424 . S
C177 C182 1.245 . S
C177 C183 1.428 . S
C178 C181 1.260 . S
C178 C182 1.477 . S
C178 H196 0.932 . S
C179 C180 1.384 . S
C179 C181 1.479 . S
C179 H197 0.929 . S
C180 C177 1.424 . S
C180 C179 1.384 . S
C180 H198 0.928 . S
C181 C178 1.260 . S
C181 C179 1.479 . S
C182 C177 1.245 . S
C182 C178 1.477 . S
C182 H199 0.932 . S
C183 U166 2.882 . S
C183 C177 1.428 . S
C183 O186 1.301 . S
C183 O187 1.282 . S
O184 U166 2.441 1_556 S
O184 C170 1.249 . S
O185 U166 2.420 . S
O185 C170 1.202 1_554 S
O186 U166 2.455 . S
O186 C183 1.301 . S
O187 U166 2.449 . S
O187 C183 1.282 . S
H188 C161 0.931 1_554 S
H189 C163 0.929 . S
H190 C164 0.930 . S
H191 C165 0.931 . S
H192 C172 0.932 . S
H193 C173 0.930 . S
H194 C174 0.929 . S
H195 C176 0.930 1_554 S
H196 C178 0.932 . S
H197 C179 0.929 . S
H198 C180 0.928 . S
H199 C182 0.932 . S
C200 C201 1.264 . S
C200 C205 1.479 . S
C200 C210 1.465 . S
C201 C200 1.264 . S
C201 C203 1.339 . S
C201 H228 0.931 . S
C202 C203 1.395 . S
C202 C204 1.320 . S
C203 C201 1.339 . S
C203 C202 1.395 . S
C203 H229 0.929 . S
C204 C202 1.320 . S
C204 C205 1.405 . S
C204 H230 0.930 . S
C205 C200 1.479 . S
C205 C204 1.405 . S
C205 H231 0.931 . S
U206 O207 2.454 . S
U206 O208 2.458 . S
U206 C209 2.984 . S
U206 C210 2.847 . S
U206 C223 2.882 . S
U206 O224 2.441 . S
U206 O225 2.420 . S
U206 O226 2.455 . S
U206 O227 2.449 . S
O207 U206 2.454 . S
O207 C209 1.353 . S
O208 U206 2.458 . S
O208 C209 1.286 . S
C209 U206 2.984 . S
C209 O207 1.353 . S
C209 O208 1.286 . S
C209 C211 1.363 . S
C210 C200 1.465 . S
C210 U206 2.847 . S
C210 O224 1.249 . S
C210 O225 1.202 . S
C211 C209 1.363 . S
C211 C213 1.408 . S
C211 C216 1.342 . S
C212 C213 1.310 . S
C212 C215 1.461 . S
C212 H232 0.932 . S
C213 C211 1.408 . S
C213 C212 1.310 . S
C213 H233 0.930 . S
C214 C215 1.474 . S
C214 C216 1.285 . S
C214 H234 0.929 . S
C215 C212 1.461 . S
C215 C214 1.474 . S
C216 C211 1.342 . S
C216 C214 1.285 . S
C216 H235 0.930 . S
C217 C220 1.424 . S
C217 C222 1.245 . S
C217 C223 1.428 . S
C218 C221 1.260 . S
C218 C222 1.477 . S
C218 H236 0.932 . S
C219 C220 1.384 . S
C219 C221 1.479 . S
C219 H237 0.929 . S
C220 C217 1.424 . S
C220 C219 1.384 . S
C220 H238 0.928 . S
C221 C218 1.260 . S
C221 C219 1.479 . S
C222 C217 1.245 . S
C222 C218 1.477 . S
C222 H239 0.932 . S
C223 U206 2.882 . S
C223 C217 1.428 . S
C223 O226 1.301 . S
C223 O227 1.282 . S
O224 U206 2.441 . S
O224 C210 1.249 . S
O225 U206 2.420 . S
O225 C210 1.202 . S
O226 U206 2.455 . S
O226 C223 1.301 . S
O227 U206 2.449 . S
O227 C223 1.282 . S
H228 C201 0.931 . S
H229 C203 0.929 . S
H230 C204 0.930 . S
H231 C205 0.931 . S
H232 C212 0.932 . S
H233 C213 0.930 . S
H234 C214 0.929 . S
H235 C216 0.930 . S
H236 C218 0.932 . S
H237 C219 0.929 . S
H238 C220 0.928 . S
H239 C222 0.932 . S
C240 C241 1.264 . S
C240 C245 1.479 . S
C240 C250 1.465 . S
C241 C240 1.264 . S
C241 C243 1.339 . S
C241 H268 0.931 . S
C242 C243 1.395 . S
C242 C244 1.320 . S
C243 C241 1.339 . S
C243 C242 1.395 . S
C243 H269 0.929 . S
C244 C242 1.320 . S
C244 C245 1.405 . S
C244 H270 0.930 . S
C245 C240 1.479 . S
C245 C244 1.405 . S
C245 H271 0.931 . S
U246 O247 2.454 1_554 S
U246 O248 2.458 . S
U246 C249 2.984 1_554 S
U246 C250 2.847 1_554 S
U246 C263 2.882 . S
U246 O264 2.441 1_554 S
U246 O265 2.420 1_554 S
U246 O266 2.455 . S
U246 O267 2.449 . S
O247 U246 2.454 1_556 S
O247 C249 1.353 . S
O248 U246 2.458 . S
O248 C249 1.286 1_554 S
C249 U246 2.984 1_556 S
C249 O247 1.353 . S
C249 O248 1.286 1_556 S
C249 C251 1.363 . S
C250 C240 1.465 . S
C250 U246 2.847 1_556 S
C250 O264 1.249 . S
C250 O265 1.202 . S
C251 C249 1.363 . S
C251 C253 1.408 . S
C251 C256 1.342 . S
C252 C253 1.310 . S
C252 C255 1.461 . S
C252 H272 0.932 . S
C253 C251 1.408 . S
C253 C252 1.310 . S
C253 H273 0.930 . S
C254 C255 1.474 . S
C254 C256 1.285 . S
C254 H274 0.929 . S
C255 C252 1.461 . S
C255 C254 1.474 . S
C256 C251 1.342 . S
C256 C254 1.285 . S
C256 H275 0.930 1_556 S
C257 C260 1.424 . S
C257 C262 1.245 . S
C257 C263 1.428 . S
C258 C261 1.260 . S
C258 C262 1.477 . S
C258 H276 0.932 . S
C259 C260 1.384 . S
C259 C261 1.479 . S
C259 H277 0.929 . S
C260 C257 1.424 . S
C260 C259 1.384 . S
C260 H278 0.928 . S
C261 C258 1.260 . S
C261 C259 1.479 . S
C262 C257 1.245 . S
C262 C258 1.477 . S
C262 H279 0.932 . S
C263 U246 2.882 . S
C263 C257 1.428 . S
C263 O266 1.301 . S
C263 O267 1.282 . S
O264 U246 2.441 1_556 S
O264 C250 1.249 . S
O265 U246 2.420 1_556 S
O265 C250 1.202 . S
O266 U246 2.455 . S
O266 C263 1.301 . S
O267 U246 2.449 . S
O267 C263 1.282 . S
H268 C241 0.931 . S
H269 C243 0.929 . S
H270 C244 0.930 . S
H271 C245 0.931 . S
H272 C252 0.932 . S
H273 C253 0.930 . S
H274 C254 0.929 . S
H275 C256 0.930 1_554 S
H276 C258 0.932 . S
H277 C259 0.929 . S
H278 C260 0.928 . S
H279 C262 0.932 . S
C280 C281 1.264 . S
C280 C285 1.479 . S
C280 C290 1.465 . S
C281 C280 1.264 . S
C281 C283 1.339 . S
C281 H308 0.931 . S
C282 C283 1.395 . S
C282 C284 1.320 . S
C283 C281 1.339 . S
C283 C282 1.395 . S
C283 H309 0.929 . S
C284 C282 1.320 . S
C284 C285 1.405 . S
C284 H310 0.930 . S
C285 C280 1.479 . S
C285 C284 1.405 . S
C285 H311 0.931 . S
U286 O287 2.454 . S
U286 O288 2.458 . S
U286 C289 2.984 . S
U286 C290 2.847 . S
U286 C303 2.882 . S
U286 O304 2.441 . S
U286 O305 2.420 . S
U286 O306 2.455 . S
U286 O307 2.449 . S
O287 U286 2.454 . S
O287 C289 1.353 . S
O288 U286 2.458 . S
O288 C289 1.286 . S
C289 U286 2.984 . S
C289 O287 1.353 . S
C289 O288 1.286 . S
C289 C291 1.363 . S
C290 C280 1.465 . S
C290 U286 2.847 . S
C290 O304 1.249 . S
C290 O305 1.202 . S
C291 C289 1.363 . S
C291 C293 1.408 . S
C291 C296 1.342 . S
C292 C293 1.310 . S
C292 C295 1.461 . S
C292 H312 0.932 . S
C293 C291 1.408 . S
C293 C292 1.310 . S
C293 H313 0.930 . S
C294 C295 1.474 . S
C294 C296 1.285 . S
C294 H314 0.929 . S
C295 C292 1.461 . S
C295 C294 1.474 . S
C296 C291 1.342 . S
C296 C294 1.285 . S
C296 H315 0.930 . S
C297 C300 1.424 . S
C297 C302 1.245 . S
C297 C303 1.428 . S
C298 C301 1.260 . S
C298 C302 1.477 . S
C298 H316 0.932 . S
C299 C300 1.384 . S
C299 C301 1.479 . S
C299 H317 0.929 . S
C300 C297 1.424 . S
C300 C299 1.384 . S
C300 H318 0.928 . S
C301 C298 1.260 . S
C301 C299 1.479 . S
C302 C297 1.245 . S
C302 C298 1.477 . S
C302 H319 0.932 . S
C303 U286 2.882 . S
C303 C297 1.428 . S
C303 O306 1.301 . S
C303 O307 1.282 . S
O304 U286 2.441 . S
O304 C290 1.249 . S
O305 U286 2.420 . S
O305 C290 1.202 . S
O306 U286 2.455 . S
O306 C303 1.301 . S
O307 U286 2.449 . S
O307 C303 1.282 . S
H308 C281 0.931 . S
H309 C283 0.929 . S
H310 C284 0.930 . S
H311 C285 0.931 . S
H312 C292 0.932 . S
H313 C293 0.930 . S
H314 C294 0.929 . S
H315 C296 0.930 . S
H316 C298 0.932 . S
H317 C299 0.929 . S
H318 C300 0.928 . S
H319 C302 0.932 . S
Fe320 O322 1.918 . S
Fe320 O325 1.997 1_455 S
Fe320 O326 2.002 1_455 S
Fe320 O331 1.976 . S
Fe320 O334 1.996 . S
Fe321 O322 1.918 . S
Fe321 O329 1.997 1_455 S
Fe321 O332 1.996 . S
Fe321 O336 1.976 . S
Fe321 O339 2.002 1_455 S
O322 Fe320 1.918 . S
O322 Fe321 1.918 . S
O322 Fe323 1.918 . S
Fe323 O322 1.918 . S
Fe323 O324 2.002 1_455 S
Fe323 O333 1.976 . S
Fe323 O337 1.996 . S
Fe323 O340 1.997 1_455 S
O324 Fe323 2.002 1_655 S
O324 C341 1.295 . S
O325 Fe320 1.997 1_655 S
O325 C341 1.235 . S
O326 Fe320 2.002 1_655 S
O326 C327 1.295 . S
C327 O326 1.295 . S
C327 O329 1.235 . S
C328 O333 1.287 . S
C328 O334 1.255 . S
O329 Fe321 1.997 1_655 S
O329 C327 1.235 . S
C330 O336 1.287 . S
C330 O337 1.255 . S
O331 Fe320 1.976 . S
O331 C338 1.287 . S
O332 Fe321 1.996 . S
O332 C338 1.255 . S
O333 Fe323 1.976 . S
O333 C328 1.287 . S
O334 Fe320 1.996 . S
O334 C328 1.255 . S
C335 O339 1.295 . S
C335 O340 1.235 . S
O336 Fe321 1.976 . S
O336 C330 1.287 . S
O337 Fe323 1.996 . S
O337 C330 1.255 . S
C338 O331 1.287 . S
C338 O332 1.255 . S
O339 Fe321 2.002 1_655 S
O339 C335 1.295 . S
O340 Fe323 1.997 1_655 S
O340 C335 1.235 . S
C341 O324 1.295 . S
C341 O325 1.235 . S
Fe342 O344 1.919 . S
Fe342 O347 1.979 1_655 S
Fe342 O348 1.985 1_655 S
Fe342 O353 1.993 . S
Fe342 O356 2.013 . S
Fe343 O344 1.919 . S
Fe343 O351 1.980 1_655 S
Fe343 O354 2.012 . S
Fe343 O358 1.993 . S
Fe343 O361 1.985 1_655 S
O344 Fe342 1.919 . S
O344 Fe343 1.919 . S
O344 Fe345 1.919 . S
Fe345 O344 1.919 . S
Fe345 O346 1.986 1_655 S
Fe345 O355 1.993 . S
Fe345 O359 2.012 . S
Fe345 O362 1.980 1_655 S
O346 Fe345 1.986 1_455 S
O346 C363 1.295 . S
O347 Fe342 1.979 1_455 S
O347 C363 1.235 . S
O348 Fe342 1.985 1_455 S
O348 C349 1.295 . S
C349 O348 1.295 . S
C349 O351 1.235 . S
C350 O355 1.287 . S
C350 O356 1.255 . S
O351 Fe343 1.980 1_455 S
O351 C349 1.235 . S
C352 O358 1.287 . S
C352 O359 1.255 . S
O353 Fe342 1.993 . S
O353 C360 1.287 . S
O354 Fe343 2.012 . S
O354 C360 1.255 . S
O355 Fe345 1.993 . S
O355 C350 1.287 . S
O356 Fe342 2.013 . S
O356 C350 1.255 . S
C357 O361 1.295 . S
C357 O362 1.235 . S
O358 Fe343 1.993 . S
O358 C352 1.287 . S
O359 Fe345 2.012 . S
O359 C352 1.255 . S
C360 O353 1.287 . S
C360 O354 1.255 . S
O361 Fe343 1.985 1_455 S
O361 C357 1.295 . S
O362 Fe345 1.980 1_455 S
O362 C357 1.235 . S
C363 O346 1.295 . S
C363 O347 1.235 . S
Fe364 O366 1.918 . S
Fe364 O369 1.997 . S
Fe364 O370 2.002 . S
Fe364 O375 1.976 . S
Fe364 O378 1.996 . S
Fe365 O366 1.918 . S
Fe365 O373 1.997 . S
Fe365 O376 1.996 . S
Fe365 O380 1.976 . S
Fe365 O383 2.002 . S
O366 Fe364 1.918 . S
O366 Fe365 1.918 . S
O366 Fe367 1.918 . S
Fe367 O366 1.918 . S
Fe367 O368 2.002 . S
Fe367 O377 1.976 . S
Fe367 O381 1.996 . S
Fe367 O384 1.997 . S
O368 Fe367 2.002 . S
O368 C385 1.295 . S
O369 Fe364 1.997 . S
O369 C385 1.235 . S
O370 Fe364 2.002 . S
O370 C371 1.295 . S
C371 O370 1.295 . S
C371 O373 1.235 . S
C372 O377 1.287 . S
C372 O378 1.255 . S
O373 Fe365 1.997 . S
O373 C371 1.235 . S
C374 O380 1.287 . S
C374 O381 1.255 . S
O375 Fe364 1.976 . S
O375 C382 1.287 . S
O376 Fe365 1.996 . S
O376 C382 1.255 . S
O377 Fe367 1.976 . S
O377 C372 1.287 . S
O378 Fe364 1.996 . S
O378 C372 1.255 . S
C379 O383 1.295 . S
C379 O384 1.235 . S
O380 Fe365 1.976 . S
O380 C374 1.287 . S
O381 Fe367 1.996 . S
O381 C374 1.255 . S
C382 O375 1.287 . S
C382 O376 1.255 . S
O383 Fe365 2.002 . S
O383 C379 1.295 . S
O384 Fe367 1.997 . S
O384 C379 1.235 . S
C385 O368 1.295 . S
C385 O369 1.235 . S
Fe386 O388 1.918 . S
Fe386 O391 1.997 . S
Fe386 O392 2.002 . S
Fe386 O397 1.976 . S
Fe386 O400 1.996 . S
Fe387 O388 1.918 . S
Fe387 O395 1.997 . S
Fe387 O398 1.996 . S
Fe387 O402 1.976 . S
Fe387 O405 2.002 . S
O388 Fe386 1.918 . S
O388 Fe387 1.918 . S
O388 Fe389 1.918 . S
Fe389 O388 1.918 . S
Fe389 O390 2.002 . S
Fe389 O399 1.976 . S
Fe389 O403 1.996 . S
Fe389 O406 1.997 . S
O390 Fe389 2.002 . S
O390 C407 1.295 . S
O391 Fe386 1.997 . S
O391 C407 1.235 . S
O392 Fe386 2.002 . S
O392 C393 1.295 . S
C393 O392 1.295 . S
C393 O395 1.235 . S
C394 O399 1.287 . S
C394 O400 1.255 . S
O395 Fe387 1.997 . S
O395 C393 1.235 . S
C396 O402 1.287 . S
C396 O403 1.255 . S
O397 Fe386 1.976 . S
O397 C404 1.287 . S
O398 Fe387 1.996 . S
O398 C404 1.255 . S
O399 Fe389 1.976 . S
O399 C394 1.287 . S
O400 Fe386 1.996 . S
O400 C394 1.255 . S
C401 O405 1.295 . S
C401 O406 1.235 . S
O402 Fe387 1.976 . S
O402 C396 1.287 . S
O403 Fe389 1.996 . S
O403 C396 1.255 . S
C404 O397 1.287 . S
C404 O398 1.255 . S
O405 Fe387 2.002 . S
O405 C401 1.295 . S
O406 Fe389 1.997 . S
O406 C401 1.235 . S
C407 O390 1.295 . S
C407 O391 1.235 . S
H408 C416 0.929 . S
H409 C418 0.930 . S
H410 C420 0.930 . S
H411 C423 0.929 . S
H412 C426 0.930 . S
H413 C428 0.960 . S
H414 C428 0.960 . S
H415 C428 0.960 . S
C416 H408 0.929 . S
C416 C417 1.377 . S
C416 C418 1.384 . S
C417 C416 1.377 . S
C417 C423 1.390 . S
C418 H409 0.930 . S
C418 C416 1.384 . S
C418 C419 1.372 . S
C419 C418 1.372 . S
C419 C420 1.400 . S
C419 C424 1.490 . S
C420 H410 0.930 . S
C420 C419 1.400 . S
C420 C423 1.386 . S
H421 C437 0.930 . S
H422 C438 0.931 . S
C423 H411 0.929 . S
C423 C417 1.390 . S
C423 C420 1.386 . S
C424 C419 1.490 . S
C424 C426 1.395 . S
C424 C427 1.403 . S
H425 C431 0.930 . S
C426 H412 0.930 . S
C426 C424 1.395 . S
C426 C429 1.403 . S
C427 C424 1.403 . S
C427 C428 1.524 . S
C427 C431 1.400 . S
C428 H413 0.960 . S
C428 H414 0.960 . S
C428 H415 0.960 . S
C428 C427 1.524 . S
C429 C426 1.403 . S
C429 C430 1.392 . S
C429 C433 1.495 . S
C430 C429 1.392 . S
C430 C431 1.385 . S
C430 C432 1.478 . S
C431 H425 0.930 . S
C431 C427 1.400 . S
C431 C430 1.385 . S
C432 C430 1.478 . S
C432 C434 1.381 . S
C432 C438 1.383 . S
C433 C429 1.495 . S
C433 H439 0.959 . S
C433 H440 0.961 . S
C433 H441 0.960 . S
C434 C432 1.381 . S
C434 C435 1.394 . S
C434 H442 0.930 . S
C435 C434 1.394 . S
C435 C436 1.383 . S
C435 H443 0.929 . S
C436 C435 1.383 . S
C436 C437 1.377 . S
C437 H421 0.930 . S
C437 C436 1.377 . S
C437 C438 1.379 . S
C438 H422 0.931 . S
C438 C432 1.383 . S
C438 C437 1.379 . S
H439 C433 0.959 . S
H440 C433 0.961 . S
H441 C433 0.960 . S
H442 C434 0.930 . S
H443 C435 0.929 . S
H444 C452 0.929 . S
H445 C454 0.930 . S
H446 C456 0.930 . S
H447 C459 0.929 . S
H448 C462 0.930 . S
H449 C464 0.960 . S
H450 C464 0.960 . S
H451 C464 0.960 . S
C452 H444 0.929 . S
C452 C453 1.377 . S
C452 C454 1.384 . S
C453 C452 1.377 . S
C453 C459 1.390 . S
C454 H445 0.930 . S
C454 C452 1.384 . S
C454 C455 1.372 . S
C455 C454 1.372 . S
C455 C456 1.400 . S
C455 C460 1.490 . S
C456 H446 0.930 . S
C456 C455 1.400 . S
C456 C459 1.386 . S
H457 C473 0.930 . S
H458 C474 0.931 . S
C459 H447 0.929 . S
C459 C453 1.390 . S
C459 C456 1.386 . S
C460 C455 1.490 . S
C460 C462 1.395 . S
C460 C463 1.403 . S
H461 C467 0.930 . S
C462 H448 0.930 . S
C462 C460 1.395 . S
C462 C465 1.403 . S
C463 C460 1.403 . S
C463 C464 1.524 . S
C463 C467 1.400 . S
C464 H449 0.960 . S
C464 H450 0.960 . S
C464 H451 0.960 . S
C464 C463 1.524 . S
C465 C462 1.403 . S
C465 C466 1.392 . S
C465 C469 1.495 . S
C466 C465 1.392 . S
C466 C467 1.385 . S
C466 C468 1.478 . S
C467 H461 0.930 . S
C467 C463 1.400 . S
C467 C466 1.385 . S
C468 C466 1.478 . S
C468 C470 1.381 . S
C468 C474 1.383 . S
C469 C465 1.495 . S
C469 H475 0.959 . S
C469 H476 0.961 . S
C469 H477 0.960 . S
C470 C468 1.381 . S
C470 C471 1.394 . S
C470 H478 0.930 . S
C471 C470 1.394 . S
C471 C472 1.383 . S
C471 H479 0.929 . S
C472 C471 1.383 . S
C472 C473 1.377 . S
C473 H457 0.930 . S
C473 C472 1.377 . S
C473 C474 1.379 . S
C474 H458 0.931 . S
C474 C468 1.383 . S
C474 C473 1.379 . S
H475 C469 0.959 . S
H476 C469 0.961 . S
H477 C469 0.960 . S
H478 C470 0.930 . S
H479 C471 0.929 . S
H480 C488 0.929 . S
H481 C490 0.930 . S
H482 C492 0.930 . S
H483 C495 0.929 . S
H484 C498 0.930 . S
H485 C500 0.960 . S
H486 C500 0.960 . S
H487 C500 0.960 . S
C488 H480 0.929 . S
C488 C489 1.377 . S
C488 C490 1.384 . S
C489 C488 1.377 . S
C489 C495 1.390 . S
C490 H481 0.930 . S
C490 C488 1.384 . S
C490 C491 1.372 . S
C491 C490 1.372 . S
C491 C492 1.400 . S
C491 C496 1.490 . S
C492 H482 0.930 . S
C492 C491 1.400 . S
C492 C495 1.386 . S
H493 C509 0.930 . S
H494 C510 0.931 . S
C495 H483 0.929 . S
C495 C489 1.390 . S
C495 C492 1.386 . S
C496 C491 1.490 . S
C496 C498 1.395 . S
C496 C499 1.403 . S
H497 C503 0.930 . S
C498 H484 0.930 . S
C498 C496 1.395 . S
C498 C501 1.403 . S
C499 C496 1.403 . S
C499 C500 1.524 . S
C499 C503 1.400 . S
C500 H485 0.960 . S
C500 H486 0.960 . S
C500 H487 0.960 . S
C500 C499 1.524 . S
C501 C498 1.403 . S
C501 C502 1.392 . S
C501 C505 1.495 . S
C502 C501 1.392 . S
C502 C503 1.385 . S
C502 C504 1.478 . S
C503 H497 0.930 . S
C503 C499 1.400 . S
C503 C502 1.385 . S
C504 C502 1.478 . S
C504 C506 1.381 . S
C504 C510 1.383 . S
C505 C501 1.495 . S
C505 H511 0.959 . S
C505 H512 0.961 . S
C505 H513 0.960 . S
C506 C504 1.381 . S
C506 C507 1.394 . S
C506 H514 0.930 . S
C507 C506 1.394 . S
C507 C508 1.383 . S
C507 H515 0.929 . S
C508 C507 1.383 . S
C508 C509 1.377 . S
C509 H493 0.930 . S
C509 C508 1.377 . S
C509 C510 1.379 . S
C510 H494 0.931 . S
C510 C504 1.383 . S
C510 C509 1.379 . S
H511 C505 0.959 . S
H512 C505 0.961 . S
H513 C505 0.960 . S
H514 C506 0.930 . S
H515 C507 0.929 . S
H516 C524 0.929 . S
H517 C526 0.930 . S
H518 C528 0.930 . S
H519 C531 0.929 . S
H520 C534 0.930 . S
H521 C536 0.960 . S
H522 C536 0.960 . S
H523 C536 0.960 . S
C524 H516 0.929 . S
C524 C525 1.377 . S
C524 C526 1.384 . S
C525 C524 1.377 . S
C525 C531 1.390 . S
C526 H517 0.930 . S
C526 C524 1.384 . S
C526 C527 1.372 . S
C527 C526 1.372 . S
C527 C528 1.400 . S
C527 C532 1.490 . S
C528 H518 0.930 . S
C528 C527 1.400 . S
C528 C531 1.386 . S
H529 C545 0.930 . S
H530 C546 0.931 . S
C531 H519 0.929 . S
C531 C525 1.390 . S
C531 C528 1.386 . S
C532 C527 1.490 . S
C532 C534 1.395 . S
C532 C535 1.403 . S
H533 C539 0.930 . S
C534 H520 0.930 . S
C534 C532 1.395 . S
C534 C537 1.403 . S
C535 C532 1.403 . S
C535 C536 1.524 . S
C535 C539 1.400 . S
C536 H521 0.960 . S
C536 H522 0.960 . S
C536 H523 0.960 . S
C536 C535 1.524 . S
C537 C534 1.403 . S
C537 C538 1.392 . S
C537 C541 1.495 . S
C538 C537 1.392 . S
C538 C539 1.385 . S
C538 C540 1.478 . S
C539 H533 0.930 . S
C539 C535 1.400 . S
C539 C538 1.385 . S
C540 C538 1.478 . S
C540 C542 1.381 . S
C540 C546 1.383 . S
C541 C537 1.495 . S
C541 H547 0.959 . S
C541 H548 0.961 . S
C541 H549 0.960 . S
C542 C540 1.381 . S
C542 C543 1.394 . S
C542 H550 0.930 . S
C543 C542 1.394 . S
C543 C544 1.383 . S
C543 H551 0.929 . S
C544 C543 1.383 . S
C544 C545 1.377 . S
C545 H529 0.930 . S
C545 C544 1.377 . S
C545 C546 1.379 . S
C546 H530 0.931 . S
C546 C540 1.383 . S
C546 C545 1.379 . S
H547 C541 0.959 . S
H548 C541 0.961 . S
H549 C541 0.960 . S
H550 C542 0.930 . S
H551 C543 0.929 . S
H552 C560 0.929 . S
H553 C562 0.930 . S
H554 C564 0.930 . S
H555 C567 0.929 . S
H556 C570 0.930 . S
H557 C572 0.960 . S
H558 C572 0.960 . S
H559 C572 0.960 . S
C560 H552 0.929 . S
C560 C561 1.377 . S
C560 C562 1.384 . S
C561 C560 1.377 . S
C561 C567 1.390 . S
C562 H553 0.930 . S
C562 C560 1.384 . S
C562 C563 1.372 . S
C563 C562 1.372 . S
C563 C564 1.400 . S
C563 C568 1.490 . S
C564 H554 0.930 . S
C564 C563 1.400 . S
C564 C567 1.386 . S
H565 C581 0.930 . S
H566 C582 0.931 . S
C567 H555 0.929 . S
C567 C561 1.390 . S
C567 C564 1.386 . S
C568 C563 1.490 . S
C568 C570 1.395 . S
C568 C571 1.403 . S
H569 C575 0.930 . S
C570 H556 0.930 . S
C570 C568 1.395 . S
C570 C573 1.403 . S
C571 C568 1.403 . S
C571 C572 1.524 . S
C571 C575 1.400 . S
C572 H557 0.960 . S
C572 H558 0.960 . S
C572 H559 0.960 . S
C572 C571 1.524 . S
C573 C570 1.403 . S
C573 C574 1.392 . S
C573 C577 1.495 . S
C574 C573 1.392 . S
C574 C575 1.385 . S
C574 C576 1.478 . S
C575 H569 0.930 . S
C575 C571 1.400 . S
C575 C574 1.385 . S
C576 C574 1.478 . S
C576 C578 1.381 . S
C576 C582 1.383 . S
C577 C573 1.495 . S
C577 H583 0.959 . S
C577 H584 0.961 . S
C577 H585 0.960 . S
C578 C576 1.381 . S
C578 C579 1.394 . S
C578 H586 0.930 . S
C579 C578 1.394 . S
C579 C580 1.383 . S
C579 H587 0.929 . S
C580 C579 1.383 . S
C580 C581 1.377 . S
C581 H565 0.930 . S
C581 C580 1.377 . S
C581 C582 1.379 . S
C582 H566 0.931 . S
C582 C576 1.383 . S
C582 C581 1.379 . S
H583 C577 0.959 . S
H584 C577 0.961 . S
H585 C577 0.960 . S
H586 C578 0.930 . S
H587 C579 0.929 . S
H588 C596 0.929 . S
H589 C598 0.930 . S
H590 C600 0.930 . S
H591 C603 0.929 . S
H592 C606 0.930 . S
H593 C608 0.960 . S
H594 C608 0.960 . S
H595 C608 0.960 . S
C596 H588 0.929 . S
C596 C597 1.377 . S
C596 C598 1.384 . S
C597 C596 1.377 . S
C597 C603 1.390 . S
C598 H589 0.930 . S
C598 C596 1.384 . S
C598 C599 1.372 . S
C599 C598 1.372 . S
C599 C600 1.400 . S
C599 C604 1.490 . S
C600 H590 0.930 . S
C600 C599 1.400 . S
C600 C603 1.386 . S
H601 C617 0.930 . S
H602 C618 0.931 . S
C603 H591 0.929 . S
C603 C597 1.390 . S
C603 C600 1.386 . S
C604 C599 1.490 . S
C604 C606 1.395 . S
C604 C607 1.403 . S
H605 C611 0.930 . S
C606 H592 0.930 . S
C606 C604 1.395 . S
C606 C609 1.403 . S
C607 C604 1.403 . S
C607 C608 1.524 . S
C607 C611 1.400 . S
C608 H593 0.960 . S
C608 H594 0.960 . S
C608 H595 0.960 . S
C608 C607 1.524 . S
C609 C606 1.403 . S
C609 C610 1.392 . S
C609 C613 1.495 . S
C610 C609 1.392 . S
C610 C611 1.385 . S
C610 C612 1.478 . S
C611 H605 0.930 . S
C611 C607 1.400 . S
C611 C610 1.385 . S
C612 C610 1.478 . S
C612 C614 1.381 . S
C612 C618 1.383 . S
C613 C609 1.495 . S
C613 H619 0.959 . S
C613 H620 0.961 . S
C613 H621 0.960 . S
C614 C612 1.381 . S
C614 C615 1.394 . S
C614 H622 0.930 . S
C615 C614 1.394 . S
C615 C616 1.383 . S
C615 H623 0.929 . S
C616 C615 1.383 . S
C616 C617 1.377 . S
C617 H601 0.930 . S
C617 C616 1.377 . S
C617 C618 1.379 . S
C618 H602 0.931 . S
C618 C612 1.383 . S
C618 C617 1.379 . S
H619 C613 0.959 . S
H620 C613 0.961 . S
H621 C613 0.960 . S
H622 C614 0.930 . S
H623 C615 0.929 . S
H624 C632 0.929 . S
H625 C634 0.930 . S
H626 C636 0.930 . S
H627 C639 0.929 . S
H628 C642 0.930 . S
H629 C644 0.960 . S
H630 C644 0.960 . S
H631 C644 0.960 . S
C632 H624 0.929 . S
C632 C633 1.377 . S
C632 C634 1.384 . S
C633 C632 1.377 . S
C633 C639 1.390 . S
C634 H625 0.930 . S
C634 C632 1.384 . S
C634 C635 1.372 . S
C635 C634 1.372 . S
C635 C636 1.400 . S
C635 C640 1.490 . S
C636 H626 0.930 . S
C636 C635 1.400 . S
C636 C639 1.386 . S
H637 C653 0.930 . S
H638 C654 0.931 . S
C639 H627 0.929 . S
C639 C633 1.390 . S
C639 C636 1.386 . S
C640 C635 1.490 . S
C640 C642 1.395 . S
C640 C643 1.403 . S
H641 C647 0.930 . S
C642 H628 0.930 . S
C642 C640 1.395 . S
C642 C645 1.403 . S
C643 C640 1.403 . S
C643 C644 1.524 . S
C643 C647 1.400 . S
C644 H629 0.960 . S
C644 H630 0.960 . S
C644 H631 0.960 . S
C644 C643 1.524 . S
C645 C642 1.403 . S
C645 C646 1.392 . S
C645 C649 1.495 . S
C646 C645 1.392 . S
C646 C647 1.385 . S
C646 C648 1.478 . S
C647 H641 0.930 . S
C647 C643 1.400 . S
C647 C646 1.385 . S
C648 C646 1.478 . S
C648 C650 1.381 . S
C648 C654 1.383 . S
C649 C645 1.495 . S
C649 H655 0.959 . S
C649 H656 0.961 . S
C649 H657 0.960 . S
C650 C648 1.381 . S
C650 C651 1.394 . S
C650 H658 0.930 . S
C651 C650 1.394 . S
C651 C652 1.383 . S
C651 H659 0.929 . S
C652 C651 1.383 . S
C652 C653 1.377 . S
C653 H637 0.930 . S
C653 C652 1.377 . S
C653 C654 1.379 . S
C654 H638 0.931 . S
C654 C648 1.383 . S
C654 C653 1.379 . S
H655 C649 0.959 . S
H656 C649 0.961 . S
H657 C649 0.960 . S
H658 C650 0.930 . S
H659 C651 0.929 . S
H660 C668 0.929 . S
H661 C670 0.930 . S
H662 C672 0.930 . S
H663 C675 0.929 . S
H664 C678 0.930 . S
H665 C680 0.960 . S
H666 C680 0.960 . S
H667 C680 0.960 . S
C668 H660 0.929 . S
C668 C669 1.377 . S
C668 C670 1.384 . S
C669 C668 1.377 . S
C669 C675 1.390 . S
C670 H661 0.930 . S
C670 C668 1.384 . S
C670 C671 1.372 . S
C671 C670 1.372 . S
C671 C672 1.400 . S
C671 C676 1.490 . S
C672 H662 0.930 . S
C672 C671 1.400 . S
C672 C675 1.386 . S
H673 C689 0.930 . S
H674 C690 0.931 . S
C675 H663 0.929 . S
C675 C669 1.390 . S
C675 C672 1.386 . S
C676 C671 1.490 . S
C676 C678 1.395 . S
C676 C679 1.403 . S
H677 C683 0.930 . S
C678 H664 0.930 . S
C678 C676 1.395 . S
C678 C681 1.403 . S
C679 C676 1.403 . S
C679 C680 1.524 . S
C679 C683 1.400 . S
C680 H665 0.960 . S
C680 H666 0.960 . S
C680 H667 0.960 . S
C680 C679 1.524 . S
C681 C678 1.403 . S
C681 C682 1.392 . S
C681 C685 1.495 . S
C682 C681 1.392 . S
C682 C683 1.385 . S
C682 C684 1.478 . S
C683 H677 0.930 . S
C683 C679 1.400 . S
C683 C682 1.385 . S
C684 C682 1.478 . S
C684 C686 1.381 . S
C684 C690 1.383 . S
C685 C681 1.495 . S
C685 H691 0.959 . S
C685 H692 0.961 . S
C685 H693 0.960 . S
C686 C684 1.381 . S
C686 C687 1.394 . S
C686 H694 0.930 . S
C687 C686 1.394 . S
C687 C688 1.383 . S
C687 H695 0.929 . S
C688 C687 1.383 . S
C688 C689 1.377 . S
C689 H673 0.930 . S
C689 C688 1.377 . S
C689 C690 1.379 . S
C690 H674 0.931 . S
C690 C684 1.383 . S
C690 C689 1.379 . S
H691 C685 0.959 . S
H692 C685 0.961 . S
H693 C685 0.960 . S
H694 C686 0.930 . S
H695 C687 0.929 . S
H696 C704 0.929 . S
H697 C706 0.930 . S
H698 C708 0.930 . S
H699 C711 0.929 . S
H700 C714 0.930 . S
H701 C716 0.960 . S
H702 C716 0.960 . S
H703 C716 0.960 . S
C704 H696 0.929 . S
C704 C705 1.377 . S
C704 C706 1.384 . S
C705 C704 1.377 . S
C705 C711 1.390 . S
C706 H697 0.930 . S
C706 C704 1.384 . S
C706 C707 1.372 . S
C707 C706 1.372 . S
C707 C708 1.400 . S
C707 C712 1.490 . S
C708 H698 0.930 . S
C708 C707 1.400 . S
C708 C711 1.386 . S
H709 C725 0.930 . S
H710 C726 0.931 . S
C711 H699 0.929 . S
C711 C705 1.390 . S
C711 C708 1.386 . S
C712 C707 1.490 . S
C712 C714 1.395 . S
C712 C715 1.403 . S
H713 C719 0.930 . S
C714 H700 0.930 . S
C714 C712 1.395 . S
C714 C717 1.403 . S
C715 C712 1.403 . S
C715 C716 1.524 . S
C715 C719 1.400 . S
C716 H701 0.960 . S
C716 H702 0.960 . S
C716 H703 0.960 . S
C716 C715 1.524 . S
C717 C714 1.403 . S
C717 C718 1.392 . S
C717 C721 1.495 . S
C718 C717 1.392 . S
C718 C719 1.385 . S
C718 C720 1.478 . S
C719 H713 0.930 . S
C719 C715 1.400 . S
C719 C718 1.385 . S
C720 C718 1.478 . S
C720 C722 1.381 . S
C720 C726 1.383 . S
C721 C717 1.495 . S
C721 H727 0.959 . S
C721 H728 0.961 . S
C721 H729 0.960 . S
C722 C720 1.381 . S
C722 C723 1.394 . S
C722 H730 0.930 . S
C723 C722 1.394 . S
C723 C724 1.383 . S
C723 H731 0.929 . S
C724 C723 1.383 . S
C724 C725 1.377 . S
C725 H709 0.930 . S
C725 C724 1.377 . S
C725 C726 1.379 . S
C726 H710 0.931 . S
C726 C720 1.383 . S
C726 C725 1.379 . S
H727 C721 0.959 . S
H728 C721 0.961 . S
H729 C721 0.960 . S
H730 C722 0.930 . S
H731 C723 0.929 . S
H732 C740 0.929 . S
H733 C742 0.930 . S
H734 C744 0.930 . S
H735 C747 0.929 . S
H736 C750 0.930 . S
H737 C752 0.960 . S
H738 C752 0.960 . S
H739 C752 0.960 . S
C740 H732 0.929 . S
C740 C741 1.377 . S
C740 C742 1.384 . S
C741 C740 1.377 . S
C741 C747 1.390 . S
C742 H733 0.930 . S
C742 C740 1.384 . S
C742 C743 1.372 . S
C743 C742 1.372 . S
C743 C744 1.400 . S
C743 C748 1.490 . S
C744 H734 0.930 . S
C744 C743 1.400 . S
C744 C747 1.386 . S
H745 C761 0.930 . S
H746 C762 0.931 . S
C747 H735 0.929 . S
C747 C741 1.390 . S
C747 C744 1.386 . S
C748 C743 1.490 . S
C748 C750 1.395 . S
C748 C751 1.403 . S
H749 C755 0.930 . S
C750 H736 0.930 . S
C750 C748 1.395 . S
C750 C753 1.403 . S
C751 C748 1.403 . S
C751 C752 1.524 . S
C751 C755 1.400 . S
C752 H737 0.960 . S
C752 H738 0.960 . S
C752 H739 0.960 . S
C752 C751 1.524 . S
C753 C750 1.403 . S
C753 C754 1.392 . S
C753 C757 1.495 . S
C754 C753 1.392 . S
C754 C755 1.385 . S
C754 C756 1.478 . S
C755 H749 0.930 . S
C755 C751 1.400 . S
C755 C754 1.385 . S
C756 C754 1.478 . S
C756 C758 1.381 . S
C756 C762 1.383 . S
C757 C753 1.495 . S
C757 H763 0.959 . S
C757 H764 0.961 . S
C757 H765 0.960 . S
C758 C756 1.381 . S
C758 C759 1.394 . S
C758 H766 0.930 . S
C759 C758 1.394 . S
C759 C760 1.383 . S
C759 H767 0.929 . S
C760 C759 1.383 . S
C760 C761 1.377 . S
C761 H745 0.930 . S
C761 C760 1.377 . S
C761 C762 1.379 . S
C762 H746 0.931 . S
C762 C756 1.383 . S
C762 C761 1.379 . S
H763 C757 0.959 . S
H764 C757 0.961 . S
H765 C757 0.960 . S
H766 C758 0.930 . S
H767 C759 0.929 . S
H768 C776 0.929 . S
H769 C778 0.930 . S
H770 C780 0.930 . S
H771 C783 0.929 . S
H772 C786 0.930 . S
H773 C788 0.960 . S
H774 C788 0.960 . S
H775 C788 0.960 . S
C776 H768 0.929 . S
C776 C777 1.377 . S
C776 C778 1.384 . S
C777 C776 1.377 . S
C777 C783 1.390 . S
C778 H769 0.930 . S
C778 C776 1.384 . S
C778 C779 1.372 . S
C779 C778 1.372 . S
C779 C780 1.400 . S
C779 C784 1.490 . S
C780 H770 0.930 . S
C780 C779 1.400 . S
C780 C783 1.386 . S
H781 C797 0.930 . S
H782 C798 0.931 . S
C783 H771 0.929 . S
C783 C777 1.390 . S
C783 C780 1.386 . S
C784 C779 1.490 . S
C784 C786 1.395 . S
C784 C787 1.403 . S
H785 C791 0.930 . S
C786 H772 0.930 . S
C786 C784 1.395 . S
C786 C789 1.403 . S
C787 C784 1.403 . S
C787 C788 1.524 . S
C787 C791 1.400 . S
C788 H773 0.960 . S
C788 H774 0.960 . S
C788 H775 0.960 . S
C788 C787 1.524 . S
C789 C786 1.403 . S
C789 C790 1.392 . S
C789 C793 1.495 . S
C790 C789 1.392 . S
C790 C791 1.385 . S
C790 C792 1.478 . S
C791 H785 0.930 . S
C791 C787 1.400 . S
C791 C790 1.385 . S
C792 C790 1.478 . S
C792 C794 1.381 . S
C792 C798 1.383 . S
C793 C789 1.495 . S
C793 H799 0.959 . S
C793 H800 0.961 . S
C793 H801 0.960 . S
C794 C792 1.381 . S
C794 C795 1.394 . S
C794 H802 0.930 . S
C795 C794 1.394 . S
C795 C796 1.383 . S
C795 H803 0.929 . S
C796 C795 1.383 . S
C796 C797 1.377 . S
C797 H781 0.930 . S
C797 C796 1.377 . S
C797 C798 1.379 . S
C798 H782 0.931 . S
C798 C792 1.383 . S
C798 C797 1.379 . S
H799 C793 0.959 . S
H800 C793 0.961 . S
H801 C793 0.960 . S
H802 C794 0.930 . S
H803 C795 0.929 . S
H804 C812 0.929 . S
H805 C814 0.930 . S
H806 C816 0.930 . S
H807 C819 0.929 . S
H808 C822 0.930 . S
H809 C824 0.960 . S
H810 C824 0.960 . S
H811 C824 0.960 . S
C812 H804 0.929 . S
C812 C813 1.377 . S
C812 C814 1.384 . S
C813 C812 1.377 . S
C813 C819 1.390 . S
C814 H805 0.930 . S
C814 C812 1.384 . S
C814 C815 1.372 . S
C815 C814 1.372 . S
C815 C816 1.400 . S
C815 C820 1.490 . S
C816 H806 0.930 . S
C816 C815 1.400 . S
C816 C819 1.386 . S
H817 C833 0.930 . S
H818 C834 0.931 . S
C819 H807 0.929 . S
C819 C813 1.390 . S
C819 C816 1.386 . S
C820 C815 1.490 . S
C820 C822 1.395 . S
C820 C823 1.403 . S
H821 C827 0.930 . S
C822 H808 0.930 . S
C822 C820 1.395 . S
C822 C825 1.403 . S
C823 C820 1.403 . S
C823 C824 1.524 . S
C823 C827 1.400 . S
C824 H809 0.960 . S
C824 H810 0.960 . S
C824 H811 0.960 . S
C824 C823 1.524 . S
C825 C822 1.403 . S
C825 C826 1.392 . S
C825 C829 1.495 . S
C826 C825 1.392 . S
C826 C827 1.385 . S
C826 C828 1.478 . S
C827 H821 0.930 . S
C827 C823 1.400 . S
C827 C826 1.385 . S
C828 C826 1.478 . S
C828 C830 1.381 . S
C828 C834 1.383 . S
C829 C825 1.495 . S
C829 H835 0.959 . S
C829 H836 0.961 . S
C829 H837 0.960 . S
C830 C828 1.381 . S
C830 C831 1.394 . S
C830 H838 0.930 . S
C831 C830 1.394 . S
C831 C832 1.383 . S
C831 H839 0.929 . S
C832 C831 1.383 . S
C832 C833 1.377 . S
C833 H817 0.930 . S
C833 C832 1.377 . S
C833 C834 1.379 . S
C834 H818 0.931 . S
C834 C828 1.383 . S
C834 C833 1.379 . S
H835 C829 0.959 . S
H836 C829 0.961 . S
H837 C829 0.960 . S
H838 C830 0.930 . S
H839 C831 0.929 . S
H840 C848 0.929 . S
H841 C850 0.930 . S
H842 C852 0.930 . S
H843 C855 0.929 . S
H844 C858 0.930 . S
H845 C860 0.960 . S
H846 C860 0.960 . S
H847 C860 0.960 . S
C848 H840 0.929 . S
C848 C849 1.377 . S
C848 C850 1.384 1_565 S
C849 C848 1.377 . S
C849 C855 1.390 1_565 S
C850 H841 0.930 . S
C850 C848 1.384 1_545 S
C850 C851 1.372 . S
C851 C850 1.372 . S
C851 C852 1.400 . S
C851 C856 1.490 . S
C852 H842 0.930 . S
C852 C851 1.400 . S
C852 C855 1.386 . S
H853 C869 0.930 . S
H854 C870 0.931 . S
C855 H843 0.929 . S
C855 C849 1.390 1_545 S
C855 C852 1.386 . S
C856 C851 1.490 . S
C856 C858 1.395 . S
C856 C859 1.403 . S
H857 C863 0.930 . S
C858 H844 0.930 . S
C858 C856 1.395 . S
C858 C861 1.403 . S
C859 C856 1.403 . S
C859 C860 1.524 . S
C859 C863 1.400 . S
C860 H845 0.960 . S
C860 H846 0.960 . S
C860 H847 0.960 . S
C860 C859 1.524 . S
C861 C858 1.403 . S
C861 C862 1.392 . S
C861 C865 1.495 . S
C862 C861 1.392 . S
C862 C863 1.385 . S
C862 C864 1.478 . S
C863 H857 0.930 . S
C863 C859 1.400 . S
C863 C862 1.385 . S
C864 C862 1.478 . S
C864 C866 1.381 . S
C864 C870 1.383 . S
C865 C861 1.495 . S
C865 H871 0.959 . S
C865 H872 0.961 . S
C865 H873 0.960 . S
C866 C864 1.381 . S
C866 C867 1.394 . S
C866 H874 0.930 . S
C867 C866 1.394 . S
C867 C868 1.383 . S
C867 H875 0.929 . S
C868 C867 1.383 . S
C868 C869 1.377 . S
C869 H853 0.930 . S
C869 C868 1.377 . S
C869 C870 1.379 . S
C870 H854 0.931 . S
C870 C864 1.383 . S
C870 C869 1.379 . S
H871 C865 0.959 . S
H872 C865 0.961 . S
H873 C865 0.960 . S
H874 C866 0.930 . S
H875 C867 0.929 . S
H876 C884 0.929 . S
H877 C886 0.930 . S
H878 C888 0.930 . S
H879 C891 0.929 . S
H880 C894 0.930 . S
H881 C896 0.960 . S
H882 C896 0.960 . S
H883 C896 0.960 . S
C884 H876 0.929 . S
C884 C885 1.377 . S
C884 C886 1.384 1_545 S
C885 C884 1.377 . S
C885 C891 1.390 1_545 S
C886 H877 0.930 . S
C886 C884 1.384 1_565 S
C886 C887 1.372 . S
C887 C886 1.372 . S
C887 C888 1.400 . S
C887 C892 1.490 . S
C888 H878 0.930 . S
C888 C887 1.400 . S
C888 C891 1.386 . S
H889 C905 0.930 . S
H890 C906 0.931 . S
C891 H879 0.929 . S
C891 C885 1.390 1_565 S
C891 C888 1.386 . S
C892 C887 1.490 . S
C892 C894 1.395 . S
C892 C895 1.403 . S
H893 C899 0.930 . S
C894 H880 0.930 . S
C894 C892 1.395 . S
C894 C897 1.403 . S
C895 C892 1.403 . S
C895 C896 1.524 . S
C895 C899 1.400 . S
C896 H881 0.960 . S
C896 H882 0.960 . S
C896 H883 0.960 . S
C896 C895 1.524 . S
C897 C894 1.403 . S
C897 C898 1.392 . S
C897 C901 1.495 . S
C898 C897 1.392 . S
C898 C899 1.385 . S
C898 C900 1.478 . S
C899 H893 0.930 . S
C899 C895 1.400 . S
C899 C898 1.385 . S
C900 C898 1.478 . S
C900 C902 1.381 . S
C900 C906 1.383 . S
C901 C897 1.495 . S
C901 H907 0.959 . S
C901 H908 0.961 . S
C901 H909 0.960 . S
C902 C900 1.381 . S
C902 C903 1.394 . S
C902 H910 0.930 . S
C903 C902 1.394 . S
C903 C904 1.383 . S
C903 H911 0.929 . S
C904 C903 1.383 . S
C904 C905 1.377 . S
C905 H889 0.930 . S
C905 C904 1.377 . S
C905 C906 1.379 . S
C906 H890 0.931 . S
C906 C900 1.383 . S
C906 C905 1.379 . S
H907 C901 0.959 . S
H908 C901 0.961 . S
H909 C901 0.960 . S
H910 C902 0.930 . S
H911 C903 0.929 . S
H912 C920 0.929 . S
H913 C922 0.930 . S
H914 C924 0.930 . S
H915 C927 0.929 . S
H916 C930 0.930 . S
H917 C932 0.960 . S
H918 C932 0.960 . S
H919 C932 0.960 . S
C920 H912 0.929 . S
C920 C921 1.359 1_545 S
C920 C922 1.384 . S
C921 C920 1.359 1_565 S
C921 C927 1.395 . S
C922 H913 0.930 . S
C922 C920 1.384 . S
C922 C923 1.372 . S
C923 C922 1.372 . S
C923 C924 1.400 . S
C923 C928 1.490 . S
C924 H914 0.930 . S
C924 C923 1.400 . S
C924 C927 1.386 1_545 S
H925 C941 0.930 . S
H926 C942 0.931 . S
C927 H915 0.929 . S
C927 C921 1.395 . S
C927 C924 1.386 1_565 S
C928 C923 1.490 . S
C928 C930 1.395 . S
C928 C931 1.403 . S
H929 C935 0.930 . S
C930 H916 0.930 . S
C930 C928 1.395 . S
C930 C933 1.403 . S
C931 C928 1.403 . S
C931 C932 1.524 . S
C931 C935 1.400 . S
C932 H917 0.960 . S
C932 H918 0.960 . S
C932 H919 0.960 . S
C932 C931 1.524 . S
C933 C930 1.403 . S
C933 C934 1.392 . S
C933 C937 1.495 . S
C934 C933 1.392 . S
C934 C935 1.385 . S
C934 C936 1.478 . S
C935 H929 0.930 . S
C935 C931 1.400 . S
C935 C934 1.385 . S
C936 C934 1.478 . S
C936 C938 1.381 . S
C936 C942 1.383 . S
C937 C933 1.495 . S
C937 H943 0.959 . S
C937 H944 0.961 . S
C937 H945 0.960 . S
C938 C936 1.381 . S
C938 C939 1.394 . S
C938 H946 0.930 . S
C939 C938 1.394 . S
C939 C940 1.383 . S
C939 H947 0.929 . S
C940 C939 1.383 . S
C940 C941 1.377 . S
C941 H925 0.930 . S
C941 C940 1.377 . S
C941 C942 1.379 . S
C942 H926 0.931 . S
C942 C936 1.383 . S
C942 C941 1.379 . S
H943 C937 0.959 . S
H944 C937 0.961 . S
H945 C937 0.960 . S
H946 C938 0.930 . S
H947 C939 0.929 . S
H948 C956 0.929 . S
H949 C958 0.917 1_545 S
H950 C960 0.930 . S
H951 C963 0.929 . S
H952 C966 0.930 . S
H953 C968 0.960 . S
H954 C968 0.960 . S
H955 C968 0.960 . S
C956 H948 0.929 . S
C956 C957 1.377 . S
C956 C958 1.384 1_545 S
C957 C956 1.377 . S
C957 C963 1.390 1_545 S
C958 H949 0.917 1_565 S
C958 C956 1.384 1_565 S
C958 C959 1.372 . S
C959 C958 1.372 . S
C959 C960 1.400 . S
C959 C964 1.490 . S
C960 H950 0.930 . S
C960 C959 1.400 . S
C960 C963 1.386 . S
H961 C977 0.930 . S
H962 C978 0.931 . S
C963 H951 0.929 . S
C963 C957 1.390 1_565 S
C963 C960 1.386 . S
C964 C959 1.490 . S
C964 C966 1.395 . S
C964 C967 1.403 . S
H965 C971 0.930 . S
C966 H952 0.930 . S
C966 C964 1.395 . S
C966 C969 1.403 . S
C967 C964 1.403 . S
C967 C968 1.524 . S
C967 C971 1.400 . S
C968 H953 0.960 . S
C968 H954 0.960 . S
C968 H955 0.960 . S
C968 C967 1.524 . S
C969 C966 1.403 . S
C969 C970 1.392 . S
C969 C973 1.495 . S
C970 C969 1.392 . S
C970 C971 1.385 . S
C970 C972 1.478 . S
C971 H965 0.930 . S
C971 C967 1.400 . S
C971 C970 1.385 . S
C972 C970 1.478 . S
C972 C974 1.381 . S
C972 C978 1.383 . S
C973 C969 1.495 . S
C973 H979 0.959 . S
C973 H980 0.961 . S
C973 H981 0.960 . S
C974 C972 1.381 . S
C974 C975 1.394 . S
C974 H982 0.930 . S
C975 C974 1.394 . S
C975 C976 1.383 . S
C975 H983 0.929 . S
C976 C975 1.383 . S
C976 C977 1.377 . S
C977 H961 0.930 . S
C977 C976 1.377 . S
C977 C978 1.379 . S
C978 H962 0.931 . S
C978 C972 1.383 . S
C978 C977 1.379 . S
H979 C973 0.959 . S
H980 C973 0.961 . S
H981 C973 0.960 . S
H982 C974 0.930 . S
H983 C975 0.929 . S
H984 C992 0.929 . S
H985 C994 0.930 . S
H986 C996 0.930 . S
H987 C999 0.929 . S
H988 C1002 0.930 . S
H989 C1004 0.960 . S
H990 C1004 0.960 . S
H991 C1004 0.960 . S
C992 H984 0.929 . S
C992 C993 1.377 . S
C992 C994 1.384 . S
C993 C992 1.377 . S
C993 C999 1.390 . S
C994 H985 0.930 . S
C994 C992 1.384 . S
C994 C995 1.372 . S
C995 C994 1.372 . S
C995 C996 1.400 . S
C995 C1000 1.490 . S
C996 H986 0.930 . S
C996 C995 1.400 . S
C996 C999 1.386 . S
H997 C1013 0.930 . S
H998 C1014 0.931 . S
C999 H987 0.929 . S
C999 C993 1.390 . S
C999 C996 1.386 . S
C1000 C995 1.490 . S
C1000 C1002 1.395 . S
C1000 C1003 1.403 . S
H1001 C1007 0.930 . S
C1002 H988 0.930 . S
C1002 C1000 1.395 . S
C1002 C1005 1.403 . S
C1003 C1000 1.403 . S
C1003 C1004 1.524 . S
C1003 C1007 1.400 . S
C1004 H989 0.960 . S
C1004 H990 0.960 . S
C1004 H991 0.960 . S
C1004 C1003 1.524 . S
C1005 C1002 1.403 . S
C1005 C1006 1.392 . S
C1005 C1009 1.495 . S
C1006 C1005 1.392 . S
C1006 C1007 1.385 . S
C1006 C1008 1.478 . S
C1007 H1001 0.930 . S
C1007 C1003 1.400 . S
C1007 C1006 1.385 . S
C1008 C1006 1.478 . S
C1008 C1010 1.381 . S
C1008 C1014 1.383 . S
C1009 C1005 1.495 . S
C1009 H1015 0.959 . S
C1009 H1016 0.961 . S
C1009 H1017 0.960 . S
C1010 C1008 1.381 . S
C1010 C1011 1.394 . S
C1010 H1018 0.930 . S
C1011 C1010 1.394 . S
C1011 C1012 1.383 . S
C1011 H1019 0.929 . S
C1012 C1011 1.383 . S
C1012 C1013 1.377 . S
C1013 H997 0.930 . S
C1013 C1012 1.377 . S
C1013 C1014 1.379 . S
C1014 H998 0.931 . S
C1014 C1008 1.383 . S
C1014 C1013 1.379 . S
H1015 C1009 0.959 . S
H1016 C1009 0.961 . S
H1017 C1009 0.960 . S
H1018 C1010 0.930 . S
H1019 C1011 0.929 . S
H1020 C1028 0.929 . S
H1021 C1030 0.930 . S
H1022 C1032 0.930 . S
H1023 C1035 0.929 . S
H1024 C1038 0.930 . S
H1025 C1040 0.960 . S
H1026 C1040 0.960 . S
H1027 C1040 0.960 . S
C1028 H1020 0.929 . S
C1028 C1029 1.377 . S
C1028 C1030 1.384 . S
C1029 C1028 1.377 . S
C1029 C1035 1.390 . S
C1030 H1021 0.930 . S
C1030 C1028 1.384 . S
C1030 C1031 1.372 . S
C1031 C1030 1.372 . S
C1031 C1032 1.400 . S
C1031 C1036 1.490 . S
C1032 H1022 0.930 . S
C1032 C1031 1.400 . S
C1032 C1035 1.386 . S
H1033 C1049 0.930 . S
H1034 C1050 0.931 . S
C1035 H1023 0.929 . S
C1035 C1029 1.390 . S
C1035 C1032 1.386 . S
C1036 C1031 1.490 . S
C1036 C1038 1.395 . S
C1036 C1039 1.403 . S
H1037 C1043 0.930 . S
C1038 H1024 0.930 . S
C1038 C1036 1.395 . S
C1038 C1041 1.403 . S
C1039 C1036 1.403 . S
C1039 C1040 1.524 . S
C1039 C1043 1.400 . S
C1040 H1025 0.960 . S
C1040 H1026 0.960 . S
C1040 H1027 0.960 . S
C1040 C1039 1.524 . S
C1041 C1038 1.403 . S
C1041 C1042 1.392 . S
C1041 C1045 1.495 . S
C1042 C1041 1.392 . S
C1042 C1043 1.385 . S
C1042 C1044 1.478 . S
C1043 H1037 0.930 . S
C1043 C1039 1.400 . S
C1043 C1042 1.385 . S
C1044 C1042 1.478 . S
C1044 C1046 1.381 . S
C1044 C1050 1.383 . S
C1045 C1041 1.495 . S
C1045 H1051 0.959 . S
C1045 H1052 0.961 . S
C1045 H1053 0.960 . S
C1046 C1044 1.381 . S
C1046 C1047 1.394 . S
C1046 H1054 0.930 . S
C1047 C1046 1.394 . S
C1047 C1048 1.383 . S
C1047 H1055 0.929 . S
C1048 C1047 1.383 . S
C1048 C1049 1.377 . S
C1049 H1033 0.930 . S
C1049 C1048 1.377 . S
C1049 C1050 1.379 . S
C1050 H1034 0.931 . S
C1050 C1044 1.383 . S
C1050 C1049 1.379 . S
H1051 C1045 0.959 . S
H1052 C1045 0.961 . S
H1053 C1045 0.960 . S
H1054 C1046 0.930 . S
H1055 C1047 0.929 . S
H1056 C1064 0.929 . S
H1057 C1066 0.930 . S
H1058 C1068 0.930 . S
H1059 C1071 0.929 . S
H1060 C1074 0.930 . S
H1061 C1076 0.960 . S
H1062 C1076 0.960 . S
H1063 C1076 0.960 . S
C1064 H1056 0.929 . S
C1064 C1065 1.377 . S
C1064 C1066 1.384 . S
C1065 C1064 1.377 . S
C1065 C1071 1.390 . S
C1066 H1057 0.930 . S
C1066 C1064 1.384 . S
C1066 C1067 1.372 . S
C1067 C1066 1.372 . S
C1067 C1068 1.400 . S
C1067 C1072 1.490 . S
C1068 H1058 0.930 . S
C1068 C1067 1.400 . S
C1068 C1071 1.386 . S
H1069 C1085 0.930 . S
H1070 C1086 0.931 . S
C1071 H1059 0.929 . S
C1071 C1065 1.390 . S
C1071 C1068 1.386 . S
C1072 C1067 1.490 . S
C1072 C1074 1.395 . S
C1072 C1075 1.403 . S
H1073 C1079 0.930 . S
C1074 H1060 0.930 . S
C1074 C1072 1.395 . S
C1074 C1077 1.403 . S
C1075 C1072 1.403 . S
C1075 C1076 1.524 . S
C1075 C1079 1.400 . S
C1076 H1061 0.960 . S
C1076 H1062 0.960 . S
C1076 H1063 0.960 . S
C1076 C1075 1.524 . S
C1077 C1074 1.403 . S
C1077 C1078 1.392 . S
C1077 C1081 1.495 . S
C1078 C1077 1.392 . S
C1078 C1079 1.385 . S
C1078 C1080 1.478 . S
C1079 H1073 0.930 . S
C1079 C1075 1.400 . S
C1079 C1078 1.385 . S
C1080 C1078 1.478 . S
C1080 C1082 1.381 . S
C1080 C1086 1.383 . S
C1081 C1077 1.495 . S
C1081 H1087 0.959 . S
C1081 H1088 0.961 . S
C1081 H1089 0.960 . S
C1082 C1080 1.381 . S
C1082 C1083 1.394 . S
C1082 H1090 0.930 . S
C1083 C1082 1.394 . S
C1083 C1084 1.383 . S
C1083 H1091 0.929 . S
C1084 C1083 1.383 . S
C1084 C1085 1.377 . S
C1085 H1069 0.930 . S
C1085 C1084 1.377 . S
C1085 C1086 1.379 . S
C1086 H1070 0.931 . S
C1086 C1080 1.383 . S
C1086 C1085 1.379 . S
H1087 C1081 0.959 . S
H1088 C1081 0.961 . S
H1089 C1081 0.960 . S
H1090 C1082 0.930 . S
H1091 C1083 0.929 . S
H1092 C1100 0.929 . S
H1093 C1102 0.930 . S
H1094 C1104 0.930 . S
H1095 C1107 0.929 . S
H1096 C1110 0.930 . S
H1097 C1112 0.960 . S
H1098 C1112 0.960 . S
H1099 C1112 0.960 . S
C1100 H1092 0.929 . S
C1100 C1101 1.377 . S
C1100 C1102 1.384 . S
C1101 C1100 1.377 . S
C1101 C1107 1.390 . S
C1102 H1093 0.930 . S
C1102 C1100 1.384 . S
C1102 C1103 1.372 . S
C1103 C1102 1.372 . S
C1103 C1104 1.400 . S
C1103 C1108 1.490 . S
C1104 H1094 0.930 . S
C1104 C1103 1.400 . S
C1104 C1107 1.386 . S
H1105 C1121 0.930 . S
H1106 C1122 0.931 . S
C1107 H1095 0.929 . S
C1107 C1101 1.390 . S
C1107 C1104 1.386 . S
C1108 C1103 1.490 . S
C1108 C1110 1.395 . S
C1108 C1111 1.403 . S
H1109 C1115 0.930 . S
C1110 H1096 0.930 . S
C1110 C1108 1.395 . S
C1110 C1113 1.403 . S
C1111 C1108 1.403 . S
C1111 C1112 1.524 . S
C1111 C1115 1.400 . S
C1112 H1097 0.960 . S
C1112 H1098 0.960 . S
C1112 H1099 0.960 . S
C1112 C1111 1.524 . S
C1113 C1110 1.403 . S
C1113 C1114 1.392 . S
C1113 C1117 1.495 . S
C1114 C1113 1.392 . S
C1114 C1115 1.385 . S
C1114 C1116 1.478 . S
C1115 H1109 0.930 . S
C1115 C1111 1.400 . S
C1115 C1114 1.385 . S
C1116 C1114 1.478 . S
C1116 C1118 1.381 . S
C1116 C1122 1.383 . S
C1117 C1113 1.495 . S
C1117 H1123 0.959 . S
C1117 H1124 0.961 . S
C1117 H1125 0.960 . S
C1118 C1116 1.381 . S
C1118 C1119 1.394 . S
C1118 H1126 0.930 . S
C1119 C1118 1.394 . S
C1119 C1120 1.383 . S
C1119 H1127 0.929 . S
C1120 C1119 1.383 . S
C1120 C1121 1.377 . S
C1121 H1105 0.930 . S
C1121 C1120 1.377 . S
C1121 C1122 1.379 . S
C1122 H1106 0.931 . S
C1122 C1116 1.383 . S
C1122 C1121 1.379 . S
H1123 C1117 0.959 . S
H1124 C1117 0.961 . S
H1125 C1117 0.960 . S
H1126 C1118 0.930 . S
H1127 C1119 0.929 . S
H1128 C1136 0.929 . S
H1129 C1138 0.930 . S
H1130 C1140 0.930 . S
H1131 C1143 0.929 . S
H1132 C1146 0.930 . S
H1133 C1148 0.960 . S
H1134 C1148 0.960 . S
H1135 C1148 0.960 . S
C1136 H1128 0.929 . S
C1136 C1137 1.377 . S
C1136 C1138 1.384 . S
C1137 C1136 1.377 . S
C1137 C1143 1.390 . S
C1138 H1129 0.930 . S
C1138 C1136 1.384 . S
C1138 C1139 1.372 . S
C1139 C1138 1.372 . S
C1139 C1140 1.400 . S
C1139 C1144 1.490 . S
C1140 H1130 0.930 . S
C1140 C1139 1.400 . S
C1140 C1143 1.386 . S
H1141 C1157 0.930 . S
H1142 C1158 0.931 . S
C1143 H1131 0.929 . S
C1143 C1137 1.390 . S
C1143 C1140 1.386 . S
C1144 C1139 1.490 . S
C1144 C1146 1.395 . S
C1144 C1147 1.403 . S
H1145 C1151 0.930 . S
C1146 H1132 0.930 . S
C1146 C1144 1.395 . S
C1146 C1149 1.403 . S
C1147 C1144 1.403 . S
C1147 C1148 1.524 . S
C1147 C1151 1.400 . S
C1148 H1133 0.960 . S
C1148 H1134 0.960 . S
C1148 H1135 0.960 . S
C1148 C1147 1.524 . S
C1149 C1146 1.403 . S
C1149 C1150 1.392 . S
C1149 C1153 1.495 . S
C1150 C1149 1.392 . S
C1150 C1151 1.385 . S
C1150 C1152 1.478 . S
C1151 H1145 0.930 . S
C1151 C1147 1.400 . S
C1151 C1150 1.385 . S
C1152 C1150 1.478 . S
C1152 C1154 1.381 . S
C1152 C1158 1.383 . S
C1153 C1149 1.495 . S
C1153 H1159 0.959 . S
C1153 H1160 0.961 . S
C1153 H1161 0.960 . S
C1154 C1152 1.381 . S
C1154 C1155 1.394 . S
C1154 H1162 0.930 . S
C1155 C1154 1.394 . S
C1155 C1156 1.383 . S
C1155 H1163 0.929 . S
C1156 C1155 1.383 . S
C1156 C1157 1.377 . S
C1157 H1141 0.930 . S
C1157 C1156 1.377 . S
C1157 C1158 1.379 . S
C1158 H1142 0.931 . S
C1158 C1152 1.383 . S
C1158 C1157 1.379 . S
H1159 C1153 0.959 . S
H1160 C1153 0.961 . S
H1161 C1153 0.960 . S
H1162 C1154 0.930 . S
H1163 C1155 0.929 . S
H1164 C1172 0.929 . S
H1165 C1174 0.930 . S
H1166 C1176 0.930 . S
H1167 C1179 0.929 . S
H1168 C1182 0.930 . S
H1169 C1184 0.960 . S
H1170 C1184 0.960 . S
H1171 C1184 0.960 . S
C1172 H1164 0.929 . S
C1172 C1173 1.377 . S
C1172 C1174 1.384 . S
C1173 C1172 1.377 . S
C1173 C1179 1.390 . S
C1174 H1165 0.930 . S
C1174 C1172 1.384 . S
C1174 C1175 1.372 . S
C1175 C1174 1.372 . S
C1175 C1176 1.400 . S
C1175 C1180 1.490 . S
C1176 H1166 0.930 . S
C1176 C1175 1.400 . S
C1176 C1179 1.386 . S
H1177 C1193 0.930 . S
H1178 C1194 0.931 . S
C1179 H1167 0.929 . S
C1179 C1173 1.390 . S
C1179 C1176 1.386 . S
C1180 C1175 1.490 . S
C1180 C1182 1.395 . S
C1180 C1183 1.403 . S
H1181 C1187 0.930 . S
C1182 H1168 0.930 . S
C1182 C1180 1.395 . S
C1182 C1185 1.403 . S
C1183 C1180 1.403 . S
C1183 C1184 1.524 . S
C1183 C1187 1.400 . S
C1184 H1169 0.960 . S
C1184 H1170 0.960 . S
C1184 H1171 0.960 . S
C1184 C1183 1.524 . S
C1185 C1182 1.403 . S
C1185 C1186 1.392 . S
C1185 C1189 1.495 . S
C1186 C1185 1.392 . S
C1186 C1187 1.385 . S
C1186 C1188 1.478 . S
C1187 H1181 0.930 . S
C1187 C1183 1.400 . S
C1187 C1186 1.385 . S
C1188 C1186 1.478 . S
C1188 C1190 1.381 . S
C1188 C1194 1.383 . S
C1189 C1185 1.495 . S
C1189 H1195 0.959 . S
C1189 H1196 0.961 . S
C1189 H1197 0.960 . S
C1190 C1188 1.381 . S
C1190 C1191 1.394 . S
C1190 H1198 0.930 . S
C1191 C1190 1.394 . S
C1191 C1192 1.383 . S
C1191 H1199 0.929 . S
C1192 C1191 1.383 . S
C1192 C1193 1.377 . S
C1193 H1177 0.930 . S
C1193 C1192 1.377 . S
C1193 C1194 1.379 . S
C1194 H1178 0.931 . S
C1194 C1188 1.383 . S
C1194 C1193 1.379 . S
H1195 C1189 0.959 . S
H1196 C1189 0.961 . S
H1197 C1189 0.960 . S
H1198 C1190 0.930 . S
H1199 C1191 0.929 . S
H1200 C1208 0.929 . S
H1201 C1210 0.930 . S
H1202 C1212 0.930 . S
H1203 C1215 0.929 . S
H1204 C1218 0.930 . S
H1205 C1220 0.960 . S
H1206 C1220 0.960 . S
H1207 C1220 0.960 . S
C1208 H1200 0.929 . S
C1208 C1209 1.377 . S
C1208 C1210 1.384 . S
C1209 C1208 1.377 . S
C1209 C1215 1.390 . S
C1210 H1201 0.930 . S
C1210 C1208 1.384 . S
C1210 C1211 1.372 . S
C1211 C1210 1.372 . S
C1211 C1212 1.400 . S
C1211 C1216 1.490 . S
C1212 H1202 0.930 . S
C1212 C1211 1.400 . S
C1212 C1215 1.386 . S
H1213 C1229 0.930 . S
H1214 C1230 0.931 . S
C1215 H1203 0.929 . S
C1215 C1209 1.390 . S
C1215 C1212 1.386 . S
C1216 C1211 1.490 . S
C1216 C1218 1.395 . S
C1216 C1219 1.403 . S
H1217 C1223 0.930 . S
C1218 H1204 0.930 . S
C1218 C1216 1.395 . S
C1218 C1221 1.403 . S
C1219 C1216 1.403 . S
C1219 C1220 1.524 . S
C1219 C1223 1.400 . S
C1220 H1205 0.960 . S
C1220 H1206 0.960 . S
C1220 H1207 0.960 . S
C1220 C1219 1.524 . S
C1221 C1218 1.403 . S
C1221 C1222 1.392 . S
C1221 C1225 1.495 . S
C1222 C1221 1.392 . S
C1222 C1223 1.385 . S
C1222 C1224 1.478 . S
C1223 H1217 0.930 . S
C1223 C1219 1.400 . S
C1223 C1222 1.385 . S
C1224 C1222 1.478 . S
C1224 C1226 1.381 . S
C1224 C1230 1.383 . S
C1225 C1221 1.495 . S
C1225 H1231 0.959 . S
C1225 H1232 0.961 . S
C1225 H1233 0.960 . S
C1226 C1224 1.381 . S
C1226 C1227 1.394 . S
C1226 H1234 0.930 . S
C1227 C1226 1.394 . S
C1227 C1228 1.383 . S
C1227 H1235 0.929 . S
C1228 C1227 1.383 . S
C1228 C1229 1.377 . S
C1229 H1213 0.930 . S
C1229 C1228 1.377 . S
C1229 C1230 1.379 . S
C1230 H1214 0.931 . S
C1230 C1224 1.383 . S
C1230 C1229 1.379 . S
H1231 C1225 0.959 . S
H1232 C1225 0.961 . S
H1233 C1225 0.960 . S
H1234 C1226 0.930 . S
H1235 C1227 0.929 . S
H1236 C1244 0.929 . S
H1237 C1246 0.930 . S
H1238 C1248 0.930 . S
H1239 C1251 0.929 . S
H1240 C1254 0.930 . S
H1241 C1256 0.960 . S
H1242 C1256 0.960 . S
H1243 C1256 0.960 . S
C1244 H1236 0.929 . S
C1244 C1245 1.377 . S
C1244 C1246 1.384 . S
C1245 C1244 1.377 . S
C1245 C1251 1.390 . S
C1246 H1237 0.930 . S
C1246 C1244 1.384 . S
C1246 C1247 1.372 . S
C1247 C1246 1.372 . S
C1247 C1248 1.400 . S
C1247 C1252 1.490 . S
C1248 H1238 0.930 . S
C1248 C1247 1.400 . S
C1248 C1251 1.386 . S
H1249 C1265 0.930 . S
H1250 C1266 0.931 . S
C1251 H1239 0.929 . S
C1251 C1245 1.390 . S
C1251 C1248 1.386 . S
C1252 C1247 1.490 . S
C1252 C1254 1.395 . S
C1252 C1255 1.403 . S
H1253 C1259 0.930 . S
C1254 H1240 0.930 . S
C1254 C1252 1.395 . S
C1254 C1257 1.403 . S
C1255 C1252 1.403 . S
C1255 C1256 1.524 . S
C1255 C1259 1.400 . S
C1256 H1241 0.960 . S
C1256 H1242 0.960 . S
C1256 H1243 0.960 . S
C1256 C1255 1.524 . S
C1257 C1254 1.403 . S
C1257 C1258 1.392 . S
C1257 C1261 1.495 . S
C1258 C1257 1.392 . S
C1258 C1259 1.385 . S
C1258 C1260 1.478 . S
C1259 H1253 0.930 . S
C1259 C1255 1.400 . S
C1259 C1258 1.385 . S
C1260 C1258 1.478 . S
C1260 C1262 1.381 . S
C1260 C1266 1.383 . S
C1261 C1257 1.495 . S
C1261 H1267 0.959 . S
C1261 H1268 0.961 . S
C1261 H1269 0.960 . S
C1262 C1260 1.381 . S
C1262 C1263 1.394 . S
C1262 H1270 0.930 . S
C1263 C1262 1.394 . S
C1263 C1264 1.383 . S
C1263 H1271 0.929 . S
C1264 C1263 1.383 . S
C1264 C1265 1.377 . S
C1265 H1249 0.930 . S
C1265 C1264 1.377 . S
C1265 C1266 1.379 . S
C1266 H1250 0.931 . S
C1266 C1260 1.383 . S
C1266 C1265 1.379 . S
H1267 C1261 0.959 . S
H1268 C1261 0.961 . S
H1269 C1261 0.960 . S
H1270 C1262 0.930 . S
H1271 C1263 0.929 . S
C417 C15 1.536 . S
C436 C363 1.513 . S
C472 C327 1.565 . S
C453 C55 1.581 . S
C508 C350 1.494 . S
C489 C95 1.508 . S
C544 C338 1.568 . S
C525 C135 1.565 . S
C580 C407 1.531 . S
C561 C175 1.536 . S
C616 C371 1.584 . S
C597 C215 1.584 . S
C633 C255 1.509 . S
C652 C394 1.516 . S
C688 C382 1.570 . S
C669 C295 1.564 . S
C705 C2 1.482 . S
C724 C404 1.476 . S
C760 C374 1.561 . S
C741 C61 1.507 . S
C777 C82 1.486 . S
C796 C393 1.525 . S
C813 C141 1.587 . S
C832 C379 1.599 . S
C868 C360 1.482 . S
C849 C162 1.483 . S
C885 C221 1.503 . S
C904 C330 1.559 . S
C940 C349 1.525 . S
C921 C242 1.502 . S
C976 C335 1.583 . S
C957 C301 1.591 . S
C1012 C385 1.522 . S
C993 C21 1.521 . S
C1048 C401 1.531 . S
C1029 C42 1.495 . S
C1065 C101 1.437 . S
C1084 C372 1.478 . S
C1120 C396 1.489 . S
C1101 C122 1.489 . S
C1156 C341 1.509 . S
C1137 C181 1.524 . S
C1173 C202 1.498 . S
C1192 C357 1.516 . S
C1209 C261 1.438 . S
C1228 C328 1.478 . S
C1245 C282 1.490 . S
C1264 C352 1.482 . S
