# Generated by pormake.
# Topology ibd, (4,6)-cn, num edge types: 1
# Building blocks:
#     Node 0, Type 0, BuildingBlock: GALJAG_clean_sbu_0, # of connection points: 4
#     Node 1, Type 0, BuildingBlock: GALJAG_clean_sbu_0, # of connection points: 4
#     Node 2, Type 0, BuildingBlock: GALJAG_clean_sbu_0, # of connection points: 4
#     Node 3, Type 0, BuildingBlock: GALJAG_clean_sbu_0, # of connection points: 4
#     Node 4, Type 0, BuildingBlock: GALJAG_clean_sbu_0, # of connection points: 4
#     Node 5, Type 0, BuildingBlock: GALJAG_clean_sbu_0, # of connection points: 4
#     Node 6, Type 0, BuildingBlock: GALJAG_clean_sbu_0, # of connection points: 4
#     Node 7, Type 0, BuildingBlock: GALJAG_clean_sbu_0, # of connection points: 4
#     Node 8, Type 0, BuildingBlock: GALJAG_clean_sbu_0, # of connection points: 4
#     Node 9, Type 0, BuildingBlock: GALJAG_clean_sbu_0, # of connection points: 4
#     Node 10, Type 0, BuildingBlock: GALJAG_clean_sbu_0, # of connection points: 4
#     Node 11, Type 0, BuildingBlock: GALJAG_clean_sbu_0, # of connection points: 4
#     Node 12, Type 0, BuildingBlock: GALJAG_clean_sbu_0, # of connection points: 4
#     Node 13, Type 0, BuildingBlock: GALJAG_clean_sbu_0, # of connection points: 4
#     Node 14, Type 0, BuildingBlock: GALJAG_clean_sbu_0, # of connection points: 4
#     Node 15, Type 0, BuildingBlock: GALJAG_clean_sbu_0, # of connection points: 4
#     Node 16, Type 0, BuildingBlock: GALJAG_clean_sbu_0, # of connection points: 4
#     Node 17, Type 0, BuildingBlock: GALJAG_clean_sbu_0, # of connection points: 4
#     Node 18, Type 0, BuildingBlock: GALJAG_clean_sbu_0, # of connection points: 4
#     Node 19, Type 0, BuildingBlock: GALJAG_clean_sbu_0, # of connection points: 4
#     Node 20, Type 0, BuildingBlock: GALJAG_clean_sbu_0, # of connection points: 4
#     Node 21, Type 0, BuildingBlock: GALJAG_clean_sbu_0, # of connection points: 4
#     Node 22, Type 0, BuildingBlock: GALJAG_clean_sbu_0, # of connection points: 4
#     Node 23, Type 0, BuildingBlock: GALJAG_clean_sbu_0, # of connection points: 4
#     Node 24, Type 1, BuildingBlock: OJICUG_clean_sbu_0, # of connection points: 6
#     Node 25, Type 1, BuildingBlock: OJICUG_clean_sbu_0, # of connection points: 6
#     Node 26, Type 1, BuildingBlock: OJICUG_clean_sbu_0, # of connection points: 6
#     Node 27, Type 1, BuildingBlock: OJICUG_clean_sbu_0, # of connection points: 6
#     Node 28, Type 1, BuildingBlock: OJICUG_clean_sbu_0, # of connection points: 6
#     Node 29, Type 1, BuildingBlock: OJICUG_clean_sbu_0, # of connection points: 6
#     Node 30, Type 1, BuildingBlock: OJICUG_clean_sbu_0, # of connection points: 6
#     Node 31, Type 1, BuildingBlock: OJICUG_clean_sbu_0, # of connection points: 6
#     Node 32, Type 1, BuildingBlock: OJICUG_clean_sbu_0, # of connection points: 6
#     Node 33, Type 1, BuildingBlock: OJICUG_clean_sbu_0, # of connection points: 6
#     Node 34, Type 1, BuildingBlock: OJICUG_clean_sbu_0, # of connection points: 6
#     Node 35, Type 1, BuildingBlock: OJICUG_clean_sbu_0, # of connection points: 6
#     Node 36, Type 1, BuildingBlock: OJICUG_clean_sbu_0, # of connection points: 6
#     Node 37, Type 1, BuildingBlock: OJICUG_clean_sbu_0, # of connection points: 6
#     Node 38, Type 1, BuildingBlock: OJICUG_clean_sbu_0, # of connection points: 6
#     Node 39, Type 1, BuildingBlock: OJICUG_clean_sbu_0, # of connection points: 6
#     Edge 40, Type (0, 1), BuildingBlock: CIFDUS_clean_linker_0, # of connection points: 2
#     Edge 41, Type (0, 1), BuildingBlock: CIFDUS_clean_linker_0, # of connection points: 2
#     Edge 42, Type (0, 1), BuildingBlock: CIFDUS_clean_linker_0, # of connection points: 2
#     Edge 43, Type (0, 1), BuildingBlock: CIFDUS_clean_linker_0, # of connection points: 2
#     Edge 44, Type (0, 1), BuildingBlock: CIFDUS_clean_linker_0, # of connection points: 2
#     Edge 45, Type (0, 1), BuildingBlock: CIFDUS_clean_linker_0, # of connection points: 2
#     Edge 46, Type (0, 1), BuildingBlock: CIFDUS_clean_linker_0, # of connection points: 2
#     Edge 47, Type (0, 1), BuildingBlock: CIFDUS_clean_linker_0, # of connection points: 2
#     Edge 48, Type (0, 1), BuildingBlock: CIFDUS_clean_linker_0, # of connection points: 2
#     Edge 49, Type (0, 1), BuildingBlock: CIFDUS_clean_linker_0, # of connection points: 2
#     Edge 50, Type (0, 1), BuildingBlock: CIFDUS_clean_linker_0, # of connection points: 2
#     Edge 51, Type (0, 1), BuildingBlock: CIFDUS_clean_linker_0, # of connection points: 2
#     Edge 52, Type (0, 1), BuildingBlock: CIFDUS_clean_linker_0, # of connection points: 2
#     Edge 53, Type (0, 1), BuildingBlock: CIFDUS_clean_linker_0, # of connection points: 2
#     Edge 54, Type (0, 1), BuildingBlock: CIFDUS_clean_linker_0, # of connection points: 2
#     Edge 55, Type (0, 1), BuildingBlock: CIFDUS_clean_linker_0, # of connection points: 2
#     Edge 56, Type (0, 1), BuildingBlock: CIFDUS_clean_linker_0, # of connection points: 2
#     Edge 57, Type (0, 1), BuildingBlock: CIFDUS_clean_linker_0, # of connection points: 2
#     Edge 58, Type (0, 1), BuildingBlock: CIFDUS_clean_linker_0, # of connection points: 2
#     Edge 59, Type (0, 1), BuildingBlock: CIFDUS_clean_linker_0, # of connection points: 2
#     Edge 60, Type (0, 1), BuildingBlock: CIFDUS_clean_linker_0, # of connection points: 2
#     Edge 61, Type (0, 1), BuildingBlock: CIFDUS_clean_linker_0, # of connection points: 2
#     Edge 62, Type (0, 1), BuildingBlock: CIFDUS_clean_linker_0, # of connection points: 2
#     Edge 63, Type (0, 1), BuildingBlock: CIFDUS_clean_linker_0, # of connection points: 2
#     Edge 64, Type (0, 1), BuildingBlock: CIFDUS_clean_linker_0, # of connection points: 2
#     Edge 65, Type (0, 1), BuildingBlock: CIFDUS_clean_linker_0, # of connection points: 2
#     Edge 66, Type (0, 1), BuildingBlock: CIFDUS_clean_linker_0, # of connection points: 2
#     Edge 67, Type (0, 1), BuildingBlock: CIFDUS_clean_linker_0, # of connection points: 2
#     Edge 68, Type (0, 1), BuildingBlock: CIFDUS_clean_linker_0, # of connection points: 2
#     Edge 69, Type (0, 1), BuildingBlock: CIFDUS_clean_linker_0, # of connection points: 2
#     Edge 70, Type (0, 1), BuildingBlock: CIFDUS_clean_linker_0, # of connection points: 2
#     Edge 71, Type (0, 1), BuildingBlock: CIFDUS_clean_linker_0, # of connection points: 2
#     Edge 72, Type (0, 1), BuildingBlock: CIFDUS_clean_linker_0, # of connection points: 2
#     Edge 73, Type (0, 1), BuildingBlock: CIFDUS_clean_linker_0, # of connection points: 2
#     Edge 74, Type (0, 1), BuildingBlock: CIFDUS_clean_linker_0, # of connection points: 2
#     Edge 75, Type (0, 1), BuildingBlock: CIFDUS_clean_linker_0, # of connection points: 2
#     Edge 76, Type (0, 1), BuildingBlock: CIFDUS_clean_linker_0, # of connection points: 2
#     Edge 77, Type (0, 1), BuildingBlock: CIFDUS_clean_linker_0, # of connection points: 2
#     Edge 78, Type (0, 1), BuildingBlock: CIFDUS_clean_linker_0, # of connection points: 2
#     Edge 79, Type (0, 1), BuildingBlock: CIFDUS_clean_linker_0, # of connection points: 2
#     Edge 80, Type (0, 1), BuildingBlock: CIFDUS_clean_linker_0, # of connection points: 2
#     Edge 81, Type (0, 1), BuildingBlock: CIFDUS_clean_linker_0, # of connection points: 2
#     Edge 82, Type (0, 1), BuildingBlock: CIFDUS_clean_linker_0, # of connection points: 2
#     Edge 83, Type (0, 1), BuildingBlock: CIFDUS_clean_linker_0, # of connection points: 2
#     Edge 84, Type (0, 1), BuildingBlock: CIFDUS_clean_linker_0, # of connection points: 2
#     Edge 85, Type (0, 1), BuildingBlock: CIFDUS_clean_linker_0, # of connection points: 2
#     Edge 86, Type (0, 1), BuildingBlock: CIFDUS_clean_linker_0, # of connection points: 2
#     Edge 87, Type (0, 1), BuildingBlock: CIFDUS_clean_linker_0, # of connection points: 2
#     Edge 88, Type (0, 1), BuildingBlock: CIFDUS_clean_linker_0, # of connection points: 2
#     Edge 89, Type (0, 1), BuildingBlock: CIFDUS_clean_linker_0, # of connection points: 2
#     Edge 90, Type (0, 1), BuildingBlock: CIFDUS_clean_linker_0, # of connection points: 2
#     Edge 91, Type (0, 1), BuildingBlock: CIFDUS_clean_linker_0, # of connection points: 2
#     Edge 92, Type (0, 1), BuildingBlock: CIFDUS_clean_linker_0, # of connection points: 2
#     Edge 93, Type (0, 1), BuildingBlock: CIFDUS_clean_linker_0, # of connection points: 2
#     Edge 94, Type (0, 1), BuildingBlock: CIFDUS_clean_linker_0, # of connection points: 2
#     Edge 95, Type (0, 1), BuildingBlock: CIFDUS_clean_linker_0, # of connection points: 2
#     Edge 96, Type (0, 1), BuildingBlock: CIFDUS_clean_linker_0, # of connection points: 2
#     Edge 97, Type (0, 1), BuildingBlock: CIFDUS_clean_linker_0, # of connection points: 2
#     Edge 98, Type (0, 1), BuildingBlock: CIFDUS_clean_linker_0, # of connection points: 2
#     Edge 99, Type (0, 1), BuildingBlock: CIFDUS_clean_linker_0, # of connection points: 2
#     Edge 100, Type (0, 1), BuildingBlock: CIFDUS_clean_linker_0, # of connection points: 2
#     Edge 101, Type (0, 1), BuildingBlock: CIFDUS_clean_linker_0, # of connection points: 2
#     Edge 102, Type (0, 1), BuildingBlock: CIFDUS_clean_linker_0, # of connection points: 2
#     Edge 103, Type (0, 1), BuildingBlock: CIFDUS_clean_linker_0, # of connection points: 2
#     Edge 104, Type (0, 1), BuildingBlock: CIFDUS_clean_linker_0, # of connection points: 2
#     Edge 105, Type (0, 1), BuildingBlock: CIFDUS_clean_linker_0, # of connection points: 2
#     Edge 106, Type (0, 1), BuildingBlock: CIFDUS_clean_linker_0, # of connection points: 2
#     Edge 107, Type (0, 1), BuildingBlock: CIFDUS_clean_linker_0, # of connection points: 2
#     Edge 108, Type (0, 1), BuildingBlock: CIFDUS_clean_linker_0, # of connection points: 2
#     Edge 109, Type (0, 1), BuildingBlock: CIFDUS_clean_linker_0, # of connection points: 2
#     Edge 110, Type (0, 1), BuildingBlock: CIFDUS_clean_linker_0, # of connection points: 2
#     Edge 111, Type (0, 1), BuildingBlock: CIFDUS_clean_linker_0, # of connection points: 2
#     Edge 112, Type (0, 1), BuildingBlock: CIFDUS_clean_linker_0, # of connection points: 2
#     Edge 113, Type (0, 1), BuildingBlock: CIFDUS_clean_linker_0, # of connection points: 2
#     Edge 114, Type (0, 1), BuildingBlock: CIFDUS_clean_linker_0, # of connection points: 2
#     Edge 115, Type (0, 1), BuildingBlock: CIFDUS_clean_linker_0, # of connection points: 2
#     Edge 116, Type (0, 1), BuildingBlock: CIFDUS_clean_linker_0, # of connection points: 2
#     Edge 117, Type (0, 1), BuildingBlock: CIFDUS_clean_linker_0, # of connection points: 2
#     Edge 118, Type (0, 1), BuildingBlock: CIFDUS_clean_linker_0, # of connection points: 2
#     Edge 119, Type (0, 1), BuildingBlock: CIFDUS_clean_linker_0, # of connection points: 2
#     Edge 120, Type (0, 1), BuildingBlock: CIFDUS_clean_linker_0, # of connection points: 2
#     Edge 121, Type (0, 1), BuildingBlock: CIFDUS_clean_linker_0, # of connection points: 2
#     Edge 122, Type (0, 1), BuildingBlock: CIFDUS_clean_linker_0, # of connection points: 2
#     Edge 123, Type (0, 1), BuildingBlock: CIFDUS_clean_linker_0, # of connection points: 2
#     Edge 124, Type (0, 1), BuildingBlock: CIFDUS_clean_linker_0, # of connection points: 2
#     Edge 125, Type (0, 1), BuildingBlock: CIFDUS_clean_linker_0, # of connection points: 2
#     Edge 126, Type (0, 1), BuildingBlock: CIFDUS_clean_linker_0, # of connection points: 2
#     Edge 127, Type (0, 1), BuildingBlock: CIFDUS_clean_linker_0, # of connection points: 2
#     Edge 128, Type (0, 1), BuildingBlock: CIFDUS_clean_linker_0, # of connection points: 2
#     Edge 129, Type (0, 1), BuildingBlock: CIFDUS_clean_linker_0, # of connection points: 2
#     Edge 130, Type (0, 1), BuildingBlock: CIFDUS_clean_linker_0, # of connection points: 2
#     Edge 131, Type (0, 1), BuildingBlock: CIFDUS_clean_linker_0, # of connection points: 2
#     Edge 132, Type (0, 1), BuildingBlock: CIFDUS_clean_linker_0, # of connection points: 2
#     Edge 133, Type (0, 1), BuildingBlock: CIFDUS_clean_linker_0, # of connection points: 2
#     Edge 134, Type (0, 1), BuildingBlock: CIFDUS_clean_linker_0, # of connection points: 2
#     Edge 135, Type (0, 1), BuildingBlock: CIFDUS_clean_linker_0, # of connection points: 2
# Relax obj value: 0.277
# Max RMSD: 0.280
# Mean RMSD: 0.234
data_MOF--net-ibd--node1-GALJAG_clean_sbu_0--node2-OJICUG_clean_sbu_0--edge1-CIFDUS_clean_linker_0
_symmetry_space_group_name_H-M    P1
_symmetry_Int_Tables_number       1
_symmetry_cell_setting            triclinic
loop_
_symmetry_equiv_pos_as_xyz
'x, y, z'
_cell_length_a     43.884024
_cell_length_b     43.897806
_cell_length_c     43.905899
_cell_angle_alpha  90.058684
_cell_angle_beta   90.044115
_cell_angle_gamma 90.025677
loop_
_atom_site_label
_atom_site_type_symbol
_atom_site_fract_x
_atom_site_fract_y
_atom_site_fract_z
_atom_type_partial_charge
In0 In 0.98044 0.23679 0.37416 0.0
O1 O 0.02387 0.21301 0.35833 0.0
O2 O 0.98107 0.19124 0.35079 0.0
C3 C 0.0027 0.28872 0.39815 0.0
C4 C 0.95222 0.25535 0.32356 0.0
C5 C 0.95607 0.20858 0.42231 0.0
O6 O 0.01973 0.26758 0.38863 0.0
O7 O 0.97458 0.28383 0.39498 0.0
O8 O 0.9401 0.21807 0.40038 0.0
O9 O 0.98433 0.21317 0.41977 0.0
C10 C 0.00952 0.19086 0.34671 0.0
O11 O 0.93775 0.2509 0.348 0.0
O12 O 0.98067 0.25196 0.32527 0.0
In13 In 0.00901 0.73651 0.61507 0.0
O14 O 0.97812 0.77666 0.62721 0.0
O15 O 0.97314 0.7352 0.65182 0.0
C16 C 0.02926 0.7711 0.56873 0.0
C17 C 0.05351 0.72328 0.65491 0.0
C18 C 0.98504 0.68749 0.58702 0.0
O19 O 0.00191 0.76249 0.57075 0.0
O20 O 0.04599 0.76336 0.59075 0.0
O21 O 0.97151 0.70156 0.60801 0.0
O22 O 0.01134 0.69741 0.58105 0.0
C23 C 0.96401 0.76209 0.64763 0.0
O24 O 0.04404 0.70437 0.63544 0.0
O25 O 0.04062 0.74893 0.65411 0.0
In26 In 0.48444 0.72065 0.86527 0.0
O27 O 0.52424 0.69271 0.84778 0.0
O28 O 0.47951 0.68036 0.83327 0.0
C29 C 0.51315 0.75901 0.90374 0.0
C30 C 0.47029 0.75803 0.81894 0.0
C31 C 0.44913 0.68773 0.90273 0.0
O32 O 0.52667 0.73713 0.89089 0.0
O33 O 0.48522 0.76125 0.89742 0.0
O34 O 0.43794 0.70708 0.8846 0.0
O35 O 0.47778 0.68553 0.90204 0.0
C36 C 0.50779 0.67519 0.83185 0.0
O37 O 0.45049 0.74943 0.83798 0.0
O38 O 0.49674 0.74794 0.82354 0.0
In39 In 0.52392 0.21649 0.11635 0.0
O40 O 0.54362 0.17227 0.13536 0.0
O41 O 0.56213 0.21414 0.15114 0.0
C42 C 0.49412 0.18372 0.074 0.0
C43 C 0.4856 0.24414 0.15536 0.0
C44 C 0.55078 0.25689 0.07906 0.0
O45 O 0.52278 0.1859 0.07441 0.0
O46 O 0.48077 0.19682 0.09575 0.0
O47 O 0.56591 0.23794 0.09449 0.0
O48 O 0.52236 0.25575 0.08298 0.0
C49 C 0.56273 0.18546 0.15234 0.0
O50 O 0.50453 0.25861 0.13934 0.0
O51 O 0.48657 0.21558 0.15236 0.0
In52 In 0.97001 0.77654 0.11695 0.0
O53 O 0.932 0.80801 0.10127 0.0
O54 O 0.97362 0.80823 0.07656 0.0
C55 C 0.92868 0.75656 0.15744 0.0
C56 C 0.98874 0.7318 0.07929 0.0
C57 C 0.01809 0.79754 0.14838 0.0
O58 O 0.93644 0.74132 0.1344 0.0
O59 O 0.9419 0.7819 0.16018 0.0
O60 O 0.01019 0.76992 0.14843 0.0
O61 O 0.00139 0.81492 0.1327 0.0
C62 C 0.94671 0.81806 0.07875 0.0
O63 O 0.00508 0.74203 0.10058 0.0
O64 O 0.9627 0.74374 0.07734 0.0
In65 In 0.48982 0.75489 0.3565 0.0
O66 O 0.51962 0.71474 0.37214 0.0
O67 O 0.51186 0.75125 0.40284 0.0
C68 C 0.45448 0.72393 0.31707 0.0
C69 C 0.45055 0.7853 0.39221 0.0
C70 C 0.52783 0.78681 0.32042 0.0
O71 O 0.46744 0.71116 0.33931 0.0
O72 O 0.45884 0.75225 0.31527 0.0
O73 O 0.50496 0.79851 0.33314 0.0
O74 O 0.53198 0.75906 0.32642 0.0
C75 C 0.52405 0.72571 0.39831 0.0
O76 O 0.47554 0.79645 0.38337 0.0
O77 O 0.44503 0.75872 0.38259 0.0
In78 In 0.51545 0.22378 0.6186 0.0
O79 O 0.56207 0.2044 0.6064 0.0
O80 O 0.523 0.18555 0.58463 0.0
C81 C 0.54013 0.26803 0.6533 0.0
C82 C 0.49254 0.25255 0.56989 0.0
C83 C 0.47799 0.19318 0.65694 0.0
O84 O 0.5516 0.24175 0.65148 0.0
O85 O 0.51614 0.27171 0.63807 0.0
O86 O 0.50388 0.18322 0.64952 0.0
O87 O 0.47108 0.21828 0.64499 0.0
C88 C 0.5517 0.18586 0.58696 0.0
O89 O 0.47608 0.23721 0.58779 0.0
O90 O 0.5205 0.25313 0.57643 0.0
In91 In 0.03467 0.28911 0.87856 0.0
O92 O 0.0754 0.26668 0.90244 0.0
O93 O 0.03092 0.24985 0.91184 0.0
C94 C 0.98636 0.26513 0.84948 0.0
C95 C 0.0117 0.33341 0.91441 0.0
C96 C 0.06891 0.30842 0.83146 0.0
O97 O 0.00632 0.24865 0.86209 0.0
O98 O 0.99077 0.2934 0.85189 0.0
O99 O 0.06499 0.32435 0.85502 0.0
O100 O 0.05782 0.28203 0.83292 0.0
C101 C 0.05915 0.24777 0.91685 0.0
O102 O -0.00116 0.3241 0.8906 0.0
O103 O 0.03676 0.32062 0.92025 0.0
In104 In 0.37314 0.04586 0.25789 0.0
O105 O 0.35591 0.01863 0.29857 0.0
O106 O 0.34276 0.00407 0.2542 0.0
C107 C 0.40484 0.02812 0.20843 0.0
C108 C 0.32952 0.08618 0.24202 0.0
C109 C 0.41876 0.06298 0.29511 0.0
O110 O 0.38606 0.01089 0.22172 0.0
O111 O 0.40729 0.05436 0.21988 0.0
O112 O 0.39897 0.08166 0.28579 0.0
O113 O 0.41471 0.0359 0.2865 0.0
C114 C 0.34117 -0.00025 0.28259 0.0
O115 O 0.33007 0.07345 0.26771 0.0
O116 O 0.35163 0.07961 0.22505 0.0
In117 In 0.20094 0.11559 0.50321 0.0
O118 O 0.16135 0.14087 0.52522 0.0
O119 O 0.20462 0.14344 0.54657 0.0
C120 C 0.16647 0.07947 0.46795 0.0
C121 C 0.22572 0.15497 0.46372 0.0
C122 C 0.23786 0.07467 0.5298 0.0
O123 O 0.16258 0.08136 0.4964 0.0
O124 O 0.18683 0.0967 0.45732 0.0
O125 O 0.24673 0.10135 0.5239 0.0
O126 O 0.21064 0.06903 0.5227 0.0
C127 C 0.1773 0.15213 0.54633 0.0
O128 O 0.23957 0.13134 0.47256 0.0
O129 O 0.19933 0.15841 0.47457 0.0
In130 In 0.1139 0.96675 0.74114 0.0
O131 O 0.0883 0.92845 0.76463 0.0
O132 O 0.07983 0.97361 0.77966 0.0
C133 C 0.14681 0.92212 0.71541 0.0
C134 C 0.07542 -0.00208 0.70503 0.0
C135 C 0.15883 0.00316 0.76131 0.0
O136 O 0.12906 0.93888 0.70018 0.0
O137 O 0.14742 0.92759 0.74364 0.0
O138 O 0.15465 -0.00257 0.73347 0.0
O139 O 0.14031 0.99036 0.77925 0.0
C140 C 0.07312 0.94577 0.78176 0.0
O141 O 0.09612 0.01056 0.7204 0.0
O142 O 0.07505 0.96925 0.70666 0.0
In143 In 0.28451 0.87052 0.02333 0.0
O144 O 0.26688 0.89494 0.0659 0.0
O145 O 0.25304 0.9111 0.02236 0.0
C146 C 0.24719 0.83591 0.98918 0.0
C147 C 0.32227 0.90423 0.98916 0.0
C148 C 0.31181 0.82938 0.05965 0.0
O149 O 0.23744 0.85605 0.00713 0.0
O150 O 0.27579 0.83327 0.98839 0.0
O151 O 0.32674 0.84683 0.04242 0.0
O152 O 0.28343 0.83376 0.05948 0.0
C153 C 0.25146 0.91402 0.05086 0.0
O154 O 0.32041 0.90729 0.0177 0.0
O155 O 0.30614 0.88313 0.97817 0.0
In156 In 0.19204 0.36216 0.99114 0.0
O157 O 0.18859 0.3277 0.95186 0.0
O158 O 0.2319 0.33534 0.97184 0.0
C159 C 0.15497 0.40752 0.97424 0.0
C160 C 0.1594 0.32786 0.02984 0.0
C161 C 0.23776 0.3981 0.01038 0.0
O162 O 0.16798 0.39039 0.9551 0.0
O163 O 0.16039 0.40134 0.00173 0.0
O164 O 0.22484 0.37915 0.02783 0.0
O165 O 0.22778 0.39847 0.98339 0.0
C166 C 0.21657 0.32134 0.95207 0.0
O167 O 0.18639 0.33603 0.03566 0.0
O168 O 0.14928 0.33672 0.00452 0.0
In169 In 0.75828 0.12483 0.96646 0.0
O170 O 0.73454 0.10983 0.00997 0.0
O171 O 0.71792 0.09213 0.96808 0.0
C172 C 0.77908 0.1712 0.00057 0.0
C173 C 0.79719 0.08131 0.9479 0.0
C174 C 0.73786 0.15797 0.91942 0.0
O175 O 0.75133 0.16757 -0.00585 0.0
O176 O 0.79667 0.15087 0.99029 0.0
O177 O 0.72049 0.14152 0.93538 0.0
O178 O 0.76565 0.15691 0.92673 0.0
C179 C 0.71545 0.09295 -0.00331 0.0
O180 O 0.7822 0.09768 0.92975 0.0
O181 O 0.7932 0.08739 0.97569 0.0
In182 In 0.11643 0.5022 0.27471 0.0
O183 O 0.14454 0.4843 0.3148 0.0
O184 O 0.1452 0.45932 0.27341 0.0
C185 C 0.08027 0.53844 0.30812 0.0
C186 C 0.15211 0.53956 0.24227 0.0
C187 C 0.07485 0.46979 0.2437 0.0
O188 O 0.0876 0.51192 0.31654 0.0
O189 O 0.09233 0.54709 0.28352 0.0
O190 O 0.101 0.47505 0.23312 0.0
O191 O 0.07 0.48036 0.26991 0.0
C192 C 0.15474 0.46165 0.30034 0.0
O193 O 0.12821 0.52781 0.23145 0.0
O194 O 0.15744 0.53316 0.2698 0.0
In195 In 0.74529 0.87603 0.55708 0.0
O196 O 0.78861 0.85508 0.53709 0.0
O197 O 0.74588 0.83663 0.52363 0.0
C198 C 0.70766 0.91036 0.52306 0.0
C199 C 0.71434 0.84032 0.59596 0.0
C200 C 0.78232 0.91748 0.58319 0.0
O201 O 0.7093 0.91296 0.55163 0.0
O202 O 0.72474 0.89023 0.5118 0.0
O203 O 0.76751 0.89832 0.59864 0.0
O204 O 0.77896 0.91513 0.55479 0.0
C205 C 0.77447 0.83574 0.52114 0.0
O206 O 0.74278 0.83825 0.5923 0.0
O207 O 0.70176 0.86122 0.58084 0.0
In208 In 0.87662 0.9307 0.2272 0.0
O209 O 0.90984 0.92996 0.26643 0.0
O210 O 0.89609 0.88709 0.24836 0.0
C211 C 0.84889 0.97833 0.25449 0.0
C212 C 0.91884 0.95003 0.18704 0.0
C213 C 0.82869 0.90237 0.20095 0.0
O214 O 0.85725 0.95498 0.26903 0.0
O215 O 0.85513 0.97786 0.22645 0.0
O216 O 0.85256 0.90885 0.18648 0.0
O217 O 0.83004 0.90791 0.22906 0.0
C218 C 0.91249 0.90136 0.26731 0.0
O219 O 0.9192 0.92354 0.19806 0.0
O220 O 0.8971 0.9665 0.196 0.0
In221 In 0.30537 0.61214 0.47805 0.0
O222 O 0.33574 0.58826 0.44358 0.0
O223 O 0.33744 0.57314 0.48945 0.0
C224 C 0.28879 0.65531 0.43731 0.0
C225 C 0.25857 0.57471 0.49082 0.0
C226 C 0.32221 0.64552 0.52651 0.0
O227 O 0.31491 0.65469 0.44922 0.0
O228 O 0.27151 0.63392 0.44542 0.0
O229 O 0.29493 0.63812 0.52127 0.0
O230 O 0.34132 0.63569 0.50736 0.0
C231 C 0.34608 0.56914 0.46238 0.0
O232 O 0.26882 0.5938 0.50974 0.0
O233 O 0.27152 0.57494 0.46518 0.0
In234 In 0.35996 0.49061 0.74215 0.0
O235 O 0.37802 0.45033 0.76957 0.0
O236 O 0.40043 0.49284 0.77451 0.0
C237 C 0.31758 0.52745 0.76663 0.0
C238 C 0.39426 0.52321 0.70346 0.0
C239 C 0.32809 0.44862 0.71091 0.0
O240 O 0.33672 0.51332 0.78276 0.0
O241 O 0.31969 0.52265 0.73841 0.0
O242 O 0.3495 0.4637 0.6992 0.0
O243 O 0.32294 0.4545 0.73859 0.0
C244 C 0.39932 0.46514 0.78187 0.0
O245 O 0.39427 0.49448 0.70376 0.0
O246 O 0.3772 0.53555 0.723 0.0
In247 In 0.6097 0.0109 0.73394 0.0
O248 O 0.62235 0.96881 0.76151 0.0
O249 O 0.64565 0.97692 0.71977 0.0
C250 C 0.57025 0.02432 0.77843 0.0
C251 C 0.65349 0.05358 0.73516 0.0
C252 C 0.57437 0.00311 0.68397 0.0
O253 O 0.58739 0.04386 0.76623 0.0
O254 O 0.57318 -0.00252 0.76835 0.0
O255 O 0.56935 0.02364 0.70337 0.0
O256 O 0.59779 0.98745 0.68918 0.0
C257 C 0.64272 0.96033 0.74301 0.0
O258 O 0.63522 0.05108 0.71303 0.0
O259 O 0.64932 0.03484 0.7564 0.0
In260 In 0.71413 0.62671 0.02716 0.0
O261 O 0.66781 0.6432 0.04372 0.0
O262 O 0.70738 0.6645 0.0617 0.0
C263 C 0.68469 0.58631 0.99161 0.0
C264 C 0.74559 0.66497 0.99115 0.0
C265 C 0.75195 0.59137 0.05978 0.0
O266 O 0.6963 0.6104 0.98138 0.0
O267 O 0.68752 0.58272 0.01994 0.0
O268 O 0.7564 0.59777 0.03215 0.0
O269 O 0.72827 0.603 0.07125 0.0
C270 C 0.67867 0.66338 0.06102 0.0
O271 O 0.7584 0.64837 0.0108 0.0
O272 O 0.71694 0.66289 0.99037 0.0
In273 In 0.87223 0.5231 0.74049 0.0
O274 O 0.83488 0.4888 0.73111 0.0
O275 O 0.85074 0.4924 0.77674 0.0
C276 C 0.90939 0.5006 0.69743 0.0
C277 C 0.83325 0.56372 0.71709 0.0
C278 C 0.90849 0.54474 0.78489 0.0
O279 O 0.88978 0.48461 0.71094 0.0
O280 O 0.91089 0.52791 0.70618 0.0
O281 O 0.89092 0.56169 0.76977 0.0
O282 O 0.90736 0.51688 0.77789 0.0
C283 C 0.83259 0.4798 0.75825 0.0
O284 O 0.85638 0.55463 0.70272 0.0
O285 O 0.83105 0.55379 0.74395 0.0
In286 In 0.77189 0.37619 0.48406 0.0
O287 O 0.73442 0.38734 0.51829 0.0
O288 O 0.74003 0.41717 0.48073 0.0
C289 C 0.75268 0.33135 0.44634 0.0
C290 C 0.81098 0.41633 0.45974 0.0
C291 C 0.8007 0.34902 0.53081 0.0
O292 O 0.73686 0.35451 0.45223 0.0
O293 O 0.7784 0.33101 0.45903 0.0
O294 O 0.81479 0.3606 0.50864 0.0
O295 O 0.77205 0.35107 0.52932 0.0
C296 C 0.7256 0.41108 0.50477 0.0
O297 O 0.80645 0.41412 0.48802 0.0
O298 O 0.79572 0.39811 0.44349 0.0
In299 In 0.62697 0.47619 0.25614 0.0
O300 O 0.58784 0.47976 0.28983 0.0
O301 O 0.60424 0.43559 0.2784 0.0
C302 C 0.66326 0.44002 0.22247 0.0
C303 C 0.58776 0.50053 0.21613 0.0
C304 C 0.66436 0.51226 0.28923 0.0
O305 O 0.65623 0.43379 0.24957 0.0
O306 O 0.65298 0.46497 0.21285 0.0
O307 O 0.65527 0.51917 0.26292 0.0
O308 O 0.65505 0.48685 0.29873 0.0
C309 C 0.58531 0.45132 0.29322 0.0
O310 O 0.6056 0.51663 0.23197 0.0
O311 O 0.58955 0.47223 0.22074 0.0
Sc312 Sc 0.0631 0.13125 0.11965 0.0
Sc313 Sc 0.10584 0.07479 0.15655 0.0
Sc314 Sc 0.14077 0.12491 0.10608 0.0
O315 O 0.10306 0.11009 0.12741 0.0
C316 C 0.0896 0.13572 0.05475 0.0
C317 C 0.04243 0.06145 0.12573 0.0
C318 C 0.14867 0.05463 0.10069 0.0
C319 C 0.06029 0.12031 0.1904 0.0
C320 C 0.11105 0.18639 0.12245 0.0
C321 C 0.1677 0.10681 0.17117 0.0
O322 O 0.0676 0.12671 0.07122 0.0
O323 O 0.06782 0.05182 0.13583 0.0
O324 O 0.14884 0.08045 0.08747 0.0
O325 O 0.05514 0.13715 0.16741 0.0
O326 O 0.13439 0.16944 0.12451 0.0
O327 O 0.14344 0.09443 0.18076 0.0
O328 O 0.08439 0.17591 0.11752 0.0
O329 O 0.07642 0.09627 0.18951 0.0
O330 O 0.17085 0.11541 0.14375 0.0
O331 O 0.03729 0.0895 0.12057 0.0
O332 O 0.11658 0.13833 0.06509 0.0
O333 O 0.13633 0.05012 0.1266 0.0
Sc334 Sc 0.17912 0.85344 0.38797 0.0
Sc335 Sc 0.12063 0.81251 0.35265 0.0
Sc336 Sc 0.13747 0.88596 0.32869 0.0
O337 O 0.146 0.85052 0.35628 0.0
C338 C 0.15074 0.91883 0.39208 0.0
C339 C 0.12493 0.82014 0.42345 0.0
C340 C 0.07103 0.86473 0.34131 0.0
C341 C 0.18713 0.78568 0.36811 0.0
C342 C 0.20865 0.88732 0.33018 0.0
C343 C 0.12798 0.82837 0.28442 0.0
O344 O 0.16084 0.89519 0.40527 0.0
O345 O 0.10881 0.81513 0.39989 0.0
O346 O 0.0903 0.88631 0.34103 0.0
O347 O 0.19948 0.81128 0.37373 0.0
O348 O 0.18415 0.88807 0.31475 0.0
O349 O 0.13068 0.80827 0.30507 0.0
O350 O 0.20973 0.87791 0.35765 0.0
O351 O 0.15873 0.7829 0.36275 0.0
O352 O 0.12772 0.85679 0.29026 0.0
O353 O 0.15213 0.83023 0.42214 0.0
O354 O 0.14503 0.91972 0.3637 0.0
O355 O 0.07884 0.83681 0.34194 0.0
Sc356 Sc 0.41303 0.85712 0.61095 0.0
Sc357 Sc 0.33612 0.85621 0.59088 0.0
Sc358 Sc 0.36152 0.90511 0.64883 0.0
O359 O 0.37021 0.87304 0.61691 0.0
C360 C 0.40623 0.8586 0.68281 0.0
C361 C 0.37268 0.79671 0.60282 0.0
C362 C 0.30125 0.86601 0.65378 0.0
C363 C 0.39171 0.85989 0.54352 0.0
C364 C 0.42638 0.92713 0.62649 0.0
C365 C 0.32216 0.92672 0.59108 0.0
O366 O 0.41676 0.84681 0.6585 0.0
O367 O 0.34721 0.81044 0.60314 0.0
O368 O 0.32214 0.88192 0.66578 0.0
O369 O 0.41192 0.8666 0.56313 0.0
O370 O 0.39993 0.93278 0.63662 0.0
O371 O 0.32257 0.90103 0.57763 0.0
O372 O 0.43436 0.90072 0.61784 0.0
O373 O 0.36449 0.85299 0.55072 0.0
O374 O 0.33425 0.93146 0.61712 0.0
O375 O 0.39805 0.81078 0.60262 0.0
O376 O 0.38743 0.88075 0.68299 0.0
O377 O 0.30241 0.85665 0.62647 0.0
Sc378 Sc 0.3614 0.09 0.8416 0.0
Sc379 Sc 0.3851 0.16191 0.86409 0.0
Sc380 Sc 0.32502 0.1268 0.90159 0.0
O381 O 0.35684 0.12639 0.86883 0.0
C382 C 0.2908 0.09422 0.84559 0.0
C383 C 0.37494 0.14631 0.79653 0.0
C384 C 0.32176 0.19427 0.88162 0.0
C385 C 0.42931 0.10524 0.85202 0.0
C386 C 0.34813 0.05975 0.90617 0.0
C387 C 0.38315 0.15501 0.93465 0.0
O388 O 0.31436 0.09213 0.82886 0.0
O389 O 0.373 0.16673 0.81702 0.0
O390 O 0.30739 0.1696 0.88635 0.0
O391 O 0.40829 0.08546 0.85333 0.0
O392 O 0.34124 0.0846 0.91921 0.0
O393 O 0.39885 0.15765 0.91052 0.0
O394 O 0.35147 0.05751 0.87745 0.0
O395 O 0.42385 0.13374 0.85171 0.0
O396 O 0.35474 0.14896 0.9344 0.0
O397 O 0.37374 0.11789 0.80251 0.0
O398 O 0.29182 0.10371 0.87304 0.0
O399 O 0.35032 0.19492 0.87636 0.0
Sc400 Sc 0.65764 0.36526 0.89341 0.0
Sc401 Sc 0.59011 0.34389 0.85835 0.0
Sc402 Sc 0.62691 0.41095 0.83588 0.0
O403 O 0.62483 0.37359 0.86246 0.0
C404 C 0.64469 0.43485 0.90277 0.0
C405 C 0.59735 0.3434 0.9283 0.0
C406 C 0.55613 0.4073 0.84672 0.0
C407 C 0.64758 0.30022 0.86802 0.0
C408 C 0.6967 0.39566 0.84014 0.0
C409 C 0.60724 0.35783 0.7902 0.0
O410 O 0.64997 0.40863 0.91386 0.0
O411 O 0.57953 0.34683 0.90579 0.0
O412 O 0.58036 0.42277 0.84397 0.0
O413 O 0.66636 0.32149 0.87383 0.0
O414 O 0.67373 0.40364 0.82456 0.0
O415 O 0.59922 0.33941 0.81097 0.0
O416 O 0.69436 0.38382 0.8664 0.0
O417 O 0.61899 0.30468 0.86599 0.0
O418 O 0.61509 0.38539 0.79506 0.0
O419 O 0.62616 0.34565 0.92588 0.0
O420 O 0.63884 0.43941 0.87463 0.0
O421 O 0.55627 0.37853 0.8499 0.0
Sc422 Sc 0.90778 0.34776 0.1214 0.0
Sc423 Sc 0.85642 0.39715 0.15537 0.0
Sc424 Sc 0.85255 0.38443 0.07794 0.0
O425 O 0.87265 0.37655 0.11816 0.0
C426 C 0.92296 0.37871 0.05955 0.0
C427 C 0.92593 0.40346 0.16548 0.0
C428 C 0.85014 0.44887 0.10428 0.0
C429 C 0.8757 0.33262 0.18244 0.0
C430 C 0.86189 0.31386 0.07589 0.0
C431 C 0.7963 0.38194 0.12394 0.0
O432 O 0.9317 0.37014 0.08567 0.0
O433 O 0.89994 0.41629 0.16513 0.0
O434 O 0.85993 0.43226 0.08272 0.0
O435 O 0.88707 0.32293 0.15773 0.0
O436 O 0.84462 0.33681 0.07204 0.0
O437 O 0.8131 0.37731 0.14696 0.0
O438 O 0.88727 0.31526 0.09004 0.0
O439 O 0.8664 0.35981 0.18563 0.0
O440 O 0.80725 0.38915 0.09803 0.0
O441 O 0.93122 0.37765 0.15311 0.0
O442 O 0.8949 0.3815 0.05263 0.0
O443 O 0.84394 0.43816 0.13053 0.0
Sc444 Sc 0.86151 0.62176 0.33277 0.0
Sc445 Sc 0.89135 0.68076 0.37589 0.0
Sc446 Sc 0.83866 0.6307 0.4075 0.0
O447 O 0.8634 0.6448 0.37198 0.0
C448 C 0.79378 0.6208 0.35024 0.0
C449 C 0.86828 0.69119 0.31064 0.0
C450 C 0.83268 0.70084 0.41483 0.0
C451 C 0.93105 0.63313 0.33889 0.0
C452 C 0.85745 0.5681 0.38126 0.0
C453 C 0.90231 0.64785 0.43785 0.0
O454 O 0.81332 0.6282 0.33022 0.0
O455 O 0.87164 0.70255 0.33703 0.0
O456 O 0.81941 0.67512 0.41334 0.0
O457 O 0.90951 0.61415 0.33519 0.0
O458 O 0.85706 0.58588 0.40404 0.0
O459 O 0.91305 0.66043 0.41419 0.0
O460 O 0.85481 0.57768 0.35405 0.0
O461 O 0.92684 0.66036 0.348 0.0
O462 O 0.87437 0.64037 0.44038 0.0
O463 O 0.86782 0.66254 0.30594 0.0
O464 O 0.80043 0.61795 0.37843 0.0
O465 O 0.85966 0.70526 0.40498 0.0
Sc466 Sc 0.87322 0.81593 0.85029 0.0
Sc467 Sc 0.81679 0.86181 0.8823 0.0
Sc468 Sc 0.84816 0.8806 0.8121 0.0
O469 O 0.84576 0.85258 0.84818 0.0
C470 C 0.91679 0.86737 0.82323 0.0
C471 C 0.87761 0.84196 0.91679 0.0
C472 C 0.83717 0.92801 0.86589 0.0
C473 C 0.81193 0.79083 0.88083 0.0
C474 C 0.85905 0.81479 0.78172 0.0
C475 C 0.77778 0.87598 0.82203 0.0
O476 O 0.91116 0.83965 0.82962 0.0
O477 O 0.85 0.85088 0.91704 0.0
O478 O 0.83975 0.92175 0.83777 0.0
O479 O 0.83939 0.78742 0.87219 0.0
O480 O 0.85795 0.84375 0.78102 0.0
O481 O 0.78094 0.87414 0.85085 0.0
O482 O 0.85836 0.79991 0.80654 0.0
O483 O 0.79894 0.81657 0.88216 0.0
O484 O 0.80023 0.87536 0.80365 0.0
O485 O 0.89027 0.83045 0.89346 0.0
O486 O 0.89599 0.88722 0.81973 0.0
O487 O 0.83215 0.90783 0.88587 0.0
Sc488 Sc 0.84384 0.1476 0.62418 0.0
Sc489 Sc 0.90902 0.17671 0.65875 0.0
Sc490 Sc 0.87126 0.11414 0.6904 0.0
O491 O 0.87471 0.14624 0.65781 0.0
C492 C 0.8032 0.13257 0.68276 0.0
C493 C 0.85238 0.21712 0.63697 0.0
C494 C 0.89512 0.17189 0.72808 0.0
C495 C 0.90567 0.1631 0.58896 0.0
C496 C 0.85092 0.07738 0.63079 0.0
C497 C 0.94124 0.11402 0.67716 0.0
O498 O 0.80692 0.13691 0.65438 0.0
O499 O 0.88047 0.21418 0.64369 0.0
O500 O 0.88801 0.14386 0.72609 0.0
O501 O 0.87705 0.15866 0.58986 0.0
O502 O 0.85468 0.07949 0.65945 0.0
O503 O 0.94188 0.14275 0.67304 0.0
O504 O 0.85055 0.10049 0.61344 0.0
O505 O 0.92171 0.16699 0.61271 0.0
O506 O 0.91666 0.09913 0.6809 0.0
O507 O 0.83477 0.19461 0.63259 0.0
O508 O 0.82525 0.12741 0.7009 0.0
O509 O 0.89899 0.18871 0.7049 0.0
Sc510 Sc 0.65798 0.06977 0.33959 0.0
Sc511 Sc 0.69096 0.10079 0.40503 0.0
Sc512 Sc 0.63471 0.14049 0.36595 0.0
O513 O 0.66147 0.10378 0.37009 0.0
C514 C 0.64944 0.1294 0.2981 0.0
C515 C 0.72824 0.07231 0.34856 0.0
C516 C 0.69773 0.16962 0.38924 0.0
C517 C 0.66753 0.03387 0.40205 0.0
C518 C 0.58961 0.08603 0.34793 0.0
C519 C 0.63149 0.12902 0.43616 0.0
O520 O 0.64925 0.1006 0.30185 0.0
O521 O 0.72572 0.07921 0.37672 0.0
O522 O 0.66986 0.17145 0.38133 0.0
O523 O 0.66561 0.03416 0.37312 0.0
O524 O 0.59583 0.11427 0.35036 0.0
O525 O 0.65934 0.12086 0.43772 0.0
O526 O 0.61007 0.06555 0.34766 0.0
O527 O 0.67295 0.05758 0.41765 0.0
O528 O 0.61809 0.13446 0.41113 0.0
O529 O 0.70575 0.07224 0.33028 0.0
O530 O 0.64961 0.14799 0.32026 0.0
O531 O 0.71062 0.14438 0.3951 0.0
Sc532 Sc 0.62542 0.88906 0.07464 0.0
Sc533 Sc 0.55744 0.86762 0.10843 0.0
Sc534 Sc 0.59355 0.93445 0.13126 0.0
O535 O 0.59187 0.89736 0.10445 0.0
C536 C 0.66163 0.91328 0.13276 0.0
C537 C 0.61464 0.82399 0.1001 0.0
C538 C 0.57044 0.88274 0.1765 0.0
C539 C 0.56542 0.86697 0.03858 0.0
C540 C 0.61859 0.95901 0.06696 0.0
C541 C 0.52425 0.9323 0.118 0.0
O542 O 0.66103 0.90537 0.10485 0.0
O543 O 0.5859 0.8278 0.10101 0.0
O544 O 0.57557 0.91074 0.17085 0.0
O545 O 0.59424 0.87004 0.04105 0.0
O546 O 0.61235 0.96258 0.09512 0.0
O547 O 0.52444 0.90327 0.11735 0.0
O548 O 0.61997 0.93297 0.05435 0.0
O549 O 0.54734 0.8706 0.06088 0.0
O550 O 0.5486 0.94802 0.11789 0.0
O551 O 0.63306 0.84536 0.09405 0.0
O552 O 0.63805 0.9223 0.14686 0.0
O553 O 0.56663 0.86287 0.15584 0.0
Sc554 Sc 0.33374 0.5921 0.09332 0.0
Sc555 Sc 0.40593 0.61507 0.11545 0.0
Sc556 Sc 0.37131 0.55468 0.15264 0.0
O557 O 0.37033 0.58701 0.1203 0.0
C558 C 0.30441 0.57826 0.15842 0.0
C559 C 0.34998 0.66006 0.10462 0.0
C560 C 0.40063 0.61252 0.1859 0.0
C561 C 0.39005 0.60292 0.04794 0.0
C562 C 0.33755 0.52113 0.09684 0.0
C563 C 0.43844 0.55183 0.13223 0.0
O564 O 0.3018 0.58288 0.12988 0.0
O565 O 0.37838 0.65433 0.10379 0.0
O566 O 0.39417 0.58417 0.18555 0.0
O567 O 0.36151 0.60283 0.05356 0.0
O568 O 0.34781 0.52161 0.12404 0.0
O569 O 0.43875 0.58038 0.12729 0.0
O570 O 0.33483 0.54502 0.08072 0.0
O571 O 0.41021 0.60257 0.06872 0.0
O572 O 0.41393 0.53713 0.13667 0.0
O573 O 0.32995 0.63923 0.10481 0.0
O574 O 0.32931 0.57054 0.17089 0.0
O575 O 0.4024 0.62849 0.16188 0.0
Sc576 Sc 0.11718 0.61342 0.84592 0.0
Sc577 Sc 0.14672 0.62888 0.9175 0.0
Sc578 Sc 0.09413 0.67909 0.88414 0.0
O579 O 0.11938 0.64067 0.88253 0.0
C580 C 0.11261 0.67951 0.8154 0.0
C581 C 0.18641 0.60969 0.85919 0.0
C582 C 0.15869 0.69907 0.91223 0.0
C583 C 0.12065 0.56535 0.90028 0.0
C584 C 0.04837 0.63003 0.85567 0.0
C585 C 0.08905 0.65709 0.95197 0.0
O586 O 0.11357 0.65061 0.81442 0.0
O587 O 0.18208 0.61083 0.88787 0.0
O588 O 0.13148 0.70497 0.90383 0.0
O589 O 0.12043 0.57216 0.87216 0.0
O590 O 0.05405 0.65703 0.86482 0.0
O591 O 0.11546 0.64514 0.95212 0.0
O592 O 0.06899 0.61052 0.85015 0.0
O593 O 0.12598 0.58483 0.92103 0.0
O594 O 0.07681 0.66774 0.92808 0.0
O595 O 0.16533 0.61474 0.84007 0.0
O596 O 0.10877 0.69414 0.84004 0.0
O597 O 0.1688 0.67217 0.91568 0.0
Sc598 Sc 0.14751 0.3809 0.56888 0.0
Sc599 Sc 0.07204 0.37077 0.59115 0.0
Sc600 Sc 0.11736 0.4241 0.62859 0.0
O601 O 0.11228 0.39225 0.59603 0.0
C602 C 0.18094 0.39151 0.63248 0.0
C603 C 0.11922 0.31686 0.5803 0.0
C604 C 0.08094 0.37095 0.66228 0.0
C605 C 0.08988 0.37822 0.52342 0.0
C606 C 0.15341 0.45229 0.57152 0.0
C607 C 0.05042 0.43802 0.60935 0.0
O608 O 0.18166 0.38503 0.60426 0.0
O609 O 0.09241 0.32769 0.57978 0.0
O610 O 0.09356 0.39709 0.66216 0.0
O611 O 0.11802 0.37467 0.52973 0.0
O612 O 0.14259 0.45369 0.59843 0.0
O613 O 0.04549 0.41039 0.6023 0.0
O614 O 0.15439 0.42768 0.55614 0.0
O615 O 0.0698 0.38268 0.54384 0.0
O616 O 0.07678 0.44794 0.61578 0.0
O617 O 0.1429 0.33356 0.58057 0.0
O618 O 0.15798 0.40342 0.64521 0.0
O619 O 0.0731 0.35711 0.63802 0.0
Sc620 Sc 0.5795 0.64428 0.62273 0.0
Sc621 Sc 0.6037 0.57004 0.63194 0.0
Sc622 Sc 0.64292 0.61829 0.58256 0.0
O623 O 0.60853 0.61085 0.61174 0.0
C624 C 0.58628 0.65331 0.55211 0.0
C625 C 0.53712 0.58431 0.61787 0.0
C626 C 0.63063 0.55038 0.56689 0.0
C627 C 0.5862 0.61452 0.68582 0.0
C628 C 0.64175 0.68097 0.61782 0.0
C629 C 0.67305 0.58397 0.63931 0.0
O630 O 0.56993 0.65298 0.57601 0.0
O631 O 0.55887 0.56565 0.61362 0.0
O632 O 0.63425 0.57737 0.55728 0.0
O633 O 0.58895 0.63839 0.66997 0.0
O634 O 0.65603 0.65947 0.60491 0.0
O635 O 0.64805 0.57491 0.65081 0.0
O636 O 0.61333 0.67997 0.62308 0.0
O637 O 0.585 0.58808 0.67413 0.0
O638 O 0.67506 0.59567 0.61273 0.0
O639 O 0.5416 0.61232 0.62448 0.0
O640 O 0.6134 0.64274 0.55099 0.0
O641 O 0.62212 0.54471 0.59395 0.0
Sc642 Sc 0.3415 0.34519 0.3947 0.0
Sc643 Sc 0.37189 0.36603 0.32501 0.0
Sc644 Sc 0.3987 0.30083 0.36176 0.0
O645 O 0.37063 0.33704 0.36037 0.0
C646 C 0.39844 0.31819 0.43087 0.0
C647 C 0.36408 0.41085 0.38168 0.0
C648 C 0.4413 0.35488 0.33819 0.0
C649 C 0.3026 0.36505 0.33603 0.0
C650 C 0.33474 0.27471 0.38581 0.0
C651 C 0.38539 0.3023 0.29198 0.0
O652 O 0.3714 0.3284 0.42984 0.0
O653 O 0.36389 0.40556 0.35319 0.0
O654 O 0.43746 0.32712 0.34583 0.0
O655 O 0.30695 0.36318 0.36463 0.0
O656 O 0.36262 0.27147 0.37824 0.0
O657 O 0.38161 0.33101 0.29186 0.0
O658 O 0.32226 0.30063 0.38964 0.0
O659 O 0.32387 0.36103 0.31678 0.0
O660 O 0.38741 0.28698 0.31636 0.0
O661 O 0.36009 0.39 0.40137 0.0
O662 O 0.41321 0.31075 0.4072 0.0
O663 O 0.41945 0.37287 0.33212 0.0
H664 H 0.98086 0.16625 0.29907 0.0
H665 H 0.06909 0.17277 0.34185 0.0
H666 H 0.09255 0.14767 0.2977 0.0
H667 H 0.08824 0.12921 0.24454 0.0
H668 H 0.00062 0.13038 0.20012 0.0
H669 H 0.97635 0.14727 0.24732 0.0
C670 C 0.00513 0.16148 0.29908 0.0
C671 C 0.02328 0.17092 0.32366 0.0
C672 C 0.01848 0.14894 0.27309 0.0
C673 C 0.05476 0.16539 0.32315 0.0
C674 C 0.06812 0.1513 0.29788 0.0
C675 C 0.06381 0.13288 0.24553 0.0
C676 C 0.04603 0.1287 0.21927 0.0
C677 C 0.0503 0.14382 0.27235 0.0
C678 C 0.01453 0.13374 0.22026 0.0
C679 C 0.00073 0.14326 0.24715 0.0
H680 H 0.08781 0.7875 0.55814 0.0
H681 H -0.00148 0.78581 0.51685 0.0
H682 H 0.02031 0.80195 0.46832 0.0
H683 H 0.06505 0.81277 0.43687 0.0
H684 H 0.15449 0.81405 0.47797 0.0
H685 H 0.13223 0.8018 0.52741 0.0
C686 C 0.07307 0.79109 0.53863 0.0
C687 C 0.04166 0.78531 0.54098 0.0
C688 C 0.08579 0.7999 0.51072 0.0
C689 C 0.0228 0.79009 0.51557 0.0
C690 C 0.03526 0.79915 0.48778 0.0
C691 C 0.07971 0.81037 0.45663 0.0
C692 C 0.11142 0.8139 0.45363 0.0
C693 C 0.06679 0.80341 0.48495 0.0
C694 C 0.13002 0.81128 0.47959 0.0
C695 C 0.11732 0.80428 0.50788 0.0
H696 H 0.42045 0.79398 0.81024 0.0
H697 H 0.50477 0.76547 0.76846 0.0
H698 H 0.49305 0.79542 0.72327 0.0
H699 H 0.45802 0.8277 0.6947 0.0
H700 H 0.3743 0.85801 0.7363 0.0
H701 H 0.38683 0.82977 0.7827 0.0
C702 C 0.43622 0.79446 0.79124 0.0
C703 C 0.46326 0.77738 0.7925 0.0
C704 C 0.42953 0.81208 0.76539 0.0
C705 C 0.48376 0.77842 0.76797 0.0
C706 C 0.47709 0.7955 0.7421 0.0
C707 C 0.44259 0.82828 0.71399 0.0
C708 C 0.41519 0.84465 0.71202 0.0
C709 C 0.44993 0.81213 0.74046 0.0
C710 C 0.39561 0.8456 0.73733 0.0
C711 C 0.40265 0.82932 0.76377 0.0
H712 H 0.43292 0.18111 0.06665 0.0
H713 H 0.51786 0.1593 0.02216 0.0
H714 H 0.49052 0.14744 0.97517 0.0
H715 H 0.44322 0.14758 0.94574 0.0
H716 H 0.35814 0.16962 0.98984 0.0
H717 H 0.38492 0.17719 0.03814 0.0
C718 C 0.44539 0.17327 0.04681 0.0
C719 C 0.47735 0.1713 0.04773 0.0
C720 C 0.4296 0.16703 0.01976 0.0
C721 C 0.49324 0.16104 0.02195 0.0
C722 C 0.47766 0.15446 -0.00496 0.0
C723 C 0.43051 0.15409 0.96591 0.0
C724 C 0.39885 0.15859 0.96414 0.0
C725 C 0.44597 0.15821 0.99349 0.0
C726 C 0.38258 0.16627 0.9906 0.0
C727 C 0.39786 0.17057 0.01819 0.0
H728 H 0.05907 0.76348 0.17909 0.0
H729 H 0.03456 0.85653 0.15904 0.0
H730 H 0.0722 0.87471 0.19588 0.0
H731 H 0.1057 0.86373 0.23889 0.0
H732 H 0.12766 0.77042 0.26117 0.0
H733 H 0.09809 0.7528 0.21751 0.0
C734 C 0.06228 0.78775 0.18248 0.0
C735 C 0.04372 0.80866 0.16693 0.0
C736 C 0.08348 0.79796 0.20404 0.0
C737 C 0.0484 0.84002 0.17108 0.0
C738 C 0.06987 0.85041 0.19213 0.0
C739 C 0.10473 0.83955 0.23384 0.0
C740 C 0.1183 0.81839 0.25373 0.0
C741 C 0.08669 0.82952 0.20951 0.0
C742 C 0.11705 0.78719 0.24652 0.0
C743 C 0.09997 0.77707 0.22168 0.0
H744 H 0.46406 0.83671 0.4232 0.0
H745 H 0.39454 0.76788 0.41297 0.0
H746 H 0.36715 0.78871 0.45678 0.0
H747 H 0.36697 0.82181 0.50179 0.0
H748 H 0.43913 0.88749 0.51439 0.0
H749 H 0.46131 0.87286 0.4655 0.0
C750 C 0.44262 0.8266 0.43021 0.0
C751 C 0.43146 0.80064 0.41514 0.0
C752 C 0.42763 0.83802 0.45595 0.0
C753 C 0.40367 0.78777 0.42441 0.0
C754 C 0.38807 0.79962 0.44947 0.0
C755 C 0.38712 0.83346 0.49348 0.0
C756 C 0.40152 0.85557 0.5117 0.0
C757 C 0.40039 0.82408 0.466 0.0
C758 C 0.42778 0.87025 0.50081 0.0
C759 C 0.44051 0.86183 0.47294 0.0
H760 H 0.42709 0.21585 0.68343 0.0
H761 H 0.48436 0.13603 0.68053 0.0
H762 H 0.45383 0.11234 0.72063 0.0
H763 H 0.41434 0.11661 0.75992 0.0
H764 H 0.36023 0.19838 0.76598 0.0
H765 H 0.38559 0.21884 0.72076 0.0
C766 C 0.43265 0.19311 0.69131 0.0
C767 C 0.45803 0.17776 0.67919 0.0
C768 C 0.4155 0.18001 0.71488 0.0
C769 C 0.46504 0.14836 0.68966 0.0
C770 C 0.44758 0.13481 0.71255 0.0
C771 C 0.40751 0.13854 0.75081 0.0
C772 C 0.38529 0.15591 0.76605 0.0
C773 C 0.42317 0.1507 0.72576 0.0
C774 C 0.37717 0.1846 0.75449 0.0
C775 C 0.39181 0.19635 0.72881 0.0
H776 H 0.0301 0.19946 0.94156 0.0
H777 H 0.11621 0.24689 0.94191 0.0
H778 H 0.1348 0.21346 0.98246 0.0
H779 H 0.12466 0.17404 0.02086 0.0
H780 H 0.03787 0.12758 0.02099 0.0
H781 H 0.02174 0.15695 0.97669 0.0
C782 C 0.05306 0.20228 0.95031 0.0
C783 C 0.07166 0.22577 0.93902 0.0
C784 C 0.06349 0.1831 0.97362 0.0
C785 C 0.10144 0.229 0.95031 0.0
C786 C 0.11205 0.20993 0.97351 0.0
C787 C 0.10248 0.16978 0.0108 0.0
C788 C 0.08244 0.1487 0.02441 0.0
C789 C 0.09304 0.18729 0.98574 0.0
C790 C 0.0537 0.14372 0.01112 0.0
C791 C 0.04438 0.16063 0.98586 0.0
H792 H 0.27259 0.08495 0.26549 0.0
H793 H 0.32561 0.12148 0.19131 0.0
H794 H 0.27895 0.13546 0.1644 0.0
H795 H 0.22397 0.12922 0.1583 0.0
H796 H 0.17108 0.08915 0.23092 0.0
H797 H 0.21681 0.08489 0.26218 0.0
C798 C 0.2739 0.09677 0.24384 0.0
C799 C 0.30237 0.10187 0.23017 0.0
C800 C 0.24703 0.10352 0.22794 0.0
C801 C 0.30385 0.11713 0.20212 0.0
C802 C 0.27721 0.12493 0.18665 0.0
C803 C 0.22228 0.11995 0.18112 0.0
C804 C 0.19422 0.10885 0.19191 0.0
C805 C 0.24875 0.11689 0.19871 0.0
C806 C 0.19246 0.0974 0.22178 0.0
C807 C 0.21862 0.09494 0.23972 0.0
H808 H 0.14893 0.02448 0.48832 0.0
H809 H 0.15763 0.07823 0.40666 0.0
H810 H 0.14947 0.03278 0.37539 0.0
H811 H 0.14771 0.97709 0.37163 0.0
H812 H 0.1444 0.92304 0.45368 0.0
H813 H 0.14269 0.96926 0.48451 0.0
C814 C 0.14808 0.02634 0.46369 0.0
C815 C 0.1538 0.05447 0.44969 0.0
C816 C 0.14509 -4e-05 0.44598 0.0
C817 C 0.15321 0.05666 0.4178 0.0
C818 C 0.14881 0.03069 0.39998 0.0
C819 C 0.14616 0.97543 0.39623 0.0
C820 C 0.14662 0.94672 0.41037 0.0
C821 C 0.14603 0.00206 0.41385 0.0
C822 C 0.14459 0.94491 0.44227 0.0
C823 C 0.14349 0.9713 0.45992 0.0
H824 H 0.19503 0.89453 0.74187 0.0
H825 H 0.14784 0.90354 0.65612 0.0
H826 H 0.19043 0.87928 0.62976 0.0
H827 H 0.2445 0.86548 0.63007 0.0
H828 H 0.29351 0.8623 0.71521 0.0
H829 H 0.24663 0.87355 0.743 0.0
C830 C 0.19374 0.89047 0.71753 0.0
C831 C 0.16867 0.90127 0.70083 0.0
C832 C 0.21882 0.87778 0.70242 0.0
C833 C 0.16715 0.89575 0.66936 0.0
C834 C 0.19153 0.88197 0.65428 0.0
C835 C 0.24467 0.86619 0.65477 0.0
C836 C 0.27237 0.86343 0.67062 0.0
C837 C 0.21805 0.87432 0.6704 0.0
C838 C 0.27241 0.86464 0.70259 0.0
C839 C 0.24568 0.87125 0.71843 0.0
H840 H 0.34412 0.95888 0.00675 0.0
H841 H 0.33131 0.9018 0.92773 0.0
H842 H 0.3422 0.94499 0.89437 0.0
H843 H 0.34716 0.00039 0.88799 0.0
H844 H 0.3561 0.05763 0.9676 0.0
H845 H 0.35489 0.01297 0.00035 0.0
C846 C 0.3445 0.9557 0.98224 0.0
C847 C 0.33658 0.9274 0.96966 0.0
C848 C 0.34941 0.98083 0.96329 0.0
C849 C 0.33716 0.92353 0.9379 0.0
C850 C 0.34314 0.94825 0.91883 0.0
C851 C 0.3493 0.00304 0.91247 0.0
C852 C 0.35105 0.03231 0.92535 0.0
C853 C 0.34793 0.97728 0.9313 0.0
C854 C 0.35405 0.03537 0.95711 0.0
C855 C 0.3535 0.00985 0.97589 0.0
H856 H 0.30352 0.96093 0.25283 0.0
H857 H 0.33547 0.98492 0.34267 0.0
H858 H 0.2997 0.94875 0.36532 0.0
H859 H 0.25591 0.91427 0.35975 0.0
H860 H 0.22216 0.89279 0.2699 0.0
H861 H 0.26238 0.92364 0.24708 0.0
C862 C 0.30291 0.95798 0.27734 0.0
C863 C 0.32189 0.97573 0.29607 0.0
C864 C 0.28192 0.93762 0.29021 0.0
C865 C 0.32091 0.97163 0.32778 0.0
C866 C 0.30047 0.95097 0.34075 0.0
C867 C 0.25778 0.9158 0.33516 0.0
C868 C 0.23602 0.90138 0.31655 0.0
C869 C 0.28038 0.93436 0.32221 0.0
C870 C 0.23854 0.90384 0.28472 0.0
C871 C 0.26146 0.92155 0.27166 0.0
H872 H 0.2313 0.01433 0.52393 0.0
H873 H 0.28896 0.08268 0.56468 0.0
H874 H 0.32059 0.04271 0.58769 0.0
H875 H 0.33091 0.98802 0.59676 0.0
H876 H 0.27416 0.92059 0.55285 0.0
H877 H 0.24313 0.96058 0.53035 0.0
C878 C 0.25079 0.02046 0.53789 0.0
C879 C 0.25772 0.05121 0.54298 0.0
C880 C 0.269 -0.00244 0.55036 0.0
C881 C 0.28327 0.05901 0.5606 0.0
C882 C 0.30125 0.03622 0.57374 0.0
C883 C 0.31178 0.98219 0.58221 0.0
C884 C 0.30478 0.95145 0.57653 0.0
C885 C 0.29421 0.00537 0.56889 0.0
C886 C 0.28015 0.94411 0.5574 0.0
C887 C 0.26228 0.96693 0.54462 0.0
H888 H 0.16723 0.02649 0.81805 0.0
H889 H 0.20656 0.02407 0.72801 0.0
H890 H 0.24971 0.05439 0.74562 0.0
H891 H 0.27771 0.07879 0.7871 0.0
H892 H 0.23859 0.0816 0.8773 0.0
H893 H 0.19364 0.05447 0.85892 0.0
C894 C 0.18521 0.03273 0.8023 0.0
C895 C 0.18393 0.02281 0.7719 0.0
C896 C 0.20991 0.05032 0.81254 0.0
C897 C 0.20713 0.03134 0.75159 0.0
C898 C 0.23181 0.04867 0.76162 0.0
C899 C 0.25925 0.07377 0.80273 0.0
C900 C 0.26173 0.08197 0.8336 0.0
C901 C 0.23363 0.05791 0.79213 0.0
C902 C 0.23736 0.07556 0.85341 0.0
C903 C 0.2117 0.05986 0.84297 0.0
H904 H 0.22352 0.96074 0.02247 0.0
H905 H 0.23706 0.92046 0.11106 0.0
H906 H 0.20478 0.95968 0.13409 0.0
H907 H 0.17357 0.00578 0.12894 0.0
H908 H 0.16206 0.04713 0.04049 0.0
H909 H 0.19264 0.0068 0.01735 0.0
C910 C 0.21938 0.96051 0.04682 0.0
C911 C 0.23256 0.93779 0.06509 0.0
C912 C 0.20112 0.98318 0.05983 0.0
C913 C 0.22718 0.93782 0.09659 0.0
C914 C 0.20869 0.96016 0.10972 0.0
C915 C 0.17746 0.00578 0.10455 0.0
C916 C 0.16544 0.02927 0.0864 0.0
C917 C 0.19558 0.98294 0.09153 0.0
C918 C 0.17109 0.02927 0.05492 0.0
C919 C 0.18858 0.00627 0.04169 0.0
H920 H 0.17665 0.30481 0.08442 0.0
H921 H 0.10255 0.30533 0.01972 0.0
H922 H 0.0768 0.26519 0.04813 0.0
H923 H 0.07995 0.22436 0.0857 0.0
H924 H 0.15612 0.22087 0.14775 0.0
H925 H 0.17587 0.26852 0.12687 0.0
C926 C 0.1546 0.29651 0.07691 0.0
C927 C 0.1418 0.30749 0.04976 0.0
C928 C 0.14024 0.27298 0.09298 0.0
C929 C 0.11306 0.29688 0.04039 0.0
C930 C 0.09829 0.27396 0.05662 0.0
C931 C 0.10022 0.23465 0.09546 0.0
C932 C 0.11677 0.21909 0.11797 0.0
C933 C 0.11227 0.26104 0.08223 0.0
C934 C 0.14315 0.23247 0.13025 0.0
C935 C 0.1546 0.25951 0.11811 0.0
H936 H 0.6791 0.16663 0.90275 0.0
H937 H 0.77012 0.20113 0.88876 0.0
H938 H 0.74948 0.24736 0.86594 0.0
H939 H 0.70589 0.28158 0.85974 0.0
H940 H 0.61486 0.24786 0.87579 0.0
H941 H 0.63519 0.19755 0.88746 0.0
C942 C 0.69441 0.18393 0.89396 0.0
C943 C 0.72599 0.18094 0.89814 0.0
C944 C 0.68239 0.21079 0.88169 0.0
C945 C 0.74566 0.20318 0.8862 0.0
C946 C 0.73388 0.2297 0.87332 0.0
C947 C 0.69046 0.26307 0.86524 0.0
C948 C 0.65905 0.26865 0.8678 0.0
C949 C 0.70231 0.23439 0.87253 0.0
C950 C 0.63922 0.24428 0.8741 0.0
C951 C 0.65082 0.21551 0.88092 0.0
H952 H 0.01462 0.47407 0.25275 0.0
H953 H 0.0819 0.43142 0.19526 0.0
H954 H 0.04143 0.40652 0.16584 0.0
H955 H 0.98682 0.39741 0.15656 0.0
H956 H 0.92008 0.443 0.21264 0.0
H957 H 0.96057 0.46652 0.2425 0.0
C958 C 0.0204 0.45916 0.23388 0.0
C959 C 0.051 0.45424 0.22623 0.0
C960 C -0.00282 0.4457 0.21677 0.0
C961 C 0.05835 0.43537 0.20149 0.0
C962 C 0.03528 0.42121 0.18472 0.0
C963 C 0.98122 0.41249 0.17533 0.0
C964 C 0.9506 0.41846 0.18246 0.0
C965 C 0.00461 0.42629 0.19214 0.0
C966 C 0.94353 0.43826 0.2066 0.0
C967 C 0.96663 0.45159 0.22377 0.0
H968 H 0.74841 0.79023 0.48878 0.0
H969 H 0.83523 0.83217 0.5082 0.0
H970 H 0.86071 0.79536 0.475 0.0
H971 H 0.85841 0.75015 0.44204 0.0
H972 H 0.77163 0.70718 0.42447 0.0
H973 H 0.74597 0.74578 0.45517 0.0
C974 C 0.7729 0.79138 0.48568 0.0
C975 C 0.78995 0.81379 0.50094 0.0
C976 C 0.78736 0.77005 0.46684 0.0
C977 C 0.82165 0.81501 0.49676 0.0
C978 C 0.83621 0.79403 0.47775 0.0
C979 C 0.83384 0.74947 0.44458 0.0
C980 C 0.81695 0.72586 0.43094 0.0
C981 C 0.8193 0.77134 0.46283 0.0
C982 C 0.78516 0.72507 0.43479 0.0
C983 C 0.77047 0.74709 0.45239 0.0
H984 H 0.91731 0.00028 0.1517 0.0
H985 H 0.97618 0.92711 0.18048 0.0
H986 H 0.02012 0.95325 0.1584 0.0
H987 H 0.04244 0.00072 0.13906 0.0
H988 H 0.98318 0.07424 0.11124 0.0
H989 H 0.93874 0.0437 0.124 0.0
C990 C 0.93968 0.98981 0.15258 0.0
C991 C 0.94373 0.96224 0.16821 0.0
C992 C 0.9648 0.0051 0.14019 0.0
C993 C 0.97263 0.94852 0.16876 0.0
C994 C -0.00224 0.96351 0.15627 0.0
C995 C 0.01983 0.00986 0.13508 0.0
C996 C 0.01627 0.04011 0.12506 0.0
C997 C -0.00574 0.99243 0.14312 0.0
C998 C 0.98672 0.05125 0.11946 0.0
C999 C 0.9612 0.03386 0.12691 0.0
H1000 H 0.37751 0.67123 0.53744 0.0
H1001 H 0.28463 0.66905 0.56966 0.0
H1002 H 0.29432 0.71331 0.60177 0.0
H1003 H 0.32609 0.75759 0.61304 0.0
H1004 H 0.41824 0.76152 0.57895 0.0
H1005 H 0.41222 0.7112 0.55604 0.0
C1006 C 0.35963 0.68003 0.55205 0.0
C1007 C 0.33023 0.66741 0.55067 0.0
C1008 C 0.36515 0.70595 0.56995 0.0
C1009 C 0.30734 0.67873 0.56996 0.0
C1010 C 0.31283 0.70408 0.58829 0.0
C1011 C 0.34511 0.74713 0.6012 0.0
C1012 C 0.37227 0.76356 0.59704 0.0
C1013 C 0.34119 0.71869 0.5873 0.0
C1014 C 0.39695 0.74947 0.58225 0.0
C1015 C 0.39344 0.72079 0.56889 0.0
H1016 H 0.06248 0.59643 0.29608 0.0
H1017 H 0.04154 0.5183 0.35195 0.0
H1018 H 0.99372 0.54184 0.36758 0.0
H1019 H 0.95538 0.58179 0.36069 0.0
H1020 H 0.97629 0.66086 0.30654 0.0
H1021 H 0.02678 0.63981 0.29474 0.0
C1022 C 0.04771 0.58487 0.31215 0.0
C1023 C 0.05526 0.55553 0.32254 0.0
C1024 C 0.02013 0.59844 0.32087 0.0
C1025 C 0.03615 0.54087 0.34357 0.0
C1026 C 0.0087 0.55419 0.35233 0.0
C1027 C 0.97117 0.59442 0.34647 0.0
C1028 C 0.96225 0.62237 0.3339 0.0
C1029 C 4e-05 0.58245 0.34031 0.0
C1030 C 0.98285 0.6391 0.31615 0.0
C1031 C 0.01158 0.62708 0.30944 0.0
H1032 H 0.44845 0.49221 0.80743 0.0
H1033 H 0.40351 0.40527 0.79783 0.0
H1034 H 0.44706 0.37984 0.82138 0.0
H1035 H 0.50024 0.38174 0.8383 0.0
H1036 H 0.54586 0.46868 0.84566 0.0
H1037 H 0.49949 0.49468 0.82977 0.0
C1038 C 0.44798 0.46776 0.81095 0.0
C1039 C 0.42308 0.45056 0.80054 0.0
C1040 C 0.47331 0.45326 0.82386 0.0
C1041 C 0.42261 0.41895 0.80545 0.0
C1042 C 0.44752 0.40439 0.81882 0.0
C1043 C 0.49992 0.40641 0.837 0.0
C1044 C 0.52668 0.42315 0.84265 0.0
C1045 C 0.47338 0.42122 0.82716 0.0
C1046 C 0.52574 0.45515 0.84102 0.0
C1047 C 0.49923 0.47008 0.83188 0.0
H1048 H 0.92914 0.7332 0.68927 0.0
H1049 H 0.94343 0.82077 0.64701 0.0
H1050 H 0.9065 0.84385 0.68173 0.0
H1051 H 0.87603 0.84027 0.72804 0.0
H1052 H 0.86442 0.75321 0.77242 0.0
H1053 H 0.89365 0.72856 0.73208 0.0
C1054 C 0.92393 0.75728 0.68745 0.0
C1055 C 0.93936 0.77543 0.66606 0.0
C1056 C 0.90311 0.77041 0.70773 0.0
C1057 C 0.93208 0.80646 0.66358 0.0
C1058 C 0.91097 0.81962 0.68338 0.0
C1059 C 0.87921 0.81577 0.72863 0.0
C1060 C 0.86854 0.79873 0.75363 0.0
C1061 C 0.89712 0.80198 0.70614 0.0
C1062 C 0.87266 0.76697 0.75368 0.0
C1063 C 0.8896 0.75288 0.73075 0.0
H1064 H 0.98539 0.19277 0.47404 0.0
H1065 H 0.89642 0.19464 0.43208 0.0
H1066 H 0.87325 0.17753 0.47964 0.0
H1067 H 0.87788 0.1666 0.53391 0.0
H1068 H 0.96665 0.16703 0.57658 0.0
H1069 H 0.99037 0.17843 0.52768 0.0
C1070 C 0.96097 0.18908 0.47523 0.0
C1071 C 0.94257 0.19516 0.44979 0.0
C1072 C 0.94779 0.17984 0.50272 0.0
C1073 C 0.911 0.19026 0.45151 0.0
C1074 C 0.89775 0.18053 0.47866 0.0
C1075 C 0.90246 0.16878 0.53253 0.0
C1076 C 0.92041 0.16629 0.55894 0.0
C1077 C 0.91587 0.17593 0.50455 0.0
C1078 C 0.95225 0.16913 0.55665 0.0
C1079 C 0.96584 0.17567 0.52872 0.0
H1080 H 0.6059 0.20945 0.18921 0.0
H1081 H 0.56424 0.12425 0.16319 0.0
H1082 H 0.59227 0.09795 0.20347 0.0
H1083 H 0.62286 0.10071 0.25019 0.0
H1084 H 0.6621 0.18666 0.27769 0.0
H1085 H 0.64134 0.21099 0.23226 0.0
C1086 C 0.60328 0.18505 0.19209 0.0
C1087 C 0.58269 0.16888 0.17365 0.0
C1088 C 0.61901 0.17024 0.21558 0.0
C1089 C 0.57976 0.13723 0.17735 0.0
C1090 C 0.59575 0.1222 0.20038 0.0
C1091 C 0.6276 0.12457 0.24582 0.0
C1092 C 0.64369 0.14194 0.26745 0.0
C1093 C 0.61467 0.13866 0.22023 0.0
C1094 C 0.64951 0.17287 0.26152 0.0
C1095 C 0.63752 0.18684 0.23564 0.0
H1096 H 0.48736 0.80464 0.93624 0.0
H1097 H 0.57342 0.76034 0.91905 0.0
H1098 H 0.59818 0.79309 0.95673 0.0
H1099 H 0.59437 0.83118 -0.00251 0.0
H1100 H 0.5076 0.87323 0.01669 0.0
H1101 H 0.4842 0.84487 0.97485 0.0
C1102 C 0.51159 0.80232 0.94057 0.0
C1103 C 0.5285 0.77996 0.92511 0.0
C1104 C 0.52554 0.82088 0.96254 0.0
C1105 C 0.55987 0.77726 0.93085 0.0
C1106 C 0.57405 0.79599 0.95235 0.0
C1107 C 0.5705 0.83466 0.99207 0.0
C1108 C 0.55272 0.85427 0.01013 0.0
C1109 C 0.55699 0.81751 0.9687 0.0
C1110 C 0.52172 0.8582 0.00313 0.0
C1111 C 0.50831 0.8419 0.97933 0.0
H1112 H 0.96864 0.20599 0.84473 0.0
H1113 H 0.94869 0.29641 0.81175 0.0
H1114 H 0.91404 0.27537 0.77376 0.0
H1115 H 0.89573 0.23112 0.74521 0.0
H1116 H 0.9158 0.14054 0.7776 0.0
H1117 H 0.94335 0.16182 0.82102 0.0
C1118 C 0.95628 0.22106 0.82955 0.0
C1119 C 0.96166 0.25258 0.83054 0.0
C1120 C 0.9365 0.2088 0.80761 0.0
C1121 C 0.94517 0.27198 0.81116 0.0
C1122 C 0.9254 0.25999 0.78938 0.0
C1123 C 0.90557 0.21605 0.76215 0.0
C1124 C 0.90427 0.18437 0.75792 0.0
C1125 C 0.92182 0.2284 0.78668 0.0
C1126 C 0.91659 0.16506 0.78029 0.0
C1127 C 0.93261 0.1772 0.80498 0.0
H1128 H 0.53394 0.15443 0.53722 0.0
H1129 H 0.61396 0.18201 0.58725 0.0
H1130 H 0.64653 0.16351 0.54593 0.0
H1131 H 0.65168 0.14511 0.49288 0.0
H1132 H 0.57067 0.1213 0.44235 0.0
H1133 H 0.53915 0.13259 0.48652 0.0
C1134 C 0.55853 0.15587 0.53938 0.0
C1135 C 0.57153 0.16972 0.56512 0.0
C1136 C 0.57695 0.14623 0.51519 0.0
C1137 C 0.60342 0.17149 0.56756 0.0
C1138 C 0.62204 0.16108 0.54387 0.0
C1139 C 0.62719 0.14199 0.49178 0.0
C1140 C 0.61349 0.13278 0.46431 0.0
C1141 C 0.609 0.14929 0.51714 0.0
C1142 C 0.58171 0.12885 0.46311 0.0
C1143 C 0.56365 0.13521 0.48837 0.0
H1144 H 0.52491 0.84686 0.30643 0.0
H1145 H 0.56963 0.76291 0.28148 0.0
H1146 H 0.59018 0.787 0.23585 0.0
H1147 H 0.58902 0.82935 0.19967 0.0
H1148 H 0.54429 0.91335 0.22392 0.0
H1149 H 0.53041 0.89197 0.27358 0.0
C1150 C 0.53966 0.83406 0.29129 0.0
C1151 C 0.54532 0.80305 0.29691 0.0
C1152 C 0.55106 0.84794 0.26492 0.0
C1153 C 0.56477 0.78676 0.27745 0.0
C1154 C 0.57639 0.80046 0.25129 0.0
C1155 C 0.57664 0.84309 0.21608 0.0
C1156 C 0.56712 0.87256 0.20818 0.0
C1157 C 0.56866 0.83061 0.24425 0.0
C1158 C 0.55169 0.89052 0.22964 0.0
C1159 C 0.54363 0.87824 0.25787 0.0
H1160 H 0.97086 0.83066 0.02388 0.0
H1161 H 0.88843 0.83986 0.07659 0.0
H1162 H 0.85985 0.85216 0.0304 0.0
H1163 H 0.85702 0.85151 0.9745 0.0
H1164 H 0.93927 0.83808 0.92215 0.0
H1165 H 0.96915 0.83606 0.96879 0.0
C1166 C 0.9468 0.83614 0.02539 0.0
C1167 C 0.93163 0.83389 0.0534 0.0
C1168 C 0.93034 0.84168 -0.00129 0.0
C1169 C 0.90052 0.84122 0.05513 0.0
C1170 C 0.88413 0.84797 0.02872 0.0
C1171 C 0.88152 0.84857 0.97329 0.0
C1172 C 0.89578 0.84424 0.94496 0.0
C1173 C 0.89856 0.84679 0.00025 0.0
C1174 C 0.92761 0.84076 0.94373 0.0
C1175 C 0.94478 0.83976 0.97036 0.0
H1176 H 0.64836 0.92928 0.79601 0.0
H1177 H 0.68714 0.9378 0.70613 0.0
H1178 H 0.73103 0.90751 0.72173 0.0
H1179 H 0.76196 0.88649 0.76299 0.0
H1180 H 0.72425 0.88035 0.85367 0.0
H1181 H 0.67624 0.90136 0.83549 0.0
C1182 C 0.66606 0.92386 0.77965 0.0
C1183 C 0.66486 0.9362 0.7502 0.0
C1184 C 0.69166 0.90724 0.78902 0.0
C1185 C 0.68779 0.92884 0.72911 0.0
C1186 C 0.71296 0.91164 0.73803 0.0
C1187 C 0.7431 0.8892 0.77872 0.0
C1188 C 0.74705 0.88259 0.80981 0.0
C1189 C 0.71576 0.90197 0.76831 0.0
C1190 C 0.72211 0.88577 0.8297 0.0
C1191 C 0.6946 0.89784 0.81936 0.0
H1192 H 0.81045 0.96361 0.55385 0.0
H1193 H 0.79242 0.92815 0.64368 0.0
H1194 H 0.81518 0.97364 0.66653 0.0
H1195 H 0.8355 0.02539 0.66075 0.0
H1196 H 0.85103 0.06159 0.57061 0.0
H1197 H 0.8341 0.01369 0.54811 0.0
C1198 C 0.81188 0.96563 0.57844 0.0
C1199 C 0.79961 0.94272 0.59707 0.0
C1200 C 0.82431 0.99205 0.59133 0.0
C1201 C 0.80164 0.94559 0.62887 0.0
C1202 C 0.81455 0.97161 0.64193 0.0
C1203 C 0.83561 0.02269 0.63619 0.0
C1204 C 0.84424 0.04718 0.61741 0.0
C1205 C 0.82526 -0.0047 0.62335 0.0
C1206 C 0.84421 0.04324 0.58562 0.0
C1207 C 0.83453 0.01585 0.57271 0.0
H1208 H 0.83905 0.98888 0.3148 0.0
H1209 H 0.81684 0.02233 0.2251 0.0
H1210 H 0.77985 0.05756 0.24695 0.0
H1211 H 0.74952 0.07423 0.29074 0.0
H1212 H 0.77172 0.04149 0.38065 0.0
H1213 H 0.81346 0.01115 0.35964 0.0
C1214 C 0.82643 0.00423 0.30013 0.0
C1215 C 0.8303 0.00269 0.26837 0.0
C1216 C 0.80515 0.02449 0.31286 0.0
C1217 C 0.81413 0.02295 0.24961 0.0
C1218 C 0.7929 0.04305 0.26207 0.0
C1219 C 0.76388 0.06091 0.3058 0.0
C1220 C 0.75733 0.05979 0.33711 0.0
C1221 C 0.78758 0.04334 0.29355 0.0
C1222 C 0.77634 0.04277 0.35645 0.0
C1223 C 0.80003 0.02519 0.34441 0.0
H1224 H 0.67858 0.04897 0.97383 0.0
H1225 H 0.70313 0.09457 0.05744 0.0
H1226 H 0.67119 0.05942 0.08637 0.0
H1227 H 0.64125 0.01237 0.08841 0.0
H1228 H 0.6194 0.96485 0.00508 0.0
H1229 H 0.64488 0.00441 0.97549 0.0
C1230 C 0.67659 0.05145 -0.00166 0.0
C1231 C 0.69341 0.07406 0.01354 0.0
C1232 C 0.65876 0.03076 0.01488 0.0
C1233 C 0.69059 0.07712 0.04527 0.0
C1234 C 0.67235 0.05704 0.06182 0.0
C1235 C 0.64146 0.01101 0.06374 0.0
C1236 C 0.62868 0.98559 0.04899 0.0
C1237 C 0.65701 0.03328 0.04695 0.0
C1238 C 0.62931 0.98407 0.017 0.0
C1239 C 0.64396 0.00662 7e-05 0.0
H1240 H 0.6665 0.09711 0.69351 0.0
H1241 H 0.6999 0.05574 0.77615 0.0
H1242 H 0.74863 0.08172 0.77011 0.0
H1243 H 0.78418 0.1087 0.73669 0.0
H1244 H 0.75102 0.14886 0.65323 0.0
H1245 H 0.69965 0.13146 0.66468 0.0
C1246 C 0.68425 0.0943 0.71048 0.0
C1247 C 0.67998 0.07406 0.73477 0.0
C1248 C 0.71236 0.10888 0.70662 0.0
C1249 C 0.70288 0.07094 0.75696 0.0
C1250 C 0.73078 0.08571 0.7535 0.0
C1251 C 0.76561 0.11433 0.72139 0.0
C1252 C 0.7716 0.12923 0.69375 0.0
C1253 C 0.73621 0.10364 0.7277 0.0
C1254 C 0.74717 0.13675 0.67437 0.0
C1255 C 0.71775 0.12676 0.68082 0.0
H1256 H 0.7025 0.90988 0.46154 0.0
H1257 H 0.67385 0.95877 0.54193 0.0
H1258 H 0.65373 -0.00026 0.51026 0.0
H1259 H 0.65198 0.02497 0.46074 0.0
H1260 H 0.6826 0.97741 0.38035 0.0
H1261 H 0.69359 0.93219 0.41096 0.0
C1262 C 0.69132 0.92923 0.47207 0.0
C1263 C 0.6902 0.93168 0.50398 0.0
C1264 C 0.68037 0.95297 0.45376 0.0
C1265 C 0.6753 0.9566 0.51739 0.0
C1266 C 0.66387 0.98006 0.49932 0.0
C1267 C 0.66054 0.00449 0.44983 0.0
C1268 C 0.66712 0.00465 0.41852 0.0
C1269 C 0.66749 0.97902 0.46762 0.0
C1270 C 0.67754 0.97785 0.40449 0.0
C1271 C 0.68405 0.9521 0.42201 0.0
H1272 H 0.77234 0.90946 0.22408 0.0
H1273 H 0.82007 0.88302 0.1424 0.0
H1274 H 0.77205 0.88319 0.11394 0.0
H1275 H 0.71732 0.89519 0.11155 0.0
H1276 H 0.67085 0.92476 0.19317 0.0
H1277 H 0.71773 0.91947 0.2222 0.0
C1278 C 0.77216 0.90305 0.20021 0.0
C1279 C 0.79961 0.8961 0.18535 0.0
C1280 C 0.74481 0.90449 0.18381 0.0
C1281 C 0.79912 0.8883 0.15432 0.0
C1282 C 0.77174 0.88868 0.13801 0.0
C1283 C 0.71741 0.90052 0.13567 0.0
C1284 C 0.69056 0.91068 0.14998 0.0
C1285 C 0.74458 0.89759 0.15235 0.0
C1286 C 0.69116 0.91722 0.18137 0.0
C1287 C 0.71795 0.91403 0.19812 0.0
H1288 H 0.80966 0.06574 0.88969 0.0
H1289 H 0.82214 0.0363 0.98263 0.0
H1290 H 0.83985 0.98665 0.9648 0.0
H1291 H 0.84428 0.94967 0.92328 0.0
H1292 H 0.82997 0.97863 0.83038 0.0
H1293 H 0.82089 0.03065 0.84776 0.0
C1294 C 0.81683 0.04865 0.90602 0.0
C1295 C 0.81412 0.05437 0.93739 0.0
C1296 C 0.8263 0.02002 0.89565 0.0
C1297 C 0.82384 0.03228 0.95834 0.0
C1298 C 0.83379 0.00385 0.94818 0.0
C1299 C 0.83956 0.96743 0.90678 0.0
C1300 C 0.83712 0.96018 0.87567 0.0
C1301 C 0.83389 -0.00288 0.91694 0.0
C1302 C 0.83169 0.98355 0.8545 0.0
C1303 C 0.82637 0.01328 0.86442 0.0
H1304 H 0.72238 0.70319 0.94883 0.0
H1305 H 0.80729 0.6705 0.98612 0.0
H1306 H 0.83565 0.70382 0.95172 0.0
H1307 H 0.83608 0.74486 0.91376 0.0
H1308 H 0.75102 0.77971 0.87899 0.0
H1309 H 0.72287 0.74237 0.90919 0.0
C1310 C 0.7471 0.70328 0.94935 0.0
C1311 C 0.76274 0.68468 0.97013 0.0
C1312 C 0.76318 0.72267 0.92978 0.0
C1313 C 0.79475 0.68487 0.97048 0.0
C1314 C 0.81097 0.70381 0.95075 0.0
C1315 C 0.81143 0.74373 0.91226 0.0
C1316 C 0.79558 0.76479 0.89414 0.0
C1317 C 0.7954 0.72307 0.93059 0.0
C1318 C 0.76363 0.76359 0.89279 0.0
C1319 C 0.74755 0.74243 0.91018 0.0
H1320 H 0.28221 0.78493 0.08997 0.0
H1321 H 0.37194 0.81325 0.06152 0.0
H1322 H 0.3926 0.76367 0.0763 0.0
H1323 H 0.38364 0.71036 0.09086 0.0
H1324 H 0.29294 0.6817 0.1162 0.0
H1325 H 0.27422 0.73341 0.10907 0.0
C1326 C 0.30641 0.78049 0.08757 0.0
C1327 C 0.32548 0.80252 0.0744 0.0
C1328 C 0.31785 0.75171 0.09507 0.0
C1329 C 0.35679 0.79653 0.0715 0.0
C1330 C 0.36856 0.76814 0.07975 0.0
C1331 C 0.35987 0.7155 0.09522 0.0
C1332 C 0.33964 0.69207 0.10355 0.0
C1333 C 0.34907 0.7452 0.09051 0.0
C1334 C 0.30893 0.69918 0.10927 0.0
C1335 C 0.29818 0.72877 0.10528 0.0
H1336 H 0.92085 0.60415 0.7974 0.0
H1337 H 0.9473 0.51228 0.82042 0.0
H1338 H 0.99102 0.53159 0.84874 0.0
H1339 H 0.02535 0.57361 0.86046 0.0
H1340 H 0.00087 0.66553 0.83604 0.0
H1341 H 0.95228 0.64727 0.8153 0.0
C1342 C 0.93587 0.58844 0.80913 0.0
C1343 C 0.93123 0.55683 0.80642 0.0
C1344 C 0.96136 0.59968 0.82487 0.0
C1345 C 0.95065 0.53669 0.82188 0.0
C1346 C 0.97568 0.54769 0.83802 0.0
C1347 C 0.00915 0.58971 0.851 0.0
C1348 C 0.01679 0.62072 0.84917 0.0
C1349 C 0.98183 0.579 0.83863 0.0
C1350 C -0.00455 0.6415 0.83753 0.0
C1351 C 0.96783 0.63103 0.82548 0.0
H1352 H 0.12167 0.17865 0.54538 0.0
H1353 H 0.21074 0.1856 0.58651 0.0
H1354 H 0.19938 0.23728 0.60349 0.0
H1355 H 0.1674 0.28299 0.59915 0.0
H1356 H 0.0786 0.27605 0.55733 0.0
H1357 H 0.0866 0.22189 0.54815 0.0
C1358 C 0.13826 0.19118 0.55878 0.0
C1359 C 0.16717 0.17865 0.56415 0.0
C1360 C 0.1319 0.22113 0.56774 0.0
C1361 C 0.18838 0.19493 0.58184 0.0
C1362 C 0.18202 0.22458 0.59131 0.0
C1363 C 0.14972 0.26951 0.58831 0.0
C1364 C 0.12279 0.28356 0.57833 0.0
C1365 C 0.15444 0.23838 0.58308 0.0
C1366 C 0.0997 0.26578 0.56498 0.0
C1367 C 0.10423 0.23481 0.55968 0.0
H1368 H 0.0541 0.88753 0.78826 0.0
H1369 H 0.03058 0.98024 0.81101 0.0
H1370 H 0.98009 0.96373 0.82755 0.0
H1371 H 0.9409 0.92385 0.82994 0.0
H1372 H 0.9645 0.83118 0.80698 0.0
H1373 H 0.01673 0.84681 0.79605 0.0
C1374 C 0.03813 0.90402 0.79742 0.0
C1375 C 0.04586 0.93506 0.7981 0.0
C1376 C 0.00901 0.89447 0.80632 0.0
C1377 C 0.02509 0.95619 0.81021 0.0
C1378 C -0.00386 0.94681 0.81942 0.0
C1379 C 0.95753 0.90709 0.82265 0.0
C1380 C 0.94878 0.87655 0.81875 0.0
C1381 C 0.98753 0.91618 0.81656 0.0
C1382 C 0.97067 0.8549 0.80996 0.0
C1383 C 0.00052 0.8638 0.8037 0.0
H1384 H 0.77994 0.27671 0.4372 0.0
H1385 H 0.69859 0.32776 0.41613 0.0
H1386 H 0.67574 0.28257 0.39306 0.0
H1387 H 0.67673 0.22765 0.38411 0.0
H1388 H 0.75723 0.17593 0.40722 0.0
H1389 H 0.78268 0.22246 0.42386 0.0
C1390 C 0.75739 0.27804 0.42714 0.0
C1391 C 0.74082 0.30538 0.42864 0.0
C1392 C 0.74415 0.25183 0.41449 0.0
C1393 C 0.7117 0.30687 0.41544 0.0
C1394 C 0.69859 0.28103 0.40231 0.0
C1395 C 0.69999 0.22651 0.39238 0.0
C1396 C 0.71482 0.1982 0.39482 0.0
C1397 C 0.71428 0.25322 0.40251 0.0
C1398 C 0.7451 0.19733 0.40536 0.0
C1399 C 0.75968 0.22393 0.41497 0.0
H1400 H 0.96004 0.5266 0.67351 0.0
H1401 H 0.90386 0.44598 0.66901 0.0
H1402 H 0.94054 0.42177 0.63505 0.0
H1403 H 0.99142 0.42068 0.61337 0.0
H1404 H 0.05003 0.49935 0.6215 0.0
H1405 H 0.00907 0.52757 0.64641 0.0
C1406 C 0.95568 0.50392 0.66469 0.0
C1407 C 0.92969 0.48782 0.6741 0.0
C1408 C 0.97726 0.48982 0.64585 0.0
C1409 C 0.92405 0.45857 0.66242 0.0
C1410 C 0.94493 0.44476 0.64297 0.0
C1411 C -0.00488 0.44424 0.61989 0.0
C1412 C 0.02396 0.45765 0.61617 0.0
C1413 C 0.97209 0.45976 0.63547 0.0
C1414 C 0.02815 0.48832 0.6245 0.0
C1415 C 0.00482 0.50441 0.63894 0.0
H1416 H 0.54232 0.4711 0.18654 0.0
H1417 H 0.58309 0.5598 0.19864 0.0
H1418 H 0.54253 0.58287 0.16837 0.0
H1419 H 0.49261 0.57863 0.14441 0.0
H1420 H 0.44958 0.49053 0.13574 0.0
H1421 H 0.49441 0.46627 0.15808 0.0
C1422 C 0.54252 0.49542 0.18219 0.0
C1423 C 0.56534 0.51383 0.19509 0.0
C1424 C 0.51878 0.50859 0.16542 0.0
C1425 C 0.5655 0.54525 0.1892 0.0
C1426 C 0.54237 0.55843 0.17188 0.0
C1427 C 0.49324 0.55403 0.1467 0.0
C1428 C 0.46763 0.53645 0.13876 0.0
C1429 C 0.51845 0.54044 0.16069 0.0
C1430 C 0.4689 0.50461 0.14194 0.0
C1431 C 0.49444 0.49075 0.15486 0.0
H1432 H 0.56629 0.67184 0.81331 0.0
H1433 H 0.47797 0.63062 0.80039 0.0
H1434 H 0.49709 0.60245 0.75631 0.0
H1435 H 0.53627 0.59683 0.71656 0.0
H1436 H 0.62219 0.64327 0.72652 0.0
H1437 H 0.6071 0.66167 0.77692 0.0
C1438 C 0.55146 0.65611 0.8013 0.0
C1439 C 0.52074 0.65353 0.80976 0.0
C1440 C 0.56223 0.6411 0.77529 0.0
C1441 C 0.50169 0.63314 0.79403 0.0
C1442 C 0.51257 0.61712 0.7688 0.0
C1443 C 0.55194 0.61011 0.73036 0.0
C1444 C 0.58025 0.61867 0.71832 0.0
C1445 C 0.54242 0.62194 0.75848 0.0
C1446 C 0.60032 0.63643 0.73573 0.0
C1447 C 0.59162 0.64707 0.76434 0.0
H1448 H 0.52152 0.29234 0.03822 0.0
H1449 H 0.61134 0.26529 0.06775 0.0
H1450 H 0.63402 0.29284 0.02503 0.0
H1451 H 0.62781 0.32006 0.9768 0.0
H1452 H 0.53762 0.34452 0.94584 0.0
H1453 H 0.51558 0.32266 0.99189 0.0
C1454 C 0.54609 0.29284 0.03555 0.0
C1455 C 0.56476 0.27667 0.0559 0.0
C1456 C 0.55885 0.30802 0.0106 0.0
C1457 C 0.59653 0.27748 0.05223 0.0
C1458 C 0.60948 0.29315 0.0278 0.0
C1459 C 0.60336 0.32104 0.98028 0.0
C1460 C 0.58437 0.33364 0.95775 0.0
C1461 C 0.59078 0.30782 0.00644 0.0
C1462 C 0.55274 0.33468 0.96267 0.0
C1463 C 0.5401 0.32218 0.98898 0.0
H1464 H 0.8992 0.28605 0.31495 0.0
H1465 H 0.97211 0.24024 0.26757 0.0
H1466 H 0.95043 0.25512 0.21868 0.0
H1467 H 0.91508 0.2863 0.19007 0.0
H1468 H 0.84544 0.33758 0.23683 0.0
H1469 H 0.86087 0.31473 0.28529 0.0
C1470 C 0.90999 0.27911 0.29383 0.0
C1471 C 0.93732 0.26256 0.29461 0.0
C1472 C 0.89798 0.28866 0.2658 0.0
C1473 C 0.9513 0.25353 0.26733 0.0
C1474 C 0.93886 0.26186 0.23943 0.0
C1475 C 0.9027 0.29195 0.21069 0.0
C1476 C 0.87933 0.31375 0.20994 0.0
C1477 C 0.91277 0.28017 0.23845 0.0
C1478 C 0.86367 0.32094 0.23692 0.0
C1479 C 0.87262 0.30807 0.26463 0.0
H1480 H 0.00516 0.66484 0.53357 0.0
H1481 H 0.92763 0.66467 0.59391 0.0
H1482 H 0.89508 0.64619 0.55273 0.0
H1483 H 0.88693 0.64155 0.49755 0.0
H1484 H 0.96421 0.64605 0.43689 0.0
H1485 H -0.00147 0.65117 0.48016 0.0
C1486 C 0.98135 0.65982 0.53796 0.0
C1487 C 0.96859 0.66682 0.56638 0.0
C1488 C 0.96254 0.65071 0.51387 0.0
C1489 C 0.93783 0.65986 0.57197 0.0
C1490 C 0.91915 0.64956 0.54837 0.0
C1491 C 0.91133 0.64291 0.49387 0.0
C1492 C 0.92294 0.64437 0.46411 0.0
C1493 C 0.93092 0.64675 0.51883 0.0
C1494 C 0.95465 0.64574 0.45963 0.0
C1495 C 0.97433 0.64858 0.48435 0.0
H1496 H 0.59402 0.26748 0.68327 0.0
H1497 H 0.51438 0.32274 0.66702 0.0
H1498 H 0.53198 0.35988 0.70456 0.0
H1499 H 0.56602 0.37231 0.74741 0.0
H1500 H 0.6437 0.31526 0.76557 0.0
H1501 H 0.63156 0.28362 0.7213 0.0
C1502 C 0.58076 0.28787 0.68767 0.0
C1503 C 0.55273 0.29213 0.67294 0.0
C1504 C 0.59083 0.30889 0.70948 0.0
C1505 C 0.53592 0.31883 0.67842 0.0
C1506 C 0.54596 0.34008 0.69985 0.0
C1507 C 0.58086 0.35368 0.74077 0.0
C1508 C 0.60582 0.3461 0.75914 0.0
C1509 C 0.57287 0.33484 0.71622 0.0
C1510 C 0.62461 0.32152 0.75121 0.0
C1511 C 0.61745 0.30328 0.72622 0.0
H1512 H 0.02964 0.34887 0.97149 0.0
H1513 H 0.95805 0.36297 0.90556 0.0
H1514 H 0.92538 0.3845 0.94492 0.0
H1515 H 0.91385 0.38933 -0.00083 0.0
H1516 H 0.98476 0.373 0.06548 0.0
H1517 H 0.02106 0.36304 0.02483 0.0
C1518 C 0.0072 0.35743 0.96562 0.0
C1519 C -0.00408 0.35363 0.93597 0.0
C1520 C 0.98819 0.36897 0.98852 0.0
C1521 C 0.967 0.36517 0.92846 0.0
C1522 C 0.94824 0.37738 0.95096 0.0
C1523 C 0.93739 0.38431 0.00477 0.0
C1524 C 0.94624 0.3809 0.03532 0.0
C1525 C 0.95803 0.37782 0.98132 0.0
C1526 C 0.97706 0.37504 0.04213 0.0
C1527 C -0.0021 0.36926 0.01889 0.0
H1528 H 0.91497 0.78175 0.21212 0.0
H1529 H 0.89638 0.70378 0.15504 0.0
H1530 H 0.86993 0.67886 0.19701 0.0
H1531 H 0.85993 0.67584 0.25147 0.0
H1532 H 0.88162 0.75226 0.30965 0.0
H1533 H 0.89815 0.78154 0.26546 0.0
C1534 C 0.90461 0.75955 0.20874 0.0
C1535 C 0.90813 0.74429 0.18083 0.0
C1536 C 0.89015 0.74503 0.23318 0.0
C1537 C 0.89434 0.71573 0.17654 0.0
C1538 C 0.87924 0.70147 0.20051 0.0
C1539 C 0.86771 0.69911 0.2545 0.0
C1540 C 0.87033 0.7115 0.28391 0.0
C1541 C 0.87821 0.71537 0.22923 0.0
C1542 C 0.87977 0.74195 0.2873 0.0
C1543 C 0.88944 0.75867 0.26206 0.0
H1544 H 0.52107 0.7382 0.45783 0.0
H1545 H 0.56212 0.67623 0.39364 0.0
H1546 H 0.58658 0.64855 0.43569 0.0
H1547 H 0.59489 0.64152 0.49135 0.0
H1548 H 0.54993 0.70252 0.5541 0.0
H1549 H 0.52839 0.73105 0.51193 0.0
C1550 C 0.53556 0.71877 0.45296 0.0
C1551 C 0.54001 0.70933 0.42281 0.0
C1552 C 0.54869 0.70271 0.47704 0.0
C1553 C 0.55847 0.68388 0.41681 0.0
C1554 C 0.57239 0.66809 0.4408 0.0
C1555 C 0.58043 0.66109 0.49561 0.0
C1556 C 0.57384 0.66981 0.52571 0.0
C1557 C 0.56747 0.67719 0.4711 0.0
C1558 C 0.55499 0.69512 0.5311 0.0
C1559 C 0.54276 0.71157 0.50703 0.0
H1560 H 0.77564 0.56628 0.73725 0.0
H1561 H 0.83258 0.59086 0.66109 0.0
H1562 H 0.78727 0.60114 0.6302 0.0
H1563 H 0.73178 0.59682 0.62329 0.0
H1564 H 0.67597 0.56797 0.69912 0.0
H1565 H 0.7207 0.56511 0.73147 0.0
C1566 C 0.77818 0.57464 0.71414 0.0
C1567 C 0.80727 0.57772 0.70136 0.0
C1568 C 0.75225 0.57885 0.69618 0.0
C1569 C 0.81028 0.58835 0.67135 0.0
C1570 C 0.78443 0.59389 0.65362 0.0
C1571 C 0.7294 0.58995 0.64689 0.0
C1572 C 0.70059 0.58213 0.65852 0.0
C1573 C 0.75533 0.58803 0.66547 0.0
C1574 C 0.69789 0.5736 0.6893 0.0
C1575 C 0.72343 0.57218 0.70798 0.0
H1576 H 0.66689 0.52967 0.00754 0.0
H1577 H 0.67393 0.59039 0.93064 0.0
H1578 H 0.65913 0.54916 0.89624 0.0
H1579 H 0.64929 0.4948 0.88771 0.0
H1580 H 0.64462 0.43389 0.96481 0.0
H1581 H 0.65328 0.47635 -0.00058 0.0
C1582 C 0.66474 0.53398 0.9833 0.0
C1583 C 0.67171 0.56283 0.97155 0.0
C1584 C 0.65697 0.51008 0.96366 0.0
C1585 C 0.66883 0.5682 0.94014 0.0
C1586 C 0.66047 0.54465 0.92047 0.0
C1587 C 0.64978 0.49087 0.91209 0.0
C1588 C 0.64674 0.46118 0.92359 0.0
C1589 C 0.65528 0.51531 0.93191 0.0
C1590 C 0.64735 0.45648 0.95528 0.0
C1591 C 0.65225 0.48074 0.97514 0.0
H1592 H 0.67968 0.44865 0.16365 0.0
H1593 H 0.69002 0.38672 0.23928 0.0
H1594 H 0.72765 0.3575 0.21065 0.0
H1595 H 0.7636 0.35532 0.16838 0.0
H1596 H 0.75646 0.41977 0.09461 0.0
H1597 H 0.71053 0.44132 0.1175 0.0
C1598 C 0.68989 0.42851 0.17367 0.0
C1599 C 0.68279 0.42025 0.20377 0.0
C1600 C 0.71188 0.41217 0.1573 0.0
C1601 C 0.69563 0.39381 0.21633 0.0
C1602 C 0.71705 0.37706 0.19996 0.0
C1603 C 0.75141 0.37348 0.15684 0.0
C1604 C 0.76368 0.38643 0.13029 0.0
C1605 C 0.72621 0.38681 0.17098 0.0
C1606 C 0.74749 0.40949 0.11516 0.0
C1607 C 0.72152 0.42215 0.12851 0.0
H1608 H 0.81381 0.43449 0.40074 0.0
H1609 H 0.85025 0.45315 0.49018 0.0
H1610 H 0.87333 0.50007 0.47154 0.0
H1611 H 0.8755 0.53945 0.43253 0.0
H1612 H 0.8363 0.52283 0.34387 0.0
H1613 H 0.82268 0.47109 0.35922 0.0
C1614 C 0.82738 0.44852 0.41592 0.0
C1615 C 0.82985 0.44081 0.44687 0.0
C1616 C 0.83986 0.47592 0.40526 0.0
C1617 C 0.84766 0.45895 0.46633 0.0
C1618 C 0.86082 0.48578 0.45572 0.0
C1619 C 0.86449 0.52431 0.41636 0.0
C1620 C 0.85628 0.53512 0.3874 0.0
C1621 C 0.85587 0.4951 0.42563 0.0
C1622 C 0.84266 0.51509 0.36642 0.0
C1623 C 0.83463 0.48559 0.37526 0.0
H1624 H 0.8243 0.4546 0.81428 0.0
H1625 H 0.78683 0.45711 0.72338 0.0
H1626 H 0.74288 0.42765 0.74012 0.0
H1627 H 0.71245 0.40647 0.78156 0.0
H1628 H 0.74922 0.40395 0.87272 0.0
H1629 H 0.79638 0.42746 0.85475 0.0
C1630 C 0.8067 0.44831 0.7981 0.0
C1631 C 0.80854 0.4584 0.76779 0.0
C1632 C 0.78134 0.43144 0.80791 0.0
C1633 C 0.7858 0.44981 0.74692 0.0
C1634 C 0.76062 0.43301 0.75646 0.0
C1635 C 0.73096 0.41065 0.79743 0.0
C1636 C 0.72716 0.40395 0.82848 0.0
C1637 C 0.75775 0.42451 0.78706 0.0
C1638 C 0.75153 0.40898 0.84868 0.0
C1639 C 0.77842 0.42264 0.83847 0.0
H1640 H 0.80516 0.56758 0.04038 0.0
H1641 H 0.7424 0.56643 0.11597 0.0
H1642 H 0.77077 0.5245 0.13921 0.0
H1643 H 0.80902 0.48402 0.13426 0.0
H1644 H 0.86996 0.4839 0.05707 0.0
H1645 H 0.84697 0.53093 0.03849 0.0
C1646 C 0.79795 0.55845 0.06217 0.0
C1647 C 0.77151 0.56967 0.07624 0.0
C1648 C 0.81396 0.53407 0.07501 0.0
C1649 C 0.7626 0.55795 0.10462 0.0
C1650 C 0.77875 0.53394 0.11785 0.0
C1651 C 0.81779 0.49467 0.11378 0.0
C1652 C 0.84089 0.4803 0.09685 0.0
C1653 C 0.80387 0.5212 0.10273 0.0
C1654 C 0.85195 0.49436 0.07031 0.0
C1655 C 0.83877 0.52117 0.05962 0.0
H1656 H 0.68714 0.56707 0.27255 0.0
H1657 H 0.68724 0.50187 0.34605 0.0
H1658 H 0.72407 0.53296 0.37402 0.0
H1659 H 0.76004 0.57569 0.37498 0.0
H1660 H 0.76234 0.63899 0.29991 0.0
H1661 H 0.72013 0.61204 0.27545 0.0
C1662 C 0.69503 0.55981 0.29481 0.0
C1663 C 0.68482 0.53208 0.30708 0.0
C1664 C 0.71647 0.57755 0.31052 0.0
C1665 C 0.69501 0.52303 0.33602 0.0
C1666 C 0.71601 0.54081 0.35204 0.0
C1667 C 0.75071 0.58411 0.3537 0.0
C1668 C 0.7642 0.60928 0.33924 0.0
C1669 C 0.72736 0.56777 0.33921 0.0
C1670 C 0.75227 0.61963 0.31142 0.0
C1671 C 0.72832 0.60411 0.29734 0.0
H1672 H 0.70467 0.46397 0.48059 0.0
H1673 H 0.69331 0.40347 0.55717 0.0
H1674 H 0.6587 0.43979 0.58116 0.0
H1675 H 0.63677 0.49092 0.58311 0.0
H1676 H 0.64986 0.55248 0.50753 0.0
H1677 H 0.67808 0.51322 0.48015 0.0
C1678 C 0.69429 0.45858 0.50234 0.0
C1679 C 0.70185 0.4313 0.51729 0.0
C1680 C 0.67477 0.47976 0.51622 0.0
C1681 C 0.68806 0.42447 0.54533 0.0
C1682 C 0.66828 0.44523 0.55908 0.0
C1683 C 0.64522 0.49565 0.5604 0.0
C1684 C 0.64154 0.52484 0.54766 0.0
C1685 C 0.66218 0.47329 0.54512 0.0
C1686 C 0.65256 0.53035 0.51808 0.0
C1687 C 0.66887 0.50795 0.50243 0.0
H1688 H 0.73552 0.78732 0.61868 0.0
H1689 H 0.65308 0.83943 0.6066 0.0
H1690 H 0.62246 0.7944 0.61814 0.0
H1691 H 0.61953 0.73859 0.62153 0.0
H1692 H 0.70244 0.68623 0.62888 0.0
H1693 H 0.73246 0.73295 0.62961 0.0
C1694 C 0.71087 0.78903 0.61941 0.0
C1695 C 0.69653 0.81639 0.61124 0.0
C1696 C 0.6935 0.76282 0.62464 0.0
C1697 C 0.6646 0.81842 0.61248 0.0
C1698 C 0.64709 0.79264 0.61887 0.0
C1699 C 0.6441 0.73749 0.62405 0.0
C1700 C 0.65883 0.70909 0.6245 0.0
C1701 C 0.66131 0.76441 0.62338 0.0
C1702 C 0.69067 0.7079 0.62787 0.0
C1703 C 0.70785 0.73457 0.62831 0.0
H1704 H 0.23738 0.657 0.40349 0.0
H1705 H 0.31542 0.71096 0.42929 0.0
H1706 H 0.29232 0.75602 0.40605 0.0
H1707 H 0.24697 0.78112 0.38483 0.0
H1708 H 0.16864 0.72676 0.36 0.0
H1709 H 0.19513 0.68078 0.37595 0.0
C1710 C 0.24955 0.67852 0.40356 0.0
C1711 C 0.27778 0.68083 0.41847 0.0
C1712 C 0.23598 0.70432 0.39054 0.0
C1713 C 0.29354 0.70869 0.41806 0.0
C1714 C 0.28028 0.73448 0.40492 0.0
C1715 C 0.23585 0.7592 0.38236 0.0
C1716 C 0.20555 0.7576 0.37182 0.0
C1717 C 0.25103 0.73276 0.39205 0.0
C1718 C 0.19175 0.72885 0.36843 0.0
C1719 C 0.20684 0.70246 0.37764 0.0
H1720 H 0.51642 0.02369 0.67821 0.0
H1721 H 0.58109 0.96087 0.63906 0.0
H1722 H 0.54004 0.93483 0.61204 0.0
H1723 H 0.48558 0.92373 0.60845 0.0
H1724 H 0.42064 0.98449 0.6506 0.0
H1725 H 0.46197 0.01782 0.6669 0.0
C1726 C 0.52162 0.00488 0.66304 0.0
C1727 C 0.55157 0.99375 0.66113 0.0
C1728 C 0.49777 0.98928 0.64852 0.0
C1729 C 0.55809 0.96955 0.64122 0.0
C1730 C 0.5346 0.95454 0.6259 0.0
C1731 C 0.48033 0.94459 0.62063 0.0
C1732 C 0.4501 0.95103 0.62909 0.0
C1733 C 0.50425 0.96318 0.63079 0.0
C1734 C 0.44374 0.97857 0.64425 0.0
C1735 C 0.4674 -0.00235 0.65372 0.0
H1736 H 0.27517 0.31828 0.93416 0.0
H1737 H 0.18863 0.2725 0.92567 0.0
H1738 H 0.21331 0.23001 0.89919 0.0
H1739 H 0.26043 0.20359 0.88419 0.0
H1740 H 0.34678 0.2502 0.89225 0.0
H1741 H 0.32108 0.29503 0.91246 0.0
C1742 C 0.2617 0.29915 0.92612 0.0
C1743 C 0.23033 0.29811 0.93221 0.0
C1744 C 0.27599 0.27501 0.91089 0.0
C1745 C 0.2129 0.2736 0.92129 0.0
C1746 C 0.22701 0.24931 0.90628 0.0
C1747 C 0.27357 0.22374 0.88986 0.0
C1748 C 0.30555 0.22328 0.88723 0.0
C1749 C 0.25869 0.24941 0.90178 0.0
C1750 C 0.32218 0.24979 0.89418 0.0
C1751 C 0.30753 0.27541 0.90597 0.0
H1752 H 0.42957 0.50154 0.65792 0.0
H1753 H 0.40358 0.58458 0.70372 0.0
H1754 H 0.44249 0.61268 0.67563 0.0
H1755 H 0.48862 0.6117 0.6446 0.0
H1756 H 0.51646 0.52793 0.60107 0.0
H1757 H 0.4714 0.50227 0.621 0.0
C1758 C 0.43215 0.52588 0.6614 0.0
C1759 C 0.41429 0.54089 0.68327 0.0
C1760 C 0.45485 0.54173 0.6456 0.0
C1761 C 0.41741 0.57248 0.68725 0.0
C1762 C 0.43964 0.58855 0.67122 0.0
C1763 C 0.48448 0.58805 0.63873 0.0
C1764 C 0.50624 0.57158 0.62195 0.0
C1765 C 0.45921 0.57315 0.65122 0.0
C1766 C 0.5003 0.54102 0.61436 0.0
C1767 C 0.47465 0.52626 0.6259 0.0
H1768 H 0.83712 0.18413 0.01859 0.0
H1769 H 0.74522 0.21928 0.01925 0.0
H1770 H 0.76287 0.26617 0.04304 0.0
H1771 H 0.80424 0.29787 0.06187 0.0
H1772 H 0.89635 0.26345 0.06248 0.0
H1773 H 0.87872 0.21543 0.0401 0.0
C1774 C 0.821 0.202 0.02417 0.0
C1775 C 0.78997 0.19833 0.01706 0.0
C1776 C 0.8313 0.22901 0.03791 0.0
C1777 C 0.76924 0.22157 0.02447 0.0
C1778 C 0.7793 0.24843 0.03801 0.0
C1779 C 0.82054 0.27992 0.05707 0.0
C1780 C 0.85159 0.28432 0.06348 0.0
C1781 C 0.81027 0.25251 0.04448 0.0
C1782 C 0.8723 0.26061 0.05767 0.0
C1783 C 0.86226 0.2332 0.04484 0.0
H1784 H 0.55984 0.08058 0.80094 0.0
H1785 H 0.52669 0.98805 0.80404 0.0
H1786 H 0.48163 0.00489 0.83208 0.0
H1787 H 0.44873 0.04658 0.8487 0.0
H1788 H 0.48056 0.13955 0.84244 0.0
H1789 H 0.52947 0.12169 0.82311 0.0
C1790 C 0.543 0.06402 0.8082 0.0
C1791 C 0.54623 0.03322 0.80003 0.0
C1792 C 0.51687 0.07396 0.82349 0.0
C1793 C 0.5245 0.01193 0.80985 0.0
C1794 C 0.49871 0.02157 0.82577 0.0
C1795 C 0.46648 0.063 0.84358 0.0
C1796 C 0.4607 0.09442 0.84639 0.0
C1797 C 0.49417 0.05267 0.83164 0.0
C1798 C 0.48421 0.11526 0.84013 0.0
C1799 C 0.51216 0.10508 0.82896 0.0
H1800 H 0.94743 0.92801 0.31023 0.0
H1801 H 0.93145 0.84188 0.26558 0.0
H1802 H 0.97773 0.82106 0.28877 0.0
H1803 H 0.02642 0.83012 0.31549 0.0
H1804 H 0.04314 0.91768 0.35714 0.0
H1805 H 0.99271 0.93506 0.34164 0.0
C1806 C 0.95375 0.90448 0.30601 0.0
C1807 C 0.93633 0.88663 0.28592 0.0
C1808 C 0.98071 0.89305 0.31866 0.0
C1809 C 0.9446 0.85612 0.28088 0.0
C1810 C 0.97115 0.84428 0.29399 0.0
C1811 C 0.0187 0.85273 0.32181 0.0
C1812 C 0.03859 0.87272 0.33715 0.0
C1813 C 0.98996 0.86292 0.31201 0.0
C1814 C 0.02837 0.90201 0.34504 0.0
C1815 C -0.00043 0.91198 0.33615 0.0
H1816 H 0.44596 0.21777 0.19477 0.0
H1817 H 0.47679 0.3051 0.16181 0.0
H1818 H 0.44347 0.33098 0.19798 0.0
H1819 H 0.41022 0.32874 0.24238 0.0
H1820 H 0.38218 0.24159 0.27815 0.0
H1821 H 0.40904 0.21565 0.23683 0.0
C1822 C 0.44517 0.24246 0.19537 0.0
C1823 C 0.46407 0.25952 0.17599 0.0
C1824 C 0.42632 0.25719 0.21655 0.0
C1825 C 0.4627 0.29148 0.17679 0.0
C1826 C 0.44359 0.30629 0.19738 0.0
C1827 C 0.40921 0.3041 0.24069 0.0
C1828 C 0.39432 0.2871 0.26335 0.0
C1829 C 0.42584 0.28937 0.2178 0.0
C1830 C 0.39356 0.25517 0.26099 0.0
C1831 C 0.40913 0.24033 0.23754 0.0
H1832 H 0.4677 0.63931 0.93533 0.0
H1833 H 0.38928 0.696 0.91828 0.0
H1834 H 0.36146 0.67031 0.95924 0.0
H1835 H 0.36242 0.63674 0.00426 0.0
H1836 H 0.44235 0.58243 0.02229 0.0
H1837 H 0.4664 0.60166 0.97607 0.0
C1838 C 0.44438 0.64581 0.94034 0.0
C1839 C 0.4307 0.66983 0.92429 0.0
C1840 C 0.42883 0.63132 0.96405 0.0
C1841 C 0.40034 0.67771 0.93059 0.0
C1842 C 0.38447 0.66307 0.954 0.0
C1843 C 0.38471 0.62845 -0.00248 0.0
C1844 C 0.40074 0.60841 0.01666 0.0
C1845 C 0.39886 0.64049 0.9715 0.0
C1846 C 0.42972 0.59803 0.00793 0.0
C1847 C 0.44353 0.60914 0.98164 0.0
H1848 H 0.06815 0.75617 0.70499 0.0
H1849 H 0.08656 0.67106 0.65929 0.0
H1850 H 0.11297 0.65218 0.7044 0.0
H1851 H 0.12214 0.65647 0.75895 0.0
H1852 H 0.09984 0.73997 0.80606 0.0
H1853 H 0.08448 0.76321 0.758 0.0
C1854 C 0.07856 0.73376 0.7047 0.0
C1855 C 0.07491 0.71473 0.67921 0.0
C1856 C 0.09275 0.72269 0.73104 0.0
C1857 C 0.08871 0.6859 0.67891 0.0
C1858 C 0.10374 0.67508 0.70468 0.0
C1859 C 0.11448 0.67996 0.75871 0.0
C1860 C 0.11128 0.69613 0.78619 0.0
C1861 C 0.10456 0.69274 0.73129 0.0
C1862 C 0.10206 0.7268 0.78531 0.0
C1863 C 0.09309 0.74007 0.75785 0.0
H1864 H 0.0617 0.30586 0.40511 0.0
H1865 H 0.96993 0.33009 0.43069 0.0
H1866 H 0.98952 0.36562 0.46873 0.0
H1867 H 0.03223 0.38219 0.50063 0.0
H1868 H 0.12403 0.35677 0.47587 0.0
H1869 H 0.10491 0.33018 0.4311 0.0
C1870 C 0.04602 0.31943 0.41856 0.0
C1871 C 0.01448 0.31486 0.41567 0.0
C1872 C 0.05743 0.33946 0.44072 0.0
C1873 C -0.00563 0.33294 0.4328 0.0
C1874 C 0.00554 0.35319 0.45464 0.0
C1875 C 0.04817 0.37149 0.48507 0.0
C1876 C 0.07942 0.37071 0.4922 0.0
C1877 C 0.03699 0.35552 0.45975 0.0
C1878 C 0.09977 0.35733 0.47134 0.0
C1879 C 0.08886 0.34189 0.44576 0.0
H1880 H 0.44852 0.66242 0.31169 0.0
H1881 H 0.42378 0.74743 0.2689 0.0
H1882 H 0.40258 0.7199 0.22559 0.0
H1883 H 0.39543 0.6724 0.19792 0.0
H1884 H 0.42064 0.58695 0.23934 0.0
H1885 H 0.43701 0.61395 0.28544 0.0
C1886 C 0.43808 0.67485 0.29307 0.0
C1887 C 0.438 0.7069 0.29329 0.0
C1888 C 0.42628 0.65886 0.26797 0.0
C1889 C 0.42432 0.72276 0.26913 0.0
C1890 C 0.41226 0.70706 0.24433 0.0
C1891 C 0.40438 0.65962 0.21708 0.0
C1892 C 0.40734 0.62782 0.21508 0.0
C1893 C 0.41388 0.67522 0.24318 0.0
C1894 C 0.4183 0.61149 0.24032 0.0
C1895 C 0.42775 0.62692 0.26659 0.0
H1896 H 0.04407 0.70428 0.07859 0.0
H1897 H 0.96001 0.71193 0.02804 0.0
H1898 H 0.98288 0.68486 0.98522 0.0
H1899 H 0.02861 0.66596 0.95974 0.0
H1900 H 0.11331 0.65971 0.00936 0.0
H1901 H 0.08812 0.6787 0.05525 0.0
C1902 C 0.03061 0.69951 0.05841 0.0
C1903 C 0.00061 0.71053 0.0562 0.0
C1904 C 0.04406 0.68441 0.03368 0.0
C1905 C 0.98326 0.70391 0.03013 0.0
C1906 C -0.00366 0.68854 0.00561 0.0
C1907 C 0.04147 0.6683 0.98073 0.0
C1908 C 0.07289 0.66205 0.98103 0.0
C1909 C 0.02703 0.67977 0.00673 0.0
C1910 C 0.08912 0.66454 0.00851 0.0
C1911 C 0.07479 0.6756 0.03469 0.0
H1912 H 0.05877 0.28569 0.77542 0.0
H1913 H 0.09965 0.36181 0.82237 0.0
H1914 H 0.10718 0.38803 0.77373 0.0
H1915 H 0.09889 0.39053 0.71847 0.0
H1916 H 0.05527 0.31513 0.67238 0.0
H1917 H 0.05154 0.28765 0.72036 0.0
C1918 C 0.06991 0.30775 0.77498 0.0
C1919 C 0.07886 0.32175 0.80235 0.0
C1920 C 0.07299 0.3231 0.74722 0.0
C1921 C 0.09278 0.35054 0.8015 0.0
C1922 C 0.09681 0.36562 0.77377 0.0
C1923 C 0.08843 0.36815 0.71887 0.0
C1924 C 0.07716 0.35509 0.69178 0.0
C1925 C 0.08633 0.35239 0.74658 0.0
C1926 C 0.06393 0.32591 0.69283 0.0
C1927 C 0.06195 0.31005 0.72025 0.0
H1928 H 0.43419 0.26972 0.56047 0.0
H1929 H 0.52351 0.27063 0.51955 0.0
H1930 H 0.50256 0.29374 0.47345 0.0
H1931 H 0.45832 0.31021 0.44368 0.0
H1932 H 0.36908 0.31043 0.48506 0.0
H1933 H 0.39068 0.29096 0.53242 0.0
C1934 C 0.44901 0.27512 0.54147 0.0
C1935 C 0.48017 0.26817 0.54306 0.0
C1936 C 0.43689 0.2887 0.51527 0.0
C1937 C 0.49937 0.2757 0.51864 0.0
C1938 C 0.48743 0.28887 0.49233 0.0
C1939 C 0.44365 0.30633 0.46318 0.0
C1940 C 0.41214 0.3114 0.46076 0.0
C1941 C 0.45615 0.295 0.49024 0.0
C1942 C 0.39345 0.30671 0.48633 0.0
C1943 C 0.40572 0.29536 0.51335 0.0
H1944 H 0.18944 0.42167 0.2689 0.0
H1945 H 0.1727 0.456 0.3595 0.0
H1946 H 0.21515 0.42573 0.3791 0.0
H1947 H 0.25952 0.39361 0.36958 0.0
H1948 H 0.2789 0.36244 0.2783 0.0
H1949 H 0.23253 0.38721 0.25983 0.0
C1950 C 0.19484 0.42218 0.29301 0.0
C1951 C 0.17812 0.44107 0.31277 0.0
C1952 C 0.21976 0.40546 0.3039 0.0
C1953 C 0.18539 0.44171 0.34388 0.0
C1954 C 0.20964 0.42445 0.35506 0.0
C1955 C 0.2534 0.39174 0.34571 0.0
C1956 C 0.27271 0.37627 0.32531 0.0
C1957 C 0.22736 0.40682 0.33514 0.0
C1958 C 0.26451 0.37434 0.29443 0.0
C1959 C 0.23805 0.38854 0.28386 0.0
H1960 H 0.26299 0.40236 0.06698 0.0
H1961 H 0.26511 0.44263 0.97734 0.0
H1962 H 0.29932 0.48239 -0.00441 0.0
H1963 H 0.32435 0.50851 0.03783 0.0
H1964 H 0.32193 0.46928 0.12792 0.0
H1965 H 0.29271 0.426 0.1085 0.0
C1966 C 0.27125 0.41965 0.0514 0.0
C1967 C 0.26122 0.41979 0.02097 0.0
C1968 C 0.29082 0.44266 0.0621 0.0
C1969 C 0.2723 0.44214 0.00094 0.0
C1970 C 0.29185 0.46493 0.01135 0.0
C1971 C 0.31778 0.49033 0.05321 0.0
C1972 C 0.32495 0.4924 0.08437 0.0
C1973 C 0.30061 0.46583 0.04203 0.0
C1974 C 0.31667 0.46835 0.10383 0.0
C1975 C 0.29976 0.44367 0.09279 0.0
H1976 H 0.30723 0.53991 0.82642 0.0
H1977 H 0.27522 0.56012 0.73565 0.0
H1978 H 0.2338 0.59056 0.75658 0.0
H1979 H 0.20444 0.60778 0.80025 0.0
H1980 H 0.23475 0.58642 0.89139 0.0
H1981 H 0.27955 0.56068 0.87065 0.0
C1982 C 0.29129 0.55118 0.81127 0.0
C1983 C 0.29401 0.54749 0.77959 0.0
C1984 C 0.26731 0.56845 0.82347 0.0
C1985 C 0.27341 0.56239 0.76015 0.0
C1986 C 0.24975 0.57983 0.77208 0.0
C1987 C 0.22095 0.59779 0.8157 0.0
C1988 C 0.21596 0.59866 0.84732 0.0
C1989 C 0.24615 0.58247 0.80367 0.0
C1990 C 0.2379 0.58597 0.86693 0.0
C1991 C 0.26344 0.57107 0.85509 0.0
H1992 H 0.22515 0.5728 0.54252 0.0
H1993 H 0.23995 0.52565 0.45754 0.0
H1994 H 0.20627 0.48451 0.47403 0.0
H1995 H 0.1766 0.45993 0.51443 0.0
H1996 H 0.16239 0.50715 0.59967 0.0
H1997 H 0.19159 0.55041 0.581 0.0
C1998 C 0.2207 0.55369 0.52747 0.0
C1999 C 0.23522 0.55205 0.49904 0.0
C2000 C 0.20158 0.53005 0.53719 0.0
C2001 C 0.22908 0.52734 0.47962 0.0
C2002 C 0.20993 0.50377 0.48907 0.0
C2003 C 0.17958 0.47978 0.52885 0.0
C2004 C 0.16764 0.48 0.55859 0.0
C2005 C 0.19666 0.50455 0.51811 0.0
C2006 C 0.17147 0.50615 0.57676 0.0
C2007 C 0.18826 0.53094 0.56616 0.0
H2008 H 0.20615 0.56288 0.25998 0.0
H2009 H 0.14835 0.55105 0.18131 0.0
H2010 H 0.19008 0.56655 0.14793 0.0
H2011 H 0.24493 0.57548 0.14095 0.0
H2012 H 0.30292 0.58439 0.22001 0.0
H2013 H 0.25909 0.57825 0.25336 0.0
C2014 C 0.20249 0.56432 0.23558 0.0
C2015 C 0.1745 0.55537 0.22304 0.0
C2016 C 0.22675 0.57229 0.21656 0.0
C2017 C 0.1699 0.5576 0.19144 0.0
C2018 C 0.19377 0.56629 0.17234 0.0
C2019 C 0.24786 0.57667 0.16546 0.0
C2020 C 0.27717 0.5797 0.17798 0.0
C2021 C 0.22265 0.57243 0.18459 0.0
C2022 C 0.28063 0.58142 0.20979 0.0
C2023 C 0.2556 0.57797 0.22892 0.0
H2024 H 0.14088 0.42571 0.91709 0.0
H2025 H 0.13284 0.45177 0.01155 0.0
H2026 H 0.1167 0.50276 -0.00341 0.0
H2027 H 0.11325 0.54179 0.95698 0.0
H2028 H 0.12273 0.51595 0.86248 0.0
H2029 H 0.12936 0.46293 0.8772 0.0
C2030 C 0.13496 0.44238 0.93436 0.0
C2031 C 0.13868 0.43534 0.96529 0.0
C2032 C 0.12631 0.47178 0.92563 0.0
C2033 C 0.1305 0.45687 0.98753 0.0
C2034 C 0.12141 0.48606 0.97901 0.0
C2035 C 0.11629 0.5245 0.93957 0.0
C2036 C 0.11832 0.53294 0.90879 0.0
C2037 C 0.12059 0.49411 0.94816 0.0
C2038 C 0.12151 0.51017 0.88643 0.0
C2039 C 0.12542 0.47981 0.89479 0.0
H2040 H 0.27914 0.41687 0.73057 0.0
H2041 H 0.33195 0.43656 0.65011 0.0
H2042 H 0.29246 0.41382 0.61815 0.0
H2043 H 0.23912 0.39771 0.61282 0.0
H2044 H 0.18518 0.38174 0.69336 0.0
H2045 H 0.2291 0.39293 0.72556 0.0
C2046 C 0.2823 0.41555 0.7061 0.0
C2047 C 0.30798 0.42894 0.69262 0.0
C2048 C 0.25915 0.40331 0.68785 0.0
C2049 C 0.31208 0.42675 0.66095 0.0
C2050 C 0.28948 0.41384 0.64265 0.0
C2051 C 0.23731 0.3957 0.63738 0.0
C2052 C 0.20896 0.38947 0.65078 0.0
C2053 C 0.2623 0.4034 0.65577 0.0
C2054 C 0.20679 0.38697 0.68262 0.0
C2055 C 0.23182 0.39349 0.70103 0.0
H2056 H 0.35853 0.55177 0.40463 0.0
H2057 H 0.36454 0.52168 0.49796 0.0
H2058 H 0.37376 0.46954 0.4809 0.0
H2059 H 0.372 0.43166 0.43971 0.0
H2060 H 0.36397 0.46203 0.34646 0.0
H2061 H 0.36366 0.51482 0.36332 0.0
C2062 C 0.36267 0.53395 0.42123 0.0
C2063 C 0.36037 0.54043 0.45246 0.0
C2064 C 0.36689 0.50392 0.4113 0.0
C2065 C 0.36599 0.5172 0.47374 0.0
C2066 C 0.37097 0.48732 0.46401 0.0
C2067 C 0.37045 0.44981 0.42305 0.0
C2068 C 0.3673 0.44279 0.39195 0.0
C2069 C 0.37004 0.48023 0.43288 0.0
C2070 C 0.36598 0.46667 0.37062 0.0
C2071 C 0.36584 0.49694 0.3802 0.0
H2072 H 0.2818 0.15265 0.43798 0.0
H2073 H 0.20146 0.20889 0.44534 0.0
H2074 H 0.22727 0.24995 0.41828 0.0
H2075 H 0.27412 0.27162 0.39766 0.0
H2076 H 0.3551 0.21602 0.39145 0.0
H2077 H 0.32729 0.17275 0.4124 0.0
C2078 C 0.26985 0.17376 0.4333 0.0
C2079 C 0.23999 0.17796 0.44398 0.0
C2080 C 0.28492 0.19741 0.41807 0.0
C2081 C 0.22459 0.20525 0.43755 0.0
C2082 C 0.23933 0.22875 0.42213 0.0
C2083 C 0.28566 0.24996 0.40053 0.0
C2084 C 0.3168 0.24728 0.3935 0.0
C2085 C 0.26975 0.22536 0.41307 0.0
C2086 C 0.3312 0.21885 0.39689 0.0
C2087 C 0.31536 0.1941 0.40901 0.0
H2088 H 0.77466 0.31921 0.57799 0.0
H2089 H 0.86184 0.34044 0.53788 0.0
H2090 H 0.88697 0.3052 0.57283 0.0
H2091 H 0.88277 0.2624 0.60854 0.0
H2092 H 0.79489 0.23841 0.6453 0.0
H2093 H 0.77149 0.28123 0.6186 0.0
C2094 C 0.79922 0.31652 0.57728 0.0
C2095 C 0.81632 0.33189 0.55507 0.0
C2096 C 0.81336 0.29567 0.59685 0.0
C2097 C 0.84815 0.3285 0.55456 0.0
C2098 C 0.86253 0.30835 0.57452 0.0
C2099 C 0.85871 0.26724 0.61151 0.0
C2100 C 0.84048 0.24729 0.62861 0.0
C2101 C 0.8452 0.29096 0.59493 0.0
C2102 C 0.80927 0.25347 0.63206 0.0
C2103 C 0.79587 0.27777 0.61664 0.0
H2104 H 0.46365 0.02624 0.31526 0.0
H2105 H 0.43688 0.12068 0.3103 0.0
H2106 H 0.48711 0.13617 0.32898 0.0
H2107 H 0.54004 0.12289 0.34144 0.0
H2108 H 0.56685 0.0282 0.34426 0.0
H2109 H 0.51503 0.01284 0.33173 0.0
C2110 C 0.46863 0.05021 0.3187 0.0
C2111 C 0.44675 0.07231 0.31118 0.0
C2112 C 0.49765 0.05891 0.3287 0.0
C2113 C 0.45342 0.10325 0.31589 0.0
C2114 C 0.48217 0.11211 0.32639 0.0
C2115 C 0.53453 0.09887 0.33963 0.0
C2116 C 0.55749 0.07678 0.34338 0.0
C2117 C 0.50472 0.09014 0.33202 0.0
C2118 C 0.54979 0.04575 0.34116 0.0
C2119 C 0.52013 0.0369 0.33402 0.0
H2120 H 0.69778 0.70935 0.09698 0.0
H2121 H 0.61697 0.67045 0.05663 0.0
H2122 H 0.58788 0.71596 0.07021 0.0
H2123 H 0.58808 0.77 0.08543 0.0
H2124 H 0.67035 0.80948 0.12222 0.0
H2125 H 0.69612 0.76046 0.11853 0.0
C2126 C 0.67364 0.71055 0.09175 0.0
C2127 C 0.65965 0.68697 0.07534 0.0
C2128 C 0.65743 0.73708 0.09866 0.0
C2129 C 0.62829 0.68856 0.06902 0.0
C2130 C 0.6117 0.71463 0.07662 0.0
C2131 C 0.61138 0.7676 0.09332 0.0
C2132 C 0.62752 0.79328 0.10353 0.0
C2133 C 0.6264 0.73956 0.0902 0.0
C2134 C 0.6577 0.79002 0.11374 0.0
C2135 C 0.67244 0.76205 0.11165 0.0
H2136 H 0.57444 0.39112 0.30141 0.0
H2137 H 0.53872 0.48047 0.32182 0.0
H2138 H 0.49174 0.45769 0.34084 0.0
H2139 H 0.45873 0.41319 0.34553 0.0
H2140 H 0.49347 0.32374 0.3242 0.0
H2141 H 0.54327 0.34577 0.31198 0.0
C2142 C 0.55657 0.40555 0.31052 0.0
C2143 C 0.55976 0.4374 0.3098 0.0
C2144 C 0.52943 0.39233 0.32091 0.0
C2145 C 0.53664 0.45587 0.32193 0.0
C2146 C 0.50974 0.44289 0.33267 0.0
C2147 C 0.4773 0.39847 0.33845 0.0
C2148 C 0.4724 0.36702 0.33513 0.0
C2149 C 0.50554 0.41128 0.33124 0.0
C2150 C 0.49674 0.34807 0.3267 0.0
C2151 C 0.52511 0.36067 0.31961 0.0
H2152 H 0.26293 0.78625 0.95649 0.0
H2153 H 0.18549 0.84037 0.98359 0.0
H2154 H 0.15107 0.80415 0.9589 0.0
H2155 H 0.14292 0.75488 0.93355 0.0
H2156 H 0.22051 0.6995 0.90945 0.0
H2157 H 0.255 0.73862 0.92874 0.0
C2158 C 0.23854 0.79029 0.95667 0.0
C2159 C 0.2267 0.81574 0.97193 0.0
C2160 C 0.21894 0.7691 0.94307 0.0
C2161 C 0.19508 0.82075 0.97208 0.0
C2162 C 0.17541 0.80008 0.958 0.0
C2163 C 0.16739 0.75166 0.93206 0.0
C2164 C 0.1792 0.72436 0.92028 0.0
C2165 C 0.18707 0.77386 0.94398 0.0
C2166 C 0.21092 0.72028 0.9187 0.0
C2167 C 0.23064 0.74259 0.92973 0.0
H2168 H 0.40335 0.97323 0.18008 0.0
H2169 H 0.45155 0.05893 0.18168 0.0
H2170 H 0.49069 0.03795 0.14827 0.0
H2171 H 0.51508 0.99316 0.12588 0.0
H2172 H 0.46788 0.90676 0.12608 0.0
H2173 H 0.42414 0.93041 0.1507 0.0
C2174 C 0.42213 0.98746 0.17264 0.0
C2175 C 0.42494 0.01733 0.1838 0.0
C2176 C 0.44484 0.9751 0.15388 0.0
C2177 C 0.4491 0.03571 0.17366 0.0
C2178 C 0.47154 0.02371 0.15461 0.0
C2179 C 0.495 0.97957 0.13066 0.0
C2180 C 0.49518 0.94803 0.12484 0.0
C2181 C 0.47026 0.99308 0.14564 0.0
C2182 C 0.46866 0.93099 0.13071 0.0
C2183 C 0.44364 0.94445 0.14499 0.0
H2184 H 0.0714 0.0592 0.70035 0.0
H2185 H 0.02328 0.97603 0.67927 0.0
H2186 H 0.97764 0.00523 0.66662 0.0
H2187 H 0.94995 0.05369 0.66745 0.0
H2188 H -0.00213 0.13683 0.68928 0.0
H2189 H 0.04517 0.10825 0.69572 0.0
C2190 C 0.0511 0.04751 0.69241 0.0
C2191 C 0.05053 0.01554 0.69108 0.0
C2192 C 0.02482 0.06436 0.68582 0.0
C2193 C 0.02421 0.00066 0.68056 0.0
C2194 C -0.00195 0.01731 0.67356 0.0
C2195 C 0.97078 0.06558 0.67348 0.0
C2196 C 0.97032 0.09722 0.67845 0.0
C2197 C -0.00218 0.04905 0.67715 0.0
C2198 C -0.0024 0.11243 0.68556 0.0
C2199 C 0.02463 0.09612 0.68927 0.0
loop_
_geom_bond_atom_site_label_1
_geom_bond_atom_site_label_2
_geom_bond_distance
_geom_bond_site_symmetry_2
_ccdc_geom_bond_type
In0 O1 2.312 . S
In0 O2 2.324 1_455 S
In0 O6 2.284 . S
In0 O7 2.323 1_455 S
In0 O8 2.249 1_455 S
In0 O9 2.329 . S
In0 O11 2.276 1_455 S
In0 O12 2.329 . S
O1 In0 2.312 . S
O1 C10 1.240 . S
O2 In0 2.324 1_655 S
O2 C10 1.252 1_655 S
C3 O6 1.252 . S
C3 O7 1.260 1_455 S
C4 O11 1.240 . S
C4 O12 1.252 1_655 S
C5 O8 1.252 . S
C5 O9 1.260 1_655 S
O6 In0 2.284 . S
O6 C3 1.252 . S
O7 In0 2.323 1_655 S
O7 C3 1.260 1_655 S
O8 In0 2.249 1_655 S
O8 C5 1.252 . S
O9 In0 2.329 . S
O9 C5 1.260 1_455 S
C10 O1 1.240 . S
C10 O2 1.252 1_455 S
O11 In0 2.276 1_655 S
O11 C4 1.240 . S
O12 In0 2.329 . S
O12 C4 1.252 1_455 S
In13 O14 2.283 1_455 S
In13 O15 2.307 1_455 S
In13 O19 2.277 . S
In13 O20 2.345 . S
In13 O21 2.256 1_455 S
In13 O22 2.306 1_455 S
In13 O24 2.305 . S
In13 O25 2.345 . S
O14 In13 2.283 1_655 S
O14 C23 1.240 . S
O15 In13 2.307 1_655 S
O15 C23 1.252 . S
C16 O19 1.252 . S
C16 O20 1.260 . S
C17 O24 1.240 . S
C17 O25 1.252 . S
C18 O21 1.252 . S
C18 O22 1.260 . S
O19 In13 2.277 . S
O19 C16 1.252 . S
O20 In13 2.345 . S
O20 C16 1.260 . S
O21 In13 2.256 1_655 S
O21 C18 1.252 . S
O22 In13 2.306 1_655 S
O22 C18 1.260 . S
C23 O14 1.240 . S
C23 O15 1.252 . S
O24 In13 2.305 . S
O24 C17 1.240 . S
O25 In13 2.345 . S
O25 C17 1.252 . S
In26 O27 2.294 . S
In26 O28 2.326 . S
In26 O32 2.266 . S
In26 O33 2.326 . S
In26 O34 2.266 . S
In26 O35 2.326 . S
In26 O37 2.294 . S
In26 O38 2.326 . S
O27 In26 2.294 . S
O27 C36 1.240 . S
O28 In26 2.326 . S
O28 C36 1.252 . S
C29 O32 1.252 . S
C29 O33 1.260 . S
C30 O37 1.240 . S
C30 O38 1.252 . S
C31 O34 1.252 . S
C31 O35 1.260 . S
O32 In26 2.266 . S
O32 C29 1.252 . S
O33 In26 2.326 . S
O33 C29 1.260 . S
O34 In26 2.266 . S
O34 C31 1.252 . S
O35 In26 2.326 . S
O35 C31 1.260 . S
C36 O27 1.240 . S
C36 O28 1.252 . S
O37 In26 2.294 . S
O37 C30 1.240 . S
O38 In26 2.326 . S
O38 C30 1.252 . S
In39 O40 2.294 . S
In39 O41 2.326 . S
In39 O45 2.266 . S
In39 O46 2.326 . S
In39 O47 2.266 . S
In39 O48 2.326 . S
In39 O50 2.294 . S
In39 O51 2.326 . S
O40 In39 2.294 . S
O40 C49 1.240 . S
O41 In39 2.326 . S
O41 C49 1.252 . S
C42 O45 1.252 . S
C42 O46 1.260 . S
C43 O50 1.240 . S
C43 O51 1.252 . S
C44 O47 1.252 . S
C44 O48 1.260 . S
O45 In39 2.266 . S
O45 C42 1.252 . S
O46 In39 2.326 . S
O46 C42 1.260 . S
O47 In39 2.266 . S
O47 C44 1.252 . S
O48 In39 2.326 . S
O48 C44 1.260 . S
C49 O40 1.240 . S
C49 O41 1.252 . S
O50 In39 2.294 . S
O50 C43 1.240 . S
O51 In39 2.326 . S
O51 C43 1.252 . S
In52 O53 2.294 1_455 S
In52 O54 2.326 . S
In52 O58 2.266 1_455 S
In52 O59 2.326 . S
In52 O60 2.266 . S
In52 O61 2.326 1_455 S
In52 O63 2.294 . S
In52 O64 2.326 1_455 S
O53 In52 2.294 1_655 S
O53 C62 1.240 . S
O54 In52 2.326 . S
O54 C62 1.252 1_455 S
C55 O58 1.252 . S
C55 O59 1.260 1_655 S
C56 O63 1.240 . S
C56 O64 1.252 1_455 S
C57 O60 1.252 . S
C57 O61 1.260 1_455 S
O58 In52 2.266 1_655 S
O58 C55 1.252 . S
O59 In52 2.326 . S
O59 C55 1.260 1_455 S
O60 In52 2.266 . S
O60 C57 1.252 . S
O61 In52 2.326 1_655 S
O61 C57 1.260 1_655 S
C62 O53 1.240 . S
C62 O54 1.252 1_655 S
O63 In52 2.294 . S
O63 C56 1.240 . S
O64 In52 2.326 1_655 S
O64 C56 1.252 1_655 S
In65 O66 2.294 . S
In65 O67 2.326 . S
In65 O71 2.266 . S
In65 O72 2.326 . S
In65 O73 2.266 . S
In65 O74 2.326 . S
In65 O76 2.294 . S
In65 O77 2.326 . S
O66 In65 2.294 . S
O66 C75 1.240 . S
O67 In65 2.326 . S
O67 C75 1.252 . S
C68 O71 1.252 . S
C68 O72 1.260 . S
C69 O76 1.240 . S
C69 O77 1.252 . S
C70 O73 1.252 . S
C70 O74 1.260 . S
O71 In65 2.266 . S
O71 C68 1.252 . S
O72 In65 2.326 . S
O72 C68 1.260 . S
O73 In65 2.266 . S
O73 C70 1.252 . S
O74 In65 2.326 . S
O74 C70 1.260 . S
C75 O66 1.240 . S
C75 O67 1.252 . S
O76 In65 2.294 . S
O76 C69 1.240 . S
O77 In65 2.326 . S
O77 C69 1.252 . S
In78 O79 2.294 . S
In78 O80 2.326 . S
In78 O84 2.266 . S
In78 O85 2.326 . S
In78 O86 2.266 . S
In78 O87 2.326 . S
In78 O89 2.294 . S
In78 O90 2.326 . S
O79 In78 2.294 . S
O79 C88 1.240 . S
O80 In78 2.326 . S
O80 C88 1.252 . S
C81 O84 1.252 . S
C81 O85 1.260 . S
C82 O89 1.240 . S
C82 O90 1.252 . S
C83 O86 1.252 . S
C83 O87 1.260 . S
O84 In78 2.266 . S
O84 C81 1.252 . S
O85 In78 2.326 . S
O85 C81 1.260 . S
O86 In78 2.266 . S
O86 C83 1.252 . S
O87 In78 2.326 . S
O87 C83 1.260 . S
C88 O79 1.240 . S
C88 O80 1.252 . S
O89 In78 2.294 . S
O89 C82 1.240 . S
O90 In78 2.326 . S
O90 C82 1.252 . S
In91 O92 2.299 . S
In91 O93 2.335 . S
In91 O97 2.261 1_455 S
In91 O98 2.317 1_455 S
In91 O99 2.271 . S
In91 O100 2.334 . S
In91 O102 2.289 1_455 S
In91 O103 2.318 1_455 S
O92 In91 2.299 . S
O92 C101 1.240 . S
O93 In91 2.335 . S
O93 C101 1.252 . S
C94 O97 1.252 . S
C94 O98 1.260 . S
C95 O102 1.240 . S
C95 O103 1.252 . S
C96 O99 1.252 . S
C96 O100 1.260 . S
O97 In91 2.261 1_655 S
O97 C94 1.252 . S
O98 In91 2.317 1_655 S
O98 C94 1.260 . S
O99 In91 2.271 . S
O99 C96 1.252 . S
O100 In91 2.334 . S
O100 C96 1.260 . S
C101 O92 1.240 . S
C101 O93 1.252 . S
O102 In91 2.289 1_655 S
O102 C95 1.240 . S
O103 In91 2.318 1_655 S
O103 C95 1.252 . S
In104 O105 2.276 1_545 S
In104 O106 2.329 . S
In104 O110 2.249 1_545 S
In104 O111 2.329 . S
In104 O112 2.284 . S
In104 O113 2.323 1_545 S
In104 O115 2.312 . S
In104 O116 2.324 1_545 S
O105 In104 2.276 1_565 S
O105 C114 1.240 . S
O106 In104 2.329 . S
O106 C114 1.252 1_545 S
C107 O110 1.252 . S
C107 O111 1.260 1_565 S
C108 O115 1.240 . S
C108 O116 1.252 1_545 S
C109 O112 1.252 . S
C109 O113 1.260 1_545 S
O110 In104 2.249 1_565 S
O110 C107 1.252 . S
O111 In104 2.329 . S
O111 C107 1.260 1_545 S
O112 In104 2.284 . S
O112 C109 1.252 . S
O113 In104 2.323 1_565 S
O113 C109 1.260 1_565 S
C114 O105 1.240 . S
C114 O106 1.252 1_565 S
O115 In104 2.312 . S
O115 C108 1.240 . S
O116 In104 2.324 1_565 S
O116 C108 1.252 1_565 S
In117 O118 2.294 . S
In117 O119 2.326 . S
In117 O123 2.266 . S
In117 O124 2.326 . S
In117 O125 2.266 . S
In117 O126 2.326 . S
In117 O128 2.294 . S
In117 O129 2.326 . S
O118 In117 2.294 . S
O118 C127 1.240 . S
O119 In117 2.326 . S
O119 C127 1.252 . S
C120 O123 1.252 . S
C120 O124 1.260 . S
C121 O128 1.240 . S
C121 O129 1.252 . S
C122 O125 1.252 . S
C122 O126 1.260 . S
O123 In117 2.266 . S
O123 C120 1.252 . S
O124 In117 2.326 . S
O124 C120 1.260 . S
O125 In117 2.266 . S
O125 C122 1.252 . S
O126 In117 2.326 . S
O126 C122 1.260 . S
C127 O118 1.240 . S
C127 O119 1.252 . S
O128 In117 2.294 . S
O128 C121 1.240 . S
O129 In117 2.326 . S
O129 C121 1.252 . S
In130 O131 2.294 1_545 S
In130 O132 2.326 . S
In130 O136 2.266 1_545 S
In130 O137 2.326 . S
In130 O138 2.266 . S
In130 O139 2.326 1_545 S
In130 O141 2.294 . S
In130 O142 2.326 1_545 S
O131 In130 2.294 1_565 S
O131 C140 1.240 . S
O132 In130 2.326 . S
O132 C140 1.252 1_545 S
C133 O136 1.252 . S
C133 O137 1.260 1_565 S
C134 O141 1.240 . S
C134 O142 1.252 1_545 S
C135 O138 1.252 . S
C135 O139 1.260 1_545 S
O136 In130 2.266 1_565 S
O136 C133 1.252 . S
O137 In130 2.326 . S
O137 C133 1.260 1_545 S
O138 In130 2.266 . S
O138 C135 1.252 . S
O139 In130 2.326 1_565 S
O139 C135 1.260 1_565 S
C140 O131 1.240 . S
C140 O132 1.252 1_565 S
O141 In130 2.294 . S
O141 C134 1.240 . S
O142 In130 2.326 1_565 S
O142 C134 1.252 1_565 S
In143 O144 2.299 . S
In143 O145 2.335 . S
In143 O149 2.261 1_554 S
In143 O150 2.317 1_554 S
In143 O151 2.271 . S
In143 O152 2.334 . S
In143 O154 2.289 1_554 S
In143 O155 2.318 1_554 S
O144 In143 2.299 . S
O144 C153 1.240 . S
O145 In143 2.335 . S
O145 C153 1.252 . S
C146 O149 1.252 . S
C146 O150 1.260 . S
C147 O154 1.240 . S
C147 O155 1.252 . S
C148 O151 1.252 . S
C148 O152 1.260 . S
O149 In143 2.261 1_556 S
O149 C146 1.252 . S
O150 In143 2.317 1_556 S
O150 C146 1.260 . S
O151 In143 2.271 . S
O151 C148 1.252 . S
O152 In143 2.334 . S
O152 C148 1.260 . S
C153 O144 1.240 . S
C153 O145 1.252 . S
O154 In143 2.289 1_556 S
O154 C147 1.240 . S
O155 In143 2.318 1_556 S
O155 C147 1.252 . S
In156 O157 2.276 1_554 S
In156 O158 2.329 . S
In156 O162 2.249 1_554 S
In156 O163 2.329 . S
In156 O164 2.284 . S
In156 O165 2.323 1_554 S
In156 O167 2.312 . S
In156 O168 2.324 1_554 S
O157 In156 2.276 1_556 S
O157 C166 1.240 . S
O158 In156 2.329 . S
O158 C166 1.252 1_554 S
C159 O162 1.252 . S
C159 O163 1.260 1_556 S
C160 O167 1.240 . S
C160 O168 1.252 1_554 S
C161 O164 1.252 . S
C161 O165 1.260 1_554 S
O162 In156 2.249 1_556 S
O162 C159 1.252 . S
O163 In156 2.329 . S
O163 C159 1.260 1_554 S
O164 In156 2.284 . S
O164 C161 1.252 . S
O165 In156 2.323 1_556 S
O165 C161 1.260 1_556 S
C166 O157 1.240 . S
C166 O158 1.252 1_556 S
O167 In156 2.312 . S
O167 C160 1.240 . S
O168 In156 2.324 1_556 S
O168 C160 1.252 1_556 S
In169 O170 2.294 . S
In169 O171 2.326 1_554 S
In169 O175 2.266 . S
In169 O176 2.326 1_554 S
In169 O177 2.266 1_554 S
In169 O178 2.326 . S
In169 O180 2.294 1_554 S
In169 O181 2.326 . S
O170 In169 2.294 . S
O170 C179 1.240 . S
O171 In169 2.326 1_556 S
O171 C179 1.252 1_556 S
C172 O175 1.252 . S
C172 O176 1.260 1_554 S
C173 O180 1.240 . S
C173 O181 1.252 1_556 S
C174 O177 1.252 . S
C174 O178 1.260 1_556 S
O175 In169 2.266 . S
O175 C172 1.252 . S
O176 In169 2.326 1_556 S
O176 C172 1.260 1_556 S
O177 In169 2.266 1_556 S
O177 C174 1.252 . S
O178 In169 2.326 . S
O178 C174 1.260 1_554 S
C179 O170 1.240 . S
C179 O171 1.252 1_554 S
O180 In169 2.294 1_556 S
O180 C173 1.240 . S
O181 In169 2.326 . S
O181 C173 1.252 1_554 S
In182 O183 2.294 . S
In182 O184 2.326 . S
In182 O188 2.266 . S
In182 O189 2.326 . S
In182 O190 2.266 . S
In182 O191 2.326 . S
In182 O193 2.294 . S
In182 O194 2.326 . S
O183 In182 2.294 . S
O183 C192 1.240 . S
O184 In182 2.326 . S
O184 C192 1.252 . S
C185 O188 1.252 . S
C185 O189 1.260 . S
C186 O193 1.240 . S
C186 O194 1.252 . S
C187 O190 1.252 . S
C187 O191 1.260 . S
O188 In182 2.266 . S
O188 C185 1.252 . S
O189 In182 2.326 . S
O189 C185 1.260 . S
O190 In182 2.266 . S
O190 C187 1.252 . S
O191 In182 2.326 . S
O191 C187 1.260 . S
C192 O183 1.240 . S
C192 O184 1.252 . S
O193 In182 2.294 . S
O193 C186 1.240 . S
O194 In182 2.326 . S
O194 C186 1.252 . S
In195 O196 2.294 . S
In195 O197 2.326 . S
In195 O201 2.266 . S
In195 O202 2.326 . S
In195 O203 2.266 . S
In195 O204 2.326 . S
In195 O206 2.294 . S
In195 O207 2.326 . S
O196 In195 2.294 . S
O196 C205 1.240 . S
O197 In195 2.326 . S
O197 C205 1.252 . S
C198 O201 1.252 . S
C198 O202 1.260 . S
C199 O206 1.240 . S
C199 O207 1.252 . S
C200 O203 1.252 . S
C200 O204 1.260 . S
O201 In195 2.266 . S
O201 C198 1.252 . S
O202 In195 2.326 . S
O202 C198 1.260 . S
O203 In195 2.266 . S
O203 C200 1.252 . S
O204 In195 2.326 . S
O204 C200 1.260 . S
C205 O196 1.240 . S
C205 O197 1.252 . S
O206 In195 2.294 . S
O206 C199 1.240 . S
O207 In195 2.326 . S
O207 C199 1.252 . S
In208 O209 2.289 1_545 S
In208 O210 2.318 1_545 S
In208 O214 2.271 . S
In208 O215 2.334 . S
In208 O216 2.261 1_545 S
In208 O217 2.317 1_545 S
In208 O219 2.299 . S
In208 O220 2.335 . S
O209 In208 2.289 1_565 S
O209 C218 1.240 . S
O210 In208 2.318 1_565 S
O210 C218 1.252 . S
C211 O214 1.252 . S
C211 O215 1.260 . S
C212 O219 1.240 . S
C212 O220 1.252 . S
C213 O216 1.252 . S
C213 O217 1.260 . S
O214 In208 2.271 . S
O214 C211 1.252 . S
O215 In208 2.334 . S
O215 C211 1.260 . S
O216 In208 2.261 1_565 S
O216 C213 1.252 . S
O217 In208 2.317 1_565 S
O217 C213 1.260 . S
C218 O209 1.240 . S
C218 O210 1.252 . S
O219 In208 2.299 . S
O219 C212 1.240 . S
O220 In208 2.335 . S
O220 C212 1.252 . S
In221 O222 2.294 . S
In221 O223 2.326 . S
In221 O227 2.266 . S
In221 O228 2.326 . S
In221 O229 2.266 . S
In221 O230 2.326 . S
In221 O232 2.294 . S
In221 O233 2.326 . S
O222 In221 2.294 . S
O222 C231 1.240 . S
O223 In221 2.326 . S
O223 C231 1.252 . S
C224 O227 1.252 . S
C224 O228 1.260 . S
C225 O232 1.240 . S
C225 O233 1.252 . S
C226 O229 1.252 . S
C226 O230 1.260 . S
O227 In221 2.266 . S
O227 C224 1.252 . S
O228 In221 2.326 . S
O228 C224 1.260 . S
O229 In221 2.266 . S
O229 C226 1.252 . S
O230 In221 2.326 . S
O230 C226 1.260 . S
C231 O222 1.240 . S
C231 O223 1.252 . S
O232 In221 2.294 . S
O232 C225 1.240 . S
O233 In221 2.326 . S
O233 C225 1.252 . S
In234 O235 2.294 . S
In234 O236 2.326 . S
In234 O240 2.266 . S
In234 O241 2.326 . S
In234 O242 2.266 . S
In234 O243 2.326 . S
In234 O245 2.294 . S
In234 O246 2.326 . S
O235 In234 2.294 . S
O235 C244 1.240 . S
O236 In234 2.326 . S
O236 C244 1.252 . S
C237 O240 1.252 . S
C237 O241 1.260 . S
C238 O245 1.240 . S
C238 O246 1.252 . S
C239 O242 1.252 . S
C239 O243 1.260 . S
O240 In234 2.266 . S
O240 C237 1.252 . S
O241 In234 2.326 . S
O241 C237 1.260 . S
O242 In234 2.266 . S
O242 C239 1.252 . S
O243 In234 2.326 . S
O243 C239 1.260 . S
C244 O235 1.240 . S
C244 O236 1.252 . S
O245 In234 2.294 . S
O245 C238 1.240 . S
O246 In234 2.326 . S
O246 C238 1.252 . S
In247 O248 2.283 1_545 S
In247 O249 2.307 1_545 S
In247 O253 2.277 . S
In247 O254 2.345 . S
In247 O255 2.256 1_545 S
In247 O256 2.306 1_545 S
In247 O258 2.305 . S
In247 O259 2.345 . S
O248 In247 2.283 1_565 S
O248 C257 1.240 . S
O249 In247 2.307 1_565 S
O249 C257 1.252 . S
C250 O253 1.252 . S
C250 O254 1.260 . S
C251 O258 1.240 . S
C251 O259 1.252 . S
C252 O255 1.252 . S
C252 O256 1.260 . S
O253 In247 2.277 . S
O253 C250 1.252 . S
O254 In247 2.345 . S
O254 C250 1.260 . S
O255 In247 2.256 1_565 S
O255 C252 1.252 . S
O256 In247 2.306 1_565 S
O256 C252 1.260 . S
C257 O248 1.240 . S
C257 O249 1.252 . S
O258 In247 2.305 . S
O258 C251 1.240 . S
O259 In247 2.345 . S
O259 C251 1.252 . S
In260 O261 2.305 . S
In260 O262 2.345 . S
In260 O266 2.256 1_554 S
In260 O267 2.306 1_554 S
In260 O268 2.277 . S
In260 O269 2.345 . S
In260 O271 2.283 1_554 S
In260 O272 2.307 1_554 S
O261 In260 2.305 . S
O261 C270 1.240 . S
O262 In260 2.345 . S
O262 C270 1.252 . S
C263 O266 1.252 . S
C263 O267 1.260 . S
C264 O271 1.240 . S
C264 O272 1.252 . S
C265 O268 1.252 . S
C265 O269 1.260 . S
O266 In260 2.256 1_556 S
O266 C263 1.252 . S
O267 In260 2.306 1_556 S
O267 C263 1.260 . S
O268 In260 2.277 . S
O268 C265 1.252 . S
O269 In260 2.345 . S
O269 C265 1.260 . S
C270 O261 1.240 . S
C270 O262 1.252 . S
O271 In260 2.283 1_556 S
O271 C264 1.240 . S
O272 In260 2.307 1_556 S
O272 C264 1.252 . S
In273 O274 2.294 . S
In273 O275 2.326 . S
In273 O279 2.266 . S
In273 O280 2.326 . S
In273 O281 2.266 . S
In273 O282 2.326 . S
In273 O284 2.294 . S
In273 O285 2.326 . S
O274 In273 2.294 . S
O274 C283 1.240 . S
O275 In273 2.326 . S
O275 C283 1.252 . S
C276 O279 1.252 . S
C276 O280 1.260 . S
C277 O284 1.240 . S
C277 O285 1.252 . S
C278 O281 1.252 . S
C278 O282 1.260 . S
O279 In273 2.266 . S
O279 C276 1.252 . S
O280 In273 2.326 . S
O280 C276 1.260 . S
O281 In273 2.266 . S
O281 C278 1.252 . S
O282 In273 2.326 . S
O282 C278 1.260 . S
C283 O274 1.240 . S
C283 O275 1.252 . S
O284 In273 2.294 . S
O284 C277 1.240 . S
O285 In273 2.326 . S
O285 C277 1.252 . S
In286 O287 2.294 . S
In286 O288 2.326 . S
In286 O292 2.266 . S
In286 O293 2.326 . S
In286 O294 2.266 . S
In286 O295 2.326 . S
In286 O297 2.294 . S
In286 O298 2.326 . S
O287 In286 2.294 . S
O287 C296 1.240 . S
O288 In286 2.326 . S
O288 C296 1.252 . S
C289 O292 1.252 . S
C289 O293 1.260 . S
C290 O297 1.240 . S
C290 O298 1.252 . S
C291 O294 1.252 . S
C291 O295 1.260 . S
O292 In286 2.266 . S
O292 C289 1.252 . S
O293 In286 2.326 . S
O293 C289 1.260 . S
O294 In286 2.266 . S
O294 C291 1.252 . S
O295 In286 2.326 . S
O295 C291 1.260 . S
C296 O287 1.240 . S
C296 O288 1.252 . S
O297 In286 2.294 . S
O297 C290 1.240 . S
O298 In286 2.326 . S
O298 C290 1.252 . S
In299 O300 2.294 . S
In299 O301 2.326 . S
In299 O305 2.266 . S
In299 O306 2.326 . S
In299 O307 2.266 . S
In299 O308 2.326 . S
In299 O310 2.294 . S
In299 O311 2.326 . S
O300 In299 2.294 . S
O300 C309 1.240 . S
O301 In299 2.326 . S
O301 C309 1.252 . S
C302 O305 1.252 . S
C302 O306 1.260 . S
C303 O310 1.240 . S
C303 O311 1.252 . S
C304 O307 1.252 . S
C304 O308 1.260 . S
O305 In299 2.266 . S
O305 C302 1.252 . S
O306 In299 2.326 . S
O306 C302 1.260 . S
O307 In299 2.266 . S
O307 C304 1.252 . S
O308 In299 2.326 . S
O308 C304 1.260 . S
C309 O300 1.240 . S
C309 O301 1.252 . S
O310 In299 2.294 . S
O310 C303 1.240 . S
O311 In299 2.326 . S
O311 C303 1.252 . S
Sc312 O315 2.025 . S
Sc312 O322 2.105 . S
Sc312 O325 2.105 . S
Sc312 O328 2.105 . S
Sc312 O331 2.105 . S
Sc313 O315 2.025 . S
Sc313 O323 2.105 . S
Sc313 O327 2.105 . S
Sc313 O329 2.105 . S
Sc313 O333 2.105 . S
Sc314 O315 2.025 . S
Sc314 O324 2.105 . S
Sc314 O326 2.105 . S
Sc314 O330 2.105 . S
Sc314 O332 2.105 . S
O315 Sc312 2.025 . S
O315 Sc313 2.025 . S
O315 Sc314 2.025 . S
C316 O322 1.268 . S
C316 O332 1.268 . S
C317 O323 1.268 . S
C317 O331 1.268 . S
C318 O324 1.268 . S
C318 O333 1.268 . S
C319 O325 1.268 . S
C319 O329 1.268 . S
C320 O326 1.268 . S
C320 O328 1.268 . S
C321 O327 1.268 . S
C321 O330 1.268 . S
O322 Sc312 2.105 . S
O322 C316 1.268 . S
O323 Sc313 2.105 . S
O323 C317 1.268 . S
O324 Sc314 2.105 . S
O324 C318 1.268 . S
O325 Sc312 2.105 . S
O325 C319 1.268 . S
O326 Sc314 2.105 . S
O326 C320 1.268 . S
O327 Sc313 2.105 . S
O327 C321 1.268 . S
O328 Sc312 2.105 . S
O328 C320 1.268 . S
O329 Sc313 2.105 . S
O329 C319 1.268 . S
O330 Sc314 2.105 . S
O330 C321 1.268 . S
O331 Sc312 2.105 . S
O331 C317 1.268 . S
O332 Sc314 2.105 . S
O332 C316 1.268 . S
O333 Sc313 2.105 . S
O333 C318 1.268 . S
Sc334 O337 2.025 . S
Sc334 O344 2.105 . S
Sc334 O347 2.105 . S
Sc334 O350 2.105 . S
Sc334 O353 2.105 . S
Sc335 O337 2.025 . S
Sc335 O345 2.105 . S
Sc335 O349 2.105 . S
Sc335 O351 2.105 . S
Sc335 O355 2.105 . S
Sc336 O337 2.025 . S
Sc336 O346 2.105 . S
Sc336 O348 2.105 . S
Sc336 O352 2.105 . S
Sc336 O354 2.105 . S
O337 Sc334 2.025 . S
O337 Sc335 2.025 . S
O337 Sc336 2.025 . S
C338 O344 1.268 . S
C338 O354 1.268 . S
C339 O345 1.268 . S
C339 O353 1.268 . S
C340 O346 1.268 . S
C340 O355 1.268 . S
C341 O347 1.268 . S
C341 O351 1.268 . S
C342 O348 1.268 . S
C342 O350 1.268 . S
C343 O349 1.268 . S
C343 O352 1.268 . S
O344 Sc334 2.105 . S
O344 C338 1.268 . S
O345 Sc335 2.105 . S
O345 C339 1.268 . S
O346 Sc336 2.105 . S
O346 C340 1.268 . S
O347 Sc334 2.105 . S
O347 C341 1.268 . S
O348 Sc336 2.105 . S
O348 C342 1.268 . S
O349 Sc335 2.105 . S
O349 C343 1.268 . S
O350 Sc334 2.105 . S
O350 C342 1.268 . S
O351 Sc335 2.105 . S
O351 C341 1.268 . S
O352 Sc336 2.105 . S
O352 C343 1.268 . S
O353 Sc334 2.105 . S
O353 C339 1.268 . S
O354 Sc336 2.105 . S
O354 C338 1.268 . S
O355 Sc335 2.105 . S
O355 C340 1.268 . S
Sc356 O359 2.025 . S
Sc356 O366 2.105 . S
Sc356 O369 2.105 . S
Sc356 O372 2.105 . S
Sc356 O375 2.105 . S
Sc357 O359 2.025 . S
Sc357 O367 2.105 . S
Sc357 O371 2.105 . S
Sc357 O373 2.105 . S
Sc357 O377 2.105 . S
Sc358 O359 2.025 . S
Sc358 O368 2.105 . S
Sc358 O370 2.105 . S
Sc358 O374 2.105 . S
Sc358 O376 2.105 . S
O359 Sc356 2.025 . S
O359 Sc357 2.025 . S
O359 Sc358 2.025 . S
C360 O366 1.268 . S
C360 O376 1.268 . S
C361 O367 1.268 . S
C361 O375 1.268 . S
C362 O368 1.268 . S
C362 O377 1.268 . S
C363 O369 1.268 . S
C363 O373 1.268 . S
C364 O370 1.268 . S
C364 O372 1.268 . S
C365 O371 1.268 . S
C365 O374 1.268 . S
O366 Sc356 2.105 . S
O366 C360 1.268 . S
O367 Sc357 2.105 . S
O367 C361 1.268 . S
O368 Sc358 2.105 . S
O368 C362 1.268 . S
O369 Sc356 2.105 . S
O369 C363 1.268 . S
O370 Sc358 2.105 . S
O370 C364 1.268 . S
O371 Sc357 2.105 . S
O371 C365 1.268 . S
O372 Sc356 2.105 . S
O372 C364 1.268 . S
O373 Sc357 2.105 . S
O373 C363 1.268 . S
O374 Sc358 2.105 . S
O374 C365 1.268 . S
O375 Sc356 2.105 . S
O375 C361 1.268 . S
O376 Sc358 2.105 . S
O376 C360 1.268 . S
O377 Sc357 2.105 . S
O377 C362 1.268 . S
Sc378 O381 2.025 . S
Sc378 O388 2.105 . S
Sc378 O391 2.105 . S
Sc378 O394 2.105 . S
Sc378 O397 2.105 . S
Sc379 O381 2.025 . S
Sc379 O389 2.105 . S
Sc379 O393 2.105 . S
Sc379 O395 2.105 . S
Sc379 O399 2.105 . S
Sc380 O381 2.025 . S
Sc380 O390 2.105 . S
Sc380 O392 2.105 . S
Sc380 O396 2.105 . S
Sc380 O398 2.105 . S
O381 Sc378 2.025 . S
O381 Sc379 2.025 . S
O381 Sc380 2.025 . S
C382 O388 1.268 . S
C382 O398 1.268 . S
C383 O389 1.268 . S
C383 O397 1.268 . S
C384 O390 1.268 . S
C384 O399 1.268 . S
C385 O391 1.268 . S
C385 O395 1.268 . S
C386 O392 1.268 . S
C386 O394 1.268 . S
C387 O393 1.268 . S
C387 O396 1.268 . S
O388 Sc378 2.105 . S
O388 C382 1.268 . S
O389 Sc379 2.105 . S
O389 C383 1.268 . S
O390 Sc380 2.105 . S
O390 C384 1.268 . S
O391 Sc378 2.105 . S
O391 C385 1.268 . S
O392 Sc380 2.105 . S
O392 C386 1.268 . S
O393 Sc379 2.105 . S
O393 C387 1.268 . S
O394 Sc378 2.105 . S
O394 C386 1.268 . S
O395 Sc379 2.105 . S
O395 C385 1.268 . S
O396 Sc380 2.105 . S
O396 C387 1.268 . S
O397 Sc378 2.105 . S
O397 C383 1.268 . S
O398 Sc380 2.105 . S
O398 C382 1.268 . S
O399 Sc379 2.105 . S
O399 C384 1.268 . S
Sc400 O403 2.025 . S
Sc400 O410 2.105 . S
Sc400 O413 2.105 . S
Sc400 O416 2.105 . S
Sc400 O419 2.105 . S
Sc401 O403 2.025 . S
Sc401 O411 2.105 . S
Sc401 O415 2.105 . S
Sc401 O417 2.105 . S
Sc401 O421 2.105 . S
Sc402 O403 2.025 . S
Sc402 O412 2.105 . S
Sc402 O414 2.105 . S
Sc402 O418 2.105 . S
Sc402 O420 2.105 . S
O403 Sc400 2.025 . S
O403 Sc401 2.025 . S
O403 Sc402 2.025 . S
C404 O410 1.268 . S
C404 O420 1.268 . S
C405 O411 1.268 . S
C405 O419 1.268 . S
C406 O412 1.268 . S
C406 O421 1.268 . S
C407 O413 1.268 . S
C407 O417 1.268 . S
C408 O414 1.268 . S
C408 O416 1.268 . S
C409 O415 1.268 . S
C409 O418 1.268 . S
O410 Sc400 2.105 . S
O410 C404 1.268 . S
O411 Sc401 2.105 . S
O411 C405 1.268 . S
O412 Sc402 2.105 . S
O412 C406 1.268 . S
O413 Sc400 2.105 . S
O413 C407 1.268 . S
O414 Sc402 2.105 . S
O414 C408 1.268 . S
O415 Sc401 2.105 . S
O415 C409 1.268 . S
O416 Sc400 2.105 . S
O416 C408 1.268 . S
O417 Sc401 2.105 . S
O417 C407 1.268 . S
O418 Sc402 2.105 . S
O418 C409 1.268 . S
O419 Sc400 2.105 . S
O419 C405 1.268 . S
O420 Sc402 2.105 . S
O420 C404 1.268 . S
O421 Sc401 2.105 . S
O421 C406 1.268 . S
Sc422 O425 2.025 . S
Sc422 O432 2.105 . S
Sc422 O435 2.105 . S
Sc422 O438 2.105 . S
Sc422 O441 2.105 . S
Sc423 O425 2.025 . S
Sc423 O433 2.105 . S
Sc423 O437 2.105 . S
Sc423 O439 2.105 . S
Sc423 O443 2.105 . S
Sc424 O425 2.025 . S
Sc424 O434 2.105 . S
Sc424 O436 2.105 . S
Sc424 O440 2.105 . S
Sc424 O442 2.105 . S
O425 Sc422 2.025 . S
O425 Sc423 2.025 . S
O425 Sc424 2.025 . S
C426 O432 1.268 . S
C426 O442 1.268 . S
C427 O433 1.268 . S
C427 O441 1.268 . S
C428 O434 1.268 . S
C428 O443 1.268 . S
C429 O435 1.268 . S
C429 O439 1.268 . S
C430 O436 1.268 . S
C430 O438 1.268 . S
C431 O437 1.268 . S
C431 O440 1.268 . S
O432 Sc422 2.105 . S
O432 C426 1.268 . S
O433 Sc423 2.105 . S
O433 C427 1.268 . S
O434 Sc424 2.105 . S
O434 C428 1.268 . S
O435 Sc422 2.105 . S
O435 C429 1.268 . S
O436 Sc424 2.105 . S
O436 C430 1.268 . S
O437 Sc423 2.105 . S
O437 C431 1.268 . S
O438 Sc422 2.105 . S
O438 C430 1.268 . S
O439 Sc423 2.105 . S
O439 C429 1.268 . S
O440 Sc424 2.105 . S
O440 C431 1.268 . S
O441 Sc422 2.105 . S
O441 C427 1.268 . S
O442 Sc424 2.105 . S
O442 C426 1.268 . S
O443 Sc423 2.105 . S
O443 C428 1.268 . S
Sc444 O447 2.025 . S
Sc444 O454 2.105 . S
Sc444 O457 2.105 . S
Sc444 O460 2.105 . S
Sc444 O463 2.105 . S
Sc445 O447 2.025 . S
Sc445 O455 2.105 . S
Sc445 O459 2.105 . S
Sc445 O461 2.105 . S
Sc445 O465 2.105 . S
Sc446 O447 2.025 . S
Sc446 O456 2.105 . S
Sc446 O458 2.105 . S
Sc446 O462 2.105 . S
Sc446 O464 2.105 . S
O447 Sc444 2.025 . S
O447 Sc445 2.025 . S
O447 Sc446 2.025 . S
C448 O454 1.268 . S
C448 O464 1.268 . S
C449 O455 1.268 . S
C449 O463 1.268 . S
C450 O456 1.268 . S
C450 O465 1.268 . S
C451 O457 1.268 . S
C451 O461 1.268 . S
C452 O458 1.268 . S
C452 O460 1.268 . S
C453 O459 1.268 . S
C453 O462 1.268 . S
O454 Sc444 2.105 . S
O454 C448 1.268 . S
O455 Sc445 2.105 . S
O455 C449 1.268 . S
O456 Sc446 2.105 . S
O456 C450 1.268 . S
O457 Sc444 2.105 . S
O457 C451 1.268 . S
O458 Sc446 2.105 . S
O458 C452 1.268 . S
O459 Sc445 2.105 . S
O459 C453 1.268 . S
O460 Sc444 2.105 . S
O460 C452 1.268 . S
O461 Sc445 2.105 . S
O461 C451 1.268 . S
O462 Sc446 2.105 . S
O462 C453 1.268 . S
O463 Sc444 2.105 . S
O463 C449 1.268 . S
O464 Sc446 2.105 . S
O464 C448 1.268 . S
O465 Sc445 2.105 . S
O465 C450 1.268 . S
Sc466 O469 2.025 . S
Sc466 O476 2.105 . S
Sc466 O479 2.105 . S
Sc466 O482 2.105 . S
Sc466 O485 2.105 . S
Sc467 O469 2.025 . S
Sc467 O477 2.105 . S
Sc467 O481 2.105 . S
Sc467 O483 2.105 . S
Sc467 O487 2.105 . S
Sc468 O469 2.025 . S
Sc468 O478 2.105 . S
Sc468 O480 2.105 . S
Sc468 O484 2.105 . S
Sc468 O486 2.105 . S
O469 Sc466 2.025 . S
O469 Sc467 2.025 . S
O469 Sc468 2.025 . S
C470 O476 1.268 . S
C470 O486 1.268 . S
C471 O477 1.268 . S
C471 O485 1.268 . S
C472 O478 1.268 . S
C472 O487 1.268 . S
C473 O479 1.268 . S
C473 O483 1.268 . S
C474 O480 1.268 . S
C474 O482 1.268 . S
C475 O481 1.268 . S
C475 O484 1.268 . S
O476 Sc466 2.105 . S
O476 C470 1.268 . S
O477 Sc467 2.105 . S
O477 C471 1.268 . S
O478 Sc468 2.105 . S
O478 C472 1.268 . S
O479 Sc466 2.105 . S
O479 C473 1.268 . S
O480 Sc468 2.105 . S
O480 C474 1.268 . S
O481 Sc467 2.105 . S
O481 C475 1.268 . S
O482 Sc466 2.105 . S
O482 C474 1.268 . S
O483 Sc467 2.105 . S
O483 C473 1.268 . S
O484 Sc468 2.105 . S
O484 C475 1.268 . S
O485 Sc466 2.105 . S
O485 C471 1.268 . S
O486 Sc468 2.105 . S
O486 C470 1.268 . S
O487 Sc467 2.105 . S
O487 C472 1.268 . S
Sc488 O491 2.025 . S
Sc488 O498 2.105 . S
Sc488 O501 2.105 . S
Sc488 O504 2.105 . S
Sc488 O507 2.105 . S
Sc489 O491 2.025 . S
Sc489 O499 2.105 . S
Sc489 O503 2.105 . S
Sc489 O505 2.105 . S
Sc489 O509 2.105 . S
Sc490 O491 2.025 . S
Sc490 O500 2.105 . S
Sc490 O502 2.105 . S
Sc490 O506 2.105 . S
Sc490 O508 2.105 . S
O491 Sc488 2.025 . S
O491 Sc489 2.025 . S
O491 Sc490 2.025 . S
C492 O498 1.268 . S
C492 O508 1.268 . S
C493 O499 1.268 . S
C493 O507 1.268 . S
C494 O500 1.268 . S
C494 O509 1.268 . S
C495 O501 1.268 . S
C495 O505 1.268 . S
C496 O502 1.268 . S
C496 O504 1.268 . S
C497 O503 1.268 . S
C497 O506 1.268 . S
O498 Sc488 2.105 . S
O498 C492 1.268 . S
O499 Sc489 2.105 . S
O499 C493 1.268 . S
O500 Sc490 2.105 . S
O500 C494 1.268 . S
O501 Sc488 2.105 . S
O501 C495 1.268 . S
O502 Sc490 2.105 . S
O502 C496 1.268 . S
O503 Sc489 2.105 . S
O503 C497 1.268 . S
O504 Sc488 2.105 . S
O504 C496 1.268 . S
O505 Sc489 2.105 . S
O505 C495 1.268 . S
O506 Sc490 2.105 . S
O506 C497 1.268 . S
O507 Sc488 2.105 . S
O507 C493 1.268 . S
O508 Sc490 2.105 . S
O508 C492 1.268 . S
O509 Sc489 2.105 . S
O509 C494 1.268 . S
Sc510 O513 2.025 . S
Sc510 O520 2.105 . S
Sc510 O523 2.105 . S
Sc510 O526 2.105 . S
Sc510 O529 2.105 . S
Sc511 O513 2.025 . S
Sc511 O521 2.105 . S
Sc511 O525 2.105 . S
Sc511 O527 2.105 . S
Sc511 O531 2.105 . S
Sc512 O513 2.025 . S
Sc512 O522 2.105 . S
Sc512 O524 2.105 . S
Sc512 O528 2.105 . S
Sc512 O530 2.105 . S
O513 Sc510 2.025 . S
O513 Sc511 2.025 . S
O513 Sc512 2.025 . S
C514 O520 1.268 . S
C514 O530 1.268 . S
C515 O521 1.268 . S
C515 O529 1.268 . S
C516 O522 1.268 . S
C516 O531 1.268 . S
C517 O523 1.268 . S
C517 O527 1.268 . S
C518 O524 1.268 . S
C518 O526 1.268 . S
C519 O525 1.268 . S
C519 O528 1.268 . S
O520 Sc510 2.105 . S
O520 C514 1.268 . S
O521 Sc511 2.105 . S
O521 C515 1.268 . S
O522 Sc512 2.105 . S
O522 C516 1.268 . S
O523 Sc510 2.105 . S
O523 C517 1.268 . S
O524 Sc512 2.105 . S
O524 C518 1.268 . S
O525 Sc511 2.105 . S
O525 C519 1.268 . S
O526 Sc510 2.105 . S
O526 C518 1.268 . S
O527 Sc511 2.105 . S
O527 C517 1.268 . S
O528 Sc512 2.105 . S
O528 C519 1.268 . S
O529 Sc510 2.105 . S
O529 C515 1.268 . S
O530 Sc512 2.105 . S
O530 C514 1.268 . S
O531 Sc511 2.105 . S
O531 C516 1.268 . S
Sc532 O535 2.025 . S
Sc532 O542 2.105 . S
Sc532 O545 2.105 . S
Sc532 O548 2.105 . S
Sc532 O551 2.105 . S
Sc533 O535 2.025 . S
Sc533 O543 2.105 . S
Sc533 O547 2.105 . S
Sc533 O549 2.105 . S
Sc533 O553 2.105 . S
Sc534 O535 2.025 . S
Sc534 O544 2.105 . S
Sc534 O546 2.105 . S
Sc534 O550 2.105 . S
Sc534 O552 2.105 . S
O535 Sc532 2.025 . S
O535 Sc533 2.025 . S
O535 Sc534 2.025 . S
C536 O542 1.268 . S
C536 O552 1.268 . S
C537 O543 1.268 . S
C537 O551 1.268 . S
C538 O544 1.268 . S
C538 O553 1.268 . S
C539 O545 1.268 . S
C539 O549 1.268 . S
C540 O546 1.268 . S
C540 O548 1.268 . S
C541 O547 1.268 . S
C541 O550 1.268 . S
O542 Sc532 2.105 . S
O542 C536 1.268 . S
O543 Sc533 2.105 . S
O543 C537 1.268 . S
O544 Sc534 2.105 . S
O544 C538 1.268 . S
O545 Sc532 2.105 . S
O545 C539 1.268 . S
O546 Sc534 2.105 . S
O546 C540 1.268 . S
O547 Sc533 2.105 . S
O547 C541 1.268 . S
O548 Sc532 2.105 . S
O548 C540 1.268 . S
O549 Sc533 2.105 . S
O549 C539 1.268 . S
O550 Sc534 2.105 . S
O550 C541 1.268 . S
O551 Sc532 2.105 . S
O551 C537 1.268 . S
O552 Sc534 2.105 . S
O552 C536 1.268 . S
O553 Sc533 2.105 . S
O553 C538 1.268 . S
Sc554 O557 2.025 . S
Sc554 O564 2.105 . S
Sc554 O567 2.105 . S
Sc554 O570 2.105 . S
Sc554 O573 2.105 . S
Sc555 O557 2.025 . S
Sc555 O565 2.105 . S
Sc555 O569 2.105 . S
Sc555 O571 2.105 . S
Sc555 O575 2.105 . S
Sc556 O557 2.025 . S
Sc556 O566 2.105 . S
Sc556 O568 2.105 . S
Sc556 O572 2.105 . S
Sc556 O574 2.105 . S
O557 Sc554 2.025 . S
O557 Sc555 2.025 . S
O557 Sc556 2.025 . S
C558 O564 1.268 . S
C558 O574 1.268 . S
C559 O565 1.268 . S
C559 O573 1.268 . S
C560 O566 1.268 . S
C560 O575 1.268 . S
C561 O567 1.268 . S
C561 O571 1.268 . S
C562 O568 1.268 . S
C562 O570 1.268 . S
C563 O569 1.268 . S
C563 O572 1.268 . S
O564 Sc554 2.105 . S
O564 C558 1.268 . S
O565 Sc555 2.105 . S
O565 C559 1.268 . S
O566 Sc556 2.105 . S
O566 C560 1.268 . S
O567 Sc554 2.105 . S
O567 C561 1.268 . S
O568 Sc556 2.105 . S
O568 C562 1.268 . S
O569 Sc555 2.105 . S
O569 C563 1.268 . S
O570 Sc554 2.105 . S
O570 C562 1.268 . S
O571 Sc555 2.105 . S
O571 C561 1.268 . S
O572 Sc556 2.105 . S
O572 C563 1.268 . S
O573 Sc554 2.105 . S
O573 C559 1.268 . S
O574 Sc556 2.105 . S
O574 C558 1.268 . S
O575 Sc555 2.105 . S
O575 C560 1.268 . S
Sc576 O579 2.025 . S
Sc576 O586 2.105 . S
Sc576 O589 2.105 . S
Sc576 O592 2.105 . S
Sc576 O595 2.105 . S
Sc577 O579 2.025 . S
Sc577 O587 2.105 . S
Sc577 O591 2.105 . S
Sc577 O593 2.105 . S
Sc577 O597 2.105 . S
Sc578 O579 2.025 . S
Sc578 O588 2.105 . S
Sc578 O590 2.105 . S
Sc578 O594 2.105 . S
Sc578 O596 2.105 . S
O579 Sc576 2.025 . S
O579 Sc577 2.025 . S
O579 Sc578 2.025 . S
C580 O586 1.268 . S
C580 O596 1.268 . S
C581 O587 1.268 . S
C581 O595 1.268 . S
C582 O588 1.268 . S
C582 O597 1.268 . S
C583 O589 1.268 . S
C583 O593 1.268 . S
C584 O590 1.268 . S
C584 O592 1.268 . S
C585 O591 1.268 . S
C585 O594 1.268 . S
O586 Sc576 2.105 . S
O586 C580 1.268 . S
O587 Sc577 2.105 . S
O587 C581 1.268 . S
O588 Sc578 2.105 . S
O588 C582 1.268 . S
O589 Sc576 2.105 . S
O589 C583 1.268 . S
O590 Sc578 2.105 . S
O590 C584 1.268 . S
O591 Sc577 2.105 . S
O591 C585 1.268 . S
O592 Sc576 2.105 . S
O592 C584 1.268 . S
O593 Sc577 2.105 . S
O593 C583 1.268 . S
O594 Sc578 2.105 . S
O594 C585 1.268 . S
O595 Sc576 2.105 . S
O595 C581 1.268 . S
O596 Sc578 2.105 . S
O596 C580 1.268 . S
O597 Sc577 2.105 . S
O597 C582 1.268 . S
Sc598 O601 2.025 . S
Sc598 O608 2.105 . S
Sc598 O611 2.105 . S
Sc598 O614 2.105 . S
Sc598 O617 2.105 . S
Sc599 O601 2.025 . S
Sc599 O609 2.105 . S
Sc599 O613 2.105 . S
Sc599 O615 2.105 . S
Sc599 O619 2.105 . S
Sc600 O601 2.025 . S
Sc600 O610 2.105 . S
Sc600 O612 2.105 . S
Sc600 O616 2.105 . S
Sc600 O618 2.105 . S
O601 Sc598 2.025 . S
O601 Sc599 2.025 . S
O601 Sc600 2.025 . S
C602 O608 1.268 . S
C602 O618 1.268 . S
C603 O609 1.268 . S
C603 O617 1.268 . S
C604 O610 1.268 . S
C604 O619 1.268 . S
C605 O611 1.268 . S
C605 O615 1.268 . S
C606 O612 1.268 . S
C606 O614 1.268 . S
C607 O613 1.268 . S
C607 O616 1.268 . S
O608 Sc598 2.105 . S
O608 C602 1.268 . S
O609 Sc599 2.105 . S
O609 C603 1.268 . S
O610 Sc600 2.105 . S
O610 C604 1.268 . S
O611 Sc598 2.105 . S
O611 C605 1.268 . S
O612 Sc600 2.105 . S
O612 C606 1.268 . S
O613 Sc599 2.105 . S
O613 C607 1.268 . S
O614 Sc598 2.105 . S
O614 C606 1.268 . S
O615 Sc599 2.105 . S
O615 C605 1.268 . S
O616 Sc600 2.105 . S
O616 C607 1.268 . S
O617 Sc598 2.105 . S
O617 C603 1.268 . S
O618 Sc600 2.105 . S
O618 C602 1.268 . S
O619 Sc599 2.105 . S
O619 C604 1.268 . S
Sc620 O623 2.025 . S
Sc620 O630 2.105 . S
Sc620 O633 2.105 . S
Sc620 O636 2.105 . S
Sc620 O639 2.105 . S
Sc621 O623 2.025 . S
Sc621 O631 2.105 . S
Sc621 O635 2.105 . S
Sc621 O637 2.105 . S
Sc621 O641 2.105 . S
Sc622 O623 2.025 . S
Sc622 O632 2.105 . S
Sc622 O634 2.105 . S
Sc622 O638 2.105 . S
Sc622 O640 2.105 . S
O623 Sc620 2.025 . S
O623 Sc621 2.025 . S
O623 Sc622 2.025 . S
C624 O630 1.268 . S
C624 O640 1.268 . S
C625 O631 1.268 . S
C625 O639 1.268 . S
C626 O632 1.268 . S
C626 O641 1.268 . S
C627 O633 1.268 . S
C627 O637 1.268 . S
C628 O634 1.268 . S
C628 O636 1.268 . S
C629 O635 1.268 . S
C629 O638 1.268 . S
O630 Sc620 2.105 . S
O630 C624 1.268 . S
O631 Sc621 2.105 . S
O631 C625 1.268 . S
O632 Sc622 2.105 . S
O632 C626 1.268 . S
O633 Sc620 2.105 . S
O633 C627 1.268 . S
O634 Sc622 2.105 . S
O634 C628 1.268 . S
O635 Sc621 2.105 . S
O635 C629 1.268 . S
O636 Sc620 2.105 . S
O636 C628 1.268 . S
O637 Sc621 2.105 . S
O637 C627 1.268 . S
O638 Sc622 2.105 . S
O638 C629 1.268 . S
O639 Sc620 2.105 . S
O639 C625 1.268 . S
O640 Sc622 2.105 . S
O640 C624 1.268 . S
O641 Sc621 2.105 . S
O641 C626 1.268 . S
Sc642 O645 2.025 . S
Sc642 O652 2.105 . S
Sc642 O655 2.105 . S
Sc642 O658 2.105 . S
Sc642 O661 2.105 . S
Sc643 O645 2.025 . S
Sc643 O653 2.105 . S
Sc643 O657 2.105 . S
Sc643 O659 2.105 . S
Sc643 O663 2.105 . S
Sc644 O645 2.025 . S
Sc644 O654 2.105 . S
Sc644 O656 2.105 . S
Sc644 O660 2.105 . S
Sc644 O662 2.105 . S
O645 Sc642 2.025 . S
O645 Sc643 2.025 . S
O645 Sc644 2.025 . S
C646 O652 1.268 . S
C646 O662 1.268 . S
C647 O653 1.268 . S
C647 O661 1.268 . S
C648 O654 1.268 . S
C648 O663 1.268 . S
C649 O655 1.268 . S
C649 O659 1.268 . S
C650 O656 1.268 . S
C650 O658 1.268 . S
C651 O657 1.268 . S
C651 O660 1.268 . S
O652 Sc642 2.105 . S
O652 C646 1.268 . S
O653 Sc643 2.105 . S
O653 C647 1.268 . S
O654 Sc644 2.105 . S
O654 C648 1.268 . S
O655 Sc642 2.105 . S
O655 C649 1.268 . S
O656 Sc644 2.105 . S
O656 C650 1.268 . S
O657 Sc643 2.105 . S
O657 C651 1.268 . S
O658 Sc642 2.105 . S
O658 C650 1.268 . S
O659 Sc643 2.105 . S
O659 C649 1.268 . S
O660 Sc644 2.105 . S
O660 C651 1.268 . S
O661 Sc642 2.105 . S
O661 C647 1.268 . S
O662 Sc644 2.105 . S
O662 C646 1.268 . S
O663 Sc643 2.105 . S
O663 C648 1.268 . S
H664 C670 0.930 . S
H665 C673 0.930 . S
H666 C674 0.930 . S
H667 C675 0.930 . S
H668 C678 0.930 . S
H669 C679 0.930 . S
C670 H664 0.930 . S
C670 C671 1.355 . S
C670 C672 1.415 . S
C671 C670 1.355 . S
C671 C673 1.419 . S
C672 C670 1.415 . S
C672 C677 1.425 . S
C672 C679 1.409 . S
C673 H665 0.930 . S
C673 C671 1.419 . S
C673 C674 1.362 . S
C674 H666 0.930 . S
C674 C673 1.362 . S
C674 C677 1.409 . S
C675 H667 0.930 . S
C675 C676 1.355 . S
C675 C677 1.415 . S
C676 C675 1.355 . S
C676 C678 1.419 . S
C677 C672 1.425 . S
C677 C674 1.409 . S
C677 C675 1.415 . S
C678 H668 0.930 . S
C678 C676 1.419 . S
C678 C679 1.362 . S
C679 H669 0.930 . S
C679 C672 1.409 . S
C679 C678 1.362 . S
H680 C686 0.930 . S
H681 C689 0.930 . S
H682 C690 0.930 . S
H683 C691 0.930 . S
H684 C694 0.930 . S
H685 C695 0.930 . S
C686 H680 0.930 . S
C686 C687 1.355 . S
C686 C688 1.415 . S
C687 C686 1.355 . S
C687 C689 1.419 . S
C688 C686 1.415 . S
C688 C693 1.425 . S
C688 C695 1.409 . S
C689 H681 0.930 . S
C689 C687 1.419 . S
C689 C690 1.362 . S
C690 H682 0.930 . S
C690 C689 1.362 . S
C690 C693 1.409 . S
C691 H683 0.930 . S
C691 C692 1.355 . S
C691 C693 1.415 . S
C692 C691 1.355 . S
C692 C694 1.419 . S
C693 C688 1.425 . S
C693 C690 1.409 . S
C693 C691 1.415 . S
C694 H684 0.930 . S
C694 C692 1.419 . S
C694 C695 1.362 . S
C695 H685 0.930 . S
C695 C688 1.409 . S
C695 C694 1.362 . S
H696 C702 0.930 . S
H697 C705 0.930 . S
H698 C706 0.930 . S
H699 C707 0.930 . S
H700 C710 0.930 . S
H701 C711 0.930 . S
C702 H696 0.930 . S
C702 C703 1.355 . S
C702 C704 1.415 . S
C703 C702 1.355 . S
C703 C705 1.419 . S
C704 C702 1.415 . S
C704 C709 1.425 . S
C704 C711 1.409 . S
C705 H697 0.930 . S
C705 C703 1.419 . S
C705 C706 1.362 . S
C706 H698 0.930 . S
C706 C705 1.362 . S
C706 C709 1.409 . S
C707 H699 0.930 . S
C707 C708 1.355 . S
C707 C709 1.415 . S
C708 C707 1.355 . S
C708 C710 1.419 . S
C709 C704 1.425 . S
C709 C706 1.409 . S
C709 C707 1.415 . S
C710 H700 0.930 . S
C710 C708 1.419 . S
C710 C711 1.362 . S
C711 H701 0.930 . S
C711 C704 1.409 . S
C711 C710 1.362 . S
H712 C718 0.930 . S
H713 C721 0.930 . S
H714 C722 0.930 . S
H715 C723 0.930 . S
H716 C726 0.930 . S
H717 C727 0.930 1_554 S
C718 H712 0.930 . S
C718 C719 1.355 . S
C718 C720 1.415 . S
C719 C718 1.355 . S
C719 C721 1.419 . S
C720 C718 1.415 . S
C720 C725 1.425 . S
C720 C727 1.409 1_554 S
C721 H713 0.930 . S
C721 C719 1.419 . S
C721 C722 1.362 . S
C722 H714 0.930 . S
C722 C721 1.362 . S
C722 C725 1.409 . S
C723 H715 0.930 . S
C723 C724 1.355 . S
C723 C725 1.415 1_556 S
C724 C723 1.355 . S
C724 C726 1.419 . S
C725 C720 1.425 . S
C725 C722 1.409 . S
C725 C723 1.415 1_554 S
C726 H716 0.930 . S
C726 C724 1.419 . S
C726 C727 1.362 . S
C727 H717 0.930 1_556 S
C727 C720 1.409 1_556 S
C727 C726 1.362 . S
H728 C734 0.930 . S
H729 C737 0.930 1_655 S
H730 C738 0.930 . S
H731 C739 0.930 . S
H732 C742 0.930 . S
H733 C743 0.930 . S
C734 H728 0.930 . S
C734 C735 1.355 . S
C734 C736 1.415 . S
C735 C734 1.355 . S
C735 C737 1.419 . S
C736 C734 1.415 . S
C736 C741 1.425 . S
C736 C743 1.409 . S
C737 H729 0.930 1_455 S
C737 C735 1.419 . S
C737 C738 1.362 . S
C738 H730 0.930 . S
C738 C737 1.362 . S
C738 C741 1.409 . S
C739 H731 0.930 . S
C739 C740 1.355 . S
C739 C741 1.415 . S
C740 C739 1.355 . S
C740 C742 1.419 . S
C741 C736 1.425 . S
C741 C738 1.409 . S
C741 C739 1.415 . S
C742 H732 0.930 . S
C742 C740 1.419 . S
C742 C743 1.362 . S
C743 H733 0.930 . S
C743 C736 1.409 . S
C743 C742 1.362 . S
H744 C750 0.930 . S
H745 C753 0.930 . S
H746 C754 0.930 . S
H747 C755 0.930 . S
H748 C758 0.930 . S
H749 C759 0.930 . S
C750 H744 0.930 . S
C750 C751 1.355 . S
C750 C752 1.415 . S
C751 C750 1.355 . S
C751 C753 1.419 . S
C752 C750 1.415 . S
C752 C757 1.425 . S
C752 C759 1.409 . S
C753 H745 0.930 . S
C753 C751 1.419 . S
C753 C754 1.362 . S
C754 H746 0.930 . S
C754 C753 1.362 . S
C754 C757 1.409 . S
C755 H747 0.930 . S
C755 C756 1.355 . S
C755 C757 1.415 . S
C756 C755 1.355 . S
C756 C758 1.419 . S
C757 C752 1.425 . S
C757 C754 1.409 . S
C757 C755 1.415 . S
C758 H748 0.930 . S
C758 C756 1.419 . S
C758 C759 1.362 . S
C759 H749 0.930 . S
C759 C752 1.409 . S
C759 C758 1.362 . S
H760 C766 0.930 . S
H761 C769 0.930 . S
H762 C770 0.930 . S
H763 C771 0.930 . S
H764 C774 0.930 . S
H765 C775 0.930 . S
C766 H760 0.930 . S
C766 C767 1.355 . S
C766 C768 1.415 . S
C767 C766 1.355 . S
C767 C769 1.419 . S
C768 C766 1.415 . S
C768 C773 1.425 . S
C768 C775 1.409 . S
C769 H761 0.930 . S
C769 C767 1.419 . S
C769 C770 1.362 . S
C770 H762 0.930 . S
C770 C769 1.362 . S
C770 C773 1.409 . S
C771 H763 0.930 . S
C771 C772 1.355 . S
C771 C773 1.415 . S
C772 C771 1.355 . S
C772 C774 1.419 . S
C773 C768 1.425 . S
C773 C770 1.409 . S
C773 C771 1.415 . S
C774 H764 0.930 . S
C774 C772 1.419 . S
C774 C775 1.362 . S
C775 H765 0.930 . S
C775 C768 1.409 . S
C775 C774 1.362 . S
H776 C782 0.930 . S
H777 C785 0.930 . S
H778 C786 0.930 . S
H779 C787 0.930 1_556 S
H780 C790 0.930 . S
H781 C791 0.930 . S
C782 H776 0.930 . S
C782 C783 1.355 . S
C782 C784 1.415 . S
C783 C782 1.355 . S
C783 C785 1.419 . S
C784 C782 1.415 . S
C784 C789 1.425 . S
C784 C791 1.409 1_556 S
C785 H777 0.930 . S
C785 C783 1.419 . S
C785 C786 1.362 . S
C786 H778 0.930 . S
C786 C785 1.362 . S
C786 C789 1.409 . S
C787 H779 0.930 1_554 S
C787 C788 1.355 . S
C787 C789 1.415 1_554 S
C788 C787 1.355 . S
C788 C790 1.419 . S
C789 C784 1.425 . S
C789 C786 1.409 . S
C789 C787 1.415 1_556 S
C790 H780 0.930 . S
C790 C788 1.419 . S
C790 C791 1.362 . S
C791 H781 0.930 . S
C791 C784 1.409 1_554 S
C791 C790 1.362 . S
H792 C798 0.930 . S
H793 C801 0.930 . S
H794 C802 0.930 . S
H795 C803 0.930 . S
H796 C806 0.930 . S
H797 C807 0.930 . S
C798 H792 0.930 . S
C798 C799 1.355 . S
C798 C800 1.415 . S
C799 C798 1.355 . S
C799 C801 1.419 . S
C800 C798 1.415 . S
C800 C805 1.425 . S
C800 C807 1.409 . S
C801 H793 0.930 . S
C801 C799 1.419 . S
C801 C802 1.362 . S
C802 H794 0.930 . S
C802 C801 1.362 . S
C802 C805 1.409 . S
C803 H795 0.930 . S
C803 C804 1.355 . S
C803 C805 1.415 . S
C804 C803 1.355 . S
C804 C806 1.419 . S
C805 C800 1.425 . S
C805 C802 1.409 . S
C805 C803 1.415 . S
C806 H796 0.930 . S
C806 C804 1.419 . S
C806 C807 1.362 . S
C807 H797 0.930 . S
C807 C800 1.409 . S
C807 C806 1.362 . S
H808 C814 0.930 . S
H809 C817 0.930 . S
H810 C818 0.930 . S
H811 C819 0.930 . S
H812 C822 0.930 . S
H813 C823 0.930 . S
C814 H808 0.930 . S
C814 C815 1.355 . S
C814 C816 1.415 . S
C815 C814 1.355 . S
C815 C817 1.419 . S
C816 C814 1.415 . S
C816 C821 1.425 . S
C816 C823 1.409 1_545 S
C817 H809 0.930 . S
C817 C815 1.419 . S
C817 C818 1.362 . S
C818 H810 0.930 . S
C818 C817 1.362 . S
C818 C821 1.409 . S
C819 H811 0.930 . S
C819 C820 1.355 . S
C819 C821 1.415 1_565 S
C820 C819 1.355 . S
C820 C822 1.419 . S
C821 C816 1.425 . S
C821 C818 1.409 . S
C821 C819 1.415 1_545 S
C822 H812 0.930 . S
C822 C820 1.419 . S
C822 C823 1.362 . S
C823 H813 0.930 . S
C823 C816 1.409 1_565 S
C823 C822 1.362 . S
H824 C830 0.930 . S
H825 C833 0.930 . S
H826 C834 0.930 . S
H827 C835 0.930 . S
H828 C838 0.930 . S
H829 C839 0.930 . S
C830 H824 0.930 . S
C830 C831 1.355 . S
C830 C832 1.415 . S
C831 C830 1.355 . S
C831 C833 1.419 . S
C832 C830 1.415 . S
C832 C837 1.425 . S
C832 C839 1.409 . S
C833 H825 0.930 . S
C833 C831 1.419 . S
C833 C834 1.362 . S
C834 H826 0.930 . S
C834 C833 1.362 . S
C834 C837 1.409 . S
C835 H827 0.930 . S
C835 C836 1.355 . S
C835 C837 1.415 . S
C836 C835 1.355 . S
C836 C838 1.419 . S
C837 C832 1.425 . S
C837 C834 1.409 . S
C837 C835 1.415 . S
C838 H828 0.930 . S
C838 C836 1.419 . S
C838 C839 1.362 . S
C839 H829 0.930 . S
C839 C832 1.409 . S
C839 C838 1.362 . S
H840 C846 0.930 . S
H841 C849 0.930 . S
H842 C850 0.930 . S
H843 C851 0.930 . S
H844 C854 0.930 . S
H845 C855 0.930 . S
C846 H840 0.930 . S
C846 C847 1.355 . S
C846 C848 1.415 . S
C847 C846 1.355 . S
C847 C849 1.419 . S
C848 C846 1.415 . S
C848 C853 1.425 . S
C848 C855 1.409 . S
C849 H841 0.930 . S
C849 C847 1.419 . S
C849 C850 1.362 . S
C850 H842 0.930 . S
C850 C849 1.362 . S
C850 C853 1.409 . S
C851 H843 0.930 . S
C851 C852 1.355 . S
C851 C853 1.415 1_545 S
C852 C851 1.355 . S
C852 C854 1.419 . S
C853 C848 1.425 . S
C853 C850 1.409 . S
C853 C851 1.415 1_565 S
C854 H844 0.930 . S
C854 C852 1.419 . S
C854 C855 1.362 1_545 S
C855 H845 0.930 . S
C855 C848 1.409 . S
C855 C854 1.362 1_565 S
H856 C862 0.930 . S
H857 C865 0.930 . S
H858 C866 0.930 . S
H859 C867 0.930 . S
H860 C870 0.930 . S
H861 C871 0.930 . S
C862 H856 0.930 . S
C862 C863 1.355 . S
C862 C864 1.415 . S
C863 C862 1.355 . S
C863 C865 1.419 . S
C864 C862 1.415 . S
C864 C869 1.425 . S
C864 C871 1.409 . S
C865 H857 0.930 . S
C865 C863 1.419 . S
C865 C866 1.362 . S
C866 H858 0.930 . S
C866 C865 1.362 . S
C866 C869 1.409 . S
C867 H859 0.930 . S
C867 C868 1.355 . S
C867 C869 1.415 . S
C868 C867 1.355 . S
C868 C870 1.419 . S
C869 C864 1.425 . S
C869 C866 1.409 . S
C869 C867 1.415 . S
C870 H860 0.930 . S
C870 C868 1.419 . S
C870 C871 1.362 . S
C871 H861 0.930 . S
C871 C864 1.409 . S
C871 C870 1.362 . S
H872 C878 0.930 . S
H873 C881 0.930 . S
H874 C882 0.930 . S
H875 C883 0.929 1_545 S
H876 C886 0.930 . S
H877 C887 0.930 . S
C878 H872 0.930 . S
C878 C879 1.355 . S
C878 C880 1.415 . S
C879 C878 1.355 . S
C879 C881 1.419 . S
C880 C878 1.415 . S
C880 C885 1.425 . S
C880 C887 1.409 1_545 S
C881 H873 0.930 . S
C881 C879 1.419 . S
C881 C882 1.362 . S
C882 H874 0.930 . S
C882 C881 1.362 . S
C882 C885 1.409 . S
C883 H875 0.929 1_565 S
C883 C884 1.356 . S
C883 C885 1.414 1_565 S
C884 C883 1.356 . S
C884 C886 1.419 . S
C885 C880 1.425 . S
C885 C882 1.409 . S
C885 C883 1.414 1_545 S
C886 H876 0.930 . S
C886 C884 1.419 . S
C886 C887 1.362 . S
C887 H877 0.930 . S
C887 C880 1.409 1_565 S
C887 C886 1.362 . S
H888 C894 0.930 . S
H889 C897 0.930 . S
H890 C898 0.930 . S
H891 C899 0.930 . S
H892 C902 0.930 . S
H893 C903 0.930 . S
C894 H888 0.930 . S
C894 C895 1.355 . S
C894 C896 1.415 . S
C895 C894 1.355 . S
C895 C897 1.419 . S
C896 C894 1.415 . S
C896 C901 1.425 . S
C896 C903 1.409 . S
C897 H889 0.930 . S
C897 C895 1.419 . S
C897 C898 1.362 . S
C898 H890 0.930 . S
C898 C897 1.362 . S
C898 C901 1.409 . S
C899 H891 0.930 . S
C899 C900 1.355 . S
C899 C901 1.415 . S
C900 C899 1.355 . S
C900 C902 1.419 . S
C901 C896 1.425 . S
C901 C898 1.409 . S
C901 C899 1.415 . S
C902 H892 0.930 . S
C902 C900 1.419 . S
C902 C903 1.362 . S
C903 H893 0.930 . S
C903 C896 1.409 . S
C903 C902 1.362 . S
H904 C910 0.930 . S
H905 C913 0.930 . S
H906 C914 0.930 . S
H907 C915 0.930 1_565 S
H908 C918 0.930 . S
H909 C919 0.930 . S
C910 H904 0.930 . S
C910 C911 1.355 . S
C910 C912 1.415 . S
C911 C910 1.355 . S
C911 C913 1.419 . S
C912 C910 1.415 . S
C912 C917 1.425 . S
C912 C919 1.409 1_565 S
C913 H905 0.930 . S
C913 C911 1.419 . S
C913 C914 1.362 . S
C914 H906 0.930 . S
C914 C913 1.362 . S
C914 C917 1.409 . S
C915 H907 0.930 1_545 S
C915 C916 1.355 . S
C915 C917 1.415 1_545 S
C916 C915 1.355 . S
C916 C918 1.419 . S
C917 C912 1.425 . S
C917 C914 1.409 . S
C917 C915 1.415 1_565 S
C918 H908 0.930 . S
C918 C916 1.419 . S
C918 C919 1.362 . S
C919 H909 0.930 . S
C919 C912 1.409 1_545 S
C919 C918 1.362 . S
H920 C926 0.930 . S
H921 C929 0.930 . S
H922 C930 0.930 . S
H923 C931 0.930 . S
H924 C934 0.930 . S
H925 C935 0.930 . S
C926 H920 0.930 . S
C926 C927 1.355 . S
C926 C928 1.415 . S
C927 C926 1.355 . S
C927 C929 1.419 . S
C928 C926 1.415 . S
C928 C933 1.425 . S
C928 C935 1.409 . S
C929 H921 0.930 . S
C929 C927 1.419 . S
C929 C930 1.362 . S
C930 H922 0.930 . S
C930 C929 1.362 . S
C930 C933 1.409 . S
C931 H923 0.930 . S
C931 C932 1.355 . S
C931 C933 1.415 . S
C932 C931 1.355 . S
C932 C934 1.419 . S
C933 C928 1.425 . S
C933 C930 1.409 . S
C933 C931 1.415 . S
C934 H924 0.930 . S
C934 C932 1.419 . S
C934 C935 1.362 . S
C935 H925 0.930 . S
C935 C928 1.409 . S
C935 C934 1.362 . S
H936 C942 0.930 . S
H937 C945 0.930 . S
H938 C946 0.930 . S
H939 C947 0.930 . S
H940 C950 0.930 . S
H941 C951 0.930 . S
C942 H936 0.930 . S
C942 C943 1.355 . S
C942 C944 1.415 . S
C943 C942 1.355 . S
C943 C945 1.419 . S
C944 C942 1.415 . S
C944 C949 1.425 . S
C944 C951 1.409 . S
C945 H937 0.930 . S
C945 C943 1.419 . S
C945 C946 1.362 . S
C946 H938 0.930 . S
C946 C945 1.362 . S
C946 C949 1.409 . S
C947 H939 0.930 . S
C947 C948 1.355 . S
C947 C949 1.415 . S
C948 C947 1.355 . S
C948 C950 1.419 . S
C949 C944 1.425 . S
C949 C946 1.409 . S
C949 C947 1.415 . S
C950 H940 0.930 . S
C950 C948 1.419 . S
C950 C951 1.362 . S
C951 H941 0.930 . S
C951 C944 1.409 . S
C951 C950 1.362 . S
H952 C958 0.930 . S
H953 C961 0.930 . S
H954 C962 0.930 . S
H955 C963 0.930 1_455 S
H956 C966 0.930 . S
H957 C967 0.930 . S
C958 H952 0.930 . S
C958 C959 1.355 . S
C958 C960 1.415 . S
C959 C958 1.355 . S
C959 C961 1.419 . S
C960 C958 1.415 . S
C960 C965 1.425 . S
C960 C967 1.409 1_455 S
C961 H953 0.930 . S
C961 C959 1.419 . S
C961 C962 1.362 . S
C962 H954 0.930 . S
C962 C961 1.362 . S
C962 C965 1.409 . S
C963 H955 0.930 1_655 S
C963 C964 1.355 . S
C963 C965 1.415 1_655 S
C964 C963 1.355 . S
C964 C966 1.419 . S
C965 C960 1.425 . S
C965 C962 1.409 . S
C965 C963 1.415 1_455 S
C966 H956 0.930 . S
C966 C964 1.419 . S
C966 C967 1.362 . S
C967 H957 0.930 . S
C967 C960 1.409 1_655 S
C967 C966 1.362 . S
H968 C974 0.930 . S
H969 C977 0.930 . S
H970 C978 0.930 . S
H971 C979 0.930 . S
H972 C982 0.930 . S
H973 C983 0.930 . S
C974 H968 0.930 . S
C974 C975 1.355 . S
C974 C976 1.415 . S
C975 C974 1.355 . S
C975 C977 1.419 . S
C976 C974 1.415 . S
C976 C981 1.425 . S
C976 C983 1.409 . S
C977 H969 0.930 . S
C977 C975 1.419 . S
C977 C978 1.362 . S
C978 H970 0.930 . S
C978 C977 1.362 . S
C978 C981 1.409 . S
C979 H971 0.930 . S
C979 C980 1.355 . S
C979 C981 1.415 . S
C980 C979 1.355 . S
C980 C982 1.419 . S
C981 C976 1.425 . S
C981 C978 1.409 . S
C981 C979 1.415 . S
C982 H972 0.930 . S
C982 C980 1.419 . S
C982 C983 1.362 . S
C983 H973 0.930 . S
C983 C976 1.409 . S
C983 C982 1.362 . S
H984 C990 0.930 . S
H985 C993 0.930 . S
H986 C994 0.930 . S
H987 C995 0.930 . S
H988 C998 0.930 . S
H989 C999 0.930 . S
C990 H984 0.930 . S
C990 C991 1.355 . S
C990 C992 1.415 . S
C991 C990 1.355 . S
C991 C993 1.419 . S
C992 C990 1.415 . S
C992 C997 1.425 . S
C992 C999 1.409 1_655 S
C993 H985 0.930 . S
C993 C991 1.419 . S
C993 C994 1.362 . S
C994 H986 0.930 . S
C994 C993 1.362 . S
C994 C997 1.409 . S
C995 H987 0.930 . S
C995 C996 1.355 . S
C995 C997 1.415 1_455 S
C996 C995 1.355 . S
C996 C998 1.419 . S
C997 C992 1.425 . S
C997 C994 1.409 . S
C997 C995 1.415 1_655 S
C998 H988 0.930 . S
C998 C996 1.419 . S
C998 C999 1.362 . S
C999 H989 0.930 . S
C999 C992 1.409 1_455 S
C999 C998 1.362 . S
H1000 C1006 0.930 . S
H1001 C1009 0.930 . S
H1002 C1010 0.930 . S
H1003 C1011 0.930 . S
H1004 C1014 0.930 . S
H1005 C1015 0.930 . S
C1006 H1000 0.930 . S
C1006 C1007 1.355 . S
C1006 C1008 1.415 . S
C1007 C1006 1.355 . S
C1007 C1009 1.419 . S
C1008 C1006 1.415 . S
C1008 C1013 1.425 . S
C1008 C1015 1.409 . S
C1009 H1001 0.930 . S
C1009 C1007 1.419 . S
C1009 C1010 1.362 . S
C1010 H1002 0.930 . S
C1010 C1009 1.362 . S
C1010 C1013 1.409 . S
C1011 H1003 0.930 . S
C1011 C1012 1.355 . S
C1011 C1013 1.415 . S
C1012 C1011 1.355 . S
C1012 C1014 1.419 . S
C1013 C1008 1.425 . S
C1013 C1010 1.409 . S
C1013 C1011 1.415 . S
C1014 H1004 0.930 . S
C1014 C1012 1.419 . S
C1014 C1015 1.362 . S
C1015 H1005 0.930 . S
C1015 C1008 1.409 . S
C1015 C1014 1.362 . S
H1016 C1022 0.930 . S
H1017 C1025 0.930 . S
H1018 C1026 0.930 . S
H1019 C1027 0.930 1_455 S
H1020 C1030 0.930 . S
H1021 C1031 0.930 . S
C1022 H1016 0.930 . S
C1022 C1023 1.355 . S
C1022 C1024 1.415 . S
C1023 C1022 1.355 . S
C1023 C1025 1.419 . S
C1024 C1022 1.415 . S
C1024 C1029 1.425 . S
C1024 C1031 1.409 1_455 S
C1025 H1017 0.930 . S
C1025 C1023 1.419 . S
C1025 C1026 1.362 . S
C1026 H1018 0.930 . S
C1026 C1025 1.362 . S
C1026 C1029 1.409 . S
C1027 H1019 0.930 1_655 S
C1027 C1028 1.355 . S
C1027 C1029 1.415 1_655 S
C1028 C1027 1.355 . S
C1028 C1030 1.419 . S
C1029 C1024 1.425 . S
C1029 C1026 1.409 . S
C1029 C1027 1.415 1_455 S
C1030 H1020 0.930 . S
C1030 C1028 1.419 . S
C1030 C1031 1.362 . S
C1031 H1021 0.930 . S
C1031 C1024 1.409 1_655 S
C1031 C1030 1.362 . S
H1032 C1038 0.930 . S
H1033 C1041 0.930 . S
H1034 C1042 0.930 . S
H1035 C1043 0.930 . S
H1036 C1046 0.930 . S
H1037 C1047 0.930 . S
C1038 H1032 0.930 . S
C1038 C1039 1.355 . S
C1038 C1040 1.415 . S
C1039 C1038 1.355 . S
C1039 C1041 1.419 . S
C1040 C1038 1.415 . S
C1040 C1045 1.425 . S
C1040 C1047 1.409 . S
C1041 H1033 0.930 . S
C1041 C1039 1.419 . S
C1041 C1042 1.362 . S
C1042 H1034 0.930 . S
C1042 C1041 1.362 . S
C1042 C1045 1.409 . S
C1043 H1035 0.930 . S
C1043 C1044 1.355 . S
C1043 C1045 1.415 . S
C1044 C1043 1.355 . S
C1044 C1046 1.419 . S
C1045 C1040 1.425 . S
C1045 C1042 1.409 . S
C1045 C1043 1.415 . S
C1046 H1036 0.930 . S
C1046 C1044 1.419 . S
C1046 C1047 1.362 . S
C1047 H1037 0.930 . S
C1047 C1040 1.409 . S
C1047 C1046 1.362 . S
H1048 C1054 0.930 . S
H1049 C1057 0.930 . S
H1050 C1058 0.930 . S
H1051 C1059 0.930 . S
H1052 C1062 0.930 . S
H1053 C1063 0.930 . S
C1054 H1048 0.930 . S
C1054 C1055 1.355 . S
C1054 C1056 1.415 . S
C1055 C1054 1.355 . S
C1055 C1057 1.419 . S
C1056 C1054 1.415 . S
C1056 C1061 1.425 . S
C1056 C1063 1.409 . S
C1057 H1049 0.930 . S
C1057 C1055 1.419 . S
C1057 C1058 1.362 . S
C1058 H1050 0.930 . S
C1058 C1057 1.362 . S
C1058 C1061 1.409 . S
C1059 H1051 0.930 . S
C1059 C1060 1.355 . S
C1059 C1061 1.415 . S
C1060 C1059 1.355 . S
C1060 C1062 1.419 . S
C1061 C1056 1.425 . S
C1061 C1058 1.409 . S
C1061 C1059 1.415 . S
C1062 H1052 0.930 . S
C1062 C1060 1.419 . S
C1062 C1063 1.362 . S
C1063 H1053 0.930 . S
C1063 C1056 1.409 . S
C1063 C1062 1.362 . S
H1064 C1070 0.930 . S
H1065 C1073 0.930 . S
H1066 C1074 0.930 . S
H1067 C1075 0.930 . S
H1068 C1078 0.930 . S
H1069 C1079 0.930 . S
C1070 H1064 0.930 . S
C1070 C1071 1.355 . S
C1070 C1072 1.415 . S
C1071 C1070 1.355 . S
C1071 C1073 1.419 . S
C1072 C1070 1.415 . S
C1072 C1077 1.425 . S
C1072 C1079 1.409 . S
C1073 H1065 0.930 . S
C1073 C1071 1.419 . S
C1073 C1074 1.362 . S
C1074 H1066 0.930 . S
C1074 C1073 1.362 . S
C1074 C1077 1.409 . S
C1075 H1067 0.930 . S
C1075 C1076 1.355 . S
C1075 C1077 1.415 . S
C1076 C1075 1.355 . S
C1076 C1078 1.419 . S
C1077 C1072 1.425 . S
C1077 C1074 1.409 . S
C1077 C1075 1.415 . S
C1078 H1068 0.930 . S
C1078 C1076 1.419 . S
C1078 C1079 1.362 . S
C1079 H1069 0.930 . S
C1079 C1072 1.409 . S
C1079 C1078 1.362 . S
H1080 C1086 0.930 . S
H1081 C1089 0.930 . S
H1082 C1090 0.930 . S
H1083 C1091 0.930 . S
H1084 C1094 0.930 . S
H1085 C1095 0.930 . S
C1086 H1080 0.930 . S
C1086 C1087 1.355 . S
C1086 C1088 1.415 . S
C1087 C1086 1.355 . S
C1087 C1089 1.419 . S
C1088 C1086 1.415 . S
C1088 C1093 1.425 . S
C1088 C1095 1.409 . S
C1089 H1081 0.930 . S
C1089 C1087 1.419 . S
C1089 C1090 1.362 . S
C1090 H1082 0.930 . S
C1090 C1089 1.362 . S
C1090 C1093 1.409 . S
C1091 H1083 0.930 . S
C1091 C1092 1.355 . S
C1091 C1093 1.415 . S
C1092 C1091 1.355 . S
C1092 C1094 1.419 . S
C1093 C1088 1.425 . S
C1093 C1090 1.409 . S
C1093 C1091 1.415 . S
C1094 H1084 0.930 . S
C1094 C1092 1.419 . S
C1094 C1095 1.362 . S
C1095 H1085 0.930 . S
C1095 C1088 1.409 . S
C1095 C1094 1.362 . S
H1096 C1102 0.930 . S
H1097 C1105 0.930 . S
H1098 C1106 0.930 1_554 S
H1099 C1107 0.930 . S
H1100 C1110 0.930 . S
H1101 C1111 0.930 . S
C1102 H1096 0.930 . S
C1102 C1103 1.355 . S
C1102 C1104 1.415 . S
C1103 C1102 1.355 . S
C1103 C1105 1.419 . S
C1104 C1102 1.415 . S
C1104 C1109 1.425 . S
C1104 C1111 1.409 . S
C1105 H1097 0.930 . S
C1105 C1103 1.419 . S
C1105 C1106 1.362 . S
C1106 H1098 0.930 1_556 S
C1106 C1105 1.362 . S
C1106 C1109 1.409 . S
C1107 H1099 0.930 . S
C1107 C1108 1.355 . S
C1107 C1109 1.415 1_554 S
C1108 C1107 1.355 . S
C1108 C1110 1.419 . S
C1109 C1104 1.425 . S
C1109 C1106 1.409 . S
C1109 C1107 1.415 1_556 S
C1110 H1100 0.930 . S
C1110 C1108 1.419 . S
C1110 C1111 1.362 1_554 S
C1111 H1101 0.930 . S
C1111 C1104 1.409 . S
C1111 C1110 1.362 1_556 S
H1112 C1118 0.930 . S
H1113 C1121 0.930 . S
H1114 C1122 0.930 . S
H1115 C1123 0.930 . S
H1116 C1126 0.930 . S
H1117 C1127 0.930 . S
C1118 H1112 0.930 . S
C1118 C1119 1.355 . S
C1118 C1120 1.415 . S
C1119 C1118 1.355 . S
C1119 C1121 1.419 . S
C1120 C1118 1.415 . S
C1120 C1125 1.425 . S
C1120 C1127 1.409 . S
C1121 H1113 0.930 . S
C1121 C1119 1.419 . S
C1121 C1122 1.362 . S
C1122 H1114 0.930 . S
C1122 C1121 1.362 . S
C1122 C1125 1.409 . S
C1123 H1115 0.930 . S
C1123 C1124 1.355 . S
C1123 C1125 1.415 . S
C1124 C1123 1.355 . S
C1124 C1126 1.419 . S
C1125 C1120 1.425 . S
C1125 C1122 1.409 . S
C1125 C1123 1.415 . S
C1126 H1116 0.930 . S
C1126 C1124 1.419 . S
C1126 C1127 1.362 . S
C1127 H1117 0.930 . S
C1127 C1120 1.409 . S
C1127 C1126 1.362 . S
H1128 C1134 0.930 . S
H1129 C1137 0.930 . S
H1130 C1138 0.930 . S
H1131 C1139 0.930 . S
H1132 C1142 0.930 . S
H1133 C1143 0.930 . S
C1134 H1128 0.930 . S
C1134 C1135 1.355 . S
C1134 C1136 1.415 . S
C1135 C1134 1.355 . S
C1135 C1137 1.419 . S
C1136 C1134 1.415 . S
C1136 C1141 1.425 . S
C1136 C1143 1.409 . S
C1137 H1129 0.930 . S
C1137 C1135 1.419 . S
C1137 C1138 1.362 . S
C1138 H1130 0.930 . S
C1138 C1137 1.362 . S
C1138 C1141 1.409 . S
C1139 H1131 0.930 . S
C1139 C1140 1.355 . S
C1139 C1141 1.415 . S
C1140 C1139 1.355 . S
C1140 C1142 1.419 . S
C1141 C1136 1.425 . S
C1141 C1138 1.409 . S
C1141 C1139 1.415 . S
C1142 H1132 0.930 . S
C1142 C1140 1.419 . S
C1142 C1143 1.362 . S
C1143 H1133 0.930 . S
C1143 C1136 1.409 . S
C1143 C1142 1.362 . S
H1144 C1150 0.930 . S
H1145 C1153 0.930 . S
H1146 C1154 0.930 . S
H1147 C1155 0.930 . S
H1148 C1158 0.930 . S
H1149 C1159 0.930 . S
C1150 H1144 0.930 . S
C1150 C1151 1.355 . S
C1150 C1152 1.415 . S
C1151 C1150 1.355 . S
C1151 C1153 1.419 . S
C1152 C1150 1.415 . S
C1152 C1157 1.425 . S
C1152 C1159 1.409 . S
C1153 H1145 0.930 . S
C1153 C1151 1.419 . S
C1153 C1154 1.362 . S
C1154 H1146 0.930 . S
C1154 C1153 1.362 . S
C1154 C1157 1.409 . S
C1155 H1147 0.930 . S
C1155 C1156 1.355 . S
C1155 C1157 1.415 . S
C1156 C1155 1.355 . S
C1156 C1158 1.419 . S
C1157 C1152 1.425 . S
C1157 C1154 1.409 . S
C1157 C1155 1.415 . S
C1158 H1148 0.930 . S
C1158 C1156 1.419 . S
C1158 C1159 1.362 . S
C1159 H1149 0.930 . S
C1159 C1152 1.409 . S
C1159 C1158 1.362 . S
H1160 C1166 0.930 . S
H1161 C1169 0.930 . S
H1162 C1170 0.930 . S
H1163 C1171 0.930 . S
H1164 C1174 0.930 . S
H1165 C1175 0.930 . S
C1166 H1160 0.930 . S
C1166 C1167 1.355 . S
C1166 C1168 1.415 . S
C1167 C1166 1.355 . S
C1167 C1169 1.419 . S
C1168 C1166 1.415 . S
C1168 C1173 1.425 . S
C1168 C1175 1.409 1_554 S
C1169 H1161 0.930 . S
C1169 C1167 1.419 . S
C1169 C1170 1.362 . S
C1170 H1162 0.930 . S
C1170 C1169 1.362 . S
C1170 C1173 1.409 . S
C1171 H1163 0.930 . S
C1171 C1172 1.355 . S
C1171 C1173 1.415 1_556 S
C1172 C1171 1.355 . S
C1172 C1174 1.419 . S
C1173 C1168 1.425 . S
C1173 C1170 1.409 . S
C1173 C1171 1.415 1_554 S
C1174 H1164 0.930 . S
C1174 C1172 1.419 . S
C1174 C1175 1.362 . S
C1175 H1165 0.930 . S
C1175 C1168 1.409 1_556 S
C1175 C1174 1.362 . S
H1176 C1182 0.930 . S
H1177 C1185 0.930 . S
H1178 C1186 0.930 . S
H1179 C1187 0.930 . S
H1180 C1190 0.930 . S
H1181 C1191 0.930 . S
C1182 H1176 0.930 . S
C1182 C1183 1.355 . S
C1182 C1184 1.415 . S
C1183 C1182 1.355 . S
C1183 C1185 1.419 . S
C1184 C1182 1.415 . S
C1184 C1189 1.425 . S
C1184 C1191 1.409 . S
C1185 H1177 0.930 . S
C1185 C1183 1.419 . S
C1185 C1186 1.362 . S
C1186 H1178 0.930 . S
C1186 C1185 1.362 . S
C1186 C1189 1.409 . S
C1187 H1179 0.930 . S
C1187 C1188 1.355 . S
C1187 C1189 1.415 . S
C1188 C1187 1.355 . S
C1188 C1190 1.419 . S
C1189 C1184 1.425 . S
C1189 C1186 1.409 . S
C1189 C1187 1.415 . S
C1190 H1180 0.930 . S
C1190 C1188 1.419 . S
C1190 C1191 1.362 . S
C1191 H1181 0.930 . S
C1191 C1184 1.409 . S
C1191 C1190 1.362 . S
H1192 C1198 0.930 . S
H1193 C1201 0.930 . S
H1194 C1202 0.930 . S
H1195 C1203 0.930 . S
H1196 C1206 0.930 . S
H1197 C1207 0.930 . S
C1198 H1192 0.930 . S
C1198 C1199 1.355 . S
C1198 C1200 1.415 . S
C1199 C1198 1.355 . S
C1199 C1201 1.419 . S
C1200 C1198 1.415 . S
C1200 C1205 1.425 . S
C1200 C1207 1.409 . S
C1201 H1193 0.930 . S
C1201 C1199 1.419 . S
C1201 C1202 1.362 . S
C1202 H1194 0.930 . S
C1202 C1201 1.362 . S
C1202 C1205 1.409 . S
C1203 H1195 0.930 . S
C1203 C1204 1.355 . S
C1203 C1205 1.415 1_545 S
C1204 C1203 1.355 . S
C1204 C1206 1.419 . S
C1205 C1200 1.425 . S
C1205 C1202 1.409 . S
C1205 C1203 1.415 1_565 S
C1206 H1196 0.930 . S
C1206 C1204 1.419 . S
C1206 C1207 1.362 1_545 S
C1207 H1197 0.930 . S
C1207 C1200 1.409 . S
C1207 C1206 1.362 1_565 S
H1208 C1214 0.930 . S
H1209 C1217 0.930 . S
H1210 C1218 0.930 . S
H1211 C1219 0.930 . S
H1212 C1222 0.930 . S
H1213 C1223 0.930 . S
C1214 H1208 0.930 . S
C1214 C1215 1.355 . S
C1214 C1216 1.415 . S
C1215 C1214 1.355 . S
C1215 C1217 1.419 . S
C1216 C1214 1.415 . S
C1216 C1221 1.425 . S
C1216 C1223 1.409 . S
C1217 H1209 0.930 . S
C1217 C1215 1.419 . S
C1217 C1218 1.362 . S
C1218 H1210 0.930 . S
C1218 C1217 1.362 . S
C1218 C1221 1.409 . S
C1219 H1211 0.930 . S
C1219 C1220 1.355 . S
C1219 C1221 1.415 . S
C1220 C1219 1.355 . S
C1220 C1222 1.419 . S
C1221 C1216 1.425 . S
C1221 C1218 1.409 . S
C1221 C1219 1.415 . S
C1222 H1212 0.930 . S
C1222 C1220 1.419 . S
C1222 C1223 1.362 . S
C1223 H1213 0.930 . S
C1223 C1216 1.409 . S
C1223 C1222 1.362 . S
H1224 C1230 0.930 . S
H1225 C1233 0.930 . S
H1226 C1234 0.930 . S
H1227 C1235 0.930 1_545 S
H1228 C1238 0.930 . S
H1229 C1239 0.930 . S
C1230 H1224 0.930 . S
C1230 C1231 1.355 . S
C1230 C1232 1.415 . S
C1231 C1230 1.355 . S
C1231 C1233 1.419 . S
C1232 C1230 1.415 . S
C1232 C1237 1.425 . S
C1232 C1239 1.409 1_545 S
C1233 H1225 0.930 . S
C1233 C1231 1.419 . S
C1233 C1234 1.362 . S
C1234 H1226 0.930 . S
C1234 C1233 1.362 . S
C1234 C1237 1.409 . S
C1235 H1227 0.930 1_565 S
C1235 C1236 1.355 . S
C1235 C1237 1.415 1_565 S
C1236 C1235 1.355 . S
C1236 C1238 1.419 . S
C1237 C1232 1.425 . S
C1237 C1234 1.409 . S
C1237 C1235 1.415 1_545 S
C1238 H1228 0.930 . S
C1238 C1236 1.419 . S
C1238 C1239 1.362 . S
C1239 H1229 0.930 . S
C1239 C1232 1.409 1_565 S
C1239 C1238 1.362 . S
H1240 C1246 0.930 . S
H1241 C1249 0.930 . S
H1242 C1250 0.930 . S
H1243 C1251 0.930 . S
H1244 C1254 0.930 . S
H1245 C1255 0.930 . S
C1246 H1240 0.930 . S
C1246 C1247 1.355 . S
C1246 C1248 1.415 . S
C1247 C1246 1.355 . S
C1247 C1249 1.419 . S
C1248 C1246 1.415 . S
C1248 C1253 1.425 . S
C1248 C1255 1.409 . S
C1249 H1241 0.930 . S
C1249 C1247 1.419 . S
C1249 C1250 1.362 . S
C1250 H1242 0.930 . S
C1250 C1249 1.362 . S
C1250 C1253 1.409 . S
C1251 H1243 0.930 . S
C1251 C1252 1.355 . S
C1251 C1253 1.415 . S
C1252 C1251 1.355 . S
C1252 C1254 1.419 . S
C1253 C1248 1.425 . S
C1253 C1250 1.409 . S
C1253 C1251 1.415 . S
C1254 H1244 0.930 . S
C1254 C1252 1.419 . S
C1254 C1255 1.362 . S
C1255 H1245 0.930 . S
C1255 C1248 1.409 . S
C1255 C1254 1.362 . S
H1256 C1262 0.930 . S
H1257 C1265 0.930 . S
H1258 C1266 0.930 . S
H1259 C1267 0.936 . S
H1260 C1270 0.930 . S
H1261 C1271 0.930 . S
C1262 H1256 0.930 . S
C1262 C1263 1.355 . S
C1262 C1264 1.415 . S
C1263 C1262 1.355 . S
C1263 C1265 1.419 . S
C1264 C1262 1.415 . S
C1264 C1269 1.425 . S
C1264 C1271 1.409 1_565 S
C1265 H1257 0.930 . S
C1265 C1263 1.419 . S
C1265 C1266 1.362 . S
C1266 H1258 0.930 . S
C1266 C1265 1.362 . S
C1266 C1269 1.409 . S
C1267 H1259 0.936 . S
C1267 C1268 1.355 . S
C1267 C1269 1.415 1_545 S
C1268 C1267 1.355 . S
C1268 C1270 1.419 . S
C1269 C1264 1.425 . S
C1269 C1266 1.409 . S
C1269 C1267 1.415 1_565 S
C1270 H1260 0.930 . S
C1270 C1268 1.419 . S
C1270 C1271 1.362 . S
C1271 H1261 0.930 . S
C1271 C1264 1.409 1_545 S
C1271 C1270 1.362 . S
H1272 C1278 0.930 . S
H1273 C1281 0.930 . S
H1274 C1282 0.930 . S
H1275 C1283 0.930 . S
H1276 C1286 0.930 . S
H1277 C1287 0.930 . S
C1278 H1272 0.930 . S
C1278 C1279 1.355 . S
C1278 C1280 1.415 . S
C1279 C1278 1.355 . S
C1279 C1281 1.419 . S
C1280 C1278 1.415 . S
C1280 C1285 1.425 . S
C1280 C1287 1.409 . S
C1281 H1273 0.930 . S
C1281 C1279 1.419 . S
C1281 C1282 1.362 . S
C1282 H1274 0.930 . S
C1282 C1281 1.362 . S
C1282 C1285 1.409 . S
C1283 H1275 0.930 . S
C1283 C1284 1.355 . S
C1283 C1285 1.415 . S
C1284 C1283 1.355 . S
C1284 C1286 1.419 . S
C1285 C1280 1.425 . S
C1285 C1282 1.409 . S
C1285 C1283 1.415 . S
C1286 H1276 0.930 . S
C1286 C1284 1.419 . S
C1286 C1287 1.362 . S
C1287 H1277 0.930 . S
C1287 C1280 1.409 . S
C1287 C1286 1.362 . S
H1288 C1294 0.930 . S
H1289 C1297 0.930 1_554 S
H1290 C1298 0.930 1_565 S
H1291 C1299 0.930 . S
H1292 C1302 0.930 . S
H1293 C1303 0.930 . S
C1294 H1288 0.930 . S
C1294 C1295 1.355 . S
C1294 C1296 1.415 . S
C1295 C1294 1.355 . S
C1295 C1297 1.419 . S
C1296 C1294 1.415 . S
C1296 C1301 1.425 . S
C1296 C1303 1.409 . S
C1297 H1289 0.930 1_556 S
C1297 C1295 1.419 . S
C1297 C1298 1.362 . S
C1298 H1290 0.930 1_545 S
C1298 C1297 1.362 . S
C1298 C1301 1.409 . S
C1299 H1291 0.930 . S
C1299 C1300 1.355 . S
C1299 C1301 1.415 1_565 S
C1300 C1299 1.355 . S
C1300 C1302 1.419 . S
C1301 C1296 1.425 . S
C1301 C1298 1.409 . S
C1301 C1299 1.415 1_545 S
C1302 H1292 0.930 . S
C1302 C1300 1.419 . S
C1302 C1303 1.362 1_565 S
C1303 H1293 0.930 . S
C1303 C1296 1.409 . S
C1303 C1302 1.362 1_545 S
H1304 C1310 0.930 . S
H1305 C1313 0.930 . S
H1306 C1314 0.930 . S
H1307 C1315 0.930 . S
H1308 C1318 0.930 . S
H1309 C1319 0.930 . S
C1310 H1304 0.930 . S
C1310 C1311 1.355 . S
C1310 C1312 1.415 . S
C1311 C1310 1.355 . S
C1311 C1313 1.419 . S
C1312 C1310 1.415 . S
C1312 C1317 1.425 . S
C1312 C1319 1.409 . S
C1313 H1305 0.930 . S
C1313 C1311 1.419 . S
C1313 C1314 1.362 . S
C1314 H1306 0.930 . S
C1314 C1313 1.362 . S
C1314 C1317 1.409 . S
C1315 H1307 0.930 . S
C1315 C1316 1.355 . S
C1315 C1317 1.415 . S
C1316 C1315 1.355 . S
C1316 C1318 1.419 . S
C1317 C1312 1.425 . S
C1317 C1314 1.409 . S
C1317 C1315 1.415 . S
C1318 H1308 0.930 . S
C1318 C1316 1.419 . S
C1318 C1319 1.362 . S
C1319 H1309 0.930 . S
C1319 C1312 1.409 . S
C1319 C1318 1.362 . S
H1320 C1326 0.930 . S
H1321 C1329 0.930 . S
H1322 C1330 0.930 . S
H1323 C1331 0.930 . S
H1324 C1334 0.930 . S
H1325 C1335 0.930 . S
C1326 H1320 0.930 . S
C1326 C1327 1.355 . S
C1326 C1328 1.415 . S
C1327 C1326 1.355 . S
C1327 C1329 1.419 . S
C1328 C1326 1.415 . S
C1328 C1333 1.425 . S
C1328 C1335 1.409 . S
C1329 H1321 0.930 . S
C1329 C1327 1.419 . S
C1329 C1330 1.362 . S
C1330 H1322 0.930 . S
C1330 C1329 1.362 . S
C1330 C1333 1.409 . S
C1331 H1323 0.930 . S
C1331 C1332 1.355 . S
C1331 C1333 1.415 . S
C1332 C1331 1.355 . S
C1332 C1334 1.419 . S
C1333 C1328 1.425 . S
C1333 C1330 1.409 . S
C1333 C1331 1.415 . S
C1334 H1324 0.930 . S
C1334 C1332 1.419 . S
C1334 C1335 1.362 . S
C1335 H1325 0.930 . S
C1335 C1328 1.409 . S
C1335 C1334 1.362 . S
H1336 C1342 0.930 . S
H1337 C1345 0.930 . S
H1338 C1346 0.930 . S
H1339 C1347 0.930 . S
H1340 C1350 0.930 . S
H1341 C1351 0.930 . S
C1342 H1336 0.930 . S
C1342 C1343 1.355 . S
C1342 C1344 1.415 . S
C1343 C1342 1.355 . S
C1343 C1345 1.419 . S
C1344 C1342 1.415 . S
C1344 C1349 1.425 . S
C1344 C1351 1.409 . S
C1345 H1337 0.930 . S
C1345 C1343 1.419 . S
C1345 C1346 1.362 . S
C1346 H1338 0.930 . S
C1346 C1345 1.362 . S
C1346 C1349 1.409 . S
C1347 H1339 0.930 . S
C1347 C1348 1.355 . S
C1347 C1349 1.415 1_455 S
C1348 C1347 1.355 . S
C1348 C1350 1.419 . S
C1349 C1344 1.425 . S
C1349 C1346 1.409 . S
C1349 C1347 1.415 1_655 S
C1350 H1340 0.930 . S
C1350 C1348 1.419 . S
C1350 C1351 1.362 1_455 S
C1351 H1341 0.930 . S
C1351 C1344 1.409 . S
C1351 C1350 1.362 1_655 S
H1352 C1358 0.930 . S
H1353 C1361 0.930 . S
H1354 C1362 0.930 . S
H1355 C1363 0.930 . S
H1356 C1366 0.930 . S
H1357 C1367 0.930 . S
C1358 H1352 0.930 . S
C1358 C1359 1.355 . S
C1358 C1360 1.415 . S
C1359 C1358 1.355 . S
C1359 C1361 1.419 . S
C1360 C1358 1.415 . S
C1360 C1365 1.425 . S
C1360 C1367 1.409 . S
C1361 H1353 0.930 . S
C1361 C1359 1.419 . S
C1361 C1362 1.362 . S
C1362 H1354 0.930 . S
C1362 C1361 1.362 . S
C1362 C1365 1.409 . S
C1363 H1355 0.930 . S
C1363 C1364 1.355 . S
C1363 C1365 1.415 . S
C1364 C1363 1.355 . S
C1364 C1366 1.419 . S
C1365 C1360 1.425 . S
C1365 C1362 1.409 . S
C1365 C1363 1.415 . S
C1366 H1356 0.930 . S
C1366 C1364 1.419 . S
C1366 C1367 1.362 . S
C1367 H1357 0.930 . S
C1367 C1360 1.409 . S
C1367 C1366 1.362 . S
H1368 C1374 0.930 . S
H1369 C1377 0.930 1_545 S
H1370 C1378 0.930 1_655 S
H1371 C1379 0.930 . S
H1372 C1382 0.932 . S
H1373 C1383 0.930 . S
C1374 H1368 0.930 . S
C1374 C1375 1.355 . S
C1374 C1376 1.415 . S
C1375 C1374 1.355 . S
C1375 C1377 1.419 . S
C1376 C1374 1.415 . S
C1376 C1381 1.456 . S
C1376 C1383 1.409 . S
C1377 H1369 0.930 1_565 S
C1377 C1375 1.419 . S
C1377 C1378 1.362 . S
C1378 H1370 0.930 1_455 S
C1378 C1377 1.362 . S
C1378 C1381 1.412 . S
C1379 H1371 0.930 . S
C1379 C1380 1.355 . S
C1379 C1381 1.383 1_655 S
C1380 C1379 1.355 . S
C1380 C1382 1.447 . S
C1381 C1376 1.456 . S
C1381 C1378 1.412 . S
C1381 C1379 1.383 1_455 S
C1382 H1372 0.932 . S
C1382 C1380 1.447 . S
C1382 C1383 1.334 1_655 S
C1383 H1373 0.930 . S
C1383 C1376 1.409 . S
C1383 C1382 1.334 1_455 S
H1384 C1390 0.930 . S
H1385 C1393 0.930 . S
H1386 C1394 0.930 . S
H1387 C1395 0.930 . S
H1388 C1398 0.930 . S
H1389 C1399 0.930 . S
C1390 H1384 0.930 . S
C1390 C1391 1.355 . S
C1390 C1392 1.415 . S
C1391 C1390 1.355 . S
C1391 C1393 1.419 . S
C1392 C1390 1.415 . S
C1392 C1397 1.425 . S
C1392 C1399 1.409 . S
C1393 H1385 0.930 . S
C1393 C1391 1.419 . S
C1393 C1394 1.362 . S
C1394 H1386 0.930 . S
C1394 C1393 1.362 . S
C1394 C1397 1.409 . S
C1395 H1387 0.930 . S
C1395 C1396 1.355 . S
C1395 C1397 1.415 . S
C1396 C1395 1.355 . S
C1396 C1398 1.419 . S
C1397 C1392 1.425 . S
C1397 C1394 1.409 . S
C1397 C1395 1.415 . S
C1398 H1388 0.930 . S
C1398 C1396 1.419 . S
C1398 C1399 1.362 . S
C1399 H1389 0.930 . S
C1399 C1392 1.409 . S
C1399 C1398 1.362 . S
H1400 C1406 0.930 . S
H1401 C1409 0.930 . S
H1402 C1410 0.930 . S
H1403 C1411 0.930 . S
H1404 C1414 0.930 . S
H1405 C1415 0.930 . S
C1406 H1400 0.930 . S
C1406 C1407 1.355 . S
C1406 C1408 1.415 . S
C1407 C1406 1.355 . S
C1407 C1409 1.419 . S
C1408 C1406 1.415 . S
C1408 C1413 1.425 . S
C1408 C1415 1.409 1_655 S
C1409 H1401 0.930 . S
C1409 C1407 1.419 . S
C1409 C1410 1.362 . S
C1410 H1402 0.930 . S
C1410 C1409 1.362 . S
C1410 C1413 1.409 . S
C1411 H1403 0.930 . S
C1411 C1412 1.355 . S
C1411 C1413 1.415 1_455 S
C1412 C1411 1.355 . S
C1412 C1414 1.419 . S
C1413 C1408 1.425 . S
C1413 C1410 1.409 . S
C1413 C1411 1.415 1_655 S
C1414 H1404 0.930 . S
C1414 C1412 1.419 . S
C1414 C1415 1.362 . S
C1415 H1405 0.930 . S
C1415 C1408 1.409 1_455 S
C1415 C1414 1.362 . S
H1416 C1422 0.930 . S
H1417 C1425 0.930 . S
H1418 C1426 0.930 . S
H1419 C1427 0.930 . S
H1420 C1430 0.930 . S
H1421 C1431 0.930 . S
C1422 H1416 0.930 . S
C1422 C1423 1.355 . S
C1422 C1424 1.415 . S
C1423 C1422 1.355 . S
C1423 C1425 1.419 . S
C1424 C1422 1.415 . S
C1424 C1429 1.425 . S
C1424 C1431 1.409 . S
C1425 H1417 0.930 . S
C1425 C1423 1.419 . S
C1425 C1426 1.362 . S
C1426 H1418 0.930 . S
C1426 C1425 1.362 . S
C1426 C1429 1.409 . S
C1427 H1419 0.930 . S
C1427 C1428 1.355 . S
C1427 C1429 1.415 . S
C1428 C1427 1.355 . S
C1428 C1430 1.419 . S
C1429 C1424 1.425 . S
C1429 C1426 1.409 . S
C1429 C1427 1.415 . S
C1430 H1420 0.930 . S
C1430 C1428 1.419 . S
C1430 C1431 1.362 . S
C1431 H1421 0.930 . S
C1431 C1424 1.409 . S
C1431 C1430 1.362 . S
H1432 C1438 0.930 . S
H1433 C1441 0.930 . S
H1434 C1442 0.930 . S
H1435 C1443 0.930 . S
H1436 C1446 0.930 . S
H1437 C1447 0.930 . S
C1438 H1432 0.930 . S
C1438 C1439 1.355 . S
C1438 C1440 1.415 . S
C1439 C1438 1.355 . S
C1439 C1441 1.419 . S
C1440 C1438 1.415 . S
C1440 C1445 1.425 . S
C1440 C1447 1.409 . S
C1441 H1433 0.930 . S
C1441 C1439 1.419 . S
C1441 C1442 1.362 . S
C1442 H1434 0.930 . S
C1442 C1441 1.362 . S
C1442 C1445 1.409 . S
C1443 H1435 0.930 . S
C1443 C1444 1.355 . S
C1443 C1445 1.415 . S
C1444 C1443 1.355 . S
C1444 C1446 1.419 . S
C1445 C1440 1.425 . S
C1445 C1442 1.409 . S
C1445 C1443 1.415 . S
C1446 H1436 0.930 . S
C1446 C1444 1.419 . S
C1446 C1447 1.362 . S
C1447 H1437 0.930 . S
C1447 C1440 1.409 . S
C1447 C1446 1.362 . S
H1448 C1454 0.930 . S
H1449 C1457 0.930 . S
H1450 C1458 0.930 . S
H1451 C1459 0.926 1_554 S
H1452 C1462 0.930 . S
H1453 C1463 0.930 . S
C1454 H1448 0.930 . S
C1454 C1455 1.355 . S
C1454 C1456 1.415 . S
C1455 C1454 1.355 . S
C1455 C1457 1.419 . S
C1456 C1454 1.415 . S
C1456 C1461 1.425 . S
C1456 C1463 1.409 1_554 S
C1457 H1449 0.930 . S
C1457 C1455 1.419 . S
C1457 C1458 1.362 . S
C1458 H1450 0.930 . S
C1458 C1457 1.362 . S
C1458 C1461 1.409 . S
C1459 H1451 0.926 1_556 S
C1459 C1460 1.355 . S
C1459 C1461 1.415 1_556 S
C1460 C1459 1.355 . S
C1460 C1462 1.419 . S
C1461 C1456 1.425 . S
C1461 C1458 1.409 . S
C1461 C1459 1.415 1_554 S
C1462 H1452 0.930 . S
C1462 C1460 1.419 . S
C1462 C1463 1.362 . S
C1463 H1453 0.930 . S
C1463 C1456 1.409 1_556 S
C1463 C1462 1.362 . S
H1464 C1470 0.930 . S
H1465 C1473 0.930 1_455 S
H1466 C1474 0.930 . S
H1467 C1475 0.930 . S
H1468 C1478 0.930 . S
H1469 C1479 0.930 . S
C1470 H1464 0.930 . S
C1470 C1471 1.355 . S
C1470 C1472 1.415 . S
C1471 C1470 1.355 . S
C1471 C1473 1.419 . S
C1472 C1470 1.415 . S
C1472 C1477 1.425 . S
C1472 C1479 1.409 . S
C1473 H1465 0.930 1_655 S
C1473 C1471 1.419 . S
C1473 C1474 1.362 . S
C1474 H1466 0.930 . S
C1474 C1473 1.362 . S
C1474 C1477 1.409 . S
C1475 H1467 0.930 . S
C1475 C1476 1.355 . S
C1475 C1477 1.415 . S
C1476 C1475 1.355 . S
C1476 C1478 1.419 . S
C1477 C1472 1.425 . S
C1477 C1474 1.409 . S
C1477 C1475 1.415 . S
C1478 H1468 0.930 . S
C1478 C1476 1.419 . S
C1478 C1479 1.362 . S
C1479 H1469 0.930 . S
C1479 C1472 1.409 . S
C1479 C1478 1.362 . S
H1480 C1486 0.930 . S
H1481 C1489 0.930 . S
H1482 C1490 0.930 . S
H1483 C1491 0.930 . S
H1484 C1494 0.930 . S
H1485 C1495 0.930 . S
C1486 H1480 0.930 . S
C1486 C1487 1.355 . S
C1486 C1488 1.415 . S
C1487 C1486 1.355 . S
C1487 C1489 1.419 . S
C1488 C1486 1.415 . S
C1488 C1493 1.425 . S
C1488 C1495 1.409 . S
C1489 H1481 0.930 . S
C1489 C1487 1.419 . S
C1489 C1490 1.362 . S
C1490 H1482 0.930 . S
C1490 C1489 1.362 . S
C1490 C1493 1.409 . S
C1491 H1483 0.930 . S
C1491 C1492 1.355 . S
C1491 C1493 1.415 . S
C1492 C1491 1.355 . S
C1492 C1494 1.419 . S
C1493 C1488 1.425 . S
C1493 C1490 1.409 . S
C1493 C1491 1.415 . S
C1494 H1484 0.930 . S
C1494 C1492 1.419 . S
C1494 C1495 1.362 . S
C1495 H1485 0.930 . S
C1495 C1488 1.409 . S
C1495 C1494 1.362 . S
H1496 C1502 0.930 . S
H1497 C1505 0.930 . S
H1498 C1506 0.930 . S
H1499 C1507 0.930 . S
H1500 C1510 0.930 . S
H1501 C1511 0.930 . S
C1502 H1496 0.930 . S
C1502 C1503 1.355 . S
C1502 C1504 1.415 . S
C1503 C1502 1.355 . S
C1503 C1505 1.419 . S
C1504 C1502 1.415 . S
C1504 C1509 1.425 . S
C1504 C1511 1.409 . S
C1505 H1497 0.930 . S
C1505 C1503 1.419 . S
C1505 C1506 1.362 . S
C1506 H1498 0.930 . S
C1506 C1505 1.362 . S
C1506 C1509 1.409 . S
C1507 H1499 0.930 . S
C1507 C1508 1.355 . S
C1507 C1509 1.415 . S
C1508 C1507 1.355 . S
C1508 C1510 1.419 . S
C1509 C1504 1.425 . S
C1509 C1506 1.409 . S
C1509 C1507 1.415 . S
C1510 H1500 0.930 . S
C1510 C1508 1.419 . S
C1510 C1511 1.362 . S
C1511 H1501 0.930 . S
C1511 C1504 1.409 . S
C1511 C1510 1.362 . S
H1512 C1518 0.930 . S
H1513 C1521 0.930 . S
H1514 C1522 0.930 . S
H1515 C1523 0.930 1_556 S
H1516 C1526 0.930 . S
H1517 C1527 0.930 . S
C1518 H1512 0.930 . S
C1518 C1519 1.355 . S
C1518 C1520 1.415 . S
C1519 C1518 1.355 . S
C1519 C1521 1.419 . S
C1520 C1518 1.415 . S
C1520 C1525 1.425 . S
C1520 C1527 1.409 1_556 S
C1521 H1513 0.930 . S
C1521 C1519 1.419 . S
C1521 C1522 1.362 . S
C1522 H1514 0.930 . S
C1522 C1521 1.362 . S
C1522 C1525 1.409 . S
C1523 H1515 0.930 1_554 S
C1523 C1524 1.355 . S
C1523 C1525 1.415 1_554 S
C1524 C1523 1.355 . S
C1524 C1526 1.419 . S
C1525 C1520 1.425 . S
C1525 C1522 1.409 . S
C1525 C1523 1.415 1_556 S
C1526 H1516 0.930 . S
C1526 C1524 1.419 . S
C1526 C1527 1.362 . S
C1527 H1517 0.930 . S
C1527 C1520 1.409 1_554 S
C1527 C1526 1.362 . S
H1528 C1534 0.930 . S
H1529 C1537 0.930 . S
H1530 C1538 0.930 . S
H1531 C1539 0.930 . S
H1532 C1542 0.930 . S
H1533 C1543 0.930 . S
C1534 H1528 0.930 . S
C1534 C1535 1.355 . S
C1534 C1536 1.415 . S
C1535 C1534 1.355 . S
C1535 C1537 1.419 . S
C1536 C1534 1.415 . S
C1536 C1541 1.425 . S
C1536 C1543 1.409 . S
C1537 H1529 0.930 . S
C1537 C1535 1.419 . S
C1537 C1538 1.362 . S
C1538 H1530 0.930 . S
C1538 C1537 1.362 . S
C1538 C1541 1.409 . S
C1539 H1531 0.930 . S
C1539 C1540 1.355 . S
C1539 C1541 1.415 . S
C1540 C1539 1.355 . S
C1540 C1542 1.419 . S
C1541 C1536 1.425 . S
C1541 C1538 1.409 . S
C1541 C1539 1.415 . S
C1542 H1532 0.930 . S
C1542 C1540 1.419 . S
C1542 C1543 1.362 . S
C1543 H1533 0.930 . S
C1543 C1536 1.409 . S
C1543 C1542 1.362 . S
H1544 C1550 0.930 . S
H1545 C1553 0.930 . S
H1546 C1554 0.930 . S
H1547 C1555 0.930 . S
H1548 C1558 0.930 . S
H1549 C1559 0.930 . S
C1550 H1544 0.930 . S
C1550 C1551 1.355 . S
C1550 C1552 1.415 . S
C1551 C1550 1.355 . S
C1551 C1553 1.419 . S
C1552 C1550 1.415 . S
C1552 C1557 1.425 . S
C1552 C1559 1.409 . S
C1553 H1545 0.930 . S
C1553 C1551 1.419 . S
C1553 C1554 1.362 . S
C1554 H1546 0.930 . S
C1554 C1553 1.362 . S
C1554 C1557 1.409 . S
C1555 H1547 0.930 . S
C1555 C1556 1.355 . S
C1555 C1557 1.415 . S
C1556 C1555 1.355 . S
C1556 C1558 1.419 . S
C1557 C1552 1.425 . S
C1557 C1554 1.409 . S
C1557 C1555 1.415 . S
C1558 H1548 0.930 . S
C1558 C1556 1.419 . S
C1558 C1559 1.362 . S
C1559 H1549 0.930 . S
C1559 C1552 1.409 . S
C1559 C1558 1.362 . S
H1560 C1566 0.930 . S
H1561 C1569 0.930 . S
H1562 C1570 0.930 . S
H1563 C1571 0.930 . S
H1564 C1574 0.930 . S
H1565 C1575 0.930 . S
C1566 H1560 0.930 . S
C1566 C1567 1.355 . S
C1566 C1568 1.415 . S
C1567 C1566 1.355 . S
C1567 C1569 1.419 . S
C1568 C1566 1.415 . S
C1568 C1573 1.425 . S
C1568 C1575 1.409 . S
C1569 H1561 0.930 . S
C1569 C1567 1.419 . S
C1569 C1570 1.362 . S
C1570 H1562 0.930 . S
C1570 C1569 1.362 . S
C1570 C1573 1.409 . S
C1571 H1563 0.930 . S
C1571 C1572 1.355 . S
C1571 C1573 1.415 . S
C1572 C1571 1.355 . S
C1572 C1574 1.419 . S
C1573 C1568 1.425 . S
C1573 C1570 1.409 . S
C1573 C1571 1.415 . S
C1574 H1564 0.930 . S
C1574 C1572 1.419 . S
C1574 C1575 1.362 . S
C1575 H1565 0.930 . S
C1575 C1568 1.409 . S
C1575 C1574 1.362 . S
H1576 C1582 0.930 . S
H1577 C1585 0.930 . S
H1578 C1586 0.930 . S
H1579 C1587 0.930 . S
H1580 C1590 0.930 . S
H1581 C1591 0.930 . S
C1582 H1576 0.930 . S
C1582 C1583 1.355 . S
C1582 C1584 1.415 . S
C1583 C1582 1.355 . S
C1583 C1585 1.419 . S
C1584 C1582 1.415 . S
C1584 C1589 1.425 . S
C1584 C1591 1.409 . S
C1585 H1577 0.930 . S
C1585 C1583 1.419 . S
C1585 C1586 1.362 . S
C1586 H1578 0.930 . S
C1586 C1585 1.362 . S
C1586 C1589 1.409 . S
C1587 H1579 0.930 . S
C1587 C1588 1.355 . S
C1587 C1589 1.415 . S
C1588 C1587 1.355 . S
C1588 C1590 1.419 . S
C1589 C1584 1.425 . S
C1589 C1586 1.409 . S
C1589 C1587 1.415 . S
C1590 H1580 0.930 . S
C1590 C1588 1.419 . S
C1590 C1591 1.362 . S
C1591 H1581 0.930 . S
C1591 C1584 1.409 . S
C1591 C1590 1.362 . S
H1592 C1598 0.930 . S
H1593 C1601 0.930 . S
H1594 C1602 0.930 . S
H1595 C1603 0.930 . S
H1596 C1606 0.930 . S
H1597 C1607 0.930 . S
C1598 H1592 0.930 . S
C1598 C1599 1.355 . S
C1598 C1600 1.415 . S
C1599 C1598 1.355 . S
C1599 C1601 1.419 . S
C1600 C1598 1.415 . S
C1600 C1605 1.425 . S
C1600 C1607 1.409 . S
C1601 H1593 0.930 . S
C1601 C1599 1.419 . S
C1601 C1602 1.362 . S
C1602 H1594 0.930 . S
C1602 C1601 1.362 . S
C1602 C1605 1.409 . S
C1603 H1595 0.930 . S
C1603 C1604 1.355 . S
C1603 C1605 1.415 . S
C1604 C1603 1.355 . S
C1604 C1606 1.419 . S
C1605 C1600 1.425 . S
C1605 C1602 1.409 . S
C1605 C1603 1.415 . S
C1606 H1596 0.930 . S
C1606 C1604 1.419 . S
C1606 C1607 1.362 . S
C1607 H1597 0.930 . S
C1607 C1600 1.409 . S
C1607 C1606 1.362 . S
H1608 C1614 0.930 . S
H1609 C1617 0.930 . S
H1610 C1618 0.930 . S
H1611 C1619 0.930 . S
H1612 C1622 0.930 . S
H1613 C1623 0.930 . S
C1614 H1608 0.930 . S
C1614 C1615 1.355 . S
C1614 C1616 1.415 . S
C1615 C1614 1.355 . S
C1615 C1617 1.419 . S
C1616 C1614 1.415 . S
C1616 C1621 1.425 . S
C1616 C1623 1.409 . S
C1617 H1609 0.930 . S
C1617 C1615 1.419 . S
C1617 C1618 1.362 . S
C1618 H1610 0.930 . S
C1618 C1617 1.362 . S
C1618 C1621 1.409 . S
C1619 H1611 0.930 . S
C1619 C1620 1.355 . S
C1619 C1621 1.415 . S
C1620 C1619 1.355 . S
C1620 C1622 1.419 . S
C1621 C1616 1.425 . S
C1621 C1618 1.409 . S
C1621 C1619 1.415 . S
C1622 H1612 0.930 . S
C1622 C1620 1.419 . S
C1622 C1623 1.362 . S
C1623 H1613 0.930 . S
C1623 C1616 1.409 . S
C1623 C1622 1.362 . S
H1624 C1630 0.930 . S
H1625 C1633 0.930 . S
H1626 C1634 0.930 . S
H1627 C1635 0.930 . S
H1628 C1638 0.930 . S
H1629 C1639 0.930 . S
C1630 H1624 0.930 . S
C1630 C1631 1.355 . S
C1630 C1632 1.415 . S
C1631 C1630 1.355 . S
C1631 C1633 1.419 . S
C1632 C1630 1.415 . S
C1632 C1637 1.425 . S
C1632 C1639 1.409 . S
C1633 H1625 0.930 . S
C1633 C1631 1.419 . S
C1633 C1634 1.362 . S
C1634 H1626 0.930 . S
C1634 C1633 1.362 . S
C1634 C1637 1.409 . S
C1635 H1627 0.930 . S
C1635 C1636 1.355 . S
C1635 C1637 1.415 . S
C1636 C1635 1.355 . S
C1636 C1638 1.419 . S
C1637 C1632 1.425 . S
C1637 C1634 1.409 . S
C1637 C1635 1.415 . S
C1638 H1628 0.930 . S
C1638 C1636 1.419 . S
C1638 C1639 1.362 . S
C1639 H1629 0.930 . S
C1639 C1632 1.409 . S
C1639 C1638 1.362 . S
H1640 C1646 0.930 . S
H1641 C1649 0.930 . S
H1642 C1650 0.930 . S
H1643 C1651 0.930 . S
H1644 C1654 0.930 . S
H1645 C1655 0.930 . S
C1646 H1640 0.930 . S
C1646 C1647 1.355 . S
C1646 C1648 1.415 . S
C1647 C1646 1.355 . S
C1647 C1649 1.419 . S
C1648 C1646 1.415 . S
C1648 C1653 1.425 . S
C1648 C1655 1.409 . S
C1649 H1641 0.930 . S
C1649 C1647 1.419 . S
C1649 C1650 1.362 . S
C1650 H1642 0.930 . S
C1650 C1649 1.362 . S
C1650 C1653 1.409 . S
C1651 H1643 0.930 . S
C1651 C1652 1.355 . S
C1651 C1653 1.415 . S
C1652 C1651 1.355 . S
C1652 C1654 1.419 . S
C1653 C1648 1.425 . S
C1653 C1650 1.409 . S
C1653 C1651 1.415 . S
C1654 H1644 0.930 . S
C1654 C1652 1.419 . S
C1654 C1655 1.362 . S
C1655 H1645 0.930 . S
C1655 C1648 1.409 . S
C1655 C1654 1.362 . S
H1656 C1662 0.930 . S
H1657 C1665 0.930 . S
H1658 C1666 0.930 . S
H1659 C1667 0.930 . S
H1660 C1670 0.930 . S
H1661 C1671 0.930 . S
C1662 H1656 0.930 . S
C1662 C1663 1.355 . S
C1662 C1664 1.415 . S
C1663 C1662 1.355 . S
C1663 C1665 1.419 . S
C1664 C1662 1.415 . S
C1664 C1669 1.425 . S
C1664 C1671 1.409 . S
C1665 H1657 0.930 . S
C1665 C1663 1.419 . S
C1665 C1666 1.362 . S
C1666 H1658 0.930 . S
C1666 C1665 1.362 . S
C1666 C1669 1.409 . S
C1667 H1659 0.930 . S
C1667 C1668 1.355 . S
C1667 C1669 1.415 . S
C1668 C1667 1.355 . S
C1668 C1670 1.419 . S
C1669 C1664 1.425 . S
C1669 C1666 1.409 . S
C1669 C1667 1.415 . S
C1670 H1660 0.930 . S
C1670 C1668 1.419 . S
C1670 C1671 1.362 . S
C1671 H1661 0.930 . S
C1671 C1664 1.409 . S
C1671 C1670 1.362 . S
H1672 C1678 0.930 . S
H1673 C1681 0.930 . S
H1674 C1682 0.930 . S
H1675 C1683 0.930 . S
H1676 C1686 0.930 . S
H1677 C1687 0.930 . S
C1678 H1672 0.930 . S
C1678 C1679 1.355 . S
C1678 C1680 1.415 . S
C1679 C1678 1.355 . S
C1679 C1681 1.419 . S
C1680 C1678 1.415 . S
C1680 C1685 1.425 . S
C1680 C1687 1.409 . S
C1681 H1673 0.930 . S
C1681 C1679 1.419 . S
C1681 C1682 1.362 . S
C1682 H1674 0.930 . S
C1682 C1681 1.362 . S
C1682 C1685 1.409 . S
C1683 H1675 0.930 . S
C1683 C1684 1.355 . S
C1683 C1685 1.415 . S
C1684 C1683 1.355 . S
C1684 C1686 1.419 . S
C1685 C1680 1.425 . S
C1685 C1682 1.409 . S
C1685 C1683 1.415 . S
C1686 H1676 0.930 . S
C1686 C1684 1.419 . S
C1686 C1687 1.362 . S
C1687 H1677 0.930 . S
C1687 C1680 1.409 . S
C1687 C1686 1.362 . S
H1688 C1694 0.930 . S
H1689 C1697 0.930 . S
H1690 C1698 0.930 . S
H1691 C1699 0.930 . S
H1692 C1702 0.930 . S
H1693 C1703 0.930 . S
C1694 H1688 0.930 . S
C1694 C1695 1.355 . S
C1694 C1696 1.415 . S
C1695 C1694 1.355 . S
C1695 C1697 1.419 . S
C1696 C1694 1.415 . S
C1696 C1701 1.425 . S
C1696 C1703 1.409 . S
C1697 H1689 0.930 . S
C1697 C1695 1.419 . S
C1697 C1698 1.362 . S
C1698 H1690 0.930 . S
C1698 C1697 1.362 . S
C1698 C1701 1.409 . S
C1699 H1691 0.930 . S
C1699 C1700 1.355 . S
C1699 C1701 1.415 . S
C1700 C1699 1.355 . S
C1700 C1702 1.419 . S
C1701 C1696 1.425 . S
C1701 C1698 1.409 . S
C1701 C1699 1.415 . S
C1702 H1692 0.930 . S
C1702 C1700 1.419 . S
C1702 C1703 1.362 . S
C1703 H1693 0.930 . S
C1703 C1696 1.409 . S
C1703 C1702 1.362 . S
H1704 C1710 0.930 . S
H1705 C1713 0.930 . S
H1706 C1714 0.930 . S
H1707 C1715 0.930 . S
H1708 C1718 0.930 . S
H1709 C1719 0.930 . S
C1710 H1704 0.930 . S
C1710 C1711 1.355 . S
C1710 C1712 1.415 . S
C1711 C1710 1.355 . S
C1711 C1713 1.419 . S
C1712 C1710 1.415 . S
C1712 C1717 1.425 . S
C1712 C1719 1.409 . S
C1713 H1705 0.930 . S
C1713 C1711 1.419 . S
C1713 C1714 1.362 . S
C1714 H1706 0.930 . S
C1714 C1713 1.362 . S
C1714 C1717 1.409 . S
C1715 H1707 0.930 . S
C1715 C1716 1.355 . S
C1715 C1717 1.415 . S
C1716 C1715 1.355 . S
C1716 C1718 1.419 . S
C1717 C1712 1.425 . S
C1717 C1714 1.409 . S
C1717 C1715 1.415 . S
C1718 H1708 0.930 . S
C1718 C1716 1.419 . S
C1718 C1719 1.362 . S
C1719 H1709 0.930 . S
C1719 C1712 1.409 . S
C1719 C1718 1.362 . S
H1720 C1726 0.930 . S
H1721 C1729 0.930 . S
H1722 C1730 0.930 . S
H1723 C1731 0.930 . S
H1724 C1734 0.930 . S
H1725 C1735 0.930 . S
C1726 H1720 0.930 . S
C1726 C1727 1.355 . S
C1726 C1728 1.415 . S
C1727 C1726 1.355 . S
C1727 C1729 1.419 . S
C1728 C1726 1.415 . S
C1728 C1733 1.425 . S
C1728 C1735 1.409 . S
C1729 H1721 0.930 . S
C1729 C1727 1.419 . S
C1729 C1730 1.362 . S
C1730 H1722 0.930 . S
C1730 C1729 1.362 . S
C1730 C1733 1.409 . S
C1731 H1723 0.930 . S
C1731 C1732 1.355 . S
C1731 C1733 1.415 . S
C1732 C1731 1.355 . S
C1732 C1734 1.419 . S
C1733 C1728 1.425 . S
C1733 C1730 1.409 . S
C1733 C1731 1.415 . S
C1734 H1724 0.930 . S
C1734 C1732 1.419 . S
C1734 C1735 1.362 . S
C1735 H1725 0.930 . S
C1735 C1728 1.409 . S
C1735 C1734 1.362 . S
H1736 C1742 0.930 . S
H1737 C1745 0.930 . S
H1738 C1746 0.930 . S
H1739 C1747 0.930 . S
H1740 C1750 0.930 . S
H1741 C1751 0.930 . S
C1742 H1736 0.930 . S
C1742 C1743 1.355 . S
C1742 C1744 1.415 . S
C1743 C1742 1.355 . S
C1743 C1745 1.419 . S
C1744 C1742 1.415 . S
C1744 C1749 1.425 . S
C1744 C1751 1.409 . S
C1745 H1737 0.930 . S
C1745 C1743 1.419 . S
C1745 C1746 1.362 . S
C1746 H1738 0.930 . S
C1746 C1745 1.362 . S
C1746 C1749 1.409 . S
C1747 H1739 0.930 . S
C1747 C1748 1.355 . S
C1747 C1749 1.415 . S
C1748 C1747 1.355 . S
C1748 C1750 1.419 . S
C1749 C1744 1.425 . S
C1749 C1746 1.409 . S
C1749 C1747 1.415 . S
C1750 H1740 0.930 . S
C1750 C1748 1.419 . S
C1750 C1751 1.362 . S
C1751 H1741 0.930 . S
C1751 C1744 1.409 . S
C1751 C1750 1.362 . S
H1752 C1758 0.930 . S
H1753 C1761 0.930 . S
H1754 C1762 0.930 . S
H1755 C1763 0.930 . S
H1756 C1766 0.930 . S
H1757 C1767 0.930 . S
C1758 H1752 0.930 . S
C1758 C1759 1.355 . S
C1758 C1760 1.415 . S
C1759 C1758 1.355 . S
C1759 C1761 1.419 . S
C1760 C1758 1.415 . S
C1760 C1765 1.425 . S
C1760 C1767 1.409 . S
C1761 H1753 0.930 . S
C1761 C1759 1.419 . S
C1761 C1762 1.362 . S
C1762 H1754 0.930 . S
C1762 C1761 1.362 . S
C1762 C1765 1.409 . S
C1763 H1755 0.930 . S
C1763 C1764 1.355 . S
C1763 C1765 1.415 . S
C1764 C1763 1.355 . S
C1764 C1766 1.419 . S
C1765 C1760 1.425 . S
C1765 C1762 1.409 . S
C1765 C1763 1.415 . S
C1766 H1756 0.930 . S
C1766 C1764 1.419 . S
C1766 C1767 1.362 . S
C1767 H1757 0.930 . S
C1767 C1760 1.409 . S
C1767 C1766 1.362 . S
H1768 C1774 0.930 . S
H1769 C1777 0.930 . S
H1770 C1778 0.930 . S
H1771 C1779 0.930 . S
H1772 C1782 0.930 . S
H1773 C1783 0.930 . S
C1774 H1768 0.930 . S
C1774 C1775 1.355 . S
C1774 C1776 1.415 . S
C1775 C1774 1.355 . S
C1775 C1777 1.419 . S
C1776 C1774 1.415 . S
C1776 C1781 1.425 . S
C1776 C1783 1.409 . S
C1777 H1769 0.930 . S
C1777 C1775 1.419 . S
C1777 C1778 1.362 . S
C1778 H1770 0.930 . S
C1778 C1777 1.362 . S
C1778 C1781 1.409 . S
C1779 H1771 0.930 . S
C1779 C1780 1.355 . S
C1779 C1781 1.415 . S
C1780 C1779 1.355 . S
C1780 C1782 1.419 . S
C1781 C1776 1.425 . S
C1781 C1778 1.409 . S
C1781 C1779 1.415 . S
C1782 H1772 0.930 . S
C1782 C1780 1.419 . S
C1782 C1783 1.362 . S
C1783 H1773 0.930 . S
C1783 C1776 1.409 . S
C1783 C1782 1.362 . S
H1784 C1790 0.930 . S
H1785 C1793 0.930 . S
H1786 C1794 0.930 . S
H1787 C1795 0.930 . S
H1788 C1798 0.930 . S
H1789 C1799 0.930 . S
C1790 H1784 0.930 . S
C1790 C1791 1.355 . S
C1790 C1792 1.415 . S
C1791 C1790 1.355 . S
C1791 C1793 1.419 . S
C1792 C1790 1.415 . S
C1792 C1797 1.425 . S
C1792 C1799 1.409 . S
C1793 H1785 0.930 . S
C1793 C1791 1.419 . S
C1793 C1794 1.362 . S
C1794 H1786 0.930 . S
C1794 C1793 1.362 . S
C1794 C1797 1.409 . S
C1795 H1787 0.930 . S
C1795 C1796 1.355 . S
C1795 C1797 1.415 . S
C1796 C1795 1.355 . S
C1796 C1798 1.419 . S
C1797 C1792 1.425 . S
C1797 C1794 1.409 . S
C1797 C1795 1.415 . S
C1798 H1788 0.930 . S
C1798 C1796 1.419 . S
C1798 C1799 1.362 . S
C1799 H1789 0.930 . S
C1799 C1792 1.409 . S
C1799 C1798 1.362 . S
H1800 C1806 0.930 . S
H1801 C1809 0.930 . S
H1802 C1810 0.930 . S
H1803 C1811 0.933 . S
H1804 C1814 0.930 . S
H1805 C1815 0.930 . S
C1806 H1800 0.930 . S
C1806 C1807 1.355 . S
C1806 C1808 1.415 . S
C1807 C1806 1.355 . S
C1807 C1809 1.419 . S
C1808 C1806 1.415 . S
C1808 C1813 1.425 . S
C1808 C1815 1.409 1_655 S
C1809 H1801 0.930 . S
C1809 C1807 1.419 . S
C1809 C1810 1.362 . S
C1810 H1802 0.930 . S
C1810 C1809 1.362 . S
C1810 C1813 1.409 . S
C1811 H1803 0.933 . S
C1811 C1812 1.355 . S
C1811 C1813 1.415 1_455 S
C1812 C1811 1.355 . S
C1812 C1814 1.419 . S
C1813 C1808 1.425 . S
C1813 C1810 1.409 . S
C1813 C1811 1.415 1_655 S
C1814 H1804 0.930 . S
C1814 C1812 1.419 . S
C1814 C1815 1.362 . S
C1815 H1805 0.930 . S
C1815 C1808 1.409 1_455 S
C1815 C1814 1.362 . S
H1816 C1822 0.930 . S
H1817 C1825 0.930 . S
H1818 C1826 0.930 . S
H1819 C1827 0.930 . S
H1820 C1830 0.930 . S
H1821 C1831 0.930 . S
C1822 H1816 0.930 . S
C1822 C1823 1.355 . S
C1822 C1824 1.415 . S
C1823 C1822 1.355 . S
C1823 C1825 1.419 . S
C1824 C1822 1.415 . S
C1824 C1829 1.425 . S
C1824 C1831 1.409 . S
C1825 H1817 0.930 . S
C1825 C1823 1.419 . S
C1825 C1826 1.362 . S
C1826 H1818 0.930 . S
C1826 C1825 1.362 . S
C1826 C1829 1.409 . S
C1827 H1819 0.930 . S
C1827 C1828 1.355 . S
C1827 C1829 1.415 . S
C1828 C1827 1.355 . S
C1828 C1830 1.419 . S
C1829 C1824 1.425 . S
C1829 C1826 1.409 . S
C1829 C1827 1.415 . S
C1830 H1820 0.930 . S
C1830 C1828 1.419 . S
C1830 C1831 1.362 . S
C1831 H1821 0.930 . S
C1831 C1824 1.409 . S
C1831 C1830 1.362 . S
H1832 C1838 0.930 . S
H1833 C1841 0.930 . S
H1834 C1842 0.930 . S
H1835 C1843 0.930 . S
H1836 C1846 0.930 . S
H1837 C1847 0.930 . S
C1838 H1832 0.930 . S
C1838 C1839 1.355 . S
C1838 C1840 1.415 . S
C1839 C1838 1.355 . S
C1839 C1841 1.419 . S
C1840 C1838 1.415 . S
C1840 C1845 1.425 . S
C1840 C1847 1.409 1_556 S
C1841 H1833 0.930 . S
C1841 C1839 1.419 . S
C1841 C1842 1.362 . S
C1842 H1834 0.930 . S
C1842 C1841 1.362 . S
C1842 C1845 1.409 . S
C1843 H1835 0.930 . S
C1843 C1844 1.355 . S
C1843 C1845 1.415 1_554 S
C1844 C1843 1.355 . S
C1844 C1846 1.419 . S
C1845 C1840 1.425 . S
C1845 C1842 1.409 . S
C1845 C1843 1.415 1_556 S
C1846 H1836 0.930 . S
C1846 C1844 1.419 . S
C1846 C1847 1.362 . S
C1847 H1837 0.930 . S
C1847 C1840 1.409 1_554 S
C1847 C1846 1.362 . S
H1848 C1854 0.930 . S
H1849 C1857 0.930 . S
H1850 C1858 0.930 . S
H1851 C1859 0.930 . S
H1852 C1862 0.930 . S
H1853 C1863 0.930 . S
C1854 H1848 0.930 . S
C1854 C1855 1.355 . S
C1854 C1856 1.415 . S
C1855 C1854 1.355 . S
C1855 C1857 1.419 . S
C1856 C1854 1.415 . S
C1856 C1861 1.425 . S
C1856 C1863 1.409 . S
C1857 H1849 0.930 . S
C1857 C1855 1.419 . S
C1857 C1858 1.362 . S
C1858 H1850 0.930 . S
C1858 C1857 1.362 . S
C1858 C1861 1.409 . S
C1859 H1851 0.930 . S
C1859 C1860 1.355 . S
C1859 C1861 1.415 . S
C1860 C1859 1.355 . S
C1860 C1862 1.419 . S
C1861 C1856 1.425 . S
C1861 C1858 1.409 . S
C1861 C1859 1.415 . S
C1862 H1852 0.930 . S
C1862 C1860 1.419 . S
C1862 C1863 1.362 . S
C1863 H1853 0.930 . S
C1863 C1856 1.409 . S
C1863 C1862 1.362 . S
H1864 C1870 0.930 . S
H1865 C1873 0.930 1_655 S
H1866 C1874 0.930 . S
H1867 C1875 0.930 . S
H1868 C1878 0.930 . S
H1869 C1879 0.930 . S
C1870 H1864 0.930 . S
C1870 C1871 1.355 . S
C1870 C1872 1.415 . S
C1871 C1870 1.355 . S
C1871 C1873 1.419 . S
C1872 C1870 1.415 . S
C1872 C1877 1.425 . S
C1872 C1879 1.409 . S
C1873 H1865 0.930 1_455 S
C1873 C1871 1.419 . S
C1873 C1874 1.362 . S
C1874 H1866 0.930 . S
C1874 C1873 1.362 . S
C1874 C1877 1.409 . S
C1875 H1867 0.930 . S
C1875 C1876 1.355 . S
C1875 C1877 1.415 . S
C1876 C1875 1.355 . S
C1876 C1878 1.419 . S
C1877 C1872 1.425 . S
C1877 C1874 1.409 . S
C1877 C1875 1.415 . S
C1878 H1868 0.930 . S
C1878 C1876 1.419 . S
C1878 C1879 1.362 . S
C1879 H1869 0.930 . S
C1879 C1872 1.409 . S
C1879 C1878 1.362 . S
H1880 C1886 0.930 . S
H1881 C1889 0.930 . S
H1882 C1890 0.930 . S
H1883 C1891 0.930 . S
H1884 C1894 0.930 . S
H1885 C1895 0.930 . S
C1886 H1880 0.930 . S
C1886 C1887 1.355 . S
C1886 C1888 1.415 . S
C1887 C1886 1.355 . S
C1887 C1889 1.419 . S
C1888 C1886 1.415 . S
C1888 C1893 1.425 . S
C1888 C1895 1.409 . S
C1889 H1881 0.930 . S
C1889 C1887 1.419 . S
C1889 C1890 1.362 . S
C1890 H1882 0.930 . S
C1890 C1889 1.362 . S
C1890 C1893 1.409 . S
C1891 H1883 0.930 . S
C1891 C1892 1.355 . S
C1891 C1893 1.415 . S
C1892 C1891 1.355 . S
C1892 C1894 1.419 . S
C1893 C1888 1.425 . S
C1893 C1890 1.409 . S
C1893 C1891 1.415 . S
C1894 H1884 0.930 . S
C1894 C1892 1.419 . S
C1894 C1895 1.362 . S
C1895 H1885 0.930 . S
C1895 C1888 1.409 . S
C1895 C1894 1.362 . S
H1896 C1902 0.930 . S
H1897 C1905 0.930 . S
H1898 C1906 0.930 . S
H1899 C1907 0.930 . S
H1900 C1910 0.930 . S
H1901 C1911 0.930 . S
C1902 H1896 0.930 . S
C1902 C1903 1.355 . S
C1902 C1904 1.415 . S
C1903 C1902 1.355 . S
C1903 C1905 1.419 . S
C1904 C1902 1.415 . S
C1904 C1909 1.425 . S
C1904 C1911 1.409 1_554 S
C1905 H1897 0.930 . S
C1905 C1903 1.419 . S
C1905 C1906 1.362 . S
C1906 H1898 0.930 . S
C1906 C1905 1.362 . S
C1906 C1909 1.409 . S
C1907 H1899 0.930 . S
C1907 C1908 1.355 . S
C1907 C1909 1.415 1_556 S
C1908 C1907 1.355 . S
C1908 C1910 1.419 . S
C1909 C1904 1.425 . S
C1909 C1906 1.409 . S
C1909 C1907 1.415 1_554 S
C1910 H1900 0.930 . S
C1910 C1908 1.419 . S
C1910 C1911 1.362 . S
C1911 H1901 0.930 . S
C1911 C1904 1.409 1_556 S
C1911 C1910 1.362 . S
H1912 C1918 0.930 . S
H1913 C1921 0.930 . S
H1914 C1922 0.930 . S
H1915 C1923 0.930 . S
H1916 C1926 0.930 . S
H1917 C1927 0.930 . S
C1918 H1912 0.930 . S
C1918 C1919 1.355 . S
C1918 C1920 1.415 . S
C1919 C1918 1.355 . S
C1919 C1921 1.419 . S
C1920 C1918 1.415 . S
C1920 C1925 1.425 . S
C1920 C1927 1.409 . S
C1921 H1913 0.930 . S
C1921 C1919 1.419 . S
C1921 C1922 1.362 . S
C1922 H1914 0.930 . S
C1922 C1921 1.362 . S
C1922 C1925 1.409 . S
C1923 H1915 0.930 . S
C1923 C1924 1.355 . S
C1923 C1925 1.415 . S
C1924 C1923 1.355 . S
C1924 C1926 1.419 . S
C1925 C1920 1.425 . S
C1925 C1922 1.409 . S
C1925 C1923 1.415 . S
C1926 H1916 0.930 . S
C1926 C1924 1.419 . S
C1926 C1927 1.362 . S
C1927 H1917 0.930 . S
C1927 C1920 1.409 . S
C1927 C1926 1.362 . S
H1928 C1934 0.930 . S
H1929 C1937 0.930 . S
H1930 C1938 0.930 . S
H1931 C1939 0.930 . S
H1932 C1942 0.930 . S
H1933 C1943 0.930 . S
C1934 H1928 0.930 . S
C1934 C1935 1.355 . S
C1934 C1936 1.415 . S
C1935 C1934 1.355 . S
C1935 C1937 1.419 . S
C1936 C1934 1.415 . S
C1936 C1941 1.425 . S
C1936 C1943 1.409 . S
C1937 H1929 0.930 . S
C1937 C1935 1.419 . S
C1937 C1938 1.362 . S
C1938 H1930 0.930 . S
C1938 C1937 1.362 . S
C1938 C1941 1.409 . S
C1939 H1931 0.930 . S
C1939 C1940 1.355 . S
C1939 C1941 1.415 . S
C1940 C1939 1.355 . S
C1940 C1942 1.419 . S
C1941 C1936 1.425 . S
C1941 C1938 1.409 . S
C1941 C1939 1.415 . S
C1942 H1932 0.930 . S
C1942 C1940 1.419 . S
C1942 C1943 1.362 . S
C1943 H1933 0.930 . S
C1943 C1936 1.409 . S
C1943 C1942 1.362 . S
H1944 C1950 0.930 . S
H1945 C1953 0.930 . S
H1946 C1954 0.930 . S
H1947 C1955 0.930 . S
H1948 C1958 0.930 . S
H1949 C1959 0.930 . S
C1950 H1944 0.930 . S
C1950 C1951 1.355 . S
C1950 C1952 1.415 . S
C1951 C1950 1.355 . S
C1951 C1953 1.419 . S
C1952 C1950 1.415 . S
C1952 C1957 1.425 . S
C1952 C1959 1.409 . S
C1953 H1945 0.930 . S
C1953 C1951 1.419 . S
C1953 C1954 1.362 . S
C1954 H1946 0.930 . S
C1954 C1953 1.362 . S
C1954 C1957 1.409 . S
C1955 H1947 0.930 . S
C1955 C1956 1.355 . S
C1955 C1957 1.415 . S
C1956 C1955 1.355 . S
C1956 C1958 1.419 . S
C1957 C1952 1.425 . S
C1957 C1954 1.409 . S
C1957 C1955 1.415 . S
C1958 H1948 0.930 . S
C1958 C1956 1.419 . S
C1958 C1959 1.362 . S
C1959 H1949 0.930 . S
C1959 C1952 1.409 . S
C1959 C1958 1.362 . S
H1960 C1966 0.930 . S
H1961 C1969 0.930 . S
H1962 C1970 0.930 . S
H1963 C1971 0.930 . S
H1964 C1974 0.930 . S
H1965 C1975 0.930 . S
C1966 H1960 0.930 . S
C1966 C1967 1.355 . S
C1966 C1968 1.415 . S
C1967 C1966 1.355 . S
C1967 C1969 1.419 . S
C1968 C1966 1.415 . S
C1968 C1973 1.425 . S
C1968 C1975 1.409 . S
C1969 H1961 0.930 . S
C1969 C1967 1.419 . S
C1969 C1970 1.362 . S
C1970 H1962 0.930 . S
C1970 C1969 1.362 . S
C1970 C1973 1.409 . S
C1971 H1963 0.930 . S
C1971 C1972 1.355 . S
C1971 C1973 1.415 . S
C1972 C1971 1.355 . S
C1972 C1974 1.419 . S
C1973 C1968 1.425 . S
C1973 C1970 1.409 . S
C1973 C1971 1.415 . S
C1974 H1964 0.930 . S
C1974 C1972 1.419 . S
C1974 C1975 1.362 . S
C1975 H1965 0.930 . S
C1975 C1968 1.409 . S
C1975 C1974 1.362 . S
H1976 C1982 0.930 . S
H1977 C1985 0.930 . S
H1978 C1986 0.930 . S
H1979 C1987 0.930 . S
H1980 C1990 0.930 . S
H1981 C1991 0.930 . S
C1982 H1976 0.930 . S
C1982 C1983 1.355 . S
C1982 C1984 1.415 . S
C1983 C1982 1.355 . S
C1983 C1985 1.419 . S
C1984 C1982 1.415 . S
C1984 C1989 1.425 . S
C1984 C1991 1.409 . S
C1985 H1977 0.930 . S
C1985 C1983 1.419 . S
C1985 C1986 1.362 . S
C1986 H1978 0.930 . S
C1986 C1985 1.362 . S
C1986 C1989 1.409 . S
C1987 H1979 0.930 . S
C1987 C1988 1.355 . S
C1987 C1989 1.415 . S
C1988 C1987 1.355 . S
C1988 C1990 1.419 . S
C1989 C1984 1.425 . S
C1989 C1986 1.409 . S
C1989 C1987 1.415 . S
C1990 H1980 0.930 . S
C1990 C1988 1.419 . S
C1990 C1991 1.362 . S
C1991 H1981 0.930 . S
C1991 C1984 1.409 . S
C1991 C1990 1.362 . S
H1992 C1998 0.930 . S
H1993 C2001 0.930 . S
H1994 C2002 0.930 . S
H1995 C2003 0.930 . S
H1996 C2006 0.930 . S
H1997 C2007 0.930 . S
C1998 H1992 0.930 . S
C1998 C1999 1.355 . S
C1998 C2000 1.415 . S
C1999 C1998 1.355 . S
C1999 C2001 1.419 . S
C2000 C1998 1.415 . S
C2000 C2005 1.425 . S
C2000 C2007 1.409 . S
C2001 H1993 0.930 . S
C2001 C1999 1.419 . S
C2001 C2002 1.362 . S
C2002 H1994 0.930 . S
C2002 C2001 1.362 . S
C2002 C2005 1.409 . S
C2003 H1995 0.930 . S
C2003 C2004 1.355 . S
C2003 C2005 1.415 . S
C2004 C2003 1.355 . S
C2004 C2006 1.419 . S
C2005 C2000 1.425 . S
C2005 C2002 1.409 . S
C2005 C2003 1.415 . S
C2006 H1996 0.930 . S
C2006 C2004 1.419 . S
C2006 C2007 1.362 . S
C2007 H1997 0.930 . S
C2007 C2000 1.409 . S
C2007 C2006 1.362 . S
H2008 C2014 0.930 . S
H2009 C2017 0.930 . S
H2010 C2018 0.930 . S
H2011 C2019 0.930 . S
H2012 C2022 0.930 . S
H2013 C2023 0.930 . S
C2014 H2008 0.930 . S
C2014 C2015 1.355 . S
C2014 C2016 1.415 . S
C2015 C2014 1.355 . S
C2015 C2017 1.419 . S
C2016 C2014 1.415 . S
C2016 C2021 1.425 . S
C2016 C2023 1.409 . S
C2017 H2009 0.930 . S
C2017 C2015 1.419 . S
C2017 C2018 1.362 . S
C2018 H2010 0.930 . S
C2018 C2017 1.362 . S
C2018 C2021 1.409 . S
C2019 H2011 0.930 . S
C2019 C2020 1.355 . S
C2019 C2021 1.415 . S
C2020 C2019 1.355 . S
C2020 C2022 1.419 . S
C2021 C2016 1.425 . S
C2021 C2018 1.409 . S
C2021 C2019 1.415 . S
C2022 H2012 0.930 . S
C2022 C2020 1.419 . S
C2022 C2023 1.362 . S
C2023 H2013 0.930 . S
C2023 C2016 1.409 . S
C2023 C2022 1.362 . S
H2024 C2030 0.930 . S
H2025 C2033 0.930 1_554 S
H2026 C2034 0.930 . S
H2027 C2035 0.930 . S
H2028 C2038 0.930 . S
H2029 C2039 0.930 . S
C2030 H2024 0.930 . S
C2030 C2031 1.355 . S
C2030 C2032 1.415 . S
C2031 C2030 1.355 . S
C2031 C2033 1.419 . S
C2032 C2030 1.415 . S
C2032 C2037 1.425 . S
C2032 C2039 1.409 . S
C2033 H2025 0.930 1_556 S
C2033 C2031 1.419 . S
C2033 C2034 1.362 . S
C2034 H2026 0.930 . S
C2034 C2033 1.362 . S
C2034 C2037 1.409 . S
C2035 H2027 0.930 . S
C2035 C2036 1.355 . S
C2035 C2037 1.415 . S
C2036 C2035 1.355 . S
C2036 C2038 1.419 . S
C2037 C2032 1.425 . S
C2037 C2034 1.409 . S
C2037 C2035 1.415 . S
C2038 H2028 0.930 . S
C2038 C2036 1.419 . S
C2038 C2039 1.362 . S
C2039 H2029 0.930 . S
C2039 C2032 1.409 . S
C2039 C2038 1.362 . S
H2040 C2046 0.930 . S
H2041 C2049 0.930 . S
H2042 C2050 0.930 . S
H2043 C2051 0.930 . S
H2044 C2054 0.930 . S
H2045 C2055 0.930 . S
C2046 H2040 0.930 . S
C2046 C2047 1.355 . S
C2046 C2048 1.415 . S
C2047 C2046 1.355 . S
C2047 C2049 1.419 . S
C2048 C2046 1.415 . S
C2048 C2053 1.425 . S
C2048 C2055 1.409 . S
C2049 H2041 0.930 . S
C2049 C2047 1.419 . S
C2049 C2050 1.362 . S
C2050 H2042 0.930 . S
C2050 C2049 1.362 . S
C2050 C2053 1.409 . S
C2051 H2043 0.930 . S
C2051 C2052 1.355 . S
C2051 C2053 1.415 . S
C2052 C2051 1.355 . S
C2052 C2054 1.419 . S
C2053 C2048 1.425 . S
C2053 C2050 1.409 . S
C2053 C2051 1.415 . S
C2054 H2044 0.930 . S
C2054 C2052 1.419 . S
C2054 C2055 1.362 . S
C2055 H2045 0.930 . S
C2055 C2048 1.409 . S
C2055 C2054 1.362 . S
H2056 C2062 0.930 . S
H2057 C2065 0.930 . S
H2058 C2066 0.930 . S
H2059 C2067 0.930 . S
H2060 C2070 0.930 . S
H2061 C2071 0.930 . S
C2062 H2056 0.930 . S
C2062 C2063 1.355 . S
C2062 C2064 1.415 . S
C2063 C2062 1.355 . S
C2063 C2065 1.419 . S
C2064 C2062 1.415 . S
C2064 C2069 1.425 . S
C2064 C2071 1.409 . S
C2065 H2057 0.930 . S
C2065 C2063 1.419 . S
C2065 C2066 1.362 . S
C2066 H2058 0.930 . S
C2066 C2065 1.362 . S
C2066 C2069 1.409 . S
C2067 H2059 0.930 . S
C2067 C2068 1.355 . S
C2067 C2069 1.415 . S
C2068 C2067 1.355 . S
C2068 C2070 1.419 . S
C2069 C2064 1.425 . S
C2069 C2066 1.409 . S
C2069 C2067 1.415 . S
C2070 H2060 0.930 . S
C2070 C2068 1.419 . S
C2070 C2071 1.362 . S
C2071 H2061 0.930 . S
C2071 C2064 1.409 . S
C2071 C2070 1.362 . S
H2072 C2078 0.930 . S
H2073 C2081 0.930 . S
H2074 C2082 0.930 . S
H2075 C2083 0.930 . S
H2076 C2086 0.930 . S
H2077 C2087 0.930 . S
C2078 H2072 0.930 . S
C2078 C2079 1.355 . S
C2078 C2080 1.415 . S
C2079 C2078 1.355 . S
C2079 C2081 1.419 . S
C2080 C2078 1.415 . S
C2080 C2085 1.425 . S
C2080 C2087 1.409 . S
C2081 H2073 0.930 . S
C2081 C2079 1.419 . S
C2081 C2082 1.362 . S
C2082 H2074 0.930 . S
C2082 C2081 1.362 . S
C2082 C2085 1.409 . S
C2083 H2075 0.930 . S
C2083 C2084 1.355 . S
C2083 C2085 1.415 . S
C2084 C2083 1.355 . S
C2084 C2086 1.419 . S
C2085 C2080 1.425 . S
C2085 C2082 1.409 . S
C2085 C2083 1.415 . S
C2086 H2076 0.930 . S
C2086 C2084 1.419 . S
C2086 C2087 1.362 . S
C2087 H2077 0.930 . S
C2087 C2080 1.409 . S
C2087 C2086 1.362 . S
H2088 C2094 0.930 . S
H2089 C2097 0.930 . S
H2090 C2098 0.930 . S
H2091 C2099 0.930 . S
H2092 C2102 0.930 . S
H2093 C2103 0.930 . S
C2094 H2088 0.930 . S
C2094 C2095 1.355 . S
C2094 C2096 1.415 . S
C2095 C2094 1.355 . S
C2095 C2097 1.419 . S
C2096 C2094 1.415 . S
C2096 C2101 1.425 . S
C2096 C2103 1.409 . S
C2097 H2089 0.930 . S
C2097 C2095 1.419 . S
C2097 C2098 1.362 . S
C2098 H2090 0.930 . S
C2098 C2097 1.362 . S
C2098 C2101 1.409 . S
C2099 H2091 0.930 . S
C2099 C2100 1.355 . S
C2099 C2101 1.415 . S
C2100 C2099 1.355 . S
C2100 C2102 1.419 . S
C2101 C2096 1.425 . S
C2101 C2098 1.409 . S
C2101 C2099 1.415 . S
C2102 H2092 0.930 . S
C2102 C2100 1.419 . S
C2102 C2103 1.362 . S
C2103 H2093 0.930 . S
C2103 C2096 1.409 . S
C2103 C2102 1.362 . S
H2104 C2110 0.930 . S
H2105 C2113 0.930 . S
H2106 C2114 0.930 . S
H2107 C2115 0.930 . S
H2108 C2118 0.930 . S
H2109 C2119 0.930 . S
C2110 H2104 0.930 . S
C2110 C2111 1.355 . S
C2110 C2112 1.415 . S
C2111 C2110 1.355 . S
C2111 C2113 1.419 . S
C2112 C2110 1.415 . S
C2112 C2117 1.425 . S
C2112 C2119 1.409 . S
C2113 H2105 0.930 . S
C2113 C2111 1.419 . S
C2113 C2114 1.362 . S
C2114 H2106 0.930 . S
C2114 C2113 1.362 . S
C2114 C2117 1.409 . S
C2115 H2107 0.930 . S
C2115 C2116 1.355 . S
C2115 C2117 1.415 . S
C2116 C2115 1.355 . S
C2116 C2118 1.419 . S
C2117 C2112 1.425 . S
C2117 C2114 1.409 . S
C2117 C2115 1.415 . S
C2118 H2108 0.930 . S
C2118 C2116 1.419 . S
C2118 C2119 1.362 . S
C2119 H2109 0.930 . S
C2119 C2112 1.409 . S
C2119 C2118 1.362 . S
H2120 C2126 0.930 . S
H2121 C2129 0.930 . S
H2122 C2130 0.930 . S
H2123 C2131 0.930 . S
H2124 C2134 0.930 . S
H2125 C2135 0.930 . S
C2126 H2120 0.930 . S
C2126 C2127 1.355 . S
C2126 C2128 1.415 . S
C2127 C2126 1.355 . S
C2127 C2129 1.419 . S
C2128 C2126 1.415 . S
C2128 C2133 1.425 . S
C2128 C2135 1.409 . S
C2129 H2121 0.930 . S
C2129 C2127 1.419 . S
C2129 C2130 1.362 . S
C2130 H2122 0.930 . S
C2130 C2129 1.362 . S
C2130 C2133 1.409 . S
C2131 H2123 0.930 . S
C2131 C2132 1.355 . S
C2131 C2133 1.415 . S
C2132 C2131 1.355 . S
C2132 C2134 1.419 . S
C2133 C2128 1.425 . S
C2133 C2130 1.409 . S
C2133 C2131 1.415 . S
C2134 H2124 0.930 . S
C2134 C2132 1.419 . S
C2134 C2135 1.362 . S
C2135 H2125 0.930 . S
C2135 C2128 1.409 . S
C2135 C2134 1.362 . S
H2136 C2142 0.930 . S
H2137 C2145 0.930 . S
H2138 C2146 0.930 . S
H2139 C2147 0.930 . S
H2140 C2150 0.930 . S
H2141 C2151 0.930 . S
C2142 H2136 0.930 . S
C2142 C2143 1.355 . S
C2142 C2144 1.415 . S
C2143 C2142 1.355 . S
C2143 C2145 1.419 . S
C2144 C2142 1.415 . S
C2144 C2149 1.425 . S
C2144 C2151 1.409 . S
C2145 H2137 0.930 . S
C2145 C2143 1.419 . S
C2145 C2146 1.362 . S
C2146 H2138 0.930 . S
C2146 C2145 1.362 . S
C2146 C2149 1.409 . S
C2147 H2139 0.930 . S
C2147 C2148 1.355 . S
C2147 C2149 1.415 . S
C2148 C2147 1.355 . S
C2148 C2150 1.419 . S
C2149 C2144 1.425 . S
C2149 C2146 1.409 . S
C2149 C2147 1.415 . S
C2150 H2140 0.930 . S
C2150 C2148 1.419 . S
C2150 C2151 1.362 . S
C2151 H2141 0.930 . S
C2151 C2144 1.409 . S
C2151 C2150 1.362 . S
H2152 C2158 0.930 . S
H2153 C2161 0.930 . S
H2154 C2162 0.930 . S
H2155 C2163 0.930 . S
H2156 C2166 0.930 . S
H2157 C2167 0.930 . S
C2158 H2152 0.930 . S
C2158 C2159 1.355 . S
C2158 C2160 1.415 . S
C2159 C2158 1.355 . S
C2159 C2161 1.419 . S
C2160 C2158 1.415 . S
C2160 C2165 1.425 . S
C2160 C2167 1.409 . S
C2161 H2153 0.930 . S
C2161 C2159 1.419 . S
C2161 C2162 1.362 . S
C2162 H2154 0.930 . S
C2162 C2161 1.362 . S
C2162 C2165 1.409 . S
C2163 H2155 0.930 . S
C2163 C2164 1.355 . S
C2163 C2165 1.415 . S
C2164 C2163 1.355 . S
C2164 C2166 1.419 . S
C2165 C2160 1.425 . S
C2165 C2162 1.409 . S
C2165 C2163 1.415 . S
C2166 H2156 0.930 . S
C2166 C2164 1.419 . S
C2166 C2167 1.362 . S
C2167 H2157 0.930 . S
C2167 C2160 1.409 . S
C2167 C2166 1.362 . S
H2168 C2174 0.930 . S
H2169 C2177 0.930 1_545 S
H2170 C2178 0.930 . S
H2171 C2179 0.930 . S
H2172 C2182 0.930 . S
H2173 C2183 0.930 . S
C2174 H2168 0.930 . S
C2174 C2175 1.355 . S
C2174 C2176 1.415 . S
C2175 C2174 1.355 . S
C2175 C2177 1.419 . S
C2176 C2174 1.415 . S
C2176 C2181 1.425 . S
C2176 C2183 1.409 . S
C2177 H2169 0.930 1_565 S
C2177 C2175 1.419 . S
C2177 C2178 1.362 . S
C2178 H2170 0.930 . S
C2178 C2177 1.362 . S
C2178 C2181 1.409 . S
C2179 H2171 0.930 . S
C2179 C2180 1.355 . S
C2179 C2181 1.415 . S
C2180 C2179 1.355 . S
C2180 C2182 1.419 . S
C2181 C2176 1.425 . S
C2181 C2178 1.409 . S
C2181 C2179 1.415 . S
C2182 H2172 0.930 . S
C2182 C2180 1.419 . S
C2182 C2183 1.362 . S
C2183 H2173 0.930 . S
C2183 C2176 1.409 . S
C2183 C2182 1.362 . S
H2184 C2190 0.930 . S
H2185 C2193 0.930 . S
H2186 C2194 0.930 . S
H2187 C2195 0.936 . S
H2188 C2198 0.930 . S
H2189 C2199 0.930 . S
C2190 H2184 0.930 . S
C2190 C2191 1.355 . S
C2190 C2192 1.415 . S
C2191 C2190 1.355 . S
C2191 C2193 1.419 . S
C2192 C2190 1.415 . S
C2192 C2197 1.425 . S
C2192 C2199 1.409 1_455 S
C2193 H2185 0.930 . S
C2193 C2191 1.419 . S
C2193 C2194 1.362 . S
C2194 H2186 0.930 . S
C2194 C2193 1.362 . S
C2194 C2197 1.409 . S
C2195 H2187 0.936 . S
C2195 C2196 1.355 . S
C2195 C2197 1.415 1_655 S
C2196 C2195 1.355 . S
C2196 C2198 1.419 . S
C2197 C2192 1.425 . S
C2197 C2194 1.409 . S
C2197 C2195 1.415 1_455 S
C2198 H2188 0.930 . S
C2198 C2196 1.419 . S
C2198 C2199 1.362 . S
C2199 H2189 0.930 . S
C2199 C2192 1.409 1_655 S
C2199 C2198 1.362 . S
C676 C319 1.207 . S
C671 C10 1.324 . S
C687 C16 1.306 . S
C692 C339 1.191 . S
C708 C360 1.294 . S
C703 C30 1.324 . S
C724 C387 1.193 . S
C719 C42 1.306 . S
C740 C343 1.284 . S
C735 C57 1.324 . S
C751 C69 1.305 . S
C756 C363 1.263 . S
C772 C383 1.289 . S
C767 C83 1.352 . S
C783 C101 1.339 . S
C788 C316 1.236 . S
C799 C108 1.345 . S
C804 C321 1.300 . S
C820 C338 1.193 . S
C815 C120 1.317 . S
C836 C362 1.236 . S
C831 C133 1.342 . S
C852 C386 1.303 . S
C847 C147 1.341 . S
C868 C342 1.190 . S
C863 C114 1.307 . S
C884 C365 1.230 . S
C879 C122 1.339 . S
C895 C135 1.317 . S
C900 C382 1.193 . S
C916 C318 1.252 . S
C911 C153 1.344 . S
C927 C160 1.343 . S
C932 C320 1.302 . S
C943 C174 1.305 . S
C948 C407 1.235 . S
C964 C427 1.207 . S
C959 C187 1.328 . S
C980 C450 1.207 . S
C975 C205 1.324 . S
C991 C212 1.309 . S
C996 C317 1.191 . S
C1007 C226 1.313 . S
C1012 C361 1.191 . S
C1028 C451 1.203 . S
C1023 C185 1.326 . S
C1044 C406 1.213 . S
C1039 C244 1.328 . S
C1060 C474 1.268 . S
C1055 C23 1.273 . S
C1076 C495 1.271 . S
C1071 C5 1.278 . S
C1087 C49 1.295 . S
C1092 C514 1.192 . S
C1103 C29 1.277 . S
C1108 C539 1.277 . S
C1119 C94 1.286 . S
C1124 C494 1.224 . S
C1135 C88 1.283 . S
C1140 C519 1.236 . S
C1156 C538 1.223 . S
C1151 C70 1.286 . S
C1167 C62 1.282 . S
C1172 C471 1.239 . S
C1183 C257 1.283 . S
C1188 C475 1.225 . S
C1204 C496 1.266 . S
C1199 C200 1.280 . S
C1220 C515 1.180 . S
C1215 C211 1.297 . S
C1236 C540 1.177 . S
C1231 C179 1.298 . S
C1252 C492 1.269 . S
C1247 C251 1.270 . S
C1268 C517 1.178 . S
C1263 C198 1.298 . S
C1284 C536 1.200 . S
C1279 C213 1.296 . S
C1295 C173 1.275 . S
C1300 C472 1.252 . S
C1316 C473 1.240 . S
C1311 C264 1.282 . S
C1327 C148 1.276 . S
C1332 C559 1.276 . S
C1348 C584 1.220 . S
C1343 C278 1.287 . S
C1359 C127 1.269 . S
C1364 C603 1.272 . S
C1380 C470 1.261 . S
C1375 C140 1.272 . S
C1396 C516 1.257 . S
C1391 C289 1.283 . S
C1412 C607 1.221 . S
C1407 C276 1.290 . S
C1423 C303 1.270 . S
C1428 C563 1.274 . S
C1439 C36 1.333 . S
C1444 C627 1.301 . S
C1455 C44 1.350 . S
C1460 C405 1.268 . S
C1476 C429 1.287 . S
C1471 C4 1.318 . S
C1487 C18 1.340 . S
C1492 C453 1.232 . S
C1503 C81 1.334 . S
C1508 C409 1.299 . S
C1519 C95 1.336 . S
C1524 C426 1.230 . S
C1540 C449 1.272 . S
C1535 C55 1.351 . S
C1556 C624 1.211 . S
C1551 C75 1.326 . S
C1572 C629 1.264 . S
C1567 C277 1.347 . S
C1588 C404 1.230 . S
C1583 C263 1.340 . S
C1604 C431 1.191 . S
C1599 C302 1.307 . S
C1615 C290 1.319 . S
C1620 C452 1.201 . S
C1636 C408 1.226 . S
C1631 C283 1.335 . S
C1647 C265 1.305 . S
C1652 C428 1.235 . S
C1668 C448 1.288 . S
C1663 C304 1.352 . S
C1679 C296 1.338 . S
C1684 C626 1.234 . S
C1700 C628 1.291 . S
C1695 C199 1.321 . S
C1711 C224 1.302 . S
C1716 C341 1.205 . S
C1732 C364 1.252 . S
C1727 C252 1.347 . S
C1743 C166 1.293 . S
C1748 C384 1.203 . S
C1764 C625 1.263 . S
C1759 C238 1.347 . S
C1780 C430 1.226 . S
C1775 C172 1.304 . S
C1796 C385 1.254 . S
C1791 C250 1.310 . S
C1812 C340 1.266 . S
C1807 C218 1.347 . S
C1823 C43 1.277 . S
C1828 C651 1.256 . S
C1839 C31 1.287 . S
C1844 C561 1.235 . S
C1855 C17 1.298 . S
C1860 C580 1.182 . S
C1876 C605 1.249 . S
C1871 C3 1.281 . S
C1892 C560 1.271 . S
C1887 C68 1.277 . S
C1903 C56 1.294 . S
C1908 C585 1.188 . S
C1924 C604 1.232 . S
C1919 C96 1.288 . S
C1935 C82 1.269 . S
C1940 C646 1.274 . S
C1956 C649 1.178 . S
C1951 C192 1.299 . S
C1967 C161 1.295 . S
C1972 C562 1.189 . S
C1983 C237 1.277 . S
C1988 C581 1.265 . S
C2004 C606 1.274 . S
C1999 C225 1.269 . S
C2020 C558 1.183 . S
C2015 C186 1.296 . S
C2031 C159 1.283 . S
C2036 C583 1.238 . S
C2052 C602 1.181 . S
C2047 C239 1.299 . S
C2068 C647 1.245 . S
C2063 C231 1.277 . S
C2084 C650 1.202 . S
C2079 C121 1.290 . S
C2100 C493 1.186 . S
C2095 C291 1.297 . S
C2111 C109 1.286 . S
C2116 C518 1.246 . S
C2127 C270 1.271 . S
C2132 C537 1.272 . S
C2148 C648 1.276 . S
C2143 C309 1.269 . S
C2164 C582 1.272 . S
C2159 C146 1.279 . S
C2180 C541 1.211 . S
C2175 C107 1.289 . S
C2196 C497 1.178 . S
C2191 C134 1.298 . S
