# Generated by pormake.
# Topology bcu-b, (8,8)-cn, num edge types: 1
# Building blocks:
#     Node 0, Type 0, BuildingBlock: TAGTUT_clean_sbu_3, # of connection points: 8
#     Node 1, Type 1, BuildingBlock: VETTIZ_charged_sbu_0, # of connection points: 8
#     Edge 2, Type (0, 1), BuildingBlock: ZUJKAS_clean_linker_0, # of connection points: 2
#     Edge 3, Type (0, 1), BuildingBlock: ZUJKAS_clean_linker_0, # of connection points: 2
#     Edge 4, Type (0, 1), BuildingBlock: ZUJKAS_clean_linker_0, # of connection points: 2
#     Edge 5, Type (0, 1), BuildingBlock: ZUJKAS_clean_linker_0, # of connection points: 2
#     Edge 6, Type (0, 1), BuildingBlock: ZUJKAS_clean_linker_0, # of connection points: 2
#     Edge 7, Type (0, 1), BuildingBlock: ZUJKAS_clean_linker_0, # of connection points: 2
#     Edge 8, Type (0, 1), BuildingBlock: ZUJKAS_clean_linker_0, # of connection points: 2
#     Edge 9, Type (0, 1), BuildingBlock: ZUJKAS_clean_linker_0, # of connection points: 2
# Relax obj value: 0.022
# Max RMSD: 0.106
# Mean RMSD: 0.075
data_MOF--net-bcu-b--node1-TAGTUT_clean_sbu_3--node2-VETTIZ_charged_sbu_0--edge1-ZUJKAS_clean_linker_0
_symmetry_space_group_name_H-M    P1
_symmetry_Int_Tables_number       1
_symmetry_cell_setting            triclinic
loop_
_symmetry_equiv_pos_as_xyz
'x, y, z'
_cell_length_a     24.466686
_cell_length_b     24.912544
_cell_length_c     25.471907
_cell_angle_alpha  90.280273
_cell_angle_beta   89.742837
_cell_angle_gamma 97.767027
loop_
_atom_site_label
_atom_site_type_symbol
_atom_site_fract_x
_atom_site_fract_y
_atom_site_fract_z
_atom_type_partial_charge
C0 C 0.10138 0.07708 0.07629 0.0
C1 C 0.14804 0.87386 0.07798 0.0
C2 C 0.09993 0.87655 0.91487 0.0
Mg3 Mg 1.00414 0.12471 0.00998 0.0
Mg4 Mg 0.89417 0.04251 0.97544 0.0
O5 O 0.97099 0.05804 0.97056 0.0
Mg6 Mg 0.01387 0.00312 0.0009 0.0
O7 O 0.06041 0.95135 0.03104 0.0
Mg8 Mg 0.13381 0.98075 0.99996 0.0
Mg9 Mg 0.0371 0.87706 0.01861 0.0
C10 C 0.92045 0.9314 0.92687 0.0
O11 O 0.94428 0.96507 0.05548 0.0
O12 O 0.95064 0.1724 0.95386 0.0
O13 O 0.9529 0.8761 0.04885 0.0
O14 O 0.93381 0.12012 0.07246 0.0
O15 O 0.87737 0.11157 0.93234 0.0
O16 O 0.86729 0.05262 0.05429 0.0
O17 O 0.0863 0.03667 0.94901 0.0
O18 O 0.07554 0.12459 0.95049 0.0
C19 C 0.10208 0.08595 0.93561 0.0
C20 C 0.90466 0.15913 0.92932 0.0
O21 O 0.9717 0.94112 0.93983 0.0
O22 O 0.16939 0.91869 0.05634 0.0
O23 O 0.88497 0.96255 0.94032 0.0
O24 O 0.12878 0.91859 0.93364 0.0
O25 O 0.09848 0.85197 0.06887 0.0
O26 O 0.05744 0.85341 0.93912 0.0
O27 O 0.05139 0.06801 0.05985 0.0
O28 O 0.13705 0.04634 0.06277 0.0
C29 C 0.8884 0.09081 0.08433 0.0
C30 C 0.92685 0.91489 0.06454 0.0
Fe31 Fe 0.51814 0.56311 0.50334 0.0
O32 O 0.4778 0.49951 0.54085 0.0
Fe33 Fe 0.63389 0.5135 0.45356 0.0
Fe34 Fe 0.39713 0.48939 0.5496 0.0
O35 O 0.55439 0.50731 0.46506 0.0
O36 O 0.55366 0.50202 0.46414 0.0
O37 O 0.47721 0.49414 0.54013 0.0
Fe38 Fe 0.51375 0.43834 0.50186 0.0
C39 C 0.43977 0.60155 0.58907 0.0
O40 O 0.45995 0.55724 0.44602 0.0
O41 O 0.38342 0.54758 0.49414 0.0
O42 O 0.55803 0.38813 0.45599 0.0
O43 O 0.61505 0.44769 0.40414 0.0
O44 O 0.61706 0.574 0.40362 0.0
O45 O 0.56435 0.62261 0.45664 0.0
O46 O 0.37864 0.43038 0.49345 0.0
O47 O 0.45396 0.42994 0.44412 0.0
C48 C 0.59426 0.61689 0.41493 0.0
O49 O 0.57353 0.4437 0.55922 0.0
O50 O 0.64948 0.45817 0.50968 0.0
O51 O 0.47305 0.61352 0.54925 0.0
O52 O 0.41632 0.55316 0.60061 0.0
C53 C 0.40985 0.56342 0.45245 0.0
C54 C 0.40188 0.42019 0.45048 0.0
C55 C 0.43476 0.38423 0.58822 0.0
O56 O 0.41146 0.42705 0.59875 0.0
O57 O 0.46697 0.37899 0.54806 0.0
C58 C 0.59111 0.39942 0.41602 0.0
O59 O 0.65214 0.57398 0.5089 0.0
O60 O 0.57796 0.57109 0.56045 0.0
C61 C 0.62528 0.44412 0.55285 0.0
C62 C 0.62977 0.58202 0.55301 0.0
H63 H 0.04409 0.13227 0.14767 0.0
H64 H 0.08401 0.20489 0.20792 0.0
H65 H 0.24378 0.20214 0.13647 0.0
H66 H 0.20477 0.13088 0.07697 0.0
H67 H 0.16887 0.19179 0.27914 0.0
H68 H 0.23587 0.36385 0.14724 0.0
H69 H 0.18533 0.30756 0.12803 0.0
H70 H 0.25788 0.30217 0.12389 0.0
C71 C 0.08741 0.14817 0.14426 0.0
C72 C 0.12141 0.12558 0.10804 0.0
C73 C 0.11017 0.18946 0.17864 0.0
C74 C 0.16679 0.20938 0.17623 0.0
C75 C 0.19989 0.18832 0.13845 0.0
H76 H 0.43302 0.37517 0.35772 0.0
H77 H 0.37216 0.32769 0.29096 0.0
C78 C 0.17752 0.14706 0.10478 0.0
C79 C 0.19357 0.24743 0.21636 0.0
H80 H 0.28405 0.36379 0.2299 0.0
C81 C 0.19309 0.23 0.26867 0.0
C82 C 0.22565 0.29697 0.20247 0.0
C83 C 0.22583 0.319 0.1474 0.0
C84 C 0.22604 0.25932 0.30689 0.0
C85 C 0.25967 0.30784 0.29255 0.0
C86 C 0.25867 0.32631 0.24067 0.0
C87 C 0.29646 0.33951 0.33099 0.0
C88 C 0.2265 0.23684 0.3618 0.0
C89 C 0.27402 0.36292 0.37477 0.0
C90 C 0.30845 0.38975 0.41285 0.0
C91 C 0.36628 0.39411 0.4079 0.0
C92 C 0.38876 0.37233 0.36292 0.0
C93 C 0.35406 0.34527 0.32474 0.0
H94 H 0.20823 0.19355 0.36339 0.0
H95 H 0.26922 0.24068 0.37729 0.0
H96 H 0.20198 0.26013 0.38806 0.0
H97 H 0.22972 0.3599 0.37981 0.0
H98 H 0.28952 0.4067 0.44649 0.0
H99 H 0.78964 0.03923 0.12139 0.0
H100 H 0.72983 0.0728 0.18756 0.0
H101 H 0.85324 0.21024 0.21666 0.0
H102 H 0.91391 0.17646 0.15164 0.0
H103 H 0.79831 0.17005 0.30783 0.0
H104 H 0.65138 0.20197 0.14833 0.0
H105 H 0.66626 0.1338 0.15614 0.0
H106 H 0.71978 0.18587 0.13503 0.0
C107 C 0.8046 0.07605 0.14257 0.0
C108 C 0.85634 0.10558 0.13055 0.0
C109 C 0.77014 0.09532 0.18018 0.0
C110 C 0.78654 0.14468 0.20605 0.0
C111 C 0.83961 0.17222 0.19685 0.0
H112 H 0.63712 0.40541 0.31824 0.0
H113 H 0.67658 0.33482 0.27066 0.0
C114 C 0.87424 0.15285 0.15954 0.0
C115 C 0.7473 0.17036 0.23929 0.0
H116 H 0.63129 0.23244 0.23249 0.0
C117 C 0.76128 0.18298 0.29172 0.0
C118 C 0.69929 0.18759 0.21787 0.0
C119 C 0.68326 0.1771 0.16119 0.0
C120 C 0.72964 0.21407 0.32278 0.0
C121 C 0.68239 0.23232 0.30093 0.0
C122 C 0.66724 0.2179 0.24919 0.0
C123 C 0.65284 0.27252 0.32838 0.0
C124 C 0.74875 0.22978 0.37766 0.0
C125 C 0.62467 0.26045 0.37593 0.0
C126 C 0.60182 0.30099 0.40347 0.0
C127 C 0.60705 0.35419 0.38386 0.0
C128 C 0.63281 0.36511 0.33486 0.0
C129 C 0.65533 0.32472 0.30745 0.0
H130 H 0.79055 0.21913 0.38575 0.0
H131 H 0.74941 0.274 0.38399 0.0
H132 H 0.71955 0.20834 0.4065 0.0
H133 H 0.62152 0.22011 0.39231 0.0
H134 H 0.58221 0.29118 0.44106 0.0
H135 H 0.8792 0.98025 0.13289 0.0
H136 H 0.80106 0.95399 0.19208 0.0
H137 H 0.78425 0.79137 0.12972 0.0
H138 H 0.86109 0.81756 0.06959 0.0
H139 H 0.68119 0.83311 0.14875 0.0
H140 H 0.8239 0.85811 0.32008 0.0
H141 H 0.82172 0.91526 0.27763 0.0
H142 H 0.84932 0.85662 0.25357 0.0
C143 C 0.85795 0.93929 0.13084 0.0
C144 C 0.87637 0.90096 0.09657 0.0
C145 C 0.81365 0.92426 0.16504 0.0
C146 C 0.78734 0.87063 0.16561 0.0
C147 C 0.80405 0.833 0.12984 0.0
H148 H 0.61747 0.61158 0.31104 0.0
H149 H 0.65038 0.68593 0.2527 0.0
C150 C 0.8482 0.84794 0.09574 0.0
C151 C 0.7456 0.85157 0.20599 0.0
H152 H 0.73558 0.81201 0.33409 0.0
C153 C 0.69256 0.82959 0.18958 0.0
C154 C 0.76032 0.84766 0.25936 0.0
C155 C 0.81691 0.87036 0.27903 0.0
C156 C 0.65521 0.8004 0.22439 0.0
C157 C 0.67187 0.79218 0.27649 0.0
C158 C 0.72299 0.81825 0.29405 0.0
C159 C 0.6424 0.749 0.3099 0.0
C160 C 0.5992 0.77653 0.2044 0.0
C161 C 0.62673 0.7596 0.36167 0.0
C162 C 0.60789 0.71675 0.39549 0.0
C163 C 0.6057 0.6628 0.37818 0.0
C164 C 0.61916 0.65267 0.32571 0.0
C165 C 0.63734 0.69525 0.29202 0.0
H166 H 0.58487 0.80233 0.17324 0.0
H167 H 0.602 0.73611 0.18689 0.0
H168 H 0.56807 0.77171 0.2365 0.0
H169 H 0.63097 0.80082 0.37639 0.0
H170 H 0.59791 0.72573 0.43577 0.0
H171 H 0.26104 0.88413 0.09192 0.0
H172 H 0.31136 0.83215 0.15289 0.0
H173 H 0.15681 0.75079 0.21216 0.0
H174 H 0.10687 0.8009 0.15152 0.0
H175 H 0.30878 0.82314 0.26194 0.0
H176 H 0.23592 0.62433 0.17103 0.0
H177 H 0.22871 0.68758 0.13929 0.0
H178 H 0.17976 0.66032 0.18854 0.0
C179 C 0.23798 0.85514 0.11801 0.0
C180 C 0.18001 0.84601 0.11616 0.0
C181 C 0.26669 0.82548 0.15272 0.0
C182 C 0.23777 0.7865 0.18601 0.0
C183 C 0.18002 0.77927 0.18567 0.0
H184 H 0.30111 0.57962 0.44407 0.0
H185 H 0.2611 0.63489 0.37857 0.0
C186 C 0.15153 0.80826 0.15097 0.0
C187 C 0.26702 0.75322 0.22176 0.0
H188 H 0.27321 0.62218 0.25781 0.0
C189 C 0.30162 0.77923 0.26064 0.0
C190 C 0.25773 0.69584 0.21992 0.0
C191 C 0.22397 0.66539 0.17709 0.0
C192 C 0.32544 0.74932 0.29894 0.0
C193 C 0.31428 0.69214 0.29817 0.0
C194 C 0.28086 0.6661 0.25865 0.0
C195 C 0.33807 0.65854 0.33745 0.0
C196 C 0.36134 0.77883 0.34079 0.0
C197 C 0.39418 0.65299 0.33519 0.0
C198 C 0.41694 0.62121 0.37197 0.0
C199 C 0.38404 0.59442 0.41203 0.0
C200 C 0.32755 0.59966 0.41384 0.0
C201 C 0.30469 0.63123 0.37656 0.0
H202 H 0.35953 0.82315 0.34048 0.0
H203 H 0.34866 0.76269 0.38021 0.0
H204 H 0.40479 0.77211 0.33424 0.0
H205 H 0.42041 0.67334 0.30494 0.0
H206 H 0.46067 0.61839 0.36933 0.0
H207 H 0.09039 0.76908 0.88654 0.0
H208 H 0.14808 0.72947 0.8215 0.0
H209 H 0.21763 0.8896 0.77224 0.0
H210 H 0.16075 0.92918 0.83676 0.0
H211 H 0.17158 0.74604 0.70573 0.0
H212 H 0.34788 0.81724 0.83712 0.0
H213 H 0.27697 0.81219 0.85866 0.0
H214 H 0.30577 0.86757 0.81789 0.0
C215 C 0.1166 0.79572 0.86062 0.0
C216 C 0.12159 0.85222 0.86725 0.0
C217 C 0.14975 0.7731 0.82371 0.0
C218 C 0.18793 0.80672 0.79295 0.0
C219 C 0.18911 0.86299 0.79621 0.0
H220 H 0.40834 0.69595 0.55308 0.0
H221 H 0.35022 0.75326 0.6008 0.0
C222 C 0.15639 0.88551 0.83304 0.0
C223 C 0.23047 0.78369 0.76161 0.0
H224 H 0.36871 0.77505 0.75787 0.0
C225 C 0.21471 0.75255 0.71684 0.0
C226 C 0.28667 0.79202 0.77658 0.0
C227 C 0.30558 0.8237 0.82538 0.0
C228 C 0.25382 0.7294 0.68659 0.0
C229 C 0.31008 0.73804 0.70141 0.0
C230 C 0.32573 0.76925 0.74616 0.0
C231 C 0.35216 0.7102 0.67423 0.0
C232 C 0.23451 0.69437 0.64001 0.0
C233 C 0.37501 0.6693 0.70055 0.0
C234 C 0.40821 0.63695 0.67361 0.0
C235 C 0.41979 0.64531 0.61994 0.0
C236 C 0.40072 0.68917 0.59461 0.0
C237 C 0.36688 0.72133 0.62159 0.0
H238 H 0.18884 0.68478 0.63877 0.0
H239 H 0.24854 0.71588 0.60331 0.0
H240 H 0.25258 0.65581 0.64086 0.0
H241 H 0.3645 0.66028 0.74123 0.0
H242 H 0.42218 0.60324 0.69397 0.0
H243 H 0.15892 0.18578 0.91764 0.0
H244 H 0.23591 0.20968 0.85752 0.0
H245 H 0.23505 0.04124 0.81729 0.0
H246 H 0.15731 0.01669 0.878 0.0
H247 H 0.34574 0.16726 0.85211 0.0
H248 H 0.21156 0.12574 0.67592 0.0
H249 H 0.18193 0.13657 0.7395 0.0
H250 H 0.21097 0.07549 0.72669 0.0
C251 C 0.17516 0.15361 0.89638 0.0
C252 C 0.15162 0.0993 0.90218 0.0
C253 C 0.2194 0.16736 0.86223 0.0
C254 C 0.24086 0.12727 0.83288 0.0
C255 C 0.21879 0.07274 0.83954 0.0
H256 H 0.43603 0.27588 0.5676 0.0
H257 H 0.4029 0.19957 0.62555 0.0
C258 C 0.17455 0.05882 0.87421 0.0
C259 C 0.28394 0.14439 0.79328 0.0
H260 H 0.29594 0.1814 0.66461 0.0
C261 C 0.33564 0.16896 0.81078 0.0
C262 C 0.27083 0.14593 0.73937 0.0
C263 C 0.21587 0.11965 0.71881 0.0
C264 C 0.37273 0.19909 0.77645 0.0
C265 C 0.35701 0.2057 0.72377 0.0
C266 C 0.30775 0.17655 0.70513 0.0
C267 C 0.38484 0.25022 0.69091 0.0
C268 C 0.42707 0.22616 0.79763 0.0
C269 C 0.38577 0.30374 0.70853 0.0
C270 C 0.40399 0.34701 0.67566 0.0
C271 C 0.42166 0.33782 0.62423 0.0
C272 C 0.42287 0.28419 0.60712 0.0
C273 C 0.40398 0.24063 0.6401 0.0
H274 H 0.442 0.20181 0.82966 0.0
H275 H 0.45905 0.23224 0.76635 0.0
H276 H 0.42141 0.26628 0.81432 0.0
H277 H 0.36996 0.31219 0.74707 0.0
H278 H 0.40285 0.38778 0.69021 0.0
H279 H 0.94957 0.26378 0.90307 0.0
H280 H 0.91037 0.32539 0.8427 0.0
H281 H 0.7685 0.20522 0.81886 0.0
H282 H 0.80638 0.14416 0.87818 0.0
H283 H 0.82886 0.25057 0.72415 0.0
H284 H 0.76514 0.40354 0.86408 0.0
H285 H 0.83292 0.3833 0.86982 0.0
H286 H 0.77327 0.33581 0.88483 0.0
C287 C 0.90984 0.25075 0.88527 0.0
C288 C 0.88143 0.19879 0.89539 0.0
C289 C 0.88749 0.28601 0.85096 0.0
C290 C 0.83651 0.26973 0.82653 0.0
C291 C 0.80788 0.21849 0.83732 0.0
H292 H 0.58905 0.39617 0.64602 0.0
H293 H 0.64492 0.36004 0.71359 0.0
C294 C 0.82987 0.18357 0.87135 0.0
C295 C 0.81322 0.304 0.78742 0.0
H296 H 0.73975 0.41057 0.77545 0.0
C297 C 0.81013 0.2861 0.73509 0.0
C298 C 0.78819 0.34971 0.80221 0.0
C299 C 0.7896 0.36949 0.85827 0.0
C300 C 0.78147 0.31189 0.69728 0.0
C301 C 0.75574 0.35724 0.71212 0.0
C302 C 0.75971 0.37589 0.76426 0.0
C303 C 0.72278 0.38411 0.67409 0.0
C304 C 0.777 0.28904 0.64222 0.0
C305 C 0.74823 0.41064 0.63022 0.0
C306 C 0.71654 0.43103 0.5915 0.0
C307 C 0.65865 0.42547 0.59594 0.0
C308 C 0.63344 0.40086 0.64115 0.0
C309 C 0.6653 0.38036 0.67989 0.0
H310 H 0.78959 0.24788 0.63995 0.0
H311 H 0.73409 0.28698 0.62752 0.0
H312 H 0.80429 0.31596 0.6157 0.0
H313 H 0.7926 0.41459 0.6254 0.0
H314 H 0.73752 0.45047 0.55767 0.0
H315 H 0.98002 0.87153 0.86223 0.0
H316 H 0.94286 0.79765 0.80272 0.0
H317 H 0.77845 0.80969 0.85905 0.0
H318 H 0.8149 0.88215 0.91874 0.0
H319 H 0.80044 0.70154 0.84439 0.0
H320 H 0.85703 0.83228 0.67025 0.0
H321 H 0.91174 0.82203 0.71445 0.0
H322 H 0.85797 0.85941 0.73609 0.0
C323 C 0.93612 0.85772 0.86251 0.0
C324 C 0.90035 0.88316 0.8947 0.0
C325 C 0.91492 0.81581 0.82829 0.0
C326 C 0.8578 0.79883 0.826 0.0
C327 C 0.82259 0.8223 0.86005 0.0
H328 H 0.59838 0.62269 0.64726 0.0
H329 H 0.65835 0.66859 0.71501 0.0
C330 C 0.84356 0.86403 0.89392 0.0
C331 C 0.83325 0.7595 0.78601 0.0
H332 H 0.80403 0.74821 0.65523 0.0
C333 C 0.8018 0.71128 0.80291 0.0
C334 C 0.83502 0.77246 0.73198 0.0
C335 C 0.86688 0.82445 0.71182 0.0
C336 C 0.77096 0.67627 0.7673 0.0
C337 C 0.77079 0.6905 0.71363 0.0
C338 C 0.80406 0.73754 0.69647 0.0
C339 C 0.73456 0.6588 0.67477 0.0
C340 C 0.7386 0.62462 0.78752 0.0
C341 C 0.75739 0.63869 0.62937 0.0
C342 C 0.72328 0.61303 0.59038 0.0
C343 C 0.66548 0.60717 0.59581 0.0
C344 C 0.64267 0.62641 0.64185 0.0
C345 C 0.67693 0.65229 0.68082 0.0
H346 H 0.75606 0.61161 0.82483 0.0
H347 H 0.69546 0.63156 0.79539 0.0
H348 H 0.73788 0.59131 0.7583 0.0
H349 H 0.80171 0.64346 0.62381 0.0
H350 H 0.74235 0.59828 0.55568 0.0
loop_
_geom_bond_atom_site_label_1
_geom_bond_atom_site_label_2
_geom_bond_distance
_geom_bond_site_symmetry_2
_ccdc_geom_bond_type
C0 O27 1.312 . S
C0 O28 1.208 . S
C1 O22 1.331 . S
C1 O25 1.244 . S
C2 O24 1.264 . S
C2 O26 1.273 . S
Mg3 O5 1.936 . S
Mg3 O12 2.081 . S
Mg3 O14 2.023 1_556 S
Mg3 O18 2.031 1_655 S
Mg3 O27 2.291 1_656 S
Mg4 O5 1.963 . S
Mg4 O15 1.942 . S
Mg4 O16 1.955 1_556 S
Mg4 O23 1.986 1_545 S
O5 Mg3 1.936 . S
O5 Mg4 1.963 . S
O5 Mg6 1.915 1_546 S
Mg6 O5 1.915 1_564 S
Mg6 O7 1.915 1_655 S
Mg6 O11 2.021 . S
Mg6 O17 2.105 1_664 S
Mg6 O21 2.021 1_554 S
Mg6 O27 2.105 1_665 S
O7 Mg6 1.915 1_455 S
O7 Mg8 1.936 . S
O7 Mg9 1.963 . S
Mg8 O7 1.936 . S
Mg8 O17 2.291 1_564 S
Mg8 O22 2.081 . S
Mg8 O24 2.023 1_554 S
Mg8 O28 2.031 1_565 S
Mg9 O7 1.963 . S
Mg9 O13 1.986 1_455 S
Mg9 O25 1.942 . S
Mg9 O26 1.955 1_554 S
C10 O21 1.191 . S
C10 O23 1.307 . S
O11 Mg6 2.021 . S
O11 C30 1.191 . S
O12 Mg3 2.081 . S
O12 C20 1.331 . S
O13 Mg9 1.986 1_655 S
O13 C30 1.307 . S
O14 Mg3 2.023 1_554 S
O14 C29 1.264 . S
O15 Mg4 1.942 . S
O15 C20 1.244 . S
O16 Mg4 1.955 1_554 S
O16 C29 1.273 . S
O17 Mg6 2.105 1_446 S
O17 Mg8 2.291 1_546 S
O17 C19 1.312 . S
O18 Mg3 2.031 1_455 S
O18 C19 1.208 . S
C19 O17 1.312 . S
C19 O18 1.208 . S
C20 O12 1.331 . S
C20 O15 1.244 . S
O21 Mg6 2.021 1_556 S
O21 C10 1.191 . S
O22 C1 1.331 . S
O22 Mg8 2.081 . S
O23 Mg4 1.986 1_565 S
O23 C10 1.307 . S
O24 C2 1.264 . S
O24 Mg8 2.023 1_556 S
O25 C1 1.244 . S
O25 Mg9 1.942 . S
O26 C2 1.273 . S
O26 Mg9 1.955 1_556 S
O27 C0 1.312 . S
O27 Mg3 2.291 1_454 S
O27 Mg6 2.105 1_445 S
O28 C0 1.208 . S
O28 Mg8 2.031 1_545 S
C29 O14 1.264 . S
C29 O16 1.273 . S
C30 O11 1.191 . S
C30 O13 1.307 . S
Fe31 O32 1.886 . S
Fe31 O35 1.715 . S
Fe31 O40 2.077 . S
Fe31 O45 1.935 . S
Fe31 O51 2.077 . S
Fe31 O60 1.935 . S
O32 Fe31 1.886 . S
O32 Fe34 1.715 . S
Fe33 O35 1.886 . S
Fe33 O36 1.715 . S
Fe33 O43 1.935 . S
Fe33 O44 2.077 . S
Fe33 O50 1.935 . S
Fe33 O59 2.077 . S
Fe34 O32 1.715 . S
Fe34 O37 1.886 . S
Fe34 O41 1.935 . S
Fe34 O46 2.077 . S
Fe34 O52 1.935 . S
Fe34 O56 2.077 . S
O35 Fe31 1.715 . S
O35 Fe33 1.886 . S
O36 Fe33 1.715 . S
O36 Fe38 1.886 . S
O37 Fe34 1.886 . S
O37 Fe38 1.715 . S
Fe38 O36 1.886 . S
Fe38 O37 1.715 . S
Fe38 O42 2.077 . S
Fe38 O47 1.935 . S
Fe38 O49 2.077 . S
Fe38 O57 1.935 . S
C39 O51 1.381 . S
C39 O52 1.421 . S
O40 Fe31 2.077 . S
O40 C53 1.381 . S
O41 Fe34 1.935 . S
O41 C53 1.421 . S
O42 Fe38 2.077 . S
O42 C58 1.381 . S
O43 Fe33 1.935 . S
O43 C58 1.421 . S
O44 Fe33 2.077 . S
O44 C48 1.381 . S
O45 Fe31 1.935 . S
O45 C48 1.421 . S
O46 Fe34 2.077 . S
O46 C54 1.381 . S
O47 Fe38 1.935 . S
O47 C54 1.421 . S
C48 O44 1.381 . S
C48 O45 1.421 . S
O49 Fe38 2.077 . S
O49 C61 1.381 . S
O50 Fe33 1.935 . S
O50 C61 1.421 . S
O51 Fe31 2.077 . S
O51 C39 1.381 . S
O52 Fe34 1.935 . S
O52 C39 1.421 . S
C53 O40 1.381 . S
C53 O41 1.421 . S
C54 O46 1.381 . S
C54 O47 1.421 . S
C55 O56 1.381 . S
C55 O57 1.421 . S
O56 Fe34 2.077 . S
O56 C55 1.381 . S
O57 Fe38 1.935 . S
O57 C55 1.421 . S
C58 O42 1.381 . S
C58 O43 1.421 . S
O59 Fe33 2.077 . S
O59 C62 1.381 . S
O60 Fe31 1.935 . S
O60 C62 1.421 . S
C61 O49 1.381 . S
C61 O50 1.421 . S
C62 O59 1.381 . S
C62 O60 1.421 . S
H63 C71 0.929 . S
H64 C73 0.930 . S
H65 C75 0.930 . S
H66 C78 0.929 . S
H67 C81 0.930 . S
H68 C83 0.960 . S
H69 C83 0.960 . S
H70 C83 0.960 . S
C71 H63 0.929 . S
C71 C72 1.377 . S
C71 C73 1.384 . S
C72 C71 1.377 . S
C72 C78 1.390 . S
C73 H64 0.930 . S
C73 C71 1.384 . S
C73 C74 1.372 . S
C74 C73 1.372 . S
C74 C75 1.400 . S
C74 C79 1.490 . S
C75 H65 0.930 . S
C75 C74 1.400 . S
C75 C78 1.386 . S
H76 C92 0.930 . S
H77 C93 0.931 . S
C78 H66 0.929 . S
C78 C72 1.390 . S
C78 C75 1.386 . S
C79 C74 1.490 . S
C79 C81 1.395 . S
C79 C82 1.403 . S
H80 C86 0.930 . S
C81 H67 0.930 . S
C81 C79 1.395 . S
C81 C84 1.403 . S
C82 C79 1.403 . S
C82 C83 1.524 . S
C82 C86 1.400 . S
C83 H68 0.960 . S
C83 H69 0.960 . S
C83 H70 0.960 . S
C83 C82 1.524 . S
C84 C81 1.403 . S
C84 C85 1.392 . S
C84 C88 1.495 . S
C85 C84 1.392 . S
C85 C86 1.385 . S
C85 C87 1.478 . S
C86 H80 0.930 . S
C86 C82 1.400 . S
C86 C85 1.385 . S
C87 C85 1.478 . S
C87 C89 1.381 . S
C87 C93 1.383 . S
C88 C84 1.495 . S
C88 H94 0.959 . S
C88 H95 0.961 . S
C88 H96 0.960 . S
C89 C87 1.381 . S
C89 C90 1.394 . S
C89 H97 0.930 . S
C90 C89 1.394 . S
C90 C91 1.383 . S
C90 H98 0.929 . S
C91 C90 1.383 . S
C91 C92 1.377 . S
C92 H76 0.930 . S
C92 C91 1.377 . S
C92 C93 1.379 . S
C93 H77 0.931 . S
C93 C87 1.383 . S
C93 C92 1.379 . S
H94 C88 0.959 . S
H95 C88 0.961 . S
H96 C88 0.960 . S
H97 C89 0.930 . S
H98 C90 0.929 . S
H99 C107 0.929 . S
H100 C109 0.930 . S
H101 C111 0.930 . S
H102 C114 0.929 . S
H103 C117 0.930 . S
H104 C119 0.960 . S
H105 C119 0.960 . S
H106 C119 0.960 . S
C107 H99 0.929 . S
C107 C108 1.377 . S
C107 C109 1.384 . S
C108 C107 1.377 . S
C108 C114 1.390 . S
C109 H100 0.930 . S
C109 C107 1.384 . S
C109 C110 1.372 . S
C110 C109 1.372 . S
C110 C111 1.400 . S
C110 C115 1.490 . S
C111 H101 0.930 . S
C111 C110 1.400 . S
C111 C114 1.386 . S
H112 C128 0.930 . S
H113 C129 0.931 . S
C114 H102 0.929 . S
C114 C108 1.390 . S
C114 C111 1.386 . S
C115 C110 1.490 . S
C115 C117 1.395 . S
C115 C118 1.403 . S
H116 C122 0.930 . S
C117 H103 0.930 . S
C117 C115 1.395 . S
C117 C120 1.403 . S
C118 C115 1.403 . S
C118 C119 1.524 . S
C118 C122 1.400 . S
C119 H104 0.960 . S
C119 H105 0.960 . S
C119 H106 0.960 . S
C119 C118 1.524 . S
C120 C117 1.403 . S
C120 C121 1.392 . S
C120 C124 1.495 . S
C121 C120 1.392 . S
C121 C122 1.385 . S
C121 C123 1.478 . S
C122 H116 0.930 . S
C122 C118 1.400 . S
C122 C121 1.385 . S
C123 C121 1.478 . S
C123 C125 1.381 . S
C123 C129 1.383 . S
C124 C120 1.495 . S
C124 H130 0.959 . S
C124 H131 0.961 . S
C124 H132 0.960 . S
C125 C123 1.381 . S
C125 C126 1.394 . S
C125 H133 0.930 . S
C126 C125 1.394 . S
C126 C127 1.383 . S
C126 H134 0.929 . S
C127 C126 1.383 . S
C127 C128 1.377 . S
C128 H112 0.930 . S
C128 C127 1.377 . S
C128 C129 1.379 . S
C129 H113 0.931 . S
C129 C123 1.383 . S
C129 C128 1.379 . S
H130 C124 0.959 . S
H131 C124 0.961 . S
H132 C124 0.960 . S
H133 C125 0.930 . S
H134 C126 0.929 . S
H135 C143 0.929 . S
H136 C145 0.930 . S
H137 C147 0.930 . S
H138 C150 0.929 . S
H139 C153 0.930 . S
H140 C155 0.960 . S
H141 C155 0.960 . S
H142 C155 0.960 . S
C143 H135 0.929 . S
C143 C144 1.377 . S
C143 C145 1.384 . S
C144 C143 1.377 . S
C144 C150 1.390 . S
C145 H136 0.930 . S
C145 C143 1.384 . S
C145 C146 1.372 . S
C146 C145 1.372 . S
C146 C147 1.400 . S
C146 C151 1.490 . S
C147 H137 0.930 . S
C147 C146 1.400 . S
C147 C150 1.386 . S
H148 C164 0.930 . S
H149 C165 0.931 . S
C150 H138 0.929 . S
C150 C144 1.390 . S
C150 C147 1.386 . S
C151 C146 1.490 . S
C151 C153 1.395 . S
C151 C154 1.403 . S
H152 C158 0.930 . S
C153 H139 0.930 . S
C153 C151 1.395 . S
C153 C156 1.403 . S
C154 C151 1.403 . S
C154 C155 1.524 . S
C154 C158 1.400 . S
C155 H140 0.960 . S
C155 H141 0.960 . S
C155 H142 0.960 . S
C155 C154 1.524 . S
C156 C153 1.403 . S
C156 C157 1.392 . S
C156 C160 1.495 . S
C157 C156 1.392 . S
C157 C158 1.385 . S
C157 C159 1.478 . S
C158 H152 0.930 . S
C158 C154 1.400 . S
C158 C157 1.385 . S
C159 C157 1.478 . S
C159 C161 1.381 . S
C159 C165 1.383 . S
C160 C156 1.495 . S
C160 H166 0.959 . S
C160 H167 0.961 . S
C160 H168 0.960 . S
C161 C159 1.381 . S
C161 C162 1.394 . S
C161 H169 0.930 . S
C162 C161 1.394 . S
C162 C163 1.383 . S
C162 H170 0.929 . S
C163 C162 1.383 . S
C163 C164 1.377 . S
C164 H148 0.930 . S
C164 C163 1.377 . S
C164 C165 1.379 . S
C165 H149 0.931 . S
C165 C159 1.383 . S
C165 C164 1.379 . S
H166 C160 0.959 . S
H167 C160 0.961 . S
H168 C160 0.960 . S
H169 C161 0.930 . S
H170 C162 0.929 . S
H171 C179 0.929 . S
H172 C181 0.930 . S
H173 C183 0.930 . S
H174 C186 0.929 . S
H175 C189 0.930 . S
H176 C191 0.960 . S
H177 C191 0.960 . S
H178 C191 0.960 . S
C179 H171 0.929 . S
C179 C180 1.377 . S
C179 C181 1.384 . S
C180 C179 1.377 . S
C180 C186 1.390 . S
C181 H172 0.930 . S
C181 C179 1.384 . S
C181 C182 1.372 . S
C182 C181 1.372 . S
C182 C183 1.400 . S
C182 C187 1.490 . S
C183 H173 0.930 . S
C183 C182 1.400 . S
C183 C186 1.386 . S
H184 C200 0.930 . S
H185 C201 0.931 . S
C186 H174 0.929 . S
C186 C180 1.390 . S
C186 C183 1.386 . S
C187 C182 1.490 . S
C187 C189 1.395 . S
C187 C190 1.403 . S
H188 C194 0.930 . S
C189 H175 0.930 . S
C189 C187 1.395 . S
C189 C192 1.403 . S
C190 C187 1.403 . S
C190 C191 1.524 . S
C190 C194 1.400 . S
C191 H176 0.960 . S
C191 H177 0.960 . S
C191 H178 0.960 . S
C191 C190 1.524 . S
C192 C189 1.403 . S
C192 C193 1.392 . S
C192 C196 1.495 . S
C193 C192 1.392 . S
C193 C194 1.385 . S
C193 C195 1.478 . S
C194 H188 0.930 . S
C194 C190 1.400 . S
C194 C193 1.385 . S
C195 C193 1.478 . S
C195 C197 1.381 . S
C195 C201 1.383 . S
C196 C192 1.495 . S
C196 H202 0.959 . S
C196 H203 0.961 . S
C196 H204 0.960 . S
C197 C195 1.381 . S
C197 C198 1.394 . S
C197 H205 0.930 . S
C198 C197 1.394 . S
C198 C199 1.383 . S
C198 H206 0.929 . S
C199 C198 1.383 . S
C199 C200 1.377 . S
C200 H184 0.930 . S
C200 C199 1.377 . S
C200 C201 1.379 . S
C201 H185 0.931 . S
C201 C195 1.383 . S
C201 C200 1.379 . S
H202 C196 0.959 . S
H203 C196 0.961 . S
H204 C196 0.960 . S
H205 C197 0.930 . S
H206 C198 0.929 . S
H207 C215 0.929 . S
H208 C217 0.930 . S
H209 C219 0.930 . S
H210 C222 0.929 . S
H211 C225 0.930 . S
H212 C227 0.960 . S
H213 C227 0.960 . S
H214 C227 0.960 . S
C215 H207 0.929 . S
C215 C216 1.377 . S
C215 C217 1.384 . S
C216 C215 1.377 . S
C216 C222 1.390 . S
C217 H208 0.930 . S
C217 C215 1.384 . S
C217 C218 1.372 . S
C218 C217 1.372 . S
C218 C219 1.400 . S
C218 C223 1.490 . S
C219 H209 0.930 . S
C219 C218 1.400 . S
C219 C222 1.386 . S
H220 C236 0.930 . S
H221 C237 0.931 . S
C222 H210 0.929 . S
C222 C216 1.390 . S
C222 C219 1.386 . S
C223 C218 1.490 . S
C223 C225 1.395 . S
C223 C226 1.403 . S
H224 C230 0.930 . S
C225 H211 0.930 . S
C225 C223 1.395 . S
C225 C228 1.403 . S
C226 C223 1.403 . S
C226 C227 1.524 . S
C226 C230 1.400 . S
C227 H212 0.960 . S
C227 H213 0.960 . S
C227 H214 0.960 . S
C227 C226 1.524 . S
C228 C225 1.403 . S
C228 C229 1.392 . S
C228 C232 1.495 . S
C229 C228 1.392 . S
C229 C230 1.385 . S
C229 C231 1.478 . S
C230 H224 0.930 . S
C230 C226 1.400 . S
C230 C229 1.385 . S
C231 C229 1.478 . S
C231 C233 1.381 . S
C231 C237 1.383 . S
C232 C228 1.495 . S
C232 H238 0.959 . S
C232 H239 0.961 . S
C232 H240 0.960 . S
C233 C231 1.381 . S
C233 C234 1.394 . S
C233 H241 0.930 . S
C234 C233 1.394 . S
C234 C235 1.383 . S
C234 H242 0.929 . S
C235 C234 1.383 . S
C235 C236 1.377 . S
C236 H220 0.930 . S
C236 C235 1.377 . S
C236 C237 1.379 . S
C237 H221 0.931 . S
C237 C231 1.383 . S
C237 C236 1.379 . S
H238 C232 0.959 . S
H239 C232 0.961 . S
H240 C232 0.960 . S
H241 C233 0.930 . S
H242 C234 0.929 . S
H243 C251 0.929 . S
H244 C253 0.930 . S
H245 C255 0.930 . S
H246 C258 0.929 . S
H247 C261 0.930 . S
H248 C263 0.960 . S
H249 C263 0.960 . S
H250 C263 0.960 . S
C251 H243 0.929 . S
C251 C252 1.377 . S
C251 C253 1.384 . S
C252 C251 1.377 . S
C252 C258 1.390 . S
C253 H244 0.930 . S
C253 C251 1.384 . S
C253 C254 1.372 . S
C254 C253 1.372 . S
C254 C255 1.400 . S
C254 C259 1.490 . S
C255 H245 0.930 . S
C255 C254 1.400 . S
C255 C258 1.386 . S
H256 C272 0.930 . S
H257 C273 0.931 . S
C258 H246 0.929 . S
C258 C252 1.390 . S
C258 C255 1.386 . S
C259 C254 1.490 . S
C259 C261 1.395 . S
C259 C262 1.403 . S
H260 C266 0.930 . S
C261 H247 0.930 . S
C261 C259 1.395 . S
C261 C264 1.403 . S
C262 C259 1.403 . S
C262 C263 1.524 . S
C262 C266 1.400 . S
C263 H248 0.960 . S
C263 H249 0.960 . S
C263 H250 0.960 . S
C263 C262 1.524 . S
C264 C261 1.403 . S
C264 C265 1.392 . S
C264 C268 1.495 . S
C265 C264 1.392 . S
C265 C266 1.385 . S
C265 C267 1.478 . S
C266 H260 0.930 . S
C266 C262 1.400 . S
C266 C265 1.385 . S
C267 C265 1.478 . S
C267 C269 1.381 . S
C267 C273 1.383 . S
C268 C264 1.495 . S
C268 H274 0.959 . S
C268 H275 0.961 . S
C268 H276 0.960 . S
C269 C267 1.381 . S
C269 C270 1.394 . S
C269 H277 0.930 . S
C270 C269 1.394 . S
C270 C271 1.383 . S
C270 H278 0.929 . S
C271 C270 1.383 . S
C271 C272 1.377 . S
C272 H256 0.930 . S
C272 C271 1.377 . S
C272 C273 1.379 . S
C273 H257 0.931 . S
C273 C267 1.383 . S
C273 C272 1.379 . S
H274 C268 0.959 . S
H275 C268 0.961 . S
H276 C268 0.960 . S
H277 C269 0.930 . S
H278 C270 0.929 . S
H279 C287 0.929 . S
H280 C289 0.930 . S
H281 C291 0.930 . S
H282 C294 0.929 . S
H283 C297 0.930 . S
H284 C299 0.960 . S
H285 C299 0.960 . S
H286 C299 0.960 . S
C287 H279 0.929 . S
C287 C288 1.377 . S
C287 C289 1.384 . S
C288 C287 1.377 . S
C288 C294 1.390 . S
C289 H280 0.930 . S
C289 C287 1.384 . S
C289 C290 1.372 . S
C290 C289 1.372 . S
C290 C291 1.400 . S
C290 C295 1.490 . S
C291 H281 0.930 . S
C291 C290 1.400 . S
C291 C294 1.386 . S
H292 C308 0.930 . S
H293 C309 0.931 . S
C294 H282 0.929 . S
C294 C288 1.390 . S
C294 C291 1.386 . S
C295 C290 1.490 . S
C295 C297 1.395 . S
C295 C298 1.403 . S
H296 C302 0.930 . S
C297 H283 0.930 . S
C297 C295 1.395 . S
C297 C300 1.403 . S
C298 C295 1.403 . S
C298 C299 1.524 . S
C298 C302 1.400 . S
C299 H284 0.960 . S
C299 H285 0.960 . S
C299 H286 0.960 . S
C299 C298 1.524 . S
C300 C297 1.403 . S
C300 C301 1.392 . S
C300 C304 1.495 . S
C301 C300 1.392 . S
C301 C302 1.385 . S
C301 C303 1.478 . S
C302 H296 0.930 . S
C302 C298 1.400 . S
C302 C301 1.385 . S
C303 C301 1.478 . S
C303 C305 1.381 . S
C303 C309 1.383 . S
C304 C300 1.495 . S
C304 H310 0.959 . S
C304 H311 0.961 . S
C304 H312 0.960 . S
C305 C303 1.381 . S
C305 C306 1.394 . S
C305 H313 0.930 . S
C306 C305 1.394 . S
C306 C307 1.383 . S
C306 H314 0.929 . S
C307 C306 1.383 . S
C307 C308 1.377 . S
C308 H292 0.930 . S
C308 C307 1.377 . S
C308 C309 1.379 . S
C309 H293 0.931 . S
C309 C303 1.383 . S
C309 C308 1.379 . S
H310 C304 0.959 . S
H311 C304 0.961 . S
H312 C304 0.960 . S
H313 C305 0.930 . S
H314 C306 0.929 . S
H315 C323 0.929 . S
H316 C325 0.930 . S
H317 C327 0.930 . S
H318 C330 0.929 . S
H319 C333 0.930 . S
H320 C335 0.960 . S
H321 C335 0.960 . S
H322 C335 0.960 . S
C323 H315 0.929 . S
C323 C324 1.377 . S
C323 C325 1.384 . S
C324 C323 1.377 . S
C324 C330 1.390 . S
C325 H316 0.930 . S
C325 C323 1.384 . S
C325 C326 1.372 . S
C326 C325 1.372 . S
C326 C327 1.400 . S
C326 C331 1.490 . S
C327 H317 0.930 . S
C327 C326 1.400 . S
C327 C330 1.386 . S
H328 C344 0.930 . S
H329 C345 0.931 . S
C330 H318 0.929 . S
C330 C324 1.390 . S
C330 C327 1.386 . S
C331 C326 1.490 . S
C331 C333 1.395 . S
C331 C334 1.403 . S
H332 C338 0.930 . S
C333 H319 0.930 . S
C333 C331 1.395 . S
C333 C336 1.403 . S
C334 C331 1.403 . S
C334 C335 1.524 . S
C334 C338 1.400 . S
C335 H320 0.960 . S
C335 H321 0.960 . S
C335 H322 0.960 . S
C335 C334 1.524 . S
C336 C333 1.403 . S
C336 C337 1.392 . S
C336 C340 1.495 . S
C337 C336 1.392 . S
C337 C338 1.385 . S
C337 C339 1.478 . S
C338 H332 0.930 . S
C338 C334 1.400 . S
C338 C337 1.385 . S
C339 C337 1.478 . S
C339 C341 1.381 . S
C339 C345 1.383 . S
C340 C336 1.495 . S
C340 H346 0.959 . S
C340 H347 0.961 . S
C340 H348 0.960 . S
C341 C339 1.381 . S
C341 C342 1.394 . S
C341 H349 0.930 . S
C342 C341 1.394 . S
C342 C343 1.383 . S
C342 H350 0.929 . S
C343 C342 1.383 . S
C343 C344 1.377 . S
C344 H328 0.930 . S
C344 C343 1.377 . S
C344 C345 1.379 . S
C345 H329 0.931 . S
C345 C339 1.383 . S
C345 C344 1.379 . S
H346 C340 0.959 . S
H347 C340 0.961 . S
H348 C340 0.960 . S
H349 C341 0.930 . S
H350 C342 0.929 . S
C72 C0 1.306 . S
C91 C54 1.301 . S
C108 C29 1.645 . S
C127 C58 1.605 . S
C144 C30 1.271 . S
C163 C48 1.253 . S
C180 C1 1.569 . S
C199 C53 1.552 . S
C216 C2 1.638 . S
C235 C39 1.610 . S
C271 C55 1.324 . S
C252 C19 1.295 . S
C288 C20 1.576 . S
C307 C61 1.550 . S
C343 C62 1.298 . S
C324 C10 1.279 . S
