# Generated by pormake.
# Topology gar, (4,6)-cn, num edge types: 1
# Building blocks:
#     Node 0, Type 0, BuildingBlock: GALJAG_clean_sbu_0, # of connection points: 4
#     Node 1, Type 0, BuildingBlock: GALJAG_clean_sbu_0, # of connection points: 4
#     Node 2, Type 0, BuildingBlock: GALJAG_clean_sbu_0, # of connection points: 4
#     Node 3, Type 0, BuildingBlock: GALJAG_clean_sbu_0, # of connection points: 4
#     Node 4, Type 0, BuildingBlock: GALJAG_clean_sbu_0, # of connection points: 4
#     Node 5, Type 0, BuildingBlock: GALJAG_clean_sbu_0, # of connection points: 4
#     Node 6, Type 0, BuildingBlock: GALJAG_clean_sbu_0, # of connection points: 4
#     Node 7, Type 0, BuildingBlock: GALJAG_clean_sbu_0, # of connection points: 4
#     Node 8, Type 0, BuildingBlock: GALJAG_clean_sbu_0, # of connection points: 4
#     Node 9, Type 0, BuildingBlock: GALJAG_clean_sbu_0, # of connection points: 4
#     Node 10, Type 0, BuildingBlock: GALJAG_clean_sbu_0, # of connection points: 4
#     Node 11, Type 0, BuildingBlock: GALJAG_clean_sbu_0, # of connection points: 4
#     Node 12, Type 0, BuildingBlock: GALJAG_clean_sbu_0, # of connection points: 4
#     Node 13, Type 0, BuildingBlock: GALJAG_clean_sbu_0, # of connection points: 4
#     Node 14, Type 0, BuildingBlock: GALJAG_clean_sbu_0, # of connection points: 4
#     Node 15, Type 0, BuildingBlock: GALJAG_clean_sbu_0, # of connection points: 4
#     Node 16, Type 0, BuildingBlock: GALJAG_clean_sbu_0, # of connection points: 4
#     Node 17, Type 0, BuildingBlock: GALJAG_clean_sbu_0, # of connection points: 4
#     Node 18, Type 0, BuildingBlock: GALJAG_clean_sbu_0, # of connection points: 4
#     Node 19, Type 0, BuildingBlock: GALJAG_clean_sbu_0, # of connection points: 4
#     Node 20, Type 0, BuildingBlock: GALJAG_clean_sbu_0, # of connection points: 4
#     Node 21, Type 0, BuildingBlock: GALJAG_clean_sbu_0, # of connection points: 4
#     Node 22, Type 0, BuildingBlock: GALJAG_clean_sbu_0, # of connection points: 4
#     Node 23, Type 0, BuildingBlock: GALJAG_clean_sbu_0, # of connection points: 4
#     Node 24, Type 1, BuildingBlock: PAMTUU_clean_sbu_0, # of connection points: 6
#     Node 25, Type 1, BuildingBlock: PAMTUU_clean_sbu_0, # of connection points: 6
#     Node 26, Type 1, BuildingBlock: PAMTUU_clean_sbu_0, # of connection points: 6
#     Node 27, Type 1, BuildingBlock: PAMTUU_clean_sbu_0, # of connection points: 6
#     Node 28, Type 1, BuildingBlock: PAMTUU_clean_sbu_0, # of connection points: 6
#     Node 29, Type 1, BuildingBlock: PAMTUU_clean_sbu_0, # of connection points: 6
#     Node 30, Type 1, BuildingBlock: PAMTUU_clean_sbu_0, # of connection points: 6
#     Node 31, Type 1, BuildingBlock: PAMTUU_clean_sbu_0, # of connection points: 6
#     Node 32, Type 1, BuildingBlock: PAMTUU_clean_sbu_0, # of connection points: 6
#     Node 33, Type 1, BuildingBlock: PAMTUU_clean_sbu_0, # of connection points: 6
#     Node 34, Type 1, BuildingBlock: PAMTUU_clean_sbu_0, # of connection points: 6
#     Node 35, Type 1, BuildingBlock: PAMTUU_clean_sbu_0, # of connection points: 6
#     Node 36, Type 1, BuildingBlock: PAMTUU_clean_sbu_0, # of connection points: 6
#     Node 37, Type 1, BuildingBlock: PAMTUU_clean_sbu_0, # of connection points: 6
#     Node 38, Type 1, BuildingBlock: PAMTUU_clean_sbu_0, # of connection points: 6
#     Node 39, Type 1, BuildingBlock: PAMTUU_clean_sbu_0, # of connection points: 6
#     Edge 40, Type (0, 1), BuildingBlock: OJICUG_clean_linker_0, # of connection points: 2
#     Edge 41, Type (0, 1), BuildingBlock: OJICUG_clean_linker_0, # of connection points: 2
#     Edge 42, Type (0, 1), BuildingBlock: OJICUG_clean_linker_0, # of connection points: 2
#     Edge 43, Type (0, 1), BuildingBlock: OJICUG_clean_linker_0, # of connection points: 2
#     Edge 44, Type (0, 1), BuildingBlock: OJICUG_clean_linker_0, # of connection points: 2
#     Edge 45, Type (0, 1), BuildingBlock: OJICUG_clean_linker_0, # of connection points: 2
#     Edge 46, Type (0, 1), BuildingBlock: OJICUG_clean_linker_0, # of connection points: 2
#     Edge 47, Type (0, 1), BuildingBlock: OJICUG_clean_linker_0, # of connection points: 2
#     Edge 48, Type (0, 1), BuildingBlock: OJICUG_clean_linker_0, # of connection points: 2
#     Edge 49, Type (0, 1), BuildingBlock: OJICUG_clean_linker_0, # of connection points: 2
#     Edge 50, Type (0, 1), BuildingBlock: OJICUG_clean_linker_0, # of connection points: 2
#     Edge 51, Type (0, 1), BuildingBlock: OJICUG_clean_linker_0, # of connection points: 2
#     Edge 52, Type (0, 1), BuildingBlock: OJICUG_clean_linker_0, # of connection points: 2
#     Edge 53, Type (0, 1), BuildingBlock: OJICUG_clean_linker_0, # of connection points: 2
#     Edge 54, Type (0, 1), BuildingBlock: OJICUG_clean_linker_0, # of connection points: 2
#     Edge 55, Type (0, 1), BuildingBlock: OJICUG_clean_linker_0, # of connection points: 2
#     Edge 56, Type (0, 1), BuildingBlock: OJICUG_clean_linker_0, # of connection points: 2
#     Edge 57, Type (0, 1), BuildingBlock: OJICUG_clean_linker_0, # of connection points: 2
#     Edge 58, Type (0, 1), BuildingBlock: OJICUG_clean_linker_0, # of connection points: 2
#     Edge 59, Type (0, 1), BuildingBlock: OJICUG_clean_linker_0, # of connection points: 2
#     Edge 60, Type (0, 1), BuildingBlock: OJICUG_clean_linker_0, # of connection points: 2
#     Edge 61, Type (0, 1), BuildingBlock: OJICUG_clean_linker_0, # of connection points: 2
#     Edge 62, Type (0, 1), BuildingBlock: OJICUG_clean_linker_0, # of connection points: 2
#     Edge 63, Type (0, 1), BuildingBlock: OJICUG_clean_linker_0, # of connection points: 2
#     Edge 64, Type (0, 1), BuildingBlock: OJICUG_clean_linker_0, # of connection points: 2
#     Edge 65, Type (0, 1), BuildingBlock: OJICUG_clean_linker_0, # of connection points: 2
#     Edge 66, Type (0, 1), BuildingBlock: OJICUG_clean_linker_0, # of connection points: 2
#     Edge 67, Type (0, 1), BuildingBlock: OJICUG_clean_linker_0, # of connection points: 2
#     Edge 68, Type (0, 1), BuildingBlock: OJICUG_clean_linker_0, # of connection points: 2
#     Edge 69, Type (0, 1), BuildingBlock: OJICUG_clean_linker_0, # of connection points: 2
#     Edge 70, Type (0, 1), BuildingBlock: OJICUG_clean_linker_0, # of connection points: 2
#     Edge 71, Type (0, 1), BuildingBlock: OJICUG_clean_linker_0, # of connection points: 2
#     Edge 72, Type (0, 1), BuildingBlock: OJICUG_clean_linker_0, # of connection points: 2
#     Edge 73, Type (0, 1), BuildingBlock: OJICUG_clean_linker_0, # of connection points: 2
#     Edge 74, Type (0, 1), BuildingBlock: OJICUG_clean_linker_0, # of connection points: 2
#     Edge 75, Type (0, 1), BuildingBlock: OJICUG_clean_linker_0, # of connection points: 2
#     Edge 76, Type (0, 1), BuildingBlock: OJICUG_clean_linker_0, # of connection points: 2
#     Edge 77, Type (0, 1), BuildingBlock: OJICUG_clean_linker_0, # of connection points: 2
#     Edge 78, Type (0, 1), BuildingBlock: OJICUG_clean_linker_0, # of connection points: 2
#     Edge 79, Type (0, 1), BuildingBlock: OJICUG_clean_linker_0, # of connection points: 2
#     Edge 80, Type (0, 1), BuildingBlock: OJICUG_clean_linker_0, # of connection points: 2
#     Edge 81, Type (0, 1), BuildingBlock: OJICUG_clean_linker_0, # of connection points: 2
#     Edge 82, Type (0, 1), BuildingBlock: OJICUG_clean_linker_0, # of connection points: 2
#     Edge 83, Type (0, 1), BuildingBlock: OJICUG_clean_linker_0, # of connection points: 2
#     Edge 84, Type (0, 1), BuildingBlock: OJICUG_clean_linker_0, # of connection points: 2
#     Edge 85, Type (0, 1), BuildingBlock: OJICUG_clean_linker_0, # of connection points: 2
#     Edge 86, Type (0, 1), BuildingBlock: OJICUG_clean_linker_0, # of connection points: 2
#     Edge 87, Type (0, 1), BuildingBlock: OJICUG_clean_linker_0, # of connection points: 2
#     Edge 88, Type (0, 1), BuildingBlock: OJICUG_clean_linker_0, # of connection points: 2
#     Edge 89, Type (0, 1), BuildingBlock: OJICUG_clean_linker_0, # of connection points: 2
#     Edge 90, Type (0, 1), BuildingBlock: OJICUG_clean_linker_0, # of connection points: 2
#     Edge 91, Type (0, 1), BuildingBlock: OJICUG_clean_linker_0, # of connection points: 2
#     Edge 92, Type (0, 1), BuildingBlock: OJICUG_clean_linker_0, # of connection points: 2
#     Edge 93, Type (0, 1), BuildingBlock: OJICUG_clean_linker_0, # of connection points: 2
#     Edge 94, Type (0, 1), BuildingBlock: OJICUG_clean_linker_0, # of connection points: 2
#     Edge 95, Type (0, 1), BuildingBlock: OJICUG_clean_linker_0, # of connection points: 2
#     Edge 96, Type (0, 1), BuildingBlock: OJICUG_clean_linker_0, # of connection points: 2
#     Edge 97, Type (0, 1), BuildingBlock: OJICUG_clean_linker_0, # of connection points: 2
#     Edge 98, Type (0, 1), BuildingBlock: OJICUG_clean_linker_0, # of connection points: 2
#     Edge 99, Type (0, 1), BuildingBlock: OJICUG_clean_linker_0, # of connection points: 2
#     Edge 100, Type (0, 1), BuildingBlock: OJICUG_clean_linker_0, # of connection points: 2
#     Edge 101, Type (0, 1), BuildingBlock: OJICUG_clean_linker_0, # of connection points: 2
#     Edge 102, Type (0, 1), BuildingBlock: OJICUG_clean_linker_0, # of connection points: 2
#     Edge 103, Type (0, 1), BuildingBlock: OJICUG_clean_linker_0, # of connection points: 2
#     Edge 104, Type (0, 1), BuildingBlock: OJICUG_clean_linker_0, # of connection points: 2
#     Edge 105, Type (0, 1), BuildingBlock: OJICUG_clean_linker_0, # of connection points: 2
#     Edge 106, Type (0, 1), BuildingBlock: OJICUG_clean_linker_0, # of connection points: 2
#     Edge 107, Type (0, 1), BuildingBlock: OJICUG_clean_linker_0, # of connection points: 2
#     Edge 108, Type (0, 1), BuildingBlock: OJICUG_clean_linker_0, # of connection points: 2
#     Edge 109, Type (0, 1), BuildingBlock: OJICUG_clean_linker_0, # of connection points: 2
#     Edge 110, Type (0, 1), BuildingBlock: OJICUG_clean_linker_0, # of connection points: 2
#     Edge 111, Type (0, 1), BuildingBlock: OJICUG_clean_linker_0, # of connection points: 2
#     Edge 112, Type (0, 1), BuildingBlock: OJICUG_clean_linker_0, # of connection points: 2
#     Edge 113, Type (0, 1), BuildingBlock: OJICUG_clean_linker_0, # of connection points: 2
#     Edge 114, Type (0, 1), BuildingBlock: OJICUG_clean_linker_0, # of connection points: 2
#     Edge 115, Type (0, 1), BuildingBlock: OJICUG_clean_linker_0, # of connection points: 2
#     Edge 116, Type (0, 1), BuildingBlock: OJICUG_clean_linker_0, # of connection points: 2
#     Edge 117, Type (0, 1), BuildingBlock: OJICUG_clean_linker_0, # of connection points: 2
#     Edge 118, Type (0, 1), BuildingBlock: OJICUG_clean_linker_0, # of connection points: 2
#     Edge 119, Type (0, 1), BuildingBlock: OJICUG_clean_linker_0, # of connection points: 2
#     Edge 120, Type (0, 1), BuildingBlock: OJICUG_clean_linker_0, # of connection points: 2
#     Edge 121, Type (0, 1), BuildingBlock: OJICUG_clean_linker_0, # of connection points: 2
#     Edge 122, Type (0, 1), BuildingBlock: OJICUG_clean_linker_0, # of connection points: 2
#     Edge 123, Type (0, 1), BuildingBlock: OJICUG_clean_linker_0, # of connection points: 2
#     Edge 124, Type (0, 1), BuildingBlock: OJICUG_clean_linker_0, # of connection points: 2
#     Edge 125, Type (0, 1), BuildingBlock: OJICUG_clean_linker_0, # of connection points: 2
#     Edge 126, Type (0, 1), BuildingBlock: OJICUG_clean_linker_0, # of connection points: 2
#     Edge 127, Type (0, 1), BuildingBlock: OJICUG_clean_linker_0, # of connection points: 2
#     Edge 128, Type (0, 1), BuildingBlock: OJICUG_clean_linker_0, # of connection points: 2
#     Edge 129, Type (0, 1), BuildingBlock: OJICUG_clean_linker_0, # of connection points: 2
#     Edge 130, Type (0, 1), BuildingBlock: OJICUG_clean_linker_0, # of connection points: 2
#     Edge 131, Type (0, 1), BuildingBlock: OJICUG_clean_linker_0, # of connection points: 2
#     Edge 132, Type (0, 1), BuildingBlock: OJICUG_clean_linker_0, # of connection points: 2
#     Edge 133, Type (0, 1), BuildingBlock: OJICUG_clean_linker_0, # of connection points: 2
#     Edge 134, Type (0, 1), BuildingBlock: OJICUG_clean_linker_0, # of connection points: 2
#     Edge 135, Type (0, 1), BuildingBlock: OJICUG_clean_linker_0, # of connection points: 2
# Relax obj value: 0.240
# Max RMSD: 0.376
# Mean RMSD: 0.189
data_MOF--net-gar--node1-GALJAG_clean_sbu_0--node2-PAMTUU_clean_sbu_0--edge1-OJICUG_clean_linker_0
_symmetry_space_group_name_H-M    P1
_symmetry_Int_Tables_number       1
_symmetry_cell_setting            triclinic
loop_
_symmetry_equiv_pos_as_xyz
'x, y, z'
_cell_length_a     45.41074
_cell_length_b     41.92574
_cell_length_c     45.138526
_cell_angle_alpha  93.706805
_cell_angle_beta   94.697393
_cell_angle_gamma 107.92479
loop_
_atom_site_label
_atom_site_type_symbol
_atom_site_fract_x
_atom_site_fract_y
_atom_site_fract_z
_atom_type_partial_charge
In0 In 0.08539 0.30817 0.41695 0.0
O1 O 0.11692 0.29421 0.37619 0.0
O2 O 0.14321 0.32886 0.40928 0.0
C3 C 1.02186 0.30454 0.38485 0.0
C4 C 0.08107 0.24711 0.45188 0.0
C5 C 0.09018 0.37297 0.45238 0.0
O6 O 0.04856 0.32035 0.37732 0.0
O7 O 1.02679 0.28847 0.40672 0.0
O8 O 0.08512 0.34441 0.46267 0.0
O9 O 0.09482 0.36957 0.42517 0.0
C10 C 0.14497 0.31223 0.38511 0.0
O11 O 0.08927 0.27783 0.46274 0.0
O12 O 0.07462 0.24677 0.42379 0.0
In13 In 0.07375 0.81839 0.69343 0.0
O14 O 0.07047 0.84895 0.64773 0.0
O15 O 0.08486 0.87981 0.68682 0.0
C16 C 0.06959 0.75355 0.65822 0.0
C17 C 0.13725 0.82264 0.72575 0.0
C18 C 1.0139 0.8141 0.72496 0.0
O19 O 0.07 0.7809 0.64717 0.0
O20 O 0.06933 0.75809 0.68627 0.0
O21 O 1.01611 0.79617 0.70177 0.0
O22 O 0.04165 0.83342 0.73315 0.0
C23 C 0.07859 0.8796 0.65874 0.0
O24 O 0.13235 0.83733 0.7029 0.0
O25 O 0.11059 0.80799 0.73401 0.0
In26 In 0.58409 0.80613 0.91789 0.0
O27 O 0.61613 0.7923 0.87758 0.0
O28 O 0.64202 0.82697 0.91086 0.0
C29 C 0.52061 0.80287 0.88594 0.0
C30 C 0.57937 0.74502 0.95239 0.0
C31 C 0.58862 0.87064 0.95324 0.0
O32 O 0.54728 0.81703 0.87746 0.0
O33 O 0.52544 0.78808 0.90876 0.0
O34 O 0.5872 0.84299 0.96414 0.0
O35 O 0.58981 0.86657 0.92531 0.0
C36 C 0.6441 0.81025 0.88686 0.0
O37 O 0.58727 0.77561 0.96345 0.0
O38 O 0.57314 0.74476 0.92429 0.0
In39 In 0.57428 0.31747 0.19245 0.0
O40 O 0.5747 0.28152 0.14657 0.0
O41 O 0.56477 0.25603 0.18387 0.0
C42 C 0.57883 0.37861 0.15813 0.0
C43 C 0.51452 0.31406 0.22367 0.0
C44 C 0.63769 0.32134 0.22479 0.0
O45 O 0.58535 0.3788 0.18616 0.0
O46 O 0.57052 0.34801 0.14701 0.0
O47 O 0.6328 0.33635 0.20217 0.0
O48 O 0.61101 0.3064 0.23287 0.0
C49 C 0.56954 0.25284 0.15665 0.0
O50 O 0.54259 0.33178 0.23284 0.0
O51 O 0.51635 0.29724 0.19962 0.0
In52 In 0.13972 0.84905 0.1503 0.0
O53 O 0.14678 0.81151 0.11203 0.0
O54 O 0.11907 0.79127 0.14573 0.0
C55 C 0.13391 0.90458 0.12116 0.0
C56 C 0.09203 0.8409 0.18458 0.0
C57 C 0.19323 0.85542 0.18722 0.0
O58 O 0.1156 0.87495 0.11558 0.0
O59 O 0.15678 0.90619 0.13976 0.0
O60 O 0.16863 0.85846 0.19638 0.0
O61 O 0.19166 0.85074 0.15904 0.0
C62 C 0.13054 0.7851 0.12239 0.0
O63 O 0.11981 0.85754 0.19412 0.0
O64 O 0.08828 0.82865 0.15775 0.0
In65 In 0.52936 0.7977 0.46877 0.0
O66 O 0.54913 0.78274 0.42698 0.0
O67 O 0.58036 0.81799 0.46015 0.0
C68 C 0.47811 0.79573 0.43019 0.0
C69 C 0.53376 0.74158 0.49787 0.0
C70 C 0.5403 0.86204 0.49663 0.0
O71 O 0.50516 0.80052 0.42278 0.0
O72 O 0.47602 0.7906 0.45743 0.0
O73 O 0.51942 0.83669 0.5039 0.0
O74 O 0.55571 0.85443 0.47692 0.0
C75 C 0.57663 0.80148 0.43498 0.0
O76 O 0.54762 0.77175 0.50813 0.0
O77 O 0.51564 0.73964 0.47462 0.0
In78 In 0.63727 0.34392 0.65093 0.0
O79 O 0.65432 0.3034 0.62459 0.0
O80 O 0.60612 0.29421 0.62386 0.0
C81 C 0.63115 0.39861 0.62049 0.0
C82 C 0.59184 0.33524 0.68803 0.0
C83 C 0.68822 0.35198 0.69232 0.0
O84 O 0.65478 0.40017 0.63808 0.0
O85 O 0.61214 0.36917 0.61628 0.0
O86 O 0.6604 0.34349 0.69832 0.0
O87 O 0.69097 0.35727 0.6652 0.0
C88 C 0.62746 0.28279 0.61676 0.0
O89 O 0.60852 0.36397 0.68259 0.0
O90 O 0.59852 0.3111 0.67533 0.0
In91 In 0.03187 0.30302 0.96931 0.0
O92 O 0.04932 0.27653 0.00881 0.0
O93 O 1.01796 0.2448 0.97478 0.0
C94 C 0.04514 0.36667 0.99886 0.0
C95 C 0.07614 0.30745 0.93177 0.0
C96 C 0.98041 0.30508 0.93329 0.0
O97 O 1.01922 0.34399 0.99915 0.0
O98 O 0.06454 0.35646 0.9858 0.0
O99 O 1.00644 0.30734 0.92422 0.0
O100 O 0.97945 0.30015 0.96066 0.0
C101 C 0.03565 0.24646 0.99824 0.0
O102 O 0.04927 0.28624 0.92661 0.0
O103 O 0.08062 0.32622 0.95578 0.0
In104 In 0.49133 0.09087 0.33579 0.0
O105 O 0.53667 0.11111 0.31518 0.0
O106 O 0.52365 0.06069 0.32721 0.0
C107 C 0.51371 0.11286 0.39257 0.0
C108 C 0.45932 0.12794 0.30968 0.0
C109 C 0.4497 0.0285 0.32786 0.0
O110 O 0.52952 0.12239 0.37122 0.0
O111 O 0.48614 0.09406 0.38501 0.0
O112 O 0.45928 0.04436 0.35328 0.0
O113 O 0.46124 0.04402 0.30643 0.0
C114 C 0.5433 0.08402 0.31633 0.0
O115 O 0.47334 0.11178 0.29497 0.0
O116 O 0.46321 0.12712 0.33753 0.0
In117 In 0.31736 0.24754 0.54967 0.0
O118 O 0.30825 0.28364 0.58918 0.0
O119 O 0.3393 0.25709 0.59974 0.0
C120 C 0.32174 0.27117 0.49148 0.0
C121 C 0.35857 0.21249 0.55066 0.0
C122 C 0.25966 0.20298 0.55178 0.0
O123 O 0.33797 0.28836 0.51478 0.0
O124 O 0.30274 0.24431 0.49797 0.0
O125 O 0.28332 0.19432 0.54753 0.0
O126 O 0.26468 0.23452 0.5543 0.0
C127 C 0.3249 0.27604 0.60987 0.0
O128 O 0.32948 0.19895 0.54591 0.0
O129 O 0.36742 0.24436 0.55448 0.0
In130 In 0.18852 0.06204 0.85043 0.0
O131 O 0.1443 0.02981 0.82157 0.0
O132 O 0.14661 0.07896 0.83907 0.0
C133 C 0.17574 0.05788 0.90724 0.0
C134 C 0.2221 0.02435 0.82922 0.0
C135 C 0.22458 0.12282 0.83865 0.0
O136 O 0.16545 0.03302 0.88772 0.0
O137 O 0.19324 0.08422 0.89823 0.0
O138 O 0.23253 0.10748 0.85945 0.0
O139 O 0.19864 0.10754 0.82409 0.0
C140 C 0.1312 0.05241 0.82297 0.0
O141 O 0.2055 0.0364 0.81248 0.0
O142 O 0.22057 0.02985 0.85676 0.0
In143 In 0.32359 0.96368 0.00934 0.0
O144 O 0.3144 0.9153 0.0327 0.0
O145 O 0.33597 0.96234 0.05851 0.0
C146 C 0.30513 0.93344 0.95361 0.0
C147 C 0.29102 1.00534 0.02274 0.0
C148 C 0.38565 0.98708 0.01204 0.0
O149 O 0.29344 0.92038 0.97608 0.0
O150 O 0.32449 0.96248 0.95921 0.0
O151 O 0.36908 1.00634 0.01202 0.0
O152 O 0.3708 0.95605 0.00931 0.0
C153 C 0.32702 0.93067 0.05777 0.0
O154 O 0.31618 1.0147 0.01111 0.0
O155 O 0.28118 0.9743 0.02602 0.0
In156 In 0.33886 0.38632 0.05727 0.0
O157 O 0.32123 0.34374 0.09185 0.0
O158 O 0.34907 0.39149 0.10984 0.0
C159 C 0.3317 0.35616 0.99752 0.0
C160 C 0.30119 0.42588 0.05282 0.0
C161 C 0.39764 0.42908 0.05685 0.0
O162 O 0.35483 0.35901 0.01635 0.0
O163 O 0.31081 0.36487 0.00952 0.0
O164 O 0.37425 0.4388 0.05957 0.0
O165 O 0.39173 0.39739 0.05506 0.0
C166 C 0.3338 0.3625 0.1157 0.0
O167 O 0.33048 0.43694 0.05509 0.0
O168 O 0.29023 0.39424 0.0531 0.0
In169 In 0.83268 0.16275 0.10226 0.0
O170 O 0.83888 0.1111 0.09651 0.0
O171 O 0.8782 0.154 0.09403 0.0
C172 C 0.77156 0.13 0.09193 0.0
C173 C 0.85179 0.19522 0.1569 0.0
C174 C 0.83191 0.20614 0.06137 0.0
O175 O 0.78962 0.13289 0.07185 0.0
O176 O 0.78453 0.14261 0.11766 0.0
O177 O 0.82136 0.20838 0.08614 0.0
O178 O 0.84415 0.18311 0.05795 0.0
C179 C 0.86697 0.12234 0.09166 0.0
O180 O 0.86021 0.20856 0.13344 0.0
O181 O 0.83502 0.16475 0.15284 0.0
In182 In 0.18997 0.55987 0.26992 0.0
O183 O 0.21853 0.52442 0.26994 0.0
O184 O 0.20821 0.54168 0.31206 0.0
C185 C 0.22913 0.62342 0.27422 0.0
C186 C 0.16715 0.53809 0.21293 0.0
C187 C 0.14097 0.56301 0.29751 0.0
O188 O 0.23825 0.59893 0.28055 0.0
O189 O 0.2006 0.61571 0.26512 0.0
O190 O 0.16153 0.58867 0.29092 0.0
O191 O 0.14565 0.53529 0.29116 0.0
C192 C 0.22223 0.52484 0.298 0.0
O193 O 0.15233 0.52739 0.23451 0.0
O194 O 0.19417 0.55823 0.2202 0.0
In195 In 0.84066 0.88492 0.561 0.0
O196 O 0.82719 0.84232 0.59612 0.0
O197 O 0.84583 0.89242 0.61372 0.0
C198 C 0.83461 0.85417 0.50165 0.0
C199 C 0.80099 0.92177 0.55409 0.0
C200 C 0.89916 0.92876 0.56147 0.0
O201 O 0.85824 0.85906 0.52037 0.0
O202 O 0.81276 0.86095 0.51365 0.0
O203 O 0.87538 0.93792 0.56361 0.0
O204 O 0.89381 0.89718 0.56021 0.0
C205 C 0.83496 0.86246 0.61982 0.0
O206 O 0.83015 0.93377 0.55479 0.0
O207 O 0.79121 0.89052 0.55703 0.0
In208 In 0.9695 0.07181 0.25949 0.0
O209 O 1.00271 0.10455 0.2307 0.0
O210 O 0.96373 0.06545 0.20872 0.0
C211 C 1.02093 0.06861 0.29168 0.0
C212 C 0.93631 0.11038 0.27898 0.0
C213 C 0.93013 1.01059 0.26549 0.0
O214 O 1.00189 0.04375 0.27601 0.0
O215 O 1.01434 0.09572 0.29098 0.0
O216 O 0.93237 0.03618 0.28283 0.0
O217 O 0.9474 1.01589 0.2446 0.0
C218 C 0.98854 0.08875 0.20633 0.0
O219 O 0.95795 0.10511 0.29527 0.0
O220 O 0.93268 0.09786 0.25221 0.0
In221 In 0.3345 0.67208 0.59942 0.0
O222 O 0.34043 0.62111 0.58896 0.0
O223 O 0.37979 0.66419 0.58746 0.0
C224 C 0.27261 0.64691 0.5972 0.0
C225 C 0.35187 0.69943 0.65621 0.0
C226 C 0.33248 0.7078 0.55245 0.0
O227 O 0.29006 0.62871 0.59981 0.0
O228 O 0.28652 0.67797 0.59707 0.0
O229 O 0.34309 0.72185 0.5784 0.0
O230 O 0.32435 0.67609 0.55022 0.0
C231 C 0.36822 0.63256 0.58341 0.0
O232 O 0.36348 0.71399 0.63435 0.0
O233 O 0.33297 0.6703 0.64949 0.0
In234 In 0.46688 0.57233 0.75856 0.0
O235 O 0.43223 0.60137 0.7532 0.0
O236 O 0.45634 0.60411 0.79625 0.0
C237 C 0.42622 0.51081 0.76079 0.0
C238 C 0.48685 0.5893 0.70568 0.0
C239 C 0.5165 0.56724 0.79252 0.0
O240 O 0.425 0.5365 0.77608 0.0
O241 O 0.44747 0.51626 0.74364 0.0
O242 O 0.51198 0.59524 0.78997 0.0
O243 O 0.49628 0.54245 0.77791 0.0
C244 C 0.43582 0.61196 0.78052 0.0
O245 O 0.46108 0.56741 0.70774 0.0
O246 O 0.5015 0.60393 0.73024 0.0
In247 In 0.72908 0.08103 0.75786 0.0
O248 O 0.76876 0.06481 0.74098 0.0
O249 O 0.75103 0.04731 0.78136 0.0
C250 C 0.76981 0.1427 0.76879 0.0
C251 C 0.68725 0.06615 0.70983 0.0
C252 C 0.68914 0.07758 0.79886 0.0
O253 O 0.76167 0.12322 0.78885 0.0
O254 O 0.75797 0.13064 0.74255 0.0
O255 O 0.70301 0.10429 0.78795 0.0
O256 O 0.69554 0.05174 0.78926 0.0
C257 C 0.77128 0.04898 0.76345 0.0
O258 O 0.69968 0.04481 0.71855 0.0
O259 O 0.69728 0.09474 0.72417 0.0
In260 In 0.8189 0.74614 0.05398 0.0
O261 O 0.83126 0.69789 0.05614 0.0
O262 O 0.86902 0.74298 0.05622 0.0
C263 C 0.76077 0.70171 0.05482 0.0
C264 C 0.8268 0.77574 0.11386 0.0
C265 C 0.82342 0.76859 0.99532 0.0
O266 O 0.78438 0.69298 0.05048 0.0
O267 O 0.76607 0.73329 0.05805 0.0
O268 O 0.83765 0.78727 0.01875 0.0
O269 O 0.80642 0.74057 1.00179 0.0
C270 C 0.86032 0.71135 0.05726 0.0
O271 O 0.80866 0.78148 0.09341 0.0
O272 O 0.84248 0.7583 0.10355 0.0
In273 In 0.97472 0.59677 0.84873 0.0
O274 O 0.94882 0.59574 0.80378 0.0
O275 O 0.95944 0.64072 0.83274 0.0
C276 C 0.93152 0.54473 0.86752 0.0
C277 C 1.01069 0.57114 0.81716 0.0
C278 C 1.01024 0.6296 0.89859 0.0
O279 O 0.92443 0.56826 0.85576 0.0
O280 O 0.96029 0.54864 0.87103 0.0
O281 O 1.02121 0.62572 0.8744 0.0
O282 O 0.98087 0.62034 0.89669 0.0
C283 C 0.94678 0.62488 0.80779 0.0
O284 O 1.01575 0.60248 0.82199 0.0
O285 O 0.98754 0.55288 0.82838 0.0
In286 In 0.82542 0.46979 0.50734 0.0
O287 O 0.81654 0.4244 0.53441 0.0
O288 O 0.82302 0.47263 0.55709 0.0
C289 C 0.8095 0.43443 0.45346 0.0
C290 C 0.79347 0.51349 0.51347 0.0
C291 C 0.88779 0.49076 0.516 0.0
O292 O 0.79831 0.42294 0.47665 0.0
O293 O 0.82764 0.46424 0.45726 0.0
O294 O 0.87288 0.50759 0.50284 0.0
O295 O 0.87143 0.46298 0.52338 0.0
C296 C 0.81907 0.44172 0.55902 0.0
O297 O 0.82232 0.52275 0.51138 0.0
O298 O 0.7804 0.482 0.51077 0.0
In299 In 0.69065 0.56136 0.35234 0.0
O300 O 0.70774 0.53594 0.31434 0.0
O301 O 0.72328 0.52979 0.35858 0.0
C302 C 0.72718 0.62248 0.34179 0.0
C303 C 0.63399 0.55269 0.32386 0.0
C304 C 0.67608 0.55512 0.40852 0.0
O305 O 0.7346 0.60686 0.36264 0.0
O306 O 0.70151 0.60737 0.3267 0.0
O307 O 0.66612 0.53097 0.38829 0.0
O308 O 0.69412 0.58179 0.40054 0.0
C309 C 0.72471 0.52429 0.33103 0.0
O310 O 0.6468 0.52984 0.32265 0.0
O311 O 0.64933 0.57904 0.34027 0.0
Tb312 Tb 0.11721 0.10207 0.0772 0.0
Tb313 Tb 0.05493 0.04912 0.04056 0.0
C314 C 0.05279 0.08453 0.10334 0.0
C315 C 0.19909 0.13435 0.09786 0.0
C316 C 0.23981 0.10118 0.07777 0.0
C317 C 0.23058 0.09779 0.10665 0.0
C318 C 0.21053 0.11448 0.11674 0.0
C319 C 0.21198 0.14148 0.07079 0.0
C320 C 0.23207 0.12485 0.06074 0.0
C321 C 0.16882 0.13926 0.10227 0.0
O322 O 0.12421 0.05226 0.07932 0.0
O323 O 0.0734 0.01876 0.07045 0.0
O324 O 0.09315 0.04274 0.0181 0.0
O325 O 0.1271 0.09539 0.03144 0.0
O326 O 1.01565 1.00678 0.04018 0.0
O327 O 1.02662 0.03096 0.99993 0.0
O328 O 0.05699 0.09915 0.02552 0.0
O329 O 0.0891 0.13425 0.06424 0.0
O330 O 0.08306 0.09201 0.10888 0.0
O331 O 0.03798 0.07222 0.07693 0.0
C332 C 0.10275 0.02273 0.07961 0.0
O333 O 0.15441 0.14704 0.07899 0.0
O334 O 0.14985 0.1156 0.11527 0.0
C335 C 0.11824 0.06701 0.01429 0.0
C336 C 0.97434 1.01521 0.01127 0.0
C337 C 0.92895 0.04217 0.02984 0.0
C338 C 0.94776 0.05705 1.00809 0.0
C339 C 0.97037 0.04369 0.99885 0.0
C340 C 0.95213 0.99731 0.02913 0.0
C341 C 0.92966 1.01089 0.03861 0.0
C342 C 1.00513 1.01022 0.01322 0.0
C343 C 0.06879 0.12938 0.04041 0.0
H344 H 0.23701 0.08035 0.12054 0.0
H345 H 0.20151 0.10902 0.13797 0.0
H346 H 0.20411 0.15715 0.05589 0.0
H347 H 0.23912 0.12819 0.03849 0.0
H348 H 0.94689 0.08067 1.00026 0.0
H349 H 0.98669 0.05775 0.98453 0.0
H350 H 0.95448 0.97504 0.03867 0.0
H351 H 0.91512 0.9987 0.05511 0.0
Tb352 Tb 0.31801 0.83134 0.33517 0.0
Tb353 Tb 0.35608 0.82111 0.27924 0.0
C354 C 0.29374 0.84142 0.27033 0.0
C355 C 0.29149 0.81382 0.40637 0.0
C356 C 0.30304 0.77908 0.455 0.0
C357 C 0.29534 0.80896 0.45969 0.0
C358 C 0.28973 0.82632 0.43547 0.0
C359 C 0.29842 0.78362 0.40165 0.0
C360 C 0.30424 0.76652 0.42567 0.0
C361 C 0.29086 0.83405 0.38119 0.0
O362 O 0.29378 0.78285 0.31069 0.0
O363 O 0.3353 0.7713 0.29301 0.0
O364 O 0.3877 0.82272 0.31908 0.0
O365 O 0.35144 0.80684 0.35228 0.0
O366 O 0.35575 0.79476 0.23796 0.0
O367 O 0.39634 0.83545 0.25698 0.0
O368 O 0.36258 0.87457 0.28634 0.0
O369 O 0.35653 0.8773 0.33592 0.0
O370 O 0.29688 0.85222 0.29891 0.0
O371 O 0.31111 0.82405 0.26003 0.0
C372 C 0.30662 0.76133 0.29974 0.0
O373 O 0.31781 0.8551 0.37757 0.0
O374 O 0.27677 0.81727 0.35602 0.0
C375 C 0.37999 0.81206 0.34509 0.0
C376 C 0.37907 0.83457 0.20638 0.0
C377 C 0.36365 0.8653 0.15635 0.0
C378 C 0.37139 0.83532 0.15259 0.0
C379 C 0.37896 0.81997 0.17753 0.0
C380 C 0.37184 0.8647 0.20999 0.0
C381 C 0.36416 0.87982 0.18535 0.0
C382 C 0.38182 0.81655 0.23276 0.0
C383 C 0.36747 0.89166 0.31252 0.0
H384 H 0.29395 0.81907 0.48203 0.0
H385 H 0.2849 0.84988 0.4395 0.0
H386 H 0.30049 0.77383 0.37938 0.0
H387 H 0.31072 0.74401 0.42124 0.0
H388 H 0.37136 0.82367 0.13046 0.0
H389 H 0.38388 0.79636 0.17432 0.0
H390 H 0.37101 0.87608 0.23193 0.0
H391 H 0.35766 0.90241 0.18912 0.0
Tb392 Tb 0.54796 0.06695 0.56836 0.0
Tb393 Tb 0.61698 0.07663 0.54571 0.0
C394 C 0.6016 0.05405 0.60743 0.0
C395 C 0.47525 0.08638 0.5785 0.0
C396 C 0.43866 0.12919 0.56733 0.0
C397 C 0.45896 0.13475 0.59375 0.0
C398 C 0.47692 0.11353 0.59932 0.0
C399 C 0.45483 0.08075 0.55213 0.0
C400 C 0.4368 0.10189 0.54662 0.0
C401 C 0.49528 0.06472 0.58398 0.0
O402 O 0.56913 0.12143 0.5678 0.0
O403 O 0.62083 0.12507 0.57114 0.0
O404 O 0.59517 0.10129 0.51388 0.0
O405 O 0.5445 0.07361 0.52133 0.0
O406 O 0.66513 0.0907 0.55847 0.0
O407 O 0.64596 0.07024 0.51331 0.0
O408 O 0.58635 0.02716 0.52579 0.0
O409 O 0.54952 1.0151 0.55894 0.0
O410 O 0.58019 0.06898 0.60711 0.0
O411 O 0.61165 0.04601 0.58272 0.0
C412 C 0.59876 0.13933 0.57368 0.0
O413 O 0.49917 0.04655 0.56096 0.0
O414 O 0.52137 0.07854 0.60097 0.0
C415 C 0.56509 0.09311 0.50613 0.0
C416 C 0.68861 0.0544 0.5348 0.0
C417 C 0.72395 1.00938 0.54071 0.0
C418 C 0.69294 0.99788 0.5273 0.0
C419 C 0.67544 0.02011 0.52447 0.0
C420 C 0.71938 0.06586 0.54831 0.0
C421 C 0.73678 0.04369 0.55135 0.0
C422 C 0.67049 0.07834 0.53294 0.0
C423 C 0.56424 1.00509 0.53788 0.0
H424 H 0.4606 0.15519 0.6104 0.0
H425 H 0.49221 0.11848 0.61996 0.0
H426 H 0.45289 0.06012 0.53558 0.0
H427 H 0.4216 0.09703 0.52594 0.0
H428 H 0.68227 0.9718 0.51861 0.0
H429 H 0.65161 1.01042 0.51423 0.0
H430 H 0.72994 0.09205 0.55683 0.0
H431 H 0.76027 0.05347 0.56242 0.0
Tb432 Tb 0.361 0.30903 0.80812 0.0
Tb433 Tb 0.29573 0.32621 0.79887 0.0
C434 C 0.2976 0.25473 0.81299 0.0
C435 C 0.43876 0.30338 0.79522 0.0
C436 C 0.48944 0.31413 0.76077 0.0
C437 C 0.48624 0.29242 0.78365 0.0
C438 C 0.46113 0.28717 0.80076 0.0
C439 C 0.44165 0.32484 0.77226 0.0
C440 C 0.46685 0.33028 0.75526 0.0
C441 C 0.41264 0.29795 0.81353 0.0
O442 O 0.34346 0.29314 0.76021 0.0
O443 O 0.30897 0.32289 0.7527 0.0
O444 O 0.33278 0.37378 0.80226 0.0
O445 O 0.37123 0.35483 0.78616 0.0
O446 O 0.24914 0.31336 0.78022 0.0
O447 O 0.27081 0.35977 0.80805 0.0
O448 O 0.30274 0.3224 0.84761 0.0
O449 O 0.3553 0.33052 0.85297 0.0
O450 O 0.32675 0.26733 0.82413 0.0
O451 O 0.28368 0.27199 0.79709 0.0
C452 C 0.32593 0.30509 0.74182 0.0
O453 O 0.4081 0.32518 0.82507 0.0
O454 O 0.38661 0.27541 0.80218 0.0
C455 C 0.35906 0.37895 0.79058 0.0
C456 C 0.21809 0.3325 0.81243 0.0
C457 C 0.1701 0.32276 0.85005 0.0
C458 C 0.18241 0.35394 0.83858 0.0
C459 C 0.2061 0.3587 0.81984 0.0
C460 C 0.20559 0.30114 0.82357 0.0
C461 C 0.18161 0.29624 0.84205 0.0
C462 C 0.24481 0.33917 0.79469 0.0
C463 C 0.32927 0.32913 0.86499 0.0
H464 H 0.50338 0.27985 0.78859 0.0
H465 H 0.45924 0.27054 0.81841 0.0
H466 H 0.42445 0.3374 0.76752 0.0
H467 H 0.46843 0.34677 0.73755 0.0
H468 H 0.17376 0.37469 0.84418 0.0
H469 H 0.21549 0.38309 0.81157 0.0
H470 H 0.21471 0.28062 0.81847 0.0
H471 H 0.17271 0.27206 0.85081 0.0
Tb472 Tb 0.07318 0.08244 0.58455 0.0
Tb473 Tb 0.08663 0.04477 0.52706 0.0
C474 C 1.02007 0.02488 0.54938 0.0
C475 C 0.06122 0.09074 0.66325 0.0
C476 C 0.06126 0.0655 0.71967 0.0
C477 C 0.04519 0.0886 0.71336 0.0
C478 C 0.0451 0.10106 0.68524 0.0
C479 C 0.07598 0.06663 0.6692 0.0
C480 C 0.07587 0.05405 0.69689 0.0
C481 C 0.06451 0.10607 0.63477 0.0
O482 O 0.07989 0.0338 0.60103 0.0
O483 O 0.08745 1.00525 0.55899 0.0
O484 O 0.13278 0.07382 0.54812 0.0
O485 O 0.11859 0.11359 0.57465 0.0
O486 O 0.06826 0.0192 0.48508 0.0
O487 O 0.11689 0.02973 0.50036 0.0
O488 O 0.07982 0.09322 0.51028 0.0
O489 O 0.07197 0.12176 0.55235 0.0
O490 O 1.02732 0.05578 0.56168 0.0
O491 O 0.04132 1.01422 0.53805 0.0
C492 C 0.08373 1.00578 0.58806 0.0
O493 O 0.09175 0.11127 0.62522 0.0
O494 O 0.04215 0.09269 0.61336 0.0
C495 C 0.1397 0.10405 0.56188 0.0
C496 C 0.10293 0.03213 0.44919 0.0
C497 C 0.09851 0.05077 0.39067 0.0
C498 C 0.10399 0.02021 0.39615 0.0
C499 C 0.10559 1.0107 0.42521 0.0
C500 C 0.10213 0.0645 0.44429 0.0
C501 C 0.09961 0.07367 0.41531 0.0
C502 C 0.09537 0.01885 0.47784 0.0
C503 C 0.07585 0.12122 0.52325 0.0
H504 H 0.03373 0.09794 0.73047 0.0
H505 H 0.03349 0.11961 0.68105 0.0
H506 H 0.08921 0.05881 0.65302 0.0
H507 H 0.08929 0.03714 0.701 0.0
H508 H 0.10465 1.00247 0.3779 0.0
H509 H 0.10674 0.98576 0.42869 0.0
H510 H 0.10074 0.08167 0.46261 0.0
H511 H 0.09557 0.09746 0.41246 0.0
Tb512 Tb 0.34646 0.84719 0.79227 0.0
Tb513 Tb 0.31159 0.78154 0.82168 0.0
C514 C 0.34226 0.77661 0.76187 0.0
C515 C 0.35077 0.92854 0.77001 0.0
C516 C 0.31164 0.96671 0.78408 0.0
C517 C 0.3023 0.94127 0.76028 0.0
C518 C 0.32169 0.92237 0.75327 0.0
C519 C 0.3614 0.95636 0.79162 0.0
C520 C 0.34192 0.97516 0.79873 0.0
C521 C 0.36619 0.90218 0.77016 0.0
O522 O 0.29461 0.8381 0.77612 0.0
O523 O 0.26916 0.79155 0.79858 0.0
O524 O 0.29915 0.82031 0.84654 0.0
O525 O 0.33907 0.86497 0.83617 0.0
O526 O 0.28208 0.73163 0.81869 0.0
O527 O 0.30587 0.75715 0.86105 0.0
O528 O 0.36339 0.79117 0.83838 0.0
O529 O 0.38894 0.83527 0.81315 0.0
O530 O 0.357 0.80891 0.76506 0.0
O531 O 0.32088 0.76247 0.77889 0.0
C532 C 0.26749 0.81571 0.78116 0.0
O533 O 0.37656 0.89694 0.79661 0.0
O534 O 0.35139 0.87383 0.75412 0.0
C535 C 0.3156 0.85203 0.85122 0.0
C536 C 0.30765 0.70227 0.84806 0.0
C537 C 0.34733 0.66521 0.83325 0.0
C538 C 0.31578 0.65388 0.82172 0.0
C539 C 0.29603 0.67221 0.82919 0.0
C540 C 0.33812 0.7111 0.8625 0.0
C541 C 0.35782 0.69278 0.85506 0.0
C542 C 0.29176 0.72802 0.84592 0.0
C543 C 0.39059 0.8121 0.83176 0.0
H544 H 0.27912 0.93424 0.74854 0.0
H545 H 0.31277 0.90127 0.73632 0.0
H546 H 0.38376 0.96188 0.80473 0.0
H547 H 0.34995 0.9952 0.81672 0.0
H548 H 0.30689 0.63212 0.80544 0.0
H549 H 0.27259 0.66469 0.81795 0.0
H550 H 0.3478 0.73395 0.87741 0.0
H551 H 0.38196 0.70202 0.86447 0.0
Tb552 Tb 0.57678 0.04308 0.08434 0.0
Tb553 Tb 0.57941 0.07902 0.02518 0.0
C554 C 0.63874 0.08393 0.06471 0.0
C555 C 0.59105 0.03081 0.16295 0.0
C556 C 0.60543 0.05534 0.22343 0.0
C557 C 0.60817 0.02387 0.21364 0.0
C558 C 0.60063 1.01152 0.18356 0.0
C559 C 0.59199 0.06371 0.17194 0.0
C560 C 0.59893 0.07583 0.2019 0.0
C561 C 0.57931 1.0165 0.13232 0.0
O562 O 0.5683 0.09219 0.09985 0.0
O563 O 0.58295 0.12211 0.05981 0.0
O564 O 0.53301 0.0681 0.03825 0.0
O565 O 0.53213 0.0201 0.05839 0.0
O566 O 0.60049 0.1178 0.99934 0.0
O567 O 0.55667 0.07975 0.9831 0.0
O568 O 0.57656 0.02588 1.0077 0.0
O569 O 0.5858 1.00474 0.05169 0.0
O570 O 0.62137 0.08128 0.08651 0.0
O571 O 0.62584 0.07687 0.0372 0.0
C572 C 0.57486 0.1216 0.08764 0.0
O573 O 0.55468 0.0233 0.12105 0.0
O574 O 0.60049 0.02043 0.11385 0.0
C575 C 0.51751 0.03827 0.04489 0.0
C576 C 0.59228 0.09783 0.9488 0.0
C577 C 0.61646 0.08465 0.89586 0.0
C578 C 0.59564 0.10353 0.89615 0.0
C579 C 0.58366 0.11011 0.92252 0.0
C580 C 0.61219 0.07807 0.94847 0.0
C581 C 0.62428 0.07159 0.92219 0.0
C582 C 0.5798 0.10461 0.9764 0.0
C583 C 0.58209 1.00098 0.02194 0.0
H584 H 0.61402 1.00782 0.22943 0.0
H585 H 0.60093 0.98639 0.17666 0.0
H586 H 0.58551 0.07934 0.15608 0.0
H587 H 0.59636 0.1001 0.2082 0.0
H588 H 0.58892 0.11353 0.87606 0.0
H589 H 0.56788 0.12494 0.92245 0.0
H590 H 0.61873 0.06808 0.96865 0.0
H591 H 0.64055 0.05735 0.92276 0.0
Tb592 Tb 0.31357 0.27731 0.2922 0.0
Tb593 Tb 0.3456 0.3515 0.3146 0.0
C594 C 0.32456 0.32941 0.24329 0.0
C595 C 0.30875 0.19321 0.26025 0.0
C596 C 0.35547 0.16308 0.25778 0.0
C597 C 0.35846 0.19299 0.24441 0.0
C598 C 0.33503 0.20806 0.24557 0.0
C599 C 0.30353 0.16059 0.26879 0.0
C600 C 0.32689 0.14555 0.26762 0.0
C601 C 0.29445 0.21494 0.27641 0.0
O602 O 0.36385 0.28668 0.27861 0.0
O603 O 0.38838 0.3406 0.29818 0.0
O604 O 0.3522 0.32854 0.35622 0.0
O605 O 0.31552 0.27815 0.34192 0.0
O606 O 0.34862 0.4007 0.30653 0.0
O607 O 0.37519 0.39111 0.34484 0.0
O608 O 0.29549 0.34167 0.32898 0.0
O609 O 0.2706 0.28824 0.30809 0.0
O610 O 0.30714 0.30003 0.25025 0.0
O611 O 0.34212 0.35154 0.2649 0.0
C612 C 0.39015 0.31328 0.28226 0.0
O613 O 0.31042 0.22853 0.30185 0.0
O614 O 0.28559 0.23682 0.2618 0.0
C615 C 0.33366 0.29993 0.36343 0.0
C616 C 0.35498 0.43681 0.34897 0.0
C617 C 0.31642 0.4768 0.3541 0.0
C618 C 0.34722 0.49114 0.34766 0.0
C619 C 0.36644 0.47107 0.34494 0.0
C620 C 0.32657 0.42428 0.36104 0.0
C621 C 0.30719 0.44429 0.36352 0.0
C622 C 0.36646 0.41367 0.33122 0.0
C623 C 0.26902 0.31518 0.3248 0.0
H624 H 0.38035 0.20675 0.23665 0.0
H625 H 0.33935 0.23321 0.23865 0.0
H626 H 0.28345 0.14881 0.28023 0.0
H627 H 0.3242 0.12233 0.27793 0.0
H628 H 0.3548 0.51633 0.34055 0.0
H629 H 0.38837 0.48113 0.33572 0.0
H630 H 0.31757 0.3979 0.3646 0.0
H631 H 0.28355 0.43281 0.36863 0.0
Tb632 Tb 0.57311 0.5811 0.08462 0.0
Tb633 Tb 0.58701 0.5437 0.02713 0.0
C634 C 0.52014 0.52404 0.0486 0.0
C635 C 0.56174 0.58984 0.16353 0.0
C636 C 0.56356 0.56573 0.22032 0.0
C637 C 0.54729 0.5887 0.21422 0.0
C638 C 0.54632 0.60061 0.18592 0.0
C639 C 0.57674 0.56591 0.16932 0.0
C640 C 0.5775 0.55386 0.1972 0.0
C641 C 0.56418 0.60469 0.1348 0.0
O642 O 0.57981 0.53251 0.10098 0.0
O643 O 0.58798 0.5043 0.05901 0.0
O644 O 0.63308 0.57277 0.04844 0.0
O645 O 0.61871 0.6123 0.07514 0.0
O646 O 0.56866 0.51731 0.98548 0.0
O647 O 0.61758 0.52956 1.00022 0.0
O648 O 0.57981 0.5919 0.01037 0.0
O649 O 0.57153 0.62018 0.05242 0.0
O650 O 0.52742 0.55485 0.06115 0.0
O651 O 0.54152 0.51324 0.03774 0.0
C652 C 0.58396 0.50469 0.08799 0.0
O653 O 0.59137 0.61066 0.12502 0.0
O654 O 0.54182 0.59032 0.11364 0.0
C655 C 0.63993 0.60289 0.06244 0.0
C656 C 0.60255 0.53066 0.94907 0.0
C657 C 0.59533 0.54854 0.89063 0.0
C658 C 0.59811 0.57197 0.91534 0.0
C659 C 0.602 0.56316 0.94429 0.0
C660 C 0.60355 0.50866 0.9248 0.0
C661 C 0.60053 0.51777 0.89574 0.0
C662 C 0.59588 0.51773 0.97798 0.0
C663 C 0.57548 0.61967 0.02336 0.0
H664 H 0.53634 0.59834 0.2316 0.0
H665 H 0.53457 0.61907 0.18187 0.0
H666 H 0.58949 0.55781 0.15282 0.0
H667 H 0.59104 0.53703 0.20113 0.0
H668 H 0.59435 0.59593 0.91266 0.0
H669 H 0.60182 0.58071 0.96282 0.0
H670 H 0.60437 0.48358 0.92816 0.0
H671 H 0.59981 0.4996 0.87732 0.0
Tb672 Tb 0.84611 0.34687 0.29036 0.0
Tb673 Tb 0.81325 0.28081 0.3211 0.0
C674 C 0.84388 0.27665 0.26041 0.0
C675 C 0.85397 0.4299 0.27115 0.0
C676 C 0.8151 0.46828 0.28545 0.0
C677 C 0.80578 0.44316 0.26139 0.0
C678 C 0.82504 0.42416 0.25427 0.0
C679 C 0.86465 0.45745 0.29302 0.0
C680 C 0.8453 0.47637 0.30023 0.0
C681 C 0.86886 0.40312 0.27138 0.0
O682 O 0.79521 0.33688 0.2721 0.0
O683 O 0.77124 0.29354 0.29894 0.0
O684 O 0.81663 0.32027 0.35533 0.0
O685 O 0.82338 0.36349 0.32582 0.0
O686 O 0.78168 0.2317 0.31519 0.0
O687 O 0.80443 0.25377 0.35877 0.0
O688 O 0.8644 0.28756 0.33587 0.0
O689 O 0.88807 0.3358 0.31467 0.0
O690 O 0.84946 0.30876 0.25786 0.0
O691 O 0.83144 0.26212 0.28317 0.0
C692 C 0.76865 0.31574 0.2795 0.0
O693 O 0.87702 0.39618 0.29801 0.0
O694 O 0.85481 0.37572 0.25377 0.0
C695 C 0.81695 0.3508 0.35104 0.0
C696 C 0.80522 0.19922 0.3431 0.0
C697 C 0.84499 0.16226 0.32798 0.0
C698 C 0.85453 0.18807 0.35148 0.0
C699 C 0.83479 0.20624 0.3591 0.0
C700 C 0.79433 0.17085 0.32212 0.0
C701 C 0.8141 0.15256 0.31455 0.0
C702 C 0.79017 0.2258 0.34207 0.0
C703 C 0.89081 0.31103 0.33112 0.0
H704 H 0.78266 0.43637 0.24955 0.0
H705 H 0.81603 0.40323 0.23717 0.0
H706 H 0.88687 0.46255 0.30628 0.0
H707 H 0.85332 0.49615 0.31845 0.0
H708 H 0.87813 0.19617 0.36237 0.0
H709 H 0.84396 0.22778 0.37558 0.0
H710 H 0.7716 0.16473 0.30959 0.0
H711 H 0.80581 0.13211 0.29693 0.0
Tb712 Tb 0.08108 0.5451 0.58433 0.0
Tb713 Tb 0.08136 0.5823 0.52586 0.0
C714 C 0.14113 0.5893 0.56442 0.0
C715 C 0.07716 0.51698 0.66152 0.0
C716 C 0.06173 0.52354 0.71991 0.0
C717 C 0.09301 0.53105 0.71458 0.0
C718 C 0.10065 0.52754 0.68556 0.0
C719 C 0.04581 0.50796 0.667 0.0
C720 C 0.03817 0.51112 0.69604 0.0
C721 C 0.08602 0.51656 0.63105 0.0
O722 O 0.08142 0.59736 0.60297 0.0
O723 O 0.07217 0.61959 0.55941 0.0
O724 O 0.03654 0.54483 0.52397 0.0
O725 O 0.03302 0.5428 0.57379 0.0
O726 O 0.10407 0.60459 0.49044 0.0
O727 O 0.05677 0.6036 0.49586 0.0
O728 O 0.09084 0.53389 0.50934 0.0
O729 O 0.07672 0.503 0.54881 0.0
O730 O 0.12679 0.5584 0.56915 0.0
O731 O 0.12523 0.60702 0.55237 0.0
C732 C 0.0758 0.62266 0.58918 0.0
O733 O 0.06372 0.50426 0.6093 0.0
O734 O 0.10662 0.54401 0.62479 0.0
C735 C 1.0199 0.53882 0.54633 0.0
C736 C 0.06957 0.59668 0.44728 0.0
C737 C 0.06489 0.57696 0.38621 0.0
C738 C 0.05905 0.60683 0.396 0.0
C739 C 0.0619 0.6169 0.42646 0.0
C740 C 0.07074 0.5647 0.43776 0.0
C741 C 0.06859 0.55494 0.40744 0.0
C742 C 0.079 0.60995 0.47846 0.0
C743 C 0.08459 0.50415 0.52102 0.0
H744 H 0.11148 0.54062 0.73274 0.0
H745 H 0.12497 0.53417 0.68177 0.0
H746 H 1.02721 0.49953 0.64888 0.0
H747 H 1.01387 0.50564 0.69961 0.0
H748 H 0.05502 0.62382 0.38021 0.0
H749 H 0.06004 0.64131 0.43365 0.0
H750 H 0.07583 0.54837 0.45369 0.0
H751 H 0.07313 0.5317 0.40107 0.0
Tb752 Tb 0.86472 0.80864 0.31177 0.0
Tb753 Tb 0.79947 0.82601 0.30351 0.0
C754 C 0.80142 0.75422 0.31683 0.0
C755 C 0.94182 0.80377 0.29616 0.0
C756 C 0.99082 0.81633 0.25939 0.0
C757 C 0.99508 0.80744 0.28862 0.0
C758 C 0.97077 0.8012 0.30681 0.0
C759 C 0.93737 0.81261 0.26705 0.0
C760 C 0.96161 0.81874 0.2488 0.0
C761 C 0.9167 0.79822 0.31574 0.0
O762 O 0.84644 0.79278 0.26403 0.0
O763 O 0.81211 0.82284 0.25708 0.0
O764 O 0.83671 0.87354 0.30752 0.0
O765 O 0.8743 0.85439 0.28977 0.0
O766 O 0.75273 0.81358 0.28539 0.0
O767 O 0.77476 0.8595 0.31378 0.0
O768 O 0.80665 0.82109 0.35194 0.0
O769 O 0.85926 0.82956 0.35702 0.0
O770 O 0.83073 0.76652 0.32762 0.0
O771 O 0.78743 0.77177 0.30136 0.0
C772 C 0.82883 0.80491 0.2459 0.0
O773 O 0.91228 0.82546 0.3274 0.0
O774 O 0.89046 0.77528 0.30551 0.0
C775 C 0.86265 0.87872 0.29524 0.0
C776 C 0.72219 0.83182 0.31899 0.0
C777 C 0.67433 0.82024 0.357 0.0
C778 C 0.6891 0.85287 0.34933 0.0
C779 C 0.71268 0.85855 0.33041 0.0
C780 C 0.70734 0.79909 0.32646 0.0
C781 C 0.68347 0.79334 0.34514 0.0
C782 C 0.74858 0.83901 0.30068 0.0
C783 C 0.83323 0.82785 0.3692 0.0
H784 H 1.01713 0.80497 0.29735 0.0
H785 H 0.97462 0.79448 0.32925 0.0
H786 H 0.91522 0.81501 0.25853 0.0
H787 H 0.95764 0.82593 0.22657 0.0
H788 H 0.6823 0.87401 0.35787 0.0
H789 H 0.72384 0.88398 0.325 0.0
H790 H 0.71441 0.77801 0.31824 0.0
H791 H 0.67264 0.76798 0.35086 0.0
Tb792 Tb 0.81412 0.34034 0.84657 0.0
Tb793 Tb 0.86062 0.35591 0.79481 0.0
C794 C 0.79032 0.35458 0.78236 0.0
C795 C 0.78686 0.30826 0.91422 0.0
C796 C 0.80172 0.27567 0.96309 0.0
C797 C 0.77755 0.2902 0.96347 0.0
C798 C 0.77032 0.30665 0.9392 0.0
C799 C 0.81043 0.29323 0.91355 0.0
C800 C 0.81807 0.27751 0.93782 0.0
C801 C 0.78179 0.32744 0.88947 0.0
O802 O 0.82058 0.29333 0.83104 0.0
O803 O 0.82909 0.30549 0.78337 0.0
O804 O 0.88509 0.33324 0.82683 0.0
O805 O 0.85981 0.34059 0.86776 0.0
O806 O 0.87942 0.34191 0.75676 0.0
O807 O 0.89405 0.39339 0.77623 0.0
O808 O 0.87633 0.39475 0.83169 0.0
O809 O 0.82845 0.39404 0.84255 0.0
O810 O 0.78325 0.33818 0.80606 0.0
O811 O 0.81958 0.36934 0.77803 0.0
C812 C 0.82112 0.28366 0.80299 0.0
O813 O 0.80406 0.35567 0.88866 0.0
O814 O 0.77408 0.31018 0.86334 0.0
C815 C 0.88285 0.33319 0.85583 0.0
C816 C 0.88287 0.38404 0.72429 0.0
C817 C 0.85789 0.39982 0.67013 0.0
C818 C 0.87887 0.38108 0.6702 0.0
C819 C 0.8912 0.37313 0.69716 0.0
C820 C 0.86217 0.40298 0.72415 0.0
C821 C 0.84972 0.41061 0.69743 0.0
C822 C 0.89302 0.3733 0.75263 0.0
C823 C 0.85809 0.40993 0.84295 0.0
H824 H 0.76418 0.28879 0.9824 0.0
H825 H 0.75211 0.31827 0.94003 0.0
H826 H 0.8234 0.29416 0.8944 0.0
H827 H 0.83723 0.26735 0.93687 0.0
H828 H 0.88593 0.3728 0.64949 0.0
H829 H 0.90688 0.35822 0.69682 0.0
H830 H 0.85503 0.41146 0.74473 0.0
H831 H 0.83324 0.42454 0.6982 0.0
Tb832 Tb 0.81393 0.77489 0.79607 0.0
Tb833 Tb 0.84502 0.84962 0.81826 0.0
C834 C 0.82436 0.82867 0.7471 0.0
C835 C 0.80549 0.69253 0.75921 0.0
C836 C 0.85126 0.66335 0.74702 0.0
C837 C 0.82442 0.64461 0.75913 0.0
C838 C 0.80162 0.65927 0.76533 0.0
C839 C 0.82929 0.70877 0.74217 0.0
C840 C 0.85214 0.69413 0.73607 0.0
C841 C 0.79304 0.71305 0.77896 0.0
O842 O 0.86442 0.78337 0.7837 0.0
O843 O 0.88607 0.83946 0.79713 0.0
O844 O 0.85194 0.82658 0.85986 0.0
O845 O 0.81698 0.77501 0.8457 0.0
O846 O 0.88494 0.89009 0.83505 0.0
O847 O 0.83952 0.89641 0.82887 0.0
O848 O 0.79606 0.83864 0.83509 0.0
O849 O 0.77081 0.7872 0.81043 0.0
O850 O 0.81496 0.79695 0.75285 0.0
O851 O 0.83378 0.85268 0.76955 0.0
C852 C 0.88924 0.81126 0.7841 0.0
O853 O 0.81156 0.72561 0.80338 0.0
O854 O 0.78252 0.7355 0.76702 0.0
C855 C 0.83446 0.79741 0.86712 0.0
C856 C 0.88111 0.94175 0.81994 0.0
C857 C 0.87139 0.99668 0.79428 0.0
C858 C 0.88561 1.00074 0.82378 0.0
C859 C 0.88981 0.97298 0.83682 0.0
C860 C 0.87427 0.93999 0.78889 0.0
C861 C 0.86922 0.96746 0.77601 0.0
C862 C 0.86931 0.91141 0.83521 0.0
C863 C 0.76926 0.81295 0.82886 0.0
H864 H 0.82313 0.62071 0.76768 0.0
H865 H 0.78343 0.64643 0.77852 0.0
H866 H 0.83254 0.73445 0.73708 0.0
H867 H 0.87234 0.70853 0.72607 0.0
H868 H 0.88854 0.02355 0.83804 0.0
H869 H 0.89572 0.97489 0.86076 0.0
H870 H 0.86828 0.91613 0.77545 0.0
H871 H 0.85896 0.96377 0.75302 0.0
Tb872 Tb 0.61534 0.59728 0.57744 0.0
Tb873 Tb 0.55294 0.54494 0.54063 0.0
C874 C 0.55141 0.58049 0.60369 0.0
C875 C 0.6976 0.63226 0.59642 0.0
C876 C 0.73925 0.60367 0.57161 0.0
C877 C 0.7294 0.59534 0.59957 0.0
C878 C 0.70896 0.60982 0.61209 0.0
C879 C 0.7112 0.64422 0.57067 0.0
C880 C 0.73184 0.62984 0.55824 0.0
C881 C 0.66693 0.63543 0.60188 0.0
O882 O 0.62192 0.54719 0.57985 0.0
O883 O 0.57119 0.51345 0.5695 0.0
O884 O 0.59089 0.53799 0.51795 0.0
O885 O 0.62537 0.59029 0.53181 0.0
O886 O 0.51191 0.5046 0.54041 0.0
O887 O 0.5252 0.52679 0.49973 0.0
O888 O 0.55607 0.59493 0.52515 0.0
O889 O 0.58707 0.62946 0.56461 0.0
O890 O 0.58155 0.58712 0.60934 0.0
O891 O 0.53667 0.56875 0.57714 0.0
C892 C 0.60041 0.51746 0.5793 0.0
O893 O 0.65158 0.643 0.57915 0.0
O894 O 0.64892 0.6109 0.61479 0.0
C895 C 0.61634 0.56201 0.51451 0.0
C896 C 0.47305 0.51639 0.51027 0.0
C897 C 0.42987 0.54856 0.52549 0.0
C898 C 0.45029 0.56117 0.50421 0.0
C899 C 0.47174 0.54522 0.49664 0.0
C900 C 0.44965 0.50114 0.52809 0.0
C901 C 0.42833 0.51727 0.53586 0.0
C902 C 0.50243 0.50822 0.51312 0.0
C903 C 0.56738 0.62494 0.54038 0.0
H904 H 0.7355 0.57564 0.61052 0.0
H905 H 0.69951 0.60066 0.63232 0.0
H906 H 0.70342 0.66202 0.55837 0.0
H907 H 0.73952 0.63684 0.53679 0.0
H908 H 0.45125 0.58472 0.49512 0.0
H909 H 0.4891 0.55738 0.48239 0.0
H910 H 0.45001 0.47877 0.53868 0.0
H911 H 0.41266 0.50677 0.55212 0.0
Tb912 Tb 0.05476 0.57175 0.06596 0.0
Tb913 Tb 0.12333 0.58433 0.04049 0.0
C914 C 0.10936 0.55703 0.10243 0.0
C915 C 0.98152 0.58879 0.07977 0.0
C916 C 0.94299 0.63029 0.07242 0.0
C917 C 0.97241 0.64277 0.08922 0.0
C918 C 0.99152 0.62229 0.09278 0.0
C919 C 0.9522 0.57633 0.06312 0.0
C920 C 0.93328 0.5968 0.05934 0.0
C921 C 1.00166 0.56691 0.08171 0.0
O922 O 0.08498 0.62135 0.08607 0.0
O923 O 0.12227 0.63565 0.05329 0.0
O924 O 0.09303 0.59157 1.0035 0.0
O925 O 0.05601 0.60341 0.02995 0.0
O926 O 0.17224 0.60338 0.04743 0.0
O927 O 0.14901 0.57299 1.00692 0.0
O928 O 0.10227 0.52968 0.03945 0.0
O929 O 0.05051 0.52453 0.03901 0.0
O930 O 0.07909 0.54705 0.09548 0.0
O931 O 0.1283 0.57882 0.08759 0.0
C932 C 0.10713 0.64424 0.07471 0.0
O933 O 1.00621 0.55388 0.05615 0.0
O934 O 1.02724 0.57746 0.10004 0.0
C935 C 0.0698 0.60377 1.00561 0.0
C936 C 0.19378 0.56268 0.0284 0.0
C937 C 0.22794 0.51693 0.03643 0.0
C938 C 0.23774 0.54359 0.01828 0.0
C939 C 0.2208 0.56617 0.01429 0.0
C940 C 0.18384 0.53615 0.0465 0.0
C941 C 0.20068 0.51351 0.05043 0.0
C942 C 0.17541 0.5859 0.02362 0.0
C943 C 0.07281 0.51114 0.03507 0.0
H944 H 0.98058 0.66826 0.0999 0.0
H945 H 1.01413 0.63279 0.10556 0.0
H946 H 0.94406 0.55075 0.05258 0.0
H947 H 0.91114 0.5864 0.04574 0.0
H948 H 0.25834 0.54679 1.00681 0.0
H949 H 0.22874 0.58627 1.00005 0.0
H950 H 0.163 0.53295 0.05761 0.0
H951 H 0.19259 0.49362 0.06483 0.0
C952 C 1.02852 0.18326 0.99576 0.0
C953 C 0.04236 0.21605 0.01029 0.0
H954 H 1.0256 0.13079 0.99344 0.0
C955 C 0.06439 0.21964 0.03521 0.0
H956 H 1.0116 0.17918 0.97642 0.0
C957 C 0.07258 0.19176 0.04497 0.0
C958 C 0.05917 0.15902 0.03018 0.0
H959 H 0.07582 0.24426 0.04702 0.0
H960 H 0.08985 0.19608 0.06406 0.0
C961 C 0.03673 0.15533 1.00551 0.0
C962 C 0.24501 0.84486 0.19776 0.0
C963 C 0.22042 0.85467 0.20818 0.0
H964 H 0.28712 0.83304 0.20887 0.0
C965 C 0.22104 0.86169 0.23926 0.0
H966 H 0.24538 0.83916 0.17408 0.0
C967 C 0.24513 0.85835 0.25933 0.0
C968 C 0.26922 0.84751 0.24899 0.0
H969 H 0.20254 0.86927 0.2482 0.0
H970 H 0.24438 0.86345 0.28303 0.0
C971 C 0.26894 0.84121 0.21784 0.0
C972 C 0.56941 0.92397 0.49755 0.0
C973 C 0.54602 0.89821 0.50847 0.0
H974 H 0.59314 0.97666 0.49773 0.0
C975 C 0.52826 0.90794 0.52946 0.0
H976 H 0.58364 0.91783 0.48136 0.0
C977 C 0.53383 0.94238 0.53909 0.0
C978 C 0.55722 0.9681 0.52788 0.0
H979 H 0.50996 0.88898 0.53835 0.0
H980 H 0.51975 0.94884 0.55526 0.0
C981 C 0.57485 0.95807 0.50698 0.0
C982 C 0.55721 0.35742 0.71821 0.0
C983 C 0.56626 0.33011 0.70728 0.0
H984 H 0.52589 0.37381 0.74376 0.0
C985 C 0.55015 0.29761 0.71434 0.0
H986 H 0.56919 0.38276 0.71311 0.0
C987 C 0.52542 0.29248 0.73189 0.0
C988 C 0.51611 0.31973 0.74258 0.0
H989 H 0.55655 0.27604 0.70619 0.0
H990 H 0.51321 0.26708 0.73663 0.0
C991 C 0.53231 0.35227 0.73559 0.0
C992 C 0.07834 0.91151 0.60875 0.0
C993 C 0.08027 0.91212 0.64064 0.0
H994 H 0.07827 0.93747 0.56835 0.0
C995 C 0.08363 0.94495 0.6546 0.0
H996 H 0.07572 0.88791 0.59591 0.0
C997 C 0.08464 0.97414 0.63829 0.0
C998 C 0.08301 0.97362 0.60639 0.0
H999 H 0.08522 0.94827 0.67873 0.0
H1000 H 0.08693 0.99761 0.65114 0.0
C1001 C 0.07991 0.94084 0.59247 0.0
C1002 C 0.48346 0.82606 0.84894 0.0
C1003 C 0.48716 0.80461 0.87153 0.0
H1004 H 0.45359 0.84568 0.81982 0.0
C1005 C 0.45766 0.78566 0.88046 0.0
H1006 H 0.50421 0.84172 0.84057 0.0
C1007 C 0.42762 0.78778 0.86798 0.0
C1008 C 0.42394 0.80945 0.84555 0.0
H1009 H 0.45758 0.76865 0.89751 0.0
H1010 H 0.40689 0.77216 0.8764 0.0
C1011 C 0.45346 0.82847 0.83671 0.0
C1012 C 0.56459 0.18759 0.15157 0.0
C1013 C 0.57023 0.21896 0.13876 0.0
H1014 H 0.56133 0.13449 0.14727 0.0
C1015 C 0.57738 0.21707 0.10862 0.0
H1016 H 0.55911 0.18654 0.17445 0.0
C1017 C 0.5788 0.18652 0.09267 0.0
C1018 C 0.57315 0.15512 0.10544 0.0
H1019 H 0.58217 0.23963 0.09703 0.0
H1020 H 0.58449 0.1877 0.06987 0.0
C1021 C 0.56593 0.15699 0.1356 0.0
C1022 C 0.20679 0.33849 0.3771 0.0
C1023 C 0.17674 0.31344 0.36923 0.0
H1024 H 0.25625 0.35972 0.37102 0.0
C1025 C 0.17855 0.28936 0.34575 0.0
H1026 H 0.20863 0.35813 0.39459 0.0
C1027 C 0.20703 0.28998 0.33207 0.0
C1028 C 0.23703 0.31516 0.33975 0.0
H1029 H 0.15748 0.26905 0.33782 0.0
H1030 H 0.20526 0.27005 0.31489 0.0
C1031 C 0.23516 0.33947 0.36302 0.0
C1032 C 0.03424 0.11221 0.17867 0.0
C1033 C 1.00286 0.09289 0.17818 0.0
H1034 H 0.07471 0.12446 0.15533 0.0
C1035 C 0.98697 0.07382 0.15165 0.0
H1036 H 0.04704 0.12723 0.19879 0.0
C1037 C 1.00284 0.07234 0.12661 0.0
C1038 C 0.03488 0.08955 0.12798 0.0
H1039 H 0.96271 0.0588 0.15067 0.0
H1040 H 0.99038 0.05638 0.1068 0.0
C1041 C 0.05016 0.11037 0.15386 0.0
C1042 C 0.3364 0.76176 0.5299 0.0
C1043 C 0.32645 0.72641 0.52734 0.0
H1044 H 0.33706 0.80627 0.50883 0.0
C1045 C 0.30859 0.70862 0.50114 0.0
H1046 H 0.35009 0.77606 0.54995 0.0
C1047 C 0.30056 0.72578 0.47802 0.0
C1048 C 0.31055 0.76115 0.48036 0.0
H1049 H 0.30021 0.68134 0.4987 0.0
H1050 H 0.2862 0.71124 0.45838 0.0
C1051 C 0.32861 0.77901 0.50654 0.0
C1052 C 0.64151 0.07764 0.68516 0.0
C1053 C 0.66223 0.05876 0.6854 0.0
H1054 H 0.60512 0.09007 0.66042 0.0
C1055 C 0.65972 0.0346 0.66162 0.0
H1056 H 0.64274 0.09603 0.70361 0.0
C1057 C 0.63833 0.0314 0.6367 0.0
C1058 C 0.61892 0.05187 0.63568 0.0
H1059 H 0.67537 0.01962 0.66157 0.0
H1060 H 0.63795 1.014 0.61773 0.0
C1061 C 0.61977 0.07398 0.66061 0.0
C1062 C 0.3037 0.34359 0.94393 0.0
C1063 C 0.33054 0.34709 0.96378 0.0
H1064 H 0.28197 0.33521 0.8985 0.0
C1065 C 0.35689 0.34415 0.9505 0.0
H1066 H 0.28288 0.34586 0.95273 0.0
C1067 C 0.35652 0.33841 0.91899 0.0
C1068 C 0.32971 0.33507 0.8991 0.0
H1069 H 0.37822 0.34692 0.96451 0.0
H1070 H 0.37752 0.3367 0.91019 0.0
C1071 C 0.30323 0.33754 0.91246 0.0
C1072 C 0.06824 0.09277 0.32859 0.0
C1073 C 0.04621 0.06474 0.31228 0.0
H1074 H 0.10399 0.11047 0.36512 0.0
C1075 C 0.04618 0.03232 0.31822 0.0
H1076 H 0.06914 0.11808 0.32401 0.0
C1077 C 0.06532 0.02785 0.34221 0.0
C1078 C 0.08545 0.05578 0.36056 0.0
H1079 H 0.02961 1.0102 0.30581 0.0
H1080 H 0.06217 1.00234 0.34765 0.0
C1081 C 0.08803 0.08831 0.35226 0.0
C1082 C 0.37163 0.75193 0.69079 0.0
C1083 C 0.35495 0.71745 0.68596 0.0
H1084 H 0.38065 0.79777 0.71861 0.0
C1085 C 0.33719 0.70175 0.7081 0.0
H1086 H 0.3856 0.76465 0.67414 0.0
C1087 C 0.33411 0.72076 0.73351 0.0
C1088 C 0.34879 0.75577 0.7372 0.0
H1089 H 0.32424 0.67513 0.70504 0.0
H1090 H 0.31922 0.70818 0.74961 0.0
C1091 C 0.36859 0.77093 0.7162 0.0
C1092 C 0.65563 0.0491 0.83693 0.0
C1093 C 0.66807 0.07764 0.82184 0.0
H1094 H 0.62886 0.02873 0.87218 0.0
C1095 C 0.66143 0.10744 0.82975 0.0
H1096 H 0.66032 0.0258 0.83111 0.0
C1097 C 0.64371 0.10918 0.85309 0.0
C1098 C 0.63214 0.08113 0.86901 0.0
H1099 H 0.67063 0.12984 0.81841 0.0
H1100 H 0.64017 0.13299 0.85943 0.0
C1101 C 0.63779 0.05085 0.86043 0.0
C1102 C 0.31227 0.32124 0.15556 0.0
C1103 C 0.33089 0.35294 0.14808 0.0
H1104 H 0.29537 0.28898 0.19023 0.0
C1105 C 0.34676 0.37658 0.17254 0.0
H1106 H 0.29946 0.3021 0.1379 0.0
C1107 C 0.34437 0.3691 0.20272 0.0
C1108 C 0.32582 0.33751 0.21037 0.0
H1109 H 0.36134 0.40133 0.1684 0.0
H1110 H 0.35736 0.38836 0.22022 0.0
C1111 C 0.3098 0.31373 0.18593 0.0
C1112 C 0.28967 0.06414 0.03203 0.0
C1113 C 0.27666 0.02961 0.03505 0.0
H1114 H 0.28859 0.1141 0.04373 0.0
C1115 C 0.25165 0.01888 0.0522 0.0
H1116 H 0.30913 0.07312 0.01907 0.0
C1117 C 0.24017 0.04232 0.06651 0.0
C1118 C 0.25345 0.07691 0.06387 0.0
H1119 H 0.24125 0.99243 0.05499 0.0
H1120 H 0.22058 0.0333 0.07932 0.0
C1121 C 0.27809 0.0876 0.04625 0.0
C1122 C 0.70527 0.68646 0.06711 0.0
C1123 C 0.72981 0.67657 0.05684 0.0
H1124 H 0.658 0.67106 0.07741 0.0
C1125 C 0.72483 0.64207 0.0492 0.0
H1126 H 0.70837 0.71277 0.07332 0.0
C1127 C 0.6959 0.61808 0.05141 0.0
C1128 C 0.67132 0.62792 0.06171 0.0
H1129 H 0.74327 0.63356 0.04127 0.0
H1130 H 0.69281 0.59182 0.04495 0.0
C1131 C 0.67645 0.66243 0.06966 0.0
C1132 C 0.74908 0.50548 0.28842 0.0
C1133 C 0.74681 0.50858 0.31927 0.0
H1134 H 0.77295 0.49097 0.25352 0.0
C1135 C 0.76729 0.49868 0.33887 0.0
H1136 H 0.73373 0.51316 0.27281 0.0
C1137 C 0.78979 0.48616 0.32785 0.0
C1138 C 0.79227 0.48331 0.297 0.0
H1139 H 0.76611 0.50085 0.36276 0.0
H1140 H 0.80494 0.47819 0.34347 0.0
C1141 C 0.77157 0.49291 0.27738 0.0
C1142 C 0.9404 0.52717 0.50754 0.0
C1143 C 0.92153 0.50328 0.52394 0.0
H1144 H 0.98675 0.55689 0.50184 0.0
C1145 C 0.935 0.49184 0.54856 0.0
H1146 H 0.93043 0.5364 0.48858 0.0
C1147 C 0.96708 0.50417 0.55665 0.0
C1148 C 0.98601 0.52737 0.5397 0.0
H1149 H 0.92071 0.47362 0.56172 0.0
H1150 H 0.97712 0.49498 0.57559 0.0
C1151 C 0.97249 0.5388 0.51513 0.0
C1152 C 0.42912 0.13842 0.26429 0.0
C1153 C 0.43584 0.14139 0.29557 0.0
H1154 H 0.39793 0.1431 0.22741 0.0
C1155 C 0.41712 0.15337 0.31366 0.0
H1156 H 0.44322 0.12918 0.24986 0.0
C1157 C 0.39122 0.16048 0.30092 0.0
C1158 C 0.38365 0.15607 0.26986 0.0
H1159 H 0.42169 0.15598 0.33777 0.0
H1160 H 0.37675 0.16903 0.31544 0.0
C1161 C 0.40322 0.14603 0.25146 0.0
C1162 C 0.36824 0.15693 0.54602 0.0
C1163 C 0.37992 0.19199 0.55324 0.0
H1164 H 0.37739 0.10981 0.54497 0.0
C1165 C 0.41143 0.20654 0.56429 0.0
H1166 H 0.34405 0.14489 0.53752 0.0
C1167 C 0.43063 0.18629 0.56865 0.0
C1168 C 0.41878 0.15112 0.56181 0.0
H1169 H 0.42108 0.23346 0.57011 0.0
H1170 H 0.45478 0.19818 0.57736 0.0
C1171 C 0.38741 0.13679 0.55017 0.0
C1172 C 0.77673 0.67069 0.35015 0.0
C1173 C 0.74668 0.65586 0.33535 0.0
H1174 H 0.81793 0.71354 0.35569 0.0
C1175 C 0.73512 0.67319 0.31406 0.0
H1176 H 0.78618 0.65775 0.36661 0.0
C1177 C 0.75311 0.70497 0.3079 0.0
C1178 C 0.78314 0.72001 0.32274 0.0
H1179 H 0.71202 0.66232 0.3023 0.0
H1180 H 0.74335 0.71775 0.29152 0.0
C1181 C 0.7949 0.70251 0.3438 0.0
C1182 C 0.91906 0.4861 0.88079 0.0
C1183 C 0.90853 0.51179 0.8701 0.0
H1184 H 0.91079 0.43307 0.88023 0.0
C1185 C 0.87796 0.50367 0.85609 0.0
H1186 H 0.94235 0.49164 0.89199 0.0
C1187 C 0.85968 0.46992 0.84965 0.0
C1188 C 0.87207 0.44434 0.857 0.0
H1189 H 0.86926 0.52307 0.84771 0.0
H1190 H 0.83726 0.4639 0.83655 0.0
C1191 C 0.90108 0.45259 0.87399 0.0
C1192 C 0.09774 0.93163 0.09414 0.0
C1193 C 0.12715 0.93493 0.1092 0.0
H1194 H 0.06703 0.95583 0.07357 0.0
C1195 C 0.14886 0.96767 0.11404 0.0
H1196 H 0.08021 0.90711 0.09004 0.0
C1197 C 0.14132 0.99598 0.10424 0.0
C1198 C 0.1116 0.99267 0.0897 0.0
H1199 H 0.1717 0.9715 0.1256 0.0
H1200 H 0.15872 0.02059 0.10848 0.0
C1201 C 0.09007 0.95986 0.08477 0.0
C1202 C 0.95695 0.31344 0.8829 0.0
C1203 C 0.95431 0.31023 0.91354 0.0
H1204 H 0.93699 0.32293 0.84097 0.0
C1205 C 0.92748 0.31394 0.92496 0.0
H1206 H 0.97723 0.31084 0.87321 0.0
C1207 C 0.90431 0.32126 0.90637 0.0
C1208 C 0.90718 0.32485 0.87574 0.0
H1209 H 0.92463 0.31182 0.94842 0.0
H1210 H 0.88422 0.3243 0.91611 0.0
C1211 C 0.93377 0.32048 0.86432 0.0
C1212 C 0.59004 0.22582 0.59602 0.0
C1213 C 0.62096 0.24692 0.60346 0.0
H1214 H 0.55894 0.17646 0.58107 0.0
C1215 C 0.64487 0.23238 0.60019 0.0
H1216 H 0.57086 0.23573 0.59831 0.0
C1217 C 0.63797 0.19782 0.5903 0.0
C1218 C 0.60691 0.17663 0.58334 0.0
H1219 H 0.66897 0.24755 0.60589 0.0
H1220 H 0.65703 0.18764 0.58849 0.0
C1221 C 0.58316 0.19149 0.58614 0.0
C1222 C 0.59786 0.78363 0.38947 0.0
C1223 C 0.60209 0.80515 0.41575 0.0
H1224 H 0.61749 0.77146 0.35032 0.0
C1225 C 0.63052 0.83102 0.42297 0.0
H1226 H 0.57617 0.76347 0.38334 0.0
C1227 C 0.654 0.83575 0.40398 0.0
C1228 C 0.64968 0.81448 0.37753 0.0
H1229 H 0.63446 0.84801 0.44307 0.0
H1230 H 0.67562 0.85604 0.41002 0.0
C1231 C 0.62151 0.78812 0.37064 0.0
C1232 C 0.07605 0.18176 0.45637 0.0
C1233 C 0.07941 0.21467 0.47016 0.0
H1234 H 0.07275 0.12908 0.4601 0.0
C1235 C 0.08128 0.21542 0.50207 0.0
H1236 H 0.0745 0.1783 0.43226 0.0
C1237 C 0.07967 0.18618 0.51851 0.0
C1238 C 0.07657 0.15332 0.50476 0.0
H1239 H 0.08388 0.23908 0.5148 0.0
H1240 H 0.08128 0.18969 0.54262 0.0
C1241 C 0.07501 0.15264 0.47284 0.0
C1242 C 0.70057 0.33994 0.23054 0.0
C1243 C 0.67128 0.32036 0.2394 0.0
H1244 H 0.75138 0.35472 0.2348 0.0
C1245 C 0.6754 0.29917 0.26207 0.0
H1246 H 0.70031 0.35683 0.21345 0.0
C1247 C 0.70565 0.2976 0.27447 0.0
C1248 C 0.73495 0.31725 0.26565 0.0
H1249 H 0.65481 0.2831 0.27039 0.0
H1250 H 0.70589 0.28054 0.29143 0.0
C1251 C 0.73082 0.33862 0.24314 0.0
C1252 C 0.58552 0.93303 0.95666 0.0
C1253 C 0.58763 0.90431 0.97103 0.0
H1254 H 0.58205 0.98379 0.9597 0.0
C1255 C 0.58795 0.90857 1.00267 0.0
H1256 H 0.58501 0.93207 0.93259 0.0
C1257 C 0.58642 0.93903 0.01861 0.0
C1258 C 0.58409 0.96768 1.00424 0.0
H1259 H 0.5894 0.88806 0.01549 0.0
H1260 H 0.58685 0.93991 0.04266 0.0
C1261 C 0.58371 0.96338 0.97256 0.0
C1262 C 0.97926 0.83884 0.76176 0.0
C1263 C 0.982 0.81297 0.74055 0.0
H1264 H 0.95161 0.85961 0.79046 0.0
C1265 C 0.95273 0.78624 0.73463 0.0
H1266 H 0.99966 0.86053 0.76807 0.0
C1267 C 0.92425 0.78536 0.74849 0.0
C1268 C 0.92141 0.8114 0.76944 0.0
H1269 H 0.9516 0.76515 0.71895 0.0
H1270 H 0.90382 0.76384 0.74212 0.0
C1271 C 0.9506 0.83827 0.77511 0.0
C1272 C 0.17602 0.08684 0.95725 0.0
C1273 C 0.16469 0.05787 0.93696 0.0
H1274 H 0.17031 0.11242 0.99784 0.0
C1275 C 0.14017 0.03056 0.94389 0.0
H1276 H 0.19508 0.10819 0.95253 0.0
C1277 C 0.12581 0.03306 0.9697 0.0
C1278 C 0.1358 0.0629 0.98903 0.0
H1279 H 0.13107 1.00788 0.92868 0.0
H1280 H 0.10617 1.01204 0.97386 0.0
C1281 C 0.16174 0.08932 0.98312 0.0
C1282 C 0.83136 0.45103 0.61403 0.0
C1283 C 0.82389 0.42883 0.58794 0.0
H1284 H 0.849 0.45972 0.66003 0.0
C1285 C 0.82569 0.3961 0.58931 0.0
H1286 H 0.83043 0.47651 0.61361 0.0
C1287 C 0.83618 0.38629 0.61614 0.0
C1288 C 0.84508 0.40911 0.64194 0.0
H1289 H 0.82016 0.37853 0.56945 0.0
H1290 H 0.83773 0.36106 0.61657 0.0
C1291 C 0.84202 0.44136 0.64068 0.0
C1292 C 0.5603 0.12391 0.42963 0.0
C1293 C 0.52793 0.11661 0.42351 0.0
H1294 H 0.59771 0.12182 0.46085 0.0
C1295 C 0.50876 0.10649 0.4462 0.0
H1296 H 0.57557 0.13175 0.41242 0.0
C1297 C 0.52132 0.10067 0.47367 0.0
C1298 C 0.55328 0.10474 0.4789 0.0
H1299 H 0.48377 0.10101 0.44212 0.0
H1300 H 0.50564 0.09142 0.49028 0.0
C1301 C 0.57293 0.11796 0.45722 0.0
C1302 C 0.80858 0.80228 0.15964 0.0
C1303 C 0.82804 0.78532 0.14748 0.0
H1304 H 0.79337 0.82174 0.19915 0.0
C1305 C 0.84784 0.77545 0.16829 0.0
H1306 H 0.79277 0.81023 0.14482 0.0
C1307 C 0.84805 0.78182 0.19959 0.0
C1308 C 0.82846 0.79848 0.2119 0.0
H1309 H 0.86317 0.76221 0.16037 0.0
H1310 H 0.8637 0.77344 0.21424 0.0
C1311 C 0.80886 0.8088 0.19111 0.0
C1312 C 0.08997 0.02333 0.78144 0.0
C1313 C 0.10393 0.05131 0.80232 0.0
H1314 H 0.06355 1.00535 0.7389 0.0
C1315 C 0.09592 0.08086 0.7994 0.0
H1316 H 0.09525 1.00001 0.78344 0.0
C1317 C 0.07827 0.08416 0.77367 0.0
C1318 C 0.06814 0.05781 0.75064 0.0
H1319 H 0.10594 0.10271 0.81543 0.0
H1320 H 0.07567 0.10858 0.77053 0.0
C1321 C 0.07191 0.02647 0.75589 0.0
C1322 C 0.79545 0.37791 0.42536 0.0
C1323 C 0.806 0.4131 0.42543 0.0
H1324 H 0.79092 0.33051 0.40173 0.0
C1325 C 0.81708 0.42752 0.39967 0.0
H1326 H 0.78679 0.36617 0.44496 0.0
C1327 C 0.81929 0.40711 0.37484 0.0
C1328 C 0.81087 0.372 0.37559 0.0
H1329 H 0.82523 0.45461 0.39914 0.0
H1330 H 0.82896 0.41898 0.35565 0.0
C1331 C 0.79806 0.35753 0.40072 0.0
C1332 C 0.56815 0.04469 0.29407 0.0
C1333 C 0.56874 0.07793 0.30122 0.0
H1334 H 0.57979 1.01113 0.26347 0.0
C1335 C 0.5901 0.10424 0.28907 0.0
H1336 H 0.55243 0.02394 0.30372 0.0
C1337 C 0.60693 0.09697 0.26649 0.0
C1338 C 0.60152 0.06334 0.25512 0.0
H1339 H 0.59172 0.13022 0.29503 0.0
H1340 H 0.62133 0.11764 0.25572 0.0
C1341 C 0.58428 0.03738 0.27102 0.0
C1342 C 0.84682 0.80763 0.95471 0.0
C1343 C 0.82672 0.77702 0.96275 0.0
H1344 H 0.86527 0.83809 0.91943 0.0
C1345 C 0.80991 0.75326 0.93871 0.0
H1346 H 0.86041 0.82675 0.97206 0.0
C1347 C 0.81282 0.75966 0.90836 0.0
C1348 C 0.8328 0.7902 0.90017 0.0
H1349 H 0.79422 0.72928 0.94333 0.0
H1350 H 0.79905 0.74043 0.89117 0.0
C1351 C 0.84974 0.81408 0.92419 0.0
C1352 C 0.86809 0.06635 0.07036 0.0
C1353 C 0.88373 0.10058 0.07928 0.0
H1354 H 0.86999 0.02094 0.04699 0.0
C1355 C 0.91446 0.11488 0.07291 0.0
H1356 H 0.84427 0.05478 0.07491 0.0
C1357 C 0.92893 0.09569 0.05685 0.0
C1358 C 0.91292 0.06187 0.04675 0.0
H1359 H 0.9271 0.14115 0.07963 0.0
H1360 H 0.95273 0.10741 0.05229 0.0
C1361 C 0.88263 0.04708 0.05423 0.0
C1362 C 0.4346 0.4881 0.06064 0.0
C1363 C 0.42904 0.45323 0.05478 0.0
H1364 H 0.4675 0.53776 0.06329 0.0
C1365 C 0.45344 0.44197 0.04612 0.0
H1366 H 0.41627 0.49764 0.06728 0.0
C1367 C 0.4827 0.46504 0.04338 0.0
C1368 C 0.48839 0.49994 0.04954 0.0
H1369 H 0.44989 0.41533 0.04128 0.0
H1370 H 0.50103 0.4554 0.0369 0.0
C1371 C 0.46396 0.51115 0.05824 0.0
C1372 C 0.39047 0.63361 0.77584 0.0
C1373 C 0.41462 0.6278 0.79386 0.0
H1374 H 0.35028 0.65002 0.77425 0.0
C1375 C 0.41657 0.6343 0.82502 0.0
H1376 H 0.38837 0.62876 0.75177 0.0
C1377 C 0.39444 0.64591 0.83795 0.0
C1378 C 0.36997 0.65121 0.81996 0.0
H1379 H 0.43481 0.62975 0.83947 0.0
H1380 H 0.39627 0.65038 0.86204 0.0
C1381 C 0.36838 0.64525 0.78876 0.0
C1382 C 0.22407 0.59802 0.59217 0.0
C1383 C 0.23867 0.63263 0.59122 0.0
H1384 H 0.18159 0.55709 0.58428 0.0
C1385 C 0.22092 0.65305 0.58203 0.0
H1386 H 0.2373 0.58175 0.5991 0.0
C1387 C 0.18916 0.63891 0.57317 0.0
C1388 C 0.17464 0.60419 0.5736 0.0
H1389 H 0.23169 0.67981 0.58095 0.0
H1390 H 0.17606 0.65518 0.56591 0.0
C1391 C 0.19226 0.58392 0.58354 0.0
C1392 C 0.81888 0.03533 0.74974 0.0
C1393 C 0.79798 0.03702 0.77065 0.0
H1394 H 0.85944 0.02161 0.74094 0.0
C1395 C 0.80352 0.02885 0.79972 0.0
H1396 H 0.81523 0.04194 0.72723 0.0
C1397 C 0.8289 0.01829 0.80768 0.0
C1398 C 0.84935 1.01528 0.78669 0.0
H1399 H 0.78808 0.03036 0.81646 0.0
H1400 H 0.8314 1.01072 0.82999 0.0
C1401 C 0.84428 0.02415 0.75764 0.0
C1402 C 0.79354 0.97669 0.54347 0.0
C1403 C 0.78057 0.94322 0.55 0.0
H1404 H 0.78604 0.02316 0.53463 0.0
C1405 C 0.74851 0.93116 0.55278 0.0
H1406 H 0.8181 0.98677 0.54089 0.0
C1407 C 0.72999 0.95238 0.54959 0.0
C1408 C 0.74312 0.9861 0.5434 0.0
H1409 H 0.73783 0.9055 0.55783 0.0
H1410 H 0.70553 0.94253 0.55257 0.0
C1411 C 0.77511 0.99773 0.54008 0.0
C1412 C 0.38181 0.47227 0.78276 0.0
C1413 C 0.40695 0.47675 0.76561 0.0
H1414 H 0.34681 0.43768 0.80411 0.0
C1415 C 0.41533 0.44872 0.75555 0.0
H1416 H 0.3749 0.49355 0.79075 0.0
C1417 C 0.39961 0.41685 0.76355 0.0
C1418 C 0.37501 0.41246 0.78146 0.0
H1419 H 0.43474 0.45155 0.74239 0.0
H1420 H 0.40696 0.39575 0.75593 0.0
C1421 C 0.36584 0.44034 0.79049 0.0
C1422 C 0.23611 0.68464 0.28072 0.0
C1423 C 0.24944 0.6586 0.27932 0.0
H1424 H 0.24382 0.73746 0.28872 0.0
C1425 C 0.28195 0.66648 0.28421 0.0
H1426 H 0.2111 0.67926 0.27717 0.0
C1427 C 0.30082 0.70001 0.29049 0.0
C1428 C 0.28733 0.72594 0.2926 0.0
H1429 H 0.29275 0.64677 0.28326 0.0
H1430 H 0.32584 0.70558 0.29424 0.0
C1431 C 0.25484 0.71794 0.28757 0.0
C1432 C 0.56292 0.71514 0.53483 0.0
C1433 C 0.54067 0.71133 0.51002 0.0
H1434 H 0.58862 0.6918 0.56369 0.0
C1435 C 0.52678 0.67845 0.49572 0.0
H1436 H 0.57439 0.73984 0.54647 0.0
C1437 C 0.53513 0.65065 0.50553 0.0
C1438 C 0.55776 0.65455 0.53009 0.0
H1439 H 0.50969 0.6742 0.47648 0.0
H1440 H 0.52393 0.62604 0.49363 0.0
C1441 C 0.57122 0.68736 0.54469 0.0
C1442 C 0.74607 0.36521 0.70911 0.0
C1443 C 0.71483 0.35413 0.71537 0.0
H1444 H 0.79414 0.37426 0.72507 0.0
C1445 C 0.70892 0.3442 0.74412 0.0
H1446 H 0.75164 0.37301 0.68729 0.0
C1447 C 0.73327 0.34479 0.76575 0.0
C1448 C 0.76453 0.35564 0.75956 0.0
H1449 H 0.68525 0.33546 0.74991 0.0
H1450 H 0.72748 0.33651 0.78739 0.0
C1451 C 0.77053 0.36607 0.73092 0.0
C1452 C 1.02817 0.41636 0.01764 0.0
C1453 C 0.05189 0.40308 0.01014 0.0
H1454 H 1.01576 0.46046 0.03096 0.0
C1455 C 0.08231 0.42567 0.01131 0.0
H1456 H 1.00441 0.3999 0.01676 0.0
C1457 C 0.08885 0.46028 0.01947 0.0
C1458 C 0.06515 0.47384 0.02649 0.0
H1459 H 0.10124 0.41662 1.0056 0.0
H1460 H 0.11264 0.47652 0.01993 0.0
C1461 C 0.03467 0.45123 0.02558 0.0
C1462 C 0.07173 0.84768 0.23384 0.0
C1463 C 0.0661 0.83532 0.20353 0.0
H1464 H 0.05243 0.85164 0.27514 0.0
C1465 C 0.03552 0.817 0.19163 0.0
H1466 H 0.09504 0.86192 0.24366 0.0
C1467 C 1.01111 0.81102 0.20967 0.0
C1468 C 1.01673 0.8231 0.24008 0.0
H1469 H 0.03044 0.80707 0.16837 0.0
H1470 H 0.98789 0.79639 0.19991 0.0
C1471 C 0.04734 0.84159 0.25192 0.0
C1472 C 0.57865 0.41055 0.10833 0.0
C1473 C 0.5805 0.41111 0.14019 0.0
H1474 H 0.57867 0.43664 0.06803 0.0
C1475 C 0.5838 0.44383 0.15428 0.0
H1476 H 0.57609 0.38699 0.09544 0.0
C1477 C 0.5848 0.47305 0.13807 0.0
C1478 C 0.58325 0.47257 0.1062 0.0
H1479 H 0.58533 0.44704 0.17841 0.0
H1480 H 0.58702 0.49648 0.15096 0.0
C1481 C 0.58024 0.4399 0.09215 0.0
C1482 C 0.95888 0.28441 0.3777 0.0
C1483 C 0.98825 0.30576 0.37047 0.0
H1484 H 0.90802 0.26837 0.37227 0.0
C1485 C 0.98419 0.32895 0.34967 0.0
H1486 H 0.95909 0.26592 0.39331 0.0
C1487 C 0.95393 0.33077 0.33755 0.0
C1488 C 0.92455 0.30931 0.34468 0.0
H1489 H 1.00483 0.34647 0.3427 0.0
H1490 H 0.95374 0.34944 0.32212 0.0
C1491 C 0.92864 0.28591 0.36528 0.0
C1492 C 0.0734 0.69122 0.65486 0.0
C1493 C 0.07052 0.71969 0.64047 0.0
H1494 H 0.0774 0.64061 0.65187 0.0
C1495 C 0.06933 0.71496 0.60875 0.0
H1496 H 0.07462 0.69247 0.67898 0.0
C1497 C 0.07076 0.68441 0.59282 0.0
C1498 C 0.07379 0.65596 0.60718 0.0
H1499 H 0.06727 0.73519 0.59584 0.0
H1500 H 0.06967 0.6833 0.56872 0.0
C1501 C 0.07507 0.66073 0.63894 0.0
C1502 C 0.67801 0.78793 0.84748 0.0
C1503 C 0.67612 0.81126 0.87158 0.0
H1504 H 0.70499 0.7692 0.81648 0.0
C1505 C 0.70638 0.83537 0.88074 0.0
H1506 H 0.65678 0.76835 0.83857 0.0
C1507 C 0.73504 0.83619 0.86727 0.0
C1508 C 0.73697 0.8127 0.84331 0.0
H1509 H 0.70819 0.85435 0.89882 0.0
H1510 H 0.75627 0.8557 0.87625 0.0
C1511 C 0.70675 0.78844 0.83431 0.0
C1512 C 0.48539 0.57385 0.65111 0.0
C1513 C 0.50154 0.59253 0.67771 0.0
H1514 H 0.4886 0.55546 0.6065 0.0
C1515 C 0.53338 0.6102 0.67855 0.0
H1516 H 0.46078 0.56006 0.64988 0.0
C1517 C 0.54935 0.60708 0.65405 0.0
C1518 C 0.53368 0.58659 0.62812 0.0
H1519 H 0.54641 0.62488 0.69873 0.0
H1520 H 0.57417 0.61993 0.65579 0.0
C1521 C 0.50133 0.57107 0.62638 0.0
C1522 C 0.81696 0.25414 0.04212 0.0
C1523 C 0.82647 0.22564 0.03681 0.0
H1524 H 0.80234 0.2929 0.02301 0.0
C1525 C 0.82805 0.2139 1.0074 0.0
H1526 H 0.81547 0.26357 0.06469 0.0
C1527 C 0.8196 0.22988 0.98359 0.0
C1528 C 0.81006 0.25849 0.98868 0.0
H1529 H 0.83478 0.19159 1.00266 0.0
H1530 H 0.81999 0.21931 0.96116 0.0
C1531 C 0.80907 0.27062 0.01825 0.0
C1532 C 0.1698 0.54625 0.15933 0.0
C1533 C 0.15188 0.53406 0.1824 0.0
H1534 H 0.17019 0.56271 0.1157 0.0
C1535 C 0.11923 0.52429 0.17728 0.0
H1536 H 0.19498 0.55359 0.16264 0.0
C1537 C 0.1049 0.52999 0.15045 0.0
C1538 C 0.12314 0.54539 0.12855 0.0
H1539 H 0.10489 0.51474 0.19478 0.0
H1540 H 0.07984 0.52428 0.14767 0.0
C1541 C 0.15555 0.55179 0.13259 0.0
C1542 C 0.80677 0.84039 0.44804 0.0
C1543 C 0.83382 0.84517 0.46795 0.0
H1544 H 0.78514 0.83126 0.40258 0.0
C1545 C 0.86068 0.84368 0.45477 0.0
H1546 H 0.78556 0.84153 0.45675 0.0
C1547 C 0.86057 0.83807 0.42327 0.0
C1548 C 0.83354 0.83351 0.40331 0.0
H1549 H 0.88219 0.84748 0.46885 0.0
H1550 H 0.88193 0.83749 0.41454 0.0
C1551 C 0.80659 0.83456 0.41659 0.0
C1552 C 0.53985 0.53024 0.82025 0.0
C1553 C 0.54122 0.56279 0.81346 0.0
H1554 H 0.55537 0.50015 0.84995 0.0
C1555 C 0.56442 0.59055 0.82884 0.0
H1556 H 0.52231 0.5083 0.80862 0.0
C1557 C 0.58439 0.58586 0.85225 0.0
C1558 C 0.58097 0.55337 0.86108 0.0
H1559 H 0.56627 0.61592 0.82365 0.0
H1560 H 0.60138 0.60784 0.86436 0.0
C1561 C 0.55927 0.52557 0.8439 0.0
C1562 C 0.86834 0.25063 0.18718 0.0
C1563 C 0.85592 0.21542 0.18571 0.0
H1564 H 0.87417 0.29768 0.21195 0.0
C1565 C 0.84314 0.20037 0.21061 0.0
H1566 H 0.87849 0.26291 0.16836 0.0
C1567 C 0.8406 0.22031 0.23564 0.0
C1568 C 0.85064 0.25561 0.23605 0.0
H1569 H 0.83357 0.17324 0.21013 0.0
H1570 H 0.82941 0.20798 0.25399 0.0
C1571 C 0.86563 0.27056 0.21208 0.0
C1572 C 0.09302 0.53732 0.32208 0.0
C1573 C 0.11513 0.56594 0.3138 0.0
H1574 H 0.05742 0.51834 0.35048 0.0
C1575 C 0.11432 0.598 0.3237 0.0
H1576 H 0.0926 0.51228 0.31397 0.0
C1577 C 0.0947 0.60153 0.34484 0.0
C1578 C 0.07533 0.57298 0.35629 0.0
H1579 H 0.13065 0.62053 0.31707 0.0
H1580 H 0.09739 0.62677 0.35431 0.0
C1581 C 0.0729 0.54084 0.34294 0.0
C1582 C 0.81993 0.81954 0.65965 0.0
C1583 C 0.83152 0.85308 0.65219 0.0
H1584 H 0.80849 0.78562 0.69414 0.0
C1585 C 0.83987 0.8784 0.67657 0.0
H1586 H 0.81311 0.79904 0.64207 0.0
C1587 C 0.83702 0.87072 0.7067 0.0
C1588 C 0.82566 0.83722 0.7143 0.0
H1589 H 0.84884 0.9046 0.67239 0.0
H1590 H 0.84408 0.89133 0.72417 0.0
C1591 C 0.81715 0.81182 0.68989 0.0
C1592 C 0.79338 0.57212 0.52722 0.0
C1593 C 0.77774 0.53724 0.52397 0.0
H1594 H 0.79331 0.62085 0.5451 0.0
C1595 C 0.74863 0.52491 0.5347 0.0
H1596 H 0.8159 0.58223 0.51911 0.0
C1597 C 0.73622 0.5468 0.54998 0.0
C1598 C 0.75251 0.5814 0.55447 0.0
H1599 H 0.73608 0.49819 0.53255 0.0
H1600 H 0.714 0.53661 0.55866 0.0
C1601 C 0.78068 0.59414 0.54219 0.0
C1602 C 0.22415 0.14324 0.54741 0.0
C1603 C 0.22895 0.1778 0.55447 0.0
H1604 H 0.19244 0.0929 0.54419 0.0
C1605 C 0.20447 0.18774 0.56481 0.0
H1606 H 0.24256 0.1347 0.53945 0.0
C1607 C 0.17587 0.16369 0.56799 0.0
C1608 C 0.17091 0.12911 0.5606 0.0
H1609 H 0.20745 0.21411 0.57058 0.0
H1610 H 0.15744 0.17234 0.57574 0.0
C1611 C 0.19543 0.11922 0.55024 0.0
C1612 C 0.2642 0.9981 0.83725 0.0
C1613 C 0.24388 1.00811 0.81756 0.0
H1614 H 0.30156 0.97718 0.84202 0.0
C1615 C 0.24602 1.00458 0.78671 0.0
H1616 H 0.26312 1.00059 0.86115 0.0
C1617 C 0.26825 0.99151 0.77576 0.0
C1618 C 0.28885 0.9819 0.79548 0.0
H1619 H 0.23077 1.0123 0.77102 0.0
H1620 H 0.26956 0.98927 0.7519 0.0
C1621 C 0.28647 0.98513 0.82632 0.0
C1622 C 0.43547 0.03425 0.0184 0.0
C1623 C 0.41963 0.99979 0.01836 0.0
H1624 H 0.47906 0.07349 0.02694 0.0
C1625 C 0.43616 0.97792 0.02679 0.0
H1626 H 0.42317 0.05161 0.01209 0.0
C1627 C 0.46802 0.99047 0.03578 0.0
C1628 C 0.48384 0.025 0.03608 0.0
H1629 H 0.42437 0.95124 0.02718 0.0
H1630 H 0.48023 0.97314 0.04237 0.0
C1631 C 0.46738 0.04674 0.02701 0.0
C1632 C 0.90529 0.61384 0.76537 0.0
C1633 C 0.92717 0.637 0.78664 0.0
H1634 H 0.86362 0.60422 0.73553 0.0
C1635 C 0.92741 0.67053 0.78967 0.0
H1636 H 0.90472 0.5878 0.76244 0.0
C1637 C 0.90441 0.68005 0.77359 0.0
C1638 C 0.88052 0.65599 0.75475 0.0
H1639 H 0.9442 0.68889 0.8057 0.0
H1640 H 0.90367 0.70549 0.7781 0.0
C1641 C 0.88188 0.62317 0.74979 0.0
C1642 C 0.91433 0.70592 0.06138 0.0
C1643 C 0.88196 0.69125 0.06084 0.0
H1644 H 0.95903 0.69824 0.06503 0.0
C1645 C 0.87001 0.65675 0.06442 0.0
H1646 H 0.92425 0.73246 0.05873 0.0
C1647 C 0.8898 0.63731 0.06843 0.0
C1648 C 0.92221 0.65168 0.06873 0.0
H1649 H 0.8452 0.64466 0.06439 0.0
H1650 H 0.8796 0.61097 0.07168 0.0
C1651 C 0.93425 0.68632 0.06523 0.0
C1652 C 0.23174 0.17335 0.81073 0.0
C1653 C 0.24373 0.1562 0.83187 0.0
H1654 H 0.23935 0.21791 0.78821 0.0
C1655 C 0.27386 0.17128 0.84641 0.0
H1656 H 0.20854 0.16228 0.7992 0.0
C1657 C 0.29168 0.20317 0.83996 0.0
C1658 C 0.27951 0.22052 0.81905 0.0
H1659 H 0.28363 0.15849 0.86276 0.0
H1660 H 0.31478 0.21436 0.85165 0.0
C1661 C 0.2494 0.20524 0.80446 0.0
C1662 C 0.415 0.97825 0.34831 0.0
C1663 C 0.42742 0.99416 0.32365 0.0
H1664 H 0.38613 0.93349 0.36412 0.0
C1665 C 0.41889 0.9767 0.29507 0.0
H1666 H 0.4211 0.99117 0.3706 0.0
C1667 C 0.39885 0.9436 0.29131 0.0
C1668 C 0.38691 0.92739 0.31607 0.0
H1669 H 0.42806 0.98843 0.27564 0.0
H1670 H 0.3931 0.93061 0.26905 0.0
C1671 C 0.39491 0.94521 0.34456 0.0
C1672 C 0.64637 0.46168 0.61299 0.0
C1673 C 0.62444 0.42902 0.60845 0.0
H1674 H 0.65652 0.51464 0.60745 0.0
C1675 C 0.59491 0.42603 0.59381 0.0
H1676 H 0.66931 0.46534 0.62426 0.0
C1677 C 0.58738 0.45442 0.58454 0.0
C1678 C 0.60912 0.48715 0.58922 0.0
H1679 H 0.57718 0.40162 0.58995 0.0
H1680 H 0.56423 0.45057 0.57366 0.0
C1681 C 0.63893 0.49015 0.60338 0.0
C1682 C 0.45764 0.8054 0.3791 0.0
C1683 C 0.45198 0.79791 0.40851 0.0
H1684 H 0.43998 0.8156 0.33649 0.0
C1685 C 0.42188 0.79402 0.41671 0.0
H1686 H 0.48043 0.80864 0.37182 0.0
C1687 C 0.39833 0.79797 0.39614 0.0
C1688 C 0.40428 0.80608 0.36684 0.0
H1689 H 0.4166 0.78833 0.43911 0.0
H1690 H 0.37559 0.79517 0.40339 0.0
C1691 C 0.43429 0.80946 0.3587 0.0
C1692 C 0.14019 0.7415 0.08504 0.0
C1693 C 0.12516 0.74948 0.1093 0.0
H1694 H 0.14674 0.70246 0.05518 0.0
C1695 C 0.10472 0.72254 0.1219 0.0
H1696 H 0.15615 0.76144 0.07475 0.0
C1697 C 0.09932 0.68894 0.11077 0.0
C1698 C 0.11425 0.68067 0.08659 0.0
H1699 H 0.09265 0.72737 0.14056 0.0
H1700 H 0.08322 0.66936 0.1213 0.0
C1701 C 0.13486 0.70757 0.07389 0.0
C1702 C 0.12732 0.33886 0.91511 0.0
C1703 C 0.10024 0.31083 0.91106 0.0
H1704 H 0.17055 0.36457 0.89892 0.0
C1705 C 0.09634 0.28646 0.88693 0.0
H1706 H 0.13097 0.35806 0.93351 0.0
C1707 C 0.11916 0.29008 0.86723 0.0
C1708 C 0.14603 0.31838 0.87108 0.0
H1709 H 0.0757 0.26457 0.8833 0.0
H1710 H 0.11557 0.27104 0.84872 0.0
C1711 C 0.14989 0.3427 0.89523 0.0
C1712 C 0.57971 0.71339 1.0024 0.0
C1713 C 0.57794 0.71266 0.97052 0.0
H1714 H 0.57993 0.68765 0.04289 0.0
C1715 C 0.57505 0.67995 0.95664 0.0
H1716 H 0.58199 0.73696 0.01514 0.0
C1717 C 0.57435 0.65092 0.97305 0.0
C1718 C 0.57582 0.65158 1.00494 0.0
H1719 H 0.57364 0.6766 0.93253 0.0
H1720 H 0.57244 0.62747 0.96031 0.0
C1721 C 0.57844 0.68424 0.01877 0.0
C1722 C 0.17453 0.79943 0.76242 0.0
C1723 C 0.17076 0.82152 0.74046 0.0
H1724 H 0.20455 0.77974 0.79123 0.0
C1725 C 0.20025 0.84175 0.73247 0.0
H1726 H 0.15377 0.78282 0.77004 0.0
C1727 C 0.23037 0.84021 0.74528 0.0
C1728 C 0.23412 0.81785 0.76703 0.0
H1729 H 0.20025 0.85936 0.71596 0.0
H1730 H 0.25112 0.85685 0.73767 0.0
C1731 C 0.2046 0.79755 0.7749 0.0
C1732 C 0.09493 0.4382 0.45703 0.0
C1733 C 0.08949 0.40694 0.47003 0.0
H1734 H 0.09796 0.49129 0.46111 0.0
C1735 C 0.0825 0.40898 0.50019 0.0
H1736 H 0.10027 0.43911 0.43411 0.0
C1737 C 0.08103 0.43954 0.51598 0.0
C1738 C 0.08646 0.47083 0.50306 0.0
H1739 H 0.07788 0.38652 0.51192 0.0
H1740 H 0.07548 0.43845 0.53884 0.0
C1741 C 0.09353 0.46886 0.47287 0.0
C1742 C 0.45244 0.28892 0.23081 0.0
C1743 C 0.48268 0.31343 0.23912 0.0
H1744 H 0.40271 0.26875 0.23606 0.0
C1745 C 0.48098 0.33762 0.26255 0.0
H1746 H 0.4505 0.2693 0.21326 0.0
C1747 C 0.45241 0.33754 0.27584 0.0
C1748 C 0.42223 0.31285 0.26775 0.0
H1749 H 0.50219 0.35758 0.27078 0.0
H1750 H 0.45427 0.35746 0.29306 0.0
C1751 C 0.42398 0.2885 0.24447 0.0
C1752 C 0.63847 0.5272 0.44338 0.0
C1753 C 0.66419 0.55409 0.4379 0.0
H1754 H 0.60301 0.50864 0.472 0.0
C1755 C 0.67607 0.58193 0.45935 0.0
H1756 H 0.6289 0.50539 0.42724 0.0
C1757 C 0.66126 0.58386 0.48494 0.0
C1758 C 0.63419 0.55804 0.48945 0.0
H1759 H 0.69607 0.60289 0.45578 0.0
H1760 H 0.67039 0.60617 0.5006 0.0
C1761 C 0.62356 0.52918 0.46895 0.0
C1762 C 0.32481 0.87815 0.08233 0.0
C1763 C 0.33478 0.91345 0.08325 0.0
H1764 H 0.32603 0.83507 0.10494 0.0
C1765 C 0.35465 0.93255 0.10789 0.0
H1766 H 0.30968 0.86285 0.06343 0.0
C1767 C 0.36454 0.91678 0.13111 0.0
C1768 C 0.35446 0.8815 0.1305 0.0
H1769 H 0.36315 0.95979 0.10901 0.0
H1770 H 0.38034 0.93231 0.14951 0.0
C1771 C 0.3345 0.86228 0.10585 0.0
C1772 C 1.01522 0.63238 0.95404 0.0
C1773 C 1.02925 0.63342 0.92743 0.0
H1774 H 1.0171 0.62214 0.9997 0.0
C1775 C 0.05912 0.62993 0.92795 0.0
H1776 H 0.99226 0.63504 0.95431 0.0
C1777 C 0.07314 0.62175 0.9538 0.0
C1778 C 0.05772 0.61748 0.97965 0.0
H1779 H 0.07058 0.63069 0.90776 0.0
H1780 H 0.09529 0.61716 0.95306 0.0
C1781 C 1.02939 0.62461 0.97997 0.0
C1782 C 0.34467 0.27446 0.66446 0.0
C1783 C 0.32591 0.28549 0.64348 0.0
H1784 H 0.35952 0.27157 0.71052 0.0
C1785 C 0.30723 0.30355 0.65545 0.0
H1786 H 0.35937 0.26035 0.65669 0.0
C1787 C 0.30723 0.31 0.68689 0.0
C1788 C 0.32584 0.29861 0.70785 0.0
H1789 H 0.29221 0.31241 0.64049 0.0
H1790 H 0.29235 0.32382 0.69476 0.0
C1791 C 0.34467 0.28085 0.69574 0.0
C1792 C 0.59286 0.52391 0.28215 0.0
C1793 C 0.60705 0.55195 0.30291 0.0
H1794 H 0.5661 0.50579 0.23978 0.0
C1795 C 0.59943 0.5817 0.29978 0.0
H1796 H 0.59786 0.50046 0.2843 0.0
C1797 C 0.58172 0.58497 0.27407 0.0
C1798 C 0.57114 0.55841 0.25126 0.0
H1799 H 0.60968 0.60363 0.31569 0.0
H1800 H 0.57929 0.60944 0.27081 0.0
C1801 C 0.57476 0.52703 0.25662 0.0
C1802 C 0.31916 0.92862 0.90178 0.0
C1803 C 0.30187 0.91389 0.92458 0.0
H1804 H 0.3371 0.92051 0.86064 0.0
C1805 C 0.28589 0.87917 0.9212 0.0
H1806 H 0.33153 0.95538 0.90369 0.0
C1807 C 0.2892 0.85911 0.89658 0.0
C1808 C 0.30866 0.87349 0.87507 0.0
H1809 H 0.27234 0.86718 0.93841 0.0
H1810 H 0.27779 0.83218 0.89523 0.0
C1811 C 0.32259 0.90859 0.87728 0.0
C1812 C 1.01613 0.52295 0.78561 0.0
C1813 C 1.02802 0.55696 0.79693 0.0
H1814 H 1.01796 0.48539 0.75198 0.0
C1815 C 0.05445 0.57811 0.78605 0.0
H1816 H 0.99586 0.50608 0.79383 0.0
C1817 C 0.06721 0.56617 0.7624 0.0
C1818 C 0.05349 0.53304 0.74924 0.0
H1819 H 0.06417 0.60435 0.79465 0.0
H1820 H 0.08625 0.58358 0.75298 0.0
C1821 C 1.02869 0.51111 0.76174 0.0
C1822 C 0.30673 0.25701 0.43493 0.0
C1823 C 0.32516 0.27967 0.45896 0.0
H1824 H 0.29484 0.24498 0.3874 0.0
C1825 C 0.34701 0.30915 0.45094 0.0
H1826 H 0.28966 0.23391 0.43954 0.0
C1827 C 0.35006 0.31559 0.42044 0.0
C1828 C 0.33158 0.29276 0.39643 0.0
H1829 H 0.36189 0.32738 0.46829 0.0
H1830 H 0.36701 0.33871 0.41569 0.0
C1831 C 0.30984 0.26334 0.40459 0.0
C1832 C 0.41505 0.62459 0.56294 0.0
C1833 C 0.3845 0.6108 0.57003 0.0
H1834 H 0.45333 0.61559 0.54339 0.0
C1835 C 0.36872 0.57639 0.56221 0.0
H1836 H 0.42772 0.65104 0.56869 0.0
C1837 C 0.38313 0.55617 0.54721 0.0
C1838 C 0.4136 0.57002 0.53981 0.0
H1839 H 0.34501 0.56516 0.56723 0.0
H1840 H 0.37036 0.5298 0.54118 0.0
C1841 C 0.42949 0.60438 0.54804 0.0
C1842 C 0.95471 0.94226 0.54989 0.0
C1843 C 0.93025 0.95325 0.55881 0.0
H1844 H 1.00189 0.95613 0.53939 0.0
C1845 C 0.93531 0.98811 0.56391 0.0
H1846 H 0.95153 0.91563 0.54557 0.0
C1847 C 0.96424 1.01142 0.56047 0.0
C1848 C 0.9887 1.00047 0.5514 0.0
H1849 H 0.9169 0.99744 0.5707 0.0
H1850 H 0.96742 0.03803 0.56494 0.0
C1851 C 0.98351 0.96557 0.54607 0.0
C1852 C 0.89088 0.13182 0.27242 0.0
C1853 C 0.9142 0.1256 0.29133 0.0
H1854 H 0.85089 0.14855 0.2692 0.0
C1855 C 0.91451 0.13115 0.32239 0.0
H1856 H 0.89007 0.12767 0.24839 0.0
C1857 C 0.89163 0.14227 0.33436 0.0
C1858 C 0.86813 0.14833 0.3155 0.0
H1859 H 0.932 0.12615 0.33751 0.0
H1860 H 0.89219 0.14583 0.35841 0.0
C1861 C 0.86816 0.14323 0.28438 0.0
C1862 C 0.72434 0.10652 0.05544 0.0
C1863 C 0.73767 0.11588 0.08517 0.0
H1864 H 0.68239 0.08928 0.02554 0.0
C1865 C 0.71834 0.11388 0.10808 0.0
H1866 H 0.7388 0.10796 0.03733 0.0
C1867 C 0.68614 0.10331 0.10135 0.0
C1868 C 0.67275 0.09466 0.07156 0.0
H1869 H 0.72806 0.12102 0.13117 0.0
H1870 H 0.6718 0.10229 0.11952 0.0
C1871 C 0.69209 0.09604 0.04867 0.0
C1872 C 0.24691 0.50854 0.344 0.0
C1873 C 0.24484 0.51091 0.31298 0.0
H1874 H 0.27155 0.4955 0.38179 0.0
C1875 C 0.26641 0.50235 0.29623 0.0
H1876 H 0.23051 0.51511 0.35737 0.0
C1877 C 0.29 0.4923 0.31017 0.0
C1878 C 0.29239 0.49016 0.34111 0.0
H1879 H 0.26551 0.50407 0.27234 0.0
H1880 H 0.30624 0.48565 0.29658 0.0
C1881 C 0.27038 0.4977 0.35798 0.0
C1882 C 0.29657 0.48344 0.04869 0.0
C1883 C 0.28192 0.44866 0.04929 0.0
H1884 H 0.29129 0.53198 0.04459 0.0
C1885 C 0.24922 0.43637 0.04596 0.0
H1886 H 0.32172 0.49385 0.05128 0.0
C1887 C 0.23163 0.45841 0.04195 0.0
C1888 C 0.24637 0.49322 0.04105 0.0
H1889 H 0.23722 0.40973 0.04624 0.0
H1890 H 0.20648 0.44809 0.03903 0.0
C1891 C 0.27908 0.50536 0.04462 0.0
C1892 C 0.88862 0.97282 0.29142 0.0
C1893 C 0.91103 0.97675 0.27112 0.0
H1894 H 0.85548 0.93851 0.31486 0.0
C1895 C 0.91662 0.94822 0.25799 0.0
H1896 H 0.8839 0.9945 0.30182 0.0
C1897 C 0.90078 0.9163 0.26583 0.0
C1898 C 0.87876 0.91238 0.28656 0.0
H1899 H 0.9339 0.95063 0.24238 0.0
H1900 H 0.9059 0.89472 0.25571 0.0
C1901 C 0.87241 0.94084 0.2989 0.0
C1902 C 0.79203 0.20115 0.75466 0.0
C1903 C 0.78793 0.17822 0.77645 0.0
H1904 H 0.80593 0.253 0.74608 0.0
C1905 C 0.79785 0.19009 0.80654 0.0
H1906 H 0.78458 0.19255 0.7313 0.0
C1907 C 0.80965 0.22446 0.815 0.0
C1908 C 0.81196 0.24753 0.79348 0.0
H1909 H 0.79516 0.17291 0.82379 0.0
H1910 H 0.81609 0.23291 0.83851 0.0
C1911 C 0.8041 0.23567 0.76314 0.0
loop_
_geom_bond_atom_site_label_1
_geom_bond_atom_site_label_2
_geom_bond_distance
_geom_bond_site_symmetry_2
_ccdc_geom_bond_type
In0 O1 2.294 . S
In0 O2 2.326 . S
In0 O6 2.266 . S
In0 O7 2.326 . S
In0 O8 2.266 . S
In0 O9 2.326 . S
In0 O11 2.294 . S
In0 O12 2.326 . S
O1 In0 2.294 . S
O1 C10 1.240 . S
O2 In0 2.326 . S
O2 C10 1.252 . S
C3 O6 1.252 1_655 S
C3 O7 1.260 1_655 S
C4 O11 1.240 . S
C4 O12 1.252 . S
C5 O8 1.252 . S
C5 O9 1.260 . S
O6 In0 2.266 . S
O6 C3 1.252 1_455 S
O7 In0 2.326 . S
O7 C3 1.260 1_455 S
O8 In0 2.266 . S
O8 C5 1.252 . S
O9 In0 2.326 . S
O9 C5 1.260 . S
C10 O1 1.240 . S
C10 O2 1.252 . S
O11 In0 2.294 . S
O11 C4 1.240 . S
O12 In0 2.326 . S
O12 C4 1.252 . S
In13 O14 2.294 . S
In13 O15 2.326 . S
In13 O19 2.266 . S
In13 O20 2.326 . S
In13 O21 2.266 . S
In13 O22 2.326 . S
In13 O24 2.294 . S
In13 O25 2.326 . S
O14 In13 2.294 . S
O14 C23 1.240 . S
O15 In13 2.326 . S
O15 C23 1.252 . S
C16 O19 1.252 . S
C16 O20 1.260 . S
C17 O24 1.240 . S
C17 O25 1.252 . S
C18 O21 1.252 . S
C18 O22 1.260 . S
O19 In13 2.266 . S
O19 C16 1.252 . S
O20 In13 2.326 . S
O20 C16 1.260 . S
O21 In13 2.266 . S
O21 C18 1.252 . S
O22 In13 2.326 . S
O22 C18 1.260 . S
C23 O14 1.240 . S
C23 O15 1.252 . S
O24 In13 2.294 . S
O24 C17 1.240 . S
O25 In13 2.326 . S
O25 C17 1.252 . S
In26 O27 2.294 . S
In26 O28 2.326 . S
In26 O32 2.266 . S
In26 O33 2.326 . S
In26 O34 2.266 . S
In26 O35 2.326 . S
In26 O37 2.294 . S
In26 O38 2.326 . S
O27 In26 2.294 . S
O27 C36 1.240 . S
O28 In26 2.326 . S
O28 C36 1.252 . S
C29 O32 1.252 . S
C29 O33 1.260 . S
C30 O37 1.240 . S
C30 O38 1.252 . S
C31 O34 1.252 . S
C31 O35 1.260 . S
O32 In26 2.266 . S
O32 C29 1.252 . S
O33 In26 2.326 . S
O33 C29 1.260 . S
O34 In26 2.266 . S
O34 C31 1.252 . S
O35 In26 2.326 . S
O35 C31 1.260 . S
C36 O27 1.240 . S
C36 O28 1.252 . S
O37 In26 2.294 . S
O37 C30 1.240 . S
O38 In26 2.326 . S
O38 C30 1.252 . S
In39 O40 2.294 . S
In39 O41 2.326 . S
In39 O45 2.266 . S
In39 O46 2.326 . S
In39 O47 2.266 . S
In39 O48 2.326 . S
In39 O50 2.294 . S
In39 O51 2.326 . S
O40 In39 2.294 . S
O40 C49 1.240 . S
O41 In39 2.326 . S
O41 C49 1.252 . S
C42 O45 1.252 . S
C42 O46 1.260 . S
C43 O50 1.240 . S
C43 O51 1.252 . S
C44 O47 1.252 . S
C44 O48 1.260 . S
O45 In39 2.266 . S
O45 C42 1.252 . S
O46 In39 2.326 . S
O46 C42 1.260 . S
O47 In39 2.266 . S
O47 C44 1.252 . S
O48 In39 2.326 . S
O48 C44 1.260 . S
C49 O40 1.240 . S
C49 O41 1.252 . S
O50 In39 2.294 . S
O50 C43 1.240 . S
O51 In39 2.326 . S
O51 C43 1.252 . S
In52 O53 2.294 . S
In52 O54 2.326 . S
In52 O58 2.266 . S
In52 O59 2.326 . S
In52 O60 2.266 . S
In52 O61 2.326 . S
In52 O63 2.294 . S
In52 O64 2.326 . S
O53 In52 2.294 . S
O53 C62 1.240 . S
O54 In52 2.326 . S
O54 C62 1.252 . S
C55 O58 1.252 . S
C55 O59 1.260 . S
C56 O63 1.240 . S
C56 O64 1.252 . S
C57 O60 1.252 . S
C57 O61 1.260 . S
O58 In52 2.266 . S
O58 C55 1.252 . S
O59 In52 2.326 . S
O59 C55 1.260 . S
O60 In52 2.266 . S
O60 C57 1.252 . S
O61 In52 2.326 . S
O61 C57 1.260 . S
C62 O53 1.240 . S
C62 O54 1.252 . S
O63 In52 2.294 . S
O63 C56 1.240 . S
O64 In52 2.326 . S
O64 C56 1.252 . S
In65 O66 2.294 . S
In65 O67 2.326 . S
In65 O71 2.266 . S
In65 O72 2.326 . S
In65 O73 2.266 . S
In65 O74 2.326 . S
In65 O76 2.294 . S
In65 O77 2.326 . S
O66 In65 2.294 . S
O66 C75 1.240 . S
O67 In65 2.326 . S
O67 C75 1.252 . S
C68 O71 1.252 . S
C68 O72 1.260 . S
C69 O76 1.240 . S
C69 O77 1.252 . S
C70 O73 1.252 . S
C70 O74 1.260 . S
O71 In65 2.266 . S
O71 C68 1.252 . S
O72 In65 2.326 . S
O72 C68 1.260 . S
O73 In65 2.266 . S
O73 C70 1.252 . S
O74 In65 2.326 . S
O74 C70 1.260 . S
C75 O66 1.240 . S
C75 O67 1.252 . S
O76 In65 2.294 . S
O76 C69 1.240 . S
O77 In65 2.326 . S
O77 C69 1.252 . S
In78 O79 2.294 . S
In78 O80 2.326 . S
In78 O84 2.266 . S
In78 O85 2.326 . S
In78 O86 2.266 . S
In78 O87 2.326 . S
In78 O89 2.294 . S
In78 O90 2.326 . S
O79 In78 2.294 . S
O79 C88 1.240 . S
O80 In78 2.326 . S
O80 C88 1.252 . S
C81 O84 1.252 . S
C81 O85 1.260 . S
C82 O89 1.240 . S
C82 O90 1.252 . S
C83 O86 1.252 . S
C83 O87 1.260 . S
O84 In78 2.266 . S
O84 C81 1.252 . S
O85 In78 2.326 . S
O85 C81 1.260 . S
O86 In78 2.266 . S
O86 C83 1.252 . S
O87 In78 2.326 . S
O87 C83 1.260 . S
C88 O79 1.240 . S
C88 O80 1.252 . S
O89 In78 2.294 . S
O89 C82 1.240 . S
O90 In78 2.326 . S
O90 C82 1.252 . S
In91 O92 2.295 . S
In91 O93 2.327 1_455 S
In91 O97 2.265 . S
In91 O98 2.325 . S
In91 O99 2.264 1_455 S
In91 O100 2.323 1_455 S
In91 O102 2.296 . S
In91 O103 2.329 . S
O92 In91 2.295 . S
O92 C101 1.240 1_455 S
O93 In91 2.327 1_655 S
O93 C101 1.252 . S
C94 O97 1.252 . S
C94 O98 1.260 . S
C95 O102 1.240 . S
C95 O103 1.252 . S
C96 O99 1.252 . S
C96 O100 1.260 . S
O97 In91 2.265 . S
O97 C94 1.252 . S
O98 In91 2.325 . S
O98 C94 1.260 . S
O99 In91 2.264 1_655 S
O99 C96 1.252 . S
O100 In91 2.323 1_655 S
O100 C96 1.260 . S
C101 O92 1.240 1_655 S
C101 O93 1.252 . S
O102 In91 2.296 . S
O102 C95 1.240 . S
O103 In91 2.329 . S
O103 C95 1.252 . S
In104 O105 2.294 . S
In104 O106 2.326 . S
In104 O110 2.266 . S
In104 O111 2.326 . S
In104 O112 2.266 1_545 S
In104 O113 2.326 1_545 S
In104 O115 2.294 . S
In104 O116 2.326 . S
O105 In104 2.294 . S
O105 C114 1.240 . S
O106 In104 2.326 . S
O106 C114 1.252 . S
C107 O110 1.252 . S
C107 O111 1.260 . S
C108 O115 1.240 . S
C108 O116 1.252 . S
C109 O112 1.252 . S
C109 O113 1.260 . S
O110 In104 2.266 . S
O110 C107 1.252 . S
O111 In104 2.326 . S
O111 C107 1.260 . S
O112 In104 2.266 1_565 S
O112 C109 1.252 . S
O113 In104 2.326 1_565 S
O113 C109 1.260 . S
C114 O105 1.240 . S
C114 O106 1.252 . S
O115 In104 2.294 . S
O115 C108 1.240 . S
O116 In104 2.326 . S
O116 C108 1.252 . S
In117 O118 2.294 . S
In117 O119 2.326 . S
In117 O123 2.266 . S
In117 O124 2.326 . S
In117 O125 2.266 . S
In117 O126 2.326 . S
In117 O128 2.294 . S
In117 O129 2.326 . S
O118 In117 2.294 . S
O118 C127 1.240 . S
O119 In117 2.326 . S
O119 C127 1.252 . S
C120 O123 1.252 . S
C120 O124 1.260 . S
C121 O128 1.240 . S
C121 O129 1.252 . S
C122 O125 1.252 . S
C122 O126 1.260 . S
O123 In117 2.266 . S
O123 C120 1.252 . S
O124 In117 2.326 . S
O124 C120 1.260 . S
O125 In117 2.266 . S
O125 C122 1.252 . S
O126 In117 2.326 . S
O126 C122 1.260 . S
C127 O118 1.240 . S
C127 O119 1.252 . S
O128 In117 2.294 . S
O128 C121 1.240 . S
O129 In117 2.326 . S
O129 C121 1.252 . S
In130 O131 2.294 . S
In130 O132 2.326 . S
In130 O136 2.266 . S
In130 O137 2.326 . S
In130 O138 2.266 . S
In130 O139 2.326 . S
In130 O141 2.294 . S
In130 O142 2.326 . S
O131 In130 2.294 . S
O131 C140 1.240 . S
O132 In130 2.326 . S
O132 C140 1.252 . S
C133 O136 1.252 . S
C133 O137 1.260 . S
C134 O141 1.240 . S
C134 O142 1.252 . S
C135 O138 1.252 . S
C135 O139 1.260 . S
O136 In130 2.266 . S
O136 C133 1.252 . S
O137 In130 2.326 . S
O137 C133 1.260 . S
O138 In130 2.266 . S
O138 C135 1.252 . S
O139 In130 2.326 . S
O139 C135 1.260 . S
C140 O131 1.240 . S
C140 O132 1.252 . S
O141 In130 2.294 . S
O141 C134 1.240 . S
O142 In130 2.326 . S
O142 C134 1.252 . S
In143 O144 2.296 . S
In143 O145 2.329 . S
In143 O149 2.264 1_554 S
In143 O150 2.322 1_554 S
In143 O151 2.279 1_554 S
In143 O152 2.325 1_554 S
In143 O154 2.294 . S
In143 O155 2.327 . S
O144 In143 2.296 . S
O144 C153 1.240 . S
O145 In143 2.329 . S
O145 C153 1.252 . S
C146 O149 1.252 . S
C146 O150 1.260 . S
C147 O154 1.240 . S
C147 O155 1.252 . S
C148 O151 1.271 . S
C148 O152 1.260 . S
O149 In143 2.264 1_556 S
O149 C146 1.252 . S
O150 In143 2.322 1_556 S
O150 C146 1.260 . S
O151 In143 2.279 1_556 S
O151 C148 1.271 . S
O152 In143 2.325 1_556 S
O152 C148 1.260 . S
C153 O144 1.240 . S
C153 O145 1.252 . S
O154 In143 2.294 . S
O154 C147 1.240 . S
O155 In143 2.327 . S
O155 C147 1.252 . S
In156 O157 2.294 . S
In156 O158 2.326 . S
In156 O162 2.266 . S
In156 O163 2.326 1_554 S
In156 O164 2.266 . S
In156 O165 2.326 . S
In156 O167 2.294 . S
In156 O168 2.326 . S
O157 In156 2.294 . S
O157 C166 1.240 . S
O158 In156 2.326 . S
O158 C166 1.252 . S
C159 O162 1.252 1_556 S
C159 O163 1.260 . S
C160 O167 1.240 . S
C160 O168 1.252 . S
C161 O164 1.252 . S
C161 O165 1.260 . S
O162 In156 2.266 . S
O162 C159 1.252 1_554 S
O163 In156 2.326 1_556 S
O163 C159 1.260 . S
O164 In156 2.266 . S
O164 C161 1.252 . S
O165 In156 2.326 . S
O165 C161 1.260 . S
C166 O157 1.240 . S
C166 O158 1.252 . S
O167 In156 2.294 . S
O167 C160 1.240 . S
O168 In156 2.326 . S
O168 C160 1.252 . S
In169 O170 2.294 . S
In169 O171 2.326 . S
In169 O175 2.266 . S
In169 O176 2.326 . S
In169 O177 2.266 . S
In169 O178 2.326 . S
In169 O180 2.294 . S
In169 O181 2.326 . S
O170 In169 2.294 . S
O170 C179 1.240 . S
O171 In169 2.326 . S
O171 C179 1.252 . S
C172 O175 1.252 . S
C172 O176 1.260 . S
C173 O180 1.240 . S
C173 O181 1.252 . S
C174 O177 1.252 . S
C174 O178 1.260 . S
O175 In169 2.266 . S
O175 C172 1.252 . S
O176 In169 2.326 . S
O176 C172 1.260 . S
O177 In169 2.266 . S
O177 C174 1.252 . S
O178 In169 2.326 . S
O178 C174 1.260 . S
C179 O170 1.240 . S
C179 O171 1.252 . S
O180 In169 2.294 . S
O180 C173 1.240 . S
O181 In169 2.326 . S
O181 C173 1.252 . S
In182 O183 2.294 . S
In182 O184 2.326 . S
In182 O188 2.266 . S
In182 O189 2.326 . S
In182 O190 2.266 . S
In182 O191 2.326 . S
In182 O193 2.294 . S
In182 O194 2.326 . S
O183 In182 2.294 . S
O183 C192 1.240 . S
O184 In182 2.326 . S
O184 C192 1.252 . S
C185 O188 1.252 . S
C185 O189 1.260 . S
C186 O193 1.240 . S
C186 O194 1.252 . S
C187 O190 1.252 . S
C187 O191 1.260 . S
O188 In182 2.266 . S
O188 C185 1.252 . S
O189 In182 2.326 . S
O189 C185 1.260 . S
O190 In182 2.266 . S
O190 C187 1.252 . S
O191 In182 2.326 . S
O191 C187 1.260 . S
C192 O183 1.240 . S
C192 O184 1.252 . S
O193 In182 2.294 . S
O193 C186 1.240 . S
O194 In182 2.326 . S
O194 C186 1.252 . S
In195 O196 2.294 . S
In195 O197 2.326 . S
In195 O201 2.266 . S
In195 O202 2.326 . S
In195 O203 2.266 . S
In195 O204 2.326 . S
In195 O206 2.294 . S
In195 O207 2.326 . S
O196 In195 2.294 . S
O196 C205 1.240 . S
O197 In195 2.326 . S
O197 C205 1.252 . S
C198 O201 1.252 . S
C198 O202 1.260 . S
C199 O206 1.240 . S
C199 O207 1.252 . S
C200 O203 1.252 . S
C200 O204 1.260 . S
O201 In195 2.266 . S
O201 C198 1.252 . S
O202 In195 2.326 . S
O202 C198 1.260 . S
O203 In195 2.266 . S
O203 C200 1.252 . S
O204 In195 2.326 . S
O204 C200 1.260 . S
C205 O196 1.240 . S
C205 O197 1.252 . S
O206 In195 2.294 . S
O206 C199 1.240 . S
O207 In195 2.326 . S
O207 C199 1.252 . S
In208 O209 2.294 . S
In208 O210 2.326 . S
In208 O214 2.266 . S
In208 O215 2.326 1_545 S
In208 O216 2.266 1_545 S
In208 O217 2.326 1_545 S
In208 O219 2.294 . S
In208 O220 2.326 . S
O209 In208 2.294 . S
O209 C218 1.240 . S
O210 In208 2.326 . S
O210 C218 1.252 . S
C211 O214 1.252 . S
C211 O215 1.260 1_545 S
C212 O219 1.240 . S
C212 O220 1.252 . S
C213 O216 1.252 . S
C213 O217 1.260 . S
O214 In208 2.266 . S
O214 C211 1.252 . S
O215 In208 2.326 1_565 S
O215 C211 1.260 1_565 S
O216 In208 2.266 1_565 S
O216 C213 1.252 . S
O217 In208 2.326 1_565 S
O217 C213 1.260 . S
C218 O209 1.240 . S
C218 O210 1.252 . S
O219 In208 2.294 . S
O219 C212 1.240 . S
O220 In208 2.326 . S
O220 C212 1.252 . S
In221 O222 2.294 . S
In221 O223 2.326 . S
In221 O227 2.266 . S
In221 O228 2.326 . S
In221 O229 2.266 . S
In221 O230 2.326 . S
In221 O232 2.294 . S
In221 O233 2.326 . S
O222 In221 2.294 . S
O222 C231 1.240 . S
O223 In221 2.326 . S
O223 C231 1.252 . S
C224 O227 1.252 . S
C224 O228 1.260 . S
C225 O232 1.240 . S
C225 O233 1.252 . S
C226 O229 1.252 . S
C226 O230 1.260 . S
O227 In221 2.266 . S
O227 C224 1.252 . S
O228 In221 2.326 . S
O228 C224 1.260 . S
O229 In221 2.266 . S
O229 C226 1.252 . S
O230 In221 2.326 . S
O230 C226 1.260 . S
C231 O222 1.240 . S
C231 O223 1.252 . S
O232 In221 2.294 . S
O232 C225 1.240 . S
O233 In221 2.326 . S
O233 C225 1.252 . S
In234 O235 2.294 . S
In234 O236 2.326 . S
In234 O240 2.266 . S
In234 O241 2.326 . S
In234 O242 2.266 . S
In234 O243 2.326 . S
In234 O245 2.294 . S
In234 O246 2.326 . S
O235 In234 2.294 . S
O235 C244 1.240 . S
O236 In234 2.326 . S
O236 C244 1.252 . S
C237 O240 1.252 . S
C237 O241 1.260 . S
C238 O245 1.240 . S
C238 O246 1.252 . S
C239 O242 1.252 . S
C239 O243 1.260 . S
O240 In234 2.266 . S
O240 C237 1.252 . S
O241 In234 2.326 . S
O241 C237 1.260 . S
O242 In234 2.266 . S
O242 C239 1.252 . S
O243 In234 2.326 . S
O243 C239 1.260 . S
C244 O235 1.240 . S
C244 O236 1.252 . S
O245 In234 2.294 . S
O245 C238 1.240 . S
O246 In234 2.326 . S
O246 C238 1.252 . S
In247 O248 2.294 . S
In247 O249 2.326 . S
In247 O253 2.266 . S
In247 O254 2.326 . S
In247 O255 2.266 . S
In247 O256 2.326 . S
In247 O258 2.294 . S
In247 O259 2.326 . S
O248 In247 2.294 . S
O248 C257 1.240 . S
O249 In247 2.326 . S
O249 C257 1.252 . S
C250 O253 1.252 . S
C250 O254 1.260 . S
C251 O258 1.240 . S
C251 O259 1.252 . S
C252 O255 1.252 . S
C252 O256 1.260 . S
O253 In247 2.266 . S
O253 C250 1.252 . S
O254 In247 2.326 . S
O254 C250 1.260 . S
O255 In247 2.266 . S
O255 C252 1.252 . S
O256 In247 2.326 . S
O256 C252 1.260 . S
C257 O248 1.240 . S
C257 O249 1.252 . S
O258 In247 2.294 . S
O258 C251 1.240 . S
O259 In247 2.326 . S
O259 C251 1.252 . S
In260 O261 2.294 . S
In260 O262 2.326 . S
In260 O266 2.266 . S
In260 O267 2.326 . S
In260 O268 2.266 . S
In260 O269 2.326 1_554 S
In260 O271 2.294 . S
In260 O272 2.326 . S
O261 In260 2.294 . S
O261 C270 1.240 . S
O262 In260 2.326 . S
O262 C270 1.252 . S
C263 O266 1.252 . S
C263 O267 1.260 . S
C264 O271 1.240 . S
C264 O272 1.252 . S
C265 O268 1.252 1_556 S
C265 O269 1.260 . S
O266 In260 2.266 . S
O266 C263 1.252 . S
O267 In260 2.326 . S
O267 C263 1.260 . S
O268 In260 2.266 . S
O268 C265 1.252 1_554 S
O269 In260 2.326 1_556 S
O269 C265 1.260 . S
C270 O261 1.240 . S
C270 O262 1.252 . S
O271 In260 2.294 . S
O271 C264 1.240 . S
O272 In260 2.326 . S
O272 C264 1.252 . S
In273 O274 2.294 . S
In273 O275 2.326 . S
In273 O279 2.266 . S
In273 O280 2.326 . S
In273 O281 2.266 . S
In273 O282 2.326 . S
In273 O284 2.294 . S
In273 O285 2.326 . S
O274 In273 2.294 . S
O274 C283 1.240 . S
O275 In273 2.326 . S
O275 C283 1.252 . S
C276 O279 1.252 . S
C276 O280 1.260 . S
C277 O284 1.240 . S
C277 O285 1.252 . S
C278 O281 1.252 . S
C278 O282 1.260 . S
O279 In273 2.266 . S
O279 C276 1.252 . S
O280 In273 2.326 . S
O280 C276 1.260 . S
O281 In273 2.266 . S
O281 C278 1.252 . S
O282 In273 2.326 . S
O282 C278 1.260 . S
C283 O274 1.240 . S
C283 O275 1.252 . S
O284 In273 2.294 . S
O284 C277 1.240 . S
O285 In273 2.326 . S
O285 C277 1.252 . S
In286 O287 2.294 . S
In286 O288 2.326 . S
In286 O292 2.266 . S
In286 O293 2.326 . S
In286 O294 2.266 . S
In286 O295 2.326 . S
In286 O297 2.294 . S
In286 O298 2.326 . S
O287 In286 2.294 . S
O287 C296 1.240 . S
O288 In286 2.326 . S
O288 C296 1.252 . S
C289 O292 1.252 . S
C289 O293 1.260 . S
C290 O297 1.240 . S
C290 O298 1.252 . S
C291 O294 1.252 . S
C291 O295 1.260 . S
O292 In286 2.266 . S
O292 C289 1.252 . S
O293 In286 2.326 . S
O293 C289 1.260 . S
O294 In286 2.266 . S
O294 C291 1.252 . S
O295 In286 2.326 . S
O295 C291 1.260 . S
C296 O287 1.240 . S
C296 O288 1.252 . S
O297 In286 2.294 . S
O297 C290 1.240 . S
O298 In286 2.326 . S
O298 C290 1.252 . S
In299 O300 2.294 . S
In299 O301 2.326 . S
In299 O305 2.266 . S
In299 O306 2.326 . S
In299 O307 2.266 . S
In299 O308 2.326 . S
In299 O310 2.294 . S
In299 O311 2.326 . S
O300 In299 2.294 . S
O300 C309 1.240 . S
O301 In299 2.326 . S
O301 C309 1.252 . S
C302 O305 1.252 . S
C302 O306 1.260 . S
C303 O310 1.240 . S
C303 O311 1.252 . S
C304 O307 1.252 . S
C304 O308 1.260 . S
O305 In299 2.266 . S
O305 C302 1.252 . S
O306 In299 2.326 . S
O306 C302 1.260 . S
O307 In299 2.266 . S
O307 C304 1.252 . S
O308 In299 2.326 . S
O308 C304 1.260 . S
C309 O300 1.240 . S
C309 O301 1.252 . S
O310 In299 2.294 . S
O310 C303 1.240 . S
O311 In299 2.326 . S
O311 C303 1.252 . S
Tb312 C321 2.764 . S
Tb312 O322 2.325 . S
Tb312 O325 2.303 . S
Tb312 O329 2.322 . S
Tb312 O330 2.349 . S
Tb312 O333 2.415 . S
Tb312 O334 2.399 . S
Tb313 O323 2.322 . S
Tb313 O324 2.349 . S
Tb313 O326 2.415 1_455 S
Tb313 O327 2.399 1_455 S
Tb313 O328 2.325 . S
Tb313 O331 2.303 . S
Tb313 C342 2.764 1_455 S
C314 O330 1.261 . S
C314 O331 1.257 . S
C315 C318 1.358 . S
C315 C319 1.332 . S
C315 C321 1.504 . S
C316 C317 1.373 . S
C316 C320 1.308 . S
C317 C316 1.373 . S
C317 C318 1.429 . S
C317 H344 0.932 . S
C318 C315 1.358 . S
C318 C317 1.429 . S
C318 H345 0.930 . S
C319 C315 1.332 . S
C319 C320 1.394 . S
C319 H346 0.932 . S
C320 C316 1.308 . S
C320 C319 1.394 . S
C320 H347 0.929 . S
C321 Tb312 2.764 . S
C321 C315 1.504 . S
C321 O333 1.239 . S
C321 O334 1.263 . S
O322 Tb312 2.325 . S
O322 C332 1.236 . S
O323 Tb313 2.322 . S
O323 C332 1.257 . S
O324 Tb313 2.349 . S
O324 C335 1.261 . S
O325 Tb312 2.303 . S
O325 C335 1.257 . S
O326 Tb313 2.415 1_655 S
O326 C342 1.239 . S
O327 Tb313 2.399 1_655 S
O327 C342 1.263 . S
O328 Tb313 2.325 . S
O328 C343 1.236 . S
O329 Tb312 2.322 . S
O329 C343 1.257 . S
O330 Tb312 2.349 . S
O330 C314 1.261 . S
O331 Tb313 2.303 . S
O331 C314 1.257 . S
C332 O322 1.236 . S
C332 O323 1.257 . S
O333 Tb312 2.415 . S
O333 C321 1.239 . S
O334 Tb312 2.399 . S
O334 C321 1.263 . S
C335 O324 1.261 . S
C335 O325 1.257 . S
C336 C339 1.358 1_554 S
C336 C340 1.332 . S
C336 C342 1.504 . S
C337 C338 1.373 1_554 S
C337 C341 1.308 . S
C338 C337 1.373 1_556 S
C338 C339 1.429 . S
C338 H348 0.932 . S
C339 C336 1.358 1_556 S
C339 C338 1.429 . S
C339 H349 0.930 . S
C340 C336 1.332 . S
C340 C341 1.394 . S
C340 H350 0.932 . S
C341 C337 1.308 . S
C341 C340 1.394 . S
C341 H351 0.929 . S
C342 Tb313 2.764 1_655 S
C342 O326 1.239 . S
C342 O327 1.263 . S
C342 C336 1.504 . S
C343 O328 1.236 . S
C343 O329 1.257 . S
H344 C317 0.932 . S
H345 C318 0.930 . S
H346 C319 0.932 . S
H347 C320 0.929 . S
H348 C338 0.932 . S
H349 C339 0.930 . S
H350 C340 0.932 . S
H351 C341 0.929 . S
Tb352 C361 2.764 . S
Tb352 O362 2.325 . S
Tb352 O365 2.303 . S
Tb352 O369 2.322 . S
Tb352 O370 2.349 . S
Tb352 O373 2.415 . S
Tb352 O374 2.399 . S
Tb353 O363 2.322 . S
Tb353 O364 2.349 . S
Tb353 O366 2.415 . S
Tb353 O367 2.399 . S
Tb353 O368 2.325 . S
Tb353 O371 2.303 . S
Tb353 C382 2.764 . S
C354 O370 1.261 . S
C354 O371 1.257 . S
C355 C358 1.358 . S
C355 C359 1.332 . S
C355 C361 1.504 . S
C356 C357 1.373 . S
C356 C360 1.308 . S
C357 C356 1.373 . S
C357 C358 1.429 . S
C357 H384 0.932 . S
C358 C355 1.358 . S
C358 C357 1.429 . S
C358 H385 0.930 . S
C359 C355 1.332 . S
C359 C360 1.394 . S
C359 H386 0.932 . S
C360 C356 1.308 . S
C360 C359 1.394 . S
C360 H387 0.929 . S
C361 Tb352 2.764 . S
C361 C355 1.504 . S
C361 O373 1.239 . S
C361 O374 1.263 . S
O362 Tb352 2.325 . S
O362 C372 1.236 . S
O363 Tb353 2.322 . S
O363 C372 1.257 . S
O364 Tb353 2.349 . S
O364 C375 1.261 . S
O365 Tb352 2.303 . S
O365 C375 1.257 . S
O366 Tb353 2.415 . S
O366 C382 1.239 . S
O367 Tb353 2.399 . S
O367 C382 1.263 . S
O368 Tb353 2.325 . S
O368 C383 1.236 . S
O369 Tb352 2.322 . S
O369 C383 1.257 . S
O370 Tb352 2.349 . S
O370 C354 1.261 . S
O371 Tb353 2.303 . S
O371 C354 1.257 . S
C372 O362 1.236 . S
C372 O363 1.257 . S
O373 Tb352 2.415 . S
O373 C361 1.239 . S
O374 Tb352 2.399 . S
O374 C361 1.263 . S
C375 O364 1.261 . S
C375 O365 1.257 . S
C376 C379 1.358 . S
C376 C380 1.332 . S
C376 C382 1.504 . S
C377 C378 1.373 . S
C377 C381 1.308 . S
C378 C377 1.373 . S
C378 C379 1.429 . S
C378 H388 0.932 . S
C379 C376 1.358 . S
C379 C378 1.429 . S
C379 H389 0.930 . S
C380 C376 1.332 . S
C380 C381 1.394 . S
C380 H390 0.932 . S
C381 C377 1.308 . S
C381 C380 1.394 . S
C381 H391 0.929 . S
C382 Tb353 2.764 . S
C382 O366 1.239 . S
C382 O367 1.263 . S
C382 C376 1.504 . S
C383 O368 1.236 . S
C383 O369 1.257 . S
H384 C357 0.932 . S
H385 C358 0.930 . S
H386 C359 0.932 . S
H387 C360 0.929 . S
H388 C378 0.932 . S
H389 C379 0.930 . S
H390 C380 0.932 . S
H391 C381 0.929 . S
Tb392 C401 2.764 . S
Tb392 O402 2.325 . S
Tb392 O405 2.303 . S
Tb392 O409 2.322 1_545 S
Tb392 O410 2.349 . S
Tb392 O413 2.415 . S
Tb392 O414 2.399 . S
Tb393 O403 2.322 . S
Tb393 O404 2.349 . S
Tb393 O406 2.415 . S
Tb393 O407 2.399 . S
Tb393 O408 2.325 1_545 S
Tb393 O411 2.303 . S
Tb393 C422 2.764 . S
C394 O410 1.261 . S
C394 O411 1.257 . S
C395 C398 1.358 . S
C395 C399 1.332 . S
C395 C401 1.504 . S
C396 C397 1.373 . S
C396 C400 1.308 . S
C397 C396 1.373 . S
C397 C398 1.429 . S
C397 H424 0.932 . S
C398 C395 1.358 . S
C398 C397 1.429 . S
C398 H425 0.930 . S
C399 C395 1.332 . S
C399 C400 1.394 . S
C399 H426 0.932 . S
C400 C396 1.308 . S
C400 C399 1.394 . S
C400 H427 0.929 . S
C401 Tb392 2.764 . S
C401 C395 1.504 . S
C401 O413 1.239 . S
C401 O414 1.263 . S
O402 Tb392 2.325 . S
O402 C412 1.236 . S
O403 Tb393 2.322 . S
O403 C412 1.257 . S
O404 Tb393 2.349 . S
O404 C415 1.261 . S
O405 Tb392 2.303 . S
O405 C415 1.257 . S
O406 Tb393 2.415 . S
O406 C422 1.239 . S
O407 Tb393 2.399 . S
O407 C422 1.263 . S
O408 Tb393 2.325 1_565 S
O408 C423 1.236 . S
O409 Tb392 2.322 1_565 S
O409 C423 1.257 . S
O410 Tb392 2.349 . S
O410 C394 1.261 . S
O411 Tb393 2.303 . S
O411 C394 1.257 . S
C412 O402 1.236 . S
C412 O403 1.257 . S
O413 Tb392 2.415 . S
O413 C401 1.239 . S
O414 Tb392 2.399 . S
O414 C401 1.263 . S
C415 O404 1.261 . S
C415 O405 1.257 . S
C416 C419 1.358 . S
C416 C420 1.332 . S
C416 C422 1.504 1_565 S
C417 C418 1.373 . S
C417 C421 1.308 . S
C418 C417 1.373 . S
C418 C419 1.429 . S
C418 H428 0.932 . S
C419 C416 1.358 . S
C419 C418 1.429 . S
C419 H429 0.930 1_565 S
C420 C416 1.332 . S
C420 C421 1.394 . S
C420 H430 0.932 . S
C421 C417 1.308 . S
C421 C420 1.394 . S
C421 H431 0.929 . S
C422 Tb393 2.764 . S
C422 O406 1.239 . S
C422 O407 1.263 . S
C422 C416 1.504 1_545 S
C423 O408 1.236 . S
C423 O409 1.257 . S
H424 C397 0.932 . S
H425 C398 0.930 . S
H426 C399 0.932 . S
H427 C400 0.929 . S
H428 C418 0.932 . S
H429 C419 0.930 1_545 S
H430 C420 0.932 . S
H431 C421 0.929 . S
Tb432 C441 2.764 . S
Tb432 O442 2.325 . S
Tb432 O445 2.303 . S
Tb432 O449 2.322 . S
Tb432 O450 2.349 . S
Tb432 O453 2.415 . S
Tb432 O454 2.399 . S
Tb433 O443 2.322 . S
Tb433 O444 2.349 . S
Tb433 O446 2.415 . S
Tb433 O447 2.399 . S
Tb433 O448 2.325 . S
Tb433 O451 2.303 . S
Tb433 C462 2.764 . S
C434 O450 1.261 . S
C434 O451 1.257 . S
C435 C438 1.358 . S
C435 C439 1.332 . S
C435 C441 1.504 . S
C436 C437 1.373 . S
C436 C440 1.308 . S
C437 C436 1.373 . S
C437 C438 1.429 . S
C437 H464 0.932 . S
C438 C435 1.358 . S
C438 C437 1.429 . S
C438 H465 0.930 . S
C439 C435 1.332 . S
C439 C440 1.394 . S
C439 H466 0.932 . S
C440 C436 1.308 . S
C440 C439 1.394 . S
C440 H467 0.929 . S
C441 Tb432 2.764 . S
C441 C435 1.504 . S
C441 O453 1.239 . S
C441 O454 1.263 . S
O442 Tb432 2.325 . S
O442 C452 1.236 . S
O443 Tb433 2.322 . S
O443 C452 1.257 . S
O444 Tb433 2.349 . S
O444 C455 1.261 . S
O445 Tb432 2.303 . S
O445 C455 1.257 . S
O446 Tb433 2.415 . S
O446 C462 1.239 . S
O447 Tb433 2.399 . S
O447 C462 1.263 . S
O448 Tb433 2.325 . S
O448 C463 1.236 . S
O449 Tb432 2.322 . S
O449 C463 1.257 . S
O450 Tb432 2.349 . S
O450 C434 1.261 . S
O451 Tb433 2.303 . S
O451 C434 1.257 . S
C452 O442 1.236 . S
C452 O443 1.257 . S
O453 Tb432 2.415 . S
O453 C441 1.239 . S
O454 Tb432 2.399 . S
O454 C441 1.263 . S
C455 O444 1.261 . S
C455 O445 1.257 . S
C456 C459 1.358 . S
C456 C460 1.332 . S
C456 C462 1.504 . S
C457 C458 1.373 . S
C457 C461 1.308 . S
C458 C457 1.373 . S
C458 C459 1.429 . S
C458 H468 0.932 . S
C459 C456 1.358 . S
C459 C458 1.429 . S
C459 H469 0.930 . S
C460 C456 1.332 . S
C460 C461 1.394 . S
C460 H470 0.932 . S
C461 C457 1.308 . S
C461 C460 1.394 . S
C461 H471 0.929 . S
C462 Tb433 2.764 . S
C462 O446 1.239 . S
C462 O447 1.263 . S
C462 C456 1.504 . S
C463 O448 1.236 . S
C463 O449 1.257 . S
H464 C437 0.932 . S
H465 C438 0.930 . S
H466 C439 0.932 . S
H467 C440 0.929 . S
H468 C458 0.932 . S
H469 C459 0.930 . S
H470 C460 0.932 . S
H471 C461 0.929 . S
Tb472 C481 2.764 . S
Tb472 O482 2.325 . S
Tb472 O485 2.303 . S
Tb472 O489 2.322 . S
Tb472 O490 2.349 . S
Tb472 O493 2.415 . S
Tb472 O494 2.399 . S
Tb473 O483 2.322 1_545 S
Tb473 O484 2.349 . S
Tb473 O486 2.415 . S
Tb473 O487 2.399 . S
Tb473 O488 2.325 . S
Tb473 O491 2.303 . S
Tb473 C502 2.764 . S
C474 O490 1.261 . S
C474 O491 1.257 . S
C475 C478 1.358 . S
C475 C479 1.332 . S
C475 C481 1.504 . S
C476 C477 1.373 . S
C476 C480 1.308 . S
C477 C476 1.373 . S
C477 C478 1.429 . S
C477 H504 0.932 . S
C478 C475 1.358 . S
C478 C477 1.429 . S
C478 H505 0.930 . S
C479 C475 1.332 . S
C479 C480 1.394 . S
C479 H506 0.932 . S
C480 C476 1.308 . S
C480 C479 1.394 . S
C480 H507 0.929 . S
C481 Tb472 2.764 . S
C481 C475 1.504 . S
C481 O493 1.239 . S
C481 O494 1.263 . S
O482 Tb472 2.325 . S
O482 C492 1.236 1_545 S
O483 Tb473 2.322 1_565 S
O483 C492 1.257 . S
O484 Tb473 2.349 . S
O484 C495 1.261 . S
O485 Tb472 2.303 . S
O485 C495 1.257 . S
O486 Tb473 2.415 . S
O486 C502 1.239 . S
O487 Tb473 2.399 . S
O487 C502 1.263 . S
O488 Tb473 2.325 . S
O488 C503 1.236 . S
O489 Tb472 2.322 . S
O489 C503 1.257 . S
O490 Tb472 2.349 . S
O490 C474 1.261 . S
O491 Tb473 2.303 . S
O491 C474 1.257 . S
C492 O482 1.236 1_565 S
C492 O483 1.257 . S
O493 Tb472 2.415 . S
O493 C481 1.239 . S
O494 Tb472 2.399 . S
O494 C481 1.263 . S
C495 O484 1.261 . S
C495 O485 1.257 . S
C496 C499 1.358 . S
C496 C500 1.332 1_455 S
C496 C502 1.504 . S
C497 C498 1.373 . S
C497 C501 1.308 1_455 S
C498 C497 1.373 . S
C498 C499 1.429 . S
C498 H508 0.932 . S
C499 C496 1.358 . S
C499 C498 1.429 . S
C499 H509 0.930 . S
C500 C496 1.332 1_655 S
C500 C501 1.394 . S
C500 H510 0.932 . S
C501 C497 1.308 1_655 S
C501 C500 1.394 . S
C501 H511 0.929 . S
C502 Tb473 2.764 . S
C502 O486 1.239 . S
C502 O487 1.263 . S
C502 C496 1.504 . S
C503 O488 1.236 . S
C503 O489 1.257 . S
H504 C477 0.932 . S
H505 C478 0.930 . S
H506 C479 0.932 . S
H507 C480 0.929 . S
H508 C498 0.932 . S
H509 C499 0.930 . S
H510 C500 0.932 . S
H511 C501 0.929 . S
Tb512 C521 2.764 . S
Tb512 O522 2.325 . S
Tb512 O525 2.303 . S
Tb512 O529 2.322 . S
Tb512 O530 2.349 . S
Tb512 O533 2.415 . S
Tb512 O534 2.399 . S
Tb513 O523 2.322 . S
Tb513 O524 2.349 . S
Tb513 O526 2.415 . S
Tb513 O527 2.399 . S
Tb513 O528 2.325 . S
Tb513 O531 2.303 . S
Tb513 C542 2.764 . S
C514 O530 1.261 . S
C514 O531 1.257 . S
C515 C518 1.358 . S
C515 C519 1.332 . S
C515 C521 1.504 . S
C516 C517 1.373 . S
C516 C520 1.308 . S
C517 C516 1.373 . S
C517 C518 1.429 . S
C517 H544 0.932 . S
C518 C515 1.358 . S
C518 C517 1.429 . S
C518 H545 0.930 . S
C519 C515 1.332 . S
C519 C520 1.394 . S
C519 H546 0.932 . S
C520 C516 1.308 . S
C520 C519 1.394 . S
C520 H547 0.929 . S
C521 Tb512 2.764 . S
C521 C515 1.504 . S
C521 O533 1.239 . S
C521 O534 1.263 . S
O522 Tb512 2.325 . S
O522 C532 1.236 . S
O523 Tb513 2.322 . S
O523 C532 1.257 . S
O524 Tb513 2.349 . S
O524 C535 1.261 . S
O525 Tb512 2.303 . S
O525 C535 1.257 . S
O526 Tb513 2.415 . S
O526 C542 1.239 . S
O527 Tb513 2.399 . S
O527 C542 1.263 . S
O528 Tb513 2.325 . S
O528 C543 1.236 . S
O529 Tb512 2.322 . S
O529 C543 1.257 . S
O530 Tb512 2.349 . S
O530 C514 1.261 . S
O531 Tb513 2.303 . S
O531 C514 1.257 . S
C532 O522 1.236 . S
C532 O523 1.257 . S
O533 Tb512 2.415 . S
O533 C521 1.239 . S
O534 Tb512 2.399 . S
O534 C521 1.263 . S
C535 O524 1.261 . S
C535 O525 1.257 . S
C536 C539 1.358 . S
C536 C540 1.332 . S
C536 C542 1.504 . S
C537 C538 1.373 . S
C537 C541 1.308 . S
C538 C537 1.373 . S
C538 C539 1.429 . S
C538 H548 0.932 . S
C539 C536 1.358 . S
C539 C538 1.429 . S
C539 H549 0.930 . S
C540 C536 1.332 . S
C540 C541 1.394 . S
C540 H550 0.932 . S
C541 C537 1.308 . S
C541 C540 1.394 . S
C541 H551 0.929 . S
C542 Tb513 2.764 . S
C542 O526 1.239 . S
C542 O527 1.263 . S
C542 C536 1.504 . S
C543 O528 1.236 . S
C543 O529 1.257 . S
H544 C517 0.932 . S
H545 C518 0.930 . S
H546 C519 0.932 . S
H547 C520 0.929 . S
H548 C538 0.932 . S
H549 C539 0.930 . S
H550 C540 0.932 . S
H551 C541 0.929 . S
Tb552 C561 2.764 . S
Tb552 O562 2.325 . S
Tb552 O565 2.303 . S
Tb552 O569 2.322 . S
Tb552 O570 2.349 . S
Tb552 O573 2.415 . S
Tb552 O574 2.399 . S
Tb553 O563 2.324 . S
Tb553 O564 2.349 1_554 S
Tb553 O566 2.414 1_554 S
Tb553 O567 2.397 1_554 S
Tb553 O568 2.325 1_554 S
Tb553 O571 2.304 . S
Tb553 C582 2.763 1_554 S
C554 O570 1.261 . S
C554 O571 1.257 . S
C555 C558 1.358 . S
C555 C559 1.332 . S
C555 C561 1.504 . S
C556 C557 1.373 . S
C556 C560 1.308 . S
C557 C556 1.373 . S
C557 C558 1.429 . S
C557 H584 0.932 . S
C558 C555 1.358 . S
C558 C557 1.429 . S
C558 H585 0.930 . S
C559 C555 1.332 . S
C559 C560 1.394 . S
C559 H586 0.932 . S
C560 C556 1.308 . S
C560 C559 1.394 . S
C560 H587 0.929 . S
C561 Tb552 2.764 . S
C561 C555 1.504 . S
C561 O573 1.239 . S
C561 O574 1.263 . S
O562 Tb552 2.325 . S
O562 C572 1.236 . S
O563 Tb553 2.324 . S
O563 C572 1.257 . S
O564 Tb553 2.349 1_556 S
O564 C575 1.261 1_556 S
O565 Tb552 2.303 . S
O565 C575 1.257 . S
O566 Tb553 2.414 1_556 S
O566 C582 1.239 . S
O567 Tb553 2.397 1_556 S
O567 C582 1.263 . S
O568 Tb553 2.325 1_556 S
O568 C583 1.236 1_556 S
O569 Tb552 2.322 . S
O569 C583 1.257 . S
O570 Tb552 2.349 . S
O570 C554 1.261 . S
O571 Tb553 2.304 . S
O571 C554 1.257 . S
C572 O562 1.236 . S
C572 O563 1.257 . S
O573 Tb552 2.415 . S
O573 C561 1.239 . S
O574 Tb552 2.399 . S
O574 C561 1.263 . S
C575 O564 1.261 1_554 S
C575 O565 1.257 . S
C576 C579 1.358 . S
C576 C580 1.332 . S
C576 C582 1.504 . S
C577 C578 1.373 . S
C577 C581 1.308 . S
C578 C577 1.373 . S
C578 C579 1.429 . S
C578 H588 0.932 . S
C579 C576 1.358 . S
C579 C578 1.429 . S
C579 H589 0.930 . S
C580 C576 1.332 . S
C580 C581 1.394 . S
C580 H590 0.932 . S
C581 C577 1.308 . S
C581 C580 1.394 . S
C581 H591 0.929 . S
C582 Tb553 2.763 1_556 S
C582 O566 1.239 . S
C582 O567 1.263 . S
C582 C576 1.504 . S
C583 O568 1.236 1_554 S
C583 O569 1.257 . S
H584 C557 0.932 . S
H585 C558 0.930 . S
H586 C559 0.932 . S
H587 C560 0.929 . S
H588 C578 0.932 . S
H589 C579 0.930 . S
H590 C580 0.932 . S
H591 C581 0.929 . S
Tb592 C601 2.764 . S
Tb592 O602 2.325 . S
Tb592 O605 2.303 . S
Tb592 O609 2.322 . S
Tb592 O610 2.349 . S
Tb592 O613 2.415 . S
Tb592 O614 2.399 . S
Tb593 O603 2.322 . S
Tb593 O604 2.349 . S
Tb593 O606 2.415 . S
Tb593 O607 2.399 . S
Tb593 O608 2.325 . S
Tb593 O611 2.303 . S
Tb593 C622 2.764 . S
C594 O610 1.261 . S
C594 O611 1.257 . S
C595 C598 1.358 . S
C595 C599 1.332 . S
C595 C601 1.504 . S
C596 C597 1.373 . S
C596 C600 1.308 . S
C597 C596 1.373 . S
C597 C598 1.429 . S
C597 H624 0.932 . S
C598 C595 1.358 . S
C598 C597 1.429 . S
C598 H625 0.930 . S
C599 C595 1.332 . S
C599 C600 1.394 . S
C599 H626 0.932 . S
C600 C596 1.308 . S
C600 C599 1.394 . S
C600 H627 0.929 . S
C601 Tb592 2.764 . S
C601 C595 1.504 . S
C601 O613 1.239 . S
C601 O614 1.263 . S
O602 Tb592 2.325 . S
O602 C612 1.236 . S
O603 Tb593 2.322 . S
O603 C612 1.257 . S
O604 Tb593 2.349 . S
O604 C615 1.261 . S
O605 Tb592 2.303 . S
O605 C615 1.257 . S
O606 Tb593 2.415 . S
O606 C622 1.239 . S
O607 Tb593 2.399 . S
O607 C622 1.263 . S
O608 Tb593 2.325 . S
O608 C623 1.236 . S
O609 Tb592 2.322 . S
O609 C623 1.257 . S
O610 Tb592 2.349 . S
O610 C594 1.261 . S
O611 Tb593 2.303 . S
O611 C594 1.257 . S
C612 O602 1.236 . S
C612 O603 1.257 . S
O613 Tb592 2.415 . S
O613 C601 1.239 . S
O614 Tb592 2.399 . S
O614 C601 1.263 . S
C615 O604 1.261 . S
C615 O605 1.257 . S
C616 C619 1.358 . S
C616 C620 1.332 . S
C616 C622 1.504 . S
C617 C618 1.373 . S
C617 C621 1.308 . S
C618 C617 1.373 . S
C618 C619 1.429 . S
C618 H628 0.932 . S
C619 C616 1.358 . S
C619 C618 1.429 . S
C619 H629 0.930 . S
C620 C616 1.332 . S
C620 C621 1.394 . S
C620 H630 0.932 . S
C621 C617 1.308 . S
C621 C620 1.394 . S
C621 H631 0.929 . S
C622 Tb593 2.764 . S
C622 O606 1.239 . S
C622 O607 1.263 . S
C622 C616 1.504 . S
C623 O608 1.236 . S
C623 O609 1.257 . S
H624 C597 0.932 . S
H625 C598 0.930 . S
H626 C599 0.932 . S
H627 C600 0.929 . S
H628 C618 0.932 . S
H629 C619 0.930 . S
H630 C620 0.932 . S
H631 C621 0.929 . S
Tb632 C641 2.764 . S
Tb632 O642 2.325 . S
Tb632 O645 2.303 . S
Tb632 O649 2.322 . S
Tb632 O650 2.349 . S
Tb632 O653 2.415 . S
Tb632 O654 2.399 . S
Tb633 O643 2.322 1_556 S
Tb633 O644 2.349 1_556 S
Tb633 O646 2.415 . S
Tb633 O647 2.399 . S
Tb633 O648 2.325 . S
Tb633 O651 2.303 1_556 S
Tb633 C662 2.764 . S
C634 O650 1.261 . S
C634 O651 1.257 . S
C635 C638 1.358 . S
C635 C639 1.332 . S
C635 C641 1.504 . S
C636 C637 1.373 . S
C636 C640 1.308 . S
C637 C636 1.373 . S
C637 C638 1.429 . S
C637 H664 0.932 . S
C638 C635 1.358 . S
C638 C637 1.429 . S
C638 H665 0.930 . S
C639 C635 1.332 . S
C639 C640 1.394 . S
C639 H666 0.932 . S
C640 C636 1.308 . S
C640 C639 1.394 . S
C640 H667 0.929 . S
C641 Tb632 2.764 . S
C641 C635 1.504 . S
C641 O653 1.239 . S
C641 O654 1.263 . S
O642 Tb632 2.325 . S
O642 C652 1.236 . S
O643 Tb633 2.322 1_554 S
O643 C652 1.257 . S
O644 Tb633 2.349 1_554 S
O644 C655 1.261 . S
O645 Tb632 2.303 . S
O645 C655 1.257 . S
O646 Tb633 2.415 . S
O646 C662 1.239 . S
O647 Tb633 2.399 . S
O647 C662 1.263 . S
O648 Tb633 2.325 . S
O648 C663 1.236 1_556 S
O649 Tb632 2.322 . S
O649 C663 1.257 . S
O650 Tb632 2.349 . S
O650 C634 1.261 . S
O651 Tb633 2.303 1_554 S
O651 C634 1.257 . S
C652 O642 1.236 . S
C652 O643 1.257 . S
O653 Tb632 2.415 . S
O653 C641 1.239 . S
O654 Tb632 2.399 . S
O654 C641 1.263 . S
C655 O644 1.261 . S
C655 O645 1.257 . S
C656 C659 1.358 . S
C656 C660 1.332 . S
C656 C662 1.504 . S
C657 C658 1.373 . S
C657 C661 1.308 . S
C658 C657 1.373 . S
C658 C659 1.429 . S
C658 H668 0.932 . S
C659 C656 1.358 . S
C659 C658 1.429 . S
C659 H669 0.930 . S
C660 C656 1.332 . S
C660 C661 1.394 . S
C660 H670 0.932 . S
C661 C657 1.308 . S
C661 C660 1.394 . S
C661 H671 0.929 . S
C662 Tb633 2.764 . S
C662 O646 1.239 . S
C662 O647 1.263 . S
C662 C656 1.504 . S
C663 O648 1.236 1_554 S
C663 O649 1.257 . S
H664 C637 0.932 . S
H665 C638 0.930 . S
H666 C639 0.932 . S
H667 C640 0.929 . S
H668 C658 0.932 . S
H669 C659 0.930 . S
H670 C660 0.932 . S
H671 C661 0.929 . S
Tb672 C681 2.764 . S
Tb672 O682 2.325 . S
Tb672 O685 2.303 . S
Tb672 O689 2.322 . S
Tb672 O690 2.349 . S
Tb672 O693 2.415 . S
Tb672 O694 2.399 . S
Tb673 O683 2.322 . S
Tb673 O684 2.349 . S
Tb673 O686 2.415 . S
Tb673 O687 2.399 . S
Tb673 O688 2.325 . S
Tb673 O691 2.303 . S
Tb673 C702 2.764 . S
C674 O690 1.261 . S
C674 O691 1.257 . S
C675 C678 1.358 . S
C675 C679 1.332 . S
C675 C681 1.504 . S
C676 C677 1.373 . S
C676 C680 1.308 . S
C677 C676 1.373 . S
C677 C678 1.429 . S
C677 H704 0.932 . S
C678 C675 1.358 . S
C678 C677 1.429 . S
C678 H705 0.930 . S
C679 C675 1.332 . S
C679 C680 1.394 . S
C679 H706 0.932 . S
C680 C676 1.308 . S
C680 C679 1.394 . S
C680 H707 0.929 . S
C681 Tb672 2.764 . S
C681 C675 1.504 . S
C681 O693 1.239 . S
C681 O694 1.263 . S
O682 Tb672 2.325 . S
O682 C692 1.236 . S
O683 Tb673 2.322 . S
O683 C692 1.257 . S
O684 Tb673 2.349 . S
O684 C695 1.261 . S
O685 Tb672 2.303 . S
O685 C695 1.257 . S
O686 Tb673 2.415 . S
O686 C702 1.239 . S
O687 Tb673 2.399 . S
O687 C702 1.263 . S
O688 Tb673 2.325 . S
O688 C703 1.236 . S
O689 Tb672 2.322 . S
O689 C703 1.257 . S
O690 Tb672 2.349 . S
O690 C674 1.261 . S
O691 Tb673 2.303 . S
O691 C674 1.257 . S
C692 O682 1.236 . S
C692 O683 1.257 . S
O693 Tb672 2.415 . S
O693 C681 1.239 . S
O694 Tb672 2.399 . S
O694 C681 1.263 . S
C695 O684 1.261 . S
C695 O685 1.257 . S
C696 C699 1.358 . S
C696 C700 1.332 . S
C696 C702 1.504 . S
C697 C698 1.373 . S
C697 C701 1.308 . S
C698 C697 1.373 . S
C698 C699 1.429 . S
C698 H708 0.932 . S
C699 C696 1.358 . S
C699 C698 1.429 . S
C699 H709 0.930 . S
C700 C696 1.332 . S
C700 C701 1.394 . S
C700 H710 0.932 . S
C701 C697 1.308 . S
C701 C700 1.394 . S
C701 H711 0.929 . S
C702 Tb673 2.764 . S
C702 O686 1.239 . S
C702 O687 1.263 . S
C702 C696 1.504 . S
C703 O688 1.236 . S
C703 O689 1.257 . S
H704 C677 0.932 . S
H705 C678 0.930 . S
H706 C679 0.932 . S
H707 C680 0.929 . S
H708 C698 0.932 . S
H709 C699 0.930 . S
H710 C700 0.932 . S
H711 C701 0.929 . S
Tb712 C721 2.764 . S
Tb712 O722 2.325 . S
Tb712 O725 2.303 . S
Tb712 O729 2.322 . S
Tb712 O730 2.349 . S
Tb712 O733 2.415 . S
Tb712 O734 2.399 . S
Tb713 O723 2.322 . S
Tb713 O724 2.349 1_455 S
Tb713 O726 2.415 . S
Tb713 O727 2.399 . S
Tb713 O728 2.325 . S
Tb713 O731 2.303 . S
Tb713 C742 2.764 . S
C714 O730 1.261 . S
C714 O731 1.257 . S
C715 C718 1.358 . S
C715 C719 1.332 1_455 S
C715 C721 1.504 . S
C716 C717 1.373 1_655 S
C716 C720 1.308 . S
C717 C716 1.373 1_455 S
C717 C718 1.429 . S
C717 H744 0.932 . S
C718 C715 1.358 . S
C718 C717 1.429 . S
C718 H745 0.930 . S
C719 C715 1.332 1_655 S
C719 C720 1.394 . S
C719 H746 0.932 . S
C720 C716 1.308 . S
C720 C719 1.394 . S
C720 H747 0.929 . S
C721 Tb712 2.764 . S
C721 C715 1.504 . S
C721 O733 1.239 . S
C721 O734 1.263 . S
O722 Tb712 2.325 . S
O722 C732 1.236 . S
O723 Tb713 2.322 . S
O723 C732 1.257 . S
O724 Tb713 2.349 1_655 S
O724 C735 1.261 . S
O725 Tb712 2.303 . S
O725 C735 1.257 1_455 S
O726 Tb713 2.415 . S
O726 C742 1.239 . S
O727 Tb713 2.399 . S
O727 C742 1.263 . S
O728 Tb713 2.325 . S
O728 C743 1.236 . S
O729 Tb712 2.322 . S
O729 C743 1.257 . S
O730 Tb712 2.349 . S
O730 C714 1.261 . S
O731 Tb713 2.303 . S
O731 C714 1.257 . S
C732 O722 1.236 . S
C732 O723 1.257 . S
O733 Tb712 2.415 . S
O733 C721 1.239 . S
O734 Tb712 2.399 . S
O734 C721 1.263 . S
C735 O724 1.261 . S
C735 O725 1.257 1_655 S
C736 C739 1.358 . S
C736 C740 1.332 . S
C736 C742 1.504 . S
C737 C738 1.373 . S
C737 C741 1.308 . S
C738 C737 1.373 . S
C738 C739 1.429 . S
C738 H748 0.932 . S
C739 C736 1.358 . S
C739 C738 1.429 . S
C739 H749 0.930 . S
C740 C736 1.332 . S
C740 C741 1.394 . S
C740 H750 0.932 . S
C741 C737 1.308 . S
C741 C740 1.394 . S
C741 H751 0.929 . S
C742 Tb713 2.764 . S
C742 O726 1.239 . S
C742 O727 1.263 . S
C742 C736 1.504 . S
C743 O728 1.236 . S
C743 O729 1.257 . S
H744 C717 0.932 . S
H745 C718 0.930 . S
H746 C719 0.932 . S
H747 C720 0.929 . S
H748 C738 0.932 . S
H749 C739 0.930 . S
H750 C740 0.932 . S
H751 C741 0.929 . S
Tb752 C761 2.764 . S
Tb752 O762 2.325 . S
Tb752 O765 2.303 . S
Tb752 O769 2.322 . S
Tb752 O770 2.349 . S
Tb752 O773 2.415 . S
Tb752 O774 2.399 . S
Tb753 O763 2.322 . S
Tb753 O764 2.349 . S
Tb753 O766 2.415 . S
Tb753 O767 2.399 . S
Tb753 O768 2.325 . S
Tb753 O771 2.303 . S
Tb753 C782 2.764 . S
C754 O770 1.261 . S
C754 O771 1.257 . S
C755 C758 1.358 . S
C755 C759 1.332 . S
C755 C761 1.504 . S
C756 C757 1.373 . S
C756 C760 1.308 . S
C757 C756 1.373 . S
C757 C758 1.429 . S
C757 H784 0.932 . S
C758 C755 1.358 . S
C758 C757 1.429 . S
C758 H785 0.930 . S
C759 C755 1.332 . S
C759 C760 1.394 . S
C759 H786 0.932 . S
C760 C756 1.308 . S
C760 C759 1.394 . S
C760 H787 0.929 . S
C761 Tb752 2.764 . S
C761 C755 1.504 . S
C761 O773 1.239 . S
C761 O774 1.263 . S
O762 Tb752 2.325 . S
O762 C772 1.236 . S
O763 Tb753 2.322 . S
O763 C772 1.257 . S
O764 Tb753 2.349 . S
O764 C775 1.261 . S
O765 Tb752 2.303 . S
O765 C775 1.257 . S
O766 Tb753 2.415 . S
O766 C782 1.239 . S
O767 Tb753 2.399 . S
O767 C782 1.263 . S
O768 Tb753 2.325 . S
O768 C783 1.236 . S
O769 Tb752 2.322 . S
O769 C783 1.257 . S
O770 Tb752 2.349 . S
O770 C754 1.261 . S
O771 Tb753 2.303 . S
O771 C754 1.257 . S
C772 O762 1.236 . S
C772 O763 1.257 . S
O773 Tb752 2.415 . S
O773 C761 1.239 . S
O774 Tb752 2.399 . S
O774 C761 1.263 . S
C775 O764 1.261 . S
C775 O765 1.257 . S
C776 C779 1.358 . S
C776 C780 1.332 . S
C776 C782 1.504 . S
C777 C778 1.373 . S
C777 C781 1.308 . S
C778 C777 1.373 . S
C778 C779 1.429 . S
C778 H788 0.932 . S
C779 C776 1.358 . S
C779 C778 1.429 . S
C779 H789 0.930 . S
C780 C776 1.332 . S
C780 C781 1.394 . S
C780 H790 0.932 . S
C781 C777 1.308 . S
C781 C780 1.394 . S
C781 H791 0.929 . S
C782 Tb753 2.764 . S
C782 O766 1.239 . S
C782 O767 1.263 . S
C782 C776 1.504 . S
C783 O768 1.236 . S
C783 O769 1.257 . S
H784 C757 0.932 . S
H785 C758 0.930 . S
H786 C759 0.932 . S
H787 C760 0.929 . S
H788 C778 0.932 . S
H789 C779 0.930 . S
H790 C780 0.932 . S
H791 C781 0.929 . S
Tb792 C801 2.764 . S
Tb792 O802 2.325 . S
Tb792 O805 2.303 . S
Tb792 O809 2.322 . S
Tb792 O810 2.349 . S
Tb792 O813 2.415 . S
Tb792 O814 2.399 . S
Tb793 O803 2.322 . S
Tb793 O804 2.349 . S
Tb793 O806 2.415 . S
Tb793 O807 2.399 . S
Tb793 O808 2.325 . S
Tb793 O811 2.303 . S
Tb793 C822 2.764 . S
C794 O810 1.261 . S
C794 O811 1.257 . S
C795 C798 1.358 . S
C795 C799 1.332 . S
C795 C801 1.504 . S
C796 C797 1.373 . S
C796 C800 1.308 . S
C797 C796 1.373 . S
C797 C798 1.429 . S
C797 H824 0.932 . S
C798 C795 1.358 . S
C798 C797 1.429 . S
C798 H825 0.930 . S
C799 C795 1.332 . S
C799 C800 1.394 . S
C799 H826 0.932 . S
C800 C796 1.308 . S
C800 C799 1.394 . S
C800 H827 0.929 . S
C801 Tb792 2.764 . S
C801 C795 1.504 . S
C801 O813 1.239 . S
C801 O814 1.263 . S
O802 Tb792 2.325 . S
O802 C812 1.236 . S
O803 Tb793 2.322 . S
O803 C812 1.257 . S
O804 Tb793 2.349 . S
O804 C815 1.261 . S
O805 Tb792 2.303 . S
O805 C815 1.257 . S
O806 Tb793 2.415 . S
O806 C822 1.239 . S
O807 Tb793 2.399 . S
O807 C822 1.263 . S
O808 Tb793 2.325 . S
O808 C823 1.236 . S
O809 Tb792 2.322 . S
O809 C823 1.257 . S
O810 Tb792 2.349 . S
O810 C794 1.261 . S
O811 Tb793 2.303 . S
O811 C794 1.257 . S
C812 O802 1.236 . S
C812 O803 1.257 . S
O813 Tb792 2.415 . S
O813 C801 1.239 . S
O814 Tb792 2.399 . S
O814 C801 1.263 . S
C815 O804 1.261 . S
C815 O805 1.257 . S
C816 C819 1.358 . S
C816 C820 1.332 . S
C816 C822 1.504 . S
C817 C818 1.373 . S
C817 C821 1.308 . S
C818 C817 1.373 . S
C818 C819 1.429 . S
C818 H828 0.932 . S
C819 C816 1.358 . S
C819 C818 1.429 . S
C819 H829 0.930 . S
C820 C816 1.332 . S
C820 C821 1.394 . S
C820 H830 0.932 . S
C821 C817 1.308 . S
C821 C820 1.394 . S
C821 H831 0.929 . S
C822 Tb793 2.764 . S
C822 O806 1.239 . S
C822 O807 1.263 . S
C822 C816 1.504 . S
C823 O808 1.236 . S
C823 O809 1.257 . S
H824 C797 0.932 . S
H825 C798 0.930 . S
H826 C799 0.932 . S
H827 C800 0.929 . S
H828 C818 0.932 . S
H829 C819 0.930 . S
H830 C820 0.932 . S
H831 C821 0.929 . S
Tb832 C841 2.764 . S
Tb832 O842 2.325 . S
Tb832 O845 2.303 . S
Tb832 O849 2.322 . S
Tb832 O850 2.349 . S
Tb832 O853 2.415 . S
Tb832 O854 2.399 . S
Tb833 O843 2.322 . S
Tb833 O844 2.349 . S
Tb833 O846 2.415 . S
Tb833 O847 2.399 . S
Tb833 O848 2.325 . S
Tb833 O851 2.303 . S
Tb833 C862 2.764 . S
C834 O850 1.261 . S
C834 O851 1.257 . S
C835 C838 1.358 . S
C835 C839 1.332 . S
C835 C841 1.504 . S
C836 C837 1.373 . S
C836 C840 1.308 . S
C837 C836 1.373 . S
C837 C838 1.429 . S
C837 H864 0.932 . S
C838 C835 1.358 . S
C838 C837 1.429 . S
C838 H865 0.930 . S
C839 C835 1.332 . S
C839 C840 1.394 . S
C839 H866 0.932 . S
C840 C836 1.308 . S
C840 C839 1.394 . S
C840 H867 0.929 . S
C841 Tb832 2.764 . S
C841 C835 1.504 . S
C841 O853 1.239 . S
C841 O854 1.263 . S
O842 Tb832 2.325 . S
O842 C852 1.236 . S
O843 Tb833 2.322 . S
O843 C852 1.257 . S
O844 Tb833 2.349 . S
O844 C855 1.261 . S
O845 Tb832 2.303 . S
O845 C855 1.257 . S
O846 Tb833 2.415 . S
O846 C862 1.239 . S
O847 Tb833 2.399 . S
O847 C862 1.263 . S
O848 Tb833 2.325 . S
O848 C863 1.236 . S
O849 Tb832 2.322 . S
O849 C863 1.257 . S
O850 Tb832 2.349 . S
O850 C834 1.261 . S
O851 Tb833 2.303 . S
O851 C834 1.257 . S
C852 O842 1.236 . S
C852 O843 1.257 . S
O853 Tb832 2.415 . S
O853 C841 1.239 . S
O854 Tb832 2.399 . S
O854 C841 1.263 . S
C855 O844 1.261 . S
C855 O845 1.257 . S
C856 C859 1.358 . S
C856 C860 1.332 . S
C856 C862 1.504 . S
C857 C858 1.373 . S
C857 C861 1.308 . S
C858 C857 1.373 . S
C858 C859 1.429 . S
C858 H868 0.932 . S
C859 C856 1.358 . S
C859 C858 1.429 . S
C859 H869 0.930 . S
C860 C856 1.332 . S
C860 C861 1.394 . S
C860 H870 0.932 . S
C861 C857 1.308 . S
C861 C860 1.394 . S
C861 H871 0.929 . S
C862 Tb833 2.764 . S
C862 O846 1.239 . S
C862 O847 1.263 . S
C862 C856 1.504 . S
C863 O848 1.236 . S
C863 O849 1.257 . S
H864 C837 0.932 . S
H865 C838 0.930 . S
H866 C839 0.932 . S
H867 C840 0.929 . S
H868 C858 0.932 . S
H869 C859 0.930 . S
H870 C860 0.932 . S
H871 C861 0.929 . S
Tb872 C881 2.764 . S
Tb872 O882 2.325 . S
Tb872 O885 2.303 . S
Tb872 O889 2.322 . S
Tb872 O890 2.349 . S
Tb872 O893 2.415 . S
Tb872 O894 2.399 . S
Tb873 O883 2.322 . S
Tb873 O884 2.349 . S
Tb873 O886 2.415 . S
Tb873 O887 2.399 . S
Tb873 O888 2.325 . S
Tb873 O891 2.303 . S
Tb873 C902 2.764 . S
C874 O890 1.261 . S
C874 O891 1.257 . S
C875 C878 1.358 . S
C875 C879 1.332 . S
C875 C881 1.504 . S
C876 C877 1.373 . S
C876 C880 1.308 . S
C877 C876 1.373 . S
C877 C878 1.429 . S
C877 H904 0.932 . S
C878 C875 1.358 . S
C878 C877 1.429 . S
C878 H905 0.930 . S
C879 C875 1.332 . S
C879 C880 1.394 . S
C879 H906 0.932 . S
C880 C876 1.308 . S
C880 C879 1.394 . S
C880 H907 0.929 . S
C881 Tb872 2.764 . S
C881 C875 1.504 . S
C881 O893 1.239 . S
C881 O894 1.263 . S
O882 Tb872 2.325 . S
O882 C892 1.236 . S
O883 Tb873 2.322 . S
O883 C892 1.257 . S
O884 Tb873 2.349 . S
O884 C895 1.261 . S
O885 Tb872 2.303 . S
O885 C895 1.257 . S
O886 Tb873 2.415 . S
O886 C902 1.239 . S
O887 Tb873 2.399 . S
O887 C902 1.263 . S
O888 Tb873 2.325 . S
O888 C903 1.236 . S
O889 Tb872 2.322 . S
O889 C903 1.257 . S
O890 Tb872 2.349 . S
O890 C874 1.261 . S
O891 Tb873 2.303 . S
O891 C874 1.257 . S
C892 O882 1.236 . S
C892 O883 1.257 . S
O893 Tb872 2.415 . S
O893 C881 1.239 . S
O894 Tb872 2.399 . S
O894 C881 1.263 . S
C895 O884 1.261 . S
C895 O885 1.257 . S
C896 C899 1.358 . S
C896 C900 1.332 . S
C896 C902 1.504 . S
C897 C898 1.373 . S
C897 C901 1.308 . S
C898 C897 1.373 . S
C898 C899 1.429 . S
C898 H908 0.932 . S
C899 C896 1.358 . S
C899 C898 1.429 . S
C899 H909 0.930 . S
C900 C896 1.332 . S
C900 C901 1.394 . S
C900 H910 0.932 . S
C901 C897 1.308 . S
C901 C900 1.394 . S
C901 H911 0.929 . S
C902 Tb873 2.764 . S
C902 O886 1.239 . S
C902 O887 1.263 . S
C902 C896 1.504 . S
C903 O888 1.236 . S
C903 O889 1.257 . S
H904 C877 0.932 . S
H905 C878 0.930 . S
H906 C879 0.932 . S
H907 C880 0.929 . S
H908 C898 0.932 . S
H909 C899 0.930 . S
H910 C900 0.932 . S
H911 C901 0.929 . S
Tb912 C921 2.764 1_455 S
Tb912 O922 2.325 . S
Tb912 O925 2.303 . S
Tb912 O929 2.322 . S
Tb912 O930 2.349 . S
Tb912 O933 2.415 1_455 S
Tb912 O934 2.399 1_455 S
Tb913 O923 2.322 . S
Tb913 O924 2.349 . S
Tb913 O926 2.415 . S
Tb913 O927 2.399 . S
Tb913 O928 2.325 . S
Tb913 O931 2.303 . S
Tb913 C942 2.764 . S
C914 O930 1.261 . S
C914 O931 1.257 . S
C915 C918 1.358 . S
C915 C919 1.332 . S
C915 C921 1.504 . S
C916 C917 1.373 . S
C916 C920 1.308 . S
C917 C916 1.373 . S
C917 C918 1.429 . S
C917 H944 0.932 . S
C918 C915 1.358 . S
C918 C917 1.429 . S
C918 H945 0.930 . S
C919 C915 1.332 . S
C919 C920 1.394 . S
C919 H946 0.932 . S
C920 C916 1.308 . S
C920 C919 1.394 . S
C920 H947 0.929 . S
C921 Tb912 2.764 1_655 S
C921 C915 1.504 . S
C921 O933 1.239 . S
C921 O934 1.263 . S
O922 Tb912 2.325 . S
O922 C932 1.236 . S
O923 Tb913 2.322 . S
O923 C932 1.257 . S
O924 Tb913 2.349 . S
O924 C935 1.261 . S
O925 Tb912 2.303 . S
O925 C935 1.257 . S
O926 Tb913 2.415 . S
O926 C942 1.239 . S
O927 Tb913 2.399 . S
O927 C942 1.263 . S
O928 Tb913 2.325 . S
O928 C943 1.236 . S
O929 Tb912 2.322 . S
O929 C943 1.257 . S
O930 Tb912 2.349 . S
O930 C914 1.261 . S
O931 Tb913 2.303 . S
O931 C914 1.257 . S
C932 O922 1.236 . S
C932 O923 1.257 . S
O933 Tb912 2.415 1_655 S
O933 C921 1.239 . S
O934 Tb912 2.399 1_655 S
O934 C921 1.263 . S
C935 O924 1.261 . S
C935 O925 1.257 . S
C936 C939 1.358 . S
C936 C940 1.332 . S
C936 C942 1.504 . S
C937 C938 1.373 . S
C937 C941 1.308 . S
C938 C937 1.373 . S
C938 C939 1.429 . S
C938 H948 0.932 1_554 S
C939 C936 1.358 . S
C939 C938 1.429 . S
C939 H949 0.930 1_554 S
C940 C936 1.332 . S
C940 C941 1.394 . S
C940 H950 0.932 . S
C941 C937 1.308 . S
C941 C940 1.394 . S
C941 H951 0.929 . S
C942 Tb913 2.764 . S
C942 O926 1.239 . S
C942 O927 1.263 . S
C942 C936 1.504 . S
C943 O928 1.236 . S
C943 O929 1.257 . S
H944 C917 0.932 . S
H945 C918 0.930 . S
H946 C919 0.932 . S
H947 C920 0.929 . S
H948 C938 0.932 1_556 S
H949 C939 0.930 1_556 S
H950 C940 0.932 . S
H951 C941 0.929 . S
C952 C953 1.385 1_556 S
C952 H956 0.950 . S
C952 C961 1.390 1_556 S
C953 C952 1.385 1_554 S
C953 C955 1.395 . S
H954 C961 0.950 . S
C955 C953 1.395 . S
C955 C957 1.390 . S
C955 H959 0.950 1_455 S
H956 C952 0.950 . S
C957 C955 1.390 . S
C957 C958 1.387 . S
C957 H960 0.950 . S
C958 C957 1.387 . S
C958 C961 1.387 . S
H959 C955 0.950 1_655 S
H960 C957 0.950 . S
C961 C952 1.390 1_554 S
C961 H954 0.950 . S
C961 C958 1.387 . S
C962 C963 1.387 . S
C962 H966 0.950 . S
C962 C971 1.390 . S
C963 C962 1.387 . S
C963 C965 1.387 . S
H964 C971 0.950 . S
C965 C963 1.387 . S
C965 C967 1.390 . S
C965 H969 0.950 . S
H966 C962 0.950 . S
C967 C965 1.390 . S
C967 C968 1.387 . S
C967 H970 0.950 . S
C968 C967 1.387 . S
C968 C971 1.387 . S
H969 C965 0.950 . S
H970 C967 0.950 . S
C971 C962 1.390 . S
C971 H964 0.950 . S
C971 C968 1.387 . S
C972 C973 1.387 . S
C972 H976 0.950 . S
C972 C981 1.390 . S
C973 C972 1.387 . S
C973 C975 1.387 . S
H974 C981 0.950 . S
C975 C973 1.387 . S
C975 C977 1.390 . S
C975 H979 0.950 . S
H976 C972 0.950 . S
C977 C975 1.390 . S
C977 C978 1.387 . S
C977 H980 0.950 . S
C978 C977 1.387 . S
C978 C981 1.387 . S
H979 C975 0.950 . S
H980 C977 0.950 . S
C981 C972 1.390 . S
C981 H974 0.950 . S
C981 C978 1.387 . S
C982 C983 1.387 . S
C982 H986 0.950 . S
C982 C991 1.390 . S
C983 C982 1.387 . S
C983 C985 1.387 . S
H984 C991 0.950 . S
C985 C983 1.387 . S
C985 C987 1.390 . S
C985 H989 0.950 . S
H986 C982 0.950 . S
C987 C985 1.390 . S
C987 C988 1.387 . S
C987 H990 0.950 . S
C988 C987 1.387 . S
C988 C991 1.387 . S
H989 C985 0.950 . S
H990 C987 0.950 . S
C991 C982 1.390 . S
C991 H984 0.950 . S
C991 C988 1.387 . S
C992 C993 1.387 . S
C992 H996 0.950 . S
C992 C1001 1.390 . S
C993 C992 1.387 . S
C993 C995 1.387 . S
H994 C1001 0.950 . S
C995 C993 1.387 . S
C995 C997 1.390 . S
C995 H999 0.950 . S
H996 C992 0.950 . S
C997 C995 1.390 . S
C997 C998 1.387 . S
C997 H1000 0.950 . S
C998 C997 1.387 . S
C998 C1001 1.387 . S
H999 C995 0.950 . S
H1000 C997 0.950 . S
C1001 C992 1.390 . S
C1001 H994 0.950 . S
C1001 C998 1.387 . S
C1002 C1003 1.387 . S
C1002 H1006 0.950 . S
C1002 C1011 1.390 . S
C1003 C1002 1.387 . S
C1003 C1005 1.387 . S
H1004 C1011 0.950 . S
C1005 C1003 1.387 . S
C1005 C1007 1.390 . S
C1005 H1009 0.950 . S
H1006 C1002 0.950 . S
C1007 C1005 1.390 . S
C1007 C1008 1.387 . S
C1007 H1010 0.950 . S
C1008 C1007 1.387 . S
C1008 C1011 1.387 . S
H1009 C1005 0.950 . S
H1010 C1007 0.950 . S
C1011 C1002 1.390 . S
C1011 H1004 0.950 . S
C1011 C1008 1.387 . S
C1012 C1013 1.387 . S
C1012 H1016 0.950 . S
C1012 C1021 1.390 . S
C1013 C1012 1.387 . S
C1013 C1015 1.387 . S
H1014 C1021 0.950 . S
C1015 C1013 1.387 . S
C1015 C1017 1.390 . S
C1015 H1019 0.950 . S
H1016 C1012 0.950 . S
C1017 C1015 1.390 . S
C1017 C1018 1.387 . S
C1017 H1020 0.950 . S
C1018 C1017 1.387 . S
C1018 C1021 1.387 . S
H1019 C1015 0.950 . S
H1020 C1017 0.950 . S
C1021 C1012 1.390 . S
C1021 H1014 0.950 . S
C1021 C1018 1.387 . S
C1022 C1023 1.387 . S
C1022 H1026 0.950 . S
C1022 C1031 1.390 . S
C1023 C1022 1.387 . S
C1023 C1025 1.387 . S
H1024 C1031 0.950 . S
C1025 C1023 1.387 . S
C1025 C1027 1.390 . S
C1025 H1029 0.950 . S
H1026 C1022 0.950 . S
C1027 C1025 1.390 . S
C1027 C1028 1.387 . S
C1027 H1030 0.950 . S
C1028 C1027 1.387 . S
C1028 C1031 1.387 . S
H1029 C1025 0.950 . S
H1030 C1027 0.950 . S
C1031 C1022 1.390 . S
C1031 H1024 0.950 . S
C1031 C1028 1.387 . S
C1032 C1033 1.387 . S
C1032 H1036 0.950 . S
C1032 C1041 1.390 1_655 S
C1033 C1032 1.387 . S
C1033 C1035 1.387 . S
H1034 C1041 0.950 . S
C1035 C1033 1.387 . S
C1035 C1037 1.390 1_655 S
C1035 H1039 0.950 . S
H1036 C1032 0.950 . S
C1037 C1035 1.390 1_455 S
C1037 C1038 1.387 . S
C1037 H1040 0.950 . S
C1038 C1037 1.387 . S
C1038 C1041 1.387 . S
H1039 C1035 0.950 . S
H1040 C1037 0.950 . S
C1041 C1032 1.390 1_455 S
C1041 H1034 0.950 . S
C1041 C1038 1.387 . S
C1042 C1043 1.387 . S
C1042 H1046 0.950 . S
C1042 C1051 1.390 . S
C1043 C1042 1.387 . S
C1043 C1045 1.387 . S
H1044 C1051 0.950 . S
C1045 C1043 1.387 . S
C1045 C1047 1.390 . S
C1045 H1049 0.950 . S
H1046 C1042 0.950 . S
C1047 C1045 1.390 . S
C1047 C1048 1.387 . S
C1047 H1050 0.950 . S
C1048 C1047 1.387 . S
C1048 C1051 1.387 . S
H1049 C1045 0.950 . S
H1050 C1047 0.950 . S
C1051 C1042 1.390 . S
C1051 H1044 0.950 . S
C1051 C1048 1.387 . S
C1052 C1053 1.387 . S
C1052 H1056 0.950 . S
C1052 C1061 1.390 . S
C1053 C1052 1.387 . S
C1053 C1055 1.387 . S
H1054 C1061 0.950 . S
C1055 C1053 1.387 . S
C1055 C1057 1.390 . S
C1055 H1059 0.950 . S
H1056 C1052 0.950 . S
C1057 C1055 1.390 . S
C1057 C1058 1.387 . S
C1057 H1060 0.950 1_545 S
C1058 C1057 1.387 . S
C1058 C1061 1.387 . S
H1059 C1055 0.950 . S
H1060 C1057 0.950 1_565 S
C1061 C1052 1.390 . S
C1061 H1054 0.950 . S
C1061 C1058 1.387 . S
C1062 C1063 1.387 . S
C1062 H1066 0.950 . S
C1062 C1071 1.390 . S
C1063 C1062 1.387 . S
C1063 C1065 1.387 . S
H1064 C1071 0.950 . S
C1065 C1063 1.387 . S
C1065 C1067 1.390 . S
C1065 H1069 0.950 . S
H1066 C1062 0.950 . S
C1067 C1065 1.390 . S
C1067 C1068 1.387 . S
C1067 H1070 0.950 . S
C1068 C1067 1.387 . S
C1068 C1071 1.387 . S
H1069 C1065 0.950 . S
H1070 C1067 0.950 . S
C1071 C1062 1.390 . S
C1071 H1064 0.950 . S
C1071 C1068 1.387 . S
C1072 C1073 1.387 . S
C1072 H1076 0.950 . S
C1072 C1081 1.390 . S
C1073 C1072 1.387 . S
C1073 C1075 1.387 1_545 S
H1074 C1081 0.950 1_455 S
C1075 C1073 1.387 1_565 S
C1075 C1077 1.390 . S
C1075 H1079 0.950 . S
H1076 C1072 0.950 . S
C1077 C1075 1.390 . S
C1077 C1078 1.387 1_565 S
C1077 H1080 0.950 . S
C1078 C1077 1.387 1_545 S
C1078 C1081 1.387 . S
H1079 C1075 0.950 . S
H1080 C1077 0.950 . S
C1081 C1072 1.390 . S
C1081 H1074 0.950 1_655 S
C1081 C1078 1.387 . S
C1082 C1083 1.387 . S
C1082 H1086 0.950 . S
C1082 C1091 1.390 . S
C1083 C1082 1.387 . S
C1083 C1085 1.387 . S
H1084 C1091 0.950 . S
C1085 C1083 1.387 . S
C1085 C1087 1.390 . S
C1085 H1089 0.950 . S
H1086 C1082 0.950 . S
C1087 C1085 1.390 . S
C1087 C1088 1.387 . S
C1087 H1090 0.950 . S
C1088 C1087 1.387 . S
C1088 C1091 1.387 . S
H1089 C1085 0.950 . S
H1090 C1087 0.950 . S
C1091 C1082 1.390 . S
C1091 H1084 0.950 . S
C1091 C1088 1.387 . S
C1092 C1093 1.387 . S
C1092 H1096 0.950 . S
C1092 C1101 1.390 . S
C1093 C1092 1.387 . S
C1093 C1095 1.387 . S
H1094 C1101 0.950 . S
C1095 C1093 1.387 . S
C1095 C1097 1.390 . S
C1095 H1099 0.950 . S
H1096 C1092 0.950 . S
C1097 C1095 1.390 . S
C1097 C1098 1.387 . S
C1097 H1100 0.950 . S
C1098 C1097 1.387 . S
C1098 C1101 1.387 . S
H1099 C1095 0.950 . S
H1100 C1097 0.950 . S
C1101 C1092 1.390 . S
C1101 H1094 0.950 . S
C1101 C1098 1.387 . S
C1102 C1103 1.387 . S
C1102 H1106 0.950 . S
C1102 C1111 1.390 . S
C1103 C1102 1.387 . S
C1103 C1105 1.387 . S
H1104 C1111 0.950 . S
C1105 C1103 1.387 . S
C1105 C1107 1.390 . S
C1105 H1109 0.950 . S
H1106 C1102 0.950 . S
C1107 C1105 1.390 . S
C1107 C1108 1.387 . S
C1107 H1110 0.950 . S
C1108 C1107 1.387 . S
C1108 C1111 1.387 . S
H1109 C1105 0.950 . S
H1110 C1107 0.950 . S
C1111 C1102 1.390 . S
C1111 H1104 0.950 . S
C1111 C1108 1.387 . S
C1112 C1113 1.387 . S
C1112 H1116 0.950 . S
C1112 C1121 1.390 . S
C1113 C1112 1.387 . S
C1113 C1115 1.387 1_545 S
H1114 C1121 0.950 . S
C1115 C1113 1.387 1_565 S
C1115 C1117 1.390 1_565 S
C1115 H1119 0.950 . S
H1116 C1112 0.950 . S
C1117 C1115 1.390 1_545 S
C1117 C1118 1.387 . S
C1117 H1120 0.950 1_545 S
C1118 C1117 1.387 . S
C1118 C1121 1.387 . S
H1119 C1115 0.950 . S
H1120 C1117 0.950 1_565 S
C1121 C1112 1.390 . S
C1121 H1114 0.950 . S
C1121 C1118 1.387 . S
C1122 C1123 1.387 . S
C1122 H1126 0.950 . S
C1122 C1131 1.390 . S
C1123 C1122 1.387 . S
C1123 C1125 1.387 . S
H1124 C1131 0.950 . S
C1125 C1123 1.387 . S
C1125 C1127 1.390 . S
C1125 H1129 0.950 1_554 S
H1126 C1122 0.950 . S
C1127 C1125 1.390 . S
C1127 C1128 1.387 . S
C1127 H1130 0.950 1_554 S
C1128 C1127 1.387 . S
C1128 C1131 1.387 . S
H1129 C1125 0.950 1_556 S
H1130 C1127 0.950 1_556 S
C1131 C1122 1.390 . S
C1131 H1124 0.950 . S
C1131 C1128 1.387 . S
C1132 C1133 1.387 . S
C1132 H1136 0.950 . S
C1132 C1141 1.390 . S
C1133 C1132 1.387 . S
C1133 C1135 1.387 . S
H1134 C1141 0.950 . S
C1135 C1133 1.387 . S
C1135 C1137 1.390 . S
C1135 H1139 0.950 . S
H1136 C1132 0.950 . S
C1137 C1135 1.390 . S
C1137 C1138 1.387 . S
C1137 H1140 0.950 . S
C1138 C1137 1.387 . S
C1138 C1141 1.387 . S
H1139 C1135 0.950 . S
H1140 C1137 0.950 . S
C1141 C1132 1.390 . S
C1141 H1134 0.950 . S
C1141 C1138 1.387 . S
C1142 C1143 1.387 . S
C1142 H1146 0.950 . S
C1142 C1151 1.390 . S
C1143 C1142 1.387 . S
C1143 C1145 1.387 . S
H1144 C1151 0.950 . S
C1145 C1143 1.387 . S
C1145 C1147 1.390 . S
C1145 H1149 0.950 . S
H1146 C1142 0.950 . S
C1147 C1145 1.390 . S
C1147 C1148 1.387 . S
C1147 H1150 0.950 . S
C1148 C1147 1.387 . S
C1148 C1151 1.387 . S
H1149 C1145 0.950 . S
H1150 C1147 0.950 . S
C1151 C1142 1.390 . S
C1151 H1144 0.950 . S
C1151 C1148 1.387 . S
C1152 C1153 1.387 . S
C1152 H1156 0.950 . S
C1152 C1161 1.390 . S
C1153 C1152 1.387 . S
C1153 C1155 1.387 . S
H1154 C1161 0.950 . S
C1155 C1153 1.387 . S
C1155 C1157 1.390 . S
C1155 H1159 0.950 . S
H1156 C1152 0.950 . S
C1157 C1155 1.390 . S
C1157 C1158 1.387 . S
C1157 H1160 0.950 . S
C1158 C1157 1.387 . S
C1158 C1161 1.387 . S
H1159 C1155 0.950 . S
H1160 C1157 0.950 . S
C1161 C1152 1.390 . S
C1161 H1154 0.950 . S
C1161 C1158 1.387 . S
C1162 C1163 1.387 . S
C1162 H1166 0.950 . S
C1162 C1171 1.390 . S
C1163 C1162 1.387 . S
C1163 C1165 1.387 . S
H1164 C1171 0.950 . S
C1165 C1163 1.387 . S
C1165 C1167 1.390 . S
C1165 H1169 0.950 . S
H1166 C1162 0.950 . S
C1167 C1165 1.390 . S
C1167 C1168 1.387 . S
C1167 H1170 0.950 . S
C1168 C1167 1.387 . S
C1168 C1171 1.387 . S
H1169 C1165 0.950 . S
H1170 C1167 0.950 . S
C1171 C1162 1.390 . S
C1171 H1164 0.950 . S
C1171 C1168 1.387 . S
C1172 C1173 1.387 . S
C1172 H1176 0.950 . S
C1172 C1181 1.390 . S
C1173 C1172 1.387 . S
C1173 C1175 1.387 . S
H1174 C1181 0.950 . S
C1175 C1173 1.387 . S
C1175 C1177 1.390 . S
C1175 H1179 0.950 . S
H1176 C1172 0.950 . S
C1177 C1175 1.390 . S
C1177 C1178 1.387 . S
C1177 H1180 0.950 . S
C1178 C1177 1.387 . S
C1178 C1181 1.387 . S
H1179 C1175 0.950 . S
H1180 C1177 0.950 . S
C1181 C1172 1.390 . S
C1181 H1174 0.950 . S
C1181 C1178 1.387 . S
C1182 C1183 1.387 . S
C1182 H1186 0.950 . S
C1182 C1191 1.390 . S
C1183 C1182 1.387 . S
C1183 C1185 1.387 . S
H1184 C1191 0.950 . S
C1185 C1183 1.387 . S
C1185 C1187 1.390 . S
C1185 H1189 0.950 . S
H1186 C1182 0.950 . S
C1187 C1185 1.390 . S
C1187 C1188 1.387 . S
C1187 H1190 0.950 . S
C1188 C1187 1.387 . S
C1188 C1191 1.387 . S
H1189 C1185 0.950 . S
H1190 C1187 0.950 . S
C1191 C1182 1.390 . S
C1191 H1184 0.950 . S
C1191 C1188 1.387 . S
C1192 C1193 1.387 . S
C1192 H1196 0.950 . S
C1192 C1201 1.390 . S
C1193 C1192 1.387 . S
C1193 C1195 1.387 . S
H1194 C1201 0.950 . S
C1195 C1193 1.387 . S
C1195 C1197 1.390 . S
C1195 H1199 0.950 . S
H1196 C1192 0.950 . S
C1197 C1195 1.390 . S
C1197 C1198 1.387 . S
C1197 H1200 0.950 . S
C1198 C1197 1.387 . S
C1198 C1201 1.387 . S
H1199 C1195 0.950 . S
H1200 C1197 0.950 . S
C1201 C1192 1.390 . S
C1201 H1194 0.950 . S
C1201 C1198 1.387 . S
C1202 C1203 1.387 . S
C1202 H1206 0.950 . S
C1202 C1211 1.390 . S
C1203 C1202 1.387 . S
C1203 C1205 1.387 . S
H1204 C1211 0.950 . S
C1205 C1203 1.387 . S
C1205 C1207 1.390 . S
C1205 H1209 0.950 . S
H1206 C1202 0.950 . S
C1207 C1205 1.390 . S
C1207 C1208 1.387 . S
C1207 H1210 0.950 . S
C1208 C1207 1.387 . S
C1208 C1211 1.387 . S
H1209 C1205 0.950 . S
H1210 C1207 0.950 . S
C1211 C1202 1.390 . S
C1211 H1204 0.950 . S
C1211 C1208 1.387 . S
C1212 C1213 1.387 . S
C1212 H1216 0.950 . S
C1212 C1221 1.390 . S
C1213 C1212 1.387 . S
C1213 C1215 1.387 . S
H1214 C1221 0.950 . S
C1215 C1213 1.387 . S
C1215 C1217 1.390 . S
C1215 H1219 0.950 . S
H1216 C1212 0.950 . S
C1217 C1215 1.390 . S
C1217 C1218 1.387 . S
C1217 H1220 0.950 . S
C1218 C1217 1.387 . S
C1218 C1221 1.387 . S
H1219 C1215 0.950 . S
H1220 C1217 0.950 . S
C1221 C1212 1.390 . S
C1221 H1214 0.950 . S
C1221 C1218 1.387 . S
C1222 C1223 1.387 . S
C1222 H1226 0.950 . S
C1222 C1231 1.390 . S
C1223 C1222 1.387 . S
C1223 C1225 1.387 . S
H1224 C1231 0.950 . S
C1225 C1223 1.387 . S
C1225 C1227 1.390 . S
C1225 H1229 0.950 . S
H1226 C1222 0.950 . S
C1227 C1225 1.390 . S
C1227 C1228 1.387 . S
C1227 H1230 0.950 . S
C1228 C1227 1.387 . S
C1228 C1231 1.387 . S
H1229 C1225 0.950 . S
H1230 C1227 0.950 . S
C1231 C1222 1.390 . S
C1231 H1224 0.950 . S
C1231 C1228 1.387 . S
C1232 C1233 1.387 . S
C1232 H1236 0.922 1_455 S
C1232 C1241 1.390 . S
C1233 C1232 1.387 . S
C1233 C1235 1.387 . S
H1234 C1241 0.950 1_655 S
C1235 C1233 1.387 . S
C1235 C1237 1.390 . S
C1235 H1239 0.950 . S
H1236 C1232 0.922 1_655 S
C1237 C1235 1.390 . S
C1237 C1238 1.387 . S
C1237 H1240 0.950 . S
C1238 C1237 1.387 . S
C1238 C1241 1.387 . S
H1239 C1235 0.950 . S
H1240 C1237 0.950 . S
C1241 C1232 1.390 . S
C1241 H1234 0.950 1_455 S
C1241 C1238 1.387 . S
C1242 C1243 1.387 . S
C1242 H1246 0.950 . S
C1242 C1251 1.390 . S
C1243 C1242 1.387 . S
C1243 C1245 1.387 . S
H1244 C1251 0.950 . S
C1245 C1243 1.387 . S
C1245 C1247 1.390 . S
C1245 H1249 0.950 . S
H1246 C1242 0.950 . S
C1247 C1245 1.390 . S
C1247 C1248 1.387 . S
C1247 H1250 0.950 . S
C1248 C1247 1.387 . S
C1248 C1251 1.387 . S
H1249 C1245 0.950 . S
H1250 C1247 0.950 . S
C1251 C1242 1.390 . S
C1251 H1244 0.950 . S
C1251 C1248 1.387 . S
C1252 C1253 1.387 . S
C1252 H1256 0.950 . S
C1252 C1261 1.390 . S
C1253 C1252 1.387 . S
C1253 C1255 1.387 . S
H1254 C1261 0.950 . S
C1255 C1253 1.387 . S
C1255 C1257 1.390 . S
C1255 H1259 0.950 . S
H1256 C1252 0.950 . S
C1257 C1255 1.390 . S
C1257 C1258 1.387 . S
C1257 H1260 0.950 1_556 S
C1258 C1257 1.387 . S
C1258 C1261 1.387 . S
H1259 C1255 0.950 . S
H1260 C1257 0.950 1_554 S
C1261 C1252 1.390 . S
C1261 H1254 0.950 . S
C1261 C1258 1.387 . S
C1262 C1263 1.387 . S
C1262 H1266 0.950 . S
C1262 C1271 1.390 . S
C1263 C1262 1.387 . S
C1263 C1265 1.387 . S
H1264 C1271 0.950 . S
C1265 C1263 1.387 . S
C1265 C1267 1.390 . S
C1265 H1269 0.950 . S
H1266 C1262 0.950 . S
C1267 C1265 1.390 . S
C1267 C1268 1.387 . S
C1267 H1270 0.950 . S
C1268 C1267 1.387 . S
C1268 C1271 1.387 . S
H1269 C1265 0.950 . S
H1270 C1267 0.950 . S
C1271 C1262 1.390 . S
C1271 H1264 0.950 . S
C1271 C1268 1.387 . S
C1272 C1273 1.387 . S
C1272 H1276 0.950 . S
C1272 C1281 1.390 . S
C1273 C1272 1.387 . S
C1273 C1275 1.387 . S
H1274 C1281 0.950 1_554 S
C1275 C1273 1.387 . S
C1275 C1277 1.390 . S
C1275 H1279 0.950 . S
H1276 C1272 0.950 . S
C1277 C1275 1.390 . S
C1277 C1278 1.387 . S
C1277 H1280 0.950 . S
C1278 C1277 1.387 . S
C1278 C1281 1.387 . S
H1279 C1275 0.950 . S
H1280 C1277 0.950 . S
C1281 C1272 1.390 . S
C1281 H1274 0.950 1_556 S
C1281 C1278 1.387 . S
C1282 C1283 1.387 . S
C1282 H1286 0.950 . S
C1282 C1291 1.390 . S
C1283 C1282 1.387 . S
C1283 C1285 1.387 . S
H1284 C1291 0.950 . S
C1285 C1283 1.387 . S
C1285 C1287 1.390 . S
C1285 H1289 0.950 . S
H1286 C1282 0.950 . S
C1287 C1285 1.390 . S
C1287 C1288 1.387 . S
C1287 H1290 0.950 . S
C1288 C1287 1.387 . S
C1288 C1291 1.387 . S
H1289 C1285 0.950 . S
H1290 C1287 0.950 . S
C1291 C1282 1.390 . S
C1291 H1284 0.950 . S
C1291 C1288 1.387 . S
C1292 C1293 1.387 . S
C1292 H1296 0.950 1_545 S
C1292 C1301 1.390 . S
C1293 C1292 1.387 . S
C1293 C1295 1.387 . S
H1294 C1301 0.950 1_565 S
C1295 C1293 1.387 . S
C1295 C1297 1.390 . S
C1295 H1299 0.950 . S
H1296 C1292 0.950 1_565 S
C1297 C1295 1.390 . S
C1297 C1298 1.387 . S
C1297 H1300 0.950 . S
C1298 C1297 1.387 . S
C1298 C1301 1.387 . S
H1299 C1295 0.950 . S
H1300 C1297 0.950 . S
C1301 C1292 1.390 . S
C1301 H1294 0.950 1_545 S
C1301 C1298 1.387 . S
C1302 C1303 1.387 . S
C1302 H1306 0.950 . S
C1302 C1311 1.390 . S
C1303 C1302 1.387 . S
C1303 C1305 1.387 . S
H1304 C1311 0.950 . S
C1305 C1303 1.387 . S
C1305 C1307 1.390 . S
C1305 H1309 0.950 . S
H1306 C1302 0.950 . S
C1307 C1305 1.390 . S
C1307 C1308 1.387 . S
C1307 H1310 0.950 . S
C1308 C1307 1.387 . S
C1308 C1311 1.387 . S
H1309 C1305 0.950 . S
H1310 C1307 0.950 . S
C1311 C1302 1.390 . S
C1311 H1304 0.950 . S
C1311 C1308 1.387 . S
C1312 C1313 1.387 . S
C1312 H1316 0.950 . S
C1312 C1321 1.390 . S
C1313 C1312 1.387 . S
C1313 C1315 1.387 . S
H1314 C1321 0.950 . S
C1315 C1313 1.387 . S
C1315 C1317 1.390 . S
C1315 H1319 0.950 . S
H1316 C1312 0.950 . S
C1317 C1315 1.390 . S
C1317 C1318 1.387 . S
C1317 H1320 0.950 . S
C1318 C1317 1.387 . S
C1318 C1321 1.387 . S
H1319 C1315 0.950 . S
H1320 C1317 0.950 . S
C1321 C1312 1.390 . S
C1321 H1314 0.950 . S
C1321 C1318 1.387 . S
C1322 C1323 1.387 . S
C1322 H1326 0.950 . S
C1322 C1331 1.390 . S
C1323 C1322 1.387 . S
C1323 C1325 1.387 . S
H1324 C1331 0.950 . S
C1325 C1323 1.387 . S
C1325 C1327 1.390 . S
C1325 H1329 0.950 . S
H1326 C1322 0.950 . S
C1327 C1325 1.390 . S
C1327 C1328 1.387 . S
C1327 H1330 0.950 . S
C1328 C1327 1.387 . S
C1328 C1331 1.387 . S
H1329 C1325 0.950 . S
H1330 C1327 0.950 . S
C1331 C1322 1.390 . S
C1331 H1324 0.950 . S
C1331 C1328 1.387 . S
C1332 C1333 1.387 . S
C1332 H1336 0.950 1_545 S
C1332 C1341 1.390 . S
C1333 C1332 1.387 . S
C1333 C1335 1.387 . S
H1334 C1341 0.950 . S
C1335 C1333 1.387 . S
C1335 C1337 1.390 . S
C1335 H1339 0.950 . S
H1336 C1332 0.950 1_565 S
C1337 C1335 1.390 . S
C1337 C1338 1.387 . S
C1337 H1340 0.950 . S
C1338 C1337 1.387 . S
C1338 C1341 1.387 . S
H1339 C1335 0.950 . S
H1340 C1337 0.950 . S
C1341 C1332 1.390 . S
C1341 H1334 0.950 . S
C1341 C1338 1.387 . S
C1342 C1343 1.387 . S
C1342 H1346 0.950 . S
C1342 C1351 1.390 . S
C1343 C1342 1.387 . S
C1343 C1345 1.387 . S
H1344 C1351 0.950 . S
C1345 C1343 1.387 . S
C1345 C1347 1.390 . S
C1345 H1349 0.950 . S
H1346 C1342 0.950 . S
C1347 C1345 1.390 . S
C1347 C1348 1.387 . S
C1347 H1350 0.950 . S
C1348 C1347 1.387 . S
C1348 C1351 1.387 . S
H1349 C1345 0.950 . S
H1350 C1347 0.950 . S
C1351 C1342 1.390 . S
C1351 H1344 0.950 . S
C1351 C1348 1.387 . S
C1352 C1353 1.387 . S
C1352 H1356 0.950 . S
C1352 C1361 1.390 . S
C1353 C1352 1.387 . S
C1353 C1355 1.387 . S
H1354 C1361 0.950 . S
C1355 C1353 1.387 . S
C1355 C1357 1.390 . S
C1355 H1359 0.950 . S
H1356 C1352 0.950 . S
C1357 C1355 1.390 . S
C1357 C1358 1.387 . S
C1357 H1360 0.950 . S
C1358 C1357 1.387 . S
C1358 C1361 1.387 . S
H1359 C1355 0.950 . S
H1360 C1357 0.950 . S
C1361 C1352 1.390 . S
C1361 H1354 0.950 . S
C1361 C1358 1.387 . S
C1362 C1363 1.387 . S
C1362 H1366 0.950 . S
C1362 C1371 1.390 . S
C1363 C1362 1.387 . S
C1363 C1365 1.387 . S
H1364 C1371 0.950 . S
C1365 C1363 1.387 . S
C1365 C1367 1.390 . S
C1365 H1369 0.950 . S
H1366 C1362 0.950 . S
C1367 C1365 1.390 . S
C1367 C1368 1.387 . S
C1367 H1370 0.950 1_554 S
C1368 C1367 1.387 . S
C1368 C1371 1.387 . S
H1369 C1365 0.950 . S
H1370 C1367 0.950 1_556 S
C1371 C1362 1.390 . S
C1371 H1364 0.950 . S
C1371 C1368 1.387 . S
C1372 C1373 1.387 . S
C1372 H1376 0.950 . S
C1372 C1381 1.390 . S
C1373 C1372 1.387 . S
C1373 C1375 1.387 . S
H1374 C1381 0.950 . S
C1375 C1373 1.387 . S
C1375 C1377 1.390 . S
C1375 H1379 0.950 . S
H1376 C1372 0.950 . S
C1377 C1375 1.390 . S
C1377 C1378 1.387 . S
C1377 H1380 0.950 . S
C1378 C1377 1.387 . S
C1378 C1381 1.387 . S
H1379 C1375 0.950 . S
H1380 C1377 0.950 . S
C1381 C1372 1.390 . S
C1381 H1374 0.950 . S
C1381 C1378 1.387 . S
C1382 C1383 1.387 . S
C1382 H1386 0.950 . S
C1382 C1391 1.390 . S
C1383 C1382 1.387 . S
C1383 C1385 1.387 . S
H1384 C1391 0.950 . S
C1385 C1383 1.387 . S
C1385 C1387 1.390 . S
C1385 H1389 0.950 . S
H1386 C1382 0.950 . S
C1387 C1385 1.390 . S
C1387 C1388 1.387 . S
C1387 H1390 0.950 . S
C1388 C1387 1.387 . S
C1388 C1391 1.387 . S
H1389 C1385 0.950 . S
H1390 C1387 0.950 . S
C1391 C1382 1.390 . S
C1391 H1384 0.950 . S
C1391 C1388 1.387 . S
C1392 C1393 1.387 1_565 S
C1392 H1396 0.950 . S
C1392 C1401 1.390 . S
C1393 C1392 1.387 1_545 S
C1393 C1395 1.387 . S
H1394 C1401 0.950 . S
C1395 C1393 1.387 . S
C1395 C1397 1.390 . S
C1395 H1399 0.950 . S
H1396 C1392 0.950 . S
C1397 C1395 1.390 . S
C1397 C1398 1.387 1_545 S
C1397 H1400 0.950 . S
C1398 C1397 1.387 1_565 S
C1398 C1401 1.387 . S
H1399 C1395 0.950 . S
H1400 C1397 0.950 . S
C1401 C1392 1.390 . S
C1401 H1394 0.950 . S
C1401 C1398 1.387 . S
C1402 C1403 1.387 . S
C1402 H1406 0.950 . S
C1402 C1411 1.390 . S
C1403 C1402 1.387 . S
C1403 C1405 1.387 . S
H1404 C1411 0.950 . S
C1405 C1403 1.387 . S
C1405 C1407 1.390 . S
C1405 H1409 0.950 . S
H1406 C1402 0.950 . S
C1407 C1405 1.390 . S
C1407 C1408 1.387 . S
C1407 H1410 0.950 . S
C1408 C1407 1.387 . S
C1408 C1411 1.387 . S
H1409 C1405 0.950 . S
H1410 C1407 0.950 . S
C1411 C1402 1.390 . S
C1411 H1404 0.950 . S
C1411 C1408 1.387 . S
C1412 C1413 1.387 . S
C1412 H1416 0.950 . S
C1412 C1421 1.390 . S
C1413 C1412 1.387 . S
C1413 C1415 1.387 . S
H1414 C1421 0.950 . S
C1415 C1413 1.387 . S
C1415 C1417 1.390 . S
C1415 H1419 0.950 . S
H1416 C1412 0.950 . S
C1417 C1415 1.390 . S
C1417 C1418 1.387 . S
C1417 H1420 0.950 . S
C1418 C1417 1.387 . S
C1418 C1421 1.387 . S
H1419 C1415 0.950 . S
H1420 C1417 0.950 . S
C1421 C1412 1.390 . S
C1421 H1414 0.950 . S
C1421 C1418 1.387 . S
C1422 C1423 1.387 . S
C1422 H1426 0.950 . S
C1422 C1431 1.390 . S
C1423 C1422 1.387 . S
C1423 C1425 1.387 . S
H1424 C1431 0.950 . S
C1425 C1423 1.387 . S
C1425 C1427 1.390 . S
C1425 H1429 0.950 . S
H1426 C1422 0.950 . S
C1427 C1425 1.390 . S
C1427 C1428 1.387 . S
C1427 H1430 0.950 . S
C1428 C1427 1.387 . S
C1428 C1431 1.387 . S
H1429 C1425 0.950 . S
H1430 C1427 0.950 . S
C1431 C1422 1.390 . S
C1431 H1424 0.950 . S
C1431 C1428 1.387 . S
C1432 C1433 1.387 . S
C1432 H1436 0.950 . S
C1432 C1441 1.390 . S
C1433 C1432 1.387 . S
C1433 C1435 1.387 . S
H1434 C1441 0.950 . S
C1435 C1433 1.387 . S
C1435 C1437 1.390 . S
C1435 H1439 0.950 . S
H1436 C1432 0.950 . S
C1437 C1435 1.390 . S
C1437 C1438 1.387 . S
C1437 H1440 0.950 . S
C1438 C1437 1.387 . S
C1438 C1441 1.387 . S
H1439 C1435 0.950 . S
H1440 C1437 0.950 . S
C1441 C1432 1.390 . S
C1441 H1434 0.950 . S
C1441 C1438 1.387 . S
C1442 C1443 1.387 . S
C1442 H1446 0.950 . S
C1442 C1451 1.390 . S
C1443 C1442 1.387 . S
C1443 C1445 1.387 . S
H1444 C1451 0.950 . S
C1445 C1443 1.387 . S
C1445 C1447 1.390 . S
C1445 H1449 0.950 . S
H1446 C1442 0.950 . S
C1447 C1445 1.390 . S
C1447 C1448 1.387 . S
C1447 H1450 0.950 . S
C1448 C1447 1.387 . S
C1448 C1451 1.387 . S
H1449 C1445 0.950 . S
H1450 C1447 0.950 . S
C1451 C1442 1.390 . S
C1451 H1444 0.950 . S
C1451 C1448 1.387 . S
C1452 C1453 1.387 1_654 S
C1452 H1456 0.950 1_554 S
C1452 C1461 1.390 . S
C1453 C1452 1.387 1_456 S
C1453 C1455 1.387 1_556 S
H1454 C1461 0.950 . S
C1455 C1453 1.387 1_554 S
C1455 C1457 1.390 . S
C1455 H1459 0.949 1_554 S
H1456 C1452 0.950 1_556 S
C1457 C1455 1.390 . S
C1457 C1458 1.387 . S
C1457 H1460 0.950 . S
C1458 C1457 1.387 . S
C1458 C1461 1.387 1_455 S
H1459 C1455 0.949 1_556 S
H1460 C1457 0.950 . S
C1461 C1452 1.390 . S
C1461 H1454 0.950 . S
C1461 C1458 1.387 1_655 S
C1462 C1463 1.387 . S
C1462 H1466 0.950 . S
C1462 C1471 1.390 . S
C1463 C1462 1.387 . S
C1463 C1465 1.387 . S
H1464 C1471 0.950 . S
C1465 C1463 1.387 . S
C1465 C1467 1.390 1_455 S
C1465 H1469 0.950 . S
H1466 C1462 0.950 . S
C1467 C1465 1.390 1_655 S
C1467 C1468 1.387 . S
C1467 H1470 0.950 . S
C1468 C1467 1.387 . S
C1468 C1471 1.387 1_655 S
H1469 C1465 0.950 . S
H1470 C1467 0.950 . S
C1471 C1462 1.390 . S
C1471 H1464 0.950 . S
C1471 C1468 1.387 1_455 S
C1472 C1473 1.387 . S
C1472 H1476 0.950 . S
C1472 C1481 1.390 . S
C1473 C1472 1.387 . S
C1473 C1475 1.387 . S
H1474 C1481 0.950 . S
C1475 C1473 1.387 . S
C1475 C1477 1.390 . S
C1475 H1479 0.950 . S
H1476 C1472 0.950 . S
C1477 C1475 1.390 . S
C1477 C1478 1.387 . S
C1477 H1480 0.950 . S
C1478 C1477 1.387 . S
C1478 C1481 1.387 . S
H1479 C1475 0.950 . S
H1480 C1477 0.950 . S
C1481 C1472 1.390 . S
C1481 H1474 0.950 . S
C1481 C1478 1.387 . S
C1482 C1483 1.387 . S
C1482 H1486 0.950 . S
C1482 C1491 1.390 . S
C1483 C1482 1.387 . S
C1483 C1485 1.387 . S
H1484 C1491 0.950 . S
C1485 C1483 1.387 . S
C1485 C1487 1.390 . S
C1485 H1489 0.950 . S
H1486 C1482 0.950 . S
C1487 C1485 1.390 . S
C1487 C1488 1.387 . S
C1487 H1490 0.950 . S
C1488 C1487 1.387 . S
C1488 C1491 1.387 . S
H1489 C1485 0.950 . S
H1490 C1487 0.950 . S
C1491 C1482 1.390 . S
C1491 H1484 0.950 . S
C1491 C1488 1.387 . S
C1492 C1493 1.387 . S
C1492 H1496 0.950 1_455 S
C1492 C1501 1.390 . S
C1493 C1492 1.387 . S
C1493 C1495 1.387 . S
H1494 C1501 0.950 1_655 S
C1495 C1493 1.387 . S
C1495 C1497 1.390 . S
C1495 H1499 0.950 . S
H1496 C1492 0.950 1_655 S
C1497 C1495 1.390 . S
C1497 C1498 1.387 . S
C1497 H1500 0.950 . S
C1498 C1497 1.387 . S
C1498 C1501 1.387 . S
H1499 C1495 0.950 . S
H1500 C1497 0.950 . S
C1501 C1492 1.390 . S
C1501 H1494 0.950 1_455 S
C1501 C1498 1.387 . S
C1502 C1503 1.387 . S
C1502 H1506 0.950 . S
C1502 C1511 1.390 . S
C1503 C1502 1.387 . S
C1503 C1505 1.387 . S
H1504 C1511 0.950 . S
C1505 C1503 1.387 . S
C1505 C1507 1.390 . S
C1505 H1509 0.950 . S
H1506 C1502 0.950 . S
C1507 C1505 1.390 . S
C1507 C1508 1.387 . S
C1507 H1510 0.950 . S
C1508 C1507 1.387 . S
C1508 C1511 1.387 . S
H1509 C1505 0.950 . S
H1510 C1507 0.950 . S
C1511 C1502 1.390 . S
C1511 H1504 0.950 . S
C1511 C1508 1.387 . S
C1512 C1513 1.387 . S
C1512 H1516 0.950 . S
C1512 C1521 1.390 . S
C1513 C1512 1.387 . S
C1513 C1515 1.387 . S
H1514 C1521 0.950 . S
C1515 C1513 1.387 . S
C1515 C1517 1.390 . S
C1515 H1519 0.950 . S
H1516 C1512 0.950 . S
C1517 C1515 1.390 . S
C1517 C1518 1.387 . S
C1517 H1520 0.950 . S
C1518 C1517 1.387 . S
C1518 C1521 1.387 . S
H1519 C1515 0.950 . S
H1520 C1517 0.950 . S
C1521 C1512 1.390 . S
C1521 H1514 0.950 . S
C1521 C1518 1.387 . S
C1522 C1523 1.387 . S
C1522 H1526 0.950 . S
C1522 C1531 1.390 . S
C1523 C1522 1.387 . S
C1523 C1525 1.387 1_554 S
H1524 C1531 0.950 . S
C1525 C1523 1.387 1_556 S
C1525 C1527 1.390 . S
C1525 H1529 0.950 . S
H1526 C1522 0.950 . S
C1527 C1525 1.390 . S
C1527 C1528 1.387 . S
C1527 H1530 0.950 . S
C1528 C1527 1.387 . S
C1528 C1531 1.387 1_556 S
H1529 C1525 0.950 . S
H1530 C1527 0.950 . S
C1531 C1522 1.390 . S
C1531 H1524 0.950 . S
C1531 C1528 1.387 1_554 S
C1532 C1533 1.387 . S
C1532 H1536 0.950 . S
C1532 C1541 1.390 . S
C1533 C1532 1.387 . S
C1533 C1535 1.387 . S
H1534 C1541 0.950 . S
C1535 C1533 1.387 . S
C1535 C1537 1.390 . S
C1535 H1539 0.950 . S
H1536 C1532 0.950 . S
C1537 C1535 1.390 . S
C1537 C1538 1.387 . S
C1537 H1540 0.950 . S
C1538 C1537 1.387 . S
C1538 C1541 1.387 . S
H1539 C1535 0.950 . S
H1540 C1537 0.950 . S
C1541 C1532 1.390 . S
C1541 H1534 0.950 . S
C1541 C1538 1.387 . S
C1542 C1543 1.387 . S
C1542 H1546 0.950 . S
C1542 C1551 1.390 . S
C1543 C1542 1.387 . S
C1543 C1545 1.387 . S
H1544 C1551 0.950 . S
C1545 C1543 1.387 . S
C1545 C1547 1.390 . S
C1545 H1549 0.950 . S
H1546 C1542 0.950 . S
C1547 C1545 1.390 . S
C1547 C1548 1.387 . S
C1547 H1550 0.950 . S
C1548 C1547 1.387 . S
C1548 C1551 1.387 . S
H1549 C1545 0.950 . S
H1550 C1547 0.950 . S
C1551 C1542 1.390 . S
C1551 H1544 0.950 . S
C1551 C1548 1.387 . S
C1552 C1553 1.387 . S
C1552 H1556 0.950 . S
C1552 C1561 1.390 . S
C1553 C1552 1.387 . S
C1553 C1555 1.387 . S
H1554 C1561 0.950 . S
C1555 C1553 1.387 . S
C1555 C1557 1.390 . S
C1555 H1559 0.950 . S
H1556 C1552 0.950 . S
C1557 C1555 1.390 . S
C1557 C1558 1.387 . S
C1557 H1560 0.950 . S
C1558 C1557 1.387 . S
C1558 C1561 1.387 . S
H1559 C1555 0.950 . S
H1560 C1557 0.950 . S
C1561 C1552 1.390 . S
C1561 H1554 0.950 . S
C1561 C1558 1.387 . S
C1562 C1563 1.387 . S
C1562 H1566 0.950 . S
C1562 C1571 1.390 . S
C1563 C1562 1.387 . S
C1563 C1565 1.387 . S
H1564 C1571 0.950 . S
C1565 C1563 1.387 . S
C1565 C1567 1.390 . S
C1565 H1569 0.950 . S
H1566 C1562 0.950 . S
C1567 C1565 1.390 . S
C1567 C1568 1.387 . S
C1567 H1570 0.950 . S
C1568 C1567 1.387 . S
C1568 C1571 1.387 . S
H1569 C1565 0.950 . S
H1570 C1567 0.950 . S
C1571 C1562 1.390 . S
C1571 H1564 0.950 . S
C1571 C1568 1.387 . S
C1572 C1573 1.387 . S
C1572 H1576 0.950 . S
C1572 C1581 1.390 . S
C1573 C1572 1.387 . S
C1573 C1575 1.387 . S
H1574 C1581 0.950 . S
C1575 C1573 1.387 . S
C1575 C1577 1.390 . S
C1575 H1579 0.950 . S
H1576 C1572 0.950 . S
C1577 C1575 1.390 . S
C1577 C1578 1.387 . S
C1577 H1580 0.950 . S
C1578 C1577 1.387 . S
C1578 C1581 1.387 . S
H1579 C1575 0.950 . S
H1580 C1577 0.950 . S
C1581 C1572 1.390 . S
C1581 H1574 0.950 . S
C1581 C1578 1.387 . S
C1582 C1583 1.387 . S
C1582 H1586 0.950 . S
C1582 C1591 1.390 . S
C1583 C1582 1.387 . S
C1583 C1585 1.387 . S
H1584 C1591 0.950 . S
C1585 C1583 1.387 . S
C1585 C1587 1.390 . S
C1585 H1589 0.950 . S
H1586 C1582 0.950 . S
C1587 C1585 1.390 . S
C1587 C1588 1.387 . S
C1587 H1590 0.950 . S
C1588 C1587 1.387 . S
C1588 C1591 1.387 . S
H1589 C1585 0.950 . S
H1590 C1587 0.950 . S
C1591 C1582 1.390 . S
C1591 H1584 0.950 . S
C1591 C1588 1.387 . S
C1592 C1593 1.387 . S
C1592 H1596 0.950 . S
C1592 C1601 1.390 . S
C1593 C1592 1.387 . S
C1593 C1595 1.387 . S
H1594 C1601 0.950 . S
C1595 C1593 1.387 . S
C1595 C1597 1.390 . S
C1595 H1599 0.950 . S
H1596 C1592 0.950 . S
C1597 C1595 1.390 . S
C1597 C1598 1.387 . S
C1597 H1600 0.950 . S
C1598 C1597 1.387 . S
C1598 C1601 1.387 . S
H1599 C1595 0.950 . S
H1600 C1597 0.950 . S
C1601 C1592 1.390 . S
C1601 H1594 0.950 . S
C1601 C1598 1.387 . S
C1602 C1603 1.387 . S
C1602 H1606 0.950 . S
C1602 C1611 1.390 . S
C1603 C1602 1.387 . S
C1603 C1605 1.387 . S
H1604 C1611 0.950 . S
C1605 C1603 1.387 . S
C1605 C1607 1.390 . S
C1605 H1609 0.950 . S
H1606 C1602 0.950 . S
C1607 C1605 1.390 . S
C1607 C1608 1.387 . S
C1607 H1610 0.950 . S
C1608 C1607 1.387 . S
C1608 C1611 1.387 . S
H1609 C1605 0.950 . S
H1610 C1607 0.950 . S
C1611 C1602 1.390 . S
C1611 H1604 0.950 . S
C1611 C1608 1.387 . S
C1612 C1613 1.387 1_565 S
C1612 H1616 0.950 . S
C1612 C1621 1.390 . S
C1613 C1612 1.387 1_545 S
C1613 C1615 1.387 . S
H1614 C1621 0.950 . S
C1615 C1613 1.387 . S
C1615 C1617 1.390 . S
C1615 H1619 0.950 . S
H1616 C1612 0.950 . S
C1617 C1615 1.390 . S
C1617 C1618 1.387 . S
C1617 H1620 0.950 . S
C1618 C1617 1.387 . S
C1618 C1621 1.387 1_545 S
H1619 C1615 0.950 . S
H1620 C1617 0.950 . S
C1621 C1612 1.390 . S
C1621 H1614 0.950 . S
C1621 C1618 1.387 1_565 S
C1622 C1623 1.387 1_545 S
C1622 H1626 0.950 . S
C1622 C1631 1.390 . S
C1623 C1622 1.387 1_565 S
C1623 C1625 1.387 1_556 S
H1624 C1631 0.950 . S
C1625 C1623 1.387 1_554 S
C1625 C1627 1.390 1_565 S
C1625 H1629 0.950 . S
H1626 C1622 0.950 . S
C1627 C1625 1.390 1_545 S
C1627 C1628 1.387 . S
C1627 H1630 0.950 . S
C1628 C1627 1.387 . S
C1628 C1631 1.387 1_554 S
H1629 C1625 0.950 . S
H1630 C1627 0.950 . S
C1631 C1622 1.390 . S
C1631 H1624 0.950 . S
C1631 C1628 1.387 1_556 S
C1632 C1633 1.387 . S
C1632 H1636 0.950 . S
C1632 C1641 1.390 . S
C1633 C1632 1.387 . S
C1633 C1635 1.387 . S
H1634 C1641 0.950 . S
C1635 C1633 1.387 . S
C1635 C1637 1.390 . S
C1635 H1639 0.950 . S
H1636 C1632 0.950 . S
C1637 C1635 1.390 . S
C1637 C1638 1.387 . S
C1637 H1640 0.950 . S
C1638 C1637 1.387 . S
C1638 C1641 1.387 . S
H1639 C1635 0.950 . S
H1640 C1637 0.950 . S
C1641 C1632 1.390 . S
C1641 H1634 0.950 . S
C1641 C1638 1.387 . S
C1642 C1643 1.387 . S
C1642 H1646 0.950 . S
C1642 C1651 1.390 . S
C1643 C1642 1.387 . S
C1643 C1645 1.387 . S
H1644 C1651 0.950 . S
C1645 C1643 1.387 . S
C1645 C1647 1.390 . S
C1645 H1649 0.950 . S
H1646 C1642 0.950 . S
C1647 C1645 1.390 . S
C1647 C1648 1.387 . S
C1647 H1650 0.950 . S
C1648 C1647 1.387 . S
C1648 C1651 1.387 . S
H1649 C1645 0.950 . S
H1650 C1647 0.950 . S
C1651 C1642 1.390 . S
C1651 H1644 0.950 . S
C1651 C1648 1.387 . S
C1652 C1653 1.387 . S
C1652 H1656 0.950 . S
C1652 C1661 1.390 . S
C1653 C1652 1.387 . S
C1653 C1655 1.387 . S
H1654 C1661 0.950 . S
C1655 C1653 1.387 . S
C1655 C1657 1.390 . S
C1655 H1659 0.950 . S
H1656 C1652 0.950 . S
C1657 C1655 1.390 . S
C1657 C1658 1.387 . S
C1657 H1660 0.950 . S
C1658 C1657 1.387 . S
C1658 C1661 1.387 . S
H1659 C1655 0.950 . S
H1660 C1657 0.950 . S
C1661 C1652 1.390 . S
C1661 H1654 0.950 . S
C1661 C1658 1.387 . S
C1662 C1663 1.387 . S
C1662 H1666 0.950 . S
C1662 C1671 1.390 . S
C1663 C1662 1.387 . S
C1663 C1665 1.387 . S
H1664 C1671 0.950 . S
C1665 C1663 1.387 . S
C1665 C1667 1.390 . S
C1665 H1669 0.950 . S
H1666 C1662 0.950 . S
C1667 C1665 1.390 . S
C1667 C1668 1.387 . S
C1667 H1670 0.950 . S
C1668 C1667 1.387 . S
C1668 C1671 1.387 . S
H1669 C1665 0.950 . S
H1670 C1667 0.950 . S
C1671 C1662 1.390 . S
C1671 H1664 0.950 . S
C1671 C1668 1.387 . S
C1672 C1673 1.387 . S
C1672 H1676 0.950 . S
C1672 C1681 1.390 . S
C1673 C1672 1.387 . S
C1673 C1675 1.387 . S
H1674 C1681 0.950 . S
C1675 C1673 1.387 . S
C1675 C1677 1.390 . S
C1675 H1679 0.950 . S
H1676 C1672 0.950 . S
C1677 C1675 1.390 . S
C1677 C1678 1.387 . S
C1677 H1680 0.950 . S
C1678 C1677 1.387 . S
C1678 C1681 1.387 . S
H1679 C1675 0.950 . S
H1680 C1677 0.950 . S
C1681 C1672 1.390 . S
C1681 H1674 0.950 . S
C1681 C1678 1.387 . S
C1682 C1683 1.387 . S
C1682 H1686 0.950 . S
C1682 C1691 1.390 . S
C1683 C1682 1.387 . S
C1683 C1685 1.387 . S
H1684 C1691 0.950 . S
C1685 C1683 1.387 . S
C1685 C1687 1.390 . S
C1685 H1689 0.950 . S
H1686 C1682 0.950 . S
C1687 C1685 1.390 . S
C1687 C1688 1.387 . S
C1687 H1690 0.950 . S
C1688 C1687 1.387 . S
C1688 C1691 1.387 . S
H1689 C1685 0.950 . S
H1690 C1687 0.950 . S
C1691 C1682 1.390 . S
C1691 H1684 0.950 . S
C1691 C1688 1.387 . S
C1692 C1693 1.387 . S
C1692 H1696 0.950 . S
C1692 C1701 1.390 . S
C1693 C1692 1.387 . S
C1693 C1695 1.387 . S
H1694 C1701 0.950 . S
C1695 C1693 1.387 . S
C1695 C1697 1.390 . S
C1695 H1699 0.950 . S
H1696 C1692 0.950 . S
C1697 C1695 1.390 . S
C1697 C1698 1.387 . S
C1697 H1700 0.950 . S
C1698 C1697 1.387 . S
C1698 C1701 1.387 . S
H1699 C1695 0.950 . S
H1700 C1697 0.950 . S
C1701 C1692 1.390 . S
C1701 H1694 0.950 . S
C1701 C1698 1.387 . S
C1702 C1703 1.387 . S
C1702 H1706 0.950 . S
C1702 C1711 1.390 . S
C1703 C1702 1.387 . S
C1703 C1705 1.387 . S
H1704 C1711 0.950 . S
C1705 C1703 1.387 . S
C1705 C1707 1.390 . S
C1705 H1709 0.950 . S
H1706 C1702 0.950 . S
C1707 C1705 1.390 . S
C1707 C1708 1.387 . S
C1707 H1710 0.950 . S
C1708 C1707 1.387 . S
C1708 C1711 1.387 . S
H1709 C1705 0.950 . S
H1710 C1707 0.950 . S
C1711 C1702 1.390 . S
C1711 H1704 0.950 . S
C1711 C1708 1.387 . S
C1712 C1713 1.387 . S
C1712 H1716 0.950 . S
C1712 C1721 1.390 . S
C1713 C1712 1.387 . S
C1713 C1715 1.387 . S
H1714 C1721 0.950 . S
C1715 C1713 1.387 . S
C1715 C1717 1.390 . S
C1715 H1719 0.950 . S
H1716 C1712 0.950 . S
C1717 C1715 1.390 . S
C1717 C1718 1.387 . S
C1717 H1720 0.950 . S
C1718 C1717 1.387 . S
C1718 C1721 1.387 . S
H1719 C1715 0.950 . S
H1720 C1717 0.950 . S
C1721 C1712 1.390 . S
C1721 H1714 0.950 . S
C1721 C1718 1.387 . S
C1722 C1723 1.387 . S
C1722 H1726 0.950 . S
C1722 C1731 1.390 . S
C1723 C1722 1.387 . S
C1723 C1725 1.387 . S
H1724 C1731 0.950 . S
C1725 C1723 1.387 . S
C1725 C1727 1.390 . S
C1725 H1729 0.950 . S
H1726 C1722 0.950 . S
C1727 C1725 1.390 . S
C1727 C1728 1.387 . S
C1727 H1730 0.950 . S
C1728 C1727 1.387 . S
C1728 C1731 1.387 . S
H1729 C1725 0.950 . S
H1730 C1727 0.950 . S
C1731 C1722 1.390 . S
C1731 H1724 0.950 . S
C1731 C1728 1.387 . S
C1732 C1733 1.387 . S
C1732 H1736 0.950 . S
C1732 C1741 1.390 . S
C1733 C1732 1.387 . S
C1733 C1735 1.387 . S
H1734 C1741 0.950 . S
C1735 C1733 1.387 . S
C1735 C1737 1.390 . S
C1735 H1739 0.950 . S
H1736 C1732 0.950 . S
C1737 C1735 1.390 . S
C1737 C1738 1.387 . S
C1737 H1740 0.950 . S
C1738 C1737 1.387 . S
C1738 C1741 1.387 . S
H1739 C1735 0.950 . S
H1740 C1737 0.950 . S
C1741 C1732 1.390 . S
C1741 H1734 0.950 . S
C1741 C1738 1.387 . S
C1742 C1743 1.387 . S
C1742 H1746 0.950 . S
C1742 C1751 1.390 . S
C1743 C1742 1.387 . S
C1743 C1745 1.387 . S
H1744 C1751 0.950 . S
C1745 C1743 1.387 . S
C1745 C1747 1.390 . S
C1745 H1749 0.950 . S
H1746 C1742 0.950 . S
C1747 C1745 1.390 . S
C1747 C1748 1.387 . S
C1747 H1750 0.950 . S
C1748 C1747 1.387 . S
C1748 C1751 1.387 . S
H1749 C1745 0.950 . S
H1750 C1747 0.950 . S
C1751 C1742 1.390 . S
C1751 H1744 0.950 . S
C1751 C1748 1.387 . S
C1752 C1753 1.387 . S
C1752 H1756 0.950 . S
C1752 C1761 1.390 . S
C1753 C1752 1.387 . S
C1753 C1755 1.387 . S
H1754 C1761 0.950 . S
C1755 C1753 1.387 . S
C1755 C1757 1.390 . S
C1755 H1759 0.950 . S
H1756 C1752 0.950 . S
C1757 C1755 1.390 . S
C1757 C1758 1.387 . S
C1757 H1760 0.950 . S
C1758 C1757 1.387 . S
C1758 C1761 1.387 . S
H1759 C1755 0.950 . S
H1760 C1757 0.950 . S
C1761 C1752 1.390 . S
C1761 H1754 0.950 . S
C1761 C1758 1.387 . S
C1762 C1763 1.387 . S
C1762 H1766 0.950 . S
C1762 C1771 1.390 . S
C1763 C1762 1.387 . S
C1763 C1765 1.387 . S
H1764 C1771 0.950 . S
C1765 C1763 1.387 . S
C1765 C1767 1.390 . S
C1765 H1769 0.950 . S
H1766 C1762 0.950 . S
C1767 C1765 1.390 . S
C1767 C1768 1.387 . S
C1767 H1770 0.950 . S
C1768 C1767 1.387 . S
C1768 C1771 1.387 . S
H1769 C1765 0.950 . S
H1770 C1767 0.950 . S
C1771 C1762 1.390 . S
C1771 H1764 0.950 . S
C1771 C1768 1.387 . S
C1772 C1773 1.387 . S
C1772 H1776 0.950 . S
C1772 C1781 1.390 1_655 S
C1773 C1772 1.387 . S
C1773 C1775 1.387 . S
H1774 C1781 0.950 . S
C1775 C1773 1.387 . S
C1775 C1777 1.380 1_655 S
C1775 H1779 0.950 . S
H1776 C1772 0.950 . S
C1777 C1775 1.380 1_455 S
C1777 C1778 1.389 . S
C1777 H1780 0.958 . S
C1778 C1777 1.389 . S
C1778 C1781 1.387 . S
H1779 C1775 0.950 . S
H1780 C1777 0.958 . S
C1781 C1772 1.390 1_455 S
C1781 H1774 0.950 . S
C1781 C1778 1.387 . S
C1782 C1783 1.387 . S
C1782 H1786 0.950 . S
C1782 C1791 1.390 . S
C1783 C1782 1.387 . S
C1783 C1785 1.387 . S
H1784 C1791 0.950 . S
C1785 C1783 1.387 . S
C1785 C1787 1.390 . S
C1785 H1789 0.950 . S
H1786 C1782 0.950 . S
C1787 C1785 1.390 . S
C1787 C1788 1.387 . S
C1787 H1790 0.950 . S
C1788 C1787 1.387 . S
C1788 C1791 1.387 . S
H1789 C1785 0.950 . S
H1790 C1787 0.950 . S
C1791 C1782 1.390 . S
C1791 H1784 0.950 . S
C1791 C1788 1.387 . S
C1792 C1793 1.387 . S
C1792 H1796 0.950 . S
C1792 C1801 1.390 . S
C1793 C1792 1.387 . S
C1793 C1795 1.387 . S
H1794 C1801 0.950 . S
C1795 C1793 1.387 . S
C1795 C1797 1.390 . S
C1795 H1799 0.950 . S
H1796 C1792 0.950 . S
C1797 C1795 1.390 . S
C1797 C1798 1.387 . S
C1797 H1800 0.950 . S
C1798 C1797 1.387 . S
C1798 C1801 1.387 . S
H1799 C1795 0.950 . S
H1800 C1797 0.950 . S
C1801 C1792 1.390 . S
C1801 H1794 0.950 . S
C1801 C1798 1.387 . S
C1802 C1803 1.387 . S
C1802 H1806 0.950 . S
C1802 C1811 1.390 . S
C1803 C1802 1.387 . S
C1803 C1805 1.387 . S
H1804 C1811 0.950 . S
C1805 C1803 1.387 . S
C1805 C1807 1.390 . S
C1805 H1809 0.950 . S
H1806 C1802 0.950 . S
C1807 C1805 1.390 . S
C1807 C1808 1.387 . S
C1807 H1810 0.950 . S
C1808 C1807 1.387 . S
C1808 C1811 1.387 . S
H1809 C1805 0.950 . S
H1810 C1807 0.950 . S
C1811 C1802 1.390 . S
C1811 H1804 0.950 . S
C1811 C1808 1.387 . S
C1812 C1813 1.387 . S
C1812 H1816 0.950 . S
C1812 C1821 1.390 . S
C1813 C1812 1.387 . S
C1813 C1815 1.387 . S
H1814 C1821 0.950 . S
C1815 C1813 1.387 . S
C1815 C1817 1.390 . S
C1815 H1819 0.950 . S
H1816 C1812 0.950 . S
C1817 C1815 1.390 . S
C1817 C1818 1.387 . S
C1817 H1820 0.950 1_655 S
C1818 C1817 1.387 . S
C1818 C1821 1.387 . S
H1819 C1815 0.950 . S
H1820 C1817 0.950 1_455 S
C1821 C1812 1.390 . S
C1821 H1814 0.950 . S
C1821 C1818 1.387 . S
C1822 C1823 1.387 . S
C1822 H1826 0.950 . S
C1822 C1831 1.390 . S
C1823 C1822 1.387 . S
C1823 C1825 1.387 . S
H1824 C1831 0.950 . S
C1825 C1823 1.387 . S
C1825 C1827 1.390 . S
C1825 H1829 0.950 . S
H1826 C1822 0.950 . S
C1827 C1825 1.390 . S
C1827 C1828 1.387 . S
C1827 H1830 0.950 . S
C1828 C1827 1.387 . S
C1828 C1831 1.387 . S
H1829 C1825 0.950 . S
H1830 C1827 0.950 . S
C1831 C1822 1.390 . S
C1831 H1824 0.950 . S
C1831 C1828 1.387 . S
C1832 C1833 1.387 . S
C1832 H1836 0.950 . S
C1832 C1841 1.390 . S
C1833 C1832 1.387 . S
C1833 C1835 1.387 . S
H1834 C1841 0.950 . S
C1835 C1833 1.387 . S
C1835 C1837 1.390 . S
C1835 H1839 0.950 . S
H1836 C1832 0.950 . S
C1837 C1835 1.390 . S
C1837 C1838 1.387 . S
C1837 H1840 0.950 . S
C1838 C1837 1.387 . S
C1838 C1841 1.387 . S
H1839 C1835 0.950 . S
H1840 C1837 0.950 . S
C1841 C1832 1.390 . S
C1841 H1834 0.950 . S
C1841 C1838 1.387 . S
C1842 C1843 1.387 . S
C1842 H1846 0.950 . S
C1842 C1851 1.390 . S
C1843 C1842 1.387 . S
C1843 C1845 1.387 . S
H1844 C1851 0.950 . S
C1845 C1843 1.387 . S
C1845 C1847 1.390 . S
C1845 H1849 0.950 . S
H1846 C1842 0.950 . S
C1847 C1845 1.390 . S
C1847 C1848 1.387 . S
C1847 H1850 0.950 1_565 S
C1848 C1847 1.387 . S
C1848 C1851 1.387 . S
H1849 C1845 0.950 . S
H1850 C1847 0.950 1_545 S
C1851 C1842 1.390 . S
C1851 H1844 0.950 . S
C1851 C1848 1.387 . S
C1852 C1853 1.387 . S
C1852 H1856 0.950 . S
C1852 C1861 1.390 . S
C1853 C1852 1.387 . S
C1853 C1855 1.387 . S
H1854 C1861 0.950 . S
C1855 C1853 1.387 . S
C1855 C1857 1.390 . S
C1855 H1859 0.950 . S
H1856 C1852 0.950 . S
C1857 C1855 1.390 . S
C1857 C1858 1.387 . S
C1857 H1860 0.950 . S
C1858 C1857 1.387 . S
C1858 C1861 1.387 . S
H1859 C1855 0.950 . S
H1860 C1857 0.950 . S
C1861 C1852 1.390 . S
C1861 H1854 0.950 . S
C1861 C1858 1.387 . S
C1862 C1863 1.387 . S
C1862 H1866 0.950 . S
C1862 C1871 1.390 . S
C1863 C1862 1.387 . S
C1863 C1865 1.387 . S
H1864 C1871 0.950 . S
C1865 C1863 1.387 . S
C1865 C1867 1.390 . S
C1865 H1869 0.950 . S
H1866 C1862 0.950 . S
C1867 C1865 1.390 . S
C1867 C1868 1.387 . S
C1867 H1870 0.950 . S
C1868 C1867 1.387 . S
C1868 C1871 1.387 . S
H1869 C1865 0.950 . S
H1870 C1867 0.950 . S
C1871 C1862 1.390 . S
C1871 H1864 0.950 . S
C1871 C1868 1.387 . S
C1872 C1873 1.387 . S
C1872 H1876 0.950 . S
C1872 C1881 1.390 . S
C1873 C1872 1.387 . S
C1873 C1875 1.387 . S
H1874 C1881 0.950 . S
C1875 C1873 1.387 . S
C1875 C1877 1.390 . S
C1875 H1879 0.950 . S
H1876 C1872 0.950 . S
C1877 C1875 1.390 . S
C1877 C1878 1.387 . S
C1877 H1880 0.950 . S
C1878 C1877 1.387 . S
C1878 C1881 1.387 . S
H1879 C1875 0.950 . S
H1880 C1877 0.950 . S
C1881 C1872 1.390 . S
C1881 H1874 0.950 . S
C1881 C1878 1.387 . S
C1882 C1883 1.387 . S
C1882 H1886 0.950 . S
C1882 C1891 1.390 . S
C1883 C1882 1.387 . S
C1883 C1885 1.387 . S
H1884 C1891 0.950 1_556 S
C1885 C1883 1.387 . S
C1885 C1887 1.390 . S
C1885 H1889 0.950 . S
H1886 C1882 0.950 . S
C1887 C1885 1.390 . S
C1887 C1888 1.387 . S
C1887 H1890 0.950 . S
C1888 C1887 1.387 . S
C1888 C1891 1.387 . S
H1889 C1885 0.950 . S
H1890 C1887 0.950 . S
C1891 C1882 1.390 . S
C1891 H1884 0.950 1_554 S
C1891 C1888 1.387 . S
C1892 C1893 1.387 . S
C1892 H1896 0.950 . S
C1892 C1901 1.390 . S
C1893 C1892 1.387 . S
C1893 C1895 1.387 . S
H1894 C1901 0.950 . S
C1895 C1893 1.387 . S
C1895 C1897 1.390 . S
C1895 H1899 0.950 . S
H1896 C1892 0.950 . S
C1897 C1895 1.390 . S
C1897 C1898 1.387 . S
C1897 H1900 0.950 . S
C1898 C1897 1.387 . S
C1898 C1901 1.387 . S
H1899 C1895 0.950 . S
H1900 C1897 0.950 . S
C1901 C1892 1.390 . S
C1901 H1894 0.950 . S
C1901 C1898 1.387 . S
C1902 C1903 1.387 . S
C1902 H1906 0.950 . S
C1902 C1911 1.390 . S
C1903 C1902 1.387 . S
C1903 C1905 1.387 . S
H1904 C1911 0.950 . S
C1905 C1903 1.387 . S
C1905 C1907 1.390 . S
C1905 H1909 0.950 . S
H1906 C1902 0.950 . S
C1907 C1905 1.390 . S
C1907 C1908 1.387 . S
C1907 H1910 0.950 . S
C1908 C1907 1.387 . S
C1908 C1911 1.387 . S
H1909 C1905 0.950 . S
H1910 C1907 0.950 . S
C1911 C1902 1.390 . S
C1911 H1904 0.950 . S
C1911 C1908 1.387 . S
C953 C101 2.386 1_454 S
C958 C343 2.323 . S
C963 C57 1.880 . S
C968 C354 1.982 . S
C973 C70 1.771 . S
C978 C423 1.685 . S
C988 C436 1.230 . S
C983 C82 1.278 . S
C993 C23 2.480 . S
C998 C492 2.454 . S
C1008 C543 2.233 . S
C1003 C29 2.324 . S
C1018 C572 2.289 . S
C1013 C49 2.278 . S
C1023 C10 2.616 . S
C1028 C623 2.509 . S
C1038 C314 1.737 . S
C1033 C218 1.671 . S
C1043 C226 1.243 . S
C1048 C356 1.136 . S
C1058 C394 1.150 . S
C1053 C251 1.133 . S
C1068 C463 1.684 . S
C1063 C159 1.683 . S
C1073 C211 0.857 . S
C1078 C497 0.838 1_655 S
C1088 C514 1.598 . S
C1083 C225 1.542 . S
C1098 C577 0.602 . S
C1093 C252 0.582 . S
C1108 C594 2.074 . S
C1103 C166 2.119 . S
C1118 C316 2.217 . S
C1113 C147 2.439 1_545 S
C1123 C263 1.724 . S
C1128 C655 1.692 . S
C1138 C676 2.046 . S
C1133 C309 2.200 . S
C1148 C735 0.653 . S
C1143 C291 0.630 . S
C1153 C108 1.520 . S
C1158 C596 1.461 . S
C1163 C121 1.662 . S
C1168 C396 1.588 . S
C1173 C302 1.131 . S
C1178 C754 1.287 . S
C1188 C823 1.094 . S
C1183 C276 1.136 . S
C1198 C332 2.423 1_565 S
C1193 C55 2.419 . S
C1208 C815 2.149 . S
C1203 C96 2.103 . S
C1213 C88 1.979 . S
C1218 C412 1.939 . S
C1223 C75 1.329 . S
C1228 C777 1.298 . S
C1238 C503 2.705 . S
C1233 C4 2.743 . S
C1243 C44 2.406 . S
C1248 C692 2.394 . S
C1258 C583 2.567 1_566 S
C1253 C31 2.576 . S
C1268 C852 2.614 . S
C1263 C18 2.678 1_655 S
C1278 C335 1.645 1_556 S
C1273 C133 1.619 . S
C1288 C817 1.243 . S
C1283 C296 1.307 . S
C1293 C107 1.279 . S
C1298 C415 1.260 . S
C1303 C264 2.054 . S
C1308 C772 2.078 . S
C1313 C140 0.878 . S
C1318 C476 0.872 . S
C1328 C695 1.655 . S
C1323 C289 1.644 . S
C1333 C114 0.714 . S
C1338 C556 0.713 . S
C1343 C265 2.392 . S
C1348 C855 2.345 . S
C1353 C179 2.116 . S
C1358 C337 1.979 . S
C1363 C161 1.774 . S
C1368 C634 1.726 . S
C1373 C244 1.903 . S
C1378 C537 1.818 . S
C1383 C224 0.804 . S
C1388 C714 0.794 . S
C1398 C857 1.306 . S
C1393 C257 1.330 . S
C1403 C199 1.543 . S
C1408 C417 1.508 . S
C1418 C455 1.404 . S
C1413 C237 1.324 . S
C1428 C372 1.129 . S
C1423 C185 1.163 . S
C1433 C69 2.389 . S
C1438 C903 2.325 . S
C1448 C794 1.982 . S
C1443 C83 1.881 . S
C1453 C94 1.772 . S
C1458 C943 1.688 . S
C1463 C56 1.277 . S
C1468 C756 1.228 . S
C1473 C42 2.491 . S
C1478 C652 2.464 . S
C1488 C703 2.233 . S
C1483 C3 2.325 . S
C1498 C732 2.298 . S
C1493 C16 2.285 . S
C1508 C863 2.511 . S
C1503 C36 2.617 . S
C1518 C874 1.736 . S
C1513 C238 1.669 . S
C1523 C174 1.241 . S
C1528 C796 1.134 . S
C1538 C914 1.150 . S
C1533 C186 1.136 . S
C1548 C783 1.684 . S
C1543 C198 1.682 . S
C1558 C657 0.843 . S
C1553 C239 0.861 . S
C1563 C173 1.546 . S
C1568 C674 1.600 . S
C1578 C737 0.603 . S
C1573 C187 0.583 . S
C1583 C205 2.120 . S
C1588 C834 2.075 . S
C1598 C876 2.216 . S
C1593 C290 2.439 . S
C1603 C122 1.726 . S
C1608 C495 1.695 . S
C1618 C516 2.048 1_545 S
C1613 C134 2.201 . S
C1628 C575 0.653 . S
C1623 C148 0.630 . S
C1638 C836 1.464 . S
C1633 C283 1.522 . S
C1643 C270 1.664 . S
C1648 C916 1.590 . S
C1658 C434 1.286 . S
C1653 C135 1.128 . S
C1668 C383 1.093 . S
C1663 C109 1.135 . S
C1673 C81 2.419 . S
C1678 C892 2.424 . S
C1688 C375 2.149 . S
C1683 C68 2.098 . S
C1693 C62 1.979 . S
C1698 C932 1.936 . S
C1703 C95 1.326 . S
C1708 C457 1.290 . S
C1713 C30 2.745 . S
C1718 C663 2.706 1_556 S
C1728 C532 2.384 . S
C1723 C17 2.406 . S
C1733 C5 2.577 . S
C1738 C743 2.568 . S
C1743 C43 2.674 . S
C1748 C612 2.607 . S
C1758 C895 1.646 . S
C1753 C304 1.618 . S
C1763 C153 1.309 . S
C1768 C377 1.245 . S
C1778 C935 1.262 1_556 S
C1773 C278 1.278 . S
C1783 C127 2.054 . S
C1788 C452 2.078 . S
C1793 C303 0.875 . S
C1798 C636 0.869 . S
C1808 C535 1.653 . S
C1803 C146 1.644 . S
C1813 C277 0.713 . S
C1818 C716 0.712 . S
C1828 C615 2.343 . S
C1823 C120 2.391 . S
C1838 C897 1.975 . S
C1833 C231 2.114 . S
C1848 C474 1.728 1_665 S
C1843 C200 1.776 . S
C1853 C212 1.902 . S
C1858 C697 1.816 . S
C1868 C554 0.792 . S
C1863 C172 0.801 . S
C1873 C192 1.330 . S
C1878 C617 1.305 . S
C1883 C160 1.542 . S
C1888 C937 1.507 . S
C1898 C775 1.405 . S
C1893 C213 1.326 . S
C1908 C812 1.131 . S
C1903 C250 1.164 . S
