# Generated by pormake.
# Topology pto, (3,4)-cn, num edge types: 1
# Building blocks:
#     Node 0, Type 0, BuildingBlock: WUSLED_clean_sbu_0, # of connection points: 3
#     Node 1, Type 0, BuildingBlock: WUSLED_clean_sbu_0, # of connection points: 3
#     Node 2, Type 0, BuildingBlock: WUSLED_clean_sbu_0, # of connection points: 3
#     Node 3, Type 0, BuildingBlock: WUSLED_clean_sbu_0, # of connection points: 3
#     Node 4, Type 0, BuildingBlock: WUSLED_clean_sbu_0, # of connection points: 3
#     Node 5, Type 0, BuildingBlock: WUSLED_clean_sbu_0, # of connection points: 3
#     Node 6, Type 0, BuildingBlock: WUSLED_clean_sbu_0, # of connection points: 3
#     Node 7, Type 0, BuildingBlock: WUSLED_clean_sbu_0, # of connection points: 3
#     Node 8, Type 1, BuildingBlock: KOZSID_clean_sbu_0, # of connection points: 4
#     Node 9, Type 1, BuildingBlock: KOZSID_clean_sbu_0, # of connection points: 4
#     Node 10, Type 1, BuildingBlock: KOZSID_clean_sbu_0, # of connection points: 4
#     Node 11, Type 1, BuildingBlock: KOZSID_clean_sbu_0, # of connection points: 4
#     Node 12, Type 1, BuildingBlock: KOZSID_clean_sbu_0, # of connection points: 4
#     Node 13, Type 1, BuildingBlock: KOZSID_clean_sbu_0, # of connection points: 4
#     Edge 14, Type (0, 1), BuildingBlock: UVAHIK_clean_linker_0, # of connection points: 2
#     Edge 15, Type (0, 1), BuildingBlock: UVAHIK_clean_linker_0, # of connection points: 2
#     Edge 16, Type (0, 1), BuildingBlock: UVAHIK_clean_linker_0, # of connection points: 2
#     Edge 17, Type (0, 1), BuildingBlock: UVAHIK_clean_linker_0, # of connection points: 2
#     Edge 18, Type (0, 1), BuildingBlock: UVAHIK_clean_linker_0, # of connection points: 2
#     Edge 19, Type (0, 1), BuildingBlock: UVAHIK_clean_linker_0, # of connection points: 2
#     Edge 20, Type (0, 1), BuildingBlock: UVAHIK_clean_linker_0, # of connection points: 2
#     Edge 21, Type (0, 1), BuildingBlock: UVAHIK_clean_linker_0, # of connection points: 2
#     Edge 22, Type (0, 1), BuildingBlock: UVAHIK_clean_linker_0, # of connection points: 2
#     Edge 23, Type (0, 1), BuildingBlock: UVAHIK_clean_linker_0, # of connection points: 2
#     Edge 24, Type (0, 1), BuildingBlock: UVAHIK_clean_linker_0, # of connection points: 2
#     Edge 25, Type (0, 1), BuildingBlock: UVAHIK_clean_linker_0, # of connection points: 2
#     Edge 26, Type (0, 1), BuildingBlock: UVAHIK_clean_linker_0, # of connection points: 2
#     Edge 27, Type (0, 1), BuildingBlock: UVAHIK_clean_linker_0, # of connection points: 2
#     Edge 28, Type (0, 1), BuildingBlock: UVAHIK_clean_linker_0, # of connection points: 2
#     Edge 29, Type (0, 1), BuildingBlock: UVAHIK_clean_linker_0, # of connection points: 2
#     Edge 30, Type (0, 1), BuildingBlock: UVAHIK_clean_linker_0, # of connection points: 2
#     Edge 31, Type (0, 1), BuildingBlock: UVAHIK_clean_linker_0, # of connection points: 2
#     Edge 32, Type (0, 1), BuildingBlock: UVAHIK_clean_linker_0, # of connection points: 2
#     Edge 33, Type (0, 1), BuildingBlock: UVAHIK_clean_linker_0, # of connection points: 2
#     Edge 34, Type (0, 1), BuildingBlock: UVAHIK_clean_linker_0, # of connection points: 2
#     Edge 35, Type (0, 1), BuildingBlock: UVAHIK_clean_linker_0, # of connection points: 2
#     Edge 36, Type (0, 1), BuildingBlock: UVAHIK_clean_linker_0, # of connection points: 2
#     Edge 37, Type (0, 1), BuildingBlock: UVAHIK_clean_linker_0, # of connection points: 2
# Relax obj value: 0.000
# Max RMSD: 0.020
# Mean RMSD: 0.009
data_MOF--net-pto--node1-WUSLED_clean_sbu_0--node2-KOZSID_clean_sbu_0--edge1-UVAHIK_clean_linker_0
_symmetry_space_group_name_H-M    P1
_symmetry_Int_Tables_number       1
_symmetry_cell_setting            triclinic
loop_
_symmetry_equiv_pos_as_xyz
'x, y, z'
_cell_length_a     59.883236
_cell_length_b     80.300561
_cell_length_c     70.177381
_cell_angle_alpha  87.780105
_cell_angle_beta   88.600642
_cell_angle_gamma 92.465557
loop_
_atom_site_label
_atom_site_type_symbol
_atom_site_fract_x
_atom_site_fract_y
_atom_site_fract_z
_atom_type_partial_charge
C0 C 0.2493 0.23385 0.34622 0.0
C1 C 0.2662 0.22281 0.34225 0.0
C2 C 0.25249 0.20402 0.36857 0.0
C3 C 0.26779 0.20803 0.35334 0.0
C4 C 0.23552 0.21514 0.37234 0.0
C5 C 0.23398 0.2299 0.36128 0.0
U6 U 0.26551 0.263 0.30312 0.0
O7 O 0.24424 0.27819 0.2848 0.0
O8 O 0.27065 0.29031 0.30121 0.0
C9 C 0.25357 0.29233 0.29005 0.0
C10 C 0.24733 0.24949 0.33483 0.0
C11 C 0.23807 0.30532 0.29518 0.0
C12 C 0.21726 0.32059 0.31852 0.0
C13 C 0.23161 0.30783 0.31419 0.0
C14 C 0.21545 0.32824 0.28489 0.0
C15 C 0.20901 0.33096 0.30389 0.0
C16 C 0.22982 0.31557 0.28061 0.0
C17 C 0.30891 0.24983 0.266 0.0
C18 C 0.33336 0.26731 0.24454 0.0
C19 C 0.32381 0.23882 0.23672 0.0
C20 C 0.3108 0.2367 0.25353 0.0
C21 C 0.33535 0.25412 0.23207 0.0
C22 C 0.32018 0.26523 0.26131 0.0
C23 C 0.29542 0.24702 0.28384 0.0
O24 O 0.26496 0.25985 0.33442 0.0
O25 O 0.2384 0.24792 0.31804 0.0
O26 O 0.27377 0.24466 0.28177 0.0
O27 O 0.30045 0.25665 0.298 0.0
H28 H 0.27819 0.22566 0.33064 0.0
H29 H 0.2812 0.19986 0.35014 0.0
H30 H 0.22322 0.21237 0.3837 0.0
H31 H 0.22075 0.23823 0.36447 0.0
H32 H 0.21246 0.32223 0.33328 0.0
H33 H 0.23771 0.29998 0.32567 0.0
H34 H 0.20969 0.33612 0.2733 0.0
H35 H 0.23466 0.31387 0.26585 0.0
H36 H 0.34185 0.2793 0.24126 0.0
H37 H 0.32518 0.22836 0.22754 0.0
H38 H 0.3023 0.22472 0.25688 0.0
H39 H 0.31889 0.27562 0.2706 0.0
C40 C 0.24122 0.80573 0.69723 0.0
C41 C 0.25842 0.81755 0.70078 0.0
C42 C 0.24601 0.83576 0.67481 0.0
C43 C 0.2608 0.83244 0.68967 0.0
C44 C 0.22873 0.82386 0.67147 0.0
C45 C 0.22639 0.80901 0.68256 0.0
U46 U 0.25504 0.77678 0.73976 0.0
O47 O 0.23241 0.7605 0.75824 0.0
O48 O 0.25892 0.74965 0.74118 0.0
C49 C 0.24112 0.74679 0.75238 0.0
C50 C 0.23839 0.78995 0.7086 0.0
C51 C 0.22502 0.73327 0.74719 0.0
C52 C 0.21211 0.71189 0.72579 0.0
C53 C 0.22665 0.72541 0.72967 0.0
C54 C 0.19379 0.71408 0.75666 0.0
C55 C 0.19559 0.70599 0.73931 0.0
C56 C 0.20838 0.7275 0.76057 0.0
C57 C 0.29809 0.79106 0.77595 0.0
C58 C 0.31264 0.77283 0.80075 0.0
C59 C 0.32083 0.80263 0.80084 0.0
C60 C 0.30845 0.80481 0.78436 0.0
C61 C 0.32312 0.78662 0.80924 0.0
C62 C 0.30016 0.77504 0.78427 0.0
C63 C 0.28524 0.79373 0.75854 0.0
O64 O 0.2556 0.78032 0.70849 0.0
O65 O 0.22907 0.79102 0.72563 0.0
O66 O 0.26362 0.79512 0.76124 0.0
O67 O 0.2902 0.78434 0.74423 0.0
H68 H 0.27003 0.81522 0.71209 0.0
H69 H 0.27441 0.84122 0.69253 0.0
H70 H 0.21679 0.82609 0.66042 0.0
H71 H 0.21294 0.80008 0.67969 0.0
H72 H 0.2138 0.70604 0.71221 0.0
H73 H 0.23929 0.72955 0.71903 0.0
H74 H 0.18147 0.70973 0.76749 0.0
H75 H 0.2069 0.73323 0.77425 0.0
H76 H 0.31386 0.76036 0.80696 0.0
H77 H 0.3289 0.81349 0.80684 0.0
H78 H 0.30705 0.81727 0.77811 0.0
H79 H 0.29214 0.76427 0.77803 0.0
C80 C 0.73826 0.79083 0.27051 0.0
C81 C 0.73439 0.77502 0.26307 0.0
C82 C 0.71256 0.7872 0.23757 0.0
C83 C 0.72157 0.7732 0.24678 0.0
C84 C 0.71661 0.803 0.24511 0.0
C85 C 0.72932 0.80478 0.26142 0.0
U86 U 0.78056 0.77567 0.30664 0.0
O87 O 0.80835 0.78966 0.31967 0.0
O88 O 0.78114 0.77799 0.33774 0.0
C89 C 0.79915 0.78799 0.33687 0.0
C90 C 0.75167 0.79308 0.28761 0.0
C91 C 0.79799 0.80345 0.34751 0.0
C92 C 0.77732 0.82638 0.35979 0.0
C93 C 0.77807 0.81197 0.34918 0.0
C94 C 0.81648 0.82414 0.36682 0.0
C95 C 0.7965 0.83262 0.36886 0.0
C96 C 0.81717 0.80971 0.35631 0.0
C97 C 0.80509 0.73247 0.30004 0.0
C98 C 0.83083 0.71908 0.32145 0.0
C99 C 0.81992 0.70576 0.29251 0.0
C100 C 0.80652 0.71908 0.28794 0.0
C101 C 0.8322 0.70552 0.30936 0.0
C102 C 0.81736 0.73245 0.31683 0.0
C103 C 0.79066 0.7462 0.29475 0.0
O104 O 0.74605 0.78316 0.30246 0.0
O105 O 0.77339 0.79477 0.28452 0.0
O106 O 0.801 0.76019 0.28848 0.0
O107 O 0.77377 0.74853 0.30652 0.0
H108 H 0.7413 0.7641 0.26984 0.0
H109 H 0.71897 0.76089 0.24123 0.0
H110 H 0.7097 0.814 0.23854 0.0
H111 H 0.73213 0.81708 0.26696 0.0
H112 H 0.76159 0.83243 0.36117 0.0
H113 H 0.76304 0.80741 0.34243 0.0
H114 H 0.8317 0.82871 0.37324 0.0
H115 H 0.83275 0.8034 0.35509 0.0
H116 H 0.83991 0.71925 0.3346 0.0
H117 H 0.82088 0.69573 0.28268 0.0
H118 H 0.79725 0.71893 0.27487 0.0
H119 H 0.81644 0.74271 0.32635 0.0
C120 C 0.76605 0.22827 0.72786 0.0
C121 C 0.78736 0.22516 0.72033 0.0
C122 C 0.77146 0.20264 0.70175 0.0
C123 C 0.79004 0.21245 0.7074 0.0
C124 C 0.75012 0.20614 0.70903 0.0
C125 C 0.74749 0.21876 0.72196 0.0
U126 U 0.77829 0.27074 0.75055 0.0
O127 O 0.75439 0.28763 0.76308 0.0
O128 O 0.78001 0.27657 0.78084 0.0
C129 C 0.76204 0.28542 0.78035 0.0
C130 C 0.76266 0.24085 0.74235 0.0
C131 C 0.74503 0.28185 0.79575 0.0
C132 C 0.72791 0.26386 0.8213 0.0
C133 C 0.74343 0.26648 0.8061 0.0
C134 C 0.71497 0.29174 0.81571 0.0
C135 C 0.71357 0.27651 0.82635 0.0
C136 C 0.73057 0.29439 0.80063 0.0
C137 C 0.82213 0.30249 0.72905 0.0
C138 C 0.83071 0.32894 0.74359 0.0
C139 C 0.84949 0.32236 0.71403 0.0
C140 C 0.83752 0.307 0.7142 0.0
C141 C 0.8463 0.33353 0.72874 0.0
C142 C 0.81874 0.31355 0.74374 0.0
C143 C 0.80978 0.28624 0.72899 0.0
O144 O 0.77904 0.24344 0.75418 0.0
O145 O 0.75354 0.25464 0.73639 0.0
O146 O 0.78837 0.28683 0.72543 0.0
O147 O 0.81393 0.27569 0.74312 0.0
H148 H 0.80196 0.23236 0.72463 0.0
H149 H 0.80673 0.21006 0.70221 0.0
H150 H 0.73537 0.19911 0.70473 0.0
H151 H 0.73089 0.22101 0.72752 0.0
H152 H 0.72708 0.25192 0.82906 0.0
H153 H 0.7543 0.25654 0.80257 0.0
H154 H 0.70437 0.30181 0.81935 0.0
H155 H 0.73155 0.30636 0.7929 0.0
H156 H 0.828 0.33713 0.75524 0.0
H157 H 0.86106 0.32556 0.70223 0.0
H158 H 0.84027 0.29864 0.7027 0.0
H159 H 0.80691 0.31025 0.75534 0.0
C160 C 0.79982 0.73638 0.75627 0.0
C161 C 0.80635 0.73351 0.73735 0.0
C162 C 0.82903 0.71063 0.74829 0.0
C163 C 0.82078 0.7207 0.73339 0.0
C164 C 0.82254 0.71372 0.76719 0.0
C165 C 0.80809 0.72643 0.7711 0.0
U166 U 0.77256 0.77869 0.74767 0.0
O167 O 0.73732 0.78483 0.75176 0.0
O168 O 0.76319 0.79695 0.76869 0.0
C169 C 0.74169 0.7947 0.76583 0.0
C170 C 0.78409 0.74934 0.76101 0.0
C171 C 0.72737 0.79189 0.7831 0.0
C172 C 0.7163 0.77592 0.81222 0.0
C173 C 0.73003 0.77821 0.79578 0.0
C174 C 0.6971 0.8009 0.80337 0.0
C175 C 0.69963 0.78724 0.81621 0.0
C176 C 0.71083 0.80318 0.787 0.0
C177 C 0.79004 0.80799 0.70505 0.0
C178 C 0.77821 0.83653 0.70149 0.0
C179 C 0.79824 0.8242 0.67555 0.0
C180 C 0.79941 0.80936 0.68654 0.0
C181 C 0.78768 0.838 0.68289 0.0
C182 C 0.77933 0.82164 0.71245 0.0
C183 C 0.79176 0.7923 0.71642 0.0
O184 O 0.79314 0.76348 0.76659 0.0
O185 O 0.76744 0.75138 0.74939 0.0
O186 O 0.77421 0.78189 0.71633 0.0
O187 O 0.80009 0.79378 0.73346 0.0
H188 H 0.80024 0.74111 0.72566 0.0
H189 H 0.82561 0.71877 0.7187 0.0
H190 H 0.82828 0.70608 0.77899 0.0
H191 H 0.80319 0.72841 0.78579 0.0
H192 H 0.71856 0.76518 0.82169 0.0
H193 H 0.7427 0.76932 0.79295 0.0
H194 H 0.68471 0.81 0.80611 0.0
H195 H 0.7086 0.81384 0.7774 0.0
H196 H 0.76973 0.84683 0.7075 0.0
H197 H 0.80595 0.82495 0.66141 0.0
H198 H 0.80778 0.79897 0.6806 0.0
H199 H 0.77187 0.82078 0.7267 0.0
C200 C 0.74141 0.25116 0.27745 0.0
C201 C 0.75009 0.25992 0.26099 0.0
C202 C 0.71466 0.25551 0.24511 0.0
C203 C 0.73688 0.262 0.24495 0.0
C204 C 0.70597 0.24695 0.26172 0.0
C205 C 0.71924 0.24476 0.27769 0.0
U206 U 0.78523 0.26587 0.31271 0.0
O207 O 0.78598 0.26206 0.34389 0.0
O208 O 0.81254 0.25239 0.3259 0.0
C209 C 0.8037 0.25297 0.34317 0.0
C210 C 0.75512 0.24842 0.29441 0.0
C211 C 0.80197 0.23699 0.35429 0.0
C212 C 0.78348 0.20992 0.36205 0.0
C213 C 0.78495 0.22493 0.35111 0.0
C214 C 0.81614 0.21884 0.37929 0.0
C215 C 0.79901 0.20671 0.37636 0.0
C216 C 0.81757 0.23382 0.36838 0.0
C217 C 0.81098 0.31074 0.30475 0.0
C218 C 0.8403 0.32361 0.32339 0.0
C219 C 0.82294 0.33974 0.29838 0.0
C220 C 0.80931 0.32584 0.29434 0.0
C221 C 0.83858 0.33885 0.31299 0.0
C222 C 0.82655 0.30965 0.31933 0.0
C223 C 0.79621 0.29644 0.30002 0.0
O224 O 0.77677 0.24754 0.29126 0.0
O225 O 0.75016 0.25727 0.30918 0.0
O226 O 0.77937 0.29276 0.31202 0.0
O227 O 0.8061 0.28323 0.29406 0.0
H228 H 0.7671 0.26513 0.2605 0.0
H229 H 0.74398 0.26882 0.23246 0.0
H230 H 0.68901 0.24166 0.26226 0.0
H231 H 0.7122 0.23796 0.29022 0.0
H232 H 0.76995 0.20096 0.35951 0.0
H233 H 0.77274 0.22717 0.34026 0.0
H234 H 0.82862 0.21671 0.38992 0.0
H235 H 0.83089 0.24295 0.37096 0.0
H236 H 0.85204 0.32252 0.33482 0.0
H237 H 0.82141 0.35115 0.28985 0.0
H238 H 0.79744 0.32688 0.28299 0.0
H239 H 0.82802 0.29807 0.32755 0.0
C240 C 0.24823 0.23992 0.70072 0.0
C241 C 0.25462 0.22503 0.70977 0.0
C242 C 0.25072 0.21046 0.68002 0.0
C243 C 0.25581 0.21043 0.69953 0.0
C244 C 0.24465 0.22553 0.67103 0.0
C245 C 0.24339 0.24007 0.68129 0.0
U246 U 0.26312 0.26781 0.74217 0.0
O247 O 0.26991 0.29504 0.74207 0.0
O248 O 0.24186 0.28349 0.75931 0.0
C249 C 0.25225 0.29745 0.75295 0.0
C250 C 0.24638 0.25538 0.71122 0.0
C251 C 0.2381 0.31123 0.74683 0.0
C252 C 0.20221 0.32194 0.73782 0.0
C253 C 0.21565 0.30845 0.74194 0.0
C254 C 0.23363 0.34112 0.74282 0.0
C255 C 0.21095 0.33847 0.7385 0.0
C256 C 0.24699 0.32766 0.74699 0.0
C257 C 0.30395 0.25262 0.77985 0.0
C258 C 0.32286 0.27007 0.80263 0.0
C259 C 0.32362 0.23998 0.80621 0.0
C260 C 0.31076 0.23842 0.78997 0.0
C261 C 0.33006 0.25582 0.81267 0.0
C262 C 0.3099 0.26848 0.78637 0.0
C263 C 0.29106 0.25054 0.76241 0.0
O264 O 0.23626 0.25381 0.72808 0.0
O265 O 0.26448 0.26525 0.71102 0.0
O266 O 0.29734 0.26036 0.74766 0.0
O267 O 0.26924 0.24894 0.76488 0.0
H268 H 0.25852 0.22466 0.72477 0.0
H269 H 0.26034 0.19906 0.70699 0.0
H270 H 0.24103 0.22615 0.65598 0.0
H271 H 0.23858 0.25146 0.67402 0.0
H272 H 0.18481 0.31941 0.7347 0.0
H273 H 0.20833 0.29589 0.74168 0.0
H274 H 0.24108 0.35363 0.7431 0.0
H275 H 0.26425 0.33012 0.75067 0.0
H276 H 0.32763 0.28246 0.80708 0.0
H277 H 0.32844 0.22873 0.81376 0.0
H278 H 0.30621 0.22608 0.78523 0.0
H279 H 0.30474 0.27962 0.77878 0.0
C280 C 0.21743 0.7395 0.32164 0.0
C281 C 0.22049 0.72858 0.30676 0.0
C282 C 0.19304 0.70855 0.32182 0.0
C283 C 0.20841 0.71323 0.30685 0.0
C284 C 0.19016 0.71959 0.33672 0.0
C285 C 0.20224 0.7349 0.33661 0.0
U286 U 0.26046 0.77142 0.2994 0.0
O287 O 0.25977 0.79875 0.29634 0.0
O288 O 0.28605 0.78725 0.31297 0.0
C289 C 0.27664 0.80113 0.30772 0.0
C290 C 0.22993 0.75569 0.32175 0.0
C291 C 0.27366 0.81331 0.32274 0.0
C292 C 0.25016 0.82826 0.34448 0.0
C293 C 0.25255 0.81602 0.33096 0.0
C294 C 0.28997 0.83494 0.34211 0.0
C295 C 0.26884 0.83793 0.35016 0.0
C296 C 0.29232 0.82279 0.32853 0.0
C297 C 0.29033 0.76043 0.25243 0.0
C298 C 0.32065 0.77699 0.23633 0.0
C299 C 0.30486 0.75251 0.22163 0.0
C300 C 0.29002 0.74968 0.2372 0.0
C301 C 0.32037 0.76621 0.22095 0.0
C302 C 0.3057 0.77415 0.25193 0.0
C303 C 0.2745 0.75695 0.26861 0.0
O304 O 0.25151 0.75494 0.32446 0.0
O305 O 0.22516 0.76654 0.3081 0.0
O306 O 0.2569 0.76617 0.26903 0.0
O307 O 0.28336 0.7547 0.28542 0.0
H308 H 0.23215 0.73195 0.29505 0.0
H309 H 0.21088 0.70515 0.29505 0.0
H310 H 0.17875 0.71631 0.34861 0.0
H311 H 0.19974 0.74315 0.34825 0.0
H312 H 0.2337 0.83011 0.35056 0.0
H313 H 0.2379 0.80879 0.32682 0.0
H314 H 0.30466 0.84227 0.34596 0.0
H315 H 0.30874 0.82094 0.32234 0.0
H316 H 0.33224 0.78773 0.23619 0.0
H317 H 0.30439 0.74379 0.21024 0.0
H318 H 0.27831 0.73899 0.23738 0.0
H319 H 0.30613 0.78262 0.26358 0.0
C320 C 0.05732 0.54353 0.34361 0.0
C321 C 0.06575 0.54826 0.36093 0.0
C322 C 0.05457 0.53857 0.37476 0.0
C323 C 0.04008 0.52846 0.36514 0.0
N324 N 0.04153 0.53094 0.34596 0.0
Co325 Co 0.02322 0.51916 0.32658 0.0
N326 N 0.00517 0.50612 0.34702 0.0
C327 C 0.00699 0.50731 0.3661 0.0
C328 C 0.99263 0.49657 0.37656 0.0
C329 C 0.98107 0.48786 0.3634 0.0
C330 C 0.98916 0.49379 0.3456 0.0
N331 N 0.00512 0.50719 0.30717 0.0
C332 C 0.98924 0.49466 0.30954 0.0
C333 C 0.98159 0.48935 0.29217 0.0
C334 C 0.99315 0.49875 0.27832 0.0
C335 C 0.0072 0.50918 0.28796 0.0
N336 N 0.04107 0.53239 0.30613 0.0
C337 C 0.0388 0.53155 0.28705 0.0
C338 C 0.05249 0.54276 0.2766 0.0
C339 C 0.064 0.55148 0.28976 0.0
C340 C 0.0567 0.545 0.30758 0.0
N341 N 0.04505 0.50112 0.32603 0.0
C342 C 0.07309 0.4737 0.325 0.0
C343 C 0.06694 0.48205 0.30822 0.0
C344 C 0.05312 0.49561 0.30906 0.0
C345 C 0.06554 0.4797 0.34234 0.0
C346 C 0.0517 0.49331 0.34253 0.0
N347 N 1.0014 0.53718 0.32711 0.0
C348 C 0.97884 0.55705 0.31041 0.0
C349 C 0.973 0.56443 0.32744 0.0
C350 C 0.98115 0.55757 0.34438 0.0
C351 C 0.99512 0.54404 0.3439 0.0
C352 C 0.99288 0.54359 0.31056 0.0
H353 H 1.00089 0.53952 0.35729 0.0
H354 H 0.99678 0.53871 0.29707 0.0
H355 H 0.04901 0.50129 0.29574 0.0
H356 H 0.04631 0.49708 0.3562 0.0
C357 C 0.0236 0.51762 0.37373 0.0
C358 C 0.06423 0.55182 0.32543 0.0
C359 C 0.98159 0.48691 0.32782 0.0
C360 C 0.02295 0.52061 0.2794 0.0
H361 H 0.07833 0.55799 0.36333 0.0
H362 H 0.05626 0.5392 0.39004 0.0
H363 H 0.99121 0.49492 0.39193 0.0
H364 H 0.96845 0.47802 0.36653 0.0
H365 H 0.96922 0.47949 0.28974 0.0
H366 H 0.99181 0.49786 0.26304 0.0
H367 H 0.05354 0.54466 0.26124 0.0
H368 H 0.07601 0.56172 0.28657 0.0
H369 H 0.07274 0.47817 0.29442 0.0
H370 H 0.06975 0.47365 0.35576 0.0
H371 H 0.97258 0.56159 0.29691 0.0
H372 H 0.97726 0.56284 0.35798 0.0
C373 C 0.04963 0.54747 0.7419 0.0
C374 C 0.0576 0.55234 0.75934 0.0
C375 C 0.04628 0.5426 0.77305 0.0
C376 C 0.03217 0.53235 0.76325 0.0
N377 N 0.03402 0.53474 0.74407 0.0
Co378 Co 0.0161 0.52291 0.72446 0.0
N379 N 0.99829 0.5094 0.74471 0.0
C380 C 1.00048 0.51007 0.76382 0.0
C381 C 0.98672 0.49879 0.77411 0.0
C382 C 0.97523 0.49022 0.76081 0.0
C383 C 0.98263 0.49684 0.74308 0.0
N384 N 0.99802 0.5112 0.70488 0.0
C385 C 0.98229 0.49855 0.70703 0.0
C386 C 0.97403 0.4939 0.68962 0.0
C387 C 0.98525 0.50372 0.67593 0.0
C388 C 0.99958 0.51382 0.68573 0.0
N389 N 0.03406 0.53629 0.70422 0.0
C390 C 0.03218 0.53538 0.68511 0.0
C391 C 0.04617 0.54648 0.67481 0.0
C392 C 0.05752 0.55517 0.6881 0.0
C393 C 0.04981 0.5488 0.70584 0.0
N394 N 0.03818 0.50506 0.7237 0.0
C395 C 0.06801 0.4787 0.72288 0.0
C396 C 0.0598 0.48568 0.70603 0.0
C397 C 0.04511 0.49877 0.70675 0.0
C398 C 0.06118 0.4853 0.7401 0.0
C399 C 0.04645 0.49832 0.74018 0.0
N400 N 0.99407 0.54079 0.72525 0.0
C401 C 0.97314 0.56217 0.70927 0.0
C402 C 0.96587 0.5681 0.72674 0.0
C403 C 0.97233 0.55971 0.74339 0.0
C404 C 0.98622 0.54622 0.74233 0.0
C405 C 0.98708 0.54861 0.70886 0.0
H406 H 0.99061 0.54053 0.75557 0.0
H407 H 0.99228 0.54487 0.69512 0.0
H408 H 0.03949 0.50353 0.69342 0.0
H409 H 0.04182 0.50259 0.75381 0.0
C410 C 0.01639 0.52085 0.77166 0.0
C411 C 0.05697 0.55568 0.72377 0.0
C412 C 0.97516 0.49019 0.72513 0.0
C413 C 0.01581 0.52496 0.67732 0.0
H414 H 0.07006 0.56211 0.7619 0.0
H415 H 0.04782 0.54317 0.78835 0.0
H416 H 0.98561 0.49674 0.78945 0.0
H417 H 0.96319 0.47998 0.76384 0.0
H418 H 0.96151 0.48417 0.68707 0.0
H419 H 0.98362 0.50324 0.66063 0.0
H420 H 0.04739 0.54844 0.65946 0.0
H421 H 0.06964 0.56537 0.68503 0.0
H422 H 0.06481 0.48119 0.69228 0.0
H423 H 0.06681 0.48023 0.75359 0.0
H424 H 0.96865 0.56823 0.69594 0.0
H425 H 0.96673 0.56352 0.75728 0.0
C426 C 0.27904 0.99563 0.54981 0.0
C427 C 0.29961 0.99059 0.55604 0.0
C428 C 0.31553 1.00018 0.546 0.0
C429 C 0.30386 0.01045 0.53423 0.0
N430 N 0.28139 1.00815 0.53625 0.0
Co431 Co 0.25819 0.01995 0.5213 0.0
N432 N 0.2817 0.03331 0.50567 0.0
C433 C 0.30413 0.03247 0.50701 0.0
C434 C 0.31604 0.04353 0.49489 0.0
C435 C 0.30031 0.05209 0.48535 0.0
C436 C 0.27961 0.0457 0.4922 0.0
N437 N 0.23498 0.03175 0.50638 0.0
C438 C 0.23733 0.04429 0.49286 0.0
C439 C 0.21678 0.04908 0.48632 0.0
C440 C 0.20085 0.03945 0.4963 0.0
C441 C 0.21252 0.02932 0.50825 0.0
N442 N 0.23467 1.00662 0.53693 0.0
C443 C 0.21224 1.00755 0.5357 0.0
C444 C 0.20034 0.99667 0.54803 0.0
C445 C 0.21608 0.98812 0.55758 0.0
C446 C 0.23676 0.99427 0.55042 0.0
N447 N 0.25798 0.03785 0.5402 0.0
C448 C 0.2577 0.06448 0.56544 0.0
C449 C 0.23776 0.05684 0.55954 0.0
C450 C 0.23828 0.0437 0.54703 0.0
C451 C 0.27779 0.05831 0.55875 0.0
C452 C 0.27754 0.04508 0.54634 0.0
N453 N 0.25839 1.00205 0.5024 0.0
C454 C 0.23865 0.98147 0.48396 0.0
C455 C 0.25875 0.97543 0.47711 0.0
C456 C 0.27866 0.98321 0.4829 0.0
C457 C 0.2781 0.99635 0.4954 0.0
C458 C 0.23885 0.99467 0.49642 0.0
H459 H 0.29387 1.00161 0.49929 0.0
H460 H 0.22296 0.99854 0.50119 0.0
H461 H 0.2225 0.03863 0.54291 0.0
H462 H 0.29342 0.04101 0.54181 0.0
C463 C 0.3135 0.02177 0.52047 0.0
C464 C 0.25782 0.98761 0.55655 0.0
C465 C 0.25851 0.05236 0.48613 0.0
C466 C 0.20285 0.01812 0.52211 0.0
H467 H 0.30282 0.98076 0.56647 0.0
H468 H 0.33349 0.99947 0.54685 0.0
H469 H 0.33402 0.04542 0.49351 0.0
H470 H 0.30371 0.06216 0.47485 0.0
H471 H 0.21364 0.05875 0.47566 0.0
H472 H 0.18289 0.04003 0.49527 0.0
H473 H 0.18235 0.99491 0.54959 0.0
H474 H 0.21272 0.97828 0.56838 0.0
H475 H 0.22174 0.06123 0.56417 0.0
H476 H 0.2937 0.0636 0.56313 0.0
H477 H 0.22273 0.97583 0.48009 0.0
H478 H 0.29471 0.97927 0.47775 0.0
C479 C 0.48449 0.79273 0.05108 0.0
C480 C 0.47716 0.80803 0.05658 0.0
C481 C 0.48923 0.81996 0.0459 0.0
C482 C 0.50312 0.8113 0.03448 0.0
N483 N 0.50057 0.79453 0.0371 0.0
Co484 Co 0.51757 0.77727 0.02356 0.0
N485 N 0.53604 0.79488 0.00848 0.0
C486 C 0.53506 0.81161 0.00974 0.0
C487 C 0.5496 0.82054 0.99746 0.0
C488 C 0.56039 0.80884 0.98759 0.0
C489 C 0.55168 0.79338 0.9944 0.0
N490 N 0.5345 0.76002 0.00992 0.0
C491 C 0.55021 0.76183 0.99563 0.0
C492 C 0.55704 0.7465 0.98972 0.0
C493 C 0.54519 0.73459 1.00059 0.0
C494 C 0.5318 0.74325 0.01241 0.0
N495 N 0.49915 0.75966 0.0387 0.0
C496 C 0.50057 0.74294 0.03781 0.0
C497 C 0.48627 0.73399 0.05027 0.0
C498 C 0.47512 0.74568 0.05984 0.0
C499 C 0.48324 0.76116 0.05257 0.0
N500 N 0.49511 0.77709 1.0031 0.0
C501 C 0.4647 0.77687 0.97289 0.0
C502 C 0.47129 0.76199 0.98164 0.0
C503 C 0.48633 0.76238 0.99659 0.0
C504 C 0.47339 0.79185 0.97976 0.0
C505 C 0.48837 0.79168 0.99473 0.0
N506 N 0.54004 0.77745 0.04403 0.0
C507 C 0.56262 0.76275 0.06681 0.0
C508 C 0.57048 0.77775 0.07424 0.0
C509 C 0.56304 0.79259 0.06606 0.0
C510 C 0.54803 0.79216 0.05112 0.0
C511 C 0.5476 0.76289 0.05185 0.0
H512 H 0.54296 0.80391 0.0457 0.0
H513 H 0.54228 0.75104 0.04692 0.0
H514 H 0.49068 0.75062 1.00257 0.0
H515 H 0.49446 0.80352 0.99914 0.0
C516 C 0.51942 0.81856 0.02182 0.0
C517 C 0.47584 0.77687 0.05978 0.0
C518 C 0.55845 0.7777 0.98669 0.0
C519 C 0.51591 0.73601 0.02544 0.0
H520 H 0.46454 0.81034 0.06735 0.0
H521 H 0.48826 0.83335 0.04659 0.0
H522 H 0.55176 0.83396 0.99561 0.0
H523 H 0.573 0.81139 0.97643 0.0
H524 H 0.56904 0.74415 0.97847 0.0
H525 H 0.5459 0.72119 0.99968 0.0
H526 H 0.48443 0.72057 0.05236 0.0
H527 H 0.46264 0.74308 0.0711 0.0
H528 H 0.46478 0.75004 0.9771 0.0
H529 H 0.46905 0.80374 0.97338 0.0
H530 H 0.56812 0.7509 0.07242 0.0
H531 H 0.56838 0.80456 0.07139 0.0
C532 C 0.81054 0.99787 0.55845 0.0
C533 C 0.83094 0.99312 0.56536 0.0
C534 C 0.84706 1.00286 0.55576 0.0
C535 C 0.83567 0.01295 0.54357 0.0
N536 N 0.8132 0.01036 0.54487 0.0
Co537 Co 0.79039 0.02205 0.52935 0.0
N538 N 0.81425 0.03547 0.51424 0.0
C539 C 0.83663 0.03443 0.51576 0.0
C540 C 0.84883 0.04529 0.50361 0.0
C541 C 0.83334 0.05391 0.49383 0.0
C542 C 0.8125 0.04785 0.50069 0.0
N543 N 0.76756 0.03394 0.51404 0.0
C544 C 0.77022 0.0466 0.50067 0.0
C545 C 0.7498 0.05179 0.49426 0.0
C546 C 0.73366 0.04215 0.50396 0.0
C547 C 0.74506 0.03172 0.51575 0.0
N548 N 0.76653 1.00841 0.54423 0.0
C549 C 0.74416 0.00906 0.54228 0.0
C550 C 0.73198 0.9979 0.55407 0.0
C551 C 0.74748 0.98942 0.56401 0.0
C552 C 0.76831 0.99592 0.55762 0.0
N553 N 0.78945 0.03981 0.54838 0.0
C554 C 0.78805 0.06596 0.57419 0.0
C555 C 0.76844 0.05777 0.56841 0.0
C556 C 0.7695 0.04488 0.55563 0.0
C557 C 0.8084 0.06066 0.56698 0.0
C558 C 0.80872 0.04765 0.55428 0.0
N559 N 0.79132 1.00427 0.51033 0.0
C560 C 0.77221 0.98455 0.49036 0.0
C561 C 0.79237 0.97756 0.48525 0.0
C562 C 0.81203 0.98446 0.49257 0.0
C563 C 0.81115 0.99772 0.50488 0.0
C564 C 0.77207 0.99775 0.50281 0.0
H565 H 0.82674 1.00235 0.50992 0.0
H566 H 0.75613 1.0023 0.50633 0.0
H567 H 0.75393 0.03932 0.55169 0.0
H568 H 0.82477 0.04423 0.54937 0.0
C569 C 0.84565 0.02402 0.52971 0.0
C570 C 0.78924 0.98957 0.56452 0.0
C571 C 0.7916 0.05457 0.49423 0.0
C572 C 0.73511 0.02005 0.52896 0.0
H573 H 0.83393 0.98333 0.57591 0.0
H574 H 0.86499 1.00229 0.55709 0.0
H575 H 0.86684 0.04702 0.50236 0.0
H576 H 0.83696 0.06376 0.4831 0.0
H577 H 0.74682 0.06174 0.48391 0.0
H578 H 0.71573 0.0429 0.50283 0.0
H579 H 0.71398 0.99599 0.55513 0.0
H580 H 0.74388 0.97946 0.57461 0.0
H581 H 0.75221 0.0615 0.57342 0.0
H582 H 0.8241 0.06641 0.57122 0.0
H583 H 0.75648 0.9796 0.48518 0.0
H584 H 0.82813 0.9797 0.48877 0.0
C585 C 0.48924 0.27885 0.05564 0.0
C586 C 0.48127 0.29404 0.06089 0.0
C587 C 0.49324 0.30612 0.05035 0.0
C588 C 0.50765 0.29766 0.03921 0.0
N589 N 0.50553 0.28088 0.04187 0.0
Co590 Co 0.52299 0.26389 0.02832 0.0
N591 N 0.54163 0.28172 0.0138 0.0
C592 C 0.54077 0.2984 0.01562 0.0
C593 C 0.55574 0.30754 1.00392 0.0
C594 C 0.56673 0.29605 0.9939 0.0
C595 C 0.55767 0.28049 0.99999 0.0
N596 N 0.54007 0.24689 0.01437 0.0
C597 C 0.55578 0.24895 1.0001 0.0
C598 C 0.5623 0.23373 0.99359 0.0
C599 C 0.55032 0.22164 1.0041 0.0
C600 C 0.53711 0.2301 0.01627 0.0
N601 N 0.50469 0.24604 0.0432 0.0
C602 C 0.50659 0.22936 0.0423 0.0
C603 C 0.49273 0.22021 0.05493 0.0
C604 C 0.48143 0.23171 0.06467 0.0
C605 C 0.48896 0.2473 0.05728 0.0
N606 N 0.50078 0.26387 0.00765 0.0
C607 C 0.47117 0.26361 0.97689 0.0
C608 C 0.47676 0.24879 0.98637 0.0
C609 C 0.49138 0.24921 1.00158 0.0
C610 C 0.48028 0.2786 0.9834 0.0
C611 C 0.49492 0.27845 0.99865 0.0
N612 N 0.5452 0.26389 0.049 0.0
C613 C 0.56862 0.24888 0.07079 0.0
C614 C 0.57468 0.26352 0.07991 0.0
C615 C 0.5661 0.27842 0.07291 0.0
C616 C 0.55163 0.27833 0.05755 0.0
C617 C 0.55402 0.24934 0.05556 0.0
H618 H 0.54563 0.2901 0.05303 0.0
H619 H 0.54999 0.23771 0.04945 0.0
H620 H 0.49494 0.23747 0.0081 0.0
H621 H 0.50149 0.29028 1.00274 0.0
C622 C 0.52449 0.30512 0.02724 0.0
C623 C 0.48121 0.26291 0.06455 0.0
C624 C 0.56443 0.26498 0.99182 0.0
C625 C 0.52163 0.22265 0.02951 0.0
H626 H 0.46838 0.29619 0.07148 0.0
H627 H 0.49195 0.31948 0.05106 0.0
H628 H 0.55798 0.32098 1.00249 0.0
H629 H 0.57968 0.29882 0.98307 0.0
H630 H 0.57422 0.23154 0.98223 0.0
H631 H 0.55092 0.20828 1.00281 0.0
H632 H 0.49126 0.20677 0.057 0.0
H633 H 0.46928 0.22889 0.07612 0.0
H634 H 0.46981 0.23686 0.98214 0.0
H635 H 0.4766 0.29042 0.97649 0.0
H636 H 0.57515 0.23704 0.07532 0.0
H637 H 0.57008 0.29012 0.07949 0.0
C638 C 0.17564 0.34789 0.29671 0.0
C639 C 0.19394 0.34469 0.30828 0.0
C640 C 0.16212 0.36127 0.30014 0.0
C641 C 0.16254 0.40204 0.32279 0.0
H642 H 0.0985 0.39786 0.31609 0.0
C643 C 0.10375 0.456 0.33754 0.0
C644 C 0.08683 0.45866 0.32433 0.0
C645 C 0.11656 0.44183 0.33681 0.0
C646 C 0.11639 0.39929 0.31786 0.0
H647 H 0.21217 0.35303 0.33273 0.0
H648 H 0.18836 0.3763 0.33889 0.0
H649 H 0.12104 0.37351 0.31291 0.0
H650 H 0.06992 0.44827 0.30022 0.0
H651 H 0.09245 0.42382 0.29873 0.0
H652 H 0.1579 0.42787 0.32754 0.0
C653 C 0.18462 0.36851 0.32702 0.0
C654 C 0.12932 0.38531 0.31604 0.0
C655 C 0.19812 0.35506 0.32362 0.0
C656 C 0.08298 0.44675 0.31047 0.0
C657 C 0.09573 0.43259 0.30977 0.0
C658 C 0.14959 0.41603 0.3246 0.0
C659 C 0.16653 0.37186 0.31524 0.0
C660 C 0.1526 0.38653 0.31828 0.0
C661 C 0.11269 0.42993 0.32292 0.0
C662 C 0.12638 0.41488 0.32195 0.0
H663 H 0.17178 0.34004 0.28491 0.0
H664 H 0.14849 0.36355 0.29065 0.0
H665 H 0.18046 0.40349 0.32438 0.0
H666 H 0.10728 0.46497 0.34832 0.0
H667 H 0.12935 0.44012 0.34726 0.0
C668 C 0.18933 0.67697 0.72752 0.0
C669 C 0.18069 0.69116 0.73566 0.0
C670 C 0.1756 0.66268 0.72514 0.0
C671 C 0.12249 0.64182 0.74348 0.0
H672 H 0.1293 0.61462 0.69942 0.0
C673 C 0.06144 0.58612 0.72992 0.0
C674 C 0.07083 0.57151 0.72372 0.0
C675 C 0.07453 0.60093 0.73059 0.0
C676 C 0.12732 0.622 0.7119 0.0
H677 H 0.15059 0.70164 0.74695 0.0
H678 H 0.12661 0.67684 0.74262 0.0
H679 H 0.1525 0.64018 0.70173 0.0
H680 H 0.10107 0.56071 0.71344 0.0
H681 H 0.12414 0.58661 0.71458 0.0
H682 H 0.09735 0.62366 0.75365 0.0
C683 C 0.14413 0.67659 0.73849 0.0
C684 C 0.14064 0.63666 0.71324 0.0
C685 C 0.15787 0.69084 0.74094 0.0
C686 C 0.09349 0.57191 0.7181 0.0
C687 C 0.10661 0.58674 0.7187 0.0
C688 C 0.10915 0.6272 0.74212 0.0
C689 C 0.15286 0.66224 0.73077 0.0
C690 C 0.13843 0.64676 0.72907 0.0
C691 C 0.09732 0.60142 0.72507 0.0
C692 C 0.11141 0.61709 0.72633 0.0
H693 H 0.2069 0.67672 0.72352 0.0
H694 H 0.183 0.65182 0.71938 0.0
H695 H 0.12059 0.64907 0.75606 0.0
H696 H 0.04396 0.58603 0.73432 0.0
H697 H 0.06677 0.61203 0.73534 0.0
C698 C 0.83901 0.67479 0.31037 0.0
C699 C 0.84642 0.69119 0.31407 0.0
C700 C 0.85272 0.66139 0.31374 0.0
C701 C 0.91217 0.65164 0.31886 0.0
H702 H 0.88703 0.60824 0.33626 0.0
C703 C 0.96143 0.59175 0.31278 0.0
C704 C 0.95883 0.57929 0.32741 0.0
C705 C 0.94808 0.60562 0.31255 0.0
C706 C 0.89442 0.6203 0.33159 0.0
H707 H 0.87406 0.70621 0.32463 0.0
H708 H 0.89782 0.68277 0.33094 0.0
H709 H 0.86308 0.63197 0.33425 0.0
H710 H 0.94 0.57179 0.35336 0.0
H711 H 0.91709 0.59618 0.35322 0.0
H712 H 0.94357 0.64004 0.31648 0.0
C713 C 0.88147 0.68032 0.32512 0.0
C714 C 0.88059 0.63389 0.33021 0.0
C715 C 0.86774 0.69376 0.32171 0.0
C716 C 0.94263 0.58118 0.34194 0.0
C717 C 0.92929 0.5951 0.34174 0.0
C718 C 0.926 0.63806 0.32028 0.0
C719 C 0.87423 0.66397 0.321 0.0
C720 C 0.88922 0.64971 0.32362 0.0
C721 C 0.93179 0.60749 0.32701 0.0
C722 C 0.91727 0.62215 0.32646 0.0
H723 H 0.82257 0.67229 0.30475 0.0
H724 H 0.84662 0.64903 0.3102 0.0
H725 H 0.9194 0.66357 0.31356 0.0
H726 H 0.97394 0.59088 0.30149 0.0
H727 H 0.95033 0.61477 0.30084 0.0
C728 C 0.84901 0.36444 0.73401 0.0
C729 C 0.85923 0.34984 0.72856 0.0
C730 C 0.86114 0.37977 0.73356 0.0
C731 C 0.912 0.40148 0.71183 0.0
H732 H 0.90429 0.43213 0.75259 0.0
C733 C 0.97092 0.45965 0.71948 0.0
C734 C 0.96135 0.47434 0.72518 0.0
C735 C 0.95812 0.44465 0.71966 0.0
C736 C 0.90645 0.42382 0.74097 0.0
H737 H 0.89047 0.33995 0.71881 0.0
H738 H 0.91154 0.36661 0.718 0.0
H739 H 0.88265 0.40566 0.75348 0.0
H740 H 0.93102 0.48517 0.73521 0.0
H741 H 0.9084 0.45897 0.73544 0.0
H742 H 0.9358 0.41961 0.69932 0.0
C743 C 0.89403 0.36628 0.7223 0.0
C744 C 0.89403 0.40862 0.74148 0.0
C745 C 0.88193 0.35097 0.72277 0.0
C746 C 0.93872 0.4739 0.7309 0.0
C747 C 0.92587 0.4589 0.73111 0.0
C748 C 0.92439 0.41667 0.71131 0.0
C749 C 0.88379 0.38089 0.72763 0.0
C750 C 0.89672 0.39722 0.72696 0.0
C751 C 0.93542 0.44406 0.72552 0.0
C752 C 0.92186 0.42802 0.72591 0.0
H753 H 0.8315 0.3641 0.73829 0.0
H754 H 0.85263 0.3908 0.73752 0.0
H755 H 0.91421 0.39315 0.70023 0.0
H756 H 0.98839 0.45977 0.71504 0.0
H757 H 0.96611 0.43346 0.7155 0.0
C758 C 0.24991 0.18826 0.40035 0.0
C759 C 0.25411 0.18835 0.38053 0.0
C760 C 0.25079 0.17352 0.41154 0.0
C761 C 0.27311 0.13121 0.41228 0.0
H762 H 0.22743 0.12187 0.45181 0.0
C763 C 0.26384 0.06753 0.45428 0.0
C764 C 0.2585 0.06786 0.47382 0.0
C765 C 0.26353 0.08213 0.44272 0.0
C766 C 0.24049 0.12436 0.44101 0.0
H767 H 0.26261 0.17284 0.35701 0.0
H768 H 0.26426 0.14714 0.37657 0.0
H769 H 0.2267 0.14746 0.43208 0.0
H770 H 0.24869 0.08341 0.49676 0.0
H771 H 0.24838 0.10903 0.47673 0.0
H772 H 0.28694 0.10812 0.42128 0.0
C773 C 0.26048 0.15855 0.38347 0.0
C774 C 0.24006 0.13905 0.42966 0.0
C775 C 0.25955 0.17331 0.37225 0.0
C776 C 0.25283 0.08294 0.48168 0.0
C777 C 0.25253 0.09754 0.47017 0.0
C778 C 0.27357 0.11651 0.42367 0.0
C779 C 0.25596 0.15845 0.40324 0.0
C780 C 0.25639 0.14269 0.41518 0.0
C781 C 0.25783 0.09734 0.45051 0.0
C782 C 0.25729 0.11291 0.43822 0.0
H783 H 0.24611 0.19965 0.40729 0.0
H784 H 0.24763 0.17398 0.42676 0.0
H785 H 0.28611 0.13371 0.40143 0.0
H786 H 0.26812 0.05595 0.44796 0.0
H787 H 0.26741 0.08144 0.42763 0.0
C788 C 0.3512 0.77123 0.82853 0.0
C789 C 0.33653 0.78438 0.8267 0.0
C790 C 0.36438 0.76953 0.84464 0.0
C791 C 0.36904 0.78218 0.8947 0.0
H792 H 0.43136 0.77206 0.88768 0.0
C793 C 0.43271 0.78873 0.9549 0.0
C794 C 0.44915 0.77679 0.9566 0.0
C795 C 0.41849 0.78891 0.93937 0.0
C796 C 0.41392 0.77466 0.88996 0.0
H797 H 0.3238 0.80578 0.84068 0.0
H798 H 0.34693 0.80293 0.86863 0.0
H799 H 0.40736 0.77353 0.86016 0.0
H800 H 0.46342 0.75567 0.94315 0.0
H801 H 0.43832 0.75577 0.91633 0.0
H802 H 0.37559 0.78335 0.92448 0.0
C803 C 0.3482 0.79387 0.85765 0.0
C804 C 0.40015 0.77551 0.87415 0.0
C805 C 0.33511 0.79562 0.84152 0.0
C806 C 0.45083 0.76495 0.94243 0.0
C807 C 0.4366 0.76513 0.9269 0.0
C808 C 0.38279 0.78129 0.91051 0.0
C809 C 0.36312 0.78087 0.85937 0.0
C810 C 0.37757 0.77939 0.8763 0.0
C811 C 0.4203 0.77716 0.92512 0.0
C812 C 0.40546 0.77762 0.90835 0.0
H813 H 0.35284 0.76243 0.81732 0.0
H814 H 0.37552 0.75927 0.84559 0.0
H815 H 0.35164 0.78493 0.89692 0.0
H816 H 0.43074 0.79792 0.96563 0.0
H817 H 0.40632 0.79847 0.93839 0.0
C818 C 0.80781 0.84879 0.39742 0.0
C819 C 0.79572 0.84778 0.38052 0.0
C820 C 0.80737 0.86303 0.40827 0.0
C821 C 0.77433 0.89972 0.4178 0.0
H822 H 0.82958 0.91729 0.43847 0.0
C823 C 0.77922 0.96213 0.45669 0.0
C824 C 0.79285 0.96301 0.4727 0.0
C825 C 0.77958 0.94836 0.44505 0.0
C826 C 0.81393 0.91245 0.43302 0.0
H827 H 0.7737 0.86117 0.36185 0.0
H828 H 0.77271 0.88591 0.38094 0.0
H829 H 0.83002 0.89276 0.41911 0.0
H830 H 0.81721 0.94988 0.48919 0.0
H831 H 0.81768 0.92585 0.46909 0.0
H832 H 0.75816 0.91927 0.43191 0.0
C833 C 0.78243 0.87559 0.38583 0.0
C834 C 0.8142 0.89838 0.42188 0.0
C835 C 0.78297 0.86137 0.37489 0.0
C836 C 0.80679 0.94975 0.47679 0.0
C837 C 0.80707 0.93596 0.46522 0.0
C838 C 0.77402 0.91375 0.42904 0.0
C839 C 0.79471 0.87662 0.4026 0.0
C840 C 0.7944 0.8918 0.41418 0.0
C841 C 0.7935 0.93506 0.44917 0.0
C842 C 0.79382 0.92028 0.43687 0.0
H843 H 0.81744 0.83847 0.40246 0.0
H844 H 0.81671 0.86329 0.42128 0.0
H845 H 0.75873 0.89485 0.41228 0.0
H846 H 0.76849 0.97221 0.45299 0.0
H847 H 0.76916 0.94825 0.43266 0.0
C848 C 0.67573 0.2797 0.84182 0.0
C849 C 0.69758 0.27405 0.84292 0.0
C850 C 0.66103 0.27809 0.85765 0.0
C851 C 0.65186 0.25575 0.90485 0.0
H852 H 0.61355 0.29233 0.91477 0.0
C853 C 0.60158 0.26039 0.97593 0.0
C854 C 0.57958 0.26559 0.97465 0.0
C855 C 0.61578 0.26104 0.95975 0.0
C856 C 0.62396 0.28193 0.9121 0.0
H857 H 0.72106 0.26224 0.86157 0.0
H858 H 0.69554 0.25957 0.88923 0.0
H859 H 0.63852 0.29397 0.88677 0.0
H860 H 0.55508 0.27564 0.95578 0.0
H861 H 0.57985 0.27685 0.9274 0.0
H862 H 0.63741 0.24381 0.93037 0.0
C863 C 0.68959 0.26499 0.87603 0.0
C864 C 0.63827 0.28284 0.89601 0.0
C865 C 0.70426 0.26653 0.86016 0.0
C866 C 0.57202 0.27158 0.95702 0.0
C867 C 0.58623 0.27232 0.94086 0.0
C868 C 0.6376 0.25487 0.921 0.0
C869 C 0.66782 0.27087 0.87504 0.0
C870 C 0.65242 0.26976 0.89214 0.0
C871 C 0.6083 0.26705 0.94202 0.0
C872 C 0.62346 0.26794 0.92482 0.0
H873 H 0.66994 0.28532 0.82867 0.0
H874 H 0.64427 0.28246 0.85621 0.0
H875 H 0.66224 0.24533 0.90221 0.0
H876 H 0.60775 0.25585 0.98947 0.0
H877 H 0.63274 0.25709 0.9612 0.0
C878 C 0.25414 0.86683 0.67089 0.0
C879 C 0.24847 0.85151 0.66278 0.0
C880 C 0.25573 0.88165 0.65962 0.0
C881 C 0.23677 0.90005 0.61394 0.0
H882 H 0.28418 0.93351 0.6209 0.0
C883 C 0.25185 0.95668 0.56128 0.0
C884 C 0.25755 0.97212 0.5689 0.0
C885 C 0.2511 0.94209 0.57287 0.0
C886 C 0.27067 0.92439 0.61891 0.0
H887 H 0.24085 0.83978 0.63623 0.0
H888 H 0.24354 0.86554 0.61667 0.0
H889 H 0.28234 0.90789 0.64089 0.0
H890 H 0.26679 0.98466 0.59443 0.0
H891 H 0.26531 0.95917 0.61491 0.0
H892 H 0.22501 0.91651 0.59206 0.0
C893 C 0.24634 0.86616 0.63182 0.0
C894 C 0.26963 0.90969 0.63038 0.0
C895 C 0.24479 0.85137 0.64306 0.0
C896 C 0.26251 0.97281 0.58829 0.0
C897 C 0.26175 0.95821 0.59993 0.0
C898 C 0.23778 0.91474 0.60252 0.0
C899 C 0.25167 0.88151 0.63996 0.0
C900 C 0.25272 0.89729 0.62798 0.0
C901 C 0.25596 0.94265 0.59238 0.0
C902 C 0.2548 0.92709 0.60478 0.0
H903 H 0.25683 0.86746 0.68606 0.0
H904 H 0.25964 0.89327 0.6664 0.0
H905 H 0.22327 0.89093 0.61193 0.0
H906 H 0.24799 0.95593 0.54632 0.0
H907 H 0.24691 0.93033 0.56649 0.0
C908 C 0.68281 0.77223 0.2191 0.0
C909 C 0.69892 0.7854 0.22023 0.0
C910 C 0.66948 0.77093 0.20306 0.0
C911 C 0.64925 0.79625 0.16217 0.0
H912 H 0.6334 0.7532 0.14193 0.0
C913 C 0.60345 0.79024 0.09113 0.0
C914 C 0.58604 0.77795 0.09052 0.0
C915 C 0.61761 0.79076 0.10668 0.0
C916 C 0.6375 0.76531 0.14751 0.0
H917 H 0.71414 0.80719 0.20504 0.0
H918 H 0.69109 0.80487 0.17707 0.0
H919 H 0.65744 0.75476 0.16945 0.0
H920 H 0.56995 0.75657 0.10592 0.0
H921 H 0.59472 0.75745 0.13298 0.0
H922 H 0.62935 0.8068 0.14025 0.0
C923 C 0.68836 0.79574 0.18875 0.0
C924 C 0.65128 0.7662 0.16332 0.0
C925 C 0.70162 0.79706 0.2048 0.0
C926 C 0.58337 0.76606 0.10576 0.0
C927 C 0.59757 0.76657 0.1213 0.0
C928 C 0.63554 0.79535 0.14636 0.0
C929 C 0.67197 0.78274 0.18772 0.0
C930 C 0.65735 0.7817 0.17085 0.0
C931 C 0.61478 0.779 0.12202 0.0
C932 C 0.62949 0.77988 0.13882 0.0
H933 H 0.68011 0.76314 0.23083 0.0
H934 H 0.65685 0.76087 0.20289 0.0
H935 H 0.6532 0.80837 0.16778 0.0
H936 H 0.60628 0.79941 0.07951 0.0
H937 H 0.63093 0.80032 0.1066 0.0
C938 C 0.78945 0.19009 0.67301 0.0
C939 C 0.77419 0.18863 0.68863 0.0
C940 C 0.79158 0.17696 0.66059 0.0
C941 C 0.76093 0.13927 0.64442 0.0
H942 H 0.81915 0.12687 0.62582 0.0
C943 C 0.77196 0.0793 0.60306 0.0
C944 C 0.78724 0.07999 0.58748 0.0
C945 C 0.77087 0.09258 0.61532 0.0
C946 C 0.80273 0.13029 0.63068 0.0
H947 H 0.74978 0.17186 0.70368 0.0
H948 H 0.75338 0.14915 0.68202 0.0
H949 H 0.8164 0.15005 0.64714 0.0
H950 H 0.81329 0.09535 0.57258 0.0
H951 H 0.81131 0.11856 0.59389 0.0
H952 H 0.74721 0.11963 0.62794 0.0
C953 C 0.76342 0.16055 0.67916 0.0
C954 C 0.80117 0.14359 0.64293 0.0
C955 C 0.76134 0.17362 0.69159 0.0
C956 C 0.80153 0.09429 0.58458 0.0
C957 C 0.8004 0.10761 0.59682 0.0
C958 C 0.76249 0.12603 0.63215 0.0
C959 C 0.77846 0.16207 0.66343 0.0
C960 C 0.78024 0.14818 0.65004 0.0
C961 C 0.78498 0.10697 0.61232 0.0
C962 C 0.78341 0.12128 0.62519 0.0
H963 H 0.79945 0.20151 0.67015 0.0
H964 H 0.80318 0.17862 0.64851 0.0
H965 H 0.74451 0.14266 0.64933 0.0
H966 H 0.76097 0.06837 0.60593 0.0
H967 H 0.75909 0.09149 0.62731 0.0
C968 C 0.37102 0.2641 0.21474 0.0
C969 C 0.34966 0.25615 0.2144 0.0
C970 C 0.38481 0.26539 0.19831 0.0
C971 C 0.39284 0.24643 0.15129 0.0
H972 H 0.4314 0.28582 0.14023 0.0
C973 C 0.44345 0.25666 0.08019 0.0
C974 C 0.4657 0.26264 0.08148 0.0
C975 C 0.429 0.25625 0.09619 0.0
C976 C 0.42086 0.27468 0.1432 0.0
H977 H 0.32576 0.24383 0.19634 0.0
H978 H 0.34961 0.2463 0.16763 0.0
H979 H 0.40657 0.2846 0.16838 0.0
H980 H 0.49034 0.27311 0.10015 0.0
H981 H 0.46509 0.27248 0.12822 0.0
H982 H 0.40705 0.23657 0.12603 0.0
C983 C 0.35599 0.25117 0.1807 0.0
C984 C 0.40664 0.27395 0.15937 0.0
C985 C 0.34227 0.24979 0.19715 0.0
C986 C 0.47321 0.26844 0.0989 0.0
C987 C 0.45873 0.26815 0.11488 0.0
C988 C 0.40696 0.2472 0.13507 0.0
C989 C 0.37754 0.25886 0.18107 0.0
C990 C 0.39247 0.2598 0.16367 0.0
C991 C 0.43647 0.26196 0.11375 0.0
C992 C 0.4212 0.2613 0.13086 0.0
H993 H 0.37732 0.26895 0.22786 0.0
H994 H 0.4014 0.27117 0.19925 0.0
H995 H 0.3825 0.23519 0.15429 0.0
H996 H 0.43732 0.25226 0.0668 0.0
H997 H 0.41189 0.25162 0.09477 0.0
C998 C 0.8623 0.69379 0.75608 0.0
C999 C 0.8441 0.6968 0.74431 0.0
C1000 C 0.87566 0.68022 0.7532 0.0
C1001 C 0.89123 0.64907 0.71801 0.0
H1002 H 0.90904 0.62416 0.76316 0.0
C1003 C 0.9348 0.58578 0.71484 0.0
C1004 C 0.95205 0.58308 0.72772 0.0
C1005 C 0.92166 0.59974 0.71614 0.0
C1006 C 0.90445 0.63107 0.75039 0.0
H1007 H 0.826 0.68796 0.72003 0.0
H1008 H 0.84933 0.66421 0.71501 0.0
H1009 H 0.88642 0.64836 0.76655 0.0
H1010 H 0.96948 0.5934 0.75162 0.0
H1011 H 0.94667 0.61762 0.75389 0.0
H1012 H 0.9093 0.63167 0.70187 0.0
C1013 C 0.85338 0.67248 0.72637 0.0
C1014 C 0.89146 0.64498 0.75234 0.0
C1015 C 0.84 0.68611 0.72925 0.0
C1016 C 0.95603 0.59485 0.74172 0.0
C1017 C 0.94294 0.60877 0.74302 0.0
C1018 C 0.90426 0.63511 0.71606 0.0
C1019 C 0.8712 0.66923 0.73849 0.0
C1020 C 0.88479 0.65425 0.7362 0.0
C1021 C 0.92546 0.61135 0.73036 0.0
C1022 C 0.91116 0.626 0.73224 0.0
H1023 H 0.86623 0.70196 0.76757 0.0
H1024 H 0.88954 0.67834 0.76253 0.0
H1025 H 0.88658 0.656 0.70528 0.0
H1026 H 0.93113 0.57691 0.70398 0.0
H1027 H 0.90821 0.60125 0.70627 0.0
C1028 C 0.84418 0.36978 0.31657 0.0
C1029 C 0.85302 0.35383 0.3171 0.0
C1030 C 0.8579 0.384 0.31911 0.0
C1031 C 0.91258 0.39871 0.33733 0.0
H1032 H 0.90434 0.43683 0.30301 0.0
C1033 C 0.97537 0.45588 0.33113 0.0
C1034 C 0.96658 0.47166 0.32828 0.0
C1035 C 0.96141 0.44146 0.33078 0.0
C1036 C 0.90669 0.42641 0.31291 0.0
H1037 H 0.88328 0.34037 0.32116 0.0
H1038 H 0.90726 0.36524 0.32565 0.0
H1039 H 0.8803 0.41182 0.30082 0.0
H1040 H 0.93658 0.48501 0.32328 0.0
H1041 H 0.91197 0.45986 0.32296 0.0
H1042 H 0.93904 0.41335 0.34941 0.0
C1043 C 0.88962 0.3667 0.32339 0.0
C1044 C 0.89289 0.41203 0.31164 0.0
C1045 C 0.87586 0.35244 0.32083 0.0
C1046 C 0.94363 0.4729 0.32542 0.0
C1047 C 0.92965 0.4585 0.32511 0.0
C1048 C 0.92638 0.41314 0.33865 0.0
C1049 C 0.88086 0.38269 0.32228 0.0
C1050 C 0.89562 0.39799 0.32383 0.0
C1051 C 0.93838 0.44256 0.32761 0.0
C1052 C 0.9236 0.4272 0.32645 0.0
H1053 H 0.82658 0.37131 0.31416 0.0
H1054 H 0.85048 0.39608 0.31858 0.0
H1055 H 0.91499 0.38819 0.34709 0.0
H1056 H 0.99309 0.45473 0.33331 0.0
H1057 H 0.96879 0.42943 0.33254 0.0
C1058 C 0.17991 0.35276 0.72143 0.0
C1059 C 0.19641 0.35293 0.73538 0.0
C1060 C 0.16627 0.36637 0.71872 0.0
C1061 C 0.16341 0.41141 0.72804 0.0
H1062 H 0.09982 0.40399 0.72088 0.0
C1063 C 0.10134 0.46397 0.73517 0.0
C1064 C 0.08341 0.46458 0.72263 0.0
C1065 C 0.11538 0.45049 0.73544 0.0
C1066 C 0.11759 0.4063 0.7226 0.0
H1067 H 0.21097 0.36749 0.75774 0.0
H1068 H 0.18739 0.39111 0.75295 0.0
H1069 H 0.1237 0.38018 0.72366 0.0
H1070 H 0.06629 0.45141 0.70045 0.0
H1071 H 0.09102 0.42801 0.7007 0.0
H1072 H 0.15733 0.4375 0.7271 0.0
C1073 C 0.18525 0.38061 0.74384 0.0
C1074 C 0.13129 0.39264 0.7242 0.0
C1075 C 0.19882 0.36703 0.74657 0.0
C1076 C 0.08005 0.45143 0.71018 0.0
C1077 C 0.09408 0.43791 0.71048 0.0
C1078 C 0.14973 0.42506 0.72642 0.0
C1079 C 0.16882 0.38049 0.72987 0.0
C1080 C 0.15434 0.39501 0.72716 0.0
C1081 C 0.11189 0.43723 0.72317 0.0
C1082 C 0.1266 0.42269 0.72389 0.0
H1083 H 0.17773 0.34221 0.7124 0.0
H1084 H 0.15394 0.36592 0.7077 0.0
H1085 H 0.18115 0.41373 0.72994 0.0
H1086 H 0.10461 0.47396 0.7448 0.0
H1087 H 0.12875 0.45033 0.74555 0.0
C1088 C 0.1574 0.69115 0.32796 0.0
C1089 C 0.18002 0.69228 0.32195 0.0
C1090 C 0.14523 0.67587 0.32834 0.0
C1091 C 0.14485 0.63367 0.30868 0.0
H1092 H 0.10349 0.62243 0.35106 0.0
C1093 C 0.10051 0.56826 0.31929 0.0
C1094 C 0.07793 0.56774 0.32519 0.0
C1095 C 0.11326 0.58331 0.319 0.0
C1096 C 0.11479 0.62544 0.33901 0.0
H1097 H 0.20756 0.67805 0.31175 0.0
H1098 H 0.18632 0.6514 0.31241 0.0
H1099 H 0.1251 0.64888 0.35022 0.0
H1100 H 0.05091 0.5822 0.33558 0.0
H1101 H 0.07304 0.60859 0.33499 0.0
H1102 H 0.13449 0.61022 0.29746 0.0
C1103 C 0.17791 0.66241 0.31659 0.0
C1104 C 0.12719 0.64062 0.33853 0.0
C1105 C 0.1901 0.67771 0.31621 0.0
C1106 C 0.06832 0.58239 0.33098 0.0
C1107 C 0.08105 0.59743 0.33073 0.0
C1108 C 0.13244 0.61847 0.30917 0.0
C1109 C 0.15532 0.66128 0.32273 0.0
C1110 C 0.14233 0.64498 0.32332 0.0
C1111 C 0.10369 0.5981 0.3247 0.0
C1112 C 0.11719 0.61418 0.32431 0.0
H1113 H 0.14897 0.70215 0.33215 0.0
H1114 H 0.12777 0.67555 0.33281 0.0
H1115 H 0.15612 0.6367 0.29662 0.0
H1116 H 0.10824 0.55703 0.31491 0.0
H1117 H 0.1307 0.5833 0.31453 0.0
C1118 C 0.79054 0.86939 0.67944 0.0
C1119 C 0.78675 0.85386 0.6712 0.0
C1120 C 0.79028 0.88424 0.66832 0.0
C1121 C 0.77027 0.90192 0.62253 0.0
H1122 H 0.81577 0.93678 0.62973 0.0
C1123 C 0.78381 0.95861 0.56953 0.0
C1124 C 0.78882 0.9742 0.57708 0.0
C1125 C 0.7832 0.94411 0.58129 0.0
C1126 C 0.80276 0.92728 0.62768 0.0
H1127 H 0.77919 0.84187 0.64481 0.0
H1128 H 0.77901 0.8677 0.6254 0.0
H1129 H 0.81509 0.91127 0.6498 0.0
H1130 H 0.79688 0.98709 0.60266 0.0
H1131 H 0.79567 0.96177 0.62339 0.0
H1132 H 0.75793 0.9179 0.60042 0.0
C1133 C 0.78207 0.86842 0.6405 0.0
C1134 C 0.80237 0.91263 0.6392 0.0
C1135 C 0.78242 0.85358 0.6516 0.0
C1136 C 0.79313 0.97513 0.59657 0.0
C1137 C 0.79254 0.96063 0.60836 0.0
C1138 C 0.77062 0.91657 0.61104 0.0
C1139 C 0.7861 0.88395 0.64869 0.0
C1140 C 0.78619 0.89973 0.63672 0.0
C1141 C 0.78755 0.94491 0.60087 0.0
C1142 C 0.78694 0.92942 0.61339 0.0
H1143 H 0.79412 0.87007 0.69445 0.0
H1144 H 0.79323 0.89598 0.67514 0.0
H1145 H 0.75734 0.89237 0.62043 0.0
H1146 H 0.78044 0.95766 0.5545 0.0
H1147 H 0.77962 0.93223 0.57496 0.0
C1148 C 0.67821 0.26172 0.22986 0.0
C1149 C 0.70065 0.25746 0.22799 0.0
C1150 C 0.66485 0.2631 0.21384 0.0
C1151 C 0.66762 0.26744 0.16074 0.0
H1152 H 0.60564 0.25152 0.16562 0.0
C1153 C 0.60535 0.27623 0.09953 0.0
C1154 C 0.58947 0.26317 0.09675 0.0
C1155 C 0.61898 0.27592 0.11547 0.0
C1156 C 0.62296 0.25589 0.16392 0.0
H1157 H 0.72664 0.25124 0.20778 0.0
H1158 H 0.7033 0.25336 0.17987 0.0
H1159 H 0.62933 0.25004 0.19321 0.0
H1160 H 0.57547 0.23959 0.10884 0.0
H1161 H 0.59964 0.23878 0.13614 0.0
H1162 H 0.6614 0.27274 0.13126 0.0
C1163 C 0.69608 0.25601 0.19366 0.0
C1164 C 0.63651 0.25527 0.17987 0.0
C1165 C 0.70948 0.25475 0.20968 0.0
C1166 C 0.58768 0.24977 0.11031 0.0
C1167 C 0.60136 0.24943 0.12618 0.0
C1168 C 0.65408 0.26798 0.14476 0.0
C1169 C 0.67354 0.26012 0.19552 0.0
C1170 C 0.65904 0.26102 0.17852 0.0
C1171 C 0.61715 0.26252 0.12903 0.0
C1172 C 0.63157 0.26217 0.14611 0.0
H1173 H 0.67099 0.26413 0.24374 0.0
H1174 H 0.64772 0.26662 0.21584 0.0
H1175 H 0.6848 0.27217 0.15917 0.0
H1176 H 0.60741 0.28666 0.08931 0.0
H1177 H 0.63076 0.28631 0.11726 0.0
C1178 C 0.26836 0.18346 0.67219 0.0
C1179 C 0.25153 0.19489 0.66908 0.0
C1180 C 0.26918 0.16897 0.66174 0.0
C1181 C 0.23441 0.14135 0.63175 0.0
H1182 H 0.29178 0.12621 0.61443 0.0
C1183 C 0.24212 0.07916 0.5936 0.0
C1184 C 0.25755 0.07891 0.57819 0.0
C1185 C 0.24171 0.09287 0.60532 0.0
C1186 C 0.27559 0.13031 0.61902 0.0
H1187 H 0.2221 0.19974 0.65267 0.0
H1188 H 0.2239 0.17485 0.63414 0.0
H1189 H 0.29031 0.15101 0.63327 0.0
H1190 H 0.2845 0.09304 0.56294 0.0
H1191 H 0.28366 0.11698 0.58321 0.0
H1192 H 0.21965 0.12098 0.61701 0.0
C1193 C 0.23634 0.17694 0.64483 0.0
C1194 C 0.27477 0.14444 0.63007 0.0
C1195 C 0.23549 0.19138 0.65531 0.0
C1196 C 0.27262 0.09269 0.57486 0.0
C1197 C 0.27215 0.10643 0.58652 0.0
C1198 C 0.23524 0.12725 0.62067 0.0
C1199 C 0.2532 0.16553 0.64787 0.0
C1200 C 0.25416 0.15021 0.63651 0.0
C1201 C 0.25664 0.10674 0.60189 0.0
C1202 C 0.25583 0.12157 0.61408 0.0
H1203 H 0.28113 0.1858 0.68254 0.0
H1204 H 0.28227 0.16041 0.66464 0.0
H1205 H 0.21824 0.14525 0.63664 0.0
H1206 H 0.23049 0.06865 0.59675 0.0
H1207 H 0.22979 0.0925 0.6172 0.0
C1208 C 0.32897 0.76631 0.18569 0.0
C1209 C 0.3362 0.76901 0.20428 0.0
C1210 C 0.34399 0.76799 0.17009 0.0
C1211 C 0.39957 0.78622 0.15418 0.0
H1212 H 0.39529 0.75268 0.11599 0.0
C1213 C 0.46713 0.78077 0.09438 0.0
C1214 C 0.45974 0.77674 0.07625 0.0
C1215 C 0.45206 0.78037 0.10998 0.0
C1216 C 0.39656 0.76229 0.12637 0.0
H1217 H 0.36495 0.77586 0.22095 0.0
H1218 H 0.39119 0.77882 0.1937 0.0
H1219 H 0.36909 0.75123 0.14313 0.0
H1220 H 0.43107 0.76942 0.05991 0.0
H1221 H 0.40454 0.76888 0.08707 0.0
H1222 H 0.42708 0.79726 0.13738 0.0
C1223 C 0.37381 0.77553 0.19118 0.0
C1224 C 0.38152 0.76145 0.14197 0.0
C1225 C 0.35876 0.77385 0.20681 0.0
C1226 C 0.43707 0.77248 0.07385 0.0
C1227 C 0.42198 0.77209 0.08942 0.0
C1228 C 0.41461 0.78707 0.13854 0.0
C1229 C 0.36666 0.77242 0.17265 0.0
C1230 C 0.38278 0.77341 0.15606 0.0
C1231 C 0.42929 0.77595 0.10773 0.0
C1232 C 0.41329 0.77513 0.12441 0.0
H1233 H 0.31163 0.76291 0.18314 0.0
H1234 H 0.33779 0.76584 0.15599 0.0
H1235 H 0.40086 0.79575 0.16465 0.0
H1236 H 0.4846 0.78407 0.09648 0.0
H1237 H 0.45835 0.78323 0.12387 0.0
C1238 C 0.79165 0.17555 0.38019 0.0
C1239 C 0.79738 0.19087 0.38828 0.0
C1240 C 0.79051 0.16069 0.39139 0.0
C1241 C 0.7852 0.14453 0.44173 0.0
H1242 H 0.80856 0.1044 0.42136 0.0
C1243 C 0.79787 0.08549 0.48932 0.0
C1244 C 0.79213 0.07002 0.48177 0.0
C1245 C 0.79821 0.10009 0.47774 0.0
C1246 C 0.80173 0.11544 0.4272 0.0
H1247 H 0.80595 0.20249 0.41468 0.0
H1248 H 0.80444 0.17664 0.43403 0.0
H1249 H 0.80944 0.13006 0.40152 0.0
H1250 H 0.7825 0.05744 0.45637 0.0
H1251 H 0.78289 0.08297 0.436 0.0
H1252 H 0.7776 0.12995 0.46744 0.0
C1253 C 0.80062 0.17609 0.41906 0.0
C1254 C 0.80221 0.13017 0.41581 0.0
C1255 C 0.80177 0.19093 0.40788 0.0
C1256 C 0.78694 0.06929 0.46243 0.0
C1257 C 0.78731 0.08389 0.45081 0.0
C1258 C 0.78475 0.12982 0.45312 0.0
C1259 C 0.79501 0.16076 0.41098 0.0
C1260 C 0.79404 0.14494 0.42294 0.0
C1261 C 0.79287 0.09949 0.45833 0.0
C1262 C 0.79308 0.1151 0.44605 0.0
H1263 H 0.78836 0.17498 0.36512 0.0
H1264 H 0.7859 0.14915 0.3847 0.0
H1265 H 0.77838 0.15557 0.4476 0.0
H1266 H 0.80204 0.08626 0.5042 0.0
H1267 H 0.80291 0.11183 0.48395 0.0
C1268 C 0.34083 0.26961 0.84308 0.0
C1269 C 0.34444 0.25736 0.82965 0.0
C1270 C 0.35416 0.27075 0.85915 0.0
C1271 C 0.39116 0.24582 0.88936 0.0
H1272 H 0.41298 0.28873 0.90648 0.0
C1273 C 0.45835 0.25112 0.9465 0.0
C1274 C 0.45627 0.26334 0.96018 0.0
C1275 C 0.44439 0.25074 0.93083 0.0
C1276 C 0.4068 0.27665 0.90205 0.0
H1277 H 0.36552 0.2371 0.8224 0.0
H1278 H 0.38853 0.23901 0.85039 0.0
H1279 H 0.38918 0.28751 0.87876 0.0
H1280 H 0.43768 0.28472 0.96807 0.0
H1281 H 0.4132 0.28401 0.94076 0.0
H1282 H 0.40864 0.23493 0.9126 0.0
C1283 C 0.37513 0.24755 0.84869 0.0
C1284 C 0.39316 0.27596 0.88613 0.0
C1285 C 0.36189 0.24644 0.83262 0.0
C1286 C 0.43992 0.27525 0.9577 0.0
C1287 C 0.42589 0.27485 0.94202 0.0
C1288 C 0.40471 0.24652 0.90527 0.0
C1289 C 0.37138 0.25965 0.86222 0.0
C1290 C 0.38532 0.26052 0.8795 0.0
C1291 C 0.42789 0.26254 0.92841 0.0
C1292 C 0.41288 0.26192 0.91175 0.0
H1293 H 0.3274 0.27811 0.84138 0.0
H1294 H 0.35067 0.28011 0.86939 0.0
H1295 H 0.38507 0.23374 0.88487 0.0
H1296 H 0.47104 0.24195 0.94775 0.0
H1297 H 0.44675 0.24129 0.92046 0.0
C1298 C 0.24857 0.86219 0.36285 0.0
C1299 C 0.26634 0.85133 0.36409 0.0
C1300 C 0.24683 0.87526 0.37539 0.0
C1301 C 0.26582 0.88978 0.42205 0.0
H1302 H 0.25131 0.93342 0.40157 0.0
C1303 C 0.27516 0.94893 0.46615 0.0
C1304 C 0.25899 0.96105 0.46424 0.0
C1305 C 0.27539 0.93541 0.45416 0.0
C1306 C 0.25508 0.92128 0.40761 0.0
H1307 H 0.29588 0.84547 0.37986 0.0
H1308 H 0.29294 0.86831 0.4016 0.0
H1309 H 0.25255 0.91 0.38053 0.0
H1310 H 0.23042 0.96838 0.44796 0.0
H1311 H 0.23049 0.94462 0.42738 0.0
H1312 H 0.26831 0.90101 0.44913 0.0
C1313 C 0.28029 0.8667 0.39098 0.0
C1314 C 0.2558 0.90783 0.39552 0.0
C1315 C 0.2821 0.8537 0.37838 0.0
C1316 C 0.243 0.95923 0.45001 0.0
C1317 C 0.24321 0.94568 0.43803 0.0
C1318 C 0.26502 0.90321 0.43416 0.0
C1319 C 0.26274 0.87773 0.38955 0.0
C1320 C 0.2613 0.89193 0.40256 0.0
C1321 C 0.25941 0.93358 0.43993 0.0
C1322 C 0.25976 0.91917 0.42709 0.0
H1323 H 0.23625 0.86082 0.35192 0.0
H1324 H 0.23297 0.88342 0.37401 0.0
H1325 H 0.26978 0.87765 0.42802 0.0
H1326 H 0.28757 0.94977 0.47708 0.0
H1327 H 0.2883 0.92648 0.45593 0.0
C1328 C 0.69381 0.78 0.85133 0.0
C1329 C 0.685 0.785 0.83371 0.0
C1330 C 0.68019 0.77862 0.86788 0.0
C1331 C 0.62724 0.79351 0.888 0.0
H1332 H 0.6329 0.75743 0.92567 0.0
C1333 C 0.56443 0.78248 0.95145 0.0
C1334 C 0.57305 0.77796 0.96922 0.0
C1335 C 0.57813 0.783 0.93499 0.0
C1336 C 0.63127 0.7677 0.9154 0.0
H1337 H 0.65467 0.79182 0.81964 0.0
H1338 H 0.63098 0.78941 0.84841 0.0
H1339 H 0.65666 0.75876 0.89684 0.0
H1340 H 0.6025 0.77054 0.98397 0.0
H1341 H 0.62668 0.77154 0.95521 0.0
H1342 H 0.60193 0.8025 0.90653 0.0
C1343 C 0.64854 0.78689 0.84953 0.0
C1344 C 0.6449 0.76845 0.89885 0.0
C1345 C 0.66213 0.78827 0.83301 0.0
C1346 C 0.59555 0.77395 0.97033 0.0
C1347 C 0.60929 0.77445 0.95387 0.0
C1348 C 0.61364 0.79276 0.90453 0.0
C1349 C 0.65741 0.7822 0.86722 0.0
C1350 C 0.64301 0.78135 0.88491 0.0
C1351 C 0.60077 0.77903 0.93597 0.0
C1352 C 0.61542 0.77983 0.91843 0.0
H1353 H 0.71139 0.77758 0.85244 0.0
H1354 H 0.68765 0.77516 0.88128 0.0
H1355 H 0.62561 0.8038 0.87776 0.0
H1356 H 0.54707 0.7856 0.95034 0.0
H1357 H 0.57091 0.78635 0.92145 0.0
loop_
_geom_bond_atom_site_label_1
_geom_bond_atom_site_label_2
_geom_bond_distance
_geom_bond_site_symmetry_2
_ccdc_geom_bond_type
C0 C1 1.264 . S
C0 C5 1.479 . S
C0 C10 1.465 . S
C1 C0 1.264 . S
C1 C3 1.339 . S
C1 H28 0.931 . S
C2 C3 1.395 . S
C2 C4 1.320 . S
C3 C1 1.339 . S
C3 C2 1.395 . S
C3 H29 0.929 . S
C4 C2 1.320 . S
C4 C5 1.405 . S
C4 H30 0.930 . S
C5 C0 1.479 . S
C5 C4 1.405 . S
C5 H31 0.931 . S
U6 O7 2.454 . S
U6 O8 2.458 . S
U6 C9 2.984 . S
U6 C10 2.847 . S
U6 C23 2.882 . S
U6 O24 2.441 . S
U6 O25 2.420 . S
U6 O26 2.455 . S
U6 O27 2.449 . S
O7 U6 2.454 . S
O7 C9 1.353 . S
O8 U6 2.458 . S
O8 C9 1.286 . S
C9 U6 2.984 . S
C9 O7 1.353 . S
C9 O8 1.286 . S
C9 C11 1.363 . S
C10 C0 1.465 . S
C10 U6 2.847 . S
C10 O24 1.249 . S
C10 O25 1.202 . S
C11 C9 1.363 . S
C11 C13 1.408 . S
C11 C16 1.342 . S
C12 C13 1.310 . S
C12 C15 1.461 . S
C12 H32 0.932 . S
C13 C11 1.408 . S
C13 C12 1.310 . S
C13 H33 0.930 . S
C14 C15 1.474 . S
C14 C16 1.285 . S
C14 H34 0.929 . S
C15 C12 1.461 . S
C15 C14 1.474 . S
C16 C11 1.342 . S
C16 C14 1.285 . S
C16 H35 0.930 . S
C17 C20 1.424 . S
C17 C22 1.245 . S
C17 C23 1.428 . S
C18 C21 1.260 . S
C18 C22 1.477 . S
C18 H36 0.932 . S
C19 C20 1.384 . S
C19 C21 1.479 . S
C19 H37 0.929 . S
C20 C17 1.424 . S
C20 C19 1.384 . S
C20 H38 0.928 . S
C21 C18 1.260 . S
C21 C19 1.479 . S
C22 C17 1.245 . S
C22 C18 1.477 . S
C22 H39 0.932 . S
C23 U6 2.882 . S
C23 C17 1.428 . S
C23 O26 1.301 . S
C23 O27 1.282 . S
O24 U6 2.441 . S
O24 C10 1.249 . S
O25 U6 2.420 . S
O25 C10 1.202 . S
O26 U6 2.455 . S
O26 C23 1.301 . S
O27 U6 2.449 . S
O27 C23 1.282 . S
H28 C1 0.931 . S
H29 C3 0.929 . S
H30 C4 0.930 . S
H31 C5 0.931 . S
H32 C12 0.932 . S
H33 C13 0.930 . S
H34 C14 0.929 . S
H35 C16 0.930 . S
H36 C18 0.932 . S
H37 C19 0.929 . S
H38 C20 0.928 . S
H39 C22 0.932 . S
C40 C41 1.264 . S
C40 C45 1.479 . S
C40 C50 1.465 . S
C41 C40 1.264 . S
C41 C43 1.339 . S
C41 H68 0.931 . S
C42 C43 1.395 . S
C42 C44 1.320 . S
C43 C41 1.339 . S
C43 C42 1.395 . S
C43 H69 0.929 . S
C44 C42 1.320 . S
C44 C45 1.405 . S
C44 H70 0.930 . S
C45 C40 1.479 . S
C45 C44 1.405 . S
C45 H71 0.931 . S
U46 O47 2.454 . S
U46 O48 2.458 . S
U46 C49 2.984 . S
U46 C50 2.847 . S
U46 C63 2.882 . S
U46 O64 2.441 . S
U46 O65 2.420 . S
U46 O66 2.455 . S
U46 O67 2.449 . S
O47 U46 2.454 . S
O47 C49 1.353 . S
O48 U46 2.458 . S
O48 C49 1.286 . S
C49 U46 2.984 . S
C49 O47 1.353 . S
C49 O48 1.286 . S
C49 C51 1.363 . S
C50 C40 1.465 . S
C50 U46 2.847 . S
C50 O64 1.249 . S
C50 O65 1.202 . S
C51 C49 1.363 . S
C51 C53 1.408 . S
C51 C56 1.342 . S
C52 C53 1.310 . S
C52 C55 1.461 . S
C52 H72 0.932 . S
C53 C51 1.408 . S
C53 C52 1.310 . S
C53 H73 0.930 . S
C54 C55 1.474 . S
C54 C56 1.285 . S
C54 H74 0.929 . S
C55 C52 1.461 . S
C55 C54 1.474 . S
C56 C51 1.342 . S
C56 C54 1.285 . S
C56 H75 0.930 . S
C57 C60 1.424 . S
C57 C62 1.245 . S
C57 C63 1.428 . S
C58 C61 1.260 . S
C58 C62 1.477 . S
C58 H76 0.932 . S
C59 C60 1.384 . S
C59 C61 1.479 . S
C59 H77 0.929 . S
C60 C57 1.424 . S
C60 C59 1.384 . S
C60 H78 0.928 . S
C61 C58 1.260 . S
C61 C59 1.479 . S
C62 C57 1.245 . S
C62 C58 1.477 . S
C62 H79 0.932 . S
C63 U46 2.882 . S
C63 C57 1.428 . S
C63 O66 1.301 . S
C63 O67 1.282 . S
O64 U46 2.441 . S
O64 C50 1.249 . S
O65 U46 2.420 . S
O65 C50 1.202 . S
O66 U46 2.455 . S
O66 C63 1.301 . S
O67 U46 2.449 . S
O67 C63 1.282 . S
H68 C41 0.931 . S
H69 C43 0.929 . S
H70 C44 0.930 . S
H71 C45 0.931 . S
H72 C52 0.932 . S
H73 C53 0.930 . S
H74 C54 0.929 . S
H75 C56 0.930 . S
H76 C58 0.932 . S
H77 C59 0.929 . S
H78 C60 0.928 . S
H79 C62 0.932 . S
C80 C81 1.264 . S
C80 C85 1.479 . S
C80 C90 1.465 . S
C81 C80 1.264 . S
C81 C83 1.339 . S
C81 H108 0.931 . S
C82 C83 1.395 . S
C82 C84 1.320 . S
C83 C81 1.339 . S
C83 C82 1.395 . S
C83 H109 0.929 . S
C84 C82 1.320 . S
C84 C85 1.405 . S
C84 H110 0.930 . S
C85 C80 1.479 . S
C85 C84 1.405 . S
C85 H111 0.931 . S
U86 O87 2.454 . S
U86 O88 2.458 . S
U86 C89 2.984 . S
U86 C90 2.847 . S
U86 C103 2.882 . S
U86 O104 2.441 . S
U86 O105 2.420 . S
U86 O106 2.455 . S
U86 O107 2.449 . S
O87 U86 2.454 . S
O87 C89 1.353 . S
O88 U86 2.458 . S
O88 C89 1.286 . S
C89 U86 2.984 . S
C89 O87 1.353 . S
C89 O88 1.286 . S
C89 C91 1.363 . S
C90 C80 1.465 . S
C90 U86 2.847 . S
C90 O104 1.249 . S
C90 O105 1.202 . S
C91 C89 1.363 . S
C91 C93 1.408 . S
C91 C96 1.342 . S
C92 C93 1.310 . S
C92 C95 1.461 . S
C92 H112 0.932 . S
C93 C91 1.408 . S
C93 C92 1.310 . S
C93 H113 0.930 . S
C94 C95 1.474 . S
C94 C96 1.285 . S
C94 H114 0.929 . S
C95 C92 1.461 . S
C95 C94 1.474 . S
C96 C91 1.342 . S
C96 C94 1.285 . S
C96 H115 0.930 . S
C97 C100 1.424 . S
C97 C102 1.245 . S
C97 C103 1.428 . S
C98 C101 1.260 . S
C98 C102 1.477 . S
C98 H116 0.932 . S
C99 C100 1.384 . S
C99 C101 1.479 . S
C99 H117 0.929 . S
C100 C97 1.424 . S
C100 C99 1.384 . S
C100 H118 0.928 . S
C101 C98 1.260 . S
C101 C99 1.479 . S
C102 C97 1.245 . S
C102 C98 1.477 . S
C102 H119 0.932 . S
C103 U86 2.882 . S
C103 C97 1.428 . S
C103 O106 1.301 . S
C103 O107 1.282 . S
O104 U86 2.441 . S
O104 C90 1.249 . S
O105 U86 2.420 . S
O105 C90 1.202 . S
O106 U86 2.455 . S
O106 C103 1.301 . S
O107 U86 2.449 . S
O107 C103 1.282 . S
H108 C81 0.931 . S
H109 C83 0.929 . S
H110 C84 0.930 . S
H111 C85 0.931 . S
H112 C92 0.932 . S
H113 C93 0.930 . S
H114 C94 0.929 . S
H115 C96 0.930 . S
H116 C98 0.932 . S
H117 C99 0.929 . S
H118 C100 0.928 . S
H119 C102 0.932 . S
C120 C121 1.264 . S
C120 C125 1.479 . S
C120 C130 1.465 . S
C121 C120 1.264 . S
C121 C123 1.339 . S
C121 H148 0.931 . S
C122 C123 1.395 . S
C122 C124 1.320 . S
C123 C121 1.339 . S
C123 C122 1.395 . S
C123 H149 0.929 . S
C124 C122 1.320 . S
C124 C125 1.405 . S
C124 H150 0.930 . S
C125 C120 1.479 . S
C125 C124 1.405 . S
C125 H151 0.931 . S
U126 O127 2.454 . S
U126 O128 2.458 . S
U126 C129 2.984 . S
U126 C130 2.847 . S
U126 C143 2.882 . S
U126 O144 2.441 . S
U126 O145 2.420 . S
U126 O146 2.455 . S
U126 O147 2.449 . S
O127 U126 2.454 . S
O127 C129 1.353 . S
O128 U126 2.458 . S
O128 C129 1.286 . S
C129 U126 2.984 . S
C129 O127 1.353 . S
C129 O128 1.286 . S
C129 C131 1.363 . S
C130 C120 1.465 . S
C130 U126 2.847 . S
C130 O144 1.249 . S
C130 O145 1.202 . S
C131 C129 1.363 . S
C131 C133 1.408 . S
C131 C136 1.342 . S
C132 C133 1.310 . S
C132 C135 1.461 . S
C132 H152 0.932 . S
C133 C131 1.408 . S
C133 C132 1.310 . S
C133 H153 0.930 . S
C134 C135 1.474 . S
C134 C136 1.285 . S
C134 H154 0.929 . S
C135 C132 1.461 . S
C135 C134 1.474 . S
C136 C131 1.342 . S
C136 C134 1.285 . S
C136 H155 0.930 . S
C137 C140 1.424 . S
C137 C142 1.245 . S
C137 C143 1.428 . S
C138 C141 1.260 . S
C138 C142 1.477 . S
C138 H156 0.932 . S
C139 C140 1.384 . S
C139 C141 1.479 . S
C139 H157 0.929 . S
C140 C137 1.424 . S
C140 C139 1.384 . S
C140 H158 0.928 . S
C141 C138 1.260 . S
C141 C139 1.479 . S
C142 C137 1.245 . S
C142 C138 1.477 . S
C142 H159 0.932 . S
C143 U126 2.882 . S
C143 C137 1.428 . S
C143 O146 1.301 . S
C143 O147 1.282 . S
O144 U126 2.441 . S
O144 C130 1.249 . S
O145 U126 2.420 . S
O145 C130 1.202 . S
O146 U126 2.455 . S
O146 C143 1.301 . S
O147 U126 2.449 . S
O147 C143 1.282 . S
H148 C121 0.931 . S
H149 C123 0.929 . S
H150 C124 0.930 . S
H151 C125 0.931 . S
H152 C132 0.932 . S
H153 C133 0.930 . S
H154 C134 0.929 . S
H155 C136 0.930 . S
H156 C138 0.932 . S
H157 C139 0.929 . S
H158 C140 0.928 . S
H159 C142 0.932 . S
C160 C161 1.264 . S
C160 C165 1.479 . S
C160 C170 1.465 . S
C161 C160 1.264 . S
C161 C163 1.339 . S
C161 H188 0.931 . S
C162 C163 1.395 . S
C162 C164 1.320 . S
C163 C161 1.339 . S
C163 C162 1.395 . S
C163 H189 0.929 . S
C164 C162 1.320 . S
C164 C165 1.405 . S
C164 H190 0.930 . S
C165 C160 1.479 . S
C165 C164 1.405 . S
C165 H191 0.931 . S
U166 O167 2.454 . S
U166 O168 2.458 . S
U166 C169 2.984 . S
U166 C170 2.847 . S
U166 C183 2.882 . S
U166 O184 2.441 . S
U166 O185 2.420 . S
U166 O186 2.455 . S
U166 O187 2.449 . S
O167 U166 2.454 . S
O167 C169 1.353 . S
O168 U166 2.458 . S
O168 C169 1.286 . S
C169 U166 2.984 . S
C169 O167 1.353 . S
C169 O168 1.286 . S
C169 C171 1.363 . S
C170 C160 1.465 . S
C170 U166 2.847 . S
C170 O184 1.249 . S
C170 O185 1.202 . S
C171 C169 1.363 . S
C171 C173 1.408 . S
C171 C176 1.342 . S
C172 C173 1.310 . S
C172 C175 1.461 . S
C172 H192 0.932 . S
C173 C171 1.408 . S
C173 C172 1.310 . S
C173 H193 0.930 . S
C174 C175 1.474 . S
C174 C176 1.285 . S
C174 H194 0.929 . S
C175 C172 1.461 . S
C175 C174 1.474 . S
C176 C171 1.342 . S
C176 C174 1.285 . S
C176 H195 0.930 . S
C177 C180 1.424 . S
C177 C182 1.245 . S
C177 C183 1.428 . S
C178 C181 1.260 . S
C178 C182 1.477 . S
C178 H196 0.932 . S
C179 C180 1.384 . S
C179 C181 1.479 . S
C179 H197 0.929 . S
C180 C177 1.424 . S
C180 C179 1.384 . S
C180 H198 0.928 . S
C181 C178 1.260 . S
C181 C179 1.479 . S
C182 C177 1.245 . S
C182 C178 1.477 . S
C182 H199 0.932 . S
C183 U166 2.882 . S
C183 C177 1.428 . S
C183 O186 1.301 . S
C183 O187 1.282 . S
O184 U166 2.441 . S
O184 C170 1.249 . S
O185 U166 2.420 . S
O185 C170 1.202 . S
O186 U166 2.455 . S
O186 C183 1.301 . S
O187 U166 2.449 . S
O187 C183 1.282 . S
H188 C161 0.931 . S
H189 C163 0.929 . S
H190 C164 0.930 . S
H191 C165 0.931 . S
H192 C172 0.932 . S
H193 C173 0.930 . S
H194 C174 0.929 . S
H195 C176 0.930 . S
H196 C178 0.932 . S
H197 C179 0.929 . S
H198 C180 0.928 . S
H199 C182 0.932 . S
C200 C201 1.264 . S
C200 C205 1.479 . S
C200 C210 1.465 . S
C201 C200 1.264 . S
C201 C203 1.339 . S
C201 H228 0.931 . S
C202 C203 1.395 . S
C202 C204 1.320 . S
C203 C201 1.339 . S
C203 C202 1.395 . S
C203 H229 0.929 . S
C204 C202 1.320 . S
C204 C205 1.405 . S
C204 H230 0.930 . S
C205 C200 1.479 . S
C205 C204 1.405 . S
C205 H231 0.931 . S
U206 O207 2.454 . S
U206 O208 2.458 . S
U206 C209 2.984 . S
U206 C210 2.847 . S
U206 C223 2.882 . S
U206 O224 2.441 . S
U206 O225 2.420 . S
U206 O226 2.455 . S
U206 O227 2.449 . S
O207 U206 2.454 . S
O207 C209 1.353 . S
O208 U206 2.458 . S
O208 C209 1.286 . S
C209 U206 2.984 . S
C209 O207 1.353 . S
C209 O208 1.286 . S
C209 C211 1.363 . S
C210 C200 1.465 . S
C210 U206 2.847 . S
C210 O224 1.249 . S
C210 O225 1.202 . S
C211 C209 1.363 . S
C211 C213 1.408 . S
C211 C216 1.342 . S
C212 C213 1.310 . S
C212 C215 1.461 . S
C212 H232 0.932 . S
C213 C211 1.408 . S
C213 C212 1.310 . S
C213 H233 0.930 . S
C214 C215 1.474 . S
C214 C216 1.285 . S
C214 H234 0.929 . S
C215 C212 1.461 . S
C215 C214 1.474 . S
C216 C211 1.342 . S
C216 C214 1.285 . S
C216 H235 0.930 . S
C217 C220 1.424 . S
C217 C222 1.245 . S
C217 C223 1.428 . S
C218 C221 1.260 . S
C218 C222 1.477 . S
C218 H236 0.932 . S
C219 C220 1.384 . S
C219 C221 1.479 . S
C219 H237 0.929 . S
C220 C217 1.424 . S
C220 C219 1.384 . S
C220 H238 0.928 . S
C221 C218 1.260 . S
C221 C219 1.479 . S
C222 C217 1.245 . S
C222 C218 1.477 . S
C222 H239 0.932 . S
C223 U206 2.882 . S
C223 C217 1.428 . S
C223 O226 1.301 . S
C223 O227 1.282 . S
O224 U206 2.441 . S
O224 C210 1.249 . S
O225 U206 2.420 . S
O225 C210 1.202 . S
O226 U206 2.455 . S
O226 C223 1.301 . S
O227 U206 2.449 . S
O227 C223 1.282 . S
H228 C201 0.931 . S
H229 C203 0.929 . S
H230 C204 0.930 . S
H231 C205 0.931 . S
H232 C212 0.932 . S
H233 C213 0.930 . S
H234 C214 0.929 . S
H235 C216 0.930 . S
H236 C218 0.932 . S
H237 C219 0.929 . S
H238 C220 0.928 . S
H239 C222 0.932 . S
C240 C241 1.264 . S
C240 C245 1.479 . S
C240 C250 1.465 . S
C241 C240 1.264 . S
C241 C243 1.339 . S
C241 H268 0.931 . S
C242 C243 1.395 . S
C242 C244 1.320 . S
C243 C241 1.339 . S
C243 C242 1.395 . S
C243 H269 0.929 . S
C244 C242 1.320 . S
C244 C245 1.405 . S
C244 H270 0.930 . S
C245 C240 1.479 . S
C245 C244 1.405 . S
C245 H271 0.931 . S
U246 O247 2.454 . S
U246 O248 2.458 . S
U246 C249 2.984 . S
U246 C250 2.847 . S
U246 C263 2.882 . S
U246 O264 2.441 . S
U246 O265 2.420 . S
U246 O266 2.455 . S
U246 O267 2.449 . S
O247 U246 2.454 . S
O247 C249 1.353 . S
O248 U246 2.458 . S
O248 C249 1.286 . S
C249 U246 2.984 . S
C249 O247 1.353 . S
C249 O248 1.286 . S
C249 C251 1.363 . S
C250 C240 1.465 . S
C250 U246 2.847 . S
C250 O264 1.249 . S
C250 O265 1.202 . S
C251 C249 1.363 . S
C251 C253 1.408 . S
C251 C256 1.342 . S
C252 C253 1.310 . S
C252 C255 1.461 . S
C252 H272 0.932 . S
C253 C251 1.408 . S
C253 C252 1.310 . S
C253 H273 0.930 . S
C254 C255 1.474 . S
C254 C256 1.285 . S
C254 H274 0.929 . S
C255 C252 1.461 . S
C255 C254 1.474 . S
C256 C251 1.342 . S
C256 C254 1.285 . S
C256 H275 0.930 . S
C257 C260 1.424 . S
C257 C262 1.245 . S
C257 C263 1.428 . S
C258 C261 1.260 . S
C258 C262 1.477 . S
C258 H276 0.932 . S
C259 C260 1.384 . S
C259 C261 1.479 . S
C259 H277 0.929 . S
C260 C257 1.424 . S
C260 C259 1.384 . S
C260 H278 0.928 . S
C261 C258 1.260 . S
C261 C259 1.479 . S
C262 C257 1.245 . S
C262 C258 1.477 . S
C262 H279 0.932 . S
C263 U246 2.882 . S
C263 C257 1.428 . S
C263 O266 1.301 . S
C263 O267 1.282 . S
O264 U246 2.441 . S
O264 C250 1.249 . S
O265 U246 2.420 . S
O265 C250 1.202 . S
O266 U246 2.455 . S
O266 C263 1.301 . S
O267 U246 2.449 . S
O267 C263 1.282 . S
H268 C241 0.931 . S
H269 C243 0.929 . S
H270 C244 0.930 . S
H271 C245 0.931 . S
H272 C252 0.932 . S
H273 C253 0.930 . S
H274 C254 0.929 . S
H275 C256 0.930 . S
H276 C258 0.932 . S
H277 C259 0.929 . S
H278 C260 0.928 . S
H279 C262 0.932 . S
C280 C281 1.264 . S
C280 C285 1.479 . S
C280 C290 1.465 . S
C281 C280 1.264 . S
C281 C283 1.339 . S
C281 H308 0.931 . S
C282 C283 1.395 . S
C282 C284 1.320 . S
C283 C281 1.339 . S
C283 C282 1.395 . S
C283 H309 0.929 . S
C284 C282 1.320 . S
C284 C285 1.405 . S
C284 H310 0.930 . S
C285 C280 1.479 . S
C285 C284 1.405 . S
C285 H311 0.931 . S
U286 O287 2.454 . S
U286 O288 2.458 . S
U286 C289 2.984 . S
U286 C290 2.847 . S
U286 C303 2.882 . S
U286 O304 2.441 . S
U286 O305 2.420 . S
U286 O306 2.455 . S
U286 O307 2.449 . S
O287 U286 2.454 . S
O287 C289 1.353 . S
O288 U286 2.458 . S
O288 C289 1.286 . S
C289 U286 2.984 . S
C289 O287 1.353 . S
C289 O288 1.286 . S
C289 C291 1.363 . S
C290 C280 1.465 . S
C290 U286 2.847 . S
C290 O304 1.249 . S
C290 O305 1.202 . S
C291 C289 1.363 . S
C291 C293 1.408 . S
C291 C296 1.342 . S
C292 C293 1.310 . S
C292 C295 1.461 . S
C292 H312 0.932 . S
C293 C291 1.408 . S
C293 C292 1.310 . S
C293 H313 0.930 . S
C294 C295 1.474 . S
C294 C296 1.285 . S
C294 H314 0.929 . S
C295 C292 1.461 . S
C295 C294 1.474 . S
C296 C291 1.342 . S
C296 C294 1.285 . S
C296 H315 0.930 . S
C297 C300 1.424 . S
C297 C302 1.245 . S
C297 C303 1.428 . S
C298 C301 1.260 . S
C298 C302 1.477 . S
C298 H316 0.932 . S
C299 C300 1.384 . S
C299 C301 1.479 . S
C299 H317 0.929 . S
C300 C297 1.424 . S
C300 C299 1.384 . S
C300 H318 0.928 . S
C301 C298 1.260 . S
C301 C299 1.479 . S
C302 C297 1.245 . S
C302 C298 1.477 . S
C302 H319 0.932 . S
C303 U286 2.882 . S
C303 C297 1.428 . S
C303 O306 1.301 . S
C303 O307 1.282 . S
O304 U286 2.441 . S
O304 C290 1.249 . S
O305 U286 2.420 . S
O305 C290 1.202 . S
O306 U286 2.455 . S
O306 C303 1.301 . S
O307 U286 2.449 . S
O307 C303 1.282 . S
H308 C281 0.931 . S
H309 C283 0.929 . S
H310 C284 0.930 . S
H311 C285 0.931 . S
H312 C292 0.932 . S
H313 C293 0.930 . S
H314 C294 0.929 . S
H315 C296 0.930 . S
H316 C298 0.932 . S
H317 C299 0.929 . S
H318 C300 0.928 . S
H319 C302 0.932 . S
C320 C321 1.443 . S
C320 N324 1.376 . S
C320 C358 1.389 . S
C321 C320 1.443 . S
C321 C322 1.340 . S
C321 H361 0.951 . S
C322 C321 1.340 . S
C322 C323 1.439 . S
C322 H362 0.950 . S
C323 C322 1.439 . S
C323 N324 1.374 . S
C323 C357 1.395 . S
N324 C320 1.376 . S
N324 C323 1.374 . S
N324 Co325 2.008 . S
Co325 N324 2.008 . S
Co325 N326 1.995 . S
Co325 N331 2.008 . S
Co325 N336 1.995 . S
Co325 N341 2.282 . S
Co325 N347 2.282 1_455 S
N326 Co325 1.995 . S
N326 C327 1.376 . S
N326 C330 1.383 1_455 S
C327 N326 1.376 . S
C327 C328 1.446 1_455 S
C327 C357 1.391 . S
C328 C327 1.446 1_655 S
C328 C329 1.339 . S
C328 H363 0.949 . S
C329 C328 1.339 . S
C329 C330 1.439 . S
C329 H364 0.950 . S
C330 N326 1.383 1_655 S
C330 C329 1.439 . S
C330 C359 1.392 . S
N331 Co325 2.008 . S
N331 C332 1.376 1_455 S
N331 C335 1.374 . S
C332 N331 1.376 1_655 S
C332 C333 1.443 . S
C332 C359 1.389 . S
C333 C332 1.443 . S
C333 C334 1.340 . S
C333 H365 0.951 . S
C334 C333 1.340 . S
C334 C335 1.439 1_655 S
C334 H366 0.950 . S
C335 N331 1.374 . S
C335 C334 1.439 1_455 S
C335 C360 1.395 . S
N336 Co325 1.995 . S
N336 C337 1.376 . S
N336 C340 1.383 . S
C337 N336 1.376 . S
C337 C338 1.446 . S
C337 C360 1.391 . S
C338 C337 1.446 . S
C338 C339 1.339 . S
C338 H367 0.949 . S
C339 C338 1.339 . S
C339 C340 1.439 . S
C339 H368 0.950 . S
C340 N336 1.383 . S
C340 C339 1.439 . S
C340 C358 1.392 . S
N341 Co325 2.282 . S
N341 C344 1.332 . S
N341 C346 1.332 . S
C342 C343 1.386 . S
C342 C345 1.388 . S
C343 C342 1.386 . S
C343 C344 1.382 . S
C343 H369 0.950 . S
C344 N341 1.332 . S
C344 C343 1.382 . S
C344 H355 0.952 . S
C345 C342 1.388 . S
C345 C346 1.382 . S
C345 H370 0.950 . S
C346 N341 1.332 . S
C346 C345 1.382 . S
C346 H356 0.948 . S
N347 Co325 2.282 1_655 S
N347 C351 1.332 . S
N347 C352 1.332 . S
C348 C349 1.388 . S
C348 C352 1.382 . S
C348 H371 0.950 . S
C349 C348 1.388 . S
C349 C350 1.386 . S
C350 C349 1.386 . S
C350 C351 1.382 . S
C350 H372 0.950 . S
C351 N347 1.332 . S
C351 C350 1.382 . S
C351 H353 0.952 . S
C352 N347 1.332 . S
C352 C348 1.382 . S
C352 H354 0.948 . S
H353 C351 0.952 . S
H354 C352 0.948 . S
H355 C344 0.952 . S
H356 C346 0.948 . S
C357 C323 1.395 . S
C357 C327 1.391 . S
C358 C320 1.389 . S
C358 C340 1.392 . S
C359 C330 1.392 . S
C359 C332 1.389 . S
C360 C335 1.395 . S
C360 C337 1.391 . S
H361 C321 0.951 . S
H362 C322 0.950 . S
H363 C328 0.949 . S
H364 C329 0.950 . S
H365 C333 0.951 . S
H366 C334 0.950 . S
H367 C338 0.949 . S
H368 C339 0.950 . S
H369 C343 0.950 . S
H370 C345 0.950 . S
H371 C348 0.950 . S
H372 C350 0.950 . S
C373 C374 1.443 . S
C373 N377 1.376 . S
C373 C411 1.389 . S
C374 C373 1.443 . S
C374 C375 1.340 . S
C374 H414 0.951 . S
C375 C374 1.340 . S
C375 C376 1.439 . S
C375 H415 0.950 . S
C376 C375 1.439 . S
C376 N377 1.374 . S
C376 C410 1.395 . S
N377 C373 1.376 . S
N377 C376 1.374 . S
N377 Co378 2.008 . S
Co378 N377 2.008 . S
Co378 N379 1.995 1_455 S
Co378 N384 2.008 1_455 S
Co378 N389 1.995 . S
Co378 N394 2.282 . S
Co378 N400 2.282 1_455 S
N379 Co378 1.995 1_655 S
N379 C380 1.376 . S
N379 C383 1.383 . S
C380 N379 1.376 . S
C380 C381 1.446 . S
C380 C410 1.391 1_655 S
C381 C380 1.446 . S
C381 C382 1.339 . S
C381 H416 0.949 . S
C382 C381 1.339 . S
C382 C383 1.439 . S
C382 H417 0.950 . S
C383 N379 1.383 . S
C383 C382 1.439 . S
C383 C412 1.392 . S
N384 Co378 2.008 1_655 S
N384 C385 1.376 . S
N384 C388 1.373 1_655 S
C385 N384 1.376 . S
C385 C386 1.443 . S
C385 C412 1.389 . S
C386 C385 1.443 . S
C386 C387 1.340 . S
C386 H418 0.951 . S
C387 C386 1.340 . S
C387 C388 1.437 1_655 S
C387 H419 0.950 . S
C388 N384 1.373 1_455 S
C388 C387 1.437 1_455 S
C388 C413 1.398 . S
N389 Co378 1.995 . S
N389 C390 1.376 . S
N389 C393 1.383 . S
C390 N389 1.376 . S
C390 C391 1.446 . S
C390 C413 1.391 . S
C391 C390 1.446 . S
C391 C392 1.339 . S
C391 H420 0.949 . S
C392 C391 1.339 . S
C392 C393 1.439 . S
C392 H421 0.950 . S
C393 N389 1.383 . S
C393 C392 1.439 . S
C393 C411 1.392 . S
N394 Co378 2.282 . S
N394 C397 1.332 . S
N394 C399 1.332 . S
C395 C396 1.386 . S
C395 C398 1.388 . S
C396 C395 1.386 . S
C396 C397 1.382 . S
C396 H422 0.950 . S
C397 N394 1.332 . S
C397 C396 1.382 . S
C397 H408 0.952 . S
C398 C395 1.388 . S
C398 C399 1.382 . S
C398 H423 0.950 . S
C399 N394 1.332 . S
C399 C398 1.382 . S
C399 H409 0.948 . S
N400 Co378 2.282 1_655 S
N400 C404 1.332 . S
N400 C405 1.332 . S
C401 C402 1.388 . S
C401 C405 1.382 . S
C401 H424 0.950 . S
C402 C401 1.388 . S
C402 C403 1.386 . S
C403 C402 1.386 . S
C403 C404 1.382 . S
C403 H425 0.950 . S
C404 N400 1.332 . S
C404 C403 1.382 . S
C404 H406 0.952 . S
C405 N400 1.332 . S
C405 C401 1.382 . S
C405 H407 0.948 . S
H406 C404 0.952 . S
H407 C405 0.948 . S
H408 C397 0.952 . S
H409 C399 0.948 . S
C410 C376 1.395 . S
C410 C380 1.391 1_455 S
C411 C373 1.389 . S
C411 C393 1.392 . S
C412 C383 1.392 . S
C412 C385 1.389 . S
C413 C388 1.398 . S
C413 C390 1.391 . S
H414 C374 0.951 . S
H415 C375 0.950 . S
H416 C381 0.949 . S
H417 C382 0.950 . S
H418 C386 0.951 . S
H419 C387 0.950 . S
H420 C391 0.949 . S
H421 C392 0.950 . S
H422 C396 0.950 . S
H423 C398 0.950 . S
H424 C401 0.950 . S
H425 C403 0.950 . S
C426 C427 1.443 . S
C426 N430 1.376 . S
C426 C464 1.389 . S
C427 C426 1.443 . S
C427 C428 1.340 . S
C427 H467 0.951 . S
C428 C427 1.340 . S
C428 C429 1.439 . S
C428 H468 0.950 . S
C429 C428 1.439 . S
C429 N430 1.374 . S
C429 C463 1.395 1_565 S
N430 C426 1.376 . S
N430 C429 1.374 . S
N430 Co431 2.008 1_565 S
Co431 N430 2.008 1_545 S
Co431 N432 1.995 . S
Co431 N437 2.008 . S
Co431 N442 1.995 1_545 S
Co431 N447 2.282 . S
Co431 N453 2.282 1_545 S
N432 Co431 1.995 . S
N432 C433 1.376 . S
N432 C436 1.383 . S
C433 N432 1.376 . S
C433 C434 1.446 . S
C433 C463 1.391 . S
C434 C433 1.446 . S
C434 C435 1.339 . S
C434 H469 0.949 . S
C435 C434 1.339 . S
C435 C436 1.439 . S
C435 H470 0.950 . S
C436 N432 1.383 . S
C436 C435 1.439 . S
C436 C465 1.392 . S
N437 Co431 2.008 . S
N437 C438 1.376 . S
N437 C441 1.374 . S
C438 N437 1.376 . S
C438 C439 1.443 . S
C438 C465 1.389 . S
C439 C438 1.443 . S
C439 C440 1.340 . S
C439 H471 0.951 . S
C440 C439 1.340 . S
C440 C441 1.439 . S
C440 H472 0.950 . S
C441 N437 1.374 . S
C441 C440 1.439 . S
C441 C466 1.395 . S
N442 Co431 1.995 1_565 S
N442 C443 1.376 . S
N442 C446 1.383 . S
C443 N442 1.376 . S
C443 C444 1.446 . S
C443 C466 1.391 1_565 S
C444 C443 1.446 . S
C444 C445 1.339 . S
C444 H473 0.949 . S
C445 C444 1.339 . S
C445 C446 1.439 . S
C445 H474 0.950 . S
C446 N442 1.383 . S
C446 C445 1.439 . S
C446 C464 1.392 . S
N447 Co431 2.282 . S
N447 C450 1.332 . S
N447 C452 1.332 . S
C448 C449 1.386 . S
C448 C451 1.388 . S
C449 C448 1.386 . S
C449 C450 1.382 . S
C449 H475 0.950 . S
C450 N447 1.332 . S
C450 C449 1.382 . S
C450 H461 0.952 . S
C451 C448 1.388 . S
C451 C452 1.382 . S
C451 H476 0.950 . S
C452 N447 1.332 . S
C452 C451 1.382 . S
C452 H462 0.948 . S
N453 Co431 2.282 1_565 S
N453 C457 1.332 . S
N453 C458 1.332 . S
C454 C455 1.388 . S
C454 C458 1.382 . S
C454 H477 0.950 . S
C455 C454 1.388 . S
C455 C456 1.386 . S
C456 C455 1.386 . S
C456 C457 1.382 . S
C456 H478 0.950 . S
C457 N453 1.332 . S
C457 C456 1.382 . S
C457 H459 0.952 . S
C458 N453 1.332 . S
C458 C454 1.382 . S
C458 H460 0.948 . S
H459 C457 0.952 . S
H460 C458 0.948 . S
H461 C450 0.952 . S
H462 C452 0.948 . S
C463 C429 1.395 1_545 S
C463 C433 1.391 . S
C464 C426 1.389 . S
C464 C446 1.392 . S
C465 C436 1.392 . S
C465 C438 1.389 . S
C466 C441 1.395 . S
C466 C443 1.391 1_545 S
H467 C427 0.951 . S
H468 C428 0.950 . S
H469 C434 0.949 . S
H470 C435 0.950 . S
H471 C439 0.951 . S
H472 C440 0.950 . S
H473 C444 0.949 . S
H474 C445 0.950 . S
H475 C449 0.950 . S
H476 C451 0.950 . S
H477 C454 0.950 . S
H478 C456 0.950 . S
C479 C480 1.443 . S
C479 N483 1.376 . S
C479 C517 1.389 . S
C480 C479 1.443 . S
C480 C481 1.340 . S
C480 H520 0.951 . S
C481 C480 1.340 . S
C481 C482 1.439 . S
C481 H521 0.950 . S
C482 C481 1.439 . S
C482 N483 1.374 . S
C482 C516 1.395 . S
N483 C479 1.376 . S
N483 C482 1.374 . S
N483 Co484 2.008 . S
Co484 N483 2.008 . S
Co484 N485 2.019 . S
Co484 N490 2.004 1_554 S
Co484 N495 1.995 . S
Co484 N500 2.282 1_554 S
Co484 N506 2.282 . S
N485 Co484 2.019 . S
N485 C486 1.384 . S
N485 C489 1.344 1_554 S
C486 N485 1.384 . S
C486 C487 1.446 1_554 S
C486 C516 1.391 . S
C487 C486 1.446 1_556 S
C487 C488 1.339 . S
C487 H522 0.949 . S
C488 C487 1.339 . S
C488 C489 1.439 . S
C488 H523 0.950 . S
C489 N485 1.344 1_556 S
C489 C488 1.439 . S
C489 C518 1.392 . S
N490 Co484 2.004 1_556 S
N490 C491 1.382 . S
N490 C494 1.374 1_556 S
C491 N490 1.382 . S
C491 C492 1.443 . S
C491 C518 1.389 . S
C492 C491 1.443 . S
C492 C493 1.340 . S
C492 H524 0.951 . S
C493 C492 1.340 . S
C493 C494 1.401 1_556 S
C493 H525 0.950 . S
C494 N490 1.374 1_554 S
C494 C493 1.401 1_554 S
C494 C519 1.427 . S
N495 Co484 1.995 . S
N495 C496 1.376 . S
N495 C499 1.383 . S
C496 N495 1.376 . S
C496 C497 1.446 . S
C496 C519 1.391 . S
C497 C496 1.446 . S
C497 C498 1.339 . S
C497 H526 0.949 . S
C498 C497 1.339 . S
C498 C499 1.439 . S
C498 H527 0.950 . S
C499 N495 1.383 . S
C499 C498 1.439 . S
C499 C517 1.392 . S
N500 Co484 2.282 1_556 S
N500 C503 1.332 . S
N500 C505 1.332 . S
C501 C502 1.386 . S
C501 C504 1.388 . S
C502 C501 1.386 . S
C502 C503 1.382 . S
C502 H528 0.950 . S
C503 N500 1.332 . S
C503 C502 1.382 . S
C503 H514 0.952 . S
C504 C501 1.388 . S
C504 C505 1.382 . S
C504 H529 0.950 . S
C505 N500 1.332 . S
C505 C504 1.382 . S
C505 H515 0.948 . S
N506 Co484 2.282 . S
N506 C510 1.332 . S
N506 C511 1.332 . S
C507 C508 1.388 . S
C507 C511 1.382 . S
C507 H530 0.950 . S
C508 C507 1.388 . S
C508 C509 1.386 . S
C509 C508 1.386 . S
C509 C510 1.382 . S
C509 H531 0.950 . S
C510 N506 1.332 . S
C510 C509 1.382 . S
C510 H512 0.952 . S
C511 N506 1.332 . S
C511 C507 1.382 . S
C511 H513 0.948 . S
H512 C510 0.952 . S
H513 C511 0.948 . S
H514 C503 0.952 . S
H515 C505 0.948 . S
C516 C482 1.395 . S
C516 C486 1.391 . S
C517 C479 1.389 . S
C517 C499 1.392 . S
C518 C489 1.392 . S
C518 C491 1.389 . S
C519 C494 1.427 . S
C519 C496 1.391 . S
H520 C480 0.951 . S
H521 C481 0.950 . S
H522 C487 0.949 . S
H523 C488 0.950 . S
H524 C492 0.951 . S
H525 C493 0.950 . S
H526 C497 0.949 . S
H527 C498 0.950 . S
H528 C502 0.950 . S
H529 C504 0.950 . S
H530 C507 0.950 . S
H531 C509 0.950 . S
C532 C533 1.443 . S
C532 N536 1.376 1_565 S
C532 C570 1.389 . S
C533 C532 1.443 . S
C533 C534 1.340 . S
C533 H573 0.951 . S
C534 C533 1.340 . S
C534 C535 1.439 1_565 S
C534 H574 0.950 . S
C535 C534 1.439 1_545 S
C535 N536 1.374 . S
C535 C569 1.395 . S
N536 C532 1.376 1_545 S
N536 C535 1.374 . S
N536 Co537 2.008 . S
Co537 N536 2.008 . S
Co537 N538 1.995 . S
Co537 N543 2.008 . S
Co537 N548 1.995 . S
Co537 N553 2.282 . S
Co537 N559 2.282 1_545 S
N538 Co537 1.995 . S
N538 C539 1.376 . S
N538 C542 1.383 . S
C539 N538 1.376 . S
C539 C540 1.446 . S
C539 C569 1.391 . S
C540 C539 1.446 . S
C540 C541 1.339 . S
C540 H575 0.949 . S
C541 C540 1.339 . S
C541 C542 1.439 . S
C541 H576 0.950 . S
C542 N538 1.383 . S
C542 C541 1.439 . S
C542 C571 1.392 . S
N543 Co537 2.008 . S
N543 C544 1.376 . S
N543 C547 1.374 . S
C544 N543 1.376 . S
C544 C545 1.443 . S
C544 C571 1.389 . S
C545 C544 1.443 . S
C545 C546 1.340 . S
C545 H577 0.951 . S
C546 C545 1.340 . S
C546 C547 1.439 . S
C546 H578 0.950 . S
C547 N543 1.374 . S
C547 C546 1.439 . S
C547 C572 1.395 . S
N548 Co537 1.995 . S
N548 C549 1.376 . S
N548 C552 1.383 1_545 S
C549 N548 1.376 . S
C549 C550 1.446 1_545 S
C549 C572 1.391 . S
C550 C549 1.446 1_565 S
C550 C551 1.339 . S
C550 H579 0.949 . S
C551 C550 1.339 . S
C551 C552 1.439 . S
C551 H580 0.950 . S
C552 N548 1.383 1_565 S
C552 C551 1.439 . S
C552 C570 1.392 . S
N553 Co537 2.282 . S
N553 C556 1.332 . S
N553 C558 1.332 . S
C554 C555 1.386 . S
C554 C557 1.388 . S
C555 C554 1.386 . S
C555 C556 1.382 . S
C555 H581 0.950 . S
C556 N553 1.332 . S
C556 C555 1.382 . S
C556 H567 0.952 . S
C557 C554 1.388 . S
C557 C558 1.382 . S
C557 H582 0.950 . S
C558 N553 1.332 . S
C558 C557 1.382 . S
C558 H568 0.948 . S
N559 Co537 2.282 1_565 S
N559 C563 1.332 . S
N559 C564 1.332 . S
C560 C561 1.388 . S
C560 C564 1.382 . S
C560 H583 0.950 . S
C561 C560 1.388 . S
C561 C562 1.386 . S
C562 C561 1.386 . S
C562 C563 1.382 . S
C562 H584 0.950 . S
C563 N559 1.332 . S
C563 C562 1.382 . S
C563 H565 0.952 . S
C564 N559 1.332 . S
C564 C560 1.382 . S
C564 H566 0.948 . S
H565 C563 0.952 . S
H566 C564 0.948 . S
H567 C556 0.952 . S
H568 C558 0.948 . S
C569 C535 1.395 . S
C569 C539 1.391 . S
C570 C532 1.389 . S
C570 C552 1.392 . S
C571 C542 1.392 . S
C571 C544 1.389 . S
C572 C547 1.395 . S
C572 C549 1.391 . S
H573 C533 0.951 . S
H574 C534 0.950 . S
H575 C540 0.949 . S
H576 C541 0.950 . S
H577 C545 0.951 . S
H578 C546 0.950 . S
H579 C550 0.949 . S
H580 C551 0.950 . S
H581 C555 0.950 . S
H582 C557 0.950 . S
H583 C560 0.950 . S
H584 C562 0.950 . S
C585 C586 1.443 . S
C585 N589 1.376 . S
C585 C623 1.389 . S
C586 C585 1.443 . S
C586 C587 1.340 . S
C586 H626 0.951 . S
C587 C586 1.340 . S
C587 C588 1.439 . S
C587 H627 0.950 . S
C588 C587 1.439 . S
C588 N589 1.374 . S
C588 C622 1.395 . S
N589 C585 1.376 . S
N589 C588 1.374 . S
N589 Co590 2.008 . S
Co590 N589 2.008 . S
Co590 N591 1.995 . S
Co590 N596 2.008 . S
Co590 N601 1.995 . S
Co590 N606 2.316 . S
Co590 N612 2.282 . S
N591 Co590 1.995 . S
N591 C592 1.376 . S
N591 C595 1.383 1_554 S
C592 N591 1.376 . S
C592 C593 1.446 1_554 S
C592 C622 1.391 . S
C593 C592 1.446 1_556 S
C593 C594 1.339 . S
C593 H628 0.949 . S
C594 C593 1.339 . S
C594 C595 1.439 . S
C594 H629 0.950 . S
C595 N591 1.383 1_556 S
C595 C594 1.439 . S
C595 C624 1.392 . S
N596 Co590 2.008 . S
N596 C597 1.376 1_554 S
N596 C600 1.374 . S
C597 N596 1.376 1_556 S
C597 C598 1.443 . S
C597 C624 1.389 . S
C598 C597 1.443 . S
C598 C599 1.340 . S
C598 H630 0.951 . S
C599 C598 1.340 . S
C599 C600 1.439 1_556 S
C599 H631 0.950 . S
C600 N596 1.374 . S
C600 C599 1.439 1_554 S
C600 C625 1.395 . S
N601 Co590 1.995 . S
N601 C602 1.376 . S
N601 C605 1.383 . S
C602 N601 1.376 . S
C602 C603 1.446 . S
C602 C625 1.391 . S
C603 C602 1.446 . S
C603 C604 1.339 . S
C603 H632 0.949 . S
C604 C603 1.339 . S
C604 C605 1.439 . S
C604 H633 0.950 . S
C605 N601 1.383 . S
C605 C604 1.439 . S
C605 C623 1.392 . S
N606 Co590 2.316 . S
N606 C609 1.318 1_554 S
N606 C611 1.307 1_554 S
C607 C608 1.386 . S
C607 C610 1.388 . S
C608 C607 1.386 . S
C608 C609 1.382 . S
C608 H634 0.950 . S
C609 N606 1.318 1_556 S
C609 C608 1.382 . S
C609 H620 0.952 1_556 S
C610 C607 1.388 . S
C610 C611 1.382 . S
C610 H635 0.950 . S
C611 N606 1.307 1_556 S
C611 C610 1.382 . S
C611 H621 0.948 . S
N612 Co590 2.282 . S
N612 C616 1.332 . S
N612 C617 1.332 . S
C613 C614 1.388 . S
C613 C617 1.382 . S
C613 H636 0.950 . S
C614 C613 1.388 . S
C614 C615 1.386 . S
C615 C614 1.386 . S
C615 C616 1.382 . S
C615 H637 0.950 . S
C616 N612 1.332 . S
C616 C615 1.382 . S
C616 H618 0.952 . S
C617 N612 1.332 . S
C617 C613 1.382 . S
C617 H619 0.948 . S
H618 C616 0.952 . S
H619 C617 0.948 . S
H620 C609 0.952 1_554 S
H621 C611 0.948 . S
C622 C588 1.395 . S
C622 C592 1.391 . S
C623 C585 1.389 . S
C623 C605 1.392 . S
C624 C595 1.392 . S
C624 C597 1.389 . S
C625 C600 1.395 . S
C625 C602 1.391 . S
H626 C586 0.951 . S
H627 C587 0.950 . S
H628 C593 0.949 . S
H629 C594 0.950 . S
H630 C598 0.951 . S
H631 C599 0.950 . S
H632 C603 0.949 . S
H633 C604 0.950 . S
H634 C608 0.950 . S
H635 C610 0.950 . S
H636 C613 0.950 . S
H637 C615 0.950 . S
C638 C639 1.349 . S
C638 C640 1.327 . S
C638 H663 0.950 . S
C639 C638 1.349 . S
C639 C655 1.349 . S
C640 C638 1.327 . S
C640 C659 1.429 . S
C640 H664 0.950 . S
C641 C658 1.574 . S
C641 C660 1.368 . S
C641 H665 0.949 . S
H642 C646 0.949 . S
C643 C644 1.349 . S
C643 C645 1.327 . S
C643 H666 0.950 . S
C644 C643 1.349 . S
C644 C656 1.349 . S
C645 C643 1.327 . S
C645 C661 1.429 . S
C645 H667 0.950 . S
C646 H642 0.949 . S
C646 C654 1.574 . S
C646 C662 1.368 . S
H647 C655 0.950 . S
H648 C653 0.950 . S
H649 C654 0.949 . S
H650 C656 0.950 . S
H651 C657 0.950 . S
H652 C658 0.949 . S
C653 H648 0.950 . S
C653 C655 1.327 . S
C653 C659 1.429 . S
C654 C646 1.574 . S
C654 H649 0.949 . S
C654 C660 1.368 . S
C655 C639 1.349 . S
C655 H647 0.950 . S
C655 C653 1.327 . S
C656 C644 1.349 . S
C656 H650 0.950 . S
C656 C657 1.327 . S
C657 H651 0.950 . S
C657 C656 1.327 . S
C657 C661 1.429 . S
C658 C641 1.574 . S
C658 H652 0.949 . S
C658 C662 1.368 . S
C659 C640 1.429 . S
C659 C653 1.429 . S
C659 C660 1.523 . S
C660 C641 1.368 . S
C660 C654 1.368 . S
C660 C659 1.523 . S
C661 C645 1.429 . S
C661 C657 1.429 . S
C661 C662 1.523 . S
C662 C646 1.368 . S
C662 C658 1.368 . S
C662 C661 1.523 . S
H663 C638 0.950 . S
H664 C640 0.950 . S
H665 C641 0.949 . S
H666 C643 0.950 . S
H667 C645 0.950 . S
C668 C669 1.349 . S
C668 C670 1.327 . S
C668 H693 0.950 . S
C669 C668 1.349 . S
C669 C685 1.349 . S
C670 C668 1.327 . S
C670 C689 1.429 . S
C670 H694 0.950 . S
C671 C688 1.574 . S
C671 C690 1.368 . S
C671 H695 0.949 . S
H672 C676 0.949 . S
C673 C674 1.349 . S
C673 C675 1.327 . S
C673 H696 0.950 . S
C674 C673 1.349 . S
C674 C686 1.349 . S
C675 C673 1.327 . S
C675 C691 1.429 . S
C675 H697 0.950 . S
C676 H672 0.949 . S
C676 C684 1.574 . S
C676 C692 1.368 . S
H677 C685 0.950 . S
H678 C683 0.950 . S
H679 C684 0.949 . S
H680 C686 0.950 . S
H681 C687 0.950 . S
H682 C688 0.949 . S
C683 H678 0.950 . S
C683 C685 1.327 . S
C683 C689 1.429 . S
C684 C676 1.574 . S
C684 H679 0.949 . S
C684 C690 1.368 . S
C685 C669 1.349 . S
C685 H677 0.950 . S
C685 C683 1.327 . S
C686 C674 1.349 . S
C686 H680 0.950 . S
C686 C687 1.327 . S
C687 H681 0.950 . S
C687 C686 1.327 . S
C687 C691 1.429 . S
C688 C671 1.574 . S
C688 H682 0.949 . S
C688 C692 1.368 . S
C689 C670 1.429 . S
C689 C683 1.429 . S
C689 C690 1.523 . S
C690 C671 1.368 . S
C690 C684 1.368 . S
C690 C689 1.523 . S
C691 C675 1.429 . S
C691 C687 1.429 . S
C691 C692 1.523 . S
C692 C676 1.368 . S
C692 C688 1.368 . S
C692 C691 1.523 . S
H693 C668 0.950 . S
H694 C670 0.950 . S
H695 C671 0.949 . S
H696 C673 0.950 . S
H697 C675 0.950 . S
C698 C699 1.349 . S
C698 C700 1.327 . S
C698 H723 0.950 . S
C699 C698 1.349 . S
C699 C715 1.349 . S
C700 C698 1.327 . S
C700 C719 1.429 . S
C700 H724 0.950 . S
C701 C718 1.574 . S
C701 C720 1.368 . S
C701 H725 0.949 . S
H702 C706 0.949 . S
C703 C704 1.349 . S
C703 C705 1.327 . S
C703 H726 0.950 . S
C704 C703 1.349 . S
C704 C716 1.349 . S
C705 C703 1.327 . S
C705 C721 1.429 . S
C705 H727 0.950 . S
C706 H702 0.949 . S
C706 C714 1.574 . S
C706 C722 1.368 . S
H707 C715 0.950 . S
H708 C713 0.950 . S
H709 C714 0.949 . S
H710 C716 0.950 . S
H711 C717 0.950 . S
H712 C718 0.949 . S
C713 H708 0.950 . S
C713 C715 1.327 . S
C713 C719 1.429 . S
C714 C706 1.574 . S
C714 H709 0.949 . S
C714 C720 1.368 . S
C715 C699 1.349 . S
C715 H707 0.950 . S
C715 C713 1.327 . S
C716 C704 1.349 . S
C716 H710 0.950 . S
C716 C717 1.327 . S
C717 H711 0.950 . S
C717 C716 1.327 . S
C717 C721 1.429 . S
C718 C701 1.574 . S
C718 H712 0.949 . S
C718 C722 1.368 . S
C719 C700 1.429 . S
C719 C713 1.429 . S
C719 C720 1.523 . S
C720 C701 1.368 . S
C720 C714 1.368 . S
C720 C719 1.523 . S
C721 C705 1.429 . S
C721 C717 1.429 . S
C721 C722 1.523 . S
C722 C706 1.368 . S
C722 C718 1.368 . S
C722 C721 1.523 . S
H723 C698 0.950 . S
H724 C700 0.950 . S
H725 C701 0.949 . S
H726 C703 0.950 . S
H727 C705 0.950 . S
C728 C729 1.349 . S
C728 C730 1.327 . S
C728 H753 0.950 . S
C729 C728 1.349 . S
C729 C745 1.349 . S
C730 C728 1.327 . S
C730 C749 1.429 . S
C730 H754 0.950 . S
C731 C748 1.574 . S
C731 C750 1.368 . S
C731 H755 0.949 . S
H732 C736 0.949 . S
C733 C734 1.349 . S
C733 C735 1.327 . S
C733 H756 0.950 . S
C734 C733 1.349 . S
C734 C746 1.349 . S
C735 C733 1.327 . S
C735 C751 1.429 . S
C735 H757 0.950 . S
C736 H732 0.949 . S
C736 C744 1.574 . S
C736 C752 1.368 . S
H737 C745 0.950 . S
H738 C743 0.950 . S
H739 C744 0.949 . S
H740 C746 0.950 . S
H741 C747 0.950 . S
H742 C748 0.949 . S
C743 H738 0.950 . S
C743 C745 1.327 . S
C743 C749 1.429 . S
C744 C736 1.574 . S
C744 H739 0.949 . S
C744 C750 1.368 . S
C745 C729 1.349 . S
C745 H737 0.950 . S
C745 C743 1.327 . S
C746 C734 1.349 . S
C746 H740 0.950 . S
C746 C747 1.327 . S
C747 H741 0.950 . S
C747 C746 1.327 . S
C747 C751 1.429 . S
C748 C731 1.574 . S
C748 H742 0.949 . S
C748 C752 1.368 . S
C749 C730 1.429 . S
C749 C743 1.429 . S
C749 C750 1.523 . S
C750 C731 1.368 . S
C750 C744 1.368 . S
C750 C749 1.523 . S
C751 C735 1.429 . S
C751 C747 1.429 . S
C751 C752 1.523 . S
C752 C736 1.368 . S
C752 C748 1.368 . S
C752 C751 1.523 . S
H753 C728 0.950 . S
H754 C730 0.950 . S
H755 C731 0.949 . S
H756 C733 0.950 . S
H757 C735 0.950 . S
C758 C759 1.349 . S
C758 C760 1.327 . S
C758 H783 0.950 . S
C759 C758 1.349 . S
C759 C775 1.349 . S
C760 C758 1.327 . S
C760 C779 1.429 . S
C760 H784 0.950 . S
C761 C778 1.574 . S
C761 C780 1.368 . S
C761 H785 0.949 . S
H762 C766 0.949 . S
C763 C764 1.349 . S
C763 C765 1.327 . S
C763 H786 0.950 . S
C764 C763 1.349 . S
C764 C776 1.349 . S
C765 C763 1.327 . S
C765 C781 1.429 . S
C765 H787 0.950 . S
C766 H762 0.949 . S
C766 C774 1.574 . S
C766 C782 1.368 . S
H767 C775 0.950 . S
H768 C773 0.950 . S
H769 C774 0.949 . S
H770 C776 0.950 . S
H771 C777 0.950 . S
H772 C778 0.949 . S
C773 H768 0.950 . S
C773 C775 1.327 . S
C773 C779 1.429 . S
C774 C766 1.574 . S
C774 H769 0.949 . S
C774 C780 1.368 . S
C775 C759 1.349 . S
C775 H767 0.950 . S
C775 C773 1.327 . S
C776 C764 1.349 . S
C776 H770 0.950 . S
C776 C777 1.327 . S
C777 H771 0.950 . S
C777 C776 1.327 . S
C777 C781 1.429 . S
C778 C761 1.574 . S
C778 H772 0.949 . S
C778 C782 1.368 . S
C779 C760 1.429 . S
C779 C773 1.429 . S
C779 C780 1.523 . S
C780 C761 1.368 . S
C780 C774 1.368 . S
C780 C779 1.523 . S
C781 C765 1.429 . S
C781 C777 1.429 . S
C781 C782 1.523 . S
C782 C766 1.368 . S
C782 C778 1.368 . S
C782 C781 1.523 . S
H783 C758 0.950 . S
H784 C760 0.950 . S
H785 C761 0.949 . S
H786 C763 0.950 . S
H787 C765 0.950 . S
C788 C789 1.349 . S
C788 C790 1.327 . S
C788 H813 0.950 . S
C789 C788 1.349 . S
C789 C805 1.349 . S
C790 C788 1.327 . S
C790 C809 1.429 . S
C790 H814 0.950 . S
C791 C808 1.574 . S
C791 C810 1.368 . S
C791 H815 0.949 . S
H792 C796 0.949 . S
C793 C794 1.349 . S
C793 C795 1.327 . S
C793 H816 0.950 . S
C794 C793 1.349 . S
C794 C806 1.349 . S
C795 C793 1.327 . S
C795 C811 1.429 . S
C795 H817 0.950 . S
C796 H792 0.949 . S
C796 C804 1.574 . S
C796 C812 1.368 . S
H797 C805 0.950 . S
H798 C803 0.950 . S
H799 C804 0.949 . S
H800 C806 0.950 . S
H801 C807 0.950 . S
H802 C808 0.949 . S
C803 H798 0.950 . S
C803 C805 1.327 . S
C803 C809 1.429 . S
C804 C796 1.574 . S
C804 H799 0.949 . S
C804 C810 1.368 . S
C805 C789 1.349 . S
C805 H797 0.950 . S
C805 C803 1.327 . S
C806 C794 1.349 . S
C806 H800 0.950 . S
C806 C807 1.327 . S
C807 H801 0.950 . S
C807 C806 1.327 . S
C807 C811 1.429 . S
C808 C791 1.574 . S
C808 H802 0.949 . S
C808 C812 1.368 . S
C809 C790 1.429 . S
C809 C803 1.429 . S
C809 C810 1.523 . S
C810 C791 1.368 . S
C810 C804 1.368 . S
C810 C809 1.523 . S
C811 C795 1.429 . S
C811 C807 1.429 . S
C811 C812 1.523 . S
C812 C796 1.368 . S
C812 C808 1.368 . S
C812 C811 1.523 . S
H813 C788 0.950 . S
H814 C790 0.950 . S
H815 C791 0.949 . S
H816 C793 0.950 . S
H817 C795 0.950 . S
C818 C819 1.349 . S
C818 C820 1.327 . S
C818 H843 0.950 . S
C819 C818 1.349 . S
C819 C835 1.349 . S
C820 C818 1.327 . S
C820 C839 1.429 . S
C820 H844 0.950 . S
C821 C838 1.574 . S
C821 C840 1.368 . S
C821 H845 0.949 . S
H822 C826 0.949 . S
C823 C824 1.349 . S
C823 C825 1.327 . S
C823 H846 0.950 . S
C824 C823 1.349 . S
C824 C836 1.349 . S
C825 C823 1.327 . S
C825 C841 1.429 . S
C825 H847 0.950 . S
C826 H822 0.949 . S
C826 C834 1.574 . S
C826 C842 1.368 . S
H827 C835 0.950 . S
H828 C833 0.950 . S
H829 C834 0.949 . S
H830 C836 0.950 . S
H831 C837 0.950 . S
H832 C838 0.949 . S
C833 H828 0.950 . S
C833 C835 1.327 . S
C833 C839 1.429 . S
C834 C826 1.574 . S
C834 H829 0.949 . S
C834 C840 1.368 . S
C835 C819 1.349 . S
C835 H827 0.950 . S
C835 C833 1.327 . S
C836 C824 1.349 . S
C836 H830 0.950 . S
C836 C837 1.327 . S
C837 H831 0.950 . S
C837 C836 1.327 . S
C837 C841 1.429 . S
C838 C821 1.574 . S
C838 H832 0.949 . S
C838 C842 1.368 . S
C839 C820 1.429 . S
C839 C833 1.429 . S
C839 C840 1.523 . S
C840 C821 1.368 . S
C840 C834 1.368 . S
C840 C839 1.523 . S
C841 C825 1.429 . S
C841 C837 1.429 . S
C841 C842 1.523 . S
C842 C826 1.368 . S
C842 C838 1.368 . S
C842 C841 1.523 . S
H843 C818 0.950 . S
H844 C820 0.950 . S
H845 C821 0.949 . S
H846 C823 0.950 . S
H847 C825 0.950 . S
C848 C849 1.349 . S
C848 C850 1.327 . S
C848 H873 0.950 . S
C849 C848 1.349 . S
C849 C865 1.349 . S
C850 C848 1.327 . S
C850 C869 1.429 . S
C850 H874 0.950 . S
C851 C868 1.574 . S
C851 C870 1.368 . S
C851 H875 0.949 . S
H852 C856 0.949 . S
C853 C854 1.349 . S
C853 C855 1.327 . S
C853 H876 0.950 . S
C854 C853 1.349 . S
C854 C866 1.349 . S
C855 C853 1.327 . S
C855 C871 1.429 . S
C855 H877 0.950 . S
C856 H852 0.949 . S
C856 C864 1.574 . S
C856 C872 1.368 . S
H857 C865 0.950 . S
H858 C863 0.950 . S
H859 C864 0.949 . S
H860 C866 0.950 . S
H861 C867 0.950 . S
H862 C868 0.949 . S
C863 H858 0.950 . S
C863 C865 1.327 . S
C863 C869 1.429 . S
C864 C856 1.574 . S
C864 H859 0.949 . S
C864 C870 1.368 . S
C865 C849 1.349 . S
C865 H857 0.950 . S
C865 C863 1.327 . S
C866 C854 1.349 . S
C866 H860 0.950 . S
C866 C867 1.327 . S
C867 H861 0.950 . S
C867 C866 1.327 . S
C867 C871 1.429 . S
C868 C851 1.574 . S
C868 H862 0.949 . S
C868 C872 1.368 . S
C869 C850 1.429 . S
C869 C863 1.429 . S
C869 C870 1.523 . S
C870 C851 1.368 . S
C870 C864 1.368 . S
C870 C869 1.523 . S
C871 C855 1.429 . S
C871 C867 1.429 . S
C871 C872 1.523 . S
C872 C856 1.368 . S
C872 C868 1.368 . S
C872 C871 1.523 . S
H873 C848 0.950 . S
H874 C850 0.950 . S
H875 C851 0.949 . S
H876 C853 0.950 . S
H877 C855 0.950 . S
C878 C879 1.349 . S
C878 C880 1.327 . S
C878 H903 0.950 . S
C879 C878 1.349 . S
C879 C895 1.349 . S
C880 C878 1.327 . S
C880 C899 1.429 . S
C880 H904 0.950 . S
C881 C898 1.574 . S
C881 C900 1.368 . S
C881 H905 0.949 . S
H882 C886 0.949 . S
C883 C884 1.349 . S
C883 C885 1.327 . S
C883 H906 0.950 . S
C884 C883 1.349 . S
C884 C896 1.349 . S
C885 C883 1.327 . S
C885 C901 1.429 . S
C885 H907 0.950 . S
C886 H882 0.949 . S
C886 C894 1.574 . S
C886 C902 1.368 . S
H887 C895 0.950 . S
H888 C893 0.950 . S
H889 C894 0.949 . S
H890 C896 0.950 . S
H891 C897 0.950 . S
H892 C898 0.949 . S
C893 H888 0.950 . S
C893 C895 1.327 . S
C893 C899 1.429 . S
C894 C886 1.574 . S
C894 H889 0.949 . S
C894 C900 1.368 . S
C895 C879 1.349 . S
C895 H887 0.950 . S
C895 C893 1.327 . S
C896 C884 1.349 . S
C896 H890 0.950 . S
C896 C897 1.327 . S
C897 H891 0.950 . S
C897 C896 1.327 . S
C897 C901 1.429 . S
C898 C881 1.574 . S
C898 H892 0.949 . S
C898 C902 1.368 . S
C899 C880 1.429 . S
C899 C893 1.429 . S
C899 C900 1.523 . S
C900 C881 1.368 . S
C900 C894 1.368 . S
C900 C899 1.523 . S
C901 C885 1.429 . S
C901 C897 1.429 . S
C901 C902 1.523 . S
C902 C886 1.368 . S
C902 C898 1.368 . S
C902 C901 1.523 . S
H903 C878 0.950 . S
H904 C880 0.950 . S
H905 C881 0.949 . S
H906 C883 0.950 . S
H907 C885 0.950 . S
C908 C909 1.349 . S
C908 C910 1.327 . S
C908 H933 0.950 . S
C909 C908 1.349 . S
C909 C925 1.349 . S
C910 C908 1.327 . S
C910 C929 1.429 . S
C910 H934 0.950 . S
C911 C928 1.574 . S
C911 C930 1.368 . S
C911 H935 0.949 . S
H912 C916 0.949 . S
C913 C914 1.349 . S
C913 C915 1.327 . S
C913 H936 0.950 . S
C914 C913 1.349 . S
C914 C926 1.349 . S
C915 C913 1.327 . S
C915 C931 1.429 . S
C915 H937 0.950 . S
C916 H912 0.949 . S
C916 C924 1.574 . S
C916 C932 1.368 . S
H917 C925 0.950 . S
H918 C923 0.950 . S
H919 C924 0.949 . S
H920 C926 0.950 . S
H921 C927 0.950 . S
H922 C928 0.949 . S
C923 H918 0.950 . S
C923 C925 1.327 . S
C923 C929 1.429 . S
C924 C916 1.574 . S
C924 H919 0.949 . S
C924 C930 1.368 . S
C925 C909 1.349 . S
C925 H917 0.950 . S
C925 C923 1.327 . S
C926 C914 1.349 . S
C926 H920 0.950 . S
C926 C927 1.327 . S
C927 H921 0.950 . S
C927 C926 1.327 . S
C927 C931 1.429 . S
C928 C911 1.574 . S
C928 H922 0.949 . S
C928 C932 1.368 . S
C929 C910 1.429 . S
C929 C923 1.429 . S
C929 C930 1.523 . S
C930 C911 1.368 . S
C930 C924 1.368 . S
C930 C929 1.523 . S
C931 C915 1.429 . S
C931 C927 1.429 . S
C931 C932 1.523 . S
C932 C916 1.368 . S
C932 C928 1.368 . S
C932 C931 1.523 . S
H933 C908 0.950 . S
H934 C910 0.950 . S
H935 C911 0.949 . S
H936 C913 0.950 . S
H937 C915 0.950 . S
C938 C939 1.349 . S
C938 C940 1.327 . S
C938 H963 0.950 . S
C939 C938 1.349 . S
C939 C955 1.349 . S
C940 C938 1.327 . S
C940 C959 1.429 . S
C940 H964 0.950 . S
C941 C958 1.574 . S
C941 C960 1.368 . S
C941 H965 0.949 . S
H942 C946 0.949 . S
C943 C944 1.349 . S
C943 C945 1.327 . S
C943 H966 0.950 . S
C944 C943 1.349 . S
C944 C956 1.349 . S
C945 C943 1.327 . S
C945 C961 1.429 . S
C945 H967 0.950 . S
C946 H942 0.949 . S
C946 C954 1.574 . S
C946 C962 1.368 . S
H947 C955 0.950 . S
H948 C953 0.950 . S
H949 C954 0.949 . S
H950 C956 0.950 . S
H951 C957 0.950 . S
H952 C958 0.949 . S
C953 H948 0.950 . S
C953 C955 1.327 . S
C953 C959 1.429 . S
C954 C946 1.574 . S
C954 H949 0.949 . S
C954 C960 1.368 . S
C955 C939 1.349 . S
C955 H947 0.950 . S
C955 C953 1.327 . S
C956 C944 1.349 . S
C956 H950 0.950 . S
C956 C957 1.327 . S
C957 H951 0.950 . S
C957 C956 1.327 . S
C957 C961 1.429 . S
C958 C941 1.574 . S
C958 H952 0.949 . S
C958 C962 1.368 . S
C959 C940 1.429 . S
C959 C953 1.429 . S
C959 C960 1.523 . S
C960 C941 1.368 . S
C960 C954 1.368 . S
C960 C959 1.523 . S
C961 C945 1.429 . S
C961 C957 1.429 . S
C961 C962 1.523 . S
C962 C946 1.368 . S
C962 C958 1.368 . S
C962 C961 1.523 . S
H963 C938 0.950 . S
H964 C940 0.950 . S
H965 C941 0.949 . S
H966 C943 0.950 . S
H967 C945 0.950 . S
C968 C969 1.349 . S
C968 C970 1.327 . S
C968 H993 0.950 . S
C969 C968 1.349 . S
C969 C985 1.349 . S
C970 C968 1.327 . S
C970 C989 1.429 . S
C970 H994 0.950 . S
C971 C988 1.574 . S
C971 C990 1.368 . S
C971 H995 0.949 . S
H972 C976 0.949 . S
C973 C974 1.349 . S
C973 C975 1.327 . S
C973 H996 0.950 . S
C974 C973 1.349 . S
C974 C986 1.349 . S
C975 C973 1.327 . S
C975 C991 1.429 . S
C975 H997 0.950 . S
C976 H972 0.949 . S
C976 C984 1.574 . S
C976 C992 1.368 . S
H977 C985 0.950 . S
H978 C983 0.950 . S
H979 C984 0.949 . S
H980 C986 0.950 . S
H981 C987 0.950 . S
H982 C988 0.949 . S
C983 H978 0.950 . S
C983 C985 1.327 . S
C983 C989 1.429 . S
C984 C976 1.574 . S
C984 H979 0.949 . S
C984 C990 1.368 . S
C985 C969 1.349 . S
C985 H977 0.950 . S
C985 C983 1.327 . S
C986 C974 1.349 . S
C986 H980 0.950 . S
C986 C987 1.327 . S
C987 H981 0.950 . S
C987 C986 1.327 . S
C987 C991 1.429 . S
C988 C971 1.574 . S
C988 H982 0.949 . S
C988 C992 1.368 . S
C989 C970 1.429 . S
C989 C983 1.429 . S
C989 C990 1.523 . S
C990 C971 1.368 . S
C990 C984 1.368 . S
C990 C989 1.523 . S
C991 C975 1.429 . S
C991 C987 1.429 . S
C991 C992 1.523 . S
C992 C976 1.368 . S
C992 C988 1.368 . S
C992 C991 1.523 . S
H993 C968 0.950 . S
H994 C970 0.950 . S
H995 C971 0.949 . S
H996 C973 0.950 . S
H997 C975 0.950 . S
C998 C999 1.349 . S
C998 C1000 1.327 . S
C998 H1023 0.950 . S
C999 C998 1.349 . S
C999 C1015 1.349 . S
C1000 C998 1.327 . S
C1000 C1019 1.429 . S
C1000 H1024 0.950 . S
C1001 C1018 1.574 . S
C1001 C1020 1.368 . S
C1001 H1025 0.949 . S
H1002 C1006 0.949 . S
C1003 C1004 1.349 . S
C1003 C1005 1.327 . S
C1003 H1026 0.950 . S
C1004 C1003 1.349 . S
C1004 C1016 1.349 . S
C1005 C1003 1.327 . S
C1005 C1021 1.429 . S
C1005 H1027 0.950 . S
C1006 H1002 0.949 . S
C1006 C1014 1.574 . S
C1006 C1022 1.368 . S
H1007 C1015 0.950 . S
H1008 C1013 0.950 . S
H1009 C1014 0.949 . S
H1010 C1016 0.950 . S
H1011 C1017 0.950 . S
H1012 C1018 0.949 . S
C1013 H1008 0.950 . S
C1013 C1015 1.327 . S
C1013 C1019 1.429 . S
C1014 C1006 1.574 . S
C1014 H1009 0.949 . S
C1014 C1020 1.368 . S
C1015 C999 1.349 . S
C1015 H1007 0.950 . S
C1015 C1013 1.327 . S
C1016 C1004 1.349 . S
C1016 H1010 0.950 . S
C1016 C1017 1.327 . S
C1017 H1011 0.950 . S
C1017 C1016 1.327 . S
C1017 C1021 1.429 . S
C1018 C1001 1.574 . S
C1018 H1012 0.949 . S
C1018 C1022 1.368 . S
C1019 C1000 1.429 . S
C1019 C1013 1.429 . S
C1019 C1020 1.523 . S
C1020 C1001 1.368 . S
C1020 C1014 1.368 . S
C1020 C1019 1.523 . S
C1021 C1005 1.429 . S
C1021 C1017 1.429 . S
C1021 C1022 1.523 . S
C1022 C1006 1.368 . S
C1022 C1018 1.368 . S
C1022 C1021 1.523 . S
H1023 C998 0.950 . S
H1024 C1000 0.950 . S
H1025 C1001 0.949 . S
H1026 C1003 0.950 . S
H1027 C1005 0.950 . S
C1028 C1029 1.349 . S
C1028 C1030 1.327 . S
C1028 H1053 0.950 . S
C1029 C1028 1.349 . S
C1029 C1045 1.349 . S
C1030 C1028 1.327 . S
C1030 C1049 1.429 . S
C1030 H1054 0.950 . S
C1031 C1048 1.574 . S
C1031 C1050 1.368 . S
C1031 H1055 0.949 . S
H1032 C1036 0.949 . S
C1033 C1034 1.349 . S
C1033 C1035 1.327 . S
C1033 H1056 0.950 . S
C1034 C1033 1.349 . S
C1034 C1046 1.349 . S
C1035 C1033 1.327 . S
C1035 C1051 1.429 . S
C1035 H1057 0.950 . S
C1036 H1032 0.949 . S
C1036 C1044 1.574 . S
C1036 C1052 1.368 . S
H1037 C1045 0.950 . S
H1038 C1043 0.950 . S
H1039 C1044 0.949 . S
H1040 C1046 0.950 . S
H1041 C1047 0.950 . S
H1042 C1048 0.949 . S
C1043 H1038 0.950 . S
C1043 C1045 1.327 . S
C1043 C1049 1.429 . S
C1044 C1036 1.574 . S
C1044 H1039 0.949 . S
C1044 C1050 1.368 . S
C1045 C1029 1.349 . S
C1045 H1037 0.950 . S
C1045 C1043 1.327 . S
C1046 C1034 1.349 . S
C1046 H1040 0.950 . S
C1046 C1047 1.327 . S
C1047 H1041 0.950 . S
C1047 C1046 1.327 . S
C1047 C1051 1.429 . S
C1048 C1031 1.574 . S
C1048 H1042 0.949 . S
C1048 C1052 1.368 . S
C1049 C1030 1.429 . S
C1049 C1043 1.429 . S
C1049 C1050 1.523 . S
C1050 C1031 1.368 . S
C1050 C1044 1.368 . S
C1050 C1049 1.523 . S
C1051 C1035 1.429 . S
C1051 C1047 1.429 . S
C1051 C1052 1.523 . S
C1052 C1036 1.368 . S
C1052 C1048 1.368 . S
C1052 C1051 1.523 . S
H1053 C1028 0.950 . S
H1054 C1030 0.950 . S
H1055 C1031 0.949 . S
H1056 C1033 0.950 . S
H1057 C1035 0.950 . S
C1058 C1059 1.349 . S
C1058 C1060 1.327 . S
C1058 H1083 0.950 . S
C1059 C1058 1.349 . S
C1059 C1075 1.349 . S
C1060 C1058 1.327 . S
C1060 C1079 1.429 . S
C1060 H1084 0.950 . S
C1061 C1078 1.574 . S
C1061 C1080 1.368 . S
C1061 H1085 0.949 . S
H1062 C1066 0.949 . S
C1063 C1064 1.349 . S
C1063 C1065 1.327 . S
C1063 H1086 0.950 . S
C1064 C1063 1.349 . S
C1064 C1076 1.349 . S
C1065 C1063 1.327 . S
C1065 C1081 1.429 . S
C1065 H1087 0.950 . S
C1066 H1062 0.949 . S
C1066 C1074 1.574 . S
C1066 C1082 1.368 . S
H1067 C1075 0.950 . S
H1068 C1073 0.950 . S
H1069 C1074 0.949 . S
H1070 C1076 0.950 . S
H1071 C1077 0.950 . S
H1072 C1078 0.949 . S
C1073 H1068 0.950 . S
C1073 C1075 1.327 . S
C1073 C1079 1.429 . S
C1074 C1066 1.574 . S
C1074 H1069 0.949 . S
C1074 C1080 1.368 . S
C1075 C1059 1.349 . S
C1075 H1067 0.950 . S
C1075 C1073 1.327 . S
C1076 C1064 1.349 . S
C1076 H1070 0.950 . S
C1076 C1077 1.327 . S
C1077 H1071 0.950 . S
C1077 C1076 1.327 . S
C1077 C1081 1.429 . S
C1078 C1061 1.574 . S
C1078 H1072 0.949 . S
C1078 C1082 1.368 . S
C1079 C1060 1.429 . S
C1079 C1073 1.429 . S
C1079 C1080 1.523 . S
C1080 C1061 1.368 . S
C1080 C1074 1.368 . S
C1080 C1079 1.523 . S
C1081 C1065 1.429 . S
C1081 C1077 1.429 . S
C1081 C1082 1.523 . S
C1082 C1066 1.368 . S
C1082 C1078 1.368 . S
C1082 C1081 1.523 . S
H1083 C1058 0.950 . S
H1084 C1060 0.950 . S
H1085 C1061 0.949 . S
H1086 C1063 0.950 . S
H1087 C1065 0.950 . S
C1088 C1089 1.349 . S
C1088 C1090 1.327 . S
C1088 H1113 0.950 . S
C1089 C1088 1.349 . S
C1089 C1105 1.349 . S
C1090 C1088 1.327 . S
C1090 C1109 1.429 . S
C1090 H1114 0.950 . S
C1091 C1108 1.574 . S
C1091 C1110 1.368 . S
C1091 H1115 0.949 . S
H1092 C1096 0.949 . S
C1093 C1094 1.349 . S
C1093 C1095 1.327 . S
C1093 H1116 0.950 . S
C1094 C1093 1.349 . S
C1094 C1106 1.349 . S
C1095 C1093 1.327 . S
C1095 C1111 1.429 . S
C1095 H1117 0.950 . S
C1096 H1092 0.949 . S
C1096 C1104 1.574 . S
C1096 C1112 1.368 . S
H1097 C1105 0.950 . S
H1098 C1103 0.950 . S
H1099 C1104 0.949 . S
H1100 C1106 0.950 . S
H1101 C1107 0.950 . S
H1102 C1108 0.949 . S
C1103 H1098 0.950 . S
C1103 C1105 1.327 . S
C1103 C1109 1.429 . S
C1104 C1096 1.574 . S
C1104 H1099 0.949 . S
C1104 C1110 1.368 . S
C1105 C1089 1.349 . S
C1105 H1097 0.950 . S
C1105 C1103 1.327 . S
C1106 C1094 1.349 . S
C1106 H1100 0.950 . S
C1106 C1107 1.327 . S
C1107 H1101 0.950 . S
C1107 C1106 1.327 . S
C1107 C1111 1.429 . S
C1108 C1091 1.574 . S
C1108 H1102 0.949 . S
C1108 C1112 1.368 . S
C1109 C1090 1.429 . S
C1109 C1103 1.429 . S
C1109 C1110 1.523 . S
C1110 C1091 1.368 . S
C1110 C1104 1.368 . S
C1110 C1109 1.523 . S
C1111 C1095 1.429 . S
C1111 C1107 1.429 . S
C1111 C1112 1.523 . S
C1112 C1096 1.368 . S
C1112 C1108 1.368 . S
C1112 C1111 1.523 . S
H1113 C1088 0.950 . S
H1114 C1090 0.950 . S
H1115 C1091 0.949 . S
H1116 C1093 0.950 . S
H1117 C1095 0.950 . S
C1118 C1119 1.349 . S
C1118 C1120 1.327 . S
C1118 H1143 0.950 . S
C1119 C1118 1.349 . S
C1119 C1135 1.349 . S
C1120 C1118 1.327 . S
C1120 C1139 1.429 . S
C1120 H1144 0.950 . S
C1121 C1138 1.574 . S
C1121 C1140 1.368 . S
C1121 H1145 0.949 . S
H1122 C1126 0.949 . S
C1123 C1124 1.349 . S
C1123 C1125 1.327 . S
C1123 H1146 0.950 . S
C1124 C1123 1.349 . S
C1124 C1136 1.349 . S
C1125 C1123 1.327 . S
C1125 C1141 1.429 . S
C1125 H1147 0.950 . S
C1126 H1122 0.949 . S
C1126 C1134 1.574 . S
C1126 C1142 1.368 . S
H1127 C1135 0.950 . S
H1128 C1133 0.950 . S
H1129 C1134 0.949 . S
H1130 C1136 0.950 . S
H1131 C1137 0.950 . S
H1132 C1138 0.949 . S
C1133 H1128 0.950 . S
C1133 C1135 1.327 . S
C1133 C1139 1.429 . S
C1134 C1126 1.574 . S
C1134 H1129 0.949 . S
C1134 C1140 1.368 . S
C1135 C1119 1.349 . S
C1135 H1127 0.950 . S
C1135 C1133 1.327 . S
C1136 C1124 1.349 . S
C1136 H1130 0.950 . S
C1136 C1137 1.327 . S
C1137 H1131 0.950 . S
C1137 C1136 1.327 . S
C1137 C1141 1.429 . S
C1138 C1121 1.574 . S
C1138 H1132 0.949 . S
C1138 C1142 1.368 . S
C1139 C1120 1.429 . S
C1139 C1133 1.429 . S
C1139 C1140 1.523 . S
C1140 C1121 1.368 . S
C1140 C1134 1.368 . S
C1140 C1139 1.523 . S
C1141 C1125 1.429 . S
C1141 C1137 1.429 . S
C1141 C1142 1.523 . S
C1142 C1126 1.368 . S
C1142 C1138 1.368 . S
C1142 C1141 1.523 . S
H1143 C1118 0.950 . S
H1144 C1120 0.950 . S
H1145 C1121 0.949 . S
H1146 C1123 0.950 . S
H1147 C1125 0.950 . S
C1148 C1149 1.349 . S
C1148 C1150 1.327 . S
C1148 H1173 0.950 . S
C1149 C1148 1.349 . S
C1149 C1165 1.349 . S
C1150 C1148 1.327 . S
C1150 C1169 1.429 . S
C1150 H1174 0.950 . S
C1151 C1168 1.574 . S
C1151 C1170 1.368 . S
C1151 H1175 0.949 . S
H1152 C1156 0.949 . S
C1153 C1154 1.349 . S
C1153 C1155 1.327 . S
C1153 H1176 0.950 . S
C1154 C1153 1.349 . S
C1154 C1166 1.349 . S
C1155 C1153 1.327 . S
C1155 C1171 1.429 . S
C1155 H1177 0.950 . S
C1156 H1152 0.949 . S
C1156 C1164 1.574 . S
C1156 C1172 1.368 . S
H1157 C1165 0.950 . S
H1158 C1163 0.950 . S
H1159 C1164 0.949 . S
H1160 C1166 0.950 . S
H1161 C1167 0.950 . S
H1162 C1168 0.949 . S
C1163 H1158 0.950 . S
C1163 C1165 1.327 . S
C1163 C1169 1.429 . S
C1164 C1156 1.574 . S
C1164 H1159 0.949 . S
C1164 C1170 1.368 . S
C1165 C1149 1.349 . S
C1165 H1157 0.950 . S
C1165 C1163 1.327 . S
C1166 C1154 1.349 . S
C1166 H1160 0.950 . S
C1166 C1167 1.327 . S
C1167 H1161 0.950 . S
C1167 C1166 1.327 . S
C1167 C1171 1.429 . S
C1168 C1151 1.574 . S
C1168 H1162 0.949 . S
C1168 C1172 1.368 . S
C1169 C1150 1.429 . S
C1169 C1163 1.429 . S
C1169 C1170 1.523 . S
C1170 C1151 1.368 . S
C1170 C1164 1.368 . S
C1170 C1169 1.523 . S
C1171 C1155 1.429 . S
C1171 C1167 1.429 . S
C1171 C1172 1.523 . S
C1172 C1156 1.368 . S
C1172 C1168 1.368 . S
C1172 C1171 1.523 . S
H1173 C1148 0.950 . S
H1174 C1150 0.950 . S
H1175 C1151 0.949 . S
H1176 C1153 0.950 . S
H1177 C1155 0.950 . S
C1178 C1179 1.349 . S
C1178 C1180 1.327 . S
C1178 H1203 0.950 . S
C1179 C1178 1.349 . S
C1179 C1195 1.349 . S
C1180 C1178 1.327 . S
C1180 C1199 1.429 . S
C1180 H1204 0.950 . S
C1181 C1198 1.574 . S
C1181 C1200 1.368 . S
C1181 H1205 0.949 . S
H1182 C1186 0.949 . S
C1183 C1184 1.349 . S
C1183 C1185 1.327 . S
C1183 H1206 0.950 . S
C1184 C1183 1.349 . S
C1184 C1196 1.349 . S
C1185 C1183 1.327 . S
C1185 C1201 1.429 . S
C1185 H1207 0.950 . S
C1186 H1182 0.949 . S
C1186 C1194 1.574 . S
C1186 C1202 1.368 . S
H1187 C1195 0.950 . S
H1188 C1193 0.950 . S
H1189 C1194 0.949 . S
H1190 C1196 0.950 . S
H1191 C1197 0.950 . S
H1192 C1198 0.949 . S
C1193 H1188 0.950 . S
C1193 C1195 1.327 . S
C1193 C1199 1.429 . S
C1194 C1186 1.574 . S
C1194 H1189 0.949 . S
C1194 C1200 1.368 . S
C1195 C1179 1.349 . S
C1195 H1187 0.950 . S
C1195 C1193 1.327 . S
C1196 C1184 1.349 . S
C1196 H1190 0.950 . S
C1196 C1197 1.327 . S
C1197 H1191 0.950 . S
C1197 C1196 1.327 . S
C1197 C1201 1.429 . S
C1198 C1181 1.574 . S
C1198 H1192 0.949 . S
C1198 C1202 1.368 . S
C1199 C1180 1.429 . S
C1199 C1193 1.429 . S
C1199 C1200 1.523 . S
C1200 C1181 1.368 . S
C1200 C1194 1.368 . S
C1200 C1199 1.523 . S
C1201 C1185 1.429 . S
C1201 C1197 1.429 . S
C1201 C1202 1.523 . S
C1202 C1186 1.368 . S
C1202 C1198 1.368 . S
C1202 C1201 1.523 . S
H1203 C1178 0.950 . S
H1204 C1180 0.950 . S
H1205 C1181 0.949 . S
H1206 C1183 0.950 . S
H1207 C1185 0.950 . S
C1208 C1209 1.349 . S
C1208 C1210 1.327 . S
C1208 H1233 0.950 . S
C1209 C1208 1.349 . S
C1209 C1225 1.349 . S
C1210 C1208 1.327 . S
C1210 C1229 1.429 . S
C1210 H1234 0.950 . S
C1211 C1228 1.574 . S
C1211 C1230 1.368 . S
C1211 H1235 0.949 . S
H1212 C1216 0.949 . S
C1213 C1214 1.349 . S
C1213 C1215 1.327 . S
C1213 H1236 0.950 . S
C1214 C1213 1.349 . S
C1214 C1226 1.349 . S
C1215 C1213 1.327 . S
C1215 C1231 1.429 . S
C1215 H1237 0.950 . S
C1216 H1212 0.949 . S
C1216 C1224 1.574 . S
C1216 C1232 1.368 . S
H1217 C1225 0.950 . S
H1218 C1223 0.950 . S
H1219 C1224 0.949 . S
H1220 C1226 0.950 . S
H1221 C1227 0.950 . S
H1222 C1228 0.949 . S
C1223 H1218 0.950 . S
C1223 C1225 1.327 . S
C1223 C1229 1.429 . S
C1224 C1216 1.574 . S
C1224 H1219 0.949 . S
C1224 C1230 1.368 . S
C1225 C1209 1.349 . S
C1225 H1217 0.950 . S
C1225 C1223 1.327 . S
C1226 C1214 1.349 . S
C1226 H1220 0.950 . S
C1226 C1227 1.327 . S
C1227 H1221 0.950 . S
C1227 C1226 1.327 . S
C1227 C1231 1.429 . S
C1228 C1211 1.574 . S
C1228 H1222 0.949 . S
C1228 C1232 1.368 . S
C1229 C1210 1.429 . S
C1229 C1223 1.429 . S
C1229 C1230 1.523 . S
C1230 C1211 1.368 . S
C1230 C1224 1.368 . S
C1230 C1229 1.523 . S
C1231 C1215 1.429 . S
C1231 C1227 1.429 . S
C1231 C1232 1.523 . S
C1232 C1216 1.368 . S
C1232 C1228 1.368 . S
C1232 C1231 1.523 . S
H1233 C1208 0.950 . S
H1234 C1210 0.950 . S
H1235 C1211 0.949 . S
H1236 C1213 0.950 . S
H1237 C1215 0.950 . S
C1238 C1239 1.349 . S
C1238 C1240 1.327 . S
C1238 H1263 0.950 . S
C1239 C1238 1.349 . S
C1239 C1255 1.349 . S
C1240 C1238 1.327 . S
C1240 C1259 1.429 . S
C1240 H1264 0.950 . S
C1241 C1258 1.574 . S
C1241 C1260 1.368 . S
C1241 H1265 0.949 . S
H1242 C1246 0.949 . S
C1243 C1244 1.349 . S
C1243 C1245 1.327 . S
C1243 H1266 0.950 . S
C1244 C1243 1.349 . S
C1244 C1256 1.349 . S
C1245 C1243 1.327 . S
C1245 C1261 1.429 . S
C1245 H1267 0.950 . S
C1246 H1242 0.949 . S
C1246 C1254 1.574 . S
C1246 C1262 1.368 . S
H1247 C1255 0.950 . S
H1248 C1253 0.950 . S
H1249 C1254 0.949 . S
H1250 C1256 0.950 . S
H1251 C1257 0.950 . S
H1252 C1258 0.949 . S
C1253 H1248 0.950 . S
C1253 C1255 1.327 . S
C1253 C1259 1.429 . S
C1254 C1246 1.574 . S
C1254 H1249 0.949 . S
C1254 C1260 1.368 . S
C1255 C1239 1.349 . S
C1255 H1247 0.950 . S
C1255 C1253 1.327 . S
C1256 C1244 1.349 . S
C1256 H1250 0.950 . S
C1256 C1257 1.327 . S
C1257 H1251 0.950 . S
C1257 C1256 1.327 . S
C1257 C1261 1.429 . S
C1258 C1241 1.574 . S
C1258 H1252 0.949 . S
C1258 C1262 1.368 . S
C1259 C1240 1.429 . S
C1259 C1253 1.429 . S
C1259 C1260 1.523 . S
C1260 C1241 1.368 . S
C1260 C1254 1.368 . S
C1260 C1259 1.523 . S
C1261 C1245 1.429 . S
C1261 C1257 1.429 . S
C1261 C1262 1.523 . S
C1262 C1246 1.368 . S
C1262 C1258 1.368 . S
C1262 C1261 1.523 . S
H1263 C1238 0.950 . S
H1264 C1240 0.950 . S
H1265 C1241 0.949 . S
H1266 C1243 0.950 . S
H1267 C1245 0.950 . S
C1268 C1269 1.349 . S
C1268 C1270 1.327 . S
C1268 H1293 0.950 . S
C1269 C1268 1.349 . S
C1269 C1285 1.349 . S
C1270 C1268 1.327 . S
C1270 C1289 1.429 . S
C1270 H1294 0.950 . S
C1271 C1288 1.574 . S
C1271 C1290 1.368 . S
C1271 H1295 0.949 . S
H1272 C1276 0.949 . S
C1273 C1274 1.349 . S
C1273 C1275 1.327 . S
C1273 H1296 0.950 . S
C1274 C1273 1.349 . S
C1274 C1286 1.349 . S
C1275 C1273 1.327 . S
C1275 C1291 1.429 . S
C1275 H1297 0.950 . S
C1276 H1272 0.949 . S
C1276 C1284 1.574 . S
C1276 C1292 1.368 . S
H1277 C1285 0.950 . S
H1278 C1283 0.950 . S
H1279 C1284 0.949 . S
H1280 C1286 0.950 . S
H1281 C1287 0.950 . S
H1282 C1288 0.949 . S
C1283 H1278 0.950 . S
C1283 C1285 1.327 . S
C1283 C1289 1.429 . S
C1284 C1276 1.574 . S
C1284 H1279 0.949 . S
C1284 C1290 1.368 . S
C1285 C1269 1.349 . S
C1285 H1277 0.950 . S
C1285 C1283 1.327 . S
C1286 C1274 1.349 . S
C1286 H1280 0.950 . S
C1286 C1287 1.327 . S
C1287 H1281 0.950 . S
C1287 C1286 1.327 . S
C1287 C1291 1.429 . S
C1288 C1271 1.574 . S
C1288 H1282 0.949 . S
C1288 C1292 1.368 . S
C1289 C1270 1.429 . S
C1289 C1283 1.429 . S
C1289 C1290 1.523 . S
C1290 C1271 1.368 . S
C1290 C1284 1.368 . S
C1290 C1289 1.523 . S
C1291 C1275 1.429 . S
C1291 C1287 1.429 . S
C1291 C1292 1.523 . S
C1292 C1276 1.368 . S
C1292 C1288 1.368 . S
C1292 C1291 1.523 . S
H1293 C1268 0.950 . S
H1294 C1270 0.950 . S
H1295 C1271 0.949 . S
H1296 C1273 0.950 . S
H1297 C1275 0.950 . S
C1298 C1299 1.349 . S
C1298 C1300 1.327 . S
C1298 H1323 0.950 . S
C1299 C1298 1.349 . S
C1299 C1315 1.349 . S
C1300 C1298 1.327 . S
C1300 C1319 1.429 . S
C1300 H1324 0.950 . S
C1301 C1318 1.574 . S
C1301 C1320 1.368 . S
C1301 H1325 0.949 . S
H1302 C1306 0.949 . S
C1303 C1304 1.349 . S
C1303 C1305 1.327 . S
C1303 H1326 0.950 . S
C1304 C1303 1.349 . S
C1304 C1316 1.349 . S
C1305 C1303 1.327 . S
C1305 C1321 1.429 . S
C1305 H1327 0.950 . S
C1306 H1302 0.949 . S
C1306 C1314 1.574 . S
C1306 C1322 1.368 . S
H1307 C1315 0.950 . S
H1308 C1313 0.950 . S
H1309 C1314 0.949 . S
H1310 C1316 0.950 . S
H1311 C1317 0.950 . S
H1312 C1318 0.949 . S
C1313 H1308 0.950 . S
C1313 C1315 1.327 . S
C1313 C1319 1.429 . S
C1314 C1306 1.574 . S
C1314 H1309 0.949 . S
C1314 C1320 1.368 . S
C1315 C1299 1.349 . S
C1315 H1307 0.950 . S
C1315 C1313 1.327 . S
C1316 C1304 1.349 . S
C1316 H1310 0.950 . S
C1316 C1317 1.327 . S
C1317 H1311 0.950 . S
C1317 C1316 1.327 . S
C1317 C1321 1.429 . S
C1318 C1301 1.574 . S
C1318 H1312 0.949 . S
C1318 C1322 1.368 . S
C1319 C1300 1.429 . S
C1319 C1313 1.429 . S
C1319 C1320 1.523 . S
C1320 C1301 1.368 . S
C1320 C1314 1.368 . S
C1320 C1319 1.523 . S
C1321 C1305 1.429 . S
C1321 C1317 1.429 . S
C1321 C1322 1.523 . S
C1322 C1306 1.368 . S
C1322 C1318 1.368 . S
C1322 C1321 1.523 . S
H1323 C1298 0.950 . S
H1324 C1300 0.950 . S
H1325 C1301 0.949 . S
H1326 C1303 0.950 . S
H1327 C1305 0.950 . S
C1328 C1329 1.349 . S
C1328 C1330 1.327 . S
C1328 H1353 0.950 . S
C1329 C1328 1.349 . S
C1329 C1345 1.349 . S
C1330 C1328 1.327 . S
C1330 C1349 1.429 . S
C1330 H1354 0.950 . S
C1331 C1348 1.574 . S
C1331 C1350 1.368 . S
C1331 H1355 0.949 . S
H1332 C1336 0.949 . S
C1333 C1334 1.349 . S
C1333 C1335 1.327 . S
C1333 H1356 0.950 . S
C1334 C1333 1.349 . S
C1334 C1346 1.349 . S
C1335 C1333 1.327 . S
C1335 C1351 1.429 . S
C1335 H1357 0.950 . S
C1336 H1332 0.949 . S
C1336 C1344 1.574 . S
C1336 C1352 1.368 . S
H1337 C1345 0.950 . S
H1338 C1343 0.950 . S
H1339 C1344 0.949 . S
H1340 C1346 0.950 . S
H1341 C1347 0.950 . S
H1342 C1348 0.949 . S
C1343 H1338 0.950 . S
C1343 C1345 1.327 . S
C1343 C1349 1.429 . S
C1344 C1336 1.574 . S
C1344 H1339 0.949 . S
C1344 C1350 1.368 . S
C1345 C1329 1.349 . S
C1345 H1337 0.950 . S
C1345 C1343 1.327 . S
C1346 C1334 1.349 . S
C1346 H1340 0.950 . S
C1346 C1347 1.327 . S
C1347 H1341 0.950 . S
C1347 C1346 1.327 . S
C1347 C1351 1.429 . S
C1348 C1331 1.574 . S
C1348 H1342 0.949 . S
C1348 C1352 1.368 . S
C1349 C1330 1.429 . S
C1349 C1343 1.429 . S
C1349 C1350 1.523 . S
C1350 C1331 1.368 . S
C1350 C1344 1.368 . S
C1350 C1349 1.523 . S
C1351 C1335 1.429 . S
C1351 C1347 1.429 . S
C1351 C1352 1.523 . S
C1352 C1336 1.368 . S
C1352 C1348 1.368 . S
C1352 C1351 1.523 . S
H1353 C1328 0.950 . S
H1354 C1330 0.950 . S
H1355 C1331 0.949 . S
H1356 C1333 0.950 . S
H1357 C1335 0.950 . S
C644 C342 1.539 . S
C639 C15 1.541 . S
C674 C411 1.538 . S
C669 C55 1.545 . S
C704 C349 1.575 . S
C699 C101 1.560 . S
C734 C412 1.587 . S
C729 C141 1.583 . S
C764 C465 1.517 . S
C759 C2 1.495 . S
C794 C501 1.519 . S
C789 C61 1.501 . S
C819 C95 1.605 . S
C824 C561 1.600 . S
C854 C624 1.516 . S
C849 C135 1.516 . S
C884 C464 1.501 . S
C879 C42 1.483 . S
C909 C82 1.512 . S
C914 C508 1.536 . S
C944 C554 1.595 . S
C939 C122 1.597 . S
C974 C623 1.531 . S
C969 C21 1.512 . S
C999 C162 1.582 . S
C1004 C402 1.585 . S
C1034 C359 1.566 . S
C1029 C221 1.565 . S
C1059 C255 1.551 . S
C1064 C395 1.543 . S
C1089 C282 1.515 . S
C1094 C358 1.529 . S
C1124 C570 1.603 . S
C1119 C181 1.607 . S
C1154 C614 1.528 . S
C1149 C202 1.521 . S
C1184 C448 1.510 . S
C1179 C242 1.505 . S
C1209 C301 1.509 . S
C1214 C517 1.527 . S
C1244 C571 1.591 . S
C1239 C215 1.599 . S
C1274 C607 1.523 . S
C1269 C261 1.518 . S
C1304 C455 1.510 . S
C1299 C295 1.510 . S
C1329 C175 1.523 . S
C1334 C518 1.522 . S
