# Generated by pormake.
# Topology anh, (6,3)-cn, num edge types: 1
# Building blocks:
#     Node 0, Type 0, BuildingBlock: BETDAH_clean_sbu_0, # of connection points: 6
#     Node 1, Type 0, BuildingBlock: BETDAH_clean_sbu_0, # of connection points: 6
#     Node 2, Type 0, BuildingBlock: BETDAH_clean_sbu_0, # of connection points: 6
#     Node 3, Type 1, BuildingBlock: OLANEW_clean_sbu_2, # of connection points: 3
#     Node 4, Type 1, BuildingBlock: OLANEW_clean_sbu_2, # of connection points: 3
#     Node 5, Type 1, BuildingBlock: OLANEW_clean_sbu_2, # of connection points: 3
#     Node 6, Type 1, BuildingBlock: OLANEW_clean_sbu_2, # of connection points: 3
#     Node 7, Type 1, BuildingBlock: OLANEW_clean_sbu_2, # of connection points: 3
#     Node 8, Type 1, BuildingBlock: OLANEW_clean_sbu_2, # of connection points: 3
#     Edge 9, Type (0, 1), BuildingBlock: OJICUG_clean_linker_0, # of connection points: 2
#     Edge 10, Type (0, 1), BuildingBlock: OJICUG_clean_linker_0, # of connection points: 2
#     Edge 11, Type (0, 1), BuildingBlock: OJICUG_clean_linker_0, # of connection points: 2
#     Edge 12, Type (0, 1), BuildingBlock: OJICUG_clean_linker_0, # of connection points: 2
#     Edge 13, Type (0, 1), BuildingBlock: OJICUG_clean_linker_0, # of connection points: 2
#     Edge 14, Type (0, 1), BuildingBlock: OJICUG_clean_linker_0, # of connection points: 2
#     Edge 15, Type (0, 1), BuildingBlock: OJICUG_clean_linker_0, # of connection points: 2
#     Edge 16, Type (0, 1), BuildingBlock: OJICUG_clean_linker_0, # of connection points: 2
#     Edge 17, Type (0, 1), BuildingBlock: OJICUG_clean_linker_0, # of connection points: 2
#     Edge 18, Type (0, 1), BuildingBlock: OJICUG_clean_linker_0, # of connection points: 2
#     Edge 19, Type (0, 1), BuildingBlock: OJICUG_clean_linker_0, # of connection points: 2
#     Edge 20, Type (0, 1), BuildingBlock: OJICUG_clean_linker_0, # of connection points: 2
#     Edge 21, Type (0, 1), BuildingBlock: OJICUG_clean_linker_0, # of connection points: 2
#     Edge 22, Type (0, 1), BuildingBlock: OJICUG_clean_linker_0, # of connection points: 2
#     Edge 23, Type (0, 1), BuildingBlock: OJICUG_clean_linker_0, # of connection points: 2
#     Edge 24, Type (0, 1), BuildingBlock: OJICUG_clean_linker_0, # of connection points: 2
#     Edge 25, Type (0, 1), BuildingBlock: OJICUG_clean_linker_0, # of connection points: 2
#     Edge 26, Type (0, 1), BuildingBlock: OJICUG_clean_linker_0, # of connection points: 2
# Relax obj value: 0.195
# Max RMSD: 0.197
# Mean RMSD: 0.124
data_MOF--net-anh--node1-BETDAH_clean_sbu_0--node2-OLANEW_clean_sbu_2--edge1-OJICUG_clean_linker_0
_symmetry_space_group_name_H-M    P1
_symmetry_Int_Tables_number       1
_symmetry_cell_setting            triclinic
loop_
_symmetry_equiv_pos_as_xyz
'x, y, z'
_cell_length_a     29.054319
_cell_length_b     33.24174
_cell_length_c     36.724648
_cell_angle_alpha  91.813942
_cell_angle_beta   90.011156
_cell_angle_gamma 132.3671
loop_
_atom_site_label
_atom_site_type_symbol
_atom_site_fract_x
_atom_site_fract_y
_atom_site_fract_z
_atom_type_partial_charge
Ho0 Ho 0.08002 0.52076 0.13288 0.0
Ho1 Ho 1.00315 0.54873 0.1573 0.0
C2 C 0.14657 0.64878 0.14408 0.0
C3 C 0.15008 0.51249 0.09736 0.0
C4 C 0.21609 0.53888 0.09798 0.0
C5 C 0.25272 0.56674 0.06763 0.0
C6 C 0.31297 0.58635 0.06609 0.0
C7 C 0.33743 0.57782 0.09473 0.0
C8 C 0.30158 0.55219 0.12582 0.0
C9 C 0.24179 0.53314 0.12749 0.0
C10 C 0.07548 0.52988 0.20545 0.0
C11 C 0.93721 0.42154 0.14917 0.0
C12 C 0.93083 0.55451 0.19249 0.0
C13 C 0.863 0.51641 0.19506 0.0
C14 C 0.83571 0.52345 0.22284 0.0
C15 C 0.77082 0.48739 0.22473 0.0
C16 C 0.73249 0.44385 0.1988 0.0
C17 C 0.76051 0.43644 0.17153 0.0
C18 C 0.82514 0.47229 0.16977 0.0
C19 C 1.00483 0.53429 0.08438 0.0
O20 O 0.14925 0.61326 0.12964 0.0
O21 O 0.09648 0.6329 0.16045 0.0
O22 O 0.11711 0.48298 0.12509 0.0
O23 O 0.1376 0.54148 0.08645 0.0
O24 O 0.08068 0.49776 0.18961 0.0
O25 O 0.07955 0.5594 0.18247 0.0
O26 O 0.93701 0.45787 0.16477 0.0
O27 O 0.98464 0.43658 0.12973 0.0
O28 O 0.95248 0.5749 0.16047 0.0
O29 O 0.95698 0.53846 0.20699 0.0
O30 O 1.00091 0.56808 0.09863 0.0
O31 O 1.00233 0.50786 0.10908 0.0
H32 H 0.23402 0.57184 0.04457 0.0
H33 H 0.33954 0.6066 0.04196 0.0
H34 H 0.31809 0.54391 0.14819 0.0
H35 H 0.21493 0.51199 0.15138 0.0
H36 H 0.86453 0.55705 0.24281 0.0
H37 H 0.75069 0.49385 0.24627 0.0
H38 H 0.7326 0.40403 0.15072 0.0
H39 H 0.84563 0.46614 0.14825 0.0
Ho40 Ho 0.60043 0.03544 0.49699 0.0
Ho41 Ho 0.52896 0.07012 0.48634 0.0
C42 C 0.45054 0.94422 0.47961 0.0
C43 C 0.64304 0.99199 0.51826 0.0
C44 C 0.62032 0.93757 0.52353 0.0
C45 C 0.5571 0.89253 0.52892 0.0
C46 C 0.53697 0.84141 0.53468 0.0
C47 C 0.57982 0.83456 0.53523 0.0
C48 C 0.643 0.87985 0.52929 0.0
C49 C 0.66296 0.93081 0.52346 0.0
C50 C 0.59741 0.05955 0.42803 0.0
C51 C 0.68048 0.16243 0.49909 0.0
C52 C 0.48866 0.1168 0.4687 0.0
C53 C 0.50661 0.16887 0.47936 0.0
C54 C 0.47708 0.18388 0.4626 0.0
C55 C 0.49196 0.23224 0.47371 0.0
C56 C 0.53663 0.26642 0.5019 0.0
C57 C 0.56679 0.2514 0.51822 0.0
C58 C 0.55194 0.20311 0.50702 0.0
C59 C 0.53317 0.04606 0.55501 0.0
O60 O 0.49897 0.95552 0.49609 0.0
O61 O 0.45478 0.98332 0.46694 0.0
O62 O 0.64449 0.00423 0.48459 0.0
O63 O 0.62248 0.00806 0.5405 0.0
O64 O 0.64567 0.07159 0.44356 0.0
O65 O 0.55231 0.03343 0.44927 0.0
O66 O 0.62917 0.15041 0.48744 0.0
O67 O 0.67991 0.12433 0.50912 0.0
O68 O 0.46506 0.08194 0.49446 0.0
O69 O 0.52904 0.12001 0.44971 0.0
O70 O 0.48454 0.03376 0.54007 0.0
O71 O 0.57788 0.07283 0.53369 0.0
H72 H 0.52349 0.89701 0.52903 0.0
H73 H 0.4879 0.8073 0.53874 0.0
H74 H 0.67741 0.87631 0.5301 0.0
H75 H 0.71198 0.96521 0.51938 0.0
H76 H 0.4421 0.15797 0.44112 0.0
H77 H 0.46852 0.24288 0.46014 0.0
H78 H 0.60081 0.27626 0.54027 0.0
H79 H 0.57513 0.19204 0.52034 0.0
Ho80 Ho 0.54733 0.54728 0.88102 0.0
Ho81 Ho 0.45615 0.42263 0.88132 0.0
C82 C 0.39592 0.47472 0.88179 0.0
C83 C 0.60807 0.64717 0.86463 0.0
C84 C 0.59419 0.68086 0.85522 0.0
C85 C 0.53278 0.65734 0.84868 0.0
C86 C 0.52001 0.68974 0.84011 0.0
C87 C 0.56873 0.74647 0.83704 0.0
C88 C 0.6305 0.76963 0.84305 0.0
C89 C 0.64297 0.73717 0.85227 0.0
C90 C 0.51947 0.50336 0.94685 0.0
C91 C 0.60877 0.4966 0.88469 0.0
C92 C 0.40316 0.32377 0.89426 0.0
C93 C 0.42429 0.29468 0.88713 0.0
C94 C 0.39644 0.24587 0.90398 0.0
C95 C 0.41799 0.21923 0.89752 0.0
C96 C 0.46805 0.2413 0.87426 0.0
C97 C 0.4957 0.29036 0.85753 0.0
C98 C 0.47406 0.31671 0.8639 0.0
C99 C 0.48281 0.4644 0.81498 0.0
O100 O 0.45203 0.52043 0.87276 0.0
O101 O 0.38674 0.43159 0.89126 0.0
O102 O 0.59725 0.63103 0.8981 0.0
O103 O 0.58953 0.60849 0.84066 0.0
O104 O 0.57466 0.54869 0.93923 0.0
O105 O 0.48255 0.48605 0.92022 0.0
O106 O 0.55156 0.44909 0.88942 0.0
O107 O 0.61884 0.5406 0.87722 0.0
O108 O 0.39029 0.3369 0.86529 0.0
O109 O 0.43641 0.36393 0.91877 0.0
O110 O 0.4286 0.4191 0.82346 0.0
O111 O 0.52111 0.48344 0.84135 0.0
H112 H 0.49479 0.61387 0.85008 0.0
H113 H 0.47179 0.67017 0.83626 0.0
H114 H 0.66949 0.81278 0.8402 0.0
H115 H 0.69085 0.75603 0.85683 0.0
H116 H 0.35824 0.22849 0.9222 0.0
H117 H 0.396 0.18176 0.91103 0.0
H118 H 0.53353 0.30806 0.83897 0.0
H119 H 0.49617 0.35434 0.85056 0.0
O120 O 0.61729 0.07963 0.25165 0.0
Cd121 Cd 0.62209 0.08483 0.1853 0.0
O122 O 0.51939 0.00284 0.25689 0.0
Cd123 Cd 0.49278 0.97126 0.20023 0.0
O124 O 0.41991 0.8938 0.16986 0.0
C125 C 0.36535 0.87652 0.17034 0.0
O126 O 0.35782 0.90785 0.18588 0.0
C127 C 0.57119 0.04494 0.27134 0.0
C128 C 0.72287 0.19311 0.16834 0.0
O129 O 0.66905 0.17644 0.17442 0.0
O130 O 0.72889 0.15835 0.16945 0.0
O131 O 0.59328 0.54074 0.65241 0.0
Cd132 Cd 0.61313 0.55118 0.58706 0.0
O133 O 0.50432 0.52042 0.64485 0.0
Cd134 Cd 0.52538 0.55489 0.59126 0.0
O135 O 0.54179 0.62038 0.5631 0.0
C136 C 0.51505 0.63547 0.57679 0.0
O137 O 0.4789 0.60956 0.60464 0.0
C138 C 0.54271 0.52442 0.66526 0.0
C139 C 0.58939 0.46012 0.55664 0.0
O140 O 0.64402 0.50232 0.5687 0.0
O141 O 0.54617 0.4612 0.55857 0.0
O142 O 0.05485 0.48696 0.92558 0.0
Cd143 Cd 0.09364 0.4706 0.87148 0.0
O144 O 0.98281 0.48786 0.90655 0.0
Cd145 Cd 0.90571 0.4883 0.91113 0.0
O146 O 0.82146 0.4791 0.90746 0.0
C147 C 0.82526 0.51774 0.8976 0.0
O148 O 0.88034 0.56433 0.8899 0.0
C149 C 0.01538 0.49173 0.93235 0.0
C150 C 0.19217 0.47164 0.88087 0.0
O151 O 0.20311 0.51539 0.87582 0.0
O152 O 0.13492 0.42741 0.88286 0.0
O153 O 0.09174 0.59157 0.37804 0.0
Cd154 Cd 0.10292 0.61351 0.44352 0.0
O155 O 0.0261 0.50157 0.3785 0.0
Cd156 Cd 0.99703 0.48472 0.43515 0.0
O157 O 0.91646 0.41587 0.46464 0.0
C158 C 0.91508 0.37899 0.47517 0.0
O159 O 0.96474 0.38559 0.47113 0.0
C160 C 0.06108 0.54548 0.36133 0.0
C161 C 0.21597 0.72074 0.45806 0.0
O162 O 0.21268 0.68043 0.45994 0.0
O163 O 0.16583 0.71028 0.44991 0.0
O164 O 0.49757 0.96356 0.72003 0.0
Cd165 Cd 0.48676 0.94405 0.78489 0.0
O166 O 0.56938 0.05303 0.72764 0.0
Cd167 Cd 0.55103 0.05414 0.78526 0.0
O168 O 0.51871 0.08501 0.82038 0.0
C169 C 0.55641 0.13599 0.82795 0.0
O170 O 0.61406 0.16676 0.81712 0.0
C171 C 0.53658 0.01042 0.70672 0.0
C172 C 0.5146 0.8804 0.80114 0.0
O173 O 0.46058 0.85852 0.78867 0.0
O174 O 0.55568 0.9324 0.8059 0.0
O175 O 0.40228 0.32806 0.07324 0.0
Cd176 Cd 0.36671 0.27697 0.12881 0.0
O177 O 0.47607 0.40276 0.10578 0.0
Cd178 Cd 0.54073 0.49161 0.1131 0.0
O179 O 0.53016 0.55062 0.1161 0.0
C180 C 0.52234 0.56431 0.08646 0.0
O181 O 0.53059 0.54921 0.05558 0.0
C182 C 0.44873 0.37926 0.0751 0.0
C183 C 0.47362 0.319 0.16765 0.0
O184 O 0.44554 0.27686 0.14611 0.0
O185 O 0.44907 0.3394 0.17226 0.0
C186 C 0.40876 0.57691 0.05708 0.0
C187 C 0.39592 0.58872 0.09065 0.0
H188 H 0.46014 0.56122 0.02928 0.0
C189 C 0.43432 0.60314 0.12124 0.0
H190 H 0.38021 0.56538 0.03292 0.0
C191 C 0.47952 0.59959 0.11929 0.0
C192 C 0.48789 0.58248 0.08655 0.0
H193 H 0.42704 0.61409 0.14727 0.0
H194 H 0.50527 0.60711 0.14392 0.0
C195 C 0.45461 0.57424 0.05501 0.0
C196 C 0.74252 0.26151 0.48914 0.0
C197 C 0.74077 0.2197 0.49823 0.0
H198 H 0.79887 0.34477 0.4752 0.0
C199 C 0.79738 0.23244 0.50342 0.0
H200 H 0.69985 0.25329 0.48519 0.0
C201 C 0.8542 0.28492 0.49757 0.0
C202 C 0.85579 0.32597 0.48657 0.0
H203 H 0.79786 0.20135 0.51054 0.0
H204 H 0.89677 0.29274 0.50044 0.0
C205 C 0.7994 0.31409 0.48348 0.0
C206 C 0.59281 0.83513 0.84181 0.0
C207 C 0.5552 0.78115 0.82754 0.0
H208 H 0.6099 0.90877 0.84446 0.0
C209 C 0.50437 0.76058 0.80419 0.0
H210 H 0.63163 0.85234 0.86041 0.0
C211 C 0.49108 0.79268 0.79581 0.0
C212 C 0.52889 0.84653 0.80998 0.0
H213 H 0.475 0.71979 0.79193 0.0
H214 H 0.45153 0.77545 0.77782 0.0
C215 C 0.58014 0.86753 0.83287 0.0
C216 C 0.62418 0.35321 0.1874 0.0
C217 C 0.66385 0.4088 0.19798 0.0
H218 H 0.53234 0.28083 0.16977 0.0
C219 C 0.63794 0.43195 0.20386 0.0
H220 H 0.64244 0.3338 0.18351 0.0
C221 C 0.57466 0.40132 0.19659 0.0
C222 C 0.53624 0.34713 0.18299 0.0
H223 H 0.66714 0.4747 0.21178 0.0
H224 H 0.55687 0.42125 0.19935 0.0
C225 C 0.56104 0.32274 0.17977 0.0
C226 C 0.38655 0.84318 0.48166 0.0
C227 C 0.3907 0.88684 0.47456 0.0
H228 H 0.32827 0.75646 0.48191 0.0
C229 C 0.33674 0.87527 0.46249 0.0
H230 H 0.42717 0.85058 0.49088 0.0
C231 C 0.28008 0.82145 0.45758 0.0
C232 C 0.27596 0.77775 0.46434 0.0
H233 H 0.33806 0.90783 0.4569 0.0
H234 H 0.23958 0.81415 0.44816 0.0
C235 C 0.32984 0.7892 0.47646 0.0
C236 C 0.44878 0.15626 0.86013 0.0
C237 C 0.49086 0.21311 0.86651 0.0
H238 H 0.43637 0.08712 0.84316 0.0
C239 C 0.55498 0.24337 0.86334 0.0
H240 H 0.39908 0.13175 0.86213 0.0
C241 C 0.57631 0.21789 0.85227 0.0
C242 C 0.53409 0.16145 0.84421 0.0
H243 H 0.58879 0.28707 0.8688 0.0
H244 H 0.6259 0.24279 0.84912 0.0
C245 C 0.47018 0.13069 0.84913 0.0
C246 C 0.58519 0.76244 0.52568 0.0
C247 C 0.55953 0.7812 0.54364 0.0
H248 H 0.59107 0.70156 0.5218 0.0
C249 C 0.51648 0.74985 0.57107 0.0
H250 H 0.61778 0.78518 0.50404 0.0
C251 C 0.50086 0.70181 0.58103 0.0
C252 C 0.52799 0.68395 0.56388 0.0
H253 H 0.49636 0.76334 0.58578 0.0
H254 H 0.4686 0.6794 0.60286 0.0
C255 C 0.56961 0.71434 0.5357 0.0
C256 C 0.72406 0.55071 0.882 0.0
C257 C 0.66343 0.50089 0.88776 0.0
H258 H 0.82151 0.59494 0.88056 0.0
C259 C 0.65627 0.45604 0.89683 0.0
H260 H 0.73186 0.58626 0.87499 0.0
C261 C 0.70837 0.46112 0.90017 0.0
C262 C 0.76899 0.51115 0.89443 0.0
H263 H 0.61043 0.41696 0.90149 0.0
H264 H 0.70109 0.42582 0.90718 0.0
C265 C 0.77583 0.55572 0.88524 0.0
C266 C 0.19727 0.74563 0.15544 0.0
C267 C 0.20284 0.70788 0.14565 0.0
H268 H 0.2438 0.82816 0.17027 0.0
C269 C 0.26263 0.72704 0.14033 0.0
H270 H 0.15194 0.73246 0.15933 0.0
C271 C 0.3158 0.7824 0.14678 0.0
C272 C 0.31005 0.81957 0.15845 0.0
H273 H 0.26852 0.69902 0.13273 0.0
H274 H 0.36133 0.79565 0.14391 0.0
C275 C 0.25011 0.80071 0.16166 0.0
C276 C 0.61183 0.3646 0.52492 0.0
C277 C 0.55061 0.31675 0.51484 0.0
H278 H 0.67213 0.44726 0.54584 0.0
C279 C 0.50254 0.31702 0.51796 0.0
H280 H 0.65015 0.36618 0.5224 0.0
C281 C 0.51525 0.3637 0.53109 0.0
C282 C 0.57632 0.41125 0.54157 0.0
H283 H 0.45472 0.28074 0.51099 0.0
H284 H 0.47697 0.36221 0.53349 0.0
C285 C 0.62451 0.41124 0.53817 0.0
C286 C 0.35512 0.52187 0.88072 0.0
C287 C 0.3433 0.47337 0.88268 0.0
H288 H 0.31775 0.55955 0.87878 0.0
C289 C 0.28098 0.42417 0.88555 0.0
H290 H 0.40224 0.56072 0.87942 0.0
C291 C 0.232 0.42352 0.88557 0.0
C292 C 0.24401 0.47208 0.88285 0.0
H293 H 0.26987 0.38598 0.8873 0.0
H294 H 0.18461 0.38482 0.88728 0.0
C295 C 0.30638 0.52126 0.8807 0.0
C296 C 0.88488 0.3231 0.14444 0.0
C297 C 0.88176 0.36283 0.15247 0.0
H298 H 0.83729 0.23832 0.14339 0.0
C299 C 0.82534 0.34602 0.16454 0.0
H300 H 0.92769 0.33471 0.13517 0.0
C301 C 0.77341 0.29083 0.16881 0.0
C302 C 0.77691 0.25119 0.16162 0.0
H303 H 0.82119 0.3755 0.17082 0.0
H304 H 0.73086 0.27939 0.17847 0.0
C305 C 0.83313 0.26788 0.14923 0.0
C306 C 0.99641 0.54634 0.01797 0.0
C307 C 1.00485 0.52283 0.04517 0.0
H308 H 0.99207 0.55424 0.96041 0.0
C309 C 1.01326 0.48719 0.03479 0.0
H310 H 0.98953 0.57377 0.02528 0.0
C311 C 0.01531 0.47656 0.99813 0.0
C312 C 1.00759 0.50031 0.97079 0.0
H313 H 0.01919 0.46794 0.05508 0.0
H314 H 0.0232 0.44974 0.99114 0.0
C315 C 0.99726 0.53478 0.98095 0.0
C316 C 0.53148 0.02672 0.37128 0.0
C317 C 0.5908 0.06006 0.38829 0.0
H318 H 0.47875 0.99542 0.3209 0.0
C319 C 0.64377 0.09108 0.36674 0.0
H320 H 0.48985 0.00239 0.38727 0.0
C321 C 0.63752 0.08762 0.32873 0.0
C322 C 0.57811 0.05238 0.31157 0.0
H323 H 0.69005 0.11726 0.37925 0.0
H324 H 0.6792 0.11119 0.31281 0.0
C325 C 0.52517 0.02257 0.33328 0.0
C326 C 0.45226 0.4634 0.75159 0.0
C327 C 0.49946 0.48254 0.77737 0.0
H328 H 0.42901 0.46197 0.69604 0.0
C329 C 0.56145 0.51645 0.76636 0.0
H330 H 0.40409 0.43725 0.75947 0.0
C331 C 0.57569 0.5298 0.7298 0.0
C332 C 0.52828 0.51033 0.7039 0.0
H333 H 0.59863 0.53157 0.78578 0.0
H334 H 0.62376 0.55555 0.72186 0.0
C335 C 0.46656 0.47754 0.7153 0.0
C336 C 0.48238 0.98842 0.60876 0.0
C337 C 0.53645 0.03421 0.5927 0.0
H338 H 0.44074 0.94401 0.65732 0.0
C339 C 0.59229 0.06965 0.61349 0.0
H340 H 0.4389 0.96034 0.59311 0.0
C341 C 0.59305 0.06113 0.6505 0.0
C342 C 0.53847 0.016 0.66687 0.0
H343 H 0.63457 0.10521 0.60157 0.0
H344 H 0.63596 0.09031 0.66649 0.0
C345 C 0.48359 0.97891 0.64538 0.0
C346 C 0.43936 0.42753 0.98617 0.0
C347 C 0.50239 0.47274 0.98008 0.0
H348 H 0.37314 0.36236 0.02095 0.0
C349 C 0.54802 0.48683 0.00528 0.0
H350 H 0.40321 0.41563 0.96707 0.0
C351 C 0.53062 0.45646 0.03634 0.0
C352 C 0.46746 0.41147 0.04248 0.0
H353 H 0.59695 0.52112 1.00095 0.0
H354 H 0.56658 0.46773 0.05532 0.0
C355 C 0.4221 0.39695 0.01692 0.0
C356 C 0.05449 0.49252 0.26695 0.0
C357 C 0.07178 0.5345 0.24514 0.0
H358 H 0.03702 0.4629 0.32069 0.0
C359 C 0.08583 0.58049 0.26164 0.0
H360 H 0.04324 0.45655 0.25483 0.0
C361 C 0.08341 0.58466 0.29954 0.0
C362 C 0.06555 0.54233 0.32138 0.0
H363 H 0.09933 0.61342 0.24533 0.0
H364 H 0.09462 0.62059 0.31167 0.0
C365 C 0.05082 0.49613 0.30462 0.0
loop_
_geom_bond_atom_site_label_1
_geom_bond_atom_site_label_2
_geom_bond_distance
_geom_bond_site_symmetry_2
_ccdc_geom_bond_type
Ho0 C3 2.811 . S
Ho0 O20 2.322 . S
Ho0 O22 2.378 . S
Ho0 O23 2.524 . S
Ho0 O24 2.381 . S
Ho0 O25 2.669 . S
Ho0 O27 2.346 1_455 S
Ho0 O31 2.305 . S
Ho1 C12 2.811 . S
Ho1 O21 2.346 1_655 S
Ho1 O25 2.305 1_655 S
Ho1 O26 2.322 . S
Ho1 O28 2.378 . S
Ho1 O29 2.524 . S
Ho1 O30 2.381 . S
Ho1 O31 2.669 1_655 S
C2 O20 1.259 . S
C2 O21 1.268 . S
C3 Ho0 2.811 . S
C3 C4 1.488 . S
C3 O22 1.215 . S
C3 O23 1.289 . S
C4 C3 1.488 . S
C4 C5 1.348 . S
C4 C9 1.413 . S
C5 C4 1.348 . S
C5 C6 1.442 . S
C5 H32 0.930 . S
C6 C5 1.442 . S
C6 C7 1.381 . S
C6 H33 0.931 . S
C7 C6 1.381 . S
C7 C8 1.321 . S
C8 C7 1.321 . S
C8 C9 1.403 . S
C8 H34 0.934 . S
C9 C4 1.413 . S
C9 C8 1.403 . S
C9 H35 0.930 . S
C10 O24 1.275 . S
C10 O25 1.256 . S
C11 O26 1.259 . S
C11 O27 1.268 . S
C12 Ho1 2.811 . S
C12 C13 1.488 . S
C12 O28 1.215 . S
C12 O29 1.289 . S
C13 C12 1.488 . S
C13 C14 1.348 . S
C13 C18 1.413 . S
C14 C13 1.348 . S
C14 C15 1.442 . S
C14 H36 0.930 . S
C15 C14 1.442 . S
C15 C16 1.381 . S
C15 H37 0.931 . S
C16 C15 1.381 . S
C16 C17 1.321 . S
C17 C16 1.321 . S
C17 C18 1.403 . S
C17 H38 0.934 . S
C18 C13 1.413 . S
C18 C17 1.403 . S
C18 H39 0.930 . S
C19 O30 1.275 1_455 S
C19 O31 1.256 . S
O20 Ho0 2.322 . S
O20 C2 1.259 . S
O21 Ho1 2.346 1_455 S
O21 C2 1.268 . S
O22 Ho0 2.378 . S
O22 C3 1.215 . S
O23 Ho0 2.524 . S
O23 C3 1.289 . S
O24 Ho0 2.381 . S
O24 C10 1.275 . S
O25 Ho0 2.669 . S
O25 Ho1 2.305 1_455 S
O25 C10 1.256 . S
O26 Ho1 2.322 . S
O26 C11 1.259 . S
O27 Ho0 2.346 1_655 S
O27 C11 1.268 . S
O28 Ho1 2.378 . S
O28 C12 1.215 . S
O29 Ho1 2.524 . S
O29 C12 1.289 . S
O30 Ho1 2.381 . S
O30 C19 1.275 1_655 S
O31 Ho0 2.305 . S
O31 Ho1 2.669 1_455 S
O31 C19 1.256 . S
H32 C5 0.930 . S
H33 C6 0.931 . S
H34 C8 0.934 . S
H35 C9 0.930 . S
H36 C14 0.930 . S
H37 C15 0.931 . S
H38 C17 0.934 . S
H39 C18 0.930 . S
Ho40 C43 2.811 . S
Ho40 O60 2.322 . S
Ho40 O62 2.378 . S
Ho40 O63 2.524 . S
Ho40 O64 2.381 . S
Ho40 O65 2.669 1_565 S
Ho40 O67 2.346 1_565 S
Ho40 O71 2.305 1_565 S
Ho41 C52 2.811 . S
Ho41 O61 2.346 1_545 S
Ho41 O65 2.305 . S
Ho41 O66 2.322 . S
Ho41 O68 2.378 . S
Ho41 O69 2.524 . S
Ho41 O70 2.381 . S
Ho41 O71 2.669 . S
C42 O60 1.259 . S
C42 O61 1.268 . S
C43 Ho40 2.811 . S
C43 C44 1.488 . S
C43 O62 1.215 . S
C43 O63 1.289 . S
C44 C43 1.488 . S
C44 C45 1.348 . S
C44 C49 1.413 . S
C45 C44 1.348 . S
C45 C46 1.442 . S
C45 H72 0.930 . S
C46 C45 1.442 . S
C46 C47 1.381 . S
C46 H73 0.931 . S
C47 C46 1.381 . S
C47 C48 1.321 . S
C48 C47 1.321 . S
C48 C49 1.403 . S
C48 H74 0.934 . S
C49 C44 1.413 . S
C49 C48 1.403 . S
C49 H75 0.930 . S
C50 O64 1.275 1_545 S
C50 O65 1.256 . S
C51 O66 1.259 . S
C51 O67 1.268 . S
C52 Ho41 2.811 . S
C52 C53 1.488 . S
C52 O68 1.215 . S
C52 O69 1.289 . S
C53 C52 1.488 . S
C53 C54 1.348 . S
C53 C58 1.413 . S
C54 C53 1.348 . S
C54 C55 1.442 . S
C54 H76 0.930 . S
C55 C54 1.442 . S
C55 C56 1.381 . S
C55 H77 0.931 . S
C56 C55 1.381 . S
C56 C57 1.321 . S
C57 C56 1.321 . S
C57 C58 1.403 . S
C57 H78 0.934 . S
C58 C53 1.413 . S
C58 C57 1.403 . S
C58 H79 0.930 . S
C59 O70 1.275 . S
C59 O71 1.256 . S
O60 Ho40 2.322 . S
O60 C42 1.259 . S
O61 Ho41 2.346 1_565 S
O61 C42 1.268 . S
O62 Ho40 2.378 . S
O62 C43 1.215 . S
O63 Ho40 2.524 . S
O63 C43 1.289 . S
O64 Ho40 2.381 . S
O64 C50 1.275 1_565 S
O65 Ho40 2.669 1_545 S
O65 Ho41 2.305 . S
O65 C50 1.256 . S
O66 Ho41 2.322 . S
O66 C51 1.259 . S
O67 Ho40 2.346 1_545 S
O67 C51 1.268 . S
O68 Ho41 2.378 . S
O68 C52 1.215 . S
O69 Ho41 2.524 . S
O69 C52 1.289 . S
O70 Ho41 2.381 . S
O70 C59 1.275 . S
O71 Ho40 2.305 1_545 S
O71 Ho41 2.669 . S
O71 C59 1.256 . S
H72 C45 0.930 . S
H73 C46 0.931 . S
H74 C48 0.934 . S
H75 C49 0.930 . S
H76 C54 0.930 . S
H77 C55 0.931 . S
H78 C57 0.934 . S
H79 C58 0.930 . S
Ho80 C83 2.811 . S
Ho80 O100 2.322 . S
Ho80 O102 2.378 . S
Ho80 O103 2.524 . S
Ho80 O104 2.381 . S
Ho80 O105 2.669 . S
Ho80 O107 2.346 . S
Ho80 O111 2.305 . S
Ho81 C92 2.811 . S
Ho81 O101 2.346 . S
Ho81 O105 2.305 . S
Ho81 O106 2.322 . S
Ho81 O108 2.378 . S
Ho81 O109 2.524 . S
Ho81 O110 2.381 . S
Ho81 O111 2.669 . S
C82 O100 1.259 . S
C82 O101 1.268 . S
C83 Ho80 2.811 . S
C83 C84 1.488 . S
C83 O102 1.215 . S
C83 O103 1.289 . S
C84 C83 1.488 . S
C84 C85 1.348 . S
C84 C89 1.413 . S
C85 C84 1.348 . S
C85 C86 1.442 . S
C85 H112 0.930 . S
C86 C85 1.442 . S
C86 C87 1.381 . S
C86 H113 0.931 . S
C87 C86 1.381 . S
C87 C88 1.321 . S
C88 C87 1.321 . S
C88 C89 1.403 . S
C88 H114 0.934 . S
C89 C84 1.413 . S
C89 C88 1.403 . S
C89 H115 0.930 . S
C90 O104 1.275 . S
C90 O105 1.256 . S
C91 O106 1.259 . S
C91 O107 1.268 . S
C92 Ho81 2.811 . S
C92 C93 1.488 . S
C92 O108 1.215 . S
C92 O109 1.289 . S
C93 C92 1.488 . S
C93 C94 1.348 . S
C93 C98 1.413 . S
C94 C93 1.348 . S
C94 C95 1.442 . S
C94 H116 0.930 . S
C95 C94 1.442 . S
C95 C96 1.381 . S
C95 H117 0.931 . S
C96 C95 1.381 . S
C96 C97 1.321 . S
C97 C96 1.321 . S
C97 C98 1.403 . S
C97 H118 0.934 . S
C98 C93 1.413 . S
C98 C97 1.403 . S
C98 H119 0.930 . S
C99 O110 1.275 . S
C99 O111 1.256 . S
O100 Ho80 2.322 . S
O100 C82 1.259 . S
O101 Ho81 2.346 . S
O101 C82 1.268 . S
O102 Ho80 2.378 . S
O102 C83 1.215 . S
O103 Ho80 2.524 . S
O103 C83 1.289 . S
O104 Ho80 2.381 . S
O104 C90 1.275 . S
O105 Ho80 2.669 . S
O105 Ho81 2.305 . S
O105 C90 1.256 . S
O106 Ho81 2.322 . S
O106 C91 1.259 . S
O107 Ho80 2.346 . S
O107 C91 1.268 . S
O108 Ho81 2.378 . S
O108 C92 1.215 . S
O109 Ho81 2.524 . S
O109 C92 1.289 . S
O110 Ho81 2.381 . S
O110 C99 1.275 . S
O111 Ho80 2.305 . S
O111 Ho81 2.669 . S
O111 C99 1.256 . S
H112 C85 0.930 . S
H113 C86 0.931 . S
H114 C88 0.934 . S
H115 C89 0.930 . S
H116 C94 0.930 . S
H117 C95 0.931 . S
H118 C97 0.934 . S
H119 C98 0.930 . S
O120 Cd121 2.300 . S
O120 C127 1.275 . S
Cd121 O120 2.300 . S
Cd121 O129 2.381 . S
Cd121 O130 2.378 . S
O122 Cd123 2.385 . S
O122 C127 1.255 1_565 S
Cd123 O122 2.385 . S
Cd123 O124 2.317 . S
O124 Cd123 2.317 . S
O124 C125 1.232 . S
C125 O124 1.232 . S
C125 O126 1.218 . S
O126 C125 1.218 . S
C127 O120 1.275 . S
C127 O122 1.255 1_545 S
C128 O129 1.258 . S
C128 O130 1.256 . S
O129 Cd121 2.381 . S
O129 C128 1.258 . S
O130 Cd121 2.378 . S
O130 C128 1.256 . S
O131 Cd132 2.300 . S
O131 C138 1.275 . S
Cd132 O131 2.300 . S
Cd132 O140 2.381 . S
Cd132 O141 2.378 . S
O133 Cd134 2.385 . S
O133 C138 1.255 . S
Cd134 O133 2.385 . S
Cd134 O135 2.317 . S
O135 Cd134 2.317 . S
O135 C136 1.232 . S
C136 O135 1.232 . S
C136 O137 1.218 . S
O137 C136 1.218 . S
C138 O131 1.275 . S
C138 O133 1.255 . S
C139 O140 1.258 . S
C139 O141 1.256 . S
O140 Cd132 2.381 . S
O140 C139 1.258 . S
O141 Cd132 2.378 . S
O141 C139 1.256 . S
O142 Cd143 2.300 . S
O142 C149 1.275 . S
Cd143 O142 2.300 . S
Cd143 O151 2.381 . S
Cd143 O152 2.378 . S
O144 Cd145 2.385 . S
O144 C149 1.255 1_655 S
Cd145 O144 2.385 . S
Cd145 O146 2.317 . S
O146 Cd145 2.317 . S
O146 C147 1.232 . S
C147 O146 1.232 . S
C147 O148 1.218 . S
O148 C147 1.218 . S
C149 O142 1.275 . S
C149 O144 1.255 1_455 S
C150 O151 1.258 . S
C150 O152 1.256 . S
O151 Cd143 2.381 . S
O151 C150 1.258 . S
O152 Cd143 2.378 . S
O152 C150 1.256 . S
O153 Cd154 2.300 . S
O153 C160 1.275 1_455 S
Cd154 O153 2.300 . S
Cd154 O162 2.381 . S
Cd154 O163 2.378 . S
O155 Cd156 2.385 . S
O155 C160 1.255 . S
Cd156 O155 2.385 . S
Cd156 O157 2.317 . S
O157 Cd156 2.317 . S
O157 C158 1.232 . S
C158 O157 1.232 . S
C158 O159 1.218 . S
O159 C158 1.218 . S
C160 O153 1.275 1_655 S
C160 O155 1.255 . S
C161 O162 1.258 . S
C161 O163 1.256 . S
O162 Cd154 2.381 . S
O162 C161 1.258 . S
O163 Cd154 2.378 . S
O163 C161 1.256 . S
O164 Cd165 2.300 . S
O164 C171 1.275 1_565 S
Cd165 O164 2.300 . S
Cd165 O173 2.381 . S
Cd165 O174 2.378 . S
O166 Cd167 2.385 . S
O166 C171 1.255 . S
Cd167 O166 2.385 . S
Cd167 O168 2.317 . S
O168 Cd167 2.317 . S
O168 C169 1.232 . S
C169 O168 1.232 . S
C169 O170 1.218 . S
O170 C169 1.218 . S
C171 O164 1.275 1_545 S
C171 O166 1.255 . S
C172 O173 1.258 . S
C172 O174 1.256 . S
O173 Cd165 2.381 . S
O173 C172 1.258 . S
O174 Cd165 2.378 . S
O174 C172 1.256 . S
O175 Cd176 2.300 . S
O175 C182 1.275 . S
Cd176 O175 2.300 . S
Cd176 O184 2.381 . S
Cd176 O185 2.378 . S
O177 Cd178 2.385 . S
O177 C182 1.255 . S
Cd178 O177 2.385 . S
Cd178 O179 2.317 . S
O179 Cd178 2.317 . S
O179 C180 1.232 . S
C180 O179 1.232 . S
C180 O181 1.218 . S
O181 C180 1.218 . S
C182 O175 1.275 . S
C182 O177 1.255 . S
C183 O184 1.258 . S
C183 O185 1.256 . S
O184 Cd176 2.381 . S
O184 C183 1.258 . S
O185 Cd176 2.378 . S
O185 C183 1.256 . S
C186 C187 1.387 . S
C186 H190 0.950 . S
C186 C195 1.390 . S
C187 C186 1.387 . S
C187 C189 1.387 . S
H188 C195 0.950 . S
C189 C187 1.387 . S
C189 C191 1.390 . S
C189 H193 0.950 . S
H190 C186 0.950 . S
C191 C189 1.390 . S
C191 C192 1.387 . S
C191 H194 0.950 . S
C192 C191 1.387 . S
C192 C195 1.387 . S
H193 C189 0.950 . S
H194 C191 0.950 . S
C195 C186 1.390 . S
C195 H188 0.950 . S
C195 C192 1.387 . S
C196 C197 1.387 . S
C196 H200 0.950 . S
C196 C205 1.390 . S
C197 C196 1.387 . S
C197 C199 1.387 . S
H198 C205 0.950 . S
C199 C197 1.387 . S
C199 C201 1.390 . S
C199 H203 0.950 . S
H200 C196 0.950 . S
C201 C199 1.390 . S
C201 C202 1.387 . S
C201 H204 0.950 . S
C202 C201 1.387 . S
C202 C205 1.387 . S
H203 C199 0.950 . S
H204 C201 0.950 . S
C205 C196 1.390 . S
C205 H198 0.950 . S
C205 C202 1.387 . S
C206 C207 1.387 . S
C206 H210 0.950 . S
C206 C215 1.390 . S
C207 C206 1.387 . S
C207 C209 1.387 . S
H208 C215 0.950 . S
C209 C207 1.387 . S
C209 C211 1.390 . S
C209 H213 0.950 . S
H210 C206 0.950 . S
C211 C209 1.390 . S
C211 C212 1.387 . S
C211 H214 0.950 . S
C212 C211 1.387 . S
C212 C215 1.387 . S
H213 C209 0.950 . S
H214 C211 0.950 . S
C215 C206 1.390 . S
C215 H208 0.950 . S
C215 C212 1.387 . S
C216 C217 1.387 . S
C216 H220 0.950 . S
C216 C225 1.390 . S
C217 C216 1.387 . S
C217 C219 1.387 . S
H218 C225 0.950 . S
C219 C217 1.387 . S
C219 C221 1.390 . S
C219 H223 0.950 . S
H220 C216 0.950 . S
C221 C219 1.390 . S
C221 C222 1.387 . S
C221 H224 0.950 . S
C222 C221 1.387 . S
C222 C225 1.387 . S
H223 C219 0.950 . S
H224 C221 0.950 . S
C225 C216 1.390 . S
C225 H218 0.950 . S
C225 C222 1.387 . S
C226 C227 1.387 . S
C226 H230 0.950 . S
C226 C235 1.390 . S
C227 C226 1.387 . S
C227 C229 1.387 . S
H228 C235 0.950 . S
C229 C227 1.387 . S
C229 C231 1.390 . S
C229 H233 0.950 . S
H230 C226 0.950 . S
C231 C229 1.390 . S
C231 C232 1.387 . S
C231 H234 0.950 . S
C232 C231 1.387 . S
C232 C235 1.387 . S
H233 C229 0.950 . S
H234 C231 0.950 . S
C235 C226 1.390 . S
C235 H228 0.950 . S
C235 C232 1.387 . S
C236 C237 1.387 . S
C236 H240 0.950 . S
C236 C245 1.390 . S
C237 C236 1.387 . S
C237 C239 1.387 . S
H238 C245 0.950 . S
C239 C237 1.387 . S
C239 C241 1.390 . S
C239 H243 0.950 . S
H240 C236 0.950 . S
C241 C239 1.390 . S
C241 C242 1.387 . S
C241 H244 0.950 . S
C242 C241 1.387 . S
C242 C245 1.387 . S
H243 C239 0.950 . S
H244 C241 0.950 . S
C245 C236 1.390 . S
C245 H238 0.950 . S
C245 C242 1.387 . S
C246 C247 1.387 . S
C246 H250 0.950 . S
C246 C255 1.390 . S
C247 C246 1.387 . S
C247 C249 1.387 . S
H248 C255 0.950 . S
C249 C247 1.387 . S
C249 C251 1.390 . S
C249 H253 0.950 . S
H250 C246 0.950 . S
C251 C249 1.390 . S
C251 C252 1.387 . S
C251 H254 0.950 . S
C252 C251 1.387 . S
C252 C255 1.387 . S
H253 C249 0.950 . S
H254 C251 0.950 . S
C255 C246 1.390 . S
C255 H248 0.950 . S
C255 C252 1.387 . S
C256 C257 1.387 . S
C256 H260 0.950 . S
C256 C265 1.390 . S
C257 C256 1.387 . S
C257 C259 1.387 . S
H258 C265 0.950 . S
C259 C257 1.387 . S
C259 C261 1.390 . S
C259 H263 0.950 . S
H260 C256 0.950 . S
C261 C259 1.390 . S
C261 C262 1.387 . S
C261 H264 0.950 . S
C262 C261 1.387 . S
C262 C265 1.387 . S
H263 C259 0.950 . S
H264 C261 0.950 . S
C265 C256 1.390 . S
C265 H258 0.950 . S
C265 C262 1.387 . S
C266 C267 1.387 . S
C266 H270 0.950 . S
C266 C275 1.390 . S
C267 C266 1.387 . S
C267 C269 1.387 . S
H268 C275 0.950 . S
C269 C267 1.387 . S
C269 C271 1.390 . S
C269 H273 0.950 . S
H270 C266 0.950 . S
C271 C269 1.390 . S
C271 C272 1.387 . S
C271 H274 0.950 . S
C272 C271 1.387 . S
C272 C275 1.387 . S
H273 C269 0.950 . S
H274 C271 0.950 . S
C275 C266 1.390 . S
C275 H268 0.950 . S
C275 C272 1.387 . S
C276 C277 1.387 . S
C276 H280 0.950 . S
C276 C285 1.390 . S
C277 C276 1.387 . S
C277 C279 1.387 . S
H278 C285 0.950 . S
C279 C277 1.387 . S
C279 C281 1.390 . S
C279 H283 0.950 . S
H280 C276 0.950 . S
C281 C279 1.390 . S
C281 C282 1.387 . S
C281 H284 0.950 . S
C282 C281 1.387 . S
C282 C285 1.387 . S
H283 C279 0.950 . S
H284 C281 0.950 . S
C285 C276 1.390 . S
C285 H278 0.950 . S
C285 C282 1.387 . S
C286 C287 1.387 . S
C286 H290 0.950 . S
C286 C295 1.390 . S
C287 C286 1.387 . S
C287 C289 1.387 . S
H288 C295 0.950 . S
C289 C287 1.387 . S
C289 C291 1.390 . S
C289 H293 0.950 . S
H290 C286 0.950 . S
C291 C289 1.390 . S
C291 C292 1.387 . S
C291 H294 0.950 . S
C292 C291 1.387 . S
C292 C295 1.387 . S
H293 C289 0.950 . S
H294 C291 0.950 . S
C295 C286 1.390 . S
C295 H288 0.950 . S
C295 C292 1.387 . S
C296 C297 1.387 . S
C296 H300 0.950 . S
C296 C305 1.390 . S
C297 C296 1.387 . S
C297 C299 1.387 . S
H298 C305 0.950 . S
C299 C297 1.387 . S
C299 C301 1.390 . S
C299 H303 0.950 . S
H300 C296 0.950 . S
C301 C299 1.390 . S
C301 C302 1.387 . S
C301 H304 0.950 . S
C302 C301 1.387 . S
C302 C305 1.387 . S
H303 C299 0.950 . S
H304 C301 0.950 . S
C305 C296 1.390 . S
C305 H298 0.950 . S
C305 C302 1.387 . S
C306 C307 1.387 . S
C306 H310 0.950 . S
C306 C315 1.390 . S
C307 C306 1.387 . S
C307 C309 1.387 . S
H308 C315 0.950 . S
C309 C307 1.387 . S
C309 C311 1.390 . S
C309 H313 0.950 1_455 S
H310 C306 0.950 . S
C311 C309 1.390 . S
C311 C312 1.387 1_554 S
C311 H314 0.950 1_454 S
C312 C311 1.387 1_556 S
C312 C315 1.387 1_556 S
H313 C309 0.950 1_655 S
H314 C311 0.950 1_656 S
C315 C306 1.390 . S
C315 H308 0.950 . S
C315 C312 1.387 1_554 S
C316 C317 1.387 1_565 S
C316 H320 0.950 . S
C316 C325 1.390 . S
C317 C316 1.387 1_545 S
C317 C319 1.387 . S
H318 C325 0.950 . S
C319 C317 1.387 . S
C319 C321 1.390 . S
C319 H323 0.950 . S
H320 C316 0.950 . S
C321 C319 1.390 . S
C321 C322 1.387 . S
C321 H324 0.950 . S
C322 C321 1.387 . S
C322 C325 1.387 1_545 S
H323 C319 0.950 . S
H324 C321 0.950 . S
C325 C316 1.390 . S
C325 H318 0.950 . S
C325 C322 1.387 1_565 S
C326 C327 1.387 . S
C326 H330 0.950 . S
C326 C335 1.390 . S
C327 C326 1.387 . S
C327 C329 1.387 . S
H328 C335 0.950 . S
C329 C327 1.387 . S
C329 C331 1.390 . S
C329 H333 0.950 . S
H330 C326 0.950 . S
C331 C329 1.390 . S
C331 C332 1.387 . S
C331 H334 0.950 . S
C332 C331 1.387 . S
C332 C335 1.387 . S
H333 C329 0.950 . S
H334 C331 0.950 . S
C335 C326 1.390 . S
C335 H328 0.950 . S
C335 C332 1.387 . S
C336 C337 1.387 1_565 S
C336 H340 0.950 . S
C336 C345 1.390 . S
C337 C336 1.387 1_545 S
C337 C339 1.387 . S
H338 C345 0.950 . S
C339 C337 1.387 . S
C339 C341 1.390 . S
C339 H343 0.950 . S
H340 C336 0.950 . S
C341 C339 1.390 . S
C341 C342 1.387 . S
C341 H344 0.950 . S
C342 C341 1.387 . S
C342 C345 1.387 1_545 S
H343 C339 0.950 . S
H344 C341 0.950 . S
C345 C336 1.390 . S
C345 H338 0.950 . S
C345 C342 1.387 1_565 S
C346 C347 1.387 . S
C346 H350 0.950 . S
C346 C355 1.390 . S
C347 C346 1.387 . S
C347 C349 1.387 . S
H348 C355 0.950 . S
C349 C347 1.387 . S
C349 C351 1.390 1_556 S
C349 H353 0.950 . S
H350 C346 0.950 . S
C351 C349 1.390 1_554 S
C351 C352 1.387 . S
C351 H354 0.950 . S
C352 C351 1.387 . S
C352 C355 1.387 1_554 S
H353 C349 0.950 . S
H354 C351 0.950 . S
C355 C346 1.390 . S
C355 H348 0.950 . S
C355 C352 1.387 1_556 S
C356 C357 1.387 1_655 S
C356 H360 0.950 . S
C356 C365 1.390 . S
C357 C356 1.387 1_455 S
C357 C359 1.387 . S
H358 C365 0.950 . S
C359 C357 1.387 . S
C359 C361 1.390 . S
C359 H363 0.950 . S
H360 C356 0.950 . S
C361 C359 1.390 . S
C361 C362 1.387 1_455 S
C361 H364 0.950 . S
C362 C361 1.387 1_655 S
C362 C365 1.387 . S
H363 C359 0.950 . S
H364 C361 0.950 . S
C365 C356 1.390 . S
C365 H358 0.950 . S
C365 C362 1.387 . S
C187 C7 0.973 . S
C192 C180 0.759 . S
C197 C51 2.036 . S
C202 C158 1.752 . S
C207 C87 1.204 . S
C212 C172 1.189 . S
C217 C16 0.639 . S
C222 C183 0.494 . S
C232 C161 1.872 . S
C227 C42 1.962 . S
C242 C169 1.274 . S
C237 C96 1.411 . S
C247 C47 1.375 . S
C252 C136 1.182 . S
C257 C91 3.265 . S
C262 C147 2.915 . S
C267 C2 2.121 . S
C272 C125 1.761 . S
C282 C139 1.181 . S
C277 C56 1.169 . S
C292 C150 2.912 . S
C287 C82 2.998 . S
C297 C11 1.874 . S
C302 C128 1.834 . S
C312 C149 1.675 . S
C307 C19 1.691 . S
C317 C50 1.405 . S
C322 C127 1.376 . S
C327 C99 1.524 . S
C332 C138 1.472 . S
C342 C171 1.429 . S
C337 C59 1.450 . S
C352 C182 1.116 . S
C347 C90 1.194 . S
C357 C10 1.415 . S
C362 C160 1.367 . S
