# Generated by pormake.
# Topology gar, (4,6)-cn, num edge types: 1
# Building blocks:
#     Node 0, Type 0, BuildingBlock: QUQFOY_clean_sbu_3, # of connection points: 4
#     Node 1, Type 0, BuildingBlock: QUQFOY_clean_sbu_3, # of connection points: 4
#     Node 2, Type 0, BuildingBlock: QUQFOY_clean_sbu_3, # of connection points: 4
#     Node 3, Type 0, BuildingBlock: QUQFOY_clean_sbu_3, # of connection points: 4
#     Node 4, Type 0, BuildingBlock: QUQFOY_clean_sbu_3, # of connection points: 4
#     Node 5, Type 0, BuildingBlock: QUQFOY_clean_sbu_3, # of connection points: 4
#     Node 6, Type 0, BuildingBlock: QUQFOY_clean_sbu_3, # of connection points: 4
#     Node 7, Type 0, BuildingBlock: QUQFOY_clean_sbu_3, # of connection points: 4
#     Node 8, Type 0, BuildingBlock: QUQFOY_clean_sbu_3, # of connection points: 4
#     Node 9, Type 0, BuildingBlock: QUQFOY_clean_sbu_3, # of connection points: 4
#     Node 10, Type 0, BuildingBlock: QUQFOY_clean_sbu_3, # of connection points: 4
#     Node 11, Type 0, BuildingBlock: QUQFOY_clean_sbu_3, # of connection points: 4
#     Node 12, Type 0, BuildingBlock: QUQFOY_clean_sbu_3, # of connection points: 4
#     Node 13, Type 0, BuildingBlock: QUQFOY_clean_sbu_3, # of connection points: 4
#     Node 14, Type 0, BuildingBlock: QUQFOY_clean_sbu_3, # of connection points: 4
#     Node 15, Type 0, BuildingBlock: QUQFOY_clean_sbu_3, # of connection points: 4
#     Node 16, Type 0, BuildingBlock: QUQFOY_clean_sbu_3, # of connection points: 4
#     Node 17, Type 0, BuildingBlock: QUQFOY_clean_sbu_3, # of connection points: 4
#     Node 18, Type 0, BuildingBlock: QUQFOY_clean_sbu_3, # of connection points: 4
#     Node 19, Type 0, BuildingBlock: QUQFOY_clean_sbu_3, # of connection points: 4
#     Node 20, Type 0, BuildingBlock: QUQFOY_clean_sbu_3, # of connection points: 4
#     Node 21, Type 0, BuildingBlock: QUQFOY_clean_sbu_3, # of connection points: 4
#     Node 22, Type 0, BuildingBlock: QUQFOY_clean_sbu_3, # of connection points: 4
#     Node 23, Type 0, BuildingBlock: QUQFOY_clean_sbu_3, # of connection points: 4
#     Node 24, Type 1, BuildingBlock: INOVEN_clean_sbu_0, # of connection points: 6
#     Node 25, Type 1, BuildingBlock: INOVEN_clean_sbu_0, # of connection points: 6
#     Node 26, Type 1, BuildingBlock: INOVEN_clean_sbu_0, # of connection points: 6
#     Node 27, Type 1, BuildingBlock: INOVEN_clean_sbu_0, # of connection points: 6
#     Node 28, Type 1, BuildingBlock: INOVEN_clean_sbu_0, # of connection points: 6
#     Node 29, Type 1, BuildingBlock: INOVEN_clean_sbu_0, # of connection points: 6
#     Node 30, Type 1, BuildingBlock: INOVEN_clean_sbu_0, # of connection points: 6
#     Node 31, Type 1, BuildingBlock: INOVEN_clean_sbu_0, # of connection points: 6
#     Node 32, Type 1, BuildingBlock: INOVEN_clean_sbu_0, # of connection points: 6
#     Node 33, Type 1, BuildingBlock: INOVEN_clean_sbu_0, # of connection points: 6
#     Node 34, Type 1, BuildingBlock: INOVEN_clean_sbu_0, # of connection points: 6
#     Node 35, Type 1, BuildingBlock: INOVEN_clean_sbu_0, # of connection points: 6
#     Node 36, Type 1, BuildingBlock: INOVEN_clean_sbu_0, # of connection points: 6
#     Node 37, Type 1, BuildingBlock: INOVEN_clean_sbu_0, # of connection points: 6
#     Node 38, Type 1, BuildingBlock: INOVEN_clean_sbu_0, # of connection points: 6
#     Node 39, Type 1, BuildingBlock: INOVEN_clean_sbu_0, # of connection points: 6
#     Edge 40, Type (0, 1), BuildingBlock: MIFKUJ_clean_linker_0, # of connection points: 2
#     Edge 41, Type (0, 1), BuildingBlock: MIFKUJ_clean_linker_0, # of connection points: 2
#     Edge 42, Type (0, 1), BuildingBlock: MIFKUJ_clean_linker_0, # of connection points: 2
#     Edge 43, Type (0, 1), BuildingBlock: MIFKUJ_clean_linker_0, # of connection points: 2
#     Edge 44, Type (0, 1), BuildingBlock: MIFKUJ_clean_linker_0, # of connection points: 2
#     Edge 45, Type (0, 1), BuildingBlock: MIFKUJ_clean_linker_0, # of connection points: 2
#     Edge 46, Type (0, 1), BuildingBlock: MIFKUJ_clean_linker_0, # of connection points: 2
#     Edge 47, Type (0, 1), BuildingBlock: MIFKUJ_clean_linker_0, # of connection points: 2
#     Edge 48, Type (0, 1), BuildingBlock: MIFKUJ_clean_linker_0, # of connection points: 2
#     Edge 49, Type (0, 1), BuildingBlock: MIFKUJ_clean_linker_0, # of connection points: 2
#     Edge 50, Type (0, 1), BuildingBlock: MIFKUJ_clean_linker_0, # of connection points: 2
#     Edge 51, Type (0, 1), BuildingBlock: MIFKUJ_clean_linker_0, # of connection points: 2
#     Edge 52, Type (0, 1), BuildingBlock: MIFKUJ_clean_linker_0, # of connection points: 2
#     Edge 53, Type (0, 1), BuildingBlock: MIFKUJ_clean_linker_0, # of connection points: 2
#     Edge 54, Type (0, 1), BuildingBlock: MIFKUJ_clean_linker_0, # of connection points: 2
#     Edge 55, Type (0, 1), BuildingBlock: MIFKUJ_clean_linker_0, # of connection points: 2
#     Edge 56, Type (0, 1), BuildingBlock: MIFKUJ_clean_linker_0, # of connection points: 2
#     Edge 57, Type (0, 1), BuildingBlock: MIFKUJ_clean_linker_0, # of connection points: 2
#     Edge 58, Type (0, 1), BuildingBlock: MIFKUJ_clean_linker_0, # of connection points: 2
#     Edge 59, Type (0, 1), BuildingBlock: MIFKUJ_clean_linker_0, # of connection points: 2
#     Edge 60, Type (0, 1), BuildingBlock: MIFKUJ_clean_linker_0, # of connection points: 2
#     Edge 61, Type (0, 1), BuildingBlock: MIFKUJ_clean_linker_0, # of connection points: 2
#     Edge 62, Type (0, 1), BuildingBlock: MIFKUJ_clean_linker_0, # of connection points: 2
#     Edge 63, Type (0, 1), BuildingBlock: MIFKUJ_clean_linker_0, # of connection points: 2
#     Edge 64, Type (0, 1), BuildingBlock: MIFKUJ_clean_linker_0, # of connection points: 2
#     Edge 65, Type (0, 1), BuildingBlock: MIFKUJ_clean_linker_0, # of connection points: 2
#     Edge 66, Type (0, 1), BuildingBlock: MIFKUJ_clean_linker_0, # of connection points: 2
#     Edge 67, Type (0, 1), BuildingBlock: MIFKUJ_clean_linker_0, # of connection points: 2
#     Edge 68, Type (0, 1), BuildingBlock: MIFKUJ_clean_linker_0, # of connection points: 2
#     Edge 69, Type (0, 1), BuildingBlock: MIFKUJ_clean_linker_0, # of connection points: 2
#     Edge 70, Type (0, 1), BuildingBlock: MIFKUJ_clean_linker_0, # of connection points: 2
#     Edge 71, Type (0, 1), BuildingBlock: MIFKUJ_clean_linker_0, # of connection points: 2
#     Edge 72, Type (0, 1), BuildingBlock: MIFKUJ_clean_linker_0, # of connection points: 2
#     Edge 73, Type (0, 1), BuildingBlock: MIFKUJ_clean_linker_0, # of connection points: 2
#     Edge 74, Type (0, 1), BuildingBlock: MIFKUJ_clean_linker_0, # of connection points: 2
#     Edge 75, Type (0, 1), BuildingBlock: MIFKUJ_clean_linker_0, # of connection points: 2
#     Edge 76, Type (0, 1), BuildingBlock: MIFKUJ_clean_linker_0, # of connection points: 2
#     Edge 77, Type (0, 1), BuildingBlock: MIFKUJ_clean_linker_0, # of connection points: 2
#     Edge 78, Type (0, 1), BuildingBlock: MIFKUJ_clean_linker_0, # of connection points: 2
#     Edge 79, Type (0, 1), BuildingBlock: MIFKUJ_clean_linker_0, # of connection points: 2
#     Edge 80, Type (0, 1), BuildingBlock: MIFKUJ_clean_linker_0, # of connection points: 2
#     Edge 81, Type (0, 1), BuildingBlock: MIFKUJ_clean_linker_0, # of connection points: 2
#     Edge 82, Type (0, 1), BuildingBlock: MIFKUJ_clean_linker_0, # of connection points: 2
#     Edge 83, Type (0, 1), BuildingBlock: MIFKUJ_clean_linker_0, # of connection points: 2
#     Edge 84, Type (0, 1), BuildingBlock: MIFKUJ_clean_linker_0, # of connection points: 2
#     Edge 85, Type (0, 1), BuildingBlock: MIFKUJ_clean_linker_0, # of connection points: 2
#     Edge 86, Type (0, 1), BuildingBlock: MIFKUJ_clean_linker_0, # of connection points: 2
#     Edge 87, Type (0, 1), BuildingBlock: MIFKUJ_clean_linker_0, # of connection points: 2
#     Edge 88, Type (0, 1), BuildingBlock: MIFKUJ_clean_linker_0, # of connection points: 2
#     Edge 89, Type (0, 1), BuildingBlock: MIFKUJ_clean_linker_0, # of connection points: 2
#     Edge 90, Type (0, 1), BuildingBlock: MIFKUJ_clean_linker_0, # of connection points: 2
#     Edge 91, Type (0, 1), BuildingBlock: MIFKUJ_clean_linker_0, # of connection points: 2
#     Edge 92, Type (0, 1), BuildingBlock: MIFKUJ_clean_linker_0, # of connection points: 2
#     Edge 93, Type (0, 1), BuildingBlock: MIFKUJ_clean_linker_0, # of connection points: 2
#     Edge 94, Type (0, 1), BuildingBlock: MIFKUJ_clean_linker_0, # of connection points: 2
#     Edge 95, Type (0, 1), BuildingBlock: MIFKUJ_clean_linker_0, # of connection points: 2
#     Edge 96, Type (0, 1), BuildingBlock: MIFKUJ_clean_linker_0, # of connection points: 2
#     Edge 97, Type (0, 1), BuildingBlock: MIFKUJ_clean_linker_0, # of connection points: 2
#     Edge 98, Type (0, 1), BuildingBlock: MIFKUJ_clean_linker_0, # of connection points: 2
#     Edge 99, Type (0, 1), BuildingBlock: MIFKUJ_clean_linker_0, # of connection points: 2
#     Edge 100, Type (0, 1), BuildingBlock: MIFKUJ_clean_linker_0, # of connection points: 2
#     Edge 101, Type (0, 1), BuildingBlock: MIFKUJ_clean_linker_0, # of connection points: 2
#     Edge 102, Type (0, 1), BuildingBlock: MIFKUJ_clean_linker_0, # of connection points: 2
#     Edge 103, Type (0, 1), BuildingBlock: MIFKUJ_clean_linker_0, # of connection points: 2
#     Edge 104, Type (0, 1), BuildingBlock: MIFKUJ_clean_linker_0, # of connection points: 2
#     Edge 105, Type (0, 1), BuildingBlock: MIFKUJ_clean_linker_0, # of connection points: 2
#     Edge 106, Type (0, 1), BuildingBlock: MIFKUJ_clean_linker_0, # of connection points: 2
#     Edge 107, Type (0, 1), BuildingBlock: MIFKUJ_clean_linker_0, # of connection points: 2
#     Edge 108, Type (0, 1), BuildingBlock: MIFKUJ_clean_linker_0, # of connection points: 2
#     Edge 109, Type (0, 1), BuildingBlock: MIFKUJ_clean_linker_0, # of connection points: 2
#     Edge 110, Type (0, 1), BuildingBlock: MIFKUJ_clean_linker_0, # of connection points: 2
#     Edge 111, Type (0, 1), BuildingBlock: MIFKUJ_clean_linker_0, # of connection points: 2
#     Edge 112, Type (0, 1), BuildingBlock: MIFKUJ_clean_linker_0, # of connection points: 2
#     Edge 113, Type (0, 1), BuildingBlock: MIFKUJ_clean_linker_0, # of connection points: 2
#     Edge 114, Type (0, 1), BuildingBlock: MIFKUJ_clean_linker_0, # of connection points: 2
#     Edge 115, Type (0, 1), BuildingBlock: MIFKUJ_clean_linker_0, # of connection points: 2
#     Edge 116, Type (0, 1), BuildingBlock: MIFKUJ_clean_linker_0, # of connection points: 2
#     Edge 117, Type (0, 1), BuildingBlock: MIFKUJ_clean_linker_0, # of connection points: 2
#     Edge 118, Type (0, 1), BuildingBlock: MIFKUJ_clean_linker_0, # of connection points: 2
#     Edge 119, Type (0, 1), BuildingBlock: MIFKUJ_clean_linker_0, # of connection points: 2
#     Edge 120, Type (0, 1), BuildingBlock: MIFKUJ_clean_linker_0, # of connection points: 2
#     Edge 121, Type (0, 1), BuildingBlock: MIFKUJ_clean_linker_0, # of connection points: 2
#     Edge 122, Type (0, 1), BuildingBlock: MIFKUJ_clean_linker_0, # of connection points: 2
#     Edge 123, Type (0, 1), BuildingBlock: MIFKUJ_clean_linker_0, # of connection points: 2
#     Edge 124, Type (0, 1), BuildingBlock: MIFKUJ_clean_linker_0, # of connection points: 2
#     Edge 125, Type (0, 1), BuildingBlock: MIFKUJ_clean_linker_0, # of connection points: 2
#     Edge 126, Type (0, 1), BuildingBlock: MIFKUJ_clean_linker_0, # of connection points: 2
#     Edge 127, Type (0, 1), BuildingBlock: MIFKUJ_clean_linker_0, # of connection points: 2
#     Edge 128, Type (0, 1), BuildingBlock: MIFKUJ_clean_linker_0, # of connection points: 2
#     Edge 129, Type (0, 1), BuildingBlock: MIFKUJ_clean_linker_0, # of connection points: 2
#     Edge 130, Type (0, 1), BuildingBlock: MIFKUJ_clean_linker_0, # of connection points: 2
#     Edge 131, Type (0, 1), BuildingBlock: MIFKUJ_clean_linker_0, # of connection points: 2
#     Edge 132, Type (0, 1), BuildingBlock: MIFKUJ_clean_linker_0, # of connection points: 2
#     Edge 133, Type (0, 1), BuildingBlock: MIFKUJ_clean_linker_0, # of connection points: 2
#     Edge 134, Type (0, 1), BuildingBlock: MIFKUJ_clean_linker_0, # of connection points: 2
#     Edge 135, Type (0, 1), BuildingBlock: MIFKUJ_clean_linker_0, # of connection points: 2
# Relax obj value: 0.150
# Max RMSD: 0.292
# Mean RMSD: 0.146
data_MOF--net-gar--node1-QUQFOY_clean_sbu_3--node2-INOVEN_clean_sbu_0--edge1-MIFKUJ_clean_linker_0
_symmetry_space_group_name_H-M    P1
_symmetry_Int_Tables_number       1
_symmetry_cell_setting            triclinic
loop_
_symmetry_equiv_pos_as_xyz
'x, y, z'
_cell_length_a     78.643719
_cell_length_b     74.687654
_cell_length_c     74.202987
_cell_angle_alpha  99.421027
_cell_angle_beta   94.845938
_cell_angle_gamma 102.95768
loop_
_atom_site_label
_atom_site_type_symbol
_atom_site_fract_x
_atom_site_fract_y
_atom_site_fract_z
_atom_type_partial_charge
C0 C 0.06029 0.31377 0.3509 0.0
O1 O 0.0707 0.32313 0.34173 0.0
Cd2 Cd 0.10049 0.33645 0.35312 0.0
O3 O 0.06562 0.30987 0.36615 0.0
Cd4 Cd 0.0911 0.31124 0.38831 0.0
C5 C 0.09404 0.3574 0.397 0.0
O6 O 0.10508 0.30946 0.36264 0.0
O7 O 0.1223 0.30934 0.38666 0.0
O8 O 0.07025 0.28221 0.38741 0.0
C9 C 0.12018 0.30937 0.36954 0.0
O10 O 0.09712 0.35771 0.38044 0.0
C11 C 0.07683 0.27921 0.40247 0.0
O12 O 0.09185 0.34242 0.40356 0.0
O13 O 0.09007 0.29146 0.4114 0.0
C14 C 0.96666 0.74267 0.66932 0.0
O15 O 0.97801 0.7372 0.6788 0.0
Cd16 Cd 0.00695 0.73647 0.67425 0.0
O17 O 0.96991 0.74911 0.65479 0.0
Cd18 Cd 0.99537 0.75494 0.63812 0.0
C19 C 0.99688 0.71035 0.63027 0.0
O20 O 0.01616 0.76512 0.66505 0.0
O21 O 0.02721 0.76053 0.63967 0.0
O22 O 0.99055 0.78459 0.63324 0.0
C23 C 0.0297 0.76572 0.65698 0.0
O24 O 0.00373 0.71316 0.64695 0.0
C25 C 0.9948 0.78251 0.61702 0.0
O26 O 0.99089 0.7227 0.62363 0.0
O27 O 0.99681 0.76657 0.60993 0.0
C28 C 0.55874 0.81196 0.84792 0.0
O29 O 0.56939 0.82056 0.83845 0.0
Cd30 Cd 0.59941 0.8338 0.85033 0.0
O31 O 0.56389 0.80866 0.86345 0.0
Cd32 Cd 0.5901 0.81122 0.88426 0.0
C33 C 0.59159 0.85682 0.89173 0.0
O34 O 0.60632 0.80739 0.86007 0.0
O35 O 0.62255 0.81685 0.88652 0.0
O36 O 0.5779 0.77881 0.88322 0.0
C37 C 0.62125 0.81097 0.86928 0.0
O38 O 0.59719 0.85782 0.87623 0.0
C39 C 0.57845 0.78 0.9005 0.0
O40 O 0.58751 0.84146 0.8974 0.0
O41 O 0.58487 0.79603 0.91059 0.0
C42 C 0.46209 0.24228 0.16747 0.0
O43 O 0.46985 0.23225 0.1758 0.0
Cd44 Cd 0.49828 0.22812 0.17164 0.0
O45 O 0.46874 0.25067 0.15527 0.0
Cd46 Cd 0.49394 0.25369 0.13943 0.0
C47 C 0.48963 0.20786 0.12607 0.0
O48 O 0.51377 0.25753 0.16639 0.0
O49 O 0.52487 0.25529 0.14062 0.0
O50 O 0.49718 0.28622 0.14037 0.0
C51 C 0.52717 0.25779 0.15804 0.0
O52 O 0.4938 0.20692 0.14275 0.0
C53 C 0.49593 0.285 0.12305 0.0
O54 O 0.488 0.22299 0.12119 0.0
O55 O 0.49214 0.26876 0.11307 0.0
C56 C 0.03929 0.7884 0.14042 0.0
O57 O 0.04927 0.78073 0.14928 0.0
Cd58 Cd 0.07907 0.77967 0.14645 0.0
O59 O 0.04513 0.7979 0.12838 0.0
Cd60 Cd 0.07405 0.8066 0.11472 0.0
C61 C 0.07083 0.75986 0.10028 0.0
O62 O 0.09416 0.80944 0.14266 0.0
O63 O 0.10711 0.81014 0.11847 0.0
O64 O 0.07047 0.83851 0.11319 0.0
C65 C 0.10837 0.81011 0.13562 0.0
O66 O 0.076 0.75933 0.11687 0.0
C67 C 0.07046 0.83716 0.09588 0.0
O68 O 0.0677 0.77467 0.09567 0.0
O69 O 0.07235 0.82171 0.08719 0.0
C70 C 0.47579 0.76532 0.37484 0.0
O71 O 0.48798 0.77396 0.36701 0.0
Cd72 Cd 0.5189 0.78243 0.37515 0.0
O73 O 0.47964 0.75779 0.38858 0.0
Cd74 Cd 0.50972 0.75638 0.40648 0.0
C75 C 0.51706 0.80326 0.42003 0.0
O76 O 0.52905 0.75682 0.38211 0.0
O77 O 0.54248 0.76615 0.4096 0.0
O78 O 0.50554 0.72278 0.40825 0.0
C79 C 0.54358 0.76246 0.39252 0.0
O80 O 0.52043 0.80399 0.40365 0.0
C81 C 0.50803 0.72503 0.42572 0.0
O82 O 0.51224 0.78765 0.42529 0.0
O83 O 0.50985 0.74162 0.43444 0.0
C84 C 0.53944 0.28904 0.64187 0.0
O85 O 0.54967 0.28235 0.65156 0.0
Cd86 Cd 0.57903 0.28048 0.64811 0.0
O87 O 0.54498 0.29731 0.62889 0.0
Cd88 Cd 0.57386 0.30611 0.61492 0.0
C89 C 0.57005 0.25912 0.60187 0.0
O90 O 0.59392 0.30979 0.64315 0.0
O91 O 0.60707 0.31024 0.61911 0.0
O92 O 0.56691 0.3367 0.61319 0.0
C93 C 0.6082 0.31038 0.63629 0.0
O94 O 0.57475 0.25941 0.61879 0.0
C95 C 0.5694 0.33682 0.59649 0.0
O96 O 0.56755 0.27378 0.59633 0.0
O97 O 0.57425 0.32284 0.58824 0.0
C98 C 0.9758 0.26282 0.87647 0.0
O99 O 0.98721 0.27246 0.86851 0.0
Cd100 Cd 0.01831 0.28301 0.87706 0.0
O101 O 0.98048 0.25602 0.89036 0.0
Cd102 Cd 0.01051 0.25625 0.90773 0.0
C103 C 0.01845 0.303 0.92239 0.0
O104 O 0.02925 0.25751 0.88293 0.0
O105 O 0.04319 0.26619 0.9103 0.0
O106 O 0.00866 0.22313 0.909 0.0
C107 C 0.04391 0.26294 0.89311 0.0
O108 O 0.02228 0.30449 0.90628 0.0
C109 C 0.00932 0.22484 0.92638 0.0
O110 O 0.01235 0.2871 0.92659 0.0
O111 O 0.00921 0.24088 0.93525 0.0
C112 C 0.4556 0.03451 0.30955 0.0
O113 O 0.4642 0.02898 0.29689 0.0
Cd114 Cd 0.45418 0.02067 0.26467 0.0
O115 O 0.4409 0.0383 0.30601 0.0
Cd116 Cd 0.42085 0.03855 0.28046 0.0
C117 C 0.41669 0.99206 0.27369 0.0
O118 O 0.43926 0.04316 0.25773 0.0
O119 O 0.41166 0.03213 0.24798 0.0
O120 O 0.41516 0.068 0.29097 0.0
C121 C 0.42732 0.03611 0.24426 0.0
O122 O 0.43059 0.99338 0.26577 0.0
C123 C 0.39857 0.06134 0.2882 0.0
O124 O 0.41157 0.00637 0.28061 0.0
O125 O 0.39277 0.04367 0.28438 0.0
C126 C 0.30629 0.15162 0.5045 0.0
O127 O 0.29453 0.14282 0.51272 0.0
Cd128 Cd 0.26601 0.14706 0.5168 0.0
O129 O 0.30305 0.16399 0.49548 0.0
Cd130 Cd 0.27675 0.17804 0.48853 0.0
C131 C 0.28044 0.19447 0.53484 0.0
O132 O 0.2535 0.15009 0.48785 0.0
O133 O 0.2441 0.17485 0.48728 0.0
O134 O 0.27908 0.17804 0.45552 0.0
C135 C 0.24051 0.15747 0.48745 0.0
O136 O 0.27447 0.1776 0.53654 0.0
C137 C 0.28259 0.1957 0.45683 0.0
O138 O 0.28274 0.1989 0.51917 0.0
O139 O 0.28384 0.20531 0.4729 0.0
C140 C 0.13167 0.01463 0.80301 0.0
O141 O 0.1254 0.02517 0.79385 0.0
Cd142 Cd 0.13044 0.03071 0.76295 0.0
O143 O 0.14285 0.00587 0.79587 0.0
Cd144 Cd 0.15943 0.00365 0.76345 0.0
C145 C 0.1739 0.05535 0.76613 0.0
O146 O 0.1311 1.00245 0.7424 0.0
O147 O 0.1532 1.00122 0.72804 0.0
O148 O 0.16263 0.96918 0.76603 0.0
C149 C 0.13726 1.00215 0.72706 0.0
O150 O 0.15751 0.05471 0.76448 0.0
C151 C 0.17823 0.97014 0.76201 0.0
O152 O 0.17893 0.04002 0.76701 0.0
O153 O 0.18554 0.98624 0.75895 0.0
C154 C 0.32835 0.94493 1.00026 0.0
O155 O 0.3215 0.95826 0.9977 0.0
Cd156 Cd 0.2944 0.94747 0.97866 0.0
O157 O 0.31969 0.92811 0.9952 0.0
Cd158 Cd 0.28934 0.91487 0.99748 0.0
C159 C 0.29447 0.90314 0.95573 0.0
O160 O 0.27771 0.94138 0.00321 0.0
O161 O 0.25861 0.91471 0.9934 0.0
O162 O 0.30278 0.91901 0.02813 0.0
C163 C 0.26191 0.93198 1.00044 0.0
O164 O 0.29817 0.92073 0.95637 0.0
C165 C 0.29749 0.90203 0.02948 0.0
O166 O 0.28865 0.89604 0.969 0.0
O167 O 0.28728 0.89097 0.01601 0.0
C168 C 0.33475 0.41942 0.02558 0.0
O169 O 0.32449 0.42782 0.01819 0.0
Cd170 Cd 0.29357 0.41688 0.01012 0.0
O171 O 0.32839 0.40431 0.03133 0.0
Cd172 Cd 0.29687 0.3853 0.03307 0.0
C173 C 0.29313 0.37221 0.98737 0.0
O174 O 0.2797 0.4095 0.03586 0.0
O175 O 0.26518 0.38173 0.02323 0.0
O176 O 0.30462 0.38267 0.06559 0.0
C177 C 0.26491 0.39853 0.02924 0.0
O178 O 0.29041 0.38842 0.98746 0.0
C179 C 0.29639 0.36565 0.06386 0.0
O180 O 0.29734 0.36712 0.00239 0.0
O181 O 0.28892 0.35755 0.04783 0.0
C182 C 0.8052 0.11392 0.02081 0.0
O183 O 0.79322 0.10427 0.02807 0.0
Cd184 Cd 0.76652 0.11397 0.03165 0.0
O185 O 0.80365 0.12886 0.01565 0.0
Cd186 Cd 0.78398 0.1483 0.01415 0.0
C187 C 0.78146 0.15761 0.05836 0.0
O188 O 0.75817 0.12378 0.00369 0.0
O189 O 0.75461 0.15145 0.01386 0.0
O190 O 0.79099 0.15049 0.98375 0.0
C191 C 0.74813 0.13492 0.00522 0.0
O192 O 0.77234 0.14088 0.05644 0.0
C193 C 0.79011 0.1674 0.98557 0.0
O194 O 0.78903 0.16366 0.04533 0.0
O195 O 0.78976 0.17613 0.00168 0.0
C196 C 0.13283 0.52865 0.26735 0.0
O197 O 0.11952 0.52947 0.25684 0.0
Cd198 Cd 0.1231 0.53943 0.22794 0.0
O199 O 0.14763 0.52952 0.2616 0.0
Cd200 Cd 0.16265 0.53013 0.23504 0.0
C201 C 0.16006 0.57458 0.24558 0.0
O202 O 0.13961 0.52088 0.21166 0.0
O203 O 0.16479 0.53399 0.20376 0.0
O204 O 0.16728 0.50075 0.23631 0.0
C205 C 0.14839 0.52704 0.19944 0.0
O206 O 0.14401 0.57004 0.23838 0.0
C207 C 0.1838 0.50667 0.24067 0.0
O208 O 0.16921 0.56265 0.24652 0.0
O209 O 0.19075 0.52404 0.24194 0.0
C210 C 0.83399 0.91847 0.52611 0.0
O211 O 0.82412 0.92693 0.51816 0.0
Cd212 Cd 0.79324 0.91719 0.50856 0.0
O213 O 0.82731 0.90336 0.53173 0.0
Cd214 Cd 0.79571 0.88381 0.53249 0.0
C215 C 0.79164 0.87201 0.48595 0.0
O216 O 0.77919 0.90795 0.53332 0.0
O217 O 0.7633 0.87987 0.52497 0.0
O218 O 0.79684 0.88233 0.56548 0.0
C219 C 0.76398 0.89724 0.52825 0.0
O220 O 0.79043 0.88878 0.48622 0.0
C221 C 0.79519 0.8648 0.56368 0.0
O222 O 0.79434 0.86609 0.5009 0.0
O223 O 0.79451 0.8559 0.54738 0.0
C224 C 0.94984 0.05234 0.29058 0.0
O225 O 0.95645 0.04317 0.27827 0.0
Cd226 Cd 0.945 0.03446 0.24653 0.0
O227 O 0.93685 0.05926 0.28541 0.0
Cd228 Cd 0.91835 0.05902 0.2514 0.0
C229 C 0.90348 0.00832 0.24983 0.0
O230 O 0.94529 0.06159 0.23227 0.0
O231 O 0.92078 0.05084 0.21559 0.0
O232 O 0.91508 0.09392 0.26346 0.0
C233 C 0.93734 0.05645 0.21595 0.0
O234 O 0.91903 0.00865 0.24602 0.0
C235 C 0.89992 0.09307 0.25523 0.0
O236 O 0.89884 0.02404 0.25284 0.0
O237 O 0.8929 0.07691 0.24553 0.0
C238 C 0.30588 0.61669 0.52486 0.0
O239 O 0.29273 0.60593 0.5295 0.0
Cd240 Cd 0.26447 0.61269 0.53116 0.0
O241 O 0.30469 0.63162 0.51946 0.0
Cd242 Cd 0.282 0.64662 0.51257 0.0
C243 C 0.27487 0.65793 0.55537 0.0
O244 O 0.25771 0.62001 0.50205 0.0
O245 O 0.25173 0.64713 0.508 0.0
O246 O 0.29047 0.6469 0.4825 0.0
C247 C 0.24651 0.6298 0.50144 0.0
O248 O 0.26663 0.64088 0.55376 0.0
C249 C 0.28951 0.66367 0.48297 0.0
O250 O 0.28354 0.66364 0.54286 0.0
O251 O 0.28825 0.67322 0.49841 0.0
C252 C 0.44958 0.55228 0.79187 0.0
O253 O 0.45569 0.54168 0.78028 0.0
Cd254 Cd 0.44529 0.53108 0.74786 0.0
O255 O 0.43719 0.5597 0.78609 0.0
Cd256 Cd 0.41906 0.55924 0.7523 0.0
C257 C 0.40272 0.5078 0.74985 0.0
O258 O 0.44592 0.55803 0.73355 0.0
O259 O 0.42213 0.55529 0.71651 0.0
O260 O 0.41719 0.59509 0.76078 0.0
C261 C 0.43852 0.55614 0.71721 0.0
O262 O 0.41792 0.50673 0.74582 0.0
C263 C 0.40078 0.59332 0.75625 0.0
O264 O 0.39934 0.52416 0.75348 0.0
O265 O 0.39256 0.57627 0.75029 0.0
C266 C 0.62504 0.03479 0.76429 0.0
O267 O 0.61331 0.0368 0.75246 0.0
Cd268 Cd 0.62176 0.0413 0.723 0.0
O269 O 0.63927 0.0314 0.7595 0.0
Cd270 Cd 0.6556 0.02482 0.73435 0.0
C271 C 0.66232 0.0705 0.74148 0.0
O272 O 0.63298 0.01544 0.7099 0.0
O273 O 0.65923 0.02473 0.70275 0.0
O274 O 0.6597 0.99835 0.74571 0.0
C275 C 0.64285 0.01892 0.69762 0.0
O276 O 0.6465 0.06875 0.73453 0.0
C277 C 0.67621 1.00268 0.74524 0.0
O278 O 0.66859 0.05651 0.74281 0.0
O279 O 0.68295 0.01707 0.7389 0.0
C280 C 0.80809 0.65049 0.99913 0.0
O281 O 0.79624 0.63954 0.00538 0.0
Cd282 Cd 0.76946 0.64626 0.01296 0.0
O283 O 0.80509 0.66512 0.99391 0.0
Cd284 Cd 0.77827 0.67886 0.98987 0.0
C285 C 0.78435 0.69251 0.03576 0.0
O286 O 0.75398 0.65086 0.98603 0.0
O287 O 0.74689 0.67671 0.99503 0.0
O288 O 0.77741 0.67962 0.95681 0.0
C289 C 0.74197 0.65906 0.99008 0.0
O290 O 0.77884 0.67513 0.0358 0.0
C291 C 0.78198 0.69728 0.95851 0.0
O292 O 0.78567 0.69856 0.02072 0.0
O293 O 0.78504 0.70666 0.97484 0.0
C294 C 0.95013 0.52976 0.80837 0.0
O295 O 0.95998 0.52666 0.79611 0.0
Cd296 Cd 0.95209 0.52092 0.76371 0.0
O297 O 0.9348 0.53191 0.8044 0.0
Cd298 Cd 0.9155 0.53318 0.77828 0.0
C299 C 0.91448 0.4879 0.76532 0.0
O300 O 0.93607 0.5429 0.75877 0.0
O301 O 0.90951 0.53182 0.74545 0.0
O302 O 0.91198 0.56222 0.7927 0.0
C303 C 0.92566 0.53749 0.7439 0.0
O304 O 0.92926 0.49206 0.75922 0.0
C305 C 0.89538 0.55795 0.78844 0.0
O306 O 0.90751 0.50008 0.77383 0.0
O307 O 0.88782 0.54084 0.78208 0.0
C308 C 0.83549 0.44305 0.50572 0.0
O309 O 0.82934 0.45739 0.50741 0.0
Cd310 Cd 0.80477 0.44988 0.48415 0.0
O311 O 0.82633 0.42783 0.4962 0.0
Cd312 Cd 0.79509 0.42017 0.49938 0.0
C313 C 0.79961 0.40611 0.45844 0.0
O314 O 0.78147 0.44658 0.50257 0.0
O315 O 0.7646 0.4184 0.49337 0.0
O316 O 0.80263 0.42403 0.53194 0.0
C317 C 0.76617 0.43571 0.49929 0.0
O318 O 0.8063 0.42354 0.45999 0.0
C319 C 0.79937 0.4066 0.53184 0.0
O320 O 0.79198 0.3997 0.47118 0.0
O321 O 0.7931 0.39543 0.51671 0.0
C322 C 0.63146 0.51351 0.30354 0.0
O323 O 0.62384 0.52264 0.29385 0.0
Cd324 Cd 0.63155 0.52816 0.26354 0.0
O325 O 0.64378 0.50636 0.29683 0.0
Cd326 Cd 0.65976 0.50426 0.26414 0.0
C327 C 0.67394 0.55512 0.26587 0.0
O328 O 0.63158 0.50075 0.24099 0.0
O329 O 0.65588 0.50816 0.23016 0.0
O330 O 0.66179 0.46852 0.2594 0.0
C331 C 0.6392 0.50431 0.22703 0.0
O332 O 0.65743 0.5539 0.26368 0.0
C333 C 0.6784 0.47047 0.26194 0.0
O334 O 0.67932 0.54029 0.26796 0.0
O335 O 0.68678 0.48766 0.26552 0.0
Gd336 Gd 0.02155 0.0214 1.00102 0.0
Gd337 Gd 0.05551 0.04154 0.02348 0.0
C338 C 0.03483 0.06649 0.00425 0.0
C339 C 0.9883 0.00999 0.99033 0.0
C340 C 0.97458 0.02021 0.99199 0.0
C341 C 0.95929 0.01451 0.97935 0.0
C342 C 0.97797 0.03732 0.00434 0.0
C343 C 0.95105 0.04329 0.99103 0.0
C344 C 0.9663 0.0488 0.00385 0.0
C345 C 0.94752 0.02595 0.97891 0.0
C346 C 0.04621 0.01994 0.97655 0.0
C347 C 0.04225 0.99642 0.02079 0.0
C348 C 0.08883 0.05291 0.03397 0.0
C349 C 0.10221 0.04223 0.03348 0.0
C350 C 0.11807 0.04904 0.04516 0.0
C351 C 0.09817 0.02408 0.023 0.0
C352 C 0.12581 0.01945 0.03595 0.0
C353 C 0.10982 0.01271 0.02432 0.0
C354 C 0.12989 0.03776 0.04631 0.0
C355 C 0.03092 0.04398 0.04776 0.0
O356 O 0.02136 0.05171 1.00075 0.0
O357 O 0.05027 0.06576 0.01191 0.0
O358 O 0.99974 0.01621 0.97968 0.0
O359 O 0.99561 0.0069 0.00568 0.0
O360 O 0.02972 0.01161 0.97322 0.0
O361 O 0.04937 0.02773 0.9937 0.0
O362 O 0.05503 0.0117 0.02612 0.0
O363 O 0.02748 0.9965 0.01109 0.0
O364 O 0.07734 0.04825 0.04508 0.0
O365 O 0.08161 0.05457 0.01798 0.0
O366 O 0.04738 0.05251 0.05079 0.0
O367 O 0.02755 0.03577 0.03072 0.0
H368 H 0.9567 1.00149 0.96951 0.0
H369 H 0.98992 0.04209 0.01397 0.0
H370 H 0.96942 0.06217 0.01321 0.0
H371 H 0.9357 0.02126 0.9691 0.0
H372 H 0.12118 0.06295 0.05352 0.0
H373 H 0.08585 0.01855 0.01405 0.0
H374 H 0.10624 0.99861 0.01633 0.0
H375 H 0.14227 0.04343 0.05512 0.0
Gd376 Gd 0.29537 0.77741 0.2416 0.0
Gd377 Gd 0.27922 0.78799 0.28038 0.0
C378 C 0.2965 0.82024 0.25913 0.0
C379 C 0.30011 0.77167 0.20764 0.0
C380 C 0.30723 0.78489 0.19611 0.0
C381 C 0.31865 0.78027 0.18361 0.0
C382 C 0.30362 0.80266 0.19838 0.0
C383 C 0.32166 0.81048 0.17468 0.0
C384 C 0.31085 0.81541 0.18774 0.0
C385 C 0.32573 0.79298 0.1728 0.0
C386 C 0.31977 0.78296 0.27206 0.0
C387 C 0.27816 0.74491 0.26202 0.0
C388 C 0.27394 0.79361 0.31427 0.0
C389 C 0.26594 0.77949 0.3245 0.0
C390 C 0.25612 0.78368 0.33883 0.0
C391 C 0.26712 0.76106 0.31882 0.0
C392 C 0.25062 0.75131 0.34286 0.0
C393 C 0.25909 0.747 0.32746 0.0
C394 C 0.24863 0.76963 0.34818 0.0
C395 C 0.25464 0.78179 0.2502 0.0
O396 O 0.2973 0.80781 0.24455 0.0
O397 O 0.29171 0.8161 0.27493 0.0
O398 O 0.31152 0.77009 0.2208 0.0
O399 O 0.2848 0.77264 0.21294 0.0
O400 O 0.32312 0.77939 0.25522 0.0
O401 O 0.30396 0.78404 0.27125 0.0
O402 O 0.27714 0.75721 0.27666 0.0
O403 O 0.28278 0.74926 0.2463 0.0
O404 O 0.26316 0.79613 0.30104 0.0
O405 O 0.28927 0.79228 0.30921 0.0
O406 O 0.25133 0.78528 0.26705 0.0
O407 O 0.27056 0.78116 0.25085 0.0
H408 H 0.32186 0.76678 0.18204 0.0
H409 H 0.29502 0.8066 0.20815 0.0
H410 H 0.30733 0.82875 0.18909 0.0
H411 H 0.33399 0.78901 0.16264 0.0
H412 H 0.25474 0.7978 0.3431 0.0
H413 H 0.2748 0.75759 0.3081 0.0
H414 H 0.26055 0.73295 0.32286 0.0
H415 H 0.2422 0.7733 0.36011 0.0
Gd416 Gd 0.55781 0.03065 0.51235 0.0
Gd417 Gd 0.51741 0.02838 0.51275 0.0
C418 C 0.52915 0.9902 0.50776 0.0
C419 C 0.58954 0.02627 0.51758 0.0
C420 C 0.59974 0.01191 0.51275 0.0
C421 C 0.60872 0.01161 0.49711 0.0
C422 C 0.60179 0.99934 0.5245 0.0
C423 C 0.62216 0.98713 0.50557 0.0
C424 C 0.61281 0.98712 0.52094 0.0
C425 C 0.61971 0.99936 0.49354 0.0
C426 C 0.5388 0.02758 0.47988 0.0
C427 C 0.54585 0.06884 0.51718 0.0
C428 C 0.48582 0.03307 0.50785 0.0
C429 C 0.47645 0.04823 0.51177 0.0
C430 C 0.47128 0.05324 0.52923 0.0
C431 C 0.47164 0.0571 0.49752 0.0
C432 C 0.45614 0.07516 0.51784 0.0
C433 C 0.46167 0.07039 0.50052 0.0
C434 C 0.46127 0.06656 0.53223 0.0
C435 C 0.53623 0.03082 0.54492 0.0
O436 O 0.54546 1.00029 0.5135 0.0
O437 O 0.5161 0.99796 0.50361 0.0
O438 O 0.58403 0.03396 0.50427 0.0
O439 O 0.57812 0.02332 0.52933 0.0
O440 O 0.55514 0.03681 0.48346 0.0
O441 O 0.53412 0.01965 0.49279 0.0
O442 O 0.52961 0.05864 0.51141 0.0
O443 O 0.55894 0.06113 0.5214 0.0
O444 O 0.49167 0.02647 0.52182 0.0
O445 O 0.49672 0.03462 0.49546 0.0
O446 O 0.5201 0.02103 0.54099 0.0
O447 O 0.54106 0.03942 0.53246 0.0
H448 H 0.60758 0.02114 0.48779 0.0
H449 H 0.59527 0.99928 0.53678 0.0
H450 H 0.6145 0.97817 0.53071 0.0
H451 H 0.62646 0.99965 0.48142 0.0
H452 H 0.4747 0.04667 0.54054 0.0
H453 H 0.47522 0.05344 0.48386 0.0
H454 H 0.45774 0.07641 0.48899 0.0
H455 H 0.45743 0.07002 0.5458 0.0
Gd456 Gd 0.27037 0.28668 0.76041 0.0
Gd457 Gd 0.3092 0.27829 0.76273 0.0
C458 C 0.29429 0.2927 0.80016 0.0
C459 C 0.23703 0.28218 0.76315 0.0
C460 C 0.22492 0.28527 0.77715 0.0
C461 C 0.2179 0.30112 0.77906 0.0
C462 C 0.21905 0.27153 0.78765 0.0
C463 C 0.1989 0.289 0.801 0.0
C464 C 0.20628 0.27339 0.79942 0.0
C465 C 0.20511 0.303 0.79087 0.0
C466 C 0.29635 0.31908 0.76089 0.0
C467 C 0.28551 0.27236 0.72294 0.0
C468 C 0.34234 0.28291 0.75922 0.0
C469 C 0.35363 0.27901 0.7446 0.0
C470 C 0.36074 0.26323 0.7431 0.0
C471 C 0.35841 0.29176 0.73281 0.0
C472 C 0.37774 0.27349 0.71892 0.0
C473 C 0.37026 0.28903 0.72016 0.0
C474 C 0.37259 0.26047 0.73039 0.0
C475 C 0.28366 0.24549 0.76194 0.0
O476 O 0.27898 0.29191 0.79076 0.0
O477 O 0.30805 0.28878 0.79264 0.0
O478 O 0.24645 0.29674 0.7578 0.0
O479 O 0.24568 0.26934 0.76467 0.0
O480 O 0.2796 0.31822 0.76031 0.0
O481 O 0.29784 0.3025 0.76136 0.0
O482 O 0.30074 0.27331 0.73254 0.0
O483 O 0.27165 0.2762 0.73038 0.0
O484 O 0.33333 0.26873 0.76547 0.0
O485 O 0.33357 0.29565 0.75758 0.0
O486 O 0.30054 0.24703 0.76286 0.0
O487 O 0.28154 0.26196 0.7615 0.0
H488 H 0.22201 0.31193 0.77112 0.0
H489 H 0.22396 0.259 0.78642 0.0
H490 H 0.20174 0.2622 0.80678 0.0
H491 H 0.19997 0.31537 0.79192 0.0
H492 H 0.35743 0.25316 0.752 0.0
H493 H 0.35337 0.30419 0.73365 0.0
H494 H 0.37405 0.29955 0.71183 0.0
H495 H 0.37785 0.24819 0.7297 0.0
Gd496 Gd 0.03794 0.05188 0.52057 0.0
Gd497 Gd 0.04354 0.01082 0.5025 0.0
C498 C 0.02661 0.03488 0.47532 0.0
C499 C 0.04304 0.08757 0.52834 0.0
C500 C 0.04399 0.10139 0.51629 0.0
C501 C 0.03559 0.11599 0.52018 0.0
C502 C 0.05152 0.09893 0.49983 0.0
C503 C 0.04233 0.12569 0.49136 0.0
C504 C 0.05077 0.11104 0.48751 0.0
C505 C 0.03476 0.12807 0.50781 0.0
C506 C 0.00945 0.02356 0.52183 0.0
C507 C 0.05468 0.02781 0.54784 0.0
C508 C 0.03995 0.97533 0.49489 0.0
C509 C 0.04032 0.96248 0.50775 0.0
C510 C 0.0458 0.94598 0.50272 0.0
C511 C 0.037 0.96774 0.52589 0.0
C512 C 0.04387 0.93969 0.53377 0.0
C513 C 0.0389 0.95657 0.53881 0.0
C514 C 0.04746 0.93457 0.51562 0.0
C515 C 0.07149 0.03964 0.50119 0.0
O516 O 0.02953 0.04926 0.48953 0.0
O517 O 0.0302 0.01852 0.47713 0.0
O518 O 0.02749 0.0762 0.5271 0.0
O519 O 0.05599 0.07912 0.52891 0.0
O520 O 0.0104 0.04116 0.52786 0.0
O521 O 0.02401 0.02255 0.51632 0.0
O522 O 0.05184 0.01353 0.53357 0.0
O523 O 0.05117 0.04418 0.54601 0.0
O524 O 0.055 0.98732 0.49536 0.0
O525 O 0.02646 0.98299 0.49456 0.0
O526 O 0.07138 0.0222 0.49563 0.0
O527 O 0.05682 0.03994 0.50648 0.0
H528 H 0.02943 0.11785 0.53265 0.0
H529 H 0.05767 0.08744 0.49632 0.0
H530 H 0.05653 0.10875 0.47484 0.0
H531 H 0.02833 0.13936 0.5112 0.0
H532 H 0.04879 0.94194 0.48887 0.0
H533 H 0.03303 0.98057 0.53015 0.0
H534 H 0.03636 0.96112 0.55274 0.0
H535 H 0.0511 0.92154 0.51123 0.0
Gd536 Gd 0.30705 0.79658 0.76104 0.0
Gd537 Gd 0.27244 0.76799 0.75451 0.0
C538 C 0.30941 0.75288 0.75944 0.0
C539 C 0.33519 0.82214 0.77325 0.0
C540 C 0.35246 0.81962 0.77972 0.0
C541 C 0.36745 0.82827 0.77257 0.0
C542 C 0.35367 0.80641 0.79094 0.0
C543 C 0.38458 0.81062 0.78793 0.0
C544 C 0.36963 0.80207 0.79514 0.0
C545 C 0.38345 0.82373 0.77659 0.0
C546 C 0.2974 0.77947 0.72619 0.0
C547 C 0.27001 0.81184 0.75679 0.0
C548 C 0.24397 0.7427 0.74255 0.0
C549 C 0.22568 0.74418 0.74174 0.0
C550 C 0.21929 0.75255 0.75732 0.0
C551 C 0.21564 0.74045 0.72444 0.0
C552 C 0.19406 0.75522 0.73789 0.0
C553 C 0.2 0.74605 0.7225 0.0
C554 C 0.20343 0.75789 0.7554 0.0
C555 C 0.28249 0.78492 0.78945 0.0
O556 O 0.3179 0.77085 0.76507 0.0
O557 O 0.29218 0.74872 0.75345 0.0
O558 O 0.33019 0.81584 0.75567 0.0
O559 O 0.32266 0.81763 0.78347 0.0
O560 O 0.31363 0.78449 0.73362 0.0
O561 O 0.28723 0.78471 0.73702 0.0
O562 O 0.26111 0.79393 0.75342 0.0
O563 O 0.28758 0.81601 0.76028 0.0
O564 O 0.25251 0.74444 0.75893 0.0
O565 O 0.25309 0.75228 0.73185 0.0
O566 O 0.26625 0.78039 0.78196 0.0
O567 O 0.29243 0.77945 0.77848 0.0
H568 H 0.36666 0.83813 0.7635 0.0
H569 H 0.34222 0.79898 0.79607 0.0
H570 H 0.37022 0.79174 0.80372 0.0
H571 H 0.39494 0.83048 0.77095 0.0
H572 H 0.22691 0.75584 0.7708 0.0
H573 H 0.22044 0.73421 0.71226 0.0
H574 H 0.19274 0.74364 0.7089 0.0
H575 H 0.19892 0.76487 0.7674 0.0
Gd576 Gd 0.5421 0.03457 0.02905 0.0
Gd577 Gd 0.53528 0.0296 0.98786 0.0
C578 C 0.5028 0.01822 0.00768 0.0
C579 C 0.54235 0.04184 0.06406 0.0
C580 C 0.53193 0.03243 0.07682 0.0
C581 C 0.53668 0.01754 0.08377 0.0
C582 C 0.5169 0.03809 0.08192 0.0
C583 C 0.51227 0.01509 0.10157 0.0
C584 C 0.5072 0.02955 0.09431 0.0
C585 C 0.52677 0.00879 0.09599 0.0
C586 C 0.54413 1.00113 0.01053 0.0
C587 C 0.57457 0.04403 0.00904 0.0
C588 C 0.53731 0.02553 0.95333 0.0
C589 C 0.55 0.03751 0.94418 0.0
C590 C 0.54746 0.05487 0.94106 0.0
C591 C 0.56579 0.0327 0.94048 0.0
C592 C 0.57608 0.06216 0.93042 0.0
C593 C 0.57873 0.04494 0.93377 0.0
C594 C 0.56039 0.06708 0.93426 0.0
C595 C 0.53362 0.063 0.00706 0.0
O596 O 0.51256 0.02859 0.02276 0.0
O597 O 0.50967 0.01321 0.99265 0.0
O598 O 0.55305 0.03287 0.05612 0.0
O599 O 0.53401 0.04977 0.05283 0.0
O600 O 0.5544 0.0099 0.02537 0.0
O601 O 0.53294 0.00991 0.00682 0.0
O602 O 0.56458 0.03374 0.99413 0.0
O603 O 0.56776 0.05014 0.02368 0.0
O604 O 0.52567 0.03332 0.96092 0.0
O605 O 0.54396 0.01558 0.96375 0.0
O606 O 0.52265 0.05406 0.99277 0.0
O607 O 0.54487 0.05411 0.01006 0.0
H608 H 0.54811 0.01273 0.07993 0.0
H609 H 0.51279 0.04932 0.07658 0.0
H610 H 0.49586 0.0344 0.09845 0.0
H611 H 0.53072 0.99758 0.10152 0.0
H612 H 0.53554 0.05914 0.94398 0.0
H613 H 0.5682 0.01951 0.94289 0.0
H614 H 0.59054 0.0406 0.93058 0.0
H615 H 0.55801 0.08023 0.9317 0.0
Gd616 Gd 0.29287 0.29717 0.26646 0.0
Gd617 Gd 0.27807 0.25852 0.24997 0.0
C618 C 0.25104 0.28051 0.26166 0.0
C619 C 0.30002 0.3329 0.2765 0.0
C620 C 0.28869 0.34601 0.27867 0.0
C621 C 0.28801 0.3558 0.2963 0.0
C622 C 0.27752 0.34776 0.26362 0.0
C623 C 0.26536 0.36924 0.2838 0.0
C624 C 0.26605 0.35939 0.26615 0.0
C625 C 0.27633 0.36722 0.29888 0.0
C626 C 0.29396 0.27458 0.29129 0.0
C627 C 0.31972 0.27419 0.25644 0.0
C628 C 0.27147 0.22299 0.2383 0.0
C629 C 0.28303 0.21008 0.2375 0.0
C630 C 0.28515 0.20031 0.22035 0.0
C631 C 0.29326 0.20876 0.25345 0.0
C632 C 0.30757 0.18802 0.23506 0.0
C633 C 0.30532 0.19771 0.25225 0.0
C634 C 0.29739 0.1894 0.21912 0.0
C635 C 0.27814 0.28201 0.22573 0.0
O636 O 0.26379 0.29534 0.26163 0.0
O637 O 0.25383 0.26373 0.2598 0.0
O638 O 0.29873 0.32152 0.28818 0.0
O639 O 0.30068 0.32466 0.25969 0.0
O640 O 0.30654 0.28871 0.29015 0.0
O641 O 0.28108 0.27287 0.27912 0.0
O642 O 0.30667 0.25972 0.25653 0.0
O643 O 0.31719 0.29105 0.25746 0.0
O644 O 0.27454 0.23513 0.22746 0.0
O645 O 0.26863 0.23036 0.25467 0.0
O646 O 0.26481 0.26863 0.22681 0.0
O647 O 0.2907 0.28265 0.23778 0.0
H648 H 0.29635 0.35441 0.30812 0.0
H649 H 0.27758 0.34017 0.24988 0.0
H650 H 0.25803 0.36095 0.25418 0.0
H651 H 0.27593 0.37448 0.31266 0.0
H652 H 0.27757 0.20141 0.20787 0.0
H653 H 0.29209 0.21635 0.26686 0.0
H654 H 0.3127 0.19657 0.26485 0.0
H655 H 0.29896 0.18215 0.2057 0.0
Gd656 Gd 0.53889 0.55262 0.02017 0.0
Gd657 Gd 0.54413 0.51121 0.0036 0.0
C658 C 0.5273 0.53435 0.97539 0.0
C659 C 0.54218 0.58815 0.02646 0.0
C660 C 0.5404 0.60099 0.01371 0.0
C661 C 0.527 0.61058 0.01489 0.0
C662 C 0.55114 0.60283 0.99957 0.0
C663 C 0.53555 0.62438 0.98854 0.0
C664 C 0.54878 0.61449 0.98717 0.0
C665 C 0.52452 0.62207 0.00236 0.0
C666 C 0.51008 0.52462 0.02155 0.0
C667 C 0.5557 0.52971 0.04843 0.0
C668 C 0.5401 0.47556 0.99602 0.0
C669 C 0.53998 0.46102 0.00727 0.0
C670 C 0.5548 0.4536 0.00939 0.0
C671 C 0.52554 0.45491 0.01651 0.0
C672 C 0.54076 0.43431 0.02981 0.0
C673 C 0.526 0.44183 0.02781 0.0
C674 C 0.55521 0.4404 0.02061 0.0
C675 C 0.57293 0.53875 0.00145 0.0
O676 O 0.53022 0.54912 0.98912 0.0
O677 O 0.53093 0.51818 0.97774 0.0
O678 O 0.52761 0.57625 0.02793 0.0
O679 O 0.55566 0.58061 0.02566 0.0
O680 O 0.51097 0.54224 0.02702 0.0
O681 O 0.52476 0.52354 0.01653 0.0
O682 O 0.55179 0.51455 0.03496 0.0
O683 O 0.55299 0.54617 0.04576 0.0
O684 O 0.5553 0.48748 0.99705 0.0
O685 O 0.52676 0.48347 0.99595 0.0
O686 O 0.57135 0.5211 0.9953 0.0
O687 O 0.55877 0.54035 0.00765 0.0
H688 H 0.51836 0.60909 0.02547 0.0
H689 H 0.56141 0.59536 0.9981 0.0
H690 H 0.55768 0.61615 0.97686 0.0
H691 H 0.51402 0.62925 0.00359 0.0
H692 H 0.5661 0.45803 0.00236 0.0
H693 H 0.51387 0.46016 0.01506 0.0
H694 H 0.51476 0.43756 0.03496 0.0
H695 H 0.56667 0.43468 0.02175 0.0
Gd696 Gd 0.80757 0.29759 0.25864 0.0
Gd697 Gd 0.77239 0.26611 0.25562 0.0
C698 C 0.80977 0.25292 0.26063 0.0
C699 C 0.83819 0.31971 0.26728 0.0
C700 C 0.85477 0.31635 0.27437 0.0
C701 C 0.87029 0.32454 0.26788 0.0
C702 C 0.85488 0.30327 0.28595 0.0
C703 C 0.886 0.30673 0.28465 0.0
C704 C 0.87044 0.29856 0.29114 0.0
C705 C 0.88587 0.31973 0.27299 0.0
C706 C 0.79156 0.28025 0.22513 0.0
C707 C 0.77047 0.31129 0.25671 0.0
C708 C 0.74411 0.24246 0.24045 0.0
C709 C 0.72589 0.24384 0.23983 0.0
C710 C 0.71968 0.25229 0.25546 0.0
C711 C 0.71588 0.2402 0.22259 0.0
C712 C 0.69438 0.25497 0.23614 0.0
C713 C 0.70024 0.24575 0.22072 0.0
C714 C 0.70385 0.25769 0.25362 0.0
C715 C 0.78263 0.28407 0.29061 0.0
O716 O 0.8181 0.27123 0.26342 0.0
O717 O 0.79226 0.24764 0.25652 0.0
O718 O 0.83222 0.31086 0.25042 0.0
O719 O 0.8261 0.31891 0.27848 0.0
O720 O 0.79915 0.29801 0.22865 0.0
O721 O 0.79342 0.27316 0.23905 0.0
O722 O 0.76209 0.29299 0.25276 0.0
O723 O 0.78796 0.31635 0.26081 0.0
O724 O 0.75205 0.24153 0.25648 0.0
O725 O 0.7536 0.25412 0.2316 0.0
O726 O 0.76835 0.27077 0.28593 0.0
O727 O 0.78986 0.28647 0.27658 0.0
H728 H 0.87027 0.33437 0.25865 0.0
H729 H 0.8429 0.29644 0.29073 0.0
H730 H 0.87029 0.28836 0.30001 0.0
H731 H 0.89783 0.3263 0.26799 0.0
H732 H 0.72743 0.25562 0.26887 0.0
H733 H 0.72077 0.23415 0.21044 0.0
H734 H 0.69293 0.24326 0.20712 0.0
H735 H 0.69945 0.26473 0.26565 0.0
Gd736 Gd 0.03771 0.53321 0.52936 0.0
Gd737 Gd 0.03797 0.53105 0.48952 0.0
C738 C 0.00205 0.52579 0.50341 0.0
C739 C 0.03017 0.53592 0.56227 0.0
C740 C 0.01925 0.52136 0.57034 0.0
C741 C 0.02628 0.50736 0.57641 0.0
C742 C 0.00138 0.52073 0.57113 0.0
C743 C 0.99874 0.49476 0.58735 0.0
C744 C 0.99125 0.50771 0.57975 0.0
C745 C 0.01602 0.49399 0.58458 0.0
C746 C 0.0367 0.4986 0.51044 0.0
C747 C 0.07392 0.54011 0.51652 0.0
C748 C 0.04492 0.52823 0.45648 0.0
C749 C 0.05615 0.54293 0.44883 0.0
C750 C 0.04918 0.55689 0.44256 0.0
C751 C 0.07419 0.54385 0.44879 0.0
C752 C 0.07714 0.56999 0.43293 0.0
C753 C 0.08467 0.55743 0.44101 0.0
C754 C 0.05966 0.57042 0.43477 0.0
C755 C 0.03847 0.56556 0.50809 0.0
O756 O 0.01166 0.53683 0.51806 0.0
O757 O 0.00983 0.51784 0.4904 0.0
O758 O 0.04526 0.53306 0.55798 0.0
O759 O 0.02185 0.54236 0.54972 0.0
O760 O 0.0452 0.50538 0.52665 0.0
O761 O 0.02848 0.50984 0.50565 0.0
O762 O 0.06516 0.52973 0.501 0.0
O763 O 0.0655 0.54715 0.52936 0.0
O764 O 0.03007 0.53153 0.46108 0.0
O765 O 0.05297 0.52107 0.46863 0.0
O766 O 0.03007 0.55853 0.49188 0.0
O767 O 0.04694 0.55455 0.51304 0.0
H768 H 0.03985 0.50697 0.57533 0.0
H769 H 0.99533 0.53066 0.5656 0.0
H770 H 0.97798 0.50877 0.58159 0.0
H771 H 0.02199 0.48386 0.58989 0.0
H772 H 0.03543 0.55691 0.44286 0.0
H773 H 0.08006 0.53359 0.45399 0.0
H774 H 0.09809 0.55672 0.43943 0.0
H775 H 0.05362 0.57989 0.42835 0.0
Gd776 Gd 0.77012 0.78598 0.26057 0.0
Gd777 Gd 0.8089 0.77776 0.26224 0.0
C778 C 0.79487 0.79238 0.29995 0.0
C779 C 0.73716 0.78117 0.26516 0.0
C780 C 0.72583 0.78617 0.2794 0.0
C781 C 0.71632 0.7998 0.27772 0.0
C782 C 0.7231 0.77617 0.29387 0.0
C783 C 0.70081 0.79243 0.30384 0.0
C784 C 0.71081 0.77927 0.30591 0.0
C785 C 0.70404 0.80294 0.28981 0.0
C786 C 0.79534 0.81885 0.2606 0.0
C787 C 0.78445 0.77135 0.22284 0.0
C788 C 0.84195 0.78149 0.25829 0.0
C789 C 0.85327 0.77829 0.24354 0.0
C790 C 0.85814 0.76122 0.23921 0.0
C791 C 0.86043 0.79291 0.23455 0.0
C792 C 0.87752 0.77375 0.21776 0.0
C793 C 0.87233 0.79067 0.22186 0.0
C794 C 0.87006 0.75896 0.22646 0.0
C795 C 0.78324 0.74522 0.26248 0.0
O796 O 0.77959 0.79205 0.29079 0.0
O797 O 0.80839 0.78817 0.29223 0.0
O798 O 0.74535 0.79434 0.25704 0.0
O799 O 0.74665 0.76945 0.26841 0.0
O800 O 0.77844 0.81714 0.25985 0.0
O801 O 0.79766 0.80249 0.26128 0.0
O802 O 0.79992 0.77256 0.23208 0.0
O803 O 0.77066 0.77493 0.23057 0.0
O804 O 0.83239 0.7669 0.26342 0.0
O805 O 0.83373 0.79483 0.25778 0.0
O806 O 0.80012 0.74669 0.26398 0.0
O807 O 0.78145 0.76159 0.26127 0.0
H808 H 0.71802 0.8077 0.26672 0.0
H809 H 0.73002 0.76543 0.29557 0.0
H810 H 0.7086 0.77071 0.31633 0.0
H811 H 0.69682 0.81339 0.28792 0.0
H812 H 0.853 0.74968 0.24593 0.0
H813 H 0.85719 0.80634 0.23768 0.0
H814 H 0.87796 0.80252 0.21577 0.0
H815 H 0.87353 0.74564 0.22353 0.0
Gd816 Gd 0.79744 0.27944 0.74487 0.0
Gd817 Gd 0.78177 0.28783 0.78017 0.0
C818 C 0.79592 0.32153 0.76196 0.0
C819 C 0.81209 0.27959 0.71522 0.0
C820 C 0.81589 0.29288 0.70289 0.0
C821 C 0.83294 0.29757 0.69806 0.0
C822 C 0.8034 0.30235 0.69748 0.0
C823 C 0.82499 0.3209 0.68211 0.0
C824 C 0.80787 0.31615 0.68701 0.0
C825 C 0.8375 0.31156 0.68785 0.0
C826 C 0.81699 0.27644 0.77561 0.0
C827 C 0.77497 0.24597 0.75801 0.0
C828 C 0.77573 0.28979 0.81385 0.0
C829 C 0.76382 0.27638 0.82214 0.0
C830 C 0.7587 0.28175 0.8394 0.0
C831 C 0.75871 0.25756 0.81332 0.0
C832 C 0.74657 0.24905 0.84034 0.0
C833 C 0.7501 0.24398 0.82229 0.0
C834 C 0.75003 0.26809 0.8485 0.0
C835 C 0.75586 0.28394 0.75166 0.0
O836 O 0.79562 0.30921 0.74693 0.0
O837 O 0.79385 0.31671 0.77799 0.0
O838 O 0.82083 0.28552 0.73168 0.0
O839 O 0.79555 0.27118 0.71527 0.0
O840 O 0.81338 0.26434 0.76037 0.0
O841 O 0.8093 0.28952 0.7743 0.0
O842 O 0.77849 0.25707 0.7742 0.0
O843 O 0.7793 0.25168 0.74284 0.0
O844 O 0.76823 0.29817 0.80246 0.0
O845 O 0.78892 0.28378 0.80762 0.0
O846 O 0.75372 0.28672 0.76887 0.0
O847 O 0.77142 0.28248 0.75043 0.0
H848 H 0.84282 0.29063 0.70253 0.0
H849 H 0.79026 0.2992 0.70142 0.0
H850 H 0.79783 0.32285 0.68251 0.0
H851 H 0.85084 0.31511 0.68451 0.0
H852 H 0.76236 0.29626 0.84628 0.0
H853 H 0.76244 0.25314 0.80004 0.0
H854 H 0.74754 0.22938 0.81574 0.0
H855 H 0.74749 0.27228 0.8625 0.0
Gd856 Gd 0.79511 0.79847 0.76926 0.0
Gd857 Gd 0.78021 0.76005 0.75131 0.0
C858 C 0.7531 0.78228 0.76218 0.0
C859 C 0.80233 0.83382 0.78191 0.0
C860 C 0.79136 0.84705 0.78173 0.0
C861 C 0.79394 0.86224 0.79631 0.0
C862 C 0.77728 0.8436 0.76772 0.0
C863 C 0.76882 0.87101 0.78239 0.0
C864 C 0.76603 0.85548 0.76808 0.0
C865 C 0.78269 0.87425 0.79663 0.0
C866 C 0.79598 0.77432 0.7925 0.0
C867 C 0.82201 0.77687 0.7561 0.0
C868 C 0.77352 0.72438 0.74012 0.0
C869 C 0.78481 0.71133 0.73767 0.0
C870 C 0.77945 0.69517 0.72403 0.0
C871 C 0.80122 0.71519 0.74846 0.0
C872 C 0.80639 0.68633 0.73256 0.0
C873 C 0.812 0.70277 0.74585 0.0
C874 C 0.79014 0.68262 0.72158 0.0
C875 C 0.77995 0.78449 0.72802 0.0
O876 O 0.76623 0.79699 0.76294 0.0
O877 O 0.75567 0.76539 0.76035 0.0
O878 O 0.79749 0.82131 0.79204 0.0
O879 O 0.80601 0.82675 0.76582 0.0
O880 O 0.8089 0.78818 0.79159 0.0
O881 O 0.78313 0.77349 0.78066 0.0
O882 O 0.80917 0.76195 0.75521 0.0
O883 O 0.81957 0.79377 0.75946 0.0
O884 O 0.775 0.73625 0.72892 0.0
O885 O 0.77294 0.73211 0.75712 0.0
O886 O 0.76713 0.77018 0.72807 0.0
O887 O 0.7925 0.78499 0.74003 0.0
H888 H 0.8046 0.86478 0.80737 0.0
H889 H 0.77493 0.8317 0.75652 0.0
H890 H 0.75523 0.85261 0.75711 0.0
H891 H 0.78507 0.88626 0.80772 0.0
H892 H 0.76691 0.69216 0.71548 0.0
H893 H 0.80557 0.72757 0.75911 0.0
H894 H 0.82436 0.70561 0.7547 0.0
H895 H 0.78562 0.66987 0.71138 0.0
Gd896 Gd 0.5211 0.5221 0.50206 0.0
Gd897 Gd 0.55676 0.54177 0.52397 0.0
C898 C 0.5357 0.56716 0.50484 0.0
C899 C 0.48751 0.51228 0.49328 0.0
C900 C 0.47464 0.52345 0.49072 0.0
C901 C 0.46435 0.52025 0.47362 0.0
C902 C 0.47347 0.53825 0.50457 0.0
C903 C 0.45131 0.54595 0.48439 0.0
C904 C 0.46182 0.54932 0.50146 0.0
C905 C 0.45286 0.53146 0.47043 0.0
C906 C 0.54517 0.52027 0.47693 0.0
C907 C 0.54245 0.49674 0.52047 0.0
C908 C 0.59015 0.55326 0.5341 0.0
C909 C 0.60431 0.54355 0.53399 0.0
C910 C 0.61912 0.5505 0.5472 0.0
C911 C 0.6021 0.52613 0.52241 0.0
C912 C 0.6295 0.52263 0.53738 0.0
C913 C 0.61464 0.51575 0.52407 0.0
C914 C 0.63167 0.54013 0.54888 0.0
C915 C 0.53192 0.54273 0.54857 0.0
O916 O 0.52255 0.55217 0.49956 0.0
O917 O 0.55058 0.56678 0.51421 0.0
O918 O 0.49854 0.51235 0.48112 0.0
O919 O 0.49503 0.51382 0.51006 0.0
O920 O 0.52855 0.51224 0.47406 0.0
O921 O 0.54882 0.52791 0.49417 0.0
O922 O 0.55627 0.51118 0.52341 0.0
O923 O 0.5268 0.49782 0.51355 0.0
O924 O 0.57879 0.54824 0.54525 0.0
O925 O 0.58276 0.55467 0.51806 0.0
O926 O 0.54853 0.55052 0.55238 0.0
O927 O 0.52934 0.53564 0.53135 0.0
H928 H 0.46531 0.50914 0.46265 0.0
H929 H 0.48149 0.54126 0.51782 0.0
H930 H 0.46071 0.56016 0.51263 0.0
H931 H 0.44508 0.52867 0.45707 0.0
H932 H 0.62075 0.56372 0.55652 0.0
H933 H 0.59053 0.52041 0.51235 0.0
H934 H 0.61277 0.50241 0.51489 0.0
H935 H 0.64292 0.54563 0.55938 0.0
Gd936 Gd 0.05911 0.53219 0.01006 0.0
Gd937 Gd 0.01834 0.52821 0.01225 0.0
C938 C 0.03178 0.49095 0.00549 0.0
C939 C 0.09131 0.52885 0.01254 0.0
C940 C 0.10139 0.51414 0.00978 0.0
C941 C 0.10718 0.50889 0.99266 0.0
C942 C 0.10668 0.50639 0.02471 0.0
C943 C 0.12428 0.48962 0.00588 0.0
C944 C 0.11793 0.49427 0.02277 0.0
C945 C 0.11841 0.49668 0.99071 0.0
C946 C 0.03863 0.53057 0.97901 0.0
C947 C 0.04608 0.5696 0.01793 0.0
C948 C 0.98662 0.53243 0.0076 0.0
C949 C 0.97698 0.54704 0.01309 0.0
C950 C 0.96421 0.54399 0.02512 0.0
C951 C 0.97952 0.56348 0.00564 0.0
C952 C 0.95564 0.5726 0.02088 0.0
C953 C 0.96899 0.57613 0.00953 0.0
C954 C 0.95371 0.55663 0.02902 0.0
C955 C 0.03773 0.5289 0.04336 0.0
O956 O 0.048 0.50157 0.01035 0.0
O957 O 0.01793 0.49801 0.00283 0.0
O958 O 0.08323 0.53242 0.99786 0.0
O959 O 0.08226 0.52958 0.02658 0.0
O960 O 0.05466 0.54076 0.98255 0.0
O961 O 0.03484 0.52136 0.99131 0.0
O962 O 0.0298 0.55908 0.01341 0.0
O963 O 0.0599 0.56238 0.01993 0.0
O964 O 0.99218 0.52442 0.02061 0.0
O965 O 0.99786 0.53555 0.99573 0.0
O966 O 0.0211 0.52078 0.04028 0.0
O967 O 0.04247 0.53829 0.03135 0.0
H968 H 0.1035 0.51469 0.98088 0.0
H969 H 0.10257 0.51012 0.0381 0.0
H970 H 0.122 0.48885 0.03467 0.0
H971 H 0.12314 0.49346 0.97755 0.0
H972 H 0.962 0.53152 0.03114 0.0
H973 H 0.98927 0.56632 0.99635 0.0
H974 H 0.97077 0.58822 0.00294 0.0
H975 H 0.94375 0.55365 0.03807 0.0
H976 H 0.02827 0.19956 0.91627 0.0
H977 H 0.03402 0.17489 0.93191 0.0
H978 H 0.00155 0.18985 0.9732 0.0
H979 H 0.99708 0.21581 0.95828 0.0
H980 H 0.02636 0.1799 0.98959 0.0
H981 H 0.98755 0.14952 0.93399 0.0
H982 H 0.97793 0.14291 0.90055 0.0
H983 H 0.02484 0.12465 0.8903 0.0
H984 H 0.0348 0.1313 0.92367 0.0
H985 H 0.00621 0.08172 0.00541 0.0
H986 H 0.00293 0.11065 0.99518 0.0
H987 H 0.05527 0.11941 0.97953 0.0
H988 H 0.05892 0.09106 0.99045 0.0
H989 H 0.01995 0.11708 0.9515 0.0
H990 H 0.05814 0.14772 0.0082 0.0
H991 H 0.06656 0.15401 0.04181 0.0
H992 H 0.01862 0.17081 0.05018 0.0
H993 H 0.00974 0.16424 0.01659 0.0
C994 C 0.02227 0.19753 0.92863 0.0
C995 C 0.0119 0.20937 0.93581 0.0
C996 C 0.02548 0.1833 0.93756 0.0
C997 C 0.01771 0.17984 0.95345 0.0
C998 C 0.0076 0.19196 0.96089 0.0
C999 C 0.00492 0.20673 0.95228 0.0
C1000 C 0.02 0.16352 0.96204 0.0
C1001 C 0.0247 0.16615 0.98121 0.0
C1002 C 0.0181 0.14543 0.9513 0.0
C1003 C 0.01195 0.14101 0.93129 0.0
C1004 C 0.99581 0.14413 0.92458 0.0
C1005 C 0.99031 0.14038 0.90565 0.0
C1006 C 1.00078 0.1334 0.89331 0.0
C1007 C 0.01674 0.13006 0.89987 0.0
C1008 C 0.02231 0.13377 0.91879 0.0
C1009 C 0.01707 0.08997 0.99999 0.0
C1010 C 0.03283 0.08419 0.99877 0.0
C1011 C 0.01522 0.1065 0.99424 0.0
C1012 C 0.02893 0.11727 0.98678 0.0
C1013 C 0.04464 0.11146 0.9855 0.0
C1014 C 0.04668 0.09527 0.99172 0.0
C1015 C 0.02633 0.1336 0.9788 0.0
C1016 C 0.02151 0.13088 0.95978 0.0
C1017 C 0.02792 0.15144 0.9897 0.0
C1018 C 0.03313 0.15516 0.00988 0.0
C1019 C 0.04925 0.15245 0.0172 0.0
C1020 C 0.05415 0.15615 0.03625 0.0
C1021 C 0.0431 0.16272 0.04813 0.0
C1022 C 0.02714 0.16565 0.04097 0.0
C1023 C 0.02217 0.16193 0.02193 0.0
H1024 H 0.04693 0.16562 0.06287 0.0
H1025 H 0.99651 0.13055 0.87865 0.0
H1026 H 0.10924 0.78965 0.16284 0.0
H1027 H 0.13453 0.78258 0.17876 0.0
H1028 H 0.16901 0.81634 0.14837 0.0
H1029 H 0.14326 0.82187 0.13096 0.0
H1030 H 0.18278 0.78967 0.15316 0.0
H1031 H 0.16035 0.83114 0.19689 0.0
H1032 H 0.13696 0.8408 0.21339 0.0
H1033 H 0.12823 0.79057 0.23594 0.0
H1034 H 0.15145 0.78053 0.21943 0.0
H1035 H 0.25894 0.79782 0.21935 0.0
H1036 H 0.23527 0.80211 0.19781 0.0
H1037 H 0.19682 0.76771 0.22392 0.0
H1038 H 0.22029 0.76433 0.24582 0.0
H1039 H 0.18619 0.79653 0.22104 0.0
H1040 H 0.20819 0.75476 0.17705 0.0
H1041 H 0.2315 0.74492 0.16057 0.0
H1042 H 0.2414 0.79575 0.13905 0.0
H1043 H 0.21825 0.80597 0.15554 0.0
C1044 C 0.12217 0.79557 0.15946 0.0
C1045 C 0.12417 0.80656 0.14575 0.0
C1046 C 0.13678 0.79166 0.16878 0.0
C1047 C 0.15401 0.79948 0.16548 0.0
C1048 C 0.15601 0.81021 0.15147 0.0
C1049 C 0.14126 0.81351 0.14158 0.0
C1050 C 0.16976 0.79668 0.17682 0.0
C1051 C 0.18358 0.79143 0.16803 0.0
C1052 C 0.17099 0.79864 0.19629 0.0
C1053 C 0.15758 0.80507 0.20687 0.0
C1054 C 0.15345 0.82218 0.20539 0.0
C1055 C 0.14021 0.8277 0.21472 0.0
C1056 C 0.1311 0.81629 0.22569 0.0
C1057 C 0.1353 0.79939 0.22745 0.0
C1058 C 0.14853 0.7938 0.21815 0.0
C1059 C 0.24547 0.79071 0.22004 0.0
C1060 C 0.2415 0.78051 0.23411 0.0
C1061 C 0.23185 0.79321 0.20775 0.0
C1062 C 0.21401 0.78522 0.20904 0.0
C1063 C 0.2103 0.77421 0.22256 0.0
C1064 C 0.22379 0.77207 0.23498 0.0
C1065 C 0.19907 0.78915 0.19739 0.0
C1066 C 0.18542 0.79475 0.20616 0.0
C1067 C 0.19806 0.78754 0.17798 0.0
C1068 C 0.21159 0.78117 0.16762 0.0
C1069 C 0.21537 0.76385 0.16883 0.0
C1070 C 0.22856 0.75821 0.15949 0.0
C1071 C 0.23795 0.76972 0.1488 0.0
C1072 C 0.23412 0.78685 0.14734 0.0
C1073 C 0.22094 0.79256 0.15665 0.0
H1074 H 0.24819 0.76536 0.14162 0.0
H1075 H 0.12081 0.82055 0.23284 0.0
H1076 H 0.50755 0.83301 0.41021 0.0
H1077 H 0.51052 0.86367 0.42898 0.0
H1078 H 0.53158 0.84501 0.47623 0.0
H1079 H 0.52788 0.81362 0.45737 0.0
H1080 H 0.51029 0.8674 0.48612 0.0
H1081 H 0.55937 0.87239 0.45246 0.0
H1082 H 0.57535 0.86844 0.42545 0.0
H1083 H 0.54691 0.90197 0.3992 0.0
H1084 H 0.53061 0.90594 0.42596 0.0
H1085 H 0.54624 0.96787 0.52388 0.0
H1086 H 0.54458 0.93466 0.51247 0.0
H1087 H 0.50541 0.93399 0.46788 0.0
H1088 H 0.5066 0.96694 0.47947 0.0
H1089 H 0.54024 0.92168 0.46033 0.0
H1090 H 0.48847 0.91196 0.49319 0.0
H1091 H 0.47442 0.91754 0.52139 0.0
H1092 H 0.51124 0.89445 0.55056 0.0
H1093 H 0.52563 0.88894 0.52252 0.0
C1094 C 0.51274 0.83538 0.42463 0.0
C1095 C 0.51771 0.82107 0.43232 0.0
C1096 C 0.51452 0.85294 0.43533 0.0
C1097 C 0.5218 0.85681 0.45386 0.0
C1098 C 0.52612 0.84234 0.46188 0.0
C1099 C 0.52399 0.82448 0.45116 0.0
C1100 C 0.52492 0.87614 0.46443 0.0
C1101 C 0.51715 0.87923 0.48066 0.0
C1102 C 0.53387 0.89166 0.45734 0.0
C1103 C 0.5437 0.88937 0.4412 0.0
C1104 C 0.55645 0.87883 0.44088 0.0
C1105 C 0.56557 0.8766 0.42562 0.0
C1106 C 0.56213 0.88493 0.41061 0.0
C1107 C 0.54957 0.89553 0.41084 0.0
C1108 C 0.54041 0.89781 0.42607 0.0
C1109 C 0.53702 0.96049 0.51188 0.0
C1110 C 0.52644 0.96983 0.50262 0.0
C1111 C 0.53613 0.94162 0.50539 0.0
C1112 C 0.52491 0.93206 0.48938 0.0
C1113 C 0.51409 0.94124 0.48031 0.0
C1114 C 0.51468 0.95996 0.48702 0.0
C1115 C 0.52511 0.91273 0.48144 0.0
C1116 C 0.53363 0.90975 0.46583 0.0
C1117 C 0.51712 0.89743 0.48921 0.0
C1118 C 0.50817 0.90016 0.50585 0.0
C1119 C 0.49361 0.90816 0.50565 0.0
C1120 C 0.48558 0.91129 0.52159 0.0
C1121 C 0.49196 0.90638 0.53777 0.0
C1122 C 0.50632 0.89824 0.53801 0.0
C1123 C 0.5144 0.89508 0.5221 0.0
H1124 H 0.48575 0.90885 0.55011 0.0
H1125 H 0.5692 0.88318 0.3988 0.0
H1126 H 0.52475 0.27251 0.6688 0.0
H1127 H 0.49461 0.26721 0.67548 0.0
H1128 H 0.48099 0.29352 0.63059 0.0
H1129 H 0.51166 0.29915 0.62378 0.0
H1130 H 0.46715 0.30574 0.66072 0.0
H1131 H 0.46588 0.24579 0.6272 0.0
H1132 H 0.47589 0.21706 0.61767 0.0
H1133 H 0.47226 0.20413 0.67172 0.0
H1134 H 0.46241 0.23289 0.68165 0.0
H1135 H 0.37963 0.28189 0.68418 0.0
H1136 H 0.40393 0.28192 0.66563 0.0
H1137 H 0.43153 0.26069 0.70683 0.0
H1138 H 0.40753 0.26094 0.7256 0.0
H1139 H 0.4349 0.24414 0.6718 0.0
H1140 H 0.44094 0.30721 0.70575 0.0
H1141 H 0.43068 0.33588 0.71481 0.0
H1142 H 0.42481 0.34232 0.65832 0.0
H1143 H 0.43484 0.31352 0.64892 0.0
C1144 C 0.51545 0.27719 0.66021 0.0
C1145 C 0.52078 0.28632 0.64571 0.0
C1146 C 0.49807 0.27395 0.66399 0.0
C1147 C 0.48534 0.27959 0.65335 0.0
C1148 C 0.49053 0.28888 0.63892 0.0
C1149 C 0.50808 0.29214 0.63507 0.0
C1150 C 0.46701 0.27657 0.65827 0.0
C1151 C 0.45991 0.29215 0.66267 0.0
C1152 C 0.45753 0.25891 0.66106 0.0
C1153 C 0.46349 0.24158 0.65519 0.0
C1154 C 0.46733 0.23689 0.6371 0.0
C1155 C 0.47295 0.22058 0.63161 0.0
C1156 C 0.47474 0.20879 0.64409 0.0
C1157 C 0.47087 0.21327 0.66206 0.0
C1158 C 0.46523 0.22956 0.66762 0.0
C1159 C 0.39086 0.27723 0.68934 0.0
C1160 C 0.39161 0.2716 0.70656 0.0
C1161 C 0.40473 0.27717 0.67864 0.0
C1162 C 0.4197 0.27153 0.68491 0.0
C1163 C 0.42013 0.26508 0.70166 0.0
C1164 C 0.40631 0.26518 0.71238 0.0
C1165 C 0.43542 0.2734 0.67476 0.0
C1166 C 0.44199 0.25761 0.66943 0.0
C1167 C 0.44435 0.29082 0.67097 0.0
C1168 C 0.43844 0.30814 0.67663 0.0
C1169 C 0.43734 0.31468 0.69526 0.0
C1170 C 0.43159 0.33095 0.70046 0.0
C1171 C 0.42705 0.34089 0.68714 0.0
C1172 C 0.4283 0.33459 0.66861 0.0
C1173 C 0.43402 0.3183 0.66335 0.0
H1174 H 0.4226 0.35349 0.69119 0.0
H1175 H 0.47909 0.19617 0.63982 0.0
H1176 H 0.98546 0.81577 0.62309 0.0
H1177 H 0.99873 0.84417 0.61182 0.0
H1178 H 0.03244 0.81486 0.58242 0.0
H1179 H 0.01892 0.78631 0.5931 0.0
H1180 H 0.04825 0.8558 0.60565 0.0
H1181 H 0.00525 0.81657 0.55587 0.0
H1182 H 0.97606 0.79557 0.54431 0.0
H1183 H 0.95134 0.8395 0.56395 0.0
H1184 H 0.98044 0.86066 0.57597 0.0
H1185 H 0.06668 0.91739 0.53903 0.0
H1186 H 0.06271 0.89221 0.55688 0.0
H1187 H 0.01706 0.90811 0.57633 0.0
H1188 H 0.0203 0.93243 0.55802 0.0
H1189 H 0.00979 0.87261 0.5579 0.0
H1190 H 0.05396 0.91329 0.60499 0.0
H1191 H 0.08323 0.93334 0.61796 0.0
H1192 H 0.10655 0.88697 0.60393 0.0
H1193 H 0.07746 0.86671 0.59053 0.0
C1194 C 0.99552 0.81536 0.61402 0.0
C1195 C 1.00088 0.79882 0.60857 0.0
C1196 C 0.00326 0.83158 0.60789 0.0
C1197 C 0.01668 0.83149 0.59659 0.0
C1198 C 0.02225 0.81511 0.59134 0.0
C1199 C 0.01424 0.79879 0.59712 0.0
C1200 C 0.02329 0.84791 0.58848 0.0
C1201 C 0.04005 0.85951 0.59505 0.0
C1202 C 0.01242 0.85251 0.57479 0.0
C1203 C 0.99497 0.84011 0.56695 0.0
C1204 C 0.99358 0.8217 0.55782 0.0
C1205 C 0.97706 0.80978 0.55119 0.0
C1206 C 0.96185 0.81618 0.55343 0.0
C1207 C 0.96314 0.83456 0.56224 0.0
C1208 C 0.97964 0.84652 0.56896 0.0
C1209 C 0.05591 0.9156 0.54726 0.0
C1210 C 0.04366 0.92673 0.54689 0.0
C1211 C 0.05382 0.9014 0.55763 0.0
C1212 C 0.03956 0.89834 0.56782 0.0
C1213 C 0.02814 0.91031 0.56852 0.0
C1214 C 0.0301 0.9243 0.5581 0.0
C1215 C 0.03472 0.88112 0.57536 0.0
C1216 C 0.01819 0.86911 0.56848 0.0
C1217 C 0.04596 0.87624 0.58865 0.0
C1218 C 0.06351 0.88852 0.59651 0.0
C1219 C 0.06534 0.90741 0.60444 0.0
C1220 C 0.08191 0.91881 0.61192 0.0
C1221 C 0.09675 0.91145 0.61171 0.0
C1222 C 0.09505 0.89267 0.60404 0.0
C1223 C 0.07852 0.88122 0.5965 0.0
H1224 H 0.10955 0.92029 0.61755 0.0
H1225 H 0.94907 0.80692 0.54831 0.0
H1226 H 0.53168 0.81215 0.86805 0.0
H1227 H 0.50047 0.80493 0.85641 0.0
H1228 H 0.51266 0.78975 0.80109 0.0
H1229 H 0.54402 0.79813 0.81264 0.0
H1230 H 0.49475 0.81464 0.80278 0.0
H1231 H 0.48924 0.75735 0.82706 0.0
H1232 H 0.49261 0.73908 0.85142 0.0
H1233 H 0.46082 0.76804 0.88379 0.0
H1234 H 0.45749 0.78668 0.8598 0.0
H1235 H 0.40652 0.79907 0.76457 0.0
H1236 H 0.43504 0.79252 0.77307 0.0
H1237 H 0.42875 0.80606 0.83062 0.0
H1238 H 0.40011 0.81191 0.82212 0.0
H1239 H 0.44308 0.77804 0.82566 0.0
H1240 H 0.45198 0.83781 0.80754 0.0
H1241 H 0.45048 0.86085 0.78754 0.0
H1242 H 0.47773 0.83262 0.74867 0.0
H1243 H 0.47905 0.80916 0.76825 0.0
C1244 C 0.5276 0.80702 0.85344 0.0
C1245 C 0.54005 0.80588 0.84111 0.0
C1246 C 0.50979 0.80267 0.84684 0.0
C1247 C 0.50425 0.79654 0.82792 0.0
C1248 C 0.51671 0.79442 0.81576 0.0
C1249 C 0.53454 0.79931 0.82229 0.0
C1250 C 0.48597 0.79514 0.82046 0.0
C1251 C 0.48343 0.80618 0.80739 0.0
C1252 C 0.47131 0.78492 0.8273 0.0
C1253 C 0.47317 0.77348 0.84162 0.0
C1254 C 0.48304 0.7599 0.83941 0.0
C1255 C 0.48494 0.74947 0.85316 0.0
C1256 C 0.47694 0.75241 0.86914 0.0
C1257 C 0.467 0.76576 0.8714 0.0
C1258 C 0.46509 0.77624 0.85772 0.0
C1259 C 0.4113 0.80053 0.77899 0.0
C1260 C 0.4014 0.80615 0.79275 0.0
C1261 C 0.42747 0.79676 0.78383 0.0
C1262 C 0.43404 0.79906 0.80247 0.0
C1263 C 0.42386 0.80414 0.81616 0.0
C1264 C 0.40761 0.80758 0.81133 0.0
C1265 C 0.45197 0.79741 0.80789 0.0
C1266 C 0.45443 0.786 0.82067 0.0
C1267 C 0.46669 0.80779 0.80129 0.0
C1268 C 0.46532 0.82152 0.7892 0.0
C1269 C 0.45741 0.83634 0.79459 0.0
C1270 C 0.45663 0.84951 0.78335 0.0
C1271 C 0.46393 0.84815 0.7668 0.0
C1272 C 0.47201 0.83361 0.76144 0.0
C1273 C 0.47273 0.82034 0.77259 0.0
H1274 H 0.46339 0.85841 0.75816 0.0
H1275 H 0.47843 0.74433 0.87977 0.0
H1276 H 0.51354 0.21008 0.10283 0.0
H1277 H 0.52174 0.18402 0.08442 0.0
H1278 H 0.47806 0.14544 0.09978 0.0
H1279 H 0.47089 0.1717 0.11974 0.0
H1280 H 0.50579 0.1328 0.10257 0.0
H1281 H 0.47866 0.1581 0.05492 0.0
H1282 H 0.47428 0.1838 0.03938 0.0
H1283 H 0.52831 0.19524 0.0294 0.0
H1284 H 0.53305 0.16973 0.04505 0.0
H1285 H 0.50154 0.06507 0.01646 0.0
H1286 H 0.49515 0.08792 0.04103 0.0
H1287 H 0.55054 0.11428 0.05425 0.0
H1288 H 0.55709 0.09082 0.03027 0.0
H1289 H 0.51821 0.13254 0.0381 0.0
H1290 H 0.54499 0.107 0.08578 0.0
H1291 H 0.55015 0.0839 0.10448 0.0
H1292 H 0.49632 0.07319 0.11507 0.0
H1293 H 0.49073 0.09596 0.09607 0.0
C1294 C 0.50544 0.19605 0.10181 0.0
C1295 C 0.49136 0.19267 0.11212 0.0
C1296 C 0.51012 0.1812 0.09135 0.0
C1297 C 0.50022 0.16287 0.09037 0.0
C1298 C 0.48576 0.15954 0.10029 0.0
C1299 C 0.48151 0.17442 0.11141 0.0
C1300 C 0.50557 0.14718 0.07962 0.0
C1301 C 0.50818 0.13253 0.08835 0.0
C1302 C 0.50925 0.14727 0.06132 0.0
C1303 C 0.50621 0.16205 0.05119 0.0
C1304 C 0.48959 0.1661 0.0494 0.0
C1305 C 0.48706 0.18064 0.04059 0.0
C1306 C 0.50101 0.19115 0.03342 0.0
C1307 C 0.51751 0.18707 0.03494 0.0
C1308 C 0.52011 0.17254 0.04373 0.0
C1309 C 0.51231 0.07567 0.02474 0.0
C1310 C 0.52973 0.07668 0.0214 0.0
C1311 C 0.5087 0.08839 0.03891 0.0
C1312 C 0.52245 0.10236 0.04954 0.0
C1313 C 0.53989 0.10319 0.04641 0.0
C1314 C 0.54355 0.09011 0.0326 0.0
C1315 C 0.51814 0.11812 0.06097 0.0
C1316 C 0.51568 0.13278 0.05229 0.0
C1317 C 0.51445 0.11789 0.0792 0.0
C1318 C 0.51737 0.10299 0.08922 0.0
C1319 C 0.53414 0.09942 0.09171 0.0
C1320 C 0.53719 0.08652 0.10253 0.0
C1321 C 0.52362 0.07723 0.1111 0.0
C1322 C 0.50686 0.08051 0.10854 0.0
C1323 C 0.50373 0.09337 0.0977 0.0
H1324 H 0.52605 0.06736 0.11959 0.0
H1325 H 0.49904 0.20245 0.02667 0.0
H1326 H 0.15212 0.30154 0.37647 0.0
H1327 H 0.17402 0.30046 0.35493 0.0
H1328 H 0.14215 0.31999 0.31578 0.0
H1329 H 0.12012 0.32037 0.33666 0.0
H1330 H 0.15054 0.28908 0.30046 0.0
H1331 H 0.18136 0.34888 0.33685 0.0
H1332 H 0.1936 0.37076 0.36609 0.0
H1333 H 0.22752 0.33563 0.37898 0.0
H1334 H 0.2154 0.31349 0.34986 0.0
H1335 H 0.23487 0.30769 0.25471 0.0
H1336 H 0.20976 0.31531 0.26924 0.0
H1337 H 0.2061 0.2679 0.29629 0.0
H1338 H 0.23037 0.25973 0.28133 0.0
H1339 H 0.21482 0.31695 0.31423 0.0
H1340 H 0.17623 0.25369 0.28242 0.0
H1341 H 0.16432 0.23166 0.25321 0.0
H1342 H 0.14506 0.27436 0.23168 0.0
H1343 H 0.15737 0.29681 0.26065 0.0
C1344 C 0.15001 0.30588 0.3634 0.0
C1345 C 0.13449 0.31095 0.35817 0.0
C1346 C 0.16248 0.30535 0.35118 0.0
C1347 C 0.15959 0.31025 0.33389 0.0
C1348 C 0.14449 0.31614 0.32907 0.0
C1349 C 0.13198 0.31639 0.34107 0.0
C1350 C 0.17152 0.30766 0.32014 0.0
C1351 C 0.16455 0.29545 0.30335 0.0
C1352 C 0.18971 0.31596 0.32399 0.0
C1353 C 0.19744 0.32952 0.34122 0.0
C1354 C 0.19141 0.34582 0.34595 0.0
C1355 C 0.19833 0.35826 0.36249 0.0
C1356 C 0.21131 0.35457 0.3744 0.0
C1357 C 0.21748 0.33848 0.36974 0.0
C1358 C 0.21064 0.32601 0.35318 0.0
C1359 C 0.22821 0.29859 0.26325 0.0
C1360 C 0.2343 0.28314 0.26692 0.0
C1361 C 0.21401 0.30292 0.27145 0.0
C1362 C 0.20614 0.29191 0.28345 0.0
C1363 C 0.21179 0.27611 0.28656 0.0
C1364 C 0.22563 0.27152 0.27805 0.0
C1365 C 0.1938 0.29823 0.29493 0.0
C1366 C 0.20072 0.31106 0.31127 0.0
C1367 C 0.17561 0.2905 0.29073 0.0
C1368 C 0.16799 0.27698 0.27351 0.0
C1369 C 0.16969 0.25845 0.27136 0.0
C1370 C 0.16284 0.24588 0.25487 0.0
C1371 C 0.15402 0.25163 0.24056 0.0
C1372 C 0.15199 0.26996 0.24274 0.0
C1373 C 0.15894 0.28262 0.25917 0.0
H1374 H 0.14869 0.24188 0.22781 0.0
H1375 H 0.21661 0.36419 0.38724 0.0
H1376 H 0.9708 0.07589 0.2104 0.0
H1377 H 0.98573 0.0738 0.18248 0.0
H1378 H 0.94126 0.03109 0.15363 0.0
H1379 H 0.92601 0.03369 0.18126 0.0
H1380 H 0.97685 0.02298 0.14759 0.0
H1381 H 0.94671 0.0733 0.14422 0.0
H1382 H 0.94074 0.10378 0.15625 0.0
H1383 H 0.99555 0.13057 0.15941 0.0
H1384 H 0.00187 0.10019 0.14765 0.0
H1385 H 1.00031 0.01829 0.05422 0.0
H1386 H 0.98487 0.0198 0.08197 0.0
H1387 H 0.01967 0.07343 0.10509 0.0
H1388 H 0.03508 0.07178 0.07788 0.0
H1389 H 0.98964 0.07623 0.11478 0.0
H1390 H 0.0229 0.03412 0.12176 0.0
H1391 H 0.03649 0.00743 0.1159 0.0
H1392 H 0.98615 0.96928 0.113 0.0
H1393 H 0.97212 0.99582 0.11845 0.0
C1394 C 0.96407 0.06605 0.19815 0.0
C1395 C 0.9469 0.05507 0.19852 0.0
C1396 C 0.97274 0.06483 0.18197 0.0
C1397 C 0.96493 0.05221 0.16539 0.0
C1398 C 0.94794 0.04098 0.16588 0.0
C1399 C 0.93907 0.04256 0.18188 0.0
C1400 C 0.97413 0.051 0.14765 0.0
C1401 C 0.97919 0.03453 0.14024 0.0
C1402 C 0.97861 0.06625 0.13822 0.0
C1403 C 0.97477 0.08446 0.14521 0.0
C1404 C 0.9575 0.08567 0.14763 0.0
C1405 C 0.95406 0.10293 0.15437 0.0
C1406 C 0.96776 0.11909 0.15863 0.0
C1407 C 0.98495 0.11803 0.15612 0.0
C1408 C 0.98846 0.10081 0.14941 0.0
C1409 C 0.00451 0.03057 0.06503 0.0
C1410 C 0.01901 0.04503 0.06324 0.0
C1411 C 0.99571 0.03138 0.08122 0.0
C1412 C 1.00081 0.04679 0.09628 0.0
C1413 C 0.01501 0.06134 0.09412 0.0
C1414 C 0.02393 0.06036 0.07825 0.0
C1415 C 0.99175 0.0479 0.11417 0.0
C1416 C 0.98695 0.06445 0.12179 0.0
C1417 C 0.98839 0.03309 0.12435 0.0
C1418 C 0.99639 0.01696 0.12018 0.0
C1419 C 0.01464 0.02004 0.11953 0.0
C1420 C 0.02244 0.00496 0.11636 0.0
C1421 C 0.01218 0.9867 0.11401 0.0
C1422 C 0.99406 0.98346 0.11473 0.0
C1423 C 0.98616 0.99852 0.11784 0.0
H1424 H 0.01836 0.97513 0.11179 0.0
H1425 H 0.96506 0.13244 0.16384 0.0
H1426 H 0.2559 0.66362 0.4763 0.0
H1427 H 0.24122 0.67202 0.44972 0.0
H1428 H 0.28999 0.68097 0.42596 0.0
H1429 H 0.30474 0.67222 0.45267 0.0
H1430 H 0.27542 0.71258 0.43642 0.0
H1431 H 0.2565 0.64753 0.40471 0.0
H1432 H 0.24055 0.61447 0.40118 0.0
H1433 H 0.19185 0.6308 0.40549 0.0
H1434 H 0.20754 0.66399 0.40933 0.0
H1435 H 0.27235 0.73036 0.35249 0.0
H1436 H 0.26979 0.71123 0.37578 0.0
H1437 H 0.21984 0.72312 0.3858 0.0
H1438 H 0.22198 0.74224 0.36153 0.0
H1439 H 0.22685 0.68223 0.38608 0.0
H1440 H 0.2449 0.74673 0.41448 0.0
H1441 H 0.26052 0.77996 0.41882 0.0
H1442 H 0.31016 0.76502 0.42262 0.0
H1443 H 0.29487 0.73169 0.41781 0.0
C1444 C 0.2634 0.66725 0.46526 0.0
C1445 C 0.28148 0.66808 0.46653 0.0
C1446 C 0.25494 0.67163 0.45003 0.0
C1447 C 0.26456 0.67696 0.43603 0.0
C1448 C 0.28244 0.67667 0.43673 0.0
C1449 C 0.29089 0.67202 0.45195 0.0
C1450 C 0.25722 0.68682 0.42309 0.0
C1451 C 0.26487 0.70595 0.42532 0.0
C1452 C 0.24256 0.67826 0.40967 0.0
C1453 C 0.23325 0.65829 0.40758 0.0
C1454 C 0.24243 0.64411 0.40515 0.0
C1455 C 0.23342 0.62533 0.40303 0.0
C1456 C 0.21521 0.62055 0.4032 0.0
C1457 C 0.20596 0.63453 0.40542 0.0
C1458 C 0.21491 0.65332 0.40756 0.0
C1459 C 0.26043 0.72842 0.35903 0.0
C1460 C 0.24729 0.73773 0.35517 0.0
C1461 C 0.25907 0.71756 0.37242 0.0
C1462 C 0.24474 0.71605 0.38243 0.0
C1463 C 0.23098 0.7243 0.37806 0.0
C1464 C 0.2323 0.73526 0.36442 0.0
C1465 C 0.24588 0.70767 0.39876 0.0
C1466 C 0.23707 0.68892 0.39747 0.0
C1467 C 0.25937 0.71658 0.41334 0.0
C1468 C 0.26868 0.73664 0.41565 0.0
C1469 C 0.25914 0.75049 0.41596 0.0
C1470 C 0.26795 0.76936 0.41856 0.0
C1471 C 0.28632 0.7746 0.42098 0.0
C1472 C 0.29593 0.76096 0.42073 0.0
C1473 C 0.28719 0.74206 0.41806 0.0
H1474 H 0.29311 0.78922 0.42307 0.0
H1475 H 0.20827 0.60602 0.40158 0.0
H1476 H 0.6207 0.99652 0.66908 0.0
H1477 H 0.60565 0.00679 0.64374 0.0
H1478 H 0.63241 0.06424 0.66628 0.0
H1479 H 0.648 0.05392 0.69125 0.0
H1480 H 0.58768 0.04558 0.65493 0.0
H1481 H 0.64552 0.06373 0.63519 0.0
H1482 H 0.67504 0.0584 0.63186 0.0
H1483 H 0.65188 0.00498 0.59719 0.0
H1484 H 0.6222 0.00992 0.60055 0.0
H1485 H 0.55218 0.06321 0.56711 0.0
H1486 H 0.57364 0.0676 0.59444 0.0
H1487 H 0.56791 0.00788 0.58658 0.0
H1488 H 0.54583 1.0034 0.55965 0.0
H1489 H 0.60565 0.03707 0.59209 0.0
H1490 H 0.54966 0.01588 0.61594 0.0
H1491 H 0.51933 0.01793 0.62009 0.0
H1492 H 0.53843 0.07513 0.64771 0.0
H1493 H 0.56889 0.07348 0.64337 0.0
C1494 C 0.62358 0.01123 0.66827 0.0
C1495 C 0.6356 0.02447 0.68153 0.0
C1496 C 0.61498 0.01708 0.65406 0.0
C1497 C 0.61811 0.03618 0.65342 0.0
C1498 C 0.63009 0.04946 0.6667 0.0
C1499 C 0.639 0.04357 0.68069 0.0
C1500 C 0.60849 0.04179 0.63865 0.0
C1501 C 0.59177 0.04448 0.64127 0.0
C1502 C 0.61393 0.03986 0.62099 0.0
C1503 C 0.63169 0.03718 0.61816 0.0
C1504 C 0.64674 0.05083 0.6269 0.0
C1505 C 0.66349 0.04789 0.62501 0.0
C1506 C 0.66533 0.03135 0.61433 0.0
C1507 C 0.65042 0.01779 0.60544 0.0
C1508 C 0.63364 0.02067 0.60729 0.0
C1509 C 0.55534 0.05108 0.57155 0.0
C1510 C 0.54732 0.03298 0.56194 0.0
C1511 C 0.5676 0.0536 0.58687 0.0
C1512 C 0.57216 0.03804 0.59219 0.0
C1513 C 0.56433 0.01993 0.58243 0.0
C1514 C 0.55168 0.01737 0.56739 0.0
C1515 C 0.58477 0.04059 0.60838 0.0
C1516 C 0.60189 0.03921 0.60587 0.0
C1517 C 0.57968 0.0437 0.62615 0.0
C1518 C 0.56147 0.04465 0.62909 0.0
C1519 C 0.54736 0.02895 0.62271 0.0
C1520 C 0.53016 0.03003 0.62513 0.0
C1521 C 0.52694 0.04668 0.63409 0.0
C1522 C 0.54094 0.06226 0.64072 0.0
C1523 C 0.55817 0.06127 0.63828 0.0
H1524 H 0.51362 0.04749 0.63595 0.0
H1525 H 0.6783 0.02906 0.61294 0.0
H1526 H 0.30313 0.33887 0.97978 0.0
H1527 H 0.30258 0.31993 0.94924 0.0
H1528 H 0.28005 0.35883 0.92397 0.0
H1529 H 0.28023 0.37738 0.95403 0.0
H1530 H 0.26446 0.32494 0.90769 0.0
H1531 H 0.32418 0.36042 0.92697 0.0
H1532 H 0.35272 0.37089 0.94674 0.0
H1533 H 0.35891 0.31455 0.93815 0.0
H1534 H 0.33025 0.30371 0.91853 0.0
H1535 H 0.28449 0.32238 0.81798 0.0
H1536 H 0.2843 0.3315 0.85106 0.0
H1537 H 0.3062 0.28524 0.86048 0.0
H1538 H 0.30741 0.27679 0.8272 0.0
H1539 H 0.32035 0.31545 0.88612 0.0
H1540 H 0.26016 0.28429 0.85904 0.0
H1541 H 0.23408 0.28054 0.83645 0.0
H1542 H 0.23054 0.33632 0.85814 0.0
H1543 H 0.25673 0.34058 0.88054 0.0
C1544 C 0.2979 0.34322 0.9677 0.0
C1545 C 0.29187 0.35973 0.96935 0.0
C1546 C 0.29766 0.33245 0.95027 0.0
C1547 C 0.2914 0.33805 0.9343 0.0
C1548 C 0.2849 0.35418 0.93606 0.0
C1549 C 0.28512 0.36486 0.95332 0.0
C1550 C 0.29206 0.32782 0.91556 0.0
C1551 C 0.27667 0.32278 0.90298 0.0
C1552 C 0.30794 0.3248 0.90946 0.0
C1553 C 0.32495 0.3312 0.92157 0.0
C1554 C 0.33153 0.35023 0.9295 0.0
C1555 C 0.34774 0.35624 0.94063 0.0
C1556 C 0.35758 0.34338 0.94377 0.0
C1557 C 0.35124 0.32448 0.93576 0.0
C1558 C 0.33501 0.31839 0.92465 0.0
C1559 C 0.28942 0.31429 0.82717 0.0
C1560 C 0.29585 0.29885 0.82018 0.0
C1561 C 0.28915 0.31937 0.84603 0.0
C1562 C 0.2946 0.30863 0.85821 0.0
C1563 C 0.30169 0.29357 0.8513 0.0
C1564 C 0.30243 0.28879 0.83237 0.0
C1565 C 0.29289 0.31328 0.87809 0.0
C1566 C 0.30802 0.31708 0.89091 0.0
C1567 C 0.27688 0.31588 0.88429 0.0
C1568 C 0.26048 0.31277 0.87145 0.0
C1569 C 0.25381 0.29575 0.859 0.0
C1570 C 0.23903 0.29356 0.84619 0.0
C1571 C 0.23075 0.30823 0.84584 0.0
C1572 C 0.23702 0.325 0.85842 0.0
C1573 C 0.2518 0.3273 0.87118 0.0
H1574 H 0.21951 0.30669 0.83579 0.0
H1575 H 0.37016 0.34807 0.95236 0.0
H1576 H 0.94536 0.07401 0.32465 0.0
H1577 H 0.95822 0.07318 0.35612 0.0
H1578 H 0.98393 0.03102 0.33351 0.0
H1579 H 0.97164 0.03188 0.30277 0.0
H1580 H 0.96931 0.02039 0.36174 0.0
H1581 H 0.00627 0.07715 0.35158 0.0
H1582 H 0.01522 0.10951 0.34635 0.0
H1583 H 0.99499 0.12945 0.39573 0.0
H1584 H 0.98561 0.09716 0.40108 0.0
H1585 H 0.02494 0.01314 0.44057 0.0
H1586 H 0.01267 0.01745 0.41061 0.0
H1587 H 0.99747 0.06628 0.43702 0.0
H1588 H 0.01068 0.06259 0.46682 0.0
H1589 H 0.00557 0.07417 0.40735 0.0
H1590 H 0.96776 0.01699 0.41705 0.0
H1591 H 0.96031 0.98472 0.42284 0.0
H1592 H 0.98254 0.96571 0.3745 0.0
H1593 H 0.99031 0.99791 0.36855 0.0
C1594 C 0.95379 0.06461 0.32634 0.0
C1595 C 0.95723 0.05304 0.31064 0.0
C1596 C 0.96129 0.06418 0.3445 0.0
C1597 C 0.97227 0.05197 0.34766 0.0
C1598 C 0.97559 0.04055 0.33197 0.0
C1599 C 0.96843 0.04116 0.31407 0.0
C1600 C 0.97992 0.05016 0.36688 0.0
C1601 C 0.97731 0.03226 0.3716 0.0
C1602 C 0.99025 0.06541 0.38034 0.0
C1603 C 0.99492 0.08467 0.37653 0.0
C1604 C 0.00341 0.08838 0.36114 0.0
C1605 C 0.00865 0.10673 0.3582 0.0
C1606 C 0.00559 0.12152 0.37065 0.0
C1607 C 0.99727 0.11798 0.38605 0.0
C1608 C 0.99196 0.09965 0.38902 0.0
C1609 C 0.01897 0.02481 0.4401 0.0
C1610 C 0.01884 0.03737 0.45653 0.0
C1611 C 0.01167 0.02722 0.42273 0.0
C1612 C 0.00339 0.04198 0.42098 0.0
C1613 C 0.00352 0.05466 0.43743 0.0
C1614 C 0.01112 0.05247 0.45473 0.0
C1615 C 0.99483 0.04438 0.4023 0.0
C1616 C 0.99735 0.06234 0.39763 0.0
C1617 C 0.98434 0.02919 0.38884 0.0
C1618 C 0.97976 0.00988 0.39247 0.0
C1619 C 0.97116 0.00594 0.40773 0.0
C1620 C 0.96687 0.98766 0.41103 0.0
C1621 C 0.97099 0.97318 0.39908 0.0
C1622 C 0.97938 0.97694 0.38377 0.0
C1623 C 0.98372 0.9952 0.38042 0.0
H1624 H 0.96765 0.95904 0.40165 0.0
H1625 H 0.00975 0.13572 0.36841 0.0
H1626 H 0.25119 0.65372 0.58005 0.0
H1627 H 0.25071 0.67577 0.6082 0.0
H1628 H 0.29578 0.71438 0.59562 0.0
H1629 H 0.29632 0.69261 0.56742 0.0
H1630 H 0.29901 0.7014 0.63032 0.0
H1631 H 0.26116 0.72752 0.59303 0.0
H1632 H 0.23501 0.7272 0.57204 0.0
H1633 H 0.20148 0.70818 0.61131 0.0
H1634 H 0.22744 0.70813 0.63244 0.0
H1635 H 0.30583 0.78721 0.69343 0.0
H1636 H 0.29785 0.76574 0.66348 0.0
H1637 H 0.26861 0.72311 0.68943 0.0
H1638 H 0.278 0.74384 0.71939 0.0
H1639 H 0.2549 0.73681 0.64886 0.0
H1640 H 0.29237 0.70625 0.684 0.0
H1641 H 0.31847 0.70695 0.70527 0.0
H1642 H 0.35212 0.73345 0.66966 0.0
H1643 H 0.32613 0.73334 0.64843 0.0
C1644 C 0.26092 0.66697 0.58324 0.0
C1645 C 0.274 0.67138 0.57179 0.0
C1646 C 0.26048 0.67956 0.59914 0.0
C1647 C 0.27317 0.69656 0.60374 0.0
C1648 C 0.28586 0.70127 0.59207 0.0
C1649 C 0.2862 0.68882 0.57608 0.0
C1650 C 0.27473 0.70832 0.62185 0.0
C1651 C 0.28941 0.70921 0.63434 0.0
C1652 C 0.26187 0.71795 0.62708 0.0
C1653 C 0.24624 0.71756 0.61421 0.0
C1654 C 0.2482 0.72301 0.59709 0.0
C1655 C 0.23342 0.72297 0.58519 0.0
C1656 C 0.21659 0.7176 0.59031 0.0
C1657 C 0.21452 0.71229 0.60735 0.0
C1658 C 0.22927 0.7123 0.61929 0.0
C1659 C 0.29753 0.77332 0.69257 0.0
C1660 C 0.29165 0.76732 0.70835 0.0
C1661 C 0.29294 0.76121 0.67562 0.0
C1662 C 0.28244 0.74314 0.67447 0.0
C1663 C 0.27642 0.73721 0.69019 0.0
C1664 C 0.28141 0.74914 0.70717 0.0
C1665 C 0.27922 0.72994 0.65706 0.0
C1666 C 0.26431 0.72877 0.64479 0.0
C1667 C 0.29171 0.7198 0.65202 0.0
C1668 C 0.30732 0.72016 0.66486 0.0
C1669 C 0.30532 0.71254 0.68089 0.0
C1670 C 0.32009 0.71276 0.6929 0.0
C1671 C 0.33694 0.72034 0.68887 0.0
C1672 C 0.33905 0.72768 0.67281 0.0
C1673 C 0.32431 0.72758 0.66081 0.0
H1674 H 0.34836 0.72043 0.69814 0.0
H1675 H 0.20517 0.71761 0.5811 0.0
H1676 H 0.59724 0.04327 0.78068 0.0
H1677 H 0.59769 0.05683 0.81307 0.0
H1678 H 0.6511 0.05233 0.82464 0.0
H1679 H 0.6507 0.03835 0.79254 0.0
H1680 H 0.63008 0.04079 0.84995 0.0
H1681 H 0.64504 0.09583 0.82282 0.0
H1682 H 0.64078 0.11394 0.79852 0.0
H1683 H 0.58833 0.11318 0.81106 0.0
H1684 H 0.59227 0.09503 0.83538 0.0
H1685 H 0.61217 0.07179 0.93611 0.0
H1686 H 0.63089 0.0787 0.9122 0.0
H1687 H 0.58599 0.08328 0.87723 0.0
H1688 H 0.56744 0.07672 0.90087 0.0
H1689 H 0.61415 0.10153 0.86651 0.0
H1690 H 0.59377 0.03917 0.88172 0.0
H1691 H 0.59207 0.0153 0.90134 0.0
H1692 H 0.64836 0.02488 0.90776 0.0
H1693 H 0.65035 0.04886 0.88818 0.0
C1694 C 0.60897 0.04491 0.79017 0.0
C1695 C 0.62392 0.03983 0.78405 0.0
C1696 C 0.60931 0.05289 0.80857 0.0
C1697 C 0.62465 0.05609 0.82096 0.0
C1698 C 0.63928 0.0502 0.81513 0.0
C1699 C 0.63892 0.04209 0.79681 0.0
C1700 C 0.62508 0.06494 0.84024 0.0
C1701 C 0.62719 0.05436 0.85376 0.0
C1702 C 0.62109 0.08249 0.84495 0.0
C1703 C 0.61899 0.09417 0.83096 0.0
C1704 C 0.63263 0.09959 0.82042 0.0
C1705 C 0.63026 0.10984 0.80664 0.0
C1706 C 0.6143 0.11473 0.80327 0.0
C1707 C 0.60071 0.10946 0.81373 0.0
C1708 C 0.60303 0.09927 0.82758 0.0
C1709 C 0.60652 0.07512 0.92362 0.0
C1710 C 0.58829 0.07315 0.92004 0.0
C1711 C 0.61724 0.07914 0.91004 0.0
C1712 C 0.6097 0.08084 0.89277 0.0
C1713 C 0.59208 0.08185 0.8904 0.0
C1714 C 0.58143 0.07805 0.90398 0.0
C1715 C 0.61827 0.07693 0.87613 0.0
C1716 C 0.61798 0.08843 0.86299 0.0
C1717 C 0.62333 0.05983 0.87153 0.0
C1718 C 0.62223 0.04599 0.88382 0.0
C1719 C 0.60578 0.03629 0.88747 0.0
C1720 C 0.60476 0.02272 0.89853 0.0
C1721 C 0.62011 0.01866 0.90589 0.0
C1722 C 0.6365 0.02812 0.90214 0.0
C1723 C 0.63758 0.0417 0.89108 0.0
H1724 H 0.61929 0.00813 0.91442 0.0
H1725 H 0.61247 0.12259 0.79253 0.0
H1726 H 0.26869 0.3388 0.06989 0.0
H1727 H 0.26553 0.32422 0.09721 0.0
H1728 H 0.3177 0.35564 0.12103 0.0
H1729 H 0.32065 0.37088 0.09411 0.0
H1730 H 0.30652 0.31252 0.12099 0.0
H1731 H 0.29152 0.37204 0.13836 0.0
H1732 H 0.27515 0.39603 0.13473 0.0
H1733 H 0.22649 0.35632 0.13545 0.0
H1734 H 0.24257 0.33196 0.13869 0.0
H1735 H 0.30833 0.30115 0.21483 0.0
H1736 H 0.31131 0.31407 0.18658 0.0
H1737 H 0.25514 0.29593 0.17134 0.0
H1738 H 0.25213 0.28285 0.19944 0.0
H1739 H 0.26771 0.33134 0.16614 0.0
H1740 H 0.28074 0.27236 0.14998 0.0
H1741 H 0.29519 0.24664 0.15242 0.0
H1742 H 0.34504 0.2824 0.14794 0.0
H1743 H 0.33093 0.30849 0.14578 0.0
C1744 C 0.27953 0.34252 0.08091 0.0
C1745 C 0.29493 0.35599 0.07987 0.0
C1746 C 0.27768 0.33421 0.09652 0.0
C1747 C 0.29138 0.33884 0.11115 0.0
C1748 C 0.30698 0.35186 0.10989 0.0
C1749 C 0.30862 0.36059 0.09455 0.0
C1750 C 0.28925 0.3305 0.12799 0.0
C1751 C 0.29825 0.3168 0.13102 0.0
C1752 C 0.27794 0.33558 0.1407 0.0
C1753 C 0.26823 0.3501 0.13843 0.0
C1754 C 0.27731 0.36834 0.13743 0.0
C1755 C 0.26809 0.38202 0.13552 0.0
C1756 C 0.24978 0.37768 0.13477 0.0
C1757 C 0.24066 0.35964 0.13596 0.0
C1758 C 0.24983 0.34589 0.13782 0.0
C1759 C 0.29662 0.30001 0.20549 0.0
C1760 C 0.27999 0.29098 0.20934 0.0
C1761 C 0.29835 0.30728 0.18928 0.0
C1762 C 0.28347 0.30582 0.17669 0.0
C1763 C 0.26682 0.29719 0.18077 0.0
C1764 C 0.26511 0.28972 0.19685 0.0
C1765 C 0.28522 0.31352 0.15941 0.0
C1766 C 0.27606 0.32704 0.1562 0.0
C1767 C 0.29617 0.30802 0.1464 0.0
C1768 C 0.3048 0.29248 0.14798 0.0
C1769 C 0.29482 0.27483 0.14975 0.0
C1770 C 0.30294 0.26016 0.15103 0.0
C1771 C 0.32104 0.26291 0.15041 0.0
C1772 C 0.33104 0.28032 0.14847 0.0
C1773 C 0.32298 0.29506 0.14722 0.0
H1774 H 0.3273 0.25153 0.15137 0.0
H1775 H 0.24267 0.38831 0.13334 0.0
H1776 H 0.22866 0.92771 0.98453 0.0
H1777 H 0.20703 0.94412 0.99663 0.0
H1778 H 0.24362 0.97079 0.04534 0.0
H1779 H 0.26547 0.95497 0.03307 0.0
H1780 H 0.20331 0.95112 0.0472 0.0
H1781 H 0.24402 0.99902 0.02569 0.0
H1782 H 0.26332 0.01041 0.00337 0.0
H1783 H 0.21876 0.99753 0.96173 0.0
H1784 H 0.19923 0.9857 0.98373 0.0
H1785 H 0.14677 0.01564 0.06584 0.0
H1786 H 0.17116 1.00016 0.06525 0.0
H1787 H 0.15771 0.9813 0.00654 0.0
H1788 H 0.13404 0.99731 0.00682 0.0
H1789 H 0.19126 1.00171 0.01603 0.0
H1790 H 0.15153 0.95024 0.0353 0.0
H1791 H 0.13252 0.93388 0.05533 0.0
H1792 H 0.17482 0.9511 0.09981 0.0
H1793 H 0.19402 0.96766 0.08006 0.0
C1794 C 0.23191 0.93696 0.99785 0.0
C1795 C 0.24852 0.94036 0.0079 0.0
C1796 C 0.2197 0.94625 0.0047 0.0
C1797 C 0.22401 0.95855 0.02173 0.0
C1798 C 0.24031 0.96132 0.03215 0.0
C1799 C 0.25267 0.95241 0.02512 0.0
C1800 C 0.21156 0.96911 0.0281 0.0
C1801 C 0.20082 0.96253 0.04084 0.0
C1802 C 0.20857 0.98375 0.01949 0.0
C1803 C 0.22018 0.99133 0.00633 0.0
C1804 C 0.23835 0.99847 0.01174 0.0
C1805 C 0.24934 0.00503 0.99915 0.0
C1806 C 0.24228 0.00466 0.98113 0.0
C1807 C 0.22421 0.9978 0.97569 0.0
C1808 C 0.21318 0.99118 0.98822 0.0
C1809 C 0.14899 0.00808 0.05285 0.0
C1810 C 0.1387 0.00789 0.03634 0.0
C1811 C 0.16274 0.9991 0.05259 0.0
C1812 C 0.16617 0.98978 0.03584 0.0
C1813 C 0.15521 0.98855 0.01958 0.0
C1814 C 0.14162 0.99759 0.01979 0.0
C1815 C 0.18227 0.98315 0.03461 0.0
C1816 C 0.19389 0.99067 0.02288 0.0
C1817 C 0.18599 0.96931 0.04414 0.0
C1818 C 0.17408 0.96048 0.05633 0.0
C1819 C 0.15666 0.95082 0.04945 0.0
C1820 C 0.14589 0.94141 0.06072 0.0
C1821 C 0.15243 0.94153 0.07886 0.0
C1822 C 0.16974 0.95108 0.08578 0.0
C1823 C 0.18056 0.96048 0.07457 0.0
H1824 H 0.1441 0.93415 0.08753 0.0
H1825 H 0.2508 0.00972 0.9714 0.0
H1826 H 0.72817 0.62142 0.9798 0.0
H1827 H 0.69905 0.60341 0.98347 0.0
H1828 H 0.68605 0.65397 0.00883 0.0
H1829 H 0.7153 0.67219 0.00518 0.0
H1830 H 0.67531 0.6228 0.02715 0.0
H1831 H 0.66974 0.63671 0.9658 0.0
H1832 H 0.67913 0.6379 0.93504 0.0
H1833 H 0.67281 0.57836 0.92459 0.0
H1834 H 0.66358 0.57685 0.95539 0.0
H1835 H 0.58408 0.57521 0.0213 0.0
H1836 H 0.61161 0.59806 0.02042 0.0
H1837 H 0.62753 0.55672 0.98214 0.0
H1838 H 0.59962 0.53468 0.98196 0.0
H1839 H 0.63613 0.58662 0.97095 0.0
H1840 H 0.64364 0.57123 0.03108 0.0
H1841 H 0.6369 0.56827 0.06248 0.0
H1842 H 0.6418 0.62749 0.0762 0.0
H1843 H 0.64832 0.63076 0.04478 0.0
C1844 C 0.71914 0.62876 0.98613 0.0
C1845 C 0.72405 0.64829 0.99203 0.0
C1846 C 0.70248 0.61842 0.98825 0.0
C1847 C 0.69028 0.62732 0.99634 0.0
C1848 C 0.69522 0.64679 0.00257 0.0
C1849 C 0.7119 0.65719 1.00033 0.0
C1850 C 0.67221 0.61627 0.99755 0.0
C1851 C 0.66658 0.6151 0.01488 0.0
C1852 C 0.66098 0.60585 0.9816 0.0
C1853 C 0.66605 0.60668 0.96291 0.0
C1854 C 0.67041 0.62388 0.95696 0.0
C1855 C 0.6757 0.62462 0.93952 0.0
C1856 C 0.67658 0.60822 0.92788 0.0
C1857 C 0.67211 0.59104 0.93362 0.0
C1858 C 0.66682 0.59024 0.95105 0.0
C1859 C 0.59314 0.57129 0.01224 0.0
C1860 C 0.58928 0.55333 0.00125 0.0
C1861 C 0.60917 0.58421 0.01206 0.0
C1862 C 0.62191 0.57923 0.00126 0.0
C1863 C 0.61803 0.56116 0.99048 0.0
C1864 C 0.60199 0.54848 0.99044 0.0
C1865 C 0.63914 0.59261 1.00066 0.0
C1866 C 0.64467 0.59434 0.98334 0.0
C1867 C 0.65037 0.60317 0.01669 0.0
C1868 C 0.64622 0.60119 0.0355 0.0
C1869 C 0.6431 0.58359 0.04073 0.0
C1870 C 0.63936 0.58186 0.05855 0.0
C1871 C 0.63886 0.59767 0.07131 0.0
C1872 C 0.64214 0.61525 0.06629 0.0
C1873 C 0.64586 0.61704 0.04848 0.0
H1874 H 0.63598 0.59631 0.0851 0.0
H1875 H 0.68071 0.60882 0.9144 0.0
H1876 H 0.6637 0.43183 0.25084 0.0
H1877 H 0.67764 0.40548 0.24858 0.0
H1878 H 0.72791 0.44358 0.26867 0.0
H1879 H 0.71398 0.47006 0.27007 0.0
H1880 H 0.73576 0.41836 0.24659 0.0
H1881 H 0.69777 0.40656 0.29487 0.0
H1882 H 0.66882 0.40203 0.30636 0.0
H1883 H 0.64689 0.35746 0.26033 0.0
H1884 H 0.67581 0.36144 0.2488 0.0
H1885 H 0.783 0.35019 0.26576 0.0
H1886 H 0.76758 0.37519 0.26614 0.0
H1887 H 0.71858 0.3343 0.24764 0.0
H1888 H 0.73408 0.30906 0.24781 0.0
H1889 H 0.70897 0.3599 0.2674 0.0
H1890 H 0.74476 0.36779 0.2201 0.0
H1891 H 0.7713 0.37182 0.20426 0.0
H1892 H 0.79485 0.42296 0.24242 0.0
H1893 H 0.76853 0.4191 0.25866 0.0
C1894 C 0.67774 0.43479 0.25489 0.0
C1895 C 0.68737 0.45367 0.2608 0.0
C1896 C 0.68589 0.41934 0.25381 0.0
C1897 C 0.70423 0.42163 0.25895 0.0
C1898 C 0.71387 0.44059 0.26462 0.0
C1899 C 0.70574 0.45606 0.2655 0.0
C1900 C 0.71335 0.40477 0.2582 0.0
C1901 C 0.72989 0.40583 0.25157 0.0
C1902 C 0.70597 0.38738 0.26361 0.0
C1903 C 0.68889 0.38435 0.27098 0.0
C1904 C 0.68678 0.39571 0.2873 0.0
C1905 C 0.67041 0.3932 0.29382 0.0
C1906 C 0.65605 0.3794 0.28412 0.0
C1907 C 0.65807 0.368 0.26792 0.0
C1908 C 0.67446 0.3703 0.26144 0.0
C1909 C 0.76893 0.34626 0.26165 0.0
C1910 C 0.76019 0.32699 0.25663 0.0
C1911 C 0.75991 0.36093 0.2617 0.0
C1912 C 0.74148 0.35747 0.25649 0.0
C1913 C 0.73265 0.33815 0.25171 0.0
C1914 C 0.7417 0.3234 0.25174 0.0
C1915 C 0.7317 0.37373 0.2563 0.0
C1916 C 0.715 0.37251 0.26264 0.0
C1917 C 0.73874 0.39082 0.25016 0.0
C1918 C 0.75475 0.39303 0.24074 0.0
C1919 C 0.75567 0.3798 0.22523 0.0
C1920 C 0.77066 0.38207 0.21616 0.0
C1921 C 0.78478 0.39761 0.22237 0.0
C1922 C 0.78392 0.41091 0.23766 0.0
C1923 C 0.76897 0.40869 0.2468 0.0
H1924 H 0.79636 0.39937 0.2153 0.0
H1925 H 0.64336 0.37757 0.28912 0.0
H1926 H 0.85023 0.46218 0.53955 0.0
H1927 H 0.88151 0.47004 0.5511 0.0
H1928 H 0.891 0.4342 0.5031 0.0
H1929 H 0.85958 0.42552 0.49203 0.0
H1930 H 0.91922 0.44314 0.53117 0.0
H1931 H 0.8834 0.47339 0.49532 0.0
H1932 H 0.85877 0.48764 0.48837 0.0
H1933 H 0.87469 0.52736 0.53915 0.0
H1934 H 0.89926 0.51307 0.54652 0.0
H1935 H 0.98059 0.49352 0.48358 0.0
H1936 H 0.95417 0.47578 0.49355 0.0
H1937 H 0.95727 0.52126 0.53886 0.0
H1938 H 0.98296 0.53946 0.52848 0.0
H1939 H 0.92566 0.50828 0.5209 0.0
H1940 H 0.96975 0.48138 0.54688 0.0
H1941 H 0.99539 0.46757 0.54513 0.0
H1942 H 0.96498 0.42127 0.50445 0.0
H1943 H 0.93919 0.4349 0.50585 0.0
C1944 C 0.85896 0.45544 0.53191 0.0
C1945 C 0.85296 0.44403 0.51457 0.0
C1946 C 0.87669 0.4596 0.53867 0.0
C1947 C 0.88847 0.45317 0.52758 0.0
C1948 C 0.88205 0.4394 0.51173 0.0
C1949 C 0.8642 0.43476 0.50524 0.0
C1950 C 0.90611 0.46519 0.52844 0.0
C1951 C 0.9208 0.45749 0.52925 0.0
C1952 C 0.90798 0.48379 0.5256 0.0
C1953 C 0.89284 0.49191 0.52167 0.0
C1954 C 0.88146 0.48497 0.50512 0.0
C1955 C 0.86756 0.49309 0.50108 0.0
C1956 C 0.8651 0.50833 0.51337 0.0
C1957 C 0.87654 0.51548 0.52972 0.0
C1958 C 0.89041 0.50735 0.53386 0.0
C1959 C 0.9753 0.49993 0.49531 0.0
C1960 C 0.98385 0.51771 0.50541 0.0
C1961 C 0.96057 0.48961 0.50127 0.0
C1962 C 0.95446 0.49698 0.51739 0.0
C1963 C 0.9622 0.51525 0.52666 0.0
C1964 C 0.97667 0.52567 0.52055 0.0
C1965 C 0.93884 0.48635 0.52355 0.0
C1966 C 0.92443 0.49431 0.52386 0.0
C1967 C 0.9373 0.46791 0.52668 0.0
C1968 C 0.95252 0.45918 0.52649 0.0
C1969 C 0.96852 0.46825 0.53759 0.0
C1970 C 0.98309 0.46045 0.53664 0.0
C1971 C 0.98181 0.44354 0.52468 0.0
C1972 C 0.96593 0.43434 0.51374 0.0
C1973 C 0.95132 0.44206 0.51466 0.0
H1974 H 0.99313 0.43758 0.52388 0.0
H1975 H 0.85439 0.51466 0.51017 0.0
H1976 H 0.36897 0.05122 0.26397 0.0
H1977 H 0.35539 0.0725 0.2494 0.0
H1978 H 0.38945 0.11966 0.28683 0.0
H1979 H 0.40359 0.0985 0.30117 0.0
H1980 H 0.34908 0.1135 0.28148 0.0
H1981 H 0.40147 0.11615 0.25094 0.0
H1982 H 0.4217 0.10329 0.23191 0.0
H1983 H 0.38049 0.08336 0.18648 0.0
H1984 H 0.35986 0.0957 0.2054 0.0
H1985 H 0.34029 0.19478 0.25405 0.0
H1986 H 0.35693 0.17149 0.25815 0.0
H1987 H 0.31943 0.13022 0.21776 0.0
H1988 H 0.30217 0.15312 0.21415 0.0
H1989 H 0.36059 0.13095 0.22108 0.0
H1990 H 0.30779 0.12379 0.25084 0.0
H1991 H 0.28549 0.13199 0.26992 0.0
H1992 H 0.3256 0.1566 0.31574 0.0
H1993 H 0.34822 0.14888 0.29678 0.0
C1994 C 0.37326 0.0661 0.26943 0.0
C1995 C 0.38722 0.07334 0.28377 0.0
C1996 C 0.3658 0.07816 0.2608 0.0
C1997 C 0.37199 0.09745 0.26674 0.0
C1998 C 0.38498 0.10469 0.28189 0.0
C1999 C 0.39274 0.09268 0.29026 0.0
C2000 C 0.3636 0.1101 0.25841 0.0
C2001 C 0.35172 0.11749 0.26837 0.0
C2002 C 0.36667 0.11443 0.24094 0.0
C2003 C 0.379 0.10656 0.22974 0.0
C2004 C 0.3966 0.10871 0.23703 0.0
C2005 C 0.40817 0.10159 0.22622 0.0
C2006 C 0.40236 0.09243 0.20803 0.0
C2007 C 0.38496 0.09039 0.2006 0.0
C2008 C 0.37332 0.09743 0.21137 0.0
C2009 C 0.33573 0.18084 0.24582 0.0
C2010 C 0.31973 0.17559 0.23413 0.0
C2011 C 0.34534 0.16768 0.24801 0.0
C2012 C 0.33919 0.1493 0.23832 0.0
C2013 C 0.32429 0.14447 0.22521 0.0
C2014 C 0.31449 0.15756 0.2232 0.0
C2015 C 0.34645 0.13468 0.24448 0.0
C2016 C 0.35798 0.12687 0.23414 0.0
C2017 C 0.34291 0.12958 0.26152 0.0
C2018 C 0.32971 0.13608 0.27229 0.0
C2019 C 0.31192 0.1314 0.26482 0.0
C2020 C 0.29921 0.13582 0.27566 0.0
C2021 C 0.30413 0.14474 0.29403 0.0
C2022 C 0.32182 0.14965 0.30151 0.0
C2023 C 0.33459 0.14532 0.29071 0.0
H2024 H 0.29422 0.14771 0.3025 0.0
H2025 H 0.41136 0.087 0.19966 0.0
H2026 H 0.31777 0.13068 0.52741 0.0
H2027 H 0.34644 0.12406 0.53186 0.0
H2028 H 0.36458 0.15743 0.49188 0.0
H2029 H 0.33545 0.16424 0.48721 0.0
H2030 H 0.37291 0.12369 0.48579 0.0
H2031 H 0.38074 0.17301 0.53753 0.0
H2032 H 0.37335 0.19098 0.56547 0.0
H2033 H 0.37146 0.14425 0.59276 0.0
H2034 H 0.37866 0.12592 0.56492 0.0
H2035 H 0.45715 0.10711 0.50371 0.0
H2036 H 0.43499 0.12544 0.5039 0.0
H2037 H 0.40612 0.09139 0.53813 0.0
H2038 H 0.42794 0.07264 0.53763 0.0
H2039 H 0.40623 0.13025 0.54736 0.0
H2040 H 0.39329 0.07984 0.49463 0.0
H2041 H 0.40072 0.06117 0.46713 0.0
H2042 H 0.41191 0.10986 0.44225 0.0
H2043 H 0.40474 0.12886 0.46974 0.0
C2044 C 0.32777 0.13672 0.51949 0.0
C2045 C 0.32414 0.14792 0.50679 0.0
C2046 C 0.34431 0.13305 0.52225 0.0
C2047 C 0.35782 0.14045 0.51244 0.0
C2048 C 0.35438 0.15167 0.49972 0.0
C2049 C 0.33772 0.15551 0.49702 0.0
C2050 C 0.37495 0.13514 0.5147 0.0
C2051 C 0.38043 0.12561 0.4992 0.0
C2052 C 0.38457 0.13713 0.53228 0.0
C2053 C 0.38012 0.14804 0.54906 0.0
C2054 C 0.37861 0.16651 0.54943 0.0
C2055 C 0.37449 0.17677 0.56527 0.0
C2056 C 0.3719 0.16875 0.58087 0.0
C2057 C 0.37346 0.15045 0.58067 0.0
C2058 C 0.3776 0.14013 0.56487 0.0
C2059 C 0.44612 0.10352 0.51134 0.0
C2060 C 0.4442 0.08813 0.52035 0.0
C2061 C 0.43354 0.11413 0.51156 0.0
C2062 C 0.41879 0.10964 0.52085 0.0
C2063 C 0.41741 0.09512 0.5309 0.0
C2064 C 0.42995 0.08442 0.53061 0.0
C2065 C 0.40395 0.11874 0.51848 0.0
C2066 C 0.39888 0.12879 0.53394 0.0
C2067 C 0.39461 0.11719 0.50091 0.0
C2068 C 0.39866 0.10579 0.48428 0.0
C2069 C 0.39744 0.08657 0.48333 0.0
C2070 C 0.40159 0.07594 0.46775 0.0
C2071 C 0.40683 0.08434 0.45297 0.0
C2072 C 0.40787 0.10338 0.45372 0.0
C2073 C 0.40376 0.11409 0.46929 0.0
H2074 H 0.41005 0.07608 0.44092 0.0
H2075 H 0.36871 0.17672 0.59312 0.0
H2076 H 0.66567 0.58331 0.25008 0.0
H2077 H 0.68311 0.6145 0.24944 0.0
H2078 H 0.7275 0.603 0.27938 0.0
H2079 H 0.70986 0.57121 0.27997 0.0
H2080 H 0.72432 0.63886 0.29319 0.0
H2081 H 0.72568 0.60588 0.23223 0.0
H2082 H 0.71254 0.58589 0.20224 0.0
H2083 H 0.68289 0.62557 0.19137 0.0
H2084 H 0.69573 0.64573 0.22141 0.0
H2085 H 0.78938 0.71729 0.2795 0.0
H2086 H 0.77072 0.68658 0.28 0.0
H2087 H 0.72824 0.69959 0.24827 0.0
H2088 H 0.74715 0.73093 0.24796 0.0
H2089 H 0.72947 0.66322 0.23509 0.0
H2090 H 0.72681 0.6961 0.29425 0.0
H2091 H 0.73695 0.71604 0.32488 0.0
H2092 H 0.76584 0.67709 0.33978 0.0
H2093 H 0.75607 0.65702 0.3091 0.0
C2094 C 0.67918 0.58716 0.25654 0.0
C2095 C 0.68609 0.5742 0.26509 0.0
C2096 C 0.68931 0.60529 0.25605 0.0
C2097 C 0.70697 0.61167 0.2642 0.0
C2098 C 0.71401 0.59883 0.27287 0.0
C2099 C 0.70386 0.58041 0.27313 0.0
C2100 C 0.71766 0.63163 0.26381 0.0
C2101 C 0.72568 0.64394 0.28038 0.0
C2102 C 0.71906 0.63915 0.24734 0.0
C2103 C 0.71157 0.62725 0.22914 0.0
C2104 C 0.71629 0.61031 0.22349 0.0
C2105 C 0.70891 0.59895 0.20647 0.0
C2106 C 0.69686 0.60443 0.19493 0.0
C2107 C 0.69223 0.62134 0.20034 0.0
C2108 C 0.69958 0.63275 0.21734 0.0
C2109 C 0.77598 0.7139 0.27279 0.0
C2110 C 0.76998 0.72713 0.2639 0.0
C2111 C 0.76516 0.69605 0.2731 0.0
C2112 C 0.7477 0.69018 0.26429 0.0
C2113 C 0.74153 0.70334 0.25529 0.0
C2114 C 0.75238 0.72153 0.25526 0.0
C2115 C 0.73641 0.67039 0.26449 0.0
C2116 C 0.72823 0.65813 0.2479 0.0
C2117 C 0.73461 0.66297 0.28097 0.0
C2118 C 0.74088 0.67516 0.29928 0.0
C2119 C 0.7355 0.69188 0.30397 0.0
C2120 C 0.74114 0.70319 0.32136 0.0
C2121 C 0.75208 0.69786 0.33425 0.0
C2122 C 0.75739 0.68121 0.32976 0.0
C2123 C 0.75181 0.66986 0.31238 0.0
H2124 H 0.7564 0.70661 0.34772 0.0
H2125 H 0.69113 0.59561 0.18178 0.0
H2126 H 0.90346 0.46927 0.79162 0.0
H2127 H 0.88235 0.439 0.78706 0.0
H2128 H 0.88184 0.43358 0.72815 0.0
H2129 H 0.90347 0.46393 0.73278 0.0
H2130 H 0.84816 0.43198 0.74261 0.0
H2131 H 0.89668 0.40337 0.74477 0.0
H2132 H 0.9257 0.39978 0.75672 0.0
H2133 H 0.90715 0.39198 0.80834 0.0
H2134 H 0.87809 0.3958 0.79681 0.0
H2135 H 0.7972 0.33695 0.73123 0.0
H2136 H 0.81495 0.3678 0.72983 0.0
H2137 H 0.82394 0.38144 0.7892 0.0
H2138 H 0.80619 0.35068 0.79083 0.0
H2139 H 0.85375 0.37714 0.77037 0.0
H2140 H 0.80799 0.41009 0.77126 0.0
H2141 H 0.77818 0.41282 0.76102 0.0
H2142 H 0.79099 0.41201 0.70581 0.0
H2143 H 0.82089 0.40913 0.71574 0.0
C2144 C 0.89921 0.46129 0.77777 0.0
C2145 C 0.9049 0.46855 0.76252 0.0
C2146 C 0.88724 0.44412 0.77517 0.0
C2147 C 0.88072 0.43428 0.7573 0.0
C2148 C 0.88695 0.44112 0.742 0.0
C2149 C 0.89926 0.45823 0.74464 0.0
C2150 C 0.86601 0.41795 0.755 0.0
C2151 C 0.84937 0.41972 0.74822 0.0
C2152 C 0.86776 0.40246 0.76294 0.0
C2153 C 0.8852 0.39997 0.76992 0.0
C2154 C 0.89881 0.40102 0.75871 0.0
C2155 C 0.91527 0.39892 0.76541 0.0
C2156 C 0.91827 0.39567 0.78328 0.0
C2157 C 0.9048 0.39448 0.79449 0.0
C2158 C 0.88832 0.39658 0.78787 0.0
C2159 C 0.80243 0.34677 0.74399 0.0
C2160 C 0.80101 0.34131 0.76112 0.0
C2161 C 0.81242 0.36437 0.74315 0.0
C2162 C 0.82089 0.37646 0.75943 0.0
C2163 C 0.8175 0.37202 0.77657 0.0
C2164 C 0.80741 0.35447 0.77744 0.0
C2165 C 0.83597 0.39147 0.75846 0.0
C2166 C 0.85261 0.3893 0.76454 0.0
C2167 C 0.8342 0.40663 0.7501 0.0
C2168 C 0.81663 0.40937 0.74422 0.0
C2169 C 0.80444 0.41051 0.75694 0.0
C2170 C 0.78754 0.41207 0.75119 0.0
C2171 C 0.78269 0.41258 0.73277 0.0
C2172 C 0.79479 0.41165 0.72008 0.0
C2173 C 0.81174 0.41012 0.72577 0.0
H2174 H 0.76957 0.41369 0.72832 0.0
H2175 H 0.93103 0.39406 0.78845 0.0
H2176 H 0.06599 0.83707 0.05859 0.0
H2177 H 0.06052 0.8623 0.04324 0.0
H2178 H 0.0642 0.89782 0.09619 0.0
H2179 H 0.06913 0.87256 0.11151 0.0
H2180 H 0.03715 0.90044 0.07576 0.0
H2181 H 0.09779 0.9029 0.0648 0.0
H2182 H 0.1221 0.89071 0.05271 0.0
H2183 H 0.09404 0.87714 0.99813 0.0
H2184 H 0.06954 0.88915 0.00992 0.0
H2185 H 0.05791 0.99263 0.05361 0.0
H2186 H 0.06081 0.96368 0.06378 0.0
H2187 H 0.03512 0.93161 0.01102 0.0
H2188 H 0.03138 0.96054 1.00107 0.0
H2189 H 0.07053 0.92485 0.02759 0.0
H2190 H 0.01225 0.92672 0.03766 0.0
H2191 H 0.98757 0.93848 0.04904 0.0
H2192 H 0.00945 0.94165 0.10478 0.0
H2193 H 0.03497 0.93128 0.09382 0.0
C2194 C 0.06574 0.8503 0.06696 0.0
C2195 C 0.06799 0.85272 0.08633 0.0
C2196 C 0.06271 0.86481 0.05814 0.0
C2197 C 0.06208 0.88218 0.06847 0.0
C2198 C 0.06455 0.88462 0.08781 0.0
C2199 C 0.06743 0.87012 0.0966 0.0
C2200 C 0.05809 0.89762 0.05945 0.0
C2201 C 0.04467 0.90593 0.06543 0.0
C2202 C 0.06722 0.90431 0.04525 0.0
C2203 C 0.08175 0.89668 0.03828 0.0
C2204 C 0.09674 0.89712 0.05026 0.0
C2205 C 0.11057 0.89031 0.04345 0.0
C2206 C 0.10958 0.88308 0.02468 0.0
C2207 C 0.09478 0.88269 0.01267 0.0
C2208 C 0.08092 0.88952 0.0194 0.0
C2209 C 0.05287 0.9794 0.04418 0.0
C2210 C 0.04442 0.97884 0.02655 0.0
C2211 C 0.05448 0.96288 0.05003 0.0
C2212 C 0.04812 0.94547 0.0382 0.0
C2213 C 0.04005 0.94488 0.0204 0.0
C2214 C 0.0379 0.96139 0.01475 0.0
C2215 C 0.05015 0.92804 0.04454 0.0
C2216 C 0.06307 0.91933 0.03796 0.0
C2217 C 0.04053 0.92095 0.05818 0.0
C2218 C 0.02581 0.92858 0.06487 0.0
C2219 C 0.01217 0.93054 0.05236 0.0
C2220 C 0.99798 0.93697 0.05875 0.0
C2221 C 0.99705 0.94107 0.07764 0.0
C2222 C 0.01034 0.93881 0.09016 0.0
C2223 C 0.02474 0.9328 0.08387 0.0
H2224 H 0.98595 0.94581 0.08255 0.0
H2225 H 0.12031 0.87783 0.01943 0.0
H2226 H 0.96038 0.25086 0.84129 0.0
H2227 H 0.932 0.2542 0.82812 0.0
H2228 H 0.92099 0.27559 0.88235 0.0
H2229 H 0.94932 0.27142 0.89571 0.0
H2230 H 0.89056 0.25555 0.86097 0.0
H2231 H 0.93761 0.30595 0.85428 0.0
H2232 H 0.96676 0.32031 0.84636 0.0
H2233 H 0.95104 0.29268 0.78999 0.0
H2234 H 0.92186 0.27799 0.79762 0.0
H2235 H 0.82542 0.29407 0.8124 0.0
H2236 H 0.85115 0.29344 0.8337 0.0
H2237 H 0.86981 0.26101 0.78952 0.0
H2238 H 0.84427 0.26105 0.76867 0.0
H2239 H 0.89616 0.29178 0.81044 0.0
H2240 H 0.85032 0.23906 0.81847 0.0
H2241 H 0.82111 0.22495 0.82642 0.0
H2242 H 0.83453 0.25839 0.88082 0.0
H2243 H 0.86375 0.27292 0.87306 0.0
C2244 C 0.95167 0.25572 0.85048 0.0
C2245 C 0.95703 0.26072 0.86954 0.0
C2246 C 0.9355 0.25786 0.84292 0.0
C2247 C 0.92445 0.26569 0.85412 0.0
C2248 C 0.92925 0.26963 0.87334 0.0
C2249 C 0.9454 0.26713 0.881 0.0
C2250 C 0.9087 0.27082 0.8454 0.0
C2251 C 0.89186 0.26379 0.85018 0.0
C2252 C 0.91018 0.28163 0.8313 0.0
C2253 C 0.92757 0.29081 0.82654 0.0
C2254 C 0.94039 0.3029 0.8402 0.0
C2255 C 0.95692 0.3111 0.83577 0.0
C2256 C 0.96076 0.3074 0.81768 0.0
C2257 C 0.94804 0.29555 0.80398 0.0
C2258 C 0.93149 0.28731 0.80835 0.0
C2259 C 0.83504 0.28685 0.80731 0.0
C2260 C 0.83268 0.2775 0.78887 0.0
C2261 C 0.84972 0.28646 0.81947 0.0
C2262 C 0.86245 0.27712 0.81322 0.0
C2263 C 0.86025 0.2683 0.79471 0.0
C2264 C 0.84553 0.2683 0.78279 0.0
C2265 C 0.87807 0.27606 0.82561 0.0
C2266 C 0.89492 0.28388 0.8215 0.0
C2267 C 0.87655 0.26615 0.84037 0.0
C2268 C 0.85912 0.25724 0.84512 0.0
C2269 C 0.84698 0.24352 0.83207 0.0
C2270 C 0.83044 0.23543 0.83655 0.0
C2271 C 0.82594 0.24082 0.8541 0.0
C2272 C 0.83801 0.25426 0.86722 0.0
C2273 C 0.85457 0.26243 0.86279 0.0
H2274 H 0.81312 0.23454 0.85754 0.0
H2275 H 0.97357 0.31373 0.81428 0.0
H2276 H 0.5838 0.22997 0.60698 0.0
H2277 H 0.5779 0.19916 0.58767 0.0
H2278 H 0.54375 0.21576 0.54841 0.0
H2279 H 0.54965 0.24714 0.56793 0.0
H2280 H 0.53014 0.17886 0.55988 0.0
H2281 H 0.58006 0.21195 0.53488 0.0
H2282 H 0.60952 0.23307 0.53733 0.0
H2283 H 0.63187 0.19682 0.56629 0.0
H2284 H 0.60251 0.17558 0.56417 0.0
H2285 H 0.52532 0.09 0.50401 0.0
H2286 H 0.5281 0.12352 0.51383 0.0
H2287 H 0.57446 0.12714 0.55115 0.0
H2288 H 0.57213 0.09385 0.54087 0.0
H2289 H 0.57967 0.15564 0.53556 0.0
H2290 H 0.53197 0.12458 0.56445 0.0
H2291 H 0.50329 0.10341 0.56574 0.0
H2292 H 0.47725 0.13493 0.53404 0.0
H2293 H 0.50583 0.15611 0.53226 0.0
C2294 C 0.57507 0.22721 0.59421 0.0
C2295 C 0.5672 0.24104 0.58898 0.0
C2296 C 0.57173 0.20955 0.58319 0.0
C2297 C 0.56043 0.20522 0.56663 0.0
C2298 C 0.55251 0.21891 0.56119 0.0
C2299 C 0.55601 0.23681 0.57224 0.0
C2300 C 0.55728 0.18627 0.5553 0.0
C2301 C 0.54078 0.1738 0.55408 0.0
C2302 C 0.57138 0.17964 0.54837 0.0
C2303 C 0.58909 0.19222 0.54939 0.0
C2304 C 0.59125 0.20853 0.54183 0.0
C2305 C 0.60793 0.22051 0.54315 0.0
C2306 C 0.62255 0.2163 0.55197 0.0
C2307 C 0.62053 0.20006 0.55944 0.0
C2308 C 0.60389 0.18802 0.55814 0.0
C2309 C 0.53623 0.09802 0.51414 0.0
C2310 C 0.54855 0.08933 0.52165 0.0
C2311 C 0.53771 0.11714 0.51985 0.0
C2312 C 0.55131 0.12782 0.53346 0.0
C2313 C 0.56386 0.11922 0.54061 0.0
C2314 C 0.56255 0.10018 0.53469 0.0
C2315 C 0.55258 0.14794 0.54041 0.0
C2316 C 0.56881 0.16064 0.54089 0.0
C2317 C 0.53829 0.1546 0.54702 0.0
C2318 C 0.52109 0.14181 0.54801 0.0
C2319 C 0.52016 0.1269 0.55759 0.0
C2320 C 0.50391 0.11491 0.55843 0.0
C2321 C 0.48847 0.11779 0.54993 0.0
C2322 C 0.48924 0.13268 0.54057 0.0
C2323 C 0.50545 0.14468 0.53964 0.0
H2324 H 0.47591 0.10856 0.55067 0.0
H2325 H 0.63545 0.2256 0.553 0.0
H2326 H 0.54857 0.77172 0.35899 0.0
H2327 H 0.57632 0.78111 0.34663 0.0
H2328 H 0.60482 0.77505 0.39667 0.0
H2329 H 0.57696 0.76667 0.40954 0.0
H2330 H 0.62324 0.80385 0.38411 0.0
H2331 H 0.59509 0.73978 0.35657 0.0
H2332 H 0.56979 0.71464 0.34058 0.0
H2333 H 0.56828 0.74238 0.29434 0.0
H2334 H 0.59346 0.76778 0.31016 0.0
H2335 H 0.69989 0.79072 0.34072 0.0
H2336 H 0.67456 0.7894 0.35798 0.0
H2337 H 0.64332 0.79667 0.31034 0.0
H2338 H 0.66827 0.79739 0.29288 0.0
H2339 H 0.62699 0.76746 0.32298 0.0
H2340 H 0.65601 0.83082 0.34956 0.0
H2341 H 0.67953 0.85752 0.36617 0.0
H2342 H 0.67932 0.83239 0.41423 0.0
H2343 H 0.65593 0.80536 0.39782 0.0
C2344 C 0.56074 0.77238 0.36737 0.0
C2345 C 0.56054 0.76809 0.3851 0.0
C2346 C 0.57665 0.77776 0.36029 0.0
C2347 C 0.59275 0.77832 0.37047 0.0
C2348 C 0.59263 0.77463 0.38845 0.0
C2349 C 0.57669 0.76969 0.39575 0.0
C2350 C 0.60946 0.78168 0.36186 0.0
C2351 C 0.62418 0.79572 0.37087 0.0
C2352 C 0.61069 0.77135 0.34442 0.0
C2353 C 0.59609 0.75568 0.33456 0.0
C2354 C 0.58936 0.74049 0.34298 0.0
C2355 C 0.57503 0.72622 0.33397 0.0
C2356 C 0.56742 0.72692 0.31647 0.0
C2357 C 0.57419 0.74184 0.3079 0.0
C2358 C 0.58851 0.75616 0.31686 0.0
C2359 C 0.68765 0.79214 0.33392 0.0
C2360 C 0.68619 0.79403 0.31528 0.0
C2361 C 0.6732 0.79159 0.34391 0.0
C2362 C 0.65695 0.79295 0.33552 0.0
C2363 C 0.65568 0.79557 0.31717 0.0
C2364 C 0.67007 0.79614 0.30721 0.0
C2365 C 0.64082 0.78983 0.34505 0.0
C2366 C 0.62618 0.77564 0.33625 0.0
C2367 C 0.63979 0.80004 0.36266 0.0
C2368 C 0.65434 0.81592 0.37236 0.0
C2369 C 0.66114 0.83083 0.36358 0.0
C2370 C 0.6744 0.84606 0.37298 0.0
C2371 C 0.68092 0.84663 0.39122 0.0
C2372 C 0.67426 0.83191 0.40008 0.0
C2373 C 0.66099 0.81663 0.39074 0.0
H2374 H 0.69105 0.85854 0.39851 0.0
H2375 H 0.55629 0.7159 0.30954 0.0
H2376 H 0.09496 0.25963 0.4211 0.0
H2377 H 0.08315 0.22969 0.43035 0.0
H2378 H 0.03094 0.22992 0.40749 0.0
H2379 H 0.04278 0.25954 0.39751 0.0
H2380 H 0.03971 0.22589 0.44867 0.0
H2381 H 0.03978 0.19997 0.38553 0.0
H2382 H 0.05193 0.19538 0.35605 0.0
H2383 H 0.09317 0.17528 0.38158 0.0
H2384 H 0.08145 0.1801 0.41133 0.0
H2385 H 0.01453 0.13932 0.47991 0.0
H2386 H 0.01462 0.16254 0.46006 0.0
H2387 H 0.06918 0.16478 0.45426 0.0
H2388 H 0.06908 0.14155 0.47376 0.0
H2389 H 0.05189 0.16524 0.42239 0.0
H2390 H 0.05574 0.1965 0.48589 0.0
H2391 H 0.04604 0.20378 0.51641 0.0
H2392 H 0.99974 0.21592 0.49129 0.0
H2393 H 0.00903 0.20839 0.46058 0.0
C2394 C 0.08099 0.25326 0.41807 0.0
C2395 C 0.06971 0.2618 0.40877 0.0
C2396 C 0.07431 0.23617 0.42316 0.0
C2397 C 0.05628 0.22768 0.41934 0.0
C2398 C 0.04493 0.23628 0.41028 0.0
C2399 C 0.05167 0.25314 0.40472 0.0
C2400 C 0.04931 0.21057 0.42628 0.0
C2401 C 0.04187 0.21243 0.44273 0.0
C2402 C 0.05256 0.19331 0.41853 0.0
C2403 C 0.05983 0.1906 0.40073 0.0
C2404 C 0.05157 0.19481 0.38493 0.0
C2405 C 0.05835 0.19211 0.36815 0.0
C2406 C 0.07334 0.1851 0.36695 0.0
C2407 C 0.08157 0.18075 0.38253 0.0
C2408 C 0.07486 0.18345 0.39936 0.0
C2409 C 0.02651 0.14478 0.47435 0.0
C2410 C 0.04187 0.13879 0.47851 0.0
C2411 C 0.02653 0.15797 0.463 0.0
C2412 C 0.04196 0.16548 0.45587 0.0
C2413 C 0.05711 0.15908 0.45957 0.0
C2414 C 0.05706 0.14583 0.47074 0.0
C2415 C 0.04284 0.18068 0.44527 0.0
C2416 C 0.04919 0.17849 0.42812 0.0
C2417 C 0.03881 0.19778 0.45253 0.0
C2418 C 0.0329 0.20152 0.47092 0.0
C2419 C 0.04335 0.20043 0.48685 0.0
C2420 C 0.03796 0.20467 0.50419 0.0
C2421 C 0.02224 0.21021 0.50578 0.0
C2422 C 0.01187 0.21153 0.49004 0.0
C2423 C 0.01717 0.20725 0.47266 0.0
H2424 H 0.01812 0.21357 0.51923 0.0
H2425 H 0.07855 0.18298 0.35394 0.0
H2426 H 0.55877 0.26587 0.14538 0.0
H2427 H 0.58744 0.26774 0.16198 0.0
H2428 H 0.5626 0.25377 0.20927 0.0
H2429 H 0.53392 0.25248 0.19295 0.0
H2430 H 0.59089 0.2817 0.21928 0.0
H2431 H 0.57659 0.22119 0.18103 0.0
H2432 H 0.56709 0.19794 0.1522 0.0
H2433 H 0.61192 0.22463 0.12881 0.0
H2434 H 0.62156 0.24823 0.15739 0.0
H2435 H 0.66585 0.24877 0.25462 0.0
H2436 H 0.63694 0.25395 0.24515 0.0
H2437 H 0.65838 0.28119 0.20223 0.0
H2438 H 0.68726 0.27634 0.21177 0.0
H2439 H 0.63119 0.2457 0.19159 0.0
H2440 H 0.64557 0.3057 0.2321 0.0
H2441 H 0.65464 0.32698 0.26207 0.0
H2442 H 0.60836 0.29922 0.28254 0.0
H2443 H 0.59943 0.27709 0.25294 0.0
C2444 C 0.55947 0.26321 0.15932 0.0
C2445 C 0.54428 0.25901 0.16796 0.0
C2446 C 0.57577 0.26421 0.16872 0.0
C2447 C 0.57697 0.26062 0.18669 0.0
C2448 C 0.56182 0.25656 0.19539 0.0
C2449 C 0.54553 0.25582 0.18608 0.0
C2450 C 0.59414 0.26135 0.19644 0.0
C2451 C 0.59964 0.27364 0.21341 0.0
C2452 C 0.60543 0.25086 0.18855 0.0
C2453 C 0.59973 0.23659 0.17133 0.0
C2454 C 0.58436 0.22219 0.1697 0.0
C2455 C 0.57896 0.20894 0.1534 0.0
C2456 C 0.58888 0.20984 0.13867 0.0
C2457 C 0.60424 0.22397 0.14022 0.0
C2458 C 0.60969 0.23727 0.15648 0.0
C2459 C 0.66446 0.25646 0.24362 0.0
C2460 C 0.67847 0.26181 0.23359 0.0
C2461 C 0.64806 0.2594 0.23827 0.0
C2462 C 0.64573 0.26775 0.22296 0.0
C2463 C 0.6601 0.27465 0.21404 0.0
C2464 C 0.67645 0.27179 0.21941 0.0
C2465 C 0.62803 0.26632 0.21422 0.0
C2466 C 0.62239 0.25372 0.19747 0.0
C2467 C 0.61656 0.27624 0.22251 0.0
C2468 C 0.62196 0.28954 0.24034 0.0
C2469 C 0.63745 0.30391 0.24306 0.0
C2470 C 0.64255 0.31618 0.25999 0.0
C2471 C 0.63205 0.31453 0.27419 0.0
C2472 C 0.61649 0.30049 0.27153 0.0
C2473 C 0.61145 0.28802 0.2547 0.0
H2474 H 0.63598 0.32413 0.28725 0.0
H2475 H 0.58467 0.19956 0.12607 0.0
H2476 H 0.55981 0.85803 0.90134 0.0
H2477 H 0.5513 0.88457 0.91904 0.0
H2478 H 0.60439 0.91806 0.92322 0.0
H2479 H 0.61284 0.89155 0.90482 0.0
H2480 H 0.58613 0.91297 0.9581 0.0
H2481 H 0.57958 0.93034 0.89786 0.0
H2482 H 0.56794 0.92343 0.86491 0.0
H2483 H 0.51513 0.91177 0.87868 0.0
H2484 H 0.52647 0.91833 0.91172 0.0
H2485 H 0.57654 0.99688 0.00503 0.0
H2486 H 0.58397 0.97391 0.98161 0.0
H2487 H 0.52878 0.95075 0.96217 0.0
H2488 H 0.52139 0.97467 0.98497 0.0
H2489 H 0.5471 0.9499 0.93411 0.0
H2490 H 0.5501 0.93018 0.99153 0.0
H2491 H 0.55832 0.93408 0.025 0.0
H2492 H 0.61298 0.9452 0.01748 0.0
H2493 H 0.60509 0.94163 0.98396 0.0
C2494 C 0.56959 0.87113 0.90598 0.0
C2495 C 0.58694 0.87297 0.90197 0.0
C2496 C 0.56472 0.8862 0.91591 0.0
C2497 C 0.57725 0.9031 0.92221 0.0
C2498 C 0.59462 0.90502 0.91824 0.0
C2499 C 0.59941 0.89003 0.90784 0.0
C2500 C 0.57231 0.9183 0.93401 0.0
C2501 C 0.5779 0.92135 0.95289 0.0
C2502 C 0.56073 0.92823 0.9271 0.0
C2503 C 0.55389 0.92468 0.90726 0.0
C2504 C 0.56549 0.92616 0.89386 0.0
C2505 C 0.55894 0.92233 0.87517 0.0
C2506 C 0.54081 0.91712 0.8697 0.0
C2507 C 0.52918 0.9158 0.88293 0.0
C2508 C 0.53566 0.91959 0.90165 0.0
C2509 C 0.56604 0.98681 0.99579 0.0
C2510 C 0.54842 0.98699 0.99697 0.0
C2511 C 0.57026 0.97381 0.9824 0.0
C2512 C 0.55688 0.96037 0.97054 0.0
C2513 C 0.53925 0.96096 0.97131 0.0
C2514 C 0.53505 0.97438 0.98439 0.0
C2515 C 0.56142 0.94508 0.95825 0.0
C2516 C 0.55551 0.94172 0.93935 0.0
C2517 C 0.57219 0.93429 0.96519 0.0
C2518 C 0.57701 0.93574 0.98525 0.0
C2519 C 0.56388 0.9335 0.99702 0.0
C2520 C 0.56847 0.93566 0.016 0.0
C2521 C 0.58616 0.93991 0.02336 0.0
C2522 C 0.59929 0.94191 0.01175 0.0
C2523 C 0.59476 0.93978 0.99276 0.0
H2524 H 0.5897 0.94164 0.03807 0.0
H2525 H 0.53576 0.91415 0.85522 0.0
H2526 H 0.96336 0.75084 0.70511 0.0
H2527 H 0.93774 0.75671 0.71859 0.0
H2528 H 0.90776 0.74349 0.66454 0.0
H2529 H 0.93414 0.73874 0.6507 0.0
H2530 H 0.90217 0.77376 0.6837 0.0
H2531 H 0.9 0.71231 0.69586 0.0
H2532 H 0.91197 0.68715 0.70578 0.0
H2533 H 0.9282 0.72042 0.76003 0.0
H2534 H 0.91619 0.74566 0.75048 0.0
H2535 H 0.82169 0.75893 0.72225 0.0
H2536 H 0.8471 0.75561 0.70646 0.0
H2537 H 0.88188 0.78607 0.75537 0.0
H2538 H 0.85619 0.79008 0.77114 0.0
H2539 H 0.88389 0.74696 0.73804 0.0
H2540 H 0.88399 0.80805 0.72467 0.0
H2541 H 0.86945 0.83116 0.71411 0.0
H2542 H 0.85431 0.79605 0.66064 0.0
H2543 H 0.86857 0.77258 0.67096 0.0
C2544 C 0.95124 0.74887 0.69609 0.0
C2545 C 0.95051 0.74412 0.67694 0.0
C2546 C 0.93661 0.75216 0.70381 0.0
C2547 C 0.9208 0.75 0.69257 0.0
C2548 C 0.9199 0.74503 0.67338 0.0
C2549 C 0.93482 0.74227 0.66554 0.0
C2550 C 0.90567 0.75403 0.70114 0.0
C2551 C 0.89794 0.76766 0.69537 0.0
C2552 C 0.90044 0.74625 0.71653 0.0
C2553 C 0.90728 0.73089 0.72242 0.0
C2554 C 0.90613 0.71423 0.70989 0.0
C2555 C 0.91288 0.69994 0.71547 0.0
C2556 C 0.92084 0.70218 0.73352 0.0
C2557 C 0.92198 0.71867 0.74607 0.0
C2558 C 0.91512 0.73292 0.74062 0.0
C2559 C 0.8348 0.76482 0.72959 0.0
C2560 C 0.83735 0.77433 0.74785 0.0
C2561 C 0.84916 0.76317 0.72055 0.0
C2562 C 0.86608 0.77078 0.72985 0.0
C2563 C 0.86872 0.78036 0.74814 0.0
C2564 C 0.85425 0.78246 0.75709 0.0
C2565 C 0.88079 0.76683 0.7208 0.0
C2566 C 0.88824 0.75304 0.72639 0.0
C2567 C 0.88539 0.77415 0.70506 0.0
C2568 C 0.87725 0.78849 0.69864 0.0
C2569 C 0.87748 0.8052 0.71069 0.0
C2570 C 0.8693 0.81838 0.70474 0.0
C2571 C 0.86092 0.81506 0.68672 0.0
C2572 C 0.8608 0.7986 0.67459 0.0
C2573 C 0.86896 0.78537 0.68048 0.0
H2574 H 0.85455 0.82525 0.68216 0.0
H2575 H 0.92611 0.69112 0.7378 0.0
H2576 H 0.1191 0.98384 0.82039 0.0
H2577 H 0.10554 0.98399 0.84933 0.0
H2578 H 0.11598 0.04403 0.85822 0.0
H2579 H 0.129 0.04385 0.82941 0.0
H2580 H 0.12282 0.03459 0.89084 0.0
H2581 H 0.07378 0.01425 0.84331 0.0
H2582 H 0.05469 0.99411 0.81608 0.0
H2583 H 0.04769 0.9474 0.84393 0.0
H2584 H 0.06696 0.9672 0.87125 0.0
H2585 H 0.07164 0.04881 0.96679 0.0
H2586 H 0.086 0.04812 0.93863 0.0
H2587 H 0.0623 0.98905 0.92243 0.0
H2588 H 0.04695 0.99027 0.94971 0.0
H2589 H 0.06257 0.99772 0.89301 0.0
H2590 H 0.11288 0.01682 0.93986 0.0
H2591 H 0.13185 0.03667 0.96736 0.0
H2592 H 0.13708 0.08443 0.94109 0.0
H2593 H 0.11797 0.0649 0.91353 0.0
C2594 C 0.11886 0.99713 0.82864 0.0
C2595 C 0.12571 0.01388 0.82229 0.0
C2596 C 0.11078 0.99723 0.84529 0.0
C2597 C 0.10938 0.01408 0.85656 0.0
C2598 C 0.11665 0.03071 0.85034 0.0
C2599 C 0.1243 0.03059 0.83363 0.0
C2600 C 0.10055 0.01472 0.8746 0.0
C2601 C 0.10958 0.02652 0.89113 0.0
C2602 C 0.08327 0.00418 0.87583 0.0
C2603 C 0.07204 0.99215 0.85925 0.0
C2604 C 0.06836 0.99963 0.84356 0.0
C2605 C 0.05746 0.98829 0.82812 0.0
C2606 C 0.05004 0.96947 0.82824 0.0
C2607 C 0.05349 0.96197 0.84382 0.0
C2608 C 0.0644 0.97324 0.85929 0.0
C2609 C 0.06982 0.03555 0.9575 0.0
C2610 C 0.05834 0.01947 0.96126 0.0
C2611 C 0.07821 0.03506 0.94106 0.0
C2612 C 0.07605 0.01834 0.92773 0.0
C2613 C 0.06466 1.00232 0.93181 0.0
C2614 C 0.05593 1.00295 0.94787 0.0
C2615 C 0.08499 0.01735 0.9096 0.0
C2616 C 0.07592 0.0056 0.89293 0.0
C2617 C 0.10235 0.02774 0.90827 0.0
C2618 C 0.11388 0.03945 0.92474 0.0
C2619 C 0.11802 0.03158 0.94 0.0
C2620 C 0.12879 0.04277 0.95559 0.0
C2621 C 0.13563 0.06181 0.95598 0.0
C2622 C 0.13175 0.06969 0.94077 0.0
C2623 C 0.12096 0.05857 0.92517 0.0
H2624 H 0.14396 0.07045 0.96807 0.0
H2625 H 0.04157 0.96073 0.81629 0.0
H2626 H 0.81889 0.38154 0.5333 0.0
H2627 H 0.82995 0.37141 0.5607 0.0
H2628 H 0.80275 0.40599 0.59415 0.0
H2629 H 0.79295 0.41735 0.5668 0.0
H2630 H 0.83238 0.40684 0.61255 0.0
H2631 H 0.7852 0.35741 0.57704 0.0
H2632 H 0.77001 0.33508 0.549 0.0
H2633 H 0.81377 0.30954 0.547 0.0
H2634 H 0.82931 0.33187 0.5749 0.0
H2635 H 0.81459 0.35357 0.68267 0.0
H2636 H 0.81659 0.3723 0.65861 0.0
H2637 H 0.84801 0.33868 0.63072 0.0
H2638 H 0.84498 0.31904 0.65391 0.0
H2639 H 0.81955 0.33821 0.60952 0.0
H2640 H 0.86479 0.38643 0.64873 0.0
H2641 H 0.87747 0.40777 0.67816 0.0
H2642 H 0.83469 0.43459 0.67493 0.0
H2643 H 0.82166 0.4133 0.64555 0.0
C2644 C 0.81525 0.38685 0.54653 0.0
C2645 C 0.80475 0.39974 0.54811 0.0
C2646 C 0.82159 0.38115 0.56214 0.0
C2647 C 0.81677 0.38757 0.57936 0.0
C2648 C 0.80655 0.40082 0.58097 0.0
C2649 C 0.80078 0.40709 0.56541 0.0
C2650 C 0.82151 0.37965 0.59545 0.0
C2651 C 0.82953 0.39184 0.61195 0.0
C2652 C 0.81798 0.36008 0.59454 0.0
C2653 C 0.80848 0.34641 0.57795 0.0
C2654 C 0.79161 0.34707 0.57057 0.0
C2655 C 0.78294 0.33442 0.55471 0.0
C2656 C 0.79094 0.32093 0.5462 0.0
C2657 C 0.8076 0.32001 0.55359 0.0
C2658 C 0.81633 0.33265 0.56943 0.0
C2659 C 0.82207 0.35028 0.6715 0.0
C2660 C 0.82932 0.33461 0.66997 0.0
C2661 C 0.82347 0.36121 0.65795 0.0
C2662 C 0.83251 0.35687 0.64297 0.0
C2663 C 0.84102 0.34223 0.64225 0.0
C2664 C 0.83935 0.33109 0.65559 0.0
C2665 C 0.8305 0.36535 0.62664 0.0
C2666 C 0.82279 0.35322 0.61006 0.0
C2667 C 0.83404 0.38491 0.62766 0.0
C2668 C 0.84223 0.39823 0.64495 0.0
C2669 C 0.85808 0.39686 0.6543 0.0
C2670 C 0.86532 0.40895 0.67098 0.0
C2671 C 0.85688 0.42252 0.67842 0.0
C2672 C 0.84123 0.42409 0.66913 0.0
C2673 C 0.83393 0.41206 0.65244 0.0
H2674 H 0.86247 0.4318 0.69137 0.0
H2675 H 0.78422 0.31117 0.5339 0.0
H2676 H 0.43429 0.02824 0.33579 0.0
H2677 H 0.44242 0.02215 0.36622 0.0
H2678 H 0.4967 0.0311 0.35609 0.0
H2679 H 0.48855 0.03646 0.32528 0.0
H2680 H 0.48672 1.00087 0.37103 0.0
H2681 H 0.47917 0.06506 0.37994 0.0
H2682 H 0.46148 0.08825 0.37805 0.0
H2683 H 0.42606 0.06172 0.41214 0.0
H2684 H 0.44334 0.03811 0.41389 0.0
H2685 H 0.54566 0.04479 0.45076 0.0
H2686 H 0.52491 0.04232 0.42328 0.0
H2687 H 0.48424 0.00669 0.44569 0.0
H2688 H 0.50499 0.00802 0.47243 0.0
H2689 H 0.47956 0.04377 0.42698 0.0
H2690 H 0.48983 0.9812 0.42033 0.0
H2691 H 0.5093 0.95979 0.42281 0.0
H2692 H 0.54071 0.98482 0.38467 0.0
H2693 H 0.52166 0.00671 0.38236 0.0
C2694 C 0.44801 0.02918 0.34017 0.0
C2695 C 0.46095 0.03315 0.32843 0.0
C2696 C 0.45255 0.02553 0.35743 0.0
C2697 C 0.4701 0.02631 0.36327 0.0
C2698 C 0.48304 0.03038 0.35164 0.0
C2699 C 0.47846 0.03364 0.33422 0.0
C2700 C 0.47538 0.02356 0.38174 0.0
C2701 C 0.485 0.0101 0.38329 0.0
C2702 C 0.47257 0.03528 0.39766 0.0
C2703 C 0.46239 0.04967 0.39681 0.0
C2704 C 0.46753 0.06408 0.3869 0.0
C2705 C 0.45757 0.0773 0.38586 0.0
C2706 C 0.44261 0.07641 0.39491 0.0
C2707 C 0.43761 0.06234 0.40508 0.0
C2708 C 0.44746 0.04903 0.40608 0.0
C2709 C 0.53231 0.03645 0.44974 0.0
C2710 C 0.5268 0.02671 0.46361 0.0
C2711 C 0.52053 0.03518 0.43426 0.0
C2712 C 0.50324 0.02441 0.43283 0.0
C2713 C 0.49758 0.0151 0.44684 0.0
C2714 C 0.50944 0.01593 0.46201 0.0
C2715 C 0.49155 0.02182 0.41593 0.0
C2716 C 0.48067 0.03412 0.41474 0.0
C2717 C 0.49322 0.00912 0.40032 0.0
C2718 C 0.50446 0.99572 0.40135 0.0
C2719 C 0.50101 0.98228 0.41265 0.0
C2720 C 0.51195 0.97004 0.414 0.0
C2721 C 0.52627 0.97098 0.40394 0.0
C2722 C 0.52964 0.98413 0.39248 0.0
C2723 C 0.51878 0.99646 0.39115 0.0
H2724 H 0.53472 0.96149 0.405 0.0
H2725 H 0.43493 0.08666 0.39409 0.0
H2726 H 0.8007 0.68704 0.06715 0.0
H2727 H 0.8026 0.70505 0.09812 0.0
H2728 H 0.77862 0.74471 0.07597 0.0
H2729 H 0.77734 0.72699 0.04464 0.0
H2730 H 0.80388 0.76103 0.10819 0.0
H2731 H 0.75255 0.70864 0.08842 0.0
H2732 H 0.73835 0.67554 0.07541 0.0
H2733 H 0.76685 0.65844 0.11882 0.0
H2734 H 0.7814 0.69141 0.13193 0.0
H2735 H 0.76967 0.78538 0.19508 0.0
H2736 H 0.77057 0.77585 0.16176 0.0
H2737 H 0.79682 0.73321 0.17293 0.0
H2738 H 0.79628 0.74285 0.20587 0.0
H2739 H 0.76821 0.72067 0.14508 0.0
H2740 H 0.82069 0.76928 0.16412 0.0
H2741 H 0.8384 0.80094 0.17796 0.0
H2742 H 0.81171 0.82392 0.13784 0.0
H2743 H 0.79361 0.79237 0.12394 0.0
C2744 C 0.79626 0.69987 0.06884 0.0
C2745 C 0.78862 0.70551 0.05362 0.0
C2746 C 0.79736 0.71015 0.08652 0.0
C2747 C 0.79033 0.72592 0.08934 0.0
C2748 C 0.78402 0.7325 0.07405 0.0
C2749 C 0.78327 0.72238 0.05621 0.0
C2750 C 0.78745 0.73375 0.10819 0.0
C2751 C 0.7958 0.75237 0.11617 0.0
C2752 C 0.77724 0.72226 0.11872 0.0
C2753 C 0.76809 0.70248 0.11111 0.0
C2754 C 0.75581 0.69781 0.09516 0.0
C2755 C 0.74771 0.67907 0.08776 0.0
C2756 C 0.7517 0.6649 0.09628 0.0
C2757 C 0.76376 0.66943 0.11224 0.0
C2758 C 0.77191 0.68814 0.11967 0.0
C2759 C 0.7754 0.77385 0.19028 0.0
C2760 C 0.78284 0.76476 0.20288 0.0
C2761 C 0.77607 0.76855 0.17137 0.0
C2762 C 0.78388 0.75392 0.165 0.0
C2763 C 0.7908 0.74455 0.17761 0.0
C2764 C 0.79044 0.75004 0.19637 0.0
C2765 C 0.78473 0.74788 0.14519 0.0
C2766 C 0.77597 0.72951 0.13701 0.0
C2767 C 0.79487 0.75949 0.13474 0.0
C2768 C 0.80557 0.7785 0.14318 0.0
C2769 C 0.81841 0.78111 0.1584 0.0
C2770 C 0.82857 0.79902 0.16622 0.0
C2771 C 0.82612 0.81445 0.15884 0.0
C2772 C 0.81354 0.81196 0.14359 0.0
C2773 C 0.80333 0.79406 0.13573 0.0
H2774 H 0.83402 0.82831 0.16489 0.0
H2775 H 0.74544 0.6504 0.09051 0.0
H2776 H 0.11784 0.02794 0.72128 0.0
H2777 H 0.10412 0.03296 0.69231 0.0
H2778 H 0.11879 0.98491 0.66316 0.0
H2779 H 0.13419 0.98138 0.69196 0.0
H2780 H 0.12049 0.00347 0.64061 0.0
H2781 H 0.07102 0.99224 0.67449 0.0
H2782 H 0.05353 0.99663 0.70024 0.0
H2783 H 0.05722 0.05359 0.69439 0.0
H2784 H 0.07484 0.04957 0.6687 0.0
H2785 H 0.06353 0.99641 0.5576 0.0
H2786 H 0.07577 0.99192 0.58745 0.0
H2787 H 0.07552 0.04837 0.61146 0.0
H2788 H 0.06293 0.05286 0.58153 0.0
H2789 H 0.06589 0.02588 0.63596 0.0
H2790 H 0.115 0.03403 0.6 0.0
H2791 H 0.12909 0.02605 0.57229 0.0
H2792 H 0.12193 0.96947 0.58083 0.0
H2793 H 0.10767 0.9771 0.60851 0.0
C2794 C 0.11804 0.01835 0.70871 0.0
C2795 C 0.12712 0.0041 0.70927 0.0
C2796 C 0.10987 0.02107 0.69186 0.0
C2797 C 0.10957 0.00909 0.6748 0.0
C2798 C 0.11853 0.99467 0.67558 0.0
C2799 C 0.12733 0.99246 0.6923 0.0
C2800 C 0.1007 0.0118 0.65627 0.0
C2801 C 0.10836 0.00805 0.63988 0.0
C2802 C 0.08487 0.01815 0.65434 0.0
C2803 C 0.0744 0.02066 0.66983 0.0
C2804 C 0.06818 0.00573 0.67878 0.0
C2805 C 0.05823 0.00815 0.69334 0.0
C2806 C 0.05432 0.0254 0.69898 0.0
C2807 C 0.06029 0.04025 0.69003 0.0
C2808 C 0.07024 0.0379 0.67546 0.0
C2809 C 0.06602 0.00798 0.56914 0.0
C2810 C 0.06217 0.02511 0.56669 0.0
C2811 C 0.07322 0.00539 0.58643 0.0
C2812 C 0.07709 0.01984 0.60215 0.0
C2813 C 0.07289 0.03685 0.59985 0.0
C2814 C 0.06567 0.03946 0.58251 0.0
C2815 C 0.08564 0.0173 0.62071 0.0
C2816 C 0.07796 0.02118 0.63696 0.0
C2817 C 0.1011 0.01051 0.62246 0.0
C2818 C 0.11025 0.00612 0.60626 0.0
C2819 C 0.11645 0.0199 0.59596 0.0
C2820 C 0.12444 0.01543 0.58026 0.0
C2821 C 0.12639 0.99726 0.5748 0.0
C2822 C 0.12043 0.98354 0.58509 0.0
C2823 C 0.11243 0.98794 0.6008 0.0
H2824 H 0.13253 0.99381 0.56261 0.0
H2825 H 0.04662 0.02724 0.71026 0.0
H2826 H 0.77433 0.37756 0.43861 0.0
H2827 H 0.77756 0.355 0.41218 0.0
H2828 H 0.83295 0.38175 0.41709 0.0
H2829 H 0.82933 0.40524 0.44281 0.0
H2830 H 0.81974 0.37549 0.38355 0.0
H2831 H 0.8166 0.33608 0.42889 0.0
H2832 H 0.80444 0.32166 0.45415 0.0
H2833 H 0.75535 0.2971 0.41967 0.0
H2834 H 0.76713 0.31147 0.39428 0.0
H2835 H 0.81587 0.30288 0.30527 0.0
H2836 H 0.82505 0.32279 0.33586 0.0
H2837 H 0.77106 0.31067 0.34713 0.0
H2838 H 0.76205 0.2906 0.31685 0.0
H2839 H 0.79223 0.30762 0.37517 0.0
H2840 H 0.79159 0.35216 0.33389 0.0
H2841 H 0.80107 0.36844 0.30873 0.0
H2842 H 0.85429 0.38452 0.3354 0.0
H2843 H 0.84514 0.36813 0.3606 0.0
C2844 C 0.78714 0.37858 0.43393 0.0
C2845 C 0.80155 0.39305 0.44238 0.0
C2846 C 0.78907 0.36554 0.41909 0.0
C2847 C 0.80563 0.36635 0.41306 0.0
C2848 C 0.82011 0.38081 0.42166 0.0
C2849 C 0.81803 0.39423 0.43617 0.0
C2850 C 0.80729 0.35312 0.39665 0.0
C2851 C 0.81417 0.36055 0.38188 0.0
C2852 C 0.79981 0.33369 0.39443 0.0
C2853 C 0.79278 0.32486 0.40968 0.0
C2854 C 0.8032 0.32764 0.42672 0.0
C2855 C 0.79637 0.31947 0.44106 0.0
C2856 C 0.77914 0.30847 0.43852 0.0
C2857 C 0.76871 0.30558 0.42161 0.0
C2858 C 0.77548 0.31369 0.40723 0.0
C2859 C 0.80606 0.30468 0.31431 0.0
C2860 C 0.78832 0.29551 0.30888 0.0
C2861 C 0.81128 0.31594 0.33171 0.0
C2862 C 0.7987 0.31823 0.34363 0.0
C2863 C 0.78097 0.30894 0.33813 0.0
C2864 C 0.77583 0.29753 0.3209 0.0
C2865 C 0.80366 0.33024 0.36194 0.0
C2866 C 0.79828 0.32248 0.37709 0.0
C2867 C 0.81219 0.34941 0.36441 0.0
C2868 C 0.81775 0.35865 0.34893 0.0
C2869 C 0.80535 0.35895 0.33425 0.0
C2870 C 0.81065 0.36825 0.32002 0.0
C2871 C 0.82828 0.37744 0.32043 0.0
C2872 C 0.84065 0.37734 0.33506 0.0
C2873 C 0.83542 0.36804 0.3493 0.0
H2874 H 0.83235 0.38469 0.30944 0.0
H2875 H 0.77387 0.30218 0.44964 0.0
H2876 H 0.40608 0.00615 0.22044 0.0
H2877 H 0.41471 0.98711 0.1943 0.0
H2878 H 0.46699 0.02327 0.20496 0.0
H2879 H 0.45868 0.0422 0.23118 0.0
H2880 H 0.43371 0.01283 0.1672 0.0
H2881 H 0.4784 0.9975 0.2128 0.0
H2882 H 0.48471 0.98058 0.23744 0.0
H2883 H 0.45282 0.92925 0.20495 0.0
H2884 H 0.44591 0.94606 0.18031 0.0
H2885 H 0.51025 0.03417 0.13483 0.0
H2886 H 0.49014 0.02398 0.1565 0.0
H2887 H 0.47238 0.96946 0.12156 0.0
H2888 H 0.49343 0.97944 0.10026 0.0
H2889 H 0.47657 0.97305 0.16424 0.0
H2890 H 0.44691 0.99467 0.11387 0.0
H2891 H 0.4467 0.01688 0.09264 0.0
H2892 H 0.45598 0.0625 0.13864 0.0
H2893 H 0.45643 0.04064 0.16009 0.0
C2894 C 0.41944 0.01001 0.2172 0.0
C2895 C 0.43174 0.02577 0.2276 0.0
C2896 C 0.42438 0.99886 0.20262 0.0
C2897 C 0.44163 1.00337 0.19844 0.0
C2898 C 0.45385 0.01913 0.20871 0.0
C2899 C 0.44898 0.03018 0.2233 0.0
C2900 C 0.44607 0.99496 0.18092 0.0
C2901 C 0.44259 0.00357 0.16616 0.0
C2902 C 0.45757 0.98292 0.17987 0.0
C2903 C 0.46122 0.97311 0.19497 0.0
C2904 C 0.47238 0.98271 0.21109 0.0
C2905 C 0.47615 0.97312 0.22502 0.0
C2906 C 0.46906 0.95388 0.22283 0.0
C2907 C 0.45818 0.94419 0.2067 0.0
C2908 C 0.45427 0.95375 0.19279 0.0
C2909 C 0.50239 0.01988 0.13209 0.0
C2910 C 0.50286 0.00762 0.11585 0.0
C2911 C 0.49098 0.01409 0.14437 0.0
C2912 C 0.47963 0.99618 0.14021 0.0
C2913 C 0.48103 0.98337 0.12474 0.0
C2914 C 0.49285 0.98907 0.11261 0.0
C2915 C 0.46521 0.99216 0.15122 0.0
C2916 C 0.46674 0.9812 0.16459 0.0
C2917 C 0.45253 1.00292 0.15154 0.0
C2918 C 0.45154 0.01596 0.13856 0.0
C2919 C 0.44885 0.00943 0.11943 0.0
C2920 C 0.44872 0.02197 0.10737 0.0
C2921 C 0.45127 0.04108 0.11429 0.0
C2922 C 0.45392 0.04769 0.13329 0.0
C2923 C 0.45404 0.03522 0.1454 0.0
H2924 H 0.45123 0.05077 0.10493 0.0
H2925 H 0.47208 0.94645 0.23357 0.0
H2926 H 0.80399 0.73047 0.95539 0.0
H2927 H 0.80702 0.74431 0.92774 0.0
H2928 H 0.76512 0.69887 0.89746 0.0
H2929 H 0.76314 0.68439 0.92463 0.0
H2930 H 0.78775 0.70449 0.87663 0.0
H2931 H 0.76265 0.74854 0.91522 0.0
H2932 H 0.7616 0.77128 0.94302 0.0
H2933 H 0.81143 0.80534 0.93587 0.0
H2934 H 0.81287 0.78272 0.90815 0.0
H2935 H 0.76916 0.74684 0.79971 0.0
H2936 H 0.76678 0.73456 0.82844 0.0
H2937 H 0.81668 0.77184 0.85225 0.0
H2938 H 0.81931 0.78382 0.82366 0.0
H2939 H 0.79095 0.77146 0.87617 0.0
H2940 H 0.81603 0.72859 0.83815 0.0
H2941 H 0.81748 0.70699 0.8097 0.0
H2942 H 0.76802 0.67144 0.8158 0.0
H2943 H 0.76613 0.69304 0.84413 0.0
C2944 C 0.79543 0.72351 0.9428 0.0
C2945 C 0.78334 0.70634 0.94215 0.0
C2946 C 0.79703 0.73152 0.92699 0.0
C2947 C 0.78607 0.72291 0.91039 0.0
C2948 C 0.77382 0.70587 0.90994 0.0
C2949 C 0.77263 0.69758 0.92553 0.0
C2950 C 0.78764 0.73105 0.89325 0.0
C2951 C 0.7881 0.71908 0.87661 0.0
C2952 C 0.78881 0.75028 0.89304 0.0
C2953 C 0.78793 0.76384 0.90973 0.0
C2954 C 0.77343 0.76082 0.91966 0.0
C2955 C 0.77276 0.7737 0.93538 0.0
C2956 C 0.78646 0.78972 0.94124 0.0
C2957 C 0.80084 0.79292 0.93135 0.0
C2958 C 0.80158 0.78008 0.91562 0.0
C2959 C 0.77965 0.75228 0.81104 0.0
C2960 C 0.79447 0.76617 0.80937 0.0
C2961 C 0.77826 0.74533 0.82745 0.0
C2962 C 0.79156 0.75232 0.8425 0.0
C2963 C 0.80624 0.76631 0.84087 0.0
C2964 C 0.80776 0.77304 0.82445 0.0
C2965 C 0.79049 0.74474 0.85981 0.0
C2966 C 0.79034 0.75684 0.87636 0.0
C2967 C 0.78962 0.72568 0.86 0.0
C2968 C 0.79085 0.71252 0.84315 0.0
C2969 C 0.8054 0.71624 0.83335 0.0
C2970 C 0.80631 0.704 0.81725 0.0
C2971 C 0.79283 0.68788 0.81092 0.0
C2972 C 0.77844 0.68395 0.82071 0.0
C2973 C 0.77744 0.69618 0.83679 0.0
H2974 H 0.79356 0.67842 0.79845 0.0
H2975 H 0.78591 0.79966 0.95341 0.0
H2976 H 0.83212 0.10836 0.04288 0.0
H2977 H 0.85936 0.10159 0.03261 0.0
H2978 H 0.83837 0.09815 0.97608 0.0
H2979 H 0.81132 0.10475 0.98631 0.0
H2980 H 0.85238 0.06964 0.98056 0.0
H2981 H 0.8688 0.13523 0.99519 0.0
H2982 H 0.8716 0.16656 0.01368 0.0
H2983 H 0.90589 0.1546 0.05584 0.0
H2984 H 0.90307 0.12304 0.03775 0.0
H2985 H 0.93422 0.0516 0.96082 0.0
H2986 H 0.91129 0.06905 0.96045 0.0
H2987 H 0.91716 0.07955 0.01988 0.0
H2988 H 0.93986 0.06216 0.02036 0.0
H2989 H 0.9115 0.10968 0.00643 0.0
H2990 H 0.88747 0.04129 0.99374 0.0
H2991 H 0.88073 0.00907 0.97593 0.0
H2992 H 0.8584 0.0271 0.92926 0.0
H2993 H 0.86524 0.05947 0.94674 0.0
C2994 C 0.83334 0.10573 0.02831 0.0
C2995 C 0.81988 0.10673 0.01526 0.0
C2996 C 0.84886 0.10224 0.02248 0.0
C2997 C 0.85082 0.09981 0.00365 0.0
C2998 C 0.83705 0.10021 0.99065 0.0
C2999 C 0.82167 0.10377 0.99645 0.0
C3000 C 0.86691 0.09573 0.99741 0.0
C3001 C 0.86535 0.07859 0.98578 0.0
C3002 C 0.88362 0.1076 0.00424 0.0
C3003 C 0.88565 0.12669 0.01513 0.0
C3004 C 0.87685 0.13922 0.00846 0.0
C3005 C 0.87845 0.15703 0.01886 0.0
C3006 C 0.8889 0.16256 0.03593 0.0
C3007 C 0.89781 0.15029 0.04261 0.0
C3008 C 0.89624 0.13244 0.03227 0.0
C3009 C 0.93066 0.05776 0.97378 0.0
C3010 C 0.9386 0.05535 0.99063 0.0
C3011 C 0.91772 0.0678 0.97354 0.0
C3012 C 0.91254 0.0754 0.99013 0.0
C3013 C 0.92112 0.07387 0.00694 0.0
C3014 C 0.93404 0.0639 0.0072 0.0
C3015 C 0.89694 0.0831 0.99032 0.0
C3016 C 0.89855 0.10103 1.0007 0.0
C3017 C 0.88016 0.07201 0.98221 0.0
C3018 C 0.87724 0.05284 0.97139 0.0
C3019 C 0.88143 0.03844 0.97957 0.0
C3020 C 0.87751 0.02013 0.96957 0.0
C3021 C 0.86924 0.01606 0.95144 0.0
C3022 C 0.86491 0.03029 0.94326 0.0
C3023 C 0.86884 0.04861 0.95319 0.0
H3024 H 0.86611 1.00186 0.94376 0.0
H3025 H 0.89011 0.17635 0.04398 0.0
H3026 H 0.35112 0.45341 0.01894 0.0
H3027 H 0.38199 0.46562 0.01669 0.0
H3028 H 0.39382 0.41563 0.0308 0.0
H3029 H 0.36244 0.40309 0.03319 0.0
H3030 H 0.41892 0.44783 0.0483 0.0
H3031 H 0.39365 0.42112 0.98672 0.0
H3032 H 0.37179 0.4142 0.95911 0.0
H3033 H 0.38272 0.47254 0.95618 0.0
H3034 H 0.40451 0.47985 0.98391 0.0
H3035 H 0.50567 0.48778 0.02535 0.0
H3036 H 0.47752 0.46455 0.02429 0.0
H3037 H 0.44929 0.50545 0.01258 0.0
H3038 H 0.47711 0.52828 0.0136 0.0
H3039 H 0.43413 0.47094 0.99129 0.0
H3040 H 0.45553 0.49736 0.05572 0.0
H3041 H 0.47702 0.50435 0.08365 0.0
H3042 H 0.47332 0.44567 0.08072 0.0
H3043 H 0.45194 0.43836 0.05262 0.0
C3044 C 0.36018 0.4449 0.02168 0.0
C3045 C 0.35412 0.42714 0.02617 0.0
C3046 C 0.37793 0.45194 0.02027 0.0
C3047 C 0.39031 0.44145 0.02318 0.0
C3048 C 0.38454 0.42396 0.02835 0.0
C3049 C 0.36659 0.41683 0.02976 0.0
C3050 C 0.4091 0.44913 0.02069 0.0
C3051 C 0.42232 0.45244 0.03566 0.0
C3052 C 0.41366 0.45535 0.00427 0.0
C3053 C 0.40068 0.45104 0.98747 0.0
C3054 C 0.39133 0.43249 0.98025 0.0
C3055 C 0.37896 0.42849 0.96457 0.0
C3056 C 0.37586 0.44292 0.95591 0.0
C3057 C 0.38515 0.46138 0.9629 0.0
C3058 C 0.39754 0.46545 0.97858 0.0
C3059 C 0.49341 0.4915 0.0221 0.0
C3060 C 0.49357 0.50969 0.01932 0.0
C3061 C 0.47733 0.47836 0.0217 0.0
C3062 C 0.46116 0.48321 0.01838 0.0
C3063 C 0.46147 0.50126 0.01508 0.0
C3064 C 0.47742 0.51434 0.01573 0.0
C3065 C 0.44382 0.47012 0.01908 0.0
C3066 C 0.43084 0.46587 0.00376 0.0
C3067 C 0.43953 0.46296 0.03511 0.0
C3068 C 0.45233 0.46733 0.05197 0.0
C3069 C 0.45942 0.48596 0.06095 0.0
C3070 C 0.47155 0.48998 0.07682 0.0
C3071 C 0.47658 0.47547 0.08392 0.0
C3072 C 0.46944 0.4569 0.07518 0.0
C3073 C 0.45731 0.45281 0.05929 0.0
H3074 H 0.48597 0.4786 0.09622 0.0
H3075 H 0.36626 0.43981 0.94378 0.0
H3076 H 0.36509 0.59334 0.74965 0.0
H3077 H 0.35074 0.61939 0.75147 0.0
H3078 H 0.40109 0.65855 0.76736 0.0
H3079 H 0.41541 0.6323 0.76618 0.0
H3080 H 0.3803 0.67515 0.7844 0.0
H3081 H 0.37226 0.64772 0.72033 0.0
H3082 H 0.3634 0.62201 0.69336 0.0
H3083 H 0.31026 0.61081 0.70624 0.0
H3084 H 0.31887 0.63636 0.7334 0.0
H3085 H 0.34534 0.75489 0.76923 0.0
H3086 H 0.36087 0.72985 0.76926 0.0
H3087 H 0.31194 0.68872 0.75105 0.0
H3088 H 0.29657 0.71381 0.75034 0.0
H3089 H 0.33289 0.67365 0.7354 0.0
H3090 H 0.34128 0.70209 0.7997 0.0
H3091 H 0.35077 0.72777 0.82667 0.0
H3092 H 0.40375 0.73765 0.81334 0.0
H3093 H 0.39454 0.71213 0.7862 0.0
C3094 C 0.37328 0.60744 0.75353 0.0
C3095 C 0.39174 0.6101 0.75758 0.0
C3096 C 0.36492 0.62271 0.75441 0.0
C3097 C 0.37444 0.64179 0.75909 0.0
C3098 C 0.3929 0.64444 0.76355 0.0
C3099 C 0.40127 0.62913 0.76279 0.0
C3100 C 0.36529 0.65858 0.75921 0.0
C3101 C 0.37009 0.67471 0.77345 0.0
C3102 C 0.35153 0.65888 0.74541 0.0
C3103 C 0.34623 0.64382 0.72895 0.0
C3104 C 0.3587 0.63972 0.71742 0.0
C3105 C 0.35372 0.62519 0.70211 0.0
C3106 C 0.33629 0.61475 0.69811 0.0
C3107 C 0.32377 0.61889 0.70937 0.0
C3108 C 0.32867 0.63342 0.7247 0.0
C3109 C 0.33773 0.74054 0.76525 0.0
C3110 C 0.31933 0.73695 0.75986 0.0
C3111 C 0.34677 0.72587 0.76546 0.0
C3112 C 0.33801 0.70654 0.76057 0.0
C3113 C 0.31961 0.70304 0.75503 0.0
C3114 C 0.3106 0.7177 0.75469 0.0
C3115 C 0.34768 0.69019 0.7607 0.0
C3116 C 0.34303 0.67413 0.74644 0.0
C3117 C 0.3616 0.69004 0.77448 0.0
C3118 C 0.36718 0.70532 0.79081 0.0
C3119 C 0.35494 0.7098 0.80247 0.0
C3120 C 0.36027 0.72432 0.8178 0.0
C3121 C 0.37784 0.73437 0.82169 0.0
C3122 C 0.39014 0.72987 0.8103 0.0
C3123 C 0.38487 0.71537 0.79495 0.0
H3124 H 0.38194 0.74561 0.83354 0.0
H3125 H 0.33247 0.60347 0.68627 0.0
H3126 H 0.23084 0.59315 0.49861 0.0
H3127 H 0.19952 0.57945 0.4965 0.0
H3128 H 0.18861 0.63281 0.49195 0.0
H3129 H 0.2202 0.64686 0.49465 0.0
H3130 H 0.17388 0.61852 0.51923 0.0
H3131 H 0.17555 0.59612 0.45547 0.0
H3132 H 0.18798 0.58156 0.42905 0.0
H3133 H 0.18012 0.53027 0.44975 0.0
H3134 H 0.16782 0.54457 0.47639 0.0
H3135 H 0.08394 0.57607 0.51525 0.0
H3136 H 0.11229 0.59263 0.50846 0.0
H3137 H 0.13188 0.54302 0.50896 0.0
H3138 H 0.10272 0.5259 0.51435 0.0
H3139 H 0.14037 0.55828 0.48043 0.0
H3140 H 0.14269 0.58161 0.54585 0.0
H3141 H 0.13038 0.59558 0.57268 0.0
H3142 H 0.13126 0.64473 0.54943 0.0
H3143 H 0.1434 0.63096 0.52236 0.0
C3144 C 0.22177 0.60187 0.49671 0.0
C3145 C 0.22781 0.62104 0.49695 0.0
C3146 C 0.2039 0.59401 0.49539 0.0
C3147 C 0.19187 0.60514 0.49386 0.0
C3148 C 0.19781 0.62409 0.49306 0.0
C3149 C 0.21576 0.63203 0.49461 0.0
C3150 C 0.17341 0.59734 0.49547 0.0
C3151 C 0.16634 0.60559 0.51049 0.0
C3152 C 0.16392 0.58029 0.48428 0.0
C3153 C 0.17077 0.57144 0.46794 0.0
C3154 C 0.1765 0.58174 0.4544 0.0
C3155 C 0.18352 0.57354 0.43939 0.0
C3156 C 0.18484 0.555 0.43772 0.0
C3157 C 0.17906 0.54461 0.45103 0.0
C3158 C 0.17201 0.55274 0.46606 0.0
C3159 C 0.09447 0.56888 0.51426 0.0
C3160 C 0.09166 0.55003 0.51571 0.0
C3161 C 0.11056 0.57829 0.51037 0.0
C3162 C 0.12418 0.56911 0.50863 0.0
C3163 C 0.12143 0.55026 0.51038 0.0
C3164 C 0.10503 0.54061 0.51365 0.0
C3165 C 0.14115 0.57914 0.5045 0.0
C3166 C 0.14783 0.57135 0.48898 0.0
C3167 C 0.15034 0.59655 0.51532 0.0
C3168 C 0.14388 0.60522 0.53204 0.0
C3169 C 0.14027 0.5954 0.54647 0.0
C3170 C 0.13329 0.60327 0.5617 0.0
C3171 C 0.13001 0.62101 0.56274 0.0
C3172 C 0.13381 0.63099 0.54861 0.0
C3173 C 0.14078 0.62318 0.53334 0.0
H3174 H 0.12455 0.62705 0.57451 0.0
H3175 H 0.19033 0.54869 0.42612 0.0
H3176 H 0.67342 0.98868 0.77619 0.0
H3177 H 0.69052 0.96809 0.78727 0.0
H3178 H 0.72004 0.97114 0.74092 0.0
H3179 H 0.70341 0.99238 0.73015 0.0
H3180 H 0.69568 0.93308 0.74941 0.0
H3181 H 0.7448 0.98775 0.77077 0.0
H3182 H 0.75681 0.01993 0.78806 0.0
H3183 H 0.74144 1.00247 0.83786 0.0
H3184 H 0.7291 0.9702 0.82076 0.0
H3185 H 0.76088 0.88575 0.75294 0.0
H3186 H 0.74338 0.90854 0.75111 0.0
H3187 H 0.73532 0.90993 0.80812 0.0
H3188 H 0.75296 0.8868 0.81005 0.0
H3189 H 0.74596 0.94531 0.79865 0.0
H3190 H 0.70095 0.88923 0.77783 0.0
H3191 H 0.68707 0.85755 0.76026 0.0
H3192 H 0.69286 0.8775 0.70949 0.0
H3193 H 0.70692 0.90927 0.72675 0.0
C3194 C 0.68375 0.9851 0.76859 0.0
C3195 C 0.68716 0.99167 0.75233 0.0
C3196 C 0.69351 0.9736 0.77496 0.0
C3197 C 0.70639 0.96843 0.76485 0.0
C3198 C 0.71017 0.97537 0.74886 0.0
C3199 C 0.70072 0.9873 0.74274 0.0
C3200 C 0.7142 0.95379 0.76966 0.0
C3201 C 0.70676 0.93563 0.76005 0.0
C3202 C 0.72802 0.95743 0.78409 0.0
C3203 C 0.7359 0.97664 0.79448 0.0
C3204 C 0.74387 0.99081 0.78538 0.0
C3205 C 0.75076 0.00905 0.79515 0.0
C3206 C 0.74985 0.01325 0.81404 0.0
C3207 C 0.74212 0.99919 0.82322 0.0
C3208 C 0.73521 0.98092 0.81351 0.0
C3209 C 0.75516 0.89069 0.765 0.0
C3210 C 0.75801 0.88448 0.78157 0.0
C3211 C 0.74522 0.90366 0.76395 0.0
C3212 C 0.73792 0.9105 0.77941 0.0
C3213 C 0.74084 0.90455 0.79608 0.0
C3214 C 0.75087 0.8915 0.79716 0.0
C3215 C 0.72785 0.92447 0.77791 0.0
C3216 C 0.7347 0.94258 0.78821 0.0
C3217 C 0.71336 0.92077 0.76409 0.0
C3218 C 0.70507 0.90162 0.75361 0.0
C3219 C 0.69939 0.88683 0.76292 0.0
C3220 C 0.69145 0.86887 0.75301 0.0
C3221 C 0.68911 0.86551 0.73377 0.0
C3222 C 0.69468 0.88012 0.7244 0.0
C3223 C 0.70259 0.89812 0.73424 0.0
H3224 H 0.68296 0.85159 0.72613 0.0
H3225 H 0.75516 0.02739 0.82157 0.0
H3226 H 0.72881 0.88007 0.52495 0.0
H3227 H 0.7038 0.89299 0.51671 0.0
H3228 H 0.7398 0.94343 0.50937 0.0
H3229 H 0.7646 0.93104 0.5187 0.0
H3230 H 0.71779 0.95357 0.52723 0.0
H3231 H 0.71124 0.90786 0.47258 0.0
H3232 H 0.70769 0.87685 0.45305 0.0
H3233 H 0.65908 0.85659 0.47378 0.0
H3234 H 0.66244 0.8874 0.49362 0.0
H3235 H 0.65436 0.9962 0.49303 0.0
H3236 H 0.67694 0.97852 0.49173 0.0
H3237 H 0.64288 0.93404 0.51132 0.0
H3238 H 0.61983 0.95131 0.51195 0.0
H3239 H 0.66327 0.92045 0.48552 0.0
H3240 H 0.67269 0.96813 0.54127 0.0
H3241 H 0.67699 1.0005 0.55808 0.0
H3242 H 0.72231 0.01809 0.53098 0.0
H3243 H 0.71811 0.98588 0.51383 0.0
C3244 C 0.73133 0.89392 0.52158 0.0
C3245 C 0.74869 0.90464 0.52274 0.0
C3246 C 0.717 0.90124 0.51663 0.0
C3247 C 0.71974 0.91922 0.5122 0.0
C3248 C 0.73716 0.92962 0.51284 0.0
C3249 C 0.75141 0.92252 0.51822 0.0
C3250 C 0.70473 0.92799 0.50844 0.0
C3251 C 0.70608 0.94631 0.51778 0.0
C3252 C 0.68911 0.9186 0.49642 0.0
C3253 C 0.68721 0.89991 0.48477 0.0
C3254 C 0.69989 0.89674 0.47313 0.0
C3255 C 0.69788 0.87921 0.46196 0.0
C3256 C 0.6832 0.86475 0.46221 0.0
C3257 C 0.67047 0.86779 0.47362 0.0
C3258 C 0.67242 0.88529 0.48483 0.0
C3259 C 0.6514 0.98246 0.49663 0.0
C3260 C 0.63524 0.97537 0.50284 0.0
C3261 C 0.66445 0.97239 0.496 0.0
C3262 C 0.66178 0.95507 0.50176 0.0
C3263 C 0.64533 0.94742 0.50692 0.0
C3264 C 0.63222 0.95745 0.50749 0.0
C3265 C 0.67666 0.9459 0.50414 0.0
C3266 C 0.67518 0.92757 0.49473 0.0
C3267 C 0.69242 0.95536 0.51571 0.0
C3268 C 0.69499 0.97466 0.52617 0.0
C3269 C 0.6835 0.97894 0.53883 0.0
C3270 C 0.68593 0.99725 0.54842 0.0
C3271 C 0.69989 0.01135 0.54557 0.0
C3272 C 0.71149 0.00716 0.53316 0.0
C3273 C 0.70909 0.98889 0.52351 0.0
H3274 H 0.70176 0.02551 0.55301 0.0
H3275 H 0.68165 0.8512 0.45353 0.0
H3276 H 0.381 0.49809 0.77679 0.0
H3277 H 0.3644 0.4666 0.77963 0.0
H3278 H 0.37918 0.44338 0.728 0.0
H3279 H 0.39602 0.4745 0.72542 0.0
H3280 H 0.34552 0.42652 0.72905 0.0
H3281 H 0.39828 0.4378 0.76939 0.0
H3282 H 0.42165 0.45349 0.79498 0.0
H3283 H 0.38411 0.44691 0.83365 0.0
H3284 H 0.36042 0.43145 0.80823 0.0
H3285 H 0.32016 0.32848 0.73596 0.0
H3286 H 0.33799 0.35978 0.73428 0.0
H3287 H 0.32113 0.38288 0.78477 0.0
H3288 H 0.30297 0.35184 0.7861 0.0
H3289 H 0.35622 0.39967 0.78452 0.0
H3290 H 0.30334 0.3886 0.74279 0.0
H3291 H 0.28097 0.37197 0.71654 0.0
H3292 H 0.32043 0.3773 0.67982 0.0
H3293 H 0.34309 0.39378 0.70592 0.0
C3294 C 0.38043 0.48638 0.76582 0.0
C3295 C 0.38975 0.4893 0.75063 0.0
C3296 C 0.37104 0.46812 0.76757 0.0
C3297 C 0.37032 0.45202 0.75409 0.0
C3298 C 0.37921 0.45513 0.73871 0.0
C3299 C 0.38888 0.47319 0.73719 0.0
C3300 C 0.36055 0.43207 0.75581 0.0
C3301 C 0.34812 0.42073 0.74118 0.0
C3302 C 0.36343 0.42392 0.77155 0.0
C3303 C 0.3775 0.43372 0.78685 0.0
C3304 C 0.39494 0.43993 0.78331 0.0
C3305 C 0.40827 0.44873 0.7978 0.0
C3306 C 0.40435 0.45127 0.81592 0.0
C3307 C 0.38711 0.445 0.81959 0.0
C3308 C 0.37372 0.43622 0.80515 0.0
C3309 C 0.32055 0.34011 0.74696 0.0
C3310 C 0.31025 0.33723 0.76143 0.0
C3311 C 0.33068 0.35825 0.74589 0.0
C3312 C 0.33114 0.37429 0.75934 0.0
C3313 C 0.32134 0.37117 0.77412 0.0
C3314 C 0.31091 0.35319 0.77494 0.0
C3315 C 0.34113 0.39422 0.75781 0.0
C3316 C 0.35361 0.40553 0.77244 0.0
C3317 C 0.33845 0.4023 0.742 0.0
C3318 C 0.32494 0.39221 0.72633 0.0
C3319 C 0.30728 0.38606 0.72914 0.0
C3320 C 0.29454 0.3767 0.71429 0.0
C3321 C 0.29929 0.37353 0.69653 0.0
C3322 C 0.31678 0.37974 0.69359 0.0
C3323 C 0.32957 0.38909 0.70841 0.0
H3324 H 0.28941 0.3663 0.68504 0.0
H3325 H 0.4147 0.45803 0.82712 0.0
H3326 H 0.16408 0.6019 0.22554 0.0
H3327 H 0.18675 0.63145 0.23332 0.0
H3328 H 0.19933 0.62004 0.28736 0.0
H3329 H 0.17712 0.59018 0.2794 0.0
H3330 H 0.19738 0.66198 0.27903 0.0
H3331 H 0.22487 0.60862 0.26934 0.0
H3332 H 0.22917 0.57887 0.2527 0.0
H3333 H 0.23574 0.60244 0.20396 0.0
H3334 H 0.23114 0.63221 0.22024 0.0
H3335 H 0.27753 0.72913 0.29257 0.0
H3336 H 0.25977 0.69834 0.29446 0.0
H3337 H 0.24799 0.68532 0.23522 0.0
H3338 H 0.26526 0.71619 0.23324 0.0
H3339 H 0.25128 0.65478 0.25108 0.0
H3340 H 0.22215 0.70578 0.25732 0.0
H3341 H 0.21907 0.73694 0.27155 0.0
H3342 H 0.21519 0.71936 0.32364 0.0
H3343 H 0.21865 0.68819 0.30978 0.0
C3344 C 0.17123 0.60613 0.23929 0.0
C3345 C 0.16903 0.59409 0.25197 0.0
C3346 C 0.18417 0.62281 0.24365 0.0
C3347 C 0.19463 0.62754 0.26078 0.0
C3348 C 0.19128 0.61639 0.27409 0.0
C3349 C 0.17863 0.59952 0.26959 0.0
C3350 C 0.2103 0.64293 0.26388 0.0
C3351 C 0.20933 0.66041 0.27331 0.0
C3352 C 0.2256 0.6407 0.25599 0.0
C3353 C 0.2273 0.62249 0.2459 0.0
C3354 C 0.22685 0.60732 0.25497 0.0
C3355 C 0.22945 0.5905 0.24563 0.0
C3356 C 0.23263 0.58874 0.22726 0.0
C3357 C 0.23318 0.60379 0.21816 0.0
C3358 C 0.23056 0.62062 0.22743 0.0
C3359 C 0.2713 0.71961 0.27997 0.0
C3360 C 0.27205 0.72519 0.26284 0.0
C3361 C 0.26139 0.70203 0.28107 0.0
C3362 C 0.25238 0.68998 0.265 0.0
C3363 C 0.25487 0.69465 0.24773 0.0
C3364 C 0.26469 0.71226 0.24663 0.0
C3365 C 0.23837 0.67386 0.26611 0.0
C3366 C 0.23954 0.65627 0.2573 0.0
C3367 C 0.22317 0.6761 0.27426 0.0
C3368 C 0.22088 0.69474 0.28258 0.0
C3369 C 0.2208 0.70861 0.27184 0.0
C3370 C 0.21898 0.72627 0.27984 0.0
C3371 C 0.21701 0.73015 0.29851 0.0
C3372 C 0.21678 0.71635 0.3092 0.0
C3373 C 0.21869 0.69869 0.30129 0.0
H3374 H 0.21563 0.74384 0.30469 0.0
H3375 H 0.23475 0.57574 0.22009 0.0
H3376 H 0.51304 0.69104 0.41049 0.0
H3377 H 0.51859 0.66615 0.42595 0.0
H3378 H 0.51357 0.69832 0.47822 0.0
H3379 H 0.50883 0.72381 0.46278 0.0
H3380 H 0.53906 0.68177 0.48328 0.0
H3381 H 0.47969 0.65921 0.45378 0.0
H3382 H 0.45589 0.65176 0.42788 0.0
H3383 H 0.48137 0.61346 0.39772 0.0
H3384 H 0.5055 0.62096 0.42331 0.0
H3385 H 0.53418 0.60048 0.52583 0.0
H3386 H 0.52957 0.62855 0.51483 0.0
H3387 H 0.53017 0.60136 0.45891 0.0
H3388 H 0.53346 0.57305 0.46989 0.0
H3389 H 0.50531 0.61663 0.45832 0.0
H3390 H 0.56569 0.64043 0.48825 0.0
H3391 H 0.58909 0.6483 0.51462 0.0
H3392 H 0.56118 0.68391 0.5449 0.0
H3393 H 0.53754 0.67612 0.51878 0.0
C3394 C 0.51294 0.69281 0.42525 0.0
C3395 C 0.51017 0.70937 0.43529 0.0
C3396 C 0.5161 0.67848 0.43414 0.0
C3397 C 0.51612 0.67999 0.45331 0.0
C3398 C 0.51355 0.69663 0.46344 0.0
C3399 C 0.51068 0.71117 0.45455 0.0
C3400 C 0.51869 0.66413 0.46255 0.0
C3401 C 0.53154 0.66754 0.47794 0.0
C3402 C 0.50904 0.64545 0.45568 0.0
C3403 C 0.49443 0.64073 0.4404 0.0
C3404 C 0.48024 0.64926 0.44159 0.0
C3405 C 0.46669 0.64501 0.42698 0.0
C3406 C 0.46709 0.63212 0.41118 0.0
C3407 C 0.48106 0.62343 0.40997 0.0
C3408 C 0.49467 0.62766 0.42452 0.0
C3409 C 0.53337 0.60064 0.51121 0.0
C3410 C 0.53408 0.58464 0.49866 0.0
C3411 C 0.5309 0.61676 0.5049 0.0
C3412 C 0.52972 0.6174 0.48594 0.0
C3413 C 0.53091 0.6014 0.47356 0.0
C3414 C 0.53285 0.58519 0.47982 0.0
C3415 C 0.52621 0.63404 0.47863 0.0
C3416 C 0.51297 0.63081 0.46368 0.0
C3417 C 0.53549 0.65282 0.48599 0.0
C3418 C 0.54978 0.65756 0.50162 0.0
C3419 C 0.5645 0.64985 0.50057 0.0
C3420 C 0.57782 0.65432 0.51547 0.0
C3421 C 0.5766 0.66656 0.53144 0.0
C3422 C 0.5621 0.67441 0.53253 0.0
C3423 C 0.54875 0.67 0.51768 0.0
H3424 H 0.58692 0.66998 0.54295 0.0
H3425 H 0.45658 0.62886 0.39989 0.0
H3426 H 0.60888 0.29062 0.66416 0.0
H3427 H 0.63398 0.28349 0.68031 0.0
H3428 H 0.66876 0.3159 0.64916 0.0
H3429 H 0.64315 0.32145 0.63149 0.0
H3430 H 0.682 0.28879 0.6547 0.0
H3431 H 0.65997 0.33209 0.69762 0.0
H3432 H 0.63639 0.3419 0.71368 0.0
H3433 H 0.6276 0.29218 0.73707 0.0
H3434 H 0.65102 0.28201 0.72103 0.0
H3435 H 0.75894 0.298 0.71956 0.0
H3436 H 0.73488 0.3017 0.69817 0.0
H3437 H 0.69705 0.27166 0.72827 0.0
H3438 H 0.72097 0.26924 0.75019 0.0
H3439 H 0.68604 0.29872 0.72277 0.0
H3440 H 0.70726 0.25482 0.68073 0.0
H3441 H 0.72962 0.24325 0.66396 0.0
H3442 H 0.73917 0.29181 0.63879 0.0
H3443 H 0.71698 0.30375 0.65555 0.0
C3444 C 0.62182 0.29622 0.66064 0.0
C3445 C 0.62393 0.30685 0.64663 0.0
C3446 C 0.63634 0.29227 0.6701 0.0
C3447 C 0.65361 0.29973 0.66667 0.0
C3448 C 0.65572 0.31008 0.65238 0.0
C3449 C 0.64106 0.3134 0.64234 0.0
C3450 C 0.66929 0.29703 0.67822 0.0
C3451 C 0.68295 0.29121 0.66961 0.0
C3452 C 0.67065 0.29969 0.69774 0.0
C3453 C 0.6572 0.30629 0.70809 0.0
C3454 C 0.65303 0.3233 0.70624 0.0
C3455 C 0.63967 0.32889 0.7153 0.0
C3456 C 0.63049 0.31767 0.72637 0.0
C3457 C 0.63473 0.30087 0.7285 0.0
C3458 C 0.64807 0.29521 0.71947 0.0
C3459 C 0.74547 0.2919 0.72133 0.0
C3460 C 0.74186 0.28325 0.73652 0.0
C3461 C 0.73163 0.29396 0.70904 0.0
C3462 C 0.71385 0.28688 0.71131 0.0
C3463 C 0.71045 0.27748 0.72609 0.0
C3464 C 0.7242 0.27593 0.7386 0.0
C3465 C 0.69872 0.29015 0.69931 0.0
C3466 C 0.68516 0.29624 0.70787 0.0
C3467 C 0.69744 0.28755 0.67979 0.0
C3468 C 0.71058 0.28025 0.66952 0.0
C3469 C 0.71419 0.26306 0.67168 0.0
C3470 C 0.72683 0.25644 0.66217 0.0
C3471 C 0.73584 0.26681 0.65036 0.0
C3472 C 0.73219 0.2838 0.64796 0.0
C3473 C 0.71957 0.29049 0.65744 0.0
H3474 H 0.74564 0.26167 0.64303 0.0
H3475 H 0.62011 0.32199 0.73331 0.0
H3476 H 0.99593 0.3114 0.94668 0.0
H3477 H 0.99748 0.34228 0.96534 0.0
H3478 H 0.04727 0.36421 0.94704 0.0
H3479 H 0.0455 0.33366 0.92801 0.0
H3480 H 0.04562 0.37678 0.98534 0.0
H3481 H 0.01572 0.37169 0.92538 0.0
H3482 H 0.99359 0.3582 0.89819 0.0
H3483 H 0.95228 0.36455 0.93121 0.0
H3484 H 0.97421 0.37775 0.95873 0.0
H3485 H 0.05633 0.47333 0.99345 0.0
H3486 H 0.05303 0.44004 0.98328 0.0
H3487 H 0.99964 0.42914 0.99636 0.0
H3488 H 0.00259 0.46292 0.00564 0.0
H3489 H 0.00141 0.40945 0.9642 0.0
H3490 H 0.03561 0.42019 0.02419 0.0
H3491 H 0.0606 0.43756 0.04752 0.0
H3492 H 0.09688 0.42384 0.01054 0.0
H3493 H 0.07213 0.40652 0.98694 0.0
C3494 C 0.00734 0.32274 0.947 0.0
C3495 C 0.02058 0.3203 0.93594 0.0
C3496 C 0.00819 0.34032 0.95756 0.0
C3497 C 0.02246 0.35544 0.95745 0.0
C3498 C 0.03619 0.35266 0.94731 0.0
C3499 C 0.03514 0.33528 0.93643 0.0
C3500 C 0.02249 0.37454 0.96658 0.0
C3501 C 0.03592 0.38394 0.98085 0.0
C3502 C 0.00985 0.38379 0.96056 0.0
C3503 C 0.99658 0.37533 0.9442 0.0
C3504 C 0.00191 0.3699 0.92693 0.0
C3505 C 0.98941 0.36238 0.91143 0.0
C3506 C 0.97153 0.36042 0.91299 0.0
C3507 C 0.96613 0.36599 0.93005 0.0
C3508 C 0.97859 0.37346 0.94561 0.0
C3509 C 0.04393 0.46387 0.99439 0.0
C3510 C 0.02975 0.47065 1.00055 0.0
C3511 C 0.0421 0.44479 0.98867 0.0
C3512 C 0.02628 0.43203 0.9896 0.0
C3513 C 0.01205 0.43875 0.99574 0.0
C3514 C 0.01373 0.45798 1.00106 0.0
C3515 C 0.02444 0.41177 0.98319 0.0
C3516 C 0.01076 0.40215 0.96924 0.0
C3517 C 0.03712 0.4025 0.98922 0.0
C3518 C 0.052 0.41204 0.0038 0.0
C3519 C 0.04892 0.42083 0.02106 0.0
C3520 C 0.06304 0.4307 0.03432 0.0
C3521 C 0.08031 0.4318 0.03052 0.0
C3522 C 0.0835 0.42293 0.01349 0.0
C3523 C 0.06943 0.41303 1.00019 0.0
H3524 H 0.09123 0.43952 0.04076 0.0
H3525 H 0.96187 0.35466 0.90097 0.0
H3526 H 0.02253 0.76517 0.16156 0.0
H3527 H 0.99245 0.76038 0.16857 0.0
H3528 H 0.98286 0.79951 0.13448 0.0
H3529 H 0.01339 0.80457 0.1274 0.0
H3530 H 0.97129 0.80688 0.16702 0.0
H3531 H 0.96291 0.75219 0.12133 0.0
H3532 H 0.96866 0.72311 0.10486 0.0
H3533 H 0.96172 0.69827 0.1528 0.0
H3534 H 0.95613 0.72727 0.16965 0.0
H3535 H 0.88264 0.78832 0.18628 0.0
H3536 H 0.90727 0.78862 0.16821 0.0
H3537 H 0.92828 0.75532 0.20244 0.0
H3538 H 0.90401 0.75536 0.22093 0.0
H3539 H 0.93147 0.74458 0.1649 0.0
H3540 H 0.94446 0.80088 0.21139 0.0
H3541 H 0.93857 0.82985 0.22795 0.0
H3542 H 0.93682 0.85131 0.17772 0.0
H3543 H 0.94248 0.82232 0.16082 0.0
C3544 C 0.01411 0.77278 0.15542 0.0
C3545 C 0.02055 0.78542 0.144 0.0
C3546 C 0.99674 0.76982 0.15931 0.0
C3547 C 0.9852 0.77935 0.15189 0.0
C3548 C 0.99147 0.79189 0.14032 0.0
C3549 C 0.00894 0.79481 0.1363 0.0
C3550 C 0.96719 0.77721 0.15758 0.0
C3551 C 0.96242 0.79326 0.1661 0.0
C3552 C 0.95566 0.75942 0.1568 0.0
C3553 C 0.95922 0.74199 0.1468 0.0
C3554 C 0.96276 0.74059 0.12842 0.0
C3555 C 0.96595 0.7241 0.119 0.0
C3556 C 0.96559 0.70887 0.12779 0.0
C3557 C 0.96201 0.71008 0.14601 0.0
C3558 C 0.95879 0.72654 0.1555 0.0
C3559 C 0.89248 0.78106 0.19003 0.0
C3560 C 0.89136 0.77204 0.20531 0.0
C3561 C 0.90652 0.78114 0.17957 0.0
C3562 C 0.91976 0.77216 0.18407 0.0
C3563 C 0.91822 0.76232 0.19867 0.0
C3564 C 0.90425 0.76232 0.20922 0.0
C3565 C 0.93585 0.77421 0.17453 0.0
C3566 C 0.94024 0.75817 0.16542 0.0
C3567 C 0.94705 0.79197 0.17471 0.0
C3568 C 0.94368 0.80938 0.18482 0.0
C3569 C 0.94267 0.81172 0.20386 0.0
C3570 C 0.9394 0.82814 0.21331 0.0
C3571 C 0.93727 0.84239 0.20388 0.0
C3572 C 0.93844 0.84025 0.185 0.0
C3573 C 0.94168 0.82383 0.17548 0.0
H3574 H 0.93475 0.85511 0.21122 0.0
H3575 H 0.96806 0.69611 0.12047 0.0
H3576 H 0.48502 0.29147 0.08937 0.0
H3577 H 0.49843 0.31783 0.07533 0.0
H3578 H 0.53559 0.34067 0.1245 0.0
H3579 H 0.5213 0.31536 0.13899 0.0
H3580 H 0.52685 0.36706 0.11382 0.0
H3581 H 0.54645 0.31632 0.08262 0.0
H3582 H 0.54357 0.28429 0.06569 0.0
H3583 H 0.51156 0.29502 0.0208 0.0
H3584 H 0.51402 0.32703 0.03757 0.0
H3585 H 0.56749 0.43038 0.05406 0.0
H3586 H 0.56628 0.40603 0.07286 0.0
H3587 H 0.51276 0.38045 0.04857 0.0
H3588 H 0.51375 0.40458 0.02998 0.0
H3589 H 0.53923 0.35632 0.04902 0.0
H3590 H 0.5103 0.39928 0.09276 0.0
H3591 H 0.51097 0.42832 0.11455 0.0
H3592 H 0.56401 0.43102 0.13645 0.0
H3593 H 0.56345 0.40179 0.11499 0.0
C3594 C 0.49583 0.30238 0.0972 0.0
C3595 C 0.50209 0.3016 0.11521 0.0
C3596 C 0.50369 0.3172 0.08911 0.0
C3597 C 0.5184 0.33087 0.09866 0.0
C3598 C 0.52434 0.33024 0.11683 0.0
C3599 C 0.51609 0.31585 0.12513 0.0
C3600 C 0.52718 0.34627 0.09 0.0
C3601 C 0.53003 0.3646 0.09982 0.0
C3602 C 0.53151 0.34315 0.07181 0.0
C3603 C 0.5304 0.32408 0.0614 0.0
C3604 C 0.53876 0.31184 0.06916 0.0
C3605 C 0.53719 0.29368 0.05959 0.0
C3606 C 0.52738 0.28762 0.04219 0.0
C3607 C 0.51917 0.29974 0.03428 0.0
C3608 C 0.52069 0.31791 0.04379 0.0
C3609 C 0.55549 0.41956 0.05277 0.0
C3610 C 0.5406 0.41953 0.04081 0.0
C3611 C 0.55483 0.40578 0.06352 0.0
C3612 C 0.53942 0.39167 0.06203 0.0
C3613 C 0.52472 0.39139 0.04987 0.0
C3614 C 0.52528 0.40521 0.03937 0.0
C3615 C 0.53823 0.37676 0.07275 0.0
C3616 C 0.53677 0.35853 0.06329 0.0
C3617 C 0.53561 0.37987 0.0914 0.0
C3618 C 0.53693 0.39865 0.10216 0.0
C3619 C 0.52217 0.40628 0.10204 0.0
C3620 C 0.52245 0.42259 0.11448 0.0
C3621 C 0.53748 0.43142 0.12697 0.0
C3622 C 0.55236 0.42413 0.12683 0.0
C3623 C 0.55207 0.4077 0.11454 0.0
H3624 H 0.53764 0.444 0.13665 0.0
H3625 H 0.52614 0.27354 0.03482 0.0
H3626 H 0.03276 0.31035 0.37078 0.0
H3627 H 0.0016 0.30317 0.35876 0.0
H3628 H 0.01495 0.29453 0.30321 0.0
H3629 H 0.04614 0.30273 0.3152 0.0
H3630 H 0.99619 0.31899 0.30778 0.0
H3631 H 0.99233 0.25811 0.32463 0.0
H3632 H 0.99575 0.23681 0.34608 0.0
H3633 H 0.96194 0.26012 0.38064 0.0
H3634 H 0.95853 0.28173 0.35955 0.0
H3635 H 0.91004 0.29685 0.26323 0.0
H3636 H 0.93892 0.29248 0.27385 0.0
H3637 H 0.92788 0.30266 0.33015 0.0
H3638 H 0.89898 0.30676 0.31959 0.0
H3639 H 0.94498 0.27567 0.32467 0.0
H3640 H 0.95022 0.33724 0.31216 0.0
H3641 H 0.94738 0.36166 0.29422 0.0
H3642 H 0.97938 0.34088 0.25566 0.0
H3643 H 0.9821 0.31607 0.27317 0.0
C3644 C 0.02894 0.30663 0.35602 0.0
C3645 C 0.04167 0.30732 0.34383 0.0
C3646 C 0.01119 0.30236 0.34918 0.0
C3647 C 0.00602 0.29816 0.33011 0.0
C3648 C 0.01874 0.29777 0.31798 0.0
C3649 C 0.03648 0.30252 0.32479 0.0
C3650 C 0.98776 0.29676 0.3227 0.0
C3651 C 0.985 0.30916 0.31109 0.0
C3652 C 0.97322 0.28468 0.32793 0.0
C3653 C 0.97528 0.27162 0.34056 0.0
C3654 C 0.98573 0.25878 0.33687 0.0
C3655 C 0.98765 0.24664 0.34896 0.0
C3656 C 0.97909 0.24713 0.36473 0.0
C3657 C 0.96857 0.25975 0.36843 0.0
C3658 C 0.96663 0.27193 0.3564 0.0
C3659 C 0.9138 0.29797 0.27784 0.0
C3660 C 0.90253 0.3023 0.29067 0.0
C3661 C 0.93017 0.29544 0.28385 0.0
C3662 C 0.93549 0.29752 0.30276 0.0
C3663 C 0.92391 0.30097 0.3155 0.0
C3664 C 0.90749 0.30333 0.30949 0.0
C3665 C 0.95357 0.29749 0.30939 0.0
C3666 C 0.95624 0.28512 0.32103 0.0
C3667 C 0.96809 0.30993 0.30461 0.0
C3668 C 0.96612 0.3246 0.29382 0.0
C3669 C 0.95644 0.3377 0.29972 0.0
C3670 C 0.95489 0.35165 0.28965 0.0
C3671 C 0.96313 0.35277 0.27377 0.0
C3672 C 0.97294 0.33995 0.26793 0.0
C3673 C 0.97447 0.32593 0.2779 0.0
H3674 H 0.96197 0.36362 0.26603 0.0
H3675 H 0.9806 0.23772 0.37407 0.0
H3676 H 0.02112 0.69048 0.63436 0.0
H3677 H 0.02534 0.66415 0.61266 0.0
H3678 H 0.97963 0.66541 0.57686 0.0
H3679 H 0.97546 0.69237 0.59847 0.0
H3680 H 0.9869 0.62716 0.58824 0.0
H3681 H 0.00863 0.68092 0.55991 0.0
H3682 H 0.02565 0.71306 0.56036 0.0
H3683 H 0.07293 0.69888 0.58007 0.0
H3684 H 0.05612 0.6667 0.57998 0.0
H3685 H 0.00777 0.57618 0.5054 0.0
H3686 H 0.9981 0.59802 0.52827 0.0
H3687 H 0.04721 0.60734 0.56316 0.0
H3688 H 0.0568 0.58502 0.54052 0.0
H3689 H 0.03679 0.64 0.55163 0.0
H3690 H 0.01821 0.59038 0.58397 0.0
H3691 H 0.0037 0.55945 0.58986 0.0
H3692 H 0.95386 0.56544 0.56652 0.0
H3693 H 0.96809 0.59675 0.56101 0.0
C3694 C 0.01177 0.685 0.62202 0.0
C3695 C 0.99794 0.69335 0.61801 0.0
C3696 C 0.01426 0.67006 0.60967 0.0
C3697 C 0.00282 0.66314 0.59332 0.0
C3698 C 0.98853 0.67081 0.58952 0.0
C3699 C 0.98621 0.6861 0.60177 0.0
C3700 C 0.00655 0.64832 0.58004 0.0
C3701 C 0.99745 0.62989 0.57978 0.0
C3702 C 0.02095 0.65213 0.56997 0.0
C3703 C 0.03108 0.67148 0.57013 0.0
C3704 C 0.02261 0.68472 0.56454 0.0
C3705 C 0.03223 0.70292 0.56467 0.0
C3706 C 0.05035 0.70803 0.57028 0.0
C3707 C 0.05889 0.69492 0.57574 0.0
C3708 C 0.04933 0.67669 0.57564 0.0
C3709 C 0.0165 0.58294 0.51793 0.0
C3710 C 0.03313 0.57935 0.52119 0.0
C3711 C 0.01087 0.59511 0.53103 0.0
C3712 C 0.02194 0.60398 0.5473 0.0
C3713 C 0.03852 0.60036 0.55066 0.0
C3714 C 0.04401 0.58787 0.53773 0.0
C3715 C 0.01699 0.61877 0.55959 0.0
C3716 C 0.02597 0.63723 0.55974 0.0
C3717 C 0.00272 0.61495 0.56981 0.0
C3718 C 0.99424 0.59571 0.57178 0.0
C3719 C 0.0042 0.58497 0.57985 0.0
C3720 C 0.996 0.56745 0.58327 0.0
C3721 C 0.97788 0.56037 0.57838 0.0
C3722 C 0.96791 0.5709 0.57022 0.0
C3723 C 0.97601 0.58859 0.56705 0.0
H3724 H 0.97155 0.54677 0.58101 0.0
H3725 H 0.05778 0.72212 0.57036 0.0
H3726 H 0.64799 0.8388 0.86381 0.0
H3727 H 0.66856 0.83541 0.84084 0.0
H3728 H 0.64644 0.77574 0.82865 0.0
H3729 H 0.62604 0.77913 0.85131 0.0
H3730 H 0.68377 0.78813 0.83742 0.0
H3731 H 0.63461 0.79892 0.80012 0.0
H3732 H 0.61369 0.81608 0.78912 0.0
H3733 H 0.65662 0.85983 0.78118 0.0
H3734 H 0.6778 0.84313 0.79248 0.0
H3735 H 0.72405 0.75554 0.76484 0.0
H3736 H 0.69852 0.76112 0.77918 0.0
H3737 H 0.71756 0.82051 0.78188 0.0
H3738 H 0.74298 0.81509 0.76727 0.0
H3739 H 0.68204 0.80991 0.77775 0.0
H3740 H 0.73115 0.80106 0.81559 0.0
H3741 H 0.75313 0.78506 0.82656 0.0
H3742 H 0.7118 0.73983 0.83477 0.0
H3743 H 0.68957 0.75533 0.82343 0.0
C3744 C 0.64803 0.82499 0.85655 0.0
C3745 C 0.63608 0.8091 0.85953 0.0
C3746 C 0.65937 0.82313 0.84325 0.0
C3747 C 0.65867 0.80538 0.83305 0.0
C3748 C 0.64697 0.78953 0.83641 0.0
C3749 C 0.63563 0.79141 0.84949 0.0
C3750 C 0.67104 0.80275 0.81985 0.0
C3751 C 0.68333 0.79274 0.82429 0.0
C3752 C 0.67059 0.80934 0.80307 0.0
C3753 C 0.65781 0.81993 0.79752 0.0
C3754 C 0.63961 0.81239 0.79643 0.0
C3755 C 0.62769 0.82199 0.79002 0.0
C3756 C 0.63381 0.83908 0.78455 0.0
C3757 C 0.65187 0.84664 0.78551 0.0
C3758 C 0.66383 0.83713 0.79194 0.0
C3759 C 0.72253 0.76974 0.76794 0.0
C3760 C 0.73576 0.78499 0.76561 0.0
C3761 C 0.70797 0.77287 0.77612 0.0
C3762 C 0.70664 0.79123 0.78205 0.0
C3763 C 0.71862 0.80626 0.77757 0.0
C3764 C 0.73316 0.80315 0.76933 0.0
C3765 C 0.69451 0.79499 0.79522 0.0
C3766 C 0.68243 0.8053 0.79088 0.0
C3767 C 0.69527 0.78893 0.81229 0.0
C3768 C 0.70868 0.77924 0.81838 0.0
C3769 C 0.72674 0.78756 0.81945 0.0
C3770 C 0.73925 0.77861 0.82579 0.0
C3771 C 0.73386 0.76143 0.83132 0.0
C3772 C 0.71596 0.75311 0.83043 0.0
C3773 C 0.7034 0.76196 0.82401 0.0
H3774 H 0.74356 0.7546 0.83637 0.0
H3775 H 0.62456 0.84643 0.77949 0.0
H3776 H 0.45855 0.53112 0.70518 0.0
H3777 H 0.47277 0.5275 0.6772 0.0
H3778 H 0.45667 0.57528 0.66244 0.0
H3779 H 0.44078 0.57734 0.68943 0.0
H3780 H 0.45731 0.55944 0.63307 0.0
H3781 H 0.50554 0.56733 0.68026 0.0
H3782 H 0.52249 0.561 0.70704 0.0
H3783 H 0.51885 0.5052 0.67837 0.0
H3784 H 0.50174 0.51114 0.6515 0.0
H3785 H 0.51895 0.57166 0.56578 0.0
H3786 H 0.50381 0.57361 0.59341 0.0
H3787 H 0.50311 0.51612 0.59501 0.0
H3788 H 0.51819 0.51421 0.56714 0.0
H3789 H 0.51157 0.53651 0.63024 0.0
H3790 H 0.46449 0.53214 0.58201 0.0
H3791 H 0.45141 0.54235 0.55524 0.0
H3792 H 0.45724 0.59707 0.58762 0.0
H3793 H 0.47059 0.58725 0.6145 0.0
C3794 C 0.45801 0.5409 0.69598 0.0
C3795 C 0.4483 0.55457 0.7 0.0
C3796 C 0.46658 0.53904 0.67977 0.0
C3797 C 0.4668 0.5514 0.66702 0.0
C3798 C 0.45713 0.56521 0.6713 0.0
C3799 C 0.44795 0.56655 0.68711 0.0
C3800 C 0.47632 0.54976 0.64924 0.0
C3801 C 0.46935 0.55471 0.63297 0.0
C3802 C 0.49214 0.54331 0.64775 0.0
C3803 C 0.50217 0.53961 0.66397 0.0
C3804 C 0.50825 0.55367 0.67973 0.0
C3805 C 0.5179 0.55016 0.69491 0.0
C3806 C 0.52169 0.53269 0.69443 0.0
C3807 C 0.51587 0.51871 0.67875 0.0
C3808 C 0.5062 0.52214 0.66354 0.0
C3809 C 0.51507 0.55918 0.57157 0.0
C3810 C 0.51924 0.54249 0.56329 0.0
C3811 C 0.50641 0.56034 0.58771 0.0
C3812 C 0.50174 0.54498 0.5968 0.0
C3813 C 0.50616 0.52833 0.58866 0.0
C3814 C 0.51463 0.52711 0.57232 0.0
C3815 C 0.49255 0.54637 0.61461 0.0
C3816 C 0.49956 0.54132 0.6307 0.0
C3817 C 0.47715 0.5533 0.61617 0.0
C3818 C 0.4686 0.55899 0.60022 0.0
C3819 C 0.46301 0.54636 0.5834 0.0
C3820 C 0.45556 0.55208 0.56821 0.0
C3821 C 0.45351 0.57035 0.56973 0.0
C3822 C 0.45884 0.58292 0.58646 0.0
C3823 C 0.46632 0.57728 0.60168 0.0
H3824 H 0.44778 0.57477 0.55794 0.0
H3825 H 0.52917 0.53 0.70619 0.0
H3826 H 0.80089 0.16643 0.95151 0.0
H3827 H 0.78554 0.17438 0.9247 0.0
H3828 H 0.74517 0.18665 0.95721 0.0
H3829 H 0.76076 0.17962 0.98405 0.0
H3830 H 0.73544 0.16635 0.91416 0.0
H3831 H 0.76728 0.2217 0.95979 0.0
H3832 H 0.79339 0.23664 0.98254 0.0
H3833 H 0.82681 0.23304 0.93988 0.0
H3834 H 0.80086 0.21762 0.91695 0.0
H3835 H 0.7219 0.24331 0.86413 0.0
H3836 H 0.72219 0.22421 0.88822 0.0
H3837 H 0.76574 0.20497 0.86722 0.0
H3838 H 0.76548 0.22361 0.84332 0.0
H3839 H 0.76894 0.22903 0.90683 0.0
H3840 H 0.73672 0.17383 0.86122 0.0
H3841 H 0.71074 0.15726 0.83886 0.0
H3842 H 0.67743 0.16084 0.88162 0.0
H3843 H 0.70324 0.17775 0.90418 0.0
C3844 C 0.78887 0.17105 0.95284 0.0
C3845 C 0.78241 0.17344 0.96984 0.0
C3846 C 0.77992 0.17506 0.93756 0.0
C3847 C 0.76422 0.18084 0.93915 0.0
C3848 C 0.75718 0.182 0.95582 0.0
C3849 C 0.76636 0.17857 0.97117 0.0
C3850 C 0.75753 0.18974 0.92492 0.0
C3851 C 0.74254 0.18012 0.9126 0.0
C3852 C 0.76673 0.20778 0.92332 0.0
C3853 C 0.78218 0.21847 0.9367 0.0
C3854 C 0.78021 0.2241 0.95528 0.0
C3855 C 0.79497 0.2326 0.96821 0.0
C3856 C 0.81175 0.23577 0.96267 0.0
C3857 C 0.81379 0.23057 0.94415 0.0
C3858 C 0.79906 0.22196 0.93118 0.0
C3859 C 0.7311 0.23449 0.86439 0.0
C3860 C 0.74359 0.2348 0.85194 0.0
C3861 C 0.73123 0.22365 0.87802 0.0
C3862 C 0.74397 0.21332 0.87925 0.0
C3863 C 0.75572 0.21277 0.86619 0.0
C3864 C 0.75547 0.22333 0.85253 0.0
C3865 C 0.74714 0.20545 0.89559 0.0
C3866 C 0.76153 0.21541 0.90852 0.0
C3867 C 0.73726 0.18786 0.89772 0.0
C3868 C 0.72186 0.17722 0.88433 0.0
C3869 C 0.72384 0.17122 0.86582 0.0
C3870 C 0.70915 0.16174 0.85311 0.0
C3871 C 0.69243 0.15805 0.8588 0.0
C3872 C 0.69038 0.16374 0.87723 0.0
C3873 C 0.70504 0.17326 0.88998 0.0
H3874 H 0.68107 0.15073 0.84894 0.0
H3875 H 0.82318 0.24228 0.97271 0.0
H3876 H 0.12736 0.5508 0.20052 0.0
H3877 H 0.10938 0.55626 0.17453 0.0
H3878 H 0.13204 0.52009 0.13727 0.0
H3879 H 0.15004 0.51446 0.16354 0.0
H3880 H 0.12784 0.55225 0.12483 0.0
H3881 H 0.09512 0.5026 0.15156 0.0
H3882 H 0.08143 0.48771 0.17581 0.0
H3883 H 0.04995 0.52785 0.18312 0.0
H3884 H 0.06373 0.54324 0.15919 0.0
H3885 H 0.06426 0.51263 0.04868 0.0
H3886 H 0.08517 0.51892 0.07666 0.0
H3887 H 0.05595 0.55551 0.10409 0.0
H3888 H 0.03521 0.54947 0.07581 0.0
H3889 H 0.06336 0.52871 0.12325 0.0
H3890 H 0.09357 0.57527 0.09266 0.0
H3891 H 0.10626 0.58802 0.06682 0.0
H3892 H 0.14155 0.55162 0.06517 0.0
H3893 H 0.12888 0.53842 0.0908 0.0
C3894 C 0.12835 0.54394 0.1868 0.0
C3895 C 0.13939 0.5317 0.18377 0.0
C3896 C 0.11831 0.54723 0.17205 0.0
C3897 C 0.11928 0.53826 0.15424 0.0
C3898 C 0.13119 0.52699 0.15108 0.0
C3899 C 0.14131 0.52373 0.16592 0.0
C3900 C 0.10694 0.53956 0.13905 0.0
C3901 C 0.11374 0.54707 0.12436 0.0
C3902 C 0.0886 0.53322 0.139 0.0
C3903 C 0.08071 0.52429 0.15381 0.0
C3904 C 0.08549 0.50845 0.15855 0.0
C3905 C 0.07767 0.49988 0.17219 0.0
C3906 C 0.06489 0.50689 0.18106 0.0
C3907 C 0.05991 0.52249 0.1763 0.0
C3908 C 0.06774 0.53116 0.16272 0.0
C3909 C 0.06253 0.52213 0.06069 0.0
C3910 C 0.04856 0.53079 0.06045 0.0
C3911 C 0.07438 0.52574 0.0765 0.0
C3912 C 0.07218 0.53801 0.09206 0.0
C3913 C 0.05783 0.54623 0.09198 0.0
C3914 C 0.04602 0.54267 0.07608 0.0
C3915 C 0.08426 0.54103 0.10883 0.0
C3916 C 0.07743 0.53432 0.12387 0.0
C3917 C 0.10254 0.54791 0.10909 0.0
C3918 C 0.11018 0.55577 0.09361 0.0
C3919 C 0.10393 0.56986 0.08669 0.0
C3920 C 0.11115 0.5772 0.07209 0.0
C3921 C 0.12469 0.57062 0.06435 0.0
C3922 C 0.13106 0.5567 0.07119 0.0
C3923 C 0.12387 0.5493 0.08577 0.0
H3924 H 0.13028 0.57633 0.05306 0.0
H3925 H 0.0588 0.50019 0.19157 0.0
H3926 H 0.79011 0.88225 0.45253 0.0
H3927 H 0.78852 0.86314 0.4225 0.0
H3928 H 0.78837 0.81479 0.44737 0.0
H3929 H 0.79037 0.83419 0.47804 0.0
H3930 H 0.8109 0.81777 0.42134 0.0
H3931 H 0.75046 0.8181 0.42313 0.0
H3932 H 0.72551 0.83226 0.4291 0.0
H3933 H 0.7388 0.86692 0.3891 0.0
H3934 H 0.76394 0.85315 0.38303 0.0
H3935 H 0.79925 0.77138 0.32585 0.0
H3936 H 0.79665 0.77947 0.35881 0.0
H3937 H 0.79143 0.83429 0.3515 0.0
H3938 H 0.79309 0.82578 0.31856 0.0
H3939 H 0.76715 0.82009 0.37008 0.0
H3940 H 0.83048 0.82527 0.37353 0.0
H3941 H 0.85633 0.81263 0.36765 0.0
H3942 H 0.83795 0.76878 0.39734 0.0
H3943 H 0.81192 0.78111 0.40327 0.0
C3944 C 0.78963 0.86754 0.45177 0.0
C3945 C 0.7903 0.85976 0.46777 0.0
C3946 C 0.7886 0.85657 0.43449 0.0
C3947 C 0.78793 0.83745 0.43264 0.0
C3948 C 0.78871 0.82952 0.44851 0.0
C3949 C 0.78985 0.8406 0.46599 0.0
C3950 C 0.78724 0.82632 0.414 0.0
C3951 C 0.8011 0.81786 0.41017 0.0
C3952 C 0.77454 0.82661 0.39941 0.0
C3953 C 0.75914 0.83461 0.40269 0.0
C3954 C 0.7481 0.82878 0.41565 0.0
C3955 C 0.73392 0.83673 0.41904 0.0
C3956 C 0.73062 0.85051 0.40952 0.0
C3957 C 0.74138 0.85625 0.39646 0.0
C3958 C 0.75557 0.84834 0.39301 0.0
C3959 C 0.79791 0.78526 0.3315 0.0
C3960 C 0.79657 0.79811 0.31995 0.0
C3961 C 0.79639 0.78986 0.35025 0.0
C3962 C 0.79391 0.80753 0.35768 0.0
C3963 C 0.79321 0.82054 0.3461 0.0
C3964 C 0.79433 0.81579 0.32736 0.0
C3965 C 0.79137 0.81253 0.37729 0.0
C3966 C 0.77677 0.81966 0.38128 0.0
C3967 C 0.80344 0.81116 0.39197 0.0
C3968 C 0.81922 0.804 0.38871 0.0
C3969 C 0.83194 0.81289 0.37874 0.0
C3970 C 0.84662 0.8058 0.37541 0.0
C3971 C 0.84876 0.78989 0.38208 0.0
C3972 C 0.83627 0.78109 0.39217 0.0
C3973 C 0.82157 0.78814 0.39555 0.0
H3974 H 0.86011 0.78439 0.37945 0.0
H3975 H 0.71975 0.85676 0.41231 0.0
H3976 H 0.48394 0.55665 0.80552 0.0
H3977 H 0.49673 0.55541 0.83625 0.0
H3978 H 0.44592 0.55072 0.85518 0.0
H3979 H 0.43312 0.55282 0.82422 0.0
H3980 H 0.46999 0.5699 0.8832 0.0
H3981 H 0.46682 0.51123 0.84209 0.0
H3982 H 0.4728 0.49227 0.81393 0.0
H3983 H 0.52834 0.51453 0.82954 0.0
H3984 H 0.52267 0.53377 0.85769 0.0
H3985 H 0.49414 0.53856 0.96544 0.0
H3986 H 0.4807 0.54165 0.93547 0.0
H3987 H 0.52885 0.53854 0.9127 0.0
H3988 H 0.54171 0.53388 0.94247 0.0
H3989 H 0.50599 0.52361 0.88654 0.0
H3990 H 0.51122 0.58198 0.9265 0.0
H3991 H 0.50731 0.60212 0.95491 0.0
H3992 H 0.45123 0.58353 0.94163 0.0
H3993 H 0.45477 0.56289 0.91334 0.0
C3994 C 0.47542 0.5557 0.81624 0.0
C3995 C 0.45735 0.55496 0.81202 0.0
C3996 C 0.4828 0.5547 0.83399 0.0
C3997 C 0.47242 0.55225 0.84844 0.0
C3998 C 0.45447 0.55239 0.84456 0.0
C3999 C 0.44708 0.55374 0.82672 0.0
C4000 C 0.48024 0.54902 0.86708 0.0
C4001 C 0.47763 0.55955 0.88381 0.0
C4002 C 0.49091 0.53604 0.86852 0.0
C4003 C 0.49431 0.52401 0.85193 0.0
C4004 C 0.4803 0.51208 0.8395 0.0
C4005 C 0.48364 0.50131 0.82354 0.0
C4006 C 0.50094 0.50222 0.81994 0.0
C4007 C 0.51495 0.51384 0.83234 0.0
C4008 C 0.51168 0.52466 0.84831 0.0
C4009 C 0.50187 0.53847 0.95403 0.0
C4010 C 0.51912 0.53605 0.95661 0.0
C4011 C 0.4942 0.54051 0.93672 0.0
C4012 C 0.50369 0.54109 0.92134 0.0
C4013 C 0.52093 0.53834 0.92394 0.0
C4014 C 0.52841 0.53572 0.94115 0.0
C4015 C 0.49575 0.54446 0.90278 0.0
C4016 C 0.49835 0.53397 0.88603 0.0
C4017 C 0.48544 0.55779 0.90133 0.0
C4018 C 0.48326 0.57081 0.91785 0.0
C4019 C 0.49805 0.58219 0.92963 0.0
C4020 C 0.49591 0.59367 0.94573 0.0
C4021 C 0.47905 0.59414 0.95005 0.0
C4022 C 0.46428 0.58316 0.93825 0.0
C4023 C 0.46634 0.57156 0.92218 0.0
H4024 H 0.47743 0.603 0.96255 0.0
H4025 H 0.50349 0.4939 0.80755 0.0
H4026 H 0.77812 0.19282 0.05956 0.0
H4027 H 0.77403 0.21444 0.0863 0.0
H4028 H 0.77919 0.17405 0.1207 0.0
H4029 H 0.7821 0.15183 0.09358 0.0
H4030 H 0.75426 0.1897 0.12994 0.0
H4031 H 0.81362 0.212 0.11767 0.0
H4032 H 0.83637 0.22237 0.09816 0.0
H4033 H 0.81407 0.26844 0.09034 0.0
H4034 H 0.79098 0.25814 0.10955 0.0
H4035 H 0.78622 0.24298 0.21657 0.0
H4036 H 0.77842 0.2233 0.1865 0.0
H4037 H 0.77306 0.27101 0.1625 0.0
H4038 H 0.78206 0.29133 0.19305 0.0
H4039 H 0.79356 0.25355 0.14551 0.0
H4040 H 0.73428 0.22988 0.16069 0.0
H4041 H 0.71231 0.21701 0.18001 0.0
H4042 H 0.73792 0.1727 0.18526 0.0
H4043 H 0.75958 0.18487 0.16533 0.0
C4044 C 0.77859 0.18869 0.0729 0.0
C4045 C 0.78082 0.17095 0.07479 0.0
C4046 C 0.77618 0.20098 0.0881 0.0
C4047 C 0.77668 0.19596 0.10548 0.0
C4048 C 0.77882 0.17816 0.10736 0.0
C4049 C 0.78067 0.16561 0.09201 0.0
C4050 C 0.77532 0.20941 0.12181 0.0
C4051 C 0.76287 0.20366 0.13341 0.0
C4052 C 0.78632 0.22772 0.12602 0.0
C4053 C 0.80048 0.2342 0.11488 0.0
C4054 C 0.81352 0.22429 0.11171 0.0
C4055 C 0.82647 0.23015 0.1007 0.0
C4056 C 0.82664 0.24603 0.09297 0.0
C4057 C 0.8139 0.25613 0.0963 0.0
C4058 C 0.80089 0.25029 0.10725 0.0
C4059 C 0.78308 0.24931 0.20497 0.0
C4060 C 0.7848 0.26867 0.20701 0.0
C4061 C 0.7783 0.23792 0.18777 0.0
C4062 C 0.77462 0.24555 0.1723 0.0
C4063 C 0.77564 0.26485 0.17437 0.0
C4064 C 0.78083 0.27642 0.19169 0.0
C4065 C 0.77263 0.2338 0.1539 0.0
C4066 C 0.78457 0.23981 0.14184 0.0
C4067 C 0.76147 0.21556 0.14951 0.0
C4068 C 0.74856 0.20835 0.16162 0.0
C4069 C 0.73523 0.21743 0.16602 0.0
C4070 C 0.72281 0.21022 0.17702 0.0
C4071 C 0.72385 0.1942 0.18407 0.0
C4072 C 0.73714 0.18514 0.17985 0.0
C4073 C 0.74937 0.19206 0.16853 0.0
H4074 H 0.7143 0.18874 0.19272 0.0
H4075 H 0.83666 0.25053 0.08443 0.0
H4076 H 0.15861 0.55056 0.29303 0.0
H4077 H 0.15477 0.56454 0.32394 0.0
H4078 H 0.10265 0.52818 0.31758 0.0
H4079 H 0.106 0.51506 0.28604 0.0
H4080 H 0.10212 0.56385 0.32263 0.0
H4081 H 0.13962 0.52789 0.34975 0.0
H4082 H 0.16777 0.5191 0.35523 0.0
H4083 H 0.19376 0.57651 0.37719 0.0
H4084 H 0.16581 0.58569 0.37161 0.0
H4085 H 0.06348 0.55582 0.39863 0.0
H4086 H 0.0784 0.5568 0.37188 0.0
H4087 H 0.12256 0.59861 0.40362 0.0
H4088 H 0.10805 0.59569 0.43159 0.0
H4089 H 0.13406 0.57373 0.3853 0.0
H4090 H 0.09303 0.60695 0.36481 0.0
H4091 H 0.06377 0.61364 0.3606 0.0
H4092 H 0.04319 0.55957 0.32623 0.0
H4093 H 0.07216 0.55244 0.33038 0.0
C4094 C 0.14657 0.54504 0.29849 0.0
C4095 C 0.13243 0.53194 0.28721 0.0
C4096 C 0.14445 0.55305 0.31618 0.0
C4097 C 0.12838 0.54753 0.32289 0.0
C4098 C 0.11509 0.53275 0.31244 0.0
C4099 C 0.11697 0.5252 0.29452 0.0
C4100 C 0.12402 0.55907 0.33903 0.0
C4101 C 0.10901 0.56594 0.33641 0.0
C4102 C 0.13395 0.56316 0.3566 0.0
C4103 C 0.15067 0.5575 0.36002 0.0
C4104 C 0.15137 0.53866 0.35559 0.0
C4105 C 0.16728 0.53361 0.35875 0.0
C4106 C 0.18255 0.54725 0.3665 0.0
C4107 C 0.18193 0.56597 0.37116 0.0
C4108 C 0.16606 0.5711 0.368 0.0
C4109 C 0.07605 0.56583 0.3998 0.0
C4110 C 0.08451 0.57605 0.41693 0.0
C4111 C 0.08456 0.56657 0.38437 0.0
C4112 C 0.10131 0.57847 0.38541 0.0
C4113 C 0.10947 0.58963 0.40244 0.0
C4114 C 0.10119 0.58815 0.41829 0.0
C4115 C 0.11089 0.57655 0.36923 0.0
C4116 C 0.12728 0.57208 0.37156 0.0
C4117 C 0.10214 0.57449 0.35125 0.0
C4118 C 0.08491 0.57928 0.34777 0.0
C4119 C 0.0823 0.59654 0.35626 0.0
C4120 C 0.06573 0.60037 0.35392 0.0
C4121 C 0.05165 0.58707 0.3431 0.0
C4122 C 0.05412 0.56992 0.33451 0.0
C4123 C 0.07065 0.56602 0.33677 0.0
H4124 H 0.03881 0.59003 0.34141 0.0
H4125 H 0.19486 0.54331 0.36893 0.0
H4126 H 0.80296 0.83147 0.56802 0.0
H4127 H 0.80069 0.81667 0.59517 0.0
H4128 H 0.77971 0.86119 0.62226 0.0
H4129 H 0.78318 0.87654 0.59577 0.0
H4130 H 0.80046 0.85549 0.64584 0.0
H4131 H 0.75477 0.81202 0.6025 0.0
H4132 H 0.74158 0.78971 0.57377 0.0
H4133 H 0.77648 0.75495 0.58467 0.0
H4134 H 0.79001 0.77715 0.61336 0.0
H4135 H 0.76448 0.81054 0.71685 0.0
H4136 H 0.76726 0.82304 0.68826 0.0
H4137 H 0.80282 0.78852 0.67266 0.0
H4138 H 0.80031 0.77634 0.70147 0.0
H4139 H 0.77555 0.78789 0.64351 0.0
H4140 H 0.82031 0.83237 0.68757 0.0
H4141 H 0.83097 0.854 0.71727 0.0
H4142 H 0.79429 0.88647 0.70503 0.0
H4143 H 0.78326 0.86488 0.67534 0.0
C4144 C 0.7979 0.83807 0.57981 0.0
C4145 C 0.79341 0.85527 0.5798 0.0
C4146 C 0.7964 0.82949 0.59532 0.0
C4147 C 0.78978 0.83757 0.61091 0.0
C4148 C 0.78499 0.8546 0.61063 0.0
C4149 C 0.78696 0.86341 0.5954 0.0
C4150 C 0.78853 0.82899 0.62788 0.0
C4151 C 0.79473 0.84073 0.64516 0.0
C4152 C 0.78151 0.80961 0.62736 0.0
C4153 C 0.77355 0.79638 0.60997 0.0
C4154 C 0.75974 0.79971 0.59869 0.0
C4155 C 0.75218 0.78706 0.58243 0.0
C4156 C 0.75823 0.77095 0.57737 0.0
C4157 C 0.77183 0.76744 0.58858 0.0
C4158 C 0.77945 0.78005 0.60485 0.0
C4159 C 0.77297 0.80578 0.70734 0.0
C4160 C 0.78234 0.79271 0.71135 0.0
C4161 C 0.77452 0.81285 0.69102 0.0
C4162 C 0.78525 0.80671 0.67828 0.0
C4163 C 0.79445 0.79343 0.68223 0.0
C4164 C 0.79314 0.78662 0.69872 0.0
C4165 C 0.78713 0.81451 0.66109 0.0
C4166 C 0.78118 0.80263 0.64392 0.0
C4167 C 0.79405 0.83378 0.66165 0.0
C4168 C 0.80089 0.84695 0.67932 0.0
C4169 C 0.81446 0.84407 0.69127 0.0
C4170 C 0.82057 0.85632 0.70809 0.0
C4171 C 0.81329 0.87158 0.71305 0.0
C4172 C 0.79991 0.87464 0.70117 0.0
C4173 C 0.79375 0.86242 0.68433 0.0
H4174 H 0.81802 0.88104 0.72609 0.0
H4175 H 0.75234 0.76117 0.56479 0.0
H4176 H 0.73449 0.41519 0.50495 0.0
H4177 H 0.71055 0.42724 0.51732 0.0
H4178 H 0.74054 0.48379 0.51979 0.0
H4179 H 0.76463 0.47192 0.50781 0.0
H4180 H 0.72393 0.47951 0.5507 0.0
H4181 H 0.71027 0.46531 0.48422 0.0
H4182 H 0.70757 0.44367 0.45462 0.0
H4183 H 0.66739 0.40354 0.47235 0.0
H4184 H 0.67 0.42493 0.50216 0.0
H4185 H 0.66493 0.5359 0.54079 0.0
H4186 H 0.68719 0.51792 0.54019 0.0
H4187 H 0.64691 0.4671 0.53652 0.0
H4188 H 0.62442 0.48512 0.53697 0.0
H4189 H 0.66715 0.46404 0.51004 0.0
H4190 H 0.6781 0.48457 0.57571 0.0
H4191 H 0.68395 0.50706 0.60514 0.0
H4192 H 0.73136 0.53725 0.58849 0.0
H4193 H 0.72573 0.51507 0.5589 0.0
C4194 C 0.7359 0.43017 0.50802 0.0
C4195 C 0.75124 0.44266 0.50526 0.0
C4196 C 0.72234 0.437 0.51523 0.0
C4197 C 0.72392 0.45634 0.51942 0.0
C4198 C 0.73926 0.46882 0.51677 0.0
C4199 C 0.75286 0.46202 0.50974 0.0
C4200 C 0.70905 0.46365 0.52518 0.0
C4201 C 0.71146 0.4762 0.54192 0.0
C4202 C 0.69287 0.45895 0.51371 0.0
C4203 C 0.69033 0.44667 0.49537 0.0
C4204 C 0.7008 0.4519 0.48175 0.0
C4205 C 0.69933 0.43967 0.46497 0.0
C4206 C 0.68732 0.42224 0.46161 0.0
C4207 C 0.67667 0.41706 0.47497 0.0
C4208 C 0.6781 0.42925 0.49179 0.0
C4209 C 0.66085 0.52097 0.5403 0.0
C4210 C 0.64298 0.51188 0.53885 0.0
C4211 C 0.67358 0.51071 0.54005 0.0
C4212 C 0.66869 0.49123 0.53859 0.0
C4213 C 0.6509 0.48216 0.53776 0.0
C4214 C 0.63811 0.49242 0.53789 0.0
C4215 C 0.68196 0.4803 0.53563 0.0
C4216 C 0.67935 0.46706 0.51923 0.0
C4217 C 0.69809 0.48469 0.54732 0.0
C4218 C 0.70143 0.49818 0.56504 0.0
C4219 C 0.68971 0.49608 0.57827 0.0
C4220 C 0.693 0.50876 0.595 0.0
C4221 C 0.708 0.52358 0.59867 0.0
C4222 C 0.71975 0.52576 0.58563 0.0
C4223 C 0.71653 0.51311 0.5689 0.0
H4224 H 0.71053 0.53337 0.61163 0.0
H4225 H 0.68626 0.41273 0.44865 0.0
H4226 H 0.2326 0.13489 0.51241 0.0
H4227 H 0.20366 0.11805 0.51775 0.0
H4228 H 0.17945 0.13907 0.4739 0.0
H4229 H 0.2085 0.15738 0.46977 0.0
H4230 H 0.1588 0.13745 0.49825 0.0
H4231 H 0.18871 0.09149 0.47041 0.0
H4232 H 0.21347 0.07623 0.46894 0.0
H4233 H 0.20622 0.06198 0.522 0.0
H4234 H 0.18153 0.07731 0.52385 0.0
H4235 H 0.07769 0.06726 0.48102 0.0
H4236 H 0.10597 0.08899 0.48028 0.0
H4237 H 0.12929 0.06836 0.52497 0.0
H4238 H 0.10122 0.04597 0.52489 0.0
H4239 H 0.15035 0.07022 0.50115 0.0
H4240 H 0.11956 0.11415 0.52861 0.0
H4241 H 0.09445 0.12882 0.53042 0.0
H4242 H 0.10317 0.14688 0.4792 0.0
H4243 H 0.1281 0.13198 0.47689 0.0
C4244 C 0.2211 0.13594 0.50393 0.0
C4245 C 0.22282 0.14723 0.49048 0.0
C4246 C 0.20448 0.12616 0.50689 0.0
C4247 C 0.18918 0.12659 0.4958 0.0
C4248 C 0.19092 0.13826 0.4826 0.0
C4249 C 0.20754 0.14866 0.48014 0.0
C4250 C 0.17151 0.11465 0.49769 0.0
C4251 C 0.15696 0.1227 0.49865 0.0
C4252 C 0.16894 0.09543 0.49875 0.0
C4253 C 0.18335 0.08562 0.4973 0.0
C4254 C 0.19241 0.08509 0.48175 0.0
C4255 C 0.20644 0.07646 0.48087 0.0
C4256 C 0.21143 0.06817 0.49538 0.0
C4257 C 0.20234 0.0684 0.51077 0.0
C4258 C 0.18831 0.07703 0.51173 0.0
C4259 C 0.08878 0.06779 0.49098 0.0
C4260 C 0.08724 0.05529 0.50329 0.0
C4261 C 0.10499 0.0802 0.49057 0.0
C4262 C 0.11993 0.08065 0.50275 0.0
C4263 C 0.11812 0.06842 0.51541 0.0
C4264 C 0.10202 0.05576 0.51553 0.0
C4265 C 0.13762 0.09298 0.50165 0.0
C4266 C 0.15218 0.08499 0.5008 0.0
C4267 C 0.14017 0.11222 0.50078 0.0
C4268 C 0.12564 0.12185 0.50252 0.0
C4269 C 0.11609 0.12121 0.51771 0.0
C4270 C 0.10187 0.12954 0.51881 0.0
C4271 C 0.0972 0.13875 0.50492 0.0
C4272 C 0.10679 0.13972 0.48994 0.0
C4273 C 0.12098 0.13135 0.48873 0.0
H4274 H 0.08617 0.14516 0.50581 0.0
H4275 H 0.22233 0.06154 0.49469 0.0
H4276 H 0.16912 0.93661 0.77543 0.0
H4277 H 0.18356 0.91049 0.77403 0.0
H4278 H 0.22249 0.93841 0.74404 0.0
H4279 H 0.20828 0.96479 0.74581 0.0
H4280 H 0.21382 0.90012 0.72916 0.0
H4281 H 0.23176 0.93557 0.79054 0.0
H4282 H 0.22719 0.95113 0.82108 0.0
H4283 H 0.19727 0.89883 0.83098 0.0
H4284 H 0.20147 0.883 0.80036 0.0
H4285 H 0.28012 0.84672 0.74613 0.0
H4286 H 0.26424 0.87166 0.74573 0.0
H4287 H 0.22145 0.8391 0.76776 0.0
H4288 H 0.23687 0.8137 0.76721 0.0
H4289 H 0.23149 0.87904 0.7863 0.0
H4290 H 0.21336 0.843 0.72683 0.0
H4291 H 0.21531 0.82618 0.69592 0.0
H4292 H 0.24267 0.87751 0.68175 0.0
H4293 H 0.2412 0.89462 0.71276 0.0
C4294 C 0.18079 0.93739 0.76855 0.0
C4295 C 0.1873 0.95345 0.7609 0.0
C4296 C 0.18922 0.92219 0.76776 0.0
C4297 C 0.20457 0.92185 0.759 0.0
C4298 C 0.21085 0.9377 0.75097 0.0
C4299 C 0.20262 0.95309 0.75208 0.0
C4300 C 0.21409 0.90545 0.75858 0.0
C4301 C 0.21788 0.89588 0.7418 0.0
C4302 C 0.21922 0.89875 0.77469 0.0
C4303 C 0.21678 0.90815 0.79311 0.0
C4304 C 0.22411 0.92742 0.79919 0.0
C4305 C 0.2216 0.93628 0.81651 0.0
C4306 C 0.21191 0.92598 0.82795 0.0
C4307 C 0.20475 0.90679 0.8221 0.0
C4308 C 0.2072 0.89786 0.80476 0.0
C4309 C 0.26729 0.84468 0.75084 0.0
C4310 C 0.26007 0.82769 0.75668 0.0
C4311 C 0.25806 0.85917 0.75059 0.0
C4312 C 0.2413 0.85788 0.75678 0.0
C4313 C 0.23421 0.84103 0.76289 0.0
C4314 C 0.24316 0.82625 0.76252 0.0
C4315 C 0.23142 0.8739 0.75694 0.0
C4316 C 0.22754 0.88337 0.77367 0.0
C4317 C 0.226 0.8803 0.74075 0.0
C4318 C 0.22745 0.87006 0.72227 0.0
C4319 C 0.22007 0.85067 0.71725 0.0
C4320 C 0.22102 0.84109 0.69968 0.0
C4321 C 0.22918 0.85075 0.6869 0.0
C4322 C 0.23641 0.87003 0.69169 0.0
C4323 C 0.23554 0.87968 0.70928 0.0
H4324 H 0.22985 0.84332 0.67328 0.0
H4325 H 0.20998 0.93287 0.84136 0.0
H4326 H 0.34792 0.97783 0.02047 0.0
H4327 H 0.37924 0.98503 0.0312 0.0
H4328 H 0.38003 0.92749 0.01238 0.0
H4329 H 0.34858 0.91996 0.00194 0.0
H4330 H 0.4107 0.95478 0.04336 0.0
H4331 H 0.38364 0.94111 0.97947 0.0
H4332 H 0.3605 0.94064 0.95465 0.0
H4333 H 0.36973 1.00041 0.96881 0.0
H4334 H 0.39266 1.00114 0.99399 0.0
H4335 H 0.4861 0.98303 0.9918 0.0
H4336 H 0.45663 0.96641 0.99604 0.0
H4337 H 0.44998 0.01627 0.0304 0.0
H4338 H 0.47979 0.03293 0.02671 0.0
H4339 H 0.42351 0.98768 0.99107 0.0
H4340 H 0.45289 0.99717 0.05695 0.0
H4341 H 0.48003 0.99419 0.07413 0.0
H4342 H 0.4693 0.9362 0.04869 0.0
H4343 H 0.44229 0.93901 0.03102 0.0
C4344 C 0.35466 0.96662 0.01909 0.0
C4345 C 0.34621 0.94862 0.00952 0.0
C4346 C 0.37237 0.97062 0.02568 0.0
C4347 C 0.38172 0.95678 0.0222 0.0
C4348 C 0.37284 0.93823 0.01515 0.0
C4349 C 0.35503 0.93412 0.00877 0.0
C4350 C 0.39991 0.96295 0.01912 0.0
C4351 C 0.41357 0.9619 0.03195 0.0
C4352 C 0.4035 0.97149 0.00373 0.0
C4353 C 0.3896 0.97113 0.98878 0.0
C4354 C 0.38055 0.95411 0.97744 0.0
C4355 C 0.36751 0.9538 0.96329 0.0
C4356 C 0.36359 0.97048 0.96021 0.0
C4357 C 0.37272 0.9875 0.97126 0.0
C4358 C 0.38572 0.98786 0.98549 0.0
C4359 C 0.47825 0.99045 1.00012 0.0
C4360 C 0.48487 0.00914 0.00892 0.0
C4361 C 0.46165 0.98095 0.00263 0.0
C4362 C 0.45164 0.99024 0.01371 0.0
C4363 C 0.45795 0.00905 0.02207 0.0
C4364 C 0.47474 0.01847 0.01989 0.0
C4365 C 0.43412 0.98045 0.01581 0.0
C4366 C 0.42062 0.9806 0.00252 0.0
C4367 C 0.4309 0.97051 0.03024 0.0
C4368 C 0.44562 0.96828 0.04273 0.0
C4369 C 0.45626 0.98376 0.05516 0.0
C4370 C 0.47167 0.98212 0.06491 0.0
C4371 C 0.47642 0.96501 0.06246 0.0
C4372 C 0.4656 0.94943 0.05055 0.0
C4373 C 0.45024 0.95103 0.04069 0.0
H4374 H 0.48853 0.9638 0.06966 0.0
H4375 H 0.35353 0.97022 0.94921 0.0
H4376 H 0.8602 0.557 0.78574 0.0
H4377 H 0.84621 0.57833 0.7714 0.0
H4378 H 0.89749 0.61064 0.76474 0.0
H4379 H 0.91128 0.59091 0.78059 0.0
H4380 H 0.88038 0.63267 0.77382 0.0
H4381 H 0.86708 0.57663 0.72791 0.0
H4382 H 0.85541 0.54302 0.71504 0.0
H4383 H 0.80356 0.54729 0.72593 0.0
H4384 H 0.81494 0.58086 0.73902 0.0
H4385 H 0.84017 0.68905 0.72513 0.0
H4386 H 0.85761 0.66598 0.72829 0.0
H4387 H 0.8125 0.62938 0.74358 0.0
H4388 H 0.79502 0.65179 0.73936 0.0
H4389 H 0.82983 0.60931 0.72458 0.0
H4390 H 0.84659 0.66576 0.77439 0.0
H4391 H 0.86063 0.69871 0.78827 0.0
H4392 H 0.90936 0.69227 0.76927 0.0
H4393 H 0.89543 0.65966 0.75452 0.0
C4394 C 0.86836 0.56912 0.78182 0.0
C4395 C 0.88675 0.57251 0.78452 0.0
C4396 C 0.86042 0.58097 0.7732 0.0
C4397 C 0.87082 0.59575 0.7665 0.0
C4398 C 0.88917 0.59937 0.76979 0.0
C4399 C 0.89705 0.58815 0.77907 0.0
C4400 C 0.86286 0.60819 0.75685 0.0
C4401 C 0.86957 0.62749 0.76274 0.0
C4402 C 0.84876 0.60146 0.74244 0.0
C4403 C 0.8419 0.58124 0.73457 0.0
C4404 C 0.85321 0.57037 0.72766 0.0
C4405 C 0.84664 0.55133 0.72031 0.0
C4406 C 0.82876 0.54302 0.7197 0.0
C4407 C 0.8174 0.55374 0.72641 0.0
C4408 C 0.8239 0.57278 0.73377 0.0
C4409 C 0.83401 0.67582 0.72869 0.0
C4410 C 0.81637 0.67197 0.73198 0.0
C4411 C 0.84392 0.66275 0.73057 0.0
C4412 C 0.83639 0.64613 0.73645 0.0
C4413 C 0.81853 0.64205 0.73891 0.0
C4414 C 0.80857 0.65484 0.73657 0.0
C4415 C 0.84713 0.63366 0.74197 0.0
C4416 C 0.84098 0.61435 0.73529 0.0
C4417 C 0.86205 0.64033 0.75542 0.0
C4418 C 0.86984 0.66041 0.76301 0.0
C4419 C 0.86017 0.67153 0.77279 0.0
C4420 C 0.86812 0.69017 0.7808 0.0
C4421 C 0.88582 0.69769 0.77941 0.0
C4422 C 0.89558 0.68661 0.76999 0.0
C4423 C 0.88764 0.66809 0.76173 0.0
H4424 H 0.892 0.71205 0.78577 0.0
H4425 H 0.8237 0.52828 0.71401 0.0
H4426 H 0.84074 0.67527 0.00553 0.0
H4427 H 0.86925 0.66765 0.01223 0.0
H4428 H 0.84333 0.60888 1.00054 0.0
H4429 H 0.81512 0.61638 0.9943 0.0
H4430 H 0.86289 0.61868 0.03364 0.0
H4431 H 0.87069 0.63199 0.97151 0.0
H4432 H 0.87407 0.65296 0.9489 0.0
H4433 H 0.91824 0.69039 0.98417 0.0
H4434 H 0.91496 0.66976 0.00709 0.0
H4435 H 0.92008 0.56086 0.01926 0.0
H4436 H 0.8984 0.57944 0.01944 0.0
H4437 H 0.93986 0.62986 0.02679 0.0
H4438 H 0.9618 0.61106 0.02618 0.0
H4439 H 0.91628 0.63206 0.00231 0.0
H4440 H 0.9127 0.61894 0.06196 0.0
H4441 H 0.9104 0.60121 0.08728 0.0
H4442 H 0.86002 0.56755 0.06105 0.0
H4443 H 0.8621 0.5849 0.03545 0.0
C4444 C 0.84127 0.66074 0.00396 0.0
C4445 C 0.8257 0.64641 0.99944 0.0
C4446 C 0.85754 0.65639 0.00786 0.0
C4447 C 0.85844 0.63767 0.00704 0.0
C4448 C 0.84299 0.62343 0.00149 0.0
C4449 C 0.82686 0.62773 0.99781 0.0
C4450 C 0.87496 0.63244 0.013 0.0
C4451 C 0.87454 0.62148 0.0267 0.0
C4452 C 0.89061 0.63714 0.00488 0.0
C4453 C 0.89243 0.64947 0.99109 0.0
C4454 C 0.88101 0.64478 0.97451 0.0
C4455 C 0.88294 0.65659 0.96163 0.0
C4456 C 0.89632 0.67303 0.96512 0.0
C4457 C 0.90785 0.67768 0.98149 0.0
C4458 C 0.90596 0.66594 0.99443 0.0
C4459 C 0.92467 0.57593 0.02133 0.0
C4460 C 0.94271 0.58445 0.02281 0.0
C4461 C 0.9122 0.58662 0.02149 0.0
C4462 C 0.91739 0.60618 0.02347 0.0
C4463 C 0.93546 0.61482 0.0253 0.0
C4464 C 0.94799 0.60406 0.02493 0.0
C4465 C 0.90377 0.61716 0.02212 0.0
C4466 C 0.90477 0.62938 0.00948 0.0
C4467 C 0.88876 0.614 0.03156 0.0
C4468 C 0.88762 0.60318 0.04672 0.0
C4469 C 0.9012 0.60765 0.0615 0.0
C4470 C 0.89992 0.59768 0.07592 0.0
C4471 C 0.88509 0.58325 0.07576 0.0
C4472 C 0.87151 0.57873 0.06116 0.0
C4473 C 0.87272 0.58865 0.0467 0.0
H4474 H 0.88411 0.57558 0.08695 0.0
H4475 H 0.8978 0.68214 0.95513 0.0
H4476 H 0.16614 0.08961 0.77311 0.0
H4477 H 0.18353 0.12058 0.77219 0.0
H4478 H 0.22741 0.09749 0.75892 0.0
H4479 H 0.20984 0.06591 0.76029 0.0
H4480 H 0.2403 0.1299 0.78067 0.0
H4481 H 0.19829 0.11423 0.7262 0.0
H4482 H 0.16869 0.10401 0.7085 0.0
H4483 H 0.1536 0.15047 0.73949 0.0
H4484 H 0.18305 0.16085 0.75753 0.0
H4485 H 0.29028 0.21104 0.7552 0.0
H4486 H 0.27197 0.18029 0.75557 0.0
H4487 H 0.22882 0.20478 0.7684 0.0
H4488 H 0.24734 0.23606 0.76762 0.0
H4489 H 0.21498 0.17188 0.74694 0.0
H4490 H 0.25578 0.18747 0.80159 0.0
H4491 H 0.28463 0.19764 0.8208 0.0
H4492 H 0.30113 0.1515 0.79102 0.0
H4493 H 0.27245 0.14118 0.77148 0.0
C4494 C 0.17951 0.09084 0.76999 0.0
C4495 C 0.18627 0.07467 0.76673 0.0
C4496 C 0.18955 0.1089 0.76926 0.0
C4497 C 0.20695 0.11199 0.76491 0.0
C4498 C 0.21405 0.09597 0.76215 0.0
C4499 C 0.20393 0.0777 0.763 0.0
C4500 C 0.21752 0.1318 0.76367 0.0
C4501 C 0.23475 0.13882 0.77296 0.0
C4502 C 0.2105 0.14433 0.75427 0.0
C4503 C 0.19285 0.13823 0.74331 0.0
C4504 C 0.18863 0.12221 0.7293 0.0
C4505 C 0.17188 0.1164 0.7192 0.0
C4506 C 0.15926 0.12657 0.72289 0.0
C4507 C 0.16338 0.14261 0.73665 0.0
C4508 C 0.18011 0.14848 0.7468 0.0
C4509 C 0.27687 0.21013 0.75809 0.0
C4510 C 0.27062 0.22659 0.76139 0.0
C4511 C 0.26629 0.19222 0.75847 0.0
C4512 C 0.24879 0.18957 0.76253 0.0
C4513 C 0.24219 0.20593 0.76535 0.0
C4514 C 0.25289 0.22407 0.76485 0.0
C4515 C 0.23786 0.1699 0.76381 0.0
C4516 C 0.22056 0.16292 0.75458 0.0
C4517 C 0.24473 0.15742 0.77339 0.0
C4518 C 0.26204 0.16367 0.78497 0.0
C4519 C 0.26562 0.17958 0.79905 0.0
C4520 C 0.28192 0.18535 0.81001 0.0
C4521 C 0.29472 0.17525 0.80711 0.0
C4522 C 0.29122 0.15933 0.79324 0.0
C4523 C 0.27493 0.15351 0.78223 0.0
H4524 H 0.30733 0.17973 0.81562 0.0
H4525 H 0.1463 0.12203 0.71507 0.0
H4526 H 0.39166 0.98474 0.29605 0.0
H4527 H 0.36972 0.95572 0.29398 0.0
H4528 H 0.3944 0.92879 0.25107 0.0
H4529 H 0.41642 0.95823 0.25271 0.0
H4530 H 0.3596 0.92566 0.24126 0.0
H4531 H 0.3955 0.91616 0.29272 0.0
H4532 H 0.41277 0.9246 0.3235 0.0
H4533 H 0.36687 0.93251 0.34815 0.0
H4534 H 0.34937 0.92433 0.31748 0.0
H4535 H 0.31791 0.8331 0.23521 0.0
H4536 H 0.33531 0.86441 0.23787 0.0
H4537 H 0.30824 0.88352 0.28279 0.0
H4538 H 0.29142 0.85128 0.28116 0.0
H4539 H 0.34193 0.89283 0.29219 0.0
H4540 H 0.30524 0.89741 0.23872 0.0
H4541 H 0.28916 0.88315 0.20784 0.0
H4542 H 0.33798 0.882 0.18642 0.0
H4543 H 0.35428 0.89555 0.21709 0.0
C4544 C 0.39262 0.9726 0.28632 0.0
C4545 C 0.40555 0.97373 0.27432 0.0
C4546 C 0.38016 0.95601 0.2853 0.0
C4547 C 0.38057 0.94026 0.27244 0.0
C4548 C 0.39401 0.94096 0.26109 0.0
C4549 C 0.40655 0.95767 0.26208 0.0
C4550 C 0.36584 0.92381 0.26965 0.0
C4551 C 0.35577 0.91832 0.25231 0.0
C4552 C 0.36065 0.91487 0.28433 0.0
C4553 C 0.37117 0.91982 0.30279 0.0
C4554 C 0.38912 0.91986 0.30469 0.0
C4555 C 0.39894 0.92455 0.32212 0.0
C4556 C 0.39093 0.92914 0.33777 0.0
C4557 C 0.37307 0.92898 0.33602 0.0
C4558 C 0.36319 0.92429 0.31862 0.0
C4559 C 0.31523 0.84395 0.24538 0.0
C4560 C 0.30353 0.83979 0.2582 0.0
C4561 C 0.32511 0.86199 0.24673 0.0
C4562 C 0.32283 0.87634 0.26031 0.0
C4563 C 0.31007 0.87254 0.27219 0.0
C4564 C 0.30052 0.85423 0.27124 0.0
C4565 C 0.33573 0.89441 0.26369 0.0
C4566 C 0.34547 0.90038 0.2812 0.0
C4567 C 0.3407 0.90368 0.24911 0.0
C4568 C 0.33099 0.89751 0.23025 0.0
C4569 C 0.31254 0.89419 0.22738 0.0
C4570 C 0.30338 0.88608 0.20993 0.0
C4571 C 0.31256 0.88148 0.19524 0.0
C4572 C 0.33088 0.88538 0.19782 0.0
C4573 C 0.3401 0.89332 0.21523 0.0
H4574 H 0.3055 0.87481 0.18189 0.0
H4575 H 0.39856 0.93277 0.35125 0.0
H4576 H 0.57996 0.3451 0.56368 0.0
H4577 H 0.57516 0.37086 0.54866 0.0
H4578 H 0.54715 0.38925 0.59279 0.0
H4579 H 0.55212 0.3638 0.60799 0.0
H4580 H 0.52986 0.38788 0.55729 0.0
H4581 H 0.58874 0.41161 0.59122 0.0
H4582 H 0.61985 0.41149 0.59885 0.0
H4583 H 0.62853 0.41307 0.54271 0.0
H4584 H 0.5974 0.41288 0.53468 0.0
H4585 H 0.5229 0.47723 0.54253 0.0
H4586 H 0.52711 0.44936 0.55368 0.0
H4587 H 0.56973 0.4475 0.5208 0.0
H4588 H 0.5666 0.47665 0.51133 0.0
H4589 H 0.57949 0.43834 0.54828 0.0
H4590 H 0.52344 0.41475 0.51223 0.0
H4591 H 0.49253 0.41296 0.50112 0.0
H4592 H 0.47807 0.40779 0.55489 0.0
H4593 H 0.50892 0.40976 0.56639 0.0
C4594 C 0.5728 0.35465 0.57021 0.0
C4595 C 0.56651 0.35238 0.58713 0.0
C4596 C 0.57009 0.36941 0.56161 0.0
C4597 C 0.56085 0.38212 0.56961 0.0
C4598 C 0.55432 0.37969 0.58632 0.0
C4599 C 0.55725 0.36514 0.59505 0.0
C4600 C 0.55798 0.39803 0.56073 0.0
C4601 C 0.54069 0.39901 0.55541 0.0
C4602 C 0.57207 0.41217 0.55748 0.0
C4603 C 0.59069 0.41197 0.56231 0.0
C4604 C 0.59723 0.4117 0.58046 0.0
C4605 C 0.61488 0.41174 0.58487 0.0
C4606 C 0.62615 0.41221 0.57126 0.0
C4607 C 0.61979 0.41266 0.55322 0.0
C4608 C 0.60214 0.41258 0.54874 0.0
C4609 C 0.53311 0.47076 0.53765 0.0
C4610 C 0.54437 0.47901 0.526 0.0
C4611 C 0.5354 0.4546 0.54385 0.0
C4612 C 0.54846 0.44565 0.5378 0.0
C4613 C 0.55954 0.45388 0.52584 0.0
C4614 C 0.55772 0.47053 0.52029 0.0
C4615 C 0.55122 0.42845 0.5447 0.0
C4616 C 0.56852 0.42719 0.54978 0.0
C4617 C 0.53711 0.41367 0.54705 0.0
C4618 C 0.51853 0.41256 0.5402 0.0
C4619 C 0.51369 0.41336 0.52172 0.0
C4620 C 0.49617 0.41229 0.51535 0.0
C4621 C 0.48335 0.4103 0.52731 0.0
C4622 C 0.48801 0.40934 0.54565 0.0
C4623 C 0.50551 0.41041 0.55209 0.0
H4624 H 0.4698 0.40948 0.52235 0.0
H4625 H 0.63981 0.41227 0.57471 0.0
H4626 H 0.44317 0.74245 0.37874 0.0
H4627 H 0.41371 0.74478 0.36629 0.0
H4628 H 0.43765 0.79295 0.34423 0.0
H4629 H 0.46649 0.79079 0.35638 0.0
H4630 H 0.4097 0.79929 0.35841 0.0
H4631 H 0.42307 0.74917 0.31704 0.0
H4632 H 0.43105 0.71898 0.30921 0.0
H4633 H 0.38376 0.69098 0.32786 0.0
H4634 H 0.37564 0.7211 0.33605 0.0
H4635 H 0.35386 0.80193 0.27859 0.0
H4636 H 0.37703 0.79843 0.30097 0.0
H4637 H 0.33866 0.76015 0.32334 0.0
H4638 H 0.31517 0.76418 0.30114 0.0
H4639 H 0.37034 0.74689 0.3134 0.0
H4640 H 0.35564 0.79917 0.34981 0.0
H4641 H 0.34938 0.83035 0.35581 0.0
H4642 H 0.40102 0.85537 0.34422 0.0
H4643 H 0.4075 0.82429 0.33785 0.0
C4644 C 0.44209 0.75355 0.3713 0.0
C4645 C 0.45738 0.76622 0.36841 0.0
C4646 C 0.42523 0.75487 0.36411 0.0
C4647 C 0.42329 0.76902 0.35411 0.0
C4648 C 0.43855 0.78191 0.35182 0.0
C4649 C 0.45519 0.7805 0.35873 0.0
C4650 C 0.40573 0.77046 0.34534 0.0
C4651 C 0.40112 0.78777 0.34861 0.0
C4652 C 0.39423 0.75551 0.33262 0.0
C4653 C 0.39886 0.73738 0.32736 0.0
C4654 C 0.41443 0.73658 0.31957 0.0
C4655 C 0.41897 0.71949 0.31506 0.0
C4656 C 0.40795 0.70308 0.31809 0.0
C4657 C 0.39231 0.70372 0.32556 0.0
C4658 C 0.38772 0.72079 0.33013 0.0
C4659 C 0.35025 0.79322 0.28866 0.0
C4660 C 0.33261 0.78368 0.28833 0.0
C4661 C 0.36356 0.7911 0.30138 0.0
C4662 C 0.35974 0.77896 0.3139 0.0
C4663 C 0.34203 0.76961 0.31387 0.0
C4664 C 0.32855 0.77212 0.30135 0.0
C4665 C 0.37449 0.77578 0.32635 0.0
C4666 C 0.37867 0.75824 0.32359 0.0
C4667 C 0.3858 0.79062 0.3393 0.0
C4668 C 0.38201 0.80936 0.34322 0.0
C4669 C 0.36562 0.8113 0.34839 0.0
C4670 C 0.36204 0.82896 0.35189 0.0
C4671 C 0.37479 0.84483 0.35036 0.0
C4672 C 0.39116 0.84306 0.34538 0.0
C4673 C 0.3948 0.82542 0.34185 0.0
H4674 H 0.37199 0.85849 0.35307 0.0
H4675 H 0.4115 0.68986 0.31462 0.0
H4676 H 0.09173 0.73576 0.09747 0.0
H4677 H 0.0853 0.70454 0.07847 0.0
H4678 H 0.03642 0.71268 0.05427 0.0
H4679 H 0.04306 0.74441 0.07317 0.0
H4680 H 0.03415 0.67818 0.06925 0.0
H4681 H 0.06385 0.71032 0.02639 0.0
H4682 H 0.08708 0.73292 0.01592 0.0
H4683 H 0.12563 0.70463 0.0334 0.0
H4684 H 0.10263 0.68196 0.04417 0.0
H4685 H 0.02167 0.58926 0.01137 0.0
H4686 H 0.02428 0.6226 0.02139 0.0
H4687 H 0.07779 0.62956 0.04546 0.0
H4688 H 0.0754 0.59612 0.03526 0.0
H4689 H 0.07428 0.65721 0.02672 0.0
H4690 H 0.04453 0.62689 0.07224 0.0
H4691 H 0.02108 0.60384 0.08191 0.0
H4692 H 0.98203 0.62844 0.05871 0.0
H4693 H 0.00527 0.65154 0.04873 0.0
C4694 C 0.07978 0.73105 0.08782 0.0
C4695 C 0.06794 0.74246 0.08663 0.0
C4696 C 0.07611 0.71323 0.07702 0.0
C4697 C 0.0604 0.70636 0.06501 0.0
C4698 C 0.04863 0.71782 0.06347 0.0
C4699 C 0.05249 0.73592 0.07408 0.0
C4700 C 0.05632 0.68687 0.05481 0.0
C4701 C 0.04262 0.6736 0.05959 0.0
C4702 C 0.06762 0.68094 0.04255 0.0
C4703 C 0.08154 0.69453 0.03619 0.0
C4704 C 0.07731 0.70901 0.02813 0.0
C4705 C 0.09042 0.7218 0.02211 0.0
C4706 C 0.10783 0.72023 0.02402 0.0
C4707 C 0.11214 0.70583 0.03193 0.0
C4708 C 0.09906 0.69298 0.03796 0.0
C4709 C 0.03406 0.59787 0.01869 0.0
C4710 C 0.04833 0.59003 0.0226 0.0
C4711 C 0.03548 0.61691 0.02446 0.0
C4712 C 0.05112 0.62845 0.03439 0.0
C4713 C 0.06559 0.62083 0.03782 0.0
C4714 C 0.06421 0.60175 0.03197 0.0
C4715 C 0.05236 0.64845 0.04142 0.0
C4716 C 0.06558 0.66179 0.03611 0.0
C4717 C 0.04057 0.65439 0.05314 0.0
C4718 C 0.02662 0.64084 0.0596 0.0
C4719 C 0.03094 0.62734 0.06913 0.0
C4720 C 0.01769 0.61427 0.07468 0.0
C4721 C 1.00007 0.61464 0.07088 0.0
C4722 C 0.99568 0.62816 0.06162 0.0
C4723 C 0.00889 0.64126 0.05605 0.0
H4724 H 0.98983 0.60449 0.07514 0.0
H4725 H 0.11796 0.73015 0.01935 0.0
H4726 H 0.04847 0.27683 0.86171 0.0
H4727 H 0.0758 0.28606 0.84856 0.0
H4728 H 0.1044 0.27062 0.89344 0.0
H4729 H 0.07709 0.26267 0.90736 0.0
H4730 H 0.12461 0.29938 0.88415 0.0
H4731 H 0.08957 0.24053 0.84909 0.0
H4732 H 0.06221 0.2198 0.83161 0.0
H4733 H 0.06347 0.25597 0.79207 0.0
H4734 H 0.09075 0.27703 0.80944 0.0
H4735 H 0.19483 0.27843 0.83462 0.0
H4736 H 0.16984 0.27831 0.85213 0.0
H4737 H 0.14466 0.30182 0.81108 0.0
H4738 H 0.16951 0.30192 0.7934 0.0
H4739 H 0.12314 0.27053 0.8187 0.0
H4740 H 0.16046 0.3277 0.85258 0.0
H4741 H 0.18744 0.34847 0.87069 0.0
H4742 H 0.18237 0.31518 0.91284 0.0
H4743 H 0.15552 0.29398 0.89482 0.0
C4744 C 0.0606 0.27545 0.8688 0.0
C4745 C 0.06061 0.26867 0.88536 0.0
C4746 C 0.07625 0.28069 0.86125 0.0
C4747 C 0.09219 0.27847 0.86962 0.0
C4748 C 0.09231 0.27233 0.88657 0.0
C4749 C 0.07669 0.26765 0.89446 0.0
C4750 C 0.1084 0.28155 0.86017 0.0
C4751 C 0.12434 0.29288 0.86991 0.0
C4752 C 0.1081 0.27341 0.84145 0.0
C4753 C 0.09212 0.26038 0.8306 0.0
C4754 C 0.084 0.24404 0.83666 0.0
C4755 C 0.0685 0.23226 0.82679 0.0
C4756 C 0.06109 0.23658 0.81076 0.0
C4757 C 0.06923 0.25264 0.8045 0.0
C4758 C 0.08472 0.26449 0.81432 0.0
C4759 C 0.18406 0.28372 0.82933 0.0
C4760 C 0.1843 0.29021 0.81252 0.0
C4761 C 0.16982 0.28378 0.83948 0.0
C4762 C 0.15538 0.29015 0.833 0.0
C4763 C 0.15568 0.29692 0.81642 0.0
C4764 C 0.16999 0.29706 0.80636 0.0
C4765 C 0.13937 0.2883 0.84265 0.0
C4766 C 0.12345 0.27709 0.83293 0.0
C4767 C 0.13981 0.29643 0.86139 0.0
C4768 C 0.15606 0.30909 0.87221 0.0
C4769 C 0.1652 0.32466 0.8656 0.0
C4770 C 0.18045 0.33654 0.87588 0.0
C4771 C 0.18665 0.33311 0.89287 0.0
C4772 C 0.17758 0.3178 0.89965 0.0
C4773 C 0.16233 0.30584 0.88941 0.0
H4774 H 0.19845 0.34234 0.90082 0.0
H4775 H 0.04906 0.22747 0.80317 0.0
H4776 H 0.5723 0.7437 0.88351 0.0
H4777 H 0.56092 0.71594 0.89626 0.0
H4778 H 0.55676 0.75107 0.94726 0.0
H4779 H 0.56888 0.77892 0.9348 0.0
H4780 H 0.57241 0.72545 0.95361 0.0
H4781 H 0.52001 0.72555 0.91486 0.0
H4782 H 0.50291 0.72597 0.88557 0.0
H4783 H 0.51403 0.67429 0.86117 0.0
H4784 H 0.53143 0.6737 0.89024 0.0
H4785 H 0.52929 0.65883 0.99857 0.0
H4786 H 0.53178 0.68357 0.98065 0.0
H4787 H 0.54251 0.64683 0.9341 0.0
H4788 H 0.53931 0.62153 0.95175 0.0
H4789 H 0.52276 0.67207 0.92417 0.0
H4790 H 0.57603 0.67276 0.9616 0.0
H4791 H 0.59447 0.67257 0.99011 0.0
H4792 H 0.58251 0.72325 0.01609 0.0
H4793 H 0.56377 0.72357 0.98781 0.0
C4794 C 0.56891 0.74548 0.89743 0.0
C4795 C 0.57154 0.7634 0.90825 0.0
C4796 C 0.56224 0.72962 0.90461 0.0
C4797 C 0.55771 0.73147 0.92257 0.0
C4798 C 0.56013 0.74938 0.93332 0.0
C4799 C 0.56711 0.76525 0.92625 0.0
C4800 C 0.55184 0.71478 0.93076 0.0
C4801 C 0.56132 0.71397 0.94733 0.0
C4802 C 0.53783 0.69946 0.92211 0.0
C4803 C 0.52714 0.69966 0.9047 0.0
C4804 C 0.5189 0.71433 0.90322 0.0
C4805 C 0.50914 0.71459 0.88666 0.0
C4806 C 0.50741 0.70019 0.87151 0.0
C4807 C 0.51539 0.68545 0.87291 0.0
C4808 C 0.52519 0.68513 0.88944 0.0
C4809 C 0.53157 0.65572 0.98434 0.0
C4810 C 0.53433 0.63827 0.97666 0.0
C4811 C 0.53309 0.66993 0.97416 0.0
C4812 C 0.53763 0.66704 0.95624 0.0
C4813 C 0.53909 0.64928 0.94799 0.0
C4814 C 0.53748 0.63496 0.95815 0.0
C4815 C 0.54303 0.68318 0.94721 0.0
C4816 C 0.53367 0.68373 0.93046 0.0
C4817 C 0.55721 0.69834 0.95558 0.0
C4818 C 0.56834 0.69806 0.97267 0.0
C4819 C 0.57718 0.68375 0.97345 0.0
C4820 C 0.58772 0.68364 0.98956 0.0
C4821 C 0.58962 0.69786 0.00492 0.0
C4822 C 0.581 0.71223 0.0042 0.0
C4823 C 0.57042 0.71238 0.98814 0.0
H4824 H 0.59781 0.69777 0.01737 0.0
H4825 H 0.49987 0.70044 0.85869 0.0
H4826 H 0.06187 0.77562 0.64594 0.0
H4827 H 0.09005 0.77569 0.66263 0.0
H4828 H 0.06323 0.75645 0.70694 0.0
H4829 H 0.03535 0.75778 0.691 0.0
H4830 H 0.09034 0.78123 0.72082 0.0
H4831 H 0.07961 0.72666 0.67422 0.0
H4832 H 0.07223 0.70775 0.64283 0.0
H4833 H 0.1182 0.74084 0.62624 0.0
H4834 H 0.12575 0.7601 0.65747 0.0
H4835 H 0.16444 0.74722 0.75441 0.0
H4836 H 0.13592 0.753 0.74443 0.0
H4837 H 0.15985 0.78447 0.70538 0.0
H4838 H 0.18825 0.77863 0.71522 0.0
H4839 H 0.13358 0.75198 0.68999 0.0
H4840 H 0.14255 0.80667 0.73915 0.0
H4841 H 0.14798 0.82349 0.7714 0.0
H4842 H 0.10323 0.78514 0.78428 0.0
H4843 H 0.09762 0.76805 0.75214 0.0
C4844 C 0.06212 0.7716 0.65932 0.0
C4845 C 0.0466 0.76672 0.66725 0.0
C4846 C 0.07811 0.77141 0.66872 0.0
C4847 C 0.07862 0.76567 0.68582 0.0
C4848 C 0.06309 0.7609 0.69376 0.0
C4849 C 0.0472 0.76166 0.68464 0.0
C4850 C 0.09546 0.76527 0.69574 0.0
C4851 C 0.09969 0.77457 0.71415 0.0
C4852 C 0.10759 0.7566 0.68698 0.0
C4853 C 0.10317 0.74493 0.66818 0.0
C4854 C 0.08809 0.72998 0.66385 0.0
C4855 C 0.08389 0.71918 0.64609 0.0
C4856 C 0.09472 0.72311 0.63254 0.0
C4857 C 0.10981 0.73781 0.63674 0.0
C4858 C 0.11408 0.74866 0.65449 0.0
C4859 C 0.16363 0.75588 0.74415 0.0
C4860 C 0.17823 0.7622 0.73525 0.0
C4861 C 0.14744 0.7592 0.73852 0.0
C4862 C 0.14592 0.769 0.72411 0.0
C4863 C 0.16088 0.7768 0.71646 0.0
C4864 C 0.17699 0.77342 0.72201 0.0
C4865 C 0.12853 0.76833 0.71483 0.0
C4866 C 0.12415 0.75859 0.69658 0.0
C4867 C 0.11606 0.77603 0.72391 0.0
C4868 C 0.11979 0.78598 0.74332 0.0
C4869 C 0.134 0.80171 0.74892 0.0
C4870 C 0.13706 0.81133 0.76716 0.0
C4871 C 0.12599 0.80536 0.77989 0.0
C4872 C 0.11181 0.78975 0.77442 0.0
C4873 C 0.10867 0.78011 0.75619 0.0
H4874 H 0.12836 0.81285 0.79399 0.0
H4875 H 0.09143 0.71475 0.61879 0.0
H4876 H 0.08264 0.38504 0.3839 0.0
H4877 H 0.07166 0.40969 0.40128 0.0
H4878 H 0.08592 0.392 0.45183 0.0
H4879 H 0.09618 0.36663 0.43434 0.0
H4880 H 0.05364 0.39625 0.45018 0.0
H4881 H 0.10965 0.43303 0.43858 0.0
H4882 H 0.1315 0.44403 0.41835 0.0
H4883 H 0.09389 0.46623 0.3893 0.0
H4884 H 0.07175 0.45518 0.40923 0.0
H4885 H 0.05584 0.47422 0.51821 0.0
H4886 H 0.06439 0.45075 0.49608 0.0
H4887 H 0.0356 0.46631 0.45146 0.0
H4888 H 0.02662 0.48951 0.47354 0.0
H4889 H 0.0722 0.46361 0.44703 0.0
H4890 H 0.01705 0.4292 0.45957 0.0
H4891 H 0.99522 0.41936 0.48021 0.0
H4892 H 0.03079 0.39306 0.50699 0.0
H4893 H 0.05299 0.40308 0.48674 0.0
C4894 C 0.08378 0.38664 0.39876 0.0
C4895 C 0.09032 0.37402 0.40784 0.0
C4896 C 0.07748 0.40072 0.40866 0.0
C4897 C 0.07812 0.40274 0.42784 0.0
C4898 C 0.08528 0.39059 0.43701 0.0
C4899 C 0.09123 0.37623 0.42706 0.0
C4900 C 0.07059 0.41694 0.4383 0.0
C4901 C 0.05785 0.41099 0.44962 0.0
C4902 C 0.07555 0.43606 0.43693 0.0
C4903 C 0.08902 0.44317 0.42531 0.0
C4904 C 0.10603 0.44021 0.42784 0.0
C4905 C 0.11847 0.44645 0.41643 0.0
C4906 C 0.11408 0.45579 0.40253 0.0
C4907 C 0.09727 0.45899 0.40007 0.0
C4908 C 0.08479 0.45277 0.41144 0.0
C4909 C 0.05121 0.47248 0.50371 0.0
C4910 C 0.04062 0.48356 0.4975 0.0
C4911 C 0.05614 0.45921 0.49114 0.0
C4912 C 0.05063 0.45701 0.47227 0.0
C4913 C 0.03999 0.468 0.46601 0.0
C4914 C 0.03482 0.48107 0.47862 0.0
C4915 C 0.05585 0.44288 0.45925 0.0
C4916 C 0.06798 0.44883 0.4474 0.0
C4917 C 0.0503 0.42376 0.46002 0.0
C4918 C 0.03672 0.41698 0.4717 0.0
C4919 C 0.02025 0.42138 0.46991 0.0
C4920 C 0.00781 0.41578 0.48154 0.0
C4921 C 0.01163 0.40561 0.49492 0.0
C4922 C 0.02786 0.40094 0.49662 0.0
C4923 C 0.04037 0.40655 0.48505 0.0
H4924 H 0.002 0.40133 0.50395 0.0
H4925 H 0.12371 0.46057 0.39368 0.0
H4926 H 0.4323 0.21802 0.17197 0.0
H4927 H 0.40751 0.22641 0.18654 0.0
H4928 H 0.43347 0.28497 0.19349 0.0
H4929 H 0.45779 0.2767 0.17819 0.0
H4930 H 0.42329 0.26547 0.22694 0.0
H4931 H 0.40402 0.27949 0.16914 0.0
H4932 H 0.3963 0.27343 0.13548 0.0
H4933 H 0.35395 0.22702 0.13891 0.0
H4934 H 0.36177 0.23242 0.17259 0.0
H4935 H 0.35062 0.30028 0.26019 0.0
H4936 H 0.37652 0.29601 0.24558 0.0
H4937 H 0.35234 0.23711 0.22791 0.0
H4938 H 0.32655 0.24105 0.24264 0.0
H4939 H 0.36225 0.26029 0.1993 0.0
H4940 H 0.38309 0.24405 0.25594 0.0
H4941 H 0.39017 0.24959 0.28968 0.0
H4942 H 0.42888 0.29985 0.28819 0.0
H4943 H 0.42174 0.2948 0.25441 0.0
C4944 C 0.43237 0.23262 0.17626 0.0
C4945 C 0.44658 0.2468 0.17406 0.0
C4946 C 0.41837 0.23737 0.18444 0.0
C4947 C 0.41891 0.25623 0.1908 0.0
C4948 C 0.43297 0.27039 0.18834 0.0
C4949 C 0.44669 0.26567 0.17966 0.0
C4950 C 0.40566 0.26094 0.20182 0.0
C4951 C 0.41 0.26471 0.22098 0.0
C4952 C 0.38846 0.25951 0.1937 0.0
C4953 C 0.3837 0.25617 0.17341 0.0
C4954 C 0.39326 0.26778 0.16272 0.0
C4955 C 0.38882 0.2645 0.14362 0.0
C4956 C 0.37469 0.24979 0.13505 0.0
C4957 C 0.36494 0.23836 0.14557 0.0
C4958 C 0.36939 0.24151 0.16467 0.0
C4959 C 0.35107 0.28634 0.25364 0.0
C4960 C 0.33661 0.27103 0.25223 0.0
C4961 C 0.36575 0.28398 0.24532 0.0
C4962 C 0.36591 0.26635 0.23559 0.0
C4963 C 0.35211 0.2508 0.23534 0.0
C4964 C 0.33754 0.25308 0.24385 0.0
C4965 C 0.37982 0.26442 0.22437 0.0
C4966 C 0.3756 0.26124 0.20522 0.0
C4967 C 0.39711 0.26631 0.23246 0.0
C4968 C 0.40173 0.26917 0.25269 0.0
C4969 C 0.39299 0.25638 0.26282 0.0
C4970 C 0.39703 0.25942 0.28195 0.0
C4971 C 0.40993 0.2751 0.29108 0.0
C4972 C 0.41886 0.28773 0.28109 0.0
C4973 C 0.41483 0.28479 0.26195 0.0
H4974 H 0.41303 0.27743 0.3059 0.0
H4975 H 0.37126 0.2473 0.12027 0.0
H4976 H 0.6457 0.53471 0.33824 0.0
H4977 H 0.63259 0.53636 0.36714 0.0
H4978 H 0.5887 0.4912 0.34111 0.0
H4979 H 0.60158 0.49021 0.31201 0.0
H4980 H 0.57476 0.51187 0.36174 0.0
H4981 H 0.62563 0.49028 0.37869 0.0
H4982 H 0.65724 0.49088 0.3822 0.0
H4983 H 0.66857 0.54506 0.41713 0.0
H4984 H 0.63703 0.54485 0.41365 0.0
H4985 H 0.53717 0.49637 0.44376 0.0
H4986 H 0.55217 0.49491 0.41649 0.0
H4987 H 0.59402 0.54135 0.44442 0.0
H4988 H 0.57902 0.54235 0.47251 0.0
H4989 H 0.60917 0.52091 0.423 0.0
H4990 H 0.55717 0.54137 0.40635 0.0
H4991 H 0.52544 0.5401 0.40195 0.0
H4992 H 0.51583 0.48679 0.36578 0.0
H4993 H 0.54747 0.48765 0.37012 0.0
C4994 C 0.63353 0.52468 0.33874 0.0
C4995 C 0.62531 0.51174 0.32254 0.0
C4996 C 0.62584 0.52564 0.35556 0.0
C4997 C 0.60947 0.51363 0.35725 0.0
C4998 C 0.60127 0.50072 0.34095 0.0
C4999 C 0.60888 0.49992 0.3241 0.0
C5000 C 0.60072 0.51486 0.37547 0.0
C5001 C 0.58243 0.51357 0.37502 0.0
C5002 C 0.61015 0.51756 0.39345 0.0
C5003 C 0.62902 0.51762 0.39578 0.0
C5004 C 0.63489 0.50235 0.38706 0.0
C5005 C 0.65278 0.50262 0.38904 0.0
C5006 C 0.66491 0.51802 0.39984 0.0
C5007 C 0.65916 0.53315 0.40875 0.0
C5008 C 0.64128 0.53296 0.4068 0.0
C5009 C 0.54965 0.50635 0.4444 0.0
C5010 C 0.5566 0.51948 0.46092 0.0
C5011 C 0.55827 0.50565 0.42832 0.0
C5012 C 0.57432 0.51838 0.42738 0.0
C5013 C 0.58166 0.53129 0.44408 0.0
C5014 C 0.57302 0.53186 0.46044 0.0
C5015 C 0.5832 0.51785 0.40927 0.0
C5016 C 0.6015 0.51924 0.40973 0.0
C5017 C 0.57373 0.51509 0.39125 0.0
C5018 C 0.55469 0.51451 0.38871 0.0
C5019 C 0.54828 0.52933 0.39756 0.0
C5020 C 0.53031 0.52868 0.39506 0.0
C5021 C 0.51863 0.51335 0.38363 0.0
C5022 C 0.52489 0.49865 0.37465 0.0
C5023 C 0.54284 0.49921 0.37711 0.0
H5024 H 0.50473 0.51289 0.38171 0.0
H5025 H 0.67876 0.51821 0.40135 0.0
H5026 H 0.32253 0.92169 0.05773 0.0
H5027 H 0.33282 0.91055 0.08492 0.0
H5028 H 0.29726 0.85648 0.06465 0.0
H5029 H 0.28683 0.86744 0.03757 0.0
H5030 H 0.29378 0.87323 0.09999 0.0
H5031 H 0.3392 0.86192 0.06228 0.0
H5032 H 0.36428 0.87081 0.04509 0.0
H5033 H 0.39444 0.906 0.09423 0.0
H5034 H 0.36939 0.8976 0.11165 0.0
H5035 H 0.31121 0.80084 0.13844 0.0
H5036 H 0.31277 0.82181 0.11628 0.0
H5037 H 0.343 0.86761 0.15795 0.0
H5038 H 0.34101 0.84663 0.18064 0.0
H5039 H 0.35261 0.86273 0.11752 0.0
H5040 H 0.30148 0.87978 0.1507 0.0
H5041 H 0.27499 0.87021 0.166 0.0
H5042 H 0.25587 0.82201 0.12291 0.0
H5043 H 0.2822 0.8314 0.10746 0.0
C5044 C 0.31691 0.90742 0.0591 0.0
C5045 C 0.3037 0.89543 0.04573 0.0
C5046 C 0.32294 0.90109 0.0745 0.0
C5047 C 0.31579 0.88277 0.07659 0.0
C5048 C 0.30288 0.8707 0.06311 0.0
C5049 C 0.29689 0.87697 0.04774 0.0
C5050 C 0.32038 0.87634 0.0935 0.0
C5051 C 0.3067 0.87109 0.10388 0.0
C5052 C 0.33737 0.87411 0.09878 0.0
C5053 C 0.35229 0.87941 0.08819 0.0
C5054 C 0.35107 0.87179 0.06936 0.0
C5055 C 0.36531 0.87668 0.05959 0.0
C5056 C 0.38091 0.88904 0.06853 0.0
C5057 C 0.38232 0.8965 0.08729 0.0
C5058 C 0.3681 0.89169 0.09712 0.0
C5059 C 0.31858 0.81526 0.14274 0.0
C5060 C 0.32602 0.82228 0.16106 0.0
C5061 C 0.31936 0.82719 0.13019 0.0
C5062 C 0.32766 0.84618 0.13583 0.0
C5063 C 0.33627 0.85299 0.15374 0.0
C5064 C 0.33524 0.84109 0.16648 0.0
C5065 C 0.32577 0.85891 0.12325 0.0
C5066 C 0.33992 0.8655 0.11387 0.0
C5067 C 0.30918 0.86226 0.1186 0.0
C5068 C 0.29392 0.856 0.12829 0.0
C5069 C 0.29172 0.86698 0.14474 0.0
C5070 C 0.27672 0.86166 0.15335 0.0
C5071 C 0.26387 0.84539 0.14556 0.0
C5072 C 0.26592 0.83449 0.12906 0.0
C5073 C 0.28085 0.83982 0.12037 0.0
H5074 H 0.25226 0.8413 0.15222 0.0
H5075 H 0.39194 0.89278 0.06095 0.0
H5076 H 0.92946 0.51955 0.83421 0.0
H5077 H 0.93928 0.51591 0.86526 0.0
H5078 H 0.99333 0.5354 0.85615 0.0
H5079 H 0.98363 0.53834 0.82493 0.0
H5080 H 0.9887 0.50447 0.8699 0.0
H5081 H 0.96998 0.56319 0.88089 0.0
H5082 H 0.94812 0.58221 0.88014 0.0
H5083 H 0.91688 0.54832 0.91259 0.0
H5084 H 0.93843 0.52889 0.91325 0.0
H5085 H 0.04389 0.54948 0.95084 0.0
H5086 H 0.02288 0.54611 0.92337 0.0
H5087 H 0.98444 0.50666 0.94455 0.0
H5088 H 0.0055 0.50913 0.9714 0.0
H5089 H 0.97465 0.5404 0.92679 0.0
H5090 H 0.99689 0.48435 0.91854 0.0
H5091 H 0.02072 0.46789 0.92012 0.0
H5092 H 0.0469 0.49923 0.88254 0.0
H5093 H 0.02341 0.5162 0.88108 0.0
C5094 C 0.94343 0.52323 0.83897 0.0
C5095 C 0.95589 0.52926 0.82737 0.0
C5096 C 0.94896 0.5211 0.8566 0.0
C5097 C 0.96695 0.52541 0.86283 0.0
C5098 C 0.97936 0.53186 0.85139 0.0
C5099 C 0.97386 0.53363 0.83368 0.0
C5100 C 0.97324 0.52309 0.88117 0.0
C5101 C 0.98554 0.51223 0.88235 0.0
C5102 C 0.96858 0.53273 0.89732 0.0
C5103 C 0.95567 0.54442 0.89688 0.0
C5104 C 0.95836 0.55968 0.88771 0.0
C5105 C 0.94604 0.57055 0.88732 0.0
C5106 C 0.93108 0.56643 0.89624 0.0
C5107 C 0.92844 0.55146 0.90562 0.0
C5108 C 0.94069 0.54051 0.906 0.0
C5109 C 0.03094 0.54021 0.94961 0.0
C5110 C 0.02618 0.52964 0.9631 0.0
C5111 C 0.019 0.5384 0.93412 0.0
C5112 C 0.00229 0.52623 0.93231 0.0
C5113 C 0.9973 0.51619 0.94603 0.0
C5114 C 0.00934 0.51763 0.96124 0.0
C5115 C 0.99073 0.52277 0.91518 0.0
C5116 C 0.97734 0.53225 0.91432 0.0
C5117 C 0.9945 0.51207 0.89925 0.0
C5118 C 0.00848 0.50166 0.89986 0.0
C5119 C 0.00782 0.48787 0.91077 0.0
C5120 C 0.02125 0.47843 0.91162 0.0
C5121 C 0.03534 0.48254 0.90147 0.0
C5122 C 0.03599 0.49608 0.89042 0.0
C5123 C 0.02263 0.50561 0.88957 0.0
H5124 H 0.04572 0.47521 0.90214 0.0
H5125 H 0.92157 0.57488 0.89594 0.0
H5126 H 0.30489 0.19574 0.56291 0.0
H5127 H 0.30793 0.21367 0.59417 0.0
H5128 H 0.26876 0.24166 0.57679 0.0
H5129 H 0.26625 0.22416 0.54516 0.0
H5130 H 0.29441 0.26448 0.60515 0.0
H5131 H 0.25651 0.20108 0.59211 0.0
H5132 H 0.25052 0.16693 0.58153 0.0
H5133 H 0.29147 0.16399 0.62225 0.0
H5134 H 0.29789 0.19816 0.63287 0.0
H5135 H 0.26476 0.2806 0.69509 0.0
H5136 H 0.26497 0.27098 0.6617 0.0
H5137 H 0.30402 0.24046 0.67266 0.0
H5138 H 0.30392 0.2499 0.70555 0.0
H5139 H 0.27718 0.21998 0.64708 0.0
H5140 H 0.3167 0.28018 0.66031 0.0
H5141 H 0.32621 0.31414 0.67209 0.0
H5142 H 0.28711 0.32333 0.63299 0.0
H5143 H 0.27712 0.28932 0.62118 0.0
C5144 C 0.29743 0.20624 0.56566 0.0
C5145 C 0.28532 0.20864 0.5518 0.0
C5146 C 0.2991 0.2164 0.58349 0.0
C5147 C 0.28822 0.22862 0.58787 0.0
C5148 C 0.2772 0.23222 0.57369 0.0
C5149 C 0.27578 0.22228 0.55567 0.0
C5150 C 0.28663 0.23547 0.60742 0.0
C5151 C 0.29039 0.25479 0.61428 0.0
C5152 C 0.28184 0.22278 0.61944 0.0
C5153 C 0.27775 0.20219 0.61319 0.0
C5154 C 0.26428 0.19316 0.59874 0.0
C5155 C 0.26082 0.1738 0.59274 0.0
C5156 C 0.27063 0.1633 0.6012 0.0
C5157 C 0.28389 0.17214 0.6157 0.0
C5158 C 0.28744 0.19149 0.62172 0.0
C5159 C 0.27326 0.27174 0.69028 0.0
C5160 C 0.28435 0.26606 0.70288 0.0
C5161 C 0.27348 0.26639 0.67129 0.0
C5162 C 0.28461 0.25512 0.66479 0.0
C5163 C 0.29537 0.24918 0.6774 0.0
C5164 C 0.29532 0.25466 0.6962 0.0
C5165 C 0.285 0.24898 0.64488 0.0
C5166 C 0.281 0.22972 0.63793 0.0
C5167 C 0.29001 0.26172 0.63301 0.0
C5168 C 0.29597 0.28217 0.64005 0.0
C5169 C 0.30998 0.28941 0.65436 0.0
C5170 C 0.31549 0.30867 0.66102 0.0
C5171 C 0.30722 0.32088 0.65335 0.0
C5172 C 0.29346 0.31384 0.63896 0.0
C5173 C 0.28786 0.29457 0.63228 0.0
H5174 H 0.3115 0.3358 0.65853 0.0
H5175 H 0.26792 0.14832 0.59653 0.0
H5176 H 0.65284 0.5212 0.1991 0.0
H5177 H 0.63781 0.52539 0.17035 0.0
H5178 H 0.58838 0.49594 0.18393 0.0
H5179 H 0.60342 0.49203 0.21308 0.0
H5180 H 0.59013 0.48531 0.14628 0.0
H5181 H 0.59697 0.54273 0.18729 0.0
H5182 H 0.61227 0.5707 0.21024 0.0
H5183 H 0.64667 0.58886 0.17135 0.0
H5184 H 0.63168 0.56083 0.1482 0.0
H5185 H 0.53985 0.50934 0.0729 0.0
H5186 H 0.55178 0.50668 0.1036 0.0
H5187 H 0.60147 0.54236 0.0977 0.0
H5188 H 0.58876 0.54658 0.06764 0.0
H5189 H 0.59823 0.54916 0.13221 0.0
H5190 H 0.59262 0.4872 0.0931 0.0
H5191 H 0.57301 0.46331 0.06865 0.0
H5192 H 0.53235 0.45731 0.10384 0.0
H5193 H 0.5521 0.48027 0.12892 0.0
C5194 C 0.63876 0.51552 0.19609 0.0
C5195 C 0.62955 0.50624 0.20882 0.0
C5196 C 0.63006 0.51801 0.17945 0.0
C5197 C 0.6117 0.51113 0.17451 0.0
C5198 C 0.60248 0.50147 0.18701 0.0
C5199 C 0.61117 0.49927 0.20388 0.0
C5200 C 0.60238 0.51447 0.15667 0.0
C5201 C 0.5919 0.49934 0.14343 0.0
C5202 C 0.60428 0.53266 0.15229 0.0
C5203 C 0.61334 0.54957 0.16608 0.0
C5204 C 0.60789 0.5526 0.18367 0.0
C5205 C 0.61648 0.56848 0.19671 0.0
C5206 C 0.63047 0.58152 0.19227 0.0
C5207 C 0.63585 0.57873 0.17477 0.0
C5208 C 0.6273 0.56285 0.16167 0.0
C5209 C 0.55333 0.51666 0.07812 0.0
C5210 C 0.5633 0.52801 0.06746 0.0
C5211 C 0.56039 0.51485 0.09577 0.0
C5212 C 0.57811 0.52344 0.10322 0.0
C5213 C 0.58793 0.5352 0.09266 0.0
C5214 C 0.58063 0.53757 0.07525 0.0
C5215 C 0.58637 0.52002 0.12164 0.0
C5216 C 0.59664 0.53512 0.135 0.0
C5217 C 0.58414 0.50187 0.12623 0.0
C5218 C 0.57387 0.48526 0.1129 0.0
C5219 C 0.57973 0.48021 0.09584 0.0
C5220 C 0.5686 0.46679 0.08191 0.0
C5221 C 0.55155 0.45846 0.08485 0.0
C5222 C 0.54575 0.46327 0.10184 0.0
C5223 C 0.55698 0.47627 0.11602 0.0
H5224 H 0.5427 0.44855 0.07391 0.0
H5225 H 0.63712 0.59381 0.20239 0.0
H5226 H 0.27229 0.87175 0.93665 0.0
H5227 H 0.2783 0.85012 0.91104 0.0
H5228 H 0.33136 0.88409 0.91552 0.0
H5229 H 0.32478 0.90655 0.94042 0.0
H5230 H 0.31787 0.87578 0.882 0.0
H5231 H 0.32193 0.83777 0.92744 0.0
H5232 H 0.31292 0.82274 0.9535 0.0
H5233 H 0.264 0.79245 0.92117 0.0
H5234 H 0.27264 0.80736 0.89498 0.0
H5235 H 0.31572 0.79503 0.80751 0.0
H5236 H 0.32582 0.81549 0.83778 0.0
H5237 H 0.27233 0.81826 0.84374 0.0
H5238 H 0.26241 0.79893 0.81317 0.0
H5239 H 0.29674 0.80687 0.87422 0.0
H5240 H 0.28837 0.85195 0.8348 0.0
H5241 H 0.29443 0.86891 0.80931 0.0
H5242 H 0.34912 0.88703 0.8311 0.0
H5243 H 0.3434 0.86978 0.85652 0.0
C5244 C 0.28517 0.87455 0.93204 0.0
C5245 C 0.29801 0.89075 0.94005 0.0
C5246 C 0.28875 0.86205 0.91771 0.0
C5247 C 0.30549 0.86518 0.9118 0.0
C5248 C 0.31843 0.88135 0.92004 0.0
C5249 C 0.31464 0.8942 0.93403 0.0
C5250 C 0.30853 0.85265 0.89557 0.0
C5251 C 0.31387 0.86068 0.88052 0.0
C5252 C 0.3031 0.83295 0.89358 0.0
C5253 C 0.29799 0.82367 0.90923 0.0
C5254 C 0.30925 0.82792 0.9259 0.0
C5255 C 0.3042 0.81941 0.9407 0.0
C5256 C 0.28791 0.80663 0.93899 0.0
C5257 C 0.27664 0.80229 0.92246 0.0
C5258 C 0.28165 0.81071 0.90761 0.0
C5259 C 0.30627 0.80035 0.81519 0.0
C5260 C 0.28845 0.79587 0.80797 0.0
C5261 C 0.31199 0.81184 0.83241 0.0
C5262 C 0.29976 0.81839 0.84265 0.0
C5263 C 0.28187 0.81335 0.83578 0.0
C5264 C 0.27625 0.80231 0.81843 0.0
C5265 C 0.30526 0.83018 0.86084 0.0
C5266 C 0.30159 0.82194 0.87613 0.0
C5267 C 0.31198 0.84966 0.86303 0.0
C5268 C 0.31555 0.85914 0.84724 0.0
C5269 C 0.30175 0.85916 0.8339 0.0
C5270 C 0.3051 0.86893 0.81954 0.0
C5271 C 0.32218 0.87892 0.81851 0.0
C5272 C 0.33593 0.87916 0.83184 0.0
C5273 C 0.33265 0.86935 0.8462 0.0
H5274 H 0.32473 0.88658 0.80744 0.0
H5275 H 0.284 0.80011 0.95047 0.0
H5276 H 0.9597 0.5388 0.73912 0.0
H5277 H 0.97035 0.52183 0.71354 0.0
H5278 H 0.91779 0.50375 0.68432 0.0
H5279 H 0.90659 0.51924 0.71089 0.0
H5280 H 0.93642 0.47626 0.67843 0.0
H5281 H 0.94466 0.54183 0.67603 0.0
H5282 H 0.95366 0.57493 0.69152 0.0
H5283 H 0.00673 0.57013 0.70289 0.0
H5284 H 0.99797 0.53689 0.68768 0.0
H5285 H 0.96363 0.479 0.58762 0.0
H5286 H 0.94973 0.47773 0.61581 0.0
H5287 H 1.00073 0.48928 0.64763 0.0
H5288 H 0.01471 0.49118 0.61999 0.0
H5289 H 0.98235 0.51825 0.65249 0.0
H5290 H 0.97402 0.45269 0.6517 0.0
H5291 H 0.96421 0.41956 0.63655 0.0
H5292 H 0.91074 0.42439 0.63021 0.0
H5293 H 0.92028 0.45771 0.64501 0.0
C5294 C 0.95031 0.53109 0.72737 0.0
C5295 C 0.93229 0.53031 0.72702 0.0
C5296 C 0.95642 0.52133 0.71281 0.0
C5297 C 0.94483 0.5117 0.69709 0.0
C5298 C 0.92685 0.51103 0.69647 0.0
C5299 C 0.92058 0.52022 0.71144 0.0
C5300 C 0.95199 0.50444 0.68058 0.0
C5301 C 0.94633 0.48539 0.67258 0.0
C5302 C 0.96499 0.51647 0.6732 0.0
C5303 C 0.97067 0.53689 0.6807 0.0
C5304 C 0.95828 0.54788 0.68171 0.0
C5305 C 0.96332 0.56663 0.69052 0.0
C5306 C 0.98076 0.57463 0.69819 0.0
C5307 C 0.99323 0.56392 0.69691 0.0
C5308 C 0.98825 0.54513 0.68815 0.0
C5309 C 0.97182 0.4805 0.60054 0.0
C5310 C 0.99025 0.48576 0.60166 0.0
C5311 C 0.96387 0.47966 0.61657 0.0
C5312 C 0.97434 0.48378 0.63365 0.0
C5313 C 0.99254 0.48616 0.63446 0.0
C5314 C 1.00048 0.48709 0.61854 0.0
C5315 C 0.96701 0.48996 0.6504 0.0
C5316 C 0.97253 0.50901 0.65835 0.0
C5317 C 0.9538 0.47795 0.65746 0.0
C5318 C 0.94788 0.45774 0.64934 0.0
C5319 C 0.96017 0.44672 0.64699 0.0
C5320 C 0.95467 0.42791 0.63846 0.0
C5321 C 0.93686 0.41989 0.63238 0.0
C5322 C 0.92452 0.43064 0.63492 0.0
C5323 C 0.92998 0.44949 0.6434 0.0
H5324 H 0.93263 0.40533 0.62572 0.0
H5325 H 0.98461 0.58911 0.70512 0.0
H5326 H 0.30074 0.23121 0.45495 0.0
H5327 H 0.30382 0.24544 0.42755 0.0
H5328 H 0.2706 0.19483 0.39422 0.0
H5329 H 0.26863 0.18023 0.42133 0.0
H5330 H 0.29439 0.20565 0.3759 0.0
H5331 H 0.25808 0.24034 0.41021 0.0
H5332 H 0.251 0.26071 0.43677 0.0
H5333 H 0.29686 0.30359 0.43416 0.0
H5334 H 0.3043 0.2834 0.40772 0.0
H5335 H 0.27052 0.24337 0.2972 0.0
H5336 H 0.26922 0.2307 0.32583 0.0
H5337 H 0.31346 0.27536 0.35232 0.0
H5338 H 0.31505 0.28776 0.32388 0.0
H5339 H 0.28552 0.26903 0.37411 0.0
H5340 H 0.32176 0.23527 0.34054 0.0
H5341 H 0.32843 0.21647 0.31266 0.0
H5342 H 0.28228 0.17322 0.31346 0.0
H5343 H 0.27544 0.19171 0.34135 0.0
C5344 C 0.29415 0.22314 0.44174 0.0
C5345 C 0.28447 0.20456 0.44031 0.0
C5346 C 0.29575 0.23136 0.42605 0.0
C5347 C 0.28715 0.22145 0.40865 0.0
C5348 C 0.27745 0.20289 0.40734 0.0
C5349 C 0.27628 0.19451 0.42289 0.0
C5350 C 0.28848 0.22998 0.39169 0.0
C5351 C 0.29214 0.2194 0.37559 0.0
C5352 C 0.28624 0.24826 0.39111 0.0
C5353 C 0.28184 0.26028 0.40713 0.0
C5354 C 0.26672 0.25405 0.4154 0.0
C5355 C 0.26263 0.26558 0.43041 0.0
C5356 C 0.2735 0.28341 0.43718 0.0
C5357 C 0.28847 0.28976 0.42893 0.0
C5358 C 0.29262 0.2783 0.41393 0.0
C5359 C 0.27995 0.25042 0.30914 0.0
C5360 C 0.2929 0.2665 0.30826 0.0
C5361 C 0.27922 0.2432 0.32547 0.0
C5362 C 0.29125 0.25211 0.34124 0.0
C5363 C 0.30401 0.26829 0.34039 0.0
C5364 C 0.30495 0.27529 0.32405 0.0
C5365 C 0.29082 0.24441 0.35854 0.0
C5366 C 0.28757 0.25522 0.37461 0.0
C5367 C 0.29346 0.22643 0.35917 0.0
C5368 C 0.29802 0.21491 0.34292 0.0
C5369 C 0.31306 0.22173 0.33475 0.0
C5370 C 0.31691 0.21111 0.31898 0.0
C5371 C 0.30582 0.19363 0.31129 0.0
C5372 C 0.29096 0.18668 0.31947 0.0
C5373 C 0.28711 0.19719 0.33529 0.0
H5374 H 0.30872 0.18554 0.29896 0.0
H5375 H 0.2703 0.29231 0.44879 0.0
H5376 H 0.30655 0.58285 0.50669 0.0
H5377 H 0.33188 0.57381 0.49455 0.0
H5378 H 0.3655 0.62699 0.52208 0.0
H5379 H 0.33975 0.6366 0.53322 0.0
H5380 H 0.37376 0.61607 0.48739 0.0
H5381 H 0.3642 0.58909 0.54179 0.0
H5382 H 0.34385 0.57223 0.56038 0.0
H5383 H 0.32979 0.52415 0.51666 0.0
H5384 H 0.34996 0.54081 0.49775 0.0
H5385 H 0.45346 0.58332 0.49611 0.0
H5386 H 0.42871 0.59814 0.4979 0.0
H5387 H 0.39353 0.54674 0.46862 0.0
H5388 H 0.41785 0.53165 0.46738 0.0
H5389 H 0.38613 0.55786 0.50334 0.0
H5390 H 0.39891 0.58428 0.45011 0.0
H5391 H 0.41665 0.60246 0.43041 0.0
H5392 H 0.42405 0.65244 0.47109 0.0
H5393 H 0.40666 0.63451 0.49125 0.0
C5394 C 0.31943 0.59239 0.51049 0.0
C5395 C 0.32151 0.6101 0.52135 0.0
C5396 C 0.33379 0.58737 0.50335 0.0
C5397 C 0.35052 0.59968 0.50768 0.0
C5398 C 0.35264 0.61737 0.51863 0.0
C5399 C 0.33812 0.62265 0.52529 0.0
C5400 C 0.36589 0.59336 0.50182 0.0
C5401 C 0.37672 0.6035 0.49102 0.0
C5402 C 0.36937 0.57683 0.50641 0.0
C5403 C 0.35862 0.56615 0.51841 0.0
C5404 C 0.35688 0.57485 0.53623 0.0
C5405 C 0.34533 0.56537 0.54678 0.0
C5406 C 0.33554 0.54712 0.53971 0.0
C5407 C 0.33742 0.53826 0.52214 0.0
C5408 C 0.34896 0.54768 0.51152 0.0
C5409 C 0.44049 0.5753 0.48976 0.0
C5410 C 0.43753 0.55623 0.48189 0.0
C5411 C 0.42644 0.58385 0.49059 0.0
C5412 C 0.40938 0.57344 0.48345 0.0
C5413 C 0.40667 0.55494 0.47416 0.0
C5414 C 0.42063 0.54638 0.47341 0.0
C5415 C 0.39413 0.58044 0.48866 0.0
C5416 C 0.38332 0.57045 0.4996 0.0
C5417 C 0.39089 0.59719 0.48428 0.0
C5418 C 0.40165 0.60796 0.47232 0.0
C5419 C 0.40452 0.59909 0.45499 0.0
C5420 C 0.41447 0.60937 0.44371 0.0
C5421 C 0.42151 0.62858 0.44952 0.0
C5422 C 0.41862 0.63755 0.46663 0.0
C5423 C 0.40872 0.62733 0.47799 0.0
H5424 H 0.42913 0.63652 0.44073 0.0
H5425 H 0.32649 0.53986 0.54783 0.0
H5426 H 0.85101 0.95426 0.52578 0.0
H5427 H 0.88188 0.96675 0.52343 0.0
H5428 H 0.89236 0.913 0.52636 0.0
H5429 H 0.86106 0.90029 0.52899 0.0
H5430 H 0.91945 0.9421 0.54582 0.0
H5431 H 0.88949 0.92618 0.48489 0.0
H5432 H 0.86601 0.92466 0.46005 0.0
H5433 H 0.87921 0.98459 0.4674 0.0
H5434 H 0.90264 0.9865 0.49243 0.0
H5435 H 0.00439 0.9851 0.51984 0.0
H5436 H 0.97614 0.96212 0.51866 0.0
H5437 H 0.9488 0.00608 0.51822 0.0
H5438 H 0.97664 0.02872 0.51942 0.0
H5439 H 0.93156 0.97497 0.49362 0.0
H5440 H 0.95801 0.99024 0.55775 0.0
H5441 H 0.98144 0.99181 0.58267 0.0
H5442 H 0.97503 0.93238 0.56842 0.0
H5443 H 0.95166 0.93051 0.54328 0.0
C5444 C 0.85983 0.94504 0.52612 0.0
C5445 C 0.85342 0.92619 0.52747 0.0
C5446 C 0.87756 0.95222 0.52466 0.0
C5447 C 0.8895 0.94077 0.52423 0.0
C5448 C 0.88342 0.92213 0.5265 0.0
C5449 C 0.86553 0.91488 0.52809 0.0
C5450 C 0.90807 0.94854 0.52097 0.0
C5451 C 0.92213 0.9489 0.53416 0.0
C5452 C 0.91174 0.95753 0.50581 0.0
C5453 C 0.89779 0.95647 0.4906 0.0
C5454 C 0.88733 0.93904 0.48127 0.0
C5455 C 0.87404 0.93811 0.46715 0.0
C5456 C 0.87111 0.95452 0.46216 0.0
C5457 C 0.8815 0.97189 0.47127 0.0
C5458 C 0.89482 0.9729 0.4854 0.0
C5459 C 0.99233 0.98972 0.5192 0.0
C5460 C 0.9928 0.00873 0.51966 0.0
C5461 C 0.97617 0.97662 0.51867 0.0
C5462 C 0.96022 0.98232 0.51842 0.0
C5463 C 0.96079 1.00122 0.51835 0.0
C5464 C 0.9768 0.01421 0.51911 0.0
C5465 C 0.94283 0.96914 0.51881 0.0
C5466 C 0.92895 0.96778 0.50504 0.0
C5467 C 0.93938 0.95918 0.53335 0.0
C5468 C 0.95326 0.96027 0.54854 0.0
C5469 C 0.96169 0.97753 0.55987 0.0
C5470 C 0.97493 0.97847 0.57404 0.0
C5471 C 0.97976 0.96221 0.57709 0.0
C5472 C 0.9713 0.94496 0.56602 0.0
C5473 C 0.95804 0.94396 0.55182 0.0
H5474 H 0.99002 0.96296 0.58806 0.0
H5475 H 0.8608 0.95377 0.45124 0.0
H5476 H 0.90694 0.12643 0.28168 0.0
H5477 H 0.89285 0.15291 0.28387 0.0
H5478 H 0.85864 0.12575 0.23396 0.0
H5479 H 0.87234 0.09902 0.23207 0.0
H5480 H 0.86962 0.16348 0.23305 0.0
H5481 H 0.84454 0.12978 0.27836 0.0
H5482 H 0.84479 0.11558 0.3061 0.0
H5483 H 0.87126 0.16892 0.33914 0.0
H5484 H 0.87143 0.18339 0.31154 0.0
H5485 H 0.80219 0.21682 0.23988 0.0
H5486 H 0.81797 0.19189 0.23996 0.0
H5487 H 0.85658 0.22741 0.2831 0.0
H5488 H 0.84124 0.25287 0.28238 0.0
H5489 H 0.84447 0.18673 0.2887 0.0
H5490 H 0.87128 0.22091 0.24681 0.0
H5491 H 0.87375 0.23752 0.22073 0.0
H5492 H 0.84804 0.18651 0.18333 0.0
H5493 H 0.8451 0.16962 0.2093 0.0
C5494 C 0.89636 0.12589 0.27112 0.0
C5495 C 0.89103 0.10995 0.25668 0.0
C5496 C 0.88812 0.1413 0.27243 0.0
C5497 C 0.87423 0.142 0.25917 0.0
C5498 C 0.86912 0.12622 0.24459 0.0
C5499 C 0.87707 0.11061 0.24352 0.0
C5500 C 0.86523 0.15888 0.26033 0.0
C5501 C 0.86394 0.16819 0.24523 0.0
C5502 C 0.85813 0.16632 0.27627 0.0
C5503 C 0.85819 0.15762 0.29283 0.0
C5504 C 0.85058 0.13844 0.2915 0.0
C5505 C 0.85062 0.13035 0.30721 0.0
C5506 C 0.85809 0.14132 0.32436 0.0
C5507 C 0.86552 0.16042 0.32584 0.0
C5508 C 0.86555 0.16858 0.31017 0.0
C5509 C 0.81407 0.21955 0.24944 0.0
C5510 C 0.82012 0.23739 0.26109 0.0
C5511 C 0.82323 0.20501 0.24948 0.0
C5512 C 0.83876 0.20708 0.26162 0.0
C5513 C 0.84473 0.22482 0.27353 0.0
C5514 C 0.83586 0.23965 0.27306 0.0
C5515 C 0.84868 0.19103 0.26133 0.0
C5516 C 0.85011 0.18193 0.27653 0.0
C5517 C 0.85631 0.18405 0.24569 0.0
C5518 C 0.85771 0.19406 0.23003 0.0
C5519 C 0.86591 0.21327 0.23306 0.0
C5520 C 0.86746 0.22273 0.21829 0.0
C5521 C 0.86099 0.21309 0.20039 0.0
C5522 C 0.85299 0.19396 0.19722 0.0
C5523 C 0.85137 0.18444 0.21196 0.0
H5524 H 0.86223 0.22043 0.18896 0.0
H5525 H 0.85808 0.13504 0.33651 0.0
H5526 H 0.73124 0.10386 0.98061 0.0
H5527 H 0.69992 0.08875 0.97746 0.0
H5528 H 0.69156 0.13517 0.01573 0.0
H5529 H 0.7228 0.15054 0.01877 0.0
H5530 H 0.68546 0.09904 0.02679 0.0
H5531 H 0.66929 0.1286 0.97747 0.0
H5532 H 0.67202 0.13892 0.94771 0.0
H5533 H 0.6634 0.08185 0.92006 0.0
H5534 H 0.66046 0.07118 0.94967 0.0
H5535 H 0.59606 0.0743 0.03094 0.0
H5536 H 0.62646 0.0878 0.02808 0.0
H5537 H 0.62579 0.04212 0.98373 0.0
H5538 H 0.59477 0.02876 0.98604 0.0
H5539 H 0.63727 0.07571 0.97483 0.0
H5540 H 0.65017 0.04642 0.02551 0.0
H5541 H 0.64554 0.03763 0.05567 0.0
H5542 H 0.65985 0.09557 0.08169 0.0
H5543 H 0.66437 0.10473 0.05167 0.0
C5544 C 0.7226 0.11104 0.98792 0.0
C5545 C 0.72928 0.12802 1.00026 0.0
C5546 C 0.70481 0.10253 0.98598 0.0
C5547 C 0.69377 0.11094 0.99649 0.0
C5548 C 0.70011 0.12867 0.00756 0.0
C5549 C 0.71786 0.13732 0.00929 0.0
C5550 C 0.67672 0.09968 0.99859 0.0
C5551 C 0.67477 0.09407 0.01556 0.0
C5552 C 0.66335 0.09283 0.98363 0.0
C5553 C 0.66484 0.09912 0.96578 0.0
C5554 C 0.66806 0.11826 0.96504 0.0
C5555 C 0.66955 0.12417 0.9482 0.0
C5556 C 0.66788 0.11105 0.932 0.0
C5557 C 0.66465 0.09199 0.93262 0.0
C5558 C 0.66298 0.086 0.94941 0.0
C5559 C 0.60245 0.06693 0.0208 0.0
C5560 C 0.59323 0.05064 0.00859 0.0
C5561 C 0.61982 0.07457 0.01928 0.0
C5562 C 0.62826 0.06569 0.00592 0.0
C5563 C 0.61932 0.04898 0.99417 0.0
C5564 C 0.60175 0.04146 0.99546 0.0
C5565 C 0.64584 0.07519 0.00314 0.0
C5566 C 0.648 0.08042 0.98602 0.0
C5567 C 0.65941 0.08176 0.01805 0.0
C5568 C 0.65761 0.07626 0.0363 0.0
C5569 C 0.65235 0.05729 0.03766 0.0
C5570 C 0.64972 0.05224 0.05474 0.0
C5571 C 0.6524 0.06603 0.07058 0.0
C5572 C 0.65782 0.0849 0.06941 0.0
C5573 C 0.66048 0.09002 0.05237 0.0
H5574 H 0.65027 0.0621 0.08377 0.0
H5575 H 0.66907 0.11564 0.91897 0.0
H5576 H 0.21217 0.51514 0.26655 0.0
H5577 H 0.22515 0.4926 0.27982 0.0
H5578 H 0.19061 0.44732 0.2404 0.0
H5579 H 0.17721 0.4697 0.22758 0.0
H5580 H 0.19104 0.44036 0.27495 0.0
H5581 H 0.233 0.46208 0.23426 0.0
H5582 H 0.25222 0.48759 0.22285 0.0
H5583 H 0.28211 0.50681 0.27644 0.0
H5584 H 0.26291 0.4815 0.28822 0.0
H5585 H 0.23223 0.36547 0.26667 0.0
H5586 H 0.21714 0.39041 0.26534 0.0
H5587 H 0.2578 0.42809 0.30554 0.0
H5588 H 0.2737 0.40373 0.30582 0.0
H5589 H 0.25447 0.44174 0.27599 0.0
H5590 H 0.21396 0.41362 0.3141 0.0
H5591 H 0.19307 0.3881 0.32373 0.0
H5592 H 0.15901 0.37988 0.27318 0.0
H5593 H 0.17983 0.40508 0.26307 0.0
C5594 C 0.20768 0.5004 0.26052 0.0
C5595 C 0.19388 0.49398 0.24606 0.0
C5596 C 0.21493 0.4876 0.26818 0.0
C5597 C 0.20869 0.46842 0.26106 0.0
C5598 C 0.19537 0.4621 0.24614 0.0
C5599 C 0.18793 0.47483 0.23872 0.0
C5600 C 0.21621 0.45479 0.26887 0.0
C5601 C 0.20489 0.4405 0.27521 0.0
C5602 C 0.23429 0.4555 0.26945 0.0
C5603 C 0.24651 0.46997 0.26213 0.0
C5604 C 0.2437 0.47173 0.24359 0.0
C5605 C 0.25456 0.48617 0.23707 0.0
C5606 C 0.26837 0.49883 0.24892 0.0
C5607 C 0.27142 0.49699 0.26728 0.0
C5608 C 0.26058 0.48257 0.27388 0.0
C5609 C 0.23786 0.37902 0.27536 0.0
C5610 C 0.25429 0.38275 0.28609 0.0
C5611 C 0.22906 0.39315 0.27484 0.0
C5612 C 0.23635 0.41102 0.28545 0.0
C5613 C 0.252 0.41433 0.29732 0.0
C5614 C 0.26098 0.40034 0.29756 0.0
C5615 C 0.22924 0.42685 0.28191 0.0
C5616 C 0.24067 0.44164 0.27625 0.0
C5617 C 0.21115 0.42636 0.28168 0.0
C5618 C 0.19854 0.41122 0.28779 0.0
C5619 C 0.20208 0.40628 0.30497 0.0
C5620 C 0.19024 0.39188 0.31052 0.0
C5621 C 0.17474 0.38236 0.29907 0.0
C5622 C 0.17103 0.38726 0.28204 0.0
C5623 C 0.18284 0.40162 0.2764 0.0
H5624 H 0.1656 0.37122 0.3034 0.0
H5625 H 0.27671 0.51006 0.24387 0.0
H5626 H 0.25852 0.43204 0.0439 0.0
H5627 H 0.23293 0.44416 0.03599 0.0
H5628 H 0.2105 0.39385 0.99586 0.0
H5629 H 0.23592 0.38143 0.00397 0.0
H5630 H 0.20874 0.4294 0.98357 0.0
H5631 H 0.19216 0.39512 0.03066 0.0
H5632 H 0.196 0.38489 0.06037 0.0
H5633 H 0.20229 0.44119 0.08918 0.0
H5634 H 0.19874 0.45181 0.0596 0.0
H5635 H 0.12621 0.45987 0.9791 0.0
H5636 H 0.14853 0.44141 0.97877 0.0
H5637 H 0.17599 0.47705 0.02937 0.0
H5638 H 0.15373 0.495 0.02993 0.0
H5639 H 0.17193 0.4427 0.03277 0.0
H5640 H 0.18974 0.47692 0.98394 0.0
H5641 H 0.18651 0.48595 0.95355 0.0
H5642 H 0.17724 0.42848 0.92694 0.0
H5643 H 0.18017 0.41907 0.95718 0.0
C5644 C 0.24813 0.42353 0.03343 0.0
C5645 C 0.24921 0.40572 0.02471 0.0
C5646 C 0.23354 0.43049 0.02887 0.0
C5647 C 0.21982 0.41992 0.01531 0.0
C5648 C 0.22096 0.40227 0.0063 0.0
C5649 C 0.23543 0.39514 0.01109 0.0
C5650 C 0.20399 0.42715 0.01134 0.0
C5651 C 0.20048 0.43211 0.9942 0.0
C5652 C 0.19319 0.43056 0.02512 0.0
C5653 C 0.19535 0.42428 0.04293 0.0
C5654 C 0.19452 0.40535 0.04333 0.0
C5655 C 0.19661 0.39947 0.06014 0.0
C5656 C 0.19943 0.41239 0.07665 0.0
C5657 C 0.20013 0.43121 0.07638 0.0
C5658 C 0.19806 0.43716 0.0596 0.0
C5659 C 0.1371 0.46377 0.99006 0.0
C5660 C 0.13803 0.47871 0.00473 0.0
C5661 C 0.14991 0.45327 0.98982 0.0
C5662 C 0.16403 0.45776 0.00408 0.0
C5663 C 0.16519 0.4731 0.0183 0.0
C5664 C 0.15238 0.48335 0.01866 0.0
C5665 C 0.17713 0.44612 0.00531 0.0
C5666 C 0.18003 0.44001 0.02199 0.0
C5667 C 0.1872 0.4416 0.99097 0.0
C5668 C 0.1849 0.44726 0.97285 0.0
C5669 C 0.18678 0.46618 0.97163 0.0
C5670 C 0.18506 0.47137 0.95442 0.0
C5671 C 0.1816 0.45779 0.93833 0.0
C5672 C 0.17986 0.43898 0.93941 0.0
C5673 C 0.18154 0.43371 0.95658 0.0
H5674 H 0.18033 0.46185 0.92502 0.0
H5675 H 0.20104 0.40781 0.08966 0.0
H5676 H 0.91355 0.97553 0.25081 0.0
H5677 H 0.89681 0.94485 0.25357 0.0
H5678 H 0.84981 0.96521 0.25531 0.0
H5679 H 0.86699 0.99675 0.25327 0.0
H5680 H 0.84771 0.94132 0.27752 0.0
H5681 H 0.86183 0.93392 0.21496 0.0
H5682 H 0.88188 0.93612 0.19113 0.0
H5683 H 0.91003 0.9009 0.21504 0.0
H5684 H 0.89027 0.89867 0.23913 0.0
H5685 H 0.78731 0.85238 0.26046 0.0
H5686 H 0.80555 0.88291 0.25919 0.0
H5687 H 0.85123 0.86019 0.25845 0.0
H5688 H 0.83262 0.82901 0.25945 0.0
H5689 H 0.85497 0.88489 0.23633 0.0
H5690 H 0.84226 0.89114 0.29786 0.0
H5691 H 0.82434 0.88919 0.32349 0.0
H5692 H 0.79599 0.92652 0.30385 0.0
H5693 H 0.81358 0.92849 0.27793 0.0
C5694 C 0.89961 0.97374 0.25166 0.0
C5695 C 0.89188 0.98917 0.25152 0.0
C5696 C 0.88984 0.95575 0.25311 0.0
C5697 C 0.87157 0.95181 0.25408 0.0
C5698 C 0.86375 0.96728 0.25438 0.0
C5699 C 0.87367 0.98554 0.25314 0.0
C5700 C 0.86098 0.93184 0.255 0.0
C5701 C 0.84916 0.92912 0.26819 0.0
C5702 C 0.86301 0.91523 0.2436 0.0
C5703 C 0.87465 0.91625 0.22891 0.0
C5704 C 0.87233 0.9267 0.21516 0.0
C5705 C 0.88365 0.92795 0.20161 0.0
C5706 C 0.89724 0.91869 0.20159 0.0
C5707 C 0.8995 0.90808 0.21508 0.0
C5708 C 0.88823 0.9068 0.22866 0.0
C5709 C 0.80126 0.85363 0.26011 0.0
C5710 C 0.80816 0.83766 0.26018 0.0
C5711 C 0.81188 0.87148 0.25951 0.0
C5712 C 0.8302 0.87465 0.25908 0.0
C5713 C 0.83726 0.85868 0.25887 0.0
C5714 C 0.82651 0.8406 0.25952 0.0
C5715 C 0.84147 0.89443 0.25862 0.0
C5716 C 0.85345 0.8971 0.24558 0.0
C5717 C 0.8398 0.91099 0.27034 0.0
C5718 C 0.82912 0.90981 0.28584 0.0
C5719 C 0.8321 0.89881 0.29892 0.0
C5720 C 0.82202 0.89772 0.31352 0.0
C5721 C 0.809 0.90769 0.31527 0.0
C5722 C 0.80606 0.91879 0.30246 0.0
C5723 C 0.81609 0.91991 0.28781 0.0
H5724 H 0.80122 0.90684 0.32659 0.0
H5725 H 0.906 0.9197 0.19112 0.0
H5726 H 0.654 0.1009 0.7608 0.0
H5727 H 0.67418 0.13163 0.77266 0.0
H5728 H 0.71651 0.11146 0.74946 0.0
H5729 H 0.69675 0.08075 0.73859 0.0
H5730 H 0.72939 0.13599 0.7796 0.0
H5731 H 0.68828 0.1311 0.72447 0.0
H5732 H 0.65907 0.1262 0.70676 0.0
H5733 H 0.64756 0.16997 0.74548 0.0
H5734 H 0.67662 0.17493 0.76353 0.0
H5735 H 0.77978 0.21157 0.74383 0.0
H5736 H 0.76109 0.18146 0.74771 0.0
H5737 H 0.72685 0.21103 0.77618 0.0
H5738 H 0.74454 0.24047 0.77123 0.0
H5739 H 0.70962 0.18372 0.74951 0.0
H5740 H 0.75488 0.19289 0.80037 0.0
H5741 H 0.7858 0.19916 0.81409 0.0
H5742 H 0.7913 0.14868 0.78056 0.0
H5743 H 0.76046 0.14219 0.76647 0.0
C5744 C 0.66765 0.10316 0.75838 0.0
C5745 C 0.67387 0.08888 0.74842 0.0
C5746 C 0.67915 0.1205 0.76533 0.0
C5747 C 0.69671 0.12375 0.76167 0.0
C5748 C 0.70304 0.10915 0.7525 0.0
C5749 C 0.69171 0.09177 0.74603 0.0
C5750 C 0.70777 0.14279 0.76441 0.0
C5751 C 0.72508 0.14655 0.77321 0.0
C5752 C 0.70204 0.15648 0.75608 0.0
C5753 C 0.68444 0.15315 0.74548 0.0
C5754 C 0.67943 0.13953 0.72929 0.0
C5755 C 0.66293 0.13677 0.71918 0.0
C5756 C 0.65144 0.14771 0.72504 0.0
C5757 C 0.65643 0.16144 0.741 0.0
C5758 C 0.6729 0.16422 0.75119 0.0
C5759 C 0.76804 0.21135 0.75053 0.0
C5760 C 0.76341 0.22794 0.75737 0.0
C5761 C 0.75768 0.1944 0.75309 0.0
C5762 C 0.74297 0.19432 0.76261 0.0
C5763 C 0.73831 0.21097 0.76903 0.0
C5764 C 0.74834 0.22766 0.76617 0.0
C5765 C 0.73122 0.17685 0.76447 0.0
C5766 C 0.71381 0.17343 0.75646 0.0
C5767 C 0.737 0.16357 0.77333 0.0
C5768 C 0.75535 0.16708 0.78232 0.0
C5769 C 0.76268 0.18313 0.79589 0.0
C5770 C 0.7802 0.18674 0.80373 0.0
C5771 C 0.79051 0.17434 0.79819 0.0
C5772 C 0.78329 0.15826 0.78486 0.0
C5773 C 0.76578 0.15459 0.77697 0.0
H5774 H 0.80409 0.17718 0.80422 0.0
H5775 H 0.63869 0.14559 0.71716 0.0
loop_
_geom_bond_atom_site_label_1
_geom_bond_atom_site_label_2
_geom_bond_distance
_geom_bond_site_symmetry_2
_ccdc_geom_bond_type
C0 O1 1.306 . S
C0 O3 1.160 . S
O1 C0 1.306 . S
O1 Cd2 2.228 . S
Cd2 O1 2.228 . S
Cd2 O6 2.273 . S
Cd2 O10 2.277 . S
O3 C0 1.160 . S
O3 Cd4 2.203 . S
Cd4 O3 2.203 . S
Cd4 O6 2.411 . S
Cd4 O7 2.333 . S
Cd4 O8 2.352 . S
Cd4 O12 2.277 . S
Cd4 O13 2.356 . S
C5 O10 1.209 . S
C5 O12 1.226 . S
O6 Cd2 2.273 . S
O6 Cd4 2.411 . S
O6 C9 1.320 . S
O7 Cd4 2.333 . S
O7 C9 1.214 . S
O8 Cd4 2.352 . S
O8 C11 1.258 . S
C9 O6 1.320 . S
C9 O7 1.214 . S
O10 Cd2 2.277 . S
O10 C5 1.209 . S
C11 O8 1.258 . S
C11 O13 1.282 . S
O12 Cd4 2.277 . S
O12 C5 1.226 . S
O13 Cd4 2.356 . S
O13 C11 1.282 . S
C14 O15 1.306 . S
C14 O17 1.160 . S
O15 C14 1.306 . S
O15 Cd16 2.228 1_655 S
Cd16 O15 2.228 1_455 S
Cd16 O20 2.273 . S
Cd16 O24 2.277 1_455 S
O17 C14 1.160 . S
O17 Cd18 2.148 1_655 S
Cd18 O17 2.148 1_455 S
Cd18 O20 2.439 . S
Cd18 O21 2.389 . S
Cd18 O22 2.343 . S
Cd18 O26 2.281 1_455 S
Cd18 O27 2.360 . S
C19 O24 1.209 . S
C19 O26 1.226 . S
O20 Cd16 2.273 . S
O20 Cd18 2.439 . S
O20 C23 1.320 . S
O21 Cd18 2.389 . S
O21 C23 1.214 . S
O22 Cd18 2.343 . S
O22 C25 1.258 . S
C23 O20 1.320 . S
C23 O21 1.214 . S
O24 Cd16 2.277 1_655 S
O24 C19 1.209 . S
C25 O22 1.258 . S
C25 O27 1.282 . S
O26 Cd18 2.281 1_655 S
O26 C19 1.226 . S
O27 Cd18 2.360 . S
O27 C25 1.282 . S
C28 O29 1.306 . S
C28 O31 1.160 . S
O29 C28 1.306 . S
O29 Cd30 2.228 . S
Cd30 O29 2.228 . S
Cd30 O34 2.273 . S
Cd30 O38 2.277 . S
O31 C28 1.160 . S
O31 Cd32 2.203 . S
Cd32 O31 2.203 . S
Cd32 O34 2.411 . S
Cd32 O35 2.333 . S
Cd32 O36 2.352 . S
Cd32 O40 2.277 . S
Cd32 O41 2.356 . S
C33 O38 1.209 . S
C33 O40 1.226 . S
O34 Cd30 2.273 . S
O34 Cd32 2.411 . S
O34 C37 1.320 . S
O35 Cd32 2.333 . S
O35 C37 1.214 . S
O36 Cd32 2.352 . S
O36 C39 1.258 . S
C37 O34 1.320 . S
C37 O35 1.214 . S
O38 Cd30 2.277 . S
O38 C33 1.209 . S
C39 O36 1.258 . S
C39 O41 1.282 . S
O40 Cd32 2.277 . S
O40 C33 1.226 . S
O41 Cd32 2.356 . S
O41 C39 1.282 . S
C42 O43 1.306 . S
C42 O45 1.160 . S
O43 C42 1.306 . S
O43 Cd44 2.228 . S
Cd44 O43 2.228 . S
Cd44 O48 2.273 . S
Cd44 O52 2.277 . S
O45 C42 1.160 . S
O45 Cd46 2.203 . S
Cd46 O45 2.203 . S
Cd46 O48 2.411 . S
Cd46 O49 2.333 . S
Cd46 O50 2.352 . S
Cd46 O54 2.277 . S
Cd46 O55 2.356 . S
C47 O52 1.209 . S
C47 O54 1.226 . S
O48 Cd44 2.273 . S
O48 Cd46 2.411 . S
O48 C51 1.320 . S
O49 Cd46 2.333 . S
O49 C51 1.214 . S
O50 Cd46 2.352 . S
O50 C53 1.258 . S
C51 O48 1.320 . S
C51 O49 1.214 . S
O52 Cd44 2.277 . S
O52 C47 1.209 . S
C53 O50 1.258 . S
C53 O55 1.282 . S
O54 Cd46 2.277 . S
O54 C47 1.226 . S
O55 Cd46 2.356 . S
O55 C53 1.282 . S
C56 O57 1.306 . S
C56 O59 1.160 . S
O57 C56 1.306 . S
O57 Cd58 2.228 . S
Cd58 O57 2.228 . S
Cd58 O62 2.273 . S
Cd58 O66 2.277 . S
O59 C56 1.160 . S
O59 Cd60 2.203 . S
Cd60 O59 2.203 . S
Cd60 O62 2.411 . S
Cd60 O63 2.333 . S
Cd60 O64 2.352 . S
Cd60 O68 2.277 . S
Cd60 O69 2.356 . S
C61 O66 1.209 . S
C61 O68 1.226 . S
O62 Cd58 2.273 . S
O62 Cd60 2.411 . S
O62 C65 1.320 . S
O63 Cd60 2.333 . S
O63 C65 1.214 . S
O64 Cd60 2.352 . S
O64 C67 1.258 . S
C65 O62 1.320 . S
C65 O63 1.214 . S
O66 Cd58 2.277 . S
O66 C61 1.209 . S
C67 O64 1.258 . S
C67 O69 1.282 . S
O68 Cd60 2.277 . S
O68 C61 1.226 . S
O69 Cd60 2.356 . S
O69 C67 1.282 . S
C70 O71 1.306 . S
C70 O73 1.160 . S
O71 C70 1.306 . S
O71 Cd72 2.228 . S
Cd72 O71 2.228 . S
Cd72 O76 2.273 . S
Cd72 O80 2.277 . S
O73 C70 1.160 . S
O73 Cd74 2.203 . S
Cd74 O73 2.203 . S
Cd74 O76 2.411 . S
Cd74 O77 2.333 . S
Cd74 O78 2.352 . S
Cd74 O82 2.277 . S
Cd74 O83 2.356 . S
C75 O80 1.209 . S
C75 O82 1.226 . S
O76 Cd72 2.273 . S
O76 Cd74 2.411 . S
O76 C79 1.320 . S
O77 Cd74 2.333 . S
O77 C79 1.214 . S
O78 Cd74 2.352 . S
O78 C81 1.258 . S
C79 O76 1.320 . S
C79 O77 1.214 . S
O80 Cd72 2.277 . S
O80 C75 1.209 . S
C81 O78 1.258 . S
C81 O83 1.282 . S
O82 Cd74 2.277 . S
O82 C75 1.226 . S
O83 Cd74 2.356 . S
O83 C81 1.282 . S
C84 O85 1.306 . S
C84 O87 1.160 . S
O85 C84 1.306 . S
O85 Cd86 2.228 . S
Cd86 O85 2.228 . S
Cd86 O90 2.273 . S
Cd86 O94 2.277 . S
O87 C84 1.160 . S
O87 Cd88 2.203 . S
Cd88 O87 2.203 . S
Cd88 O90 2.411 . S
Cd88 O91 2.333 . S
Cd88 O92 2.352 . S
Cd88 O96 2.277 . S
Cd88 O97 2.356 . S
C89 O94 1.209 . S
C89 O96 1.226 . S
O90 Cd86 2.273 . S
O90 Cd88 2.411 . S
O90 C93 1.320 . S
O91 Cd88 2.333 . S
O91 C93 1.214 . S
O92 Cd88 2.352 . S
O92 C95 1.258 . S
C93 O90 1.320 . S
C93 O91 1.214 . S
O94 Cd86 2.277 . S
O94 C89 1.209 . S
C95 O92 1.258 . S
C95 O97 1.282 . S
O96 Cd88 2.277 . S
O96 C89 1.226 . S
O97 Cd88 2.356 . S
O97 C95 1.282 . S
C98 O99 1.306 . S
C98 O101 1.160 . S
O99 C98 1.306 . S
O99 Cd100 2.228 1_655 S
Cd100 O99 2.228 1_455 S
Cd100 O104 2.273 . S
Cd100 O108 2.277 . S
O101 C98 1.160 . S
O101 Cd102 2.203 1_655 S
Cd102 O101 2.203 1_455 S
Cd102 O104 2.411 . S
Cd102 O105 2.333 . S
Cd102 O106 2.352 . S
Cd102 O110 2.277 . S
Cd102 O111 2.356 . S
C103 O108 1.209 . S
C103 O110 1.226 . S
O104 Cd100 2.273 . S
O104 Cd102 2.411 . S
O104 C107 1.320 . S
O105 Cd102 2.333 . S
O105 C107 1.214 . S
O106 Cd102 2.352 . S
O106 C109 1.258 . S
C107 O104 1.320 . S
C107 O105 1.214 . S
O108 Cd100 2.277 . S
O108 C103 1.209 . S
C109 O106 1.258 . S
C109 O111 1.282 . S
O110 Cd102 2.277 . S
O110 C103 1.226 . S
O111 Cd102 2.356 . S
O111 C109 1.282 . S
C112 O113 1.306 . S
C112 O115 1.160 . S
O113 C112 1.306 . S
O113 Cd114 2.228 1_545 S
Cd114 O113 2.228 1_565 S
Cd114 O118 2.273 1_565 S
Cd114 O122 2.277 . S
O115 C112 1.160 . S
O115 Cd116 2.203 . S
Cd116 O115 2.203 . S
Cd116 O118 2.411 . S
Cd116 O119 2.333 . S
Cd116 O120 2.352 . S
Cd116 O124 2.277 1_545 S
Cd116 O125 2.356 . S
C117 O122 1.209 . S
C117 O124 1.226 . S
O118 Cd114 2.273 1_545 S
O118 Cd116 2.411 . S
O118 C121 1.320 . S
O119 Cd116 2.333 . S
O119 C121 1.214 . S
O120 Cd116 2.352 . S
O120 C123 1.258 . S
C121 O118 1.320 . S
C121 O119 1.214 . S
O122 Cd114 2.277 . S
O122 C117 1.209 . S
C123 O120 1.258 . S
C123 O125 1.282 . S
O124 Cd116 2.277 1_565 S
O124 C117 1.226 . S
O125 Cd116 2.356 . S
O125 C123 1.282 . S
C126 O127 1.306 . S
C126 O129 1.160 . S
O127 C126 1.306 . S
O127 Cd128 2.228 . S
Cd128 O127 2.228 . S
Cd128 O132 2.273 . S
Cd128 O136 2.277 . S
O129 C126 1.160 . S
O129 Cd130 2.203 . S
Cd130 O129 2.203 . S
Cd130 O132 2.411 . S
Cd130 O133 2.333 . S
Cd130 O134 2.352 . S
Cd130 O138 2.277 . S
Cd130 O139 2.356 . S
C131 O136 1.209 . S
C131 O138 1.226 . S
O132 Cd128 2.273 . S
O132 Cd130 2.411 . S
O132 C135 1.320 . S
O133 Cd130 2.333 . S
O133 C135 1.214 . S
O134 Cd130 2.352 . S
O134 C137 1.258 . S
C135 O132 1.320 . S
C135 O133 1.214 . S
O136 Cd128 2.277 . S
O136 C131 1.209 . S
C137 O134 1.258 . S
C137 O139 1.282 . S
O138 Cd130 2.277 . S
O138 C131 1.226 . S
O139 Cd130 2.356 . S
O139 C137 1.282 . S
C140 O141 1.306 . S
C140 O143 1.172 . S
O141 C140 1.306 . S
O141 Cd142 2.228 . S
Cd142 O141 2.228 . S
Cd142 O146 2.273 1_545 S
Cd142 O150 2.277 . S
O143 C140 1.172 . S
O143 Cd144 2.205 1_545 S
Cd144 O143 2.205 1_565 S
Cd144 O146 2.411 . S
Cd144 O147 2.333 . S
Cd144 O148 2.352 . S
Cd144 O152 2.277 1_565 S
Cd144 O153 2.356 . S
C145 O150 1.209 . S
C145 O152 1.226 . S
O146 Cd142 2.273 1_565 S
O146 Cd144 2.411 . S
O146 C149 1.320 . S
O147 Cd144 2.333 . S
O147 C149 1.214 . S
O148 Cd144 2.352 . S
O148 C151 1.258 . S
C149 O146 1.320 . S
C149 O147 1.214 . S
O150 Cd142 2.277 . S
O150 C145 1.209 . S
C151 O148 1.258 . S
C151 O153 1.282 . S
O152 Cd144 2.277 1_545 S
O152 C145 1.226 . S
O153 Cd144 2.356 . S
O153 C151 1.282 . S
C154 O155 1.306 . S
C154 O157 1.160 . S
O155 C154 1.306 . S
O155 Cd156 2.228 1_554 S
Cd156 O155 2.228 1_556 S
Cd156 O160 2.273 1_556 S
Cd156 O164 2.277 . S
O157 C154 1.160 . S
O157 Cd158 2.203 . S
Cd158 O157 2.203 . S
Cd158 O160 2.411 . S
Cd158 O161 2.333 . S
Cd158 O162 2.352 . S
Cd158 O166 2.277 1_554 S
Cd158 O167 2.356 . S
C159 O164 1.209 . S
C159 O166 1.226 . S
O160 Cd156 2.273 1_554 S
O160 Cd158 2.411 . S
O160 C163 1.320 . S
O161 Cd158 2.333 . S
O161 C163 1.214 . S
O162 Cd158 2.352 . S
O162 C165 1.258 . S
C163 O160 1.320 . S
C163 O161 1.214 . S
O164 Cd156 2.277 . S
O164 C159 1.209 . S
C165 O162 1.258 . S
C165 O167 1.282 . S
O166 Cd158 2.277 1_556 S
O166 C159 1.226 . S
O167 Cd158 2.356 . S
O167 C165 1.282 . S
C168 O169 1.306 . S
C168 O171 1.160 . S
O169 C168 1.306 . S
O169 Cd170 2.228 1_554 S
Cd170 O169 2.228 1_556 S
Cd170 O174 2.273 1_556 S
Cd170 O178 2.277 . S
O171 C168 1.160 . S
O171 Cd172 2.203 . S
Cd172 O171 2.203 . S
Cd172 O174 2.411 . S
Cd172 O175 2.333 . S
Cd172 O176 2.352 . S
Cd172 O180 2.277 1_554 S
Cd172 O181 2.356 . S
C173 O178 1.209 . S
C173 O180 1.226 . S
O174 Cd170 2.273 1_554 S
O174 Cd172 2.411 . S
O174 C177 1.320 . S
O175 Cd172 2.333 . S
O175 C177 1.214 . S
O176 Cd172 2.352 . S
O176 C179 1.258 . S
C177 O174 1.320 . S
C177 O175 1.214 . S
O178 Cd170 2.277 . S
O178 C173 1.209 . S
C179 O176 1.258 . S
C179 O181 1.282 . S
O180 Cd172 2.277 1_556 S
O180 C173 1.226 . S
O181 Cd172 2.356 . S
O181 C179 1.282 . S
C182 O183 1.306 . S
C182 O185 1.160 . S
O183 C182 1.306 . S
O183 Cd184 2.228 . S
Cd184 O183 2.228 . S
Cd184 O188 2.273 . S
Cd184 O192 2.277 . S
O185 C182 1.160 . S
O185 Cd186 2.203 . S
Cd186 O185 2.203 . S
Cd186 O188 2.411 . S
Cd186 O189 2.333 . S
Cd186 O190 2.352 1_554 S
Cd186 O194 2.277 . S
Cd186 O195 2.356 1_554 S
C187 O192 1.209 . S
C187 O194 1.226 . S
O188 Cd184 2.273 . S
O188 Cd186 2.411 . S
O188 C191 1.320 . S
O189 Cd186 2.333 . S
O189 C191 1.214 . S
O190 Cd186 2.352 1_556 S
O190 C193 1.258 . S
C191 O188 1.320 . S
C191 O189 1.214 . S
O192 Cd184 2.277 . S
O192 C187 1.209 . S
C193 O190 1.258 . S
C193 O195 1.282 . S
O194 Cd186 2.277 . S
O194 C187 1.226 . S
O195 Cd186 2.356 1_556 S
O195 C193 1.282 . S
C196 O197 1.306 . S
C196 O199 1.160 . S
O197 C196 1.306 . S
O197 Cd198 2.228 . S
Cd198 O197 2.228 . S
Cd198 O202 2.273 . S
Cd198 O206 2.277 . S
O199 C196 1.160 . S
O199 Cd200 2.203 . S
Cd200 O199 2.203 . S
Cd200 O202 2.411 . S
Cd200 O203 2.333 . S
Cd200 O204 2.352 . S
Cd200 O208 2.277 . S
Cd200 O209 2.356 . S
C201 O206 1.209 . S
C201 O208 1.226 . S
O202 Cd198 2.273 . S
O202 Cd200 2.411 . S
O202 C205 1.320 . S
O203 Cd200 2.333 . S
O203 C205 1.214 . S
O204 Cd200 2.352 . S
O204 C207 1.258 . S
C205 O202 1.320 . S
C205 O203 1.214 . S
O206 Cd198 2.277 . S
O206 C201 1.209 . S
C207 O204 1.258 . S
C207 O209 1.282 . S
O208 Cd200 2.277 . S
O208 C201 1.226 . S
O209 Cd200 2.356 . S
O209 C207 1.282 . S
C210 O211 1.306 . S
C210 O213 1.160 . S
O211 C210 1.306 . S
O211 Cd212 2.228 . S
Cd212 O211 2.228 . S
Cd212 O216 2.273 . S
Cd212 O220 2.277 . S
O213 C210 1.160 . S
O213 Cd214 2.203 . S
Cd214 O213 2.203 . S
Cd214 O216 2.411 . S
Cd214 O217 2.333 . S
Cd214 O218 2.352 . S
Cd214 O222 2.277 . S
Cd214 O223 2.356 . S
C215 O220 1.209 . S
C215 O222 1.226 . S
O216 Cd212 2.273 . S
O216 Cd214 2.411 . S
O216 C219 1.320 . S
O217 Cd214 2.333 . S
O217 C219 1.214 . S
O218 Cd214 2.352 . S
O218 C221 1.258 . S
C219 O216 1.320 . S
C219 O217 1.214 . S
O220 Cd212 2.277 . S
O220 C215 1.209 . S
C221 O218 1.258 . S
C221 O223 1.282 . S
O222 Cd214 2.277 . S
O222 C215 1.226 . S
O223 Cd214 2.356 . S
O223 C221 1.282 . S
C224 O225 1.306 . S
C224 O227 1.160 . S
O225 C224 1.306 . S
O225 Cd226 2.228 . S
Cd226 O225 2.228 . S
Cd226 O230 2.273 . S
Cd226 O234 2.277 . S
O227 C224 1.160 . S
O227 Cd228 2.203 . S
Cd228 O227 2.203 . S
Cd228 O230 2.411 . S
Cd228 O231 2.333 . S
Cd228 O232 2.352 . S
Cd228 O236 2.277 . S
Cd228 O237 2.356 . S
C229 O234 1.209 . S
C229 O236 1.226 . S
O230 Cd226 2.273 . S
O230 Cd228 2.411 . S
O230 C233 1.320 . S
O231 Cd228 2.333 . S
O231 C233 1.214 . S
O232 Cd228 2.352 . S
O232 C235 1.258 . S
C233 O230 1.320 . S
C233 O231 1.214 . S
O234 Cd226 2.277 . S
O234 C229 1.209 . S
C235 O232 1.258 . S
C235 O237 1.282 . S
O236 Cd228 2.277 . S
O236 C229 1.226 . S
O237 Cd228 2.356 . S
O237 C235 1.282 . S
C238 O239 1.306 . S
C238 O241 1.160 . S
O239 C238 1.306 . S
O239 Cd240 2.228 . S
Cd240 O239 2.228 . S
Cd240 O244 2.273 . S
Cd240 O248 2.277 . S
O241 C238 1.160 . S
O241 Cd242 2.203 . S
Cd242 O241 2.203 . S
Cd242 O244 2.411 . S
Cd242 O245 2.333 . S
Cd242 O246 2.352 . S
Cd242 O250 2.277 . S
Cd242 O251 2.356 . S
C243 O248 1.209 . S
C243 O250 1.226 . S
O244 Cd240 2.273 . S
O244 Cd242 2.411 . S
O244 C247 1.320 . S
O245 Cd242 2.333 . S
O245 C247 1.214 . S
O246 Cd242 2.352 . S
O246 C249 1.258 . S
C247 O244 1.320 . S
C247 O245 1.214 . S
O248 Cd240 2.277 . S
O248 C243 1.209 . S
C249 O246 1.258 . S
C249 O251 1.282 . S
O250 Cd242 2.277 . S
O250 C243 1.226 . S
O251 Cd242 2.356 . S
O251 C249 1.282 . S
C252 O253 1.306 . S
C252 O255 1.160 . S
O253 C252 1.306 . S
O253 Cd254 2.228 . S
Cd254 O253 2.228 . S
Cd254 O258 2.273 . S
Cd254 O262 2.277 . S
O255 C252 1.160 . S
O255 Cd256 2.203 . S
Cd256 O255 2.203 . S
Cd256 O258 2.411 . S
Cd256 O259 2.333 . S
Cd256 O260 2.352 . S
Cd256 O264 2.277 . S
Cd256 O265 2.356 . S
C257 O262 1.209 . S
C257 O264 1.226 . S
O258 Cd254 2.273 . S
O258 Cd256 2.411 . S
O258 C261 1.320 . S
O259 Cd256 2.333 . S
O259 C261 1.214 . S
O260 Cd256 2.352 . S
O260 C263 1.258 . S
C261 O258 1.320 . S
C261 O259 1.214 . S
O262 Cd254 2.277 . S
O262 C257 1.209 . S
C263 O260 1.258 . S
C263 O265 1.282 . S
O264 Cd256 2.277 . S
O264 C257 1.226 . S
O265 Cd256 2.356 . S
O265 C263 1.282 . S
C266 O267 1.306 . S
C266 O269 1.160 . S
O267 C266 1.306 . S
O267 Cd268 2.228 . S
Cd268 O267 2.228 . S
Cd268 O272 2.273 . S
Cd268 O276 2.277 . S
O269 C266 1.160 . S
O269 Cd270 2.203 . S
Cd270 O269 2.203 . S
Cd270 O272 2.411 . S
Cd270 O273 2.333 . S
Cd270 O274 2.352 . S
Cd270 O278 2.277 . S
Cd270 O279 2.356 . S
C271 O276 1.209 . S
C271 O278 1.226 . S
O272 Cd268 2.273 . S
O272 Cd270 2.411 . S
O272 C275 1.320 . S
O273 Cd270 2.333 . S
O273 C275 1.214 . S
O274 Cd270 2.352 . S
O274 C277 1.258 . S
C275 O272 1.320 . S
C275 O273 1.214 . S
O276 Cd268 2.277 . S
O276 C271 1.209 . S
C277 O274 1.258 . S
C277 O279 1.282 . S
O278 Cd270 2.277 . S
O278 C271 1.226 . S
O279 Cd270 2.356 . S
O279 C277 1.282 . S
C280 O281 1.306 . S
C280 O283 1.160 . S
O281 C280 1.306 . S
O281 Cd282 2.228 . S
Cd282 O281 2.228 . S
Cd282 O286 2.273 1_554 S
Cd282 O290 2.277 . S
O283 C280 1.160 . S
O283 Cd284 2.203 . S
Cd284 O283 2.203 . S
Cd284 O286 2.413 1_554 S
Cd284 O287 2.333 1_554 S
Cd284 O288 2.341 1_554 S
Cd284 O292 2.285 . S
Cd284 O293 2.349 1_554 S
C285 O290 1.209 . S
C285 O292 1.226 . S
O286 Cd282 2.273 1_556 S
O286 Cd284 2.413 1_556 S
O286 C289 1.320 . S
O287 Cd284 2.333 1_556 S
O287 C289 1.214 . S
O288 Cd284 2.341 1_556 S
O288 C291 1.258 . S
C289 O286 1.320 . S
C289 O287 1.214 . S
O290 Cd282 2.277 . S
O290 C285 1.209 . S
C291 O288 1.258 . S
C291 O293 1.282 . S
O292 Cd284 2.285 . S
O292 C285 1.226 . S
O293 Cd284 2.349 1_556 S
O293 C291 1.282 . S
C294 O295 1.306 . S
C294 O297 1.160 . S
O295 C294 1.306 . S
O295 Cd296 2.228 . S
Cd296 O295 2.228 . S
Cd296 O300 2.273 . S
Cd296 O304 2.277 . S
O297 C294 1.160 . S
O297 Cd298 2.203 . S
Cd298 O297 2.203 . S
Cd298 O300 2.411 . S
Cd298 O301 2.333 . S
Cd298 O302 2.352 . S
Cd298 O306 2.277 . S
Cd298 O307 2.356 . S
C299 O304 1.209 . S
C299 O306 1.226 . S
O300 Cd296 2.273 . S
O300 Cd298 2.411 . S
O300 C303 1.320 . S
O301 Cd298 2.333 . S
O301 C303 1.214 . S
O302 Cd298 2.352 . S
O302 C305 1.258 . S
C303 O300 1.320 . S
C303 O301 1.214 . S
O304 Cd296 2.277 . S
O304 C299 1.209 . S
C305 O302 1.258 . S
C305 O307 1.282 . S
O306 Cd298 2.277 . S
O306 C299 1.226 . S
O307 Cd298 2.356 . S
O307 C305 1.282 . S
C308 O309 1.306 . S
C308 O311 1.160 . S
O309 C308 1.306 . S
O309 Cd310 2.228 . S
Cd310 O309 2.228 . S
Cd310 O314 2.273 . S
Cd310 O318 2.277 . S
O311 C308 1.160 . S
O311 Cd312 2.203 . S
Cd312 O311 2.203 . S
Cd312 O314 2.411 . S
Cd312 O315 2.333 . S
Cd312 O316 2.352 . S
Cd312 O320 2.277 . S
Cd312 O321 2.356 . S
C313 O318 1.209 . S
C313 O320 1.226 . S
O314 Cd310 2.273 . S
O314 Cd312 2.411 . S
O314 C317 1.320 . S
O315 Cd312 2.333 . S
O315 C317 1.214 . S
O316 Cd312 2.352 . S
O316 C319 1.258 . S
C317 O314 1.320 . S
C317 O315 1.214 . S
O318 Cd310 2.277 . S
O318 C313 1.209 . S
C319 O316 1.258 . S
C319 O321 1.282 . S
O320 Cd312 2.277 . S
O320 C313 1.226 . S
O321 Cd312 2.356 . S
O321 C319 1.282 . S
C322 O323 1.306 . S
C322 O325 1.160 . S
O323 C322 1.306 . S
O323 Cd324 2.228 . S
Cd324 O323 2.228 . S
Cd324 O328 2.273 . S
Cd324 O332 2.277 . S
O325 C322 1.160 . S
O325 Cd326 2.203 . S
Cd326 O325 2.203 . S
Cd326 O328 2.411 . S
Cd326 O329 2.333 . S
Cd326 O330 2.352 . S
Cd326 O334 2.277 . S
Cd326 O335 2.356 . S
C327 O332 1.209 . S
C327 O334 1.226 . S
O328 Cd324 2.273 . S
O328 Cd326 2.411 . S
O328 C331 1.320 . S
O329 Cd326 2.333 . S
O329 C331 1.214 . S
O330 Cd326 2.352 . S
O330 C333 1.258 . S
C331 O328 1.320 . S
C331 O329 1.214 . S
O332 Cd324 2.277 . S
O332 C327 1.209 . S
C333 O330 1.258 . S
C333 O335 1.282 . S
O334 Cd326 2.277 . S
O334 C327 1.226 . S
O335 Cd326 2.356 . S
O335 C333 1.282 . S
Gd336 C339 2.816 1_454 S
Gd336 O356 2.373 1_554 S
Gd336 O358 2.442 1_454 S
Gd336 O359 2.509 1_455 S
Gd336 O360 2.425 1_554 S
Gd336 O361 2.714 1_554 S
Gd336 O363 2.399 1_545 S
Gd336 O367 2.336 . S
Gd337 C348 2.818 . S
Gd337 O357 2.395 . S
Gd337 O361 2.327 1_554 S
Gd337 O362 2.377 . S
Gd337 O364 2.448 . S
Gd337 O365 2.506 . S
Gd337 O366 2.435 . S
Gd337 O367 2.717 . S
C338 O356 1.240 1_554 S
C338 O357 1.240 . S
C339 Gd336 2.816 1_656 S
C339 C340 1.510 . S
C339 O358 1.249 . S
C339 O359 1.252 1_556 S
C340 C339 1.510 . S
C340 C341 1.404 . S
C340 C342 1.352 1_556 S
C341 C340 1.404 . S
C341 C345 1.389 . S
C341 H368 0.930 . S
C342 C340 1.352 1_554 S
C342 C344 1.366 1_554 S
C342 H369 0.931 . S
C343 C344 1.395 . S
C343 C345 1.364 . S
C344 C342 1.366 1_556 S
C344 C343 1.395 . S
C344 H370 0.904 1_556 S
C345 C341 1.389 . S
C345 C343 1.364 . S
C345 H371 0.931 . S
C346 O360 1.256 . S
C346 O361 1.257 . S
C347 O362 1.240 1_565 S
C347 O363 1.240 . S
C348 Gd337 2.818 . S
C348 C349 1.510 . S
C348 O364 1.249 . S
C348 O365 1.252 . S
C349 C348 1.510 . S
C349 C350 1.404 . S
C349 C351 1.352 . S
C350 C349 1.404 . S
C350 C354 1.389 . S
C350 H372 0.930 . S
C351 C349 1.352 . S
C351 C353 1.374 1_545 S
C351 H373 0.931 1_545 S
C352 C353 1.360 1_545 S
C352 C354 1.393 . S
C353 C351 1.374 1_565 S
C353 C352 1.360 1_565 S
C353 H374 0.931 . S
C354 C350 1.389 . S
C354 C352 1.393 . S
C354 H375 0.931 . S
C355 O366 1.256 . S
C355 O367 1.257 . S
O356 Gd336 2.373 1_556 S
O356 C338 1.240 1_556 S
O357 Gd337 2.395 . S
O357 C338 1.240 . S
O358 Gd336 2.442 1_656 S
O358 C339 1.249 . S
O359 Gd336 2.509 1_655 S
O359 C339 1.252 1_554 S
O360 Gd336 2.425 1_556 S
O360 C346 1.256 . S
O361 Gd336 2.714 1_556 S
O361 Gd337 2.327 1_556 S
O361 C346 1.257 . S
O362 Gd337 2.377 . S
O362 C347 1.240 1_545 S
O363 Gd336 2.399 1_565 S
O363 C347 1.240 . S
O364 Gd337 2.448 . S
O364 C348 1.249 . S
O365 Gd337 2.506 . S
O365 C348 1.252 . S
O366 Gd337 2.435 . S
O366 C355 1.256 . S
O367 Gd336 2.336 . S
O367 Gd337 2.717 . S
O367 C355 1.257 . S
H368 C341 0.930 . S
H369 C342 0.931 . S
H370 C344 0.904 1_554 S
H371 C345 0.931 . S
H372 C350 0.930 . S
H373 C351 0.931 1_565 S
H374 C353 0.931 . S
H375 C354 0.931 . S
Gd376 C379 2.818 . S
Gd376 O396 2.377 . S
Gd376 O398 2.448 . S
Gd376 O399 2.506 . S
Gd376 O400 2.435 . S
Gd376 O401 2.717 . S
Gd376 O403 2.395 . S
Gd376 O407 2.327 . S
Gd377 C388 2.818 . S
Gd377 O397 2.395 . S
Gd377 O401 2.327 . S
Gd377 O402 2.377 . S
Gd377 O404 2.448 . S
Gd377 O405 2.506 . S
Gd377 O406 2.435 . S
Gd377 O407 2.717 . S
C378 O396 1.240 . S
C378 O397 1.240 . S
C379 Gd376 2.818 . S
C379 C380 1.510 . S
C379 O398 1.249 . S
C379 O399 1.252 . S
C380 C379 1.510 . S
C380 C381 1.404 . S
C380 C382 1.352 . S
C381 C380 1.404 . S
C381 C385 1.389 . S
C381 H408 0.930 . S
C382 C380 1.352 . S
C382 C384 1.374 . S
C382 H409 0.931 . S
C383 C384 1.359 . S
C383 C385 1.364 . S
C384 C382 1.374 . S
C384 C383 1.359 . S
C384 H410 0.931 . S
C385 C381 1.389 . S
C385 C383 1.364 . S
C385 H411 0.931 . S
C386 O400 1.256 . S
C386 O401 1.257 . S
C387 O402 1.240 . S
C387 O403 1.240 . S
C388 Gd377 2.818 . S
C388 C389 1.510 . S
C388 O404 1.249 . S
C388 O405 1.252 . S
C389 C388 1.510 . S
C389 C390 1.404 . S
C389 C391 1.352 . S
C390 C389 1.404 . S
C390 C394 1.389 . S
C390 H412 0.930 . S
C391 C389 1.352 . S
C391 C393 1.374 . S
C391 H413 0.931 . S
C392 C393 1.359 . S
C392 C394 1.364 . S
C393 C391 1.374 . S
C393 C392 1.359 . S
C393 H414 0.931 . S
C394 C390 1.389 . S
C394 C392 1.364 . S
C394 H415 0.931 . S
C395 O406 1.256 . S
C395 O407 1.257 . S
O396 Gd376 2.377 . S
O396 C378 1.240 . S
O397 Gd377 2.395 . S
O397 C378 1.240 . S
O398 Gd376 2.448 . S
O398 C379 1.249 . S
O399 Gd376 2.506 . S
O399 C379 1.252 . S
O400 Gd376 2.435 . S
O400 C386 1.256 . S
O401 Gd376 2.717 . S
O401 Gd377 2.327 . S
O401 C386 1.257 . S
O402 Gd377 2.377 . S
O402 C387 1.240 . S
O403 Gd376 2.395 . S
O403 C387 1.240 . S
O404 Gd377 2.448 . S
O404 C388 1.249 . S
O405 Gd377 2.506 . S
O405 C388 1.252 . S
O406 Gd377 2.435 . S
O406 C395 1.256 . S
O407 Gd376 2.327 . S
O407 Gd377 2.717 . S
O407 C395 1.257 . S
H408 C381 0.930 . S
H409 C382 0.931 . S
H410 C384 0.931 . S
H411 C385 0.931 . S
H412 C390 0.930 . S
H413 C391 0.931 . S
H414 C393 0.931 . S
H415 C394 0.931 . S
Gd416 C419 2.818 . S
Gd416 O436 2.358 1_545 S
Gd416 O438 2.448 . S
Gd416 O439 2.506 . S
Gd416 O440 2.435 . S
Gd416 O441 2.717 . S
Gd416 O443 2.395 . S
Gd416 O447 2.327 . S
Gd417 C428 2.818 . S
Gd417 O437 2.395 1_545 S
Gd417 O441 2.327 . S
Gd417 O442 2.377 . S
Gd417 O444 2.448 . S
Gd417 O445 2.506 . S
Gd417 O446 2.435 . S
Gd417 O447 2.717 . S
C418 O436 1.252 . S
C418 O437 1.240 . S
C419 Gd416 2.818 . S
C419 C420 1.510 1_545 S
C419 O438 1.249 . S
C419 O439 1.252 . S
C420 C419 1.510 1_565 S
C420 C421 1.404 . S
C420 C422 1.352 . S
C421 C420 1.404 . S
C421 C425 1.389 . S
C421 H448 0.930 1_565 S
C422 C420 1.352 . S
C422 C424 1.374 . S
C422 H449 0.931 . S
C423 C424 1.359 . S
C423 C425 1.364 . S
C424 C422 1.374 . S
C424 C423 1.359 . S
C424 H450 0.931 . S
C425 C421 1.389 . S
C425 C423 1.364 . S
C425 H451 0.931 . S
C426 O440 1.256 . S
C426 O441 1.257 . S
C427 O442 1.240 . S
C427 O443 1.240 . S
C428 Gd417 2.818 . S
C428 C429 1.510 . S
C428 O444 1.249 . S
C428 O445 1.252 . S
C429 C428 1.510 . S
C429 C430 1.404 . S
C429 C431 1.352 . S
C430 C429 1.404 . S
C430 C434 1.389 . S
C430 H452 0.930 . S
C431 C429 1.352 . S
C431 C433 1.374 . S
C431 H453 0.931 . S
C432 C433 1.359 . S
C432 C434 1.364 . S
C433 C431 1.374 . S
C433 C432 1.359 . S
C433 H454 0.931 . S
C434 C430 1.389 . S
C434 C432 1.364 . S
C434 H455 0.931 . S
C435 O446 1.256 . S
C435 O447 1.257 . S
O436 Gd416 2.358 1_565 S
O436 C418 1.252 . S
O437 Gd417 2.395 1_565 S
O437 C418 1.240 . S
O438 Gd416 2.448 . S
O438 C419 1.249 . S
O439 Gd416 2.506 . S
O439 C419 1.252 . S
O440 Gd416 2.435 . S
O440 C426 1.256 . S
O441 Gd416 2.717 . S
O441 Gd417 2.327 . S
O441 C426 1.257 . S
O442 Gd417 2.377 . S
O442 C427 1.240 . S
O443 Gd416 2.395 . S
O443 C427 1.240 . S
O444 Gd417 2.448 . S
O444 C428 1.249 . S
O445 Gd417 2.506 . S
O445 C428 1.252 . S
O446 Gd417 2.435 . S
O446 C435 1.256 . S
O447 Gd416 2.327 . S
O447 Gd417 2.717 . S
O447 C435 1.257 . S
H448 C421 0.930 1_545 S
H449 C422 0.931 . S
H450 C424 0.931 . S
H451 C425 0.931 . S
H452 C430 0.930 . S
H453 C431 0.931 . S
H454 C433 0.931 . S
H455 C434 0.931 . S
Gd456 C459 2.818 . S
Gd456 O476 2.377 . S
Gd456 O478 2.448 . S
Gd456 O479 2.506 . S
Gd456 O480 2.435 . S
Gd456 O481 2.717 . S
Gd456 O483 2.395 . S
Gd456 O487 2.327 . S
Gd457 C468 2.818 . S
Gd457 O477 2.395 . S
Gd457 O481 2.327 . S
Gd457 O482 2.377 . S
Gd457 O484 2.448 . S
Gd457 O485 2.506 . S
Gd457 O486 2.435 . S
Gd457 O487 2.717 . S
C458 O476 1.240 . S
C458 O477 1.240 . S
C459 Gd456 2.818 . S
C459 C460 1.510 . S
C459 O478 1.249 . S
C459 O479 1.252 . S
C460 C459 1.510 . S
C460 C461 1.404 . S
C460 C462 1.352 . S
C461 C460 1.404 . S
C461 C465 1.389 . S
C461 H488 0.930 . S
C462 C460 1.352 . S
C462 C464 1.374 . S
C462 H489 0.931 . S
C463 C464 1.359 . S
C463 C465 1.364 . S
C464 C462 1.374 . S
C464 C463 1.359 . S
C464 H490 0.931 . S
C465 C461 1.389 . S
C465 C463 1.364 . S
C465 H491 0.931 . S
C466 O480 1.256 . S
C466 O481 1.257 . S
C467 O482 1.240 . S
C467 O483 1.240 . S
C468 Gd457 2.818 . S
C468 C469 1.510 . S
C468 O484 1.249 . S
C468 O485 1.252 . S
C469 C468 1.510 . S
C469 C470 1.404 . S
C469 C471 1.352 . S
C470 C469 1.404 . S
C470 C474 1.389 . S
C470 H492 0.930 . S
C471 C469 1.352 . S
C471 C473 1.374 . S
C471 H493 0.931 . S
C472 C473 1.359 . S
C472 C474 1.364 . S
C473 C471 1.374 . S
C473 C472 1.359 . S
C473 H494 0.931 . S
C474 C470 1.389 . S
C474 C472 1.364 . S
C474 H495 0.931 . S
C475 O486 1.256 . S
C475 O487 1.257 . S
O476 Gd456 2.377 . S
O476 C458 1.240 . S
O477 Gd457 2.395 . S
O477 C458 1.240 . S
O478 Gd456 2.448 . S
O478 C459 1.249 . S
O479 Gd456 2.506 . S
O479 C459 1.252 . S
O480 Gd456 2.435 . S
O480 C466 1.256 . S
O481 Gd456 2.717 . S
O481 Gd457 2.327 . S
O481 C466 1.257 . S
O482 Gd457 2.377 . S
O482 C467 1.240 . S
O483 Gd456 2.395 . S
O483 C467 1.240 . S
O484 Gd457 2.448 . S
O484 C468 1.249 . S
O485 Gd457 2.506 . S
O485 C468 1.252 . S
O486 Gd457 2.435 . S
O486 C475 1.256 . S
O487 Gd456 2.327 . S
O487 Gd457 2.717 . S
O487 C475 1.257 . S
H488 C461 0.930 . S
H489 C462 0.931 . S
H490 C464 0.931 . S
H491 C465 0.931 . S
H492 C470 0.930 . S
H493 C471 0.931 . S
H494 C473 0.931 . S
H495 C474 0.931 . S
Gd496 C499 2.818 . S
Gd496 O516 2.377 . S
Gd496 O518 2.448 . S
Gd496 O519 2.506 . S
Gd496 O520 2.435 . S
Gd496 O521 2.717 . S
Gd496 O523 2.395 . S
Gd496 O527 2.327 . S
Gd497 C508 2.818 1_545 S
Gd497 O517 2.395 . S
Gd497 O521 2.327 . S
Gd497 O522 2.377 . S
Gd497 O524 2.448 1_545 S
Gd497 O525 2.506 1_545 S
Gd497 O526 2.435 . S
Gd497 O527 2.717 . S
C498 O516 1.240 . S
C498 O517 1.240 . S
C499 Gd496 2.818 . S
C499 C500 1.510 . S
C499 O518 1.249 . S
C499 O519 1.252 . S
C500 C499 1.510 . S
C500 C501 1.404 . S
C500 C502 1.352 . S
C501 C500 1.404 . S
C501 C505 1.389 . S
C501 H528 0.930 . S
C502 C500 1.352 . S
C502 C504 1.374 . S
C502 H529 0.931 . S
C503 C504 1.359 . S
C503 C505 1.364 . S
C504 C502 1.374 . S
C504 C503 1.359 . S
C504 H530 0.931 . S
C505 C501 1.389 . S
C505 C503 1.364 . S
C505 H531 0.931 . S
C506 O520 1.256 . S
C506 O521 1.257 . S
C507 O522 1.240 . S
C507 O523 1.240 . S
C508 Gd497 2.818 1_565 S
C508 C509 1.510 . S
C508 O524 1.249 . S
C508 O525 1.252 . S
C509 C508 1.510 . S
C509 C510 1.404 . S
C509 C511 1.352 . S
C510 C509 1.404 . S
C510 C514 1.389 . S
C510 H532 0.930 . S
C511 C509 1.352 . S
C511 C513 1.374 . S
C511 H533 0.931 . S
C512 C513 1.359 . S
C512 C514 1.364 . S
C513 C511 1.374 . S
C513 C512 1.359 . S
C513 H534 0.931 . S
C514 C510 1.389 . S
C514 C512 1.364 . S
C514 H535 0.931 . S
C515 O526 1.256 . S
C515 O527 1.257 . S
O516 Gd496 2.377 . S
O516 C498 1.240 . S
O517 Gd497 2.395 . S
O517 C498 1.240 . S
O518 Gd496 2.448 . S
O518 C499 1.249 . S
O519 Gd496 2.506 . S
O519 C499 1.252 . S
O520 Gd496 2.435 . S
O520 C506 1.256 . S
O521 Gd496 2.717 . S
O521 Gd497 2.327 . S
O521 C506 1.257 . S
O522 Gd497 2.377 . S
O522 C507 1.240 . S
O523 Gd496 2.395 . S
O523 C507 1.240 . S
O524 Gd497 2.448 1_565 S
O524 C508 1.249 . S
O525 Gd497 2.506 1_565 S
O525 C508 1.252 . S
O526 Gd497 2.435 . S
O526 C515 1.256 . S
O527 Gd496 2.327 . S
O527 Gd497 2.717 . S
O527 C515 1.257 . S
H528 C501 0.930 . S
H529 C502 0.931 . S
H530 C504 0.931 . S
H531 C505 0.931 . S
H532 C510 0.930 . S
H533 C511 0.931 . S
H534 C513 0.931 . S
H535 C514 0.931 . S
Gd536 C539 2.818 . S
Gd536 O556 2.377 . S
Gd536 O558 2.448 . S
Gd536 O559 2.506 . S
Gd536 O560 2.435 . S
Gd536 O561 2.717 . S
Gd536 O563 2.395 . S
Gd536 O567 2.327 . S
Gd537 C548 2.818 . S
Gd537 O557 2.395 . S
Gd537 O561 2.327 . S
Gd537 O562 2.377 . S
Gd537 O564 2.448 . S
Gd537 O565 2.506 . S
Gd537 O566 2.435 . S
Gd537 O567 2.717 . S
C538 O556 1.240 . S
C538 O557 1.240 . S
C539 Gd536 2.818 . S
C539 C540 1.510 . S
C539 O558 1.249 . S
C539 O559 1.252 . S
C540 C539 1.510 . S
C540 C541 1.404 . S
C540 C542 1.352 . S
C541 C540 1.404 . S
C541 C545 1.389 . S
C541 H568 0.930 . S
C542 C540 1.352 . S
C542 C544 1.374 . S
C542 H569 0.931 . S
C543 C544 1.359 . S
C543 C545 1.364 . S
C544 C542 1.374 . S
C544 C543 1.359 . S
C544 H570 0.931 . S
C545 C541 1.389 . S
C545 C543 1.364 . S
C545 H571 0.931 . S
C546 O560 1.256 . S
C546 O561 1.257 . S
C547 O562 1.240 . S
C547 O563 1.240 . S
C548 Gd537 2.818 . S
C548 C549 1.510 . S
C548 O564 1.249 . S
C548 O565 1.252 . S
C549 C548 1.510 . S
C549 C550 1.404 . S
C549 C551 1.352 . S
C550 C549 1.404 . S
C550 C554 1.389 . S
C550 H572 0.930 . S
C551 C549 1.352 . S
C551 C553 1.374 . S
C551 H573 0.931 . S
C552 C553 1.359 . S
C552 C554 1.364 . S
C553 C551 1.374 . S
C553 C552 1.359 . S
C553 H574 0.931 . S
C554 C550 1.389 . S
C554 C552 1.364 . S
C554 H575 0.931 . S
C555 O566 1.256 . S
C555 O567 1.257 . S
O556 Gd536 2.377 . S
O556 C538 1.240 . S
O557 Gd537 2.395 . S
O557 C538 1.240 . S
O558 Gd536 2.448 . S
O558 C539 1.249 . S
O559 Gd536 2.506 . S
O559 C539 1.252 . S
O560 Gd536 2.435 . S
O560 C546 1.256 . S
O561 Gd536 2.717 . S
O561 Gd537 2.327 . S
O561 C546 1.257 . S
O562 Gd537 2.377 . S
O562 C547 1.240 . S
O563 Gd536 2.395 . S
O563 C547 1.240 . S
O564 Gd537 2.448 . S
O564 C548 1.249 . S
O565 Gd537 2.506 . S
O565 C548 1.252 . S
O566 Gd537 2.435 . S
O566 C555 1.256 . S
O567 Gd536 2.327 . S
O567 Gd537 2.717 . S
O567 C555 1.257 . S
H568 C541 0.930 . S
H569 C542 0.931 . S
H570 C544 0.931 . S
H571 C545 0.931 . S
H572 C550 0.930 . S
H573 C551 0.931 . S
H574 C553 0.931 . S
H575 C554 0.931 . S
Gd576 C579 2.818 . S
Gd576 O596 2.377 . S
Gd576 O598 2.448 . S
Gd576 O599 2.506 . S
Gd576 O600 2.435 1_545 S
Gd576 O601 2.717 1_554 S
Gd576 O603 2.395 . S
Gd576 O607 2.327 . S
Gd577 C588 2.818 . S
Gd577 O597 2.395 . S
Gd577 O601 2.327 . S
Gd577 O602 2.377 . S
Gd577 O604 2.448 . S
Gd577 O605 2.506 . S
Gd577 O606 2.435 1_556 S
Gd577 O607 2.717 1_556 S
C578 O596 1.240 . S
C578 O597 1.240 1_554 S
C579 Gd576 2.818 . S
C579 C580 1.510 . S
C579 O598 1.249 . S
C579 O599 1.252 . S
C580 C579 1.510 . S
C580 C581 1.404 1_545 S
C580 C582 1.352 . S
C581 C580 1.404 1_565 S
C581 C585 1.389 . S
C581 H608 0.930 . S
C582 C580 1.352 . S
C582 C584 1.374 . S
C582 H609 0.931 . S
C583 C584 1.359 1_565 S
C583 C585 1.364 . S
C584 C582 1.374 . S
C584 C583 1.359 1_545 S
C584 H610 0.931 . S
C585 C581 1.389 . S
C585 C583 1.364 . S
C585 H611 0.931 . S
C586 O600 1.246 1_556 S
C586 O601 1.261 1_565 S
C587 O602 1.240 1_554 S
C587 O603 1.240 . S
C588 Gd577 2.818 . S
C588 C589 1.510 . S
C588 O604 1.249 . S
C588 O605 1.252 . S
C589 C588 1.510 . S
C589 C590 1.404 . S
C589 C591 1.352 . S
C590 C589 1.404 . S
C590 C594 1.389 . S
C590 H612 0.930 . S
C591 C589 1.352 . S
C591 C593 1.374 . S
C591 H613 0.931 . S
C592 C593 1.359 . S
C592 C594 1.364 . S
C593 C591 1.374 . S
C593 C592 1.359 . S
C593 H614 0.931 . S
C594 C590 1.389 . S
C594 C592 1.364 . S
C594 H615 0.931 . S
C595 O606 1.256 . S
C595 O607 1.257 . S
O596 Gd576 2.377 . S
O596 C578 1.240 . S
O597 Gd577 2.395 . S
O597 C578 1.240 1_556 S
O598 Gd576 2.448 . S
O598 C579 1.249 . S
O599 Gd576 2.506 . S
O599 C579 1.252 . S
O600 Gd576 2.435 1_565 S
O600 C586 1.246 1_554 S
O601 Gd576 2.717 1_556 S
O601 Gd577 2.327 . S
O601 C586 1.261 1_545 S
O602 Gd577 2.377 . S
O602 C587 1.240 1_556 S
O603 Gd576 2.395 . S
O603 C587 1.240 . S
O604 Gd577 2.448 . S
O604 C588 1.249 . S
O605 Gd577 2.506 . S
O605 C588 1.252 . S
O606 Gd577 2.435 1_554 S
O606 C595 1.256 . S
O607 Gd576 2.327 . S
O607 Gd577 2.717 1_554 S
O607 C595 1.257 . S
H608 C581 0.930 . S
H609 C582 0.931 . S
H610 C584 0.931 . S
H611 C585 0.931 . S
H612 C590 0.930 . S
H613 C591 0.931 . S
H614 C593 0.931 . S
H615 C594 0.931 . S
Gd616 C619 2.818 . S
Gd616 O636 2.377 . S
Gd616 O638 2.448 . S
Gd616 O639 2.506 . S
Gd616 O640 2.435 . S
Gd616 O641 2.717 . S
Gd616 O643 2.395 . S
Gd616 O647 2.327 . S
Gd617 C628 2.818 . S
Gd617 O637 2.395 . S
Gd617 O641 2.327 . S
Gd617 O642 2.377 . S
Gd617 O644 2.448 . S
Gd617 O645 2.506 . S
Gd617 O646 2.435 . S
Gd617 O647 2.717 . S
C618 O636 1.240 . S
C618 O637 1.240 . S
C619 Gd616 2.818 . S
C619 C620 1.510 . S
C619 O638 1.249 . S
C619 O639 1.252 . S
C620 C619 1.510 . S
C620 C621 1.404 . S
C620 C622 1.352 . S
C621 C620 1.404 . S
C621 C625 1.389 . S
C621 H648 0.930 . S
C622 C620 1.352 . S
C622 C624 1.374 . S
C622 H649 0.931 . S
C623 C624 1.359 . S
C623 C625 1.364 . S
C624 C622 1.374 . S
C624 C623 1.359 . S
C624 H650 0.931 . S
C625 C621 1.389 . S
C625 C623 1.364 . S
C625 H651 0.931 . S
C626 O640 1.256 . S
C626 O641 1.257 . S
C627 O642 1.240 . S
C627 O643 1.240 . S
C628 Gd617 2.818 . S
C628 C629 1.510 . S
C628 O644 1.249 . S
C628 O645 1.252 . S
C629 C628 1.510 . S
C629 C630 1.404 . S
C629 C631 1.352 . S
C630 C629 1.404 . S
C630 C634 1.389 . S
C630 H652 0.930 . S
C631 C629 1.352 . S
C631 C633 1.374 . S
C631 H653 0.931 . S
C632 C633 1.359 . S
C632 C634 1.364 . S
C633 C631 1.374 . S
C633 C632 1.359 . S
C633 H654 0.931 . S
C634 C630 1.389 . S
C634 C632 1.364 . S
C634 H655 0.931 . S
C635 O646 1.256 . S
C635 O647 1.257 . S
O636 Gd616 2.377 . S
O636 C618 1.240 . S
O637 Gd617 2.395 . S
O637 C618 1.240 . S
O638 Gd616 2.448 . S
O638 C619 1.249 . S
O639 Gd616 2.506 . S
O639 C619 1.252 . S
O640 Gd616 2.435 . S
O640 C626 1.256 . S
O641 Gd616 2.717 . S
O641 Gd617 2.327 . S
O641 C626 1.257 . S
O642 Gd617 2.377 . S
O642 C627 1.240 . S
O643 Gd616 2.395 . S
O643 C627 1.240 . S
O644 Gd617 2.448 . S
O644 C628 1.249 . S
O645 Gd617 2.506 . S
O645 C628 1.252 . S
O646 Gd617 2.435 . S
O646 C635 1.256 . S
O647 Gd616 2.327 . S
O647 Gd617 2.717 . S
O647 C635 1.257 . S
H648 C621 0.930 . S
H649 C622 0.931 . S
H650 C624 0.931 . S
H651 C625 0.931 . S
H652 C630 0.930 . S
H653 C631 0.931 . S
H654 C633 0.931 . S
H655 C634 0.931 . S
Gd656 C659 2.816 . S
Gd656 O676 2.377 1_554 S
Gd656 O678 2.448 . S
Gd656 O679 2.486 1_554 S
Gd656 O680 2.435 . S
Gd656 O681 2.717 . S
Gd656 O683 2.395 . S
Gd656 O687 2.327 . S
Gd657 C668 2.823 . S
Gd657 O677 2.388 1_554 S
Gd657 O681 2.330 . S
Gd657 O682 2.384 . S
Gd657 O684 2.451 . S
Gd657 O685 2.512 . S
Gd657 O686 2.438 . S
Gd657 O687 2.717 . S
C658 O676 1.240 . S
C658 O677 1.240 . S
C659 Gd656 2.816 . S
C659 C660 1.512 1_554 S
C659 O678 1.247 . S
C659 O679 1.250 1_554 S
C660 C659 1.512 1_556 S
C660 C661 1.404 . S
C660 C662 1.352 . S
C661 C660 1.404 . S
C661 C665 1.389 . S
C661 H688 0.910 1_556 S
C662 C660 1.352 . S
C662 C664 1.374 . S
C662 H689 0.931 . S
C663 C664 1.359 . S
C663 C665 1.364 . S
C664 C662 1.374 . S
C664 C663 1.359 . S
C664 H690 0.931 . S
C665 C661 1.389 . S
C665 C663 1.364 . S
C665 H691 0.931 . S
C666 O680 1.256 . S
C666 O681 1.257 . S
C667 O682 1.240 . S
C667 O683 1.240 . S
C668 Gd657 2.823 . S
C668 C669 1.510 . S
C668 O684 1.249 . S
C668 O685 1.252 . S
C669 C668 1.510 . S
C669 C670 1.404 . S
C669 C671 1.352 . S
C670 C669 1.404 . S
C670 C674 1.389 . S
C670 H692 0.930 . S
C671 C669 1.352 . S
C671 C673 1.374 . S
C671 H693 0.931 . S
C672 C673 1.359 . S
C672 C674 1.364 . S
C673 C671 1.374 . S
C673 C672 1.359 . S
C673 H694 0.931 . S
C674 C670 1.389 . S
C674 C672 1.364 . S
C674 H695 0.931 . S
C675 O686 1.256 . S
C675 O687 1.257 . S
O676 Gd656 2.377 1_556 S
O676 C658 1.240 . S
O677 Gd657 2.388 1_556 S
O677 C658 1.240 . S
O678 Gd656 2.448 . S
O678 C659 1.247 . S
O679 Gd656 2.486 1_556 S
O679 C659 1.250 1_556 S
O680 Gd656 2.435 . S
O680 C666 1.256 . S
O681 Gd656 2.717 . S
O681 Gd657 2.330 . S
O681 C666 1.257 . S
O682 Gd657 2.384 . S
O682 C667 1.240 . S
O683 Gd656 2.395 . S
O683 C667 1.240 . S
O684 Gd657 2.451 . S
O684 C668 1.249 . S
O685 Gd657 2.512 . S
O685 C668 1.252 . S
O686 Gd657 2.438 . S
O686 C675 1.256 . S
O687 Gd656 2.327 . S
O687 Gd657 2.717 . S
O687 C675 1.257 . S
H688 C661 0.910 1_554 S
H689 C662 0.931 . S
H690 C664 0.931 . S
H691 C665 0.931 . S
H692 C670 0.930 . S
H693 C671 0.931 . S
H694 C673 0.931 . S
H695 C674 0.931 . S
Gd696 C699 2.818 . S
Gd696 O716 2.377 . S
Gd696 O718 2.448 . S
Gd696 O719 2.506 . S
Gd696 O720 2.435 . S
Gd696 O721 2.717 . S
Gd696 O723 2.395 . S
Gd696 O727 2.327 . S
Gd697 C708 2.818 . S
Gd697 O717 2.395 . S
Gd697 O721 2.327 . S
Gd697 O722 2.377 . S
Gd697 O724 2.448 . S
Gd697 O725 2.506 . S
Gd697 O726 2.435 . S
Gd697 O727 2.717 . S
C698 O716 1.240 . S
C698 O717 1.240 . S
C699 Gd696 2.818 . S
C699 C700 1.510 . S
C699 O718 1.249 . S
C699 O719 1.252 . S
C700 C699 1.510 . S
C700 C701 1.404 . S
C700 C702 1.352 . S
C701 C700 1.404 . S
C701 C705 1.389 . S
C701 H728 0.930 . S
C702 C700 1.352 . S
C702 C704 1.374 . S
C702 H729 0.931 . S
C703 C704 1.359 . S
C703 C705 1.364 . S
C704 C702 1.374 . S
C704 C703 1.359 . S
C704 H730 0.931 . S
C705 C701 1.389 . S
C705 C703 1.364 . S
C705 H731 0.931 . S
C706 O720 1.256 . S
C706 O721 1.257 . S
C707 O722 1.240 . S
C707 O723 1.240 . S
C708 Gd697 2.818 . S
C708 C709 1.510 . S
C708 O724 1.249 . S
C708 O725 1.252 . S
C709 C708 1.510 . S
C709 C710 1.404 . S
C709 C711 1.352 . S
C710 C709 1.404 . S
C710 C714 1.389 . S
C710 H732 0.930 . S
C711 C709 1.352 . S
C711 C713 1.374 . S
C711 H733 0.931 . S
C712 C713 1.359 . S
C712 C714 1.364 . S
C713 C711 1.374 . S
C713 C712 1.359 . S
C713 H734 0.931 . S
C714 C710 1.389 . S
C714 C712 1.364 . S
C714 H735 0.931 . S
C715 O726 1.256 . S
C715 O727 1.257 . S
O716 Gd696 2.377 . S
O716 C698 1.240 . S
O717 Gd697 2.395 . S
O717 C698 1.240 . S
O718 Gd696 2.448 . S
O718 C699 1.249 . S
O719 Gd696 2.506 . S
O719 C699 1.252 . S
O720 Gd696 2.435 . S
O720 C706 1.256 . S
O721 Gd696 2.717 . S
O721 Gd697 2.327 . S
O721 C706 1.257 . S
O722 Gd697 2.377 . S
O722 C707 1.240 . S
O723 Gd696 2.395 . S
O723 C707 1.240 . S
O724 Gd697 2.448 . S
O724 C708 1.249 . S
O725 Gd697 2.506 . S
O725 C708 1.252 . S
O726 Gd697 2.435 . S
O726 C715 1.256 . S
O727 Gd696 2.327 . S
O727 Gd697 2.717 . S
O727 C715 1.257 . S
H728 C701 0.930 . S
H729 C702 0.931 . S
H730 C704 0.931 . S
H731 C705 0.931 . S
H732 C710 0.930 . S
H733 C711 0.931 . S
H734 C713 0.931 . S
H735 C714 0.931 . S
Gd736 C739 2.818 . S
Gd736 O756 2.377 . S
Gd736 O758 2.448 . S
Gd736 O759 2.506 . S
Gd736 O760 2.435 . S
Gd736 O761 2.717 . S
Gd736 O763 2.395 . S
Gd736 O767 2.327 . S
Gd737 C748 2.818 . S
Gd737 O757 2.395 . S
Gd737 O761 2.327 . S
Gd737 O762 2.377 . S
Gd737 O764 2.448 . S
Gd737 O765 2.506 . S
Gd737 O766 2.435 . S
Gd737 O767 2.717 . S
C738 O756 1.240 . S
C738 O757 1.240 . S
C739 Gd736 2.818 . S
C739 C740 1.510 . S
C739 O758 1.249 . S
C739 O759 1.252 . S
C740 C739 1.510 . S
C740 C741 1.404 . S
C740 C742 1.350 . S
C741 C740 1.404 . S
C741 C745 1.389 . S
C741 H768 0.930 . S
C742 C740 1.350 . S
C742 C744 1.375 1_455 S
C742 H769 0.917 1_455 S
C743 C744 1.359 . S
C743 C745 1.364 1_655 S
C744 C742 1.375 1_655 S
C744 C743 1.359 . S
C744 H770 0.931 . S
C745 C741 1.389 . S
C745 C743 1.364 1_455 S
C745 H771 0.931 . S
C746 O760 1.256 . S
C746 O761 1.257 . S
C747 O762 1.240 . S
C747 O763 1.240 . S
C748 Gd737 2.818 . S
C748 C749 1.510 . S
C748 O764 1.249 . S
C748 O765 1.252 . S
C749 C748 1.510 . S
C749 C750 1.404 . S
C749 C751 1.352 . S
C750 C749 1.404 . S
C750 C754 1.389 . S
C750 H772 0.930 . S
C751 C749 1.352 . S
C751 C753 1.374 . S
C751 H773 0.931 . S
C752 C753 1.359 . S
C752 C754 1.364 . S
C753 C751 1.374 . S
C753 C752 1.359 . S
C753 H774 0.931 . S
C754 C750 1.389 . S
C754 C752 1.364 . S
C754 H775 0.931 . S
C755 O766 1.256 . S
C755 O767 1.257 . S
O756 Gd736 2.377 . S
O756 C738 1.240 . S
O757 Gd737 2.395 . S
O757 C738 1.240 . S
O758 Gd736 2.448 . S
O758 C739 1.249 . S
O759 Gd736 2.506 . S
O759 C739 1.252 . S
O760 Gd736 2.435 . S
O760 C746 1.256 . S
O761 Gd736 2.717 . S
O761 Gd737 2.327 . S
O761 C746 1.257 . S
O762 Gd737 2.377 . S
O762 C747 1.240 . S
O763 Gd736 2.395 . S
O763 C747 1.240 . S
O764 Gd737 2.448 . S
O764 C748 1.249 . S
O765 Gd737 2.506 . S
O765 C748 1.252 . S
O766 Gd737 2.435 . S
O766 C755 1.256 . S
O767 Gd736 2.327 . S
O767 Gd737 2.717 . S
O767 C755 1.257 . S
H768 C741 0.930 . S
H769 C742 0.917 1_655 S
H770 C744 0.931 . S
H771 C745 0.931 . S
H772 C750 0.930 . S
H773 C751 0.931 . S
H774 C753 0.931 . S
H775 C754 0.931 . S
Gd776 C779 2.818 . S
Gd776 O796 2.377 . S
Gd776 O798 2.448 . S
Gd776 O799 2.506 . S
Gd776 O800 2.435 . S
Gd776 O801 2.717 . S
Gd776 O803 2.395 . S
Gd776 O807 2.327 . S
Gd777 C788 2.818 . S
Gd777 O797 2.395 . S
Gd777 O801 2.327 . S
Gd777 O802 2.377 . S
Gd777 O804 2.448 . S
Gd777 O805 2.506 . S
Gd777 O806 2.435 . S
Gd777 O807 2.717 . S
C778 O796 1.240 . S
C778 O797 1.240 . S
C779 Gd776 2.818 . S
C779 C780 1.510 . S
C779 O798 1.249 . S
C779 O799 1.252 . S
C780 C779 1.510 . S
C780 C781 1.404 . S
C780 C782 1.352 . S
C781 C780 1.404 . S
C781 C785 1.389 . S
C781 H808 0.930 . S
C782 C780 1.352 . S
C782 C784 1.374 . S
C782 H809 0.931 . S
C783 C784 1.359 . S
C783 C785 1.364 . S
C784 C782 1.374 . S
C784 C783 1.359 . S
C784 H810 0.931 . S
C785 C781 1.389 . S
C785 C783 1.364 . S
C785 H811 0.931 . S
C786 O800 1.256 . S
C786 O801 1.257 . S
C787 O802 1.240 . S
C787 O803 1.240 . S
C788 Gd777 2.818 . S
C788 C789 1.510 . S
C788 O804 1.249 . S
C788 O805 1.252 . S
C789 C788 1.510 . S
C789 C790 1.404 . S
C789 C791 1.352 . S
C790 C789 1.404 . S
C790 C794 1.389 . S
C790 H812 0.930 . S
C791 C789 1.352 . S
C791 C793 1.374 . S
C791 H813 0.931 . S
C792 C793 1.359 . S
C792 C794 1.364 . S
C793 C791 1.374 . S
C793 C792 1.359 . S
C793 H814 0.931 . S
C794 C790 1.389 . S
C794 C792 1.364 . S
C794 H815 0.931 . S
C795 O806 1.256 . S
C795 O807 1.257 . S
O796 Gd776 2.377 . S
O796 C778 1.240 . S
O797 Gd777 2.395 . S
O797 C778 1.240 . S
O798 Gd776 2.448 . S
O798 C779 1.249 . S
O799 Gd776 2.506 . S
O799 C779 1.252 . S
O800 Gd776 2.435 . S
O800 C786 1.256 . S
O801 Gd776 2.717 . S
O801 Gd777 2.327 . S
O801 C786 1.257 . S
O802 Gd777 2.377 . S
O802 C787 1.240 . S
O803 Gd776 2.395 . S
O803 C787 1.240 . S
O804 Gd777 2.448 . S
O804 C788 1.249 . S
O805 Gd777 2.506 . S
O805 C788 1.252 . S
O806 Gd777 2.435 . S
O806 C795 1.256 . S
O807 Gd776 2.327 . S
O807 Gd777 2.717 . S
O807 C795 1.257 . S
H808 C781 0.930 . S
H809 C782 0.931 . S
H810 C784 0.931 . S
H811 C785 0.931 . S
H812 C790 0.930 . S
H813 C791 0.931 . S
H814 C793 0.931 . S
H815 C794 0.931 . S
Gd816 C819 2.818 . S
Gd816 O836 2.377 . S
Gd816 O838 2.448 . S
Gd816 O839 2.506 . S
Gd816 O840 2.435 . S
Gd816 O841 2.717 . S
Gd816 O843 2.395 . S
Gd816 O847 2.327 . S
Gd817 C828 2.818 . S
Gd817 O837 2.395 . S
Gd817 O841 2.327 . S
Gd817 O842 2.377 . S
Gd817 O844 2.448 . S
Gd817 O845 2.506 . S
Gd817 O846 2.435 . S
Gd817 O847 2.717 . S
C818 O836 1.240 . S
C818 O837 1.240 . S
C819 Gd816 2.818 . S
C819 C820 1.510 . S
C819 O838 1.249 . S
C819 O839 1.252 . S
C820 C819 1.510 . S
C820 C821 1.404 . S
C820 C822 1.352 . S
C821 C820 1.404 . S
C821 C825 1.389 . S
C821 H848 0.930 . S
C822 C820 1.352 . S
C822 C824 1.374 . S
C822 H849 0.931 . S
C823 C824 1.359 . S
C823 C825 1.364 . S
C824 C822 1.374 . S
C824 C823 1.359 . S
C824 H850 0.931 . S
C825 C821 1.389 . S
C825 C823 1.364 . S
C825 H851 0.931 . S
C826 O840 1.256 . S
C826 O841 1.257 . S
C827 O842 1.240 . S
C827 O843 1.240 . S
C828 Gd817 2.818 . S
C828 C829 1.510 . S
C828 O844 1.249 . S
C828 O845 1.252 . S
C829 C828 1.510 . S
C829 C830 1.404 . S
C829 C831 1.352 . S
C830 C829 1.404 . S
C830 C834 1.389 . S
C830 H852 0.930 . S
C831 C829 1.352 . S
C831 C833 1.374 . S
C831 H853 0.931 . S
C832 C833 1.359 . S
C832 C834 1.364 . S
C833 C831 1.374 . S
C833 C832 1.359 . S
C833 H854 0.931 . S
C834 C830 1.389 . S
C834 C832 1.364 . S
C834 H855 0.931 . S
C835 O846 1.256 . S
C835 O847 1.257 . S
O836 Gd816 2.377 . S
O836 C818 1.240 . S
O837 Gd817 2.395 . S
O837 C818 1.240 . S
O838 Gd816 2.448 . S
O838 C819 1.249 . S
O839 Gd816 2.506 . S
O839 C819 1.252 . S
O840 Gd816 2.435 . S
O840 C826 1.256 . S
O841 Gd816 2.717 . S
O841 Gd817 2.327 . S
O841 C826 1.257 . S
O842 Gd817 2.377 . S
O842 C827 1.240 . S
O843 Gd816 2.395 . S
O843 C827 1.240 . S
O844 Gd817 2.448 . S
O844 C828 1.249 . S
O845 Gd817 2.506 . S
O845 C828 1.252 . S
O846 Gd817 2.435 . S
O846 C835 1.256 . S
O847 Gd816 2.327 . S
O847 Gd817 2.717 . S
O847 C835 1.257 . S
H848 C821 0.930 . S
H849 C822 0.931 . S
H850 C824 0.931 . S
H851 C825 0.931 . S
H852 C830 0.930 . S
H853 C831 0.931 . S
H854 C833 0.931 . S
H855 C834 0.931 . S
Gd856 C859 2.818 . S
Gd856 O876 2.377 . S
Gd856 O878 2.448 . S
Gd856 O879 2.506 . S
Gd856 O880 2.435 . S
Gd856 O881 2.717 . S
Gd856 O883 2.395 . S
Gd856 O887 2.327 . S
Gd857 C868 2.818 . S
Gd857 O877 2.395 . S
Gd857 O881 2.327 . S
Gd857 O882 2.377 . S
Gd857 O884 2.448 . S
Gd857 O885 2.506 . S
Gd857 O886 2.435 . S
Gd857 O887 2.717 . S
C858 O876 1.240 . S
C858 O877 1.240 . S
C859 Gd856 2.818 . S
C859 C860 1.510 . S
C859 O878 1.249 . S
C859 O879 1.252 . S
C860 C859 1.510 . S
C860 C861 1.404 . S
C860 C862 1.352 . S
C861 C860 1.404 . S
C861 C865 1.389 . S
C861 H888 0.930 . S
C862 C860 1.352 . S
C862 C864 1.374 . S
C862 H889 0.931 . S
C863 C864 1.359 . S
C863 C865 1.364 . S
C864 C862 1.374 . S
C864 C863 1.359 . S
C864 H890 0.931 . S
C865 C861 1.389 . S
C865 C863 1.364 . S
C865 H891 0.931 . S
C866 O880 1.256 . S
C866 O881 1.257 . S
C867 O882 1.240 . S
C867 O883 1.240 . S
C868 Gd857 2.818 . S
C868 C869 1.510 . S
C868 O884 1.249 . S
C868 O885 1.252 . S
C869 C868 1.510 . S
C869 C870 1.404 . S
C869 C871 1.352 . S
C870 C869 1.404 . S
C870 C874 1.389 . S
C870 H892 0.930 . S
C871 C869 1.352 . S
C871 C873 1.374 . S
C871 H893 0.931 . S
C872 C873 1.359 . S
C872 C874 1.364 . S
C873 C871 1.374 . S
C873 C872 1.359 . S
C873 H894 0.931 . S
C874 C870 1.389 . S
C874 C872 1.364 . S
C874 H895 0.931 . S
C875 O886 1.256 . S
C875 O887 1.257 . S
O876 Gd856 2.377 . S
O876 C858 1.240 . S
O877 Gd857 2.395 . S
O877 C858 1.240 . S
O878 Gd856 2.448 . S
O878 C859 1.249 . S
O879 Gd856 2.506 . S
O879 C859 1.252 . S
O880 Gd856 2.435 . S
O880 C866 1.256 . S
O881 Gd856 2.717 . S
O881 Gd857 2.327 . S
O881 C866 1.257 . S
O882 Gd857 2.377 . S
O882 C867 1.240 . S
O883 Gd856 2.395 . S
O883 C867 1.240 . S
O884 Gd857 2.448 . S
O884 C868 1.249 . S
O885 Gd857 2.506 . S
O885 C868 1.252 . S
O886 Gd857 2.435 . S
O886 C875 1.256 . S
O887 Gd856 2.327 . S
O887 Gd857 2.717 . S
O887 C875 1.257 . S
H888 C861 0.930 . S
H889 C862 0.931 . S
H890 C864 0.931 . S
H891 C865 0.931 . S
H892 C870 0.930 . S
H893 C871 0.931 . S
H894 C873 0.931 . S
H895 C874 0.931 . S
Gd896 C899 2.818 . S
Gd896 O916 2.377 . S
Gd896 O918 2.448 . S
Gd896 O919 2.506 . S
Gd896 O920 2.435 . S
Gd896 O921 2.717 . S
Gd896 O923 2.395 . S
Gd896 O927 2.327 . S
Gd897 C908 2.818 . S
Gd897 O917 2.395 . S
Gd897 O921 2.327 . S
Gd897 O922 2.377 . S
Gd897 O924 2.448 . S
Gd897 O925 2.506 . S
Gd897 O926 2.435 . S
Gd897 O927 2.717 . S
C898 O916 1.240 . S
C898 O917 1.240 . S
C899 Gd896 2.818 . S
C899 C900 1.510 . S
C899 O918 1.249 . S
C899 O919 1.252 . S
C900 C899 1.510 . S
C900 C901 1.404 . S
C900 C902 1.352 . S
C901 C900 1.404 . S
C901 C905 1.389 . S
C901 H928 0.930 . S
C902 C900 1.352 . S
C902 C904 1.374 . S
C902 H929 0.931 . S
C903 C904 1.359 . S
C903 C905 1.364 . S
C904 C902 1.374 . S
C904 C903 1.359 . S
C904 H930 0.931 . S
C905 C901 1.389 . S
C905 C903 1.364 . S
C905 H931 0.931 . S
C906 O920 1.256 . S
C906 O921 1.257 . S
C907 O922 1.240 . S
C907 O923 1.240 . S
C908 Gd897 2.818 . S
C908 C909 1.510 . S
C908 O924 1.249 . S
C908 O925 1.252 . S
C909 C908 1.510 . S
C909 C910 1.404 . S
C909 C911 1.352 . S
C910 C909 1.404 . S
C910 C914 1.389 . S
C910 H932 0.930 . S
C911 C909 1.352 . S
C911 C913 1.374 . S
C911 H933 0.931 . S
C912 C913 1.359 . S
C912 C914 1.364 . S
C913 C911 1.374 . S
C913 C912 1.359 . S
C913 H934 0.931 . S
C914 C910 1.389 . S
C914 C912 1.364 . S
C914 H935 0.931 . S
C915 O926 1.256 . S
C915 O927 1.257 . S
O916 Gd896 2.377 . S
O916 C898 1.240 . S
O917 Gd897 2.395 . S
O917 C898 1.240 . S
O918 Gd896 2.448 . S
O918 C899 1.249 . S
O919 Gd896 2.506 . S
O919 C899 1.252 . S
O920 Gd896 2.435 . S
O920 C906 1.256 . S
O921 Gd896 2.717 . S
O921 Gd897 2.327 . S
O921 C906 1.257 . S
O922 Gd897 2.377 . S
O922 C907 1.240 . S
O923 Gd896 2.395 . S
O923 C907 1.240 . S
O924 Gd897 2.448 . S
O924 C908 1.249 . S
O925 Gd897 2.506 . S
O925 C908 1.252 . S
O926 Gd897 2.435 . S
O926 C915 1.256 . S
O927 Gd896 2.327 . S
O927 Gd897 2.717 . S
O927 C915 1.257 . S
H928 C901 0.930 . S
H929 C902 0.931 . S
H930 C904 0.931 . S
H931 C905 0.931 . S
H932 C910 0.930 . S
H933 C911 0.931 . S
H934 C913 0.931 . S
H935 C914 0.931 . S
Gd936 C939 2.818 1_554 S
Gd936 O956 2.377 1_554 S
Gd936 O958 2.448 1_554 S
Gd936 O959 2.506 . S
Gd936 O960 2.435 1_554 S
Gd936 O961 2.717 1_554 S
Gd936 O963 2.395 . S
Gd936 O967 2.327 . S
Gd937 C948 2.818 1_455 S
Gd937 O957 2.395 . S
Gd937 O961 2.327 1_554 S
Gd937 O962 2.377 . S
Gd937 O964 2.448 1_455 S
Gd937 O965 2.506 1_455 S
Gd937 O966 2.435 . S
Gd937 O967 2.717 . S
C938 O956 1.240 1_554 S
C938 O957 1.240 . S
C939 Gd936 2.818 1_556 S
C939 C940 1.510 . S
C939 O958 1.249 . S
C939 O959 1.252 1_556 S
C940 C939 1.510 . S
C940 C941 1.404 . S
C940 C942 1.352 1_556 S
C941 C940 1.404 . S
C941 C945 1.389 . S
C941 H968 0.930 . S
C942 C940 1.352 1_554 S
C942 C944 1.374 . S
C942 H969 0.931 . S
C943 C944 1.359 1_556 S
C943 C945 1.364 . S
C944 C942 1.374 . S
C944 C943 1.359 1_554 S
C944 H970 0.931 . S
C945 C941 1.389 . S
C945 C943 1.364 . S
C945 H971 0.931 . S
C946 O960 1.256 . S
C946 O961 1.257 . S
C947 O962 1.240 . S
C947 O963 1.240 . S
C948 Gd937 2.818 1_655 S
C948 C949 1.510 . S
C948 O964 1.249 . S
C948 O965 1.252 . S
C949 C948 1.510 . S
C949 C950 1.404 . S
C949 C951 1.352 . S
C950 C949 1.404 . S
C950 C954 1.389 . S
C950 H972 0.930 . S
C951 C949 1.352 . S
C951 C953 1.374 . S
C951 H973 0.931 . S
C952 C953 1.359 . S
C952 C954 1.364 . S
C953 C951 1.374 . S
C953 C952 1.359 . S
C953 H974 0.931 . S
C954 C950 1.389 . S
C954 C952 1.364 . S
C954 H975 0.931 . S
C955 O966 1.256 . S
C955 O967 1.257 . S
O956 Gd936 2.377 1_556 S
O956 C938 1.240 1_556 S
O957 Gd937 2.395 . S
O957 C938 1.240 . S
O958 Gd936 2.448 1_556 S
O958 C939 1.249 . S
O959 Gd936 2.506 . S
O959 C939 1.252 1_554 S
O960 Gd936 2.435 1_556 S
O960 C946 1.256 . S
O961 Gd936 2.717 1_556 S
O961 Gd937 2.327 1_556 S
O961 C946 1.257 . S
O962 Gd937 2.377 . S
O962 C947 1.240 . S
O963 Gd936 2.395 . S
O963 C947 1.240 . S
O964 Gd937 2.448 1_655 S
O964 C948 1.249 . S
O965 Gd937 2.506 1_655 S
O965 C948 1.252 . S
O966 Gd937 2.435 . S
O966 C955 1.256 . S
O967 Gd936 2.327 . S
O967 Gd937 2.717 . S
O967 C955 1.257 . S
H968 C941 0.930 . S
H969 C942 0.931 . S
H970 C944 0.931 . S
H971 C945 0.931 . S
H972 C950 0.930 . S
H973 C951 0.931 . S
H974 C953 0.931 . S
H975 C954 0.931 . S
H976 C994 0.951 . S
H977 C996 0.951 . S
H978 C998 0.950 1_655 S
H979 C999 0.950 1_655 S
H980 C1001 0.950 . S
H981 C1004 0.950 . S
H982 C1005 0.950 . S
H983 C1007 0.950 . S
H984 C1008 0.950 . S
H985 C1009 0.951 . S
H986 C1011 0.951 1_554 S
H987 C1013 0.950 . S
H988 C1014 0.950 . S
H989 C1016 0.950 . S
H990 C1019 0.950 . S
H991 C1020 0.950 . S
H992 C1022 0.950 . S
H993 C1023 0.950 . S
C994 H976 0.951 . S
C994 C995 1.366 . S
C994 C996 1.388 . S
C995 C994 1.366 . S
C995 C999 1.385 . S
C996 H977 0.951 . S
C996 C994 1.388 . S
C996 C997 1.366 . S
C997 C996 1.366 . S
C997 C998 1.414 . S
C997 C1000 1.499 . S
C998 H978 0.950 1_455 S
C998 C997 1.414 . S
C998 C999 1.374 . S
C999 H979 0.950 1_455 S
C999 C995 1.385 . S
C999 C998 1.374 . S
C1000 C997 1.499 . S
C1000 C1001 1.373 . S
C1000 C1002 1.389 . S
C1001 H980 0.950 . S
C1001 C1000 1.373 . S
C1001 C1017 1.377 . S
C1002 C1000 1.389 . S
C1002 C1003 1.524 . S
C1002 C1016 1.377 . S
C1003 C1002 1.524 . S
C1003 C1004 1.397 1_455 S
C1003 C1008 1.363 . S
C1004 H981 0.950 . S
C1004 C1003 1.397 1_655 S
C1004 C1005 1.334 . S
C1005 H982 0.950 . S
C1005 C1004 1.334 . S
C1005 C1006 1.258 1_655 S
C1006 C1005 1.258 1_455 S
C1006 C1007 1.563 . S
C1006 H1025 0.906 1_455 S
C1007 H983 0.950 . S
C1007 C1006 1.563 . S
C1007 C1008 1.415 . S
C1008 H984 0.950 . S
C1008 C1003 1.363 . S
C1008 C1007 1.415 . S
C1009 H985 0.951 . S
C1009 C1010 1.366 1_554 S
C1009 C1011 1.388 1_554 S
C1010 C1009 1.366 1_556 S
C1010 C1014 1.385 . S
C1011 H986 0.951 1_556 S
C1011 C1009 1.388 1_556 S
C1011 C1012 1.366 . S
C1012 C1011 1.366 . S
C1012 C1013 1.414 . S
C1012 C1015 1.499 . S
C1013 H987 0.950 . S
C1013 C1012 1.414 . S
C1013 C1014 1.374 . S
C1014 H988 0.950 . S
C1014 C1010 1.385 . S
C1014 C1013 1.374 . S
C1015 C1012 1.499 . S
C1015 C1016 1.373 . S
C1015 C1017 1.389 . S
C1016 H989 0.950 . S
C1016 C1002 1.377 . S
C1016 C1015 1.373 . S
C1017 C1001 1.377 . S
C1017 C1015 1.389 . S
C1017 C1018 1.524 1_556 S
C1018 C1017 1.524 1_554 S
C1018 C1019 1.397 . S
C1018 C1023 1.363 . S
C1019 H990 0.950 . S
C1019 C1018 1.397 . S
C1019 C1020 1.334 . S
C1020 H991 0.950 . S
C1020 C1019 1.334 . S
C1020 C1021 1.287 . S
C1021 C1020 1.287 . S
C1021 C1022 1.524 . S
C1021 H1024 0.999 . S
C1022 H992 0.950 . S
C1022 C1021 1.524 . S
C1022 C1023 1.415 . S
C1023 H993 0.950 . S
C1023 C1018 1.363 . S
C1023 C1022 1.415 . S
H1024 C1021 0.999 . S
H1025 C1006 0.906 1_655 S
H1026 C1044 0.951 . S
H1027 C1046 0.951 . S
H1028 C1048 0.950 . S
H1029 C1049 0.950 . S
H1030 C1051 0.950 . S
H1031 C1054 0.950 . S
H1032 C1055 0.950 . S
H1033 C1057 0.950 . S
H1034 C1058 0.950 . S
H1035 C1059 0.951 . S
H1036 C1061 0.951 . S
H1037 C1063 0.950 . S
H1038 C1064 0.950 . S
H1039 C1066 0.950 . S
H1040 C1069 0.950 . S
H1041 C1070 0.950 . S
H1042 C1072 0.950 . S
H1043 C1073 0.950 . S
C1044 H1026 0.951 . S
C1044 C1045 1.366 . S
C1044 C1046 1.388 . S
C1045 C1044 1.366 . S
C1045 C1049 1.385 . S
C1046 H1027 0.951 . S
C1046 C1044 1.388 . S
C1046 C1047 1.366 . S
C1047 C1046 1.366 . S
C1047 C1048 1.414 . S
C1047 C1050 1.499 . S
C1048 H1028 0.950 . S
C1048 C1047 1.414 . S
C1048 C1049 1.374 . S
C1049 H1029 0.950 . S
C1049 C1045 1.385 . S
C1049 C1048 1.374 . S
C1050 C1047 1.499 . S
C1050 C1051 1.373 . S
C1050 C1052 1.389 . S
C1051 H1030 0.950 . S
C1051 C1050 1.373 . S
C1051 C1067 1.377 . S
C1052 C1050 1.389 . S
C1052 C1053 1.524 . S
C1052 C1066 1.377 . S
C1053 C1052 1.524 . S
C1053 C1054 1.397 . S
C1053 C1058 1.363 . S
C1054 H1031 0.950 . S
C1054 C1053 1.397 . S
C1054 C1055 1.334 . S
C1055 H1032 0.950 . S
C1055 C1054 1.334 . S
C1055 C1056 1.287 . S
C1056 C1055 1.287 . S
C1056 C1057 1.524 . S
C1056 H1075 0.913 . S
C1057 H1033 0.950 . S
C1057 C1056 1.524 . S
C1057 C1058 1.415 . S
C1058 H1034 0.950 . S
C1058 C1053 1.363 . S
C1058 C1057 1.415 . S
C1059 H1035 0.951 . S
C1059 C1060 1.366 . S
C1059 C1061 1.388 . S
C1060 C1059 1.366 . S
C1060 C1064 1.385 . S
C1061 H1036 0.951 . S
C1061 C1059 1.388 . S
C1061 C1062 1.366 . S
C1062 C1061 1.366 . S
C1062 C1063 1.414 . S
C1062 C1065 1.499 . S
C1063 H1037 0.950 . S
C1063 C1062 1.414 . S
C1063 C1064 1.374 . S
C1064 H1038 0.950 . S
C1064 C1060 1.385 . S
C1064 C1063 1.374 . S
C1065 C1062 1.499 . S
C1065 C1066 1.373 . S
C1065 C1067 1.389 . S
C1066 H1039 0.950 . S
C1066 C1052 1.377 . S
C1066 C1065 1.373 . S
C1067 C1051 1.377 . S
C1067 C1065 1.389 . S
C1067 C1068 1.524 . S
C1068 C1067 1.524 . S
C1068 C1069 1.397 . S
C1068 C1073 1.363 . S
C1069 H1040 0.950 . S
C1069 C1068 1.397 . S
C1069 C1070 1.334 . S
C1070 H1041 0.950 . S
C1070 C1069 1.334 . S
C1070 C1071 1.287 . S
C1071 C1070 1.287 . S
C1071 C1072 1.524 . S
C1071 H1074 0.999 . S
C1072 H1042 0.950 . S
C1072 C1071 1.524 . S
C1072 C1073 1.415 . S
C1073 H1043 0.950 . S
C1073 C1068 1.363 . S
C1073 C1072 1.415 . S
H1074 C1071 0.999 . S
H1075 C1056 0.913 . S
H1076 C1094 0.951 . S
H1077 C1096 0.951 . S
H1078 C1098 0.950 . S
H1079 C1099 0.950 . S
H1080 C1101 0.950 . S
H1081 C1104 0.950 . S
H1082 C1105 0.950 . S
H1083 C1107 0.950 . S
H1084 C1108 0.950 . S
H1085 C1109 0.951 . S
H1086 C1111 0.951 . S
H1087 C1113 0.950 . S
H1088 C1114 0.950 . S
H1089 C1116 0.950 . S
H1090 C1119 0.950 . S
H1091 C1120 0.950 . S
H1092 C1122 0.950 . S
H1093 C1123 0.950 . S
C1094 H1076 0.951 . S
C1094 C1095 1.366 . S
C1094 C1096 1.388 . S
C1095 C1094 1.366 . S
C1095 C1099 1.385 . S
C1096 H1077 0.951 . S
C1096 C1094 1.388 . S
C1096 C1097 1.366 . S
C1097 C1096 1.366 . S
C1097 C1098 1.414 . S
C1097 C1100 1.499 . S
C1098 H1078 0.950 . S
C1098 C1097 1.414 . S
C1098 C1099 1.374 . S
C1099 H1079 0.950 . S
C1099 C1095 1.385 . S
C1099 C1098 1.374 . S
C1100 C1097 1.499 . S
C1100 C1101 1.373 . S
C1100 C1102 1.389 . S
C1101 H1080 0.950 . S
C1101 C1100 1.373 . S
C1101 C1117 1.377 . S
C1102 C1100 1.389 . S
C1102 C1103 1.524 . S
C1102 C1116 1.377 . S
C1103 C1102 1.524 . S
C1103 C1104 1.397 . S
C1103 C1108 1.363 . S
C1104 H1081 0.950 . S
C1104 C1103 1.397 . S
C1104 C1105 1.334 . S
C1105 H1082 0.950 . S
C1105 C1104 1.334 . S
C1105 C1106 1.287 . S
C1106 C1105 1.287 . S
C1106 C1107 1.524 . S
C1106 H1125 0.913 . S
C1107 H1083 0.950 . S
C1107 C1106 1.524 . S
C1107 C1108 1.415 . S
C1108 H1084 0.950 . S
C1108 C1103 1.363 . S
C1108 C1107 1.415 . S
C1109 H1085 0.951 . S
C1109 C1110 1.366 . S
C1109 C1111 1.388 . S
C1110 C1109 1.366 . S
C1110 C1114 1.385 . S
C1111 H1086 0.951 . S
C1111 C1109 1.388 . S
C1111 C1112 1.366 . S
C1112 C1111 1.366 . S
C1112 C1113 1.414 . S
C1112 C1115 1.499 . S
C1113 H1087 0.950 . S
C1113 C1112 1.414 . S
C1113 C1114 1.374 . S
C1114 H1088 0.950 . S
C1114 C1110 1.385 . S
C1114 C1113 1.374 . S
C1115 C1112 1.499 . S
C1115 C1116 1.373 . S
C1115 C1117 1.389 . S
C1116 H1089 0.950 . S
C1116 C1102 1.377 . S
C1116 C1115 1.373 . S
C1117 C1101 1.377 . S
C1117 C1115 1.389 . S
C1117 C1118 1.524 . S
C1118 C1117 1.524 . S
C1118 C1119 1.397 . S
C1118 C1123 1.363 . S
C1119 H1090 0.950 . S
C1119 C1118 1.397 . S
C1119 C1120 1.334 . S
C1120 H1091 0.950 . S
C1120 C1119 1.334 . S
C1120 C1121 1.287 . S
C1121 C1120 1.287 . S
C1121 C1122 1.524 . S
C1121 H1124 0.999 . S
C1122 H1092 0.950 . S
C1122 C1121 1.524 . S
C1122 C1123 1.415 . S
C1123 H1093 0.950 . S
C1123 C1118 1.363 . S
C1123 C1122 1.415 . S
H1124 C1121 0.999 . S
H1125 C1106 0.913 . S
H1126 C1144 0.951 . S
H1127 C1146 0.951 . S
H1128 C1148 0.950 . S
H1129 C1149 0.950 . S
H1130 C1151 0.950 . S
H1131 C1154 0.950 . S
H1132 C1155 0.950 . S
H1133 C1157 0.950 . S
H1134 C1158 0.950 . S
H1135 C1159 0.951 . S
H1136 C1161 0.951 . S
H1137 C1163 0.950 . S
H1138 C1164 0.950 . S
H1139 C1166 0.950 . S
H1140 C1169 0.950 . S
H1141 C1170 0.950 . S
H1142 C1172 0.950 . S
H1143 C1173 0.950 . S
C1144 H1126 0.951 . S
C1144 C1145 1.366 . S
C1144 C1146 1.388 . S
C1145 C1144 1.366 . S
C1145 C1149 1.385 . S
C1146 H1127 0.951 . S
C1146 C1144 1.388 . S
C1146 C1147 1.366 . S
C1147 C1146 1.366 . S
C1147 C1148 1.414 . S
C1147 C1150 1.499 . S
C1148 H1128 0.950 . S
C1148 C1147 1.414 . S
C1148 C1149 1.374 . S
C1149 H1129 0.950 . S
C1149 C1145 1.385 . S
C1149 C1148 1.374 . S
C1150 C1147 1.499 . S
C1150 C1151 1.373 . S
C1150 C1152 1.389 . S
C1151 H1130 0.950 . S
C1151 C1150 1.373 . S
C1151 C1167 1.377 . S
C1152 C1150 1.389 . S
C1152 C1153 1.524 . S
C1152 C1166 1.377 . S
C1153 C1152 1.524 . S
C1153 C1154 1.397 . S
C1153 C1158 1.363 . S
C1154 H1131 0.950 . S
C1154 C1153 1.397 . S
C1154 C1155 1.334 . S
C1155 H1132 0.950 . S
C1155 C1154 1.334 . S
C1155 C1156 1.287 . S
C1156 C1155 1.287 . S
C1156 C1157 1.524 . S
C1156 H1175 0.913 . S
C1157 H1133 0.950 . S
C1157 C1156 1.524 . S
C1157 C1158 1.415 . S
C1158 H1134 0.950 . S
C1158 C1153 1.363 . S
C1158 C1157 1.415 . S
C1159 H1135 0.951 . S
C1159 C1160 1.366 . S
C1159 C1161 1.388 . S
C1160 C1159 1.366 . S
C1160 C1164 1.385 . S
C1161 H1136 0.951 . S
C1161 C1159 1.388 . S
C1161 C1162 1.366 . S
C1162 C1161 1.366 . S
C1162 C1163 1.414 . S
C1162 C1165 1.499 . S
C1163 H1137 0.950 . S
C1163 C1162 1.414 . S
C1163 C1164 1.374 . S
C1164 H1138 0.950 . S
C1164 C1160 1.385 . S
C1164 C1163 1.374 . S
C1165 C1162 1.499 . S
C1165 C1166 1.373 . S
C1165 C1167 1.389 . S
C1166 H1139 0.950 . S
C1166 C1152 1.377 . S
C1166 C1165 1.373 . S
C1167 C1151 1.377 . S
C1167 C1165 1.389 . S
C1167 C1168 1.524 . S
C1168 C1167 1.524 . S
C1168 C1169 1.397 . S
C1168 C1173 1.363 . S
C1169 H1140 0.950 . S
C1169 C1168 1.397 . S
C1169 C1170 1.334 . S
C1170 H1141 0.950 . S
C1170 C1169 1.334 . S
C1170 C1171 1.287 . S
C1171 C1170 1.287 . S
C1171 C1172 1.524 . S
C1171 H1174 0.999 . S
C1172 H1142 0.950 . S
C1172 C1171 1.524 . S
C1172 C1173 1.415 . S
C1173 H1143 0.950 . S
C1173 C1168 1.363 . S
C1173 C1172 1.415 . S
H1174 C1171 0.999 . S
H1175 C1156 0.913 . S
H1176 C1194 0.951 . S
H1177 C1196 0.951 1_655 S
H1178 C1198 0.950 . S
H1179 C1199 0.950 . S
H1180 C1201 0.950 . S
H1181 C1204 0.950 1_455 S
H1182 C1205 0.950 . S
H1183 C1207 0.950 . S
H1184 C1208 0.950 . S
H1185 C1209 0.951 . S
H1186 C1211 0.951 . S
H1187 C1213 0.950 . S
H1188 C1214 0.950 . S
H1189 C1216 0.950 . S
H1190 C1219 0.950 . S
H1191 C1220 0.950 . S
H1192 C1222 0.950 . S
H1193 C1223 0.950 . S
C1194 H1176 0.951 . S
C1194 C1195 1.366 1_655 S
C1194 C1196 1.388 1_655 S
C1195 C1194 1.366 1_455 S
C1195 C1199 1.385 . S
C1196 H1177 0.951 1_455 S
C1196 C1194 1.388 1_455 S
C1196 C1197 1.366 . S
C1197 C1196 1.366 . S
C1197 C1198 1.414 . S
C1197 C1200 1.499 . S
C1198 H1178 0.950 . S
C1198 C1197 1.414 . S
C1198 C1199 1.374 . S
C1199 H1179 0.950 . S
C1199 C1195 1.385 . S
C1199 C1198 1.374 . S
C1200 C1197 1.499 . S
C1200 C1201 1.373 . S
C1200 C1202 1.389 . S
C1201 H1180 0.950 . S
C1201 C1200 1.373 . S
C1201 C1217 1.377 . S
C1202 C1200 1.389 . S
C1202 C1203 1.524 1_455 S
C1202 C1216 1.377 . S
C1203 C1202 1.524 1_655 S
C1203 C1204 1.397 . S
C1203 C1208 1.363 . S
C1204 H1181 0.950 1_655 S
C1204 C1203 1.397 . S
C1204 C1205 1.334 . S
C1205 H1182 0.950 . S
C1205 C1204 1.334 . S
C1205 C1206 1.287 . S
C1206 C1205 1.287 . S
C1206 C1207 1.524 . S
C1206 H1225 0.913 . S
C1207 H1183 0.950 . S
C1207 C1206 1.524 . S
C1207 C1208 1.415 . S
C1208 H1184 0.950 . S
C1208 C1203 1.363 . S
C1208 C1207 1.415 . S
C1209 H1185 0.951 . S
C1209 C1210 1.366 . S
C1209 C1211 1.388 . S
C1210 C1209 1.366 . S
C1210 C1214 1.385 . S
C1211 H1186 0.951 . S
C1211 C1209 1.388 . S
C1211 C1212 1.366 . S
C1212 C1211 1.366 . S
C1212 C1213 1.414 . S
C1212 C1215 1.499 . S
C1213 H1187 0.950 . S
C1213 C1212 1.414 . S
C1213 C1214 1.374 . S
C1214 H1188 0.950 . S
C1214 C1210 1.385 . S
C1214 C1213 1.374 . S
C1215 C1212 1.499 . S
C1215 C1216 1.373 . S
C1215 C1217 1.389 . S
C1216 H1189 0.950 . S
C1216 C1202 1.377 . S
C1216 C1215 1.373 . S
C1217 C1201 1.377 . S
C1217 C1215 1.389 . S
C1217 C1218 1.524 . S
C1218 C1217 1.524 . S
C1218 C1219 1.397 . S
C1218 C1223 1.363 . S
C1219 H1190 0.950 . S
C1219 C1218 1.397 . S
C1219 C1220 1.334 . S
C1220 H1191 0.950 . S
C1220 C1219 1.334 . S
C1220 C1221 1.287 . S
C1221 C1220 1.287 . S
C1221 C1222 1.524 . S
C1221 H1224 0.999 . S
C1222 H1192 0.950 . S
C1222 C1221 1.524 . S
C1222 C1223 1.415 . S
C1223 H1193 0.950 . S
C1223 C1218 1.363 . S
C1223 C1222 1.415 . S
H1224 C1221 0.999 . S
H1225 C1206 0.913 . S
H1226 C1244 0.951 . S
H1227 C1246 0.951 . S
H1228 C1248 0.950 . S
H1229 C1249 0.950 . S
H1230 C1251 0.950 . S
H1231 C1254 0.950 . S
H1232 C1255 0.950 . S
H1233 C1257 0.950 . S
H1234 C1258 0.950 . S
H1235 C1259 0.951 . S
H1236 C1261 0.951 . S
H1237 C1263 0.950 . S
H1238 C1264 0.950 . S
H1239 C1266 0.950 . S
H1240 C1269 0.950 . S
H1241 C1270 0.950 . S
H1242 C1272 0.950 . S
H1243 C1273 0.950 . S
C1244 H1226 0.951 . S
C1244 C1245 1.366 . S
C1244 C1246 1.388 . S
C1245 C1244 1.366 . S
C1245 C1249 1.385 . S
C1246 H1227 0.951 . S
C1246 C1244 1.388 . S
C1246 C1247 1.366 . S
C1247 C1246 1.366 . S
C1247 C1248 1.414 . S
C1247 C1250 1.499 . S
C1248 H1228 0.950 . S
C1248 C1247 1.414 . S
C1248 C1249 1.374 . S
C1249 H1229 0.950 . S
C1249 C1245 1.385 . S
C1249 C1248 1.374 . S
C1250 C1247 1.499 . S
C1250 C1251 1.373 . S
C1250 C1252 1.389 . S
C1251 H1230 0.950 . S
C1251 C1250 1.373 . S
C1251 C1267 1.377 . S
C1252 C1250 1.389 . S
C1252 C1253 1.524 . S
C1252 C1266 1.377 . S
C1253 C1252 1.524 . S
C1253 C1254 1.397 . S
C1253 C1258 1.363 . S
C1254 H1231 0.950 . S
C1254 C1253 1.397 . S
C1254 C1255 1.334 . S
C1255 H1232 0.950 . S
C1255 C1254 1.334 . S
C1255 C1256 1.287 . S
C1256 C1255 1.287 . S
C1256 C1257 1.524 . S
C1256 H1275 0.913 . S
C1257 H1233 0.950 . S
C1257 C1256 1.524 . S
C1257 C1258 1.415 . S
C1258 H1234 0.950 . S
C1258 C1253 1.363 . S
C1258 C1257 1.415 . S
C1259 H1235 0.951 . S
C1259 C1260 1.366 . S
C1259 C1261 1.388 . S
C1260 C1259 1.366 . S
C1260 C1264 1.385 . S
C1261 H1236 0.951 . S
C1261 C1259 1.388 . S
C1261 C1262 1.366 . S
C1262 C1261 1.366 . S
C1262 C1263 1.414 . S
C1262 C1265 1.499 . S
C1263 H1237 0.950 . S
C1263 C1262 1.414 . S
C1263 C1264 1.374 . S
C1264 H1238 0.950 . S
C1264 C1260 1.385 . S
C1264 C1263 1.374 . S
C1265 C1262 1.499 . S
C1265 C1266 1.373 . S
C1265 C1267 1.389 . S
C1266 H1239 0.950 . S
C1266 C1252 1.377 . S
C1266 C1265 1.373 . S
C1267 C1251 1.377 . S
C1267 C1265 1.389 . S
C1267 C1268 1.524 . S
C1268 C1267 1.524 . S
C1268 C1269 1.397 . S
C1268 C1273 1.363 . S
C1269 H1240 0.950 . S
C1269 C1268 1.397 . S
C1269 C1270 1.334 . S
C1270 H1241 0.950 . S
C1270 C1269 1.334 . S
C1270 C1271 1.287 . S
C1271 C1270 1.287 . S
C1271 C1272 1.524 . S
C1271 H1274 0.999 . S
C1272 H1242 0.950 . S
C1272 C1271 1.524 . S
C1272 C1273 1.415 . S
C1273 H1243 0.950 . S
C1273 C1268 1.363 . S
C1273 C1272 1.415 . S
H1274 C1271 0.999 . S
H1275 C1256 0.913 . S
H1276 C1294 0.951 . S
H1277 C1296 0.951 . S
H1278 C1298 0.950 . S
H1279 C1299 0.950 . S
H1280 C1301 0.950 . S
H1281 C1304 0.950 . S
H1282 C1305 0.950 . S
H1283 C1307 0.950 . S
H1284 C1308 0.950 . S
H1285 C1309 0.951 . S
H1286 C1311 0.951 . S
H1287 C1313 0.950 . S
H1288 C1314 0.950 . S
H1289 C1316 0.950 . S
H1290 C1319 0.950 . S
H1291 C1320 0.950 . S
H1292 C1322 0.950 . S
H1293 C1323 0.950 . S
C1294 H1276 0.951 . S
C1294 C1295 1.366 . S
C1294 C1296 1.388 . S
C1295 C1294 1.366 . S
C1295 C1299 1.385 . S
C1296 H1277 0.951 . S
C1296 C1294 1.388 . S
C1296 C1297 1.366 . S
C1297 C1296 1.366 . S
C1297 C1298 1.414 . S
C1297 C1300 1.499 . S
C1298 H1278 0.950 . S
C1298 C1297 1.414 . S
C1298 C1299 1.374 . S
C1299 H1279 0.950 . S
C1299 C1295 1.385 . S
C1299 C1298 1.374 . S
C1300 C1297 1.499 . S
C1300 C1301 1.373 . S
C1300 C1302 1.389 . S
C1301 H1280 0.950 . S
C1301 C1300 1.373 . S
C1301 C1317 1.377 . S
C1302 C1300 1.389 . S
C1302 C1303 1.524 . S
C1302 C1316 1.377 . S
C1303 C1302 1.524 . S
C1303 C1304 1.397 . S
C1303 C1308 1.363 . S
C1304 H1281 0.950 . S
C1304 C1303 1.397 . S
C1304 C1305 1.334 . S
C1305 H1282 0.950 . S
C1305 C1304 1.334 . S
C1305 C1306 1.287 . S
C1306 C1305 1.287 . S
C1306 C1307 1.524 . S
C1306 H1325 0.913 . S
C1307 H1283 0.950 . S
C1307 C1306 1.524 . S
C1307 C1308 1.415 . S
C1308 H1284 0.950 . S
C1308 C1303 1.363 . S
C1308 C1307 1.415 . S
C1309 H1285 0.951 . S
C1309 C1310 1.366 . S
C1309 C1311 1.388 . S
C1310 C1309 1.366 . S
C1310 C1314 1.385 . S
C1311 H1286 0.951 . S
C1311 C1309 1.388 . S
C1311 C1312 1.366 . S
C1312 C1311 1.366 . S
C1312 C1313 1.414 . S
C1312 C1315 1.499 . S
C1313 H1287 0.950 . S
C1313 C1312 1.414 . S
C1313 C1314 1.374 . S
C1314 H1288 0.950 . S
C1314 C1310 1.385 . S
C1314 C1313 1.374 . S
C1315 C1312 1.499 . S
C1315 C1316 1.373 . S
C1315 C1317 1.389 . S
C1316 H1289 0.950 . S
C1316 C1302 1.377 . S
C1316 C1315 1.373 . S
C1317 C1301 1.377 . S
C1317 C1315 1.389 . S
C1317 C1318 1.524 . S
C1318 C1317 1.524 . S
C1318 C1319 1.397 . S
C1318 C1323 1.363 . S
C1319 H1290 0.950 . S
C1319 C1318 1.397 . S
C1319 C1320 1.334 . S
C1320 H1291 0.950 . S
C1320 C1319 1.334 . S
C1320 C1321 1.287 . S
C1321 C1320 1.287 . S
C1321 C1322 1.524 . S
C1321 H1324 0.999 . S
C1322 H1292 0.950 . S
C1322 C1321 1.524 . S
C1322 C1323 1.415 . S
C1323 H1293 0.950 . S
C1323 C1318 1.363 . S
C1323 C1322 1.415 . S
H1324 C1321 0.999 . S
H1325 C1306 0.913 . S
H1326 C1344 0.951 . S
H1327 C1346 0.951 . S
H1328 C1348 0.950 . S
H1329 C1349 0.950 . S
H1330 C1351 0.950 . S
H1331 C1354 0.950 . S
H1332 C1355 0.950 . S
H1333 C1357 0.950 . S
H1334 C1358 0.950 . S
H1335 C1359 0.951 . S
H1336 C1361 0.951 . S
H1337 C1363 0.950 . S
H1338 C1364 0.950 . S
H1339 C1366 0.950 . S
H1340 C1369 0.950 . S
H1341 C1370 0.950 . S
H1342 C1372 0.950 . S
H1343 C1373 0.950 . S
C1344 H1326 0.951 . S
C1344 C1345 1.366 . S
C1344 C1346 1.388 . S
C1345 C1344 1.366 . S
C1345 C1349 1.385 . S
C1346 H1327 0.951 . S
C1346 C1344 1.388 . S
C1346 C1347 1.366 . S
C1347 C1346 1.366 . S
C1347 C1348 1.414 . S
C1347 C1350 1.499 . S
C1348 H1328 0.950 . S
C1348 C1347 1.414 . S
C1348 C1349 1.374 . S
C1349 H1329 0.950 . S
C1349 C1345 1.385 . S
C1349 C1348 1.374 . S
C1350 C1347 1.499 . S
C1350 C1351 1.373 . S
C1350 C1352 1.389 . S
C1351 H1330 0.950 . S
C1351 C1350 1.373 . S
C1351 C1367 1.377 . S
C1352 C1350 1.389 . S
C1352 C1353 1.524 . S
C1352 C1366 1.377 . S
C1353 C1352 1.524 . S
C1353 C1354 1.397 . S
C1353 C1358 1.363 . S
C1354 H1331 0.950 . S
C1354 C1353 1.397 . S
C1354 C1355 1.334 . S
C1355 H1332 0.950 . S
C1355 C1354 1.334 . S
C1355 C1356 1.287 . S
C1356 C1355 1.287 . S
C1356 C1357 1.524 . S
C1356 H1375 0.913 . S
C1357 H1333 0.950 . S
C1357 C1356 1.524 . S
C1357 C1358 1.415 . S
C1358 H1334 0.950 . S
C1358 C1353 1.363 . S
C1358 C1357 1.415 . S
C1359 H1335 0.951 . S
C1359 C1360 1.366 . S
C1359 C1361 1.388 . S
C1360 C1359 1.366 . S
C1360 C1364 1.385 . S
C1361 H1336 0.951 . S
C1361 C1359 1.388 . S
C1361 C1362 1.366 . S
C1362 C1361 1.366 . S
C1362 C1363 1.414 . S
C1362 C1365 1.499 . S
C1363 H1337 0.950 . S
C1363 C1362 1.414 . S
C1363 C1364 1.374 . S
C1364 H1338 0.950 . S
C1364 C1360 1.385 . S
C1364 C1363 1.374 . S
C1365 C1362 1.499 . S
C1365 C1366 1.373 . S
C1365 C1367 1.389 . S
C1366 H1339 0.950 . S
C1366 C1352 1.377 . S
C1366 C1365 1.373 . S
C1367 C1351 1.377 . S
C1367 C1365 1.389 . S
C1367 C1368 1.524 . S
C1368 C1367 1.524 . S
C1368 C1369 1.397 . S
C1368 C1373 1.363 . S
C1369 H1340 0.950 . S
C1369 C1368 1.397 . S
C1369 C1370 1.334 . S
C1370 H1341 0.950 . S
C1370 C1369 1.334 . S
C1370 C1371 1.287 . S
C1371 C1370 1.287 . S
C1371 C1372 1.524 . S
C1371 H1374 0.999 . S
C1372 H1342 0.950 . S
C1372 C1371 1.524 . S
C1372 C1373 1.415 . S
C1373 H1343 0.950 . S
C1373 C1368 1.363 . S
C1373 C1372 1.415 . S
H1374 C1371 0.999 . S
H1375 C1356 0.913 . S
H1376 C1394 0.951 . S
H1377 C1396 0.951 . S
H1378 C1398 0.950 . S
H1379 C1399 0.950 . S
H1380 C1401 0.950 . S
H1381 C1404 0.950 . S
H1382 C1405 0.950 . S
H1383 C1407 0.950 . S
H1384 C1408 0.950 1_455 S
H1385 C1409 0.951 . S
H1386 C1411 0.951 . S
H1387 C1413 0.950 . S
H1388 C1414 0.950 . S
H1389 C1416 0.950 . S
H1390 C1419 0.950 . S
H1391 C1420 0.960 1_545 S
H1392 C1422 0.950 . S
H1393 C1423 0.950 . S
C1394 H1376 0.951 . S
C1394 C1395 1.366 . S
C1394 C1396 1.388 . S
C1395 C1394 1.366 . S
C1395 C1399 1.385 . S
C1396 H1377 0.951 . S
C1396 C1394 1.388 . S
C1396 C1397 1.366 . S
C1397 C1396 1.366 . S
C1397 C1398 1.414 . S
C1397 C1400 1.499 . S
C1398 H1378 0.950 . S
C1398 C1397 1.414 . S
C1398 C1399 1.374 . S
C1399 H1379 0.950 . S
C1399 C1395 1.385 . S
C1399 C1398 1.374 . S
C1400 C1397 1.499 . S
C1400 C1401 1.373 . S
C1400 C1402 1.389 . S
C1401 H1380 0.950 . S
C1401 C1400 1.373 . S
C1401 C1417 1.377 . S
C1402 C1400 1.389 . S
C1402 C1403 1.524 . S
C1402 C1416 1.377 . S
C1403 C1402 1.524 . S
C1403 C1404 1.397 . S
C1403 C1408 1.363 . S
C1404 H1381 0.950 . S
C1404 C1403 1.397 . S
C1404 C1405 1.334 . S
C1405 H1382 0.950 . S
C1405 C1404 1.334 . S
C1405 C1406 1.287 . S
C1406 C1405 1.287 . S
C1406 C1407 1.524 . S
C1406 H1425 0.913 . S
C1407 H1383 0.950 . S
C1407 C1406 1.524 . S
C1407 C1408 1.415 . S
C1408 H1384 0.950 1_655 S
C1408 C1403 1.363 . S
C1408 C1407 1.415 . S
C1409 H1385 0.951 . S
C1409 C1410 1.366 . S
C1409 C1411 1.388 1_455 S
C1410 C1409 1.366 . S
C1410 C1414 1.385 . S
C1411 H1386 0.951 . S
C1411 C1409 1.388 1_655 S
C1411 C1412 1.366 1_655 S
C1412 C1411 1.366 1_455 S
C1412 C1413 1.414 . S
C1412 C1415 1.499 1_455 S
C1413 H1387 0.950 . S
C1413 C1412 1.414 . S
C1413 C1414 1.374 . S
C1414 H1388 0.950 . S
C1414 C1410 1.385 . S
C1414 C1413 1.374 . S
C1415 C1412 1.499 1_655 S
C1415 C1416 1.373 . S
C1415 C1417 1.389 . S
C1416 H1389 0.950 . S
C1416 C1402 1.377 . S
C1416 C1415 1.373 . S
C1417 C1401 1.377 . S
C1417 C1415 1.389 . S
C1417 C1418 1.524 . S
C1418 C1417 1.524 . S
C1418 C1419 1.397 1_655 S
C1418 C1423 1.363 1_545 S
C1419 H1390 0.950 . S
C1419 C1418 1.397 1_455 S
C1419 C1420 1.310 1_545 S
C1420 H1391 0.960 1_565 S
C1420 C1419 1.310 1_565 S
C1420 C1421 1.307 . S
C1421 C1420 1.307 . S
C1421 C1422 1.524 1_455 S
C1421 H1424 0.999 . S
C1422 H1392 0.950 . S
C1422 C1421 1.524 1_655 S
C1422 C1423 1.415 . S
C1423 H1393 0.950 . S
C1423 C1418 1.363 1_565 S
C1423 C1422 1.415 . S
H1424 C1421 0.999 . S
H1425 C1406 0.913 . S
H1426 C1444 0.951 . S
H1427 C1446 0.951 . S
H1428 C1448 0.950 . S
H1429 C1449 0.950 . S
H1430 C1451 0.950 . S
H1431 C1454 0.950 . S
H1432 C1455 0.950 . S
H1433 C1457 0.950 . S
H1434 C1458 0.950 . S
H1435 C1459 0.951 . S
H1436 C1461 0.951 . S
H1437 C1463 0.950 . S
H1438 C1464 0.950 . S
H1439 C1466 0.950 . S
H1440 C1469 0.950 . S
H1441 C1470 0.950 . S
H1442 C1472 0.950 . S
H1443 C1473 0.950 . S
C1444 H1426 0.951 . S
C1444 C1445 1.366 . S
C1444 C1446 1.388 . S
C1445 C1444 1.366 . S
C1445 C1449 1.385 . S
C1446 H1427 0.951 . S
C1446 C1444 1.388 . S
C1446 C1447 1.366 . S
C1447 C1446 1.366 . S
C1447 C1448 1.414 . S
C1447 C1450 1.499 . S
C1448 H1428 0.950 . S
C1448 C1447 1.414 . S
C1448 C1449 1.374 . S
C1449 H1429 0.950 . S
C1449 C1445 1.385 . S
C1449 C1448 1.374 . S
C1450 C1447 1.499 . S
C1450 C1451 1.373 . S
C1450 C1452 1.389 . S
C1451 H1430 0.950 . S
C1451 C1450 1.373 . S
C1451 C1467 1.377 . S
C1452 C1450 1.389 . S
C1452 C1453 1.524 . S
C1452 C1466 1.377 . S
C1453 C1452 1.524 . S
C1453 C1454 1.397 . S
C1453 C1458 1.363 . S
C1454 H1431 0.950 . S
C1454 C1453 1.397 . S
C1454 C1455 1.334 . S
C1455 H1432 0.950 . S
C1455 C1454 1.334 . S
C1455 C1456 1.287 . S
C1456 C1455 1.287 . S
C1456 C1457 1.524 . S
C1456 H1475 0.913 . S
C1457 H1433 0.950 . S
C1457 C1456 1.524 . S
C1457 C1458 1.415 . S
C1458 H1434 0.950 . S
C1458 C1453 1.363 . S
C1458 C1457 1.415 . S
C1459 H1435 0.951 . S
C1459 C1460 1.366 . S
C1459 C1461 1.388 . S
C1460 C1459 1.366 . S
C1460 C1464 1.385 . S
C1461 H1436 0.951 . S
C1461 C1459 1.388 . S
C1461 C1462 1.366 . S
C1462 C1461 1.366 . S
C1462 C1463 1.414 . S
C1462 C1465 1.499 . S
C1463 H1437 0.950 . S
C1463 C1462 1.414 . S
C1463 C1464 1.374 . S
C1464 H1438 0.950 . S
C1464 C1460 1.385 . S
C1464 C1463 1.374 . S
C1465 C1462 1.499 . S
C1465 C1466 1.373 . S
C1465 C1467 1.389 . S
C1466 H1439 0.950 . S
C1466 C1452 1.377 . S
C1466 C1465 1.373 . S
C1467 C1451 1.377 . S
C1467 C1465 1.389 . S
C1467 C1468 1.524 . S
C1468 C1467 1.524 . S
C1468 C1469 1.397 . S
C1468 C1473 1.363 . S
C1469 H1440 0.950 . S
C1469 C1468 1.397 . S
C1469 C1470 1.334 . S
C1470 H1441 0.950 . S
C1470 C1469 1.334 . S
C1470 C1471 1.287 . S
C1471 C1470 1.287 . S
C1471 C1472 1.524 . S
C1471 H1474 0.999 . S
C1472 H1442 0.950 . S
C1472 C1471 1.524 . S
C1472 C1473 1.415 . S
C1473 H1443 0.950 . S
C1473 C1468 1.363 . S
C1473 C1472 1.415 . S
H1474 C1471 0.999 . S
H1475 C1456 0.913 . S
H1476 C1494 0.951 . S
H1477 C1496 0.951 . S
H1478 C1498 0.950 . S
H1479 C1499 0.950 . S
H1480 C1501 0.950 . S
H1481 C1504 0.950 . S
H1482 C1505 0.950 . S
H1483 C1507 0.950 . S
H1484 C1508 0.950 . S
H1485 C1509 0.951 . S
H1486 C1511 0.951 . S
H1487 C1513 0.950 . S
H1488 C1514 0.950 . S
H1489 C1516 0.950 . S
H1490 C1519 0.950 . S
H1491 C1520 0.950 . S
H1492 C1522 0.950 . S
H1493 C1523 0.950 . S
C1494 H1476 0.951 . S
C1494 C1495 1.366 . S
C1494 C1496 1.388 . S
C1495 C1494 1.366 . S
C1495 C1499 1.385 . S
C1496 H1477 0.951 . S
C1496 C1494 1.388 . S
C1496 C1497 1.366 . S
C1497 C1496 1.366 . S
C1497 C1498 1.414 . S
C1497 C1500 1.499 . S
C1498 H1478 0.950 . S
C1498 C1497 1.414 . S
C1498 C1499 1.374 . S
C1499 H1479 0.950 . S
C1499 C1495 1.385 . S
C1499 C1498 1.374 . S
C1500 C1497 1.499 . S
C1500 C1501 1.373 . S
C1500 C1502 1.389 . S
C1501 H1480 0.950 . S
C1501 C1500 1.373 . S
C1501 C1517 1.377 . S
C1502 C1500 1.389 . S
C1502 C1503 1.524 . S
C1502 C1516 1.377 . S
C1503 C1502 1.524 . S
C1503 C1504 1.397 . S
C1503 C1508 1.363 . S
C1504 H1481 0.950 . S
C1504 C1503 1.397 . S
C1504 C1505 1.334 . S
C1505 H1482 0.950 . S
C1505 C1504 1.334 . S
C1505 C1506 1.287 . S
C1506 C1505 1.287 . S
C1506 C1507 1.524 . S
C1506 H1525 0.913 . S
C1507 H1483 0.950 . S
C1507 C1506 1.524 . S
C1507 C1508 1.415 . S
C1508 H1484 0.950 . S
C1508 C1503 1.363 . S
C1508 C1507 1.415 . S
C1509 H1485 0.951 . S
C1509 C1510 1.366 . S
C1509 C1511 1.388 . S
C1510 C1509 1.366 . S
C1510 C1514 1.385 . S
C1511 H1486 0.951 . S
C1511 C1509 1.388 . S
C1511 C1512 1.366 . S
C1512 C1511 1.366 . S
C1512 C1513 1.414 . S
C1512 C1515 1.499 . S
C1513 H1487 0.950 . S
C1513 C1512 1.414 . S
C1513 C1514 1.374 . S
C1514 H1488 0.950 . S
C1514 C1510 1.385 . S
C1514 C1513 1.374 . S
C1515 C1512 1.499 . S
C1515 C1516 1.373 . S
C1515 C1517 1.389 . S
C1516 H1489 0.950 . S
C1516 C1502 1.377 . S
C1516 C1515 1.373 . S
C1517 C1501 1.377 . S
C1517 C1515 1.389 . S
C1517 C1518 1.524 . S
C1518 C1517 1.524 . S
C1518 C1519 1.397 . S
C1518 C1523 1.363 . S
C1519 H1490 0.950 . S
C1519 C1518 1.397 . S
C1519 C1520 1.334 . S
C1520 H1491 0.950 . S
C1520 C1519 1.334 . S
C1520 C1521 1.287 . S
C1521 C1520 1.287 . S
C1521 C1522 1.524 . S
C1521 H1524 0.999 . S
C1522 H1492 0.950 . S
C1522 C1521 1.524 . S
C1522 C1523 1.415 . S
C1523 H1493 0.950 . S
C1523 C1518 1.363 . S
C1523 C1522 1.415 . S
H1524 C1521 0.999 . S
H1525 C1506 0.913 . S
H1526 C1544 0.951 . S
H1527 C1546 0.951 . S
H1528 C1548 0.950 . S
H1529 C1549 0.950 . S
H1530 C1551 0.950 . S
H1531 C1554 0.950 . S
H1532 C1555 0.950 . S
H1533 C1557 0.950 . S
H1534 C1558 0.950 . S
H1535 C1559 0.951 . S
H1536 C1561 0.951 . S
H1537 C1563 0.950 . S
H1538 C1564 0.950 . S
H1539 C1566 0.950 . S
H1540 C1569 0.950 . S
H1541 C1570 0.950 . S
H1542 C1572 0.950 . S
H1543 C1573 0.950 . S
C1544 H1526 0.951 . S
C1544 C1545 1.366 . S
C1544 C1546 1.388 . S
C1545 C1544 1.366 . S
C1545 C1549 1.385 . S
C1546 H1527 0.951 . S
C1546 C1544 1.388 . S
C1546 C1547 1.366 . S
C1547 C1546 1.366 . S
C1547 C1548 1.414 . S
C1547 C1550 1.499 . S
C1548 H1528 0.950 . S
C1548 C1547 1.414 . S
C1548 C1549 1.374 . S
C1549 H1529 0.950 . S
C1549 C1545 1.385 . S
C1549 C1548 1.374 . S
C1550 C1547 1.499 . S
C1550 C1551 1.373 . S
C1550 C1552 1.389 . S
C1551 H1530 0.950 . S
C1551 C1550 1.373 . S
C1551 C1567 1.377 . S
C1552 C1550 1.389 . S
C1552 C1553 1.524 . S
C1552 C1566 1.377 . S
C1553 C1552 1.524 . S
C1553 C1554 1.397 . S
C1553 C1558 1.363 . S
C1554 H1531 0.950 . S
C1554 C1553 1.397 . S
C1554 C1555 1.334 . S
C1555 H1532 0.950 . S
C1555 C1554 1.334 . S
C1555 C1556 1.287 . S
C1556 C1555 1.287 . S
C1556 C1557 1.524 . S
C1556 H1575 0.913 . S
C1557 H1533 0.950 . S
C1557 C1556 1.524 . S
C1557 C1558 1.415 . S
C1558 H1534 0.950 . S
C1558 C1553 1.363 . S
C1558 C1557 1.415 . S
C1559 H1535 0.951 . S
C1559 C1560 1.366 . S
C1559 C1561 1.388 . S
C1560 C1559 1.366 . S
C1560 C1564 1.385 . S
C1561 H1536 0.951 . S
C1561 C1559 1.388 . S
C1561 C1562 1.366 . S
C1562 C1561 1.366 . S
C1562 C1563 1.414 . S
C1562 C1565 1.499 . S
C1563 H1537 0.950 . S
C1563 C1562 1.414 . S
C1563 C1564 1.374 . S
C1564 H1538 0.950 . S
C1564 C1560 1.385 . S
C1564 C1563 1.374 . S
C1565 C1562 1.499 . S
C1565 C1566 1.373 . S
C1565 C1567 1.389 . S
C1566 H1539 0.950 . S
C1566 C1552 1.377 . S
C1566 C1565 1.373 . S
C1567 C1551 1.377 . S
C1567 C1565 1.389 . S
C1567 C1568 1.524 . S
C1568 C1567 1.524 . S
C1568 C1569 1.397 . S
C1568 C1573 1.363 . S
C1569 H1540 0.950 . S
C1569 C1568 1.397 . S
C1569 C1570 1.334 . S
C1570 H1541 0.950 . S
C1570 C1569 1.334 . S
C1570 C1571 1.287 . S
C1571 C1570 1.287 . S
C1571 C1572 1.524 . S
C1571 H1574 0.999 . S
C1572 H1542 0.950 . S
C1572 C1571 1.524 . S
C1572 C1573 1.415 . S
C1573 H1543 0.950 . S
C1573 C1568 1.363 . S
C1573 C1572 1.415 . S
H1574 C1571 0.999 . S
H1575 C1556 0.913 . S
H1576 C1594 0.951 . S
H1577 C1596 0.951 . S
H1578 C1598 0.950 . S
H1579 C1599 0.950 . S
H1580 C1601 0.950 . S
H1581 C1604 0.950 . S
H1582 C1605 0.950 . S
H1583 C1607 0.942 1_655 S
H1584 C1608 0.950 . S
H1585 C1609 0.951 . S
H1586 C1611 0.951 . S
H1587 C1613 0.950 1_655 S
H1588 C1614 0.950 . S
H1589 C1616 0.951 1_455 S
H1590 C1619 0.950 . S
H1591 C1620 0.950 . S
H1592 C1622 0.950 . S
H1593 C1623 0.950 . S
C1594 H1576 0.951 . S
C1594 C1595 1.366 . S
C1594 C1596 1.388 . S
C1595 C1594 1.366 . S
C1595 C1599 1.385 . S
C1596 H1577 0.951 . S
C1596 C1594 1.388 . S
C1596 C1597 1.366 . S
C1597 C1596 1.366 . S
C1597 C1598 1.414 . S
C1597 C1600 1.499 . S
C1598 H1578 0.950 . S
C1598 C1597 1.414 . S
C1598 C1599 1.374 . S
C1599 H1579 0.950 . S
C1599 C1595 1.385 . S
C1599 C1598 1.374 . S
C1600 C1597 1.499 . S
C1600 C1601 1.373 . S
C1600 C1602 1.389 . S
C1601 H1580 0.950 . S
C1601 C1600 1.373 . S
C1601 C1617 1.377 . S
C1602 C1600 1.389 . S
C1602 C1603 1.524 . S
C1602 C1616 1.375 . S
C1603 C1602 1.524 . S
C1603 C1604 1.397 1_655 S
C1603 C1608 1.363 . S
C1604 H1581 0.950 . S
C1604 C1603 1.397 1_455 S
C1604 C1605 1.334 . S
C1605 H1582 0.950 . S
C1605 C1604 1.334 . S
C1605 C1606 1.287 . S
C1606 C1605 1.287 . S
C1606 C1607 1.524 . S
C1606 H1625 0.913 . S
C1607 H1583 0.942 1_455 S
C1607 C1606 1.524 . S
C1607 C1608 1.415 1_455 S
C1608 H1584 0.950 . S
C1608 C1603 1.363 . S
C1608 C1607 1.415 1_655 S
C1609 H1585 0.951 . S
C1609 C1610 1.366 . S
C1609 C1611 1.388 . S
C1610 C1609 1.366 . S
C1610 C1614 1.385 . S
C1611 H1586 0.951 . S
C1611 C1609 1.388 . S
C1611 C1612 1.366 . S
C1612 C1611 1.366 . S
C1612 C1613 1.414 . S
C1612 C1615 1.499 1_455 S
C1613 H1587 0.950 1_455 S
C1613 C1612 1.414 . S
C1613 C1614 1.374 . S
C1614 H1588 0.950 . S
C1614 C1610 1.385 . S
C1614 C1613 1.374 . S
C1615 C1612 1.499 1_655 S
C1615 C1616 1.374 . S
C1615 C1617 1.389 . S
C1616 H1589 0.951 1_655 S
C1616 C1602 1.375 . S
C1616 C1615 1.374 . S
C1617 C1601 1.377 . S
C1617 C1615 1.389 . S
C1617 C1618 1.524 . S
C1618 C1617 1.524 . S
C1618 C1619 1.397 . S
C1618 C1623 1.363 1_545 S
C1619 H1590 0.950 . S
C1619 C1618 1.397 . S
C1619 C1620 1.334 1_545 S
C1620 H1591 0.950 . S
C1620 C1619 1.334 1_565 S
C1620 C1621 1.287 . S
C1621 C1620 1.287 . S
C1621 C1622 1.524 . S
C1621 H1624 0.999 . S
C1622 H1592 0.950 . S
C1622 C1621 1.524 . S
C1622 C1623 1.415 . S
C1623 H1593 0.950 . S
C1623 C1618 1.363 1_565 S
C1623 C1622 1.415 . S
H1624 C1621 0.999 . S
H1625 C1606 0.913 . S
H1626 C1644 0.951 . S
H1627 C1646 0.951 . S
H1628 C1648 0.950 . S
H1629 C1649 0.950 . S
H1630 C1651 0.950 . S
H1631 C1654 0.950 . S
H1632 C1655 0.950 . S
H1633 C1657 0.950 . S
H1634 C1658 0.950 . S
H1635 C1659 0.951 . S
H1636 C1661 0.951 . S
H1637 C1663 0.950 . S
H1638 C1664 0.950 . S
H1639 C1666 0.950 . S
H1640 C1669 0.950 . S
H1641 C1670 0.950 . S
H1642 C1672 0.950 . S
H1643 C1673 0.950 . S
C1644 H1626 0.951 . S
C1644 C1645 1.366 . S
C1644 C1646 1.388 . S
C1645 C1644 1.366 . S
C1645 C1649 1.385 . S
C1646 H1627 0.951 . S
C1646 C1644 1.388 . S
C1646 C1647 1.366 . S
C1647 C1646 1.366 . S
C1647 C1648 1.414 . S
C1647 C1650 1.499 . S
C1648 H1628 0.950 . S
C1648 C1647 1.414 . S
C1648 C1649 1.374 . S
C1649 H1629 0.950 . S
C1649 C1645 1.385 . S
C1649 C1648 1.374 . S
C1650 C1647 1.499 . S
C1650 C1651 1.373 . S
C1650 C1652 1.389 . S
C1651 H1630 0.950 . S
C1651 C1650 1.373 . S
C1651 C1667 1.377 . S
C1652 C1650 1.389 . S
C1652 C1653 1.524 . S
C1652 C1666 1.377 . S
C1653 C1652 1.524 . S
C1653 C1654 1.397 . S
C1653 C1658 1.363 . S
C1654 H1631 0.950 . S
C1654 C1653 1.397 . S
C1654 C1655 1.334 . S
C1655 H1632 0.950 . S
C1655 C1654 1.334 . S
C1655 C1656 1.287 . S
C1656 C1655 1.287 . S
C1656 C1657 1.524 . S
C1656 H1675 0.913 . S
C1657 H1633 0.950 . S
C1657 C1656 1.524 . S
C1657 C1658 1.415 . S
C1658 H1634 0.950 . S
C1658 C1653 1.363 . S
C1658 C1657 1.415 . S
C1659 H1635 0.951 . S
C1659 C1660 1.366 . S
C1659 C1661 1.388 . S
C1660 C1659 1.366 . S
C1660 C1664 1.385 . S
C1661 H1636 0.951 . S
C1661 C1659 1.388 . S
C1661 C1662 1.366 . S
C1662 C1661 1.366 . S
C1662 C1663 1.414 . S
C1662 C1665 1.499 . S
C1663 H1637 0.950 . S
C1663 C1662 1.414 . S
C1663 C1664 1.374 . S
C1664 H1638 0.950 . S
C1664 C1660 1.385 . S
C1664 C1663 1.374 . S
C1665 C1662 1.499 . S
C1665 C1666 1.373 . S
C1665 C1667 1.389 . S
C1666 H1639 0.950 . S
C1666 C1652 1.377 . S
C1666 C1665 1.373 . S
C1667 C1651 1.377 . S
C1667 C1665 1.389 . S
C1667 C1668 1.524 . S
C1668 C1667 1.524 . S
C1668 C1669 1.397 . S
C1668 C1673 1.363 . S
C1669 H1640 0.950 . S
C1669 C1668 1.397 . S
C1669 C1670 1.334 . S
C1670 H1641 0.950 . S
C1670 C1669 1.334 . S
C1670 C1671 1.287 . S
C1671 C1670 1.287 . S
C1671 C1672 1.524 . S
C1671 H1674 0.999 . S
C1672 H1642 0.950 . S
C1672 C1671 1.524 . S
C1672 C1673 1.415 . S
C1673 H1643 0.950 . S
C1673 C1668 1.363 . S
C1673 C1672 1.415 . S
H1674 C1671 0.999 . S
H1675 C1656 0.913 . S
H1676 C1694 0.951 . S
H1677 C1696 0.951 . S
H1678 C1698 0.950 . S
H1679 C1699 0.950 . S
H1680 C1701 0.950 . S
H1681 C1704 0.950 . S
H1682 C1705 0.950 . S
H1683 C1707 0.950 . S
H1684 C1708 0.950 . S
H1685 C1709 0.951 . S
H1686 C1711 0.951 . S
H1687 C1713 0.950 . S
H1688 C1714 0.950 . S
H1689 C1716 0.950 . S
H1690 C1719 0.950 . S
H1691 C1720 0.950 1_565 S
H1692 C1722 0.950 . S
H1693 C1723 0.950 . S
C1694 H1676 0.951 . S
C1694 C1695 1.366 . S
C1694 C1696 1.388 . S
C1695 C1694 1.366 . S
C1695 C1699 1.385 . S
C1696 H1677 0.951 . S
C1696 C1694 1.388 . S
C1696 C1697 1.366 . S
C1697 C1696 1.366 . S
C1697 C1698 1.414 . S
C1697 C1700 1.499 . S
C1698 H1678 0.950 . S
C1698 C1697 1.414 . S
C1698 C1699 1.374 . S
C1699 H1679 0.950 . S
C1699 C1695 1.385 . S
C1699 C1698 1.374 . S
C1700 C1697 1.499 . S
C1700 C1701 1.373 . S
C1700 C1702 1.389 . S
C1701 H1680 0.950 . S
C1701 C1700 1.373 . S
C1701 C1717 1.377 . S
C1702 C1700 1.389 . S
C1702 C1703 1.524 . S
C1702 C1716 1.377 . S
C1703 C1702 1.524 . S
C1703 C1704 1.397 . S
C1703 C1708 1.363 . S
C1704 H1681 0.950 . S
C1704 C1703 1.397 . S
C1704 C1705 1.334 . S
C1705 H1682 0.950 . S
C1705 C1704 1.334 . S
C1705 C1706 1.287 . S
C1706 C1705 1.287 . S
C1706 C1707 1.524 . S
C1706 H1725 0.913 . S
C1707 H1683 0.950 . S
C1707 C1706 1.524 . S
C1707 C1708 1.415 . S
C1708 H1684 0.950 . S
C1708 C1703 1.363 . S
C1708 C1707 1.415 . S
C1709 H1685 0.951 . S
C1709 C1710 1.366 . S
C1709 C1711 1.388 . S
C1710 C1709 1.366 . S
C1710 C1714 1.385 . S
C1711 H1686 0.951 . S
C1711 C1709 1.388 . S
C1711 C1712 1.366 . S
C1712 C1711 1.366 . S
C1712 C1713 1.414 . S
C1712 C1715 1.499 . S
C1713 H1687 0.950 . S
C1713 C1712 1.414 . S
C1713 C1714 1.374 . S
C1714 H1688 0.950 . S
C1714 C1710 1.385 . S
C1714 C1713 1.374 . S
C1715 C1712 1.499 . S
C1715 C1716 1.373 . S
C1715 C1717 1.389 . S
C1716 H1689 0.950 . S
C1716 C1702 1.377 . S
C1716 C1715 1.373 . S
C1717 C1701 1.377 . S
C1717 C1715 1.389 . S
C1717 C1718 1.524 . S
C1718 C1717 1.524 . S
C1718 C1719 1.397 . S
C1718 C1723 1.363 . S
C1719 H1690 0.950 . S
C1719 C1718 1.397 . S
C1719 C1720 1.334 . S
C1720 H1691 0.950 1_545 S
C1720 C1719 1.334 . S
C1720 C1721 1.287 . S
C1721 C1720 1.287 . S
C1721 C1722 1.524 . S
C1721 H1724 0.999 1_545 S
C1722 H1692 0.950 . S
C1722 C1721 1.524 . S
C1722 C1723 1.415 . S
C1723 H1693 0.950 . S
C1723 C1718 1.363 . S
C1723 C1722 1.415 . S
H1724 C1721 0.999 1_565 S
H1725 C1706 0.913 . S
H1726 C1744 0.951 . S
H1727 C1746 0.951 . S
H1728 C1748 0.950 . S
H1729 C1749 0.950 . S
H1730 C1751 0.950 . S
H1731 C1754 0.950 . S
H1732 C1755 0.950 . S
H1733 C1757 0.950 . S
H1734 C1758 0.950 . S
H1735 C1759 0.951 . S
H1736 C1761 0.951 . S
H1737 C1763 0.950 . S
H1738 C1764 0.950 . S
H1739 C1766 0.950 . S
H1740 C1769 0.950 . S
H1741 C1770 0.950 . S
H1742 C1772 0.950 . S
H1743 C1773 0.950 . S
C1744 H1726 0.951 . S
C1744 C1745 1.366 . S
C1744 C1746 1.388 . S
C1745 C1744 1.366 . S
C1745 C1749 1.385 . S
C1746 H1727 0.951 . S
C1746 C1744 1.388 . S
C1746 C1747 1.366 . S
C1747 C1746 1.366 . S
C1747 C1748 1.414 . S
C1747 C1750 1.499 . S
C1748 H1728 0.950 . S
C1748 C1747 1.414 . S
C1748 C1749 1.374 . S
C1749 H1729 0.950 . S
C1749 C1745 1.385 . S
C1749 C1748 1.374 . S
C1750 C1747 1.499 . S
C1750 C1751 1.373 . S
C1750 C1752 1.389 . S
C1751 H1730 0.950 . S
C1751 C1750 1.373 . S
C1751 C1767 1.377 . S
C1752 C1750 1.389 . S
C1752 C1753 1.524 . S
C1752 C1766 1.377 . S
C1753 C1752 1.524 . S
C1753 C1754 1.397 . S
C1753 C1758 1.363 . S
C1754 H1731 0.950 . S
C1754 C1753 1.397 . S
C1754 C1755 1.334 . S
C1755 H1732 0.950 . S
C1755 C1754 1.334 . S
C1755 C1756 1.287 . S
C1756 C1755 1.287 . S
C1756 C1757 1.524 . S
C1756 H1775 0.913 . S
C1757 H1733 0.950 . S
C1757 C1756 1.524 . S
C1757 C1758 1.415 . S
C1758 H1734 0.950 . S
C1758 C1753 1.363 . S
C1758 C1757 1.415 . S
C1759 H1735 0.951 . S
C1759 C1760 1.366 . S
C1759 C1761 1.388 . S
C1760 C1759 1.366 . S
C1760 C1764 1.385 . S
C1761 H1736 0.951 . S
C1761 C1759 1.388 . S
C1761 C1762 1.366 . S
C1762 C1761 1.366 . S
C1762 C1763 1.414 . S
C1762 C1765 1.499 . S
C1763 H1737 0.950 . S
C1763 C1762 1.414 . S
C1763 C1764 1.374 . S
C1764 H1738 0.950 . S
C1764 C1760 1.385 . S
C1764 C1763 1.374 . S
C1765 C1762 1.499 . S
C1765 C1766 1.373 . S
C1765 C1767 1.389 . S
C1766 H1739 0.950 . S
C1766 C1752 1.377 . S
C1766 C1765 1.373 . S
C1767 C1751 1.377 . S
C1767 C1765 1.389 . S
C1767 C1768 1.524 . S
C1768 C1767 1.524 . S
C1768 C1769 1.397 . S
C1768 C1773 1.363 . S
C1769 H1740 0.950 . S
C1769 C1768 1.397 . S
C1769 C1770 1.334 . S
C1770 H1741 0.950 . S
C1770 C1769 1.334 . S
C1770 C1771 1.287 . S
C1771 C1770 1.287 . S
C1771 C1772 1.524 . S
C1771 H1774 0.999 . S
C1772 H1742 0.950 . S
C1772 C1771 1.524 . S
C1772 C1773 1.415 . S
C1773 H1743 0.950 . S
C1773 C1768 1.363 . S
C1773 C1772 1.415 . S
H1774 C1771 0.999 . S
H1775 C1756 0.913 . S
H1776 C1794 0.951 . S
H1777 C1796 0.918 1_556 S
H1778 C1798 0.950 . S
H1779 C1799 0.950 . S
H1780 C1801 0.950 . S
H1781 C1804 0.950 . S
H1782 C1805 0.950 1_545 S
H1783 C1807 0.950 . S
H1784 C1808 0.950 . S
H1785 C1809 0.965 . S
H1786 C1811 0.951 . S
H1787 C1813 0.950 . S
H1788 C1814 0.950 . S
H1789 C1816 0.950 . S
H1790 C1819 0.950 . S
H1791 C1820 0.950 . S
H1792 C1822 0.950 . S
H1793 C1823 0.950 . S
C1794 H1776 0.951 . S
C1794 C1795 1.366 1_556 S
C1794 C1796 1.380 1_556 S
C1795 C1794 1.366 1_554 S
C1795 C1799 1.385 . S
C1796 H1777 0.918 1_554 S
C1796 C1794 1.380 1_554 S
C1796 C1797 1.407 . S
C1797 C1796 1.407 . S
C1797 C1798 1.414 . S
C1797 C1800 1.499 . S
C1798 H1778 0.950 . S
C1798 C1797 1.414 . S
C1798 C1799 1.374 . S
C1799 H1779 0.950 . S
C1799 C1795 1.385 . S
C1799 C1798 1.374 . S
C1800 C1797 1.499 . S
C1800 C1801 1.373 . S
C1800 C1802 1.389 . S
C1801 H1780 0.950 . S
C1801 C1800 1.373 . S
C1801 C1817 1.377 . S
C1802 C1800 1.389 . S
C1802 C1803 1.524 1_554 S
C1802 C1816 1.377 . S
C1803 C1802 1.524 1_556 S
C1803 C1804 1.397 1_556 S
C1803 C1808 1.363 . S
C1804 H1781 0.950 . S
C1804 C1803 1.397 1_554 S
C1804 C1805 1.334 1_554 S
C1805 H1782 0.950 1_565 S
C1805 C1804 1.334 1_556 S
C1805 C1806 1.287 . S
C1806 C1805 1.287 . S
C1806 C1807 1.524 . S
C1806 H1825 0.913 1_565 S
C1807 H1783 0.950 . S
C1807 C1806 1.524 . S
C1807 C1808 1.415 . S
C1808 H1784 0.950 . S
C1808 C1803 1.363 . S
C1808 C1807 1.415 . S
C1809 H1785 0.965 . S
C1809 C1810 1.366 . S
C1809 C1811 1.388 . S
C1810 C1809 1.366 . S
C1810 C1814 1.385 . S
C1811 H1786 0.951 . S
C1811 C1809 1.388 . S
C1811 C1812 1.366 . S
C1812 C1811 1.366 . S
C1812 C1813 1.414 . S
C1812 C1815 1.499 . S
C1813 H1787 0.950 . S
C1813 C1812 1.414 . S
C1813 C1814 1.374 . S
C1814 H1788 0.950 . S
C1814 C1810 1.385 . S
C1814 C1813 1.374 . S
C1815 C1812 1.499 . S
C1815 C1816 1.373 . S
C1815 C1817 1.389 . S
C1816 H1789 0.950 . S
C1816 C1802 1.377 . S
C1816 C1815 1.373 . S
C1817 C1801 1.377 . S
C1817 C1815 1.389 . S
C1817 C1818 1.524 . S
C1818 C1817 1.524 . S
C1818 C1819 1.397 . S
C1818 C1823 1.363 . S
C1819 H1790 0.950 . S
C1819 C1818 1.397 . S
C1819 C1820 1.334 . S
C1820 H1791 0.950 . S
C1820 C1819 1.334 . S
C1820 C1821 1.287 . S
C1821 C1820 1.287 . S
C1821 C1822 1.524 . S
C1821 H1824 0.999 . S
C1822 H1792 0.950 . S
C1822 C1821 1.524 . S
C1822 C1823 1.415 . S
C1823 H1793 0.950 . S
C1823 C1818 1.363 . S
C1823 C1822 1.415 . S
H1824 C1821 0.999 . S
H1825 C1806 0.913 1_545 S
H1826 C1844 0.951 . S
H1827 C1846 0.951 . S
H1828 C1848 0.950 . S
H1829 C1849 0.950 . S
H1830 C1851 0.950 . S
H1831 C1854 0.950 . S
H1832 C1855 0.950 . S
H1833 C1857 0.950 . S
H1834 C1858 0.950 . S
H1835 C1859 0.951 . S
H1836 C1861 0.951 . S
H1837 C1863 0.950 . S
H1838 C1864 0.950 . S
H1839 C1866 0.950 . S
H1840 C1869 0.950 . S
H1841 C1870 0.950 . S
H1842 C1872 0.950 . S
H1843 C1873 0.950 . S
C1844 H1826 0.951 . S
C1844 C1845 1.366 . S
C1844 C1846 1.388 . S
C1845 C1844 1.366 . S
C1845 C1849 1.385 1_556 S
C1846 H1827 0.951 . S
C1846 C1844 1.388 . S
C1846 C1847 1.366 . S
C1847 C1846 1.366 . S
C1847 C1848 1.414 1_556 S
C1847 C1850 1.504 . S
C1848 H1828 0.950 . S
C1848 C1847 1.414 1_554 S
C1848 C1849 1.374 . S
C1849 H1829 0.950 . S
C1849 C1845 1.385 1_554 S
C1849 C1848 1.374 . S
C1850 C1847 1.504 . S
C1850 C1851 1.352 1_556 S
C1850 C1852 1.405 . S
C1851 H1830 0.950 . S
C1851 C1850 1.352 1_554 S
C1851 C1867 1.377 . S
C1852 C1850 1.405 . S
C1852 C1853 1.524 . S
C1852 C1866 1.377 . S
C1853 C1852 1.524 . S
C1853 C1854 1.397 . S
C1853 C1858 1.363 . S
C1854 H1831 0.950 . S
C1854 C1853 1.397 . S
C1854 C1855 1.334 . S
C1855 H1832 0.950 . S
C1855 C1854 1.334 . S
C1855 C1856 1.287 . S
C1856 C1855 1.287 . S
C1856 C1857 1.524 . S
C1856 H1875 0.913 . S
C1857 H1833 0.950 . S
C1857 C1856 1.524 . S
C1857 C1858 1.415 . S
C1858 H1834 0.950 . S
C1858 C1853 1.363 . S
C1858 C1857 1.415 . S
C1859 H1835 0.951 . S
C1859 C1860 1.366 . S
C1859 C1861 1.388 . S
C1860 C1859 1.366 . S
C1860 C1864 1.385 1_554 S
C1861 H1836 0.951 . S
C1861 C1859 1.388 . S
C1861 C1862 1.366 . S
C1862 C1861 1.366 . S
C1862 C1863 1.414 1_554 S
C1862 C1865 1.499 . S
C1863 H1837 0.950 . S
C1863 C1862 1.414 1_556 S
C1863 C1864 1.374 . S
C1864 H1838 0.950 . S
C1864 C1860 1.385 1_556 S
C1864 C1863 1.374 . S
C1865 C1862 1.499 . S
C1865 C1866 1.373 1_554 S
C1865 C1867 1.389 . S
C1866 H1839 0.950 . S
C1866 C1852 1.377 . S
C1866 C1865 1.373 1_556 S
C1867 C1851 1.377 . S
C1867 C1865 1.389 . S
C1867 C1868 1.524 . S
C1868 C1867 1.524 . S
C1868 C1869 1.397 . S
C1868 C1873 1.363 . S
C1869 H1840 0.950 . S
C1869 C1868 1.397 . S
C1869 C1870 1.334 . S
C1870 H1841 0.950 . S
C1870 C1869 1.334 . S
C1870 C1871 1.287 . S
C1871 C1870 1.287 . S
C1871 C1872 1.524 . S
C1871 H1874 0.999 . S
C1872 H1842 0.950 . S
C1872 C1871 1.524 . S
C1872 C1873 1.415 . S
C1873 H1843 0.950 . S
C1873 C1868 1.363 . S
C1873 C1872 1.415 . S
H1874 C1871 0.999 . S
H1875 C1856 0.913 . S
H1876 C1894 0.951 . S
H1877 C1896 0.951 . S
H1878 C1898 0.950 . S
H1879 C1899 0.950 . S
H1880 C1901 0.950 . S
H1881 C1904 0.950 . S
H1882 C1905 0.950 . S
H1883 C1907 0.950 . S
H1884 C1908 0.950 . S
H1885 C1909 0.951 . S
H1886 C1911 0.951 . S
H1887 C1913 0.950 . S
H1888 C1914 0.950 . S
H1889 C1916 0.950 . S
H1890 C1919 0.950 . S
H1891 C1920 0.950 . S
H1892 C1922 0.950 . S
H1893 C1923 0.950 . S
C1894 H1876 0.951 . S
C1894 C1895 1.366 . S
C1894 C1896 1.388 . S
C1895 C1894 1.366 . S
C1895 C1899 1.385 . S
C1896 H1877 0.951 . S
C1896 C1894 1.388 . S
C1896 C1897 1.366 . S
C1897 C1896 1.366 . S
C1897 C1898 1.414 . S
C1897 C1900 1.499 . S
C1898 H1878 0.950 . S
C1898 C1897 1.414 . S
C1898 C1899 1.374 . S
C1899 H1879 0.950 . S
C1899 C1895 1.385 . S
C1899 C1898 1.374 . S
C1900 C1897 1.499 . S
C1900 C1901 1.373 . S
C1900 C1902 1.389 . S
C1901 H1880 0.950 . S
C1901 C1900 1.373 . S
C1901 C1917 1.377 . S
C1902 C1900 1.389 . S
C1902 C1903 1.524 . S
C1902 C1916 1.377 . S
C1903 C1902 1.524 . S
C1903 C1904 1.397 . S
C1903 C1908 1.363 . S
C1904 H1881 0.950 . S
C1904 C1903 1.397 . S
C1904 C1905 1.334 . S
C1905 H1882 0.950 . S
C1905 C1904 1.334 . S
C1905 C1906 1.287 . S
C1906 C1905 1.287 . S
C1906 C1907 1.524 . S
C1906 H1925 0.913 . S
C1907 H1883 0.950 . S
C1907 C1906 1.524 . S
C1907 C1908 1.415 . S
C1908 H1884 0.950 . S
C1908 C1903 1.363 . S
C1908 C1907 1.415 . S
C1909 H1885 0.951 . S
C1909 C1910 1.366 . S
C1909 C1911 1.388 . S
C1910 C1909 1.366 . S
C1910 C1914 1.385 . S
C1911 H1886 0.951 . S
C1911 C1909 1.388 . S
C1911 C1912 1.366 . S
C1912 C1911 1.366 . S
C1912 C1913 1.414 . S
C1912 C1915 1.499 . S
C1913 H1887 0.950 . S
C1913 C1912 1.414 . S
C1913 C1914 1.374 . S
C1914 H1888 0.950 . S
C1914 C1910 1.385 . S
C1914 C1913 1.374 . S
C1915 C1912 1.499 . S
C1915 C1916 1.373 . S
C1915 C1917 1.389 . S
C1916 H1889 0.950 . S
C1916 C1902 1.377 . S
C1916 C1915 1.373 . S
C1917 C1901 1.377 . S
C1917 C1915 1.389 . S
C1917 C1918 1.524 . S
C1918 C1917 1.524 . S
C1918 C1919 1.397 . S
C1918 C1923 1.363 . S
C1919 H1890 0.950 . S
C1919 C1918 1.397 . S
C1919 C1920 1.334 . S
C1920 H1891 0.950 . S
C1920 C1919 1.334 . S
C1920 C1921 1.287 . S
C1921 C1920 1.287 . S
C1921 C1922 1.524 . S
C1921 H1924 0.999 . S
C1922 H1892 0.950 . S
C1922 C1921 1.524 . S
C1922 C1923 1.415 . S
C1923 H1893 0.950 . S
C1923 C1918 1.363 . S
C1923 C1922 1.415 . S
H1924 C1921 0.999 . S
H1925 C1906 0.913 . S
H1926 C1944 0.951 . S
H1927 C1946 0.951 . S
H1928 C1948 0.950 . S
H1929 C1949 0.950 . S
H1930 C1951 0.950 . S
H1931 C1954 0.950 . S
H1932 C1955 0.950 . S
H1933 C1957 0.950 . S
H1934 C1958 0.950 . S
H1935 C1959 0.951 . S
H1936 C1961 0.951 . S
H1937 C1963 0.950 . S
H1938 C1964 0.950 . S
H1939 C1966 0.950 . S
H1940 C1969 0.950 . S
H1941 C1970 0.950 . S
H1942 C1972 0.950 . S
H1943 C1973 0.950 . S
C1944 H1926 0.951 . S
C1944 C1945 1.366 . S
C1944 C1946 1.388 . S
C1945 C1944 1.366 . S
C1945 C1949 1.385 . S
C1946 H1927 0.951 . S
C1946 C1944 1.388 . S
C1946 C1947 1.366 . S
C1947 C1946 1.366 . S
C1947 C1948 1.414 . S
C1947 C1950 1.499 . S
C1948 H1928 0.950 . S
C1948 C1947 1.414 . S
C1948 C1949 1.374 . S
C1949 H1929 0.950 . S
C1949 C1945 1.385 . S
C1949 C1948 1.374 . S
C1950 C1947 1.499 . S
C1950 C1951 1.373 . S
C1950 C1952 1.389 . S
C1951 H1930 0.950 . S
C1951 C1950 1.373 . S
C1951 C1967 1.377 . S
C1952 C1950 1.389 . S
C1952 C1953 1.524 . S
C1952 C1966 1.377 . S
C1953 C1952 1.524 . S
C1953 C1954 1.397 . S
C1953 C1958 1.363 . S
C1954 H1931 0.950 . S
C1954 C1953 1.397 . S
C1954 C1955 1.334 . S
C1955 H1932 0.950 . S
C1955 C1954 1.334 . S
C1955 C1956 1.287 . S
C1956 C1955 1.287 . S
C1956 C1957 1.524 . S
C1956 H1975 0.913 . S
C1957 H1933 0.950 . S
C1957 C1956 1.524 . S
C1957 C1958 1.415 . S
C1958 H1934 0.950 . S
C1958 C1953 1.363 . S
C1958 C1957 1.415 . S
C1959 H1935 0.951 . S
C1959 C1960 1.366 . S
C1959 C1961 1.388 . S
C1960 C1959 1.366 . S
C1960 C1964 1.385 . S
C1961 H1936 0.951 . S
C1961 C1959 1.388 . S
C1961 C1962 1.366 . S
C1962 C1961 1.366 . S
C1962 C1963 1.414 . S
C1962 C1965 1.499 . S
C1963 H1937 0.950 . S
C1963 C1962 1.414 . S
C1963 C1964 1.374 . S
C1964 H1938 0.950 . S
C1964 C1960 1.385 . S
C1964 C1963 1.374 . S
C1965 C1962 1.499 . S
C1965 C1966 1.373 . S
C1965 C1967 1.389 . S
C1966 H1939 0.950 . S
C1966 C1952 1.377 . S
C1966 C1965 1.373 . S
C1967 C1951 1.377 . S
C1967 C1965 1.389 . S
C1967 C1968 1.524 . S
C1968 C1967 1.524 . S
C1968 C1969 1.397 . S
C1968 C1973 1.363 . S
C1969 H1940 0.950 . S
C1969 C1968 1.397 . S
C1969 C1970 1.334 . S
C1970 H1941 0.950 . S
C1970 C1969 1.334 . S
C1970 C1971 1.287 . S
C1971 C1970 1.287 . S
C1971 C1972 1.524 . S
C1971 H1974 0.999 . S
C1972 H1942 0.950 . S
C1972 C1971 1.524 . S
C1972 C1973 1.415 . S
C1973 H1943 0.950 . S
C1973 C1968 1.363 . S
C1973 C1972 1.415 . S
H1974 C1971 0.999 . S
H1975 C1956 0.913 . S
H1976 C1994 0.951 . S
H1977 C1996 0.951 . S
H1978 C1998 0.950 . S
H1979 C1999 0.950 . S
H1980 C2001 0.950 . S
H1981 C2004 0.950 . S
H1982 C2005 0.950 . S
H1983 C2007 0.950 . S
H1984 C2008 0.950 . S
H1985 C2009 0.951 . S
H1986 C2011 0.951 . S
H1987 C2013 0.950 . S
H1988 C2014 0.950 . S
H1989 C2016 0.950 . S
H1990 C2019 0.950 . S
H1991 C2020 0.950 . S
H1992 C2022 0.950 . S
H1993 C2023 0.950 . S
C1994 H1976 0.951 . S
C1994 C1995 1.366 . S
C1994 C1996 1.388 . S
C1995 C1994 1.366 . S
C1995 C1999 1.385 . S
C1996 H1977 0.951 . S
C1996 C1994 1.388 . S
C1996 C1997 1.366 . S
C1997 C1996 1.366 . S
C1997 C1998 1.414 . S
C1997 C2000 1.499 . S
C1998 H1978 0.950 . S
C1998 C1997 1.414 . S
C1998 C1999 1.374 . S
C1999 H1979 0.950 . S
C1999 C1995 1.385 . S
C1999 C1998 1.374 . S
C2000 C1997 1.499 . S
C2000 C2001 1.373 . S
C2000 C2002 1.389 . S
C2001 H1980 0.950 . S
C2001 C2000 1.373 . S
C2001 C2017 1.377 . S
C2002 C2000 1.389 . S
C2002 C2003 1.524 . S
C2002 C2016 1.377 . S
C2003 C2002 1.524 . S
C2003 C2004 1.397 . S
C2003 C2008 1.363 . S
C2004 H1981 0.950 . S
C2004 C2003 1.397 . S
C2004 C2005 1.334 . S
C2005 H1982 0.950 . S
C2005 C2004 1.334 . S
C2005 C2006 1.287 . S
C2006 C2005 1.287 . S
C2006 C2007 1.524 . S
C2006 H2025 0.913 . S
C2007 H1983 0.950 . S
C2007 C2006 1.524 . S
C2007 C2008 1.415 . S
C2008 H1984 0.950 . S
C2008 C2003 1.363 . S
C2008 C2007 1.415 . S
C2009 H1985 0.951 . S
C2009 C2010 1.366 . S
C2009 C2011 1.388 . S
C2010 C2009 1.366 . S
C2010 C2014 1.385 . S
C2011 H1986 0.951 . S
C2011 C2009 1.388 . S
C2011 C2012 1.366 . S
C2012 C2011 1.366 . S
C2012 C2013 1.414 . S
C2012 C2015 1.499 . S
C2013 H1987 0.950 . S
C2013 C2012 1.414 . S
C2013 C2014 1.374 . S
C2014 H1988 0.950 . S
C2014 C2010 1.385 . S
C2014 C2013 1.374 . S
C2015 C2012 1.499 . S
C2015 C2016 1.373 . S
C2015 C2017 1.389 . S
C2016 H1989 0.950 . S
C2016 C2002 1.377 . S
C2016 C2015 1.373 . S
C2017 C2001 1.377 . S
C2017 C2015 1.389 . S
C2017 C2018 1.524 . S
C2018 C2017 1.524 . S
C2018 C2019 1.397 . S
C2018 C2023 1.363 . S
C2019 H1990 0.950 . S
C2019 C2018 1.397 . S
C2019 C2020 1.334 . S
C2020 H1991 0.950 . S
C2020 C2019 1.334 . S
C2020 C2021 1.287 . S
C2021 C2020 1.287 . S
C2021 C2022 1.524 . S
C2021 H2024 0.999 . S
C2022 H1992 0.950 . S
C2022 C2021 1.524 . S
C2022 C2023 1.415 . S
C2023 H1993 0.950 . S
C2023 C2018 1.363 . S
C2023 C2022 1.415 . S
H2024 C2021 0.999 . S
H2025 C2006 0.913 . S
H2026 C2044 0.951 . S
H2027 C2046 0.951 . S
H2028 C2048 0.950 . S
H2029 C2049 0.950 . S
H2030 C2051 0.950 . S
H2031 C2054 0.950 . S
H2032 C2055 0.950 . S
H2033 C2057 0.950 . S
H2034 C2058 0.950 . S
H2035 C2059 0.951 . S
H2036 C2061 0.951 . S
H2037 C2063 0.950 . S
H2038 C2064 0.950 . S
H2039 C2066 0.950 . S
H2040 C2069 0.950 . S
H2041 C2070 0.950 . S
H2042 C2072 0.950 . S
H2043 C2073 0.950 . S
C2044 H2026 0.951 . S
C2044 C2045 1.366 . S
C2044 C2046 1.388 . S
C2045 C2044 1.366 . S
C2045 C2049 1.385 . S
C2046 H2027 0.951 . S
C2046 C2044 1.388 . S
C2046 C2047 1.366 . S
C2047 C2046 1.366 . S
C2047 C2048 1.414 . S
C2047 C2050 1.499 . S
C2048 H2028 0.950 . S
C2048 C2047 1.414 . S
C2048 C2049 1.374 . S
C2049 H2029 0.950 . S
C2049 C2045 1.385 . S
C2049 C2048 1.374 . S
C2050 C2047 1.499 . S
C2050 C2051 1.373 . S
C2050 C2052 1.389 . S
C2051 H2030 0.950 . S
C2051 C2050 1.373 . S
C2051 C2067 1.377 . S
C2052 C2050 1.389 . S
C2052 C2053 1.524 . S
C2052 C2066 1.377 . S
C2053 C2052 1.524 . S
C2053 C2054 1.397 . S
C2053 C2058 1.363 . S
C2054 H2031 0.950 . S
C2054 C2053 1.397 . S
C2054 C2055 1.334 . S
C2055 H2032 0.950 . S
C2055 C2054 1.334 . S
C2055 C2056 1.287 . S
C2056 C2055 1.287 . S
C2056 C2057 1.524 . S
C2056 H2075 0.913 . S
C2057 H2033 0.950 . S
C2057 C2056 1.524 . S
C2057 C2058 1.415 . S
C2058 H2034 0.950 . S
C2058 C2053 1.363 . S
C2058 C2057 1.415 . S
C2059 H2035 0.951 . S
C2059 C2060 1.366 . S
C2059 C2061 1.388 . S
C2060 C2059 1.366 . S
C2060 C2064 1.385 . S
C2061 H2036 0.951 . S
C2061 C2059 1.388 . S
C2061 C2062 1.366 . S
C2062 C2061 1.366 . S
C2062 C2063 1.414 . S
C2062 C2065 1.499 . S
C2063 H2037 0.950 . S
C2063 C2062 1.414 . S
C2063 C2064 1.374 . S
C2064 H2038 0.950 . S
C2064 C2060 1.385 . S
C2064 C2063 1.374 . S
C2065 C2062 1.499 . S
C2065 C2066 1.373 . S
C2065 C2067 1.389 . S
C2066 H2039 0.950 . S
C2066 C2052 1.377 . S
C2066 C2065 1.373 . S
C2067 C2051 1.377 . S
C2067 C2065 1.389 . S
C2067 C2068 1.524 . S
C2068 C2067 1.524 . S
C2068 C2069 1.397 . S
C2068 C2073 1.363 . S
C2069 H2040 0.950 . S
C2069 C2068 1.397 . S
C2069 C2070 1.334 . S
C2070 H2041 0.950 . S
C2070 C2069 1.334 . S
C2070 C2071 1.287 . S
C2071 C2070 1.287 . S
C2071 C2072 1.524 . S
C2071 H2074 0.999 . S
C2072 H2042 0.950 . S
C2072 C2071 1.524 . S
C2072 C2073 1.415 . S
C2073 H2043 0.950 . S
C2073 C2068 1.363 . S
C2073 C2072 1.415 . S
H2074 C2071 0.999 . S
H2075 C2056 0.913 . S
H2076 C2094 0.951 . S
H2077 C2096 0.951 . S
H2078 C2098 0.950 . S
H2079 C2099 0.950 . S
H2080 C2101 0.950 . S
H2081 C2104 0.950 . S
H2082 C2105 0.950 . S
H2083 C2107 0.950 . S
H2084 C2108 0.950 . S
H2085 C2109 0.951 . S
H2086 C2111 0.951 . S
H2087 C2113 0.950 . S
H2088 C2114 0.950 . S
H2089 C2116 0.950 . S
H2090 C2119 0.950 . S
H2091 C2120 0.950 . S
H2092 C2122 0.950 . S
H2093 C2123 0.950 . S
C2094 H2076 0.951 . S
C2094 C2095 1.366 . S
C2094 C2096 1.388 . S
C2095 C2094 1.366 . S
C2095 C2099 1.385 . S
C2096 H2077 0.951 . S
C2096 C2094 1.388 . S
C2096 C2097 1.366 . S
C2097 C2096 1.366 . S
C2097 C2098 1.414 . S
C2097 C2100 1.499 . S
C2098 H2078 0.950 . S
C2098 C2097 1.414 . S
C2098 C2099 1.374 . S
C2099 H2079 0.950 . S
C2099 C2095 1.385 . S
C2099 C2098 1.374 . S
C2100 C2097 1.499 . S
C2100 C2101 1.373 . S
C2100 C2102 1.389 . S
C2101 H2080 0.950 . S
C2101 C2100 1.373 . S
C2101 C2117 1.377 . S
C2102 C2100 1.389 . S
C2102 C2103 1.524 . S
C2102 C2116 1.377 . S
C2103 C2102 1.524 . S
C2103 C2104 1.397 . S
C2103 C2108 1.363 . S
C2104 H2081 0.950 . S
C2104 C2103 1.397 . S
C2104 C2105 1.334 . S
C2105 H2082 0.950 . S
C2105 C2104 1.334 . S
C2105 C2106 1.287 . S
C2106 C2105 1.287 . S
C2106 C2107 1.524 . S
C2106 H2125 0.913 . S
C2107 H2083 0.950 . S
C2107 C2106 1.524 . S
C2107 C2108 1.415 . S
C2108 H2084 0.950 . S
C2108 C2103 1.363 . S
C2108 C2107 1.415 . S
C2109 H2085 0.951 . S
C2109 C2110 1.366 . S
C2109 C2111 1.388 . S
C2110 C2109 1.366 . S
C2110 C2114 1.385 . S
C2111 H2086 0.951 . S
C2111 C2109 1.388 . S
C2111 C2112 1.366 . S
C2112 C2111 1.366 . S
C2112 C2113 1.414 . S
C2112 C2115 1.499 . S
C2113 H2087 0.950 . S
C2113 C2112 1.414 . S
C2113 C2114 1.374 . S
C2114 H2088 0.950 . S
C2114 C2110 1.385 . S
C2114 C2113 1.374 . S
C2115 C2112 1.499 . S
C2115 C2116 1.373 . S
C2115 C2117 1.389 . S
C2116 H2089 0.950 . S
C2116 C2102 1.377 . S
C2116 C2115 1.373 . S
C2117 C2101 1.377 . S
C2117 C2115 1.389 . S
C2117 C2118 1.524 . S
C2118 C2117 1.524 . S
C2118 C2119 1.397 . S
C2118 C2123 1.363 . S
C2119 H2090 0.950 . S
C2119 C2118 1.397 . S
C2119 C2120 1.334 . S
C2120 H2091 0.950 . S
C2120 C2119 1.334 . S
C2120 C2121 1.287 . S
C2121 C2120 1.287 . S
C2121 C2122 1.524 . S
C2121 H2124 0.999 . S
C2122 H2092 0.950 . S
C2122 C2121 1.524 . S
C2122 C2123 1.415 . S
C2123 H2093 0.950 . S
C2123 C2118 1.363 . S
C2123 C2122 1.415 . S
H2124 C2121 0.999 . S
H2125 C2106 0.913 . S
H2126 C2144 0.951 . S
H2127 C2146 0.951 . S
H2128 C2148 0.950 . S
H2129 C2149 0.950 . S
H2130 C2151 0.950 . S
H2131 C2154 0.950 . S
H2132 C2155 0.950 . S
H2133 C2157 0.950 . S
H2134 C2158 0.950 . S
H2135 C2159 0.951 . S
H2136 C2161 0.951 . S
H2137 C2163 0.950 . S
H2138 C2164 0.950 . S
H2139 C2166 0.950 . S
H2140 C2169 0.950 . S
H2141 C2170 0.950 . S
H2142 C2172 0.950 . S
H2143 C2173 0.950 . S
C2144 H2126 0.951 . S
C2144 C2145 1.366 . S
C2144 C2146 1.388 . S
C2145 C2144 1.366 . S
C2145 C2149 1.385 . S
C2146 H2127 0.951 . S
C2146 C2144 1.388 . S
C2146 C2147 1.366 . S
C2147 C2146 1.366 . S
C2147 C2148 1.414 . S
C2147 C2150 1.499 . S
C2148 H2128 0.950 . S
C2148 C2147 1.414 . S
C2148 C2149 1.374 . S
C2149 H2129 0.950 . S
C2149 C2145 1.385 . S
C2149 C2148 1.374 . S
C2150 C2147 1.499 . S
C2150 C2151 1.373 . S
C2150 C2152 1.389 . S
C2151 H2130 0.950 . S
C2151 C2150 1.373 . S
C2151 C2167 1.377 . S
C2152 C2150 1.389 . S
C2152 C2153 1.524 . S
C2152 C2166 1.377 . S
C2153 C2152 1.524 . S
C2153 C2154 1.397 . S
C2153 C2158 1.363 . S
C2154 H2131 0.950 . S
C2154 C2153 1.397 . S
C2154 C2155 1.334 . S
C2155 H2132 0.950 . S
C2155 C2154 1.334 . S
C2155 C2156 1.287 . S
C2156 C2155 1.287 . S
C2156 C2157 1.524 . S
C2156 H2175 0.913 . S
C2157 H2133 0.950 . S
C2157 C2156 1.524 . S
C2157 C2158 1.415 . S
C2158 H2134 0.950 . S
C2158 C2153 1.363 . S
C2158 C2157 1.415 . S
C2159 H2135 0.951 . S
C2159 C2160 1.366 . S
C2159 C2161 1.388 . S
C2160 C2159 1.366 . S
C2160 C2164 1.385 . S
C2161 H2136 0.951 . S
C2161 C2159 1.388 . S
C2161 C2162 1.366 . S
C2162 C2161 1.366 . S
C2162 C2163 1.414 . S
C2162 C2165 1.499 . S
C2163 H2137 0.950 . S
C2163 C2162 1.414 . S
C2163 C2164 1.374 . S
C2164 H2138 0.950 . S
C2164 C2160 1.385 . S
C2164 C2163 1.374 . S
C2165 C2162 1.499 . S
C2165 C2166 1.373 . S
C2165 C2167 1.389 . S
C2166 H2139 0.950 . S
C2166 C2152 1.377 . S
C2166 C2165 1.373 . S
C2167 C2151 1.377 . S
C2167 C2165 1.389 . S
C2167 C2168 1.524 . S
C2168 C2167 1.524 . S
C2168 C2169 1.397 . S
C2168 C2173 1.363 . S
C2169 H2140 0.950 . S
C2169 C2168 1.397 . S
C2169 C2170 1.334 . S
C2170 H2141 0.950 . S
C2170 C2169 1.334 . S
C2170 C2171 1.287 . S
C2171 C2170 1.287 . S
C2171 C2172 1.524 . S
C2171 H2174 0.999 . S
C2172 H2142 0.950 . S
C2172 C2171 1.524 . S
C2172 C2173 1.415 . S
C2173 H2143 0.950 . S
C2173 C2168 1.363 . S
C2173 C2172 1.415 . S
H2174 C2171 0.999 . S
H2175 C2156 0.913 . S
H2176 C2194 0.951 . S
H2177 C2196 0.951 . S
H2178 C2198 0.950 . S
H2179 C2199 0.950 . S
H2180 C2201 0.950 . S
H2181 C2204 0.950 . S
H2182 C2205 0.950 . S
H2183 C2207 0.950 1_556 S
H2184 C2208 0.950 . S
H2185 C2209 0.951 . S
H2186 C2211 0.951 . S
H2187 C2213 0.950 . S
H2188 C2214 0.950 1_556 S
H2189 C2216 0.950 . S
H2190 C2219 0.950 . S
H2191 C2220 0.950 1_655 S
H2192 C2222 0.950 . S
H2193 C2223 0.950 . S
C2194 H2176 0.951 . S
C2194 C2195 1.366 . S
C2194 C2196 1.388 . S
C2195 C2194 1.366 . S
C2195 C2199 1.385 . S
C2196 H2177 0.951 . S
C2196 C2194 1.388 . S
C2196 C2197 1.366 . S
C2197 C2196 1.366 . S
C2197 C2198 1.414 . S
C2197 C2200 1.499 . S
C2198 H2178 0.950 . S
C2198 C2197 1.414 . S
C2198 C2199 1.374 . S
C2199 H2179 0.950 . S
C2199 C2195 1.385 . S
C2199 C2198 1.374 . S
C2200 C2197 1.499 . S
C2200 C2201 1.373 . S
C2200 C2202 1.389 . S
C2201 H2180 0.950 . S
C2201 C2200 1.373 . S
C2201 C2217 1.377 . S
C2202 C2200 1.389 . S
C2202 C2203 1.524 . S
C2202 C2216 1.377 . S
C2203 C2202 1.524 . S
C2203 C2204 1.397 . S
C2203 C2208 1.363 . S
C2204 H2181 0.950 . S
C2204 C2203 1.397 . S
C2204 C2205 1.334 . S
C2205 H2182 0.950 . S
C2205 C2204 1.334 . S
C2205 C2206 1.287 . S
C2206 C2205 1.287 . S
C2206 C2207 1.524 . S
C2206 H2225 0.913 . S
C2207 H2183 0.950 1_554 S
C2207 C2206 1.524 . S
C2207 C2208 1.415 . S
C2208 H2184 0.950 . S
C2208 C2203 1.363 . S
C2208 C2207 1.415 . S
C2209 H2185 0.951 . S
C2209 C2210 1.366 . S
C2209 C2211 1.388 . S
C2210 C2209 1.366 . S
C2210 C2214 1.385 . S
C2211 H2186 0.951 . S
C2211 C2209 1.388 . S
C2211 C2212 1.366 . S
C2212 C2211 1.366 . S
C2212 C2213 1.414 . S
C2212 C2215 1.499 . S
C2213 H2187 0.950 . S
C2213 C2212 1.414 . S
C2213 C2214 1.374 . S
C2214 H2188 0.950 1_554 S
C2214 C2210 1.385 . S
C2214 C2213 1.374 . S
C2215 C2212 1.499 . S
C2215 C2216 1.373 . S
C2215 C2217 1.389 . S
C2216 H2189 0.950 . S
C2216 C2202 1.377 . S
C2216 C2215 1.373 . S
C2217 C2201 1.377 . S
C2217 C2215 1.389 . S
C2217 C2218 1.524 . S
C2218 C2217 1.524 . S
C2218 C2219 1.397 . S
C2218 C2223 1.363 . S
C2219 H2190 0.950 . S
C2219 C2218 1.397 . S
C2219 C2220 1.334 . S
C2220 H2191 0.950 1_455 S
C2220 C2219 1.334 . S
C2220 C2221 1.287 . S
C2221 C2220 1.287 . S
C2221 C2222 1.524 . S
C2221 H2224 0.999 1_455 S
C2222 H2192 0.950 . S
C2222 C2221 1.524 . S
C2222 C2223 1.415 . S
C2223 H2193 0.950 . S
C2223 C2218 1.363 . S
C2223 C2222 1.415 . S
H2224 C2221 0.999 1_655 S
H2225 C2206 0.913 . S
H2226 C2244 0.951 . S
H2227 C2246 0.951 . S
H2228 C2248 0.950 . S
H2229 C2249 0.950 . S
H2230 C2251 0.950 . S
H2231 C2254 0.950 . S
H2232 C2255 0.950 . S
H2233 C2257 0.950 . S
H2234 C2258 0.950 . S
H2235 C2259 0.951 . S
H2236 C2261 0.951 . S
H2237 C2263 0.950 . S
H2238 C2264 0.950 . S
H2239 C2266 0.950 . S
H2240 C2269 0.950 . S
H2241 C2270 0.950 . S
H2242 C2272 0.950 . S
H2243 C2273 0.950 . S
C2244 H2226 0.951 . S
C2244 C2245 1.366 . S
C2244 C2246 1.388 . S
C2245 C2244 1.366 . S
C2245 C2249 1.385 . S
C2246 H2227 0.951 . S
C2246 C2244 1.388 . S
C2246 C2247 1.366 . S
C2247 C2246 1.366 . S
C2247 C2248 1.414 . S
C2247 C2250 1.499 . S
C2248 H2228 0.950 . S
C2248 C2247 1.414 . S
C2248 C2249 1.374 . S
C2249 H2229 0.950 . S
C2249 C2245 1.385 . S
C2249 C2248 1.374 . S
C2250 C2247 1.499 . S
C2250 C2251 1.373 . S
C2250 C2252 1.389 . S
C2251 H2230 0.950 . S
C2251 C2250 1.373 . S
C2251 C2267 1.377 . S
C2252 C2250 1.389 . S
C2252 C2253 1.524 . S
C2252 C2266 1.377 . S
C2253 C2252 1.524 . S
C2253 C2254 1.397 . S
C2253 C2258 1.363 . S
C2254 H2231 0.950 . S
C2254 C2253 1.397 . S
C2254 C2255 1.334 . S
C2255 H2232 0.950 . S
C2255 C2254 1.334 . S
C2255 C2256 1.287 . S
C2256 C2255 1.287 . S
C2256 C2257 1.524 . S
C2256 H2275 0.913 . S
C2257 H2233 0.950 . S
C2257 C2256 1.524 . S
C2257 C2258 1.415 . S
C2258 H2234 0.950 . S
C2258 C2253 1.363 . S
C2258 C2257 1.415 . S
C2259 H2235 0.951 . S
C2259 C2260 1.366 . S
C2259 C2261 1.388 . S
C2260 C2259 1.366 . S
C2260 C2264 1.385 . S
C2261 H2236 0.951 . S
C2261 C2259 1.388 . S
C2261 C2262 1.366 . S
C2262 C2261 1.366 . S
C2262 C2263 1.414 . S
C2262 C2265 1.499 . S
C2263 H2237 0.950 . S
C2263 C2262 1.414 . S
C2263 C2264 1.374 . S
C2264 H2238 0.950 . S
C2264 C2260 1.385 . S
C2264 C2263 1.374 . S
C2265 C2262 1.499 . S
C2265 C2266 1.373 . S
C2265 C2267 1.389 . S
C2266 H2239 0.950 . S
C2266 C2252 1.377 . S
C2266 C2265 1.373 . S
C2267 C2251 1.377 . S
C2267 C2265 1.389 . S
C2267 C2268 1.524 . S
C2268 C2267 1.524 . S
C2268 C2269 1.397 . S
C2268 C2273 1.363 . S
C2269 H2240 0.950 . S
C2269 C2268 1.397 . S
C2269 C2270 1.334 . S
C2270 H2241 0.950 . S
C2270 C2269 1.334 . S
C2270 C2271 1.287 . S
C2271 C2270 1.287 . S
C2271 C2272 1.524 . S
C2271 H2274 0.999 . S
C2272 H2242 0.950 . S
C2272 C2271 1.524 . S
C2272 C2273 1.415 . S
C2273 H2243 0.950 . S
C2273 C2268 1.363 . S
C2273 C2272 1.415 . S
H2274 C2271 0.999 . S
H2275 C2256 0.913 . S
H2276 C2294 0.951 . S
H2277 C2296 0.951 . S
H2278 C2298 0.950 . S
H2279 C2299 0.950 . S
H2280 C2301 0.950 . S
H2281 C2304 0.950 . S
H2282 C2305 0.950 . S
H2283 C2307 0.950 . S
H2284 C2308 0.950 . S
H2285 C2309 0.951 . S
H2286 C2311 0.951 . S
H2287 C2313 0.950 . S
H2288 C2314 0.950 . S
H2289 C2316 0.950 . S
H2290 C2319 0.950 . S
H2291 C2320 0.950 . S
H2292 C2322 0.950 . S
H2293 C2323 0.950 . S
C2294 H2276 0.951 . S
C2294 C2295 1.366 . S
C2294 C2296 1.388 . S
C2295 C2294 1.366 . S
C2295 C2299 1.385 . S
C2296 H2277 0.951 . S
C2296 C2294 1.388 . S
C2296 C2297 1.366 . S
C2297 C2296 1.366 . S
C2297 C2298 1.414 . S
C2297 C2300 1.499 . S
C2298 H2278 0.950 . S
C2298 C2297 1.414 . S
C2298 C2299 1.374 . S
C2299 H2279 0.950 . S
C2299 C2295 1.385 . S
C2299 C2298 1.374 . S
C2300 C2297 1.499 . S
C2300 C2301 1.373 . S
C2300 C2302 1.389 . S
C2301 H2280 0.950 . S
C2301 C2300 1.373 . S
C2301 C2317 1.377 . S
C2302 C2300 1.389 . S
C2302 C2303 1.524 . S
C2302 C2316 1.377 . S
C2303 C2302 1.524 . S
C2303 C2304 1.397 . S
C2303 C2308 1.363 . S
C2304 H2281 0.950 . S
C2304 C2303 1.397 . S
C2304 C2305 1.334 . S
C2305 H2282 0.950 . S
C2305 C2304 1.334 . S
C2305 C2306 1.287 . S
C2306 C2305 1.287 . S
C2306 C2307 1.524 . S
C2306 H2325 0.913 . S
C2307 H2283 0.950 . S
C2307 C2306 1.524 . S
C2307 C2308 1.415 . S
C2308 H2284 0.950 . S
C2308 C2303 1.363 . S
C2308 C2307 1.415 . S
C2309 H2285 0.951 . S
C2309 C2310 1.366 . S
C2309 C2311 1.388 . S
C2310 C2309 1.366 . S
C2310 C2314 1.385 . S
C2311 H2286 0.951 . S
C2311 C2309 1.388 . S
C2311 C2312 1.366 . S
C2312 C2311 1.366 . S
C2312 C2313 1.414 . S
C2312 C2315 1.499 . S
C2313 H2287 0.950 . S
C2313 C2312 1.414 . S
C2313 C2314 1.374 . S
C2314 H2288 0.950 . S
C2314 C2310 1.385 . S
C2314 C2313 1.374 . S
C2315 C2312 1.499 . S
C2315 C2316 1.373 . S
C2315 C2317 1.389 . S
C2316 H2289 0.950 . S
C2316 C2302 1.377 . S
C2316 C2315 1.373 . S
C2317 C2301 1.377 . S
C2317 C2315 1.389 . S
C2317 C2318 1.524 . S
C2318 C2317 1.524 . S
C2318 C2319 1.397 . S
C2318 C2323 1.363 . S
C2319 H2290 0.950 . S
C2319 C2318 1.397 . S
C2319 C2320 1.334 . S
C2320 H2291 0.950 . S
C2320 C2319 1.334 . S
C2320 C2321 1.287 . S
C2321 C2320 1.287 . S
C2321 C2322 1.524 . S
C2321 H2324 0.999 . S
C2322 H2292 0.950 . S
C2322 C2321 1.524 . S
C2322 C2323 1.415 . S
C2323 H2293 0.950 . S
C2323 C2318 1.363 . S
C2323 C2322 1.415 . S
H2324 C2321 0.999 . S
H2325 C2306 0.913 . S
H2326 C2344 0.951 . S
H2327 C2346 0.951 . S
H2328 C2348 0.950 . S
H2329 C2349 0.950 . S
H2330 C2351 0.950 . S
H2331 C2354 0.950 . S
H2332 C2355 0.950 . S
H2333 C2357 0.950 . S
H2334 C2358 0.950 . S
H2335 C2359 0.951 . S
H2336 C2361 0.951 . S
H2337 C2363 0.950 . S
H2338 C2364 0.950 . S
H2339 C2366 0.950 . S
H2340 C2369 0.950 . S
H2341 C2370 0.950 . S
H2342 C2372 0.950 . S
H2343 C2373 0.950 . S
C2344 H2326 0.951 . S
C2344 C2345 1.366 . S
C2344 C2346 1.388 . S
C2345 C2344 1.366 . S
C2345 C2349 1.385 . S
C2346 H2327 0.951 . S
C2346 C2344 1.388 . S
C2346 C2347 1.366 . S
C2347 C2346 1.366 . S
C2347 C2348 1.414 . S
C2347 C2350 1.499 . S
C2348 H2328 0.950 . S
C2348 C2347 1.414 . S
C2348 C2349 1.374 . S
C2349 H2329 0.950 . S
C2349 C2345 1.385 . S
C2349 C2348 1.374 . S
C2350 C2347 1.499 . S
C2350 C2351 1.373 . S
C2350 C2352 1.389 . S
C2351 H2330 0.950 . S
C2351 C2350 1.373 . S
C2351 C2367 1.377 . S
C2352 C2350 1.389 . S
C2352 C2353 1.524 . S
C2352 C2366 1.377 . S
C2353 C2352 1.524 . S
C2353 C2354 1.397 . S
C2353 C2358 1.363 . S
C2354 H2331 0.950 . S
C2354 C2353 1.397 . S
C2354 C2355 1.334 . S
C2355 H2332 0.950 . S
C2355 C2354 1.334 . S
C2355 C2356 1.287 . S
C2356 C2355 1.287 . S
C2356 C2357 1.524 . S
C2356 H2375 0.913 . S
C2357 H2333 0.950 . S
C2357 C2356 1.524 . S
C2357 C2358 1.415 . S
C2358 H2334 0.950 . S
C2358 C2353 1.363 . S
C2358 C2357 1.415 . S
C2359 H2335 0.951 . S
C2359 C2360 1.366 . S
C2359 C2361 1.388 . S
C2360 C2359 1.366 . S
C2360 C2364 1.385 . S
C2361 H2336 0.951 . S
C2361 C2359 1.388 . S
C2361 C2362 1.366 . S
C2362 C2361 1.366 . S
C2362 C2363 1.414 . S
C2362 C2365 1.499 . S
C2363 H2337 0.950 . S
C2363 C2362 1.414 . S
C2363 C2364 1.374 . S
C2364 H2338 0.950 . S
C2364 C2360 1.385 . S
C2364 C2363 1.374 . S
C2365 C2362 1.499 . S
C2365 C2366 1.373 . S
C2365 C2367 1.389 . S
C2366 H2339 0.950 . S
C2366 C2352 1.377 . S
C2366 C2365 1.373 . S
C2367 C2351 1.377 . S
C2367 C2365 1.389 . S
C2367 C2368 1.524 . S
C2368 C2367 1.524 . S
C2368 C2369 1.397 . S
C2368 C2373 1.363 . S
C2369 H2340 0.950 . S
C2369 C2368 1.397 . S
C2369 C2370 1.334 . S
C2370 H2341 0.950 . S
C2370 C2369 1.334 . S
C2370 C2371 1.287 . S
C2371 C2370 1.287 . S
C2371 C2372 1.524 . S
C2371 H2374 0.999 . S
C2372 H2342 0.950 . S
C2372 C2371 1.524 . S
C2372 C2373 1.415 . S
C2373 H2343 0.950 . S
C2373 C2368 1.363 . S
C2373 C2372 1.415 . S
H2374 C2371 0.999 . S
H2375 C2356 0.913 . S
H2376 C2394 0.951 . S
H2377 C2396 0.951 . S
H2378 C2398 0.950 . S
H2379 C2399 0.950 . S
H2380 C2401 0.950 . S
H2381 C2404 0.950 . S
H2382 C2405 0.950 . S
H2383 C2407 0.950 . S
H2384 C2408 0.950 . S
H2385 C2409 0.951 . S
H2386 C2411 0.951 . S
H2387 C2413 0.950 . S
H2388 C2414 0.950 . S
H2389 C2416 0.950 . S
H2390 C2419 0.950 . S
H2391 C2420 0.950 . S
H2392 C2422 0.950 . S
H2393 C2423 0.950 . S
C2394 H2376 0.951 . S
C2394 C2395 1.366 . S
C2394 C2396 1.388 . S
C2395 C2394 1.366 . S
C2395 C2399 1.385 . S
C2396 H2377 0.951 . S
C2396 C2394 1.388 . S
C2396 C2397 1.366 . S
C2397 C2396 1.366 . S
C2397 C2398 1.414 . S
C2397 C2400 1.499 . S
C2398 H2378 0.950 . S
C2398 C2397 1.414 . S
C2398 C2399 1.374 . S
C2399 H2379 0.950 . S
C2399 C2395 1.385 . S
C2399 C2398 1.374 . S
C2400 C2397 1.499 . S
C2400 C2401 1.373 . S
C2400 C2402 1.389 . S
C2401 H2380 0.950 . S
C2401 C2400 1.373 . S
C2401 C2417 1.377 . S
C2402 C2400 1.389 . S
C2402 C2403 1.524 . S
C2402 C2416 1.377 . S
C2403 C2402 1.524 . S
C2403 C2404 1.397 . S
C2403 C2408 1.363 . S
C2404 H2381 0.950 . S
C2404 C2403 1.397 . S
C2404 C2405 1.334 . S
C2405 H2382 0.950 . S
C2405 C2404 1.334 . S
C2405 C2406 1.287 . S
C2406 C2405 1.287 . S
C2406 C2407 1.524 . S
C2406 H2425 0.913 . S
C2407 H2383 0.950 . S
C2407 C2406 1.524 . S
C2407 C2408 1.415 . S
C2408 H2384 0.950 . S
C2408 C2403 1.363 . S
C2408 C2407 1.415 . S
C2409 H2385 0.951 . S
C2409 C2410 1.366 . S
C2409 C2411 1.388 . S
C2410 C2409 1.366 . S
C2410 C2414 1.385 . S
C2411 H2386 0.951 . S
C2411 C2409 1.388 . S
C2411 C2412 1.366 . S
C2412 C2411 1.366 . S
C2412 C2413 1.414 . S
C2412 C2415 1.499 . S
C2413 H2387 0.950 . S
C2413 C2412 1.414 . S
C2413 C2414 1.374 . S
C2414 H2388 0.950 . S
C2414 C2410 1.385 . S
C2414 C2413 1.374 . S
C2415 C2412 1.499 . S
C2415 C2416 1.373 . S
C2415 C2417 1.389 . S
C2416 H2389 0.950 . S
C2416 C2402 1.377 . S
C2416 C2415 1.373 . S
C2417 C2401 1.377 . S
C2417 C2415 1.389 . S
C2417 C2418 1.524 . S
C2418 C2417 1.524 . S
C2418 C2419 1.397 . S
C2418 C2423 1.363 . S
C2419 H2390 0.950 . S
C2419 C2418 1.397 . S
C2419 C2420 1.334 . S
C2420 H2391 0.950 . S
C2420 C2419 1.334 . S
C2420 C2421 1.287 . S
C2421 C2420 1.287 . S
C2421 C2422 1.524 . S
C2421 H2424 0.999 . S
C2422 H2392 0.950 . S
C2422 C2421 1.524 . S
C2422 C2423 1.415 . S
C2423 H2393 0.950 . S
C2423 C2418 1.363 . S
C2423 C2422 1.415 . S
H2424 C2421 0.999 . S
H2425 C2406 0.913 . S
H2426 C2444 0.951 . S
H2427 C2446 0.951 . S
H2428 C2448 0.950 . S
H2429 C2449 0.950 . S
H2430 C2451 0.950 . S
H2431 C2454 0.950 . S
H2432 C2455 0.950 . S
H2433 C2457 0.950 . S
H2434 C2458 0.950 . S
H2435 C2459 0.951 . S
H2436 C2461 0.951 . S
H2437 C2463 0.950 . S
H2438 C2464 0.950 . S
H2439 C2466 0.950 . S
H2440 C2469 0.950 . S
H2441 C2470 0.950 . S
H2442 C2472 0.950 . S
H2443 C2473 0.950 . S
C2444 H2426 0.951 . S
C2444 C2445 1.366 . S
C2444 C2446 1.388 . S
C2445 C2444 1.366 . S
C2445 C2449 1.385 . S
C2446 H2427 0.951 . S
C2446 C2444 1.388 . S
C2446 C2447 1.366 . S
C2447 C2446 1.366 . S
C2447 C2448 1.414 . S
C2447 C2450 1.499 . S
C2448 H2428 0.950 . S
C2448 C2447 1.414 . S
C2448 C2449 1.374 . S
C2449 H2429 0.950 . S
C2449 C2445 1.385 . S
C2449 C2448 1.374 . S
C2450 C2447 1.499 . S
C2450 C2451 1.373 . S
C2450 C2452 1.389 . S
C2451 H2430 0.950 . S
C2451 C2450 1.373 . S
C2451 C2467 1.377 . S
C2452 C2450 1.389 . S
C2452 C2453 1.524 . S
C2452 C2466 1.377 . S
C2453 C2452 1.524 . S
C2453 C2454 1.397 . S
C2453 C2458 1.363 . S
C2454 H2431 0.950 . S
C2454 C2453 1.397 . S
C2454 C2455 1.334 . S
C2455 H2432 0.950 . S
C2455 C2454 1.334 . S
C2455 C2456 1.287 . S
C2456 C2455 1.287 . S
C2456 C2457 1.524 . S
C2456 H2475 0.913 . S
C2457 H2433 0.950 . S
C2457 C2456 1.524 . S
C2457 C2458 1.415 . S
C2458 H2434 0.950 . S
C2458 C2453 1.363 . S
C2458 C2457 1.415 . S
C2459 H2435 0.951 . S
C2459 C2460 1.366 . S
C2459 C2461 1.388 . S
C2460 C2459 1.366 . S
C2460 C2464 1.385 . S
C2461 H2436 0.951 . S
C2461 C2459 1.388 . S
C2461 C2462 1.366 . S
C2462 C2461 1.366 . S
C2462 C2463 1.414 . S
C2462 C2465 1.499 . S
C2463 H2437 0.950 . S
C2463 C2462 1.414 . S
C2463 C2464 1.374 . S
C2464 H2438 0.950 . S
C2464 C2460 1.385 . S
C2464 C2463 1.374 . S
C2465 C2462 1.499 . S
C2465 C2466 1.373 . S
C2465 C2467 1.389 . S
C2466 H2439 0.950 . S
C2466 C2452 1.377 . S
C2466 C2465 1.373 . S
C2467 C2451 1.377 . S
C2467 C2465 1.389 . S
C2467 C2468 1.524 . S
C2468 C2467 1.524 . S
C2468 C2469 1.397 . S
C2468 C2473 1.363 . S
C2469 H2440 0.950 . S
C2469 C2468 1.397 . S
C2469 C2470 1.334 . S
C2470 H2441 0.950 . S
C2470 C2469 1.334 . S
C2470 C2471 1.287 . S
C2471 C2470 1.287 . S
C2471 C2472 1.524 . S
C2471 H2474 0.999 . S
C2472 H2442 0.950 . S
C2472 C2471 1.524 . S
C2472 C2473 1.415 . S
C2473 H2443 0.950 . S
C2473 C2468 1.363 . S
C2473 C2472 1.415 . S
H2474 C2471 0.999 . S
H2475 C2456 0.913 . S
H2476 C2494 0.951 . S
H2477 C2496 0.951 . S
H2478 C2498 0.950 . S
H2479 C2499 0.950 . S
H2480 C2501 0.950 . S
H2481 C2504 0.950 . S
H2482 C2505 0.950 . S
H2483 C2507 0.950 . S
H2484 C2508 0.950 . S
H2485 C2509 0.951 . S
H2486 C2511 0.951 . S
H2487 C2513 0.950 . S
H2488 C2514 0.950 . S
H2489 C2516 0.950 . S
H2490 C2519 0.950 . S
H2491 C2520 0.950 . S
H2492 C2522 0.950 . S
H2493 C2523 0.950 . S
C2494 H2476 0.951 . S
C2494 C2495 1.366 . S
C2494 C2496 1.388 . S
C2495 C2494 1.366 . S
C2495 C2499 1.385 . S
C2496 H2477 0.951 . S
C2496 C2494 1.388 . S
C2496 C2497 1.366 . S
C2497 C2496 1.366 . S
C2497 C2498 1.414 . S
C2497 C2500 1.499 . S
C2498 H2478 0.950 . S
C2498 C2497 1.414 . S
C2498 C2499 1.374 . S
C2499 H2479 0.950 . S
C2499 C2495 1.385 . S
C2499 C2498 1.374 . S
C2500 C2497 1.499 . S
C2500 C2501 1.373 . S
C2500 C2502 1.389 . S
C2501 H2480 0.950 . S
C2501 C2500 1.373 . S
C2501 C2517 1.377 . S
C2502 C2500 1.389 . S
C2502 C2503 1.524 . S
C2502 C2516 1.377 . S
C2503 C2502 1.524 . S
C2503 C2504 1.397 . S
C2503 C2508 1.363 . S
C2504 H2481 0.950 . S
C2504 C2503 1.397 . S
C2504 C2505 1.334 . S
C2505 H2482 0.950 . S
C2505 C2504 1.334 . S
C2505 C2506 1.287 . S
C2506 C2505 1.287 . S
C2506 C2507 1.524 . S
C2506 H2525 0.913 . S
C2507 H2483 0.950 . S
C2507 C2506 1.524 . S
C2507 C2508 1.415 . S
C2508 H2484 0.950 . S
C2508 C2503 1.363 . S
C2508 C2507 1.415 . S
C2509 H2485 0.951 . S
C2509 C2510 1.366 . S
C2509 C2511 1.388 . S
C2510 C2509 1.366 . S
C2510 C2514 1.385 . S
C2511 H2486 0.951 . S
C2511 C2509 1.388 . S
C2511 C2512 1.366 . S
C2512 C2511 1.366 . S
C2512 C2513 1.414 . S
C2512 C2515 1.499 . S
C2513 H2487 0.950 . S
C2513 C2512 1.414 . S
C2513 C2514 1.374 . S
C2514 H2488 0.950 . S
C2514 C2510 1.385 . S
C2514 C2513 1.374 . S
C2515 C2512 1.499 . S
C2515 C2516 1.373 . S
C2515 C2517 1.389 . S
C2516 H2489 0.950 . S
C2516 C2502 1.377 . S
C2516 C2515 1.373 . S
C2517 C2501 1.377 . S
C2517 C2515 1.389 . S
C2517 C2518 1.524 . S
C2518 C2517 1.524 . S
C2518 C2519 1.397 . S
C2518 C2523 1.363 . S
C2519 H2490 0.950 . S
C2519 C2518 1.397 . S
C2519 C2520 1.334 1_556 S
C2520 H2491 0.950 . S
C2520 C2519 1.334 1_554 S
C2520 C2521 1.287 . S
C2521 C2520 1.287 . S
C2521 C2522 1.524 . S
C2521 H2524 0.999 . S
C2522 H2492 0.950 . S
C2522 C2521 1.524 . S
C2522 C2523 1.415 1_554 S
C2523 H2493 0.950 . S
C2523 C2518 1.363 . S
C2523 C2522 1.415 1_556 S
H2524 C2521 0.999 . S
H2525 C2506 0.913 . S
H2526 C2544 0.951 . S
H2527 C2546 0.951 . S
H2528 C2548 0.950 . S
H2529 C2549 0.950 . S
H2530 C2551 0.950 . S
H2531 C2554 0.950 . S
H2532 C2555 0.950 . S
H2533 C2557 0.950 . S
H2534 C2558 0.950 . S
H2535 C2559 0.951 . S
H2536 C2561 0.951 . S
H2537 C2563 0.950 . S
H2538 C2564 0.950 . S
H2539 C2566 0.950 . S
H2540 C2569 0.950 . S
H2541 C2570 0.950 . S
H2542 C2572 0.950 . S
H2543 C2573 0.950 . S
C2544 H2526 0.951 . S
C2544 C2545 1.366 . S
C2544 C2546 1.388 . S
C2545 C2544 1.366 . S
C2545 C2549 1.385 . S
C2546 H2527 0.951 . S
C2546 C2544 1.388 . S
C2546 C2547 1.366 . S
C2547 C2546 1.366 . S
C2547 C2548 1.414 . S
C2547 C2550 1.499 . S
C2548 H2528 0.950 . S
C2548 C2547 1.414 . S
C2548 C2549 1.374 . S
C2549 H2529 0.950 . S
C2549 C2545 1.385 . S
C2549 C2548 1.374 . S
C2550 C2547 1.499 . S
C2550 C2551 1.373 . S
C2550 C2552 1.389 . S
C2551 H2530 0.950 . S
C2551 C2550 1.373 . S
C2551 C2567 1.377 . S
C2552 C2550 1.389 . S
C2552 C2553 1.524 . S
C2552 C2566 1.377 . S
C2553 C2552 1.524 . S
C2553 C2554 1.397 . S
C2553 C2558 1.363 . S
C2554 H2531 0.950 . S
C2554 C2553 1.397 . S
C2554 C2555 1.334 . S
C2555 H2532 0.950 . S
C2555 C2554 1.334 . S
C2555 C2556 1.287 . S
C2556 C2555 1.287 . S
C2556 C2557 1.524 . S
C2556 H2575 0.913 . S
C2557 H2533 0.950 . S
C2557 C2556 1.524 . S
C2557 C2558 1.415 . S
C2558 H2534 0.950 . S
C2558 C2553 1.363 . S
C2558 C2557 1.415 . S
C2559 H2535 0.951 . S
C2559 C2560 1.366 . S
C2559 C2561 1.388 . S
C2560 C2559 1.366 . S
C2560 C2564 1.385 . S
C2561 H2536 0.951 . S
C2561 C2559 1.388 . S
C2561 C2562 1.366 . S
C2562 C2561 1.366 . S
C2562 C2563 1.414 . S
C2562 C2565 1.499 . S
C2563 H2537 0.950 . S
C2563 C2562 1.414 . S
C2563 C2564 1.374 . S
C2564 H2538 0.950 . S
C2564 C2560 1.385 . S
C2564 C2563 1.374 . S
C2565 C2562 1.499 . S
C2565 C2566 1.373 . S
C2565 C2567 1.389 . S
C2566 H2539 0.950 . S
C2566 C2552 1.377 . S
C2566 C2565 1.373 . S
C2567 C2551 1.377 . S
C2567 C2565 1.389 . S
C2567 C2568 1.524 . S
C2568 C2567 1.524 . S
C2568 C2569 1.397 . S
C2568 C2573 1.363 . S
C2569 H2540 0.950 . S
C2569 C2568 1.397 . S
C2569 C2570 1.334 . S
C2570 H2541 0.950 . S
C2570 C2569 1.334 . S
C2570 C2571 1.287 . S
C2571 C2570 1.287 . S
C2571 C2572 1.524 . S
C2571 H2574 0.999 . S
C2572 H2542 0.950 . S
C2572 C2571 1.524 . S
C2572 C2573 1.415 . S
C2573 H2543 0.950 . S
C2573 C2568 1.363 . S
C2573 C2572 1.415 . S
H2574 C2571 0.999 . S
H2575 C2556 0.913 . S
H2576 C2594 0.951 . S
H2577 C2596 0.951 . S
H2578 C2598 0.950 . S
H2579 C2599 0.950 . S
H2580 C2601 0.950 . S
H2581 C2604 0.950 1_545 S
H2582 C2605 0.950 . S
H2583 C2607 0.950 . S
H2584 C2608 0.950 . S
H2585 C2609 0.951 . S
H2586 C2611 0.951 . S
H2587 C2613 0.950 . S
H2588 C2614 0.950 . S
H2589 C2616 0.950 . S
H2590 C2619 0.950 . S
H2591 C2620 0.950 . S
H2592 C2622 0.950 . S
H2593 C2623 0.950 . S
C2594 H2576 0.951 . S
C2594 C2595 1.366 1_565 S
C2594 C2596 1.388 . S
C2595 C2594 1.366 1_545 S
C2595 C2599 1.385 . S
C2596 H2577 0.951 . S
C2596 C2594 1.388 . S
C2596 C2597 1.366 1_565 S
C2597 C2596 1.366 1_545 S
C2597 C2598 1.414 . S
C2597 C2600 1.499 . S
C2598 H2578 0.950 . S
C2598 C2597 1.414 . S
C2598 C2599 1.374 . S
C2599 H2579 0.950 . S
C2599 C2595 1.385 . S
C2599 C2598 1.374 . S
C2600 C2597 1.499 . S
C2600 C2601 1.373 . S
C2600 C2602 1.389 1_545 S
C2601 H2580 0.950 . S
C2601 C2600 1.373 . S
C2601 C2617 1.377 . S
C2602 C2600 1.389 1_565 S
C2602 C2603 1.524 . S
C2602 C2616 1.377 . S
C2603 C2602 1.524 . S
C2603 C2604 1.397 . S
C2603 C2608 1.363 . S
C2604 H2581 0.950 1_565 S
C2604 C2603 1.397 . S
C2604 C2605 1.334 . S
C2605 H2582 0.950 . S
C2605 C2604 1.334 . S
C2605 C2606 1.287 . S
C2606 C2605 1.287 . S
C2606 C2607 1.524 . S
C2606 H2625 0.913 . S
C2607 H2583 0.950 . S
C2607 C2606 1.524 . S
C2607 C2608 1.415 . S
C2608 H2584 0.950 . S
C2608 C2603 1.363 . S
C2608 C2607 1.415 . S
C2609 H2585 0.951 . S
C2609 C2610 1.366 . S
C2609 C2611 1.388 . S
C2610 C2609 1.366 . S
C2610 C2614 1.385 1_545 S
C2611 H2586 0.951 . S
C2611 C2609 1.388 . S
C2611 C2612 1.366 . S
C2612 C2611 1.366 . S
C2612 C2613 1.414 1_545 S
C2612 C2615 1.499 . S
C2613 H2587 0.950 . S
C2613 C2612 1.414 1_565 S
C2613 C2614 1.374 . S
C2614 H2588 0.950 . S
C2614 C2610 1.385 1_565 S
C2614 C2613 1.374 . S
C2615 C2612 1.499 . S
C2615 C2616 1.373 1_545 S
C2615 C2617 1.389 . S
C2616 H2589 0.950 . S
C2616 C2602 1.377 . S
C2616 C2615 1.373 1_565 S
C2617 C2601 1.377 . S
C2617 C2615 1.389 . S
C2617 C2618 1.524 . S
C2618 C2617 1.524 . S
C2618 C2619 1.397 . S
C2618 C2623 1.363 . S
C2619 H2590 0.950 . S
C2619 C2618 1.397 . S
C2619 C2620 1.334 . S
C2620 H2591 0.950 . S
C2620 C2619 1.334 . S
C2620 C2621 1.287 . S
C2621 C2620 1.287 . S
C2621 C2622 1.524 . S
C2621 H2624 0.999 . S
C2622 H2592 0.950 . S
C2622 C2621 1.524 . S
C2622 C2623 1.415 . S
C2623 H2593 0.950 . S
C2623 C2618 1.363 . S
C2623 C2622 1.415 . S
H2624 C2621 0.999 . S
H2625 C2606 0.913 . S
H2626 C2644 0.951 . S
H2627 C2646 0.951 . S
H2628 C2648 0.950 . S
H2629 C2649 0.950 . S
H2630 C2651 0.950 . S
H2631 C2654 0.950 . S
H2632 C2655 0.950 . S
H2633 C2657 0.950 . S
H2634 C2658 0.950 . S
H2635 C2659 0.951 . S
H2636 C2661 0.951 . S
H2637 C2663 0.950 . S
H2638 C2664 0.950 . S
H2639 C2666 0.950 . S
H2640 C2669 0.950 . S
H2641 C2670 0.950 . S
H2642 C2672 0.950 . S
H2643 C2673 0.950 . S
C2644 H2626 0.951 . S
C2644 C2645 1.366 . S
C2644 C2646 1.388 . S
C2645 C2644 1.366 . S
C2645 C2649 1.385 . S
C2646 H2627 0.951 . S
C2646 C2644 1.388 . S
C2646 C2647 1.366 . S
C2647 C2646 1.366 . S
C2647 C2648 1.414 . S
C2647 C2650 1.499 . S
C2648 H2628 0.950 . S
C2648 C2647 1.414 . S
C2648 C2649 1.374 . S
C2649 H2629 0.950 . S
C2649 C2645 1.385 . S
C2649 C2648 1.374 . S
C2650 C2647 1.499 . S
C2650 C2651 1.373 . S
C2650 C2652 1.389 . S
C2651 H2630 0.950 . S
C2651 C2650 1.373 . S
C2651 C2667 1.377 . S
C2652 C2650 1.389 . S
C2652 C2653 1.524 . S
C2652 C2666 1.377 . S
C2653 C2652 1.524 . S
C2653 C2654 1.397 . S
C2653 C2658 1.363 . S
C2654 H2631 0.950 . S
C2654 C2653 1.397 . S
C2654 C2655 1.334 . S
C2655 H2632 0.950 . S
C2655 C2654 1.334 . S
C2655 C2656 1.287 . S
C2656 C2655 1.287 . S
C2656 C2657 1.524 . S
C2656 H2675 0.913 . S
C2657 H2633 0.950 . S
C2657 C2656 1.524 . S
C2657 C2658 1.415 . S
C2658 H2634 0.950 . S
C2658 C2653 1.363 . S
C2658 C2657 1.415 . S
C2659 H2635 0.951 . S
C2659 C2660 1.366 . S
C2659 C2661 1.388 . S
C2660 C2659 1.366 . S
C2660 C2664 1.385 . S
C2661 H2636 0.951 . S
C2661 C2659 1.388 . S
C2661 C2662 1.366 . S
C2662 C2661 1.366 . S
C2662 C2663 1.414 . S
C2662 C2665 1.499 . S
C2663 H2637 0.950 . S
C2663 C2662 1.414 . S
C2663 C2664 1.374 . S
C2664 H2638 0.950 . S
C2664 C2660 1.385 . S
C2664 C2663 1.374 . S
C2665 C2662 1.499 . S
C2665 C2666 1.373 . S
C2665 C2667 1.389 . S
C2666 H2639 0.950 . S
C2666 C2652 1.377 . S
C2666 C2665 1.373 . S
C2667 C2651 1.377 . S
C2667 C2665 1.389 . S
C2667 C2668 1.524 . S
C2668 C2667 1.524 . S
C2668 C2669 1.397 . S
C2668 C2673 1.363 . S
C2669 H2640 0.950 . S
C2669 C2668 1.397 . S
C2669 C2670 1.334 . S
C2670 H2641 0.950 . S
C2670 C2669 1.334 . S
C2670 C2671 1.287 . S
C2671 C2670 1.287 . S
C2671 C2672 1.524 . S
C2671 H2674 0.999 . S
C2672 H2642 0.950 . S
C2672 C2671 1.524 . S
C2672 C2673 1.415 . S
C2673 H2643 0.950 . S
C2673 C2668 1.363 . S
C2673 C2672 1.415 . S
H2674 C2671 0.999 . S
H2675 C2656 0.913 . S
H2676 C2694 0.951 . S
H2677 C2696 0.951 . S
H2678 C2698 0.950 . S
H2679 C2699 0.950 . S
H2680 C2701 0.987 . S
H2681 C2704 0.950 . S
H2682 C2705 0.950 . S
H2683 C2707 0.950 . S
H2684 C2708 0.950 . S
H2685 C2709 0.951 . S
H2686 C2711 0.951 . S
H2687 C2713 0.950 . S
H2688 C2714 0.950 . S
H2689 C2716 0.950 . S
H2690 C2719 0.950 . S
H2691 C2720 0.950 . S
H2692 C2722 0.950 . S
H2693 C2723 0.950 1_545 S
C2694 H2676 0.951 . S
C2694 C2695 1.366 . S
C2694 C2696 1.388 . S
C2695 C2694 1.366 . S
C2695 C2699 1.385 . S
C2696 H2677 0.951 . S
C2696 C2694 1.388 . S
C2696 C2697 1.366 . S
C2697 C2696 1.366 . S
C2697 C2698 1.414 . S
C2697 C2700 1.499 . S
C2698 H2678 0.950 . S
C2698 C2697 1.414 . S
C2698 C2699 1.374 . S
C2699 H2679 0.950 . S
C2699 C2695 1.385 . S
C2699 C2698 1.374 . S
C2700 C2697 1.499 . S
C2700 C2701 1.373 . S
C2700 C2702 1.389 . S
C2701 H2680 0.987 . S
C2701 C2700 1.373 . S
C2701 C2717 1.377 . S
C2702 C2700 1.389 . S
C2702 C2703 1.524 . S
C2702 C2716 1.377 . S
C2703 C2702 1.524 . S
C2703 C2704 1.397 . S
C2703 C2708 1.363 . S
C2704 H2681 0.950 . S
C2704 C2703 1.397 . S
C2704 C2705 1.334 . S
C2705 H2682 0.950 . S
C2705 C2704 1.334 . S
C2705 C2706 1.287 . S
C2706 C2705 1.287 . S
C2706 C2707 1.524 . S
C2706 H2725 0.913 . S
C2707 H2683 0.950 . S
C2707 C2706 1.524 . S
C2707 C2708 1.415 . S
C2708 H2684 0.950 . S
C2708 C2703 1.363 . S
C2708 C2707 1.415 . S
C2709 H2685 0.951 . S
C2709 C2710 1.366 . S
C2709 C2711 1.388 . S
C2710 C2709 1.366 . S
C2710 C2714 1.385 . S
C2711 H2686 0.951 . S
C2711 C2709 1.388 . S
C2711 C2712 1.366 . S
C2712 C2711 1.366 . S
C2712 C2713 1.414 . S
C2712 C2715 1.499 . S
C2713 H2687 0.950 . S
C2713 C2712 1.414 . S
C2713 C2714 1.374 . S
C2714 H2688 0.950 . S
C2714 C2710 1.385 . S
C2714 C2713 1.374 . S
C2715 C2712 1.499 . S
C2715 C2716 1.373 . S
C2715 C2717 1.389 . S
C2716 H2689 0.950 . S
C2716 C2702 1.377 . S
C2716 C2715 1.373 . S
C2717 C2701 1.377 . S
C2717 C2715 1.389 . S
C2717 C2718 1.524 1_545 S
C2718 C2717 1.524 1_565 S
C2718 C2719 1.397 . S
C2718 C2723 1.363 . S
C2719 H2690 0.950 . S
C2719 C2718 1.397 . S
C2719 C2720 1.334 . S
C2720 H2691 0.950 . S
C2720 C2719 1.334 . S
C2720 C2721 1.287 . S
C2721 C2720 1.287 . S
C2721 C2722 1.524 . S
C2721 H2724 0.999 . S
C2722 H2692 0.950 . S
C2722 C2721 1.524 . S
C2722 C2723 1.415 . S
C2723 H2693 0.950 1_565 S
C2723 C2718 1.363 . S
C2723 C2722 1.415 . S
H2724 C2721 0.999 . S
H2725 C2706 0.913 . S
H2726 C2744 0.951 . S
H2727 C2746 0.951 . S
H2728 C2748 0.950 . S
H2729 C2749 0.950 . S
H2730 C2751 0.950 . S
H2731 C2754 0.950 . S
H2732 C2755 0.950 . S
H2733 C2757 0.950 . S
H2734 C2758 0.950 . S
H2735 C2759 0.951 . S
H2736 C2761 0.951 . S
H2737 C2763 0.950 . S
H2738 C2764 0.950 . S
H2739 C2766 0.950 . S
H2740 C2769 0.950 . S
H2741 C2770 0.950 . S
H2742 C2772 0.950 . S
H2743 C2773 0.950 . S
C2744 H2726 0.951 . S
C2744 C2745 1.366 . S
C2744 C2746 1.388 . S
C2745 C2744 1.366 . S
C2745 C2749 1.385 . S
C2746 H2727 0.951 . S
C2746 C2744 1.388 . S
C2746 C2747 1.366 . S
C2747 C2746 1.366 . S
C2747 C2748 1.414 . S
C2747 C2750 1.499 . S
C2748 H2728 0.950 . S
C2748 C2747 1.414 . S
C2748 C2749 1.374 . S
C2749 H2729 0.950 . S
C2749 C2745 1.385 . S
C2749 C2748 1.374 . S
C2750 C2747 1.499 . S
C2750 C2751 1.373 . S
C2750 C2752 1.389 . S
C2751 H2730 0.950 . S
C2751 C2750 1.373 . S
C2751 C2767 1.377 . S
C2752 C2750 1.389 . S
C2752 C2753 1.524 . S
C2752 C2766 1.377 . S
C2753 C2752 1.524 . S
C2753 C2754 1.397 . S
C2753 C2758 1.363 . S
C2754 H2731 0.950 . S
C2754 C2753 1.397 . S
C2754 C2755 1.334 . S
C2755 H2732 0.950 . S
C2755 C2754 1.334 . S
C2755 C2756 1.287 . S
C2756 C2755 1.287 . S
C2756 C2757 1.524 . S
C2756 H2775 0.913 . S
C2757 H2733 0.950 . S
C2757 C2756 1.524 . S
C2757 C2758 1.415 . S
C2758 H2734 0.950 . S
C2758 C2753 1.363 . S
C2758 C2757 1.415 . S
C2759 H2735 0.951 . S
C2759 C2760 1.366 . S
C2759 C2761 1.388 . S
C2760 C2759 1.366 . S
C2760 C2764 1.385 . S
C2761 H2736 0.951 . S
C2761 C2759 1.388 . S
C2761 C2762 1.366 . S
C2762 C2761 1.366 . S
C2762 C2763 1.414 . S
C2762 C2765 1.499 . S
C2763 H2737 0.950 . S
C2763 C2762 1.414 . S
C2763 C2764 1.374 . S
C2764 H2738 0.950 . S
C2764 C2760 1.385 . S
C2764 C2763 1.374 . S
C2765 C2762 1.499 . S
C2765 C2766 1.373 . S
C2765 C2767 1.389 . S
C2766 H2739 0.950 . S
C2766 C2752 1.377 . S
C2766 C2765 1.373 . S
C2767 C2751 1.377 . S
C2767 C2765 1.389 . S
C2767 C2768 1.524 . S
C2768 C2767 1.524 . S
C2768 C2769 1.397 . S
C2768 C2773 1.363 . S
C2769 H2740 0.950 . S
C2769 C2768 1.397 . S
C2769 C2770 1.334 . S
C2770 H2741 0.950 . S
C2770 C2769 1.334 . S
C2770 C2771 1.287 . S
C2771 C2770 1.287 . S
C2771 C2772 1.524 . S
C2771 H2774 0.999 . S
C2772 H2742 0.950 . S
C2772 C2771 1.524 . S
C2772 C2773 1.415 . S
C2773 H2743 0.950 . S
C2773 C2768 1.363 . S
C2773 C2772 1.415 . S
H2774 C2771 0.999 . S
H2775 C2756 0.913 . S
H2776 C2794 0.951 . S
H2777 C2796 0.951 . S
H2778 C2798 0.950 . S
H2779 C2799 0.950 . S
H2780 C2801 0.953 . S
H2781 C2804 0.950 1_565 S
H2782 C2805 0.950 1_565 S
H2783 C2807 0.950 . S
H2784 C2808 0.950 . S
H2785 C2809 0.951 1_565 S
H2786 C2811 0.886 1_565 S
H2787 C2813 0.950 . S
H2788 C2814 0.950 . S
H2789 C2816 0.950 . S
H2790 C2819 0.950 . S
H2791 C2820 0.950 . S
H2792 C2822 0.950 . S
H2793 C2823 0.950 . S
C2794 H2776 0.951 . S
C2794 C2795 1.366 1_545 S
C2794 C2796 1.388 . S
C2795 C2794 1.366 1_565 S
C2795 C2799 1.385 . S
C2796 H2777 0.951 . S
C2796 C2794 1.388 . S
C2796 C2797 1.366 . S
C2797 C2796 1.366 . S
C2797 C2798 1.414 1_545 S
C2797 C2800 1.499 . S
C2798 H2778 0.950 . S
C2798 C2797 1.414 1_565 S
C2798 C2799 1.374 . S
C2799 H2779 0.950 . S
C2799 C2795 1.385 . S
C2799 C2798 1.374 . S
C2800 C2797 1.499 . S
C2800 C2801 1.373 1_545 S
C2800 C2802 1.389 . S
C2801 H2780 0.953 . S
C2801 C2800 1.373 1_565 S
C2801 C2817 1.375 1_565 S
C2802 C2800 1.389 . S
C2802 C2803 1.524 . S
C2802 C2816 1.377 . S
C2803 C2802 1.524 . S
C2803 C2804 1.397 . S
C2803 C2808 1.363 . S
C2804 H2781 0.950 1_545 S
C2804 C2803 1.397 . S
C2804 C2805 1.334 . S
C2805 H2782 0.950 1_545 S
C2805 C2804 1.334 . S
C2805 C2806 1.287 . S
C2806 C2805 1.287 . S
C2806 C2807 1.524 . S
C2806 H2825 0.913 . S
C2807 H2783 0.950 . S
C2807 C2806 1.524 . S
C2807 C2808 1.415 . S
C2808 H2784 0.950 . S
C2808 C2803 1.363 . S
C2808 C2807 1.415 . S
C2809 H2785 0.951 1_545 S
C2809 C2810 1.366 . S
C2809 C2811 1.416 . S
C2810 C2809 1.366 . S
C2810 C2814 1.385 . S
C2811 H2786 0.886 1_545 S
C2811 C2809 1.416 . S
C2811 C2812 1.404 . S
C2812 C2811 1.404 . S
C2812 C2813 1.414 . S
C2812 C2815 1.499 . S
C2813 H2787 0.950 . S
C2813 C2812 1.414 . S
C2813 C2814 1.374 . S
C2814 H2788 0.950 . S
C2814 C2810 1.385 . S
C2814 C2813 1.374 . S
C2815 C2812 1.499 . S
C2815 C2816 1.373 . S
C2815 C2817 1.389 . S
C2816 H2789 0.950 . S
C2816 C2802 1.377 . S
C2816 C2815 1.373 . S
C2817 C2801 1.375 1_545 S
C2817 C2815 1.389 . S
C2817 C2818 1.518 1_545 S
C2818 C2817 1.518 1_565 S
C2818 C2819 1.369 1_565 S
C2818 C2823 1.396 . S
C2819 H2790 0.950 . S
C2819 C2818 1.369 1_545 S
C2819 C2820 1.334 . S
C2820 H2791 0.950 . S
C2820 C2819 1.334 . S
C2820 C2821 1.287 1_545 S
C2821 C2820 1.287 1_565 S
C2821 C2822 1.524 . S
C2821 H2824 0.999 . S
C2822 H2792 0.950 . S
C2822 C2821 1.524 . S
C2822 C2823 1.415 . S
C2823 H2793 0.950 . S
C2823 C2818 1.396 . S
C2823 C2822 1.415 . S
H2824 C2821 0.999 . S
H2825 C2806 0.913 . S
H2826 C2844 0.951 . S
H2827 C2846 0.951 . S
H2828 C2848 0.950 . S
H2829 C2849 0.950 . S
H2830 C2851 0.950 . S
H2831 C2854 0.950 . S
H2832 C2855 0.950 . S
H2833 C2857 0.950 . S
H2834 C2858 0.950 . S
H2835 C2859 0.951 . S
H2836 C2861 0.951 . S
H2837 C2863 0.950 . S
H2838 C2864 0.950 . S
H2839 C2866 0.950 . S
H2840 C2869 0.950 . S
H2841 C2870 0.950 . S
H2842 C2872 0.950 . S
H2843 C2873 0.950 . S
C2844 H2826 0.951 . S
C2844 C2845 1.366 . S
C2844 C2846 1.388 . S
C2845 C2844 1.366 . S
C2845 C2849 1.385 . S
C2846 H2827 0.951 . S
C2846 C2844 1.388 . S
C2846 C2847 1.366 . S
C2847 C2846 1.366 . S
C2847 C2848 1.414 . S
C2847 C2850 1.499 . S
C2848 H2828 0.950 . S
C2848 C2847 1.414 . S
C2848 C2849 1.374 . S
C2849 H2829 0.950 . S
C2849 C2845 1.385 . S
C2849 C2848 1.374 . S
C2850 C2847 1.499 . S
C2850 C2851 1.373 . S
C2850 C2852 1.389 . S
C2851 H2830 0.950 . S
C2851 C2850 1.373 . S
C2851 C2867 1.377 . S
C2852 C2850 1.389 . S
C2852 C2853 1.524 . S
C2852 C2866 1.377 . S
C2853 C2852 1.524 . S
C2853 C2854 1.397 . S
C2853 C2858 1.363 . S
C2854 H2831 0.950 . S
C2854 C2853 1.397 . S
C2854 C2855 1.334 . S
C2855 H2832 0.950 . S
C2855 C2854 1.334 . S
C2855 C2856 1.287 . S
C2856 C2855 1.287 . S
C2856 C2857 1.524 . S
C2856 H2875 0.913 . S
C2857 H2833 0.950 . S
C2857 C2856 1.524 . S
C2857 C2858 1.415 . S
C2858 H2834 0.950 . S
C2858 C2853 1.363 . S
C2858 C2857 1.415 . S
C2859 H2835 0.951 . S
C2859 C2860 1.366 . S
C2859 C2861 1.388 . S
C2860 C2859 1.366 . S
C2860 C2864 1.385 . S
C2861 H2836 0.951 . S
C2861 C2859 1.388 . S
C2861 C2862 1.366 . S
C2862 C2861 1.366 . S
C2862 C2863 1.414 . S
C2862 C2865 1.499 . S
C2863 H2837 0.950 . S
C2863 C2862 1.414 . S
C2863 C2864 1.374 . S
C2864 H2838 0.950 . S
C2864 C2860 1.385 . S
C2864 C2863 1.374 . S
C2865 C2862 1.499 . S
C2865 C2866 1.373 . S
C2865 C2867 1.389 . S
C2866 H2839 0.950 . S
C2866 C2852 1.377 . S
C2866 C2865 1.373 . S
C2867 C2851 1.377 . S
C2867 C2865 1.389 . S
C2867 C2868 1.524 . S
C2868 C2867 1.524 . S
C2868 C2869 1.397 . S
C2868 C2873 1.363 . S
C2869 H2840 0.950 . S
C2869 C2868 1.397 . S
C2869 C2870 1.334 . S
C2870 H2841 0.950 . S
C2870 C2869 1.334 . S
C2870 C2871 1.287 . S
C2871 C2870 1.287 . S
C2871 C2872 1.524 . S
C2871 H2874 0.999 . S
C2872 H2842 0.950 . S
C2872 C2871 1.524 . S
C2872 C2873 1.415 . S
C2873 H2843 0.950 . S
C2873 C2868 1.363 . S
C2873 C2872 1.415 . S
H2874 C2871 0.999 . S
H2875 C2856 0.913 . S
H2876 C2894 0.951 . S
H2877 C2896 0.951 . S
H2878 C2898 0.950 . S
H2879 C2899 0.950 . S
H2880 C2901 0.950 . S
H2881 C2904 0.950 . S
H2882 C2905 0.950 . S
H2883 C2907 0.950 . S
H2884 C2908 0.950 . S
H2885 C2909 0.951 . S
H2886 C2911 0.951 . S
H2887 C2913 0.950 . S
H2888 C2914 0.950 . S
H2889 C2916 0.950 . S
H2890 C2919 0.950 . S
H2891 C2920 0.950 . S
H2892 C2922 0.950 . S
H2893 C2923 0.950 . S
C2894 H2876 0.951 . S
C2894 C2895 1.366 1_565 S
C2894 C2896 1.388 . S
C2895 C2894 1.366 1_545 S
C2895 C2899 1.385 . S
C2896 H2877 0.951 . S
C2896 C2894 1.388 . S
C2896 C2897 1.366 1_565 S
C2897 C2896 1.366 1_545 S
C2897 C2898 1.414 . S
C2897 C2900 1.499 . S
C2898 H2878 0.950 . S
C2898 C2897 1.414 . S
C2898 C2899 1.374 . S
C2899 H2879 0.950 . S
C2899 C2895 1.385 . S
C2899 C2898 1.374 . S
C2900 C2897 1.499 . S
C2900 C2901 1.373 . S
C2900 C2902 1.389 1_545 S
C2901 H2880 0.950 . S
C2901 C2900 1.373 . S
C2901 C2917 1.377 . S
C2902 C2900 1.389 1_565 S
C2902 C2903 1.524 . S
C2902 C2916 1.377 . S
C2903 C2902 1.524 . S
C2903 C2904 1.397 . S
C2903 C2908 1.363 . S
C2904 H2881 0.950 . S
C2904 C2903 1.397 . S
C2904 C2905 1.334 . S
C2905 H2882 0.950 . S
C2905 C2904 1.334 . S
C2905 C2906 1.287 . S
C2906 C2905 1.287 . S
C2906 C2907 1.524 . S
C2906 H2925 0.913 . S
C2907 H2883 0.950 . S
C2907 C2906 1.524 . S
C2907 C2908 1.415 . S
C2908 H2884 0.950 . S
C2908 C2903 1.363 . S
C2908 C2907 1.415 . S
C2909 H2885 0.951 . S
C2909 C2910 1.366 1_545 S
C2909 C2911 1.388 . S
C2910 C2909 1.366 1_565 S
C2910 C2914 1.385 . S
C2911 H2886 0.951 . S
C2911 C2909 1.388 . S
C2911 C2912 1.366 1_545 S
C2912 C2911 1.366 1_565 S
C2912 C2913 1.414 . S
C2912 C2915 1.499 . S
C2913 H2887 0.950 . S
C2913 C2912 1.414 . S
C2913 C2914 1.374 . S
C2914 H2888 0.950 . S
C2914 C2910 1.385 . S
C2914 C2913 1.374 . S
C2915 C2912 1.499 . S
C2915 C2916 1.373 . S
C2915 C2917 1.389 1_565 S
C2916 H2889 0.950 . S
C2916 C2902 1.377 . S
C2916 C2915 1.373 . S
C2917 C2901 1.377 . S
C2917 C2915 1.389 1_545 S
C2917 C2918 1.524 . S
C2918 C2917 1.524 . S
C2918 C2919 1.397 . S
C2918 C2923 1.363 . S
C2919 H2890 0.950 . S
C2919 C2918 1.397 . S
C2919 C2920 1.334 . S
C2920 H2891 0.950 . S
C2920 C2919 1.334 . S
C2920 C2921 1.287 . S
C2921 C2920 1.287 . S
C2921 C2922 1.524 . S
C2921 H2924 0.999 . S
C2922 H2892 0.950 . S
C2922 C2921 1.524 . S
C2922 C2923 1.415 . S
C2923 H2893 0.950 . S
C2923 C2918 1.363 . S
C2923 C2922 1.415 . S
H2924 C2921 0.999 . S
H2925 C2906 0.913 . S
H2926 C2944 0.951 . S
H2927 C2946 0.951 . S
H2928 C2948 0.950 . S
H2929 C2949 0.950 . S
H2930 C2951 0.950 . S
H2931 C2954 0.950 . S
H2932 C2955 0.950 . S
H2933 C2957 0.950 . S
H2934 C2958 0.950 . S
H2935 C2959 0.951 . S
H2936 C2961 0.951 . S
H2937 C2963 0.950 . S
H2938 C2964 0.950 . S
H2939 C2966 0.950 . S
H2940 C2969 0.950 . S
H2941 C2970 0.950 . S
H2942 C2972 0.950 . S
H2943 C2973 0.950 . S
C2944 H2926 0.951 . S
C2944 C2945 1.366 . S
C2944 C2946 1.388 . S
C2945 C2944 1.366 . S
C2945 C2949 1.385 . S
C2946 H2927 0.951 . S
C2946 C2944 1.388 . S
C2946 C2947 1.366 . S
C2947 C2946 1.366 . S
C2947 C2948 1.414 . S
C2947 C2950 1.499 . S
C2948 H2928 0.950 . S
C2948 C2947 1.414 . S
C2948 C2949 1.374 . S
C2949 H2929 0.950 . S
C2949 C2945 1.385 . S
C2949 C2948 1.374 . S
C2950 C2947 1.499 . S
C2950 C2951 1.373 . S
C2950 C2952 1.389 . S
C2951 H2930 0.950 . S
C2951 C2950 1.373 . S
C2951 C2967 1.377 . S
C2952 C2950 1.389 . S
C2952 C2953 1.524 . S
C2952 C2966 1.377 . S
C2953 C2952 1.524 . S
C2953 C2954 1.397 . S
C2953 C2958 1.363 . S
C2954 H2931 0.950 . S
C2954 C2953 1.397 . S
C2954 C2955 1.334 . S
C2955 H2932 0.950 . S
C2955 C2954 1.334 . S
C2955 C2956 1.287 . S
C2956 C2955 1.287 . S
C2956 C2957 1.524 . S
C2956 H2975 0.913 . S
C2957 H2933 0.950 . S
C2957 C2956 1.524 . S
C2957 C2958 1.415 . S
C2958 H2934 0.950 . S
C2958 C2953 1.363 . S
C2958 C2957 1.415 . S
C2959 H2935 0.951 . S
C2959 C2960 1.366 . S
C2959 C2961 1.388 . S
C2960 C2959 1.366 . S
C2960 C2964 1.385 . S
C2961 H2936 0.951 . S
C2961 C2959 1.388 . S
C2961 C2962 1.366 . S
C2962 C2961 1.366 . S
C2962 C2963 1.414 . S
C2962 C2965 1.499 . S
C2963 H2937 0.950 . S
C2963 C2962 1.414 . S
C2963 C2964 1.374 . S
C2964 H2938 0.950 . S
C2964 C2960 1.385 . S
C2964 C2963 1.374 . S
C2965 C2962 1.499 . S
C2965 C2966 1.373 . S
C2965 C2967 1.389 . S
C2966 H2939 0.950 . S
C2966 C2952 1.377 . S
C2966 C2965 1.373 . S
C2967 C2951 1.377 . S
C2967 C2965 1.389 . S
C2967 C2968 1.524 . S
C2968 C2967 1.524 . S
C2968 C2969 1.397 . S
C2968 C2973 1.363 . S
C2969 H2940 0.950 . S
C2969 C2968 1.397 . S
C2969 C2970 1.334 . S
C2970 H2941 0.950 . S
C2970 C2969 1.334 . S
C2970 C2971 1.287 . S
C2971 C2970 1.287 . S
C2971 C2972 1.524 . S
C2971 H2974 0.999 . S
C2972 H2942 0.950 . S
C2972 C2971 1.524 . S
C2972 C2973 1.415 . S
C2973 H2943 0.950 . S
C2973 C2968 1.363 . S
C2973 C2972 1.415 . S
H2974 C2971 0.999 . S
H2975 C2956 0.913 . S
H2976 C2994 0.951 . S
H2977 C2996 0.951 . S
H2978 C2998 0.950 . S
H2979 C2999 0.950 . S
H2980 C3001 0.950 . S
H2981 C3004 0.950 1_556 S
H2982 C3005 0.950 . S
H2983 C3007 0.950 . S
H2984 C3008 0.950 . S
H2985 C3009 0.951 . S
H2986 C3011 0.951 . S
H2987 C3013 0.950 . S
H2988 C3014 0.915 1_554 S
H2989 C3016 0.950 . S
H2990 C3019 0.950 . S
H2991 C3020 0.950 . S
H2992 C3022 0.950 . S
H2993 C3023 0.950 . S
C2994 H2976 0.951 . S
C2994 C2995 1.366 . S
C2994 C2996 1.388 . S
C2995 C2994 1.366 . S
C2995 C2999 1.385 1_554 S
C2996 H2977 0.951 . S
C2996 C2994 1.388 . S
C2996 C2997 1.366 . S
C2997 C2996 1.366 . S
C2997 C2998 1.414 1_554 S
C2997 C3000 1.499 1_554 S
C2998 H2978 0.950 . S
C2998 C2997 1.414 1_556 S
C2998 C2999 1.374 . S
C2999 H2979 0.950 . S
C2999 C2995 1.385 1_556 S
C2999 C2998 1.374 . S
C3000 C2997 1.499 1_556 S
C3000 C3001 1.373 . S
C3000 C3002 1.389 1_556 S
C3001 H2980 0.950 . S
C3001 C3000 1.373 . S
C3001 C3017 1.377 . S
C3002 C3000 1.389 1_554 S
C3002 C3003 1.524 . S
C3002 C3016 1.377 . S
C3003 C3002 1.524 . S
C3003 C3004 1.397 . S
C3003 C3008 1.363 . S
C3004 H2981 0.950 1_554 S
C3004 C3003 1.397 . S
C3004 C3005 1.334 . S
C3005 H2982 0.950 . S
C3005 C3004 1.334 . S
C3005 C3006 1.287 . S
C3006 C3005 1.287 . S
C3006 C3007 1.524 . S
C3006 H3025 0.913 . S
C3007 H2983 0.950 . S
C3007 C3006 1.524 . S
C3007 C3008 1.415 . S
C3008 H2984 0.950 . S
C3008 C3003 1.363 . S
C3008 C3007 1.415 . S
C3009 H2985 0.951 . S
C3009 C3010 1.366 . S
C3009 C3011 1.388 . S
C3010 C3009 1.366 . S
C3010 C3014 1.430 . S
C3011 H2986 0.951 . S
C3011 C3009 1.388 . S
C3011 C3012 1.366 . S
C3012 C3011 1.366 . S
C3012 C3013 1.414 1_556 S
C3012 C3015 1.499 . S
C3013 H2987 0.950 . S
C3013 C3012 1.414 1_554 S
C3013 C3014 1.365 1_554 S
C3014 H2988 0.915 1_556 S
C3014 C3010 1.430 . S
C3014 C3013 1.365 1_556 S
C3015 C3012 1.499 . S
C3015 C3016 1.373 1_556 S
C3015 C3017 1.389 . S
C3016 H2989 0.950 . S
C3016 C3002 1.377 . S
C3016 C3015 1.373 1_554 S
C3017 C3001 1.377 . S
C3017 C3015 1.389 . S
C3017 C3018 1.524 . S
C3018 C3017 1.524 . S
C3018 C3019 1.397 . S
C3018 C3023 1.363 . S
C3019 H2990 0.950 . S
C3019 C3018 1.397 . S
C3019 C3020 1.334 . S
C3020 H2991 0.950 . S
C3020 C3019 1.334 . S
C3020 C3021 1.287 . S
C3021 C3020 1.287 . S
C3021 C3022 1.524 . S
C3021 H3024 0.999 . S
C3022 H2992 0.950 . S
C3022 C3021 1.524 . S
C3022 C3023 1.415 . S
C3023 H2993 0.950 . S
C3023 C3018 1.363 . S
C3023 C3022 1.415 . S
H3024 C3021 0.999 . S
H3025 C3006 0.913 . S
H3026 C3044 0.951 . S
H3027 C3046 0.951 . S
H3028 C3048 0.950 . S
H3029 C3049 0.950 . S
H3030 C3051 0.950 . S
H3031 C3054 0.950 . S
H3032 C3055 0.950 . S
H3033 C3057 0.950 . S
H3034 C3058 0.950 . S
H3035 C3059 0.951 . S
H3036 C3061 0.951 . S
H3037 C3063 0.950 . S
H3038 C3064 0.950 . S
H3039 C3066 0.950 1_556 S
H3040 C3069 0.950 . S
H3041 C3070 0.950 . S
H3042 C3072 0.950 . S
H3043 C3073 0.950 . S
C3044 H3026 0.951 . S
C3044 C3045 1.366 . S
C3044 C3046 1.388 . S
C3045 C3044 1.366 . S
C3045 C3049 1.385 . S
C3046 H3027 0.951 . S
C3046 C3044 1.388 . S
C3046 C3047 1.366 . S
C3047 C3046 1.366 . S
C3047 C3048 1.414 . S
C3047 C3050 1.499 . S
C3048 H3028 0.950 . S
C3048 C3047 1.414 . S
C3048 C3049 1.374 . S
C3049 H3029 0.950 . S
C3049 C3045 1.385 . S
C3049 C3048 1.374 . S
C3050 C3047 1.499 . S
C3050 C3051 1.373 . S
C3050 C3052 1.389 . S
C3051 H3030 0.950 . S
C3051 C3050 1.373 . S
C3051 C3067 1.377 . S
C3052 C3050 1.389 . S
C3052 C3053 1.524 1_554 S
C3052 C3066 1.377 . S
C3053 C3052 1.524 1_556 S
C3053 C3054 1.397 . S
C3053 C3058 1.363 . S
C3054 H3031 0.950 . S
C3054 C3053 1.397 . S
C3054 C3055 1.334 . S
C3055 H3032 0.950 . S
C3055 C3054 1.334 . S
C3055 C3056 1.287 . S
C3056 C3055 1.287 . S
C3056 C3057 1.524 . S
C3056 H3075 0.913 . S
C3057 H3033 0.950 . S
C3057 C3056 1.524 . S
C3057 C3058 1.415 . S
C3058 H3034 0.950 . S
C3058 C3053 1.363 . S
C3058 C3057 1.415 . S
C3059 H3035 0.951 . S
C3059 C3060 1.366 . S
C3059 C3061 1.388 . S
C3060 C3059 1.366 . S
C3060 C3064 1.385 . S
C3061 H3036 0.951 . S
C3061 C3059 1.388 . S
C3061 C3062 1.366 . S
C3062 C3061 1.366 . S
C3062 C3063 1.414 . S
C3062 C3065 1.499 . S
C3063 H3037 0.950 . S
C3063 C3062 1.414 . S
C3063 C3064 1.374 . S
C3064 H3038 0.950 . S
C3064 C3060 1.385 . S
C3064 C3063 1.374 . S
C3065 C3062 1.499 . S
C3065 C3066 1.373 . S
C3065 C3067 1.389 . S
C3066 H3039 0.950 1_554 S
C3066 C3052 1.377 . S
C3066 C3065 1.373 . S
C3067 C3051 1.377 . S
C3067 C3065 1.389 . S
C3067 C3068 1.524 . S
C3068 C3067 1.524 . S
C3068 C3069 1.397 . S
C3068 C3073 1.363 . S
C3069 H3040 0.950 . S
C3069 C3068 1.397 . S
C3069 C3070 1.334 . S
C3070 H3041 0.950 . S
C3070 C3069 1.334 . S
C3070 C3071 1.287 . S
C3071 C3070 1.287 . S
C3071 C3072 1.524 . S
C3071 H3074 0.999 . S
C3072 H3042 0.950 . S
C3072 C3071 1.524 . S
C3072 C3073 1.415 . S
C3073 H3043 0.950 . S
C3073 C3068 1.363 . S
C3073 C3072 1.415 . S
H3074 C3071 0.999 . S
H3075 C3056 0.913 . S
H3076 C3094 0.951 . S
H3077 C3096 0.951 . S
H3078 C3098 0.950 . S
H3079 C3099 0.950 . S
H3080 C3101 0.950 . S
H3081 C3104 0.950 . S
H3082 C3105 0.950 . S
H3083 C3107 0.950 . S
H3084 C3108 0.950 . S
H3085 C3109 0.951 . S
H3086 C3111 0.951 . S
H3087 C3113 0.950 . S
H3088 C3114 0.950 . S
H3089 C3116 0.950 . S
H3090 C3119 0.950 . S
H3091 C3120 0.950 . S
H3092 C3122 0.950 . S
H3093 C3123 0.950 . S
C3094 H3076 0.951 . S
C3094 C3095 1.366 . S
C3094 C3096 1.388 . S
C3095 C3094 1.366 . S
C3095 C3099 1.385 . S
C3096 H3077 0.951 . S
C3096 C3094 1.388 . S
C3096 C3097 1.366 . S
C3097 C3096 1.366 . S
C3097 C3098 1.414 . S
C3097 C3100 1.499 . S
C3098 H3078 0.950 . S
C3098 C3097 1.414 . S
C3098 C3099 1.374 . S
C3099 H3079 0.950 . S
C3099 C3095 1.385 . S
C3099 C3098 1.374 . S
C3100 C3097 1.499 . S
C3100 C3101 1.373 . S
C3100 C3102 1.389 . S
C3101 H3080 0.950 . S
C3101 C3100 1.373 . S
C3101 C3117 1.377 . S
C3102 C3100 1.389 . S
C3102 C3103 1.524 . S
C3102 C3116 1.377 . S
C3103 C3102 1.524 . S
C3103 C3104 1.397 . S
C3103 C3108 1.363 . S
C3104 H3081 0.950 . S
C3104 C3103 1.397 . S
C3104 C3105 1.334 . S
C3105 H3082 0.950 . S
C3105 C3104 1.334 . S
C3105 C3106 1.287 . S
C3106 C3105 1.287 . S
C3106 C3107 1.524 . S
C3106 H3125 0.913 . S
C3107 H3083 0.950 . S
C3107 C3106 1.524 . S
C3107 C3108 1.415 . S
C3108 H3084 0.950 . S
C3108 C3103 1.363 . S
C3108 C3107 1.415 . S
C3109 H3085 0.951 . S
C3109 C3110 1.366 . S
C3109 C3111 1.388 . S
C3110 C3109 1.366 . S
C3110 C3114 1.385 . S
C3111 H3086 0.951 . S
C3111 C3109 1.388 . S
C3111 C3112 1.366 . S
C3112 C3111 1.366 . S
C3112 C3113 1.414 . S
C3112 C3115 1.499 . S
C3113 H3087 0.950 . S
C3113 C3112 1.414 . S
C3113 C3114 1.374 . S
C3114 H3088 0.950 . S
C3114 C3110 1.385 . S
C3114 C3113 1.374 . S
C3115 C3112 1.499 . S
C3115 C3116 1.373 . S
C3115 C3117 1.389 . S
C3116 H3089 0.950 . S
C3116 C3102 1.377 . S
C3116 C3115 1.373 . S
C3117 C3101 1.377 . S
C3117 C3115 1.389 . S
C3117 C3118 1.524 . S
C3118 C3117 1.524 . S
C3118 C3119 1.397 . S
C3118 C3123 1.363 . S
C3119 H3090 0.950 . S
C3119 C3118 1.397 . S
C3119 C3120 1.334 . S
C3120 H3091 0.950 . S
C3120 C3119 1.334 . S
C3120 C3121 1.287 . S
C3121 C3120 1.287 . S
C3121 C3122 1.524 . S
C3121 H3124 0.999 . S
C3122 H3092 0.950 . S
C3122 C3121 1.524 . S
C3122 C3123 1.415 . S
C3123 H3093 0.950 . S
C3123 C3118 1.363 . S
C3123 C3122 1.415 . S
H3124 C3121 0.999 . S
H3125 C3106 0.913 . S
H3126 C3144 0.951 . S
H3127 C3146 0.951 . S
H3128 C3148 0.950 . S
H3129 C3149 0.950 . S
H3130 C3151 0.950 . S
H3131 C3154 0.950 . S
H3132 C3155 0.950 . S
H3133 C3157 0.950 . S
H3134 C3158 0.950 . S
H3135 C3159 0.951 . S
H3136 C3161 0.951 . S
H3137 C3163 0.950 . S
H3138 C3164 0.950 . S
H3139 C3166 0.950 . S
H3140 C3169 0.950 . S
H3141 C3170 0.950 . S
H3142 C3172 0.950 . S
H3143 C3173 0.950 . S
C3144 H3126 0.951 . S
C3144 C3145 1.366 . S
C3144 C3146 1.388 . S
C3145 C3144 1.366 . S
C3145 C3149 1.385 . S
C3146 H3127 0.951 . S
C3146 C3144 1.388 . S
C3146 C3147 1.366 . S
C3147 C3146 1.366 . S
C3147 C3148 1.414 . S
C3147 C3150 1.499 . S
C3148 H3128 0.950 . S
C3148 C3147 1.414 . S
C3148 C3149 1.374 . S
C3149 H3129 0.950 . S
C3149 C3145 1.385 . S
C3149 C3148 1.374 . S
C3150 C3147 1.499 . S
C3150 C3151 1.373 . S
C3150 C3152 1.389 . S
C3151 H3130 0.950 . S
C3151 C3150 1.373 . S
C3151 C3167 1.377 . S
C3152 C3150 1.389 . S
C3152 C3153 1.524 . S
C3152 C3166 1.377 . S
C3153 C3152 1.524 . S
C3153 C3154 1.397 . S
C3153 C3158 1.363 . S
C3154 H3131 0.950 . S
C3154 C3153 1.397 . S
C3154 C3155 1.334 . S
C3155 H3132 0.950 . S
C3155 C3154 1.334 . S
C3155 C3156 1.287 . S
C3156 C3155 1.287 . S
C3156 C3157 1.524 . S
C3156 H3175 0.913 . S
C3157 H3133 0.950 . S
C3157 C3156 1.524 . S
C3157 C3158 1.415 . S
C3158 H3134 0.950 . S
C3158 C3153 1.363 . S
C3158 C3157 1.415 . S
C3159 H3135 0.951 . S
C3159 C3160 1.366 . S
C3159 C3161 1.388 . S
C3160 C3159 1.366 . S
C3160 C3164 1.385 . S
C3161 H3136 0.951 . S
C3161 C3159 1.388 . S
C3161 C3162 1.366 . S
C3162 C3161 1.366 . S
C3162 C3163 1.414 . S
C3162 C3165 1.499 . S
C3163 H3137 0.950 . S
C3163 C3162 1.414 . S
C3163 C3164 1.374 . S
C3164 H3138 0.950 . S
C3164 C3160 1.385 . S
C3164 C3163 1.374 . S
C3165 C3162 1.499 . S
C3165 C3166 1.373 . S
C3165 C3167 1.389 . S
C3166 H3139 0.950 . S
C3166 C3152 1.377 . S
C3166 C3165 1.373 . S
C3167 C3151 1.377 . S
C3167 C3165 1.389 . S
C3167 C3168 1.524 . S
C3168 C3167 1.524 . S
C3168 C3169 1.397 . S
C3168 C3173 1.363 . S
C3169 H3140 0.950 . S
C3169 C3168 1.397 . S
C3169 C3170 1.334 . S
C3170 H3141 0.950 . S
C3170 C3169 1.334 . S
C3170 C3171 1.287 . S
C3171 C3170 1.287 . S
C3171 C3172 1.524 . S
C3171 H3174 0.999 . S
C3172 H3142 0.950 . S
C3172 C3171 1.524 . S
C3172 C3173 1.415 . S
C3173 H3143 0.950 . S
C3173 C3168 1.363 . S
C3173 C3172 1.415 . S
H3174 C3171 0.999 . S
H3175 C3156 0.913 . S
H3176 C3194 0.951 1_545 S
H3177 C3196 0.951 . S
H3178 C3198 0.950 . S
H3179 C3199 0.950 . S
H3180 C3201 0.950 . S
H3181 C3204 0.950 . S
H3182 C3205 0.950 . S
H3183 C3207 0.950 . S
H3184 C3208 0.950 . S
H3185 C3209 0.951 . S
H3186 C3211 0.951 . S
H3187 C3213 0.950 . S
H3188 C3214 0.950 . S
H3189 C3216 0.950 . S
H3190 C3219 0.950 . S
H3191 C3220 0.950 . S
H3192 C3222 0.950 . S
H3193 C3223 0.950 . S
C3194 H3176 0.951 1_565 S
C3194 C3195 1.353 1_565 S
C3194 C3196 1.388 . S
C3195 C3194 1.353 1_545 S
C3195 C3199 1.364 1_545 S
C3196 H3177 0.951 . S
C3196 C3194 1.388 . S
C3196 C3197 1.366 . S
C3197 C3196 1.366 . S
C3197 C3198 1.414 . S
C3197 C3200 1.499 . S
C3198 H3178 0.950 . S
C3198 C3197 1.414 . S
C3198 C3199 1.374 . S
C3199 H3179 0.950 . S
C3199 C3195 1.364 1_565 S
C3199 C3198 1.374 . S
C3200 C3197 1.499 . S
C3200 C3201 1.373 . S
C3200 C3202 1.389 . S
C3201 H3180 0.950 . S
C3201 C3200 1.373 . S
C3201 C3217 1.377 . S
C3202 C3200 1.389 . S
C3202 C3203 1.524 . S
C3202 C3216 1.377 . S
C3203 C3202 1.524 . S
C3203 C3204 1.397 . S
C3203 C3208 1.363 . S
C3204 H3181 0.950 . S
C3204 C3203 1.397 . S
C3204 C3205 1.334 1_565 S
C3205 H3182 0.950 . S
C3205 C3204 1.334 1_545 S
C3205 C3206 1.287 . S
C3206 C3205 1.287 . S
C3206 C3207 1.524 . S
C3206 H3225 0.913 . S
C3207 H3183 0.950 . S
C3207 C3206 1.524 . S
C3207 C3208 1.415 1_545 S
C3208 H3184 0.950 . S
C3208 C3203 1.363 . S
C3208 C3207 1.415 1_565 S
C3209 H3185 0.951 . S
C3209 C3210 1.366 . S
C3209 C3211 1.388 . S
C3210 C3209 1.366 . S
C3210 C3214 1.385 . S
C3211 H3186 0.951 . S
C3211 C3209 1.388 . S
C3211 C3212 1.366 . S
C3212 C3211 1.366 . S
C3212 C3213 1.414 . S
C3212 C3215 1.499 . S
C3213 H3187 0.950 . S
C3213 C3212 1.414 . S
C3213 C3214 1.374 . S
C3214 H3188 0.950 . S
C3214 C3210 1.385 . S
C3214 C3213 1.374 . S
C3215 C3212 1.499 . S
C3215 C3216 1.373 . S
C3215 C3217 1.389 . S
C3216 H3189 0.950 . S
C3216 C3202 1.377 . S
C3216 C3215 1.373 . S
C3217 C3201 1.377 . S
C3217 C3215 1.389 . S
C3217 C3218 1.524 . S
C3218 C3217 1.524 . S
C3218 C3219 1.397 . S
C3218 C3223 1.363 . S
C3219 H3190 0.950 . S
C3219 C3218 1.397 . S
C3219 C3220 1.334 . S
C3220 H3191 0.950 . S
C3220 C3219 1.334 . S
C3220 C3221 1.287 . S
C3221 C3220 1.287 . S
C3221 C3222 1.524 . S
C3221 H3224 0.999 . S
C3222 H3192 0.950 . S
C3222 C3221 1.524 . S
C3222 C3223 1.415 . S
C3223 H3193 0.950 . S
C3223 C3218 1.363 . S
C3223 C3222 1.415 . S
H3224 C3221 0.999 . S
H3225 C3206 0.913 . S
H3226 C3244 0.951 . S
H3227 C3246 0.951 . S
H3228 C3248 0.950 . S
H3229 C3249 0.950 . S
H3230 C3251 0.950 . S
H3231 C3254 0.950 . S
H3232 C3255 0.950 . S
H3233 C3257 0.950 . S
H3234 C3258 0.950 . S
H3235 C3259 0.951 . S
H3236 C3261 0.951 . S
H3237 C3263 0.950 . S
H3238 C3264 0.950 . S
H3239 C3266 0.950 . S
H3240 C3269 0.950 . S
H3241 C3270 0.950 . S
H3242 C3272 0.950 1_545 S
H3243 C3273 0.950 . S
C3244 H3226 0.951 . S
C3244 C3245 1.366 . S
C3244 C3246 1.388 . S
C3245 C3244 1.366 . S
C3245 C3249 1.385 . S
C3246 H3227 0.951 . S
C3246 C3244 1.388 . S
C3246 C3247 1.366 . S
C3247 C3246 1.366 . S
C3247 C3248 1.414 . S
C3247 C3250 1.499 . S
C3248 H3228 0.950 . S
C3248 C3247 1.414 . S
C3248 C3249 1.374 . S
C3249 H3229 0.950 . S
C3249 C3245 1.385 . S
C3249 C3248 1.374 . S
C3250 C3247 1.499 . S
C3250 C3251 1.373 . S
C3250 C3252 1.389 . S
C3251 H3230 0.950 . S
C3251 C3250 1.373 . S
C3251 C3267 1.377 . S
C3252 C3250 1.389 . S
C3252 C3253 1.524 . S
C3252 C3266 1.377 . S
C3253 C3252 1.524 . S
C3253 C3254 1.397 . S
C3253 C3258 1.363 . S
C3254 H3231 0.950 . S
C3254 C3253 1.397 . S
C3254 C3255 1.334 . S
C3255 H3232 0.950 . S
C3255 C3254 1.334 . S
C3255 C3256 1.287 . S
C3256 C3255 1.287 . S
C3256 C3257 1.524 . S
C3256 H3275 0.913 . S
C3257 H3233 0.950 . S
C3257 C3256 1.524 . S
C3257 C3258 1.415 . S
C3258 H3234 0.950 . S
C3258 C3253 1.363 . S
C3258 C3257 1.415 . S
C3259 H3235 0.951 . S
C3259 C3260 1.366 . S
C3259 C3261 1.388 . S
C3260 C3259 1.366 . S
C3260 C3264 1.385 . S
C3261 H3236 0.951 . S
C3261 C3259 1.388 . S
C3261 C3262 1.366 . S
C3262 C3261 1.366 . S
C3262 C3263 1.414 . S
C3262 C3265 1.499 . S
C3263 H3237 0.950 . S
C3263 C3262 1.414 . S
C3263 C3264 1.374 . S
C3264 H3238 0.950 . S
C3264 C3260 1.385 . S
C3264 C3263 1.374 . S
C3265 C3262 1.499 . S
C3265 C3266 1.373 . S
C3265 C3267 1.389 . S
C3266 H3239 0.950 . S
C3266 C3252 1.377 . S
C3266 C3265 1.373 . S
C3267 C3251 1.377 . S
C3267 C3265 1.389 . S
C3267 C3268 1.524 . S
C3268 C3267 1.524 . S
C3268 C3269 1.397 . S
C3268 C3273 1.363 . S
C3269 H3240 0.950 . S
C3269 C3268 1.397 . S
C3269 C3270 1.334 . S
C3270 H3241 0.950 . S
C3270 C3269 1.334 . S
C3270 C3271 1.275 1_565 S
C3271 C3270 1.275 1_545 S
C3271 C3272 1.521 1_545 S
C3271 H3274 1.017 . S
C3272 H3242 0.950 1_565 S
C3272 C3271 1.521 1_565 S
C3272 C3273 1.415 . S
C3273 H3243 0.950 . S
C3273 C3268 1.363 . S
C3273 C3272 1.415 . S
H3274 C3271 1.017 . S
H3275 C3256 0.913 . S
H3276 C3294 0.951 . S
H3277 C3296 0.951 . S
H3278 C3298 0.950 . S
H3279 C3299 0.950 . S
H3280 C3301 0.950 . S
H3281 C3304 0.950 . S
H3282 C3305 0.950 . S
H3283 C3307 0.950 . S
H3284 C3308 0.950 . S
H3285 C3309 0.951 . S
H3286 C3311 0.951 . S
H3287 C3313 0.950 . S
H3288 C3314 0.950 . S
H3289 C3316 0.950 . S
H3290 C3319 0.950 . S
H3291 C3320 0.950 . S
H3292 C3322 0.950 . S
H3293 C3323 0.950 . S
C3294 H3276 0.951 . S
C3294 C3295 1.366 . S
C3294 C3296 1.388 . S
C3295 C3294 1.366 . S
C3295 C3299 1.385 . S
C3296 H3277 0.951 . S
C3296 C3294 1.388 . S
C3296 C3297 1.366 . S
C3297 C3296 1.366 . S
C3297 C3298 1.414 . S
C3297 C3300 1.499 . S
C3298 H3278 0.950 . S
C3298 C3297 1.414 . S
C3298 C3299 1.374 . S
C3299 H3279 0.950 . S
C3299 C3295 1.385 . S
C3299 C3298 1.374 . S
C3300 C3297 1.499 . S
C3300 C3301 1.373 . S
C3300 C3302 1.389 . S
C3301 H3280 0.950 . S
C3301 C3300 1.373 . S
C3301 C3317 1.377 . S
C3302 C3300 1.389 . S
C3302 C3303 1.524 . S
C3302 C3316 1.377 . S
C3303 C3302 1.524 . S
C3303 C3304 1.397 . S
C3303 C3308 1.363 . S
C3304 H3281 0.950 . S
C3304 C3303 1.397 . S
C3304 C3305 1.334 . S
C3305 H3282 0.950 . S
C3305 C3304 1.334 . S
C3305 C3306 1.287 . S
C3306 C3305 1.287 . S
C3306 C3307 1.524 . S
C3306 H3325 0.913 . S
C3307 H3283 0.950 . S
C3307 C3306 1.524 . S
C3307 C3308 1.415 . S
C3308 H3284 0.950 . S
C3308 C3303 1.363 . S
C3308 C3307 1.415 . S
C3309 H3285 0.951 . S
C3309 C3310 1.366 . S
C3309 C3311 1.388 . S
C3310 C3309 1.366 . S
C3310 C3314 1.385 . S
C3311 H3286 0.951 . S
C3311 C3309 1.388 . S
C3311 C3312 1.366 . S
C3312 C3311 1.366 . S
C3312 C3313 1.414 . S
C3312 C3315 1.499 . S
C3313 H3287 0.950 . S
C3313 C3312 1.414 . S
C3313 C3314 1.374 . S
C3314 H3288 0.950 . S
C3314 C3310 1.385 . S
C3314 C3313 1.374 . S
C3315 C3312 1.499 . S
C3315 C3316 1.373 . S
C3315 C3317 1.389 . S
C3316 H3289 0.950 . S
C3316 C3302 1.377 . S
C3316 C3315 1.373 . S
C3317 C3301 1.377 . S
C3317 C3315 1.389 . S
C3317 C3318 1.524 . S
C3318 C3317 1.524 . S
C3318 C3319 1.397 . S
C3318 C3323 1.363 . S
C3319 H3290 0.950 . S
C3319 C3318 1.397 . S
C3319 C3320 1.334 . S
C3320 H3291 0.950 . S
C3320 C3319 1.334 . S
C3320 C3321 1.287 . S
C3321 C3320 1.287 . S
C3321 C3322 1.524 . S
C3321 H3324 0.999 . S
C3322 H3292 0.950 . S
C3322 C3321 1.524 . S
C3322 C3323 1.415 . S
C3323 H3293 0.950 . S
C3323 C3318 1.363 . S
C3323 C3322 1.415 . S
H3324 C3321 0.999 . S
H3325 C3306 0.913 . S
H3326 C3344 0.951 . S
H3327 C3346 0.951 . S
H3328 C3348 0.950 . S
H3329 C3349 0.950 . S
H3330 C3351 0.950 . S
H3331 C3354 0.950 . S
H3332 C3355 0.950 . S
H3333 C3357 0.950 . S
H3334 C3358 0.950 . S
H3335 C3359 0.951 . S
H3336 C3361 0.951 . S
H3337 C3363 0.950 . S
H3338 C3364 0.950 . S
H3339 C3366 0.950 . S
H3340 C3369 0.950 . S
H3341 C3370 0.950 . S
H3342 C3372 0.950 . S
H3343 C3373 0.950 . S
C3344 H3326 0.951 . S
C3344 C3345 1.366 . S
C3344 C3346 1.388 . S
C3345 C3344 1.366 . S
C3345 C3349 1.385 . S
C3346 H3327 0.951 . S
C3346 C3344 1.388 . S
C3346 C3347 1.366 . S
C3347 C3346 1.366 . S
C3347 C3348 1.414 . S
C3347 C3350 1.499 . S
C3348 H3328 0.950 . S
C3348 C3347 1.414 . S
C3348 C3349 1.374 . S
C3349 H3329 0.950 . S
C3349 C3345 1.385 . S
C3349 C3348 1.374 . S
C3350 C3347 1.499 . S
C3350 C3351 1.373 . S
C3350 C3352 1.389 . S
C3351 H3330 0.950 . S
C3351 C3350 1.373 . S
C3351 C3367 1.377 . S
C3352 C3350 1.389 . S
C3352 C3353 1.524 . S
C3352 C3366 1.377 . S
C3353 C3352 1.524 . S
C3353 C3354 1.397 . S
C3353 C3358 1.363 . S
C3354 H3331 0.950 . S
C3354 C3353 1.397 . S
C3354 C3355 1.334 . S
C3355 H3332 0.950 . S
C3355 C3354 1.334 . S
C3355 C3356 1.287 . S
C3356 C3355 1.287 . S
C3356 C3357 1.524 . S
C3356 H3375 0.913 . S
C3357 H3333 0.950 . S
C3357 C3356 1.524 . S
C3357 C3358 1.415 . S
C3358 H3334 0.950 . S
C3358 C3353 1.363 . S
C3358 C3357 1.415 . S
C3359 H3335 0.951 . S
C3359 C3360 1.366 . S
C3359 C3361 1.388 . S
C3360 C3359 1.366 . S
C3360 C3364 1.385 . S
C3361 H3336 0.951 . S
C3361 C3359 1.388 . S
C3361 C3362 1.366 . S
C3362 C3361 1.366 . S
C3362 C3363 1.414 . S
C3362 C3365 1.499 . S
C3363 H3337 0.950 . S
C3363 C3362 1.414 . S
C3363 C3364 1.374 . S
C3364 H3338 0.950 . S
C3364 C3360 1.385 . S
C3364 C3363 1.374 . S
C3365 C3362 1.499 . S
C3365 C3366 1.373 . S
C3365 C3367 1.389 . S
C3366 H3339 0.950 . S
C3366 C3352 1.377 . S
C3366 C3365 1.373 . S
C3367 C3351 1.377 . S
C3367 C3365 1.389 . S
C3367 C3368 1.524 . S
C3368 C3367 1.524 . S
C3368 C3369 1.397 . S
C3368 C3373 1.363 . S
C3369 H3340 0.950 . S
C3369 C3368 1.397 . S
C3369 C3370 1.334 . S
C3370 H3341 0.950 . S
C3370 C3369 1.334 . S
C3370 C3371 1.287 . S
C3371 C3370 1.287 . S
C3371 C3372 1.524 . S
C3371 H3374 0.999 . S
C3372 H3342 0.950 . S
C3372 C3371 1.524 . S
C3372 C3373 1.415 . S
C3373 H3343 0.950 . S
C3373 C3368 1.363 . S
C3373 C3372 1.415 . S
H3374 C3371 0.999 . S
H3375 C3356 0.913 . S
H3376 C3394 0.951 . S
H3377 C3396 0.951 . S
H3378 C3398 0.950 . S
H3379 C3399 0.950 . S
H3380 C3401 0.950 . S
H3381 C3404 0.950 . S
H3382 C3405 0.950 . S
H3383 C3407 0.950 . S
H3384 C3408 0.950 . S
H3385 C3409 0.951 . S
H3386 C3411 0.951 . S
H3387 C3413 0.950 . S
H3388 C3414 0.950 . S
H3389 C3416 0.950 . S
H3390 C3419 0.950 . S
H3391 C3420 0.950 . S
H3392 C3422 0.950 . S
H3393 C3423 0.950 . S
C3394 H3376 0.951 . S
C3394 C3395 1.366 . S
C3394 C3396 1.388 . S
C3395 C3394 1.366 . S
C3395 C3399 1.385 . S
C3396 H3377 0.951 . S
C3396 C3394 1.388 . S
C3396 C3397 1.366 . S
C3397 C3396 1.366 . S
C3397 C3398 1.414 . S
C3397 C3400 1.499 . S
C3398 H3378 0.950 . S
C3398 C3397 1.414 . S
C3398 C3399 1.374 . S
C3399 H3379 0.950 . S
C3399 C3395 1.385 . S
C3399 C3398 1.374 . S
C3400 C3397 1.499 . S
C3400 C3401 1.373 . S
C3400 C3402 1.389 . S
C3401 H3380 0.950 . S
C3401 C3400 1.373 . S
C3401 C3417 1.377 . S
C3402 C3400 1.389 . S
C3402 C3403 1.524 . S
C3402 C3416 1.377 . S
C3403 C3402 1.524 . S
C3403 C3404 1.397 . S
C3403 C3408 1.363 . S
C3404 H3381 0.950 . S
C3404 C3403 1.397 . S
C3404 C3405 1.334 . S
C3405 H3382 0.950 . S
C3405 C3404 1.334 . S
C3405 C3406 1.287 . S
C3406 C3405 1.287 . S
C3406 C3407 1.524 . S
C3406 H3425 0.913 . S
C3407 H3383 0.950 . S
C3407 C3406 1.524 . S
C3407 C3408 1.415 . S
C3408 H3384 0.950 . S
C3408 C3403 1.363 . S
C3408 C3407 1.415 . S
C3409 H3385 0.951 . S
C3409 C3410 1.366 . S
C3409 C3411 1.388 . S
C3410 C3409 1.366 . S
C3410 C3414 1.385 . S
C3411 H3386 0.951 . S
C3411 C3409 1.388 . S
C3411 C3412 1.366 . S
C3412 C3411 1.366 . S
C3412 C3413 1.414 . S
C3412 C3415 1.499 . S
C3413 H3387 0.950 . S
C3413 C3412 1.414 . S
C3413 C3414 1.374 . S
C3414 H3388 0.950 . S
C3414 C3410 1.385 . S
C3414 C3413 1.374 . S
C3415 C3412 1.499 . S
C3415 C3416 1.373 . S
C3415 C3417 1.389 . S
C3416 H3389 0.950 . S
C3416 C3402 1.377 . S
C3416 C3415 1.373 . S
C3417 C3401 1.377 . S
C3417 C3415 1.389 . S
C3417 C3418 1.524 . S
C3418 C3417 1.524 . S
C3418 C3419 1.397 . S
C3418 C3423 1.363 . S
C3419 H3390 0.950 . S
C3419 C3418 1.397 . S
C3419 C3420 1.334 . S
C3420 H3391 0.950 . S
C3420 C3419 1.334 . S
C3420 C3421 1.287 . S
C3421 C3420 1.287 . S
C3421 C3422 1.524 . S
C3421 H3424 0.999 . S
C3422 H3392 0.950 . S
C3422 C3421 1.524 . S
C3422 C3423 1.415 . S
C3423 H3393 0.950 . S
C3423 C3418 1.363 . S
C3423 C3422 1.415 . S
H3424 C3421 0.999 . S
H3425 C3406 0.913 . S
H3426 C3444 0.951 . S
H3427 C3446 0.951 . S
H3428 C3448 0.950 . S
H3429 C3449 0.950 . S
H3430 C3451 0.950 . S
H3431 C3454 0.950 . S
H3432 C3455 0.950 . S
H3433 C3457 0.950 . S
H3434 C3458 0.950 . S
H3435 C3459 0.951 . S
H3436 C3461 0.951 . S
H3437 C3463 0.950 . S
H3438 C3464 0.950 . S
H3439 C3466 0.950 . S
H3440 C3469 0.950 . S
H3441 C3470 0.950 . S
H3442 C3472 0.950 . S
H3443 C3473 0.950 . S
C3444 H3426 0.951 . S
C3444 C3445 1.366 . S
C3444 C3446 1.388 . S
C3445 C3444 1.366 . S
C3445 C3449 1.385 . S
C3446 H3427 0.951 . S
C3446 C3444 1.388 . S
C3446 C3447 1.366 . S
C3447 C3446 1.366 . S
C3447 C3448 1.414 . S
C3447 C3450 1.499 . S
C3448 H3428 0.950 . S
C3448 C3447 1.414 . S
C3448 C3449 1.374 . S
C3449 H3429 0.950 . S
C3449 C3445 1.385 . S
C3449 C3448 1.374 . S
C3450 C3447 1.499 . S
C3450 C3451 1.373 . S
C3450 C3452 1.389 . S
C3451 H3430 0.950 . S
C3451 C3450 1.373 . S
C3451 C3467 1.377 . S
C3452 C3450 1.389 . S
C3452 C3453 1.524 . S
C3452 C3466 1.377 . S
C3453 C3452 1.524 . S
C3453 C3454 1.397 . S
C3453 C3458 1.363 . S
C3454 H3431 0.950 . S
C3454 C3453 1.397 . S
C3454 C3455 1.334 . S
C3455 H3432 0.950 . S
C3455 C3454 1.334 . S
C3455 C3456 1.287 . S
C3456 C3455 1.287 . S
C3456 C3457 1.524 . S
C3456 H3475 0.913 . S
C3457 H3433 0.950 . S
C3457 C3456 1.524 . S
C3457 C3458 1.415 . S
C3458 H3434 0.950 . S
C3458 C3453 1.363 . S
C3458 C3457 1.415 . S
C3459 H3435 0.951 . S
C3459 C3460 1.366 . S
C3459 C3461 1.388 . S
C3460 C3459 1.366 . S
C3460 C3464 1.385 . S
C3461 H3436 0.951 . S
C3461 C3459 1.388 . S
C3461 C3462 1.366 . S
C3462 C3461 1.366 . S
C3462 C3463 1.414 . S
C3462 C3465 1.499 . S
C3463 H3437 0.950 . S
C3463 C3462 1.414 . S
C3463 C3464 1.374 . S
C3464 H3438 0.950 . S
C3464 C3460 1.385 . S
C3464 C3463 1.374 . S
C3465 C3462 1.499 . S
C3465 C3466 1.373 . S
C3465 C3467 1.389 . S
C3466 H3439 0.950 . S
C3466 C3452 1.377 . S
C3466 C3465 1.373 . S
C3467 C3451 1.377 . S
C3467 C3465 1.389 . S
C3467 C3468 1.524 . S
C3468 C3467 1.524 . S
C3468 C3469 1.397 . S
C3468 C3473 1.363 . S
C3469 H3440 0.950 . S
C3469 C3468 1.397 . S
C3469 C3470 1.334 . S
C3470 H3441 0.950 . S
C3470 C3469 1.334 . S
C3470 C3471 1.287 . S
C3471 C3470 1.287 . S
C3471 C3472 1.524 . S
C3471 H3474 0.999 . S
C3472 H3442 0.950 . S
C3472 C3471 1.524 . S
C3472 C3473 1.415 . S
C3473 H3443 0.950 . S
C3473 C3468 1.363 . S
C3473 C3472 1.415 . S
H3474 C3471 0.999 . S
H3475 C3456 0.913 . S
H3476 C3494 0.951 1_655 S
H3477 C3496 0.951 1_655 S
H3478 C3498 0.950 . S
H3479 C3499 0.950 . S
H3480 C3501 0.950 . S
H3481 C3504 0.950 . S
H3482 C3505 0.950 . S
H3483 C3507 0.950 . S
H3484 C3508 0.950 . S
H3485 C3509 0.951 . S
H3486 C3511 0.951 . S
H3487 C3513 0.950 . S
H3488 C3514 0.962 . S
H3489 C3516 0.950 . S
H3490 C3519 0.950 . S
H3491 C3520 0.950 . S
H3492 C3522 0.950 . S
H3493 C3523 0.950 . S
C3494 H3476 0.951 1_455 S
C3494 C3495 1.366 . S
C3494 C3496 1.388 . S
C3495 C3494 1.366 . S
C3495 C3499 1.385 . S
C3496 H3477 0.951 1_455 S
C3496 C3494 1.388 . S
C3496 C3497 1.366 . S
C3497 C3496 1.366 . S
C3497 C3498 1.414 . S
C3497 C3500 1.499 . S
C3498 H3478 0.950 . S
C3498 C3497 1.414 . S
C3498 C3499 1.374 . S
C3499 H3479 0.950 . S
C3499 C3495 1.385 . S
C3499 C3498 1.374 . S
C3500 C3497 1.499 . S
C3500 C3501 1.373 . S
C3500 C3502 1.389 . S
C3501 H3480 0.950 . S
C3501 C3500 1.373 . S
C3501 C3517 1.377 . S
C3502 C3500 1.389 . S
C3502 C3503 1.524 1_455 S
C3502 C3516 1.377 . S
C3503 C3502 1.524 1_655 S
C3503 C3504 1.397 1_655 S
C3503 C3508 1.363 . S
C3504 H3481 0.950 . S
C3504 C3503 1.397 1_455 S
C3504 C3505 1.334 1_455 S
C3505 H3482 0.950 . S
C3505 C3504 1.334 1_655 S
C3505 C3506 1.287 . S
C3506 C3505 1.287 . S
C3506 C3507 1.524 . S
C3506 H3525 0.913 . S
C3507 H3483 0.950 . S
C3507 C3506 1.524 . S
C3507 C3508 1.415 . S
C3508 H3484 0.950 . S
C3508 C3503 1.363 . S
C3508 C3507 1.415 . S
C3509 H3485 0.951 . S
C3509 C3510 1.345 1_556 S
C3509 C3511 1.388 . S
C3510 C3509 1.345 1_554 S
C3510 C3514 1.390 . S
C3511 H3486 0.951 . S
C3511 C3509 1.388 . S
C3511 C3512 1.366 . S
C3512 C3511 1.366 . S
C3512 C3513 1.414 . S
C3512 C3515 1.499 . S
C3513 H3487 0.950 . S
C3513 C3512 1.414 . S
C3513 C3514 1.368 1_556 S
C3514 H3488 0.962 . S
C3514 C3510 1.390 . S
C3514 C3513 1.368 1_554 S
C3515 C3512 1.499 . S
C3515 C3516 1.373 . S
C3515 C3517 1.389 . S
C3516 H3489 0.950 . S
C3516 C3502 1.377 . S
C3516 C3515 1.373 . S
C3517 C3501 1.377 . S
C3517 C3515 1.389 . S
C3517 C3518 1.524 . S
C3518 C3517 1.524 . S
C3518 C3519 1.397 1_556 S
C3518 C3523 1.363 . S
C3519 H3490 0.950 . S
C3519 C3518 1.397 1_554 S
C3519 C3520 1.334 . S
C3520 H3491 0.950 . S
C3520 C3519 1.334 . S
C3520 C3521 1.287 . S
C3521 C3520 1.287 . S
C3521 C3522 1.524 . S
C3521 H3524 0.999 . S
C3522 H3492 0.950 . S
C3522 C3521 1.524 . S
C3522 C3523 1.415 1_554 S
C3523 H3493 0.950 . S
C3523 C3518 1.363 . S
C3523 C3522 1.415 1_556 S
H3524 C3521 0.999 . S
H3525 C3506 0.913 . S
H3526 C3544 0.951 . S
H3527 C3546 0.951 . S
H3528 C3548 0.950 . S
H3529 C3549 0.950 . S
H3530 C3551 0.950 . S
H3531 C3554 0.950 . S
H3532 C3555 0.950 . S
H3533 C3557 0.950 . S
H3534 C3558 0.950 . S
H3535 C3559 0.951 . S
H3536 C3561 0.951 . S
H3537 C3563 0.950 . S
H3538 C3564 0.950 . S
H3539 C3566 0.950 . S
H3540 C3569 0.950 . S
H3541 C3570 0.950 . S
H3542 C3572 0.950 . S
H3543 C3573 0.950 . S
C3544 H3526 0.951 . S
C3544 C3545 1.366 . S
C3544 C3546 1.388 1_455 S
C3545 C3544 1.366 . S
C3545 C3549 1.385 . S
C3546 H3527 0.951 . S
C3546 C3544 1.388 1_655 S
C3546 C3547 1.366 . S
C3547 C3546 1.366 . S
C3547 C3548 1.414 . S
C3547 C3550 1.499 . S
C3548 H3528 0.950 . S
C3548 C3547 1.414 . S
C3548 C3549 1.374 1_655 S
C3549 H3529 0.950 . S
C3549 C3545 1.385 . S
C3549 C3548 1.374 1_455 S
C3550 C3547 1.499 . S
C3550 C3551 1.373 . S
C3550 C3552 1.389 . S
C3551 H3530 0.950 . S
C3551 C3550 1.373 . S
C3551 C3567 1.377 . S
C3552 C3550 1.389 . S
C3552 C3553 1.524 . S
C3552 C3566 1.377 . S
C3553 C3552 1.524 . S
C3553 C3554 1.397 . S
C3553 C3558 1.363 . S
C3554 H3531 0.950 . S
C3554 C3553 1.397 . S
C3554 C3555 1.334 . S
C3555 H3532 0.950 . S
C3555 C3554 1.334 . S
C3555 C3556 1.287 . S
C3556 C3555 1.287 . S
C3556 C3557 1.524 . S
C3556 H3575 0.913 . S
C3557 H3533 0.950 . S
C3557 C3556 1.524 . S
C3557 C3558 1.415 . S
C3558 H3534 0.950 . S
C3558 C3553 1.363 . S
C3558 C3557 1.415 . S
C3559 H3535 0.951 . S
C3559 C3560 1.366 . S
C3559 C3561 1.388 . S
C3560 C3559 1.366 . S
C3560 C3564 1.385 . S
C3561 H3536 0.951 . S
C3561 C3559 1.388 . S
C3561 C3562 1.366 . S
C3562 C3561 1.366 . S
C3562 C3563 1.414 . S
C3562 C3565 1.499 . S
C3563 H3537 0.950 . S
C3563 C3562 1.414 . S
C3563 C3564 1.374 . S
C3564 H3538 0.950 . S
C3564 C3560 1.385 . S
C3564 C3563 1.374 . S
C3565 C3562 1.499 . S
C3565 C3566 1.373 . S
C3565 C3567 1.389 . S
C3566 H3539 0.950 . S
C3566 C3552 1.377 . S
C3566 C3565 1.373 . S
C3567 C3551 1.377 . S
C3567 C3565 1.389 . S
C3567 C3568 1.524 . S
C3568 C3567 1.524 . S
C3568 C3569 1.397 . S
C3568 C3573 1.363 . S
C3569 H3540 0.950 . S
C3569 C3568 1.397 . S
C3569 C3570 1.334 . S
C3570 H3541 0.950 . S
C3570 C3569 1.334 . S
C3570 C3571 1.287 . S
C3571 C3570 1.287 . S
C3571 C3572 1.524 . S
C3571 H3574 0.999 . S
C3572 H3542 0.950 . S
C3572 C3571 1.524 . S
C3572 C3573 1.415 . S
C3573 H3543 0.950 . S
C3573 C3568 1.363 . S
C3573 C3572 1.415 . S
H3574 C3571 0.999 . S
H3575 C3556 0.913 . S
H3576 C3594 0.951 . S
H3577 C3596 0.951 . S
H3578 C3598 0.950 . S
H3579 C3599 0.950 . S
H3580 C3601 0.950 . S
H3581 C3604 0.950 . S
H3582 C3605 0.950 . S
H3583 C3607 0.950 . S
H3584 C3608 0.950 . S
H3585 C3609 0.951 . S
H3586 C3611 0.951 . S
H3587 C3613 0.950 . S
H3588 C3614 0.950 . S
H3589 C3616 0.950 . S
H3590 C3619 0.950 . S
H3591 C3620 0.950 . S
H3592 C3622 0.950 . S
H3593 C3623 0.950 . S
C3594 H3576 0.951 . S
C3594 C3595 1.366 . S
C3594 C3596 1.388 . S
C3595 C3594 1.366 . S
C3595 C3599 1.385 . S
C3596 H3577 0.951 . S
C3596 C3594 1.388 . S
C3596 C3597 1.366 . S
C3597 C3596 1.366 . S
C3597 C3598 1.414 . S
C3597 C3600 1.499 . S
C3598 H3578 0.950 . S
C3598 C3597 1.414 . S
C3598 C3599 1.374 . S
C3599 H3579 0.950 . S
C3599 C3595 1.385 . S
C3599 C3598 1.374 . S
C3600 C3597 1.499 . S
C3600 C3601 1.373 . S
C3600 C3602 1.389 . S
C3601 H3580 0.950 . S
C3601 C3600 1.373 . S
C3601 C3617 1.377 . S
C3602 C3600 1.389 . S
C3602 C3603 1.524 . S
C3602 C3616 1.377 . S
C3603 C3602 1.524 . S
C3603 C3604 1.397 . S
C3603 C3608 1.363 . S
C3604 H3581 0.950 . S
C3604 C3603 1.397 . S
C3604 C3605 1.334 . S
C3605 H3582 0.950 . S
C3605 C3604 1.334 . S
C3605 C3606 1.287 . S
C3606 C3605 1.287 . S
C3606 C3607 1.524 . S
C3606 H3625 0.913 . S
C3607 H3583 0.950 . S
C3607 C3606 1.524 . S
C3607 C3608 1.415 . S
C3608 H3584 0.950 . S
C3608 C3603 1.363 . S
C3608 C3607 1.415 . S
C3609 H3585 0.951 . S
C3609 C3610 1.366 . S
C3609 C3611 1.388 . S
C3610 C3609 1.366 . S
C3610 C3614 1.385 . S
C3611 H3586 0.951 . S
C3611 C3609 1.388 . S
C3611 C3612 1.366 . S
C3612 C3611 1.366 . S
C3612 C3613 1.414 . S
C3612 C3615 1.499 . S
C3613 H3587 0.950 . S
C3613 C3612 1.414 . S
C3613 C3614 1.374 . S
C3614 H3588 0.950 . S
C3614 C3610 1.385 . S
C3614 C3613 1.374 . S
C3615 C3612 1.499 . S
C3615 C3616 1.373 . S
C3615 C3617 1.389 . S
C3616 H3589 0.950 . S
C3616 C3602 1.377 . S
C3616 C3615 1.373 . S
C3617 C3601 1.377 . S
C3617 C3615 1.389 . S
C3617 C3618 1.524 . S
C3618 C3617 1.524 . S
C3618 C3619 1.397 . S
C3618 C3623 1.363 . S
C3619 H3590 0.950 . S
C3619 C3618 1.397 . S
C3619 C3620 1.334 . S
C3620 H3591 0.950 . S
C3620 C3619 1.334 . S
C3620 C3621 1.287 . S
C3621 C3620 1.287 . S
C3621 C3622 1.524 . S
C3621 H3624 0.999 . S
C3622 H3592 0.950 . S
C3622 C3621 1.524 . S
C3622 C3623 1.415 . S
C3623 H3593 0.950 . S
C3623 C3618 1.363 . S
C3623 C3622 1.415 . S
H3624 C3621 0.999 . S
H3625 C3606 0.913 . S
H3626 C3644 0.951 . S
H3627 C3646 0.947 1_655 S
H3628 C3648 0.950 . S
H3629 C3649 0.950 . S
H3630 C3651 0.950 . S
H3631 C3654 0.950 . S
H3632 C3655 0.950 . S
H3633 C3657 0.950 . S
H3634 C3658 0.950 . S
H3635 C3659 0.951 . S
H3636 C3661 0.951 . S
H3637 C3663 0.950 . S
H3638 C3664 0.950 . S
H3639 C3666 0.950 . S
H3640 C3669 0.950 . S
H3641 C3670 0.950 . S
H3642 C3672 0.950 . S
H3643 C3673 0.950 . S
C3644 H3626 0.951 . S
C3644 C3645 1.366 . S
C3644 C3646 1.388 . S
C3645 C3644 1.366 . S
C3645 C3649 1.385 . S
C3646 H3627 0.947 1_455 S
C3646 C3644 1.388 . S
C3646 C3647 1.366 . S
C3647 C3646 1.366 . S
C3647 C3648 1.414 . S
C3647 C3650 1.499 1_455 S
C3648 H3628 0.950 . S
C3648 C3647 1.414 . S
C3648 C3649 1.374 . S
C3649 H3629 0.950 . S
C3649 C3645 1.385 . S
C3649 C3648 1.374 . S
C3650 C3647 1.499 1_655 S
C3650 C3651 1.373 . S
C3650 C3652 1.389 . S
C3651 H3630 0.950 . S
C3651 C3650 1.373 . S
C3651 C3667 1.377 . S
C3652 C3650 1.389 . S
C3652 C3653 1.524 . S
C3652 C3666 1.377 . S
C3653 C3652 1.524 . S
C3653 C3654 1.397 . S
C3653 C3658 1.363 . S
C3654 H3631 0.950 . S
C3654 C3653 1.397 . S
C3654 C3655 1.334 . S
C3655 H3632 0.950 . S
C3655 C3654 1.334 . S
C3655 C3656 1.287 . S
C3656 C3655 1.287 . S
C3656 C3657 1.524 . S
C3656 H3675 0.913 . S
C3657 H3633 0.950 . S
C3657 C3656 1.524 . S
C3657 C3658 1.415 . S
C3658 H3634 0.950 . S
C3658 C3653 1.363 . S
C3658 C3657 1.415 . S
C3659 H3635 0.951 . S
C3659 C3660 1.366 . S
C3659 C3661 1.388 . S
C3660 C3659 1.366 . S
C3660 C3664 1.385 . S
C3661 H3636 0.951 . S
C3661 C3659 1.388 . S
C3661 C3662 1.366 . S
C3662 C3661 1.366 . S
C3662 C3663 1.414 . S
C3662 C3665 1.499 . S
C3663 H3637 0.950 . S
C3663 C3662 1.414 . S
C3663 C3664 1.374 . S
C3664 H3638 0.950 . S
C3664 C3660 1.385 . S
C3664 C3663 1.374 . S
C3665 C3662 1.499 . S
C3665 C3666 1.373 . S
C3665 C3667 1.389 . S
C3666 H3639 0.950 . S
C3666 C3652 1.377 . S
C3666 C3665 1.373 . S
C3667 C3651 1.377 . S
C3667 C3665 1.389 . S
C3667 C3668 1.524 . S
C3668 C3667 1.524 . S
C3668 C3669 1.397 . S
C3668 C3673 1.363 . S
C3669 H3640 0.950 . S
C3669 C3668 1.397 . S
C3669 C3670 1.334 . S
C3670 H3641 0.950 . S
C3670 C3669 1.334 . S
C3670 C3671 1.287 . S
C3671 C3670 1.287 . S
C3671 C3672 1.524 . S
C3671 H3674 0.999 . S
C3672 H3642 0.950 . S
C3672 C3671 1.524 . S
C3672 C3673 1.415 . S
C3673 H3643 0.950 . S
C3673 C3668 1.363 . S
C3673 C3672 1.415 . S
H3674 C3671 0.999 . S
H3675 C3656 0.913 . S
H3676 C3694 0.951 . S
H3677 C3696 0.951 . S
H3678 C3698 0.950 . S
H3679 C3699 0.950 . S
H3680 C3701 0.950 . S
H3681 C3704 0.950 . S
H3682 C3705 0.950 . S
H3683 C3707 0.950 . S
H3684 C3708 0.950 . S
H3685 C3709 0.951 . S
H3686 C3711 0.951 1_655 S
H3687 C3713 0.950 . S
H3688 C3714 0.950 . S
H3689 C3716 0.950 . S
H3690 C3719 0.950 . S
H3691 C3720 0.972 . S
H3692 C3722 0.950 . S
H3693 C3723 0.950 . S
C3694 H3676 0.951 . S
C3694 C3695 1.366 1_455 S
C3694 C3696 1.388 . S
C3695 C3694 1.366 1_655 S
C3695 C3699 1.385 . S
C3696 H3677 0.951 . S
C3696 C3694 1.388 . S
C3696 C3697 1.366 . S
C3697 C3696 1.366 . S
C3697 C3698 1.414 1_455 S
C3697 C3700 1.499 . S
C3698 H3678 0.950 . S
C3698 C3697 1.414 1_655 S
C3698 C3699 1.374 . S
C3699 H3679 0.950 . S
C3699 C3695 1.385 . S
C3699 C3698 1.374 . S
C3700 C3697 1.499 . S
C3700 C3701 1.373 1_455 S
C3700 C3702 1.389 . S
C3701 H3680 0.950 . S
C3701 C3700 1.373 1_655 S
C3701 C3717 1.377 1_655 S
C3702 C3700 1.389 . S
C3702 C3703 1.524 . S
C3702 C3716 1.377 . S
C3703 C3702 1.524 . S
C3703 C3704 1.397 . S
C3703 C3708 1.363 . S
C3704 H3681 0.950 . S
C3704 C3703 1.397 . S
C3704 C3705 1.334 . S
C3705 H3682 0.950 . S
C3705 C3704 1.334 . S
C3705 C3706 1.287 . S
C3706 C3705 1.287 . S
C3706 C3707 1.524 . S
C3706 H3725 0.913 . S
C3707 H3683 0.950 . S
C3707 C3706 1.524 . S
C3707 C3708 1.415 . S
C3708 H3684 0.950 . S
C3708 C3703 1.363 . S
C3708 C3707 1.415 . S
C3709 H3685 0.951 . S
C3709 C3710 1.366 . S
C3709 C3711 1.388 . S
C3710 C3709 1.366 . S
C3710 C3714 1.385 . S
C3711 H3686 0.951 1_455 S
C3711 C3709 1.388 . S
C3711 C3712 1.366 . S
C3712 C3711 1.366 . S
C3712 C3713 1.414 . S
C3712 C3715 1.499 . S
C3713 H3687 0.950 . S
C3713 C3712 1.414 . S
C3713 C3714 1.374 . S
C3714 H3688 0.950 . S
C3714 C3710 1.385 . S
C3714 C3713 1.374 . S
C3715 C3712 1.499 . S
C3715 C3716 1.373 . S
C3715 C3717 1.389 . S
C3716 H3689 0.950 . S
C3716 C3702 1.377 . S
C3716 C3715 1.373 . S
C3717 C3701 1.377 1_455 S
C3717 C3715 1.389 . S
C3717 C3718 1.524 1_455 S
C3718 C3717 1.524 1_655 S
C3718 C3719 1.397 1_655 S
C3718 C3723 1.363 . S
C3719 H3690 0.950 . S
C3719 C3718 1.397 1_455 S
C3719 C3720 1.334 1_455 S
C3720 H3691 0.972 . S
C3720 C3719 1.334 1_655 S
C3720 C3721 1.287 . S
C3721 C3720 1.287 . S
C3721 C3722 1.524 . S
C3721 H3724 0.999 . S
C3722 H3692 0.950 . S
C3722 C3721 1.524 . S
C3722 C3723 1.415 . S
C3723 H3693 0.950 . S
C3723 C3718 1.363 . S
C3723 C3722 1.415 . S
H3724 C3721 0.999 . S
H3725 C3706 0.913 . S
H3726 C3744 0.951 . S
H3727 C3746 0.951 . S
H3728 C3748 0.950 . S
H3729 C3749 0.950 . S
H3730 C3751 0.950 . S
H3731 C3754 0.950 . S
H3732 C3755 0.950 . S
H3733 C3757 0.950 . S
H3734 C3758 0.950 . S
H3735 C3759 0.951 . S
H3736 C3761 0.951 . S
H3737 C3763 0.950 . S
H3738 C3764 0.950 . S
H3739 C3766 0.950 . S
H3740 C3769 0.950 . S
H3741 C3770 0.950 . S
H3742 C3772 0.950 . S
H3743 C3773 0.950 . S
C3744 H3726 0.951 . S
C3744 C3745 1.366 . S
C3744 C3746 1.388 . S
C3745 C3744 1.366 . S
C3745 C3749 1.385 . S
C3746 H3727 0.951 . S
C3746 C3744 1.388 . S
C3746 C3747 1.366 . S
C3747 C3746 1.366 . S
C3747 C3748 1.414 . S
C3747 C3750 1.499 . S
C3748 H3728 0.950 . S
C3748 C3747 1.414 . S
C3748 C3749 1.374 . S
C3749 H3729 0.950 . S
C3749 C3745 1.385 . S
C3749 C3748 1.374 . S
C3750 C3747 1.499 . S
C3750 C3751 1.373 . S
C3750 C3752 1.389 . S
C3751 H3730 0.950 . S
C3751 C3750 1.373 . S
C3751 C3767 1.377 . S
C3752 C3750 1.389 . S
C3752 C3753 1.524 . S
C3752 C3766 1.377 . S
C3753 C3752 1.524 . S
C3753 C3754 1.397 . S
C3753 C3758 1.363 . S
C3754 H3731 0.950 . S
C3754 C3753 1.397 . S
C3754 C3755 1.334 . S
C3755 H3732 0.950 . S
C3755 C3754 1.334 . S
C3755 C3756 1.287 . S
C3756 C3755 1.287 . S
C3756 C3757 1.524 . S
C3756 H3775 0.913 . S
C3757 H3733 0.950 . S
C3757 C3756 1.524 . S
C3757 C3758 1.415 . S
C3758 H3734 0.950 . S
C3758 C3753 1.363 . S
C3758 C3757 1.415 . S
C3759 H3735 0.951 . S
C3759 C3760 1.366 . S
C3759 C3761 1.388 . S
C3760 C3759 1.366 . S
C3760 C3764 1.385 . S
C3761 H3736 0.951 . S
C3761 C3759 1.388 . S
C3761 C3762 1.366 . S
C3762 C3761 1.366 . S
C3762 C3763 1.414 . S
C3762 C3765 1.499 . S
C3763 H3737 0.950 . S
C3763 C3762 1.414 . S
C3763 C3764 1.374 . S
C3764 H3738 0.950 . S
C3764 C3760 1.385 . S
C3764 C3763 1.374 . S
C3765 C3762 1.499 . S
C3765 C3766 1.373 . S
C3765 C3767 1.389 . S
C3766 H3739 0.950 . S
C3766 C3752 1.377 . S
C3766 C3765 1.373 . S
C3767 C3751 1.377 . S
C3767 C3765 1.389 . S
C3767 C3768 1.524 . S
C3768 C3767 1.524 . S
C3768 C3769 1.397 . S
C3768 C3773 1.363 . S
C3769 H3740 0.950 . S
C3769 C3768 1.397 . S
C3769 C3770 1.334 . S
C3770 H3741 0.950 . S
C3770 C3769 1.334 . S
C3770 C3771 1.287 . S
C3771 C3770 1.287 . S
C3771 C3772 1.524 . S
C3771 H3774 0.999 . S
C3772 H3742 0.950 . S
C3772 C3771 1.524 . S
C3772 C3773 1.415 . S
C3773 H3743 0.950 . S
C3773 C3768 1.363 . S
C3773 C3772 1.415 . S
H3774 C3771 0.999 . S
H3775 C3756 0.913 . S
H3776 C3794 0.951 . S
H3777 C3796 0.951 . S
H3778 C3798 0.950 . S
H3779 C3799 0.950 . S
H3780 C3801 0.950 . S
H3781 C3804 0.950 . S
H3782 C3805 0.950 . S
H3783 C3807 0.950 . S
H3784 C3808 0.950 . S
H3785 C3809 0.951 . S
H3786 C3811 0.951 . S
H3787 C3813 0.950 . S
H3788 C3814 0.950 . S
H3789 C3816 0.950 . S
H3790 C3819 0.950 . S
H3791 C3820 0.950 . S
H3792 C3822 0.950 . S
H3793 C3823 0.950 . S
C3794 H3776 0.951 . S
C3794 C3795 1.366 . S
C3794 C3796 1.388 . S
C3795 C3794 1.366 . S
C3795 C3799 1.385 . S
C3796 H3777 0.951 . S
C3796 C3794 1.388 . S
C3796 C3797 1.366 . S
C3797 C3796 1.366 . S
C3797 C3798 1.414 . S
C3797 C3800 1.499 . S
C3798 H3778 0.950 . S
C3798 C3797 1.414 . S
C3798 C3799 1.374 . S
C3799 H3779 0.950 . S
C3799 C3795 1.385 . S
C3799 C3798 1.374 . S
C3800 C3797 1.499 . S
C3800 C3801 1.373 . S
C3800 C3802 1.389 . S
C3801 H3780 0.950 . S
C3801 C3800 1.373 . S
C3801 C3817 1.377 . S
C3802 C3800 1.389 . S
C3802 C3803 1.524 . S
C3802 C3816 1.377 . S
C3803 C3802 1.524 . S
C3803 C3804 1.397 . S
C3803 C3808 1.363 . S
C3804 H3781 0.950 . S
C3804 C3803 1.397 . S
C3804 C3805 1.334 . S
C3805 H3782 0.950 . S
C3805 C3804 1.334 . S
C3805 C3806 1.287 . S
C3806 C3805 1.287 . S
C3806 C3807 1.524 . S
C3806 H3825 0.913 . S
C3807 H3783 0.950 . S
C3807 C3806 1.524 . S
C3807 C3808 1.415 . S
C3808 H3784 0.950 . S
C3808 C3803 1.363 . S
C3808 C3807 1.415 . S
C3809 H3785 0.951 . S
C3809 C3810 1.366 . S
C3809 C3811 1.388 . S
C3810 C3809 1.366 . S
C3810 C3814 1.385 . S
C3811 H3786 0.951 . S
C3811 C3809 1.388 . S
C3811 C3812 1.366 . S
C3812 C3811 1.366 . S
C3812 C3813 1.414 . S
C3812 C3815 1.499 . S
C3813 H3787 0.950 . S
C3813 C3812 1.414 . S
C3813 C3814 1.374 . S
C3814 H3788 0.950 . S
C3814 C3810 1.385 . S
C3814 C3813 1.374 . S
C3815 C3812 1.499 . S
C3815 C3816 1.373 . S
C3815 C3817 1.389 . S
C3816 H3789 0.950 . S
C3816 C3802 1.377 . S
C3816 C3815 1.373 . S
C3817 C3801 1.377 . S
C3817 C3815 1.389 . S
C3817 C3818 1.524 . S
C3818 C3817 1.524 . S
C3818 C3819 1.397 . S
C3818 C3823 1.363 . S
C3819 H3790 0.950 . S
C3819 C3818 1.397 . S
C3819 C3820 1.334 . S
C3820 H3791 0.950 . S
C3820 C3819 1.334 . S
C3820 C3821 1.287 . S
C3821 C3820 1.287 . S
C3821 C3822 1.524 . S
C3821 H3824 0.999 . S
C3822 H3792 0.950 . S
C3822 C3821 1.524 . S
C3822 C3823 1.415 . S
C3823 H3793 0.950 . S
C3823 C3818 1.363 . S
C3823 C3822 1.415 . S
H3824 C3821 0.999 . S
H3825 C3806 0.913 . S
H3826 C3844 0.951 . S
H3827 C3846 0.951 . S
H3828 C3848 0.950 . S
H3829 C3849 0.950 . S
H3830 C3851 0.950 . S
H3831 C3854 0.950 . S
H3832 C3855 0.950 . S
H3833 C3857 0.950 . S
H3834 C3858 0.950 . S
H3835 C3859 0.951 . S
H3836 C3861 0.951 . S
H3837 C3863 0.950 . S
H3838 C3864 0.950 . S
H3839 C3866 0.950 . S
H3840 C3869 0.950 . S
H3841 C3870 0.950 . S
H3842 C3872 0.950 . S
H3843 C3873 0.950 . S
C3844 H3826 0.951 . S
C3844 C3845 1.366 . S
C3844 C3846 1.388 . S
C3845 C3844 1.366 . S
C3845 C3849 1.385 . S
C3846 H3827 0.951 . S
C3846 C3844 1.388 . S
C3846 C3847 1.366 . S
C3847 C3846 1.366 . S
C3847 C3848 1.414 . S
C3847 C3850 1.499 . S
C3848 H3828 0.950 . S
C3848 C3847 1.414 . S
C3848 C3849 1.374 . S
C3849 H3829 0.950 . S
C3849 C3845 1.385 . S
C3849 C3848 1.374 . S
C3850 C3847 1.499 . S
C3850 C3851 1.373 . S
C3850 C3852 1.389 . S
C3851 H3830 0.950 . S
C3851 C3850 1.373 . S
C3851 C3867 1.377 . S
C3852 C3850 1.389 . S
C3852 C3853 1.524 . S
C3852 C3866 1.377 . S
C3853 C3852 1.524 . S
C3853 C3854 1.397 . S
C3853 C3858 1.363 . S
C3854 H3831 0.950 . S
C3854 C3853 1.397 . S
C3854 C3855 1.334 . S
C3855 H3832 0.950 . S
C3855 C3854 1.334 . S
C3855 C3856 1.287 . S
C3856 C3855 1.287 . S
C3856 C3857 1.524 . S
C3856 H3875 0.913 . S
C3857 H3833 0.950 . S
C3857 C3856 1.524 . S
C3857 C3858 1.415 . S
C3858 H3834 0.950 . S
C3858 C3853 1.363 . S
C3858 C3857 1.415 . S
C3859 H3835 0.951 . S
C3859 C3860 1.366 . S
C3859 C3861 1.388 . S
C3860 C3859 1.366 . S
C3860 C3864 1.385 . S
C3861 H3836 0.951 . S
C3861 C3859 1.388 . S
C3861 C3862 1.366 . S
C3862 C3861 1.366 . S
C3862 C3863 1.414 . S
C3862 C3865 1.499 . S
C3863 H3837 0.950 . S
C3863 C3862 1.414 . S
C3863 C3864 1.374 . S
C3864 H3838 0.950 . S
C3864 C3860 1.385 . S
C3864 C3863 1.374 . S
C3865 C3862 1.499 . S
C3865 C3866 1.373 . S
C3865 C3867 1.389 . S
C3866 H3839 0.950 . S
C3866 C3852 1.377 . S
C3866 C3865 1.373 . S
C3867 C3851 1.377 . S
C3867 C3865 1.389 . S
C3867 C3868 1.524 . S
C3868 C3867 1.524 . S
C3868 C3869 1.397 . S
C3868 C3873 1.363 . S
C3869 H3840 0.950 . S
C3869 C3868 1.397 . S
C3869 C3870 1.334 . S
C3870 H3841 0.950 . S
C3870 C3869 1.334 . S
C3870 C3871 1.287 . S
C3871 C3870 1.287 . S
C3871 C3872 1.524 . S
C3871 H3874 0.999 . S
C3872 H3842 0.950 . S
C3872 C3871 1.524 . S
C3872 C3873 1.415 . S
C3873 H3843 0.950 . S
C3873 C3868 1.363 . S
C3873 C3872 1.415 . S
H3874 C3871 0.999 . S
H3875 C3856 0.913 . S
H3876 C3894 0.951 . S
H3877 C3896 0.951 . S
H3878 C3898 0.950 . S
H3879 C3899 0.950 . S
H3880 C3901 0.950 . S
H3881 C3904 0.950 . S
H3882 C3905 0.950 . S
H3883 C3907 0.950 . S
H3884 C3908 0.950 . S
H3885 C3909 0.951 . S
H3886 C3911 0.951 . S
H3887 C3913 0.950 . S
H3888 C3914 0.950 . S
H3889 C3916 0.950 . S
H3890 C3919 0.950 . S
H3891 C3920 0.950 . S
H3892 C3922 0.950 . S
H3893 C3923 0.950 . S
C3894 H3876 0.951 . S
C3894 C3895 1.366 . S
C3894 C3896 1.388 . S
C3895 C3894 1.366 . S
C3895 C3899 1.385 . S
C3896 H3877 0.951 . S
C3896 C3894 1.388 . S
C3896 C3897 1.366 . S
C3897 C3896 1.366 . S
C3897 C3898 1.414 . S
C3897 C3900 1.499 . S
C3898 H3878 0.950 . S
C3898 C3897 1.414 . S
C3898 C3899 1.374 . S
C3899 H3879 0.950 . S
C3899 C3895 1.385 . S
C3899 C3898 1.374 . S
C3900 C3897 1.499 . S
C3900 C3901 1.373 . S
C3900 C3902 1.389 . S
C3901 H3880 0.950 . S
C3901 C3900 1.373 . S
C3901 C3917 1.377 . S
C3902 C3900 1.389 . S
C3902 C3903 1.524 . S
C3902 C3916 1.377 . S
C3903 C3902 1.524 . S
C3903 C3904 1.397 . S
C3903 C3908 1.363 . S
C3904 H3881 0.950 . S
C3904 C3903 1.397 . S
C3904 C3905 1.334 . S
C3905 H3882 0.950 . S
C3905 C3904 1.334 . S
C3905 C3906 1.287 . S
C3906 C3905 1.287 . S
C3906 C3907 1.524 . S
C3906 H3925 0.913 . S
C3907 H3883 0.950 . S
C3907 C3906 1.524 . S
C3907 C3908 1.415 . S
C3908 H3884 0.950 . S
C3908 C3903 1.363 . S
C3908 C3907 1.415 . S
C3909 H3885 0.951 . S
C3909 C3910 1.366 . S
C3909 C3911 1.388 . S
C3910 C3909 1.366 . S
C3910 C3914 1.385 . S
C3911 H3886 0.951 . S
C3911 C3909 1.388 . S
C3911 C3912 1.366 . S
C3912 C3911 1.366 . S
C3912 C3913 1.414 . S
C3912 C3915 1.499 . S
C3913 H3887 0.950 . S
C3913 C3912 1.414 . S
C3913 C3914 1.374 . S
C3914 H3888 0.950 . S
C3914 C3910 1.385 . S
C3914 C3913 1.374 . S
C3915 C3912 1.499 . S
C3915 C3916 1.373 . S
C3915 C3917 1.389 . S
C3916 H3889 0.950 . S
C3916 C3902 1.377 . S
C3916 C3915 1.373 . S
C3917 C3901 1.377 . S
C3917 C3915 1.389 . S
C3917 C3918 1.524 . S
C3918 C3917 1.524 . S
C3918 C3919 1.397 . S
C3918 C3923 1.363 . S
C3919 H3890 0.950 . S
C3919 C3918 1.397 . S
C3919 C3920 1.334 . S
C3920 H3891 0.950 . S
C3920 C3919 1.334 . S
C3920 C3921 1.287 . S
C3921 C3920 1.287 . S
C3921 C3922 1.524 . S
C3921 H3924 0.999 . S
C3922 H3892 0.950 . S
C3922 C3921 1.524 . S
C3922 C3923 1.415 . S
C3923 H3893 0.950 . S
C3923 C3918 1.363 . S
C3923 C3922 1.415 . S
H3924 C3921 0.999 . S
H3925 C3906 0.913 . S
H3926 C3944 0.951 . S
H3927 C3946 0.951 . S
H3928 C3948 0.950 . S
H3929 C3949 0.950 . S
H3930 C3951 0.950 . S
H3931 C3954 0.950 . S
H3932 C3955 0.950 . S
H3933 C3957 0.950 . S
H3934 C3958 0.950 . S
H3935 C3959 0.951 . S
H3936 C3961 0.951 . S
H3937 C3963 0.950 . S
H3938 C3964 0.950 . S
H3939 C3966 0.950 . S
H3940 C3969 0.950 . S
H3941 C3970 0.950 . S
H3942 C3972 0.950 . S
H3943 C3973 0.950 . S
C3944 H3926 0.951 . S
C3944 C3945 1.366 . S
C3944 C3946 1.388 . S
C3945 C3944 1.366 . S
C3945 C3949 1.385 . S
C3946 H3927 0.951 . S
C3946 C3944 1.388 . S
C3946 C3947 1.366 . S
C3947 C3946 1.366 . S
C3947 C3948 1.414 . S
C3947 C3950 1.499 . S
C3948 H3928 0.950 . S
C3948 C3947 1.414 . S
C3948 C3949 1.374 . S
C3949 H3929 0.950 . S
C3949 C3945 1.385 . S
C3949 C3948 1.374 . S
C3950 C3947 1.499 . S
C3950 C3951 1.373 . S
C3950 C3952 1.389 . S
C3951 H3930 0.950 . S
C3951 C3950 1.373 . S
C3951 C3967 1.377 . S
C3952 C3950 1.389 . S
C3952 C3953 1.524 . S
C3952 C3966 1.377 . S
C3953 C3952 1.524 . S
C3953 C3954 1.397 . S
C3953 C3958 1.363 . S
C3954 H3931 0.950 . S
C3954 C3953 1.397 . S
C3954 C3955 1.334 . S
C3955 H3932 0.950 . S
C3955 C3954 1.334 . S
C3955 C3956 1.287 . S
C3956 C3955 1.287 . S
C3956 C3957 1.524 . S
C3956 H3975 0.913 . S
C3957 H3933 0.950 . S
C3957 C3956 1.524 . S
C3957 C3958 1.415 . S
C3958 H3934 0.950 . S
C3958 C3953 1.363 . S
C3958 C3957 1.415 . S
C3959 H3935 0.951 . S
C3959 C3960 1.366 . S
C3959 C3961 1.388 . S
C3960 C3959 1.366 . S
C3960 C3964 1.385 . S
C3961 H3936 0.951 . S
C3961 C3959 1.388 . S
C3961 C3962 1.366 . S
C3962 C3961 1.366 . S
C3962 C3963 1.414 . S
C3962 C3965 1.499 . S
C3963 H3937 0.950 . S
C3963 C3962 1.414 . S
C3963 C3964 1.374 . S
C3964 H3938 0.950 . S
C3964 C3960 1.385 . S
C3964 C3963 1.374 . S
C3965 C3962 1.499 . S
C3965 C3966 1.373 . S
C3965 C3967 1.389 . S
C3966 H3939 0.950 . S
C3966 C3952 1.377 . S
C3966 C3965 1.373 . S
C3967 C3951 1.377 . S
C3967 C3965 1.389 . S
C3967 C3968 1.524 . S
C3968 C3967 1.524 . S
C3968 C3969 1.397 . S
C3968 C3973 1.363 . S
C3969 H3940 0.950 . S
C3969 C3968 1.397 . S
C3969 C3970 1.334 . S
C3970 H3941 0.950 . S
C3970 C3969 1.334 . S
C3970 C3971 1.287 . S
C3971 C3970 1.287 . S
C3971 C3972 1.524 . S
C3971 H3974 0.999 . S
C3972 H3942 0.950 . S
C3972 C3971 1.524 . S
C3972 C3973 1.415 . S
C3973 H3943 0.950 . S
C3973 C3968 1.363 . S
C3973 C3972 1.415 . S
H3974 C3971 0.999 . S
H3975 C3956 0.913 . S
H3976 C3994 0.951 . S
H3977 C3996 0.951 . S
H3978 C3998 0.950 . S
H3979 C3999 0.950 . S
H3980 C4001 0.950 . S
H3981 C4004 0.950 . S
H3982 C4005 0.950 . S
H3983 C4007 0.950 . S
H3984 C4008 0.950 . S
H3985 C4009 0.951 . S
H3986 C4011 0.951 . S
H3987 C4013 0.950 . S
H3988 C4014 0.950 . S
H3989 C4016 0.950 . S
H3990 C4019 0.950 . S
H3991 C4020 0.950 . S
H3992 C4022 0.950 . S
H3993 C4023 0.950 . S
C3994 H3976 0.951 . S
C3994 C3995 1.366 . S
C3994 C3996 1.388 . S
C3995 C3994 1.366 . S
C3995 C3999 1.385 . S
C3996 H3977 0.951 . S
C3996 C3994 1.388 . S
C3996 C3997 1.366 . S
C3997 C3996 1.366 . S
C3997 C3998 1.414 . S
C3997 C4000 1.499 . S
C3998 H3978 0.950 . S
C3998 C3997 1.414 . S
C3998 C3999 1.374 . S
C3999 H3979 0.950 . S
C3999 C3995 1.385 . S
C3999 C3998 1.374 . S
C4000 C3997 1.499 . S
C4000 C4001 1.373 . S
C4000 C4002 1.389 . S
C4001 H3980 0.950 . S
C4001 C4000 1.373 . S
C4001 C4017 1.377 . S
C4002 C4000 1.389 . S
C4002 C4003 1.524 . S
C4002 C4016 1.377 . S
C4003 C4002 1.524 . S
C4003 C4004 1.397 . S
C4003 C4008 1.363 . S
C4004 H3981 0.950 . S
C4004 C4003 1.397 . S
C4004 C4005 1.334 . S
C4005 H3982 0.950 . S
C4005 C4004 1.334 . S
C4005 C4006 1.287 . S
C4006 C4005 1.287 . S
C4006 C4007 1.524 . S
C4006 H4025 0.913 . S
C4007 H3983 0.950 . S
C4007 C4006 1.524 . S
C4007 C4008 1.415 . S
C4008 H3984 0.950 . S
C4008 C4003 1.363 . S
C4008 C4007 1.415 . S
C4009 H3985 0.951 . S
C4009 C4010 1.366 . S
C4009 C4011 1.388 . S
C4010 C4009 1.366 . S
C4010 C4014 1.385 . S
C4011 H3986 0.951 . S
C4011 C4009 1.388 . S
C4011 C4012 1.366 . S
C4012 C4011 1.366 . S
C4012 C4013 1.414 . S
C4012 C4015 1.499 . S
C4013 H3987 0.950 . S
C4013 C4012 1.414 . S
C4013 C4014 1.374 . S
C4014 H3988 0.950 . S
C4014 C4010 1.385 . S
C4014 C4013 1.374 . S
C4015 C4012 1.499 . S
C4015 C4016 1.373 . S
C4015 C4017 1.389 . S
C4016 H3989 0.950 . S
C4016 C4002 1.377 . S
C4016 C4015 1.373 . S
C4017 C4001 1.377 . S
C4017 C4015 1.389 . S
C4017 C4018 1.524 . S
C4018 C4017 1.524 . S
C4018 C4019 1.397 . S
C4018 C4023 1.363 . S
C4019 H3990 0.950 . S
C4019 C4018 1.397 . S
C4019 C4020 1.334 . S
C4020 H3991 0.950 . S
C4020 C4019 1.334 . S
C4020 C4021 1.287 . S
C4021 C4020 1.287 . S
C4021 C4022 1.524 . S
C4021 H4024 0.999 . S
C4022 H3992 0.950 . S
C4022 C4021 1.524 . S
C4022 C4023 1.415 . S
C4023 H3993 0.950 . S
C4023 C4018 1.363 . S
C4023 C4022 1.415 . S
H4024 C4021 0.999 . S
H4025 C4006 0.913 . S
H4026 C4044 0.951 . S
H4027 C4046 0.951 . S
H4028 C4048 0.950 . S
H4029 C4049 0.950 . S
H4030 C4051 0.950 . S
H4031 C4054 0.950 . S
H4032 C4055 0.950 . S
H4033 C4057 0.950 . S
H4034 C4058 0.950 . S
H4035 C4059 0.951 . S
H4036 C4061 0.951 . S
H4037 C4063 0.950 . S
H4038 C4064 0.950 . S
H4039 C4066 0.950 . S
H4040 C4069 0.950 . S
H4041 C4070 0.950 . S
H4042 C4072 0.950 . S
H4043 C4073 0.950 . S
C4044 H4026 0.951 . S
C4044 C4045 1.366 . S
C4044 C4046 1.388 . S
C4045 C4044 1.366 . S
C4045 C4049 1.385 . S
C4046 H4027 0.951 . S
C4046 C4044 1.388 . S
C4046 C4047 1.366 . S
C4047 C4046 1.366 . S
C4047 C4048 1.414 . S
C4047 C4050 1.499 . S
C4048 H4028 0.950 . S
C4048 C4047 1.414 . S
C4048 C4049 1.374 . S
C4049 H4029 0.950 . S
C4049 C4045 1.385 . S
C4049 C4048 1.374 . S
C4050 C4047 1.499 . S
C4050 C4051 1.373 . S
C4050 C4052 1.389 . S
C4051 H4030 0.950 . S
C4051 C4050 1.373 . S
C4051 C4067 1.377 . S
C4052 C4050 1.389 . S
C4052 C4053 1.524 . S
C4052 C4066 1.377 . S
C4053 C4052 1.524 . S
C4053 C4054 1.397 . S
C4053 C4058 1.363 . S
C4054 H4031 0.950 . S
C4054 C4053 1.397 . S
C4054 C4055 1.334 . S
C4055 H4032 0.950 . S
C4055 C4054 1.334 . S
C4055 C4056 1.287 . S
C4056 C4055 1.287 . S
C4056 C4057 1.524 . S
C4056 H4075 0.913 . S
C4057 H4033 0.950 . S
C4057 C4056 1.524 . S
C4057 C4058 1.415 . S
C4058 H4034 0.950 . S
C4058 C4053 1.363 . S
C4058 C4057 1.415 . S
C4059 H4035 0.951 . S
C4059 C4060 1.366 . S
C4059 C4061 1.388 . S
C4060 C4059 1.366 . S
C4060 C4064 1.385 . S
C4061 H4036 0.951 . S
C4061 C4059 1.388 . S
C4061 C4062 1.366 . S
C4062 C4061 1.366 . S
C4062 C4063 1.414 . S
C4062 C4065 1.499 . S
C4063 H4037 0.950 . S
C4063 C4062 1.414 . S
C4063 C4064 1.374 . S
C4064 H4038 0.950 . S
C4064 C4060 1.385 . S
C4064 C4063 1.374 . S
C4065 C4062 1.499 . S
C4065 C4066 1.373 . S
C4065 C4067 1.389 . S
C4066 H4039 0.950 . S
C4066 C4052 1.377 . S
C4066 C4065 1.373 . S
C4067 C4051 1.377 . S
C4067 C4065 1.389 . S
C4067 C4068 1.524 . S
C4068 C4067 1.524 . S
C4068 C4069 1.397 . S
C4068 C4073 1.363 . S
C4069 H4040 0.950 . S
C4069 C4068 1.397 . S
C4069 C4070 1.334 . S
C4070 H4041 0.950 . S
C4070 C4069 1.334 . S
C4070 C4071 1.287 . S
C4071 C4070 1.287 . S
C4071 C4072 1.524 . S
C4071 H4074 0.999 . S
C4072 H4042 0.950 . S
C4072 C4071 1.524 . S
C4072 C4073 1.415 . S
C4073 H4043 0.950 . S
C4073 C4068 1.363 . S
C4073 C4072 1.415 . S
H4074 C4071 0.999 . S
H4075 C4056 0.913 . S
H4076 C4094 0.951 . S
H4077 C4096 0.951 . S
H4078 C4098 0.950 . S
H4079 C4099 0.950 . S
H4080 C4101 0.950 . S
H4081 C4104 0.950 . S
H4082 C4105 0.950 . S
H4083 C4107 0.950 . S
H4084 C4108 0.950 . S
H4085 C4109 0.951 . S
H4086 C4111 0.951 . S
H4087 C4113 0.950 . S
H4088 C4114 0.950 . S
H4089 C4116 0.950 . S
H4090 C4119 0.950 . S
H4091 C4120 0.950 . S
H4092 C4122 0.950 . S
H4093 C4123 0.950 . S
C4094 H4076 0.951 . S
C4094 C4095 1.366 . S
C4094 C4096 1.388 . S
C4095 C4094 1.366 . S
C4095 C4099 1.385 . S
C4096 H4077 0.951 . S
C4096 C4094 1.388 . S
C4096 C4097 1.366 . S
C4097 C4096 1.366 . S
C4097 C4098 1.414 . S
C4097 C4100 1.499 . S
C4098 H4078 0.950 . S
C4098 C4097 1.414 . S
C4098 C4099 1.374 . S
C4099 H4079 0.950 . S
C4099 C4095 1.385 . S
C4099 C4098 1.374 . S
C4100 C4097 1.499 . S
C4100 C4101 1.373 . S
C4100 C4102 1.389 . S
C4101 H4080 0.950 . S
C4101 C4100 1.373 . S
C4101 C4117 1.377 . S
C4102 C4100 1.389 . S
C4102 C4103 1.524 . S
C4102 C4116 1.377 . S
C4103 C4102 1.524 . S
C4103 C4104 1.397 . S
C4103 C4108 1.363 . S
C4104 H4081 0.950 . S
C4104 C4103 1.397 . S
C4104 C4105 1.334 . S
C4105 H4082 0.950 . S
C4105 C4104 1.334 . S
C4105 C4106 1.287 . S
C4106 C4105 1.287 . S
C4106 C4107 1.524 . S
C4106 H4125 0.913 . S
C4107 H4083 0.950 . S
C4107 C4106 1.524 . S
C4107 C4108 1.415 . S
C4108 H4084 0.950 . S
C4108 C4103 1.363 . S
C4108 C4107 1.415 . S
C4109 H4085 0.951 . S
C4109 C4110 1.366 . S
C4109 C4111 1.388 . S
C4110 C4109 1.366 . S
C4110 C4114 1.385 . S
C4111 H4086 0.951 . S
C4111 C4109 1.388 . S
C4111 C4112 1.366 . S
C4112 C4111 1.366 . S
C4112 C4113 1.414 . S
C4112 C4115 1.499 . S
C4113 H4087 0.950 . S
C4113 C4112 1.414 . S
C4113 C4114 1.374 . S
C4114 H4088 0.950 . S
C4114 C4110 1.385 . S
C4114 C4113 1.374 . S
C4115 C4112 1.499 . S
C4115 C4116 1.373 . S
C4115 C4117 1.389 . S
C4116 H4089 0.950 . S
C4116 C4102 1.377 . S
C4116 C4115 1.373 . S
C4117 C4101 1.377 . S
C4117 C4115 1.389 . S
C4117 C4118 1.524 . S
C4118 C4117 1.524 . S
C4118 C4119 1.397 . S
C4118 C4123 1.363 . S
C4119 H4090 0.950 . S
C4119 C4118 1.397 . S
C4119 C4120 1.334 . S
C4120 H4091 0.950 . S
C4120 C4119 1.334 . S
C4120 C4121 1.287 . S
C4121 C4120 1.287 . S
C4121 C4122 1.524 . S
C4121 H4124 0.999 . S
C4122 H4092 0.950 . S
C4122 C4121 1.524 . S
C4122 C4123 1.415 . S
C4123 H4093 0.950 . S
C4123 C4118 1.363 . S
C4123 C4122 1.415 . S
H4124 C4121 0.999 . S
H4125 C4106 0.913 . S
H4126 C4144 0.951 . S
H4127 C4146 0.951 . S
H4128 C4148 0.950 . S
H4129 C4149 0.950 . S
H4130 C4151 0.950 . S
H4131 C4154 0.950 . S
H4132 C4155 0.950 . S
H4133 C4157 0.950 . S
H4134 C4158 0.950 . S
H4135 C4159 0.951 . S
H4136 C4161 0.951 . S
H4137 C4163 0.950 . S
H4138 C4164 0.950 . S
H4139 C4166 0.950 . S
H4140 C4169 0.950 . S
H4141 C4170 0.950 . S
H4142 C4172 0.950 . S
H4143 C4173 0.950 . S
C4144 H4126 0.951 . S
C4144 C4145 1.366 . S
C4144 C4146 1.388 . S
C4145 C4144 1.366 . S
C4145 C4149 1.385 . S
C4146 H4127 0.951 . S
C4146 C4144 1.388 . S
C4146 C4147 1.366 . S
C4147 C4146 1.366 . S
C4147 C4148 1.414 . S
C4147 C4150 1.499 . S
C4148 H4128 0.950 . S
C4148 C4147 1.414 . S
C4148 C4149 1.374 . S
C4149 H4129 0.950 . S
C4149 C4145 1.385 . S
C4149 C4148 1.374 . S
C4150 C4147 1.499 . S
C4150 C4151 1.373 . S
C4150 C4152 1.389 . S
C4151 H4130 0.950 . S
C4151 C4150 1.373 . S
C4151 C4167 1.377 . S
C4152 C4150 1.389 . S
C4152 C4153 1.524 . S
C4152 C4166 1.377 . S
C4153 C4152 1.524 . S
C4153 C4154 1.397 . S
C4153 C4158 1.363 . S
C4154 H4131 0.950 . S
C4154 C4153 1.397 . S
C4154 C4155 1.334 . S
C4155 H4132 0.950 . S
C4155 C4154 1.334 . S
C4155 C4156 1.287 . S
C4156 C4155 1.287 . S
C4156 C4157 1.524 . S
C4156 H4175 0.913 . S
C4157 H4133 0.950 . S
C4157 C4156 1.524 . S
C4157 C4158 1.415 . S
C4158 H4134 0.950 . S
C4158 C4153 1.363 . S
C4158 C4157 1.415 . S
C4159 H4135 0.951 . S
C4159 C4160 1.366 . S
C4159 C4161 1.388 . S
C4160 C4159 1.366 . S
C4160 C4164 1.385 . S
C4161 H4136 0.951 . S
C4161 C4159 1.388 . S
C4161 C4162 1.366 . S
C4162 C4161 1.366 . S
C4162 C4163 1.414 . S
C4162 C4165 1.499 . S
C4163 H4137 0.950 . S
C4163 C4162 1.414 . S
C4163 C4164 1.374 . S
C4164 H4138 0.950 . S
C4164 C4160 1.385 . S
C4164 C4163 1.374 . S
C4165 C4162 1.499 . S
C4165 C4166 1.373 . S
C4165 C4167 1.389 . S
C4166 H4139 0.950 . S
C4166 C4152 1.377 . S
C4166 C4165 1.373 . S
C4167 C4151 1.377 . S
C4167 C4165 1.389 . S
C4167 C4168 1.524 . S
C4168 C4167 1.524 . S
C4168 C4169 1.397 . S
C4168 C4173 1.363 . S
C4169 H4140 0.950 . S
C4169 C4168 1.397 . S
C4169 C4170 1.334 . S
C4170 H4141 0.950 . S
C4170 C4169 1.334 . S
C4170 C4171 1.287 . S
C4171 C4170 1.287 . S
C4171 C4172 1.524 . S
C4171 H4174 0.999 . S
C4172 H4142 0.950 . S
C4172 C4171 1.524 . S
C4172 C4173 1.415 . S
C4173 H4143 0.950 . S
C4173 C4168 1.363 . S
C4173 C4172 1.415 . S
H4174 C4171 0.999 . S
H4175 C4156 0.913 . S
H4176 C4194 0.951 . S
H4177 C4196 0.951 . S
H4178 C4198 0.950 . S
H4179 C4199 0.950 . S
H4180 C4201 0.950 . S
H4181 C4204 0.950 . S
H4182 C4205 0.950 . S
H4183 C4207 0.950 . S
H4184 C4208 0.950 . S
H4185 C4209 0.951 . S
H4186 C4211 0.951 . S
H4187 C4213 0.950 . S
H4188 C4214 0.950 . S
H4189 C4216 0.950 . S
H4190 C4219 0.950 . S
H4191 C4220 0.950 . S
H4192 C4222 0.950 . S
H4193 C4223 0.950 . S
C4194 H4176 0.951 . S
C4194 C4195 1.366 . S
C4194 C4196 1.388 . S
C4195 C4194 1.366 . S
C4195 C4199 1.385 . S
C4196 H4177 0.951 . S
C4196 C4194 1.388 . S
C4196 C4197 1.366 . S
C4197 C4196 1.366 . S
C4197 C4198 1.414 . S
C4197 C4200 1.499 . S
C4198 H4178 0.950 . S
C4198 C4197 1.414 . S
C4198 C4199 1.374 . S
C4199 H4179 0.950 . S
C4199 C4195 1.385 . S
C4199 C4198 1.374 . S
C4200 C4197 1.499 . S
C4200 C4201 1.373 . S
C4200 C4202 1.389 . S
C4201 H4180 0.950 . S
C4201 C4200 1.373 . S
C4201 C4217 1.377 . S
C4202 C4200 1.389 . S
C4202 C4203 1.524 . S
C4202 C4216 1.377 . S
C4203 C4202 1.524 . S
C4203 C4204 1.397 . S
C4203 C4208 1.363 . S
C4204 H4181 0.950 . S
C4204 C4203 1.397 . S
C4204 C4205 1.334 . S
C4205 H4182 0.950 . S
C4205 C4204 1.334 . S
C4205 C4206 1.287 . S
C4206 C4205 1.287 . S
C4206 C4207 1.524 . S
C4206 H4225 0.913 . S
C4207 H4183 0.950 . S
C4207 C4206 1.524 . S
C4207 C4208 1.415 . S
C4208 H4184 0.950 . S
C4208 C4203 1.363 . S
C4208 C4207 1.415 . S
C4209 H4185 0.951 . S
C4209 C4210 1.366 . S
C4209 C4211 1.388 . S
C4210 C4209 1.366 . S
C4210 C4214 1.385 . S
C4211 H4186 0.951 . S
C4211 C4209 1.388 . S
C4211 C4212 1.366 . S
C4212 C4211 1.366 . S
C4212 C4213 1.414 . S
C4212 C4215 1.499 . S
C4213 H4187 0.950 . S
C4213 C4212 1.414 . S
C4213 C4214 1.374 . S
C4214 H4188 0.950 . S
C4214 C4210 1.385 . S
C4214 C4213 1.374 . S
C4215 C4212 1.499 . S
C4215 C4216 1.373 . S
C4215 C4217 1.389 . S
C4216 H4189 0.950 . S
C4216 C4202 1.377 . S
C4216 C4215 1.373 . S
C4217 C4201 1.377 . S
C4217 C4215 1.389 . S
C4217 C4218 1.524 . S
C4218 C4217 1.524 . S
C4218 C4219 1.397 . S
C4218 C4223 1.363 . S
C4219 H4190 0.950 . S
C4219 C4218 1.397 . S
C4219 C4220 1.334 . S
C4220 H4191 0.950 . S
C4220 C4219 1.334 . S
C4220 C4221 1.287 . S
C4221 C4220 1.287 . S
C4221 C4222 1.524 . S
C4221 H4224 0.999 . S
C4222 H4192 0.950 . S
C4222 C4221 1.524 . S
C4222 C4223 1.415 . S
C4223 H4193 0.950 . S
C4223 C4218 1.363 . S
C4223 C4222 1.415 . S
H4224 C4221 0.999 . S
H4225 C4206 0.913 . S
H4226 C4244 0.951 . S
H4227 C4246 0.951 . S
H4228 C4248 0.950 . S
H4229 C4249 0.950 . S
H4230 C4251 0.950 . S
H4231 C4254 0.950 . S
H4232 C4255 0.950 . S
H4233 C4257 0.950 . S
H4234 C4258 0.950 . S
H4235 C4259 0.951 . S
H4236 C4261 0.951 . S
H4237 C4263 0.950 . S
H4238 C4264 0.950 . S
H4239 C4266 0.950 . S
H4240 C4269 0.950 . S
H4241 C4270 0.950 . S
H4242 C4272 0.950 . S
H4243 C4273 0.950 . S
C4244 H4226 0.951 . S
C4244 C4245 1.366 . S
C4244 C4246 1.388 . S
C4245 C4244 1.366 . S
C4245 C4249 1.385 . S
C4246 H4227 0.951 . S
C4246 C4244 1.388 . S
C4246 C4247 1.366 . S
C4247 C4246 1.366 . S
C4247 C4248 1.414 . S
C4247 C4250 1.499 . S
C4248 H4228 0.950 . S
C4248 C4247 1.414 . S
C4248 C4249 1.374 . S
C4249 H4229 0.950 . S
C4249 C4245 1.385 . S
C4249 C4248 1.374 . S
C4250 C4247 1.499 . S
C4250 C4251 1.373 . S
C4250 C4252 1.389 . S
C4251 H4230 0.950 . S
C4251 C4250 1.373 . S
C4251 C4267 1.377 . S
C4252 C4250 1.389 . S
C4252 C4253 1.524 . S
C4252 C4266 1.377 . S
C4253 C4252 1.524 . S
C4253 C4254 1.397 . S
C4253 C4258 1.363 . S
C4254 H4231 0.950 . S
C4254 C4253 1.397 . S
C4254 C4255 1.334 . S
C4255 H4232 0.950 . S
C4255 C4254 1.334 . S
C4255 C4256 1.287 . S
C4256 C4255 1.287 . S
C4256 C4257 1.524 . S
C4256 H4275 0.913 . S
C4257 H4233 0.950 . S
C4257 C4256 1.524 . S
C4257 C4258 1.415 . S
C4258 H4234 0.950 . S
C4258 C4253 1.363 . S
C4258 C4257 1.415 . S
C4259 H4235 0.951 . S
C4259 C4260 1.366 . S
C4259 C4261 1.388 . S
C4260 C4259 1.366 . S
C4260 C4264 1.385 . S
C4261 H4236 0.951 . S
C4261 C4259 1.388 . S
C4261 C4262 1.366 . S
C4262 C4261 1.366 . S
C4262 C4263 1.414 . S
C4262 C4265 1.499 . S
C4263 H4237 0.950 . S
C4263 C4262 1.414 . S
C4263 C4264 1.374 . S
C4264 H4238 0.950 . S
C4264 C4260 1.385 . S
C4264 C4263 1.374 . S
C4265 C4262 1.499 . S
C4265 C4266 1.373 . S
C4265 C4267 1.389 . S
C4266 H4239 0.950 . S
C4266 C4252 1.377 . S
C4266 C4265 1.373 . S
C4267 C4251 1.377 . S
C4267 C4265 1.389 . S
C4267 C4268 1.524 . S
C4268 C4267 1.524 . S
C4268 C4269 1.397 . S
C4268 C4273 1.363 . S
C4269 H4240 0.950 . S
C4269 C4268 1.397 . S
C4269 C4270 1.334 . S
C4270 H4241 0.950 . S
C4270 C4269 1.334 . S
C4270 C4271 1.287 . S
C4271 C4270 1.287 . S
C4271 C4272 1.524 . S
C4271 H4274 0.999 . S
C4272 H4242 0.950 . S
C4272 C4271 1.524 . S
C4272 C4273 1.415 . S
C4273 H4243 0.950 . S
C4273 C4268 1.363 . S
C4273 C4272 1.415 . S
H4274 C4271 0.999 . S
H4275 C4256 0.913 . S
H4276 C4294 0.951 . S
H4277 C4296 0.951 . S
H4278 C4298 0.950 . S
H4279 C4299 0.950 . S
H4280 C4301 0.950 . S
H4281 C4304 0.950 . S
H4282 C4305 0.950 . S
H4283 C4307 0.950 . S
H4284 C4308 0.950 . S
H4285 C4309 0.951 . S
H4286 C4311 0.951 . S
H4287 C4313 0.950 . S
H4288 C4314 0.950 . S
H4289 C4316 0.950 . S
H4290 C4319 0.950 . S
H4291 C4320 0.950 . S
H4292 C4322 0.950 . S
H4293 C4323 0.950 . S
C4294 H4276 0.951 . S
C4294 C4295 1.366 . S
C4294 C4296 1.388 . S
C4295 C4294 1.366 . S
C4295 C4299 1.385 . S
C4296 H4277 0.951 . S
C4296 C4294 1.388 . S
C4296 C4297 1.366 . S
C4297 C4296 1.366 . S
C4297 C4298 1.414 . S
C4297 C4300 1.499 . S
C4298 H4278 0.950 . S
C4298 C4297 1.414 . S
C4298 C4299 1.374 . S
C4299 H4279 0.950 . S
C4299 C4295 1.385 . S
C4299 C4298 1.374 . S
C4300 C4297 1.499 . S
C4300 C4301 1.373 . S
C4300 C4302 1.389 . S
C4301 H4280 0.950 . S
C4301 C4300 1.373 . S
C4301 C4317 1.377 . S
C4302 C4300 1.389 . S
C4302 C4303 1.524 . S
C4302 C4316 1.377 . S
C4303 C4302 1.524 . S
C4303 C4304 1.397 . S
C4303 C4308 1.363 . S
C4304 H4281 0.950 . S
C4304 C4303 1.397 . S
C4304 C4305 1.334 . S
C4305 H4282 0.950 . S
C4305 C4304 1.334 . S
C4305 C4306 1.287 . S
C4306 C4305 1.287 . S
C4306 C4307 1.524 . S
C4306 H4325 0.913 . S
C4307 H4283 0.950 . S
C4307 C4306 1.524 . S
C4307 C4308 1.415 . S
C4308 H4284 0.950 . S
C4308 C4303 1.363 . S
C4308 C4307 1.415 . S
C4309 H4285 0.951 . S
C4309 C4310 1.366 . S
C4309 C4311 1.388 . S
C4310 C4309 1.366 . S
C4310 C4314 1.385 . S
C4311 H4286 0.951 . S
C4311 C4309 1.388 . S
C4311 C4312 1.366 . S
C4312 C4311 1.366 . S
C4312 C4313 1.414 . S
C4312 C4315 1.499 . S
C4313 H4287 0.950 . S
C4313 C4312 1.414 . S
C4313 C4314 1.374 . S
C4314 H4288 0.950 . S
C4314 C4310 1.385 . S
C4314 C4313 1.374 . S
C4315 C4312 1.499 . S
C4315 C4316 1.373 . S
C4315 C4317 1.389 . S
C4316 H4289 0.950 . S
C4316 C4302 1.377 . S
C4316 C4315 1.373 . S
C4317 C4301 1.377 . S
C4317 C4315 1.389 . S
C4317 C4318 1.524 . S
C4318 C4317 1.524 . S
C4318 C4319 1.397 . S
C4318 C4323 1.363 . S
C4319 H4290 0.950 . S
C4319 C4318 1.397 . S
C4319 C4320 1.334 . S
C4320 H4291 0.950 . S
C4320 C4319 1.334 . S
C4320 C4321 1.287 . S
C4321 C4320 1.287 . S
C4321 C4322 1.524 . S
C4321 H4324 0.999 . S
C4322 H4292 0.950 . S
C4322 C4321 1.524 . S
C4322 C4323 1.415 . S
C4323 H4293 0.950 . S
C4323 C4318 1.363 . S
C4323 C4322 1.415 . S
H4324 C4321 0.999 . S
H4325 C4306 0.913 . S
H4326 C4344 0.951 . S
H4327 C4346 0.951 . S
H4328 C4348 0.950 . S
H4329 C4349 0.950 . S
H4330 C4351 0.950 . S
H4331 C4354 0.950 . S
H4332 C4355 0.950 . S
H4333 C4357 0.950 1_545 S
H4334 C4358 0.950 1_545 S
H4335 C4359 0.951 . S
H4336 C4361 0.951 . S
H4337 C4363 0.950 . S
H4338 C4364 0.950 . S
H4339 C4366 0.972 . S
H4340 C4369 0.950 1_545 S
H4341 C4370 0.950 1_545 S
H4342 C4372 0.950 . S
H4343 C4373 0.950 . S
C4344 H4326 0.951 . S
C4344 C4345 1.366 . S
C4344 C4346 1.388 . S
C4345 C4344 1.366 . S
C4345 C4349 1.385 . S
C4346 H4327 0.951 . S
C4346 C4344 1.388 . S
C4346 C4347 1.366 . S
C4347 C4346 1.366 . S
C4347 C4348 1.414 . S
C4347 C4350 1.499 . S
C4348 H4328 0.950 . S
C4348 C4347 1.414 . S
C4348 C4349 1.374 . S
C4349 H4329 0.950 . S
C4349 C4345 1.385 . S
C4349 C4348 1.374 . S
C4350 C4347 1.499 . S
C4350 C4351 1.373 . S
C4350 C4352 1.389 1_554 S
C4351 H4330 0.950 . S
C4351 C4350 1.373 . S
C4351 C4367 1.377 . S
C4352 C4350 1.389 1_556 S
C4352 C4353 1.524 . S
C4352 C4366 1.373 . S
C4353 C4352 1.524 . S
C4353 C4354 1.397 . S
C4353 C4358 1.363 . S
C4354 H4331 0.950 . S
C4354 C4353 1.397 . S
C4354 C4355 1.334 . S
C4355 H4332 0.950 . S
C4355 C4354 1.334 . S
C4355 C4356 1.287 . S
C4356 C4355 1.287 . S
C4356 C4357 1.524 . S
C4356 H4375 0.913 . S
C4357 H4333 0.950 1_565 S
C4357 C4356 1.524 . S
C4357 C4358 1.415 . S
C4358 H4334 0.950 1_565 S
C4358 C4353 1.363 . S
C4358 C4357 1.415 . S
C4359 H4335 0.951 . S
C4359 C4360 1.366 1_565 S
C4359 C4361 1.388 . S
C4360 C4359 1.366 1_545 S
C4360 C4364 1.385 . S
C4361 H4336 0.951 . S
C4361 C4359 1.388 . S
C4361 C4362 1.366 . S
C4362 C4361 1.366 . S
C4362 C4363 1.414 1_565 S
C4362 C4365 1.499 . S
C4363 H4337 0.950 . S
C4363 C4362 1.414 1_545 S
C4363 C4364 1.374 . S
C4364 H4338 0.950 . S
C4364 C4360 1.385 . S
C4364 C4363 1.374 . S
C4365 C4362 1.499 . S
C4365 C4366 1.356 1_554 S
C4365 C4367 1.389 . S
C4366 H4339 0.972 . S
C4366 C4352 1.373 . S
C4366 C4365 1.356 1_556 S
C4367 C4351 1.377 . S
C4367 C4365 1.389 . S
C4367 C4368 1.524 . S
C4368 C4367 1.524 . S
C4368 C4369 1.397 . S
C4368 C4373 1.363 . S
C4369 H4340 0.950 1_565 S
C4369 C4368 1.397 . S
C4369 C4370 1.334 . S
C4370 H4341 0.950 1_565 S
C4370 C4369 1.334 . S
C4370 C4371 1.287 . S
C4371 C4370 1.287 . S
C4371 C4372 1.524 . S
C4371 H4374 0.999 . S
C4372 H4342 0.950 . S
C4372 C4371 1.524 . S
C4372 C4373 1.415 . S
C4373 H4343 0.950 . S
C4373 C4368 1.363 . S
C4373 C4372 1.415 . S
H4374 C4371 0.999 . S
H4375 C4356 0.913 . S
H4376 C4394 0.951 . S
H4377 C4396 0.951 . S
H4378 C4398 0.950 . S
H4379 C4399 0.950 . S
H4380 C4401 0.950 . S
H4381 C4404 0.950 . S
H4382 C4405 0.950 . S
H4383 C4407 0.950 . S
H4384 C4408 0.950 . S
H4385 C4409 0.951 . S
H4386 C4411 0.951 . S
H4387 C4413 0.950 . S
H4388 C4414 0.950 . S
H4389 C4416 0.950 . S
H4390 C4419 0.950 . S
H4391 C4420 0.950 . S
H4392 C4422 0.950 . S
H4393 C4423 0.950 . S
C4394 H4376 0.951 . S
C4394 C4395 1.366 . S
C4394 C4396 1.388 . S
C4395 C4394 1.366 . S
C4395 C4399 1.385 . S
C4396 H4377 0.951 . S
C4396 C4394 1.388 . S
C4396 C4397 1.366 . S
C4397 C4396 1.366 . S
C4397 C4398 1.414 . S
C4397 C4400 1.499 . S
C4398 H4378 0.950 . S
C4398 C4397 1.414 . S
C4398 C4399 1.374 . S
C4399 H4379 0.950 . S
C4399 C4395 1.385 . S
C4399 C4398 1.374 . S
C4400 C4397 1.499 . S
C4400 C4401 1.373 . S
C4400 C4402 1.389 . S
C4401 H4380 0.950 . S
C4401 C4400 1.373 . S
C4401 C4417 1.377 . S
C4402 C4400 1.389 . S
C4402 C4403 1.524 . S
C4402 C4416 1.377 . S
C4403 C4402 1.524 . S
C4403 C4404 1.397 . S
C4403 C4408 1.363 . S
C4404 H4381 0.950 . S
C4404 C4403 1.397 . S
C4404 C4405 1.334 . S
C4405 H4382 0.950 . S
C4405 C4404 1.334 . S
C4405 C4406 1.287 . S
C4406 C4405 1.287 . S
C4406 C4407 1.524 . S
C4406 H4425 0.913 . S
C4407 H4383 0.950 . S
C4407 C4406 1.524 . S
C4407 C4408 1.415 . S
C4408 H4384 0.950 . S
C4408 C4403 1.363 . S
C4408 C4407 1.415 . S
C4409 H4385 0.951 . S
C4409 C4410 1.366 . S
C4409 C4411 1.388 . S
C4410 C4409 1.366 . S
C4410 C4414 1.385 . S
C4411 H4386 0.951 . S
C4411 C4409 1.388 . S
C4411 C4412 1.366 . S
C4412 C4411 1.366 . S
C4412 C4413 1.414 . S
C4412 C4415 1.499 . S
C4413 H4387 0.950 . S
C4413 C4412 1.414 . S
C4413 C4414 1.374 . S
C4414 H4388 0.950 . S
C4414 C4410 1.385 . S
C4414 C4413 1.374 . S
C4415 C4412 1.499 . S
C4415 C4416 1.373 . S
C4415 C4417 1.389 . S
C4416 H4389 0.950 . S
C4416 C4402 1.377 . S
C4416 C4415 1.373 . S
C4417 C4401 1.377 . S
C4417 C4415 1.389 . S
C4417 C4418 1.524 . S
C4418 C4417 1.524 . S
C4418 C4419 1.397 . S
C4418 C4423 1.363 . S
C4419 H4390 0.950 . S
C4419 C4418 1.397 . S
C4419 C4420 1.334 . S
C4420 H4391 0.950 . S
C4420 C4419 1.334 . S
C4420 C4421 1.287 . S
C4421 C4420 1.287 . S
C4421 C4422 1.524 . S
C4421 H4424 0.999 . S
C4422 H4392 0.950 . S
C4422 C4421 1.524 . S
C4422 C4423 1.415 . S
C4423 H4393 0.950 . S
C4423 C4418 1.363 . S
C4423 C4422 1.415 . S
H4424 C4421 0.999 . S
H4425 C4406 0.913 . S
H4426 C4444 0.951 . S
H4427 C4446 0.951 . S
H4428 C4448 0.950 . S
H4429 C4449 0.952 . S
H4430 C4451 0.950 . S
H4431 C4454 0.950 . S
H4432 C4455 0.950 . S
H4433 C4457 0.950 . S
H4434 C4458 0.950 1_554 S
H4435 C4459 0.951 . S
H4436 C4461 0.951 . S
H4437 C4463 0.950 . S
H4438 C4464 0.950 . S
H4439 C4466 0.950 . S
H4440 C4469 0.950 . S
H4441 C4470 0.950 . S
H4442 C4472 0.950 . S
H4443 C4473 0.950 . S
C4444 H4426 0.951 . S
C4444 C4445 1.366 . S
C4444 C4446 1.388 . S
C4445 C4444 1.366 . S
C4445 C4449 1.385 . S
C4446 H4427 0.951 . S
C4446 C4444 1.388 . S
C4446 C4447 1.366 . S
C4447 C4446 1.366 . S
C4447 C4448 1.414 . S
C4447 C4450 1.499 . S
C4448 H4428 0.950 . S
C4448 C4447 1.414 . S
C4448 C4449 1.374 . S
C4449 H4429 0.952 . S
C4449 C4445 1.385 . S
C4449 C4448 1.374 . S
C4450 C4447 1.499 . S
C4450 C4451 1.373 . S
C4450 C4452 1.389 . S
C4451 H4430 0.950 . S
C4451 C4450 1.373 . S
C4451 C4467 1.377 . S
C4452 C4450 1.389 . S
C4452 C4453 1.524 1_554 S
C4452 C4466 1.377 . S
C4453 C4452 1.524 1_556 S
C4453 C4454 1.397 . S
C4453 C4458 1.363 . S
C4454 H4431 0.950 . S
C4454 C4453 1.397 . S
C4454 C4455 1.334 . S
C4455 H4432 0.950 . S
C4455 C4454 1.334 . S
C4455 C4456 1.287 . S
C4456 C4455 1.287 . S
C4456 C4457 1.524 . S
C4456 H4475 0.913 . S
C4457 H4433 0.950 . S
C4457 C4456 1.524 . S
C4457 C4458 1.415 . S
C4458 H4434 0.950 1_556 S
C4458 C4453 1.363 . S
C4458 C4457 1.415 . S
C4459 H4435 0.951 . S
C4459 C4460 1.366 . S
C4459 C4461 1.388 . S
C4460 C4459 1.366 . S
C4460 C4464 1.385 . S
C4461 H4436 0.951 . S
C4461 C4459 1.388 . S
C4461 C4462 1.366 . S
C4462 C4461 1.366 . S
C4462 C4463 1.414 . S
C4462 C4465 1.499 . S
C4463 H4437 0.950 . S
C4463 C4462 1.414 . S
C4463 C4464 1.374 . S
C4464 H4438 0.950 . S
C4464 C4460 1.385 . S
C4464 C4463 1.374 . S
C4465 C4462 1.499 . S
C4465 C4466 1.373 . S
C4465 C4467 1.389 . S
C4466 H4439 0.950 . S
C4466 C4452 1.377 . S
C4466 C4465 1.373 . S
C4467 C4451 1.377 . S
C4467 C4465 1.389 . S
C4467 C4468 1.524 . S
C4468 C4467 1.524 . S
C4468 C4469 1.397 . S
C4468 C4473 1.363 . S
C4469 H4440 0.950 . S
C4469 C4468 1.397 . S
C4469 C4470 1.334 . S
C4470 H4441 0.950 . S
C4470 C4469 1.334 . S
C4470 C4471 1.287 . S
C4471 C4470 1.287 . S
C4471 C4472 1.524 . S
C4471 H4474 0.999 . S
C4472 H4442 0.950 . S
C4472 C4471 1.524 . S
C4472 C4473 1.415 . S
C4473 H4443 0.950 . S
C4473 C4468 1.363 . S
C4473 C4472 1.415 . S
H4474 C4471 0.999 . S
H4475 C4456 0.913 . S
H4476 C4494 0.951 . S
H4477 C4496 0.951 . S
H4478 C4498 0.950 . S
H4479 C4499 0.950 . S
H4480 C4501 0.950 . S
H4481 C4504 0.950 . S
H4482 C4505 0.950 . S
H4483 C4507 0.950 . S
H4484 C4508 0.950 . S
H4485 C4509 0.951 . S
H4486 C4511 0.951 . S
H4487 C4513 0.950 . S
H4488 C4514 0.950 . S
H4489 C4516 0.950 . S
H4490 C4519 0.950 . S
H4491 C4520 0.950 . S
H4492 C4522 0.950 . S
H4493 C4523 0.950 . S
C4494 H4476 0.951 . S
C4494 C4495 1.366 . S
C4494 C4496 1.388 . S
C4495 C4494 1.366 . S
C4495 C4499 1.385 . S
C4496 H4477 0.951 . S
C4496 C4494 1.388 . S
C4496 C4497 1.366 . S
C4497 C4496 1.366 . S
C4497 C4498 1.414 . S
C4497 C4500 1.499 . S
C4498 H4478 0.950 . S
C4498 C4497 1.414 . S
C4498 C4499 1.374 . S
C4499 H4479 0.950 . S
C4499 C4495 1.385 . S
C4499 C4498 1.374 . S
C4500 C4497 1.499 . S
C4500 C4501 1.373 . S
C4500 C4502 1.389 . S
C4501 H4480 0.950 . S
C4501 C4500 1.373 . S
C4501 C4517 1.377 . S
C4502 C4500 1.389 . S
C4502 C4503 1.524 . S
C4502 C4516 1.377 . S
C4503 C4502 1.524 . S
C4503 C4504 1.397 . S
C4503 C4508 1.363 . S
C4504 H4481 0.950 . S
C4504 C4503 1.397 . S
C4504 C4505 1.334 . S
C4505 H4482 0.950 . S
C4505 C4504 1.334 . S
C4505 C4506 1.287 . S
C4506 C4505 1.287 . S
C4506 C4507 1.524 . S
C4506 H4525 0.913 . S
C4507 H4483 0.950 . S
C4507 C4506 1.524 . S
C4507 C4508 1.415 . S
C4508 H4484 0.950 . S
C4508 C4503 1.363 . S
C4508 C4507 1.415 . S
C4509 H4485 0.951 . S
C4509 C4510 1.366 . S
C4509 C4511 1.388 . S
C4510 C4509 1.366 . S
C4510 C4514 1.385 . S
C4511 H4486 0.951 . S
C4511 C4509 1.388 . S
C4511 C4512 1.366 . S
C4512 C4511 1.366 . S
C4512 C4513 1.414 . S
C4512 C4515 1.499 . S
C4513 H4487 0.950 . S
C4513 C4512 1.414 . S
C4513 C4514 1.374 . S
C4514 H4488 0.950 . S
C4514 C4510 1.385 . S
C4514 C4513 1.374 . S
C4515 C4512 1.499 . S
C4515 C4516 1.373 . S
C4515 C4517 1.389 . S
C4516 H4489 0.950 . S
C4516 C4502 1.377 . S
C4516 C4515 1.373 . S
C4517 C4501 1.377 . S
C4517 C4515 1.389 . S
C4517 C4518 1.524 . S
C4518 C4517 1.524 . S
C4518 C4519 1.397 . S
C4518 C4523 1.363 . S
C4519 H4490 0.950 . S
C4519 C4518 1.397 . S
C4519 C4520 1.334 . S
C4520 H4491 0.950 . S
C4520 C4519 1.334 . S
C4520 C4521 1.287 . S
C4521 C4520 1.287 . S
C4521 C4522 1.524 . S
C4521 H4524 0.999 . S
C4522 H4492 0.950 . S
C4522 C4521 1.524 . S
C4522 C4523 1.415 . S
C4523 H4493 0.950 . S
C4523 C4518 1.363 . S
C4523 C4522 1.415 . S
H4524 C4521 0.999 . S
H4525 C4506 0.913 . S
H4526 C4544 0.951 . S
H4527 C4546 0.951 . S
H4528 C4548 0.950 . S
H4529 C4549 0.950 . S
H4530 C4551 0.950 . S
H4531 C4554 0.950 . S
H4532 C4555 0.950 . S
H4533 C4557 0.950 . S
H4534 C4558 0.950 . S
H4535 C4559 0.951 . S
H4536 C4561 0.951 . S
H4537 C4563 0.950 . S
H4538 C4564 0.950 . S
H4539 C4566 0.950 . S
H4540 C4569 0.950 . S
H4541 C4570 0.950 . S
H4542 C4572 0.950 . S
H4543 C4573 0.950 . S
C4544 H4526 0.951 . S
C4544 C4545 1.366 . S
C4544 C4546 1.388 . S
C4545 C4544 1.366 . S
C4545 C4549 1.385 . S
C4546 H4527 0.951 . S
C4546 C4544 1.388 . S
C4546 C4547 1.366 . S
C4547 C4546 1.366 . S
C4547 C4548 1.414 . S
C4547 C4550 1.499 . S
C4548 H4528 0.950 . S
C4548 C4547 1.414 . S
C4548 C4549 1.374 . S
C4549 H4529 0.950 . S
C4549 C4545 1.385 . S
C4549 C4548 1.374 . S
C4550 C4547 1.499 . S
C4550 C4551 1.373 . S
C4550 C4552 1.389 . S
C4551 H4530 0.950 . S
C4551 C4550 1.373 . S
C4551 C4567 1.377 . S
C4552 C4550 1.389 . S
C4552 C4553 1.524 . S
C4552 C4566 1.377 . S
C4553 C4552 1.524 . S
C4553 C4554 1.397 . S
C4553 C4558 1.363 . S
C4554 H4531 0.950 . S
C4554 C4553 1.397 . S
C4554 C4555 1.334 . S
C4555 H4532 0.950 . S
C4555 C4554 1.334 . S
C4555 C4556 1.287 . S
C4556 C4555 1.287 . S
C4556 C4557 1.524 . S
C4556 H4575 0.913 . S
C4557 H4533 0.950 . S
C4557 C4556 1.524 . S
C4557 C4558 1.415 . S
C4558 H4534 0.950 . S
C4558 C4553 1.363 . S
C4558 C4557 1.415 . S
C4559 H4535 0.951 . S
C4559 C4560 1.366 . S
C4559 C4561 1.388 . S
C4560 C4559 1.366 . S
C4560 C4564 1.385 . S
C4561 H4536 0.951 . S
C4561 C4559 1.388 . S
C4561 C4562 1.366 . S
C4562 C4561 1.366 . S
C4562 C4563 1.414 . S
C4562 C4565 1.499 . S
C4563 H4537 0.950 . S
C4563 C4562 1.414 . S
C4563 C4564 1.374 . S
C4564 H4538 0.950 . S
C4564 C4560 1.385 . S
C4564 C4563 1.374 . S
C4565 C4562 1.499 . S
C4565 C4566 1.373 . S
C4565 C4567 1.389 . S
C4566 H4539 0.950 . S
C4566 C4552 1.377 . S
C4566 C4565 1.373 . S
C4567 C4551 1.377 . S
C4567 C4565 1.389 . S
C4567 C4568 1.524 . S
C4568 C4567 1.524 . S
C4568 C4569 1.397 . S
C4568 C4573 1.363 . S
C4569 H4540 0.950 . S
C4569 C4568 1.397 . S
C4569 C4570 1.334 . S
C4570 H4541 0.950 . S
C4570 C4569 1.334 . S
C4570 C4571 1.287 . S
C4571 C4570 1.287 . S
C4571 C4572 1.524 . S
C4571 H4574 0.999 . S
C4572 H4542 0.950 . S
C4572 C4571 1.524 . S
C4572 C4573 1.415 . S
C4573 H4543 0.950 . S
C4573 C4568 1.363 . S
C4573 C4572 1.415 . S
H4574 C4571 0.999 . S
H4575 C4556 0.913 . S
H4576 C4594 0.951 . S
H4577 C4596 0.951 . S
H4578 C4598 0.950 . S
H4579 C4599 0.950 . S
H4580 C4601 0.950 . S
H4581 C4604 0.950 . S
H4582 C4605 0.950 . S
H4583 C4607 0.950 . S
H4584 C4608 0.950 . S
H4585 C4609 0.951 . S
H4586 C4611 0.951 . S
H4587 C4613 0.950 . S
H4588 C4614 0.950 . S
H4589 C4616 0.950 . S
H4590 C4619 0.950 . S
H4591 C4620 0.950 . S
H4592 C4622 0.950 . S
H4593 C4623 0.950 . S
C4594 H4576 0.951 . S
C4594 C4595 1.366 . S
C4594 C4596 1.388 . S
C4595 C4594 1.366 . S
C4595 C4599 1.385 . S
C4596 H4577 0.951 . S
C4596 C4594 1.388 . S
C4596 C4597 1.366 . S
C4597 C4596 1.366 . S
C4597 C4598 1.414 . S
C4597 C4600 1.499 . S
C4598 H4578 0.950 . S
C4598 C4597 1.414 . S
C4598 C4599 1.374 . S
C4599 H4579 0.950 . S
C4599 C4595 1.385 . S
C4599 C4598 1.374 . S
C4600 C4597 1.499 . S
C4600 C4601 1.373 . S
C4600 C4602 1.389 . S
C4601 H4580 0.950 . S
C4601 C4600 1.373 . S
C4601 C4617 1.377 . S
C4602 C4600 1.389 . S
C4602 C4603 1.524 . S
C4602 C4616 1.377 . S
C4603 C4602 1.524 . S
C4603 C4604 1.397 . S
C4603 C4608 1.363 . S
C4604 H4581 0.950 . S
C4604 C4603 1.397 . S
C4604 C4605 1.334 . S
C4605 H4582 0.950 . S
C4605 C4604 1.334 . S
C4605 C4606 1.287 . S
C4606 C4605 1.287 . S
C4606 C4607 1.524 . S
C4606 H4625 0.913 . S
C4607 H4583 0.950 . S
C4607 C4606 1.524 . S
C4607 C4608 1.415 . S
C4608 H4584 0.950 . S
C4608 C4603 1.363 . S
C4608 C4607 1.415 . S
C4609 H4585 0.951 . S
C4609 C4610 1.366 . S
C4609 C4611 1.388 . S
C4610 C4609 1.366 . S
C4610 C4614 1.385 . S
C4611 H4586 0.951 . S
C4611 C4609 1.388 . S
C4611 C4612 1.366 . S
C4612 C4611 1.366 . S
C4612 C4613 1.414 . S
C4612 C4615 1.499 . S
C4613 H4587 0.950 . S
C4613 C4612 1.414 . S
C4613 C4614 1.374 . S
C4614 H4588 0.950 . S
C4614 C4610 1.385 . S
C4614 C4613 1.374 . S
C4615 C4612 1.499 . S
C4615 C4616 1.373 . S
C4615 C4617 1.389 . S
C4616 H4589 0.950 . S
C4616 C4602 1.377 . S
C4616 C4615 1.373 . S
C4617 C4601 1.377 . S
C4617 C4615 1.389 . S
C4617 C4618 1.524 . S
C4618 C4617 1.524 . S
C4618 C4619 1.397 . S
C4618 C4623 1.363 . S
C4619 H4590 0.950 . S
C4619 C4618 1.397 . S
C4619 C4620 1.334 . S
C4620 H4591 0.950 . S
C4620 C4619 1.334 . S
C4620 C4621 1.287 . S
C4621 C4620 1.287 . S
C4621 C4622 1.524 . S
C4621 H4624 0.999 . S
C4622 H4592 0.950 . S
C4622 C4621 1.524 . S
C4622 C4623 1.415 . S
C4623 H4593 0.950 . S
C4623 C4618 1.363 . S
C4623 C4622 1.415 . S
H4624 C4621 0.999 . S
H4625 C4606 0.913 . S
H4626 C4644 0.951 . S
H4627 C4646 0.951 . S
H4628 C4648 0.950 . S
H4629 C4649 0.950 . S
H4630 C4651 0.950 . S
H4631 C4654 0.950 . S
H4632 C4655 0.950 . S
H4633 C4657 0.950 . S
H4634 C4658 0.950 . S
H4635 C4659 0.951 . S
H4636 C4661 0.951 . S
H4637 C4663 0.950 . S
H4638 C4664 0.950 . S
H4639 C4666 0.950 . S
H4640 C4669 0.950 . S
H4641 C4670 0.950 . S
H4642 C4672 0.950 . S
H4643 C4673 0.950 . S
C4644 H4626 0.951 . S
C4644 C4645 1.366 . S
C4644 C4646 1.388 . S
C4645 C4644 1.366 . S
C4645 C4649 1.385 . S
C4646 H4627 0.951 . S
C4646 C4644 1.388 . S
C4646 C4647 1.366 . S
C4647 C4646 1.366 . S
C4647 C4648 1.414 . S
C4647 C4650 1.499 . S
C4648 H4628 0.950 . S
C4648 C4647 1.414 . S
C4648 C4649 1.374 . S
C4649 H4629 0.950 . S
C4649 C4645 1.385 . S
C4649 C4648 1.374 . S
C4650 C4647 1.499 . S
C4650 C4651 1.373 . S
C4650 C4652 1.389 . S
C4651 H4630 0.950 . S
C4651 C4650 1.373 . S
C4651 C4667 1.377 . S
C4652 C4650 1.389 . S
C4652 C4653 1.524 . S
C4652 C4666 1.377 . S
C4653 C4652 1.524 . S
C4653 C4654 1.397 . S
C4653 C4658 1.363 . S
C4654 H4631 0.950 . S
C4654 C4653 1.397 . S
C4654 C4655 1.334 . S
C4655 H4632 0.950 . S
C4655 C4654 1.334 . S
C4655 C4656 1.287 . S
C4656 C4655 1.287 . S
C4656 C4657 1.524 . S
C4656 H4675 0.913 . S
C4657 H4633 0.950 . S
C4657 C4656 1.524 . S
C4657 C4658 1.415 . S
C4658 H4634 0.950 . S
C4658 C4653 1.363 . S
C4658 C4657 1.415 . S
C4659 H4635 0.951 . S
C4659 C4660 1.366 . S
C4659 C4661 1.388 . S
C4660 C4659 1.366 . S
C4660 C4664 1.385 . S
C4661 H4636 0.951 . S
C4661 C4659 1.388 . S
C4661 C4662 1.366 . S
C4662 C4661 1.366 . S
C4662 C4663 1.414 . S
C4662 C4665 1.499 . S
C4663 H4637 0.950 . S
C4663 C4662 1.414 . S
C4663 C4664 1.374 . S
C4664 H4638 0.950 . S
C4664 C4660 1.385 . S
C4664 C4663 1.374 . S
C4665 C4662 1.499 . S
C4665 C4666 1.373 . S
C4665 C4667 1.389 . S
C4666 H4639 0.950 . S
C4666 C4652 1.377 . S
C4666 C4665 1.373 . S
C4667 C4651 1.377 . S
C4667 C4665 1.389 . S
C4667 C4668 1.524 . S
C4668 C4667 1.524 . S
C4668 C4669 1.397 . S
C4668 C4673 1.363 . S
C4669 H4640 0.950 . S
C4669 C4668 1.397 . S
C4669 C4670 1.334 . S
C4670 H4641 0.950 . S
C4670 C4669 1.334 . S
C4670 C4671 1.287 . S
C4671 C4670 1.287 . S
C4671 C4672 1.524 . S
C4671 H4674 0.999 . S
C4672 H4642 0.950 . S
C4672 C4671 1.524 . S
C4672 C4673 1.415 . S
C4673 H4643 0.950 . S
C4673 C4668 1.363 . S
C4673 C4672 1.415 . S
H4674 C4671 0.999 . S
H4675 C4656 0.913 . S
H4676 C4694 0.951 . S
H4677 C4696 0.951 . S
H4678 C4698 0.950 . S
H4679 C4699 0.950 . S
H4680 C4701 0.950 . S
H4681 C4704 0.950 . S
H4682 C4705 0.950 . S
H4683 C4707 0.950 . S
H4684 C4708 0.950 . S
H4685 C4709 0.951 . S
H4686 C4711 0.951 . S
H4687 C4713 0.950 . S
H4688 C4714 0.950 . S
H4689 C4716 0.950 . S
H4690 C4719 0.950 . S
H4691 C4720 0.950 . S
H4692 C4722 0.950 . S
H4693 C4723 0.964 . S
C4694 H4676 0.951 . S
C4694 C4695 1.366 . S
C4694 C4696 1.388 . S
C4695 C4694 1.366 . S
C4695 C4699 1.385 . S
C4696 H4677 0.951 . S
C4696 C4694 1.388 . S
C4696 C4697 1.366 . S
C4697 C4696 1.366 . S
C4697 C4698 1.414 . S
C4697 C4700 1.499 . S
C4698 H4678 0.950 . S
C4698 C4697 1.414 . S
C4698 C4699 1.374 . S
C4699 H4679 0.950 . S
C4699 C4695 1.385 . S
C4699 C4698 1.374 . S
C4700 C4697 1.499 . S
C4700 C4701 1.373 . S
C4700 C4702 1.389 . S
C4701 H4680 0.950 . S
C4701 C4700 1.373 . S
C4701 C4717 1.377 . S
C4702 C4700 1.389 . S
C4702 C4703 1.524 . S
C4702 C4716 1.377 . S
C4703 C4702 1.524 . S
C4703 C4704 1.397 . S
C4703 C4708 1.363 . S
C4704 H4681 0.950 . S
C4704 C4703 1.397 . S
C4704 C4705 1.334 . S
C4705 H4682 0.950 . S
C4705 C4704 1.334 . S
C4705 C4706 1.287 . S
C4706 C4705 1.287 . S
C4706 C4707 1.524 . S
C4706 H4725 0.913 . S
C4707 H4683 0.950 . S
C4707 C4706 1.524 . S
C4707 C4708 1.415 . S
C4708 H4684 0.950 . S
C4708 C4703 1.363 . S
C4708 C4707 1.415 . S
C4709 H4685 0.951 . S
C4709 C4710 1.366 . S
C4709 C4711 1.388 . S
C4710 C4709 1.366 . S
C4710 C4714 1.385 . S
C4711 H4686 0.951 . S
C4711 C4709 1.388 . S
C4711 C4712 1.366 . S
C4712 C4711 1.366 . S
C4712 C4713 1.414 . S
C4712 C4715 1.499 . S
C4713 H4687 0.950 . S
C4713 C4712 1.414 . S
C4713 C4714 1.374 . S
C4714 H4688 0.950 . S
C4714 C4710 1.385 . S
C4714 C4713 1.374 . S
C4715 C4712 1.499 . S
C4715 C4716 1.373 . S
C4715 C4717 1.389 . S
C4716 H4689 0.950 . S
C4716 C4702 1.377 . S
C4716 C4715 1.373 . S
C4717 C4701 1.377 . S
C4717 C4715 1.389 . S
C4717 C4718 1.524 . S
C4718 C4717 1.524 . S
C4718 C4719 1.397 . S
C4718 C4723 1.363 . S
C4719 H4690 0.950 . S
C4719 C4718 1.397 . S
C4719 C4720 1.334 . S
C4720 H4691 0.950 . S
C4720 C4719 1.334 . S
C4720 C4721 1.287 1_455 S
C4721 C4720 1.287 1_655 S
C4721 C4722 1.524 . S
C4721 H4724 0.999 . S
C4722 H4692 0.950 . S
C4722 C4721 1.524 . S
C4722 C4723 1.415 1_655 S
C4723 H4693 0.964 . S
C4723 C4718 1.363 . S
C4723 C4722 1.415 1_455 S
H4724 C4721 0.999 . S
H4725 C4706 0.913 . S
H4726 C4744 0.951 . S
H4727 C4746 0.951 . S
H4728 C4748 0.950 . S
H4729 C4749 0.950 . S
H4730 C4751 0.950 . S
H4731 C4754 0.950 . S
H4732 C4755 0.950 . S
H4733 C4757 0.950 . S
H4734 C4758 0.950 . S
H4735 C4759 0.951 . S
H4736 C4761 0.951 . S
H4737 C4763 0.950 . S
H4738 C4764 0.950 . S
H4739 C4766 0.950 . S
H4740 C4769 0.950 . S
H4741 C4770 0.950 . S
H4742 C4772 0.950 . S
H4743 C4773 0.950 . S
C4744 H4726 0.951 . S
C4744 C4745 1.366 . S
C4744 C4746 1.388 . S
C4745 C4744 1.366 . S
C4745 C4749 1.385 . S
C4746 H4727 0.951 . S
C4746 C4744 1.388 . S
C4746 C4747 1.366 . S
C4747 C4746 1.366 . S
C4747 C4748 1.414 . S
C4747 C4750 1.499 . S
C4748 H4728 0.950 . S
C4748 C4747 1.414 . S
C4748 C4749 1.374 . S
C4749 H4729 0.950 . S
C4749 C4745 1.385 . S
C4749 C4748 1.374 . S
C4750 C4747 1.499 . S
C4750 C4751 1.373 . S
C4750 C4752 1.389 . S
C4751 H4730 0.950 . S
C4751 C4750 1.373 . S
C4751 C4767 1.377 . S
C4752 C4750 1.389 . S
C4752 C4753 1.524 . S
C4752 C4766 1.377 . S
C4753 C4752 1.524 . S
C4753 C4754 1.397 . S
C4753 C4758 1.363 . S
C4754 H4731 0.950 . S
C4754 C4753 1.397 . S
C4754 C4755 1.334 . S
C4755 H4732 0.950 . S
C4755 C4754 1.334 . S
C4755 C4756 1.287 . S
C4756 C4755 1.287 . S
C4756 C4757 1.524 . S
C4756 H4775 0.913 . S
C4757 H4733 0.950 . S
C4757 C4756 1.524 . S
C4757 C4758 1.415 . S
C4758 H4734 0.950 . S
C4758 C4753 1.363 . S
C4758 C4757 1.415 . S
C4759 H4735 0.951 . S
C4759 C4760 1.366 . S
C4759 C4761 1.388 . S
C4760 C4759 1.366 . S
C4760 C4764 1.385 . S
C4761 H4736 0.951 . S
C4761 C4759 1.388 . S
C4761 C4762 1.366 . S
C4762 C4761 1.366 . S
C4762 C4763 1.414 . S
C4762 C4765 1.499 . S
C4763 H4737 0.950 . S
C4763 C4762 1.414 . S
C4763 C4764 1.374 . S
C4764 H4738 0.950 . S
C4764 C4760 1.385 . S
C4764 C4763 1.374 . S
C4765 C4762 1.499 . S
C4765 C4766 1.373 . S
C4765 C4767 1.389 . S
C4766 H4739 0.950 . S
C4766 C4752 1.377 . S
C4766 C4765 1.373 . S
C4767 C4751 1.377 . S
C4767 C4765 1.389 . S
C4767 C4768 1.524 . S
C4768 C4767 1.524 . S
C4768 C4769 1.397 . S
C4768 C4773 1.363 . S
C4769 H4740 0.950 . S
C4769 C4768 1.397 . S
C4769 C4770 1.334 . S
C4770 H4741 0.950 . S
C4770 C4769 1.334 . S
C4770 C4771 1.287 . S
C4771 C4770 1.287 . S
C4771 C4772 1.524 . S
C4771 H4774 0.999 . S
C4772 H4742 0.950 . S
C4772 C4771 1.524 . S
C4772 C4773 1.415 . S
C4773 H4743 0.950 . S
C4773 C4768 1.363 . S
C4773 C4772 1.415 . S
H4774 C4771 0.999 . S
H4775 C4756 0.913 . S
H4776 C4794 0.951 . S
H4777 C4796 0.951 . S
H4778 C4798 0.950 . S
H4779 C4799 0.950 . S
H4780 C4801 0.950 . S
H4781 C4804 0.950 . S
H4782 C4805 0.950 . S
H4783 C4807 0.950 . S
H4784 C4808 0.950 . S
H4785 C4809 0.951 . S
H4786 C4811 0.951 . S
H4787 C4813 0.950 . S
H4788 C4814 0.950 . S
H4789 C4816 0.950 . S
H4790 C4819 0.950 . S
H4791 C4820 0.950 . S
H4792 C4822 0.950 1_554 S
H4793 C4823 0.950 . S
C4794 H4776 0.951 . S
C4794 C4795 1.366 . S
C4794 C4796 1.388 . S
C4795 C4794 1.366 . S
C4795 C4799 1.385 . S
C4796 H4777 0.951 . S
C4796 C4794 1.388 . S
C4796 C4797 1.366 . S
C4797 C4796 1.366 . S
C4797 C4798 1.414 . S
C4797 C4800 1.499 . S
C4798 H4778 0.950 . S
C4798 C4797 1.414 . S
C4798 C4799 1.374 . S
C4799 H4779 0.950 . S
C4799 C4795 1.385 . S
C4799 C4798 1.374 . S
C4800 C4797 1.499 . S
C4800 C4801 1.373 . S
C4800 C4802 1.389 . S
C4801 H4780 0.950 . S
C4801 C4800 1.373 . S
C4801 C4817 1.377 . S
C4802 C4800 1.389 . S
C4802 C4803 1.524 . S
C4802 C4816 1.377 . S
C4803 C4802 1.524 . S
C4803 C4804 1.397 . S
C4803 C4808 1.363 . S
C4804 H4781 0.950 . S
C4804 C4803 1.397 . S
C4804 C4805 1.334 . S
C4805 H4782 0.950 . S
C4805 C4804 1.334 . S
C4805 C4806 1.287 . S
C4806 C4805 1.287 . S
C4806 C4807 1.524 . S
C4806 H4825 0.913 . S
C4807 H4783 0.950 . S
C4807 C4806 1.524 . S
C4807 C4808 1.415 . S
C4808 H4784 0.950 . S
C4808 C4803 1.363 . S
C4808 C4807 1.415 . S
C4809 H4785 0.951 . S
C4809 C4810 1.366 . S
C4809 C4811 1.388 . S
C4810 C4809 1.366 . S
C4810 C4814 1.385 . S
C4811 H4786 0.951 . S
C4811 C4809 1.388 . S
C4811 C4812 1.366 . S
C4812 C4811 1.366 . S
C4812 C4813 1.414 . S
C4812 C4815 1.499 . S
C4813 H4787 0.950 . S
C4813 C4812 1.414 . S
C4813 C4814 1.374 . S
C4814 H4788 0.950 . S
C4814 C4810 1.385 . S
C4814 C4813 1.374 . S
C4815 C4812 1.499 . S
C4815 C4816 1.373 . S
C4815 C4817 1.389 . S
C4816 H4789 0.950 . S
C4816 C4802 1.377 . S
C4816 C4815 1.373 . S
C4817 C4801 1.377 . S
C4817 C4815 1.389 . S
C4817 C4818 1.524 . S
C4818 C4817 1.524 . S
C4818 C4819 1.397 . S
C4818 C4823 1.363 . S
C4819 H4790 0.950 . S
C4819 C4818 1.397 . S
C4819 C4820 1.334 . S
C4820 H4791 0.950 . S
C4820 C4819 1.334 . S
C4820 C4821 1.287 . S
C4821 C4820 1.287 . S
C4821 C4822 1.524 . S
C4821 H4824 0.999 1_556 S
C4822 H4792 0.950 1_556 S
C4822 C4821 1.524 . S
C4822 C4823 1.415 . S
C4823 H4793 0.950 . S
C4823 C4818 1.363 . S
C4823 C4822 1.415 . S
H4824 C4821 0.999 1_554 S
H4825 C4806 0.913 . S
H4826 C4844 0.951 . S
H4827 C4846 0.951 . S
H4828 C4848 0.950 . S
H4829 C4849 0.950 . S
H4830 C4851 0.950 . S
H4831 C4854 0.950 . S
H4832 C4855 0.950 . S
H4833 C4857 0.950 . S
H4834 C4858 0.950 . S
H4835 C4859 0.951 . S
H4836 C4861 0.951 . S
H4837 C4863 0.950 . S
H4838 C4864 0.950 . S
H4839 C4866 0.950 . S
H4840 C4869 0.950 . S
H4841 C4870 0.950 . S
H4842 C4872 0.950 . S
H4843 C4873 0.950 . S
C4844 H4826 0.951 . S
C4844 C4845 1.366 . S
C4844 C4846 1.388 . S
C4845 C4844 1.366 . S
C4845 C4849 1.385 . S
C4846 H4827 0.951 . S
C4846 C4844 1.388 . S
C4846 C4847 1.366 . S
C4847 C4846 1.366 . S
C4847 C4848 1.414 . S
C4847 C4850 1.499 . S
C4848 H4828 0.950 . S
C4848 C4847 1.414 . S
C4848 C4849 1.374 . S
C4849 H4829 0.950 . S
C4849 C4845 1.385 . S
C4849 C4848 1.374 . S
C4850 C4847 1.499 . S
C4850 C4851 1.373 . S
C4850 C4852 1.389 . S
C4851 H4830 0.950 . S
C4851 C4850 1.373 . S
C4851 C4867 1.377 . S
C4852 C4850 1.389 . S
C4852 C4853 1.524 . S
C4852 C4866 1.377 . S
C4853 C4852 1.524 . S
C4853 C4854 1.397 . S
C4853 C4858 1.363 . S
C4854 H4831 0.950 . S
C4854 C4853 1.397 . S
C4854 C4855 1.334 . S
C4855 H4832 0.950 . S
C4855 C4854 1.334 . S
C4855 C4856 1.287 . S
C4856 C4855 1.287 . S
C4856 C4857 1.524 . S
C4856 H4875 0.913 . S
C4857 H4833 0.950 . S
C4857 C4856 1.524 . S
C4857 C4858 1.415 . S
C4858 H4834 0.950 . S
C4858 C4853 1.363 . S
C4858 C4857 1.415 . S
C4859 H4835 0.951 . S
C4859 C4860 1.366 . S
C4859 C4861 1.388 . S
C4860 C4859 1.366 . S
C4860 C4864 1.385 . S
C4861 H4836 0.951 . S
C4861 C4859 1.388 . S
C4861 C4862 1.366 . S
C4862 C4861 1.366 . S
C4862 C4863 1.414 . S
C4862 C4865 1.499 . S
C4863 H4837 0.950 . S
C4863 C4862 1.414 . S
C4863 C4864 1.374 . S
C4864 H4838 0.950 . S
C4864 C4860 1.385 . S
C4864 C4863 1.374 . S
C4865 C4862 1.499 . S
C4865 C4866 1.373 . S
C4865 C4867 1.389 . S
C4866 H4839 0.950 . S
C4866 C4852 1.377 . S
C4866 C4865 1.373 . S
C4867 C4851 1.377 . S
C4867 C4865 1.389 . S
C4867 C4868 1.524 . S
C4868 C4867 1.524 . S
C4868 C4869 1.397 . S
C4868 C4873 1.363 . S
C4869 H4840 0.950 . S
C4869 C4868 1.397 . S
C4869 C4870 1.334 . S
C4870 H4841 0.950 . S
C4870 C4869 1.334 . S
C4870 C4871 1.287 . S
C4871 C4870 1.287 . S
C4871 C4872 1.524 . S
C4871 H4874 0.999 . S
C4872 H4842 0.950 . S
C4872 C4871 1.524 . S
C4872 C4873 1.415 . S
C4873 H4843 0.950 . S
C4873 C4868 1.363 . S
C4873 C4872 1.415 . S
H4874 C4871 0.999 . S
H4875 C4856 0.913 . S
H4876 C4894 0.951 . S
H4877 C4896 0.951 . S
H4878 C4898 0.950 . S
H4879 C4899 0.950 . S
H4880 C4901 0.950 . S
H4881 C4904 0.950 . S
H4882 C4905 0.950 . S
H4883 C4907 0.950 . S
H4884 C4908 0.950 . S
H4885 C4909 0.951 . S
H4886 C4911 0.951 . S
H4887 C4913 0.950 . S
H4888 C4914 0.950 . S
H4889 C4916 0.950 . S
H4890 C4919 0.950 . S
H4891 C4920 0.969 . S
H4892 C4922 0.950 . S
H4893 C4923 0.950 . S
C4894 H4876 0.951 . S
C4894 C4895 1.366 . S
C4894 C4896 1.388 . S
C4895 C4894 1.366 . S
C4895 C4899 1.385 . S
C4896 H4877 0.951 . S
C4896 C4894 1.388 . S
C4896 C4897 1.366 . S
C4897 C4896 1.366 . S
C4897 C4898 1.414 . S
C4897 C4900 1.499 . S
C4898 H4878 0.950 . S
C4898 C4897 1.414 . S
C4898 C4899 1.374 . S
C4899 H4879 0.950 . S
C4899 C4895 1.385 . S
C4899 C4898 1.374 . S
C4900 C4897 1.499 . S
C4900 C4901 1.373 . S
C4900 C4902 1.389 . S
C4901 H4880 0.950 . S
C4901 C4900 1.373 . S
C4901 C4917 1.377 . S
C4902 C4900 1.389 . S
C4902 C4903 1.524 . S
C4902 C4916 1.377 . S
C4903 C4902 1.524 . S
C4903 C4904 1.397 . S
C4903 C4908 1.363 . S
C4904 H4881 0.950 . S
C4904 C4903 1.397 . S
C4904 C4905 1.334 . S
C4905 H4882 0.950 . S
C4905 C4904 1.334 . S
C4905 C4906 1.287 . S
C4906 C4905 1.287 . S
C4906 C4907 1.524 . S
C4906 H4925 0.913 . S
C4907 H4883 0.950 . S
C4907 C4906 1.524 . S
C4907 C4908 1.415 . S
C4908 H4884 0.950 . S
C4908 C4903 1.363 . S
C4908 C4907 1.415 . S
C4909 H4885 0.951 . S
C4909 C4910 1.366 . S
C4909 C4911 1.388 . S
C4910 C4909 1.366 . S
C4910 C4914 1.385 . S
C4911 H4886 0.951 . S
C4911 C4909 1.388 . S
C4911 C4912 1.366 . S
C4912 C4911 1.366 . S
C4912 C4913 1.414 . S
C4912 C4915 1.499 . S
C4913 H4887 0.950 . S
C4913 C4912 1.414 . S
C4913 C4914 1.374 . S
C4914 H4888 0.950 . S
C4914 C4910 1.385 . S
C4914 C4913 1.374 . S
C4915 C4912 1.499 . S
C4915 C4916 1.373 . S
C4915 C4917 1.389 . S
C4916 H4889 0.950 . S
C4916 C4902 1.377 . S
C4916 C4915 1.373 . S
C4917 C4901 1.377 . S
C4917 C4915 1.389 . S
C4917 C4918 1.524 . S
C4918 C4917 1.524 . S
C4918 C4919 1.397 . S
C4918 C4923 1.363 . S
C4919 H4890 0.950 . S
C4919 C4918 1.397 . S
C4919 C4920 1.334 . S
C4920 H4891 0.969 . S
C4920 C4919 1.334 . S
C4920 C4921 1.287 . S
C4921 C4920 1.287 . S
C4921 C4922 1.524 . S
C4921 H4924 0.999 . S
C4922 H4892 0.950 . S
C4922 C4921 1.524 . S
C4922 C4923 1.415 . S
C4923 H4893 0.950 . S
C4923 C4918 1.363 . S
C4923 C4922 1.415 . S
H4924 C4921 0.999 . S
H4925 C4906 0.913 . S
H4926 C4944 0.951 . S
H4927 C4946 0.951 . S
H4928 C4948 0.950 . S
H4929 C4949 0.950 . S
H4930 C4951 0.950 . S
H4931 C4954 0.950 . S
H4932 C4955 0.950 . S
H4933 C4957 0.950 . S
H4934 C4958 0.950 . S
H4935 C4959 0.951 . S
H4936 C4961 0.951 . S
H4937 C4963 0.950 . S
H4938 C4964 0.950 . S
H4939 C4966 0.950 . S
H4940 C4969 0.950 . S
H4941 C4970 0.950 . S
H4942 C4972 0.950 . S
H4943 C4973 0.950 . S
C4944 H4926 0.951 . S
C4944 C4945 1.366 . S
C4944 C4946 1.388 . S
C4945 C4944 1.366 . S
C4945 C4949 1.385 . S
C4946 H4927 0.951 . S
C4946 C4944 1.388 . S
C4946 C4947 1.366 . S
C4947 C4946 1.366 . S
C4947 C4948 1.414 . S
C4947 C4950 1.499 . S
C4948 H4928 0.950 . S
C4948 C4947 1.414 . S
C4948 C4949 1.374 . S
C4949 H4929 0.950 . S
C4949 C4945 1.385 . S
C4949 C4948 1.374 . S
C4950 C4947 1.499 . S
C4950 C4951 1.373 . S
C4950 C4952 1.389 . S
C4951 H4930 0.950 . S
C4951 C4950 1.373 . S
C4951 C4967 1.377 . S
C4952 C4950 1.389 . S
C4952 C4953 1.524 . S
C4952 C4966 1.377 . S
C4953 C4952 1.524 . S
C4953 C4954 1.397 . S
C4953 C4958 1.363 . S
C4954 H4931 0.950 . S
C4954 C4953 1.397 . S
C4954 C4955 1.334 . S
C4955 H4932 0.950 . S
C4955 C4954 1.334 . S
C4955 C4956 1.287 . S
C4956 C4955 1.287 . S
C4956 C4957 1.524 . S
C4956 H4975 0.913 . S
C4957 H4933 0.950 . S
C4957 C4956 1.524 . S
C4957 C4958 1.415 . S
C4958 H4934 0.950 . S
C4958 C4953 1.363 . S
C4958 C4957 1.415 . S
C4959 H4935 0.951 . S
C4959 C4960 1.366 . S
C4959 C4961 1.388 . S
C4960 C4959 1.366 . S
C4960 C4964 1.385 . S
C4961 H4936 0.951 . S
C4961 C4959 1.388 . S
C4961 C4962 1.366 . S
C4962 C4961 1.366 . S
C4962 C4963 1.414 . S
C4962 C4965 1.499 . S
C4963 H4937 0.950 . S
C4963 C4962 1.414 . S
C4963 C4964 1.374 . S
C4964 H4938 0.950 . S
C4964 C4960 1.385 . S
C4964 C4963 1.374 . S
C4965 C4962 1.499 . S
C4965 C4966 1.373 . S
C4965 C4967 1.389 . S
C4966 H4939 0.950 . S
C4966 C4952 1.377 . S
C4966 C4965 1.373 . S
C4967 C4951 1.377 . S
C4967 C4965 1.389 . S
C4967 C4968 1.524 . S
C4968 C4967 1.524 . S
C4968 C4969 1.397 . S
C4968 C4973 1.363 . S
C4969 H4940 0.950 . S
C4969 C4968 1.397 . S
C4969 C4970 1.334 . S
C4970 H4941 0.950 . S
C4970 C4969 1.334 . S
C4970 C4971 1.287 . S
C4971 C4970 1.287 . S
C4971 C4972 1.524 . S
C4971 H4974 0.999 . S
C4972 H4942 0.950 . S
C4972 C4971 1.524 . S
C4972 C4973 1.415 . S
C4973 H4943 0.950 . S
C4973 C4968 1.363 . S
C4973 C4972 1.415 . S
H4974 C4971 0.999 . S
H4975 C4956 0.913 . S
H4976 C4994 0.951 . S
H4977 C4996 0.951 . S
H4978 C4998 0.950 . S
H4979 C4999 0.950 . S
H4980 C5001 0.950 . S
H4981 C5004 0.950 . S
H4982 C5005 0.950 . S
H4983 C5007 0.950 . S
H4984 C5008 0.950 . S
H4985 C5009 0.951 . S
H4986 C5011 0.951 . S
H4987 C5013 0.950 . S
H4988 C5014 0.950 . S
H4989 C5016 0.950 . S
H4990 C5019 0.950 . S
H4991 C5020 0.950 . S
H4992 C5022 0.950 . S
H4993 C5023 0.950 . S
C4994 H4976 0.951 . S
C4994 C4995 1.366 . S
C4994 C4996 1.388 . S
C4995 C4994 1.366 . S
C4995 C4999 1.385 . S
C4996 H4977 0.951 . S
C4996 C4994 1.388 . S
C4996 C4997 1.366 . S
C4997 C4996 1.366 . S
C4997 C4998 1.414 . S
C4997 C5000 1.499 . S
C4998 H4978 0.950 . S
C4998 C4997 1.414 . S
C4998 C4999 1.374 . S
C4999 H4979 0.950 . S
C4999 C4995 1.385 . S
C4999 C4998 1.374 . S
C5000 C4997 1.499 . S
C5000 C5001 1.373 . S
C5000 C5002 1.389 . S
C5001 H4980 0.950 . S
C5001 C5000 1.373 . S
C5001 C5017 1.377 . S
C5002 C5000 1.389 . S
C5002 C5003 1.524 . S
C5002 C5016 1.377 . S
C5003 C5002 1.524 . S
C5003 C5004 1.397 . S
C5003 C5008 1.363 . S
C5004 H4981 0.950 . S
C5004 C5003 1.397 . S
C5004 C5005 1.334 . S
C5005 H4982 0.950 . S
C5005 C5004 1.334 . S
C5005 C5006 1.287 . S
C5006 C5005 1.287 . S
C5006 C5007 1.524 . S
C5006 H5025 0.913 . S
C5007 H4983 0.950 . S
C5007 C5006 1.524 . S
C5007 C5008 1.415 . S
C5008 H4984 0.950 . S
C5008 C5003 1.363 . S
C5008 C5007 1.415 . S
C5009 H4985 0.951 . S
C5009 C5010 1.366 . S
C5009 C5011 1.388 . S
C5010 C5009 1.366 . S
C5010 C5014 1.385 . S
C5011 H4986 0.951 . S
C5011 C5009 1.388 . S
C5011 C5012 1.366 . S
C5012 C5011 1.366 . S
C5012 C5013 1.414 . S
C5012 C5015 1.499 . S
C5013 H4987 0.950 . S
C5013 C5012 1.414 . S
C5013 C5014 1.374 . S
C5014 H4988 0.950 . S
C5014 C5010 1.385 . S
C5014 C5013 1.374 . S
C5015 C5012 1.499 . S
C5015 C5016 1.373 . S
C5015 C5017 1.389 . S
C5016 H4989 0.950 . S
C5016 C5002 1.377 . S
C5016 C5015 1.373 . S
C5017 C5001 1.377 . S
C5017 C5015 1.389 . S
C5017 C5018 1.524 . S
C5018 C5017 1.524 . S
C5018 C5019 1.397 . S
C5018 C5023 1.363 . S
C5019 H4990 0.950 . S
C5019 C5018 1.397 . S
C5019 C5020 1.334 . S
C5020 H4991 0.950 . S
C5020 C5019 1.334 . S
C5020 C5021 1.287 . S
C5021 C5020 1.287 . S
C5021 C5022 1.524 . S
C5021 H5024 0.999 . S
C5022 H4992 0.950 . S
C5022 C5021 1.524 . S
C5022 C5023 1.415 . S
C5023 H4993 0.950 . S
C5023 C5018 1.363 . S
C5023 C5022 1.415 . S
H5024 C5021 0.999 . S
H5025 C5006 0.913 . S
H5026 C5044 0.951 . S
H5027 C5046 0.951 . S
H5028 C5048 0.950 . S
H5029 C5049 0.950 . S
H5030 C5051 0.950 . S
H5031 C5054 0.950 . S
H5032 C5055 0.950 . S
H5033 C5057 0.950 . S
H5034 C5058 0.950 . S
H5035 C5059 0.951 . S
H5036 C5061 0.951 . S
H5037 C5063 0.950 . S
H5038 C5064 0.950 . S
H5039 C5066 0.950 . S
H5040 C5069 0.950 . S
H5041 C5070 0.950 . S
H5042 C5072 0.950 . S
H5043 C5073 0.950 . S
C5044 H5026 0.951 . S
C5044 C5045 1.366 . S
C5044 C5046 1.388 . S
C5045 C5044 1.366 . S
C5045 C5049 1.385 . S
C5046 H5027 0.951 . S
C5046 C5044 1.388 . S
C5046 C5047 1.366 . S
C5047 C5046 1.366 . S
C5047 C5048 1.414 . S
C5047 C5050 1.499 . S
C5048 H5028 0.950 . S
C5048 C5047 1.414 . S
C5048 C5049 1.374 . S
C5049 H5029 0.950 . S
C5049 C5045 1.385 . S
C5049 C5048 1.374 . S
C5050 C5047 1.499 . S
C5050 C5051 1.373 . S
C5050 C5052 1.389 . S
C5051 H5030 0.950 . S
C5051 C5050 1.373 . S
C5051 C5067 1.377 . S
C5052 C5050 1.389 . S
C5052 C5053 1.524 . S
C5052 C5066 1.377 . S
C5053 C5052 1.524 . S
C5053 C5054 1.397 . S
C5053 C5058 1.363 . S
C5054 H5031 0.950 . S
C5054 C5053 1.397 . S
C5054 C5055 1.334 . S
C5055 H5032 0.950 . S
C5055 C5054 1.334 . S
C5055 C5056 1.287 . S
C5056 C5055 1.287 . S
C5056 C5057 1.524 . S
C5056 H5075 0.913 . S
C5057 H5033 0.950 . S
C5057 C5056 1.524 . S
C5057 C5058 1.415 . S
C5058 H5034 0.950 . S
C5058 C5053 1.363 . S
C5058 C5057 1.415 . S
C5059 H5035 0.951 . S
C5059 C5060 1.366 . S
C5059 C5061 1.388 . S
C5060 C5059 1.366 . S
C5060 C5064 1.385 . S
C5061 H5036 0.951 . S
C5061 C5059 1.388 . S
C5061 C5062 1.366 . S
C5062 C5061 1.366 . S
C5062 C5063 1.414 . S
C5062 C5065 1.499 . S
C5063 H5037 0.950 . S
C5063 C5062 1.414 . S
C5063 C5064 1.374 . S
C5064 H5038 0.950 . S
C5064 C5060 1.385 . S
C5064 C5063 1.374 . S
C5065 C5062 1.499 . S
C5065 C5066 1.373 . S
C5065 C5067 1.389 . S
C5066 H5039 0.950 . S
C5066 C5052 1.377 . S
C5066 C5065 1.373 . S
C5067 C5051 1.377 . S
C5067 C5065 1.389 . S
C5067 C5068 1.524 . S
C5068 C5067 1.524 . S
C5068 C5069 1.397 . S
C5068 C5073 1.363 . S
C5069 H5040 0.950 . S
C5069 C5068 1.397 . S
C5069 C5070 1.334 . S
C5070 H5041 0.950 . S
C5070 C5069 1.334 . S
C5070 C5071 1.287 . S
C5071 C5070 1.287 . S
C5071 C5072 1.524 . S
C5071 H5074 0.999 . S
C5072 H5042 0.950 . S
C5072 C5071 1.524 . S
C5072 C5073 1.415 . S
C5073 H5043 0.950 . S
C5073 C5068 1.363 . S
C5073 C5072 1.415 . S
H5074 C5071 0.999 . S
H5075 C5056 0.913 . S
H5076 C5094 0.951 . S
H5077 C5096 0.951 . S
H5078 C5098 0.950 . S
H5079 C5099 0.950 . S
H5080 C5101 0.950 . S
H5081 C5104 0.950 . S
H5082 C5105 0.950 . S
H5083 C5107 0.950 . S
H5084 C5108 0.950 . S
H5085 C5109 0.951 . S
H5086 C5111 0.951 . S
H5087 C5113 0.950 . S
H5088 C5114 0.950 1_655 S
H5089 C5116 0.950 . S
H5090 C5119 0.950 1_655 S
H5091 C5120 0.950 . S
H5092 C5122 0.950 . S
H5093 C5123 0.950 . S
C5094 H5076 0.951 . S
C5094 C5095 1.366 . S
C5094 C5096 1.388 . S
C5095 C5094 1.366 . S
C5095 C5099 1.385 . S
C5096 H5077 0.951 . S
C5096 C5094 1.388 . S
C5096 C5097 1.366 . S
C5097 C5096 1.366 . S
C5097 C5098 1.414 . S
C5097 C5100 1.499 . S
C5098 H5078 0.950 . S
C5098 C5097 1.414 . S
C5098 C5099 1.374 . S
C5099 H5079 0.950 . S
C5099 C5095 1.385 . S
C5099 C5098 1.374 . S
C5100 C5097 1.499 . S
C5100 C5101 1.373 . S
C5100 C5102 1.389 . S
C5101 H5080 0.950 . S
C5101 C5100 1.373 . S
C5101 C5117 1.377 . S
C5102 C5100 1.389 . S
C5102 C5103 1.524 . S
C5102 C5116 1.377 . S
C5103 C5102 1.524 . S
C5103 C5104 1.397 . S
C5103 C5108 1.363 . S
C5104 H5081 0.950 . S
C5104 C5103 1.397 . S
C5104 C5105 1.334 . S
C5105 H5082 0.950 . S
C5105 C5104 1.334 . S
C5105 C5106 1.287 . S
C5106 C5105 1.287 . S
C5106 C5107 1.524 . S
C5106 H5125 0.913 . S
C5107 H5083 0.950 . S
C5107 C5106 1.524 . S
C5107 C5108 1.415 . S
C5108 H5084 0.950 . S
C5108 C5103 1.363 . S
C5108 C5107 1.415 . S
C5109 H5085 0.951 . S
C5109 C5110 1.366 . S
C5109 C5111 1.388 . S
C5110 C5109 1.366 . S
C5110 C5114 1.385 . S
C5111 H5086 0.951 . S
C5111 C5109 1.388 . S
C5111 C5112 1.411 . S
C5112 C5111 1.411 . S
C5112 C5113 1.391 1_455 S
C5112 C5115 1.477 1_455 S
C5113 H5087 0.950 . S
C5113 C5112 1.391 1_655 S
C5113 C5114 1.374 1_655 S
C5114 H5088 0.950 1_455 S
C5114 C5110 1.385 . S
C5114 C5113 1.374 1_455 S
C5115 C5112 1.477 1_655 S
C5115 C5116 1.373 . S
C5115 C5117 1.389 . S
C5116 H5089 0.950 . S
C5116 C5102 1.377 . S
C5116 C5115 1.373 . S
C5117 C5101 1.377 . S
C5117 C5115 1.389 . S
C5117 C5118 1.524 1_655 S
C5118 C5117 1.524 1_455 S
C5118 C5119 1.397 . S
C5118 C5123 1.363 . S
C5119 H5090 0.950 1_455 S
C5119 C5118 1.397 . S
C5119 C5120 1.334 . S
C5120 H5091 0.950 . S
C5120 C5119 1.334 . S
C5120 C5121 1.287 . S
C5121 C5120 1.287 . S
C5121 C5122 1.524 . S
C5121 H5124 0.999 . S
C5122 H5092 0.950 . S
C5122 C5121 1.524 . S
C5122 C5123 1.415 . S
C5123 H5093 0.950 . S
C5123 C5118 1.363 . S
C5123 C5122 1.415 . S
H5124 C5121 0.999 . S
H5125 C5106 0.913 . S
H5126 C5144 0.951 . S
H5127 C5146 0.951 . S
H5128 C5148 0.950 . S
H5129 C5149 0.950 . S
H5130 C5151 0.950 . S
H5131 C5154 0.950 . S
H5132 C5155 0.950 . S
H5133 C5157 0.950 . S
H5134 C5158 0.950 . S
H5135 C5159 0.951 . S
H5136 C5161 0.951 . S
H5137 C5163 0.950 . S
H5138 C5164 0.950 . S
H5139 C5166 0.950 . S
H5140 C5169 0.950 . S
H5141 C5170 0.950 . S
H5142 C5172 0.950 . S
H5143 C5173 0.950 . S
C5144 H5126 0.951 . S
C5144 C5145 1.366 . S
C5144 C5146 1.388 . S
C5145 C5144 1.366 . S
C5145 C5149 1.385 . S
C5146 H5127 0.951 . S
C5146 C5144 1.388 . S
C5146 C5147 1.366 . S
C5147 C5146 1.366 . S
C5147 C5148 1.414 . S
C5147 C5150 1.499 . S
C5148 H5128 0.950 . S
C5148 C5147 1.414 . S
C5148 C5149 1.374 . S
C5149 H5129 0.950 . S
C5149 C5145 1.385 . S
C5149 C5148 1.374 . S
C5150 C5147 1.499 . S
C5150 C5151 1.373 . S
C5150 C5152 1.389 . S
C5151 H5130 0.950 . S
C5151 C5150 1.373 . S
C5151 C5167 1.377 . S
C5152 C5150 1.389 . S
C5152 C5153 1.524 . S
C5152 C5166 1.377 . S
C5153 C5152 1.524 . S
C5153 C5154 1.397 . S
C5153 C5158 1.363 . S
C5154 H5131 0.950 . S
C5154 C5153 1.397 . S
C5154 C5155 1.334 . S
C5155 H5132 0.950 . S
C5155 C5154 1.334 . S
C5155 C5156 1.287 . S
C5156 C5155 1.287 . S
C5156 C5157 1.524 . S
C5156 H5175 0.913 . S
C5157 H5133 0.950 . S
C5157 C5156 1.524 . S
C5157 C5158 1.415 . S
C5158 H5134 0.950 . S
C5158 C5153 1.363 . S
C5158 C5157 1.415 . S
C5159 H5135 0.951 . S
C5159 C5160 1.366 . S
C5159 C5161 1.388 . S
C5160 C5159 1.366 . S
C5160 C5164 1.385 . S
C5161 H5136 0.951 . S
C5161 C5159 1.388 . S
C5161 C5162 1.366 . S
C5162 C5161 1.366 . S
C5162 C5163 1.414 . S
C5162 C5165 1.499 . S
C5163 H5137 0.950 . S
C5163 C5162 1.414 . S
C5163 C5164 1.374 . S
C5164 H5138 0.950 . S
C5164 C5160 1.385 . S
C5164 C5163 1.374 . S
C5165 C5162 1.499 . S
C5165 C5166 1.373 . S
C5165 C5167 1.389 . S
C5166 H5139 0.950 . S
C5166 C5152 1.377 . S
C5166 C5165 1.373 . S
C5167 C5151 1.377 . S
C5167 C5165 1.389 . S
C5167 C5168 1.524 . S
C5168 C5167 1.524 . S
C5168 C5169 1.397 . S
C5168 C5173 1.363 . S
C5169 H5140 0.950 . S
C5169 C5168 1.397 . S
C5169 C5170 1.334 . S
C5170 H5141 0.950 . S
C5170 C5169 1.334 . S
C5170 C5171 1.287 . S
C5171 C5170 1.287 . S
C5171 C5172 1.524 . S
C5171 H5174 0.999 . S
C5172 H5142 0.950 . S
C5172 C5171 1.524 . S
C5172 C5173 1.415 . S
C5173 H5143 0.950 . S
C5173 C5168 1.363 . S
C5173 C5172 1.415 . S
H5174 C5171 0.999 . S
H5175 C5156 0.913 . S
H5176 C5194 0.951 . S
H5177 C5196 0.951 . S
H5178 C5198 0.950 . S
H5179 C5199 0.950 . S
H5180 C5201 0.950 . S
H5181 C5204 0.950 . S
H5182 C5205 0.950 . S
H5183 C5207 0.950 . S
H5184 C5208 0.950 . S
H5185 C5209 0.951 . S
H5186 C5211 0.951 . S
H5187 C5213 0.950 . S
H5188 C5214 0.950 . S
H5189 C5216 0.950 . S
H5190 C5219 0.950 . S
H5191 C5220 0.950 . S
H5192 C5222 0.950 . S
H5193 C5223 0.950 . S
C5194 H5176 0.951 . S
C5194 C5195 1.366 . S
C5194 C5196 1.388 . S
C5195 C5194 1.366 . S
C5195 C5199 1.385 . S
C5196 H5177 0.951 . S
C5196 C5194 1.388 . S
C5196 C5197 1.366 . S
C5197 C5196 1.366 . S
C5197 C5198 1.414 . S
C5197 C5200 1.499 . S
C5198 H5178 0.950 . S
C5198 C5197 1.414 . S
C5198 C5199 1.374 . S
C5199 H5179 0.950 . S
C5199 C5195 1.385 . S
C5199 C5198 1.374 . S
C5200 C5197 1.499 . S
C5200 C5201 1.373 . S
C5200 C5202 1.389 . S
C5201 H5180 0.950 . S
C5201 C5200 1.373 . S
C5201 C5217 1.377 . S
C5202 C5200 1.389 . S
C5202 C5203 1.524 . S
C5202 C5216 1.377 . S
C5203 C5202 1.524 . S
C5203 C5204 1.397 . S
C5203 C5208 1.363 . S
C5204 H5181 0.950 . S
C5204 C5203 1.397 . S
C5204 C5205 1.334 . S
C5205 H5182 0.950 . S
C5205 C5204 1.334 . S
C5205 C5206 1.287 . S
C5206 C5205 1.287 . S
C5206 C5207 1.524 . S
C5206 H5225 0.913 . S
C5207 H5183 0.950 . S
C5207 C5206 1.524 . S
C5207 C5208 1.415 . S
C5208 H5184 0.950 . S
C5208 C5203 1.363 . S
C5208 C5207 1.415 . S
C5209 H5185 0.951 . S
C5209 C5210 1.366 . S
C5209 C5211 1.388 . S
C5210 C5209 1.366 . S
C5210 C5214 1.385 . S
C5211 H5186 0.951 . S
C5211 C5209 1.388 . S
C5211 C5212 1.366 . S
C5212 C5211 1.366 . S
C5212 C5213 1.414 . S
C5212 C5215 1.499 . S
C5213 H5187 0.950 . S
C5213 C5212 1.414 . S
C5213 C5214 1.374 . S
C5214 H5188 0.950 . S
C5214 C5210 1.385 . S
C5214 C5213 1.374 . S
C5215 C5212 1.499 . S
C5215 C5216 1.373 . S
C5215 C5217 1.389 . S
C5216 H5189 0.950 . S
C5216 C5202 1.377 . S
C5216 C5215 1.373 . S
C5217 C5201 1.377 . S
C5217 C5215 1.389 . S
C5217 C5218 1.524 . S
C5218 C5217 1.524 . S
C5218 C5219 1.397 . S
C5218 C5223 1.363 . S
C5219 H5190 0.950 . S
C5219 C5218 1.397 . S
C5219 C5220 1.334 . S
C5220 H5191 0.950 . S
C5220 C5219 1.334 . S
C5220 C5221 1.287 . S
C5221 C5220 1.287 . S
C5221 C5222 1.524 . S
C5221 H5224 0.999 . S
C5222 H5192 0.950 . S
C5222 C5221 1.524 . S
C5222 C5223 1.415 . S
C5223 H5193 0.950 . S
C5223 C5218 1.363 . S
C5223 C5222 1.415 . S
H5224 C5221 0.999 . S
H5225 C5206 0.913 . S
H5226 C5244 0.951 . S
H5227 C5246 0.951 . S
H5228 C5248 0.950 . S
H5229 C5249 0.950 . S
H5230 C5251 0.950 . S
H5231 C5254 0.950 . S
H5232 C5255 0.950 . S
H5233 C5257 0.950 . S
H5234 C5258 0.950 . S
H5235 C5259 0.951 . S
H5236 C5261 0.951 . S
H5237 C5263 0.950 . S
H5238 C5264 0.950 . S
H5239 C5266 0.950 . S
H5240 C5269 0.950 . S
H5241 C5270 0.950 . S
H5242 C5272 0.950 . S
H5243 C5273 0.950 . S
C5244 H5226 0.951 . S
C5244 C5245 1.366 . S
C5244 C5246 1.388 . S
C5245 C5244 1.366 . S
C5245 C5249 1.385 . S
C5246 H5227 0.951 . S
C5246 C5244 1.388 . S
C5246 C5247 1.366 . S
C5247 C5246 1.366 . S
C5247 C5248 1.414 . S
C5247 C5250 1.499 . S
C5248 H5228 0.950 . S
C5248 C5247 1.414 . S
C5248 C5249 1.374 . S
C5249 H5229 0.950 . S
C5249 C5245 1.385 . S
C5249 C5248 1.374 . S
C5250 C5247 1.499 . S
C5250 C5251 1.373 . S
C5250 C5252 1.389 . S
C5251 H5230 0.950 . S
C5251 C5250 1.373 . S
C5251 C5267 1.377 . S
C5252 C5250 1.389 . S
C5252 C5253 1.524 . S
C5252 C5266 1.377 . S
C5253 C5252 1.524 . S
C5253 C5254 1.397 . S
C5253 C5258 1.363 . S
C5254 H5231 0.950 . S
C5254 C5253 1.397 . S
C5254 C5255 1.334 . S
C5255 H5232 0.950 . S
C5255 C5254 1.334 . S
C5255 C5256 1.287 . S
C5256 C5255 1.287 . S
C5256 C5257 1.524 . S
C5256 H5275 0.913 . S
C5257 H5233 0.950 . S
C5257 C5256 1.524 . S
C5257 C5258 1.415 . S
C5258 H5234 0.950 . S
C5258 C5253 1.363 . S
C5258 C5257 1.415 . S
C5259 H5235 0.951 . S
C5259 C5260 1.366 . S
C5259 C5261 1.388 . S
C5260 C5259 1.366 . S
C5260 C5264 1.385 . S
C5261 H5236 0.951 . S
C5261 C5259 1.388 . S
C5261 C5262 1.366 . S
C5262 C5261 1.366 . S
C5262 C5263 1.414 . S
C5262 C5265 1.499 . S
C5263 H5237 0.950 . S
C5263 C5262 1.414 . S
C5263 C5264 1.374 . S
C5264 H5238 0.950 . S
C5264 C5260 1.385 . S
C5264 C5263 1.374 . S
C5265 C5262 1.499 . S
C5265 C5266 1.373 . S
C5265 C5267 1.389 . S
C5266 H5239 0.950 . S
C5266 C5252 1.377 . S
C5266 C5265 1.373 . S
C5267 C5251 1.377 . S
C5267 C5265 1.389 . S
C5267 C5268 1.524 . S
C5268 C5267 1.524 . S
C5268 C5269 1.397 . S
C5268 C5273 1.363 . S
C5269 H5240 0.950 . S
C5269 C5268 1.397 . S
C5269 C5270 1.334 . S
C5270 H5241 0.950 . S
C5270 C5269 1.334 . S
C5270 C5271 1.287 . S
C5271 C5270 1.287 . S
C5271 C5272 1.524 . S
C5271 H5274 0.999 . S
C5272 H5242 0.950 . S
C5272 C5271 1.524 . S
C5272 C5273 1.415 . S
C5273 H5243 0.950 . S
C5273 C5268 1.363 . S
C5273 C5272 1.415 . S
H5274 C5271 0.999 . S
H5275 C5256 0.913 . S
H5276 C5294 0.951 . S
H5277 C5296 0.951 . S
H5278 C5298 0.950 . S
H5279 C5299 0.950 . S
H5280 C5301 0.950 . S
H5281 C5304 0.950 . S
H5282 C5305 0.950 . S
H5283 C5307 0.950 1_455 S
H5284 C5308 0.950 . S
H5285 C5309 0.951 . S
H5286 C5311 0.951 . S
H5287 C5313 0.950 1_455 S
H5288 C5314 0.950 . S
H5289 C5316 0.950 . S
H5290 C5319 0.950 . S
H5291 C5320 0.950 . S
H5292 C5322 0.950 . S
H5293 C5323 0.950 . S
C5294 H5276 0.951 . S
C5294 C5295 1.366 . S
C5294 C5296 1.388 . S
C5295 C5294 1.366 . S
C5295 C5299 1.385 . S
C5296 H5277 0.951 . S
C5296 C5294 1.388 . S
C5296 C5297 1.366 . S
C5297 C5296 1.366 . S
C5297 C5298 1.414 . S
C5297 C5300 1.499 . S
C5298 H5278 0.950 . S
C5298 C5297 1.414 . S
C5298 C5299 1.374 . S
C5299 H5279 0.950 . S
C5299 C5295 1.385 . S
C5299 C5298 1.374 . S
C5300 C5297 1.499 . S
C5300 C5301 1.373 . S
C5300 C5302 1.389 . S
C5301 H5280 0.950 . S
C5301 C5300 1.373 . S
C5301 C5317 1.377 . S
C5302 C5300 1.389 . S
C5302 C5303 1.524 . S
C5302 C5316 1.377 . S
C5303 C5302 1.524 . S
C5303 C5304 1.397 . S
C5303 C5308 1.363 . S
C5304 H5281 0.950 . S
C5304 C5303 1.397 . S
C5304 C5305 1.334 . S
C5305 H5282 0.950 . S
C5305 C5304 1.334 . S
C5305 C5306 1.287 . S
C5306 C5305 1.287 . S
C5306 C5307 1.524 . S
C5306 H5325 0.913 . S
C5307 H5283 0.950 1_655 S
C5307 C5306 1.524 . S
C5307 C5308 1.415 . S
C5308 H5284 0.950 . S
C5308 C5303 1.363 . S
C5308 C5307 1.415 . S
C5309 H5285 0.951 . S
C5309 C5310 1.366 . S
C5309 C5311 1.388 . S
C5310 C5309 1.366 . S
C5310 C5314 1.385 1_655 S
C5311 H5286 0.951 . S
C5311 C5309 1.388 . S
C5311 C5312 1.366 . S
C5312 C5311 1.366 . S
C5312 C5313 1.414 . S
C5312 C5315 1.499 . S
C5313 H5287 0.950 1_655 S
C5313 C5312 1.414 . S
C5313 C5314 1.374 1_655 S
C5314 H5288 0.950 . S
C5314 C5310 1.385 1_455 S
C5314 C5313 1.374 1_455 S
C5315 C5312 1.499 . S
C5315 C5316 1.373 . S
C5315 C5317 1.389 . S
C5316 H5289 0.950 . S
C5316 C5302 1.377 . S
C5316 C5315 1.373 . S
C5317 C5301 1.377 . S
C5317 C5315 1.389 . S
C5317 C5318 1.524 . S
C5318 C5317 1.524 . S
C5318 C5319 1.397 . S
C5318 C5323 1.363 . S
C5319 H5290 0.950 . S
C5319 C5318 1.397 . S
C5319 C5320 1.334 . S
C5320 H5291 0.950 . S
C5320 C5319 1.334 . S
C5320 C5321 1.287 . S
C5321 C5320 1.287 . S
C5321 C5322 1.524 . S
C5321 H5324 0.999 . S
C5322 H5292 0.950 . S
C5322 C5321 1.524 . S
C5322 C5323 1.415 . S
C5323 H5293 0.950 . S
C5323 C5318 1.363 . S
C5323 C5322 1.415 . S
H5324 C5321 0.999 . S
H5325 C5306 0.913 . S
H5326 C5344 0.951 . S
H5327 C5346 0.951 . S
H5328 C5348 0.950 . S
H5329 C5349 0.950 . S
H5330 C5351 0.950 . S
H5331 C5354 0.950 . S
H5332 C5355 0.950 . S
H5333 C5357 0.950 . S
H5334 C5358 0.950 . S
H5335 C5359 0.951 . S
H5336 C5361 0.951 . S
H5337 C5363 0.950 . S
H5338 C5364 0.950 . S
H5339 C5366 0.950 . S
H5340 C5369 0.950 . S
H5341 C5370 0.950 . S
H5342 C5372 0.950 . S
H5343 C5373 0.950 . S
C5344 H5326 0.951 . S
C5344 C5345 1.366 . S
C5344 C5346 1.388 . S
C5345 C5344 1.366 . S
C5345 C5349 1.385 . S
C5346 H5327 0.951 . S
C5346 C5344 1.388 . S
C5346 C5347 1.366 . S
C5347 C5346 1.366 . S
C5347 C5348 1.414 . S
C5347 C5350 1.499 . S
C5348 H5328 0.950 . S
C5348 C5347 1.414 . S
C5348 C5349 1.374 . S
C5349 H5329 0.950 . S
C5349 C5345 1.385 . S
C5349 C5348 1.374 . S
C5350 C5347 1.499 . S
C5350 C5351 1.373 . S
C5350 C5352 1.389 . S
C5351 H5330 0.950 . S
C5351 C5350 1.373 . S
C5351 C5367 1.377 . S
C5352 C5350 1.389 . S
C5352 C5353 1.524 . S
C5352 C5366 1.377 . S
C5353 C5352 1.524 . S
C5353 C5354 1.397 . S
C5353 C5358 1.363 . S
C5354 H5331 0.950 . S
C5354 C5353 1.397 . S
C5354 C5355 1.334 . S
C5355 H5332 0.950 . S
C5355 C5354 1.334 . S
C5355 C5356 1.287 . S
C5356 C5355 1.287 . S
C5356 C5357 1.524 . S
C5356 H5375 0.913 . S
C5357 H5333 0.950 . S
C5357 C5356 1.524 . S
C5357 C5358 1.415 . S
C5358 H5334 0.950 . S
C5358 C5353 1.363 . S
C5358 C5357 1.415 . S
C5359 H5335 0.951 . S
C5359 C5360 1.366 . S
C5359 C5361 1.388 . S
C5360 C5359 1.366 . S
C5360 C5364 1.385 . S
C5361 H5336 0.951 . S
C5361 C5359 1.388 . S
C5361 C5362 1.366 . S
C5362 C5361 1.366 . S
C5362 C5363 1.414 . S
C5362 C5365 1.499 . S
C5363 H5337 0.950 . S
C5363 C5362 1.414 . S
C5363 C5364 1.374 . S
C5364 H5338 0.950 . S
C5364 C5360 1.385 . S
C5364 C5363 1.374 . S
C5365 C5362 1.499 . S
C5365 C5366 1.373 . S
C5365 C5367 1.389 . S
C5366 H5339 0.950 . S
C5366 C5352 1.377 . S
C5366 C5365 1.373 . S
C5367 C5351 1.377 . S
C5367 C5365 1.389 . S
C5367 C5368 1.524 . S
C5368 C5367 1.524 . S
C5368 C5369 1.397 . S
C5368 C5373 1.363 . S
C5369 H5340 0.950 . S
C5369 C5368 1.397 . S
C5369 C5370 1.334 . S
C5370 H5341 0.950 . S
C5370 C5369 1.334 . S
C5370 C5371 1.287 . S
C5371 C5370 1.287 . S
C5371 C5372 1.524 . S
C5371 H5374 0.999 . S
C5372 H5342 0.950 . S
C5372 C5371 1.524 . S
C5372 C5373 1.415 . S
C5373 H5343 0.950 . S
C5373 C5368 1.363 . S
C5373 C5372 1.415 . S
H5374 C5371 0.999 . S
H5375 C5356 0.913 . S
H5376 C5394 0.951 . S
H5377 C5396 0.951 . S
H5378 C5398 0.950 . S
H5379 C5399 0.950 . S
H5380 C5401 0.950 . S
H5381 C5404 0.950 . S
H5382 C5405 0.950 . S
H5383 C5407 0.950 . S
H5384 C5408 0.950 . S
H5385 C5409 0.951 . S
H5386 C5411 0.951 . S
H5387 C5413 0.950 . S
H5388 C5414 0.950 . S
H5389 C5416 0.950 . S
H5390 C5419 0.950 . S
H5391 C5420 0.950 . S
H5392 C5422 0.950 . S
H5393 C5423 0.950 . S
C5394 H5376 0.951 . S
C5394 C5395 1.366 . S
C5394 C5396 1.388 . S
C5395 C5394 1.366 . S
C5395 C5399 1.385 . S
C5396 H5377 0.951 . S
C5396 C5394 1.388 . S
C5396 C5397 1.366 . S
C5397 C5396 1.366 . S
C5397 C5398 1.414 . S
C5397 C5400 1.499 . S
C5398 H5378 0.950 . S
C5398 C5397 1.414 . S
C5398 C5399 1.374 . S
C5399 H5379 0.950 . S
C5399 C5395 1.385 . S
C5399 C5398 1.374 . S
C5400 C5397 1.499 . S
C5400 C5401 1.373 . S
C5400 C5402 1.389 . S
C5401 H5380 0.950 . S
C5401 C5400 1.373 . S
C5401 C5417 1.377 . S
C5402 C5400 1.389 . S
C5402 C5403 1.524 . S
C5402 C5416 1.377 . S
C5403 C5402 1.524 . S
C5403 C5404 1.397 . S
C5403 C5408 1.363 . S
C5404 H5381 0.950 . S
C5404 C5403 1.397 . S
C5404 C5405 1.334 . S
C5405 H5382 0.950 . S
C5405 C5404 1.334 . S
C5405 C5406 1.287 . S
C5406 C5405 1.287 . S
C5406 C5407 1.524 . S
C5406 H5425 0.913 . S
C5407 H5383 0.950 . S
C5407 C5406 1.524 . S
C5407 C5408 1.415 . S
C5408 H5384 0.950 . S
C5408 C5403 1.363 . S
C5408 C5407 1.415 . S
C5409 H5385 0.951 . S
C5409 C5410 1.366 . S
C5409 C5411 1.388 . S
C5410 C5409 1.366 . S
C5410 C5414 1.385 . S
C5411 H5386 0.951 . S
C5411 C5409 1.388 . S
C5411 C5412 1.366 . S
C5412 C5411 1.366 . S
C5412 C5413 1.414 . S
C5412 C5415 1.499 . S
C5413 H5387 0.950 . S
C5413 C5412 1.414 . S
C5413 C5414 1.374 . S
C5414 H5388 0.950 . S
C5414 C5410 1.385 . S
C5414 C5413 1.374 . S
C5415 C5412 1.499 . S
C5415 C5416 1.373 . S
C5415 C5417 1.389 . S
C5416 H5389 0.950 . S
C5416 C5402 1.377 . S
C5416 C5415 1.373 . S
C5417 C5401 1.377 . S
C5417 C5415 1.389 . S
C5417 C5418 1.524 . S
C5418 C5417 1.524 . S
C5418 C5419 1.397 . S
C5418 C5423 1.363 . S
C5419 H5390 0.950 . S
C5419 C5418 1.397 . S
C5419 C5420 1.334 . S
C5420 H5391 0.950 . S
C5420 C5419 1.334 . S
C5420 C5421 1.287 . S
C5421 C5420 1.287 . S
C5421 C5422 1.524 . S
C5421 H5424 0.999 . S
C5422 H5392 0.950 . S
C5422 C5421 1.524 . S
C5422 C5423 1.415 . S
C5423 H5393 0.950 . S
C5423 C5418 1.363 . S
C5423 C5422 1.415 . S
H5424 C5421 0.999 . S
H5425 C5406 0.913 . S
H5426 C5444 0.951 . S
H5427 C5446 0.951 . S
H5428 C5448 0.950 . S
H5429 C5449 0.950 . S
H5430 C5451 0.950 . S
H5431 C5454 0.950 . S
H5432 C5455 0.950 . S
H5433 C5457 0.950 . S
H5434 C5458 0.950 . S
H5435 C5459 0.951 . S
H5436 C5461 0.951 . S
H5437 C5463 0.950 1_545 S
H5438 C5464 0.950 . S
H5439 C5466 0.950 . S
H5440 C5469 0.950 . S
H5441 C5470 0.950 . S
H5442 C5472 0.950 . S
H5443 C5473 0.950 . S
C5444 H5426 0.951 . S
C5444 C5445 1.366 . S
C5444 C5446 1.388 . S
C5445 C5444 1.366 . S
C5445 C5449 1.385 . S
C5446 H5427 0.951 . S
C5446 C5444 1.388 . S
C5446 C5447 1.366 . S
C5447 C5446 1.366 . S
C5447 C5448 1.414 . S
C5447 C5450 1.499 . S
C5448 H5428 0.950 . S
C5448 C5447 1.414 . S
C5448 C5449 1.374 . S
C5449 H5429 0.950 . S
C5449 C5445 1.385 . S
C5449 C5448 1.374 . S
C5450 C5447 1.499 . S
C5450 C5451 1.373 . S
C5450 C5452 1.389 . S
C5451 H5430 0.950 . S
C5451 C5450 1.373 . S
C5451 C5467 1.377 . S
C5452 C5450 1.389 . S
C5452 C5453 1.524 . S
C5452 C5466 1.377 . S
C5453 C5452 1.524 . S
C5453 C5454 1.397 . S
C5453 C5458 1.363 . S
C5454 H5431 0.950 . S
C5454 C5453 1.397 . S
C5454 C5455 1.334 . S
C5455 H5432 0.950 . S
C5455 C5454 1.334 . S
C5455 C5456 1.287 . S
C5456 C5455 1.287 . S
C5456 C5457 1.524 . S
C5456 H5475 0.913 . S
C5457 H5433 0.950 . S
C5457 C5456 1.524 . S
C5457 C5458 1.415 . S
C5458 H5434 0.950 . S
C5458 C5453 1.363 . S
C5458 C5457 1.415 . S
C5459 H5435 0.951 . S
C5459 C5460 1.350 1_565 S
C5459 C5461 1.388 . S
C5460 C5459 1.350 1_545 S
C5460 C5464 1.394 . S
C5461 H5436 0.951 . S
C5461 C5459 1.388 . S
C5461 C5462 1.366 . S
C5462 C5461 1.366 . S
C5462 C5463 1.414 . S
C5462 C5465 1.499 . S
C5463 H5437 0.950 1_565 S
C5463 C5462 1.414 . S
C5463 C5464 1.374 1_565 S
C5464 H5438 0.950 . S
C5464 C5460 1.394 . S
C5464 C5463 1.374 1_545 S
C5465 C5462 1.499 . S
C5465 C5466 1.373 . S
C5465 C5467 1.389 . S
C5466 H5439 0.950 . S
C5466 C5452 1.377 . S
C5466 C5465 1.373 . S
C5467 C5451 1.377 . S
C5467 C5465 1.389 . S
C5467 C5468 1.524 . S
C5468 C5467 1.524 . S
C5468 C5469 1.397 . S
C5468 C5473 1.363 . S
C5469 H5440 0.950 . S
C5469 C5468 1.397 . S
C5469 C5470 1.334 . S
C5470 H5441 0.950 . S
C5470 C5469 1.334 . S
C5470 C5471 1.287 . S
C5471 C5470 1.287 . S
C5471 C5472 1.524 . S
C5471 H5474 0.999 . S
C5472 H5442 0.950 . S
C5472 C5471 1.524 . S
C5472 C5473 1.415 . S
C5473 H5443 0.950 . S
C5473 C5468 1.363 . S
C5473 C5472 1.415 . S
H5474 C5471 0.999 . S
H5475 C5456 0.913 . S
H5476 C5494 0.951 . S
H5477 C5496 0.951 . S
H5478 C5498 0.950 . S
H5479 C5499 0.950 . S
H5480 C5501 0.950 . S
H5481 C5504 0.950 . S
H5482 C5505 0.950 . S
H5483 C5507 0.950 . S
H5484 C5508 0.950 . S
H5485 C5509 0.951 . S
H5486 C5511 0.951 . S
H5487 C5513 0.950 . S
H5488 C5514 0.950 . S
H5489 C5516 0.950 . S
H5490 C5519 0.950 . S
H5491 C5520 0.950 . S
H5492 C5522 0.950 . S
H5493 C5523 0.950 . S
C5494 H5476 0.951 . S
C5494 C5495 1.366 . S
C5494 C5496 1.388 . S
C5495 C5494 1.366 . S
C5495 C5499 1.385 . S
C5496 H5477 0.951 . S
C5496 C5494 1.388 . S
C5496 C5497 1.366 . S
C5497 C5496 1.366 . S
C5497 C5498 1.414 . S
C5497 C5500 1.499 . S
C5498 H5478 0.950 . S
C5498 C5497 1.414 . S
C5498 C5499 1.374 . S
C5499 H5479 0.950 . S
C5499 C5495 1.385 . S
C5499 C5498 1.374 . S
C5500 C5497 1.499 . S
C5500 C5501 1.373 . S
C5500 C5502 1.389 . S
C5501 H5480 0.950 . S
C5501 C5500 1.373 . S
C5501 C5517 1.377 . S
C5502 C5500 1.389 . S
C5502 C5503 1.524 . S
C5502 C5516 1.377 . S
C5503 C5502 1.524 . S
C5503 C5504 1.397 . S
C5503 C5508 1.363 . S
C5504 H5481 0.950 . S
C5504 C5503 1.397 . S
C5504 C5505 1.334 . S
C5505 H5482 0.950 . S
C5505 C5504 1.334 . S
C5505 C5506 1.287 . S
C5506 C5505 1.287 . S
C5506 C5507 1.524 . S
C5506 H5525 0.913 . S
C5507 H5483 0.950 . S
C5507 C5506 1.524 . S
C5507 C5508 1.415 . S
C5508 H5484 0.950 . S
C5508 C5503 1.363 . S
C5508 C5507 1.415 . S
C5509 H5485 0.951 . S
C5509 C5510 1.366 . S
C5509 C5511 1.388 . S
C5510 C5509 1.366 . S
C5510 C5514 1.385 . S
C5511 H5486 0.951 . S
C5511 C5509 1.388 . S
C5511 C5512 1.366 . S
C5512 C5511 1.366 . S
C5512 C5513 1.414 . S
C5512 C5515 1.499 . S
C5513 H5487 0.950 . S
C5513 C5512 1.414 . S
C5513 C5514 1.374 . S
C5514 H5488 0.950 . S
C5514 C5510 1.385 . S
C5514 C5513 1.374 . S
C5515 C5512 1.499 . S
C5515 C5516 1.373 . S
C5515 C5517 1.389 . S
C5516 H5489 0.950 . S
C5516 C5502 1.377 . S
C5516 C5515 1.373 . S
C5517 C5501 1.377 . S
C5517 C5515 1.389 . S
C5517 C5518 1.524 . S
C5518 C5517 1.524 . S
C5518 C5519 1.397 . S
C5518 C5523 1.363 . S
C5519 H5490 0.950 . S
C5519 C5518 1.397 . S
C5519 C5520 1.334 . S
C5520 H5491 0.950 . S
C5520 C5519 1.334 . S
C5520 C5521 1.287 . S
C5521 C5520 1.287 . S
C5521 C5522 1.524 . S
C5521 H5524 0.999 . S
C5522 H5492 0.950 . S
C5522 C5521 1.524 . S
C5522 C5523 1.415 . S
C5523 H5493 0.950 . S
C5523 C5518 1.363 . S
C5523 C5522 1.415 . S
H5524 C5521 0.999 . S
H5525 C5506 0.913 . S
H5526 C5544 0.951 . S
H5527 C5546 0.951 . S
H5528 C5548 0.950 . S
H5529 C5549 0.950 . S
H5530 C5551 0.950 . S
H5531 C5554 0.950 . S
H5532 C5555 0.950 . S
H5533 C5557 0.950 . S
H5534 C5558 0.950 . S
H5535 C5559 0.951 . S
H5536 C5561 0.951 . S
H5537 C5563 0.950 . S
H5538 C5564 0.950 . S
H5539 C5566 0.950 . S
H5540 C5569 0.950 . S
H5541 C5570 0.950 . S
H5542 C5572 0.950 . S
H5543 C5573 0.950 . S
C5544 H5526 0.951 . S
C5544 C5545 1.366 1_556 S
C5544 C5546 1.388 . S
C5545 C5544 1.366 1_554 S
C5545 C5549 1.385 . S
C5546 H5527 0.951 . S
C5546 C5544 1.388 . S
C5546 C5547 1.366 1_556 S
C5547 C5546 1.366 1_554 S
C5547 C5548 1.414 . S
C5547 C5550 1.499 . S
C5548 H5528 0.950 . S
C5548 C5547 1.414 . S
C5548 C5549 1.374 . S
C5549 H5529 0.950 . S
C5549 C5545 1.385 . S
C5549 C5548 1.374 . S
C5550 C5547 1.499 . S
C5550 C5551 1.373 . S
C5550 C5552 1.389 1_554 S
C5551 H5530 0.950 . S
C5551 C5550 1.373 . S
C5551 C5567 1.377 . S
C5552 C5550 1.389 1_556 S
C5552 C5553 1.524 . S
C5552 C5566 1.377 . S
C5553 C5552 1.524 . S
C5553 C5554 1.397 . S
C5553 C5558 1.363 . S
C5554 H5531 0.950 . S
C5554 C5553 1.397 . S
C5554 C5555 1.334 . S
C5555 H5532 0.950 . S
C5555 C5554 1.334 . S
C5555 C5556 1.287 . S
C5556 C5555 1.287 . S
C5556 C5557 1.524 . S
C5556 H5575 0.913 . S
C5557 H5533 0.950 . S
C5557 C5556 1.524 . S
C5557 C5558 1.415 . S
C5558 H5534 0.950 . S
C5558 C5553 1.363 . S
C5558 C5557 1.415 . S
C5559 H5535 0.951 . S
C5559 C5560 1.366 . S
C5559 C5561 1.388 . S
C5560 C5559 1.366 . S
C5560 C5564 1.385 1_554 S
C5561 H5536 0.951 . S
C5561 C5559 1.388 . S
C5561 C5562 1.366 . S
C5562 C5561 1.366 . S
C5562 C5563 1.414 1_554 S
C5562 C5565 1.499 . S
C5563 H5537 0.950 . S
C5563 C5562 1.414 1_556 S
C5563 C5564 1.374 . S
C5564 H5538 0.950 . S
C5564 C5560 1.385 1_556 S
C5564 C5563 1.374 . S
C5565 C5562 1.499 . S
C5565 C5566 1.373 1_554 S
C5565 C5567 1.389 . S
C5566 H5539 0.950 . S
C5566 C5552 1.377 . S
C5566 C5565 1.373 1_556 S
C5567 C5551 1.377 . S
C5567 C5565 1.389 . S
C5567 C5568 1.524 . S
C5568 C5567 1.524 . S
C5568 C5569 1.397 . S
C5568 C5573 1.363 . S
C5569 H5540 0.950 . S
C5569 C5568 1.397 . S
C5569 C5570 1.334 . S
C5570 H5541 0.950 . S
C5570 C5569 1.334 . S
C5570 C5571 1.287 . S
C5571 C5570 1.287 . S
C5571 C5572 1.524 . S
C5571 H5574 0.999 . S
C5572 H5542 0.950 . S
C5572 C5571 1.524 . S
C5572 C5573 1.415 . S
C5573 H5543 0.950 . S
C5573 C5568 1.363 . S
C5573 C5572 1.415 . S
H5574 C5571 0.999 . S
H5575 C5556 0.913 . S
H5576 C5594 0.951 . S
H5577 C5596 0.951 . S
H5578 C5598 0.950 . S
H5579 C5599 0.950 . S
H5580 C5601 0.950 . S
H5581 C5604 0.950 . S
H5582 C5605 0.950 . S
H5583 C5607 0.950 . S
H5584 C5608 0.950 . S
H5585 C5609 0.951 . S
H5586 C5611 0.951 . S
H5587 C5613 0.950 . S
H5588 C5614 0.950 . S
H5589 C5616 0.950 . S
H5590 C5619 0.950 . S
H5591 C5620 0.950 . S
H5592 C5622 0.950 . S
H5593 C5623 0.950 . S
C5594 H5576 0.951 . S
C5594 C5595 1.366 . S
C5594 C5596 1.388 . S
C5595 C5594 1.366 . S
C5595 C5599 1.385 . S
C5596 H5577 0.951 . S
C5596 C5594 1.388 . S
C5596 C5597 1.366 . S
C5597 C5596 1.366 . S
C5597 C5598 1.414 . S
C5597 C5600 1.499 . S
C5598 H5578 0.950 . S
C5598 C5597 1.414 . S
C5598 C5599 1.374 . S
C5599 H5579 0.950 . S
C5599 C5595 1.385 . S
C5599 C5598 1.374 . S
C5600 C5597 1.499 . S
C5600 C5601 1.373 . S
C5600 C5602 1.389 . S
C5601 H5580 0.950 . S
C5601 C5600 1.373 . S
C5601 C5617 1.377 . S
C5602 C5600 1.389 . S
C5602 C5603 1.524 . S
C5602 C5616 1.377 . S
C5603 C5602 1.524 . S
C5603 C5604 1.397 . S
C5603 C5608 1.363 . S
C5604 H5581 0.950 . S
C5604 C5603 1.397 . S
C5604 C5605 1.334 . S
C5605 H5582 0.950 . S
C5605 C5604 1.334 . S
C5605 C5606 1.287 . S
C5606 C5605 1.287 . S
C5606 C5607 1.524 . S
C5606 H5625 0.913 . S
C5607 H5583 0.950 . S
C5607 C5606 1.524 . S
C5607 C5608 1.415 . S
C5608 H5584 0.950 . S
C5608 C5603 1.363 . S
C5608 C5607 1.415 . S
C5609 H5585 0.951 . S
C5609 C5610 1.366 . S
C5609 C5611 1.388 . S
C5610 C5609 1.366 . S
C5610 C5614 1.385 . S
C5611 H5586 0.951 . S
C5611 C5609 1.388 . S
C5611 C5612 1.366 . S
C5612 C5611 1.366 . S
C5612 C5613 1.414 . S
C5612 C5615 1.499 . S
C5613 H5587 0.950 . S
C5613 C5612 1.414 . S
C5613 C5614 1.374 . S
C5614 H5588 0.950 . S
C5614 C5610 1.385 . S
C5614 C5613 1.374 . S
C5615 C5612 1.499 . S
C5615 C5616 1.373 . S
C5615 C5617 1.389 . S
C5616 H5589 0.950 . S
C5616 C5602 1.377 . S
C5616 C5615 1.373 . S
C5617 C5601 1.377 . S
C5617 C5615 1.389 . S
C5617 C5618 1.524 . S
C5618 C5617 1.524 . S
C5618 C5619 1.397 . S
C5618 C5623 1.363 . S
C5619 H5590 0.950 . S
C5619 C5618 1.397 . S
C5619 C5620 1.334 . S
C5620 H5591 0.950 . S
C5620 C5619 1.334 . S
C5620 C5621 1.287 . S
C5621 C5620 1.287 . S
C5621 C5622 1.524 . S
C5621 H5624 0.999 . S
C5622 H5592 0.950 . S
C5622 C5621 1.524 . S
C5622 C5623 1.415 . S
C5623 H5593 0.950 . S
C5623 C5618 1.363 . S
C5623 C5622 1.415 . S
H5624 C5621 0.999 . S
H5625 C5606 0.913 . S
H5626 C5644 0.951 . S
H5627 C5646 0.951 . S
H5628 C5648 0.950 . S
H5629 C5649 0.978 . S
H5630 C5651 0.950 . S
H5631 C5654 0.950 . S
H5632 C5655 0.950 . S
H5633 C5657 0.950 . S
H5634 C5658 0.950 . S
H5635 C5659 0.951 . S
H5636 C5661 0.951 . S
H5637 C5663 0.950 . S
H5638 C5664 0.950 . S
H5639 C5666 0.950 . S
H5640 C5669 0.950 . S
H5641 C5670 0.950 . S
H5642 C5672 0.950 . S
H5643 C5673 0.950 . S
C5644 H5626 0.951 . S
C5644 C5645 1.366 . S
C5644 C5646 1.388 . S
C5645 C5644 1.366 . S
C5645 C5649 1.348 1_554 S
C5646 H5627 0.951 . S
C5646 C5644 1.388 . S
C5646 C5647 1.366 . S
C5647 C5646 1.366 . S
C5647 C5648 1.414 1_554 S
C5647 C5650 1.499 . S
C5648 H5628 0.950 . S
C5648 C5647 1.414 1_556 S
C5648 C5649 1.385 . S
C5649 H5629 0.978 . S
C5649 C5645 1.348 1_556 S
C5649 C5648 1.385 . S
C5650 C5647 1.499 . S
C5650 C5651 1.373 1_554 S
C5650 C5652 1.389 . S
C5651 H5630 0.950 . S
C5651 C5650 1.373 1_556 S
C5651 C5667 1.377 . S
C5652 C5650 1.389 . S
C5652 C5653 1.524 . S
C5652 C5666 1.377 . S
C5653 C5652 1.524 . S
C5653 C5654 1.397 . S
C5653 C5658 1.363 . S
C5654 H5631 0.950 . S
C5654 C5653 1.397 . S
C5654 C5655 1.334 . S
C5655 H5632 0.950 . S
C5655 C5654 1.334 . S
C5655 C5656 1.287 . S
C5656 C5655 1.287 . S
C5656 C5657 1.524 . S
C5656 H5675 0.913 . S
C5657 H5633 0.950 . S
C5657 C5656 1.524 . S
C5657 C5658 1.415 . S
C5658 H5634 0.950 . S
C5658 C5653 1.363 . S
C5658 C5657 1.415 . S
C5659 H5635 0.951 . S
C5659 C5660 1.366 . S
C5659 C5661 1.388 . S
C5660 C5659 1.366 . S
C5660 C5664 1.385 1_556 S
C5661 H5636 0.951 . S
C5661 C5659 1.388 . S
C5661 C5662 1.366 . S
C5662 C5661 1.366 . S
C5662 C5663 1.414 1_556 S
C5662 C5665 1.499 . S
C5663 H5637 0.950 . S
C5663 C5662 1.414 1_554 S
C5663 C5664 1.374 . S
C5664 H5638 0.950 . S
C5664 C5660 1.385 1_554 S
C5664 C5663 1.374 . S
C5665 C5662 1.499 . S
C5665 C5666 1.373 1_556 S
C5665 C5667 1.389 . S
C5666 H5639 0.950 . S
C5666 C5652 1.377 . S
C5666 C5665 1.373 1_554 S
C5667 C5651 1.377 . S
C5667 C5665 1.389 . S
C5667 C5668 1.524 . S
C5668 C5667 1.524 . S
C5668 C5669 1.397 . S
C5668 C5673 1.363 . S
C5669 H5640 0.950 . S
C5669 C5668 1.397 . S
C5669 C5670 1.334 . S
C5670 H5641 0.950 . S
C5670 C5669 1.334 . S
C5670 C5671 1.287 . S
C5671 C5670 1.287 . S
C5671 C5672 1.524 . S
C5671 H5674 0.999 . S
C5672 H5642 0.950 . S
C5672 C5671 1.524 . S
C5672 C5673 1.415 . S
C5673 H5643 0.950 . S
C5673 C5668 1.363 . S
C5673 C5672 1.415 . S
H5674 C5671 0.999 . S
H5675 C5656 0.913 . S
H5676 C5694 0.951 . S
H5677 C5696 0.951 . S
H5678 C5698 0.950 . S
H5679 C5699 0.950 . S
H5680 C5701 0.950 . S
H5681 C5704 0.950 . S
H5682 C5705 0.950 . S
H5683 C5707 0.950 . S
H5684 C5708 0.950 . S
H5685 C5709 0.951 . S
H5686 C5711 0.951 . S
H5687 C5713 0.950 . S
H5688 C5714 0.950 . S
H5689 C5716 0.950 . S
H5690 C5719 0.950 . S
H5691 C5720 0.950 . S
H5692 C5722 0.950 . S
H5693 C5723 0.950 . S
C5694 H5676 0.951 . S
C5694 C5695 1.366 . S
C5694 C5696 1.388 . S
C5695 C5694 1.366 . S
C5695 C5699 1.385 . S
C5696 H5677 0.951 . S
C5696 C5694 1.388 . S
C5696 C5697 1.366 . S
C5697 C5696 1.366 . S
C5697 C5698 1.414 . S
C5697 C5700 1.499 . S
C5698 H5678 0.950 . S
C5698 C5697 1.414 . S
C5698 C5699 1.374 . S
C5699 H5679 0.950 . S
C5699 C5695 1.385 . S
C5699 C5698 1.374 . S
C5700 C5697 1.499 . S
C5700 C5701 1.373 . S
C5700 C5702 1.389 . S
C5701 H5680 0.950 . S
C5701 C5700 1.373 . S
C5701 C5717 1.377 . S
C5702 C5700 1.389 . S
C5702 C5703 1.524 . S
C5702 C5716 1.377 . S
C5703 C5702 1.524 . S
C5703 C5704 1.397 . S
C5703 C5708 1.363 . S
C5704 H5681 0.950 . S
C5704 C5703 1.397 . S
C5704 C5705 1.334 . S
C5705 H5682 0.950 . S
C5705 C5704 1.334 . S
C5705 C5706 1.287 . S
C5706 C5705 1.287 . S
C5706 C5707 1.524 . S
C5706 H5725 0.913 . S
C5707 H5683 0.950 . S
C5707 C5706 1.524 . S
C5707 C5708 1.415 . S
C5708 H5684 0.950 . S
C5708 C5703 1.363 . S
C5708 C5707 1.415 . S
C5709 H5685 0.951 . S
C5709 C5710 1.366 . S
C5709 C5711 1.388 . S
C5710 C5709 1.366 . S
C5710 C5714 1.385 . S
C5711 H5686 0.951 . S
C5711 C5709 1.388 . S
C5711 C5712 1.366 . S
C5712 C5711 1.366 . S
C5712 C5713 1.414 . S
C5712 C5715 1.499 . S
C5713 H5687 0.950 . S
C5713 C5712 1.414 . S
C5713 C5714 1.374 . S
C5714 H5688 0.950 . S
C5714 C5710 1.385 . S
C5714 C5713 1.374 . S
C5715 C5712 1.499 . S
C5715 C5716 1.373 . S
C5715 C5717 1.389 . S
C5716 H5689 0.950 . S
C5716 C5702 1.377 . S
C5716 C5715 1.373 . S
C5717 C5701 1.377 . S
C5717 C5715 1.389 . S
C5717 C5718 1.524 . S
C5718 C5717 1.524 . S
C5718 C5719 1.397 . S
C5718 C5723 1.363 . S
C5719 H5690 0.950 . S
C5719 C5718 1.397 . S
C5719 C5720 1.334 . S
C5720 H5691 0.950 . S
C5720 C5719 1.334 . S
C5720 C5721 1.287 . S
C5721 C5720 1.287 . S
C5721 C5722 1.524 . S
C5721 H5724 0.999 . S
C5722 H5692 0.950 . S
C5722 C5721 1.524 . S
C5722 C5723 1.415 . S
C5723 H5693 0.950 . S
C5723 C5718 1.363 . S
C5723 C5722 1.415 . S
H5724 C5721 0.999 . S
H5725 C5706 0.913 . S
H5726 C5744 0.951 . S
H5727 C5746 0.951 . S
H5728 C5748 0.950 . S
H5729 C5749 0.950 . S
H5730 C5751 0.950 . S
H5731 C5754 0.950 . S
H5732 C5755 0.950 . S
H5733 C5757 0.950 . S
H5734 C5758 0.950 . S
H5735 C5759 0.951 . S
H5736 C5761 0.951 . S
H5737 C5763 0.950 . S
H5738 C5764 0.950 . S
H5739 C5766 0.950 . S
H5740 C5769 0.950 . S
H5741 C5770 0.950 . S
H5742 C5772 0.950 . S
H5743 C5773 0.950 . S
C5744 H5726 0.951 . S
C5744 C5745 1.366 . S
C5744 C5746 1.388 . S
C5745 C5744 1.366 . S
C5745 C5749 1.385 . S
C5746 H5727 0.951 . S
C5746 C5744 1.388 . S
C5746 C5747 1.366 . S
C5747 C5746 1.366 . S
C5747 C5748 1.414 . S
C5747 C5750 1.499 . S
C5748 H5728 0.950 . S
C5748 C5747 1.414 . S
C5748 C5749 1.374 . S
C5749 H5729 0.950 . S
C5749 C5745 1.385 . S
C5749 C5748 1.374 . S
C5750 C5747 1.499 . S
C5750 C5751 1.373 . S
C5750 C5752 1.389 . S
C5751 H5730 0.950 . S
C5751 C5750 1.373 . S
C5751 C5767 1.377 . S
C5752 C5750 1.389 . S
C5752 C5753 1.524 . S
C5752 C5766 1.377 . S
C5753 C5752 1.524 . S
C5753 C5754 1.397 . S
C5753 C5758 1.363 . S
C5754 H5731 0.950 . S
C5754 C5753 1.397 . S
C5754 C5755 1.334 . S
C5755 H5732 0.950 . S
C5755 C5754 1.334 . S
C5755 C5756 1.287 . S
C5756 C5755 1.287 . S
C5756 C5757 1.524 . S
C5756 H5775 0.913 . S
C5757 H5733 0.950 . S
C5757 C5756 1.524 . S
C5757 C5758 1.415 . S
C5758 H5734 0.950 . S
C5758 C5753 1.363 . S
C5758 C5757 1.415 . S
C5759 H5735 0.951 . S
C5759 C5760 1.366 . S
C5759 C5761 1.388 . S
C5760 C5759 1.366 . S
C5760 C5764 1.385 . S
C5761 H5736 0.951 . S
C5761 C5759 1.388 . S
C5761 C5762 1.366 . S
C5762 C5761 1.366 . S
C5762 C5763 1.414 . S
C5762 C5765 1.499 . S
C5763 H5737 0.950 . S
C5763 C5762 1.414 . S
C5763 C5764 1.374 . S
C5764 H5738 0.950 . S
C5764 C5760 1.385 . S
C5764 C5763 1.374 . S
C5765 C5762 1.499 . S
C5765 C5766 1.373 . S
C5765 C5767 1.389 . S
C5766 H5739 0.950 . S
C5766 C5752 1.377 . S
C5766 C5765 1.373 . S
C5767 C5751 1.377 . S
C5767 C5765 1.389 . S
C5767 C5768 1.524 . S
C5768 C5767 1.524 . S
C5768 C5769 1.397 . S
C5768 C5773 1.363 . S
C5769 H5740 0.950 . S
C5769 C5768 1.397 . S
C5769 C5770 1.334 . S
C5770 H5741 0.950 . S
C5770 C5769 1.334 . S
C5770 C5771 1.287 . S
C5771 C5770 1.287 . S
C5771 C5772 1.524 . S
C5771 H5774 0.999 . S
C5772 H5742 0.950 . S
C5772 C5771 1.524 . S
C5772 C5773 1.415 . S
C5773 H5743 0.950 . S
C5773 C5768 1.363 . S
C5773 C5772 1.415 . S
H5774 C5771 0.999 . S
H5775 C5756 0.913 . S
C995 C109 2.118 . S
C1010 C338 2.096 1_556 S
C1045 C65 2.092 . S
C1060 C395 2.086 . S
C1095 C75 1.064 . S
C1110 C418 1.051 . S
C1160 C472 1.452 . S
C1145 C84 1.456 . S
C1195 C25 1.225 . S
C1210 C512 1.205 . S
C1260 C543 0.323 . S
C1245 C28 0.301 . S
C1310 C595 1.151 . S
C1295 C47 1.135 . S
C1345 C9 1.714 . S
C1360 C618 1.676 . S
C1410 C355 2.482 . S
C1395 C233 2.499 . S
C1445 C249 0.293 . S
C1460 C392 0.385 . S
C1510 C435 1.378 . S
C1495 C275 1.390 . S
C1560 C458 1.206 . S
C1545 C173 1.217 . S
C1595 C224 1.807 . S
C1610 C498 1.822 . S
C1660 C546 1.444 . S
C1645 C243 1.471 . S
C1710 C592 0.304 . S
C1695 C266 0.195 . S
C1760 C635 1.878 . S
C1745 C179 1.896 . S
C1810 C352 1.447 1_565 S
C1795 C163 1.494 . S
C1845 C289 2.011 . S
C1860 C675 2.002 . S
C1910 C707 2.542 . S
C1895 C333 2.566 . S
C1960 C738 0.453 1_655 S
C1945 C308 0.451 . S
C1995 C123 1.282 . S
C2010 C632 1.263 . S
C2045 C126 1.542 . S
C2060 C432 1.539 . S
C2095 C327 2.362 . S
C2110 C795 2.342 . S
C2160 C818 0.548 . S
C2145 C299 0.521 . S
C2210 C347 2.110 . S
C2195 C67 2.139 . S
C2260 C826 2.125 . S
C2245 C98 2.092 . S
C2295 C89 1.104 . S
C2310 C427 1.091 . S
C2345 C79 1.517 . S
C2360 C783 1.500 . S
C2410 C503 1.209 . S
C2395 C11 1.234 . S
C2445 C51 0.316 . S
C2460 C712 0.344 . S
C2510 C586 1.233 . S
C2495 C33 1.212 . S
C2560 C867 1.668 . S
C2545 C14 1.719 . S
C2610 C346 2.469 . S
C2595 C140 2.477 . S
C2660 C823 0.374 . S
C2645 C319 0.267 . S
C2695 C112 1.402 . S
C2710 C426 1.401 . S
C2745 C285 1.248 . S
C2760 C787 1.239 . S
C2795 C149 1.866 . S
C2810 C507 1.848 . S
C2860 C715 1.483 . S
C2845 C313 1.513 . S
C2895 C121 0.174 . S
C2910 C583 0.306 . S
C2945 C291 1.937 . S
C2960 C866 1.915 . S
C2995 C182 1.502 . S
C3010 C343 1.465 . S
C3045 C168 2.011 . S
C3060 C666 2.028 . S
C3095 C263 2.620 . S
C3110 C538 2.597 . S
C3145 C247 0.523 . S
C3160 C747 0.530 . S
C3210 C863 1.247 . S
C3195 C277 1.312 . S
C3245 C219 1.591 . S
C3260 C423 1.560 . S
C3310 C466 2.391 . S
C3295 C257 2.413 . S
C3360 C387 0.557 . S
C3345 C201 0.533 . S
C3395 C81 2.117 . S
C3410 C898 2.096 . S
C3460 C835 2.086 . S
C3445 C93 2.092 . S
C3495 C103 1.064 . S
C3510 C938 1.051 . S
C3545 C56 1.456 . S
C3560 C792 1.452 . S
C3595 C53 1.226 . S
C3610 C672 1.205 . S
C3660 C703 0.323 . S
C3645 C0 0.301 . S
C3710 C755 1.151 . S
C3695 C19 1.135 . S
C3760 C858 1.677 . S
C3745 C37 1.714 . S
C3810 C915 2.482 . S
C3795 C261 2.499 . S
C3845 C193 0.295 . S
C3860 C832 0.384 . S
C3910 C955 1.378 . S
C3895 C205 1.390 . S
C3960 C778 1.207 . S
C3945 C215 1.217 . S
C4010 C658 1.822 . S
C3995 C252 1.808 . S
C4045 C187 1.471 . S
C4060 C706 1.442 . S
C4110 C752 0.300 . S
C4095 C196 0.191 . S
C4145 C221 1.896 . S
C4160 C875 1.877 . S
C4210 C912 1.473 . S
C4195 C317 1.495 . S
C4245 C135 2.011 . S
C4260 C515 2.001 . S
C4310 C547 2.543 . S
C4295 C151 2.573 . S
C4360 C578 0.452 . S
C4345 C154 0.452 . S
C4410 C872 1.263 . S
C4395 C305 1.282 . S
C4445 C280 1.541 . S
C4460 C952 1.538 . S
C4510 C475 2.341 . S
C4495 C145 2.355 . S
C4560 C378 0.549 . S
C4545 C117 0.522 . S
C4595 C95 2.139 . S
C4610 C907 2.110 . S
C4660 C386 2.125 . S
C4645 C70 2.091 . S
C4695 C61 1.103 . S
C4710 C947 1.091 . S
C4745 C107 1.518 . S
C4760 C463 1.500 . S
C4795 C39 1.235 . S
C4810 C663 1.209 . S
C4860 C552 0.344 . S
C4845 C23 0.313 . S
C4895 C5 1.212 . S
C4910 C746 1.227 . S
C4945 C42 1.714 . S
C4960 C627 1.667 . S
C5010 C906 2.469 . S
C4995 C322 2.477 . S
C5045 C165 0.267 . S
C5060 C383 0.377 . S
C5110 C946 1.401 . S
C5095 C294 1.403 . S
C5145 C131 1.248 . S
C5160 C467 1.239 . S
C5195 C331 1.867 . S
C5210 C667 1.851 . S
C5260 C555 1.483 . S
C5245 C159 1.513 . S
C5295 C303 0.176 . S
C5310 C743 0.302 . S
C5360 C626 1.915 . S
C5345 C137 1.937 . S
C5410 C903 1.464 . S
C5395 C238 1.502 . S
C5460 C506 2.036 1_655 S
C5445 C210 2.012 . S
C5495 C235 2.620 . S
C5510 C698 2.597 . S
C5560 C587 0.529 . S
C5545 C191 0.523 . S
C5595 C207 1.274 . S
C5610 C623 1.246 . S
C5645 C177 1.590 . S
C5660 C943 1.559 . S
C5710 C786 2.391 . S
C5695 C229 2.413 1_565 S
C5760 C827 0.555 . S
C5745 C271 0.533 . S
