# Generated by pormake.
# Topology pth, (4,4)-cn, num edge types: 1
# Building blocks:
#     Node 0, Type 0, BuildingBlock: KUFVIS_clean_sbu_0, # of connection points: 4
#     Node 1, Type 0, BuildingBlock: KUFVIS_clean_sbu_0, # of connection points: 4
#     Node 2, Type 0, BuildingBlock: KUFVIS_clean_sbu_0, # of connection points: 4
#     Node 3, Type 1, BuildingBlock: NAWXER_clean_sbu_0, # of connection points: 4
#     Node 4, Type 1, BuildingBlock: NAWXER_clean_sbu_0, # of connection points: 4
#     Node 5, Type 1, BuildingBlock: NAWXER_clean_sbu_0, # of connection points: 4
#     Edge 6, Type (0, 1), BuildingBlock: OJICUG_clean_linker_0, # of connection points: 2
#     Edge 7, Type (0, 1), BuildingBlock: OJICUG_clean_linker_0, # of connection points: 2
#     Edge 8, Type (0, 1), BuildingBlock: OJICUG_clean_linker_0, # of connection points: 2
#     Edge 9, Type (0, 1), BuildingBlock: OJICUG_clean_linker_0, # of connection points: 2
#     Edge 10, Type (0, 1), BuildingBlock: OJICUG_clean_linker_0, # of connection points: 2
#     Edge 11, Type (0, 1), BuildingBlock: OJICUG_clean_linker_0, # of connection points: 2
#     Edge 12, Type (0, 1), BuildingBlock: OJICUG_clean_linker_0, # of connection points: 2
#     Edge 13, Type (0, 1), BuildingBlock: OJICUG_clean_linker_0, # of connection points: 2
#     Edge 14, Type (0, 1), BuildingBlock: OJICUG_clean_linker_0, # of connection points: 2
#     Edge 15, Type (0, 1), BuildingBlock: OJICUG_clean_linker_0, # of connection points: 2
#     Edge 16, Type (0, 1), BuildingBlock: OJICUG_clean_linker_0, # of connection points: 2
#     Edge 17, Type (0, 1), BuildingBlock: OJICUG_clean_linker_0, # of connection points: 2
# Relax obj value: 0.009
# Max RMSD: 0.080
# Mean RMSD: 0.046
data_MOF--net-pth--node1-KUFVIS_clean_sbu_0--node2-NAWXER_clean_sbu_0--edge1-OJICUG_clean_linker_0
_symmetry_space_group_name_H-M    P1
_symmetry_Int_Tables_number       1
_symmetry_cell_setting            triclinic
loop_
_symmetry_equiv_pos_as_xyz
'x, y, z'
_cell_length_a     15.974679
_cell_length_b     15.779659
_cell_length_c     42.643022
_cell_angle_alpha  90.4796
_cell_angle_beta   92.245308
_cell_angle_gamma 119.01789
loop_
_atom_site_label
_atom_site_type_symbol
_atom_site_fract_x
_atom_site_fract_y
_atom_site_fract_z
_atom_type_partial_charge
Mn0 Mn 0.08018 0.11017 0.04552 0.0
Mn1 Mn 1.01117 0.26266 0.01337 0.0
C2 C 0.96954 0.05811 0.00347 0.0
C3 C 0.0636 0.99364 0.08178 0.0
C4 C 0.20083 0.27202 0.0009 0.0
O5 O 0.12417 0.21719 0.07945 0.0
O6 O 0.07647 0.31422 0.05531 0.0
C7 C 0.86396 0.23347 0.05846 0.0
N8 N 0.88835 0.23048 0.02838 0.0
C9 C 0.72591 0.17282 0.00876 0.0
C10 C 0.69916 0.1759 0.0395 0.0
C11 C 0.76851 0.20627 0.06445 0.0
C12 C 0.82222 0.20127 0.00421 0.0
H13 H 0.91688 0.2562 0.07774 0.0
C14 C 0.11748 0.29454 0.07833 0.0
O15 O 0.14411 0.04701 0.06873 0.0
O16 O 0.99331 1.01024 0.0746 0.0
N17 N 0.94651 0.22237 0.97281 0.0
C18 C 0.98363 0.22199 0.94462 0.0
C19 C 0.92291 0.19165 0.91734 0.0
C20 C 0.82539 0.16345 0.91922 0.0
C21 C 0.78934 0.16653 0.94837 0.0
C22 C 0.85316 0.1978 0.97476 0.0
H23 H 0.0586 0.24339 0.94305 0.0
O24 O 1.01933 1.01491 0.00979 0.0
O25 O 0.98547 0.13065 0.02213 0.0
O26 O 0.18964 0.20185 0.01813 0.0
O27 O 0.13771 0.2992 0.99676 0.0
C28 C 0.69225 0.1384 0.95234 0.0
C29 C 0.66053 0.14145 0.98252 0.0
H30 H 0.62552 0.15454 0.04424 0.0
H31 H 0.74837 0.20843 0.08827 0.0
H32 H 0.95059 0.18909 0.8949 0.0
H33 H 0.77883 0.13928 0.89814 0.0
H34 H 0.64122 0.11353 0.93237 0.0
H35 H 0.58557 0.11892 0.98532 0.0
Mn36 Mn 0.07604 0.11282 0.38346 0.0
Mn37 Mn 0.14262 0.32216 0.424 0.0
C38 C 0.18334 0.1563 0.4263 0.0
C39 C 0.09545 0.02507 0.34283 0.0
C40 C 0.9487 0.142 0.42883 0.0
O41 O 0.03533 0.18823 0.35339 0.0
O42 O 0.09509 0.32988 0.38097 0.0
C43 C 0.30895 0.45483 0.38815 0.0
N44 N 0.27179 0.41456 0.41586 0.0
C45 C 0.42546 0.50544 0.44338 0.0
C46 C 0.4653 0.54838 0.41517 0.0
C47 C 0.40679 0.52283 0.38743 0.0
C48 C 0.32738 0.43863 0.44269 0.0
H49 H 0.26425 0.43502 0.36677 0.0
C50 C 0.05233 0.27597 0.35648 0.0
O51 O 1.01377 0.99525 0.35559 0.0
O52 O 0.16543 0.10835 0.35278 0.0
N53 N 0.19029 0.32406 0.46603 0.0
C54 C 0.14157 0.2729 0.49096 0.0
C55 C 0.1903 0.28803 0.52035 0.0
C56 C 0.28831 0.35596 0.52386 0.0
C57 C 0.33659 0.40869 0.49796 0.0
C58 C 0.28408 0.39114 0.46931 0.0
H59 H 0.06631 0.2204 0.48837 0.0
O60 O 0.13463 0.06647 0.41651 0.0
O61 O 0.16821 0.21824 0.41063 0.0
O62 O 0.96431 0.08586 0.41135 0.0
O63 O 1.00929 0.23136 0.43429 0.0
C64 C 0.43512 0.47669 0.4993 0.0
C65 C 0.47953 0.52498 0.47203 0.0
H66 H 0.54085 0.60042 0.41447 0.0
H67 H 0.43711 0.55531 0.36554 0.0
H68 H 0.15253 0.24707 0.54023 0.0
H69 H 0.32586 0.36667 0.54649 0.0
H70 H 0.47765 0.49155 0.5211 0.0
H71 H 0.55556 0.57626 0.47328 0.0
Mn72 Mn 0.1052 0.12378 0.71845 0.0
Mn73 Mn 1.01002 0.23749 0.75968 0.0
C74 C 0.19462 0.23277 0.75928 0.0
C75 C 0.18567 0.10562 0.67658 0.0
C76 C 0.95123 1.02391 0.7648 0.0
O77 O 0.99289 0.11209 0.68961 0.0
O78 O 0.95456 0.21218 0.71621 0.0
C79 C 0.08327 0.42479 0.72789 0.0
N80 N 0.07279 0.37454 0.75458 0.0
C81 C 0.14974 0.52195 0.78629 0.0
C82 C 0.1596 0.57517 0.7592 0.0
C83 C 0.12682 0.52638 0.72985 0.0
C84 C 0.10507 0.42079 0.78291 0.0
H85 H 0.05918 0.38762 0.70529 0.0
C86 C 0.94945 0.16231 0.69165 0.0
O87 O 0.12502 0.0321 0.69169 0.0
O88 O 0.19755 0.19043 0.68506 0.0
N89 N 0.06088 0.268 0.80219 0.0
C90 C 0.05835 0.20733 0.82513 0.0
C91 C 0.09725 0.24563 0.85534 0.0
C92 C 0.13587 0.34535 0.86192 0.0
C93 C 0.13762 0.40637 0.83794 0.0
C94 C 0.09909 0.36432 0.80814 0.0
H95 H 1.02814 0.13055 0.82037 0.0
O96 O 0.21588 0.16692 0.75021 0.0
O97 O 0.12233 0.23263 0.74445 0.0
O98 O 1.01651 0.02523 0.74863 0.0
O99 O 0.93774 0.09681 0.76801 0.0
C100 C 0.17949 0.50773 0.84214 0.0
C101 C 0.18552 0.56549 0.81633 0.0
H102 H 0.19393 0.65359 0.76057 0.0
H103 H 0.1354 0.56703 0.70878 0.0
H104 H 0.09722 0.19831 0.87358 0.0
H105 H 0.16579 0.37451 0.88527 0.0
H106 H 0.2097 0.54226 0.86492 0.0
H107 H 0.22022 0.64355 0.81968 0.0
C108 C 0.13833 0.76824 0.25515 0.0
C109 C 0.17672 0.55317 0.17991 0.0
O110 O 0.21862 0.77641 0.24795 0.0
Zn111 Zn 0.16634 0.66504 0.21815 0.0
O112 O 0.06063 0.6999 0.24238 0.0
Zn113 Zn 1.01088 0.58274 0.20919 0.0
O114 O 0.93683 0.47081 0.23507 0.0
O115 O 0.09219 0.5481 0.24822 0.0
O116 O 0.0901 0.53341 0.18343 0.0
O117 O 0.24536 0.62456 0.19503 0.0
O118 O 0.11108 0.71683 0.1819 0.0
O119 O 0.95372 0.62809 0.17621 0.0
C120 C 1.00739 0.47988 0.25256 0.0
C121 C 1.03174 0.69969 0.16804 0.0
C122 C 0.71872 0.18792 0.5882 0.0
C123 C 0.48991 0.20629 0.51121 0.0
O124 O 0.65019 0.10638 0.57797 0.0
Zn125 Zn 0.52893 0.0487 0.54682 0.0
O126 O 0.72405 0.26645 0.57837 0.0
Zn127 Zn 0.61212 0.20975 0.54878 0.0
O128 O 0.50004 0.14906 0.57922 0.0
O129 O 0.42246 0.98924 0.57607 0.0
O130 O 0.56531 0.28116 0.52216 0.0
O131 O 0.47371 0.12151 0.51866 0.0
O132 O 0.56687 0.98237 0.51499 0.0
O133 O 0.65192 0.14214 0.51485 0.0
C134 C 0.43218 0.06853 0.5878 0.0
C135 C 0.63297 0.0592 0.50358 0.0
C136 C 0.52545 0.51483 0.93109 0.0
C137 C 0.71632 0.71213 0.8439 0.0
O138 O 0.50327 0.57529 0.9189 0.0
Zn139 Zn 0.53878 0.67752 0.8843 0.0
O140 O 0.59571 0.5071 0.92092 0.0
Zn141 Zn 0.63152 0.60689 0.88812 0.0
O142 O 0.68068 0.73738 0.91422 0.0
O143 O 0.58255 0.79904 0.90933 0.0
O144 O 0.73581 0.65159 0.85764 0.0
O145 O 0.64671 0.72279 0.85282 0.0
O146 O 0.42647 0.61355 0.85478 0.0
O147 O 0.51016 0.53561 0.85778 0.0
C148 C 0.66025 0.80436 0.92058 0.0
C149 C 0.43832 0.54214 0.84666 0.0
C150 C 0.14814 0.33347 0.13623 0.0
C151 C 0.15517 0.36492 0.10524 0.0
H152 H 0.15081 0.37092 0.18495 0.0
C153 C 0.18868 0.46396 0.1001 0.0
H154 H 0.12206 0.25755 0.14084 0.0
C155 C 0.20778 0.52895 0.12531 0.0
C156 C 0.1928 0.49586 0.15603 0.0
H157 H 0.19537 0.49031 0.07645 0.0
H158 H 0.22626 0.60323 0.12057 0.0
C159 C 0.1654 0.39833 0.16144 0.0
C160 C 0.81469 1.02039 0.46046 0.0
C161 C 0.85455 0.10481 0.44273 0.0
H162 H 0.71014 0.93774 0.49411 0.0
C163 C 0.80844 0.1608 0.44078 0.0
H164 H 0.84936 0.97612 0.46224 0.0
C165 C 0.72857 0.13776 0.45809 0.0
C166 C 0.69384 0.05926 0.47834 0.0
H167 H 0.83695 0.22533 0.42691 0.0
H168 H 0.6981 0.18598 0.45739 0.0
C169 C 0.73474 0.99792 0.47842 0.0
C170 C 0.92707 0.87944 0.79598 0.0
C171 C 0.88963 0.93485 0.7815 0.0
H172 H 0.90171 0.76427 0.82757 0.0
C173 C 0.79316 0.90763 0.7845 0.0
H174 H 1.00167 0.89922 0.7939 0.0
C175 C 0.73609 0.8297 0.80274 0.0
C176 C 0.77447 0.77835 0.81936 0.0
H177 H 0.76212 0.94791 0.77319 0.0
H178 H 0.66227 0.81275 0.80496 0.0
C179 C 0.86998 0.802 0.81506 0.0
C180 C 0.13142 0.90252 0.11076 0.0
C181 C 0.05233 0.91548 0.10307 0.0
H182 H 0.18603 0.82347 0.13664 0.0
C183 C 0.96329 0.85224 0.1154 0.0
H184 H 0.20077 0.94919 0.10149 0.0
C185 C 0.95442 0.77877 0.13562 0.0
C186 C 0.03465 0.76799 0.14392 0.0
H187 H 0.90075 0.85998 0.10965 0.0
H188 H 0.88583 0.73255 0.14542 0.0
C189 C 0.12274 0.82998 0.13091 0.0
C190 C 0.24313 0.13366 0.4781 0.0
C191 C 0.26172 0.18433 0.45024 0.0
H192 H 0.30187 0.10523 0.51992 0.0
C193 C 0.35696 0.25102 0.44376 0.0
H194 H 0.17048 0.08097 0.48331 0.0
C195 C 0.43285 0.26567 0.46488 0.0
C196 C 0.41385 0.21181 0.49221 0.0
H197 H 0.37284 0.28856 0.42181 0.0
H198 H 0.50598 0.31392 0.45891 0.0
C199 C 0.31827 0.14787 0.49899 0.0
C200 C 0.28856 0.29191 0.81026 0.0
C201 C 0.25827 0.31197 0.78142 0.0
H202 H 0.36695 0.35038 0.85411 0.0
C203 C 0.28923 0.40882 0.77368 0.0
H204 H 0.26698 0.21787 0.81639 0.0
C205 C 0.34438 0.48447 0.79543 0.0
C206 C 0.37135 0.46402 0.82481 0.0
H207 H 0.26964 0.42585 0.75094 0.0
H208 H 0.36747 0.55865 0.78909 0.0
C209 C 0.34462 0.36743 0.83182 0.0
C210 C 0.87687 0.2495 0.6622 0.0
C211 C 0.89458 0.17017 0.66394 0.0
H212 H 0.81035 0.31908 0.63647 0.0
C213 C 0.85986 0.10088 0.63914 0.0
H214 H 0.90263 0.30474 0.68076 0.0
C215 C 0.80524 0.1087 0.61395 0.0
C216 C 0.78649 0.18723 0.61265 0.0
H217 H 0.8725 0.03938 0.63963 0.0
H218 H 0.77644 0.05244 0.59563 0.0
C219 C 0.82457 0.25857 0.63668 0.0
C220 C 0.7941 0.98029 0.98824 0.0
C221 C 0.88916 1.01322 0.97987 0.0
H222 H 0.64433 0.88942 0.97513 0.0
C223 C 0.90603 0.98753 0.95025 0.0
H224 H 0.77963 0.99702 0.01142 0.0
C225 C 0.82961 0.92727 0.92971 0.0
C226 C 0.73454 0.88965 0.93856 0.0
H227 H 0.97857 1.01083 0.94352 0.0
H228 H 0.84496 0.90468 0.90757 0.0
C229 C 0.7169 0.91925 0.96753 0.0
C230 C 0.20013 0.98539 0.30974 0.0
C231 C 0.10862 0.96321 0.31945 0.0
H232 H 0.28227 0.94062 0.28194 0.0
C233 C 1.02876 0.87752 0.30792 0.0
H234 H 0.26318 0.05078 0.31844 0.0
C235 C 0.03964 0.81506 0.28733 0.0
C236 C 0.13081 0.83612 0.27766 0.0
H237 H 0.95735 0.85801 0.31495 0.0
H238 H 0.97584 0.74957 0.27912 0.0
C239 C 0.21121 0.92211 0.28906 0.0
C240 C 0.23405 1.00147 0.6453 0.0
C241 C 0.24321 0.09328 0.65236 0.0
H242 H 0.28648 0.92057 0.61934 0.0
C243 C 0.31179 0.17426 0.63734 0.0
H244 H 0.18156 0.93741 0.65656 0.0
C245 C 0.37153 0.16457 0.61638 0.0
C246 C 0.36462 0.0735 0.60974 0.0
H247 H 0.32061 0.24575 0.64212 0.0
H248 H 0.42389 0.22956 0.60549 0.0
C249 C 0.29414 0.99159 0.62408 0.0
C250 C 0.34239 0.29125 0.97082 0.0
C251 C 0.29468 0.33188 0.98715 0.0
H252 H 0.45599 0.3184 0.93988 0.0
C253 C 0.33539 0.43291 0.98941 0.0
H254 H 0.31253 0.21329 0.96898 0.0
C255 C 0.41798 0.49223 0.97391 0.0
C256 C 0.46126 0.45227 0.9551 0.0
H257 H 0.3014 0.46623 0.00243 0.0
H258 H 0.44436 0.56981 0.97489 0.0
C259 C 0.42505 0.35126 0.95458 0.0
C260 C 0.98935 0.27313 0.3008 0.0
C261 C 1.02481 0.32077 0.33034 0.0
H262 H 0.95355 0.2864 0.2525 0.0
C263 C 0.03919 0.41562 0.33446 0.0
H264 H 0.97712 0.20004 0.29681 0.0
C265 C 1.02521 0.46394 0.30935 0.0
C266 C 0.99514 0.41852 0.27958 0.0
H267 H 0.06532 0.45463 0.35684 0.0
H268 H 0.04269 0.539 0.31282 0.0
C269 C 0.97474 0.32189 0.27553 0.0
loop_
_geom_bond_atom_site_label_1
_geom_bond_atom_site_label_2
_geom_bond_distance
_geom_bond_site_symmetry_2
_ccdc_geom_bond_type
Mn0 O5 2.095 . S
Mn0 O15 2.162 . S
Mn0 O16 2.297 1_545 S
Mn0 O24 2.385 1_545 S
Mn0 O25 2.209 1_455 S
Mn0 O26 2.094 . S
Mn1 O6 2.121 . S
Mn1 N8 2.257 . S
Mn1 N17 2.282 1_554 S
Mn1 O25 2.215 . S
Mn1 O27 2.117 1_655 S
C2 O24 1.234 1_645 S
C2 O25 1.283 . S
C3 O15 1.281 1_565 S
C3 O16 1.236 . S
C4 O26 1.240 . S
C4 O27 1.264 . S
O5 Mn0 2.095 . S
O5 C14 1.250 . S
O6 Mn1 2.121 . S
O6 C14 1.258 1_655 S
C7 N8 1.326 . S
C7 C11 1.460 . S
C7 H13 0.929 . S
N8 Mn1 2.257 . S
N8 C7 1.326 . S
N8 C12 1.362 1_554 S
C9 C10 1.258 . S
C9 C12 1.431 . S
C9 C29 1.449 . S
C10 C9 1.258 . S
C10 C11 1.477 1_556 S
C10 H30 0.931 . S
C11 C7 1.460 . S
C11 C10 1.477 1_554 S
C11 H31 0.930 . S
C12 N8 1.362 1_556 S
C12 C9 1.431 . S
C12 C22 1.476 . S
H13 C7 0.929 . S
C14 O5 1.250 . S
C14 O6 1.258 1_455 S
O15 Mn0 2.162 . S
O15 C3 1.281 1_545 S
O16 Mn0 2.297 1_565 S
O16 C3 1.236 . S
N17 Mn1 2.282 1_556 S
N17 C18 1.328 . S
N17 C22 1.318 . S
C18 N17 1.328 . S
C18 C19 1.457 . S
C18 H23 0.929 1_655 S
C19 C18 1.457 . S
C19 C20 1.291 . S
C19 H32 0.931 . S
C20 C19 1.291 . S
C20 C21 1.373 . S
C20 H33 0.929 . S
C21 C20 1.373 . S
C21 C22 1.396 . S
C21 C28 1.403 . S
C22 C12 1.476 . S
C22 N17 1.318 . S
C22 C21 1.396 . S
H23 C18 0.929 1_455 S
O24 Mn0 2.385 1_565 S
O24 C2 1.234 1_465 S
O25 Mn0 2.209 1_655 S
O25 Mn1 2.215 . S
O25 C2 1.283 . S
O26 Mn0 2.094 . S
O26 C4 1.240 . S
O27 Mn1 2.117 1_455 S
O27 C4 1.264 . S
C28 C21 1.403 . S
C28 C29 1.399 . S
C28 H34 0.929 . S
C29 C9 1.449 . S
C29 C28 1.399 . S
C29 H35 0.930 . S
H30 C10 0.931 . S
H31 C11 0.930 . S
H32 C19 0.931 . S
H33 C20 0.929 . S
H34 C28 0.929 . S
H35 C29 0.930 . S
Mn36 O41 2.095 1_455 S
Mn36 O51 2.162 1_445 S
Mn36 O52 2.297 . S
Mn36 O60 2.385 . S
Mn36 O61 2.209 . S
Mn36 O62 2.094 1_455 S
Mn37 O42 2.121 . S
Mn37 N44 2.257 . S
Mn37 N53 2.282 . S
Mn37 O61 2.215 . S
Mn37 O63 2.117 1_455 S
C38 O60 1.234 . S
C38 O61 1.283 . S
C39 O51 1.281 1_455 S
C39 O52 1.236 1_565 S
C40 O62 1.240 . S
C40 O63 1.264 . S
O41 Mn36 2.095 1_655 S
O41 C50 1.250 1_655 S
O42 Mn37 2.121 . S
O42 C50 1.258 . S
C43 N44 1.326 . S
C43 C47 1.460 . S
C43 H49 0.929 . S
N44 Mn37 2.257 . S
N44 C43 1.326 . S
N44 C48 1.362 . S
C45 C46 1.258 . S
C45 C48 1.431 . S
C45 C65 1.449 . S
C46 C45 1.258 . S
C46 C47 1.477 . S
C46 H66 0.931 . S
C47 C43 1.460 . S
C47 C46 1.477 . S
C47 H67 0.930 . S
C48 N44 1.362 . S
C48 C45 1.431 . S
C48 C58 1.476 . S
H49 C43 0.929 . S
C50 O41 1.250 1_455 S
C50 O42 1.258 . S
O51 Mn36 2.162 1_665 S
O51 C39 1.281 1_655 S
O52 Mn36 2.297 . S
O52 C39 1.236 1_545 S
N53 Mn37 2.282 . S
N53 C54 1.328 . S
N53 C58 1.318 . S
C54 N53 1.328 . S
C54 C55 1.457 . S
C54 H59 0.929 . S
C55 C54 1.457 . S
C55 C56 1.291 . S
C55 H68 0.931 . S
C56 C55 1.291 . S
C56 C57 1.373 . S
C56 H69 0.929 . S
C57 C56 1.373 . S
C57 C58 1.396 . S
C57 C64 1.403 . S
C58 C48 1.476 . S
C58 N53 1.318 . S
C58 C57 1.396 . S
H59 C54 0.929 . S
O60 Mn36 2.385 . S
O60 C38 1.234 . S
O61 Mn36 2.209 . S
O61 Mn37 2.215 . S
O61 C38 1.283 . S
O62 Mn36 2.094 1_655 S
O62 C40 1.240 . S
O63 Mn37 2.117 1_655 S
O63 C40 1.264 . S
C64 C57 1.403 . S
C64 C65 1.399 . S
C64 H70 0.929 . S
C65 C45 1.449 . S
C65 C64 1.399 . S
C65 H71 0.930 . S
H66 C46 0.931 . S
H67 C47 0.930 . S
H68 C55 0.931 . S
H69 C56 0.929 . S
H70 C64 0.929 . S
H71 C65 0.930 . S
Mn72 O77 2.095 1_455 S
Mn72 O87 2.162 . S
Mn72 O88 2.297 . S
Mn72 O96 2.385 . S
Mn72 O97 2.209 . S
Mn72 O98 2.094 1_445 S
Mn73 O78 2.121 . S
Mn73 N80 2.257 . S
Mn73 N89 2.282 1_655 S
Mn73 O97 2.215 1_655 S
Mn73 O99 2.117 . S
C74 O96 1.234 . S
C74 O97 1.283 . S
C75 O87 1.281 . S
C75 O88 1.236 . S
C76 O98 1.240 . S
C76 O99 1.264 1_565 S
O77 Mn72 2.095 1_655 S
O77 C86 1.250 . S
O78 Mn73 2.121 . S
O78 C86 1.258 . S
C79 N80 1.326 . S
C79 C83 1.460 1_655 S
C79 H85 0.929 . S
N80 Mn73 2.257 . S
N80 C79 1.326 . S
N80 C84 1.362 1_655 S
C81 C82 1.258 . S
C81 C84 1.431 . S
C81 C101 1.449 . S
C82 C81 1.258 . S
C82 C83 1.477 . S
C82 H102 0.931 . S
C83 C79 1.460 1_455 S
C83 C82 1.477 . S
C83 H103 0.930 . S
C84 N80 1.362 1_455 S
C84 C81 1.431 . S
C84 C94 1.476 . S
H85 C79 0.929 . S
C86 O77 1.250 . S
C86 O78 1.258 . S
O87 Mn72 2.162 . S
O87 C75 1.281 . S
O88 Mn72 2.297 . S
O88 C75 1.236 . S
N89 Mn73 2.282 1_455 S
N89 C90 1.328 . S
N89 C94 1.318 . S
C90 N89 1.328 . S
C90 C91 1.457 . S
C90 H95 0.929 . S
C91 C90 1.457 . S
C91 C92 1.291 . S
C91 H104 0.931 . S
C92 C91 1.291 . S
C92 C93 1.373 . S
C92 H105 0.929 . S
C93 C92 1.373 . S
C93 C94 1.396 . S
C93 C100 1.403 . S
C94 C84 1.476 . S
C94 N89 1.318 . S
C94 C93 1.396 . S
H95 C90 0.929 . S
O96 Mn72 2.385 . S
O96 C74 1.234 . S
O97 Mn72 2.209 . S
O97 Mn73 2.215 1_455 S
O97 C74 1.283 . S
O98 Mn72 2.094 1_665 S
O98 C76 1.240 . S
O99 Mn73 2.117 . S
O99 C76 1.264 1_545 S
C100 C93 1.403 . S
C100 C101 1.399 . S
C100 H106 0.929 . S
C101 C81 1.449 . S
C101 C100 1.399 . S
C101 H107 0.930 . S
H102 C82 0.931 . S
H103 C83 0.930 . S
H104 C91 0.931 . S
H105 C92 0.929 . S
H106 C100 0.929 . S
H107 C101 0.930 . S
C108 O110 1.247 . S
C108 O112 1.258 1_455 S
C109 O116 1.247 1_455 S
C109 O117 1.258 . S
O110 C108 1.247 . S
O110 Zn111 2.028 . S
Zn111 O110 2.028 . S
Zn111 O115 2.035 . S
Zn111 O117 2.035 . S
Zn111 O118 2.028 . S
O112 C108 1.258 1_655 S
O112 Zn113 2.035 . S
Zn113 O112 2.035 . S
Zn113 O114 2.028 . S
Zn113 O116 2.028 . S
Zn113 O119 2.035 . S
O114 Zn113 2.028 . S
O114 C120 1.247 1_655 S
O115 Zn111 2.035 . S
O115 C120 1.258 . S
O116 C109 1.247 1_655 S
O116 Zn113 2.028 . S
O117 C109 1.258 . S
O117 Zn111 2.035 . S
O118 Zn111 2.028 . S
O118 C121 1.247 . S
O119 Zn113 2.035 . S
O119 C121 1.258 1_655 S
C120 O114 1.247 1_455 S
C120 O115 1.258 . S
C121 O118 1.247 . S
C121 O119 1.258 1_455 S
C122 O124 1.247 . S
C122 O126 1.258 . S
C123 O130 1.247 . S
C123 O131 1.258 . S
O124 C122 1.247 . S
O124 Zn125 2.028 . S
Zn125 O124 2.028 . S
Zn125 O129 2.035 . S
Zn125 O131 2.035 . S
Zn125 O132 2.028 . S
O126 C122 1.258 . S
O126 Zn127 2.035 . S
Zn127 O126 2.035 . S
Zn127 O128 2.028 . S
Zn127 O130 2.028 . S
Zn127 O133 2.035 . S
O128 Zn127 2.028 . S
O128 C134 1.247 . S
O129 Zn125 2.035 . S
O129 C134 1.258 . S
O130 C123 1.247 . S
O130 Zn127 2.028 . S
O131 C123 1.258 . S
O131 Zn125 2.035 . S
O132 Zn125 2.028 . S
O132 C135 1.247 . S
O133 Zn127 2.035 . S
O133 C135 1.258 . S
C134 O128 1.247 . S
C134 O129 1.258 . S
C135 O132 1.247 . S
C135 O133 1.258 . S
C136 O138 1.247 . S
C136 O140 1.258 . S
C137 O144 1.247 . S
C137 O145 1.258 . S
O138 C136 1.247 . S
O138 Zn139 2.028 . S
Zn139 O138 2.028 . S
Zn139 O143 2.035 . S
Zn139 O145 2.035 . S
Zn139 O146 2.028 . S
O140 C136 1.258 . S
O140 Zn141 2.035 . S
Zn141 O140 2.035 . S
Zn141 O142 2.028 . S
Zn141 O144 2.028 . S
Zn141 O147 2.035 . S
O142 Zn141 2.028 . S
O142 C148 1.247 . S
O143 Zn139 2.035 . S
O143 C148 1.258 . S
O144 C137 1.247 . S
O144 Zn141 2.028 . S
O145 C137 1.258 . S
O145 Zn139 2.035 . S
O146 Zn139 2.028 . S
O146 C149 1.247 . S
O147 Zn141 2.035 . S
O147 C149 1.258 . S
C148 O142 1.247 . S
C148 O143 1.258 . S
C149 O146 1.247 . S
C149 O147 1.258 . S
C150 C151 1.387 . S
C150 H154 0.950 . S
C150 C159 1.390 . S
C151 C150 1.387 . S
C151 C153 1.387 1_455 S
H152 C159 0.950 . S
C153 C151 1.387 1_655 S
C153 C155 1.390 . S
C153 H157 0.950 . S
H154 C150 0.950 . S
C155 C153 1.390 . S
C155 C156 1.387 1_655 S
C155 H158 0.950 . S
C156 C155 1.387 1_455 S
C156 C159 1.387 . S
H157 C153 0.950 . S
H158 C155 0.950 . S
C159 C150 1.390 . S
C159 H152 0.950 . S
C159 C156 1.387 . S
C160 C161 1.387 . S
C160 H164 0.950 1_545 S
C160 C169 1.390 . S
C161 C160 1.387 . S
C161 C163 1.387 . S
H162 C169 0.950 1_565 S
C163 C161 1.387 . S
C163 C165 1.390 . S
C163 H167 0.950 . S
H164 C160 0.950 1_565 S
C165 C163 1.390 . S
C165 C166 1.387 . S
C165 H168 0.950 . S
C166 C165 1.387 . S
C166 C169 1.387 . S
H167 C163 0.950 . S
H168 C165 0.950 . S
C169 C160 1.390 . S
C169 H162 0.950 1_545 S
C169 C166 1.387 . S
C170 C171 1.387 . S
C170 H174 0.950 . S
C170 C179 1.390 . S
C171 C170 1.387 . S
C171 C173 1.387 . S
H172 C179 0.950 . S
C173 C171 1.387 . S
C173 C175 1.390 . S
C173 H177 0.950 1_565 S
H174 C170 0.950 . S
C175 C173 1.390 . S
C175 C176 1.387 . S
C175 H178 0.950 . S
C176 C175 1.387 . S
C176 C179 1.387 . S
H177 C173 0.950 1_545 S
H178 C175 0.950 . S
C179 C170 1.390 . S
C179 H172 0.950 . S
C179 C176 1.387 . S
C180 C181 1.387 . S
C180 H184 0.950 . S
C180 C189 1.390 . S
C181 C180 1.387 . S
C181 C183 1.387 . S
H182 C189 0.950 . S
C183 C181 1.387 . S
C183 C185 1.390 . S
C183 H187 0.950 . S
H184 C180 0.950 . S
C185 C183 1.390 . S
C185 C186 1.387 . S
C185 H188 0.950 . S
C186 C185 1.387 . S
C186 C189 1.387 . S
H187 C183 0.950 . S
H188 C185 0.950 . S
C189 C180 1.390 . S
C189 H182 0.950 . S
C189 C186 1.387 . S
C190 C191 1.387 . S
C190 H194 0.950 1_545 S
C190 C199 1.390 . S
C191 C190 1.387 . S
C191 C193 1.387 . S
H192 C199 0.950 . S
C193 C191 1.387 . S
C193 C195 1.390 . S
C193 H197 0.950 . S
H194 C190 0.950 1_565 S
C195 C193 1.390 . S
C195 C196 1.387 . S
C195 H198 0.950 . S
C196 C195 1.387 . S
C196 C199 1.387 . S
H197 C193 0.950 . S
H198 C195 0.950 . S
C199 C190 1.390 . S
C199 H192 0.950 . S
C199 C196 1.387 . S
C200 C201 1.387 . S
C200 H204 0.950 . S
C200 C209 1.390 . S
C201 C200 1.387 . S
C201 C203 1.387 . S
H202 C209 0.950 . S
C203 C201 1.387 . S
C203 C205 1.390 . S
C203 H207 0.950 . S
H204 C200 0.950 . S
C205 C203 1.390 . S
C205 C206 1.387 . S
C205 H208 0.950 . S
C206 C205 1.387 . S
C206 C209 1.387 . S
H207 C203 0.950 . S
H208 C205 0.950 . S
C209 C200 1.390 . S
C209 H202 0.950 . S
C209 C206 1.387 . S
C210 C211 1.387 . S
C210 H214 0.950 . S
C210 C219 1.390 . S
C211 C210 1.387 . S
C211 C213 1.387 . S
H212 C219 0.950 . S
C213 C211 1.387 . S
C213 C215 1.390 . S
C213 H217 0.950 . S
H214 C210 0.950 . S
C215 C213 1.390 . S
C215 C216 1.387 . S
C215 H218 0.950 . S
C216 C215 1.387 . S
C216 C219 1.387 . S
H217 C213 0.950 . S
H218 C215 0.950 . S
C219 C210 1.390 . S
C219 H212 0.950 . S
C219 C216 1.387 . S
C220 C221 1.387 . S
C220 H224 0.950 1_565 S
C220 C229 1.390 . S
C221 C220 1.387 . S
C221 C223 1.387 . S
H222 C229 0.950 . S
C223 C221 1.387 . S
C223 C225 1.390 . S
C223 H227 0.950 1_556 S
H224 C220 0.950 1_545 S
C225 C223 1.390 . S
C225 C226 1.387 . S
C225 H228 0.950 . S
C226 C225 1.387 . S
C226 C229 1.387 . S
H227 C223 0.950 1_554 S
H228 C225 0.950 . S
C229 C220 1.390 . S
C229 H222 0.950 . S
C229 C226 1.387 . S
C230 C231 1.387 . S
C230 H234 0.952 . S
C230 C239 1.390 . S
C231 C230 1.387 . S
C231 C233 1.387 1_455 S
H232 C239 0.950 . S
C233 C231 1.387 1_655 S
C233 C235 1.390 . S
C233 H237 0.950 . S
H234 C230 0.952 . S
C235 C233 1.390 . S
C235 C236 1.387 1_655 S
C235 H238 0.950 . S
C236 C235 1.387 1_455 S
C236 C239 1.387 . S
H237 C233 0.950 . S
H238 C235 0.950 . S
C239 C230 1.390 . S
C239 H232 0.950 . S
C239 C236 1.387 . S
C240 C241 1.387 . S
C240 H244 0.950 . S
C240 C249 1.390 . S
C241 C240 1.387 . S
C241 C243 1.387 . S
H242 C249 0.950 . S
C243 C241 1.387 . S
C243 C245 1.390 . S
C243 H247 0.950 . S
H244 C240 0.950 . S
C245 C243 1.390 . S
C245 C246 1.387 . S
C245 H248 0.950 . S
C246 C245 1.387 . S
C246 C249 1.387 . S
H247 C243 0.950 . S
H248 C245 0.950 . S
C249 C240 1.390 . S
C249 H242 0.950 . S
C249 C246 1.387 . S
C250 C251 1.387 . S
C250 H254 0.950 . S
C250 C259 1.390 . S
C251 C250 1.387 . S
C251 C253 1.387 . S
H252 C259 0.950 . S
C253 C251 1.387 . S
C253 C255 1.390 . S
C253 H257 0.950 . S
H254 C250 0.950 . S
C255 C253 1.390 . S
C255 C256 1.387 . S
C255 H258 0.950 . S
C256 C255 1.387 . S
C256 C259 1.387 . S
H257 C253 0.950 . S
H258 C255 0.950 . S
C259 C250 1.390 . S
C259 H252 0.950 . S
C259 C256 1.387 . S
C260 C261 1.387 1_655 S
C260 H264 0.950 . S
C260 C269 1.390 . S
C261 C260 1.387 1_455 S
C261 C263 1.387 . S
H262 C269 0.950 . S
C263 C261 1.387 . S
C263 C265 1.390 . S
C263 H267 0.950 . S
H264 C260 0.950 . S
C265 C263 1.390 . S
C265 C266 1.387 . S
C265 H268 0.950 . S
C266 C265 1.387 . S
C266 C269 1.387 1_455 S
H267 C263 0.950 . S
H268 C265 0.950 . S
C269 C260 1.390 . S
C269 H262 0.950 . S
C269 C266 1.387 1_655 S
C156 C109 1.482 . S
C151 C14 1.448 . S
C161 C40 1.470 . S
C166 C135 1.488 . S
C171 C76 1.457 . S
C176 C137 1.474 . S
C181 C3 1.454 . S
C186 C121 1.454 . S
C196 C123 1.488 . S
C191 C38 1.470 . S
C201 C74 1.454 . S
C206 C149 1.471 . S
C216 C122 1.452 . S
C211 C86 1.415 . S
C221 C2 1.455 1_566 S
C226 C148 1.473 . S
C236 C108 1.456 . S
C231 C39 1.455 . S
C246 C134 1.465 . S
C241 C75 1.466 . S
C256 C136 1.477 . S
C251 C4 1.458 1_556 S
C261 C50 1.449 . S
C266 C120 1.483 . S
