# Generated by pormake.
# Topology apo, (3,6)-cn, num edge types: 1
# Building blocks:
#     Node 0, Type 0, BuildingBlock: OLANEW_clean_sbu_2, # of connection points: 3
#     Node 1, Type 0, BuildingBlock: OLANEW_clean_sbu_2, # of connection points: 3
#     Node 2, Type 0, BuildingBlock: OLANEW_clean_sbu_2, # of connection points: 3
#     Node 3, Type 0, BuildingBlock: OLANEW_clean_sbu_2, # of connection points: 3
#     Node 4, Type 0, BuildingBlock: OLANEW_clean_sbu_2, # of connection points: 3
#     Node 5, Type 0, BuildingBlock: OLANEW_clean_sbu_2, # of connection points: 3
#     Node 6, Type 0, BuildingBlock: OLANEW_clean_sbu_2, # of connection points: 3
#     Node 7, Type 0, BuildingBlock: OLANEW_clean_sbu_2, # of connection points: 3
#     Node 8, Type 1, BuildingBlock: KUMJIN_clean_sbu_1, # of connection points: 6
#     Node 9, Type 1, BuildingBlock: KUMJIN_clean_sbu_1, # of connection points: 6
#     Node 10, Type 1, BuildingBlock: KUMJIN_clean_sbu_1, # of connection points: 6
#     Node 11, Type 1, BuildingBlock: KUMJIN_clean_sbu_1, # of connection points: 6
#     Edge 12, Type (0, 1), BuildingBlock: CIFDUS_clean_linker_0, # of connection points: 2
#     Edge 13, Type (0, 1), BuildingBlock: CIFDUS_clean_linker_0, # of connection points: 2
#     Edge 14, Type (0, 1), BuildingBlock: CIFDUS_clean_linker_0, # of connection points: 2
#     Edge 15, Type (0, 1), BuildingBlock: CIFDUS_clean_linker_0, # of connection points: 2
#     Edge 16, Type (0, 1), BuildingBlock: CIFDUS_clean_linker_0, # of connection points: 2
#     Edge 17, Type (0, 1), BuildingBlock: CIFDUS_clean_linker_0, # of connection points: 2
#     Edge 18, Type (0, 1), BuildingBlock: CIFDUS_clean_linker_0, # of connection points: 2
#     Edge 19, Type (0, 1), BuildingBlock: CIFDUS_clean_linker_0, # of connection points: 2
#     Edge 20, Type (0, 1), BuildingBlock: CIFDUS_clean_linker_0, # of connection points: 2
#     Edge 21, Type (0, 1), BuildingBlock: CIFDUS_clean_linker_0, # of connection points: 2
#     Edge 22, Type (0, 1), BuildingBlock: CIFDUS_clean_linker_0, # of connection points: 2
#     Edge 23, Type (0, 1), BuildingBlock: CIFDUS_clean_linker_0, # of connection points: 2
#     Edge 24, Type (0, 1), BuildingBlock: CIFDUS_clean_linker_0, # of connection points: 2
#     Edge 25, Type (0, 1), BuildingBlock: CIFDUS_clean_linker_0, # of connection points: 2
#     Edge 26, Type (0, 1), BuildingBlock: CIFDUS_clean_linker_0, # of connection points: 2
#     Edge 27, Type (0, 1), BuildingBlock: CIFDUS_clean_linker_0, # of connection points: 2
#     Edge 28, Type (0, 1), BuildingBlock: CIFDUS_clean_linker_0, # of connection points: 2
#     Edge 29, Type (0, 1), BuildingBlock: CIFDUS_clean_linker_0, # of connection points: 2
#     Edge 30, Type (0, 1), BuildingBlock: CIFDUS_clean_linker_0, # of connection points: 2
#     Edge 31, Type (0, 1), BuildingBlock: CIFDUS_clean_linker_0, # of connection points: 2
#     Edge 32, Type (0, 1), BuildingBlock: CIFDUS_clean_linker_0, # of connection points: 2
#     Edge 33, Type (0, 1), BuildingBlock: CIFDUS_clean_linker_0, # of connection points: 2
#     Edge 34, Type (0, 1), BuildingBlock: CIFDUS_clean_linker_0, # of connection points: 2
#     Edge 35, Type (0, 1), BuildingBlock: CIFDUS_clean_linker_0, # of connection points: 2
# Relax obj value: 0.030
# Max RMSD: 0.231
# Mean RMSD: 0.138
data_MOF--net-apo--node1-OLANEW_clean_sbu_2--node2-KUMJIN_clean_sbu_1--edge1-CIFDUS_clean_linker_0
_symmetry_space_group_name_H-M    P1
_symmetry_Int_Tables_number       1
_symmetry_cell_setting            triclinic
loop_
_symmetry_equiv_pos_as_xyz
'x, y, z'
_cell_length_a     25.510457
_cell_length_b     39.333444
_cell_length_c     50.292534
_cell_angle_alpha  88.617694
_cell_angle_beta   89.918913
_cell_angle_gamma 90.013883
loop_
_atom_site_label
_atom_site_type_symbol
_atom_site_fract_x
_atom_site_fract_y
_atom_site_fract_z
_atom_type_partial_charge
O0 O 0.32836 0.40511 0.34373 0.0
Cd1 Cd 0.27208 0.36622 0.36983 0.0
O2 O 0.35021 0.42888 0.38101 0.0
Cd3 Cd 0.39047 0.46003 0.41043 0.0
O4 O 0.41744 0.47025 0.45114 0.0
C5 C 0.39227 0.45626 0.47037 0.0
O6 O 0.35138 0.43732 0.46497 0.0
C7 C 0.35416 0.4277 0.35581 0.0
C8 C 0.23077 0.31159 0.342 0.0
O9 O 0.20587 0.33981 0.34322 0.0
O10 O 0.27555 0.30948 0.35347 0.0
O11 O 0.31606 0.1452 0.96816 0.0
Cd12 Cd 0.38404 0.15571 0.93401 0.0
O13 O 0.28581 0.10491 0.94336 0.0
Cd14 Cd 0.23934 0.06255 0.9283 0.0
O15 O 0.20802 0.02542 0.90066 0.0
C16 C 0.15994 0.02542 0.89404 0.0
O17 O 0.12805 0.04742 0.90484 0.0
C18 C 0.28487 0.12031 0.96535 0.0
C19 C 0.37771 0.20797 0.89531 0.0
O20 O 0.39363 0.21377 0.91896 0.0
O21 O 0.36175 0.17785 0.89036 0.0
O22 O 0.79881 0.10721 0.65797 0.0
Cd23 Cd 0.76142 0.15394 0.63068 0.0
O24 O 0.86532 0.09521 0.6316 0.0
Cd25 Cd 0.85167 0.13234 0.59903 0.0
O26 O 0.86677 0.1541 0.55903 0.0
C27 C 0.84774 0.13995 0.53869 0.0
O28 O 0.81682 0.11349 0.54219 0.0
C29 C 0.83919 0.08946 0.65282 0.0
C30 C 0.71808 0.20773 0.65927 0.0
O31 O 0.69275 0.17993 0.65635 0.0
O32 O 0.76415 0.20997 0.64917 0.0
O33 O 0.66192 0.26915 0.05684 0.0
Cd34 Cd 0.65233 0.23998 0.09986 0.0
O35 O 0.63739 0.31549 0.07638 0.0
Cd36 Cd 0.61557 0.36841 0.08276 0.0
O37 O 0.59894 0.40777 0.1116 0.0
C38 C 0.60923 0.43919 0.1082 0.0
O39 O 0.62986 0.44992 0.08557 0.0
C40 C 0.65016 0.3005 0.05522 0.0
C41 C 0.74616 0.21715 0.12186 0.0
O42 O 0.72068 0.19905 0.10541 0.0
O43 O 0.7276 0.24638 0.12757 0.0
O44 O 0.67011 0.61599 0.64119 0.0
Cd45 Cd 0.71088 0.65403 0.60786 0.0
O46 O 0.69779 0.57019 0.62113 0.0
Cd47 Cd 0.7167 0.59582 0.58336 0.0
O48 O 0.70422 0.5965 0.54035 0.0
C49 C 0.67291 0.61745 0.5291 0.0
O50 O 0.65039 0.64086 0.54341 0.0
C51 C 0.67577 0.58386 0.64089 0.0
C52 C 0.76644 0.70637 0.63195 0.0
O53 O 0.71926 0.7109 0.62387 0.0
O54 O 0.78744 0.6772 0.62852 0.0
O55 O 0.82929 0.91552 0.13804 0.0
Cd56 Cd 0.79081 0.86964 0.11192 0.0
O57 O 0.82784 0.95061 0.10325 0.0
Cd58 Cd 0.8 0.91526 0.0735 0.0
O59 O 0.79592 0.90338 0.03126 0.0
C60 C 0.83508 0.9134 0.0175 0.0
O61 O 0.87436 0.92796 0.02971 0.0
C62 C 0.83799 0.94485 0.1277 0.0
C63 C 0.74147 0.81718 0.14123 0.0
O64 O 0.79102 0.8169 0.13693 0.0
O65 O 0.71514 0.84266 0.13214 0.0
O66 O 0.28597 0.9156 0.3528 0.0
Cd67 Cd 0.32159 0.87296 0.38383 0.0
O68 O 0.23116 0.93487 0.38275 0.0
Cd69 Cd 0.24836 0.899 0.41549 0.0
O70 O 0.23074 0.87477 0.45416 0.0
C71 C 0.19751 0.89011 0.46844 0.0
O72 O 0.17742 0.91886 0.45932 0.0
C73 C 0.25037 0.93636 0.35939 0.0
C74 C 0.35761 0.81723 0.35601 0.0
O75 O 0.31017 0.81871 0.36434 0.0
O76 O 0.38833 0.84199 0.36117 0.0
O77 O 0.32697 0.62533 0.86177 0.0
Cd78 Cd 0.28033 0.66635 0.88933 0.0
O79 O 0.35404 0.59387 0.896 0.0
Cd80 Cd 0.32993 0.62607 0.92894 0.0
O81 O 0.33228 0.64508 0.96975 0.0
C82 C 0.36816 0.66596 0.97582 0.0
O83 O 0.40092 0.67649 0.95718 0.0
C84 C 0.35037 0.59898 0.87095 0.0
C85 C 0.20446 0.70351 0.8606 0.0
O86 O 0.2493 0.71662 0.86553 0.0
O87 O 0.19557 0.6731 0.86916 0.0
Eu88 Eu 0.09465 0.12144 0.21842 0.0
C89 C 0.87186 0.08 0.24678 0.0
N90 N 0.89299 0.11139 0.2497 0.0
C91 C 0.81892 0.13668 0.22757 0.0
C92 C 0.82466 0.07559 0.2327 0.0
C93 C 0.86529 0.13966 0.24214 0.0
C94 C 0.79914 0.10444 0.22226 0.0
C95 C 0.8726 0.0199 0.25884 0.0
C96 C 0.89545 0.05248 0.2596 0.0
C97 C 0.82721 0.01504 0.24363 0.0
C98 C 0.8034 0.04282 0.23049 0.0
Eu99 Eu 0.97497 0.11339 0.27182 0.0
N100 N 0.94015 0.0578 0.27349 0.0
C101 C 0.89582 0.99332 0.27367 0.0
C102 C 0.96154 0.03253 0.28907 0.0
C103 C 0.94005 0.99979 0.28915 0.0
H104 H 0.87875 0.1646 0.24745 0.0
H105 H 0.95773 0.97956 0.30103 0.0
H106 H 0.20081 0.0989 0.2531 0.0
H107 H 0.05266 0.24188 0.1651 0.0
H108 H 0.99592 0.03762 0.30088 0.0
H109 H 0.87946 0.9679 0.27362 0.0
H110 H 0.04348 0.18069 0.17486 0.0
H111 H 0.79811 0.15923 0.22078 0.0
H112 H 0.80958 0.99007 0.24237 0.0
H113 H 0.76758 0.03887 0.21943 0.0
H114 H 0.27969 0.12603 0.27193 0.0
H115 H 0.7629 0.10217 0.21124 0.0
H116 H 0.12193 0.27489 0.18716 0.0
N117 N 0.1711 0.14508 0.23641 0.0
C118 C 0.17935 0.17874 0.23133 0.0
C119 C 0.25163 0.14115 0.26068 0.0
C120 C 0.22355 0.19528 0.24176 0.0
C121 C 0.20699 0.12589 0.25011 0.0
C122 C 0.2597 0.17606 0.25672 0.0
N123 N 0.10253 0.17948 0.20484 0.0
C124 C 0.07193 0.19496 0.18584 0.0
C125 C 0.15148 0.23146 0.20976 0.0
C126 C 0.14352 0.19656 0.21557 0.0
C127 C 0.11714 0.24812 0.19213 0.0
C128 C 0.07786 0.22961 0.17972 0.0
H129 H 0.29412 0.18786 0.26509 0.0
H130 H 0.26357 0.24358 0.24511 0.0
H131 H 0.20061 0.27525 0.21701 0.0
O132 O 0.13771 0.12742 0.18103 0.0
O133 O 0.10021 0.14432 0.25949 0.0
O134 O 0.01737 0.16388 0.26738 0.0
O135 O 0.13497 0.07825 0.20083 0.0
O136 O 0.01288 0.13702 0.20494 0.0
O137 O 0.97387 0.15844 0.24244 0.0
O138 O 0.98762 0.1135 0.31479 0.0
O139 O 0.00091 0.06912 0.24644 0.0
O140 O 0.02022 0.09455 0.20653 0.0
O141 O 0.912 0.12733 0.29901 0.0
O142 O 0.05438 0.0951 0.28601 0.0
O143 O 0.10447 0.07849 0.24963 0.0
C144 C 0.06846 0.16741 0.26886 0.0
C145 C 0.13296 0.08031 0.1534 0.0
C146 C 0.1421 0.08022 0.10481 0.0
C147 C 0.10063 0.05665 0.10377 0.0
C148 C 0.09166 0.05685 0.15174 0.0
C149 C 0.07586 0.04503 0.12707 0.0
C150 C 0.15819 0.09171 0.12991 0.0
C151 C 0.97888 0.15714 0.21642 0.0
C152 C 0.14749 0.09517 0.1791 0.0
C153 C 0.23028 0.23031 0.23694 0.0
C154 C 0.19429 0.24837 0.22102 0.0
C155 C 0.99907 0.06953 0.22041 0.0
C156 C 0.93716 0.15183 0.3394 0.0
C157 C 0.91438 0.17027 0.38408 0.0
C158 C 0.92924 0.20362 0.37653 0.0
C159 C 0.95188 0.18516 0.3323 0.0
C160 C 0.91878 0.14447 0.36522 0.0
C161 C 0.94795 0.2109 0.35085 0.0
C162 C 0.0922 0.07706 0.27527 0.0
C163 C 0.94079 0.12433 0.32024 0.0
H164 H 0.08645 0.04769 0.08491 0.0
H165 H 0.07105 0.048 0.16943 0.0
H166 H 0.0437 0.02717 0.12595 0.0
H167 H 0.19016 0.10973 0.13128 0.0
H168 H 0.92574 0.22422 0.39032 0.0
H169 H 0.96624 0.19121 0.31247 0.0
H170 H 0.90848 0.11847 0.37063 0.0
H171 H 0.95919 0.23664 0.34527 0.0
Eu172 Eu 0.46489 0.39821 0.74348 0.0
C173 C 0.68804 0.43724 0.77093 0.0
N174 N 0.66804 0.40538 0.76944 0.0
C175 C 0.73875 0.38896 0.74112 0.0
C176 C 0.73332 0.44671 0.75648 0.0
C177 C 0.69352 0.38085 0.75569 0.0
C178 C 0.7584 0.42216 0.74124 0.0
C179 C 0.68311 0.49347 0.78933 0.0
C180 C 0.66305 0.46026 0.78706 0.0
C181 C 0.72715 0.50349 0.77424 0.0
C182 C 0.75222 0.48015 0.75787 0.0
Eu183 Eu 0.58992 0.39393 0.79313 0.0
N184 N 0.62057 0.44972 0.8014 0.0
C185 C 0.65915 0.51534 0.80721 0.0
C186 C 0.59968 0.47011 0.82028 0.0
C187 C 0.61784 0.50338 0.82309 0.0
H188 H 0.67812 0.35526 0.7556 0.0
H189 H 0.60037 0.51964 0.83773 0.0
H190 H 0.38828 0.46418 0.76144 0.0
H191 H 0.4061 0.26682 0.72832 0.0
H192 H 0.5695 0.46076 0.83359 0.0
H193 H 0.67337 0.54105 0.80955 0.0
H194 H 0.46212 0.31803 0.72304 0.0
H195 H 0.75828 0.36969 0.72973 0.0
H196 H 0.74277 0.52902 0.77553 0.0
H197 H 0.78664 0.48806 0.74669 0.0
H198 H 0.30521 0.47311 0.78538 0.0
H199 H 0.79328 0.42843 0.72984 0.0
H200 H 0.32376 0.26967 0.75431 0.0
N201 N 0.38274 0.41022 0.76323 0.0
C202 C 0.35112 0.38304 0.76843 0.0
C203 C 0.31799 0.44758 0.78109 0.0
C204 C 0.30239 0.38699 0.78127 0.0
C205 C 0.36562 0.44238 0.76801 0.0
C206 C 0.28663 0.41969 0.78819 0.0
N207 N 0.4125 0.34878 0.74641 0.0
C208 C 0.42619 0.31931 0.73438 0.0
C209 C 0.33293 0.32303 0.76294 0.0
C210 C 0.36603 0.35147 0.75938 0.0
C211 C 0.3481 0.29212 0.752 0.0
C212 C 0.39457 0.2904 0.73731 0.0
H213 H 0.2495 0.42381 0.79809 0.0
H214 H 0.23295 0.36092 0.79606 0.0
H215 H 0.25977 0.30488 0.78003 0.0
O216 O 0.47996 0.39428 0.70084 0.0
O217 O 0.47044 0.35523 0.77491 0.0
O218 O 0.50987 0.38111 0.80986 0.0
O219 O 0.4091 0.4183 0.71406 0.0
O220 O 0.53438 0.36578 0.73083 0.0
O221 O 0.57276 0.34624 0.77014 0.0
O222 O 0.62857 0.39288 0.8321 0.0
O223 O 0.596 0.41151 0.7499 0.0
O224 O 0.52145 0.44228 0.74486 0.0
O225 O 0.62947 0.34829 0.80808 0.0
O226 O 0.51818 0.42281 0.80752 0.0
O227 O 0.47675 0.44451 0.7698 0.0
C228 C 0.4765 0.359 0.80059 0.0
C229 C 0.4468 0.43909 0.67395 0.0
C230 C 0.44193 0.46065 0.6279 0.0
C231 C 0.46376 0.49156 0.63614 0.0
C232 C 0.46825 0.47015 0.68164 0.0
C233 C 0.47691 0.49615 0.66278 0.0
C234 C 0.43392 0.43437 0.64712 0.0
C235 C 0.56277 0.34359 0.74462 0.0
C236 C 0.43842 0.41135 0.69372 0.0
C237 C 0.27027 0.35843 0.78598 0.0
C238 C 0.28549 0.32652 0.77681 0.0
C239 C 0.57144 0.43824 0.74026 0.0
C240 C 0.61745 0.3398 0.85421 0.0
C241 C 0.61692 0.32489 0.90151 0.0
C242 C 0.57445 0.30295 0.89745 0.0
C243 C 0.57514 0.31741 0.85054 0.0
C244 C 0.63868 0.34319 0.87982 0.0
C245 C 0.55411 0.299 0.87203 0.0
C246 C 0.4868 0.44507 0.79555 0.0
C247 C 0.63785 0.36038 0.83156 0.0
H248 H 0.46974 0.51253 0.62212 0.0
H249 H 0.47807 0.47431 0.70223 0.0
H250 H 0.49343 0.52008 0.66886 0.0
H251 H 0.41805 0.41011 0.64127 0.0
H252 H 0.55769 0.28838 0.91394 0.0
H253 H 0.55812 0.31417 0.83105 0.0
H254 H 0.67151 0.36015 0.88289 0.0
H255 H 0.52198 0.28157 0.86898 0.0
Eu256 Eu 0.04837 0.86735 0.73317 0.0
C257 C 0.82823 0.80875 0.75115 0.0
N258 N 0.83479 0.84254 0.7469 0.0
C259 C 0.76403 0.84357 0.71561 0.0
C260 C 0.79034 0.79051 0.73692 0.0
C261 C 0.80272 0.8604 0.72999 0.0
C262 C 0.75827 0.80836 0.71883 0.0
C263 C 0.84866 0.75835 0.77748 0.0
C264 C 0.85702 0.79306 0.77108 0.0
C265 C 0.814 0.7393 0.76204 0.0
C266 C 0.78474 0.7554 0.7418 0.0
Eu267 Eu 0.90326 0.86964 0.76952 0.0
N268 N 0.88898 0.81261 0.78595 0.0
C269 C 0.87303 0.74437 0.80009 0.0
C270 C 0.90736 0.79996 0.80978 0.0
C271 C 0.9013 0.76552 0.81672 0.0
H272 H 0.80804 0.88753 0.72719 0.0
H273 H 0.91778 0.75545 0.8351 0.0
H274 H 0.0694 0.78351 0.72916 0.0
H275 H 0.19135 0.96603 0.75476 0.0
H276 H 0.92699 0.81617 0.82365 0.0
H277 H 0.86772 0.71782 0.80571 0.0
H278 H 0.11045 0.94205 0.73525 0.0
H279 H 0.73918 0.85767 0.70186 0.0
H280 H 0.80777 0.71249 0.76637 0.0
H281 H 0.75664 0.74075 0.7307 0.0
H282 H 0.13215 0.74048 0.74656 0.0
H283 H 0.72857 0.79531 0.70756 0.0
H284 H 0.2542 0.928 0.77835 0.0
N285 N 0.11054 0.82517 0.74535 0.0
C286 C 0.15393 0.83565 0.75827 0.0
C287 C 0.13871 0.76719 0.75006 0.0
C288 C 0.19094 0.81218 0.76844 0.0
C289 C 0.1033 0.79158 0.74023 0.0
C290 C 0.18231 0.77748 0.76463 0.0
N291 N 0.12748 0.89151 0.74827 0.0
C292 C 0.13815 0.92542 0.74535 0.0
C293 C 0.20926 0.88241 0.77114 0.0
C294 C 0.16278 0.8701 0.75973 0.0
C295 C 0.21897 0.91746 0.7698 0.0
C296 C 0.18367 0.939 0.75642 0.0
H297 H 0.20962 0.75857 0.77227 0.0
H298 H 0.26449 0.80655 0.78964 0.0
H299 H 0.28075 0.8682 0.79186 0.0
O300 O 0.02028 0.87881 0.69288 0.0
O301 O 0.04509 0.90477 0.76719 0.0
O302 O 0.96536 0.90053 0.79046 0.0
O303 O 0.10156 0.86542 0.69928 0.0
O304 O 0.00576 0.91799 0.7329 0.0
O305 O 0.9181 0.90305 0.73284 0.0
O306 O 0.84391 0.87623 0.80068 0.0
O307 O 0.91406 0.85613 0.72599 0.0
O308 O 0.98915 0.82513 0.728 0.0
O309 O 0.85895 0.91662 0.77222 0.0
O310 O 0.97406 0.8505 0.79308 0.0
O311 O 0.01262 0.82545 0.75832 0.0
C312 C 0.01324 0.91273 0.7869 0.0
C313 C 0.06361 0.8494 0.65896 0.0
C314 C 0.07969 0.84066 0.61177 0.0
C315 C 0.06443 0.80647 0.61527 0.0
C316 C 0.04847 0.81527 0.66212 0.0
C317 C 0.04873 0.79397 0.6403 0.0
C318 C 0.079 0.86201 0.63384 0.0
C319 C 0.95611 0.92505 0.72824 0.0
C320 C 0.06511 0.87192 0.68179 0.0
C321 C 0.2359 0.82417 0.78134 0.0
C322 C 0.24511 0.85927 0.78264 0.0
C323 C 0.942 0.83013 0.71834 0.0
C324 C 0.83893 0.93346 0.81551 0.0
C325 C 0.85364 0.94896 0.86165 0.0
C326 C 0.85202 0.98348 0.85387 0.0
C327 C 0.83621 0.96822 0.80837 0.0
C328 C 0.84679 0.92393 0.84243 0.0
C329 C 0.84293 0.99298 0.82742 0.0
C330 C 0.00932 0.82971 0.78382 0.0
C331 C 0.83575 0.90806 0.79434 0.0
H332 H 0.06408 0.78954 0.5986 0.0
H333 H 0.03688 0.8051 0.68144 0.0
H334 H 0.03689 0.76765 0.64281 0.0
H335 H 0.09139 0.8883 0.6316 0.0
H336 H 0.85705 0.00312 0.86839 0.0
H337 H 0.82972 0.97628 0.78788 0.0
H338 H 0.84879 0.8973 0.84838 0.0
H339 H 0.8413 0.01965 0.82164 0.0
Eu340 Eu 0.45063 0.6312 0.22282 0.0
C341 C 0.69999 0.5934 0.24123 0.0
N342 N 0.65403 0.57968 0.24968 0.0
C343 C 0.68567 0.52382 0.24025 0.0
C344 C 0.74041 0.57292 0.23117 0.0
C345 C 0.64714 0.54524 0.25043 0.0
C346 C 0.73227 0.53777 0.23022 0.0
C347 C 0.75656 0.64276 0.23819 0.0
C348 C 0.70787 0.62769 0.24456 0.0
C349 C 0.79619 0.62292 0.22687 0.0
C350 C 0.7881 0.58804 0.22333 0.0
Eu351 Eu 0.58826 0.61787 0.26359 0.0
N352 N 0.66905 0.64581 0.25588 0.0
C353 C 0.76446 0.67693 0.2443 0.0
C354 C 0.67744 0.6785 0.26335 0.0
C355 C 0.72496 0.69474 0.25732 0.0
H356 H 0.61135 0.53432 0.25841 0.0
H357 H 0.73104 0.72094 0.26263 0.0
H358 H 0.35185 0.62086 0.26648 0.0
H359 H 0.46838 0.56167 0.12993 0.0
H360 H 0.64675 0.69225 0.27333 0.0
H361 H 0.80129 0.68949 0.23971 0.0
H362 H 0.47185 0.61235 0.15819 0.0
H363 H 0.67949 0.4966 0.24025 0.0
H364 H 0.83372 0.63408 0.22154 0.0
H365 H 0.8195 0.57281 0.21531 0.0
H366 H 0.29582 0.57397 0.28425 0.0
H367 H 0.76227 0.52112 0.22257 0.0
H368 H 0.43179 0.50757 0.14803 0.0
N369 N 0.38794 0.59031 0.2374 0.0
C370 C 0.38832 0.56013 0.22506 0.0
C371 C 0.32181 0.56968 0.26764 0.0
C372 C 0.35709 0.53274 0.23429 0.0
C373 C 0.35316 0.59617 0.25746 0.0
C374 C 0.3247 0.53756 0.25639 0.0
N375 N 0.44083 0.58632 0.19228 0.0
C376 C 0.45598 0.58873 0.16621 0.0
C377 C 0.41229 0.52864 0.18619 0.0
C378 C 0.41586 0.55803 0.20157 0.0
C379 C 0.43353 0.52962 0.1605 0.0
C380 C 0.45399 0.56015 0.15017 0.0
H381 H 0.30027 0.51712 0.26422 0.0
H382 H 0.33437 0.48058 0.22741 0.0
H383 H 0.38254 0.47704 0.18506 0.0
O384 O 0.37998 0.64372 0.19999 0.0
O385 O 0.45548 0.60902 0.26516 0.0
O386 O 0.52775 0.57581 0.26245 0.0
O387 O 0.42061 0.68328 0.22022 0.0
O388 O 0.524 0.61474 0.20093 0.0
O389 O 0.55935 0.58075 0.23328 0.0
O390 O 0.55418 0.62059 0.30344 0.0
O391 O 0.59025 0.6625 0.23385 0.0
O392 O 0.51678 0.66412 0.2057 0.0
O393 O 0.63577 0.60724 0.29882 0.0
O394 O 0.54629 0.66863 0.26698 0.0
O395 O 0.46104 0.651 0.26424 0.0
C396 C 0.48033 0.58076 0.27144 0.0
C397 C 0.38088 0.6988 0.17925 0.0
C398 C 0.37367 0.70802 0.13098 0.0
C399 C 0.37529 0.74332 0.13482 0.0
C400 C 0.38218 0.73414 0.18241 0.0
C401 C 0.37955 0.75619 0.16033 0.0
C402 C 0.37649 0.68582 0.1534 0.0
C403 C 0.55453 0.58941 0.20816 0.0
C404 C 0.38418 0.67625 0.2032 0.0
C405 C 0.35734 0.50217 0.2204 0.0
C406 C 0.38486 0.50014 0.19631 0.0
C407 C 0.56354 0.67493 0.21327 0.0
C408 C 0.59117 0.58302 0.33546 0.0
C409 C 0.60212 0.56259 0.38131 0.0
C410 C 0.58312 0.53056 0.37394 0.0
C411 C 0.57354 0.55073 0.32835 0.0
C412 C 0.6054 0.58887 0.36188 0.0
C413 C 0.56885 0.52477 0.34761 0.0
C414 C 0.49594 0.67383 0.27076 0.0
C415 C 0.5969 0.61041 0.31536 0.0
H416 H 0.37241 0.76109 0.1181 0.0
H417 H 0.38531 0.74474 0.20203 0.0
H418 H 0.38055 0.78341 0.163 0.0
H419 H 0.37593 0.65858 0.15067 0.0
H420 H 0.57938 0.50998 0.38851 0.0
H421 H 0.56398 0.54555 0.30791 0.0
H422 H 0.62046 0.61361 0.36709 0.0
H423 H 0.55466 0.49999 0.34207 0.0
H424 H 0.18774 0.98975 0.36964 0.0
H425 H 0.26638 0.9401 0.30526 0.0
H426 H 0.22637 0.98021 0.27323 0.0
H427 H 0.165 0.02792 0.26352 0.0
H428 H 0.08774 0.07624 0.32923 0.0
H429 H 0.13134 0.03816 0.36048 0.0
C430 C 0.19638 0.98766 0.34861 0.0
C431 C 0.22963 0.96177 0.33988 0.0
C432 C 0.17324 0.01057 0.33043 0.0
C433 C 0.2408 0.95979 0.31255 0.0
C434 C 0.21782 0.98266 0.29421 0.0
C435 C 0.15804 0.03023 0.28467 0.0
C436 C 0.12253 0.05478 0.29381 0.0
C437 C 0.18336 0.00795 0.3029 0.0
C438 C 0.11423 0.05745 0.32138 0.0
C439 C 0.13926 0.03566 0.33944 0.0
H440 H 0.38972 0.53677 0.88408 0.0
H441 H 0.36259 0.60434 0.81663 0.0
H442 H 0.4019 0.56277 0.78709 0.0
H443 H 0.44599 0.50734 0.78065 0.0
H444 H 0.46992 0.44012 0.8487 0.0
H445 H 0.43041 0.48157 0.87765 0.0
C446 C 0.39235 0.54255 0.86292 0.0
C447 C 0.37339 0.57379 0.85269 0.0
C448 C 0.41467 0.51855 0.84609 0.0
C449 C 0.37688 0.58054 0.82513 0.0
C450 C 0.39942 0.55677 0.8082 0.0
C451 C 0.44196 0.50166 0.80176 0.0
C452 C 0.46096 0.4706 0.81242 0.0
C453 C 0.41863 0.52568 0.81847 0.0
C454 C 0.45606 0.46386 0.8399 0.0
C455 C 0.4333 0.48754 0.85654 0.0
H456 H 0.70085 0.51815 0.65238 0.0
H457 H 0.60264 0.60035 0.67828 0.0
H458 H 0.56215 0.56255 0.71174 0.0
H459 H 0.55209 0.5054 0.73232 0.0
H460 H 0.65156 0.42377 0.70676 0.0
H461 H 0.69457 0.46217 0.67465 0.0
C462 C 0.67078 0.52787 0.66543 0.0
C463 C 0.65452 0.56195 0.6627 0.0
C464 C 0.64787 0.50609 0.68465 0.0
C465 C 0.61593 0.57424 0.67998 0.0
C466 C 0.59261 0.55261 0.69905 0.0
C467 C 0.5832 0.49613 0.71967 0.0
C468 C 0.5985 0.46186 0.72169 0.0
C469 C 0.6078 0.51839 0.70131 0.0
C470 C 0.6393 0.45013 0.70556 0.0
C471 C 0.66373 0.47202 0.68715 0.0
H472 H 0.88869 0.93901 0.17555 0.0
H473 H 0.84293 0.01234 0.11466 0.0
H474 H 0.88879 0.05711 0.13787 0.0
H475 H 0.94416 0.07535 0.17464 0.0
H476 H 0.99219 0.00254 0.23512 0.0
H477 H 0.94344 0.95768 0.21295 0.0
C478 C 0.88834 0.96483 0.1675 0.0
C479 C 0.86243 0.97219 0.14334 0.0
C480 C 0.91557 0.99053 0.18077 0.0
C481 C 0.86271 0.00583 0.13313 0.0
C482 C 0.88903 0.03151 0.14636 0.0
C483 C 0.94406 0.04963 0.18288 0.0
C484 C 0.97122 0.04224 0.20656 0.0
C485 C 0.91613 0.02408 0.16998 0.0
C486 C 0.97088 0.00885 0.21706 0.0
C487 C 0.94314 0.98322 0.20436 0.0
H488 H 0.93387 0.05774 0.65587 0.0
H489 H 0.7785 0.05598 0.68992 0.0
H490 H 0.80102 0.00515 0.71643 0.0
H491 H 0.86365 0.95961 0.72838 0.0
H492 H 0.02028 0.96316 0.69591 0.0
H493 H 0.99841 0.01479 0.67036 0.0
C494 C 0.90499 0.04636 0.6692 0.0
C495 C 0.85441 0.06054 0.67072 0.0
C496 C 0.91834 0.01731 0.68457 0.0
C497 C 0.81772 0.04567 0.68836 0.0
C498 C 0.83049 0.01648 0.70344 0.0
C499 C 0.89303 0.97176 0.71579 0.0
C500 C 0.94339 0.95737 0.71392 0.0
C501 C 0.88046 0.00182 0.70145 0.0
C502 C 0.98124 0.97368 0.69776 0.0
C503 C 0.96873 0.00319 0.68307 0.0
H504 H 0.61592 0.50842 0.10621 0.0
H505 H 0.57995 0.42364 0.15927 0.0
H506 H 0.56347 0.46255 0.19535 0.0
H507 H 0.55672 0.5207 0.21163 0.0
H508 H 0.58878 0.60568 0.15839 0.0
H509 H 0.60983 0.56669 0.12264 0.0
C510 C 0.60462 0.49844 0.12567 0.0
C511 C 0.59918 0.46313 0.12996 0.0
C512 C 0.59475 0.52099 0.14635 0.0
C513 C 0.58427 0.45068 0.15533 0.0
C514 C 0.57496 0.47291 0.17604 0.0
C515 C 0.56919 0.53059 0.19231 0.0
C516 C 0.57172 0.56586 0.18758 0.0
C517 C 0.57993 0.50809 0.17177 0.0
C518 C 0.58683 0.57851 0.16238 0.0
C519 C 0.59865 0.55627 0.14197 0.0
H520 H 0.36294 0.496 0.36174 0.0
H521 H 0.41718 0.41331 0.31423 0.0
H522 H 0.46405 0.4533 0.28476 0.0
H523 H 0.48515 0.51215 0.27081 0.0
H524 H 0.4236 0.59527 0.3155 0.0
H525 H 0.38394 0.5551 0.34763 0.0
C526 C 0.38584 0.48683 0.34519 0.0
C527 C 0.38724 0.45182 0.34028 0.0
C528 C 0.4108 0.51013 0.32763 0.0
C529 C 0.41589 0.44019 0.31843 0.0
C530 C 0.44249 0.46303 0.30153 0.0
C531 C 0.46333 0.52132 0.28773 0.0
C532 C 0.4573 0.55645 0.29094 0.0
C533 C 0.4395 0.49809 0.30566 0.0
C534 C 0.42847 0.56824 0.31266 0.0
C535 C 0.40597 0.5453 0.33104 0.0
H536 H 0.05921 0.01607 0.878 0.0
H537 H 0.21755 0.98217 0.86382 0.0
H538 H 0.18637 0.94494 0.82904 0.0
H539 H 0.11404 0.92171 0.80282 0.0
H540 H 0.95583 0.95518 0.81736 0.0
H541 H 0.98698 0.99268 0.85193 0.0
C542 C 0.08696 0.00055 0.86734 0.0
C543 C 0.14067 0.00202 0.87353 0.0
C544 C 0.06878 0.97911 0.8474 0.0
C545 C 0.17597 0.98155 0.85954 0.0
C546 C 0.15822 0.96028 0.83959 0.0
C547 C 0.08657 0.93764 0.81324 0.0
C548 C 0.03285 0.93603 0.80726 0.0
C549 C 0.10474 0.95894 0.83329 0.0
C550 C 0.99742 0.95598 0.82158 0.0
C551 C 0.0152 0.97745 0.84135 0.0
H552 H 0.25487 0.15665 0.00808 0.0
H553 H 0.24312 0.05685 0.97487 0.0
H554 H 0.19679 0.03615 0.0144 0.0
H555 H 0.16465 0.04523 0.05975 0.0
H556 H 0.17637 0.14505 0.09316 0.0
H557 H 0.21902 0.16643 0.05268 0.0
C558 C 0.24162 0.13045 0.00934 0.0
C559 C 0.25164 0.1086 0.98812 0.0
C560 C 0.21595 0.11845 0.03251 0.0
C561 C 0.23452 0.07466 0.99029 0.0
C562 C 0.20867 0.0626 0.01319 0.0
C563 C 0.17581 0.07179 0.05812 0.0
C564 C 0.1675 0.09332 0.07976 0.0
C565 C 0.19974 0.08414 0.03456 0.0
C566 C 0.18315 0.12758 0.07721 0.0
C567 C 0.20716 0.13997 0.05391 0.0
H568 H 0.3435 0.43204 0.51507 0.0
H569 H 0.47879 0.48971 0.48888 0.0
H570 H 0.5066 0.49553 0.53507 0.0
H571 H 0.49282 0.48383 0.58291 0.0
H572 H 0.35558 0.42781 0.60882 0.0
H573 H 0.32901 0.42121 0.56271 0.0
C574 C 0.3791 0.44592 0.51939 0.0
C575 C 0.40897 0.4604 0.49843 0.0
C576 C 0.3948 0.44924 0.546 0.0
C577 C 0.45493 0.47833 0.50455 0.0
C578 C 0.47093 0.48163 0.53099 0.0
C579 C 0.45681 0.47043 0.57855 0.0
C580 C 0.42645 0.45625 0.59952 0.0
C581 C 0.44116 0.46718 0.55189 0.0
C582 C 0.38037 0.4385 0.59325 0.0
C583 C 0.36482 0.43494 0.56682 0.0
H584 H 0.71232 0.2896 0.0128 0.0
H585 H 0.57918 0.34803 0.0382 0.0
H586 H 0.56075 0.36496 0.99202 0.0
H587 H 0.57447 0.35524 0.9441 0.0
H588 H 0.70792 0.29717 0.9189 0.0
H589 H 0.73484 0.28817 0.96529 0.0
C590 C 0.68008 0.30674 0.00822 0.0
C591 C 0.6469 0.31738 0.02875 0.0
C592 C 0.66952 0.31605 0.98166 0.0
C593 C 0.60549 0.33976 0.02273 0.0
C594 C 0.59461 0.34913 0.9963 0.0
C595 C 0.61024 0.3415 0.94889 0.0
C596 C 0.6393 0.32677 0.92842 0.0
C597 C 0.62516 0.33633 0.97556 0.0
C598 C 0.68538 0.30884 0.93452 0.0
C599 C 0.70046 0.30351 0.96098 0.0
H600 H 0.81007 0.11742 0.49166 0.0
H601 H 0.92093 0.18798 0.52436 0.0
H602 H 0.95069 0.20391 0.47958 0.0
H603 H 0.94792 0.19603 0.43123 0.0
H604 H 0.83502 0.12668 0.39863 0.0
H605 H 0.80415 0.11175 0.44329 0.0
C606 C 0.84057 0.13642 0.48904 0.0
C607 C 0.86332 0.15134 0.51143 0.0
C608 C 0.85759 0.14546 0.46322 0.0
C609 C 0.90265 0.17604 0.50754 0.0
C610 C 0.91984 0.18512 0.48191 0.0
C611 C 0.91607 0.178 0.4338 0.0
C612 C 0.89429 0.16232 0.41144 0.0
C613 C 0.89792 0.16977 0.4596 0.0
C614 C 0.85343 0.13866 0.41538 0.0
C615 C 0.83539 0.13026 0.44095 0.0
H616 H 0.90775 0.93939 0.98332 0.0
H617 H 0.76087 0.88488 0.98547 0.0
H618 H 0.75643 0.88795 0.93688 0.0
H619 H 0.79081 0.91049 0.89394 0.0
H620 H 0.93503 0.9676 0.89265 0.0
H621 H 0.94434 0.95889 0.94071 0.0
C622 C 0.87496 0.92784 0.97321 0.0
C623 C 0.83452 0.91214 0.98807 0.0
C624 C 0.87216 0.93029 0.94538 0.0
C625 C 0.79242 0.89728 0.97455 0.0
C626 C 0.78982 0.89906 0.94676 0.0
C627 C 0.82464 0.92044 0.90423 0.0
C628 C 0.86218 0.93967 0.88996 0.0
C629 C 0.82895 0.91609 0.93199 0.0
C630 C 0.90563 0.95284 0.90338 0.0
C631 C 0.91087 0.94792 0.9308 0.0
H632 H 0.69578 0.56439 0.49745 0.0
H633 H 0.61612 0.6612 0.4974 0.0
H634 H 0.58756 0.65297 0.45163 0.0
H635 H 0.58312 0.61747 0.41203 0.0
H636 H 0.66187 0.52037 0.41259 0.0
H637 H 0.6922 0.52934 0.45789 0.0
C638 C 0.67251 0.58385 0.48739 0.0
C639 C 0.65825 0.61341 0.50085 0.0
C640 C 0.65557 0.57873 0.46124 0.0
C641 C 0.62769 0.6382 0.48753 0.0
C642 C 0.61124 0.63349 0.46137 0.0
C643 C 0.60725 0.59841 0.42201 0.0
C644 C 0.62004 0.56825 0.40896 0.0
C645 C 0.62463 0.60374 0.44809 0.0
C646 C 0.65079 0.54359 0.4223 0.0
C647 C 0.66848 0.5488 0.44815 0.0
H648 H 0.31922 0.64147 0.02083 0.0
H649 H 0.4322 0.71613 0.99324 0.0
H650 H 0.44484 0.73484 0.03863 0.0
H651 H 0.42404 0.7303 0.08613 0.0
H652 H 0.31126 0.65597 0.11423 0.0
H653 H 0.29921 0.63642 0.06883 0.0
C654 C 0.34646 0.66192 0.02473 0.0
C655 C 0.37451 0.67745 0.00355 0.0
C656 C 0.35397 0.67244 0.05103 0.0
C657 C 0.41 0.70371 0.00907 0.0
C658 C 0.41734 0.71444 0.03507 0.0
C659 C 0.39657 0.70995 0.08233 0.0
C660 C 0.3684 0.69478 0.10359 0.0
C661 C 0.38954 0.69903 0.05618 0.0
C662 C 0.33381 0.66793 0.09832 0.0
C663 C 0.3266 0.6569 0.07231 0.0
H664 H 0.1309 0.91861 0.50364 0.0
H665 H 0.22653 0.82959 0.49228 0.0
H666 H 0.19786 0.80617 0.53538 0.0
H667 H 0.14595 0.81123 0.57651 0.0
H668 H 0.05095 0.90053 0.58757 0.0
H669 H 0.07929 0.92364 0.5444 0.0
C670 C 0.14555 0.89407 0.51054 0.0
C671 C 0.18082 0.8759 0.49469 0.0
C672 C 0.12904 0.88082 0.53533 0.0
C673 C 0.1994 0.84416 0.50405 0.0
C674 C 0.18298 0.83072 0.5287 0.0
C675 C 0.13115 0.83561 0.56934 0.0
C676 C 0.09642 0.85415 0.58524 0.0
C677 C 0.14777 0.84882 0.5445 0.0
C678 C 0.07813 0.88593 0.57585 0.0
C679 C 0.09416 0.8991 0.55113 0.0
H680 H 0.13481 0.30699 0.31846 0.0
H681 H 0.27537 0.2493 0.33534 0.0
H682 H 0.23698 0.19959 0.31479 0.0
H683 H 0.16301 0.17206 0.2929 0.0
H684 H 0.02312 0.22957 0.27497 0.0
H685 H 0.06117 0.27956 0.29567 0.0
C686 C 0.15715 0.2836 0.31755 0.0
C687 C 0.20792 0.28194 0.32848 0.0
C688 C 0.13477 0.25498 0.30576 0.0
C689 C 0.23623 0.25136 0.32713 0.0
C690 C 0.21428 0.22285 0.31542 0.0
C691 C 0.14113 0.19567 0.29324 0.0
C692 C 0.09066 0.19727 0.28213 0.0
C693 C 0.16354 0.22433 0.3048 0.0
C694 C 0.06211 0.22772 0.28339 0.0
C695 C 0.08396 0.25634 0.29509 0.0
H696 H 0.39627 0.2755 0.90062 0.0
H697 H 0.37201 0.19938 0.84155 0.0
H698 H 0.3958 0.24047 0.80631 0.0
H699 H 0.43418 0.29603 0.79298 0.0
H700 H 0.45735 0.37182 0.85242 0.0
H701 H 0.42327 0.33297 0.88667 0.0
C702 C 0.39532 0.26802 0.88001 0.0
C703 C 0.383 0.23428 0.87381 0.0
C704 C 0.40935 0.29168 0.85986 0.0
C705 C 0.38151 0.22515 0.84694 0.0
C706 C 0.39541 0.2486 0.82675 0.0
C707 C 0.43045 0.3043 0.81328 0.0
C708 C 0.4487 0.33667 0.82011 0.0
C709 C 0.41096 0.28166 0.83305 0.0
C710 C 0.44417 0.34689 0.84663 0.0
C711 C 0.42455 0.3247 0.86628 0.0
H712 H 0.64215 0.20562 0.69739 0.0
H713 H 0.74076 0.27501 0.65231 0.0
H714 H 0.69951 0.32336 0.67374 0.0
H715 H 0.6349 0.34608 0.70532 0.0
H716 H 0.54238 0.27672 0.75346 0.0
H717 H 0.58117 0.22817 0.7308 0.0
C718 C 0.65455 0.23134 0.69228 0.0
C719 C 0.69423 0.23674 0.67317 0.0
C720 C 0.6315 0.25899 0.70517 0.0
C721 C 0.71041 0.27017 0.667 0.0
C722 C 0.68669 0.29784 0.67917 0.0
C723 C 0.62326 0.32026 0.71066 0.0
C724 C 0.58564 0.31468 0.73068 0.0
C725 C 0.64711 0.29258 0.69822 0.0
C726 C 0.57125 0.28133 0.73796 0.0
C727 C 0.59342 0.25369 0.72504 0.0
H728 H 0.79867 0.24406 0.16339 0.0
H729 H 0.8014 0.16034 0.10942 0.0
H730 H 0.87706 0.13611 0.13268 0.0
H731 H 0.93877 0.13683 0.16989 0.0
H732 H 0.93354 0.21858 0.22537 0.0
H733 H 0.86291 0.24587 0.19972 0.0
C734 C 0.81615 0.22071 0.15654 0.0
C735 C 0.79433 0.20399 0.13475 0.0
C736 C 0.85912 0.2066 0.17027 0.0
C737 C 0.8173 0.17366 0.1262 0.0
C738 C 0.86058 0.15978 0.13947 0.0
C739 C 0.92258 0.16083 0.17615 0.0
C740 C 0.94078 0.17562 0.19952 0.0
C741 C 0.88129 0.17578 0.16173 0.0
C742 C 0.91963 0.20669 0.2075 0.0
C743 C 0.87928 0.2222 0.19289 0.0
H744 H 0.85486 0.70038 0.6618 0.0
H745 H 0.74304 0.7741 0.63185 0.0
H746 H 0.78984 0.81936 0.65434 0.0
H747 H 0.86112 0.83775 0.68364 0.0
H748 H 0.96926 0.76335 0.71588 0.0
H749 H 0.92609 0.71879 0.69098 0.0
C750 C 0.84087 0.72638 0.66008 0.0
C751 C 0.79554 0.73384 0.64515 0.0
C752 C 0.86739 0.75218 0.67346 0.0
C753 C 0.77773 0.76763 0.64328 0.0
C754 C 0.80456 0.79355 0.65607 0.0
C755 C 0.87492 0.81173 0.68532 0.0
C756 C 0.91771 0.80378 0.70189 0.0
C757 C 0.84912 0.78607 0.67143 0.0
C758 C 0.93622 0.77014 0.70333 0.0
C759 C 0.91141 0.74459 0.6892 0.0
H760 H 0.63652 0.80475 0.14636 0.0
H761 H 0.78833 0.76494 0.16871 0.0
H762 H 0.74664 0.71719 0.19225 0.0
H763 H 0.66742 0.68657 0.20635 0.0
H764 H 0.5153 0.72557 0.18419 0.0
H765 H 0.55674 0.77336 0.16015 0.0
C766 C 0.66047 0.78571 0.15647 0.0
C767 C 0.71553 0.78858 0.15586 0.0
C768 C 0.6362 0.75804 0.16983 0.0
C769 C 0.74593 0.76345 0.16887 0.0
C770 C 0.72212 0.73609 0.18234 0.0
C771 C 0.6433 0.70577 0.19661 0.0
C772 C 0.58839 0.70284 0.19749 0.0
C773 C 0.66736 0.73316 0.18298 0.0
C774 C 0.5577 0.72725 0.18385 0.0
C775 C 0.58137 0.75468 0.17023 0.0
H776 H 0.45601 0.80587 0.33698 0.0
H777 H 0.30022 0.76295 0.34008 0.0
H778 H 0.32934 0.71525 0.31375 0.0
H779 H 0.39842 0.68585 0.28982 0.0
H780 H 0.5548 0.72786 0.28687 0.0
H781 H 0.52586 0.7759 0.31314 0.0
C782 C 0.42845 0.78606 0.33193 0.0
C783 C 0.37599 0.78802 0.3405 0.0
C784 C 0.44546 0.7586 0.31679 0.0
C785 C 0.34081 0.7621 0.33379 0.0
C786 C 0.35739 0.73481 0.31869 0.0
C787 C 0.42631 0.70549 0.29486 0.0
C788 C 0.47875 0.7032 0.2864 0.0
C789 C 0.40955 0.73284 0.31006 0.0
C790 C 0.51424 0.72891 0.29319 0.0
C791 C 0.49772 0.7564 0.30821 0.0
H792 H 0.19043 0.77221 0.85722 0.0
H793 H 0.12778 0.67744 0.82976 0.0
H794 H 0.06122 0.70823 0.80392 0.0
H795 H 0.02156 0.76213 0.78849 0.0
H796 H 0.07938 0.85681 0.81807 0.0
H797 H 0.14693 0.82625 0.84389 0.0
C798 C 0.16216 0.75838 0.84557 0.0
C799 C 0.16415 0.72261 0.84527 0.0
C800 C 0.12297 0.77623 0.83134 0.0
C801 C 0.12695 0.70495 0.83035 0.0
C802 C 0.08889 0.72252 0.81558 0.0
C803 C 0.04863 0.77588 0.80094 0.0
C804 C 0.0458 0.81144 0.80163 0.0
C805 C 0.08652 0.7581 0.81594 0.0
C806 C 0.08076 0.8293 0.81763 0.0
C807 C 0.11949 0.81186 0.83218 0.0
loop_
_geom_bond_atom_site_label_1
_geom_bond_atom_site_label_2
_geom_bond_distance
_geom_bond_site_symmetry_2
_ccdc_geom_bond_type
O0 Cd1 2.300 . S
O0 C7 1.275 . S
Cd1 O0 2.300 . S
Cd1 O9 2.381 . S
Cd1 O10 2.378 . S
O2 Cd3 2.385 . S
O2 C7 1.255 . S
Cd3 O2 2.385 . S
Cd3 O4 2.317 . S
O4 Cd3 2.317 . S
O4 C5 1.232 . S
C5 O4 1.232 . S
C5 O6 1.218 . S
O6 C5 1.218 . S
C7 O0 1.275 . S
C7 O2 1.255 . S
C8 O9 1.258 . S
C8 O10 1.256 . S
O9 Cd1 2.381 . S
O9 C8 1.258 . S
O10 Cd1 2.378 . S
O10 C8 1.256 . S
O11 Cd12 2.300 . S
O11 C18 1.275 . S
Cd12 O11 2.300 . S
Cd12 O20 2.381 . S
Cd12 O21 2.378 . S
O13 Cd14 2.385 . S
O13 C18 1.255 . S
Cd14 O13 2.385 . S
Cd14 O15 2.317 . S
O15 Cd14 2.317 . S
O15 C16 1.232 . S
C16 O15 1.232 . S
C16 O17 1.218 . S
O17 C16 1.218 . S
C18 O11 1.275 . S
C18 O13 1.255 . S
C19 O20 1.258 . S
C19 O21 1.256 . S
O20 Cd12 2.381 . S
O20 C19 1.258 . S
O21 Cd12 2.378 . S
O21 C19 1.256 . S
O22 Cd23 2.300 . S
O22 C29 1.275 . S
Cd23 O22 2.300 . S
Cd23 O31 2.381 . S
Cd23 O32 2.378 . S
O24 Cd25 2.385 . S
O24 C29 1.255 . S
Cd25 O24 2.385 . S
Cd25 O26 2.317 . S
O26 Cd25 2.317 . S
O26 C27 1.232 . S
C27 O26 1.232 . S
C27 O28 1.218 . S
O28 C27 1.218 . S
C29 O22 1.275 . S
C29 O24 1.255 . S
C30 O31 1.258 . S
C30 O32 1.256 . S
O31 Cd23 2.381 . S
O31 C30 1.258 . S
O32 Cd23 2.378 . S
O32 C30 1.256 . S
O33 Cd34 2.300 . S
O33 C40 1.275 . S
Cd34 O33 2.300 . S
Cd34 O42 2.381 . S
Cd34 O43 2.378 . S
O35 Cd36 2.385 . S
O35 C40 1.255 . S
Cd36 O35 2.385 . S
Cd36 O37 2.317 . S
O37 Cd36 2.317 . S
O37 C38 1.232 . S
C38 O37 1.232 . S
C38 O39 1.218 . S
O39 C38 1.218 . S
C40 O33 1.275 . S
C40 O35 1.255 . S
C41 O42 1.258 . S
C41 O43 1.256 . S
O42 Cd34 2.381 . S
O42 C41 1.258 . S
O43 Cd34 2.378 . S
O43 C41 1.256 . S
O44 Cd45 2.300 . S
O44 C51 1.275 . S
Cd45 O44 2.300 . S
Cd45 O53 2.381 . S
Cd45 O54 2.378 . S
O46 Cd47 2.385 . S
O46 C51 1.255 . S
Cd47 O46 2.385 . S
Cd47 O48 2.317 . S
O48 Cd47 2.317 . S
O48 C49 1.232 . S
C49 O48 1.232 . S
C49 O50 1.218 . S
O50 C49 1.218 . S
C51 O44 1.275 . S
C51 O46 1.255 . S
C52 O53 1.258 . S
C52 O54 1.256 . S
O53 Cd45 2.381 . S
O53 C52 1.258 . S
O54 Cd45 2.378 . S
O54 C52 1.256 . S
O55 Cd56 2.300 . S
O55 C62 1.275 . S
Cd56 O55 2.300 . S
Cd56 O64 2.381 . S
Cd56 O65 2.378 . S
O57 Cd58 2.385 . S
O57 C62 1.255 . S
Cd58 O57 2.385 . S
Cd58 O59 2.317 . S
O59 Cd58 2.317 . S
O59 C60 1.232 . S
C60 O59 1.232 . S
C60 O61 1.218 . S
O61 C60 1.218 . S
C62 O55 1.275 . S
C62 O57 1.255 . S
C63 O64 1.258 . S
C63 O65 1.256 . S
O64 Cd56 2.381 . S
O64 C63 1.258 . S
O65 Cd56 2.378 . S
O65 C63 1.256 . S
O66 Cd67 2.300 . S
O66 C73 1.275 . S
Cd67 O66 2.300 . S
Cd67 O75 2.381 . S
Cd67 O76 2.378 . S
O68 Cd69 2.385 . S
O68 C73 1.255 . S
Cd69 O68 2.385 . S
Cd69 O70 2.317 . S
O70 Cd69 2.317 . S
O70 C71 1.232 . S
C71 O70 1.232 . S
C71 O72 1.218 . S
O72 C71 1.218 . S
C73 O66 1.275 . S
C73 O68 1.255 . S
C74 O75 1.258 . S
C74 O76 1.256 . S
O75 Cd67 2.381 . S
O75 C74 1.258 . S
O76 Cd67 2.378 . S
O76 C74 1.256 . S
O77 Cd78 2.300 . S
O77 C84 1.275 . S
Cd78 O77 2.300 . S
Cd78 O86 2.381 . S
Cd78 O87 2.378 . S
O79 Cd80 2.385 . S
O79 C84 1.255 . S
Cd80 O79 2.385 . S
Cd80 O81 2.317 . S
O81 Cd80 2.317 . S
O81 C82 1.232 . S
C82 O81 1.232 . S
C82 O83 1.218 . S
O83 C82 1.218 . S
C84 O77 1.275 . S
C84 O79 1.255 . S
C85 O86 1.258 . S
C85 O87 1.256 . S
O86 Cd78 2.381 . S
O86 C85 1.258 . S
O87 Cd78 2.378 . S
O87 C85 1.256 . S
Eu88 N117 2.600 . S
Eu88 N123 2.562 . S
Eu88 O132 2.462 . S
Eu88 O133 2.373 . S
Eu88 O135 2.432 . S
Eu88 O136 2.291 . S
Eu88 O140 2.335 . S
Eu88 O143 2.372 . S
Eu88 C152 2.787 . S
C89 N90 1.365 . S
C89 C92 1.405 . S
C89 C96 1.448 . S
N90 C89 1.365 . S
N90 C93 1.319 . S
N90 Eu99 2.600 . S
C91 C93 1.397 . S
C91 C94 1.367 . S
C91 H111 0.931 . S
C92 C89 1.405 . S
C92 C94 1.403 . S
C92 C98 1.439 . S
C93 N90 1.319 . S
C93 C91 1.397 . S
C93 H104 0.930 . S
C94 C91 1.367 . S
C94 C92 1.403 . S
C94 H115 0.929 . S
C95 C96 1.430 . S
C95 C97 1.387 . S
C95 C101 1.404 1_545 S
C96 C89 1.448 . S
C96 C95 1.430 . S
C96 N100 1.351 . S
C97 C95 1.387 . S
C97 C98 1.374 . S
C97 H112 0.923 1_545 S
C98 C92 1.439 . S
C98 C97 1.374 . S
C98 H113 0.931 . S
Eu99 N90 2.600 . S
Eu99 N100 2.562 . S
Eu99 O134 2.335 1_655 S
Eu99 O137 2.372 . S
Eu99 O138 2.462 . S
Eu99 O139 2.373 . S
Eu99 O141 2.432 . S
Eu99 O142 2.291 1_655 S
Eu99 C163 2.787 . S
N100 C96 1.351 . S
N100 Eu99 2.562 . S
N100 C102 1.325 . S
C101 C95 1.404 1_565 S
C101 C103 1.366 . S
C101 H109 0.930 . S
C102 N100 1.325 . S
C102 C103 1.416 1_545 S
C102 H108 0.929 . S
C103 C101 1.366 . S
C103 C102 1.416 1_565 S
C103 H105 0.930 . S
H104 C93 0.930 . S
H105 C103 0.930 . S
H106 C121 0.930 . S
H107 C128 0.930 . S
H108 C102 0.929 . S
H109 C101 0.930 . S
H110 C124 0.929 . S
H111 C91 0.931 . S
H112 C97 0.923 1_565 S
H113 C98 0.931 . S
H114 C119 0.931 . S
H115 C94 0.929 . S
H116 C127 0.930 . S
N117 Eu88 2.600 . S
N117 C118 1.365 . S
N117 C121 1.319 . S
C118 N117 1.365 . S
C118 C120 1.405 . S
C118 C126 1.448 . S
C119 H114 0.931 . S
C119 C121 1.397 . S
C119 C122 1.367 . S
C120 C118 1.405 . S
C120 C122 1.403 . S
C120 C153 1.439 . S
C121 H106 0.930 . S
C121 N117 1.319 . S
C121 C119 1.397 . S
C122 C119 1.367 . S
C122 C120 1.403 . S
C122 H129 0.929 . S
N123 Eu88 2.562 . S
N123 C124 1.325 . S
N123 C126 1.351 . S
C124 H110 0.929 . S
C124 N123 1.325 . S
C124 C128 1.416 . S
C125 C126 1.430 . S
C125 C127 1.404 . S
C125 C154 1.387 . S
C126 C118 1.448 . S
C126 N123 1.351 . S
C126 C125 1.430 . S
C127 H116 0.930 . S
C127 C125 1.404 . S
C127 C128 1.366 . S
C128 H107 0.930 . S
C128 C124 1.416 . S
C128 C127 1.366 . S
H129 C122 0.929 . S
H130 C153 0.931 . S
H131 C154 0.931 . S
O132 Eu88 2.462 . S
O132 C152 1.252 . S
O133 Eu88 2.373 . S
O133 C144 1.249 . S
O134 Eu99 2.335 1_455 S
O134 C144 1.264 . S
O135 Eu88 2.432 . S
O135 C152 1.268 . S
O136 Eu88 2.291 . S
O136 C151 1.255 1_455 S
O137 Eu99 2.372 . S
O137 C151 1.257 . S
O138 Eu99 2.462 . S
O138 C163 1.252 . S
O139 Eu99 2.373 . S
O139 C155 1.249 . S
O140 Eu88 2.335 . S
O140 C155 1.264 1_455 S
O141 Eu99 2.432 . S
O141 C163 1.268 . S
O142 Eu99 2.291 1_455 S
O142 C162 1.255 . S
O143 Eu88 2.372 . S
O143 C162 1.257 . S
C144 O133 1.249 . S
C144 O134 1.264 . S
C145 C148 1.382 . S
C145 C150 1.390 . S
C145 C152 1.506 . S
C146 C147 1.398 . S
C146 C150 1.392 . S
C147 C146 1.398 . S
C147 C149 1.372 . S
C147 H164 0.931 . S
C148 C145 1.382 . S
C148 C149 1.390 . S
C148 H165 0.931 . S
C149 C147 1.372 . S
C149 C148 1.390 . S
C149 H166 0.929 . S
C150 C145 1.390 . S
C150 C146 1.392 . S
C150 H167 0.930 . S
C151 O136 1.255 1_655 S
C151 O137 1.257 . S
C152 Eu88 2.787 . S
C152 O132 1.252 . S
C152 O135 1.268 . S
C152 C145 1.506 . S
C153 C120 1.439 . S
C153 H130 0.931 . S
C153 C154 1.374 . S
C154 C125 1.387 . S
C154 H131 0.931 . S
C154 C153 1.374 . S
C155 O139 1.249 . S
C155 O140 1.264 1_655 S
C156 C159 1.382 . S
C156 C160 1.390 . S
C156 C163 1.506 . S
C157 C158 1.398 . S
C157 C160 1.392 . S
C158 C157 1.398 . S
C158 C161 1.372 . S
C158 H168 0.931 . S
C159 C156 1.382 . S
C159 C161 1.390 . S
C159 H169 0.931 . S
C160 C156 1.390 . S
C160 C157 1.392 . S
C160 H170 0.930 . S
C161 C158 1.372 . S
C161 C159 1.390 . S
C161 H171 0.929 . S
C162 O142 1.255 . S
C162 O143 1.257 . S
C163 Eu99 2.787 . S
C163 O138 1.252 . S
C163 O141 1.268 . S
C163 C156 1.506 . S
H164 C147 0.931 . S
H165 C148 0.931 . S
H166 C149 0.929 . S
H167 C150 0.930 . S
H168 C158 0.931 . S
H169 C159 0.931 . S
H170 C160 0.930 . S
H171 C161 0.929 . S
Eu172 N201 2.600 . S
Eu172 N207 2.562 . S
Eu172 O216 2.462 . S
Eu172 O217 2.373 . S
Eu172 O219 2.432 . S
Eu172 O220 2.291 . S
Eu172 O224 2.335 . S
Eu172 O227 2.372 . S
Eu172 C236 2.787 . S
C173 N174 1.365 . S
C173 C176 1.405 . S
C173 C180 1.448 . S
N174 C173 1.365 . S
N174 C177 1.319 . S
N174 Eu183 2.600 . S
C175 C177 1.397 . S
C175 C178 1.367 . S
C175 H195 0.931 . S
C176 C173 1.405 . S
C176 C178 1.403 . S
C176 C182 1.439 . S
C177 N174 1.319 . S
C177 C175 1.397 . S
C177 H188 0.930 . S
C178 C175 1.367 . S
C178 C176 1.403 . S
C178 H199 0.929 . S
C179 C180 1.430 . S
C179 C181 1.387 . S
C179 C185 1.404 . S
C180 C173 1.448 . S
C180 C179 1.430 . S
C180 N184 1.351 . S
C181 C179 1.387 . S
C181 C182 1.374 . S
C181 H196 0.931 . S
C182 C176 1.439 . S
C182 C181 1.374 . S
C182 H197 0.931 . S
Eu183 N174 2.600 . S
Eu183 N184 2.562 . S
Eu183 O218 2.335 . S
Eu183 O221 2.372 . S
Eu183 O222 2.462 . S
Eu183 O223 2.373 . S
Eu183 O225 2.432 . S
Eu183 O226 2.291 . S
Eu183 C247 2.787 . S
N184 C180 1.351 . S
N184 Eu183 2.562 . S
N184 C186 1.325 . S
C185 C179 1.404 . S
C185 C187 1.366 . S
C185 H193 0.930 . S
C186 N184 1.325 . S
C186 C187 1.416 . S
C186 H192 0.929 . S
C187 C185 1.366 . S
C187 C186 1.416 . S
C187 H189 0.930 . S
H188 C177 0.930 . S
H189 C187 0.930 . S
H190 C205 0.930 . S
H191 C212 0.930 . S
H192 C186 0.929 . S
H193 C185 0.930 . S
H194 C208 0.929 . S
H195 C175 0.931 . S
H196 C181 0.931 . S
H197 C182 0.931 . S
H198 C203 0.931 . S
H199 C178 0.929 . S
H200 C211 0.930 . S
N201 Eu172 2.600 . S
N201 C202 1.365 . S
N201 C205 1.319 . S
C202 N201 1.365 . S
C202 C204 1.405 . S
C202 C210 1.448 . S
C203 H198 0.931 . S
C203 C205 1.397 . S
C203 C206 1.367 . S
C204 C202 1.405 . S
C204 C206 1.403 . S
C204 C237 1.439 . S
C205 H190 0.930 . S
C205 N201 1.319 . S
C205 C203 1.397 . S
C206 C203 1.367 . S
C206 C204 1.403 . S
C206 H213 0.929 . S
N207 Eu172 2.562 . S
N207 C208 1.325 . S
N207 C210 1.351 . S
C208 H194 0.929 . S
C208 N207 1.325 . S
C208 C212 1.416 . S
C209 C210 1.430 . S
C209 C211 1.404 . S
C209 C238 1.387 . S
C210 C202 1.448 . S
C210 N207 1.351 . S
C210 C209 1.430 . S
C211 H200 0.930 . S
C211 C209 1.404 . S
C211 C212 1.366 . S
C212 H191 0.930 . S
C212 C208 1.416 . S
C212 C211 1.366 . S
H213 C206 0.929 . S
H214 C237 0.931 . S
H215 C238 0.931 . S
O216 Eu172 2.462 . S
O216 C236 1.252 . S
O217 Eu172 2.373 . S
O217 C228 1.249 . S
O218 Eu183 2.335 . S
O218 C228 1.264 . S
O219 Eu172 2.432 . S
O219 C236 1.268 . S
O220 Eu172 2.291 . S
O220 C235 1.255 . S
O221 Eu183 2.372 . S
O221 C235 1.257 . S
O222 Eu183 2.462 . S
O222 C247 1.252 . S
O223 Eu183 2.373 . S
O223 C239 1.249 . S
O224 Eu172 2.335 . S
O224 C239 1.264 . S
O225 Eu183 2.432 . S
O225 C247 1.268 . S
O226 Eu183 2.291 . S
O226 C246 1.255 . S
O227 Eu172 2.372 . S
O227 C246 1.257 . S
C228 O217 1.249 . S
C228 O218 1.264 . S
C229 C232 1.382 . S
C229 C234 1.390 . S
C229 C236 1.506 . S
C230 C231 1.398 . S
C230 C234 1.392 . S
C231 C230 1.398 . S
C231 C233 1.372 . S
C231 H248 0.931 . S
C232 C229 1.382 . S
C232 C233 1.390 . S
C232 H249 0.931 . S
C233 C231 1.372 . S
C233 C232 1.390 . S
C233 H250 0.929 . S
C234 C229 1.390 . S
C234 C230 1.392 . S
C234 H251 0.930 . S
C235 O220 1.255 . S
C235 O221 1.257 . S
C236 Eu172 2.787 . S
C236 O216 1.252 . S
C236 O219 1.268 . S
C236 C229 1.506 . S
C237 C204 1.439 . S
C237 H214 0.931 . S
C237 C238 1.374 . S
C238 C209 1.387 . S
C238 H215 0.931 . S
C238 C237 1.374 . S
C239 O223 1.249 . S
C239 O224 1.264 . S
C240 C243 1.382 . S
C240 C244 1.390 . S
C240 C247 1.506 . S
C241 C242 1.398 . S
C241 C244 1.392 . S
C242 C241 1.398 . S
C242 C245 1.372 . S
C242 H252 0.931 . S
C243 C240 1.382 . S
C243 C245 1.390 . S
C243 H253 0.931 . S
C244 C240 1.390 . S
C244 C241 1.392 . S
C244 H254 0.930 . S
C245 C242 1.372 . S
C245 C243 1.390 . S
C245 H255 0.929 . S
C246 O226 1.255 . S
C246 O227 1.257 . S
C247 Eu183 2.787 . S
C247 O222 1.252 . S
C247 O225 1.268 . S
C247 C240 1.506 . S
H248 C231 0.931 . S
H249 C232 0.931 . S
H250 C233 0.929 . S
H251 C234 0.930 . S
H252 C242 0.931 . S
H253 C243 0.931 . S
H254 C244 0.930 . S
H255 C245 0.929 . S
Eu256 N285 2.600 . S
Eu256 N291 2.562 . S
Eu256 O300 2.462 . S
Eu256 O301 2.373 . S
Eu256 O303 2.432 . S
Eu256 O304 2.291 . S
Eu256 O308 2.342 . S
Eu256 O311 2.372 . S
Eu256 C320 2.787 . S
C257 N258 1.365 . S
C257 C260 1.405 . S
C257 C264 1.448 . S
N258 C257 1.365 . S
N258 C261 1.319 . S
N258 Eu267 2.600 . S
C259 C261 1.397 . S
C259 C262 1.367 . S
C259 H279 0.931 . S
C260 C257 1.405 . S
C260 C262 1.403 . S
C260 C266 1.439 . S
C261 N258 1.319 . S
C261 C259 1.397 . S
C261 H272 0.930 . S
C262 C259 1.367 . S
C262 C260 1.403 . S
C262 H283 0.929 . S
C263 C264 1.430 . S
C263 C265 1.387 . S
C263 C269 1.404 . S
C264 C257 1.448 . S
C264 C263 1.430 . S
C264 N268 1.351 . S
C265 C263 1.387 . S
C265 C266 1.374 . S
C265 H280 0.931 . S
C266 C260 1.439 . S
C266 C265 1.374 . S
C266 H281 0.931 . S
Eu267 N258 2.600 . S
Eu267 N268 2.562 . S
Eu267 O302 2.335 1_655 S
Eu267 O305 2.372 . S
Eu267 O306 2.462 . S
Eu267 O307 2.373 . S
Eu267 O309 2.432 . S
Eu267 O310 2.291 1_655 S
Eu267 C331 2.787 . S
N268 C264 1.351 . S
N268 Eu267 2.562 . S
N268 C270 1.325 . S
C269 C263 1.404 . S
C269 C271 1.366 . S
C269 H277 0.930 . S
C270 N268 1.325 . S
C270 C271 1.416 . S
C270 H276 0.929 . S
C271 C269 1.366 . S
C271 C270 1.416 . S
C271 H273 0.930 . S
H272 C261 0.930 . S
H273 C271 0.930 . S
H274 C289 0.930 . S
H275 C296 0.930 . S
H276 C270 0.929 . S
H277 C269 0.930 . S
H278 C292 0.929 . S
H279 C259 0.931 . S
H280 C265 0.931 . S
H281 C266 0.931 . S
H282 C287 0.931 . S
H283 C262 0.929 . S
H284 C295 0.930 . S
N285 Eu256 2.600 . S
N285 C286 1.365 . S
N285 C289 1.319 . S
C286 N285 1.365 . S
C286 C288 1.405 . S
C286 C294 1.448 . S
C287 H282 0.931 . S
C287 C289 1.397 . S
C287 C290 1.367 . S
C288 C286 1.405 . S
C288 C290 1.403 . S
C288 C321 1.439 . S
C289 H274 0.930 . S
C289 N285 1.319 . S
C289 C287 1.397 . S
C290 C287 1.367 . S
C290 C288 1.403 . S
C290 H297 0.929 . S
N291 Eu256 2.562 . S
N291 C292 1.325 . S
N291 C294 1.351 . S
C292 H278 0.929 . S
C292 N291 1.325 . S
C292 C296 1.416 1_565 S
C293 C294 1.430 . S
C293 C295 1.404 1_565 S
C293 C322 1.387 . S
C294 C286 1.448 . S
C294 N291 1.351 . S
C294 C293 1.430 . S
C295 H284 0.930 . S
C295 C293 1.404 1_545 S
C295 C296 1.366 . S
C296 H275 0.930 . S
C296 C292 1.416 1_545 S
C296 C295 1.366 . S
H297 C290 0.929 . S
H298 C321 0.931 . S
H299 C322 0.931 1_545 S
O300 Eu256 2.462 . S
O300 C320 1.252 . S
O301 Eu256 2.373 . S
O301 C312 1.249 . S
O302 Eu267 2.335 1_455 S
O302 C312 1.264 . S
O303 Eu256 2.432 . S
O303 C320 1.268 . S
O304 Eu256 2.291 . S
O304 C319 1.255 1_455 S
O305 Eu267 2.372 . S
O305 C319 1.257 . S
O306 Eu267 2.462 . S
O306 C331 1.252 . S
O307 Eu267 2.373 . S
O307 C323 1.249 . S
O308 Eu256 2.342 . S
O308 C323 1.255 1_455 S
O309 Eu267 2.432 . S
O309 C331 1.268 . S
O310 Eu267 2.291 1_455 S
O310 C330 1.255 . S
O311 Eu256 2.372 . S
O311 C330 1.257 . S
C312 O301 1.249 . S
C312 O302 1.264 . S
C313 C316 1.382 . S
C313 C318 1.390 . S
C313 C320 1.506 . S
C314 C315 1.398 . S
C314 C318 1.392 . S
C315 C314 1.398 . S
C315 C317 1.372 . S
C315 H332 0.931 . S
C316 C313 1.382 . S
C316 C317 1.390 . S
C316 H333 0.931 . S
C317 C315 1.372 . S
C317 C316 1.390 . S
C317 H334 0.929 . S
C318 C313 1.390 . S
C318 C314 1.392 . S
C318 H335 0.930 . S
C319 O304 1.255 1_655 S
C319 O305 1.257 . S
C320 Eu256 2.787 . S
C320 O300 1.252 . S
C320 O303 1.268 . S
C320 C313 1.506 . S
C321 C288 1.439 . S
C321 H298 0.931 . S
C321 C322 1.374 . S
C322 C293 1.387 . S
C322 H299 0.931 1_565 S
C322 C321 1.374 . S
C323 O307 1.249 . S
C323 O308 1.255 1_655 S
C324 C327 1.382 . S
C324 C328 1.390 . S
C324 C331 1.506 . S
C325 C326 1.398 . S
C325 C328 1.392 . S
C326 C325 1.398 . S
C326 C329 1.372 . S
C326 H336 0.931 . S
C327 C324 1.382 . S
C327 C329 1.390 . S
C327 H337 0.931 . S
C328 C324 1.390 . S
C328 C325 1.392 . S
C328 H338 0.930 . S
C329 C326 1.372 . S
C329 C327 1.390 . S
C329 H339 0.929 . S
C330 O310 1.255 . S
C330 O311 1.257 . S
C331 Eu267 2.787 . S
C331 O306 1.252 . S
C331 O309 1.268 . S
C331 C324 1.506 . S
H332 C315 0.931 . S
H333 C316 0.931 . S
H334 C317 0.929 . S
H335 C318 0.930 . S
H336 C326 0.931 . S
H337 C327 0.931 . S
H338 C328 0.930 . S
H339 C329 0.929 . S
Eu340 N369 2.600 . S
Eu340 N375 2.562 . S
Eu340 O384 2.462 . S
Eu340 O385 2.373 . S
Eu340 O387 2.432 . S
Eu340 O388 2.291 . S
Eu340 O392 2.335 . S
Eu340 O395 2.372 . S
Eu340 C404 2.787 . S
C341 N342 1.365 . S
C341 C344 1.405 . S
C341 C348 1.448 . S
N342 C341 1.365 . S
N342 C345 1.319 . S
N342 Eu351 2.600 . S
C343 C345 1.397 . S
C343 C346 1.367 . S
C343 H363 0.931 . S
C344 C341 1.405 . S
C344 C346 1.403 . S
C344 C350 1.439 . S
C345 N342 1.319 . S
C345 C343 1.397 . S
C345 H356 0.930 . S
C346 C343 1.367 . S
C346 C344 1.403 . S
C346 H367 0.929 . S
C347 C348 1.430 . S
C347 C349 1.387 . S
C347 C353 1.404 . S
C348 C341 1.448 . S
C348 C347 1.430 . S
C348 N352 1.351 . S
C349 C347 1.387 . S
C349 C350 1.374 . S
C349 H364 0.931 . S
C350 C344 1.439 . S
C350 C349 1.374 . S
C350 H365 0.931 . S
Eu351 N342 2.600 . S
Eu351 N352 2.562 . S
Eu351 O386 2.335 . S
Eu351 O389 2.372 . S
Eu351 O390 2.462 . S
Eu351 O391 2.373 . S
Eu351 O393 2.432 . S
Eu351 O394 2.291 . S
Eu351 C415 2.787 . S
N352 C348 1.351 . S
N352 Eu351 2.562 . S
N352 C354 1.325 . S
C353 C347 1.404 . S
C353 C355 1.366 . S
C353 H361 0.930 . S
C354 N352 1.325 . S
C354 C355 1.416 . S
C354 H360 0.929 . S
C355 C353 1.366 . S
C355 C354 1.416 . S
C355 H357 0.930 . S
H356 C345 0.930 . S
H357 C355 0.930 . S
H358 C373 0.930 . S
H359 C380 0.930 . S
H360 C354 0.929 . S
H361 C353 0.930 . S
H362 C376 0.929 . S
H363 C343 0.931 . S
H364 C349 0.931 . S
H365 C350 0.931 . S
H366 C371 0.931 . S
H367 C346 0.929 . S
H368 C379 0.930 . S
N369 Eu340 2.600 . S
N369 C370 1.365 . S
N369 C373 1.319 . S
C370 N369 1.365 . S
C370 C372 1.405 . S
C370 C378 1.448 . S
C371 H366 0.931 . S
C371 C373 1.397 . S
C371 C374 1.367 . S
C372 C370 1.405 . S
C372 C374 1.403 . S
C372 C405 1.439 . S
C373 H358 0.930 . S
C373 N369 1.319 . S
C373 C371 1.397 . S
C374 C371 1.367 . S
C374 C372 1.403 . S
C374 H381 0.929 . S
N375 Eu340 2.562 . S
N375 C376 1.325 . S
N375 C378 1.351 . S
C376 H362 0.929 . S
C376 N375 1.325 . S
C376 C380 1.416 . S
C377 C378 1.430 . S
C377 C379 1.404 . S
C377 C406 1.387 . S
C378 C370 1.448 . S
C378 N375 1.351 . S
C378 C377 1.430 . S
C379 H368 0.930 . S
C379 C377 1.404 . S
C379 C380 1.366 . S
C380 H359 0.930 . S
C380 C376 1.416 . S
C380 C379 1.366 . S
H381 C374 0.929 . S
H382 C405 0.931 . S
H383 C406 0.931 . S
O384 Eu340 2.462 . S
O384 C404 1.252 . S
O385 Eu340 2.373 . S
O385 C396 1.249 . S
O386 Eu351 2.335 . S
O386 C396 1.264 . S
O387 Eu340 2.432 . S
O387 C404 1.268 . S
O388 Eu340 2.291 . S
O388 C403 1.255 . S
O389 Eu351 2.372 . S
O389 C403 1.257 . S
O390 Eu351 2.462 . S
O390 C415 1.252 . S
O391 Eu351 2.373 . S
O391 C407 1.249 . S
O392 Eu340 2.335 . S
O392 C407 1.264 . S
O393 Eu351 2.432 . S
O393 C415 1.268 . S
O394 Eu351 2.291 . S
O394 C414 1.255 . S
O395 Eu340 2.372 . S
O395 C414 1.257 . S
C396 O385 1.249 . S
C396 O386 1.264 . S
C397 C400 1.382 . S
C397 C402 1.390 . S
C397 C404 1.506 . S
C398 C399 1.398 . S
C398 C402 1.392 . S
C399 C398 1.398 . S
C399 C401 1.372 . S
C399 H416 0.931 . S
C400 C397 1.382 . S
C400 C401 1.390 . S
C400 H417 0.931 . S
C401 C399 1.372 . S
C401 C400 1.390 . S
C401 H418 0.929 . S
C402 C397 1.390 . S
C402 C398 1.392 . S
C402 H419 0.930 . S
C403 O388 1.255 . S
C403 O389 1.257 . S
C404 Eu340 2.787 . S
C404 O384 1.252 . S
C404 O387 1.268 . S
C404 C397 1.506 . S
C405 C372 1.439 . S
C405 H382 0.931 . S
C405 C406 1.374 . S
C406 C377 1.387 . S
C406 H383 0.931 . S
C406 C405 1.374 . S
C407 O391 1.249 . S
C407 O392 1.264 . S
C408 C411 1.382 . S
C408 C412 1.390 . S
C408 C415 1.506 . S
C409 C410 1.398 . S
C409 C412 1.392 . S
C410 C409 1.398 . S
C410 C413 1.372 . S
C410 H420 0.931 . S
C411 C408 1.382 . S
C411 C413 1.390 . S
C411 H421 0.931 . S
C412 C408 1.390 . S
C412 C409 1.392 . S
C412 H422 0.930 . S
C413 C410 1.372 . S
C413 C411 1.390 . S
C413 H423 0.929 . S
C414 O394 1.255 . S
C414 O395 1.257 . S
C415 Eu351 2.787 . S
C415 O390 1.252 . S
C415 O393 1.268 . S
C415 C408 1.506 . S
H416 C399 0.931 . S
H417 C400 0.931 . S
H418 C401 0.929 . S
H419 C402 0.930 . S
H420 C410 0.931 . S
H421 C411 0.931 . S
H422 C412 0.930 . S
H423 C413 0.929 . S
H424 C430 0.930 . S
H425 C433 0.930 . S
H426 C434 0.930 . S
H427 C435 0.930 . S
H428 C438 0.930 . S
H429 C439 0.930 . S
C430 H424 0.930 . S
C430 C431 1.355 . S
C430 C432 1.415 . S
C431 C430 1.355 . S
C431 C433 1.419 . S
C432 C430 1.415 . S
C432 C437 1.425 . S
C432 C439 1.409 1_565 S
C433 H425 0.930 . S
C433 C431 1.419 . S
C433 C434 1.362 . S
C434 H426 0.930 . S
C434 C433 1.362 . S
C434 C437 1.409 . S
C435 H427 0.930 . S
C435 C436 1.355 1_565 S
C435 C437 1.415 . S
C436 C435 1.355 1_545 S
C436 C438 1.419 . S
C437 C432 1.425 . S
C437 C434 1.409 . S
C437 C435 1.415 . S
C438 H428 0.930 . S
C438 C436 1.419 . S
C438 C439 1.362 . S
C439 H429 0.930 . S
C439 C432 1.409 1_545 S
C439 C438 1.362 . S
H440 C446 0.930 . S
H441 C449 0.930 . S
H442 C450 0.930 . S
H443 C451 0.930 . S
H444 C454 0.930 . S
H445 C455 0.930 . S
C446 H440 0.930 . S
C446 C447 1.355 . S
C446 C448 1.415 . S
C447 C446 1.355 . S
C447 C449 1.419 . S
C448 C446 1.415 . S
C448 C453 1.425 . S
C448 C455 1.409 . S
C449 H441 0.930 . S
C449 C447 1.419 . S
C449 C450 1.362 . S
C450 H442 0.930 . S
C450 C449 1.362 . S
C450 C453 1.409 . S
C451 H443 0.930 . S
C451 C452 1.355 . S
C451 C453 1.415 . S
C452 C451 1.355 . S
C452 C454 1.419 . S
C453 C448 1.425 . S
C453 C450 1.409 . S
C453 C451 1.415 . S
C454 H444 0.930 . S
C454 C452 1.419 . S
C454 C455 1.362 . S
C455 H445 0.930 . S
C455 C448 1.409 . S
C455 C454 1.362 . S
H456 C462 0.930 . S
H457 C465 0.930 . S
H458 C466 0.930 . S
H459 C467 0.930 . S
H460 C470 0.930 . S
H461 C471 0.930 . S
C462 H456 0.930 . S
C462 C463 1.355 . S
C462 C464 1.415 . S
C463 C462 1.355 . S
C463 C465 1.419 . S
C464 C462 1.415 . S
C464 C469 1.425 . S
C464 C471 1.409 . S
C465 H457 0.930 . S
C465 C463 1.419 . S
C465 C466 1.362 . S
C466 H458 0.930 . S
C466 C465 1.362 . S
C466 C469 1.409 . S
C467 H459 0.930 . S
C467 C468 1.355 . S
C467 C469 1.415 . S
C468 C467 1.355 . S
C468 C470 1.419 . S
C469 C464 1.425 . S
C469 C466 1.409 . S
C469 C467 1.415 . S
C470 H460 0.930 . S
C470 C468 1.419 . S
C470 C471 1.362 . S
C471 H461 0.930 . S
C471 C464 1.409 . S
C471 C470 1.362 . S
H472 C478 0.930 . S
H473 C481 0.930 . S
H474 C482 0.930 . S
H475 C483 0.930 . S
H476 C486 0.930 . S
H477 C487 0.930 . S
C478 H472 0.930 . S
C478 C479 1.355 . S
C478 C480 1.415 . S
C479 C478 1.355 . S
C479 C481 1.419 . S
C480 C478 1.415 . S
C480 C485 1.425 . S
C480 C487 1.409 . S
C481 H473 0.930 . S
C481 C479 1.419 . S
C481 C482 1.362 . S
C482 H474 0.930 . S
C482 C481 1.362 . S
C482 C485 1.409 . S
C483 H475 0.930 . S
C483 C484 1.355 . S
C483 C485 1.415 1_545 S
C484 C483 1.355 . S
C484 C486 1.419 . S
C485 C480 1.425 . S
C485 C482 1.409 . S
C485 C483 1.415 1_565 S
C486 H476 0.930 . S
C486 C484 1.419 . S
C486 C487 1.362 1_545 S
C487 H477 0.930 . S
C487 C480 1.409 . S
C487 C486 1.362 1_565 S
H488 C494 0.930 . S
H489 C497 0.930 . S
H490 C498 0.930 . S
H491 C499 0.930 . S
H492 C502 0.930 1_455 S
H493 C503 0.930 . S
C494 H488 0.930 . S
C494 C495 1.355 . S
C494 C496 1.415 . S
C495 C494 1.355 . S
C495 C497 1.419 . S
C496 C494 1.415 . S
C496 C501 1.425 . S
C496 C503 1.409 . S
C497 H489 0.930 . S
C497 C495 1.419 . S
C497 C498 1.362 . S
C498 H490 0.930 . S
C498 C497 1.362 . S
C498 C501 1.409 . S
C499 H491 0.930 . S
C499 C500 1.355 . S
C499 C501 1.415 1_565 S
C500 C499 1.355 . S
C500 C502 1.419 . S
C501 C496 1.425 . S
C501 C498 1.409 . S
C501 C499 1.415 1_545 S
C502 H492 0.930 1_655 S
C502 C500 1.419 . S
C502 C503 1.362 1_565 S
C503 H493 0.930 . S
C503 C496 1.409 . S
C503 C502 1.362 1_545 S
H504 C510 0.930 . S
H505 C513 0.930 . S
H506 C514 0.930 . S
H507 C515 0.930 . S
H508 C518 0.930 . S
H509 C519 0.930 . S
C510 H504 0.930 . S
C510 C511 1.355 . S
C510 C512 1.415 . S
C511 C510 1.355 . S
C511 C513 1.419 . S
C512 C510 1.415 . S
C512 C517 1.425 . S
C512 C519 1.409 . S
C513 H505 0.930 . S
C513 C511 1.419 . S
C513 C514 1.362 . S
C514 H506 0.930 . S
C514 C513 1.362 . S
C514 C517 1.409 . S
C515 H507 0.930 . S
C515 C516 1.355 . S
C515 C517 1.415 . S
C516 C515 1.355 . S
C516 C518 1.419 . S
C517 C512 1.425 . S
C517 C514 1.409 . S
C517 C515 1.415 . S
C518 H508 0.930 . S
C518 C516 1.419 . S
C518 C519 1.362 . S
C519 H509 0.930 . S
C519 C512 1.409 . S
C519 C518 1.362 . S
H520 C526 0.930 . S
H521 C529 0.930 . S
H522 C530 0.930 . S
H523 C531 0.930 . S
H524 C534 0.930 . S
H525 C535 0.930 . S
C526 H520 0.930 . S
C526 C527 1.355 . S
C526 C528 1.415 . S
C527 C526 1.355 . S
C527 C529 1.419 . S
C528 C526 1.415 . S
C528 C533 1.425 . S
C528 C535 1.409 . S
C529 H521 0.930 . S
C529 C527 1.419 . S
C529 C530 1.362 . S
C530 H522 0.930 . S
C530 C529 1.362 . S
C530 C533 1.409 . S
C531 H523 0.930 . S
C531 C532 1.355 . S
C531 C533 1.415 . S
C532 C531 1.355 . S
C532 C534 1.419 . S
C533 C528 1.425 . S
C533 C530 1.409 . S
C533 C531 1.415 . S
C534 H524 0.930 . S
C534 C532 1.419 . S
C534 C535 1.362 . S
C535 H525 0.930 . S
C535 C528 1.409 . S
C535 C534 1.362 . S
H536 C542 0.930 . S
H537 C545 0.930 . S
H538 C546 0.930 . S
H539 C547 0.930 . S
H540 C550 0.930 . S
H541 C551 0.930 . S
C542 H536 0.930 . S
C542 C543 1.355 . S
C542 C544 1.415 . S
C543 C542 1.355 . S
C543 C545 1.419 . S
C544 C542 1.415 . S
C544 C549 1.425 1_545 S
C544 C551 1.409 . S
C545 H537 0.930 . S
C545 C543 1.419 . S
C545 C546 1.362 1_545 S
C546 H538 0.930 . S
C546 C545 1.362 1_565 S
C546 C549 1.409 . S
C547 H539 0.930 . S
C547 C548 1.355 . S
C547 C549 1.415 . S
C548 C547 1.355 . S
C548 C550 1.419 1_565 S
C549 C544 1.425 1_565 S
C549 C546 1.409 . S
C549 C547 1.415 . S
C550 H540 0.930 . S
C550 C548 1.419 1_545 S
C550 C551 1.362 . S
C551 H541 0.930 . S
C551 C544 1.409 . S
C551 C550 1.362 . S
H552 C558 0.930 . S
H553 C561 0.930 . S
H554 C562 0.930 . S
H555 C563 0.930 . S
H556 C566 0.930 . S
H557 C567 0.930 . S
C558 H552 0.930 . S
C558 C559 1.355 . S
C558 C560 1.415 1_556 S
C559 C558 1.355 . S
C559 C561 1.419 . S
C560 C558 1.415 1_554 S
C560 C565 1.425 . S
C560 C567 1.409 . S
C561 H553 0.930 . S
C561 C559 1.419 . S
C561 C562 1.362 1_556 S
C562 H554 0.930 . S
C562 C561 1.362 1_554 S
C562 C565 1.409 . S
C563 H555 0.930 . S
C563 C564 1.355 . S
C563 C565 1.415 . S
C564 C563 1.355 . S
C564 C566 1.419 . S
C565 C560 1.425 . S
C565 C562 1.409 . S
C565 C563 1.415 . S
C566 H556 0.930 . S
C566 C564 1.419 . S
C566 C567 1.362 . S
C567 H557 0.930 . S
C567 C560 1.409 . S
C567 C566 1.362 . S
H568 C574 0.930 . S
H569 C577 0.930 . S
H570 C578 0.930 . S
H571 C579 0.930 . S
H572 C582 0.930 . S
H573 C583 0.930 . S
C574 H568 0.930 . S
C574 C575 1.355 . S
C574 C576 1.415 . S
C575 C574 1.355 . S
C575 C577 1.419 . S
C576 C574 1.415 . S
C576 C581 1.425 . S
C576 C583 1.409 . S
C577 H569 0.930 . S
C577 C575 1.419 . S
C577 C578 1.362 . S
C578 H570 0.930 . S
C578 C577 1.362 . S
C578 C581 1.409 . S
C579 H571 0.930 . S
C579 C580 1.355 . S
C579 C581 1.415 . S
C580 C579 1.355 . S
C580 C582 1.419 . S
C581 C576 1.425 . S
C581 C578 1.409 . S
C581 C579 1.415 . S
C582 H572 0.930 . S
C582 C580 1.419 . S
C582 C583 1.362 . S
C583 H573 0.930 . S
C583 C576 1.409 . S
C583 C582 1.362 . S
H584 C590 0.930 . S
H585 C593 0.930 . S
H586 C594 0.930 . S
H587 C595 0.930 . S
H588 C598 0.930 . S
H589 C599 0.930 . S
C590 H584 0.930 . S
C590 C591 1.355 . S
C590 C592 1.415 1_554 S
C591 C590 1.355 . S
C591 C593 1.419 . S
C592 C590 1.415 1_556 S
C592 C597 1.425 . S
C592 C599 1.409 . S
C593 H585 0.930 . S
C593 C591 1.419 . S
C593 C594 1.362 . S
C594 H586 0.930 . S
C594 C593 1.362 . S
C594 C597 1.409 1_554 S
C595 H587 0.930 . S
C595 C596 1.355 . S
C595 C597 1.415 . S
C596 C595 1.355 . S
C596 C598 1.419 . S
C597 C592 1.425 . S
C597 C594 1.409 1_556 S
C597 C595 1.415 . S
C598 H588 0.930 . S
C598 C596 1.419 . S
C598 C599 1.362 . S
C599 H589 0.930 . S
C599 C592 1.409 . S
C599 C598 1.362 . S
H600 C606 0.930 . S
H601 C609 0.930 . S
H602 C610 0.930 . S
H603 C611 0.930 . S
H604 C614 0.930 . S
H605 C615 0.930 . S
C606 H600 0.930 . S
C606 C607 1.355 . S
C606 C608 1.415 . S
C607 C606 1.355 . S
C607 C609 1.419 . S
C608 C606 1.415 . S
C608 C613 1.425 . S
C608 C615 1.409 . S
C609 H601 0.930 . S
C609 C607 1.419 . S
C609 C610 1.362 . S
C610 H602 0.930 . S
C610 C609 1.362 . S
C610 C613 1.409 . S
C611 H603 0.930 . S
C611 C612 1.355 . S
C611 C613 1.415 . S
C612 C611 1.355 . S
C612 C614 1.419 . S
C613 C608 1.425 . S
C613 C610 1.409 . S
C613 C611 1.415 . S
C614 H604 0.930 . S
C614 C612 1.419 . S
C614 C615 1.362 . S
C615 H605 0.930 . S
C615 C608 1.409 . S
C615 C614 1.362 . S
H616 C622 0.930 . S
H617 C625 0.925 1_554 S
H618 C626 0.930 . S
H619 C627 0.930 . S
H620 C630 0.930 . S
H621 C631 0.930 . S
C622 H616 0.930 . S
C622 C623 1.355 . S
C622 C624 1.415 1_554 S
C623 C622 1.355 . S
C623 C625 1.412 1_554 S
C624 C622 1.415 1_556 S
C624 C629 1.425 . S
C624 C631 1.409 . S
C625 H617 0.925 1_556 S
C625 C623 1.412 1_556 S
C625 C626 1.374 . S
C626 H618 0.930 . S
C626 C625 1.374 . S
C626 C629 1.409 . S
C627 H619 0.930 . S
C627 C628 1.355 . S
C627 C629 1.415 . S
C628 C627 1.355 . S
C628 C630 1.419 . S
C629 C624 1.425 . S
C629 C626 1.409 . S
C629 C627 1.415 . S
C630 H620 0.930 . S
C630 C628 1.419 . S
C630 C631 1.362 . S
C631 H621 0.930 . S
C631 C624 1.409 . S
C631 C630 1.362 . S
H632 C638 0.930 . S
H633 C641 0.930 . S
H634 C642 0.930 . S
H635 C643 0.930 . S
H636 C646 0.930 . S
H637 C647 0.930 . S
C638 H632 0.930 . S
C638 C639 1.355 . S
C638 C640 1.415 . S
C639 C638 1.355 . S
C639 C641 1.419 . S
C640 C638 1.415 . S
C640 C645 1.425 . S
C640 C647 1.409 . S
C641 H633 0.930 . S
C641 C639 1.419 . S
C641 C642 1.362 . S
C642 H634 0.930 . S
C642 C641 1.362 . S
C642 C645 1.409 . S
C643 H635 0.930 . S
C643 C644 1.355 . S
C643 C645 1.415 . S
C644 C643 1.355 . S
C644 C646 1.419 . S
C645 C640 1.425 . S
C645 C642 1.409 . S
C645 C643 1.415 . S
C646 H636 0.930 . S
C646 C644 1.419 . S
C646 C647 1.362 . S
C647 H637 0.930 . S
C647 C640 1.409 . S
C647 C646 1.362 . S
H648 C654 0.930 . S
H649 C657 0.930 . S
H650 C658 0.931 . S
H651 C659 0.930 . S
H652 C662 0.930 . S
H653 C663 0.930 . S
C654 H648 0.930 . S
C654 C655 1.355 1_554 S
C654 C656 1.415 . S
C655 C654 1.355 1_556 S
C655 C657 1.419 . S
C656 C654 1.415 . S
C656 C661 1.425 . S
C656 C663 1.409 . S
C657 H649 0.930 . S
C657 C655 1.419 . S
C657 C658 1.362 1_556 S
C658 H650 0.931 . S
C658 C657 1.362 1_554 S
C658 C661 1.409 . S
C659 H651 0.930 . S
C659 C660 1.355 . S
C659 C661 1.415 . S
C660 C659 1.355 . S
C660 C662 1.419 . S
C661 C656 1.425 . S
C661 C658 1.409 . S
C661 C659 1.415 . S
C662 H652 0.930 . S
C662 C660 1.419 . S
C662 C663 1.362 . S
C663 H653 0.930 . S
C663 C656 1.409 . S
C663 C662 1.362 . S
H664 C670 0.930 . S
H665 C673 0.930 . S
H666 C674 0.930 . S
H667 C675 0.930 . S
H668 C678 0.930 . S
H669 C679 0.930 . S
C670 H664 0.930 . S
C670 C671 1.355 . S
C670 C672 1.415 . S
C671 C670 1.355 . S
C671 C673 1.419 . S
C672 C670 1.415 . S
C672 C677 1.425 . S
C672 C679 1.409 . S
C673 H665 0.930 . S
C673 C671 1.419 . S
C673 C674 1.362 . S
C674 H666 0.930 . S
C674 C673 1.362 . S
C674 C677 1.409 . S
C675 H667 0.930 . S
C675 C676 1.355 . S
C675 C677 1.415 . S
C676 C675 1.355 . S
C676 C678 1.419 . S
C677 C672 1.425 . S
C677 C674 1.409 . S
C677 C675 1.415 . S
C678 H668 0.930 . S
C678 C676 1.419 . S
C678 C679 1.362 . S
C679 H669 0.930 . S
C679 C672 1.409 . S
C679 C678 1.362 . S
H680 C686 0.930 . S
H681 C689 0.930 . S
H682 C690 0.930 . S
H683 C691 0.930 . S
H684 C694 0.930 . S
H685 C695 0.930 . S
C686 H680 0.930 . S
C686 C687 1.355 . S
C686 C688 1.415 . S
C687 C686 1.355 . S
C687 C689 1.419 . S
C688 C686 1.415 . S
C688 C693 1.425 . S
C688 C695 1.409 . S
C689 H681 0.930 . S
C689 C687 1.419 . S
C689 C690 1.362 . S
C690 H682 0.930 . S
C690 C689 1.362 . S
C690 C693 1.409 . S
C691 H683 0.930 . S
C691 C692 1.355 . S
C691 C693 1.415 . S
C692 C691 1.355 . S
C692 C694 1.419 . S
C693 C688 1.425 . S
C693 C690 1.409 . S
C693 C691 1.415 . S
C694 H684 0.930 . S
C694 C692 1.419 . S
C694 C695 1.362 . S
C695 H685 0.930 . S
C695 C688 1.409 . S
C695 C694 1.362 . S
H696 C702 0.930 . S
H697 C705 0.930 . S
H698 C706 0.930 . S
H699 C707 0.930 . S
H700 C710 0.930 . S
H701 C711 0.930 . S
C702 H696 0.930 . S
C702 C703 1.355 . S
C702 C704 1.415 . S
C703 C702 1.355 . S
C703 C705 1.419 . S
C704 C702 1.415 . S
C704 C709 1.425 . S
C704 C711 1.409 . S
C705 H697 0.930 . S
C705 C703 1.419 . S
C705 C706 1.362 . S
C706 H698 0.930 . S
C706 C705 1.362 . S
C706 C709 1.409 . S
C707 H699 0.930 . S
C707 C708 1.355 . S
C707 C709 1.415 . S
C708 C707 1.355 . S
C708 C710 1.419 . S
C709 C704 1.425 . S
C709 C706 1.409 . S
C709 C707 1.415 . S
C710 H700 0.930 . S
C710 C708 1.419 . S
C710 C711 1.362 . S
C711 H701 0.930 . S
C711 C704 1.409 . S
C711 C710 1.362 . S
H712 C718 0.930 . S
H713 C721 0.930 . S
H714 C722 0.930 . S
H715 C723 0.930 . S
H716 C726 0.930 . S
H717 C727 0.930 . S
C718 H712 0.930 . S
C718 C719 1.355 . S
C718 C720 1.415 . S
C719 C718 1.355 . S
C719 C721 1.419 . S
C720 C718 1.415 . S
C720 C725 1.425 . S
C720 C727 1.409 . S
C721 H713 0.930 . S
C721 C719 1.419 . S
C721 C722 1.362 . S
C722 H714 0.930 . S
C722 C721 1.362 . S
C722 C725 1.409 . S
C723 H715 0.930 . S
C723 C724 1.355 . S
C723 C725 1.415 . S
C724 C723 1.355 . S
C724 C726 1.419 . S
C725 C720 1.425 . S
C725 C722 1.409 . S
C725 C723 1.415 . S
C726 H716 0.930 . S
C726 C724 1.419 . S
C726 C727 1.362 . S
C727 H717 0.930 . S
C727 C720 1.409 . S
C727 C726 1.362 . S
H728 C734 0.930 . S
H729 C737 0.930 . S
H730 C738 0.930 . S
H731 C739 0.930 . S
H732 C742 0.930 1_455 S
H733 C743 0.930 1_455 S
C734 H728 0.930 . S
C734 C735 1.355 . S
C734 C736 1.415 . S
C735 C734 1.355 . S
C735 C737 1.419 . S
C736 C734 1.415 . S
C736 C741 1.425 . S
C736 C743 1.409 . S
C737 H729 0.930 . S
C737 C735 1.419 . S
C737 C738 1.362 . S
C738 H730 0.930 . S
C738 C737 1.362 . S
C738 C741 1.409 . S
C739 H731 0.930 . S
C739 C740 1.355 . S
C739 C741 1.415 . S
C740 C739 1.355 . S
C740 C742 1.419 . S
C741 C736 1.425 . S
C741 C738 1.409 . S
C741 C739 1.415 . S
C742 H732 0.930 1_655 S
C742 C740 1.419 . S
C742 C743 1.362 . S
C743 H733 0.930 1_655 S
C743 C736 1.409 . S
C743 C742 1.362 . S
H744 C750 0.930 . S
H745 C753 0.930 . S
H746 C754 0.930 . S
H747 C755 0.930 . S
H748 C758 0.930 1_455 S
H749 C759 0.930 . S
C750 H744 0.930 . S
C750 C751 1.355 . S
C750 C752 1.415 . S
C751 C750 1.355 . S
C751 C753 1.419 . S
C752 C750 1.415 . S
C752 C757 1.425 . S
C752 C759 1.409 . S
C753 H745 0.930 . S
C753 C751 1.419 . S
C753 C754 1.362 . S
C754 H746 0.930 . S
C754 C753 1.362 . S
C754 C757 1.409 . S
C755 H747 0.930 . S
C755 C756 1.355 . S
C755 C757 1.415 . S
C756 C755 1.355 . S
C756 C758 1.419 . S
C757 C752 1.425 . S
C757 C754 1.409 . S
C757 C755 1.415 . S
C758 H748 0.930 1_655 S
C758 C756 1.419 . S
C758 C759 1.362 . S
C759 H749 0.930 . S
C759 C752 1.409 . S
C759 C758 1.362 . S
H760 C766 0.930 . S
H761 C769 0.930 . S
H762 C770 0.930 . S
H763 C771 0.930 . S
H764 C774 0.930 . S
H765 C775 0.930 . S
C766 H760 0.930 . S
C766 C767 1.355 . S
C766 C768 1.415 . S
C767 C766 1.355 . S
C767 C769 1.419 . S
C768 C766 1.415 . S
C768 C773 1.425 . S
C768 C775 1.409 . S
C769 H761 0.930 . S
C769 C767 1.419 . S
C769 C770 1.362 . S
C770 H762 0.930 . S
C770 C769 1.362 . S
C770 C773 1.409 . S
C771 H763 0.930 . S
C771 C772 1.355 . S
C771 C773 1.415 . S
C772 C771 1.355 . S
C772 C774 1.419 . S
C773 C768 1.425 . S
C773 C770 1.409 . S
C773 C771 1.415 . S
C774 H764 0.930 . S
C774 C772 1.419 . S
C774 C775 1.362 . S
C775 H765 0.930 . S
C775 C768 1.409 . S
C775 C774 1.362 . S
H776 C782 0.930 . S
H777 C785 0.930 . S
H778 C786 0.930 . S
H779 C787 0.930 . S
H780 C790 0.930 . S
H781 C791 0.930 . S
C782 H776 0.930 . S
C782 C783 1.355 . S
C782 C784 1.415 . S
C783 C782 1.355 . S
C783 C785 1.419 . S
C784 C782 1.415 . S
C784 C789 1.425 . S
C784 C791 1.409 . S
C785 H777 0.930 . S
C785 C783 1.419 . S
C785 C786 1.362 . S
C786 H778 0.930 . S
C786 C785 1.362 . S
C786 C789 1.409 . S
C787 H779 0.930 . S
C787 C788 1.355 . S
C787 C789 1.415 . S
C788 C787 1.355 . S
C788 C790 1.419 . S
C789 C784 1.425 . S
C789 C786 1.409 . S
C789 C787 1.415 . S
C790 H780 0.930 . S
C790 C788 1.419 . S
C790 C791 1.362 . S
C791 H781 0.930 . S
C791 C784 1.409 . S
C791 C790 1.362 . S
H792 C798 0.930 . S
H793 C801 0.930 . S
H794 C802 0.930 . S
H795 C803 0.930 . S
H796 C806 0.930 . S
H797 C807 0.930 . S
C798 H792 0.930 . S
C798 C799 1.355 . S
C798 C800 1.415 . S
C799 C798 1.355 . S
C799 C801 1.419 . S
C800 C798 1.415 . S
C800 C805 1.425 . S
C800 C807 1.409 . S
C801 H793 0.930 . S
C801 C799 1.419 . S
C801 C802 1.362 . S
C802 H794 0.930 . S
C802 C801 1.362 . S
C802 C805 1.409 . S
C803 H795 0.930 . S
C803 C804 1.355 . S
C803 C805 1.415 . S
C804 C803 1.355 . S
C804 C806 1.419 . S
C805 C800 1.425 . S
C805 C802 1.409 . S
C805 C803 1.415 . S
C806 H796 0.930 . S
C806 C804 1.419 . S
C806 C807 1.362 . S
C807 H797 0.930 . S
C807 C800 1.409 . S
C807 C806 1.362 . S
C431 C73 1.586 . S
C436 C162 1.657 . S
C452 C246 1.724 . S
C447 C84 1.751 . S
C468 C239 1.627 . S
C463 C51 1.570 . S
C479 C62 1.745 . S
C484 C155 1.753 . S
C500 C319 1.645 . S
C495 C29 1.591 . S
C516 C403 1.607 . S
C511 C38 1.445 . S
C527 C7 1.527 . S
C532 C396 1.630 . S
C543 C16 1.453 . S
C548 C312 1.610 . S
C564 C146 1.541 . S
C559 C18 1.638 . S
C580 C230 1.451 . S
C575 C5 1.343 . S
C596 C241 1.377 . S
C591 C40 1.674 . S
C612 C157 1.450 . S
C607 C27 1.365 . S
C628 C325 1.344 . S
C623 C60 1.351 . S
C639 C49 1.403 . S
C644 C409 1.308 . S
C660 C398 1.280 . S
C655 C82 1.399 . S
C671 C71 1.345 . S
C676 C314 1.396 . S
C692 C144 1.637 . S
C687 C8 1.589 . S
C708 C228 1.550 . S
C703 C19 1.537 . S
C719 C30 1.612 . S
C724 C235 1.597 . S
C740 C151 1.522 . S
C735 C41 1.552 . S
C756 C323 1.427 . S
C751 C52 1.427 . S
C767 C63 1.542 . S
C772 C407 1.544 . S
C783 C74 1.418 . S
C788 C414 1.403 . S
C799 C85 1.529 . S
C804 C330 1.476 . S
