# Generated by pormake.
# Topology ocu, (6,8)-cn, num edge types: 1
# Building blocks:
#     Node 0, Type 0, BuildingBlock: FUNLAD_clean_sbu_0, # of connection points: 6
#     Node 1, Type 0, BuildingBlock: FUNLAD_clean_sbu_0, # of connection points: 6
#     Node 2, Type 0, BuildingBlock: FUNLAD_clean_sbu_0, # of connection points: 6
#     Node 3, Type 0, BuildingBlock: FUNLAD_clean_sbu_0, # of connection points: 6
#     Node 4, Type 0, BuildingBlock: FUNLAD_clean_sbu_0, # of connection points: 6
#     Node 5, Type 0, BuildingBlock: FUNLAD_clean_sbu_0, # of connection points: 6
#     Node 6, Type 0, BuildingBlock: FUNLAD_clean_sbu_0, # of connection points: 6
#     Node 7, Type 0, BuildingBlock: FUNLAD_clean_sbu_0, # of connection points: 6
#     Node 8, Type 1, BuildingBlock: TAGTUT_clean_sbu_1, # of connection points: 8
#     Node 9, Type 1, BuildingBlock: TAGTUT_clean_sbu_1, # of connection points: 8
#     Node 10, Type 1, BuildingBlock: TAGTUT_clean_sbu_1, # of connection points: 8
#     Node 11, Type 1, BuildingBlock: TAGTUT_clean_sbu_1, # of connection points: 8
#     Node 12, Type 1, BuildingBlock: TAGTUT_clean_sbu_1, # of connection points: 8
#     Node 13, Type 1, BuildingBlock: TAGTUT_clean_sbu_1, # of connection points: 8
#     Edge 14, Type (0, 1), BuildingBlock: OJICUG_clean_linker_0, # of connection points: 2
#     Edge 15, Type (0, 1), BuildingBlock: OJICUG_clean_linker_0, # of connection points: 2
#     Edge 16, Type (0, 1), BuildingBlock: OJICUG_clean_linker_0, # of connection points: 2
#     Edge 17, Type (0, 1), BuildingBlock: OJICUG_clean_linker_0, # of connection points: 2
#     Edge 18, Type (0, 1), BuildingBlock: OJICUG_clean_linker_0, # of connection points: 2
#     Edge 19, Type (0, 1), BuildingBlock: OJICUG_clean_linker_0, # of connection points: 2
#     Edge 20, Type (0, 1), BuildingBlock: OJICUG_clean_linker_0, # of connection points: 2
#     Edge 21, Type (0, 1), BuildingBlock: OJICUG_clean_linker_0, # of connection points: 2
#     Edge 22, Type (0, 1), BuildingBlock: OJICUG_clean_linker_0, # of connection points: 2
#     Edge 23, Type (0, 1), BuildingBlock: OJICUG_clean_linker_0, # of connection points: 2
#     Edge 24, Type (0, 1), BuildingBlock: OJICUG_clean_linker_0, # of connection points: 2
#     Edge 25, Type (0, 1), BuildingBlock: OJICUG_clean_linker_0, # of connection points: 2
#     Edge 26, Type (0, 1), BuildingBlock: OJICUG_clean_linker_0, # of connection points: 2
#     Edge 27, Type (0, 1), BuildingBlock: OJICUG_clean_linker_0, # of connection points: 2
#     Edge 28, Type (0, 1), BuildingBlock: OJICUG_clean_linker_0, # of connection points: 2
#     Edge 29, Type (0, 1), BuildingBlock: OJICUG_clean_linker_0, # of connection points: 2
#     Edge 30, Type (0, 1), BuildingBlock: OJICUG_clean_linker_0, # of connection points: 2
#     Edge 31, Type (0, 1), BuildingBlock: OJICUG_clean_linker_0, # of connection points: 2
#     Edge 32, Type (0, 1), BuildingBlock: OJICUG_clean_linker_0, # of connection points: 2
#     Edge 33, Type (0, 1), BuildingBlock: OJICUG_clean_linker_0, # of connection points: 2
#     Edge 34, Type (0, 1), BuildingBlock: OJICUG_clean_linker_0, # of connection points: 2
#     Edge 35, Type (0, 1), BuildingBlock: OJICUG_clean_linker_0, # of connection points: 2
#     Edge 36, Type (0, 1), BuildingBlock: OJICUG_clean_linker_0, # of connection points: 2
#     Edge 37, Type (0, 1), BuildingBlock: OJICUG_clean_linker_0, # of connection points: 2
#     Edge 38, Type (0, 1), BuildingBlock: OJICUG_clean_linker_0, # of connection points: 2
#     Edge 39, Type (0, 1), BuildingBlock: OJICUG_clean_linker_0, # of connection points: 2
#     Edge 40, Type (0, 1), BuildingBlock: OJICUG_clean_linker_0, # of connection points: 2
#     Edge 41, Type (0, 1), BuildingBlock: OJICUG_clean_linker_0, # of connection points: 2
#     Edge 42, Type (0, 1), BuildingBlock: OJICUG_clean_linker_0, # of connection points: 2
#     Edge 43, Type (0, 1), BuildingBlock: OJICUG_clean_linker_0, # of connection points: 2
#     Edge 44, Type (0, 1), BuildingBlock: OJICUG_clean_linker_0, # of connection points: 2
#     Edge 45, Type (0, 1), BuildingBlock: OJICUG_clean_linker_0, # of connection points: 2
#     Edge 46, Type (0, 1), BuildingBlock: OJICUG_clean_linker_0, # of connection points: 2
#     Edge 47, Type (0, 1), BuildingBlock: OJICUG_clean_linker_0, # of connection points: 2
#     Edge 48, Type (0, 1), BuildingBlock: OJICUG_clean_linker_0, # of connection points: 2
#     Edge 49, Type (0, 1), BuildingBlock: OJICUG_clean_linker_0, # of connection points: 2
#     Edge 50, Type (0, 1), BuildingBlock: OJICUG_clean_linker_0, # of connection points: 2
#     Edge 51, Type (0, 1), BuildingBlock: OJICUG_clean_linker_0, # of connection points: 2
#     Edge 52, Type (0, 1), BuildingBlock: OJICUG_clean_linker_0, # of connection points: 2
#     Edge 53, Type (0, 1), BuildingBlock: OJICUG_clean_linker_0, # of connection points: 2
#     Edge 54, Type (0, 1), BuildingBlock: OJICUG_clean_linker_0, # of connection points: 2
#     Edge 55, Type (0, 1), BuildingBlock: OJICUG_clean_linker_0, # of connection points: 2
#     Edge 56, Type (0, 1), BuildingBlock: OJICUG_clean_linker_0, # of connection points: 2
#     Edge 57, Type (0, 1), BuildingBlock: OJICUG_clean_linker_0, # of connection points: 2
#     Edge 58, Type (0, 1), BuildingBlock: OJICUG_clean_linker_0, # of connection points: 2
#     Edge 59, Type (0, 1), BuildingBlock: OJICUG_clean_linker_0, # of connection points: 2
#     Edge 60, Type (0, 1), BuildingBlock: OJICUG_clean_linker_0, # of connection points: 2
#     Edge 61, Type (0, 1), BuildingBlock: OJICUG_clean_linker_0, # of connection points: 2
# Relax obj value: 0.234
# Max RMSD: 0.262
# Mean RMSD: 0.206
data_MOF--net-ocu--node1-FUNLAD_clean_sbu_0--node2-TAGTUT_clean_sbu_1--edge1-OJICUG_clean_linker_0
_symmetry_space_group_name_H-M    P1
_symmetry_Int_Tables_number       1
_symmetry_cell_setting            triclinic
loop_
_symmetry_equiv_pos_as_xyz
'x, y, z'
_cell_length_a     29.674748
_cell_length_b     28.256609
_cell_length_c     31.193521
_cell_angle_alpha  83.144182
_cell_angle_beta   85.203228
_cell_angle_gamma 91.502414
loop_
_atom_site_label
_atom_site_type_symbol
_atom_site_fract_x
_atom_site_fract_y
_atom_site_fract_z
_atom_type_partial_charge
C0 C 0.21973 0.26476 0.32846 0.0
N1 N 0.19515 0.15643 0.25049 0.0
C2 C 0.19349 0.12126 0.28417 0.0
C3 C 0.1603 0.08541 0.28808 0.0
C4 C 0.12706 0.08728 0.25827 0.0
C5 C 0.1319 0.12129 0.2217 0.0
C6 C 0.16734 0.15527 0.2179 0.0
Zn7 Zn 0.23651 0.21352 0.25164 0.0
C8 C 0.19557 0.30031 0.20975 0.0
N9 N 0.32368 0.33328 0.2476 0.0
C10 C 0.35184 0.33548 0.27978 0.0
C11 C 0.32464 0.36777 0.21342 0.0
C12 C 0.35666 0.40471 0.20911 0.0
C13 C 0.38945 0.40499 0.23919 0.0
C14 C 0.38616 0.37082 0.27565 0.0
Zn15 Zn 0.28224 0.27623 0.24712 0.0
O16 O 0.20509 0.22795 0.31327 0.0
C17 C 0.32284 0.18958 0.28942 0.0
O18 O 0.25212 0.2899 0.30738 0.0
H19 H 0.30255 0.36513 0.18794 0.0
H20 H 0.2157 0.12278 0.30972 0.0
H21 H 0.34959 0.30825 0.30739 0.0
O22 O 0.28523 0.17051 0.28285 0.0
O23 O 0.33022 0.23367 0.27752 0.0
H24 H 0.17046 0.18266 0.19041 0.0
O25 O 0.31361 0.26194 0.18565 0.0
O26 O 0.2669 0.19982 0.19141 0.0
O27 O 0.23323 0.31936 0.21618 0.0
O28 O 0.18843 0.25615 0.22132 0.0
C29 C 0.29929 0.22506 0.17047 0.0
H30 H 0.15742 0.06018 0.31727 0.0
H31 H 0.10664 0.12392 0.19848 0.0
H32 H 0.35868 0.42979 0.17984 0.0
H33 H 0.41134 0.36971 0.29892 0.0
C34 C 0.68371 0.30427 0.21181 0.0
N35 N 0.74616 0.1808 0.18207 0.0
C36 C 0.70251 0.16518 0.18096 0.0
C37 C 0.69042 0.13821 0.1493 0.0
C38 C 0.72289 0.1283 0.11694 0.0
C39 C 0.76784 0.14472 0.11785 0.0
C40 C 0.779 0.17081 0.15149 0.0
Zn41 Zn 0.75297 0.22562 0.22878 0.0
C42 C 0.8173 0.30956 0.20138 0.0
N43 N 0.74715 0.3222 0.32377 0.0
C44 C 0.7402 0.30258 0.36588 0.0
C45 C 0.76459 0.3675 0.31319 0.0
C46 C 0.78207 0.39197 0.3448 0.0
C47 C 0.78039 0.37001 0.38787 0.0
C48 C 0.75549 0.32658 0.39869 0.0
Zn49 Zn 0.74402 0.27803 0.27649 0.0
O50 O 0.70123 0.26674 0.2002 0.0
C51 C 0.68093 0.19293 0.30454 0.0
O52 O 0.69592 0.32057 0.2454 0.0
H53 H 0.76883 0.38314 0.27971 0.0
H54 H 0.67597 0.1755 0.20334 0.0
H55 H 0.72638 0.2666 0.374 0.0
O56 O 0.70329 0.18094 0.27127 0.0
O57 O 0.68926 0.23417 0.31526 0.0
H58 H 0.81327 0.18454 0.15217 0.0
O59 O 0.79387 0.23562 0.30666 0.0
O60 O 0.80396 0.18552 0.25806 0.0
O61 O 0.79802 0.32023 0.23684 0.0
O62 O 0.80475 0.27078 0.1879 0.0
C63 C 0.81404 0.20027 0.29318 0.0
H64 H 0.65517 0.12736 0.14871 0.0
H65 H 0.79347 0.13845 0.09256 0.0
H66 H 0.80049 0.4255 0.33449 0.0
H67 H 0.75147 0.30905 0.43166 0.0
C68 C 0.8209 0.69756 0.29352 0.0
N69 N 0.81431 0.84392 0.25597 0.0
C70 C 0.85859 0.8382 0.263 0.0
C71 C 0.8771 0.85997 0.29578 0.0
C72 C 0.85026 0.88919 0.32005 0.0
C73 C 0.80766 0.90122 0.30677 0.0
C74 C 0.79017 0.87802 0.27418 0.0
Zn75 Zn 0.77755 0.78327 0.24698 0.0
C76 C 0.79955 0.7349 0.17387 0.0
N77 N 0.69651 0.65587 0.24817 0.0
C78 C 0.65202 0.66231 0.24245 0.0
C79 C 0.71983 0.62268 0.22786 0.0
C80 C 0.7014 0.60196 0.19428 0.0
C81 C 0.65864 0.61537 0.18223 0.0
C82 C 0.63255 0.643 0.20881 0.0
Zn83 Zn 0.73391 0.71616 0.2575 0.0
O84 O 0.82558 0.74155 0.27948 0.0
C85 C 0.71162 0.76498 0.33055 0.0
O86 O 0.78387 0.67532 0.28946 0.0
H87 H 0.75524 0.61809 0.2325 0.0
H88 H 0.87752 0.81145 0.24798 0.0
H89 H 0.6337 0.68826 0.25917 0.0
O90 O 0.74191 0.79067 0.30691 0.0
O91 O 0.69828 0.72577 0.31846 0.0
H92 H 0.75488 0.88184 0.26869 0.0
O93 O 0.68594 0.75787 0.22526 0.0
O94 O 0.72808 0.82371 0.21429 0.0
O95 O 0.76915 0.70924 0.19737 0.0
O96 O 0.8134 0.77369 0.18632 0.0
C97 C 0.69103 0.80154 0.21033 0.0
H98 H 0.91053 0.85062 0.30473 0.0
H99 H 0.78616 0.92383 0.32465 0.0
H100 H 0.72237 0.58033 0.17485 0.0
H101 H 0.5989 0.65312 0.20118 0.0
C102 C 0.2097 0.81872 0.28952 0.0
N103 N 0.31901 0.74496 0.32653 0.0
C104 C 0.36109 0.76612 0.3208 0.0
C105 C 0.37512 0.79425 0.35133 0.0
C106 C 0.34585 0.79938 0.38814 0.0
C107 C 0.306 0.77112 0.39641 0.0
C108 C 0.29315 0.74375 0.36494 0.0
Zn109 Zn 0.28314 0.74453 0.27379 0.0
C110 C 0.19721 0.68092 0.29875 0.0
N111 N 0.19368 0.75699 0.1762 0.0
C112 C 0.21918 0.75603 0.13785 0.0
C113 C 0.15112 0.73698 0.18274 0.0
C114 C 0.13616 0.70775 0.15345 0.0
C115 C 0.16499 0.70039 0.11696 0.0
C116 C 0.20541 0.72754 0.10761 0.0
Zn117 Zn 0.23019 0.75853 0.22855 0.0
O118 O 0.24408 0.79632 0.3007 0.0
C119 C 0.31691 0.82052 0.20202 0.0
O120 O 0.19289 0.81168 0.25457 0.0
H121 H 0.13098 0.73874 0.213 0.0
H122 H 0.38148 0.7661 0.29042 0.0
H123 H 0.25322 0.7712 0.1331 0.0
O124 O 0.32877 0.79969 0.23745 0.0
O125 O 0.2773 0.8112 0.19165 0.0
H126 H 0.25945 0.72762 0.36892 0.0
O127 O 0.26728 0.70433 0.2034 0.0
O128 O 0.32212 0.69405 0.24627 0.0
O129 O 0.18371 0.70619 0.26627 0.0
O130 O 0.23761 0.68789 0.30824 0.0
C131 C 0.30328 0.68419 0.21318 0.0
H132 H 0.40707 0.81431 0.34482 0.0
H133 H 0.28292 0.77374 0.42477 0.0
H134 H 0.1038 0.68859 0.16073 0.0
H135 H 0.22821 0.72319 0.07947 0.0
C136 C 0.18423 0.80495 0.71175 0.0
N137 N 0.2455 0.68074 0.68237 0.0
C138 C 0.20169 0.66581 0.68101 0.0
C139 C 0.18939 0.63905 0.64929 0.0
C140 C 0.22185 0.62863 0.61714 0.0
C141 C 0.26699 0.64429 0.61832 0.0
C142 C 0.27833 0.67022 0.65201 0.0
Zn143 Zn 0.25269 0.72549 0.72903 0.0
C144 C 0.31783 0.80872 0.70169 0.0
N145 N 0.24767 0.82215 0.82394 0.0
C146 C 0.2406 0.80267 0.86609 0.0
C147 C 0.26531 0.86736 0.81328 0.0
C148 C 0.28279 0.89188 0.84485 0.0
C149 C 0.2809 0.87009 0.888 0.0
C150 C 0.2559 0.82673 0.89886 0.0
Zn151 Zn 0.24417 0.77794 0.77673 0.0
O152 O 0.20147 0.76726 0.70018 0.0
C153 C 0.18031 0.69352 0.80462 0.0
O154 O 0.1965 0.82107 0.74541 0.0
H155 H 0.26967 0.88289 0.77976 0.0
H156 H 0.17522 0.67654 0.70325 0.0
H157 H 0.2266 0.76675 0.87426 0.0
O158 O 0.20253 0.68142 0.77133 0.0
O159 O 0.189 0.73464 0.81544 0.0
H160 H 0.31275 0.68339 0.65289 0.0
O161 O 0.29346 0.73487 0.80716 0.0
O162 O 0.30307 0.68462 0.75865 0.0
O163 O 0.29863 0.81959 0.73711 0.0
O164 O 0.30497 0.77002 0.68825 0.0
C165 C 0.31312 0.69914 0.79387 0.0
H166 H 0.15403 0.62876 0.64848 0.0
H167 H 0.29263 0.63758 0.59321 0.0
H168 H 0.30131 0.92534 0.83449 0.0
H169 H 0.25173 0.80931 0.93187 0.0
C170 C 0.32011 0.19663 0.79525 0.0
N171 N 0.31447 0.34257 0.75532 0.0
C172 C 0.35876 0.33654 0.76209 0.0
C173 C 0.37755 0.35799 0.79487 0.0
C174 C 0.35094 0.38718 0.81938 0.0
C175 C 0.30846 0.39979 0.80614 0.0
C176 C 0.29071 0.37693 0.77351 0.0
Zn177 Zn 0.27731 0.28199 0.74735 0.0
C178 C 0.29928 0.23242 0.67486 0.0
N179 N 0.19563 0.15485 0.7498 0.0
C180 C 0.21886 0.12135 0.72982 0.0
C181 C 0.15131 0.1617 0.7436 0.0
C182 C 0.13218 0.14281 0.70958 0.0
C183 C 0.15839 0.11507 0.6832 0.0
C184 C 0.20074 0.10099 0.69589 0.0
Zn185 Zn 0.23343 0.21513 0.7584 0.0
O186 O 0.32506 0.24044 0.78058 0.0
C187 C 0.21111 0.26518 0.83077 0.0
O188 O 0.28306 0.17441 0.79116 0.0
H189 H 0.13303 0.18783 0.76013 0.0
H190 H 0.37738 0.3096 0.747 0.0
H191 H 0.25412 0.11636 0.7349 0.0
O192 O 0.24161 0.29052 0.80706 0.0
O193 O 0.19771 0.22584 0.819 0.0
H194 H 0.25543 0.38106 0.76811 0.0
O195 O 0.18571 0.25683 0.72552 0.0
O196 O 0.22823 0.3224 0.7142 0.0
O197 O 0.26877 0.20705 0.69849 0.0
O198 O 0.31313 0.27138 0.68698 0.0
C199 C 0.19105 0.30043 0.71037 0.0
H200 H 0.41093 0.3483 0.8037 0.0
H201 H 0.28717 0.42248 0.82415 0.0
H202 H 0.09879 0.15337 0.7015 0.0
H203 H 0.22176 0.07919 0.67668 0.0
C204 C 0.71097 0.31887 0.78875 0.0
N205 N 0.82097 0.24676 0.82608 0.0
C206 C 0.86277 0.26859 0.8205 0.0
C207 C 0.87622 0.29691 0.85112 0.0
C208 C 0.8467 0.3015 0.88789 0.0
C209 C 0.80723 0.27269 0.896 0.0
C210 C 0.79493 0.24522 0.86446 0.0
Zn211 Zn 0.7853 0.24514 0.77322 0.0
C212 C 0.69983 0.1816 0.79899 0.0
N213 N 0.69588 0.25695 0.67552 0.0
C214 C 0.72137 0.2557 0.63723 0.0
C215 C 0.65334 0.23695 0.68224 0.0
C216 C 0.63824 0.20757 0.65314 0.0
C217 C 0.66691 0.19994 0.61662 0.0
C218 C 0.70746 0.22696 0.60714 0.0
Zn219 Zn 0.73221 0.25891 0.72793 0.0
O220 O 0.74659 0.29822 0.79908 0.0
C221 C 0.8184 0.32206 0.70226 0.0
O222 O 0.69316 0.31001 0.75479 0.0
H223 H 0.63332 0.23884 0.71254 0.0
H224 H 0.8834 0.2688 0.79023 0.0
H225 H 0.75541 0.27101 0.63256 0.0
O226 O 0.83103 0.29831 0.73598 0.0
O227 O 0.77824 0.31471 0.69215 0.0
H228 H 0.76146 0.22866 0.86856 0.0
O229 O 0.77119 0.20677 0.70214 0.0
O230 O 0.82396 0.19348 0.74698 0.0
O231 O 0.68673 0.20407 0.76484 0.0
O232 O 0.73964 0.1908 0.80876 0.0
C233 C 0.80631 0.18543 0.71272 0.0
H234 H 0.90794 0.31742 0.84478 0.0
H235 H 0.78398 0.2749 0.92432 0.0
H236 H 0.60583 0.18854 0.66057 0.0
H237 H 0.73015 0.22242 0.57898 0.0
C238 C 0.72121 0.76461 0.82692 0.0
N239 N 0.69619 0.65593 0.74961 0.0
C240 C 0.69422 0.62129 0.78374 0.0
C241 C 0.66041 0.58601 0.78838 0.0
C242 C 0.62703 0.58793 0.75874 0.0
C243 C 0.63211 0.62131 0.72174 0.0
C244 C 0.66811 0.6547 0.71725 0.0
Zn245 Zn 0.73776 0.71297 0.7502 0.0
C246 C 0.69656 0.79964 0.70856 0.0
N247 N 0.82475 0.83279 0.74551 0.0
C248 C 0.85233 0.83583 0.77804 0.0
C249 C 0.82592 0.86669 0.71087 0.0
C250 C 0.85729 0.90421 0.70669 0.0
C251 C 0.88913 0.90583 0.73753 0.0
C252 C 0.88591 0.87193 0.77418 0.0
Zn253 Zn 0.78339 0.77573 0.74548 0.0
O254 O 0.70659 0.72772 0.81186 0.0
C255 C 0.8242 0.6893 0.78785 0.0
O256 O 0.75361 0.78967 0.80577 0.0
H257 H 0.80431 0.86328 0.68513 0.0
H258 H 0.71663 0.62293 0.80913 0.0
H259 H 0.85 0.80887 0.80587 0.0
O260 O 0.7866 0.67013 0.78135 0.0
O261 O 0.83156 0.73337 0.7758 0.0
H262 H 0.67141 0.68171 0.68946 0.0
O263 O 0.81432 0.76134 0.68389 0.0
O264 O 0.7678 0.69904 0.68981 0.0
O265 O 0.73424 0.81877 0.71479 0.0
O266 O 0.68955 0.75546 0.72005 0.0
C267 C 0.79996 0.7245 0.66868 0.0
H268 H 0.65724 0.56127 0.8179 0.0
H269 H 0.60671 0.62396 0.69865 0.0
H270 H 0.85942 0.92901 0.67723 0.0
H271 H 0.91048 0.87181 0.79799 0.0
C272 C 0.89414 0.12376 0.56102 0.0
C273 C 0.92223 0.1114 0.42152 0.0
C274 C 0.93443 0.92518 0.47147 0.0
Mg275 Mg 0.98076 0.12142 0.49869 0.0
O276 O 0.96723 0.05697 0.51606 0.0
Mg277 Mg 0.90712 0.02782 0.5096 0.0
Mg278 Mg 1.00596 0.00592 0.49927 0.0
O279 O 0.04465 0.95497 0.48215 0.0
Mg280 Mg 0.03102 0.89035 0.49801 0.0
Mg281 Mg 0.10473 0.98365 0.4892 0.0
C282 C 0.07716 0.08666 0.52707 0.0
C283 C 0.05718 0.03888 0.40792 0.0
O284 O 0.87746 0.08705 0.54655 0.0
O285 O 0.93315 0.14263 0.54729 0.0
O286 O 0.90237 0.07425 0.44349 0.0
O287 O 0.95482 0.1341 0.43554 0.0
O288 O 0.05102 0.1211 0.51664 0.0
O289 O 0.06669 0.0436 0.52127 0.0
C290 C 0.95503 0.97342 0.59097 0.0
O291 O 0.99186 0.97158 0.56742 0.0
O292 O 0.91883 0.98915 0.57568 0.0
O293 O 0.1349 0.9246 0.45152 0.0
O294 O 0.07911 0.86946 0.44962 0.0
O295 O 0.10822 0.93616 0.55545 0.0
C296 C 0.11837 0.88807 0.4366 0.0
O297 O 0.05518 0.877 0.56153 0.0
O298 O 0.96087 0.89067 0.48049 0.0
C299 C 0.08743 0.89904 0.57668 0.0
O300 O 0.94514 0.96801 0.47772 0.0
O301 O 0.02014 0.0403 0.4312 0.0
O302 O 0.09335 0.02316 0.42333 0.0
C303 C 0.40247 0.13286 0.04156 0.0
C304 C 0.44166 0.10888 0.9108 0.0
C305 C 0.4346 0.92324 0.97254 0.0
Mg306 Mg 0.494 0.11288 0.99164 0.0
O307 O 0.47384 0.05005 0.01502 0.0
Mg308 Mg 0.41337 0.02868 0.99798 0.0
Mg309 Mg 0.5109 0.99606 0.99794 0.0
O310 O 0.54797 0.942 0.9808 0.0
Mg311 Mg 0.52782 0.87942 0.00454 0.0
Mg312 Mg 0.60809 0.96298 0.99847 0.0
C313 C 0.58799 0.06874 0.02227 0.0
C314 C 0.58942 0.04122 0.91878 0.0
O315 O 0.38592 0.09341 0.03144 0.0
O316 O 0.44387 0.14681 0.03087 0.0
O317 O 0.41928 0.07493 0.93411 0.0
O318 O 0.47568 0.12918 0.92465 0.0
O319 O 0.56484 0.10484 0.0088 0.0
O320 O 0.57146 0.02565 0.02727 0.0
C321 C 0.43266 0.9507 0.07778 0.0
O322 O 0.47453 0.94902 0.06262 0.0
O323 O 0.40618 0.98035 0.06 0.0
O324 O 0.63594 0.89764 0.96575 0.0
O325 O 0.57805 0.84419 0.96679 0.0
O326 O 0.60068 0.91792 0.06299 0.0
C327 C 0.61945 0.85795 0.95606 0.0
O328 O 0.54326 0.86488 0.07228 0.0
O329 O 0.45814 0.88752 0.98599 0.0
C330 C 0.57699 0.88514 0.08655 0.0
O331 O 0.45036 0.96659 0.96834 0.0
O332 O 0.54749 0.04314 0.93368 0.0
O333 O 0.61546 0.01077 0.93623 0.0
C334 C 0.89203 0.63287 0.04592 0.0
C335 C 0.92971 0.59955 0.91634 0.0
C336 C 0.93151 0.41964 0.98587 0.0
Mg337 Mg 0.98108 0.61088 0.99442 0.0
O338 O 0.96431 0.54977 0.0237 0.0
Mg339 Mg 0.90436 0.52486 0.00867 0.0
Mg340 Mg 1.00411 0.49885 0.00507 0.0
O341 O 0.04404 0.44819 0.98597 0.0
Mg342 Mg 0.02849 0.38611 0.01329 0.0
Mg343 Mg 0.10449 0.47343 0.99919 0.0
C344 C 0.0773 0.57795 0.02393 0.0
C345 C 0.07475 0.54927 0.92123 0.0
O346 O 0.87572 0.59121 0.04073 0.0
O347 O 0.9321 0.64756 0.03086 0.0
O348 O 0.90636 0.56825 0.94223 0.0
O349 O 0.96482 0.61971 0.92791 0.0
O350 O 0.05082 0.61022 0.00943 0.0
O351 O 0.06521 0.53338 0.03136 0.0
C352 C 0.93155 0.44959 0.08817 0.0
O353 O 0.97252 0.45004 0.07002 0.0
O354 O 0.90216 0.47758 0.07271 0.0
O355 O 0.13299 0.40837 0.96492 0.0
O356 O 0.07715 0.35146 0.97426 0.0
O357 O 0.1048 0.42813 0.06453 0.0
C358 C 0.11693 0.3669 0.95886 0.0
O359 O 0.04733 0.37536 0.07902 0.0
O360 O 0.95811 0.38709 0.99968 0.0
C361 C 0.08276 0.39549 0.09007 0.0
O362 O 0.94384 0.46411 0.97865 0.0
O363 O 0.03421 0.54777 0.94019 0.0
O364 O 0.10499 0.52187 0.93583 0.0
C365 C 0.39133 0.61891 0.06299 0.0
C366 C 0.41938 0.60824 0.92323 0.0
C367 C 0.43431 0.42204 0.97148 0.0
Mg368 Mg 0.47798 0.61806 1.00031 0.0
O369 O 0.46539 0.55342 0.01731 0.0
Mg370 Mg 0.40557 0.52358 0.01076 0.0
Mg371 Mg 0.5049 0.50337 0.99957 0.0
O372 O 0.54428 0.45334 0.98157 0.0
Mg373 Mg 0.53141 0.38856 0.99749 0.0
Mg374 Mg 0.60396 0.48267 0.98916 0.0
C375 C 0.57507 0.58479 0.02782 0.0
C376 C 0.55579 0.53837 0.90847 0.0
O377 O 0.37509 0.58186 0.04871 0.0
O378 O 0.43005 0.63836 0.04904 0.0
O379 O 0.39981 0.5708 0.94502 0.0
O380 O 0.45197 0.63089 0.93729 0.0
O381 O 0.54832 0.61881 0.01786 0.0
O382 O 0.56516 0.54164 0.02186 0.0
C383 C 0.45477 0.46862 0.09115 0.0
O384 O 0.49153 0.46776 0.06731 0.0
O385 O 0.41825 0.48416 0.07637 0.0
O386 O 0.63493 0.42433 0.9509 0.0
O387 O 0.57997 0.36819 0.94926 0.0
O388 O 0.60782 0.43482 0.05516 0.0
C389 C 0.61897 0.38744 0.9361 0.0
O390 O 0.55515 0.37536 0.0611 0.0
O391 O 0.46125 0.38793 0.98024 0.0
C392 C 0.5872 0.39758 0.07633 0.0
O393 O 0.44446 0.46496 0.97785 0.0
O394 O 0.51863 0.53893 0.93178 0.0
O395 O 0.59212 0.52282 0.9237 0.0
C396 C 0.90201 0.63483 0.53735 0.0
C397 C 0.94296 0.60878 0.40725 0.0
C398 C 0.9341 0.42307 0.47272 0.0
Mg399 Mg 0.994 0.61403 0.48895 0.0
O400 O 0.97326 0.5515 0.51228 0.0
Mg401 Mg 0.91308 0.52996 0.49484 0.0
Mg402 Mg 0.01014 0.49653 0.49759 0.0
O403 O 0.04718 0.44164 0.48263 0.0
Mg404 Mg 0.02679 0.37927 0.50628 0.0
Mg405 Mg 0.10733 0.46304 0.4999 0.0
C406 C 0.08723 0.56971 0.52147 0.0
C407 C 0.0894 0.53826 0.41737 0.0
O408 O 0.88541 0.59563 0.52675 0.0
O409 O 0.94363 0.64836 0.5275 0.0
O410 O 0.92035 0.57474 0.43022 0.0
O411 O 0.97627 0.6296 0.4218 0.0
O412 O 0.06447 0.60576 0.50715 0.0
O413 O 0.07047 0.52672 0.52695 0.0
C414 C 0.93043 0.45564 0.57806 0.0
O415 O 0.97244 0.45233 0.56375 0.0
O416 O 0.90489 0.4842 0.55771 0.0
O417 O 0.13515 0.39696 0.46822 0.0
O418 O 0.07702 0.3439 0.46875 0.0
O419 O 0.09948 0.41879 0.56493 0.0
C420 C 0.11854 0.35737 0.4584 0.0
O421 O 0.0425 0.36514 0.57391 0.0
O422 O 0.95732 0.38747 0.48708 0.0
C423 C 0.07592 0.38576 0.58836 0.0
O424 O 0.95009 0.46636 0.46781 0.0
O425 O 0.04749 0.54097 0.43207 0.0
O426 O 0.11533 0.50923 0.4368 0.0
C427 C 0.39176 0.13091 0.54633 0.0
C428 C 0.42941 0.09862 0.41647 0.0
C429 C 0.43214 0.91819 0.48532 0.0
Mg430 Mg 0.48094 0.10978 0.49451 0.0
O431 O 0.46445 0.04848 0.52346 0.0
Mg432 Mg 0.40456 0.02327 0.50849 0.0
Mg433 Mg 0.50453 0.99786 0.5048 0.0
O434 O 0.54465 0.94742 0.48573 0.0
Mg435 Mg 0.52908 0.88537 0.51314 0.0
Mg436 Mg 0.60495 0.97282 0.49916 0.0
C437 C 0.57737 0.0775 0.52401 0.0
C438 C 0.57531 0.04853 0.42109 0.0
O439 O 0.37563 0.08924 0.54093 0.0
O440 O 0.43174 0.14589 0.53124 0.0
O441 O 0.40628 0.06703 0.44223 0.0
O442 O 0.46447 0.11886 0.42806 0.0
O443 O 0.55072 0.1096 0.50954 0.0
O444 O 0.56552 0.03283 0.53128 0.0
C445 C 0.4321 0.9481 0.58788 0.0
O446 O 0.4731 0.94884 0.56976 0.0
O447 O 0.40255 0.97583 0.57238 0.0
O448 O 0.63364 0.90767 0.46501 0.0
O449 O 0.57788 0.85066 0.4744 0.0
O450 O 0.60506 0.92758 0.56449 0.0
C451 C 0.61765 0.86613 0.45903 0.0
O452 O 0.54762 0.87477 0.57892 0.0
O453 O 0.45881 0.88581 0.49928 0.0
C454 C 0.58297 0.89498 0.59002 0.0
O455 O 0.44428 0.96275 0.47818 0.0
O456 O 0.53469 0.04695 0.43994 0.0
O457 O 0.60554 0.02119 0.43579 0.0
C458 C 0.05389 0.09648 0.2943 0.0
C459 C 0.0826 0.06519 0.27417 0.0
H460 H 0.02693 0.1145 0.35619 0.0
C461 C 0.08318 0.01778 0.29331 0.0
H462 H 0.05015 0.13242 0.2788 0.0
C463 C 0.0719 0.00814 0.33776 0.0
C464 C 0.05588 0.04476 0.36109 0.0
H465 H 0.10267 0.99205 0.27725 0.0
H466 H 0.08003 0.97394 0.35443 0.0
C467 C 0.04194 0.087 0.33882 0.0
C468 C 0.87636 0.20433 0.34128 0.0
C469 C 0.84792 0.17663 0.31957 0.0
H470 H 0.92353 0.20523 0.38937 0.0
C471 C 0.84885 0.12671 0.32729 0.0
H472 H 0.87634 0.24293 0.33574 0.0
C473 C 0.87518 0.10497 0.35887 0.0
C474 C 0.9019 0.13285 0.38226 0.0
H475 H 0.82705 0.10463 0.31104 0.0
H476 H 0.87321 0.06651 0.36622 0.0
C477 C 0.90359 0.18267 0.37181 0.0
C478 C 0.87181 0.86187 0.39414 0.0
C479 C 0.86369 0.89982 0.3627 0.0
H480 H 0.89814 0.84024 0.45483 0.0
C481 C 0.86994 0.94676 0.37203 0.0
H482 H 0.86604 0.8253 0.38812 0.0
C483 C 0.88844 0.95547 0.41046 0.0
C484 C 0.90051 0.91734 0.44027 0.0
H485 H 0.86326 0.97656 0.34849 0.0
H486 H 0.89674 0.99191 0.41491 0.0
C487 C 0.88963 0.8705 0.43262 0.0
C488 C 0.21106 0.86442 0.3524 0.0
C489 C 0.18609 0.84476 0.32199 0.0
H490 H 0.20918 0.89313 0.41302 0.0
C491 C 0.13884 0.84083 0.32887 0.0
H492 H 0.2477 0.86717 0.34797 0.0
C493 C 0.11706 0.854 0.36677 0.0
C494 C 0.14214 0.87207 0.39796 0.0
H495 H 0.11899 0.82492 0.30632 0.0
H496 H 0.08051 0.84998 0.37165 0.0
C497 C 0.1892 0.87849 0.38987 0.0
C498 C 0.12304 0.8047 0.66202 0.0
C499 C 0.15284 0.83069 0.6838 0.0
H500 H 0.07786 0.80619 0.61212 0.0
C501 C 0.15647 0.88055 0.67404 0.0
H502 H 0.11964 0.7662 0.66902 0.0
C503 C 0.13332 0.90354 0.64053 0.0
C504 C 0.10535 0.87709 0.61709 0.0
H505 H 0.17949 0.90132 0.69024 0.0
H506 H 0.13872 0.94165 0.63185 0.0
C507 C 0.09904 0.8277 0.62947 0.0
C508 C 0.14344 0.06228 0.62557 0.0
C509 C 0.14446 0.1076 0.63972 0.0
H510 H 0.1223 0.01998 0.57779 0.0
C511 C 0.13182 0.1469 0.61186 0.0
H512 H 0.15386 0.03153 0.64605 0.0
C513 C 0.11496 0.14061 0.57235 0.0
C514 C 0.10946 0.09467 0.55991 0.0
H515 H 0.13373 0.18255 0.62128 0.0
H516 H 0.10325 0.17157 0.55306 0.0
C517 C 0.12587 0.05583 0.58613 0.0
C518 C 0.80468 0.13908 0.6507 0.0
C519 C 0.83009 0.16078 0.67955 0.0
H520 H 0.80489 0.11134 0.58984 0.0
C521 C 0.87665 0.16955 0.66956 0.0
H522 H 0.76844 0.13288 0.65751 0.0
C523 C 0.89713 0.15892 0.63017 0.0
C524 C 0.87144 0.13867 0.60059 0.0
H525 H 0.89661 0.1874 0.69081 0.0
H526 H 0.93313 0.16649 0.62299 0.0
C527 C 0.82527 0.12774 0.61168 0.0
C528 C 0.92412 0.98206 0.70783 0.0
C529 C 0.9308 0.93451 0.72384 0.0
H530 H 0.92222 0.02976 0.64935 0.0
C531 C 0.96386 0.90954 0.70164 0.0
H532 H 0.90108 0.00323 0.72573 0.0
C533 C 0.97517 0.92375 0.65755 0.0
C534 C 0.95589 0.96457 0.63785 0.0
H535 H 0.97213 0.87388 0.71479 0.0
H536 H 0.99412 0.90029 0.63832 0.0
C537 C 0.93462 0.9963 0.66377 0.0
C538 C 0.36639 0.2252 0.1156 0.0
C539 C 0.32285 0.20757 0.13194 0.0
H540 H 0.4258 0.21555 0.07411 0.0
C541 C 0.30395 0.16865 0.11455 0.0
H542 H 0.3819 0.25512 0.12829 0.0
C543 C 0.32902 0.14587 0.08367 0.0
C544 C 0.37372 0.16137 0.06939 0.0
H545 H 0.27029 0.15439 0.12612 0.0
H546 H 0.31387 0.11488 0.07235 0.0
C547 C 0.3916 0.2023 0.08466 0.0
C548 C 0.88072 0.32996 0.14088 0.0
C549 C 0.85252 0.3434 0.17576 0.0
H550 H 0.92998 0.3526 0.08707 0.0
C551 C 0.85709 0.39076 0.18524 0.0
H552 H 0.87846 0.29388 0.13259 0.0
C553 C 0.88641 0.42432 0.15903 0.0
C554 C 0.91326 0.41149 0.12319 0.0
H555 H 0.83621 0.40274 0.21173 0.0
H556 H 0.8863 0.46117 0.16546 0.0
C557 C 0.91094 0.36348 0.11517 0.0
C558 C 0.62033 0.79681 0.17196 0.0
C559 C 0.65517 0.82463 0.18592 0.0
H560 H 0.56701 0.79444 0.12973 0.0
C561 C 0.65706 0.87401 0.17367 0.0
H562 H 0.61762 0.75859 0.18126 0.0
C563 C 0.62739 0.89455 0.14498 0.0
C564 C 0.59567 0.86606 0.12737 0.0
H565 H 0.68283 0.89651 0.18456 0.0
H566 H 0.63162 0.9324 0.13407 0.0
C567 C 0.59085 0.81735 0.14281 0.0
C568 C 0.13856 0.61711 0.11097 0.0
C569 C 0.15423 0.66232 0.09061 0.0
H570 H 0.10365 0.55169 0.10393 0.0
C571 C 0.15718 0.67145 0.04529 0.0
H572 H 0.13764 0.60866 0.14584 0.0
C573 C 0.13864 0.63845 0.02128 0.0
C574 C 0.11684 0.59627 0.04248 0.0
H575 H 0.17003 0.70567 0.02879 0.0
H576 H 0.13628 0.64853 0.98692 0.0
C577 C 0.1203 0.58396 0.08689 0.0
C578 C 0.33356 0.85293 0.94609 0.0
C579 C 0.3123 0.88681 0.91845 0.0
H580 H 0.38785 0.83811 0.98551 0.0
C581 C 0.32722 0.93497 0.91525 0.0
H582 H 0.32387 0.81541 0.94948 0.0
C583 C 0.3654 0.94787 0.93537 0.0
C584 C 0.389 0.91289 0.95938 0.0
H585 H 0.31104 0.96237 0.89529 0.0
H586 H 0.37789 0.98462 0.92988 0.0
C587 C 0.3711 0.86587 0.96648 0.0
C588 C 0.21048 0.32549 0.88319 0.0
C589 C 0.18972 0.28537 0.86897 0.0
H590 H 0.20415 0.38259 0.92237 0.0
C591 C 0.14673 0.26938 0.88806 0.0
H592 H 0.24394 0.33846 0.86962 0.0
C593 C 0.12391 0.29478 0.91868 0.0
C594 C 0.14357 0.33677 0.93076 0.0
H595 H 0.12981 0.23874 0.87783 0.0
H596 H 0.09004 0.28247 0.93152 0.0
C597 C 0.18768 0.35094 0.91353 0.0
C598 C 0.62418 0.13516 0.82047 0.0
C599 C 0.66916 0.14674 0.82866 0.0
H600 H 0.56257 0.09307 0.84246 0.0
C601 C 0.68507 0.12554 0.8672 0.0
H602 H 0.61052 0.15132 0.79131 0.0
C603 C 0.65795 0.09312 0.89599 0.0
C604 C 0.61362 0.07997 0.88767 0.0
H605 H 0.71891 0.13385 0.87539 0.0
H606 H 0.67224 0.07789 0.92519 0.0
C607 C 0.59651 0.10212 0.84985 0.0
C608 C 0.89679 0.68537 0.82338 0.0
C609 C 0.85713 0.66232 0.81315 0.0
H610 H 0.95179 0.68307 0.86377 0.0
C611 C 0.84706 0.61496 0.83115 0.0
H612 H 0.90586 0.72171 0.80953 0.0
C613 C 0.87358 0.59277 0.86199 0.0
C614 C 0.91059 0.61756 0.87552 0.0
H615 H 0.81718 0.59597 0.82343 0.0
H616 H 0.86325 0.55724 0.87729 0.0
C617 C 0.92336 0.66314 0.85427 0.0
C618 C 0.12146 0.30523 0.17682 0.0
C619 C 0.16167 0.32789 0.18623 0.0
H620 H 0.064 0.30933 0.13953 0.0
C621 C 0.17065 0.37596 0.16997 0.0
H622 H 0.1132 0.26834 0.18941 0.0
C623 C 0.14218 0.39955 0.14172 0.0
C624 C 0.10427 0.37548 0.12902 0.0
H625 H 0.20092 0.39466 0.17717 0.0
H626 H 0.15156 0.43576 0.12768 0.0
C627 C 0.09296 0.32884 0.14851 0.0
C628 C 0.14545 0.61043 0.82281 0.0
C629 C 0.14693 0.6584 0.83111 0.0
H630 H 0.12091 0.53866 0.84431 0.0
C631 C 0.11801 0.67096 0.86588 0.0
H632 H 0.16694 0.59907 0.79642 0.0
C633 C 0.09021 0.63605 0.89269 0.0
C634 C 0.09114 0.58766 0.88579 0.0
H635 H 0.118 0.70743 0.8733 0.0
H636 H 0.07053 0.6464 0.92067 0.0
C637 C 0.11853 0.57564 0.85001 0.0
C638 C 0.39236 0.20036 0.83169 0.0
C639 C 0.35681 0.17302 0.81828 0.0
H640 H 0.44834 0.20131 0.87102 0.0
C641 C 0.35584 0.12337 0.82875 0.0
H642 H 0.39442 0.23878 0.8237 0.0
C643 C 0.38745 0.10192 0.8549 0.0
C644 C 0.42034 0.12965 0.87183 0.0
H645 H 0.32959 0.10121 0.81821 0.0
H646 H 0.38403 0.06374 0.86442 0.0
C647 C 0.42379 0.17889 0.85833 0.0
C648 C 0.85317 0.32671 0.96117 0.0
C649 C 0.85583 0.33827 0.91605 0.0
H650 H 0.87377 0.34679 0.02068 0.0
C651 C 0.87002 0.38464 0.8976 0.0
H652 H 0.84135 0.29154 0.97621 0.0
C653 C 0.88756 0.41665 0.92318 0.0
C654 C 0.89184 0.40196 0.96711 0.0
H655 H 0.87058 0.3949 0.86296 0.0
H656 H 0.90328 0.44999 0.90742 0.0
C657 C 0.87096 0.3586 0.98667 0.0
C658 C 0.71728 0.82147 0.88253 0.0
C659 C 0.69811 0.78234 0.8656 0.0
H660 H 0.70789 0.87568 0.9244 0.0
C661 C 0.65476 0.76475 0.88257 0.0
H662 H 0.75081 0.83572 0.87049 0.0
C663 C 0.62996 0.78788 0.91364 0.0
C664 C 0.64804 0.82906 0.9284 0.0
H665 H 0.63904 0.73467 0.87029 0.0
H666 H 0.59586 0.77464 0.92466 0.0
C667 C 0.69259 0.84451 0.91352 0.0
C668 C 0.86384 0.7305 0.11674 0.0
C669 C 0.82034 0.71553 0.13509 0.0
H670 H 0.92061 0.71622 0.07396 0.0
C671 C 0.79853 0.67671 0.11979 0.0
H672 H 0.88151 0.76017 0.12781 0.0
C673 C 0.82094 0.65106 0.08942 0.0
C674 C 0.86563 0.66387 0.07322 0.0
H675 H 0.76459 0.66474 0.13269 0.0
H676 H 0.80376 0.62018 0.0799 0.0
C677 C 0.88624 0.70497 0.08603 0.0
C678 C 0.33834 0.86462 0.12839 0.0
C679 C 0.34947 0.8521 0.17101 0.0
H680 H 0.35673 0.90311 0.06612 0.0
C681 C 0.39198 0.86855 0.18209 0.0
H682 H 0.30669 0.85209 0.11799 0.0
C683 C 0.4214 0.89863 0.15164 0.0
C684 C 0.40888 0.91228 0.10951 0.0
H685 H 0.40204 0.85907 0.21449 0.0
H686 H 0.45276 0.91253 0.16149 0.0
C687 C 0.36747 0.89377 0.09834 0.0
C688 C 0.68814 0.05929 0.08872 0.0
C689 C 0.70611 0.10627 0.08062 0.0
H690 H 0.63639 0.01012 0.0759 0.0
C691 C 0.6921 0.1367 0.04573 0.0
H692 H 0.69799 0.03551 0.11596 0.0
C693 C 0.656 0.12272 0.02347 0.0
C694 C 0.6338 0.07795 0.03562 0.0
H695 H 0.70508 0.1733 0.03934 0.0
H696 H 0.64306 0.14849 0.9994 0.0
C697 C 0.6524 0.04506 0.06612 0.0
C698 C 0.58256 0.51885 0.79369 0.0
C699 C 0.58247 0.56644 0.775 0.0
H700 H 0.57819 0.47407 0.85434 0.0
C701 C 0.55418 0.59791 0.79538 0.0
H702 H 0.60197 0.49317 0.77748 0.0
C703 C 0.54157 0.58781 0.83975 0.0
C704 C 0.55463 0.54497 0.86164 0.0
H705 H 0.55114 0.63416 0.78032 0.0
H706 H 0.52683 0.61523 0.8574 0.0
C707 C 0.57056 0.5086 0.83797 0.0
C708 C 0.34582 0.62476 0.82901 0.0
C709 C 0.34629 0.67473 0.82067 0.0
H710 H 0.36857 0.56415 0.86863 0.0
C711 C 0.37535 0.70187 0.84224 0.0
H712 H 0.32346 0.60311 0.81293 0.0
C713 C 0.40195 0.67972 0.87309 0.0
C714 C 0.39902 0.62995 0.88404 0.0
H715 H 0.37635 0.74048 0.83627 0.0
H716 H 0.42251 0.70195 0.89038 0.0
C717 C 0.37153 0.60255 0.86091 0.0
C718 C 0.36892 0.44383 0.87272 0.0
C719 C 0.36436 0.39714 0.86221 0.0
H720 H 0.39406 0.4886 0.91673 0.0
C721 C 0.37375 0.35886 0.89279 0.0
H722 H 0.36112 0.47385 0.84991 0.0
C723 C 0.39124 0.36708 0.9315 0.0
C724 C 0.40055 0.41388 0.94024 0.0
H725 H 0.36916 0.3224 0.88595 0.0
H726 H 0.40073 0.33668 0.95301 0.0
C727 C 0.38711 0.45215 0.91137 0.0
C728 C 0.63994 0.33972 0.82864 0.0
C729 C 0.68713 0.3445 0.82146 0.0
H730 H 0.58157 0.34809 0.87161 0.0
C731 C 0.71192 0.36486 0.85162 0.0
H732 H 0.6202 0.32332 0.80631 0.0
C733 C 0.68994 0.37885 0.8891 0.0
C734 C 0.64296 0.37162 0.89746 0.0
H735 H 0.74852 0.36832 0.84697 0.0
H736 H 0.70976 0.39408 0.91204 0.0
C737 C 0.61806 0.35278 0.86654 0.0
C738 C 0.65576 0.37964 0.174 0.0
C739 C 0.65222 0.32979 0.18386 0.0
H740 H 0.63804 0.44055 0.13159 0.0
C741 C 0.62261 0.30362 0.16205 0.0
H742 H 0.67865 0.40053 0.19022 0.0
C743 C 0.59872 0.32644 0.12935 0.0
C744 C 0.60498 0.37582 0.11684 0.0
H745 H 0.6193 0.26512 0.16914 0.0
H746 H 0.57768 0.3048 0.11196 0.0
C747 C 0.63272 0.40245 0.14034 0.0
C748 C 0.64285 0.56176 0.12546 0.0
C749 C 0.64404 0.60732 0.13914 0.0
H750 H 0.62096 0.51876 0.07849 0.0
C751 C 0.63085 0.64626 0.11121 0.0
H752 H 0.65364 0.53126 0.14602 0.0
C753 C 0.61336 0.63944 0.07211 0.0
C754 C 0.60777 0.59328 0.06016 0.0
H755 H 0.63282 0.68207 0.12027 0.0
H756 H 0.60129 0.67015 0.05275 0.0
C757 C 0.62465 0.55476 0.08643 0.0
C758 C 0.30104 0.63766 0.15102 0.0
C759 C 0.32658 0.6588 0.18015 0.0
H760 H 0.30147 0.60915 0.09042 0.0
C761 C 0.37347 0.66547 0.17108 0.0
H762 H 0.26461 0.63284 0.15715 0.0
C763 C 0.39419 0.6536 0.13227 0.0
C764 C 0.36843 0.63412 0.10232 0.0
H765 H 0.39369 0.68258 0.19261 0.0
H766 H 0.43044 0.6597 0.12574 0.0
C767 C 0.32189 0.62497 0.11257 0.0
C768 C 0.42699 0.47952 0.20802 0.0
C769 C 0.43197 0.43174 0.2244 0.0
H770 H 0.42578 0.52685 0.14922 0.0
C771 C 0.46334 0.40501 0.20197 0.0
H772 H 0.40533 0.50193 0.226 0.0
C773 C 0.4742 0.41835 0.15767 0.0
C774 C 0.45629 0.45995 0.13794 0.0
H775 H 0.47036 0.36903 0.21532 0.0
H776 H 0.49165 0.39385 0.13843 0.0
C777 C 0.43705 0.49291 0.16377 0.0
C778 C 0.80414 0.66876 0.61213 0.0
C779 C 0.82305 0.70761 0.62962 0.0
H780 H 0.8138 0.61574 0.56913 0.0
C781 C 0.86613 0.72602 0.61258 0.0
H782 H 0.77081 0.65394 0.62422 0.0
C783 C 0.891 0.70389 0.58086 0.0
C784 C 0.87321 0.66299 0.56549 0.0
H785 H 0.88161 0.75595 0.62528 0.0
H786 H 0.92492 0.71768 0.56983 0.0
C787 C 0.82886 0.64678 0.58044 0.0
C788 C 0.35833 0.88957 0.68553 0.0
C789 C 0.35323 0.84229 0.67598 0.0
H790 H 0.38792 0.95979 0.66565 0.0
C791 C 0.38096 0.82873 0.64084 0.0
H792 H 0.33781 0.90164 0.7122 0.0
C793 C 0.41119 0.86209 0.61493 0.0
C794 C 0.41402 0.91005 0.62304 0.0
H795 H 0.37828 0.79272 0.63246 0.0
H796 H 0.42982 0.85116 0.58663 0.0
C797 C 0.38767 0.92297 0.65915 0.0
C798 C 0.15706 0.37334 0.6745 0.0
C799 C 0.15512 0.32387 0.68629 0.0
H800 H 0.13133 0.43226 0.63581 0.0
C801 C 0.11994 0.2964 0.67248 0.0
H802 H 0.18308 0.39557 0.68534 0.0
C803 C 0.09012 0.31742 0.64392 0.0
C804 C 0.09492 0.36626 0.62891 0.0
H805 H 0.11718 0.25813 0.68146 0.0
H806 H 0.06598 0.29478 0.63091 0.0
C807 C 0.12705 0.39435 0.64641 0.0
C808 C 0.63966 0.1168 0.61077 0.0
C809 C 0.65561 0.1619 0.59033 0.0
H810 H 0.60404 0.05164 0.60404 0.0
C811 C 0.65795 0.17109 0.54502 0.0
H812 H 0.63907 0.10831 0.64562 0.0
C813 C 0.6387 0.13828 0.5212 0.0
C814 C 0.61692 0.09612 0.54251 0.0
H815 H 0.6709 0.20522 0.52844 0.0
H816 H 0.63601 0.14843 0.4869 0.0
C817 C 0.62074 0.08382 0.58688 0.0
C818 C 0.83345 0.35258 0.44554 0.0
C819 C 0.81196 0.38658 0.41823 0.0
H820 H 0.88788 0.33762 0.48473 0.0
C821 C 0.82675 0.43476 0.41526 0.0
H822 H 0.82391 0.31503 0.44866 0.0
C823 C 0.86492 0.44762 0.4354 0.0
C824 C 0.88864 0.41259 0.45923 0.0
H825 H 0.81042 0.46222 0.39551 0.0
H826 H 0.87724 0.48443 0.43015 0.0
C827 C 0.87098 0.36548 0.46595 0.0
C828 C 0.64725 0.76889 0.38789 0.0
C829 C 0.69036 0.78472 0.36904 0.0
H830 H 0.59048 0.78208 0.4312 0.0
C831 C 0.71132 0.8245 0.38365 0.0
H832 H 0.63018 0.73852 0.37734 0.0
C833 C 0.68855 0.84988 0.41406 0.0
C834 C 0.64429 0.83595 0.43099 0.0
H835 H 0.74489 0.83731 0.37029 0.0
H836 H 0.70516 0.88131 0.42318 0.0
C837 C 0.62447 0.7942 0.4186 0.0
C838 C 0.18539 0.60044 0.34141 0.0
C839 C 0.16693 0.64315 0.32491 0.0
H840 H 0.17525 0.53358 0.38048 0.0
C841 C 0.12028 0.64939 0.33491 0.0
H842 H 0.22086 0.59408 0.33387 0.0
C843 C 0.09352 0.61465 0.36321 0.0
C844 C 0.11272 0.57248 0.38107 0.0
H845 H 0.105 0.68204 0.32247 0.0
H846 H 0.05854 0.62163 0.37225 0.0
C847 C 0.15873 0.56553 0.36824 0.0
C848 C 0.34592 0.11492 0.3321 0.0
C849 C 0.35589 0.16241 0.31441 0.0
H850 H 0.36251 0.05678 0.37759 0.0
C851 C 0.39569 0.18529 0.32449 0.0
H852 H 0.31594 0.09606 0.32446 0.0
C853 C 0.42256 0.16274 0.35496 0.0
C854 C 0.40995 0.11699 0.37591 0.0
H855 H 0.4047 0.22171 0.31086 0.0
H856 H 0.45112 0.18253 0.36436 0.0
C857 C 0.37274 0.0924 0.3625 0.0
C858 C 0.67106 0.87544 0.66958 0.0
C859 C 0.6624 0.82722 0.68547 0.0
H860 H 0.65149 0.93544 0.62784 0.0
C861 C 0.62221 0.80447 0.67613 0.0
H862 H 0.7013 0.8942 0.67678 0.0
C863 C 0.59346 0.82815 0.64814 0.0
C864 C 0.6045 0.87494 0.62892 0.0
H865 H 0.61418 0.76746 0.68848 0.0
H866 H 0.56455 0.80858 0.63912 0.0
C867 C 0.64234 0.8991 0.64167 0.0
C868 C 0.61841 0.17024 0.36557 0.0
C869 C 0.64766 0.15768 0.33104 0.0
H870 H 0.57063 0.1457 0.42015 0.0
C871 C 0.6465 0.10964 0.32292 0.0
H872 H 0.61814 0.20677 0.37284 0.0
C873 C 0.61953 0.07484 0.35007 0.0
C874 C 0.59178 0.08688 0.38562 0.0
H875 H 0.66824 0.09827 0.29671 0.0
H876 H 0.62215 0.03783 0.34453 0.0
C877 C 0.59057 0.13531 0.39234 0.0
C878 C 0.89365 0.70085 0.3291 0.0
C879 C 0.85798 0.67369 0.31571 0.0
H880 H 0.94991 0.70134 0.36806 0.0
C881 C 0.8573 0.62395 0.32535 0.0
H882 H 0.89553 0.73933 0.32165 0.0
C883 C 0.88921 0.60219 0.35093 0.0
C884 C 0.92205 0.62973 0.36814 0.0
H885 H 0.83099 0.60195 0.31471 0.0
H886 H 0.88592 0.56394 0.36002 0.0
C887 C 0.92535 0.67907 0.35518 0.0
C888 C 0.35328 0.82503 0.46117 0.0
C889 C 0.35567 0.83627 0.41603 0.0
H890 H 0.37444 0.84539 0.52039 0.0
C891 C 0.3703 0.88241 0.39726 0.0
H892 H 0.3412 0.79004 0.47646 0.0
C893 C 0.38831 0.91449 0.42251 0.0
C894 C 0.39258 0.90018 0.46651 0.0
H895 H 0.37075 0.89243 0.36259 0.0
H896 H 0.40423 0.94763 0.40651 0.0
C897 C 0.37157 0.85698 0.48636 0.0
C898 C 0.15344 0.26462 0.38434 0.0
C899 C 0.19678 0.2822 0.36735 0.0
H900 H 0.0947 0.27434 0.42667 0.0
C901 C 0.21615 0.32103 0.38458 0.0
H902 H 0.13758 0.23475 0.37185 0.0
C903 C 0.19165 0.34383 0.41584 0.0
C904 C 0.14707 0.32845 0.43071 0.0
H905 H 0.2497 0.33524 0.37255 0.0
H906 H 0.20707 0.37483 0.42691 0.0
C907 C 0.12881 0.28752 0.41569 0.0
C908 C 0.36321 0.22831 0.6173 0.0
C909 C 0.32007 0.21277 0.63621 0.0
H910 H 0.41966 0.21478 0.57382 0.0
C911 C 0.29855 0.17349 0.62136 0.0
H912 H 0.38064 0.25838 0.62797 0.0
C913 C 0.32092 0.14806 0.59079 0.0
C914 C 0.36528 0.16155 0.57393 0.0
H915 H 0.26487 0.16107 0.63469 0.0
H916 H 0.30398 0.11687 0.58158 0.0
C917 C 0.38557 0.20301 0.58639 0.0
C918 C 0.89593 0.34843 0.66417 0.0
C919 C 0.84996 0.35767 0.67479 0.0
H920 H 0.95806 0.37148 0.625 0.0
C921 C 0.83346 0.40099 0.65735 0.0
H922 H 0.90968 0.31515 0.67725 0.0
C923 C 0.86129 0.43363 0.62913 0.0
C924 C 0.90649 0.42363 0.6157 0.0
H925 H 0.7986 0.40958 0.66524 0.0
H926 H 0.84623 0.46627 0.61634 0.0
C927 C 0.92382 0.38081 0.63445 0.0
C928 C 0.18686 0.55991 0.58869 0.0
C929 C 0.20498 0.60683 0.58075 0.0
H930 H 0.13515 0.51094 0.5755 0.0
C931 C 0.19113 0.63745 0.54592 0.0
H932 H 0.19657 0.53601 0.61591 0.0
C933 C 0.15512 0.62368 0.52345 0.0
C934 C 0.13285 0.5789 0.53532 0.0
H935 H 0.20419 0.67403 0.53969 0.0
H936 H 0.14233 0.64959 0.49941 0.0
C937 C 0.15121 0.54587 0.56588 0.0
loop_
_geom_bond_atom_site_label_1
_geom_bond_atom_site_label_2
_geom_bond_distance
_geom_bond_site_symmetry_2
_ccdc_geom_bond_type
C0 O16 1.251 . S
C0 O18 1.254 . S
N1 C2 1.333 . S
N1 C6 1.307 . S
N1 Zn7 2.020 . S
C2 N1 1.333 . S
C2 C3 1.379 . S
C2 H20 0.952 . S
C3 C2 1.379 . S
C3 C4 1.390 . S
C3 H30 0.949 . S
C4 C3 1.390 . S
C4 C5 1.357 . S
C5 C4 1.357 . S
C5 C6 1.370 . S
C5 H31 0.950 . S
C6 N1 1.307 . S
C6 C5 1.370 . S
C6 H24 0.948 . S
Zn7 N1 2.020 . S
Zn7 O16 2.039 . S
Zn7 O22 2.034 . S
Zn7 O26 2.025 . S
Zn7 O28 2.024 . S
C8 O27 1.246 . S
C8 O28 1.249 . S
N9 C10 1.307 . S
N9 C11 1.333 . S
N9 Zn15 2.020 . S
C10 N9 1.307 . S
C10 C14 1.370 . S
C10 H21 0.948 . S
C11 N9 1.333 . S
C11 C12 1.379 . S
C11 H19 0.952 . S
C12 C11 1.379 . S
C12 C13 1.390 . S
C12 H32 0.949 . S
C13 C12 1.390 . S
C13 C14 1.357 . S
C14 C10 1.370 . S
C14 C13 1.357 . S
C14 H33 0.950 . S
Zn15 N9 2.020 . S
Zn15 O18 2.025 . S
Zn15 O23 2.024 . S
Zn15 O25 2.039 . S
Zn15 O27 2.034 . S
O16 C0 1.251 . S
O16 Zn7 2.039 . S
C17 O22 1.246 . S
C17 O23 1.249 . S
O18 C0 1.254 . S
O18 Zn15 2.025 . S
H19 C11 0.952 . S
H20 C2 0.952 . S
H21 C10 0.948 . S
O22 Zn7 2.034 . S
O22 C17 1.246 . S
O23 Zn15 2.024 . S
O23 C17 1.249 . S
H24 C6 0.948 . S
O25 Zn15 2.039 . S
O25 C29 1.251 . S
O26 Zn7 2.025 . S
O26 C29 1.254 . S
O27 C8 1.246 . S
O27 Zn15 2.034 . S
O28 Zn7 2.024 . S
O28 C8 1.249 . S
C29 O25 1.251 . S
C29 O26 1.254 . S
H30 C3 0.949 . S
H31 C5 0.950 . S
H32 C12 0.949 . S
H33 C14 0.950 . S
C34 O50 1.251 . S
C34 O52 1.254 . S
N35 C36 1.333 . S
N35 C40 1.307 . S
N35 Zn41 2.020 . S
C36 N35 1.333 . S
C36 C37 1.379 . S
C36 H54 0.952 . S
C37 C36 1.379 . S
C37 C38 1.390 . S
C37 H64 0.949 . S
C38 C37 1.390 . S
C38 C39 1.357 . S
C39 C38 1.357 . S
C39 C40 1.370 . S
C39 H65 0.950 . S
C40 N35 1.307 . S
C40 C39 1.370 . S
C40 H58 0.948 . S
Zn41 N35 2.020 . S
Zn41 O50 2.039 . S
Zn41 O56 2.034 . S
Zn41 O60 2.025 . S
Zn41 O62 2.024 . S
C42 O61 1.246 . S
C42 O62 1.249 . S
N43 C44 1.307 . S
N43 C45 1.333 . S
N43 Zn49 2.020 . S
C44 N43 1.307 . S
C44 C48 1.370 . S
C44 H55 0.948 . S
C45 N43 1.333 . S
C45 C46 1.379 . S
C45 H53 0.952 . S
C46 C45 1.379 . S
C46 C47 1.390 . S
C46 H66 0.949 . S
C47 C46 1.390 . S
C47 C48 1.357 . S
C48 C44 1.370 . S
C48 C47 1.357 . S
C48 H67 0.950 . S
Zn49 N43 2.020 . S
Zn49 O52 2.025 . S
Zn49 O57 2.024 . S
Zn49 O59 2.039 . S
Zn49 O61 2.034 . S
O50 C34 1.251 . S
O50 Zn41 2.039 . S
C51 O56 1.246 . S
C51 O57 1.249 . S
O52 C34 1.254 . S
O52 Zn49 2.025 . S
H53 C45 0.952 . S
H54 C36 0.952 . S
H55 C44 0.948 . S
O56 Zn41 2.034 . S
O56 C51 1.246 . S
O57 Zn49 2.024 . S
O57 C51 1.249 . S
H58 C40 0.948 . S
O59 Zn49 2.039 . S
O59 C63 1.251 . S
O60 Zn41 2.025 . S
O60 C63 1.254 . S
O61 C42 1.246 . S
O61 Zn49 2.034 . S
O62 Zn41 2.024 . S
O62 C42 1.249 . S
C63 O59 1.251 . S
C63 O60 1.254 . S
H64 C37 0.949 . S
H65 C39 0.950 . S
H66 C46 0.949 . S
H67 C48 0.950 . S
C68 O84 1.251 . S
C68 O86 1.254 . S
N69 C70 1.333 . S
N69 C74 1.307 . S
N69 Zn75 2.020 . S
C70 N69 1.333 . S
C70 C71 1.379 . S
C70 H88 0.952 . S
C71 C70 1.379 . S
C71 C72 1.390 . S
C71 H98 0.949 . S
C72 C71 1.390 . S
C72 C73 1.357 . S
C73 C72 1.357 . S
C73 C74 1.370 . S
C73 H99 0.950 . S
C74 N69 1.307 . S
C74 C73 1.370 . S
C74 H92 0.948 . S
Zn75 N69 2.020 . S
Zn75 O84 2.039 . S
Zn75 O90 2.034 . S
Zn75 O94 2.025 . S
Zn75 O96 2.024 . S
C76 O95 1.246 . S
C76 O96 1.249 . S
N77 C78 1.307 . S
N77 C79 1.333 . S
N77 Zn83 2.020 . S
C78 N77 1.307 . S
C78 C82 1.370 . S
C78 H89 0.948 . S
C79 N77 1.333 . S
C79 C80 1.379 . S
C79 H87 0.952 . S
C80 C79 1.379 . S
C80 C81 1.390 . S
C80 H100 0.949 . S
C81 C80 1.390 . S
C81 C82 1.357 . S
C82 C78 1.370 . S
C82 C81 1.357 . S
C82 H101 0.950 . S
Zn83 N77 2.020 . S
Zn83 O86 2.025 . S
Zn83 O91 2.024 . S
Zn83 O93 2.039 . S
Zn83 O95 2.034 . S
O84 C68 1.251 . S
O84 Zn75 2.039 . S
C85 O90 1.246 . S
C85 O91 1.249 . S
O86 C68 1.254 . S
O86 Zn83 2.025 . S
H87 C79 0.952 . S
H88 C70 0.952 . S
H89 C78 0.948 . S
O90 Zn75 2.034 . S
O90 C85 1.246 . S
O91 Zn83 2.024 . S
O91 C85 1.249 . S
H92 C74 0.948 . S
O93 Zn83 2.039 . S
O93 C97 1.251 . S
O94 Zn75 2.025 . S
O94 C97 1.254 . S
O95 C76 1.246 . S
O95 Zn83 2.034 . S
O96 Zn75 2.024 . S
O96 C76 1.249 . S
C97 O93 1.251 . S
C97 O94 1.254 . S
H98 C71 0.949 . S
H99 C73 0.950 . S
H100 C80 0.949 . S
H101 C82 0.950 . S
C102 O118 1.251 . S
C102 O120 1.254 . S
N103 C104 1.333 . S
N103 C108 1.307 . S
N103 Zn109 2.020 . S
C104 N103 1.333 . S
C104 C105 1.379 . S
C104 H122 0.952 . S
C105 C104 1.379 . S
C105 C106 1.390 . S
C105 H132 0.949 . S
C106 C105 1.390 . S
C106 C107 1.357 . S
C107 C106 1.357 . S
C107 C108 1.370 . S
C107 H133 0.950 . S
C108 N103 1.307 . S
C108 C107 1.370 . S
C108 H126 0.948 . S
Zn109 N103 2.020 . S
Zn109 O118 2.039 . S
Zn109 O124 2.034 . S
Zn109 O128 2.025 . S
Zn109 O130 2.024 . S
C110 O129 1.246 . S
C110 O130 1.249 . S
N111 C112 1.307 . S
N111 C113 1.333 . S
N111 Zn117 2.020 . S
C112 N111 1.307 . S
C112 C116 1.370 . S
C112 H123 0.948 . S
C113 N111 1.333 . S
C113 C114 1.379 . S
C113 H121 0.952 . S
C114 C113 1.379 . S
C114 C115 1.390 . S
C114 H134 0.949 . S
C115 C114 1.390 . S
C115 C116 1.357 . S
C116 C112 1.370 . S
C116 C115 1.357 . S
C116 H135 0.950 . S
Zn117 N111 2.020 . S
Zn117 O120 2.025 . S
Zn117 O125 2.024 . S
Zn117 O127 2.039 . S
Zn117 O129 2.034 . S
O118 C102 1.251 . S
O118 Zn109 2.039 . S
C119 O124 1.246 . S
C119 O125 1.249 . S
O120 C102 1.254 . S
O120 Zn117 2.025 . S
H121 C113 0.952 . S
H122 C104 0.952 . S
H123 C112 0.948 . S
O124 Zn109 2.034 . S
O124 C119 1.246 . S
O125 Zn117 2.024 . S
O125 C119 1.249 . S
H126 C108 0.948 . S
O127 Zn117 2.039 . S
O127 C131 1.251 . S
O128 Zn109 2.025 . S
O128 C131 1.254 . S
O129 C110 1.246 . S
O129 Zn117 2.034 . S
O130 Zn109 2.024 . S
O130 C110 1.249 . S
C131 O127 1.251 . S
C131 O128 1.254 . S
H132 C105 0.949 . S
H133 C107 0.950 . S
H134 C114 0.949 . S
H135 C116 0.950 . S
C136 O152 1.251 . S
C136 O154 1.254 . S
N137 C138 1.333 . S
N137 C142 1.307 . S
N137 Zn143 2.020 . S
C138 N137 1.333 . S
C138 C139 1.379 . S
C138 H156 0.952 . S
C139 C138 1.379 . S
C139 C140 1.390 . S
C139 H166 0.949 . S
C140 C139 1.390 . S
C140 C141 1.357 . S
C141 C140 1.357 . S
C141 C142 1.370 . S
C141 H167 0.950 . S
C142 N137 1.307 . S
C142 C141 1.370 . S
C142 H160 0.948 . S
Zn143 N137 2.020 . S
Zn143 O152 2.039 . S
Zn143 O158 2.034 . S
Zn143 O162 2.025 . S
Zn143 O164 2.024 . S
C144 O163 1.246 . S
C144 O164 1.249 . S
N145 C146 1.307 . S
N145 C147 1.333 . S
N145 Zn151 2.020 . S
C146 N145 1.307 . S
C146 C150 1.370 . S
C146 H157 0.948 . S
C147 N145 1.333 . S
C147 C148 1.379 . S
C147 H155 0.952 . S
C148 C147 1.379 . S
C148 C149 1.390 . S
C148 H168 0.949 . S
C149 C148 1.390 . S
C149 C150 1.357 . S
C150 C146 1.370 . S
C150 C149 1.357 . S
C150 H169 0.950 . S
Zn151 N145 2.020 . S
Zn151 O154 2.025 . S
Zn151 O159 2.024 . S
Zn151 O161 2.039 . S
Zn151 O163 2.034 . S
O152 C136 1.251 . S
O152 Zn143 2.039 . S
C153 O158 1.246 . S
C153 O159 1.249 . S
O154 C136 1.254 . S
O154 Zn151 2.025 . S
H155 C147 0.952 . S
H156 C138 0.952 . S
H157 C146 0.948 . S
O158 Zn143 2.034 . S
O158 C153 1.246 . S
O159 Zn151 2.024 . S
O159 C153 1.249 . S
H160 C142 0.948 . S
O161 Zn151 2.039 . S
O161 C165 1.251 . S
O162 Zn143 2.025 . S
O162 C165 1.254 . S
O163 C144 1.246 . S
O163 Zn151 2.034 . S
O164 Zn143 2.024 . S
O164 C144 1.249 . S
C165 O161 1.251 . S
C165 O162 1.254 . S
H166 C139 0.949 . S
H167 C141 0.950 . S
H168 C148 0.949 . S
H169 C150 0.950 . S
C170 O186 1.251 . S
C170 O188 1.254 . S
N171 C172 1.333 . S
N171 C176 1.307 . S
N171 Zn177 2.020 . S
C172 N171 1.333 . S
C172 C173 1.379 . S
C172 H190 0.952 . S
C173 C172 1.379 . S
C173 C174 1.390 . S
C173 H200 0.949 . S
C174 C173 1.390 . S
C174 C175 1.357 . S
C175 C174 1.357 . S
C175 C176 1.370 . S
C175 H201 0.950 . S
C176 N171 1.307 . S
C176 C175 1.370 . S
C176 H194 0.948 . S
Zn177 N171 2.020 . S
Zn177 O186 2.039 . S
Zn177 O192 2.034 . S
Zn177 O196 2.025 . S
Zn177 O198 2.024 . S
C178 O197 1.246 . S
C178 O198 1.249 . S
N179 C180 1.307 . S
N179 C181 1.333 . S
N179 Zn185 2.020 . S
C180 N179 1.307 . S
C180 C184 1.370 . S
C180 H191 0.948 . S
C181 N179 1.333 . S
C181 C182 1.379 . S
C181 H189 0.952 . S
C182 C181 1.379 . S
C182 C183 1.390 . S
C182 H202 0.949 . S
C183 C182 1.390 . S
C183 C184 1.357 . S
C184 C180 1.370 . S
C184 C183 1.357 . S
C184 H203 0.950 . S
Zn185 N179 2.020 . S
Zn185 O188 2.025 . S
Zn185 O193 2.024 . S
Zn185 O195 2.039 . S
Zn185 O197 2.034 . S
O186 C170 1.251 . S
O186 Zn177 2.039 . S
C187 O192 1.246 . S
C187 O193 1.249 . S
O188 C170 1.254 . S
O188 Zn185 2.025 . S
H189 C181 0.952 . S
H190 C172 0.952 . S
H191 C180 0.948 . S
O192 Zn177 2.034 . S
O192 C187 1.246 . S
O193 Zn185 2.024 . S
O193 C187 1.249 . S
H194 C176 0.948 . S
O195 Zn185 2.039 . S
O195 C199 1.251 . S
O196 Zn177 2.025 . S
O196 C199 1.254 . S
O197 C178 1.246 . S
O197 Zn185 2.034 . S
O198 Zn177 2.024 . S
O198 C178 1.249 . S
C199 O195 1.251 . S
C199 O196 1.254 . S
H200 C173 0.949 . S
H201 C175 0.950 . S
H202 C182 0.949 . S
H203 C184 0.950 . S
C204 O220 1.251 . S
C204 O222 1.254 . S
N205 C206 1.333 . S
N205 C210 1.307 . S
N205 Zn211 2.020 . S
C206 N205 1.333 . S
C206 C207 1.379 . S
C206 H224 0.952 . S
C207 C206 1.379 . S
C207 C208 1.390 . S
C207 H234 0.949 . S
C208 C207 1.390 . S
C208 C209 1.357 . S
C209 C208 1.357 . S
C209 C210 1.370 . S
C209 H235 0.950 . S
C210 N205 1.307 . S
C210 C209 1.370 . S
C210 H228 0.948 . S
Zn211 N205 2.020 . S
Zn211 O220 2.039 . S
Zn211 O226 2.034 . S
Zn211 O230 2.025 . S
Zn211 O232 2.024 . S
C212 O231 1.246 . S
C212 O232 1.249 . S
N213 C214 1.307 . S
N213 C215 1.333 . S
N213 Zn219 2.020 . S
C214 N213 1.307 . S
C214 C218 1.370 . S
C214 H225 0.948 . S
C215 N213 1.333 . S
C215 C216 1.379 . S
C215 H223 0.952 . S
C216 C215 1.379 . S
C216 C217 1.390 . S
C216 H236 0.949 . S
C217 C216 1.390 . S
C217 C218 1.357 . S
C218 C214 1.370 . S
C218 C217 1.357 . S
C218 H237 0.950 . S
Zn219 N213 2.020 . S
Zn219 O222 2.025 . S
Zn219 O227 2.024 . S
Zn219 O229 2.039 . S
Zn219 O231 2.034 . S
O220 C204 1.251 . S
O220 Zn211 2.039 . S
C221 O226 1.246 . S
C221 O227 1.249 . S
O222 C204 1.254 . S
O222 Zn219 2.025 . S
H223 C215 0.952 . S
H224 C206 0.952 . S
H225 C214 0.948 . S
O226 Zn211 2.034 . S
O226 C221 1.246 . S
O227 Zn219 2.024 . S
O227 C221 1.249 . S
H228 C210 0.948 . S
O229 Zn219 2.039 . S
O229 C233 1.251 . S
O230 Zn211 2.025 . S
O230 C233 1.254 . S
O231 C212 1.246 . S
O231 Zn219 2.034 . S
O232 Zn211 2.024 . S
O232 C212 1.249 . S
C233 O229 1.251 . S
C233 O230 1.254 . S
H234 C207 0.949 . S
H235 C209 0.950 . S
H236 C216 0.949 . S
H237 C218 0.950 . S
C238 O254 1.251 . S
C238 O256 1.254 . S
N239 C240 1.333 . S
N239 C244 1.307 . S
N239 Zn245 2.020 . S
C240 N239 1.333 . S
C240 C241 1.379 . S
C240 H258 0.952 . S
C241 C240 1.379 . S
C241 C242 1.390 . S
C241 H268 0.949 . S
C242 C241 1.390 . S
C242 C243 1.357 . S
C243 C242 1.357 . S
C243 C244 1.370 . S
C243 H269 0.950 . S
C244 N239 1.307 . S
C244 C243 1.370 . S
C244 H262 0.948 . S
Zn245 N239 2.020 . S
Zn245 O254 2.039 . S
Zn245 O260 2.034 . S
Zn245 O264 2.025 . S
Zn245 O266 2.024 . S
C246 O265 1.246 . S
C246 O266 1.249 . S
N247 C248 1.307 . S
N247 C249 1.333 . S
N247 Zn253 2.020 . S
C248 N247 1.307 . S
C248 C252 1.370 . S
C248 H259 0.948 . S
C249 N247 1.333 . S
C249 C250 1.379 . S
C249 H257 0.952 . S
C250 C249 1.379 . S
C250 C251 1.390 . S
C250 H270 0.949 . S
C251 C250 1.390 . S
C251 C252 1.357 . S
C252 C248 1.370 . S
C252 C251 1.357 . S
C252 H271 0.950 . S
Zn253 N247 2.020 . S
Zn253 O256 2.025 . S
Zn253 O261 2.024 . S
Zn253 O263 2.039 . S
Zn253 O265 2.034 . S
O254 C238 1.251 . S
O254 Zn245 2.039 . S
C255 O260 1.246 . S
C255 O261 1.249 . S
O256 C238 1.254 . S
O256 Zn253 2.025 . S
H257 C249 0.952 . S
H258 C240 0.952 . S
H259 C248 0.948 . S
O260 Zn245 2.034 . S
O260 C255 1.246 . S
O261 Zn253 2.024 . S
O261 C255 1.249 . S
H262 C244 0.948 . S
O263 Zn253 2.039 . S
O263 C267 1.251 . S
O264 Zn245 2.025 . S
O264 C267 1.254 . S
O265 C246 1.246 . S
O265 Zn253 2.034 . S
O266 Zn245 2.024 . S
O266 C246 1.249 . S
C267 O263 1.251 . S
C267 O264 1.254 . S
H268 C241 0.949 . S
H269 C243 0.950 . S
H270 C250 0.949 . S
H271 C252 0.950 . S
C272 O284 1.241 . S
C272 O285 1.280 . S
C273 O286 1.277 . S
C273 O287 1.245 . S
C274 O298 1.247 . S
C274 O300 1.289 . S
Mg275 O276 1.926 . S
Mg275 O285 1.984 . S
Mg275 O287 1.988 . S
Mg275 O288 2.061 1_655 S
O276 Mg275 1.926 . S
O276 Mg277 1.986 . S
O276 Mg278 1.917 1_655 S
Mg277 O276 1.986 . S
Mg277 O284 2.042 . S
Mg277 O286 2.041 . S
Mg277 O292 2.038 1_545 S
Mg277 O300 2.238 1_545 S
Mg278 O276 1.917 1_455 S
Mg278 O279 1.917 1_545 S
Mg278 O289 2.106 . S
Mg278 O291 2.079 1_445 S
Mg278 O300 2.106 1_445 S
Mg278 O301 2.079 . S
O279 Mg278 1.917 1_565 S
O279 Mg280 1.926 . S
O279 Mg281 1.986 . S
Mg280 O279 1.926 . S
Mg280 O294 1.984 . S
Mg280 O297 1.988 . S
Mg280 O298 2.061 1_455 S
Mg281 O279 1.986 . S
Mg281 O289 2.238 1_565 S
Mg281 O293 2.042 . S
Mg281 O295 2.041 . S
Mg281 O302 2.038 1_565 S
C282 O288 1.247 . S
C282 O289 1.289 . S
C283 O301 1.245 . S
C283 O302 1.274 . S
O284 C272 1.241 . S
O284 Mg277 2.042 . S
O285 C272 1.280 . S
O285 Mg275 1.984 . S
O286 C273 1.277 . S
O286 Mg277 2.041 . S
O287 C273 1.245 . S
O287 Mg275 1.988 . S
O288 Mg275 2.061 1_455 S
O288 C282 1.247 . S
O289 Mg278 2.106 . S
O289 Mg281 2.238 1_545 S
O289 C282 1.289 . S
C290 O291 1.245 . S
C290 O292 1.274 . S
O291 Mg278 2.079 1_665 S
O291 C290 1.245 . S
O292 Mg277 2.038 1_565 S
O292 C290 1.274 . S
O293 Mg281 2.042 . S
O293 C296 1.241 . S
O294 Mg280 1.984 . S
O294 C296 1.280 . S
O295 Mg281 2.041 . S
O295 C299 1.277 . S
C296 O293 1.241 . S
C296 O294 1.280 . S
O297 Mg280 1.988 . S
O297 C299 1.245 . S
O298 C274 1.247 . S
O298 Mg280 2.061 1_655 S
C299 O295 1.277 . S
C299 O297 1.245 . S
O300 C274 1.289 . S
O300 Mg277 2.238 1_565 S
O300 Mg278 2.106 1_665 S
O301 Mg278 2.079 . S
O301 C283 1.245 . S
O302 Mg281 2.038 1_545 S
O302 C283 1.274 . S
C303 O315 1.241 . S
C303 O316 1.280 . S
C304 O317 1.277 . S
C304 O318 1.245 . S
C305 O329 1.247 . S
C305 O331 1.289 . S
Mg306 O307 1.926 . S
Mg306 O316 1.984 . S
Mg306 O318 1.988 1_554 S
Mg306 O319 2.061 . S
O307 Mg306 1.926 . S
O307 Mg308 1.986 . S
O307 Mg309 1.917 . S
Mg308 O307 1.986 . S
Mg308 O315 2.042 . S
Mg308 O317 2.041 1_554 S
Mg308 O323 2.038 1_545 S
Mg308 O331 2.238 1_544 S
Mg309 O307 1.917 . S
Mg309 O310 1.916 1_544 S
Mg309 O320 2.107 . S
Mg309 O322 2.080 1_545 S
Mg309 O331 2.105 1_544 S
Mg309 O332 2.077 1_554 S
O310 Mg309 1.916 1_566 S
O310 Mg311 1.926 . S
O310 Mg312 1.986 . S
Mg311 O310 1.926 . S
Mg311 O325 1.984 . S
Mg311 O328 1.988 1_556 S
Mg311 O329 2.061 . S
Mg312 O310 1.986 . S
Mg312 O320 2.238 1_566 S
Mg312 O324 2.042 . S
Mg312 O326 2.041 1_556 S
Mg312 O333 2.038 1_565 S
C313 O319 1.247 . S
C313 O320 1.289 . S
C314 O332 1.245 . S
C314 O333 1.274 . S
O315 C303 1.241 . S
O315 Mg308 2.042 . S
O316 C303 1.280 . S
O316 Mg306 1.984 . S
O317 C304 1.277 . S
O317 Mg308 2.041 1_556 S
O318 C304 1.245 . S
O318 Mg306 1.988 1_556 S
O319 Mg306 2.061 . S
O319 C313 1.247 . S
O320 Mg309 2.107 . S
O320 Mg312 2.238 1_544 S
O320 C313 1.289 . S
C321 O322 1.245 . S
C321 O323 1.274 . S
O322 Mg309 2.080 1_565 S
O322 C321 1.245 . S
O323 Mg308 2.038 1_565 S
O323 C321 1.274 . S
O324 Mg312 2.042 . S
O324 C327 1.241 . S
O325 Mg311 1.984 . S
O325 C327 1.280 . S
O326 Mg312 2.041 1_554 S
O326 C330 1.277 . S
C327 O324 1.241 . S
C327 O325 1.280 . S
O328 Mg311 1.988 1_554 S
O328 C330 1.245 . S
O329 C305 1.247 . S
O329 Mg311 2.061 . S
C330 O326 1.277 . S
C330 O328 1.245 . S
O331 C305 1.289 . S
O331 Mg308 2.238 1_566 S
O331 Mg309 2.105 1_566 S
O332 Mg309 2.077 1_556 S
O332 C314 1.245 . S
O333 Mg312 2.038 1_545 S
O333 C314 1.274 . S
C334 O346 1.241 . S
C334 O347 1.280 . S
C335 O348 1.277 . S
C335 O349 1.245 . S
C336 O360 1.247 . S
C336 O362 1.289 . S
Mg337 O338 1.926 . S
Mg337 O347 1.984 . S
Mg337 O349 1.988 1_554 S
Mg337 O350 2.061 1_655 S
O338 Mg337 1.926 . S
O338 Mg339 1.986 . S
O338 Mg340 1.917 1_655 S
Mg339 O338 1.986 . S
Mg339 O346 2.042 . S
Mg339 O348 2.041 1_554 S
Mg339 O354 2.038 . S
Mg339 O362 2.238 1_554 S
Mg340 O338 1.917 1_455 S
Mg340 O341 1.916 1_554 S
Mg340 O351 2.107 . S
Mg340 O353 2.080 1_455 S
Mg340 O362 2.105 1_454 S
Mg340 O363 2.077 1_554 S
O341 Mg340 1.916 1_556 S
O341 Mg342 1.926 . S
O341 Mg343 1.986 . S
Mg342 O341 1.926 . S
Mg342 O356 1.984 . S
Mg342 O359 1.988 1_556 S
Mg342 O360 2.061 1_455 S
Mg343 O341 1.986 . S
Mg343 O351 2.238 1_556 S
Mg343 O355 2.042 . S
Mg343 O357 2.041 1_556 S
Mg343 O364 2.038 . S
C344 O350 1.247 . S
C344 O351 1.289 . S
C345 O363 1.245 . S
C345 O364 1.274 . S
O346 C334 1.241 . S
O346 Mg339 2.042 . S
O347 C334 1.280 . S
O347 Mg337 1.984 . S
O348 C335 1.277 . S
O348 Mg339 2.041 1_556 S
O349 C335 1.245 . S
O349 Mg337 1.988 1_556 S
O350 Mg337 2.061 1_455 S
O350 C344 1.247 . S
O351 Mg340 2.107 . S
O351 Mg343 2.238 1_554 S
O351 C344 1.289 . S
C352 O353 1.245 . S
C352 O354 1.274 . S
O353 Mg340 2.080 1_655 S
O353 C352 1.245 . S
O354 Mg339 2.038 . S
O354 C352 1.274 . S
O355 Mg343 2.042 . S
O355 C358 1.241 . S
O356 Mg342 1.984 . S
O356 C358 1.280 . S
O357 Mg343 2.041 1_554 S
O357 C361 1.277 . S
C358 O355 1.241 . S
C358 O356 1.280 . S
O359 Mg342 1.988 1_554 S
O359 C361 1.245 . S
O360 C336 1.247 . S
O360 Mg342 2.061 1_655 S
C361 O357 1.277 . S
C361 O359 1.245 . S
O362 C336 1.289 . S
O362 Mg339 2.238 1_556 S
O362 Mg340 2.105 1_656 S
O363 Mg340 2.077 1_556 S
O363 C345 1.245 . S
O364 Mg343 2.038 . S
O364 C345 1.274 . S
C365 O377 1.241 . S
C365 O378 1.280 . S
C366 O379 1.277 . S
C366 O380 1.245 . S
C367 O391 1.247 . S
C367 O393 1.289 . S
Mg368 O369 1.926 . S
Mg368 O378 1.984 . S
Mg368 O380 1.988 1_554 S
Mg368 O381 2.061 . S
O369 Mg368 1.926 . S
O369 Mg370 1.986 . S
O369 Mg371 1.917 . S
Mg370 O369 1.986 . S
Mg370 O377 2.042 . S
Mg370 O379 2.041 1_554 S
Mg370 O385 2.038 . S
Mg370 O393 2.238 1_554 S
Mg371 O369 1.917 . S
Mg371 O372 1.916 1_554 S
Mg371 O382 2.107 . S
Mg371 O384 2.080 . S
Mg371 O393 2.105 1_554 S
Mg371 O394 2.077 1_554 S
O372 Mg371 1.916 1_556 S
O372 Mg373 1.926 . S
O372 Mg374 1.986 . S
Mg373 O372 1.926 . S
Mg373 O387 1.984 . S
Mg373 O390 1.988 1_556 S
Mg373 O391 2.061 . S
Mg374 O372 1.986 . S
Mg374 O382 2.238 1_556 S
Mg374 O386 2.042 . S
Mg374 O388 2.041 1_556 S
Mg374 O395 2.038 . S
C375 O381 1.247 . S
C375 O382 1.289 . S
C376 O394 1.245 . S
C376 O395 1.274 . S
O377 C365 1.241 . S
O377 Mg370 2.042 . S
O378 C365 1.280 . S
O378 Mg368 1.984 . S
O379 C366 1.277 . S
O379 Mg370 2.041 1_556 S
O380 C366 1.245 . S
O380 Mg368 1.988 1_556 S
O381 Mg368 2.061 . S
O381 C375 1.247 . S
O382 Mg371 2.107 . S
O382 Mg374 2.238 1_554 S
O382 C375 1.289 . S
C383 O384 1.245 . S
C383 O385 1.274 . S
O384 Mg371 2.080 . S
O384 C383 1.245 . S
O385 Mg370 2.038 . S
O385 C383 1.274 . S
O386 Mg374 2.042 . S
O386 C389 1.241 . S
O387 Mg373 1.984 . S
O387 C389 1.280 . S
O388 Mg374 2.041 1_554 S
O388 C392 1.277 . S
C389 O386 1.241 . S
C389 O387 1.280 . S
O390 Mg373 1.988 1_554 S
O390 C392 1.245 . S
O391 C367 1.247 . S
O391 Mg373 2.061 . S
C392 O388 1.277 . S
C392 O390 1.245 . S
O393 C367 1.289 . S
O393 Mg370 2.238 1_556 S
O393 Mg371 2.105 1_556 S
O394 Mg371 2.077 1_556 S
O394 C376 1.245 . S
O395 Mg374 2.038 . S
O395 C376 1.274 . S
C396 O408 1.241 . S
C396 O409 1.280 . S
C397 O410 1.277 . S
C397 O411 1.245 . S
C398 O422 1.247 . S
C398 O424 1.289 . S
Mg399 O400 1.926 . S
Mg399 O409 1.984 . S
Mg399 O411 1.988 . S
Mg399 O412 2.061 1_655 S
O400 Mg399 1.926 . S
O400 Mg401 1.986 . S
O400 Mg402 1.917 1_655 S
Mg401 O400 1.986 . S
Mg401 O408 2.042 . S
Mg401 O410 2.041 . S
Mg401 O416 2.038 . S
Mg401 O424 2.238 . S
Mg402 O400 1.917 1_455 S
Mg402 O403 1.917 . S
Mg402 O413 2.106 . S
Mg402 O415 2.079 1_455 S
Mg402 O424 2.106 1_455 S
Mg402 O425 2.079 . S
O403 Mg402 1.917 . S
O403 Mg404 1.926 . S
O403 Mg405 1.986 . S
Mg404 O403 1.926 . S
Mg404 O418 1.984 . S
Mg404 O421 1.988 . S
Mg404 O422 2.061 1_455 S
Mg405 O403 1.986 . S
Mg405 O413 2.238 . S
Mg405 O417 2.042 . S
Mg405 O419 2.041 . S
Mg405 O426 2.038 . S
C406 O412 1.247 . S
C406 O413 1.289 . S
C407 O425 1.245 . S
C407 O426 1.274 . S
O408 C396 1.241 . S
O408 Mg401 2.042 . S
O409 C396 1.280 . S
O409 Mg399 1.984 . S
O410 C397 1.277 . S
O410 Mg401 2.041 . S
O411 C397 1.245 . S
O411 Mg399 1.988 . S
O412 Mg399 2.061 1_455 S
O412 C406 1.247 . S
O413 Mg402 2.106 . S
O413 Mg405 2.238 . S
O413 C406 1.289 . S
C414 O415 1.245 . S
C414 O416 1.274 . S
O415 Mg402 2.079 1_655 S
O415 C414 1.245 . S
O416 Mg401 2.038 . S
O416 C414 1.274 . S
O417 Mg405 2.042 . S
O417 C420 1.241 . S
O418 Mg404 1.984 . S
O418 C420 1.280 . S
O419 Mg405 2.041 . S
O419 C423 1.277 . S
C420 O417 1.241 . S
C420 O418 1.280 . S
O421 Mg404 1.988 . S
O421 C423 1.245 . S
O422 C398 1.247 . S
O422 Mg404 2.061 1_655 S
C423 O419 1.277 . S
C423 O421 1.245 . S
O424 C398 1.289 . S
O424 Mg401 2.238 . S
O424 Mg402 2.106 1_655 S
O425 Mg402 2.079 . S
O425 C407 1.245 . S
O426 Mg405 2.038 . S
O426 C407 1.274 . S
C427 O439 1.241 . S
C427 O440 1.280 . S
C428 O441 1.277 . S
C428 O442 1.245 . S
C429 O453 1.247 . S
C429 O455 1.289 . S
Mg430 O431 1.926 . S
Mg430 O440 1.984 . S
Mg430 O442 1.988 . S
Mg430 O443 2.061 . S
O431 Mg430 1.926 . S
O431 Mg432 1.986 . S
O431 Mg433 1.917 . S
Mg432 O431 1.986 . S
Mg432 O439 2.042 . S
Mg432 O441 2.041 . S
Mg432 O447 2.038 1_545 S
Mg432 O455 2.238 1_545 S
Mg433 O431 1.917 . S
Mg433 O434 1.917 1_545 S
Mg433 O444 2.106 . S
Mg433 O446 2.079 1_545 S
Mg433 O455 2.106 1_545 S
Mg433 O456 2.079 . S
O434 Mg433 1.917 1_565 S
O434 Mg435 1.926 . S
O434 Mg436 1.986 . S
Mg435 O434 1.926 . S
Mg435 O449 1.984 . S
Mg435 O452 1.988 . S
Mg435 O453 2.061 . S
Mg436 O434 1.986 . S
Mg436 O444 2.238 1_565 S
Mg436 O448 2.042 . S
Mg436 O450 2.041 . S
Mg436 O457 2.038 1_565 S
C437 O443 1.247 . S
C437 O444 1.289 . S
C438 O456 1.245 . S
C438 O457 1.274 . S
O439 C427 1.241 . S
O439 Mg432 2.042 . S
O440 C427 1.280 . S
O440 Mg430 1.984 . S
O441 C428 1.277 . S
O441 Mg432 2.041 . S
O442 C428 1.245 . S
O442 Mg430 1.988 . S
O443 Mg430 2.061 . S
O443 C437 1.247 . S
O444 Mg433 2.106 . S
O444 Mg436 2.238 1_545 S
O444 C437 1.289 . S
C445 O446 1.245 . S
C445 O447 1.274 . S
O446 Mg433 2.079 1_565 S
O446 C445 1.245 . S
O447 Mg432 2.038 1_565 S
O447 C445 1.274 . S
O448 Mg436 2.042 . S
O448 C451 1.241 . S
O449 Mg435 1.984 . S
O449 C451 1.280 . S
O450 Mg436 2.041 . S
O450 C454 1.277 . S
C451 O448 1.241 . S
C451 O449 1.280 . S
O452 Mg435 1.988 . S
O452 C454 1.245 . S
O453 C429 1.247 . S
O453 Mg435 2.061 . S
C454 O450 1.277 . S
C454 O452 1.245 . S
O455 C429 1.289 . S
O455 Mg432 2.238 1_565 S
O455 Mg433 2.106 1_565 S
O456 Mg433 2.079 . S
O456 C438 1.245 . S
O457 Mg436 2.038 1_545 S
O457 C438 1.274 . S
C458 C459 1.387 . S
C458 H462 0.950 . S
C458 C467 1.390 . S
C459 C458 1.387 . S
C459 C461 1.387 . S
H460 C467 0.950 . S
C461 C459 1.387 . S
C461 C463 1.390 . S
C461 H465 0.950 . S
H462 C458 0.950 . S
C463 C461 1.390 . S
C463 C464 1.387 . S
C463 H466 0.950 1_545 S
C464 C463 1.387 . S
C464 C467 1.387 . S
H465 C461 0.950 . S
H466 C463 0.950 1_565 S
C467 C458 1.390 . S
C467 H460 0.950 . S
C467 C464 1.387 . S
C468 C469 1.387 . S
C468 H472 0.950 . S
C468 C477 1.390 . S
C469 C468 1.387 . S
C469 C471 1.387 . S
H470 C477 0.950 . S
C471 C469 1.387 . S
C471 C473 1.390 . S
C471 H475 0.950 . S
H472 C468 0.950 . S
C473 C471 1.390 . S
C473 C474 1.387 . S
C473 H476 0.950 . S
C474 C473 1.387 . S
C474 C477 1.387 . S
H475 C471 0.950 . S
H476 C473 0.950 . S
C477 C468 1.390 . S
C477 H470 0.950 . S
C477 C474 1.387 . S
C478 C479 1.387 . S
C478 H482 0.950 . S
C478 C487 1.390 . S
C479 C478 1.387 . S
C479 C481 1.387 . S
H480 C487 0.950 1_545 S
C481 C479 1.387 . S
C481 C483 1.390 . S
C481 H485 0.950 . S
H482 C478 0.950 . S
C483 C481 1.390 . S
C483 C484 1.387 . S
C483 H486 0.950 . S
C484 C483 1.387 . S
C484 C487 1.387 . S
H485 C481 0.950 . S
H486 C483 0.950 . S
C487 C478 1.390 . S
C487 H480 0.950 1_565 S
C487 C484 1.387 . S
C488 C489 1.387 . S
C488 H492 0.950 . S
C488 C497 1.390 . S
C489 C488 1.387 . S
C489 C491 1.387 . S
H490 C497 0.950 . S
C491 C489 1.387 . S
C491 C493 1.390 . S
C491 H495 0.950 . S
H492 C488 0.950 . S
C493 C491 1.390 . S
C493 C494 1.387 . S
C493 H496 0.950 . S
C494 C493 1.387 . S
C494 C497 1.387 . S
H495 C491 0.950 . S
H496 C493 0.950 . S
C497 C488 1.390 . S
C497 H490 0.950 . S
C497 C494 1.387 . S
C498 C499 1.387 . S
C498 H502 0.950 . S
C498 C507 1.390 . S
C499 C498 1.387 . S
C499 C501 1.387 . S
H500 C507 0.950 . S
C501 C499 1.387 . S
C501 C503 1.390 . S
C501 H505 0.950 . S
H502 C498 0.950 . S
C503 C501 1.390 . S
C503 C504 1.387 . S
C503 H506 0.950 . S
C504 C503 1.387 . S
C504 C507 1.387 . S
H505 C501 0.950 . S
H506 C503 0.950 . S
C507 C498 1.390 . S
C507 H500 0.950 . S
C507 C504 1.387 . S
C508 C509 1.387 . S
C508 H512 0.950 . S
C508 C517 1.390 . S
C509 C508 1.387 . S
C509 C511 1.387 . S
H510 C517 0.950 . S
C511 C509 1.387 . S
C511 C513 1.390 . S
C511 H515 0.950 . S
H512 C508 0.950 . S
C513 C511 1.390 . S
C513 C514 1.387 . S
C513 H516 0.950 . S
C514 C513 1.387 . S
C514 C517 1.387 . S
H515 C511 0.950 . S
H516 C513 0.950 . S
C517 C508 1.390 . S
C517 H510 0.950 . S
C517 C514 1.387 . S
C518 C519 1.387 . S
C518 H522 0.950 . S
C518 C527 1.390 . S
C519 C518 1.387 . S
C519 C521 1.387 . S
H520 C527 0.950 . S
C521 C519 1.387 . S
C521 C523 1.390 . S
C521 H525 0.950 . S
H522 C518 0.950 . S
C523 C521 1.390 . S
C523 C524 1.387 . S
C523 H526 0.950 . S
C524 C523 1.387 . S
C524 C527 1.387 . S
H525 C521 0.950 . S
H526 C523 0.950 . S
C527 C518 1.390 . S
C527 H520 0.950 . S
C527 C524 1.387 . S
C528 C529 1.387 . S
C528 H532 0.950 . S
C528 C537 1.390 . S
C529 C528 1.387 . S
C529 C531 1.387 . S
H530 C537 0.950 1_545 S
C531 C529 1.387 . S
C531 C533 1.390 . S
C531 H535 0.950 . S
H532 C528 0.950 . S
C533 C531 1.390 . S
C533 C534 1.387 . S
C533 H536 0.950 . S
C534 C533 1.387 . S
C534 C537 1.387 . S
H535 C531 0.950 . S
H536 C533 0.950 . S
C537 C528 1.390 . S
C537 H530 0.950 1_565 S
C537 C534 1.387 . S
C538 C539 1.387 . S
C538 H542 0.950 . S
C538 C547 1.390 . S
C539 C538 1.387 . S
C539 C541 1.387 . S
H540 C547 0.950 . S
C541 C539 1.387 . S
C541 C543 1.390 . S
C541 H545 0.950 . S
H542 C538 0.950 . S
C543 C541 1.390 . S
C543 C544 1.387 . S
C543 H546 0.950 . S
C544 C543 1.387 . S
C544 C547 1.387 . S
H545 C541 0.950 . S
H546 C543 0.950 . S
C547 C538 1.390 . S
C547 H540 0.950 . S
C547 C544 1.387 . S
C548 C549 1.387 . S
C548 H552 0.950 . S
C548 C557 1.390 . S
C549 C548 1.387 . S
C549 C551 1.387 . S
H550 C557 0.950 . S
C551 C549 1.387 . S
C551 C553 1.390 . S
C551 H555 0.950 . S
H552 C548 0.950 . S
C553 C551 1.390 . S
C553 C554 1.387 . S
C553 H556 0.950 . S
C554 C553 1.387 . S
C554 C557 1.387 . S
H555 C551 0.950 . S
H556 C553 0.950 . S
C557 C548 1.390 . S
C557 H550 0.950 . S
C557 C554 1.387 . S
C558 C559 1.387 . S
C558 H562 0.950 . S
C558 C567 1.390 . S
C559 C558 1.387 . S
C559 C561 1.387 . S
H560 C567 0.950 . S
C561 C559 1.387 . S
C561 C563 1.390 . S
C561 H565 0.950 . S
H562 C558 0.950 . S
C563 C561 1.390 . S
C563 C564 1.387 . S
C563 H566 0.950 . S
C564 C563 1.387 . S
C564 C567 1.387 . S
H565 C561 0.950 . S
H566 C563 0.950 . S
C567 C558 1.390 . S
C567 H560 0.950 . S
C567 C564 1.387 . S
C568 C569 1.387 . S
C568 H572 0.950 . S
C568 C577 1.390 . S
C569 C568 1.387 . S
C569 C571 1.387 . S
H570 C577 0.950 . S
C571 C569 1.387 . S
C571 C573 1.390 . S
C571 H575 0.950 . S
H572 C568 0.950 . S
C573 C571 1.390 . S
C573 C574 1.387 . S
C573 H576 0.950 . S
C574 C573 1.387 . S
C574 C577 1.387 . S
H575 C571 0.950 . S
H576 C573 0.950 . S
C577 C568 1.390 . S
C577 H570 0.950 . S
C577 C574 1.387 . S
C578 C579 1.387 . S
C578 H582 0.950 . S
C578 C587 1.390 . S
C579 C578 1.387 . S
C579 C581 1.387 . S
H580 C587 0.950 . S
C581 C579 1.387 . S
C581 C583 1.390 . S
C581 H585 0.950 . S
H582 C578 0.950 . S
C583 C581 1.390 . S
C583 C584 1.387 . S
C583 H586 0.950 1_565 S
C584 C583 1.387 . S
C584 C587 1.387 . S
H585 C581 0.950 . S
H586 C583 0.950 1_545 S
C587 C578 1.390 . S
C587 H580 0.950 . S
C587 C584 1.387 . S
C588 C589 1.387 . S
C588 H592 0.950 . S
C588 C597 1.390 . S
C589 C588 1.387 . S
C589 C591 1.387 . S
H590 C597 0.950 . S
C591 C589 1.387 . S
C591 C593 1.390 . S
C591 H595 0.950 . S
H592 C588 0.950 . S
C593 C591 1.390 . S
C593 C594 1.387 . S
C593 H596 0.950 . S
C594 C593 1.387 . S
C594 C597 1.387 . S
H595 C591 0.950 . S
H596 C593 0.950 . S
C597 C588 1.390 . S
C597 H590 0.950 . S
C597 C594 1.387 . S
C598 C599 1.387 . S
C598 H602 0.950 . S
C598 C607 1.390 . S
C599 C598 1.387 . S
C599 C601 1.387 . S
H600 C607 0.950 . S
C601 C599 1.387 . S
C601 C603 1.390 . S
C601 H605 0.950 . S
H602 C598 0.950 . S
C603 C601 1.390 . S
C603 C604 1.387 . S
C603 H606 0.950 . S
C604 C603 1.387 . S
C604 C607 1.387 . S
H605 C601 0.950 . S
H606 C603 0.950 . S
C607 C598 1.390 . S
C607 H600 0.950 . S
C607 C604 1.387 . S
C608 C609 1.387 . S
C608 H612 0.950 . S
C608 C617 1.390 . S
C609 C608 1.387 . S
C609 C611 1.387 . S
H610 C617 0.950 . S
C611 C609 1.387 . S
C611 C613 1.390 . S
C611 H615 0.950 . S
H612 C608 0.950 . S
C613 C611 1.390 . S
C613 C614 1.387 . S
C613 H616 0.950 . S
C614 C613 1.387 . S
C614 C617 1.387 . S
H615 C611 0.950 . S
H616 C613 0.950 . S
C617 C608 1.390 . S
C617 H610 0.950 . S
C617 C614 1.387 . S
C618 C619 1.387 . S
C618 H622 0.950 . S
C618 C627 1.390 . S
C619 C618 1.387 . S
C619 C621 1.387 . S
H620 C627 0.950 . S
C621 C619 1.387 . S
C621 C623 1.390 . S
C621 H625 0.950 . S
H622 C618 0.950 . S
C623 C621 1.390 . S
C623 C624 1.387 . S
C623 H626 0.950 . S
C624 C623 1.387 . S
C624 C627 1.387 . S
H625 C621 0.950 . S
H626 C623 0.950 . S
C627 C618 1.390 . S
C627 H620 0.950 . S
C627 C624 1.387 . S
C628 C629 1.387 . S
C628 H632 0.950 . S
C628 C637 1.390 . S
C629 C628 1.387 . S
C629 C631 1.387 . S
H630 C637 0.950 . S
C631 C629 1.387 . S
C631 C633 1.390 . S
C631 H635 0.950 . S
H632 C628 0.950 . S
C633 C631 1.390 . S
C633 C634 1.387 . S
C633 H636 0.950 . S
C634 C633 1.387 . S
C634 C637 1.387 . S
H635 C631 0.950 . S
H636 C633 0.950 . S
C637 C628 1.390 . S
C637 H630 0.950 . S
C637 C634 1.387 . S
C638 C639 1.387 . S
C638 H642 0.950 . S
C638 C647 1.390 . S
C639 C638 1.387 . S
C639 C641 1.387 . S
H640 C647 0.950 . S
C641 C639 1.387 . S
C641 C643 1.390 . S
C641 H645 0.950 . S
H642 C638 0.950 . S
C643 C641 1.390 . S
C643 C644 1.387 . S
C643 H646 0.950 . S
C644 C643 1.387 . S
C644 C647 1.387 . S
H645 C641 0.950 . S
H646 C643 0.950 . S
C647 C638 1.390 . S
C647 H640 0.950 . S
C647 C644 1.387 . S
C648 C649 1.387 . S
C648 H652 0.950 . S
C648 C657 1.390 . S
C649 C648 1.387 . S
C649 C651 1.387 . S
H650 C657 0.950 . S
C651 C649 1.387 . S
C651 C653 1.390 . S
C651 H655 0.950 . S
H652 C648 0.950 . S
C653 C651 1.390 . S
C653 C654 1.387 . S
C653 H656 0.950 . S
C654 C653 1.387 . S
C654 C657 1.387 . S
H655 C651 0.950 . S
H656 C653 0.950 . S
C657 C648 1.390 . S
C657 H650 0.950 . S
C657 C654 1.387 . S
C658 C659 1.387 . S
C658 H662 0.950 . S
C658 C667 1.390 . S
C659 C658 1.387 . S
C659 C661 1.387 . S
H660 C667 0.950 . S
C661 C659 1.387 . S
C661 C663 1.390 . S
C661 H665 0.950 . S
H662 C658 0.950 . S
C663 C661 1.390 . S
C663 C664 1.387 . S
C663 H666 0.950 . S
C664 C663 1.387 . S
C664 C667 1.387 . S
H665 C661 0.950 . S
H666 C663 0.950 . S
C667 C658 1.390 . S
C667 H660 0.950 . S
C667 C664 1.387 . S
C668 C669 1.387 . S
C668 H672 0.950 . S
C668 C677 1.390 . S
C669 C668 1.387 . S
C669 C671 1.387 . S
H670 C677 0.950 . S
C671 C669 1.387 . S
C671 C673 1.390 . S
C671 H675 0.950 . S
H672 C668 0.950 . S
C673 C671 1.390 . S
C673 C674 1.387 . S
C673 H676 0.950 . S
C674 C673 1.387 . S
C674 C677 1.387 . S
H675 C671 0.950 . S
H676 C673 0.950 . S
C677 C668 1.390 . S
C677 H670 0.950 . S
C677 C674 1.387 . S
C678 C679 1.387 . S
C678 H682 0.950 . S
C678 C687 1.390 . S
C679 C678 1.387 . S
C679 C681 1.387 . S
H680 C687 0.950 . S
C681 C679 1.387 . S
C681 C683 1.390 . S
C681 H685 0.950 . S
H682 C678 0.950 . S
C683 C681 1.390 . S
C683 C684 1.387 . S
C683 H686 0.950 . S
C684 C683 1.387 . S
C684 C687 1.387 . S
H685 C681 0.950 . S
H686 C683 0.950 . S
C687 C678 1.390 . S
C687 H680 0.950 . S
C687 C684 1.387 . S
C688 C689 1.387 . S
C688 H692 0.950 . S
C688 C697 1.390 . S
C689 C688 1.387 . S
C689 C691 1.387 . S
H690 C697 0.950 . S
C691 C689 1.387 . S
C691 C693 1.390 . S
C691 H695 0.950 . S
H692 C688 0.950 . S
C693 C691 1.390 . S
C693 C694 1.387 . S
C693 H696 0.950 . S
C694 C693 1.387 . S
C694 C697 1.387 . S
H695 C691 0.950 . S
H696 C693 0.950 . S
C697 C688 1.390 . S
C697 H690 0.950 . S
C697 C694 1.387 . S
C698 C699 1.387 . S
C698 H702 0.950 . S
C698 C707 1.390 . S
C699 C698 1.387 . S
C699 C701 1.387 . S
H700 C707 0.950 . S
C701 C699 1.387 . S
C701 C703 1.390 . S
C701 H705 0.950 . S
H702 C698 0.950 . S
C703 C701 1.390 . S
C703 C704 1.387 . S
C703 H706 0.950 . S
C704 C703 1.387 . S
C704 C707 1.387 . S
H705 C701 0.950 . S
H706 C703 0.950 . S
C707 C698 1.390 . S
C707 H700 0.950 . S
C707 C704 1.387 . S
C708 C709 1.387 . S
C708 H712 0.950 . S
C708 C717 1.390 . S
C709 C708 1.387 . S
C709 C711 1.387 . S
H710 C717 0.950 . S
C711 C709 1.387 . S
C711 C713 1.390 . S
C711 H715 0.950 . S
H712 C708 0.950 . S
C713 C711 1.390 . S
C713 C714 1.387 . S
C713 H716 0.950 . S
C714 C713 1.387 . S
C714 C717 1.387 . S
H715 C711 0.950 . S
H716 C713 0.950 . S
C717 C708 1.390 . S
C717 H710 0.950 . S
C717 C714 1.387 . S
C718 C719 1.387 . S
C718 H722 0.950 . S
C718 C727 1.390 . S
C719 C718 1.387 . S
C719 C721 1.387 . S
H720 C727 0.950 . S
C721 C719 1.387 . S
C721 C723 1.390 . S
C721 H725 0.950 . S
H722 C718 0.950 . S
C723 C721 1.390 . S
C723 C724 1.387 . S
C723 H726 0.950 . S
C724 C723 1.387 . S
C724 C727 1.387 . S
H725 C721 0.950 . S
H726 C723 0.950 . S
C727 C718 1.390 . S
C727 H720 0.950 . S
C727 C724 1.387 . S
C728 C729 1.387 . S
C728 H732 0.950 . S
C728 C737 1.390 . S
C729 C728 1.387 . S
C729 C731 1.387 . S
H730 C737 0.950 . S
C731 C729 1.387 . S
C731 C733 1.390 . S
C731 H735 0.950 . S
H732 C728 0.950 . S
C733 C731 1.390 . S
C733 C734 1.387 . S
C733 H736 0.950 . S
C734 C733 1.387 . S
C734 C737 1.387 . S
H735 C731 0.950 . S
H736 C733 0.950 . S
C737 C728 1.390 . S
C737 H730 0.950 . S
C737 C734 1.387 . S
C738 C739 1.387 . S
C738 H742 0.950 . S
C738 C747 1.390 . S
C739 C738 1.387 . S
C739 C741 1.387 . S
H740 C747 0.950 . S
C741 C739 1.387 . S
C741 C743 1.390 . S
C741 H745 0.950 . S
H742 C738 0.950 . S
C743 C741 1.390 . S
C743 C744 1.387 . S
C743 H746 0.950 . S
C744 C743 1.387 . S
C744 C747 1.387 . S
H745 C741 0.950 . S
H746 C743 0.950 . S
C747 C738 1.390 . S
C747 H740 0.950 . S
C747 C744 1.387 . S
C748 C749 1.387 . S
C748 H752 0.950 . S
C748 C757 1.390 . S
C749 C748 1.387 . S
C749 C751 1.387 . S
H750 C757 0.950 . S
C751 C749 1.387 . S
C751 C753 1.390 . S
C751 H755 0.950 . S
H752 C748 0.950 . S
C753 C751 1.390 . S
C753 C754 1.387 . S
C753 H756 0.950 . S
C754 C753 1.387 . S
C754 C757 1.387 . S
H755 C751 0.950 . S
H756 C753 0.950 . S
C757 C748 1.390 . S
C757 H750 0.950 . S
C757 C754 1.387 . S
C758 C759 1.387 . S
C758 H762 0.950 . S
C758 C767 1.390 . S
C759 C758 1.387 . S
C759 C761 1.387 . S
H760 C767 0.950 . S
C761 C759 1.387 . S
C761 C763 1.390 . S
C761 H765 0.950 . S
H762 C758 0.950 . S
C763 C761 1.390 . S
C763 C764 1.387 . S
C763 H766 0.950 . S
C764 C763 1.387 . S
C764 C767 1.387 . S
H765 C761 0.950 . S
H766 C763 0.950 . S
C767 C758 1.390 . S
C767 H760 0.950 . S
C767 C764 1.387 . S
C768 C769 1.387 . S
C768 H772 0.950 . S
C768 C777 1.390 . S
C769 C768 1.387 . S
C769 C771 1.387 . S
H770 C777 0.950 . S
C771 C769 1.387 . S
C771 C773 1.390 . S
C771 H775 0.950 . S
H772 C768 0.950 . S
C773 C771 1.390 . S
C773 C774 1.387 . S
C773 H776 0.950 . S
C774 C773 1.387 . S
C774 C777 1.387 . S
H775 C771 0.950 . S
H776 C773 0.950 . S
C777 C768 1.390 . S
C777 H770 0.950 . S
C777 C774 1.387 . S
C778 C779 1.387 . S
C778 H782 0.950 . S
C778 C787 1.390 . S
C779 C778 1.387 . S
C779 C781 1.387 . S
H780 C787 0.950 . S
C781 C779 1.387 . S
C781 C783 1.390 . S
C781 H785 0.950 . S
H782 C778 0.950 . S
C783 C781 1.390 . S
C783 C784 1.387 . S
C783 H786 0.950 . S
C784 C783 1.387 . S
C784 C787 1.387 . S
H785 C781 0.950 . S
H786 C783 0.950 . S
C787 C778 1.390 . S
C787 H780 0.950 . S
C787 C784 1.387 . S
C788 C789 1.387 . S
C788 H792 0.950 . S
C788 C797 1.390 . S
C789 C788 1.387 . S
C789 C791 1.387 . S
H790 C797 0.950 . S
C791 C789 1.387 . S
C791 C793 1.390 . S
C791 H795 0.950 . S
H792 C788 0.950 . S
C793 C791 1.390 . S
C793 C794 1.387 . S
C793 H796 0.950 . S
C794 C793 1.387 . S
C794 C797 1.387 . S
H795 C791 0.950 . S
H796 C793 0.950 . S
C797 C788 1.390 . S
C797 H790 0.950 . S
C797 C794 1.387 . S
C798 C799 1.387 . S
C798 H802 0.950 . S
C798 C807 1.390 . S
C799 C798 1.387 . S
C799 C801 1.387 . S
H800 C807 0.950 . S
C801 C799 1.387 . S
C801 C803 1.390 . S
C801 H805 0.950 . S
H802 C798 0.950 . S
C803 C801 1.390 . S
C803 C804 1.387 . S
C803 H806 0.950 . S
C804 C803 1.387 . S
C804 C807 1.387 . S
H805 C801 0.950 . S
H806 C803 0.950 . S
C807 C798 1.390 . S
C807 H800 0.950 . S
C807 C804 1.387 . S
C808 C809 1.387 . S
C808 H812 0.950 . S
C808 C817 1.390 . S
C809 C808 1.387 . S
C809 C811 1.387 . S
H810 C817 0.950 . S
C811 C809 1.387 . S
C811 C813 1.390 . S
C811 H815 0.950 . S
H812 C808 0.950 . S
C813 C811 1.390 . S
C813 C814 1.387 . S
C813 H816 0.950 . S
C814 C813 1.387 . S
C814 C817 1.387 . S
H815 C811 0.950 . S
H816 C813 0.950 . S
C817 C808 1.390 . S
C817 H810 0.950 . S
C817 C814 1.387 . S
C818 C819 1.387 . S
C818 H822 0.950 . S
C818 C827 1.390 . S
C819 C818 1.387 . S
C819 C821 1.387 . S
H820 C827 0.950 . S
C821 C819 1.387 . S
C821 C823 1.390 . S
C821 H825 0.950 . S
H822 C818 0.950 . S
C823 C821 1.390 . S
C823 C824 1.387 . S
C823 H826 0.950 . S
C824 C823 1.387 . S
C824 C827 1.387 . S
H825 C821 0.950 . S
H826 C823 0.950 . S
C827 C818 1.390 . S
C827 H820 0.950 . S
C827 C824 1.387 . S
C828 C829 1.387 . S
C828 H832 0.950 . S
C828 C837 1.390 . S
C829 C828 1.387 . S
C829 C831 1.387 . S
H830 C837 0.950 . S
C831 C829 1.387 . S
C831 C833 1.390 . S
C831 H835 0.950 . S
H832 C828 0.950 . S
C833 C831 1.390 . S
C833 C834 1.387 . S
C833 H836 0.950 . S
C834 C833 1.387 . S
C834 C837 1.387 . S
H835 C831 0.950 . S
H836 C833 0.950 . S
C837 C828 1.390 . S
C837 H830 0.950 . S
C837 C834 1.387 . S
C838 C839 1.387 . S
C838 H842 0.950 . S
C838 C847 1.390 . S
C839 C838 1.387 . S
C839 C841 1.387 . S
H840 C847 0.950 . S
C841 C839 1.387 . S
C841 C843 1.390 . S
C841 H845 0.950 . S
H842 C838 0.950 . S
C843 C841 1.390 . S
C843 C844 1.387 . S
C843 H846 0.950 . S
C844 C843 1.387 . S
C844 C847 1.387 . S
H845 C841 0.950 . S
H846 C843 0.950 . S
C847 C838 1.390 . S
C847 H840 0.950 . S
C847 C844 1.387 . S
C848 C849 1.387 . S
C848 H852 0.950 . S
C848 C857 1.390 . S
C849 C848 1.387 . S
C849 C851 1.387 . S
H850 C857 0.950 . S
C851 C849 1.387 . S
C851 C853 1.390 . S
C851 H855 0.950 . S
H852 C848 0.950 . S
C853 C851 1.390 . S
C853 C854 1.387 . S
C853 H856 0.950 . S
C854 C853 1.387 . S
C854 C857 1.387 . S
H855 C851 0.950 . S
H856 C853 0.950 . S
C857 C848 1.390 . S
C857 H850 0.950 . S
C857 C854 1.387 . S
C858 C859 1.387 . S
C858 H862 0.950 . S
C858 C867 1.390 . S
C859 C858 1.387 . S
C859 C861 1.387 . S
H860 C867 0.950 . S
C861 C859 1.387 . S
C861 C863 1.390 . S
C861 H865 0.950 . S
H862 C858 0.950 . S
C863 C861 1.390 . S
C863 C864 1.387 . S
C863 H866 0.950 . S
C864 C863 1.387 . S
C864 C867 1.387 . S
H865 C861 0.950 . S
H866 C863 0.950 . S
C867 C858 1.390 . S
C867 H860 0.950 . S
C867 C864 1.387 . S
C868 C869 1.387 . S
C868 H872 0.950 . S
C868 C877 1.390 . S
C869 C868 1.387 . S
C869 C871 1.387 . S
H870 C877 0.950 . S
C871 C869 1.387 . S
C871 C873 1.390 . S
C871 H875 0.950 . S
H872 C868 0.950 . S
C873 C871 1.390 . S
C873 C874 1.387 . S
C873 H876 0.950 . S
C874 C873 1.387 . S
C874 C877 1.387 . S
H875 C871 0.950 . S
H876 C873 0.950 . S
C877 C868 1.390 . S
C877 H870 0.950 . S
C877 C874 1.387 . S
C878 C879 1.387 . S
C878 H882 0.950 . S
C878 C887 1.390 . S
C879 C878 1.387 . S
C879 C881 1.387 . S
H880 C887 0.950 . S
C881 C879 1.387 . S
C881 C883 1.390 . S
C881 H885 0.950 . S
H882 C878 0.950 . S
C883 C881 1.390 . S
C883 C884 1.387 . S
C883 H886 0.950 . S
C884 C883 1.387 . S
C884 C887 1.387 . S
H885 C881 0.950 . S
H886 C883 0.950 . S
C887 C878 1.390 . S
C887 H880 0.950 . S
C887 C884 1.387 . S
C888 C889 1.387 . S
C888 H892 0.950 . S
C888 C897 1.390 . S
C889 C888 1.387 . S
C889 C891 1.387 . S
H890 C897 0.950 . S
C891 C889 1.387 . S
C891 C893 1.390 . S
C891 H895 0.950 . S
H892 C888 0.950 . S
C893 C891 1.390 . S
C893 C894 1.387 . S
C893 H896 0.950 . S
C894 C893 1.387 . S
C894 C897 1.387 . S
H895 C891 0.950 . S
H896 C893 0.950 . S
C897 C888 1.390 . S
C897 H890 0.950 . S
C897 C894 1.387 . S
C898 C899 1.387 . S
C898 H902 0.950 . S
C898 C907 1.390 . S
C899 C898 1.387 . S
C899 C901 1.387 . S
H900 C907 0.950 . S
C901 C899 1.387 . S
C901 C903 1.390 . S
C901 H905 0.950 . S
H902 C898 0.950 . S
C903 C901 1.390 . S
C903 C904 1.387 . S
C903 H906 0.950 . S
C904 C903 1.387 . S
C904 C907 1.387 . S
H905 C901 0.950 . S
H906 C903 0.950 . S
C907 C898 1.390 . S
C907 H900 0.950 . S
C907 C904 1.387 . S
C908 C909 1.387 . S
C908 H912 0.950 . S
C908 C917 1.390 . S
C909 C908 1.387 . S
C909 C911 1.387 . S
H910 C917 0.950 . S
C911 C909 1.387 . S
C911 C913 1.390 . S
C911 H915 0.950 . S
H912 C908 0.950 . S
C913 C911 1.390 . S
C913 C914 1.387 . S
C913 H916 0.950 . S
C914 C913 1.387 . S
C914 C917 1.387 . S
H915 C911 0.950 . S
H916 C913 0.950 . S
C917 C908 1.390 . S
C917 H910 0.950 . S
C917 C914 1.387 . S
C918 C919 1.387 . S
C918 H922 0.950 . S
C918 C927 1.390 . S
C919 C918 1.387 . S
C919 C921 1.387 . S
H920 C927 0.950 . S
C921 C919 1.387 . S
C921 C923 1.390 . S
C921 H925 0.950 . S
H922 C918 0.950 . S
C923 C921 1.390 . S
C923 C924 1.387 . S
C923 H926 0.950 . S
C924 C923 1.387 . S
C924 C927 1.387 . S
H925 C921 0.950 . S
H926 C923 0.950 . S
C927 C918 1.390 . S
C927 H920 0.950 . S
C927 C924 1.387 . S
C928 C929 1.387 . S
C928 H932 0.950 . S
C928 C937 1.390 . S
C929 C928 1.387 . S
C929 C931 1.387 . S
H930 C937 0.950 . S
C931 C929 1.387 . S
C931 C933 1.390 . S
C931 H935 0.950 . S
H932 C928 0.950 . S
C933 C931 1.390 . S
C933 C934 1.387 . S
C933 H936 0.950 . S
C934 C933 1.387 . S
C934 C937 1.387 . S
H935 C931 0.950 . S
H936 C933 0.950 . S
C937 C928 1.390 . S
C937 H930 0.950 . S
C937 C934 1.387 . S
C464 C283 0.427 . S
C459 C4 0.469 . S
C474 C273 1.785 . S
C469 C63 1.748 . S
C484 C274 1.137 . S
C479 C72 1.087 . S
C489 C102 1.692 . S
C494 C296 1.730 . S
C499 C136 1.746 . S
C504 C299 1.786 . S
C514 C282 1.134 . S
C509 C183 1.082 . S
C519 C233 1.695 . S
C524 C272 1.731 . S
C529 C251 0.471 . S
C534 C290 0.427 . S
C544 C303 1.581 . S
C539 C29 1.605 . S
C549 C42 2.102 . S
C554 C352 1.989 . S
C564 C330 1.736 . S
C559 C97 1.741 . S
C574 C344 0.982 . S
C569 C115 1.060 . S
C579 C149 1.077 . S
C584 C305 1.086 . S
C594 C358 1.666 . S
C589 C187 1.697 . S
C599 C212 2.118 . S
C604 C314 1.974 . S
C609 C255 1.683 . S
C614 C335 1.657 . S
C619 C8 1.683 . S
C624 C361 1.658 . S
C629 C153 2.102 . S
C634 C345 1.988 . S
C644 C304 1.733 . S
C639 C170 1.739 . S
C654 C336 0.984 . S
C649 C208 1.062 . S
C659 C238 1.605 . S
C664 C327 1.580 . S
C669 C76 1.697 . S
C674 C334 1.665 . S
C684 C321 1.975 . S
C679 C119 2.118 . S
C689 C38 1.077 . S
C694 C313 1.085 . S
C699 C242 0.480 . S
C704 C376 0.421 . S
C709 C165 1.745 . S
C714 C366 1.786 . S
C724 C367 1.134 . S
C719 C174 1.082 . S
C734 C389 1.729 . S
C729 C204 1.695 . S
C739 C34 1.746 . S
C744 C392 1.785 . S
C754 C375 1.135 . S
C749 C81 1.081 . S
C759 C131 1.693 . S
C764 C365 1.729 . S
C769 C13 0.472 . S
C774 C383 0.427 . S
C779 C267 1.605 . S
C784 C396 1.580 . S
C794 C445 1.991 . S
C789 C144 2.102 . S
C799 C199 1.739 . S
C804 C423 1.733 . S
C809 C217 1.060 . S
C814 C437 0.982 . S
C824 C398 1.083 . S
C819 C47 1.077 . S
C829 C85 1.699 . S
C834 C451 1.666 . S
C844 C407 1.974 . S
C839 C110 2.117 . S
C854 C428 1.658 . S
C849 C17 1.682 . S
C864 C454 1.658 . S
C859 C246 1.683 . S
C869 C51 2.103 . S
C874 C438 1.991 . S
C879 C68 1.740 . S
C884 C397 1.734 . S
C894 C429 0.985 . S
C889 C106 1.062 . S
C899 C0 1.606 . S
C904 C420 1.578 . S
C909 C178 1.698 . S
C914 C427 1.666 . S
C924 C414 1.974 . S
C919 C221 2.119 . S
C934 C406 1.084 . S
C929 C140 1.076 . S
