# Generated by pormake.
# Topology gar, (4,6)-cn, num edge types: 1
# Building blocks:
#     Node 0, Type 0, BuildingBlock: QUQFOY_clean_sbu_3, # of connection points: 4
#     Node 1, Type 0, BuildingBlock: QUQFOY_clean_sbu_3, # of connection points: 4
#     Node 2, Type 0, BuildingBlock: QUQFOY_clean_sbu_3, # of connection points: 4
#     Node 3, Type 0, BuildingBlock: QUQFOY_clean_sbu_3, # of connection points: 4
#     Node 4, Type 0, BuildingBlock: QUQFOY_clean_sbu_3, # of connection points: 4
#     Node 5, Type 0, BuildingBlock: QUQFOY_clean_sbu_3, # of connection points: 4
#     Node 6, Type 0, BuildingBlock: QUQFOY_clean_sbu_3, # of connection points: 4
#     Node 7, Type 0, BuildingBlock: QUQFOY_clean_sbu_3, # of connection points: 4
#     Node 8, Type 0, BuildingBlock: QUQFOY_clean_sbu_3, # of connection points: 4
#     Node 9, Type 0, BuildingBlock: QUQFOY_clean_sbu_3, # of connection points: 4
#     Node 10, Type 0, BuildingBlock: QUQFOY_clean_sbu_3, # of connection points: 4
#     Node 11, Type 0, BuildingBlock: QUQFOY_clean_sbu_3, # of connection points: 4
#     Node 12, Type 0, BuildingBlock: QUQFOY_clean_sbu_3, # of connection points: 4
#     Node 13, Type 0, BuildingBlock: QUQFOY_clean_sbu_3, # of connection points: 4
#     Node 14, Type 0, BuildingBlock: QUQFOY_clean_sbu_3, # of connection points: 4
#     Node 15, Type 0, BuildingBlock: QUQFOY_clean_sbu_3, # of connection points: 4
#     Node 16, Type 0, BuildingBlock: QUQFOY_clean_sbu_3, # of connection points: 4
#     Node 17, Type 0, BuildingBlock: QUQFOY_clean_sbu_3, # of connection points: 4
#     Node 18, Type 0, BuildingBlock: QUQFOY_clean_sbu_3, # of connection points: 4
#     Node 19, Type 0, BuildingBlock: QUQFOY_clean_sbu_3, # of connection points: 4
#     Node 20, Type 0, BuildingBlock: QUQFOY_clean_sbu_3, # of connection points: 4
#     Node 21, Type 0, BuildingBlock: QUQFOY_clean_sbu_3, # of connection points: 4
#     Node 22, Type 0, BuildingBlock: QUQFOY_clean_sbu_3, # of connection points: 4
#     Node 23, Type 0, BuildingBlock: QUQFOY_clean_sbu_3, # of connection points: 4
#     Node 24, Type 1, BuildingBlock: KUMJIN_clean_sbu_0, # of connection points: 6
#     Node 25, Type 1, BuildingBlock: KUMJIN_clean_sbu_0, # of connection points: 6
#     Node 26, Type 1, BuildingBlock: KUMJIN_clean_sbu_0, # of connection points: 6
#     Node 27, Type 1, BuildingBlock: KUMJIN_clean_sbu_0, # of connection points: 6
#     Node 28, Type 1, BuildingBlock: KUMJIN_clean_sbu_0, # of connection points: 6
#     Node 29, Type 1, BuildingBlock: KUMJIN_clean_sbu_0, # of connection points: 6
#     Node 30, Type 1, BuildingBlock: KUMJIN_clean_sbu_0, # of connection points: 6
#     Node 31, Type 1, BuildingBlock: KUMJIN_clean_sbu_0, # of connection points: 6
#     Node 32, Type 1, BuildingBlock: KUMJIN_clean_sbu_0, # of connection points: 6
#     Node 33, Type 1, BuildingBlock: KUMJIN_clean_sbu_0, # of connection points: 6
#     Node 34, Type 1, BuildingBlock: KUMJIN_clean_sbu_0, # of connection points: 6
#     Node 35, Type 1, BuildingBlock: KUMJIN_clean_sbu_0, # of connection points: 6
#     Node 36, Type 1, BuildingBlock: KUMJIN_clean_sbu_0, # of connection points: 6
#     Node 37, Type 1, BuildingBlock: KUMJIN_clean_sbu_0, # of connection points: 6
#     Node 38, Type 1, BuildingBlock: KUMJIN_clean_sbu_0, # of connection points: 6
#     Node 39, Type 1, BuildingBlock: KUMJIN_clean_sbu_0, # of connection points: 6
#     Edge 40, Type (0, 1), BuildingBlock: XIVTED_clean_linker_0, # of connection points: 2
#     Edge 41, Type (0, 1), BuildingBlock: XIVTED_clean_linker_0, # of connection points: 2
#     Edge 42, Type (0, 1), BuildingBlock: XIVTED_clean_linker_0, # of connection points: 2
#     Edge 43, Type (0, 1), BuildingBlock: XIVTED_clean_linker_0, # of connection points: 2
#     Edge 44, Type (0, 1), BuildingBlock: XIVTED_clean_linker_0, # of connection points: 2
#     Edge 45, Type (0, 1), BuildingBlock: XIVTED_clean_linker_0, # of connection points: 2
#     Edge 46, Type (0, 1), BuildingBlock: XIVTED_clean_linker_0, # of connection points: 2
#     Edge 47, Type (0, 1), BuildingBlock: XIVTED_clean_linker_0, # of connection points: 2
#     Edge 48, Type (0, 1), BuildingBlock: XIVTED_clean_linker_0, # of connection points: 2
#     Edge 49, Type (0, 1), BuildingBlock: XIVTED_clean_linker_0, # of connection points: 2
#     Edge 50, Type (0, 1), BuildingBlock: XIVTED_clean_linker_0, # of connection points: 2
#     Edge 51, Type (0, 1), BuildingBlock: XIVTED_clean_linker_0, # of connection points: 2
#     Edge 52, Type (0, 1), BuildingBlock: XIVTED_clean_linker_0, # of connection points: 2
#     Edge 53, Type (0, 1), BuildingBlock: XIVTED_clean_linker_0, # of connection points: 2
#     Edge 54, Type (0, 1), BuildingBlock: XIVTED_clean_linker_0, # of connection points: 2
#     Edge 55, Type (0, 1), BuildingBlock: XIVTED_clean_linker_0, # of connection points: 2
#     Edge 56, Type (0, 1), BuildingBlock: XIVTED_clean_linker_0, # of connection points: 2
#     Edge 57, Type (0, 1), BuildingBlock: XIVTED_clean_linker_0, # of connection points: 2
#     Edge 58, Type (0, 1), BuildingBlock: XIVTED_clean_linker_0, # of connection points: 2
#     Edge 59, Type (0, 1), BuildingBlock: XIVTED_clean_linker_0, # of connection points: 2
#     Edge 60, Type (0, 1), BuildingBlock: XIVTED_clean_linker_0, # of connection points: 2
#     Edge 61, Type (0, 1), BuildingBlock: XIVTED_clean_linker_0, # of connection points: 2
#     Edge 62, Type (0, 1), BuildingBlock: XIVTED_clean_linker_0, # of connection points: 2
#     Edge 63, Type (0, 1), BuildingBlock: XIVTED_clean_linker_0, # of connection points: 2
#     Edge 64, Type (0, 1), BuildingBlock: XIVTED_clean_linker_0, # of connection points: 2
#     Edge 65, Type (0, 1), BuildingBlock: XIVTED_clean_linker_0, # of connection points: 2
#     Edge 66, Type (0, 1), BuildingBlock: XIVTED_clean_linker_0, # of connection points: 2
#     Edge 67, Type (0, 1), BuildingBlock: XIVTED_clean_linker_0, # of connection points: 2
#     Edge 68, Type (0, 1), BuildingBlock: XIVTED_clean_linker_0, # of connection points: 2
#     Edge 69, Type (0, 1), BuildingBlock: XIVTED_clean_linker_0, # of connection points: 2
#     Edge 70, Type (0, 1), BuildingBlock: XIVTED_clean_linker_0, # of connection points: 2
#     Edge 71, Type (0, 1), BuildingBlock: XIVTED_clean_linker_0, # of connection points: 2
#     Edge 72, Type (0, 1), BuildingBlock: XIVTED_clean_linker_0, # of connection points: 2
#     Edge 73, Type (0, 1), BuildingBlock: XIVTED_clean_linker_0, # of connection points: 2
#     Edge 74, Type (0, 1), BuildingBlock: XIVTED_clean_linker_0, # of connection points: 2
#     Edge 75, Type (0, 1), BuildingBlock: XIVTED_clean_linker_0, # of connection points: 2
#     Edge 76, Type (0, 1), BuildingBlock: XIVTED_clean_linker_0, # of connection points: 2
#     Edge 77, Type (0, 1), BuildingBlock: XIVTED_clean_linker_0, # of connection points: 2
#     Edge 78, Type (0, 1), BuildingBlock: XIVTED_clean_linker_0, # of connection points: 2
#     Edge 79, Type (0, 1), BuildingBlock: XIVTED_clean_linker_0, # of connection points: 2
#     Edge 80, Type (0, 1), BuildingBlock: XIVTED_clean_linker_0, # of connection points: 2
#     Edge 81, Type (0, 1), BuildingBlock: XIVTED_clean_linker_0, # of connection points: 2
#     Edge 82, Type (0, 1), BuildingBlock: XIVTED_clean_linker_0, # of connection points: 2
#     Edge 83, Type (0, 1), BuildingBlock: XIVTED_clean_linker_0, # of connection points: 2
#     Edge 84, Type (0, 1), BuildingBlock: XIVTED_clean_linker_0, # of connection points: 2
#     Edge 85, Type (0, 1), BuildingBlock: XIVTED_clean_linker_0, # of connection points: 2
#     Edge 86, Type (0, 1), BuildingBlock: XIVTED_clean_linker_0, # of connection points: 2
#     Edge 87, Type (0, 1), BuildingBlock: XIVTED_clean_linker_0, # of connection points: 2
#     Edge 88, Type (0, 1), BuildingBlock: XIVTED_clean_linker_0, # of connection points: 2
#     Edge 89, Type (0, 1), BuildingBlock: XIVTED_clean_linker_0, # of connection points: 2
#     Edge 90, Type (0, 1), BuildingBlock: XIVTED_clean_linker_0, # of connection points: 2
#     Edge 91, Type (0, 1), BuildingBlock: XIVTED_clean_linker_0, # of connection points: 2
#     Edge 92, Type (0, 1), BuildingBlock: XIVTED_clean_linker_0, # of connection points: 2
#     Edge 93, Type (0, 1), BuildingBlock: XIVTED_clean_linker_0, # of connection points: 2
#     Edge 94, Type (0, 1), BuildingBlock: XIVTED_clean_linker_0, # of connection points: 2
#     Edge 95, Type (0, 1), BuildingBlock: XIVTED_clean_linker_0, # of connection points: 2
#     Edge 96, Type (0, 1), BuildingBlock: XIVTED_clean_linker_0, # of connection points: 2
#     Edge 97, Type (0, 1), BuildingBlock: XIVTED_clean_linker_0, # of connection points: 2
#     Edge 98, Type (0, 1), BuildingBlock: XIVTED_clean_linker_0, # of connection points: 2
#     Edge 99, Type (0, 1), BuildingBlock: XIVTED_clean_linker_0, # of connection points: 2
#     Edge 100, Type (0, 1), BuildingBlock: XIVTED_clean_linker_0, # of connection points: 2
#     Edge 101, Type (0, 1), BuildingBlock: XIVTED_clean_linker_0, # of connection points: 2
#     Edge 102, Type (0, 1), BuildingBlock: XIVTED_clean_linker_0, # of connection points: 2
#     Edge 103, Type (0, 1), BuildingBlock: XIVTED_clean_linker_0, # of connection points: 2
#     Edge 104, Type (0, 1), BuildingBlock: XIVTED_clean_linker_0, # of connection points: 2
#     Edge 105, Type (0, 1), BuildingBlock: XIVTED_clean_linker_0, # of connection points: 2
#     Edge 106, Type (0, 1), BuildingBlock: XIVTED_clean_linker_0, # of connection points: 2
#     Edge 107, Type (0, 1), BuildingBlock: XIVTED_clean_linker_0, # of connection points: 2
#     Edge 108, Type (0, 1), BuildingBlock: XIVTED_clean_linker_0, # of connection points: 2
#     Edge 109, Type (0, 1), BuildingBlock: XIVTED_clean_linker_0, # of connection points: 2
#     Edge 110, Type (0, 1), BuildingBlock: XIVTED_clean_linker_0, # of connection points: 2
#     Edge 111, Type (0, 1), BuildingBlock: XIVTED_clean_linker_0, # of connection points: 2
#     Edge 112, Type (0, 1), BuildingBlock: XIVTED_clean_linker_0, # of connection points: 2
#     Edge 113, Type (0, 1), BuildingBlock: XIVTED_clean_linker_0, # of connection points: 2
#     Edge 114, Type (0, 1), BuildingBlock: XIVTED_clean_linker_0, # of connection points: 2
#     Edge 115, Type (0, 1), BuildingBlock: XIVTED_clean_linker_0, # of connection points: 2
#     Edge 116, Type (0, 1), BuildingBlock: XIVTED_clean_linker_0, # of connection points: 2
#     Edge 117, Type (0, 1), BuildingBlock: XIVTED_clean_linker_0, # of connection points: 2
#     Edge 118, Type (0, 1), BuildingBlock: XIVTED_clean_linker_0, # of connection points: 2
#     Edge 119, Type (0, 1), BuildingBlock: XIVTED_clean_linker_0, # of connection points: 2
#     Edge 120, Type (0, 1), BuildingBlock: XIVTED_clean_linker_0, # of connection points: 2
#     Edge 121, Type (0, 1), BuildingBlock: XIVTED_clean_linker_0, # of connection points: 2
#     Edge 122, Type (0, 1), BuildingBlock: XIVTED_clean_linker_0, # of connection points: 2
#     Edge 123, Type (0, 1), BuildingBlock: XIVTED_clean_linker_0, # of connection points: 2
#     Edge 124, Type (0, 1), BuildingBlock: XIVTED_clean_linker_0, # of connection points: 2
#     Edge 125, Type (0, 1), BuildingBlock: XIVTED_clean_linker_0, # of connection points: 2
#     Edge 126, Type (0, 1), BuildingBlock: XIVTED_clean_linker_0, # of connection points: 2
#     Edge 127, Type (0, 1), BuildingBlock: XIVTED_clean_linker_0, # of connection points: 2
#     Edge 128, Type (0, 1), BuildingBlock: XIVTED_clean_linker_0, # of connection points: 2
#     Edge 129, Type (0, 1), BuildingBlock: XIVTED_clean_linker_0, # of connection points: 2
#     Edge 130, Type (0, 1), BuildingBlock: XIVTED_clean_linker_0, # of connection points: 2
#     Edge 131, Type (0, 1), BuildingBlock: XIVTED_clean_linker_0, # of connection points: 2
#     Edge 132, Type (0, 1), BuildingBlock: XIVTED_clean_linker_0, # of connection points: 2
#     Edge 133, Type (0, 1), BuildingBlock: XIVTED_clean_linker_0, # of connection points: 2
#     Edge 134, Type (0, 1), BuildingBlock: XIVTED_clean_linker_0, # of connection points: 2
#     Edge 135, Type (0, 1), BuildingBlock: XIVTED_clean_linker_0, # of connection points: 2
# Relax obj value: 0.121
# Max RMSD: 0.327
# Mean RMSD: 0.148
data_MOF--net-gar--node1-QUQFOY_clean_sbu_3--node2-KUMJIN_clean_sbu_0--edge1-XIVTED_clean_linker_0
_symmetry_space_group_name_H-M    P1
_symmetry_Int_Tables_number       1
_symmetry_cell_setting            triclinic
loop_
_symmetry_equiv_pos_as_xyz
'x, y, z'
_cell_length_a     61.88771
_cell_length_b     58.107606
_cell_length_c     57.459112
_cell_angle_alpha  101.55258
_cell_angle_beta   93.292391
_cell_angle_gamma 102.67114
loop_
_atom_site_label
_atom_site_type_symbol
_atom_site_fract_x
_atom_site_fract_y
_atom_site_fract_z
_atom_type_partial_charge
C0 C 0.074 0.32821 0.36007 0.0
O1 O 0.08557 0.33648 0.34472 0.0
Cd2 Cd 0.12414 0.34166 0.34225 0.0
O3 O 0.08241 0.32058 0.37688 0.0
Cd4 Cd 0.11948 0.31766 0.39067 0.0
C5 C 0.13443 0.37859 0.39838 0.0
O6 O 0.13038 0.30633 0.35255 0.0
O7 O 0.15724 0.31879 0.38103 0.0
O8 O 0.10556 0.27831 0.398 0.0
C9 C 0.15092 0.31051 0.35894 0.0
O10 O 0.13546 0.37616 0.37596 0.0
C11 C 0.11234 0.28433 0.42013 0.0
O12 O 0.12855 0.36038 0.40772 0.0
O13 O 0.12266 0.30616 0.42862 0.0
C14 C 0.97406 0.74874 0.69975 0.0
O15 O 0.98726 0.73959 0.71062 0.0
Cd16 Cd 0.01737 0.72884 0.69113 0.0
O17 O 0.97828 0.75479 0.68016 0.0
Cd18 Cd 0.00542 0.75692 0.65188 0.0
C19 C 0.98621 0.69842 0.63707 0.0
O20 O 0.03843 0.7627 0.67799 0.0
O21 O 0.04006 0.74632 0.64097 0.0
O22 O 0.00964 0.79929 0.65276 0.0
C23 C 0.05006 0.75592 0.66169 0.0
O24 O 0.99713 0.6987 0.65667 0.0
C25 C 0.00371 0.79604 0.63061 0.0
O26 O 0.9856 0.71786 0.63047 0.0
O27 O 0.99775 0.7744 0.6186 0.0
C28 C 0.57024 0.83387 0.85866 0.0
O29 O 0.58319 0.84269 0.84461 0.0
Cd30 Cd 0.62223 0.8452 0.84435 0.0
O31 O 0.57719 0.82439 0.87482 0.0
Cd32 Cd 0.61244 0.81868 0.89022 0.0
C33 C 0.63395 0.87904 0.90119 0.0
O34 O 0.62724 0.80884 0.85376 0.0
O35 O 0.65038 0.81813 0.88578 0.0
O36 O 0.59934 0.77884 0.89709 0.0
C37 C 0.64685 0.81155 0.86321 0.0
O38 O 0.63598 0.878 0.87909 0.0
C39 C 0.60337 0.78569 0.91965 0.0
O40 O 0.62514 0.8604 0.90877 0.0
O41 O 0.61118 0.80808 0.92839 0.0
C42 C 0.47241 0.25137 0.19929 0.0
O43 O 0.48551 0.24236 0.21047 0.0
Cd44 Cd 0.51467 0.22948 0.19082 0.0
O45 O 0.4759 0.25581 0.17891 0.0
Cd46 Cd 0.5027 0.25564 0.15021 0.0
C47 C 0.48566 0.19677 0.13633 0.0
O48 O 0.53482 0.26378 0.17788 0.0
O49 O 0.5391 0.24793 0.14156 0.0
O50 O 0.5041 0.29704 0.14863 0.0
C51 C 0.54779 0.25798 0.16269 0.0
O52 O 0.49624 0.19767 0.15632 0.0
C53 C 0.49981 0.29243 0.1261 0.0
O54 O 0.48417 0.21594 0.12969 0.0
O55 O 0.49607 0.27049 0.11506 0.0
C56 C 0.05856 0.80079 0.14296 0.0
O57 O 0.07138 0.79395 0.15681 0.0
Cd58 Cd 0.10837 0.79031 0.15311 0.0
O59 O 0.06551 0.80858 0.12477 0.0
Cd60 Cd 0.10184 0.8162 0.10526 0.0
C61 C 0.09511 0.75385 0.09504 0.0
O62 O 0.1265 0.82571 0.14238 0.0
O63 O 0.14367 0.81882 0.11147 0.0
O64 O 0.0958 0.85728 0.10648 0.0
C65 C 0.14466 0.82364 0.13415 0.0
O66 O 0.10056 0.75832 0.1175 0.0
C67 C 0.09531 0.85716 0.08433 0.0
O68 O 0.09343 0.77098 0.08444 0.0
O69 O 0.09852 0.83804 0.07107 0.0
C70 C 0.47543 0.76539 0.39368 0.0
O71 O 0.49052 0.77702 0.38359 0.0
Cd72 Cd 0.52911 0.78922 0.39633 0.0
O73 O 0.4806 0.75758 0.41224 0.0
Cd74 Cd 0.51907 0.75885 0.4361 0.0
C75 C 0.52806 0.82047 0.45385 0.0
O76 O 0.54009 0.75375 0.40118 0.0
O77 O 0.56062 0.76948 0.43418 0.0
O78 O 0.50755 0.71559 0.43966 0.0
C79 C 0.55952 0.76051 0.41202 0.0
O80 O 0.53316 0.82038 0.43271 0.0
C81 C 0.51779 0.71819 0.46019 0.0
O82 O 0.52074 0.80068 0.46045 0.0
O83 O 0.52707 0.73985 0.47065 0.0
C84 C 0.55634 0.30215 0.64178 0.0
O85 O 0.56737 0.29393 0.65614 0.0
Cd86 Cd 0.60388 0.28759 0.65251 0.0
O87 O 0.56494 0.30963 0.62413 0.0
Cd88 Cd 0.60169 0.31635 0.60551 0.0
C89 C 0.5928 0.25388 0.59315 0.0
O90 O 0.62463 0.32294 0.64327 0.0
O91 O 0.64356 0.32015 0.61328 0.0
O92 O 0.59584 0.35731 0.60732 0.0
C93 C 0.64332 0.32218 0.63571 0.0
O94 O 0.59649 0.25694 0.61573 0.0
C95 C 0.5959 0.35782 0.58533 0.0
O96 O 0.59316 0.27196 0.58334 0.0
O97 O 0.59954 0.33909 0.5718 0.0
C98 C 0.9742 0.2615 0.8913 0.0
O99 O 0.98856 0.27007 0.87849 0.0
Cd100 Cd 0.02683 0.2859 0.89174 0.0
O101 O 0.98047 0.25732 0.91154 0.0
Cd102 Cd 0.01969 0.25945 0.93481 0.0
C103 C 0.02355 0.32029 0.94832 0.0
O104 O 0.04238 0.2547 0.90108 0.0
O105 O 0.06088 0.27462 0.93444 0.0
O106 O 0.0137 0.21557 0.93588 0.0
C107 C 0.06124 0.26426 0.91287 0.0
O108 O 0.02642 0.3179 0.92628 0.0
C109 C 0.01995 0.21812 0.95789 0.0
O110 O 0.02029 0.30189 0.95792 0.0
O111 O 0.02434 0.23976 0.9701 0.0
C112 C 0.44646 0.03568 0.34587 0.0
O113 O 0.45884 0.02934 0.33013 0.0
Cd114 Cd 0.45337 0.02626 0.28859 0.0
O115 O 0.42981 0.04384 0.34123 0.0
Cd116 Cd 0.41176 0.0497 0.30626 0.0
C117 C 0.40209 0.99037 0.29201 0.0
O118 O 0.44019 0.05946 0.28178 0.0
O119 O 0.40732 0.04387 0.263 0.0
O120 O 0.41445 0.09052 0.32466 0.0
C121 C 0.42778 0.0531 0.26217 0.0
O122 O 0.42122 0.99336 0.28438 0.0
C123 C 0.39356 0.08846 0.32195 0.0
O124 O 0.39452 0.00809 0.30205 0.0
O125 O 0.38105 0.06746 0.31373 0.0
C126 C 0.33128 0.15858 0.51854 0.0
O127 O 0.31687 0.14802 0.53015 0.0
Cd128 Cd 0.2794 0.15146 0.53224 0.0
O129 O 0.32677 0.17336 0.50651 0.0
Cd130 Cd 0.29336 0.18951 0.50105 0.0
C131 C 0.29327 0.21102 0.56013 0.0
O132 O 0.26504 0.15139 0.493 0.0
O133 O 0.2525 0.18355 0.4995 0.0
O134 O 0.30423 0.18861 0.46153 0.0
C135 C 0.24834 0.16067 0.49346 0.0
O136 O 0.28297 0.18963 0.56051 0.0
C137 C 0.30341 0.21013 0.46112 0.0
O138 O 0.30124 0.21612 0.54133 0.0
O139 O 0.29784 0.22254 0.47966 0.0
C140 C 0.14215 0.01536 0.81381 0.0
O141 O 0.13259 0.0262 0.80072 0.0
Cd142 Cd 0.14282 0.03335 0.76209 0.0
O143 O 0.15828 0.00615 0.80542 0.0
Cd144 Cd 0.17904 1.00204 0.76238 0.0
C145 C 0.19761 0.06689 0.76954 0.0
O146 O 0.14327 0.99818 0.73186 0.0
O147 O 0.17405 0.00627 0.71751 0.0
O148 O 0.18571 0.95959 0.76977 0.0
C149 C 0.15301 1.00272 0.71374 0.0
O150 O 0.17681 0.06526 0.76548 0.0
C151 C 0.20474 0.95981 0.76226 0.0
O152 O 0.20429 0.04772 0.77163 0.0
O153 O 0.21217 0.9787 0.75431 0.0
C154 C 0.36342 0.96438 0.00957 0.0
O155 O 0.35468 0.97938 1.00156 0.0
Cd156 Cd 0.31851 0.9658 0.98272 0.0
O157 O 0.35195 0.9446 0.01297 0.0
Cd158 Cd 0.31292 0.92658 0.01585 0.0
C159 C 0.32107 0.90568 0.96104 0.0
O160 O 0.30006 0.96143 0.01645 0.0
O161 O 0.27422 0.92854 0.00615 0.0
O162 O 0.32768 0.93438 0.05658 0.0
C163 C 0.2797 0.95148 0.01083 0.0
O164 O 0.32234 0.92727 0.95865 0.0
C165 C 0.31714 0.91428 0.06011 0.0
O166 O 0.31637 0.8994 0.98042 0.0
O167 O 0.30399 0.89985 0.04289 0.0
C168 C 0.36203 0.42374 0.03003 0.0
O169 O 0.34909 0.43183 0.01755 0.0
Cd170 Cd 0.30971 0.4189 0.00997 0.0
O171 O 0.35421 0.40642 0.04005 0.0
Cd172 Cd 0.31513 0.38165 0.03959 0.0
C173 C 0.30688 0.36074 0.98071 0.0
O174 O 0.29581 0.41432 0.04663 0.0
O175 O 0.27481 0.37903 0.03225 0.0
O176 O 0.32349 0.38103 0.08097 0.0
C177 C 0.27628 0.40112 0.04141 0.0
O178 O 0.30166 0.38076 0.98078 0.0
C179 C 0.31422 0.35886 0.07891 0.0
O180 O 0.31532 0.35651 0.99968 0.0
O181 O 0.30658 0.34669 0.05803 0.0
C182 C 0.81882 0.10415 0.04331 0.0
O183 O 0.80308 0.08981 0.05012 0.0
Cd184 Cd 0.76474 0.09096 0.04702 0.0
O185 O 0.8151 0.12036 0.03272 0.0
Cd186 Cd 0.7852 0.13654 0.0187 0.0
C187 C 0.77164 0.15089 0.07476 0.0
O188 O 0.75826 0.09981 0.0094 0.0
O189 O 0.7458 0.13199 0.01135 0.0
O190 O 0.79433 0.13751 0.979 0.0
C191 C 0.74172 0.10924 0.00891 0.0
O192 O 0.76502 0.12854 0.07483 0.0
C193 C 0.79805 0.16034 0.98211 0.0
O194 O 0.78041 0.15828 0.05728 0.0
O195 O 0.79719 0.17234 0.003 0.0
C196 C 0.16855 0.54878 0.27667 0.0
O197 O 0.15995 0.56282 0.26678 0.0
Cd198 Cd 0.16496 0.57098 0.22847 0.0
O199 O 0.18224 0.5377 0.26669 0.0
Cd200 Cd 0.1989 0.53595 0.23009 0.0
C201 C 0.22153 0.59153 0.23608 0.0
O202 O 0.16701 0.53365 0.20602 0.0
O203 O 0.19782 0.54085 0.18952 0.0
O204 O 0.19959 0.49462 0.2264 0.0
C205 C 0.17683 0.53708 0.18792 0.0
O206 O 0.2025 0.59373 0.22852 0.0
C207 C 0.22029 0.49892 0.22403 0.0
O208 O 0.22408 0.57319 0.24356 0.0
O209 O 0.23041 0.52052 0.22457 0.0
C210 C 0.86059 0.92542 0.52885 0.0
O211 O 0.84757 0.9333 0.51625 0.0
Cd212 Cd 0.80872 0.91807 0.50637 0.0
O213 O 0.85305 0.90759 0.53832 0.0
Cd214 Cd 0.81439 0.88134 0.53698 0.0
C215 C 0.81197 0.86123 0.47828 0.0
O216 O 0.79412 0.91269 0.54266 0.0
O217 O 0.77393 0.87699 0.52796 0.0
O218 O 0.82237 0.88154 0.57835 0.0
C219 C 0.77486 0.89895 0.53718 0.0
O220 O 0.80677 0.88096 0.47694 0.0
C221 C 0.81357 0.85928 0.57649 0.0
O222 O 0.81749 0.85684 0.49828 0.0
O223 O 0.80633 0.84669 0.55567 0.0
C224 C 0.97296 0.06015 0.32274 0.0
O225 O 0.98224 0.04957 0.30607 0.0
Cd226 Cd 0.9674 0.04146 0.26489 0.0
O227 O 0.95648 0.06925 0.31654 0.0
Cd228 Cd 0.93497 0.07208 0.27143 0.0
C229 C 0.91452 0.00736 0.26351 0.0
O230 O 0.96987 0.07616 0.24649 0.0
O231 O 0.93926 0.05969 0.2252 0.0
O232 O 0.92726 0.11703 0.28549 0.0
C233 C 0.95998 0.06857 0.2254 0.0
O234 O 0.93423 0.00745 0.2582 0.0
C235 C 0.9089 0.11432 0.27271 0.0
O236 O 0.90934 0.02785 0.27038 0.0
O237 O 0.9021 0.09281 0.26027 0.0
C238 C 0.32188 0.60807 0.54616 0.0
O239 O 0.30606 0.5953 0.55448 0.0
Cd240 Cd 0.26752 0.59613 0.54994 0.0
O241 O 0.31831 0.62293 0.53381 0.0
Cd242 Cd 0.28742 0.63718 0.52111 0.0
C243 C 0.27583 0.65488 0.57712 0.0
O244 O 0.25965 0.5991 0.5097 0.0
O245 O 0.2488 0.63232 0.51152 0.0
O246 O 0.30008 0.64319 0.48304 0.0
C247 C 0.24425 0.6095 0.5058 0.0
O248 O 0.26567 0.63324 0.57676 0.0
C249 C 0.29656 0.6643 0.48646 0.0
O250 O 0.28668 0.66026 0.5601 0.0
O251 O 0.2918 0.67334 0.50696 0.0
C252 C 0.47313 0.56204 0.82228 0.0
O253 O 0.48265 0.5509 0.80622 0.0
Cd254 Cd 0.46971 0.54183 0.76437 0.0
O255 O 0.45696 0.57125 0.81541 0.0
Cd256 Cd 0.43522 0.57321 0.77018 0.0
C257 C 0.4163 0.5079 0.76424 0.0
O258 O 0.46999 0.57551 0.74484 0.0
O259 O 0.43881 0.56195 0.72388 0.0
O260 O 0.42946 0.61904 0.7822 0.0
C261 C 0.4598 0.56863 0.72381 0.0
O262 O 0.4365 0.50861 0.76053 0.0
C263 C 0.40962 0.61609 0.77255 0.0
O264 O 0.41007 0.52807 0.7688 0.0
O265 O 0.40108 0.59397 0.76262 0.0
C266 C 0.67558 0.04707 0.78128 0.0
O267 O 0.66687 0.06129 0.77181 0.0
Cd268 Cd 0.66498 0.06558 0.73164 0.0
O269 O 0.68647 0.03332 0.76972 0.0
Cd270 Cd 0.69971 0.03087 0.73069 0.0
C271 C 0.72033 0.08817 0.73481 0.0
O272 O 0.66637 0.02807 0.70867 0.0
O273 O 0.69574 0.0344 0.68973 0.0
O274 O 0.70115 0.98962 0.72586 0.0
C275 C 0.67485 0.03106 0.68969 0.0
O276 O 0.70083 0.0899 0.72839 0.0
C277 C 0.72189 0.99427 0.72368 0.0
O278 O 0.72398 0.06965 0.74126 0.0
O279 O 0.73179 0.01605 0.72462 0.0
C280 C 0.82833 0.65543 0.01375 0.0
O281 O 0.81311 0.64355 0.02348 0.0
Cd282 Cd 0.77851 0.65244 0.03148 0.0
O283 O 0.8259 0.67408 0.00645 0.0
Cd284 Cd 0.79402 0.69335 0.00308 0.0
C285 C 0.79391 0.71269 0.0616 0.0
O286 O 0.76451 0.65641 0.99403 0.0
O287 O 0.75312 0.68908 0.00346 0.0
O288 O 0.80008 0.69032 0.96203 0.0
C289 C 0.74826 0.66628 0.99608 0.0
O290 O 0.78449 0.69062 0.06037 0.0
C291 C 0.8029 0.71257 0.96205 0.0
O292 O 0.80167 0.71973 0.0435 0.0
O293 O 0.80199 0.72673 0.98176 0.0
C294 C 0.94552 0.53143 0.84559 0.0
O295 O 0.95716 0.52447 0.8293 0.0
Cd296 Cd 0.95425 0.52498 0.78829 0.0
O297 O 0.93022 0.54198 0.84191 0.0
Cd298 Cd 0.91268 0.54908 0.80703 0.0
C299 C 0.90304 0.48935 0.7879 0.0
O300 O 0.94285 0.56057 0.78513 0.0
O301 O 0.9106 0.54848 0.76463 0.0
O302 O 0.90536 0.587 0.82521 0.0
C303 C 0.93141 0.55669 0.76515 0.0
O304 O 0.92225 0.49137 0.78056 0.0
C305 C 0.88438 0.57888 0.82066 0.0
O306 O 0.89639 0.5074 0.79855 0.0
O307 O 0.87713 0.55652 0.81139 0.0
C308 C 0.86364 0.4828 0.51182 0.0
O309 O 0.85362 0.49129 0.49683 0.0
Cd310 Cd 0.81612 0.47165 0.47957 0.0
O311 O 0.8539 0.46416 0.51861 0.0
Cd312 Cd 0.82001 0.43452 0.51319 0.0
C313 C 0.82815 0.41836 0.45603 0.0
O314 O 0.79504 0.45948 0.51057 0.0
O315 O 0.78049 0.42064 0.50212 0.0
O316 O 0.82345 0.43417 0.55518 0.0
C317 C 0.77793 0.44205 0.50513 0.0
O318 O 0.82083 0.43604 0.45163 0.0
C319 C 0.82443 0.41213 0.5511 0.0
O320 O 0.83054 0.41489 0.47698 0.0
O321 O 0.82302 0.40094 0.52949 0.0
C322 C 0.64316 0.51529 0.31454 0.0
O323 O 0.63458 0.52753 0.30216 0.0
Cd324 Cd 0.64166 0.53525 0.26281 0.0
O325 O 0.65807 0.50443 0.30544 0.0
Cd326 Cd 0.67886 0.50043 0.26248 0.0
C327 C 0.69721 0.5666 0.26972 0.0
O328 O 0.64344 0.49985 0.2341 0.0
O329 O 0.67225 0.49982 0.21605 0.0
O330 O 0.68361 0.45568 0.26444 0.0
C331 C 0.65195 0.50099 0.21454 0.0
O332 O 0.67644 0.56553 0.26671 0.0
C333 C 0.7044 0.45803 0.26245 0.0
O334 O 0.70371 0.54694 0.27044 0.0
O335 O 0.71373 0.47923 0.2601 0.0
Eu336 Eu 0.02923 0.02116 0.00811 0.0
C337 C 0.09615 0.11105 0.05879 0.0
C338 C 0.10714 0.13143 0.02685 0.0
C339 C 0.11369 0.15423 0.06783 0.0
C340 C 0.0981 0.11005 0.03466 0.0
C341 C 0.10427 0.13323 0.0756 0.0
C342 C 0.11501 0.15336 0.04353 0.0
C343 C 0.0953 0.11224 0.10715 0.0
N344 N 0.08741 0.09036 0.06603 0.0
C345 C 0.08778 0.09072 0.09006 0.0
C346 C 0.10349 0.13362 0.09991 0.0
Eu347 Eu 0.08204 0.05372 0.03641 0.0
N348 N 0.09132 0.08837 0.01884 0.0
C349 C 0.09156 0.08761 0.99484 0.0
C350 C 0.10817 0.13027 0.00246 0.0
C351 C 0.09998 0.10833 0.98639 0.0
H352 H 0.0832 0.07424 0.09648 0.0
H353 H 0.10005 0.10733 0.96738 0.0
H354 H 0.12227 0.16978 0.0378 0.0
H355 H 0.09541 0.11215 0.12598 0.0
H356 H 0.08454 0.07152 0.98166 0.0
H357 H 0.01405 0.96415 0.07418 0.0
H358 H 0.1149 0.14629 0.99584 0.0
H359 H 0.02745 1.00313 0.94751 0.0
H360 H 0.02871 1.00107 0.06065 0.0
H361 H 0.01611 0.96606 0.91673 0.0
H362 H 0.12016 0.17125 0.08052 0.0
H363 H -0.00045 0.92575 0.04466 0.0
H364 H 0.99218 0.90361 0.00208 0.0
H365 H 0.10977 0.15021 0.11326 0.0
H366 H 0.99374 0.904 0.95959 0.0
N367 N 0.02097 0.9853 0.02369 0.0
C368 C 0.02131 0.98517 0.04747 0.0
C369 C 0.00564 0.94226 0.03859 0.0
C370 C 0.0062 0.94207 0.01429 0.0
C371 C 0.0136 0.96387 0.05526 0.0
C372 C 0.01443 0.96408 0.00726 0.0
H373 H 0.00308 0.92687 0.92785 0.0
N374 N 0.0241 0.98555 0.97698 0.0
C375 C 0.01641 0.96515 0.93538 0.0
C376 C 0.01604 0.9642 0.98332 0.0
C377 C 0.02344 0.98621 0.95316 0.0
C378 C 0.00896 0.94313 0.94172 0.0
C379 C 0.00843 0.94244 0.96584 0.0
O380 O 0.01026 0.02765 0.97801 0.0
O381 O 0.05398 0.05678 0.01225 0.0
O382 O 0.05558 0.05452 0.06463 0.0
O383 O 0.02026 0.03374 0.04643 0.0
O384 O 0.0223 0.05832 0.02028 0.0
O385 O 0.99294 0.00922 0.00355 0.0
O386 O 0.09985 0.04653 0.06715 0.0
O387 O 0.05753 0.01799 0.0321 0.0
O388 O 0.05555 0.02161 0.97982 0.0
O389 O 0.09133 0.03923 0.99867 0.0
O390 O 0.08945 0.01691 0.02417 0.0
O391 O 0.11794 0.06676 0.04321 0.0
C392 C 0.04162 0.07125 0.01841 0.0
C393 C 0.9715 0.02432 0.97685 0.0
C394 C 0.94233 0.04532 0.98609 0.0
C395 C 0.9612 0.03804 0.99364 0.0
C396 C 0.93373 0.03862 0.9619 0.0
C397 C 0.96275 0.01762 0.95275 0.0
C398 C 0.94389 0.02472 0.94532 0.0
C399 C 0.03372 0.04665 0.0658 0.0
C400 C 0.99127 0.01636 0.98349 0.0
C401 C -0.0002 0.92074 0.9728 0.0
C402 C 0.9988 0.92053 0.99697 0.0
C403 C 0.07014 1.00377 0.02578 0.0
C404 C 0.13912 0.05157 0.0697 0.0
C405 C 0.1519 0.04225 0.05255 0.0
C406 C 0.17272 0.03889 0.05978 0.0
C407 C 0.18045 0.04422 0.08418 0.0
C408 C 0.1468 0.05666 0.09405 0.0
C409 C 0.1674 0.05289 0.10126 0.0
C410 C 0.07764 0.02769 0.979 0.0
C411 C 0.11898 0.05871 0.06281 0.0
H412 H 0.96787 0.04319 0.0123 0.0
H413 H 0.91898 0.0439 0.95593 0.0
H414 H 0.97053 0.00683 0.93966 0.0
H415 H 0.93713 0.01943 0.92673 0.0
H416 H 0.14606 0.03841 0.03369 0.0
H417 H 0.19649 0.04147 0.08999 0.0
H418 H 0.13709 0.0641 0.10745 0.0
H419 H 0.17337 0.05698 0.12005 0.0
Eu420 Eu 0.31453 0.77506 0.24426 0.0
C421 C 0.28625 0.85353 0.31814 0.0
C422 C 0.32148 0.87706 0.33987 0.0
C423 C 0.28933 0.8946 0.34069 0.0
C424 C 0.30837 0.85518 0.3256 0.0
C425 C 0.27645 0.87316 0.32602 0.0
C426 C 0.31182 0.89661 0.34746 0.0
C427 C 0.24122 0.84841 0.30622 0.0
N428 N 0.27408 0.83258 0.30395 0.0
C429 C 0.25157 0.82949 0.29905 0.0
C430 C 0.25376 0.87045 0.31959 0.0
Eu431 Eu 0.29087 0.79917 0.29875 0.0
N432 N 0.3172 0.83572 0.31855 0.0
C433 C 0.33956 0.83792 0.32384 0.0
C434 C 0.34403 0.87884 0.34599 0.0
C435 C 0.35316 0.85931 0.33761 0.0
H436 H 0.2412 0.81203 0.29037 0.0
H437 H 0.37078 0.86076 0.34157 0.0
H438 H 0.32161 0.91338 0.35863 0.0
H439 H 0.22345 0.84571 0.30201 0.0
H440 H 0.34763 0.82389 0.31678 0.0
H441 H 0.23749 0.71559 0.1918 0.0
H442 H 0.35464 0.89537 0.35674 0.0
H443 H 0.36394 0.76212 0.25386 0.0
H444 H 0.25846 0.75059 0.22083 0.0
H445 H 0.38198 0.72859 0.24303 0.0
H446 H 0.28202 0.90973 0.34698 0.0
H447 H 0.2547 0.68195 0.17635 0.0
H448 H 0.28721 0.66334 0.17762 0.0
H449 H 0.24563 0.88499 0.3255 0.0
H450 H 0.32554 0.66585 0.19331 0.0
N451 N 0.28914 0.73912 0.22125 0.0
C452 C 0.2672 0.73719 0.21382 0.0
C453 C 0.26444 0.69775 0.18899 0.0
C454 C 0.28632 0.69893 0.19752 0.0
C455 C 0.25473 0.71675 0.19755 0.0
C456 C 0.29838 0.71998 0.21399 0.0
H457 H 0.36066 0.68969 0.218 0.0
N458 N 0.33146 0.74171 0.23849 0.0
C459 C 0.36439 0.72598 0.23774 0.0
C460 C 0.31996 0.72121 0.22307 0.0
C461 C 0.35383 0.7448 0.24439 0.0
C462 C 0.35235 0.70416 0.22352 0.0
C463 C 0.33006 0.70175 0.21546 0.0
O464 O 0.34821 0.79185 0.23784 0.0
O465 O 0.31659 0.80646 0.27443 0.0
O466 O 0.26934 0.8015 0.26477 0.0
O467 O 0.28465 0.78656 0.22993 0.0
O468 O 0.31626 0.81302 0.24007 0.0
O469 O 0.32341 0.77189 0.20785 0.0
O470 O 0.25785 0.78348 0.30772 0.0
O471 O 0.28887 0.76799 0.26865 0.0
O472 O 0.33494 0.77155 0.27842 0.0
O473 O 0.32094 0.7881 0.31355 0.0
O474 O 0.28829 0.76092 0.30304 0.0
O475 O 0.28418 0.80413 0.33596 0.0
C476 C 0.31698 0.8224 0.26247 0.0
C477 C 0.35635 0.79679 0.19898 0.0
C478 C 0.36071 0.8273 0.17526 0.0
C479 C 0.3491 0.81554 0.19151 0.0
C480 C 0.37963 0.82014 0.16676 0.0
C481 C 0.37522 0.78984 0.19042 0.0
C482 C 0.38684 0.80152 0.17438 0.0
C483 C 0.26931 0.79613 0.24095 0.0
C484 C 0.34417 0.78326 0.21481 0.0
C485 C 0.31802 0.68089 0.19927 0.0
C486 C 0.29626 0.67954 0.19022 0.0
C487 C 0.28766 0.75199 0.2806 0.0
C488 C 0.25243 0.7796 0.34742 0.0
C489 C 0.25977 0.76033 0.35378 0.0
C490 C 0.24932 0.74887 0.37088 0.0
C491 C 0.23162 0.75705 0.38149 0.0
C492 C 0.2347 0.78739 0.358 0.0
C493 C 0.22434 0.77613 0.37499 0.0
C494 C 0.3356 0.77753 0.30228 0.0
C495 C 0.26323 0.79274 0.33053 0.0
H496 H 0.3344 0.82073 0.1981 0.0
H497 H 0.38851 0.82846 0.15371 0.0
H498 H 0.3808 0.77514 0.19594 0.0
H499 H 0.40125 0.79591 0.16758 0.0
H500 H 0.27356 0.75447 0.34563 0.0
H501 H 0.22373 0.74913 0.39532 0.0
H502 H 0.22905 0.80241 0.3533 0.0
H503 H 0.21086 0.78242 0.38338 0.0
Eu504 Eu 0.58638 0.04011 0.51402 0.0
C505 C 0.49854 0.98891 0.54599 0.0
C506 C 0.47657 0.96 0.51186 0.0
C507 C 0.47455 0.95156 0.5515 0.0
C508 C 0.49234 0.982 0.52143 0.0
C509 C 0.48903 0.97409 0.56127 0.0
C510 C 0.46838 0.9445 0.52687 0.0
C511 C 0.50657 0.00602 0.5951 0.0
N512 N 0.51241 0.01089 0.55517 0.0
C513 C 0.51556 0.02008 0.57939 0.0
C514 C 0.49358 0.98274 0.58602 0.0
Eu515 Eu 0.52777 0.03251 0.52667 0.0
N516 N 0.50005 0.99758 0.50726 0.0
C517 C 0.49062 0.99341 0.4842 0.0
C518 C 0.46855 0.95471 0.48769 0.0
C519 C 0.47516 0.97176 0.47399 0.0
H520 H 0.52586 0.03802 0.58659 0.0
H521 H 0.46818 0.96836 0.45557 0.0
H522 H 0.45651 0.92744 0.51971 0.0
H523 H 0.5097 0.01316 0.6142 0.0
H524 H 0.49457 0.00666 0.47343 0.0
H525 H 0.62948 0.12378 0.57649 0.0
H526 H 0.45641 0.93805 0.47974 0.0
H527 H 0.59136 0.02242 0.45519 0.0
H528 H 0.60741 0.08199 0.56466 0.0
H529 H 0.60729 0.04046 0.42261 0.0
H530 H 0.46737 0.93983 0.56295 0.0
H531 H 0.64354 0.14578 0.54573 0.0
H532 H 0.64782 0.14526 0.50257 0.0
H533 H 0.48653 0.9719 0.59826 0.0
H534 H 0.64173 0.12269 0.4608 0.0
N535 N 0.60781 0.08024 0.52722 0.0
C536 C 0.61302 0.09128 0.55087 0.0
C537 C 0.63359 0.12739 0.54034 0.0
C538 C 0.62913 0.11561 0.51621 0.0
C539 C 0.62572 0.11504 0.55775 0.0
C540 C 0.61606 0.09165 0.51008 0.0
H541 H 0.62681 0.08367 0.43091 0.0
N542 N 0.6007 0.0555 0.48127 0.0
C543 C 0.60869 0.05151 0.44044 0.0
C544 C 0.61248 0.07893 0.48648 0.0
C545 C 0.59967 0.04137 0.45887 0.0
C546 C 0.61968 0.07592 0.44519 0.0
C547 C 0.62208 0.08983 0.46849 0.0
O548 O 0.60092 0.00892 0.51375 0.0
O549 O 0.55461 0.01404 0.5159 0.0
O550 O 0.54724 0.01804 0.55205 0.0
O551 O 0.58044 0.04514 0.55278 0.0
O552 O 0.5723 1.00354 0.48829 0.0
O553 O 0.62088 0.04442 0.52863 0.0
O554 O 0.5199 0.06025 0.55421 0.0
O555 O 0.562 0.0584 0.53283 0.0
O556 O 0.56689 0.04887 0.48408 0.0
O557 O 0.53057 0.02789 0.48748 0.0
O558 O 0.53616 0.06912 0.51695 0.0
O559 O 0.49746 0.04465 0.52105 0.0
C560 C 0.55442 0.99701 0.49831 0.0
C561 C 0.63879 0.01565 0.50846 0.0
C562 C 0.66618 0.99157 0.50085 0.0
C563 C 0.64986 0.99882 0.51464 0.0
C564 C 0.67117 1.00106 0.48063 0.0
C565 C 0.64448 0.02562 0.48868 0.0
C566 C 0.66043 0.01815 0.4747 0.0
C567 C 0.56729 0.02911 0.56196 0.0
C568 C 0.6207 0.02171 0.52211 0.0
C569 C 0.63437 0.11397 0.47441 0.0
C570 C 0.63786 0.12683 0.49821 0.0
C571 C 0.55672 0.07575 0.52548 0.0
C572 C 0.48239 0.06486 0.55405 0.0
C573 C 0.46756 0.07561 0.54315 0.0
C574 C 0.44959 0.08155 0.55474 0.0
C575 C 0.44657 0.07658 0.57748 0.0
C576 C 0.47926 0.06018 0.5768 0.0
C577 C 0.46132 0.06592 0.58837 0.0
C578 C 0.54598 0.03877 0.47573 0.0
C579 C 0.50154 0.06026 0.54162 0.0
H580 H 0.64566 0.99121 0.53002 0.0
H581 H 0.68379 0.99573 0.46984 0.0
H582 H 0.63672 0.03919 0.48408 0.0
H583 H 0.66458 0.02576 0.45935 0.0
H584 H 0.47006 0.07937 0.52562 0.0
H585 H 0.43303 0.08132 0.58703 0.0
H586 H 0.49073 0.05249 0.58581 0.0
H587 H 0.45899 0.06239 0.60595 0.0
Eu588 Eu 0.27948 0.29446 0.76795 0.0
C589 C 0.36213 0.26473 0.81401 0.0
C590 C 0.37991 0.30041 0.84425 0.0
C591 C 0.38731 0.26158 0.84674 0.0
C592 C 0.36554 0.28928 0.82308 0.0
C593 C 0.37315 0.25063 0.82561 0.0
C594 C 0.39069 0.28642 0.85602 0.0
C595 C 0.35698 0.21625 0.7935 0.0
N596 N 0.34882 0.25475 0.79327 0.0
C597 C 0.34682 0.23106 0.78243 0.0
C598 C 0.37012 0.22605 0.81527 0.0
Eu599 Eu 0.33411 0.28103 0.77382 0.0
N600 N 0.35509 0.30236 0.81108 0.0
C601 C 0.35863 0.32684 0.8194 0.0
C602 C 0.38327 0.32532 0.85283 0.0
C603 C 0.37254 0.33856 0.84036 0.0
H604 H 0.33721 0.22358 0.76519 0.0
H605 H 0.37506 0.35788 0.84681 0.0
H606 H 0.40184 0.29469 0.87222 0.0
H607 H 0.35494 0.19739 0.78505 0.0
H608 H 0.35064 0.33774 0.81036 0.0
H609 H 0.23999 0.21761 0.69405 0.0
H610 H 0.3942 0.33451 0.86898 0.0
H611 H 0.27493 0.35129 0.77693 0.0
H612 H 0.26299 0.23754 0.73135 0.0
H613 H 0.25751 0.37744 0.7567 0.0
H614 H 0.39596 0.25106 0.85585 0.0
H615 H 0.22211 0.24114 0.67084 0.0
H616 H 0.21476 0.28096 0.6672 0.0
H617 H 0.37827 0.21463 0.82366 0.0
H618 H 0.21981 0.32441 0.68392 0.0
N619 N 0.25899 0.27304 0.73033 0.0
C620 C 0.25543 0.24853 0.72204 0.0
C621 C 0.23237 0.25024 0.68745 0.0
C622 C 0.23551 0.27511 0.69611 0.0
C623 C 0.24236 0.23691 0.70051 0.0
C624 C 0.24906 0.28614 0.71785 0.0
H625 H 0.23581 0.36052 0.7171 0.0
N626 N 0.26462 0.32047 0.74829 0.0
C627 C 0.25599 0.35874 0.74804 0.0
C628 C 0.25209 0.31061 0.72706 0.0
C629 C 0.26598 0.34395 0.75934 0.0
C630 C 0.24377 0.34911 0.72571 0.0
C631 C 0.24138 0.3247 0.7151 0.0
O632 O 0.26182 0.31127 0.79603 0.0
O633 O 0.30623 0.29036 0.79376 0.0
O634 O 0.30989 0.24843 0.78327 0.0
O635 O 0.2755 0.25466 0.77087 0.0
O636 O 0.29686 0.32292 0.79952 0.0
O637 O 0.2479 0.27454 0.77763 0.0
O638 O 0.35133 0.26393 0.74556 0.0
O639 O 0.30733 0.28495 0.74806 0.0
O640 O 0.30379 0.32772 0.75957 0.0
O641 O 0.33836 0.32086 0.7705 0.0
O642 O 0.31726 0.25256 0.74204 0.0
O643 O 0.36587 0.30054 0.76427 0.0
C644 C 0.30788 0.30995 0.80883 0.0
C645 C 0.22292 0.29719 0.79553 0.0
C646 C 0.18906 0.29615 0.81591 0.0
C647 C 0.20985 0.29013 0.81346 0.0
C648 C 0.18159 0.30926 0.8004 0.0
C649 C 0.21486 0.31 0.78008 0.0
C650 C 0.19439 0.31607 0.78259 0.0
C651 C 0.28786 0.2407 0.77791 0.0
C652 C 0.24543 0.29249 0.79406 0.0
C653 C 0.22815 0.31388 0.69335 0.0
C654 C 0.22524 0.28914 0.68386 0.0
C655 C 0.30577 0.26531 0.73305 0.0
C656 C 0.3902 0.2773 0.74604 0.0
C657 C 0.40309 0.28408 0.72795 0.0
C658 C 0.42337 0.27718 0.72487 0.0
C659 C 0.43064 0.26359 0.74002 0.0
C660 C 0.398 0.26405 0.76119 0.0
C661 C 0.41808 0.25721 0.75814 0.0
C662 C 0.32594 0.33512 0.76411 0.0
C663 C 0.36797 0.28251 0.74769 0.0
H664 H 0.21587 0.28023 0.82553 0.0
H665 H 0.16571 0.31409 0.80199 0.0
H666 H 0.22445 0.31553 0.76621 0.0
H667 H 0.18841 0.32613 0.7707 0.0
H668 H 0.39718 0.29422 0.71605 0.0
H669 H 0.44616 0.25806 0.7379 0.0
H670 H 0.38849 0.25869 0.77517 0.0
H671 H 0.42387 0.2468 0.76978 0.0
Eu672 Eu 0.05299 0.06305 0.53622 0.0
C673 C 0.07609 0.9877 0.4551 0.0
C674 C 0.04185 0.97426 0.42842 0.0
C675 C 0.0768 0.96979 0.41313 0.0
C676 C 0.0533 0.9849 0.45137 0.0
C677 C 0.08803 0.97974 0.4361 0.0
C678 C 0.05377 0.9671 0.4093 0.0
C679 C 0.12103 0.99017 0.46424 0.0
N680 N 0.08646 0.99705 0.47751 0.0
C681 C 0.10847 0.99766 0.48249 0.0
C682 C 0.11081 0.98137 0.44088 0.0
Eu683 Eu 0.06427 0.00845 0.5079 0.0
N684 N 0.04217 0.99142 0.47036 0.0
C685 C 0.01935 0.98656 0.46761 0.0
C686 C 0.01867 0.97044 0.42545 0.0
C687 C 0.00738 0.97645 0.44519 0.0
H688 H 0.11639 1.00435 0.50059 0.0
H689 H 0.98939 0.9732 0.4432 0.0
H690 H 0.04524 0.95896 0.39158 0.0
H691 H 0.13854 0.99109 0.4682 0.0
H692 H 0.00994 0.99084 0.48235 0.0
H693 H 0.12727 0.10031 0.60138 0.0
H694 H 0.00931 0.96238 0.40812 0.0
H695 H 0.0001 0.06444 0.5427 0.0
H696 H 0.10697 0.07984 0.56264 0.0
H697 H 0.97767 0.07954 0.57397 0.0
H698 H 0.08571 0.96366 0.39832 0.0
H699 H 0.10717 0.11468 0.63516 0.0
H700 H 0.07117 0.11994 0.65047 0.0
H701 H 0.12053 0.9754 0.42678 0.0
H702 H 0.03065 0.11442 0.64308 0.0
N703 N 0.07472 0.08127 0.57369 0.0
C704 C 0.0975 0.08562 0.57686 0.0
C705 C 0.09792 0.10536 0.61805 0.0
C706 C 0.07477 0.10166 0.61464 0.0
C707 C 0.10932 0.09734 0.59903 0.0
C708 C 0.06345 0.08933 0.59201 0.0
H709 H 0.99575 0.09945 0.61472 0.0
N710 N 0.03026 0.07474 0.56587 0.0
C711 C 0.99531 0.08136 0.57819 0.0
C712 C 0.0406 0.08607 0.58794 0.0
C713 C 0.00802 0.07276 0.56058 0.0
C714 C 0.00558 0.09258 0.60116 0.0
C715 C 0.0285 0.09525 0.60624 0.0
O716 O 0.03598 0.08611 0.5207 0.0
O717 O 0.05194 0.0399 0.49896 0.0
O718 O 0.09023 0.03648 0.49578 0.0
O719 O 0.08783 0.06933 0.52491 0.0
O720 O 0.02301 0.04956 0.508 0.0
O721 O 0.07079 0.09976 0.53498 0.0
O722 O 0.08077 0.98444 0.52247 0.0
O723 O 0.06536 0.03156 0.54504 0.0
O724 O 0.02872 0.03542 0.55021 0.0
O725 O 0.02932 1.00289 0.51983 0.0
O726 O 0.09416 0.02145 0.53642 0.0
O727 O 0.04575 0.97186 0.50867 0.0
C728 C 0.0323 0.03989 0.49025 0.0
C729 C 0.04945 0.12819 0.52994 0.0
C730 C 0.05431 0.16699 0.51887 0.0
C731 C 0.05997 0.14475 0.51724 0.0
C732 C 0.03825 0.17276 0.53393 0.0
C733 C 0.03346 0.13399 0.54496 0.0
C734 C 0.02798 0.15633 0.54699 0.0
C735 C 0.09805 0.059 0.50772 0.0
C736 C 0.05341 0.10403 0.52425 0.0
C737 C 0.03967 0.10724 0.62883 0.0
C738 C 0.06273 0.11039 0.63303 0.0
C739 C 0.08491 0.03156 0.55396 0.0
C740 C 0.0661 0.94247 0.51352 0.0
C741 C 0.05554 0.92681 0.52703 0.0
C742 C 0.06124 0.90485 0.52666 0.0
C743 C 0.0772 0.89811 0.51204 0.0
C744 C 0.0818 0.93568 0.49853 0.0
C745 C 0.08718 0.91338 0.4977 0.0
C746 C 0.02017 0.01323 0.53803 0.0
C747 C 0.06299 0.96697 0.51897 0.0
H748 H 0.07226 0.14 0.50561 0.0
H749 H 0.03332 0.18971 0.53523 0.0
H750 H 0.02491 0.12115 0.55459 0.0
H751 H 0.01543 0.16073 0.55833 0.0
H752 H 0.04384 0.93241 0.53909 0.0
H753 H 0.08193 0.88121 0.51184 0.0
H754 H 0.09034 0.94784 0.48819 0.0
H755 H 0.09952 0.90823 0.48644 0.0
Eu756 Eu 0.33342 0.80807 0.75714 0.0
C757 C 0.27861 0.7324 0.80716 0.0
C758 C 0.27855 0.6948 0.77967 0.0
C759 C 0.27187 0.69472 0.82091 0.0
C760 C 0.28107 0.7201 0.78455 0.0
C761 C 0.2737 0.71978 0.8255 0.0
C762 C 0.27424 0.68226 0.79803 0.0
C763 C 0.27074 0.75721 0.85103 0.0
N764 N 0.27992 0.75649 0.81094 0.0
C765 C 0.27535 0.76886 0.83221 0.0
C766 C 0.27008 0.73258 0.84772 0.0
Eu767 Eu 0.28513 0.77424 0.77758 0.0
N768 N 0.28492 0.73264 0.76706 0.0
C769 C 0.28594 0.72085 0.7442 0.0
C770 C 0.27972 0.68271 0.75631 0.0
C771 C 0.28321 0.69578 0.73846 0.0
H772 H 0.27556 0.78786 0.83464 0.0
H773 H 0.28408 0.68662 0.7203 0.0
H774 H 0.2723 0.66285 0.79461 0.0
H775 H 0.26752 0.76717 0.86799 0.0
H776 H 0.28922 0.73058 0.73022 0.0
H777 H 0.33045 0.89378 0.81662 0.0
H778 H 0.2777 0.66328 0.75182 0.0
H779 H 0.34119 0.79711 0.6982 0.0
H780 H 0.33117 0.85121 0.80681 0.0
H781 H 0.34441 0.8189 0.66559 0.0
H782 H 0.26814 0.68473 0.83478 0.0
H783 H 0.33034 0.91665 0.78479 0.0
H784 H 0.33216 0.91779 0.74188 0.0
H785 H 0.26626 0.72352 0.86225 0.0
H786 H 0.33564 0.89748 0.70102 0.0
N787 N 0.33091 0.84887 0.76916 0.0
C788 C 0.33126 0.86056 0.79246 0.0
C789 C 0.33054 0.89769 0.7802 0.0
C790 C 0.33115 0.88606 0.75654 0.0
C791 C 0.3307 0.88489 0.79822 0.0
C792 C 0.33123 0.86124 0.75136 0.0
H793 H 0.34028 0.86096 0.67259 0.0
N794 N 0.33341 0.82584 0.72329 0.0
C795 C 0.34074 0.82762 0.68289 0.0
C796 C 0.33258 0.84951 0.72797 0.0
C797 C 0.33868 0.8153 0.70142 0.0
C798 C 0.3384 0.85133 0.68694 0.0
C799 C 0.33471 0.86272 0.70971 0.0
O800 O 0.36313 0.80814 0.73914 0.0
O801 O 0.31908 0.77196 0.76622 0.0
O802 O 0.31148 0.7843 0.80878 0.0
O803 O 0.33862 0.8131 0.79709 0.0
O804 O 0.3487 0.77467 0.75265 0.0
O805 O 0.36528 0.83154 0.77433 0.0
O806 O 0.25413 0.78089 0.79061 0.0
O807 O 0.29716 0.80884 0.76382 0.0
O808 O 0.3102 0.78919 0.7239 0.0
O809 O 0.27899 0.76842 0.738 0.0
O810 O 0.28281 0.81226 0.79544 0.0
O811 O 0.25334 0.75604 0.75648 0.0
C812 C 0.33442 0.76016 0.76158 0.0
C813 C 0.39803 0.81943 0.76162 0.0
C814 C 0.42937 0.8199 0.78903 0.0
C815 C 0.40803 0.82362 0.78511 0.0
C816 C 0.44077 0.81219 0.76961 0.0
C817 C 0.40973 0.812 0.74231 0.0
C818 C 0.43097 0.80831 0.74634 0.0
C819 C 0.32997 0.80153 0.81315 0.0
C820 C 0.37606 0.82395 0.75649 0.0
C821 C 0.33411 0.88718 0.71486 0.0
C822 C 0.33221 0.89877 0.73815 0.0
C823 C 0.28922 0.82363 0.77893 0.0
C824 C 0.21926 0.75395 0.77397 0.0
C825 C 0.20324 0.75105 0.7548 0.0
C826 C 0.18068 0.74171 0.75647 0.0
C827 C 0.17429 0.73437 0.77743 0.0
C828 C 0.21282 0.74685 0.79496 0.0
C829 C 0.19034 0.7369 0.79655 0.0
C830 C 0.28986 0.77537 0.72073 0.0
C831 C 0.24193 0.76671 0.77176 0.0
H832 H 0.39952 0.82996 0.80021 0.0
H833 H 0.4575 0.80971 0.77253 0.0
H834 H 0.40249 0.80924 0.72405 0.0
H835 H 0.43994 0.80271 0.73141 0.0
H836 H 0.20831 0.75687 0.73871 0.0
H837 H 0.15689 0.72749 0.77932 0.0
H838 H 0.22499 0.74932 0.8101 0.0
H839 H 0.18527 0.73166 0.81282 0.0
Eu840 Eu 0.56486 0.0321 0.0489 0.0
C841 C 0.49692 0.04368 0.97142 0.0
C842 C 0.48018 0.00445 0.94585 0.0
C843 C 0.45846 0.03467 0.95363 0.0
C844 C 0.49865 0.0206 0.96059 0.0
C845 C 0.47709 0.0512 0.96706 0.0
C846 C 0.45998 0.01133 0.94311 0.0
C847 C 0.49663 0.09207 0.98535 0.0
N848 N 0.51518 0.05957 0.98414 0.0
C849 C 0.51582 0.08384 0.98892 0.0
C850 C 0.47695 0.07555 0.97496 0.0
Eu851 Eu 0.54762 0.0446 0.98896 0.0
N852 N 0.51864 0.01452 0.963 0.0
C853 C 0.52144 0.99344 0.94909 0.0
C854 C 0.48272 0.98217 0.93336 0.0
C855 C 0.50353 0.97687 0.93464 0.0
H856 H 0.53119 0.09692 0.99601 0.0
H857 H 0.50595 0.96016 0.92405 0.0
H858 H 0.44568 0.99904 0.93203 0.0
H859 H 0.49716 0.11119 0.99021 0.0
H860 H 0.53743 0.98912 0.9481 0.0
H861 H 0.61195 0.11475 0.11253 0.0
H862 H 0.46898 0.96939 0.92182 0.0
H863 H 0.5741 0.97674 0.04636 0.0
H864 H 0.57901 0.08778 0.08871 0.0
H865 H 0.60502 0.95803 0.05451 0.0
H866 H 0.44309 0.0401 0.95037 0.0
H867 H 0.64687 0.10127 0.11623 0.0
H868 H 0.66659 0.06783 0.10805 0.0
H869 H 0.46212 0.082 0.97182 0.0
H870 H 0.66486 0.02494 0.09188 0.0
N871 N 0.59527 0.05947 0.0754 0.0
C872 C 0.59423 0.08167 0.08846 0.0
C873 C 0.63253 0.08939 0.10487 0.0
C874 C 0.63298 0.06592 0.0935 0.0
C875 C 0.61289 0.09708 0.10276 0.0
C876 C 0.61382 0.0511 0.07885 0.0
H877 H 0.64187 0.98377 0.07237 0.0
N878 N 0.59375 0.01282 0.05721 0.0
C879 C 0.6077 0.97751 0.05837 0.0
C880 C 0.61304 0.02708 0.06939 0.0
C881 C 0.59029 0.98822 0.0536 0.0
C882 C 0.62845 0.99209 0.0684 0.0
C883 C 0.63112 0.01714 0.07483 0.0
O884 O 0.54722 1.00204 0.06274 0.0
O885 O 0.54106 0.02228 0.01554 0.0
O886 O 0.53406 0.06528 0.01996 0.0
O887 O 0.55985 0.06983 0.05236 0.0
O888 O 0.52749 0.02161 0.04751 0.0
O889 O 0.55218 0.03918 0.08366 0.0
O890 O 0.5631 0.08006 0.98239 0.0
O891 O 0.57253 0.05365 0.02124 0.0
O892 O 0.57496 0.00571 0.01857 0.0
O893 O 0.55911 0.01009 0.98178 0.0
O894 O 0.58473 0.04942 0.98783 0.0
O895 O 0.55058 0.04864 0.95267 0.0
C896 C 0.52335 0.0176 0.02482 0.0
C897 C 0.54179 0.00692 0.10382 0.0
C898 C 0.52152 1.00328 0.13827 0.0
C899 C 0.52625 0.01378 0.11875 0.0
C900 C 0.53263 0.98581 0.14296 0.0
C901 C 0.55314 0.98971 0.10866 0.0
C902 C 0.54856 0.97925 0.12829 0.0
C903 C 0.54321 0.07586 0.04174 0.0
C904 C 0.54349 0.01617 0.08206 0.0
C905 C 0.65073 0.03221 0.08788 0.0
C906 C 0.65168 0.0566 0.09716 0.0
C907 C 0.58978 0.05461 0.01068 0.0
C908 C 0.57407 0.08312 0.94375 0.0
C909 C 0.58797 0.07065 0.93073 0.0
C910 C 0.59899 0.08029 0.91307 0.0
C911 C 0.59642 0.10247 0.90862 0.0
C912 C 0.57179 0.10548 0.93957 0.0
C913 C 0.58297 0.11513 0.92204 0.0
C914 C 0.57046 0.99947 0.99488 0.0
C915 C 0.55934 0.07191 0.95925 0.0
H916 H 0.51725 0.02682 0.1147 0.0
H917 H 0.52922 0.97757 0.15809 0.0
H918 H 0.5651 0.98408 0.0971 0.0
H919 H 0.55721 0.96588 0.132 0.0
H920 H 0.58952 0.05317 0.93363 0.0
H921 H 0.60468 0.10983 0.89469 0.0
H922 H 0.56075 0.11504 0.94932 0.0
H923 H 0.58084 0.13216 0.91854 0.0
Eu924 Eu 0.31958 0.30901 0.28188 0.0
C925 C 0.22961 0.2309 0.2408 0.0
C926 C 0.21345 0.22307 0.27664 0.0
C927 C 0.19054 0.21007 0.23854 0.0
C928 C 0.23214 0.2319 0.26513 0.0
C929 C 0.20875 0.21988 0.22727 0.0
C930 C 0.19284 0.21179 0.26318 0.0
C931 C 0.22544 0.22793 0.19202 0.0
N932 N 0.2475 0.24054 0.23029 0.0
C933 C 0.2457 0.2385 0.20606 0.0
C934 C 0.20684 0.2186 0.20267 0.0
Eu935 Eu 0.28281 0.24987 0.25311 0.0
N936 N 0.25252 0.24234 0.27763 0.0
C937 C 0.25427 0.24665 0.30216 0.0
C938 C 0.2158 0.22616 0.30142 0.0
C939 C 0.23615 0.23851 0.31425 0.0
H940 H 0.26017 0.2434 0.19703 0.0
H941 H 0.23795 0.24184 0.33356 0.0
H942 H 0.1785 0.20455 0.27172 0.0
H943 H 0.22439 0.22626 0.17286 0.0
H944 H 0.26929 0.25685 0.31307 0.0
H945 H 0.36787 0.31973 0.20599 0.0
H946 H 0.20184 0.21974 0.31088 0.0
H947 H 0.33786 0.31808 0.33964 0.0
H948 H 0.33501 0.3053 0.22533 0.0
H949 H 0.37243 0.33604 0.36645 0.0
H950 H 0.17454 0.20131 0.22837 0.0
H951 H 0.40394 0.3393 0.23018 0.0
H952 H 0.42588 0.35342 0.27051 0.0
H953 H 0.19121 0.21004 0.19169 0.0
H954 H 0.42723 0.35736 0.31402 0.0
N955 N 0.35158 0.31666 0.26071 0.0
C956 C 0.3503 0.31405 0.23644 0.0
C957 C 0.38944 0.33292 0.23889 0.0
C958 C 0.39084 0.33532 0.26365 0.0
C959 C 0.36911 0.322 0.22522 0.0
C960 C 0.37145 0.3266 0.27411 0.0
H961 H 0.40756 0.35056 0.34983 0.0
N962 N 0.35339 0.31955 0.3077 0.0
C963 C 0.37279 0.33354 0.34731 0.0
C964 C 0.37236 0.32817 0.29839 0.0
C965 C 0.35328 0.3228 0.33196 0.0
C966 C 0.39253 0.34182 0.33788 0.0
C967 C 0.39248 0.33939 0.31317 0.0
O968 O 0.3157 0.3367 0.31183 0.0
O969 O 0.28428 0.28813 0.26989 0.0
O970 O 0.28318 0.27534 0.2274 0.0
O971 O 0.30457 0.31358 0.24691 0.0
O972 O 0.2927 0.30359 0.30589 0.0
O973 O 0.32036 0.34562 0.27677 0.0
O974 O 0.29011 0.23022 0.21889 0.0
O975 O 0.31617 0.27471 0.256 0.0
O976 O 0.32333 0.28272 0.30515 0.0
O977 O 0.29614 0.24637 0.28965 0.0
O978 O 0.31562 0.23946 0.25858 0.0
O979 O 0.27064 0.21097 0.24237 0.0
C980 C 0.27653 0.29386 0.28928 0.0
C981 C 0.31746 0.37775 0.3099 0.0
C982 C 0.30332 0.41261 0.30702 0.0
C983 C 0.30629 0.38986 0.29669 0.0
C984 C 0.31251 0.42391 0.33049 0.0
C985 C 0.32626 0.3886 0.33362 0.0
C986 C 0.32399 0.41182 0.34378 0.0
C987 C 0.29216 0.29846 0.22816 0.0
C988 C 0.31793 0.35304 0.29924 0.0
C989 C 0.41171 0.3485 0.30294 0.0
C990 C 0.41092 0.34635 0.2782 0.0
C991 C 0.3281 0.26036 0.25854 0.0
C992 C 0.28928 0.18876 0.21515 0.0
C993 C 0.30232 0.18215 0.23209 0.0
C994 C 0.3103 0.16126 0.22606 0.0
C995 C 0.30542 0.14706 0.20272 0.0
C996 C 0.2843 0.17451 0.19189 0.0
C997 C 0.29241 0.15371 0.1857 0.0
C998 C 0.31159 0.26107 0.30639 0.0
C999 C 0.27932 0.20931 0.22209 0.0
H1000 H 0.29931 0.38125 0.27843 0.0
H1001 H 0.31041 0.44169 0.33856 0.0
H1002 H 0.33476 0.37913 0.34421 0.0
H1003 H 0.33085 0.42028 0.36202 0.0
H1004 H 0.30602 0.19309 0.25012 0.0
H1005 H 0.31131 0.13069 0.19781 0.0
H1006 H 0.27388 0.17927 0.17869 0.0
H1007 H 0.28839 0.1426 0.16779 0.0
Eu1008 Eu 0.55344 0.56281 0.03427 0.0
C1009 C 0.5738 0.48344 0.95526 0.0
C1010 C 0.53758 0.46398 0.93345 0.0
C1011 C 0.571 0.46091 0.91416 0.0
C1012 C 0.55082 0.47847 0.95439 0.0
C1013 C 0.58412 0.47449 0.9352 0.0
C1014 C 0.54779 0.45554 0.91333 0.0
C1015 C 0.61972 0.49104 0.95877 0.0
N1016 N 0.58611 0.4962 0.97594 0.0
C1017 C 0.60876 0.49917 0.97824 0.0
C1018 C 0.60736 0.47887 0.93705 0.0
Eu1019 Eu 0.56663 0.50876 0.00873 0.0
N1020 N 0.54136 0.48741 0.97395 0.0
C1021 C 0.51855 0.48218 0.97344 0.0
C1022 C 0.51443 0.45831 0.93326 0.0
C1023 C 0.50491 0.46745 0.95336 0.0
H1024 H 0.61843 0.5082 0.99516 0.0
H1025 H 0.48697 0.46353 0.95329 0.0
H1026 H 0.53786 0.44467 0.8971 0.0
H1027 H 0.63768 0.49399 0.9606 0.0
H1028 H 0.5102 0.48967 0.98792 0.0
H1029 H 0.62914 0.60249 0.09741 0.0
H1030 H 0.50377 0.44716 0.91762 0.0
H1031 H 0.50066 0.56432 0.04224 0.0
H1032 H 0.60808 0.57936 0.06001 0.0
H1033 H 0.47902 0.58031 0.07381 0.0
H1034 H 0.57865 0.45403 0.89857 0.0
H1035 H 0.60992 0.61946 0.13079 0.0
H1036 H 0.57442 0.62554 0.14661 0.0
H1037 H 0.61587 0.47237 0.92203 0.0
H1038 H 0.53376 0.61921 0.14044 0.0
N1039 N 0.57607 0.58228 0.07112 0.0
C1040 C 0.59888 0.58642 0.07393 0.0
C1041 C 0.60028 0.60909 0.11421 0.0
C1042 C 0.57711 0.60524 0.11134 0.0
C1043 C 0.61118 0.5996 0.09542 0.0
C1044 C 0.56526 0.59155 0.08936 0.0
H1045 H 0.49816 0.60224 0.11359 0.0
N1046 N 0.53138 0.57524 0.06452 0.0
C1047 C 0.49675 0.58235 0.07757 0.0
C1048 C 0.54231 0.58785 0.08598 0.0
C1049 C 0.509 0.57308 0.05984 0.0
C1050 C 0.50763 0.59474 0.09996 0.0
C1051 C 0.53068 0.59791 0.10432 0.0
O1052 O 0.53455 0.58497 0.02006 0.0
O1053 O 0.55434 0.53944 0.99747 0.0
O1054 O 0.59237 0.53732 0.99672 0.0
O1055 O 0.5881 0.57106 0.02324 0.0
O1056 O 0.52492 0.54826 0.00421 0.0
O1057 O 0.56992 0.59945 0.0314 0.0
O1058 O 0.58806 0.48675 0.0192 0.0
O1059 O 0.56601 0.53208 0.04548 0.0
O1060 O 0.52759 0.53562 0.04665 0.0
O1061 O 0.5326 0.50054 0.02259 0.0
O1062 O 0.59577 0.52432 0.03763 0.0
O1063 O 0.55199 0.4739 0.01693 0.0
C1064 C 0.53511 0.53888 0.98711 0.0
C1065 C 0.54731 0.62721 0.02845 0.0
C1066 C 0.55201 0.66639 0.01827 0.0
C1067 C 0.55819 0.64441 0.01665 0.0
C1068 C 0.53516 0.67129 0.03259 0.0
C1069 C 0.53064 0.63225 0.04284 0.0
C1070 C 0.5247 0.65433 0.04497 0.0
C1071 C 0.59928 0.56034 0.00745 0.0
C1072 C 0.55156 0.6032 0.02227 0.0
C1073 C 0.54241 0.61132 0.1262 0.0
C1074 C 0.56556 0.61496 0.1297 0.0
C1075 C 0.58549 0.5326 0.05519 0.0
C1076 C 0.57389 0.44521 0.0186 0.0
C1077 C 0.56182 0.43053 0.03215 0.0
C1078 C 0.56494 0.40739 0.03153 0.0
C1079 C 0.58024 0.39878 0.01704 0.0
C1080 C 0.58931 0.43675 0.00423 0.0
C1081 C 0.59242 0.41349 0.00348 0.0
C1082 C 0.5212 0.51233 0.03741 0.0
C1083 C 0.57144 0.46998 0.02229 0.0
H1084 H 0.57106 0.64028 0.00557 0.0
H1085 H 0.52972 0.68793 0.03379 0.0
H1086 H 0.52184 0.61899 0.05184 0.0
H1087 H 0.51158 0.65807 0.05574 0.0
H1088 H 0.55008 0.43727 0.04345 0.0
H1089 H 0.58297 0.3809 0.0165 0.0
H1090 H 0.59909 0.44813 0.99397 0.0
H1091 H 0.60443 0.40695 0.99258 0.0
Eu1092 Eu 0.83269 0.30415 0.26153 0.0
C1093 C 0.77487 0.22986 0.30726 0.0
C1094 C 0.78072 0.19239 0.28418 0.0
C1095 C 0.77061 0.19442 0.32462 0.0
C1096 C 0.78036 0.21695 0.28637 0.0
C1097 C 0.7693 0.21851 0.32635 0.0
C1098 C 0.77638 0.18141 0.3036 0.0
C1099 C 0.75937 0.25481 0.34652 0.0
N1100 N 0.77357 0.25304 0.30839 0.0
C1101 C 0.7651 0.2653 0.32717 0.0
C1102 C 0.76182 0.23145 0.34628 0.0
Eu1103 Eu 0.78334 0.26959 0.27507 0.0
N1104 N 0.78393 0.22788 0.26769 0.0
C1105 C 0.78638 0.21465 0.24583 0.0
C1106 C 0.78464 0.1793 0.26226 0.0
C1107 C 0.78713 0.1904 0.24292 0.0
H1108 H 0.76337 0.28347 0.32746 0.0
H1109 H 0.78968 0.18031 0.22571 0.0
H1110 H 0.77675 0.16264 0.30228 0.0
H1111 H 0.75315 0.26478 0.36162 0.0
H1112 H 0.78847 0.2226 0.23049 0.0
H1113 H 0.82845 0.39116 0.31802 0.0
H1114 H 0.7851 0.16045 0.2599 0.0
H1115 H 0.84881 0.29271 0.2067 0.0
H1116 H 0.82508 0.34771 0.30849 0.0
H1117 H 0.85981 0.31427 0.17472 0.0
H1118 H 0.76661 0.18548 0.33919 0.0
H1119 H 0.83902 0.41536 0.28793 0.0
H1120 H 0.84968 0.41699 0.24691 0.0
H1121 H 0.75733 0.22333 0.36127 0.0
H1122 H 0.85764 0.39613 0.2079 0.0
N1123 N 0.83375 0.34621 0.27275 0.0
C1124 C 0.82998 0.35756 0.29493 0.0
C1125 C 0.83765 0.39604 0.2835 0.0
C1126 C 0.84184 0.38457 0.26099 0.0
C1127 C 0.83172 0.38246 0.30053 0.0
C1128 C 0.8398 0.35931 0.25605 0.0
H1129 H 0.86129 0.35797 0.18082 0.0
N1130 N 0.84249 0.32339 0.22981 0.0
C1131 C 0.85523 0.32381 0.19118 0.0
C1132 C 0.84412 0.34755 0.23395 0.0
C1133 C 0.84876 0.3116 0.20917 0.0
C1134 C 0.85608 0.34847 0.19472 0.0
C1135 C 0.85084 0.36073 0.21641 0.0
O1136 O 0.86417 0.29648 0.25187 0.0
O1137 O 0.81969 0.26865 0.27278 0.0
O1138 O 0.80529 0.27949 0.30996 0.0
O1139 O 0.83261 0.30982 0.3013 0.0
O1140 O 0.8367 0.26657 0.24321 0.0
O1141 O 0.86311 0.32163 0.28532 0.0
O1142 O 0.75048 0.27586 0.2807 0.0
O1143 O 0.79604 0.30534 0.26375 0.0
O1144 O 0.81035 0.29541 0.22747 0.0
O1145 O 0.78603 0.26242 0.23545 0.0
O1146 O 0.77885 0.30677 0.29309 0.0
O1147 O 0.75446 0.24897 0.25003 0.0
C1148 C 0.82834 0.25419 0.25824 0.0
C1149 C 0.89787 0.32384 0.26963 0.0
C1150 C 0.93597 0.33603 0.28757 0.0
C1151 C 0.91361 0.32588 0.28868 0.0
C1152 C 0.94269 0.34457 0.2673 0.0
C1153 C 0.90444 0.33217 0.24922 0.0
C1154 C 0.92689 0.34259 0.24815 0.0
C1155 C 0.82302 0.29755 0.31634 0.0
C1156 C 0.87534 0.31073 0.27124 0.0
C1157 C 0.85257 0.38575 0.22119 0.0
C1158 C 0.84809 0.39763 0.24341 0.0
C1159 C 0.78693 0.31954 0.27823 0.0
C1160 C 0.71876 0.24522 0.26364 0.0
C1161 C 0.70157 0.24578 0.2472 0.0
C1162 C 0.67963 0.23475 0.24933 0.0
C1163 C 0.67478 0.2225 0.26777 0.0
C1164 C 0.71408 0.23302 0.28219 0.0
C1165 C 0.69205 0.22157 0.28413 0.0
C1166 C 0.7945 0.27567 0.22068 0.0
C1167 C 0.74075 0.25966 0.26185 0.0
H1168 H 0.90853 0.31902 0.30426 0.0
H1169 H 0.96011 0.35216 0.2661 0.0
H1170 H 0.89244 0.3303 0.23413 0.0
H1171 H 0.93211 0.34879 0.23235 0.0
H1172 H 0.70516 0.25575 0.23322 0.0
H1173 H 0.6577 0.21435 0.26989 0.0
H1174 H 0.72722 0.23272 0.29528 0.0
H1175 H 0.68832 0.21246 0.29862 0.0
Eu1176 Eu 0.06549 0.52892 0.54929 0.0
C1177 C 0.99822 0.54872 0.47134 0.0
C1178 C 0.97885 0.50814 0.45103 0.0
C1179 C 0.9613 0.54153 0.45025 0.0
C1180 C 0.99776 0.52442 0.46475 0.0
C1181 C 0.98011 0.55762 0.4639 0.0
C1182 C 0.96063 0.51682 0.4439 0.0
C1183 C 0.00108 0.59793 0.48263 0.0
N1184 N 0.0166 0.5638 0.48456 0.0
C1185 C 0.01861 0.58825 0.48939 0.0
C1186 C 0.98164 0.58252 0.46997 0.0
Eu1187 Eu 0.04684 0.54689 0.49366 0.0
N1188 N 0.01575 0.51667 0.47179 0.0
C1189 C 0.01591 0.49273 0.46517 0.0
C1190 C 0.97885 0.48364 0.44472 0.0
C1191 C 0.99746 0.47592 0.45184 0.0
H1192 H 0.03392 0.60037 0.49842 0.0
H1193 H 0.99765 0.45698 0.44701 0.0
H1194 H 0.94603 0.5046 0.43329 0.0
H1195 H 0.00272 0.61728 0.4869 0.0
H1196 H 0.02994 0.48613 0.47051 0.0
H1197 H 0.11703 0.61833 0.59487 0.0
H1198 H 0.96463 0.47058 0.43428 0.0
H1199 H 0.07646 0.47491 0.54457 0.0
H1200 H 0.08489 0.59018 0.57021 0.0
H1201 H 0.10555 0.45652 0.55924 0.0
H1202 H 0.94725 0.54803 0.44435 0.0
H1203 H 0.14764 0.60319 0.61119 0.0
H1204 H 0.16364 0.56798 0.61527 0.0
H1205 H 0.96814 0.59006 0.46452 0.0
H1206 H 0.16065 0.52414 0.60548 0.0
N1207 N 0.09672 0.55855 0.5718 0.0
C1208 C 0.09784 0.58286 0.57703 0.0
C1209 C 0.13349 0.59054 0.6002 0.0
C1210 C 0.13229 0.56572 0.59502 0.0
C1211 C 0.11624 0.59913 0.59105 0.0
C1212 C 0.11354 0.55 0.58048 0.0
H1213 H 0.13925 0.48254 0.58441 0.0
N1214 N 0.09411 0.5109 0.56028 0.0
C1215 C 0.1077 0.47594 0.56357 0.0
C1216 C 0.11213 0.52542 0.5746 0.0
C1217 C 0.09136 0.48639 0.55519 0.0
C1218 C 0.12668 0.49069 0.57779 0.0
C1219 C 0.12904 0.51574 0.5836 0.0
O1220 O 0.04763 0.50037 0.56467 0.0
O1221 O 0.03845 0.52793 0.5224 0.0
O1222 O 0.0348 0.56913 0.524 0.0
O1223 O 0.05068 0.56167 0.55917 0.0
O1224 O 0.03813 0.49563 0.53193 0.0
O1225 O 0.05334 0.53801 0.58424 0.0
O1226 O 0.06036 0.57609 0.47628 0.0
O1227 O 0.07435 0.54803 0.52032 0.0
O1228 O 0.08105 0.50912 0.51952 0.0
O1229 O 0.0633 0.51518 0.48465 0.0
O1230 O 0.07378 0.58007 0.51089 0.0
O1231 O 0.05896 0.53812 0.45901 0.0
C1232 C 0.02715 0.50679 0.52004 0.0
C1233 C 0.04234 0.50661 0.60549 0.0
C1234 C 0.02117 0.50372 0.63924 0.0
C1235 C 0.02721 0.51454 0.62027 0.0
C1236 C 0.03057 0.48493 0.64365 0.0
C1237 C 0.05215 0.48813 0.61007 0.0
C1238 C 0.04627 0.47738 0.62922 0.0
C1239 C 0.03908 0.57315 0.54736 0.0
C1240 C 0.04429 0.51527 0.58351 0.0
C1241 C 0.14755 0.53125 0.59833 0.0
C1242 C 0.14922 0.5562 0.60395 0.0
C1243 C 0.08547 0.56927 0.5224 0.0
C1244 C 0.07443 0.5689 0.43815 0.0
C1245 C 0.08883 0.55617 0.4268 0.0
C1246 C 0.10165 0.56553 0.41036 0.0
C1247 C 0.09941 0.58723 0.40435 0.0
C1248 C 0.07206 0.59062 0.43235 0.0
C1249 C 0.08442 0.59963 0.41521 0.0
C1250 C 0.07661 0.50492 0.49601 0.0
C1251 C 0.0645 0.56095 0.45815 0.0
H1252 H 0.01938 0.52857 0.61644 0.0
H1253 H 0.02605 0.47644 0.6584 0.0
H1254 H 0.06375 0.4816 0.59852 0.0
H1255 H 0.05362 0.46297 0.63267 0.0
H1256 H 0.09092 0.53955 0.43155 0.0
H1257 H 0.10905 0.59437 0.39113 0.0
H1258 H 0.06102 0.60074 0.44133 0.0
H1259 H 0.08263 0.61634 0.41063 0.0
Eu1260 Eu 0.77874 0.7963 0.27117 0.0
C1261 C 0.85598 0.763 0.31439 0.0
C1262 C 0.8736 0.79873 0.34457 0.0
C1263 C 0.87377 0.75903 0.3518 0.0
C1264 C 0.86128 0.7878 0.32211 0.0
C1265 C 0.86297 0.74838 0.32877 0.0
C1266 C 0.87905 0.7842 0.35971 0.0
C1267 C 0.85118 0.71432 0.29532 0.0
N1268 N 0.84591 0.75332 0.29191 0.0
C1269 C 0.84463 0.72958 0.28178 0.0
C1270 C 0.85992 0.72365 0.31912 0.0
Eu1271 Eu 0.83347 0.77984 0.27048 0.0
N1272 N 0.85605 0.80129 0.30686 0.0
C1273 C 0.86459 0.82581 0.31222 0.0
C1274 C 0.88105 0.82388 0.35067 0.0
C1275 C 0.87702 0.83741 0.33415 0.0
H1276 H 0.83794 0.72233 0.26329 0.0
H1277 H 0.88326 0.85685 0.33838 0.0
H1278 H 0.88819 0.79227 0.37715 0.0
H1279 H 0.84949 0.69541 0.28737 0.0
H1280 H 0.86178 0.83693 0.30006 0.0
H1281 H 0.72814 0.71906 0.204 0.0
H1282 H 0.8906 0.83294 0.3677 0.0
H1283 H 0.77465 0.85382 0.27782 0.0
H1284 H 0.75038 0.7391 0.2417 0.0
H1285 H 0.76343 0.88067 0.25351 0.0
H1286 H 0.87894 0.74806 0.36324 0.0
H1287 H 0.72024 0.74272 0.17468 0.0
H1288 H 0.72264 0.78322 0.16492 0.0
H1289 H 0.86512 0.71184 0.32955 0.0
H1290 H 0.73241 0.82748 0.17837 0.0
N1291 N 0.75605 0.7747 0.23479 0.0
C1292 C 0.74743 0.75019 0.22962 0.0
C1293 C 0.73018 0.75186 0.19146 0.0
C1294 C 0.73786 0.77698 0.19728 0.0
C1295 C 0.73453 0.73848 0.20798 0.0
C1296 C 0.75062 0.78804 0.2195 0.0
H1297 H 0.74718 0.86395 0.21156 0.0
N1298 N 0.7663 0.82259 0.24941 0.0
C1299 C 0.76146 0.86167 0.24572 0.0
C1300 C 0.75604 0.81283 0.22703 0.0
C1301 C 0.76784 0.84643 0.25939 0.0
C1302 C 0.75237 0.85218 0.22205 0.0
C1303 C 0.74896 0.82737 0.21262 0.0
O1304 O 0.76238 0.81492 0.2993 0.0
O1305 O 0.80769 0.79103 0.2928 0.0
O1306 O 0.80902 0.74646 0.27795 0.0
O1307 O 0.77468 0.75667 0.27517 0.0
O1308 O 0.79729 0.82292 0.30366 0.0
O1309 O 0.74786 0.77765 0.28322 0.0
O1310 O 0.84844 0.762 0.24063 0.0
O1311 O 0.80473 0.78559 0.24885 0.0
O1312 O 0.80363 0.83009 0.2655 0.0
O1313 O 0.83792 0.8194 0.26578 0.0
O1314 O 0.81448 0.75333 0.23809 0.0
O1315 O 0.86595 0.79717 0.26054 0.0
C1316 C 0.81086 0.81026 0.30871 0.0
C1317 C 0.72346 0.80169 0.29939 0.0
C1318 C 0.68754 0.79786 0.31601 0.0
C1319 C 0.7087 0.79249 0.31504 0.0
C1320 C 0.68169 0.81298 0.30168 0.0
C1321 C 0.71699 0.81648 0.28511 0.0
C1322 C 0.69633 0.82224 0.28644 0.0
C1323 C 0.78692 0.74085 0.27747 0.0
C1324 C 0.74581 0.79658 0.29861 0.0
C1325 C 0.73772 0.81658 0.1898 0.0
C1326 C 0.73215 0.79139 0.18214 0.0
C1327 C 0.80138 0.76644 0.23281 0.0
C1328 C 0.88756 0.77149 0.24074 0.0
C1329 C 0.90358 0.78215 0.22707 0.0
C1330 C 0.92329 0.77394 0.22398 0.0
C1331 C 0.92639 0.75462 0.23412 0.0
C1332 C 0.89141 0.75257 0.25095 0.0
C1333 C 0.91058 0.74408 0.24749 0.0
C1334 C 0.82558 0.83541 0.26477 0.0
C1335 C 0.8664 0.77915 0.24315 0.0
H1336 H 0.7135 0.78097 0.32609 0.0
H1337 H 0.66569 0.81767 0.30231 0.0
H1338 H 0.72795 0.82371 0.27301 0.0
H1339 H 0.6916 0.83388 0.27553 0.0
H1340 H 0.90083 0.79681 0.21911 0.0
H1341 H 0.94113 0.7476 0.23164 0.0
H1342 H 0.8795 0.74409 0.26137 0.0
H1343 H 0.91318 0.72923 0.25519 0.0
Eu1344 Eu 0.81552 0.27729 0.7456 0.0
C1345 C 0.78675 0.355 0.81774 0.0
C1346 C 0.82117 0.37733 0.84192 0.0
C1347 C 0.79039 0.39659 0.83922 0.0
C1348 C 0.80814 0.35574 0.82702 0.0
C1349 C 0.77758 0.37538 0.82411 0.0
C1350 C 0.81214 0.39759 0.84802 0.0
C1351 C 0.74282 0.35186 0.80222 0.0
N1352 N 0.77458 0.33423 0.80322 0.0
C1353 C 0.75246 0.33215 0.79667 0.0
C1354 C 0.75551 0.37369 0.81579 0.0
Eu1355 Eu 0.79007 0.2998 0.79967 0.0
N1356 N 0.81639 0.33569 0.82121 0.0
C1357 C 0.83819 0.33698 0.82857 0.0
C1358 C 0.843 0.3781 0.85024 0.0
C1359 C 0.85162 0.35794 0.84324 0.0
H1360 H 0.74169 0.31496 0.78809 0.0
H1361 H 0.86879 0.35861 0.84887 0.0
H1362 H 0.82187 0.41415 0.8596 0.0
H1363 H 0.72538 0.34992 0.79667 0.0
H1364 H 0.84615 0.32263 0.82245 0.0
H1365 H 0.74101 0.21895 0.68703 0.0
H1366 H 0.85348 0.39434 0.86161 0.0
H1367 H 0.86453 0.26392 0.75747 0.0
H1368 H 0.7611 0.25417 0.71583 0.0
H1369 H 0.88262 0.23039 0.74735 0.0
H1370 H 0.78354 0.41228 0.84435 0.0
H1371 H 0.75769 0.18418 0.67495 0.0
H1372 H 0.78939 0.16507 0.67908 0.0
H1373 H 0.74788 0.38886 0.82048 0.0
H1374 H 0.82716 0.16754 0.69645 0.0
N1375 N 0.79108 0.2418 0.72026 0.0
C1376 C 0.76981 0.24031 0.71068 0.0
C1377 C 0.76715 0.20013 0.68762 0.0
C1378 C 0.78845 0.2011 0.69771 0.0
C1379 C 0.75775 0.21974 0.6943 0.0
C1380 C 0.80016 0.22231 0.71428 0.0
H1381 H 0.86176 0.19152 0.72189 0.0
N1382 N 0.83247 0.24389 0.74017 0.0
C1383 C 0.86523 0.22792 0.74118 0.0
C1384 C 0.82129 0.22337 0.72457 0.0
C1385 C 0.85465 0.24683 0.74717 0.0
C1386 C 0.85344 0.2061 0.72678 0.0
C1387 C 0.8314 0.20374 0.71786 0.0
O1388 O 0.84989 0.29506 0.74263 0.0
O1389 O 0.81661 0.30778 0.77647 0.0
O1390 O 0.76899 0.30098 0.76512 0.0
O1391 O 0.78631 0.28958 0.73069 0.0
O1392 O 0.81699 0.31551 0.74246 0.0
O1393 O 0.82722 0.27634 0.71056 0.0
O1394 O 0.75612 0.28553 0.80697 0.0
O1395 O 0.78894 0.26965 0.76882 0.0
O1396 O 0.83399 0.27189 0.77992 0.0
O1397 O 0.81915 0.28719 0.81492 0.0
O1398 O 0.7862 0.26086 0.80236 0.0
O1399 O 0.78187 0.30385 0.83634 0.0
C1400 C 0.81721 0.32412 0.76498 0.0
C1401 C 0.85973 0.30503 0.70599 0.0
C1402 C 0.86113 0.32928 0.67624 0.0
C1403 C 0.84883 0.31604 0.69088 0.0
C1404 C 0.88424 0.33189 0.67695 0.0
C1405 C 0.8829 0.30788 0.70677 0.0
C1406 C 0.89511 0.32136 0.69234 0.0
C1407 C 0.77001 0.29738 0.74151 0.0
C1408 C 0.84741 0.28851 0.71935 0.0
C1409 C 0.81965 0.18273 0.70168 0.0
C1410 C 0.79822 0.18139 0.69168 0.0
C1411 C 0.78666 0.2529 0.77986 0.0
C1412 C 0.75037 0.27649 0.8446 0.0
C1413 C 0.76223 0.26254 0.855 0.0
C1414 C 0.75177 0.24753 0.86934 0.0
C1415 C 0.72939 0.24649 0.87317 0.0
C1416 C 0.72806 0.27543 0.84859 0.0
C1417 C 0.71762 0.26046 0.86285 0.0
C1418 C 0.83396 0.27682 0.80369 0.0
C1419 C 0.76093 0.29278 0.83006 0.0
H1420 H 0.83088 0.31359 0.68982 0.0
H1421 H 0.89378 0.34182 0.66535 0.0
H1422 H 0.89146 0.29917 0.71814 0.0
H1423 H 0.91292 0.32322 0.69274 0.0
H1424 H 0.77951 0.26337 0.85201 0.0
H1425 H 0.72117 0.23525 0.88453 0.0
H1426 H 0.71878 0.28631 0.84078 0.0
H1427 H 0.70046 0.25982 0.86604 0.0
Eu1428 Eu 0.8216 0.81333 0.78092 0.0
C1429 C 0.73204 0.73897 0.73881 0.0
C1430 C 0.71398 0.73255 0.77401 0.0
C1431 C 0.69214 0.72108 0.73534 0.0
C1432 C 0.73349 0.73987 0.76307 0.0
C1433 C 0.71131 0.72929 0.72464 0.0
C1434 C 0.69344 0.72289 0.76 0.0
C1435 C 0.73003 0.7348 0.68991 0.0
N1436 N 0.75091 0.74683 0.72889 0.0
C1437 C 0.7501 0.74408 0.70457 0.0
C1438 C 0.7105 0.72743 0.69998 0.0
Eu1439 Eu 0.78529 0.75365 0.75313 0.0
N1440 N 0.75379 0.74834 0.77606 0.0
C1441 C 0.75496 0.75234 0.80051 0.0
C1442 C 0.71556 0.73534 0.79878 0.0
C1443 C 0.73607 0.74579 0.8121 0.0
H1444 H 0.76509 0.74753 0.69602 0.0
H1445 H 0.73737 0.74897 0.8314 0.0
H1446 H 0.67843 0.7168 0.76808 0.0
H1447 H 0.72979 0.73259 0.67073 0.0
H1448 H 0.77007 0.76147 0.81168 0.0
H1449 H 0.87051 0.82386 0.70412 0.0
H1450 H 0.70097 0.7301 0.80781 0.0
H1451 H 0.84092 0.82179 0.83813 0.0
H1452 H 0.83748 0.81055 0.7227 0.0
H1453 H 0.87595 0.83445 0.86397 0.0
H1454 H 0.67621 0.71337 0.72469 0.0
H1455 H 0.90695 0.83978 0.72823 0.0
H1456 H 0.9292 0.84966 0.76784 0.0
H1457 H 0.695 0.7198 0.68852 0.0
H1458 H 0.93089 0.85119 0.81089 0.0
N1459 N 0.85346 0.82014 0.75857 0.0
C1460 C 0.85253 0.81831 0.73432 0.0
C1461 C 0.89218 0.83414 0.73686 0.0
C1462 C 0.89349 0.83504 0.76133 0.0
C1463 C 0.87165 0.82537 0.72326 0.0
C1464 C 0.87372 0.8274 0.77177 0.0
H1465 H 0.91139 0.84493 0.8466 0.0
N1466 N 0.85571 0.82015 0.80554 0.0
C1467 C 0.87606 0.83186 0.84479 0.0
C1468 C 0.87486 0.82739 0.79587 0.0
C1469 C 0.8561 0.82362 0.82986 0.0
C1470 C 0.89594 0.83795 0.83495 0.0
C1471 C 0.89552 0.83624 0.81032 0.0
O1472 O 0.8136 0.83328 0.81436 0.0
O1473 O 0.78792 0.78874 0.77765 0.0
O1474 O 0.78713 0.77941 0.72752 0.0
O1475 O 0.80916 0.81824 0.74524 0.0
O1476 O 0.7892 0.82352 0.7733 0.0
O1477 O 0.83311 0.8525 0.79069 0.0
O1478 O 0.79202 0.73294 0.71941 0.0
O1479 O 0.81888 0.77836 0.75614 0.0
O1480 O 0.82025 0.78707 0.80634 0.0
O1481 O 0.79733 0.74862 0.78892 0.0
O1482 O 0.81779 0.74328 0.76001 0.0
O1483 O 0.77371 0.71449 0.74436 0.0
C1484 C 0.77619 0.80298 0.77376 0.0
C1485 C 0.81514 0.87484 0.81938 0.0
C1486 C 0.79742 0.90594 0.81133 0.0
C1487 C 0.80422 0.88459 0.80326 0.0
C1488 C 0.80107 0.91725 0.83567 0.0
C1489 C 0.81853 0.88596 0.84376 0.0
C1490 C 0.81142 0.90708 0.85188 0.0
C1491 C 0.79629 0.80227 0.72723 0.0
C1492 C 0.82446 0.85409 0.81107 0.0
C1493 C 0.915 0.84418 0.80003 0.0
C1494 C 0.914 0.84346 0.77557 0.0
C1495 C 0.83051 0.76402 0.75984 0.0
C1496 C 0.79182 0.69186 0.71615 0.0
C1497 C 0.80344 0.68331 0.7328 0.0
C1498 C 0.81095 0.66224 0.72557 0.0
C1499 C 0.80733 0.65006 0.70147 0.0
C1500 C 0.78844 0.67982 0.69203 0.0
C1501 C 0.79628 0.65902 0.68472 0.0
C1502 C 0.81065 0.76429 0.80681 0.0
C1503 C 0.78181 0.71229 0.72368 0.0
H1504 H 0.80182 0.87615 0.78437 0.0
H1505 H 0.79594 0.93387 0.84206 0.0
H1506 H 0.82705 0.87854 0.85641 0.0
H1507 H 0.81424 0.91577 0.87066 0.0
H1508 H 0.80574 0.69238 0.75151 0.0
H1509 H 0.81292 0.63362 0.6957 0.0
H1510 H 0.77938 0.68626 0.67897 0.0
H1511 H 0.79344 0.64961 0.66614 0.0
Eu1512 Eu 0.53218 0.52059 0.50719 0.0
C1513 C 0.60723 0.61129 0.56355 0.0
C1514 C 0.61852 0.63337 0.53303 0.0
C1515 C 0.62928 0.65283 0.57481 0.0
C1516 C 0.6075 0.61203 0.53972 0.0
C1517 C 0.61819 0.63169 0.58139 0.0
C1518 C 0.62944 0.65367 0.55067 0.0
C1519 C 0.60785 0.60835 0.61102 0.0
N1520 N 0.59689 0.59043 0.56934 0.0
C1521 C 0.59764 0.58851 0.59271 0.0
C1522 C 0.61817 0.63007 0.60534 0.0
Eu1523 Eu 0.58403 0.55588 0.53773 0.0
N1524 N 0.59716 0.5919 0.52309 0.0
C1525 C 0.59721 0.59237 0.4993 0.0
C1526 C 0.61849 0.63368 0.5088 0.0
C1527 C 0.60763 0.61312 0.49188 0.0
H1528 H 0.59077 0.57139 0.59724 0.0
H1529 H 0.60737 0.61315 0.47303 0.0
H1530 H 0.63814 0.67007 0.54582 0.0
H1531 H 0.6082 0.60668 0.62945 0.0
H1532 H 0.58893 0.57711 0.48553 0.0
H1533 H 0.50691 0.46276 0.57086 0.0
H1534 H 0.62677 0.64967 0.50297 0.0
H1535 H 0.52571 0.5058 0.44761 0.0
H1536 H 0.52302 0.50001 0.55905 0.0
H1537 H 0.51088 0.46998 0.41502 0.0
H1538 H 0.63793 0.66857 0.58824 0.0
H1539 H 0.49319 0.42486 0.5405 0.0
H1540 H 0.4859 0.40381 0.49752 0.0
H1541 H 0.62643 0.6453 0.61952 0.0
H1542 H 0.48704 0.40566 0.45526 0.0
N1543 N 0.51923 0.48443 0.52148 0.0
C1544 C 0.51709 0.48414 0.54507 0.0
C1545 C 0.50044 0.44139 0.53497 0.0
C1546 C 0.50188 0.4417 0.51087 0.0
C1547 C 0.50804 0.46273 0.55212 0.0
C1548 C 0.51155 0.46372 0.50456 0.0
H1549 H 0.49626 0.43013 0.42443 0.0
N1550 N 0.52099 0.48619 0.47523 0.0
C1551 C 0.51142 0.46814 0.4334 0.0
C1552 C 0.5124 0.46466 0.48078 0.0
C1553 C 0.51997 0.48833 0.45192 0.0
C1554 C 0.50318 0.44571 0.43879 0.0
C1555 C 0.50334 0.44378 0.46267 0.0
O1556 O 0.50929 0.53068 0.48339 0.0
O1557 O 0.55165 0.55919 0.52131 0.0
O1558 O 0.55881 0.56337 0.56535 0.0
O1559 O 0.52648 0.53548 0.54685 0.0
O1560 O 0.54134 0.5483 0.48513 0.0
O1561 O 0.49842 0.52137 0.51641 0.0
O1562 O 0.60833 0.5473 0.56129 0.0
O1563 O 0.5641 0.51761 0.52445 0.0
O1564 O 0.55758 0.51181 0.48046 0.0
O1565 O 0.58889 0.54196 0.49755 0.0
O1566 O 0.57554 0.52847 0.56047 0.0
O1567 O 0.61609 0.55145 0.52573 0.0
C1568 C 0.54956 0.5668 0.50224 0.0
C1569 C 0.47062 0.52048 0.48548 0.0
C1570 C 0.43439 0.52943 0.48519 0.0
C1571 C 0.4551 0.53122 0.49708 0.0
C1572 C 0.4287 0.51602 0.46164 0.0
C1573 C 0.46499 0.50661 0.46202 0.0
C1574 C 0.44391 0.50423 0.45024 0.0
C1575 C 0.5378 0.55157 0.56603 0.0
C1576 C 0.49333 0.52831 0.49701 0.0
C1577 C 0.49408 0.42184 0.46891 0.0
C1578 C 0.49341 0.42079 0.49296 0.0
C1579 C 0.56589 0.51025 0.54367 0.0
C1580 C 0.64622 0.55709 0.55535 0.0
C1581 C 0.66111 0.54391 0.54602 0.0
C1582 C 0.68281 0.54895 0.55692 0.0
C1583 C 0.69002 0.568 0.57697 0.0
C1584 C 0.65337 0.57652 0.57515 0.0
C1585 C 0.67536 0.58206 0.58579 0.0
C1586 C 0.57797 0.52463 0.47909 0.0
C1587 C 0.62294 0.54728 0.546 0.0
H1588 H 0.45974 0.54253 0.51494 0.0
H1589 H 0.41271 0.51481 0.45217 0.0
H1590 H 0.477 0.49846 0.45259 0.0
H1591 H 0.43963 0.49389 0.43204 0.0
H1592 H 0.6553 0.52847 0.53114 0.0
H1593 H 0.70675 0.57178 0.58581 0.0
H1594 H 0.64195 0.58682 0.58278 0.0
H1595 H 0.68083 0.59676 0.60128 0.0
Eu1596 Eu 0.08581 0.53828 0.00911 0.0
C1597 C 0.00105 0.49259 0.05368 0.0
C1598 C 0.98004 0.46139 0.02075 0.0
C1599 C 0.97703 0.45646 0.06155 0.0
C1600 C 0.99536 0.48385 0.02937 0.0
C1601 C 0.99155 0.47928 0.07007 0.0
C1602 C 0.97133 0.44751 0.03693 0.0
C1603 C 0.01014 0.51288 0.10207 0.0
N1604 N 0.01519 0.51464 0.06137 0.0
C1605 C 0.0192 0.52534 0.08511 0.0
C1606 C 0.99651 0.4896 0.09454 0.0
Eu1607 Eu 0.03059 0.53416 0.03181 0.0
N1608 N 0.0039 0.49783 0.01425 0.0
C1609 C 0.99662 0.49115 0.99041 0.0
C1610 C 0.97345 0.45388 0.99619 0.0
C1611 C 0.98149 0.46903 0.98102 0.0
H1612 H 0.02966 0.54339 0.09089 0.0
H1613 H 0.97616 0.46362 0.96205 0.0
H1614 H 0.95972 0.43011 0.03061 0.0
H1615 H 0.01367 0.52124 0.12091 0.0
H1616 H 0.00272 0.50248 0.97834 0.0
H1617 H 0.13643 0.61173 0.07879 0.0
H1618 H 0.96176 0.43674 0.98885 0.0
H1619 H 0.08843 0.52796 0.95004 0.0
H1620 H 0.11201 0.57138 0.06241 0.0
H1621 H 0.10425 0.55012 0.91993 0.0
H1622 H 0.96974 0.44583 0.07385 0.0
H1623 H 0.14984 0.63875 0.05175 0.0
H1624 H 0.15222 0.64473 0.00974 0.0
H1625 H 0.98949 0.47998 0.1077 0.0
H1626 H 0.1437 0.62788 0.96649 0.0
N1627 N 0.11098 0.57566 0.02643 0.0
C1628 C 0.11776 0.5829 0.05036 0.0
C1629 C 0.1391 0.62102 0.04443 0.0
C1630 C 0.13326 0.61283 0.01978 0.0
C1631 C 0.13162 0.6058 0.05975 0.0
C1632 C 0.11913 0.58966 0.0112 0.0
H1633 H 0.12627 0.59241 0.93284 0.0
N1634 N 0.10117 0.5576 0.97934 0.0
C1635 C 0.10702 0.55888 0.93869 0.0
C1636 C 0.11419 0.58028 0.98689 0.0
C1637 C 0.09815 0.54638 0.9557 0.0
C1638 C 0.11943 0.58276 0.94606 0.0
C1639 C 0.12341 0.59366 0.97044 0.0
O1640 O 0.09929 0.50831 0.99227 0.0
O1641 O 0.05359 0.51425 0.01285 0.0
O1642 O 0.04813 0.51365 0.05216 0.0
O1643 O 0.08397 0.53355 0.04713 0.0
O1644 O 0.06641 0.50544 0.98109 0.0
O1645 O 0.11619 0.53177 0.02544 0.0
O1646 O 0.01919 0.5647 0.05091 0.0
O1647 O 0.06249 0.5588 0.02709 0.0
O1648 O 0.06696 0.55462 0.98528 0.0
O1649 O 0.03093 0.53836 0.99386 0.0
O1650 O 0.0516 0.56496 0.06044 0.0
O1651 O 0.00074 0.54333 0.01748 0.0
C1652 C 0.05036 0.49867 0.99347 0.0
C1653 C 0.13767 0.51153 0.99923 0.0
C1654 C 0.16882 0.49233 0.99796 0.0
C1655 C 0.14994 0.49715 0.00841 0.0
C1656 C 0.17564 0.50231 0.97851 0.0
C1657 C 0.14486 0.52186 0.98009 0.0
C1658 C 0.16381 0.51724 0.96981 0.0
C1659 C 0.06987 0.51826 0.05653 0.0
C1660 C 0.11634 0.51335 0.0083 0.0
C1661 C 0.1367 0.61718 0.97886 0.0
C1662 C 0.14156 0.62677 0.00349 0.0
C1663 C 0.06618 0.5734 0.04716 0.0
C1664 C 0.98118 0.56374 0.04587 0.0
C1665 C 0.96738 0.57578 0.03534 0.0
C1666 C 0.94804 0.57943 0.04539 0.0
C1667 C 0.94264 0.57132 0.06623 0.0
C1668 C 0.97568 0.55565 0.06671 0.0
C1669 C 0.95651 0.55956 0.0769 0.0
C1670 C 0.04516 0.54951 0.98114 0.0
C1671 C 0.00184 0.56126 0.03563 0.0
H1672 H 0.14435 0.48898 0.02308 0.0
H1673 H 0.19017 0.49864 0.9702 0.0
H1674 H 0.13561 0.533 0.97279 0.0
H1675 H 0.16916 0.52498 0.95486 0.0
H1676 H 0.97155 0.58206 0.01923 0.0
H1677 H 0.92769 0.57407 0.07418 0.0
H1678 H 0.98625 0.5466 0.07526 0.0
H1679 H 0.95239 0.55343 0.09304 0.0
H1680 H 0.03129 0.21655 0.00499 0.0
H1681 H 0.04208 0.07808 0.97281 0.0
H1682 H 0.01755 0.17147 0.93397 0.0
H1683 H 0.04197 0.11635 0.0451 0.0
H1684 H 0.03771 0.11408 0.95858 0.0
H1685 H 0.03887 0.18208 0.02026 0.0
C1686 C 0.02971 0.19943 0.99259 0.0
C1687 C 0.02351 0.19706 0.96808 0.0
C1688 C 0.03889 0.11481 0.97759 0.0
C1689 C 0.03265 0.15739 0.98552 0.0
C1690 C 0.04163 0.09429 0.98574 0.0
C1691 C 0.04283 0.09432 0.01022 0.0
C1692 C 0.03714 0.13571 0.99398 0.0
C1693 C 0.04145 0.11565 0.0261 0.0
C1694 C 0.03413 0.17972 1.00135 0.0
C1695 C 0.02203 0.17431 0.95299 0.0
N1696 N 0.03872 0.13544 0.01776 0.0
N1697 N 0.0266 0.15558 0.96188 0.0
H1698 H 0.1506 0.83338 0.1831 0.0
H1699 H 0.2617 0.78397 0.19182 0.0
H1700 H 0.18219 0.80746 0.12145 0.0
H1701 H 0.23463 0.8184 0.25322 0.0
H1702 H 0.2322 0.79099 0.16601 0.0
H1703 H 0.18051 0.82689 0.20895 0.0
C1704 C 0.1639 0.82646 0.17494 0.0
C1705 C 0.1638 0.82112 0.14993 0.0
C1706 C 0.23271 0.79705 0.18516 0.0
C1707 C 0.19829 0.81331 0.17972 0.0
C1708 C 0.24966 0.79306 0.20007 0.0
C1709 C 0.251 0.80057 0.22514 0.0
C1710 C 0.21668 0.80867 0.19515 0.0
C1711 C 0.23454 0.81209 0.23432 0.0
C1712 C 0.18101 0.82271 0.18979 0.0
C1713 C 0.18154 0.81204 0.14057 0.0
N1714 N 0.21819 0.81574 0.21943 0.0
N1715 N 0.19794 0.80836 0.1554 0.0
H1716 H 0.56445 0.85209 0.48039 0.0
H1717 H 0.52015 0.9646 0.46854 0.0
H1718 H 0.49463 0.84377 0.4603 0.0
H1719 H 0.57033 0.97037 0.52575 0.0
H1720 H 0.51041 0.92046 0.46421 0.0
H1721 H 0.56797 0.89543 0.49648 0.0
C1722 C 0.54971 0.85926 0.48021 0.0
C1723 C 0.52911 0.8443 0.46953 0.0
C1724 C 0.52322 0.93144 0.47809 0.0
C1725 C 0.53319 0.89397 0.4867 0.0
C1726 C 0.52855 0.95663 0.48073 0.0
C1727 C 0.54548 0.97116 0.4981 0.0
C1728 C 0.53579 0.92068 0.49203 0.0
C1729 C 0.5568 0.9598 0.51254 0.0
C1730 C 0.55173 0.884 0.4892 0.0
C1731 C 0.51068 0.85466 0.46884 0.0
N1732 N 0.55208 0.93524 0.50889 0.0
N1733 N 0.51322 0.87892 0.47689 0.0
H1734 H 0.54049 0.33922 0.66599 0.0
H1735 H 0.42832 0.24819 0.68298 0.0
H1736 H 0.52001 0.26474 0.62849 0.0
H1737 H 0.45117 0.32074 0.72506 0.0
H1738 H 0.45738 0.25683 0.65653 0.0
H1739 H 0.50392 0.33577 0.68133 0.0
C1740 C 0.52798 0.32238 0.66041 0.0
C1741 C 0.53307 0.30228 0.64587 0.0
C1742 C 0.45585 0.27105 0.67128 0.0
C1743 C 0.49154 0.2979 0.66379 0.0
C1744 C 0.43919 0.26614 0.68626 0.0
C1745 C 0.43741 0.28383 0.7061 0.0
C1746 C 0.47113 0.2937 0.67647 0.0
C1747 C 0.45197 0.30672 0.7098 0.0
C1748 C 0.50719 0.32032 0.6693 0.0
C1749 C 0.51656 0.28068 0.63953 0.0
N1750 N 0.46842 0.31091 0.69533 0.0
N1751 N 0.49662 0.27898 0.6487 0.0
H1752 H 0.98264 0.79789 0.58835 0.0
H1753 H 0.08243 0.89511 0.56484 0.0
H1754 H 0.03296 0.83963 0.6453 0.0
H1755 H 0.01772 0.88307 0.52622 0.0
H1756 H 0.06517 0.87285 0.59372 0.0
H1757 H 0.99474 0.82793 0.56449 0.0
C1758 C 0.99589 0.81367 0.59598 0.0
C1759 C 0.00701 0.81629 0.61861 0.0
C1760 C 0.05476 0.87516 0.57895 0.0
C1761 C 0.02126 0.85001 0.5914 0.0
C1762 C 0.06462 0.88744 0.56237 0.0
C1763 C 0.05141 0.89015 0.543 0.0
C1764 C 0.03168 0.86532 0.57574 0.0
C1765 C 0.02836 0.88074 0.54077 0.0
C1766 C 0.00278 0.83074 0.58242 0.0
C1767 C 0.02402 0.83701 0.62785 0.0
N1768 N 0.01918 0.86837 0.55683 0.0
N1769 N 0.03104 0.85288 0.61394 0.0
H1770 H 0.55306 0.86571 0.83914 0.0
H1771 H 0.43665 0.78867 0.81608 0.0
H1772 H 0.53491 0.80696 0.87525 0.0
H1773 H 0.45002 0.86428 0.81482 0.0
H1774 H 0.4695 0.79677 0.8448 0.0
H1775 H 0.51423 0.86765 0.83489 0.0
C1776 C 0.54086 0.85328 0.84627 0.0
C1777 C 0.54701 0.83578 0.85705 0.0
C1778 C 0.46474 0.81182 0.83914 0.0
C1779 C 0.50262 0.83799 0.85245 0.0
C1780 C 0.44594 0.80717 0.82289 0.0
C1781 C 0.44114 0.82582 0.813 0.0
C1782 C 0.47895 0.83505 0.84462 0.0
C1783 C 0.45354 0.84948 0.82202 0.0
C1784 C 0.51875 0.85466 0.84422 0.0
C1785 C 0.53069 0.82047 0.86648 0.0
N1786 N 0.47244 0.85337 0.83683 0.0
N1787 N 0.50905 0.82156 0.86348 0.0
H1788 H 0.48176 0.19052 0.08785 0.0
H1789 H 0.52139 0.06872 0.07972 0.0
H1790 H 0.47814 0.15105 0.14423 0.0
H1791 H 0.5386 0.11906 0.03417 0.0
H1792 H 0.49653 0.09276 0.09846 0.0
H1793 H 0.49026 0.15634 0.06111 0.0
C1794 C 0.48182 0.17428 0.09436 0.0
C1795 C 0.48029 0.17388 0.11855 0.0
C1796 C 0.50564 0.09844 0.08424 0.0
C1797 C 0.49041 0.13522 0.08835 0.0
C1798 C 0.52008 0.08508 0.07398 0.0
C1799 C 0.53188 0.09223 0.05563 0.0
C1800 C 0.5032 0.11897 0.07597 0.0
C1801 C 0.5294 0.11298 0.04812 0.0
C1802 C 0.48696 0.15489 0.07914 0.0
C1803 C 0.48009 0.15228 0.12589 0.0
N1804 N 0.51532 0.12577 0.05842 0.0
N1805 N 0.4858 0.13392 0.11097 0.0
H1806 H 0.18432 0.3498 0.36121 0.0
H1807 H 0.23775 0.27859 0.25881 0.0
H1808 H 0.1507 0.28122 0.31583 0.0
H1809 H 0.27091 0.33332 0.32003 0.0
H1810 H 0.20253 0.2901 0.26677 0.0
H1811 H 0.21137 0.35522 0.33237 0.0
C1812 C 0.18283 0.33583 0.34517 0.0
C1813 C 0.16634 0.31439 0.34129 0.0
C1814 C 0.21771 0.29985 0.27806 0.0
C1815 C 0.19701 0.32023 0.30868 0.0
C1816 C 0.23751 0.29273 0.27399 0.0
C1817 C 0.25642 0.30314 0.29036 0.0
C1818 C 0.21756 0.31828 0.29797 0.0
C1819 C 0.25621 0.32347 0.30806 0.0
C1820 C 0.19791 0.33909 0.32854 0.0
C1821 C 0.16402 0.29746 0.31972 0.0
N1822 N 0.23696 0.33018 0.31157 0.0
N1823 N 0.17975 0.30033 0.30441 0.0
H1824 H 0.98034 0.10466 0.20243 0.0
H1825 H 0.02383 0.01535 0.09727 0.0
H1826 H 0.96759 0.0277 0.19537 0.0
H1827 H 0.02188 0.08771 0.09199 0.0
H1828 H 0.00689 0.02104 0.13464 0.0
H1829 H 0.99837 0.10045 0.16491 0.0
C1830 C 0.98141 0.08684 0.1932 0.0
C1831 C 0.97215 0.06654 0.20259 0.0
C1832 C 0.00997 0.03575 0.12539 0.0
C1833 C 0.99348 0.06149 0.1588 0.0
C1834 C 0.01969 0.03245 0.10351 0.0
C1835 C 0.02413 0.05076 0.09027 0.0
C1836 C 0.00455 0.0578 0.13514 0.0
C1837 C 0.01879 0.07278 0.10094 0.0
C1838 C 0.99174 0.08442 0.17152 0.0
C1839 C 0.97422 0.04399 0.1892 0.0
N1840 N 0.00943 0.07561 0.12237 0.0
N1841 N 0.9846 0.04217 0.16849 0.0
H1842 H 0.26177 0.68338 0.48003 0.0
H1843 H 0.29277 0.7468 0.38046 0.0
H1844 H 0.319 0.66717 0.44666 0.0
H1845 H 0.22495 0.70744 0.3807 0.0
H1846 H 0.30552 0.72059 0.40401 0.0
H1847 H 0.25027 0.6972 0.44511 0.0
C1848 C 0.27214 0.68318 0.46544 0.0
C1849 C 0.29161 0.67472 0.46627 0.0
C1850 C 0.28794 0.71733 0.3982 0.0
C1851 C 0.27842 0.6902 0.42632 0.0
C1852 C 0.28062 0.73221 0.38479 0.0
C1853 C 0.25769 0.72972 0.37931 0.0
C1854 C 0.27216 0.70038 0.40636 0.0
C1855 C 0.24271 0.71051 0.38535 0.0
C1856 C 0.26535 0.69061 0.44541 0.0
C1857 C 0.30407 0.674 0.44664 0.0
N1858 N 0.25015 0.69698 0.39918 0.0
N1859 N 0.29748 0.68218 0.42743 0.0
H1860 H 0.64244 0.05536 0.69349 0.0
H1861 H 0.59409 0.99885 0.55889 0.0
H1862 H 0.67705 0.01591 0.64243 0.0
H1863 H 0.56363 0.04505 0.60814 0.0
H1864 H 0.62315 1.00175 0.59042 0.0
H1865 H 0.61386 0.05297 0.66202 0.0
C1866 C 0.64407 0.04644 0.67548 0.0
C1867 C 0.66139 0.03498 0.67034 0.0
C1868 C 0.60984 0.01081 0.59451 0.0
C1869 C 0.62874 0.03148 0.63476 0.0
C1870 C 0.59306 0.00863 0.57677 0.0
C1871 C 0.5768 0.02166 0.58144 0.0
C1872 C 0.60998 0.02617 0.61669 0.0
C1873 C 0.576 0.0346 0.60435 0.0
C1874 C 0.62773 0.04493 0.65759 0.0
C1875 C 0.66344 0.02439 0.64684 0.0
N1876 N 0.59278 0.03689 0.62129 0.0
N1877 N 0.64683 0.02239 0.62972 0.0
H1878 H 0.27085 0.34745 0.94817 0.0
H1879 H 0.32416 0.28294 0.83813 0.0
H1880 H 0.33629 0.33516 0.96087 0.0
H1881 H 0.28899 0.3396 0.8391 0.0
H1882 H 0.32273 0.28828 0.88184 0.0
H1883 H 0.26919 0.32726 0.90635 0.0
C1884 C 0.28465 0.33993 0.9422 0.0
C1885 C 0.30385 0.34322 0.95774 0.0
C1886 C 0.31534 0.29932 0.87217 0.0
C1887 C 0.30232 0.32073 0.90989 0.0
C1888 C 0.31652 0.29665 0.8474 0.0
C1889 C 0.3077 0.31162 0.83496 0.0
C1890 C 0.30398 0.31595 0.88393 0.0
C1891 C 0.29667 0.32802 0.84773 0.0
C1892 C 0.28372 0.32847 0.91839 0.0
C1893 C 0.32123 0.33297 0.94926 0.0
N1894 N 0.29499 0.32954 0.87127 0.0
N1895 N 0.32033 0.32262 0.9256 0.0
H1896 H 0.01394 0.05414 0.3383 0.0
H1897 H 0.99114 0.04441 0.47417 0.0
H1898 H 0.95325 0.06448 0.36719 0.0
H1899 H 0.05376 0.03965 0.44707 0.0
H1900 H 0.97717 0.05063 0.43569 0.0
H1901 H 0.0282 0.0487 0.37693 0.0
C1902 C 0.00346 0.05555 0.35273 0.0
C1903 C 0.98203 0.06007 0.34862 0.0
C1904 C 0.99395 0.04819 0.43791 0.0
C1905 C 0.99892 0.05319 0.39451 0.0
C1906 C 0.0021 0.0445 0.46015 0.0
C1907 C 0.02396 0.04139 0.46466 0.0
C1908 C 0.00742 0.04886 0.41899 0.0
C1909 C 0.03686 0.0418 0.44507 0.0
C1910 C 0.01182 0.05229 0.37509 0.0
C1911 C 0.96983 0.06141 0.36882 0.0
N1912 N 0.02849 0.04542 0.42348 0.0
N1913 N 0.9783 0.05791 0.39043 0.0
H1914 H 0.24536 0.65367 0.60961 0.0
H1915 H 0.3016 0.7876 0.67862 0.0
H1916 H 0.30177 0.70061 0.58875 0.0
H1917 H 0.25343 0.73758 0.70683 0.0
H1918 H 0.29311 0.7601 0.6397 0.0
H1919 H 0.24139 0.68747 0.64068 0.0
C1920 C 0.25691 0.67107 0.61162 0.0
C1921 C 0.27391 0.67444 0.5967 0.0
C1922 C 0.2842 0.75531 0.65439 0.0
C1923 C 0.26928 0.713 0.6317 0.0
C1924 C 0.28923 0.77094 0.67666 0.0
C1925 C 0.27962 0.76396 0.69634 0.0
C1926 C 0.26941 0.73274 0.65206 0.0
C1927 C 0.26218 0.74312 0.69236 0.0
C1928 C 0.25448 0.69037 0.62911 0.0
C1929 C 0.28835 0.69732 0.59984 0.0
N1930 N 0.25808 0.72777 0.67072 0.0
N1931 N 0.28578 0.71574 0.61714 0.0
H1932 H 0.66137 0.00718 0.79926 0.0
H1933 H 0.58616 0.0514 0.86926 0.0
H1934 H 0.68134 0.08503 0.81844 0.0
H1935 H 0.64204 0.0796 0.92344 0.0
H1936 H 0.61065 0.03478 0.84185 0.0
H1937 H 0.64571 0.00733 0.83777 0.0
C1938 C 0.66325 0.02414 0.81203 0.0
C1939 C 0.67211 0.04617 0.80589 0.0
C1940 C 0.61727 0.04366 0.86011 0.0
C1941 C 0.65517 0.04636 0.84926 0.0
C1942 C 0.60345 0.05331 0.87552 0.0
C1943 C 0.61238 0.06675 0.89833 0.0
C1944 C 0.64006 0.04815 0.86756 0.0
C1945 C 0.63485 0.0693 0.90579 0.0
C1946 C 0.65443 0.02418 0.83381 0.0
C1947 C 0.67425 0.06778 0.82267 0.0
N1948 N 0.64825 0.06072 0.89007 0.0
N1949 N 0.6655 0.06737 0.84364 0.0
H1950 H 0.28967 0.31408 0.08126 0.0
H1951 H 0.30336 0.34535 0.22383 0.0
H1952 H 0.33013 0.38052 0.12504 0.0
H1953 H 0.2791 0.27256 0.18199 0.0
H1954 H 0.30785 0.35971 0.18708 0.0
H1955 H 0.28118 0.29931 0.11757 0.0
C1956 C 0.29698 0.32542 0.09846 0.0
C1957 C 0.31071 0.34852 0.10017 0.0
C1958 C 0.30121 0.34061 0.18595 0.0
C1959 C 0.30076 0.33199 0.14154 0.0
C1960 C 0.2985 0.33238 0.20694 0.0
C1961 C 0.29069 0.30763 0.2061 0.0
C1962 C 0.29599 0.32402 0.1639 0.0
C1963 C 0.28472 0.29177 0.18364 0.0
C1964 C 0.29202 0.31705 0.11913 0.0
C1965 C 0.3195 0.3626 0.12289 0.0
N1966 N 0.28762 0.30022 0.16338 0.0
N1967 N 0.31432 0.35413 0.14268 0.0
H1968 H 0.28812 1.00033 0.02158 0.0
H1969 H 0.16149 0.99676 0.02638 0.0
H1970 H 0.23554 0.93641 0.99378 0.0
H1971 H 0.21489 0.05987 0.05324 0.0
H1972 H 0.18732 0.97747 0.00344 0.0
H1973 H 0.26114 0.02492 0.02243 0.0
C1974 C 0.27087 0.99149 0.01533 0.0
C1975 C 0.26381 0.96626 0.00831 0.0
C1976 C 0.19327 0.99578 0.01383 0.0
C1977 C 0.23284 0.99431 0.00936 0.0
C1978 C 0.17856 0.00673 0.02686 0.0
C1979 C 0.18645 0.0295 0.04206 0.0
C1980 C 0.21587 0.00778 0.01634 0.0
C1981 C 0.2085 0.04195 0.04212 0.0
C1982 C 0.25547 0.00558 0.0157 0.0
C1983 C 0.24144 0.95579 0.99999 0.0
N1984 N 0.22262 0.03073 0.02975 0.0
N1985 N 0.22657 0.96989 1.00117 0.0
H1986 H 0.71194 0.68023 0.01401 0.0
H1987 H 0.63123 0.54707 0.97882 0.0
H1988 H 0.73269 0.61823 0.97591 0.0
H1989 H 0.61645 0.60837 0.02576 0.0
H1990 H 0.66714 0.57293 0.97413 0.0
H1991 H 0.67525 0.6543 0.01488 0.0
C1992 C 0.70868 0.66122 0.00556 0.0
C1993 C 0.72537 0.65138 0.99489 0.0
C1994 C 0.65592 0.58062 0.98539 0.0
C1995 C 0.6834 0.62147 0.99586 0.0
C1996 C 0.6354 0.56584 0.98807 0.0
C1997 C 0.6207 0.57536 0.00281 0.0
C1998 C 0.66164 0.6051 0.99739 0.0
C1999 C 0.62709 0.6 0.01422 0.0
C2000 C 0.68776 0.64635 0.00616 0.0
C2001 C 0.72028 0.62653 0.9844 0.0
N2002 N 0.64697 0.61388 0.01129 0.0
N2003 N 0.69976 0.61241 0.98517 0.0
H2004 H 0.74829 0.45537 0.25272 0.0
H2005 H 0.74953 0.3313 0.29679 0.0
H2006 H 0.69014 0.4124 0.27407 0.0
H2007 H 0.79533 0.35468 0.24798 0.0
H2008 H 0.73022 0.36277 0.29188 0.0
H2009 H 0.76781 0.42271 0.25444 0.0
C2010 C 0.73941 0.43919 0.25777 0.0
C2011 C 0.71704 0.43739 0.26319 0.0
C2012 C 0.74463 0.36139 0.28234 0.0
C2013 C 0.74023 0.3988 0.26561 0.0
C2014 C 0.75597 0.34309 0.28513 0.0
C2015 C 0.77502 0.33973 0.27332 0.0
C2016 C 0.75217 0.37795 0.26797 0.0
C2017 C 0.78147 0.35622 0.25824 0.0
C2018 C 0.75076 0.42026 0.25869 0.0
C2019 C 0.70714 0.41534 0.26964 0.0
N2020 N 0.7705 0.37445 0.25638 0.0
N2021 N 0.71863 0.39753 0.27085 0.0
H2022 H 0.89284 0.5151 0.49323 0.0
H2023 H 0.99694 0.46472 0.522 0.0
H2024 H 0.88955 0.4673 0.54245 0.0
H2025 H 0.00191 0.53869 0.51719 0.0
H2026 H 0.95629 0.45984 0.52297 0.0
H2027 H 0.93308 0.51957 0.4954 0.0
C2028 C 0.9006 0.50603 0.5049 0.0
C2029 C 0.88786 0.4907 0.51752 0.0
C2030 C 0.96659 0.47703 0.52145 0.0
C2031 C 0.93342 0.49509 0.51943 0.0
C2032 C 0.98955 0.47972 0.52067 0.0
C2033 C 0.00277 0.50197 0.51857 0.0
C2034 C 0.95723 0.49667 0.5198 0.0
C2035 C 0.99257 0.52111 0.5179 0.0
C2036 C 0.92345 0.50834 0.50591 0.0
C2037 C 0.89878 0.47914 0.53223 0.0
N2038 N 0.97045 0.51798 0.51816 0.0
N2039 N 0.92102 0.48127 0.53252 0.0
H2040 H 0.41435 0.12676 0.30566 0.0
H2041 H 0.3009 0.15974 0.27151 0.0
H2042 H 0.35302 0.09639 0.3321 0.0
H2043 H 0.34975 0.14806 0.22249 0.0
H2044 H 0.32405 0.15029 0.30265 0.0
H2045 H 0.39483 0.15041 0.28531 0.0
C2046 C 0.39705 0.12614 0.30834 0.0
C2047 C 0.38504 0.10951 0.32027 0.0
C2048 C 0.32966 0.15003 0.2851 0.0
C2049 C 0.36292 0.13622 0.29712 0.0
C2050 C 0.31655 0.15528 0.26739 0.0
C2051 C 0.32352 0.15453 0.24448 0.0
C2052 C 0.34989 0.14435 0.27985 0.0
C2053 C 0.34378 0.14856 0.23989 0.0
C2054 C 0.38591 0.13933 0.29641 0.0
C2055 C 0.36264 0.10897 0.32285 0.0
N2056 N 0.35636 0.14367 0.25752 0.0
N2057 N 0.35207 0.12192 0.31093 0.0
H2058 H 0.35692 0.14685 0.48231 0.0
H2059 H 0.40448 0.0704 0.55255 0.0
H2060 H 0.35586 0.15942 0.55874 0.0
H2061 H 0.45933 0.11895 0.53118 0.0
H2062 H 0.37917 0.09317 0.5393 0.0
H2063 H 0.38976 0.1295 0.48638 0.0
C2064 C 0.36407 0.1467 0.49992 0.0
C2065 C 0.35362 0.15401 0.52025 0.0
C2066 C 0.39673 0.09848 0.53715 0.0
C2067 C 0.39044 0.13467 0.52485 0.0
C2068 C 0.41116 0.0857 0.54485 0.0
C2069 C 0.43404 0.09317 0.54348 0.0
C2070 C 0.40518 0.11877 0.52794 0.0
C2071 C 0.44175 0.11276 0.53269 0.0
C2072 C 0.38266 0.13689 0.50218 0.0
C2073 C 0.36326 0.15346 0.54267 0.0
N2074 N 0.42731 0.1253 0.52562 0.0
N2075 N 0.3809 0.14347 0.54434 0.0
H2076 H 0.74465 0.58286 0.27726 0.0
H2077 H 0.74169 0.72212 0.27762 0.0
H2078 H 0.68536 0.60878 0.26706 0.0
H2079 H 0.80351 0.69965 0.27882 0.0
H2080 H 0.72171 0.6806 0.27622 0.0
H2081 H 0.76718 0.62459 0.28014 0.0
C2082 C 0.73626 0.59705 0.27563 0.0
C2083 C 0.71274 0.59165 0.27193 0.0
C2084 C 0.73969 0.68462 0.27687 0.0
C2085 C 0.73871 0.64001 0.27526 0.0
C2086 C 0.75127 0.70863 0.27769 0.0
C2087 C 0.77468 0.71508 0.27829 0.0
C2088 C 0.75127 0.6662 0.27677 0.0
C2089 C 0.78565 0.69609 0.27844 0.0
C2090 C 0.7492 0.62102 0.27727 0.0
C2091 C 0.70324 0.61138 0.27 0.0
N2092 N 0.77399 0.67279 0.27768 0.0
N2093 N 0.71603 0.63415 0.27169 0.0
H2094 H 0.918 0.45057 0.79397 0.0
H2095 H 0.79851 0.36239 0.76695 0.0
H2096 H 0.8579 0.4751 0.78356 0.0
H2097 H 0.85915 0.34151 0.78403 0.0
H2098 H 0.81853 0.40505 0.77956 0.0
H2099 H 0.89561 0.4115 0.79671 0.0
C2100 C 0.90001 0.44745 0.79179 0.0
C2101 C 0.88959 0.46549 0.78765 0.0
C2102 C 0.82732 0.39113 0.78102 0.0
C2103 C 0.86391 0.42119 0.79093 0.0
C2104 C 0.81596 0.36702 0.7738 0.0
C2105 C 0.82741 0.34907 0.775 0.0
C2106 C 0.85027 0.39674 0.78844 0.0
C2107 C 0.84993 0.35526 0.78338 0.0
C2108 C 0.88723 0.42535 0.79376 0.0
C2109 C 0.86635 0.4612 0.78614 0.0
N2110 N 0.86073 0.37872 0.78973 0.0
N2111 N 0.85416 0.43919 0.78738 0.0
H2112 H 0.09125 0.90084 0.11006 0.0
H2113 H 0.069 0.95923 0.99757 0.0
H2114 H 0.08844 0.86196 0.03727 0.0
H2115 H 0.07124 0.99561 0.07097 0.0
H2116 H 0.07406 0.92277 0.01093 0.0
H2117 H 0.08281 0.9349 0.09552 0.0
C2118 C 0.08888 0.89938 0.09095 0.0
C2119 C 0.09068 0.87826 0.07497 0.0
C2120 C 0.07317 0.9386 0.02413 0.0
C2121 C 0.08071 0.91778 0.05795 0.0
C2122 C 0.07011 0.95936 0.01648 0.0
C2123 C 0.06915 0.98032 0.03314 0.0
C2124 C 0.0758 0.9389 0.04873 0.0
C2125 C 0.07133 0.97969 0.05747 0.0
C2126 C 0.08398 0.91896 0.08263 0.0
C2127 C 0.08737 0.87778 0.05036 0.0
N2128 N 0.07458 0.95947 0.06447 0.0
N2129 N 0.08257 0.89715 0.04265 0.0
H2130 H 0.94075 0.27935 0.91346 0.0
H2131 H 0.85832 0.2426 0.79128 0.0
H2132 H 0.95404 0.23801 0.84713 0.0
H2133 H 0.85088 0.29717 0.85103 0.0
H2134 H 0.89064 0.23684 0.8136 0.0
H2135 H 0.90501 0.28165 0.89359 0.0
C2136 C 0.93583 0.27003 0.89498 0.0
C2137 C 0.9503 0.25803 0.8821 0.0
C2138 C 0.88206 0.25019 0.8219 0.0
C2139 C 0.90961 0.26107 0.85902 0.0
C2140 C 0.8637 0.2538 0.80887 0.0
C2141 C 0.85225 0.27123 0.81856 0.0
C2142 C 0.88909 0.26374 0.84532 0.0
C2143 C 0.85929 0.28382 0.84242 0.0
C2144 C 0.91556 0.27167 0.88353 0.0
C2145 C 0.94333 0.24711 0.8579 0.0
N2146 N 0.87725 0.27997 0.85487 0.0
N2147 N 0.92367 0.24891 0.84726 0.0
H2148 H 0.60367 0.23372 0.54816 0.0
H2149 H 0.5658 0.1001 0.57168 0.0
H2150 H 0.56877 0.21557 0.60729 0.0
H2151 H 0.56943 0.11029 0.4997 0.0
H2152 H 0.57538 0.14405 0.58637 0.0
H2153 H 0.59773 0.18992 0.53047 0.0
C2154 C 0.59447 0.22064 0.55718 0.0
C2155 C 0.58686 0.22834 0.57936 0.0
C2156 C 0.57442 0.13674 0.56736 0.0
C2157 C 0.58056 0.17863 0.55968 0.0
C2158 C 0.56921 0.11168 0.55905 0.0
C2159 C 0.56715 0.10169 0.53453 0.0
C2160 C 0.57757 0.15203 0.55106 0.0
C2161 C 0.57111 0.11746 0.51879 0.0
C2162 C 0.59126 0.19571 0.54721 0.0
C2163 C 0.57526 0.21055 0.59039 0.0
N2164 N 0.57618 0.14191 0.5273 0.0
N2165 N 0.57266 0.18673 0.5806 0.0
H2166 H 0.56083 0.7452 0.36419 0.0
H2167 H 0.69169 0.80119 0.36482 0.0
H2168 H 0.6038 0.7799 0.42928 0.0
H2169 H 0.64519 0.77178 0.30158 0.0
H2170 H 0.66144 0.78923 0.38933 0.0
H2171 H 0.59301 0.75058 0.34167 0.0
C2172 C 0.57709 0.75385 0.3738 0.0
C2173 C 0.57951 0.76229 0.39868 0.0
C2174 C 0.65796 0.78515 0.37007 0.0
C2175 C 0.61677 0.76867 0.3728 0.0
C2176 C 0.67524 0.7918 0.3561 0.0
C2177 C 0.67087 0.78756 0.33115 0.0
C2178 C 0.63627 0.77405 0.35892 0.0
C2179 C 0.64923 0.77556 0.32076 0.0
C2180 C 0.59554 0.75695 0.36089 0.0
C2181 C 0.60111 0.77324 0.4101 0.0
N2182 N 0.63282 0.76937 0.33463 0.0
N2183 N 0.61889 0.77627 0.39707 0.0
H2184 H 0.11444 0.29371 0.46871 0.0
H2185 H 0.06275 0.15606 0.47215 0.0
H2186 H 0.09891 0.23536 0.40611 0.0
H2187 H 0.07003 0.21587 0.53262 0.0
H2188 H 0.08036 0.18413 0.44862 0.0
H2189 H 0.1027 0.26455 0.49342 0.0
C2190 C 0.10881 0.27471 0.46023 0.0
C2191 C 0.10741 0.26687 0.4354 0.0
C2192 C 0.07813 0.1911 0.46705 0.0
C2193 C 0.09394 0.23356 0.4634 0.0
C2194 C 0.06817 0.1751 0.48052 0.0
C2195 C 0.06485 0.18374 0.50436 0.0
C2196 C 0.08474 0.21587 0.4775 0.0
C2197 C 0.07196 0.20856 0.51421 0.0
C2198 C 0.10203 0.25811 0.4743 0.0
C2199 C 0.09997 0.24212 0.42523 0.0
N2200 N 0.08154 0.22379 0.5007 0.0
N2201 N 0.0934 0.22629 0.4393 0.0
H2202 H 0.57318 0.28841 0.20094 0.0
H2203 H 0.65362 0.20298 0.21136 0.0
H2204 H 0.574 0.22834 0.14328 0.0
H2205 H 0.66695 0.27644 0.25183 0.0
H2206 H 0.62478 0.21157 0.18529 0.0
H2207 H 0.60845 0.28486 0.21898 0.0
C2208 C 0.58107 0.27473 0.19189 0.0
C2209 C 0.57071 0.25847 0.17082 0.0
C2210 C 0.63415 0.22582 0.19978 0.0
C2211 C 0.61074 0.25396 0.19151 0.0
C2212 C 0.65026 0.22082 0.21473 0.0
C2213 C 0.66195 0.23891 0.23391 0.0
C2214 C 0.62974 0.24893 0.20447 0.0
C2215 C 0.65776 0.26197 0.23741 0.0
C2216 C 0.6012 0.27272 0.20214 0.0
C2217 C 0.58155 0.24114 0.15964 0.0
N2218 N 0.64177 0.26628 0.22297 0.0
N2219 N 0.6009 0.23899 0.17043 0.0
H2220 H 0.6399 0.88943 0.94983 0.0
H2221 H 0.5824 0.99835 0.95019 0.0
H2222 H 0.63269 0.92183 0.88933 0.0
H2223 H 0.58534 0.96256 0.00887 0.0
H2224 H 0.60609 0.97462 0.92982 0.0
H2225 H 0.62842 0.92269 0.97503 0.0
C2226 C 0.63663 0.90399 0.94204 0.0
C2227 C 0.63653 0.90258 0.91739 0.0
C2228 C 0.60176 0.9721 0.94728 0.0
C2229 C 0.62282 0.94002 0.94576 0.0
C2230 C 0.58788 0.98534 0.95879 0.0
C2231 C 0.58207 0.98259 0.98149 0.0
C2232 C 0.60978 0.95585 0.95846 0.0
C2233 C 0.58994 0.96575 0.99181 0.0
C2234 C 0.62985 0.92281 0.95636 0.0
C2235 C 0.63261 0.92205 0.90821 0.0
N2236 N 0.60341 0.95292 0.98017 0.0
N2237 N 0.62526 0.93971 0.92232 0.0
H2238 H 0.94057 0.76279 0.67807 0.0
H2239 H 0.86745 0.76416 0.78771 0.0
H2240 H 0.95992 0.74132 0.74252 0.0
H2241 H 0.84286 0.76562 0.71647 0.0
H2242 H 0.90376 0.76121 0.77361 0.0
H2243 H 0.90626 0.76869 0.69387 0.0
C2244 C 0.93766 0.75945 0.69565 0.0
C2245 C 0.95325 0.75196 0.70925 0.0
C2246 C 0.89046 0.76247 0.76118 0.0
C2247 C 0.91398 0.7586 0.72732 0.0
C2248 C 0.86999 0.7643 0.76924 0.0
C2249 C 0.85281 0.76577 0.7532 0.0
C2250 C 0.89324 0.76182 0.73699 0.0
C2251 C 0.8562 0.76524 0.72934 0.0
C2252 C 0.91803 0.76276 0.7046 0.0
C2253 C 0.94842 0.74744 0.73166 0.0
N2254 N 0.87614 0.76336 0.7219 0.0
N2255 N 0.92912 0.75093 0.74011 0.0
H2256 H 0.15945 1.00135 0.855 0.0
H2257 H 0.05813 0.02727 0.93384 0.0
H2258 H 0.10448 0.02791 0.83054 0.0
H2259 H 0.11964 0.02028 0.96729 0.0
H2260 H 0.07366 0.02283 0.89524 0.0
H2261 H 0.1445 1.00327 0.89445 0.0
C2262 C 0.14428 0.00746 0.85761 0.0
C2263 C 0.13356 0.01452 0.83864 0.0
C2264 C 0.08384 0.02203 0.91089 0.0
C2265 C 0.11594 0.01674 0.88473 0.0
C2266 C 0.07479 0.02437 0.93321 0.0
C2267 C 0.08719 0.02391 0.9545 0.0
C2268 C 0.10572 0.01878 0.90896 0.0
C2269 C 0.10912 0.02078 0.95177 0.0
C2270 C 0.13571 0.00867 0.88041 0.0
C2271 C 0.11378 0.02227 0.844 0.0
N2272 N 0.11747 0.01821 0.92977 0.0
N2273 N 0.10584 0.02306 0.86596 0.0
H2274 H 0.81654 0.42507 0.59778 0.0
H2275 H 0.85242 0.31008 0.62918 0.0
H2276 H 0.83933 0.37147 0.54817 0.0
H2277 H 0.8453 0.37003 0.68356 0.0
H2278 H 0.83998 0.32935 0.59858 0.0
H2279 H 0.82112 0.40293 0.62925 0.0
C2280 C 0.82252 0.4087 0.59359 0.0
C2281 C 0.8274 0.39986 0.57044 0.0
C2282 C 0.84091 0.33826 0.61719 0.0
C2283 C 0.83252 0.37471 0.60587 0.0
C2284 C 0.84784 0.32719 0.63454 0.0
C2285 C 0.84994 0.33876 0.65858 0.0
C2286 C 0.83639 0.36116 0.62407 0.0
C2287 C 0.84386 0.3608 0.66499 0.0
C2288 C 0.82503 0.39609 0.61143 0.0
C2289 C 0.83506 0.37864 0.56574 0.0
N2290 N 0.83756 0.37158 0.6477 0.0
N2291 N 0.83742 0.36682 0.58334 0.0
H2292 H 0.45177 0.99579 0.36001 0.0
H2293 H 0.5337 0.07841 0.46976 0.0
H2294 H 0.45329 0.07116 0.38572 0.0
H2295 H 0.53584 0.00629 0.43457 0.0
H2296 H 0.4999 0.07507 0.444 0.0
H2297 H 0.47433 0.99642 0.39636 0.0
C2298 C 0.45645 0.01228 0.37378 0.0
C2299 C 0.4519 0.03375 0.36992 0.0
C2300 C 0.50804 0.06018 0.44157 0.0
C2301 C 0.47833 0.03506 0.4101 0.0
C2302 C 0.52769 0.06245 0.45555 0.0
C2303 C 0.53735 0.04266 0.45373 0.0
C2304 C 0.49863 0.03815 0.42558 0.0
C2305 C 0.52886 0.02199 0.43591 0.0
C2306 C 0.46938 0.01274 0.39432 0.0
C2307 C 0.45736 0.05453 0.38815 0.0
N2308 N 0.50963 0.02009 0.42262 0.0
N2309 N 0.47117 0.05498 0.4074 0.0
H2310 H 0.82952 0.74567 0.0897 0.0
H2311 H 0.7779 0.72736 0.20122 0.0
H2312 H 0.75853 0.71765 0.08509 0.0
H2313 H 0.81433 0.8008 0.20669 0.0
H2314 H 0.77432 0.72127 0.15779 0.0
H2315 H 0.82908 0.76564 0.13192 0.0
C2316 C 0.8138 0.74452 0.09731 0.0
C2317 C 0.79402 0.7299 0.08419 0.0
C2318 C 0.78267 0.73891 0.16849 0.0
C2319 C 0.79346 0.75219 0.13175 0.0
C2320 C 0.78445 0.74245 0.19319 0.0
C2321 C 0.79537 0.76491 0.20739 0.0
C2322 C 0.79315 0.75749 0.15785 0.0
C2323 C 0.80491 0.78352 0.19617 0.0
C2324 C 0.81356 0.75586 0.12126 0.0
C2325 C 0.77412 0.72856 0.09481 0.0
N2326 N 0.80402 0.77926 0.17186 0.0
N2327 N 0.7744 0.73912 0.1181 0.0
H2328 H 0.1072 0.99712 0.69901 0.0
H2329 H 0.12794 0.0401 0.57359 0.0
H2330 H 0.17159 0.01852 0.67488 0.0
H2331 H 0.06169 0.01923 0.59339 0.0
H2332 H 0.14314 0.03345 0.61132 0.0
H2333 H 0.08982 0.00514 0.66239 0.0
C2334 C 0.11784 1.00345 0.68617 0.0
C2335 C 0.14127 0.00691 0.69071 0.0
C2336 C 0.12526 0.03039 0.60776 0.0
C2337 C 0.12093 0.0166 0.64773 0.0
C2338 C 0.11642 0.03438 0.58597 0.0
C2339 C 0.09327 0.03063 0.5797 0.0
C2340 C 0.11116 0.02206 0.62429 0.0
C2341 C 0.07961 0.02289 0.59706 0.0
C2342 C 0.10776 0.00812 0.66504 0.0
C2343 C 0.15362 0.0153 0.67276 0.0
N2344 N 0.08865 0.0188 0.61816 0.0
N2345 N 0.14349 0.01974 0.65261 0.0
H2346 H 0.79518 0.38638 0.42686 0.0
H2347 H 0.86179 0.33043 0.33551 0.0
H2348 H 0.86656 0.4066 0.44312 0.0
H2349 H 0.80277 0.287 0.35543 0.0
H2350 H 0.86694 0.35755 0.37468 0.0
H2351 H 0.79854 0.3504 0.39824 0.0
C2352 C 0.81156 0.38329 0.42397 0.0
C2353 C 0.83066 0.39933 0.43664 0.0
C2354 C 0.85324 0.34165 0.37068 0.0
C2355 C 0.83466 0.3584 0.40484 0.0
C2356 C 0.85018 0.32619 0.34831 0.0
C2357 C 0.83088 0.30735 0.34172 0.0
C2358 C 0.83672 0.3382 0.38609 0.0
C2359 C 0.81705 0.3021 0.35929 0.0
C2360 C 0.81347 0.36264 0.40817 0.0
C2361 C 0.85158 0.39456 0.4331 0.0
N2362 N 0.81974 0.31804 0.38052 0.0
N2363 N 0.85313 0.37454 0.41706 0.0
H2364 H 0.46642 0.07934 0.25218 0.0
H2365 H 0.48455 0.97528 0.1512 0.0
H2366 H 0.41269 0.0173 0.22219 0.0
H2367 H 0.52125 0.04919 0.15956 0.0
H2368 H 0.45793 0.98942 0.17746 0.0
H2369 H 0.48695 0.06839 0.21833 0.0
C2370 C 0.45879 0.06371 0.23813 0.0
C2371 C 0.43793 0.04922 0.2398 0.0
C2372 C 0.47171 1.0025 0.17331 0.0
C2373 C 0.46142 0.03621 0.20154 0.0
C2374 C 0.48696 0.99444 0.15866 0.0
C2375 C 0.50519 0.01114 0.15371 0.0
C2376 C 0.47513 0.0273 0.18331 0.0
C2377 C 0.50746 0.0358 0.16321 0.0
C2378 C 0.47046 0.05745 0.21886 0.0
C2379 C 0.42872 0.02901 0.22134 0.0
N2380 N 0.49275 0.04314 0.17785 0.0
N2381 N 0.44076 0.02278 0.20307 0.0
H2382 H 0.81909 0.75886 0.95624 0.0
H2383 H 0.79897 0.71822 0.81376 0.0
H2384 H 0.7941 0.68513 0.91707 0.0
H2385 H 0.82636 0.79177 0.85193 0.0
H2386 H 0.79871 0.70567 0.85167 0.0
H2387 H 0.82373 0.77149 0.91818 0.0
C2388 C 0.81458 0.74539 0.93966 0.0
C2389 C 0.80622 0.72095 0.93973 0.0
C2390 C 0.80522 0.72456 0.85169 0.0
C2391 C 0.81132 0.73512 0.89641 0.0
C2392 C 0.80541 0.73175 0.83 0.0
C2393 C 0.81313 0.75619 0.82943 0.0
C2394 C 0.8128 0.7419 0.87303 0.0
C2395 C 0.821 0.77281 0.85116 0.0
C2396 C 0.81728 0.75255 0.91799 0.0
C2397 C 0.80074 0.70415 0.91782 0.0
N2398 N 0.82057 0.7654 0.87208 0.0
N2399 N 0.80328 0.71157 0.89706 0.0
H2400 H 0.83266 0.06679 0.05706 0.0
H2401 H 0.9358 0.0898 0.9861 0.0
H2402 H 0.85668 0.13332 0.03399 0.0
H2403 H 0.92274 0.03224 0.02417 0.0
H2404 H 0.91056 0.10948 0.00933 0.0
H2405 H 0.86868 0.05706 0.05164 0.0
C2406 C 0.84566 0.07959 0.05137 0.0
C2407 C 0.84152 0.10052 0.04527 0.0
C2408 C 0.91355 0.09285 0.0131 0.0
C2409 C 0.88254 0.08949 0.03892 0.0
C2410 C 0.92791 0.08167 0.99981 0.0
C2411 C 0.93099 0.05942 0.00323 0.0
C2412 C 0.90181 0.08129 0.02942 0.0
C2413 C 0.92059 0.04944 0.02112 0.0
C2414 C 0.86624 0.07405 0.04831 0.0
C2415 C 0.859 0.11665 0.03829 0.0
N2416 N 0.90599 0.06022 0.03327 0.0
N2417 N 0.87863 0.11055 0.03485 0.0
H2418 H 0.3957 0.42065 0.06258 0.0
H2419 H 0.48383 0.52352 0.02236 0.0
H2420 H 0.38365 0.45239 0.0027 0.0
H2421 H 0.50669 0.47224 0.05632 0.0
H2422 H 0.4455 0.50129 0.02191 0.0
H2423 H 0.43535 0.44215 0.0665 0.0
C2424 C 0.40137 0.43193 0.0502 0.0
C2425 C 0.38626 0.43491 0.03243 0.0
C2426 C 0.45882 0.49497 0.02976 0.0
C2427 C 0.43118 0.45949 0.03696 0.0
C2428 C 0.48067 0.50786 0.0303 0.0
C2429 C 0.49828 0.49991 0.03979 0.0
C2430 C 0.45442 0.47397 0.03896 0.0
C2431 C 0.49339 0.47895 0.04903 0.0
C2432 C 0.42392 0.44416 0.05247 0.0
C2433 C 0.3945 0.44979 0.01692 0.0
N2434 N 0.4718 0.46667 0.04853 0.0
N2435 N 0.41625 0.46155 0.01964 0.0
H2436 H 0.42078 0.66489 0.79834 0.0
H2437 H 0.32793 0.71489 0.73042 0.0
H2438 H 0.36968 0.61667 0.74622 0.0
H2439 H 0.35838 0.75174 0.80079 0.0
H2440 H 0.34417 0.68046 0.73399 0.0
H2441 H 0.40114 0.69758 0.79746 0.0
C2442 C 0.40546 0.66089 0.78665 0.0
C2443 C 0.39729 0.63713 0.77243 0.0
C2444 C 0.34695 0.6957 0.74904 0.0
C2445 C 0.37413 0.67602 0.77099 0.0
C2446 C 0.33698 0.71543 0.74727 0.0
C2447 C 0.33953 0.7361 0.76616 0.0
C2448 C 0.36148 0.69655 0.76932 0.0
C2449 C 0.35417 0.73597 0.78622 0.0
C2450 C 0.39407 0.67988 0.78621 0.0
C2451 C 0.37709 0.63415 0.75772 0.0
N2452 N 0.36442 0.71706 0.78714 0.0
N2453 N 0.36664 0.65296 0.75727 0.0
H2454 H 0.21282 0.61936 0.4776 0.0
H2455 H 0.11429 0.54179 0.53168 0.0
H2456 H 0.22331 0.57118 0.52303 0.0
H2457 H 0.11111 0.60637 0.50682 0.0
H2458 H 0.15217 0.54585 0.52149 0.0
H2459 H 0.17264 0.60571 0.47815 0.0
C2460 C 0.20651 0.60542 0.48717 0.0
C2461 C 0.22106 0.59647 0.50051 0.0
C2462 C 0.14318 0.55917 0.51838 0.0
C2463 C 0.1757 0.58169 0.50206 0.0
C2464 C 0.12164 0.55713 0.52465 0.0
C2465 C 0.10959 0.57407 0.52078 0.0
C2466 C 0.15259 0.57808 0.50771 0.0
C2467 C 0.11989 0.59314 0.51065 0.0
C2468 C 0.18372 0.59784 0.48767 0.0
C2469 C 0.2124 0.57839 0.51253 0.0
N2470 N 0.14081 0.59456 0.50433 0.0
N2471 N 0.19011 0.57189 0.51346 0.0
H2472 H 0.70608 0.94633 0.72209 0.0
H2473 H 0.8114 0.95155 0.80504 0.0
H2474 H 0.76687 1.00164 0.7287 0.0
H2475 H 0.7621 0.88483 0.77789 0.0
H2476 H 0.79566 0.96945 0.77511 0.0
H2477 H 0.72711 0.92115 0.73825 0.0
C2478 C 0.72396 0.95282 0.72623 0.0
C2479 C 0.73473 0.97628 0.72489 0.0
C2480 C 0.78845 0.95079 0.77548 0.0
C2481 C 0.75856 0.94808 0.74363 0.0
C2482 C 0.79718 0.94079 0.79275 0.0
C2483 C 0.78771 0.91696 0.79392 0.0
C2484 C 0.76998 0.93685 0.75961 0.0
C2485 C 0.76965 0.90339 0.77745 0.0
C2486 C 0.73593 0.93852 0.73551 0.0
C2487 C 0.7579 0.9838 0.73003 0.0
N2488 N 0.76112 0.91367 0.76105 0.0
N2489 N 0.76903 0.96995 0.73987 0.0
H2490 H 0.76981 0.94141 0.56339 0.0
H2491 H 0.67249 0.94984 0.47366 0.0
H2492 H 0.73601 0.88049 0.5076 0.0
H2493 H 0.68834 0.99577 0.54426 0.0
H2494 H 0.6959 0.92416 0.4853 0.0
H2495 H 0.74012 0.96174 0.55683 0.0
C2496 C 0.75593 0.9322 0.54999 0.0
C2497 C 0.75537 0.90938 0.53587 0.0
C2498 C 0.69399 0.93966 0.49833 0.0
C2499 C 0.72166 0.9326 0.52801 0.0
C2500 C 0.6808 0.95433 0.49166 0.0
C2501 C 0.67865 0.97486 0.50806 0.0
C2502 C 0.70541 0.94593 0.52138 0.0
C2503 C 0.68957 0.97997 0.53119 0.0
C2504 C 0.739 0.94376 0.54629 0.0
C2505 C 0.73702 0.89811 0.51883 0.0
N2506 N 0.70275 0.96576 0.5371 0.0
N2507 N 0.72103 0.91005 0.51506 0.0
H2508 H 0.4292 0.4657 0.76428 0.0
H2509 H 0.30854 0.37457 0.75763 0.0
H2510 H 0.3692 0.49188 0.76451 0.0
H2511 H 0.3713 0.35585 0.76908 0.0
H2512 H 0.32889 0.4163 0.7581 0.0
H2513 H 0.40731 0.42548 0.7641 0.0
C2514 C 0.41133 0.46319 0.76421 0.0
C2515 C 0.40139 0.48295 0.76431 0.0
C2516 C 0.33822 0.40306 0.76047 0.0
C2517 C 0.37543 0.43523 0.764 0.0
C2518 C 0.32653 0.37898 0.76013 0.0
C2519 C 0.3379 0.361 0.76323 0.0
C2520 C 0.36173 0.40965 0.76374 0.0
C2521 C 0.36143 0.36855 0.76651 0.0
C2522 C 0.39872 0.43984 0.76416 0.0
C2523 C 0.37794 0.47765 0.76442 0.0
N2524 N 0.3723 0.39187 0.76658 0.0
N2525 N 0.36588 0.4545 0.76414 0.0
H2526 H 0.22828 0.61758 0.20234 0.0
H2527 H 0.31708 0.72403 0.28524 0.0
H2528 H 0.25912 0.60692 0.26738 0.0
H2529 H 0.25133 0.72305 0.25528 0.0
H2530 H 0.31095 0.68061 0.26632 0.0
H2531 H 0.25584 0.65527 0.20649 0.0
C2532 C 0.24128 0.62302 0.21718 0.0
C2533 C 0.24094 0.6103 0.23537 0.0
C2534 C 0.29827 0.69028 0.26353 0.0
C2535 C 0.27212 0.65288 0.24009 0.0
C2536 C 0.30157 0.71465 0.27439 0.0
C2537 C 0.28488 0.72672 0.2707 0.0
C2538 C 0.27831 0.67873 0.24912 0.0
C2539 C 0.26479 0.71422 0.25749 0.0
C2540 C 0.25727 0.64419 0.21925 0.0
C2541 C 0.25852 0.61715 0.25364 0.0
N2542 N 0.26209 0.6908 0.24692 0.0
N2543 N 0.27319 0.63873 0.2561 0.0
H2544 H 0.49468 0.67097 0.44516 0.0
H2545 H 0.56232 0.61314 0.53341 0.0
H2546 H 0.54715 0.71634 0.49786 0.0
H2547 H 0.5242 0.57495 0.46621 0.0
H2548 H 0.55435 0.65109 0.52567 0.0
H2549 H 0.50149 0.63559 0.45839 0.0
C2550 C 0.50756 0.67357 0.45967 0.0
C2551 C 0.52035 0.69683 0.47027 0.0
C2552 C 0.54775 0.63428 0.51275 0.0
C2553 C 0.52863 0.65584 0.4855 0.0
C2554 C 0.55246 0.61261 0.51708 0.0
C2555 C 0.54464 0.59065 0.50013 0.0
C2556 C 0.53433 0.63377 0.49182 0.0
C2557 C 0.53117 0.59122 0.47971 0.0
C2558 C 0.51154 0.65326 0.46721 0.0
C2559 C 0.53677 0.69882 0.48916 0.0
N2560 N 0.52647 0.61212 0.47629 0.0
N2561 N 0.54056 0.67865 0.49605 0.0
H2562 H 0.6441 0.31827 0.68254 0.0
H2563 H 0.77084 0.30534 0.69591 0.0
H2564 H 0.68594 0.31936 0.62511 0.0
H2565 H 0.72656 0.29798 0.75058 0.0
H2566 H 0.74062 0.31156 0.6702 0.0
H2567 H 0.67456 0.3124 0.70803 0.0
C2568 C 0.65974 0.31742 0.67526 0.0
C2569 C 0.66234 0.31943 0.65153 0.0
C2570 C 0.73755 0.30882 0.68792 0.0
C2571 C 0.69764 0.31261 0.68094 0.0
C2572 C 0.75486 0.30525 0.70269 0.0
C2573 C 0.75162 0.30173 0.72591 0.0
C2574 C 0.71661 0.30883 0.69622 0.0
C2575 C 0.73033 0.30157 0.73337 0.0
C2576 C 0.67718 0.31398 0.68989 0.0
C2577 C 0.68308 0.31798 0.64324 0.0
N2578 N 0.71377 0.3051 0.71868 0.0
N2579 N 0.69986 0.3147 0.65788 0.0
H2580 H 0.04605 0.34846 0.99165 0.0
H2581 H 0.02794 0.46712 0.95387 0.0
H2582 H 0.99875 0.34828 0.93357 0.0
H2583 H 0.05227 0.47024 0.02642 0.0
H2584 H 0.01741 0.42304 0.94688 0.0
H2585 H 0.04891 0.39224 0.00627 0.0
C2586 C 0.0358 0.35743 0.98242 0.0
C2587 C 0.02219 0.34475 0.96129 0.0
C2588 C 0.02472 0.43328 0.96451 0.0
C2589 C 0.02569 0.39464 0.9775 0.0
C2590 C 0.03065 0.45848 0.96848 0.0
C2591 C 0.04046 0.47242 0.99087 0.0
C2592 C 0.02952 0.42162 0.98275 0.0
C2593 C 0.04413 0.46022 0.00907 0.0
C2594 C 0.03753 0.38242 0.99065 0.0
C2595 C 0.00958 0.35737 0.9498 0.0
N2596 N 0.039 0.43551 0.00452 0.0
N2597 N 0.01182 0.38149 0.95784 0.0
H2598 H 0.03019 0.83129 0.13906 0.0
H2599 H 0.96718 0.79018 0.23941 0.0
H2600 H 0.03375 0.76457 0.1594 0.0
H2601 H 0.92031 0.78234 0.17821 0.0
H2602 H 0.99777 0.79961 0.21524 0.0
H2603 H 0.99418 0.82925 0.15645 0.0
C2604 C 0.02316 0.81598 0.14657 0.0
C2605 C 0.03511 0.79829 0.14825 0.0
C2606 C 0.98077 0.79645 0.2073 0.0
C2607 C 0.99458 0.79597 0.16788 0.0
C2608 C 0.96334 0.79102 0.22101 0.0
C2609 C 0.9412 0.78511 0.2107 0.0
C2610 C 0.97618 0.79612 0.18309 0.0
C2611 C 0.93719 0.78672 0.18677 0.0
C2612 C 0.00273 0.81486 0.15645 0.0
C2613 C 0.02535 0.77886 0.15821 0.0
N2614 N 0.9546 0.79164 0.17349 0.0
N2615 N 0.00592 0.77845 0.16799 0.0
H2616 H 0.48791 0.28815 0.07887 0.0
H2617 H 0.56117 0.41933 0.07928 0.0
H2618 H 0.51757 0.34063 0.14339 0.0
H2619 H 0.53893 0.36207 0.01647 0.0
H2620 H 0.53945 0.39386 0.10304 0.0
H2621 H 0.49952 0.31871 0.05578 0.0
C2622 C 0.49651 0.30626 0.0882 0.0
C2623 C 0.50216 0.31183 0.11295 0.0
C2624 C 0.5392 0.38696 0.08404 0.0
C2625 C 0.51588 0.34665 0.0867 0.0
C2626 C 0.55161 0.40139 0.07055 0.0
C2627 C 0.55204 0.39242 0.04607 0.0
C2628 C 0.52707 0.36359 0.0728 0.0
C2629 C 0.53936 0.36929 0.03543 0.0
C2630 C 0.50322 0.32367 0.07503 0.0
C2631 C 0.51308 0.3356 0.12425 0.0
N2632 N 0.52741 0.3556 0.04891 0.0
N2633 N 0.51998 0.35211 0.11095 0.0
H2634 H 0.03671 0.29348 0.36197 0.0
H2635 H 0.96444 0.37515 0.31577 0.0
H2636 H 0.05983 0.36805 0.35802 0.0
H2637 H 0.94358 0.29755 0.30395 0.0
H2638 H 0.99427 0.37481 0.34542 0.0
H2639 H 0.99807 0.29684 0.3543 0.0
C2640 C 0.03351 0.31063 0.36001 0.0
C2641 C 0.05108 0.33035 0.3598 0.0
C2642 C 0.983 0.35785 0.33657 0.0
C2643 C 0.00775 0.33445 0.35154 0.0
C2644 C 0.9662 0.3581 0.31961 0.0
C2645 C 0.9523 0.33632 0.3071 0.0
C2646 C 0.98623 0.33561 0.3403 0.0
C2647 C 0.9545 0.31464 0.31303 0.0
C2648 C 0.01162 0.31259 0.35573 0.0
C2649 C 0.0465 0.35232 0.35757 0.0
N2650 N 0.97161 0.31473 0.32889 0.0
N2651 N 0.02523 0.35372 0.35324 0.0
H2652 H 0.97404 0.65344 0.64632 0.0
H2653 H 0.03887 0.61717 0.53986 0.0
H2654 H 0.98226 0.6909 0.58856 0.0
H2655 H 0.01355 0.56716 0.58354 0.0
H2656 H 0.01414 0.6423 0.55554 0.0
H2657 H 0.98042 0.61759 0.62015 0.0
C2658 C 0.97631 0.65377 0.62782 0.0
C2659 C 0.97882 0.67535 0.61982 0.0
C2660 C 0.01375 0.62575 0.56163 0.0
C2661 C 0.98678 0.63511 0.59032 0.0
C2662 C 0.02808 0.61167 0.55293 0.0
C2663 C 0.02813 0.59038 0.56064 0.0
C2664 C -0.00035 0.61862 0.57847 0.0
C2665 C 0.01417 0.58387 0.57769 0.0
C2666 C 0.98009 0.63338 0.61293 0.0
C2667 C 0.98098 0.67477 0.59561 0.0
N2668 N 0.00045 0.59811 0.58622 0.0
N2669 N 0.98578 0.65514 0.58184 0.0
H2670 H 0.69028 0.83253 0.87801 0.0
H2671 H 0.73457 0.79775 0.75151 0.0
H2672 H 0.64504 0.79403 0.81534 0.0
H2673 H 0.77245 0.80996 0.82004 0.0
H2674 H 0.70139 0.80275 0.77222 0.0
H2675 H 0.7212 0.833 0.8539 0.0
C2676 C 0.68691 0.824 0.85918 0.0
C2677 C 0.66531 0.81253 0.84866 0.0
C2678 C 0.71703 0.80423 0.78254 0.0
C2679 C 0.70043 0.81282 0.82117 0.0
C2680 C 0.73569 0.80129 0.77084 0.0
C2681 C 0.75574 0.80319 0.78437 0.0
C2682 C 0.71913 0.80965 0.80764 0.0
C2683 C 0.75702 0.80821 0.80921 0.0
C2684 C 0.70451 0.82434 0.84543 0.0
C2685 C 0.66166 0.80255 0.82405 0.0
N2686 N 0.7389 0.81128 0.8201 0.0
N2687 N 0.67922 0.80261 0.81102 0.0
H2688 H 0.4418 0.54738 0.67671 0.0
H2689 H 0.55525 0.57938 0.6121 0.0
H2690 H 0.50497 0.5848 0.71658 0.0
H2691 H 0.49411 0.53236 0.57507 0.0
H2692 H 0.53733 0.58344 0.64946 0.0
H2693 H 0.46018 0.54365 0.63971 0.0
C2694 C 0.45954 0.55495 0.6779 0.0
C2695 C 0.4715 0.56652 0.7005 0.0
C2696 C 0.52772 0.57225 0.6332 0.0
C2697 C 0.49327 0.56233 0.65683 0.0
C2698 C 0.53805 0.56991 0.61153 0.0
C2699 C 0.52653 0.55545 0.5896 0.0
C2700 C 0.50526 0.56029 0.63364 0.0
C2701 C 0.50406 0.54382 0.59099 0.0
C2702 C 0.47015 0.55274 0.65647 0.0
C2703 C 0.49468 0.57571 0.70002 0.0
N2704 N 0.4944 0.54653 0.61218 0.0
N2705 N 0.50457 0.57353 0.67891 0.0
H2706 H 0.78357 0.13889 0.93581 0.0
H2707 H 0.79145 0.26434 0.89718 0.0
H2708 H 0.81441 0.20805 0.98213 0.0
H2709 H 0.74044 0.19945 0.86829 0.0
H2710 H 0.80944 0.24184 0.92112 0.0
H2711 H 0.77761 0.1593 0.9037 0.0
C2712 C 0.78975 0.15832 0.93899 0.0
C2713 C 0.79936 0.17191 0.96164 0.0
C2714 C 0.79452 0.23251 0.90922 0.0
C2715 C 0.7925 0.19521 0.92512 0.0
C2716 C 0.78434 0.24524 0.89558 0.0
C2717 C 0.76435 0.23365 0.88115 0.0
C2718 C 0.7847 0.20809 0.90805 0.0
C2719 C 0.75567 0.20899 0.87957 0.0
C2720 C 0.7862 0.16992 0.92071 0.0
C2721 C 0.80679 0.19702 0.96491 0.0
N2722 N 0.76584 0.197 0.89305 0.0
N2723 N 0.80299 0.20797 0.94684 0.0
H2724 H 0.14354 0.55975 0.1873 0.0
H2725 H 0.1005 0.49232 0.05372 0.0
H2726 H 0.18143 0.51866 0.14208 0.0
H2727 H 0.062 0.5287 0.10235 0.0
H2728 H 0.12987 0.49947 0.08617 0.0
H2729 H 0.11456 0.55112 0.15447 0.0
C2730 C 0.14586 0.54934 0.17014 0.0
C2731 C 0.16422 0.53916 0.16713 0.0
C2732 C 0.11469 0.50522 0.08992 0.0
C2733 C 0.13121 0.5284 0.13031 0.0
C2734 C 0.09781 0.5006 0.07164 0.0
C2735 C 0.07923 0.51018 0.07575 0.0
C2736 C 0.11249 0.51936 0.11204 0.0
C2737 C 0.07614 0.52098 0.0988 0.0
C2738 C 0.12926 0.54411 0.15159 0.0
C2739 C 0.1671 0.52636 0.14478 0.0
N2740 N 0.09304 0.52588 0.11621 0.0
N2741 N 0.15031 0.52078 0.12707 0.0
H2742 H 0.78349 0.82149 0.44961 0.0
H2743 H 0.83179 0.85132 0.33921 0.0
H2744 H 0.84912 0.86815 0.4565 0.0
H2745 H 0.8046 0.77558 0.33539 0.0
H2746 H 0.83678 0.85827 0.38266 0.0
H2747 H 0.78849 0.80332 0.40819 0.0
C2748 C 0.79919 0.82725 0.4426 0.0
C2749 C 0.81601 0.84614 0.45617 0.0
C2750 C 0.83027 0.84 0.37234 0.0
C2751 C 0.82157 0.82617 0.4094 0.0
C2752 C 0.8275 0.83605 0.34763 0.0
C2753 C 0.81842 0.8128 0.3339 0.0
C2754 C 0.82268 0.8208 0.38344 0.0
C2755 C 0.81227 0.79366 0.34553 0.0
C2756 C 0.80205 0.81692 0.41914 0.0
C2757 C 0.83588 0.8535 0.44642 0.0
N2758 N 0.81399 0.79817 0.36985 0.0
N2759 N 0.83796 0.84384 0.4234 0.0
H2760 H 0.47651 0.52152 0.83804 0.0
H2761 H 0.52972 0.58187 0.97508 0.0
H2762 H 0.48773 0.59805 0.86599 0.0
H2763 H 0.52716 0.50865 0.94025 0.0
H2764 H 0.51462 0.58875 0.93726 0.0
H2765 H 0.49289 0.51692 0.87616 0.0
C2766 C 0.48205 0.53749 0.85229 0.0
C2767 C 0.47993 0.56019 0.84818 0.0
C2768 C 0.51728 0.57105 0.9378 0.0
C2769 C 0.50003 0.55494 0.89329 0.0
C2770 C 0.5262 0.567 0.9597 0.0
C2771 C 0.52996 0.54422 0.96201 0.0
C2772 C 0.51121 0.55211 0.91726 0.0
C2773 C 0.52464 0.52628 0.9405 0.0
C2774 C 0.49173 0.53479 0.87428 0.0
C2775 C 0.48814 0.57999 0.86789 0.0
N2776 N 0.51552 0.53046 0.91963 0.0
N2777 N 0.49769 0.5769 0.88922 0.0
H2778 H 0.78946 0.15268 0.11903 0.0
H2779 H 0.75623 0.26534 0.19096 0.0
H2780 H 0.75301 0.18946 0.07842 0.0
H2781 H 0.8235 0.25633 0.19581 0.0
H2782 H 0.74778 0.23427 0.15333 0.0
H2783 H 0.79403 0.1864 0.15361 0.0
C2784 C 0.78201 0.16766 0.11769 0.0
C2785 C 0.77104 0.16873 0.09617 0.0
C2786 C 0.76452 0.23982 0.16239 0.0
C2787 C 0.77606 0.20673 0.13502 0.0
C2788 C 0.76937 0.25755 0.18349 0.0
C2789 C 0.79077 0.2638 0.19569 0.0
C2790 C 0.78103 0.22795 0.15453 0.0
C2791 C 0.80715 0.25271 0.18624 0.0
C2792 C 0.78476 0.18684 0.13717 0.0
C2793 C 0.76177 0.18843 0.09491 0.0
N2794 N 0.80183 0.23491 0.16634 0.0
N2795 N 0.76446 0.2069 0.11427 0.0
H2796 H 0.13165 0.5575 0.29615 0.0
H2797 H 0.14652 0.58021 0.41172 0.0
H2798 H 0.18934 0.52913 0.30837 0.0
H2799 H 0.09073 0.52004 0.38338 0.0
H2800 H 0.16873 0.56283 0.38214 0.0
H2801 H 0.1194 0.54874 0.33351 0.0
C2802 C 0.14167 0.54932 0.30663 0.0
C2803 C 0.16149 0.54401 0.29932 0.0
C2804 C 0.15202 0.55276 0.3833 0.0
C2805 C 0.14743 0.53372 0.34154 0.0
C2806 C 0.1393 0.56291 0.39974 0.0
C2807 C 0.1167 0.55201 0.39875 0.0
C2808 C 0.1414 0.53272 0.36529 0.0
C2809 C 0.10801 0.5293 0.38376 0.0
C2810 C 0.13449 0.54396 0.32762 0.0
C2811 C 0.1739 0.5334 0.31358 0.0
N2812 N 0.12021 0.52071 0.36678 0.0
N2813 N 0.16688 0.529 0.33456 0.0
H2814 H 0.79068 0.81392 0.57922 0.0
H2815 H 0.80024 0.84822 0.72141 0.0
H2816 H 0.82805 0.88229 0.6225 0.0
H2817 H 0.78842 0.77442 0.68179 0.0
H2818 H 0.80247 0.86168 0.68388 0.0
H2819 H 0.7826 0.7995 0.61584 0.0
C2820 C 0.79738 0.82577 0.59637 0.0
C2821 C 0.81018 0.84928 0.59789 0.0
C2822 C 0.79895 0.84249 0.68344 0.0
C2823 C 0.80061 0.83318 0.63944 0.0
C2824 C 0.79759 0.8348 0.7048 0.0
C2825 C 0.79381 0.81012 0.70469 0.0
C2826 C 0.79647 0.82537 0.66187 0.0
C2827 C 0.79055 0.7935 0.68268 0.0
C2828 C 0.79264 0.8176 0.61717 0.0
C2829 C 0.81817 0.86403 0.62051 0.0
N2830 N 0.79207 0.80144 0.66206 0.0
N2831 N 0.81319 0.85575 0.64041 0.0
H2832 H 0.75401 0.43764 0.54211 0.0
H2833 H 0.69481 0.53803 0.51231 0.0
H2834 H 0.75483 0.46014 0.4751 0.0
H2835 H 0.69943 0.52035 0.58151 0.0
H2836 H 0.71135 0.50456 0.49605 0.0
H2837 H 0.72652 0.46103 0.55382 0.0
C2838 C 0.74748 0.44662 0.52945 0.0
C2839 C 0.75631 0.44716 0.50769 0.0
C2840 C 0.70887 0.50803 0.51482 0.0
C2841 C 0.72598 0.47445 0.52108 0.0
C2842 C 0.69981 0.5273 0.52411 0.0
C2843 C 0.69649 0.53215 0.54831 0.0
C2844 C 0.71453 0.49355 0.5299 0.0
C2845 C 0.70249 0.5175 0.5629 0.0
C2846 C 0.73212 0.46024 0.53623 0.0
C2847 C 0.74811 0.45942 0.492 0.0
N2848 N 0.71131 0.49877 0.55344 0.0
N2849 N 0.73352 0.47298 0.49916 0.0
H2850 H 0.2328 0.11248 0.47305 0.0
H2851 H 0.11675 0.10629 0.52786 0.0
H2852 H 0.21213 0.17434 0.51152 0.0
H2853 H 0.12885 0.04579 0.47733 0.0
H2854 H 0.1523 0.13056 0.52234 0.0
H2855 H 0.1956 0.08717 0.47423 0.0
C2856 C 0.22039 0.12074 0.48161 0.0
C2857 C 0.22554 0.14554 0.49221 0.0
C2858 C 0.14724 0.11203 0.51231 0.0
C2859 C 0.1832 0.1167 0.49394 0.0
C2860 C 0.12681 0.09799 0.51547 0.0
C2861 C 0.11962 0.07372 0.50311 0.0
C2862 C 0.16097 0.10194 0.49672 0.0
C2863 C 0.13367 0.0643 0.48733 0.0
C2864 C 0.19919 0.1063 0.48226 0.0
C2865 C 0.20887 0.15535 0.50299 0.0
N2866 N 0.15376 0.07841 0.48468 0.0
N2867 N 0.18857 0.14089 0.50376 0.0
H2868 H 0.23673 0.94432 0.73342 0.0
H2869 H 0.26776 0.85058 0.81059 0.0
H2870 H 0.20292 0.92791 0.79351 0.0
H2871 H 0.28374 0.84507 0.73811 0.0
H2872 H 0.24786 0.88173 0.8059 0.0
H2873 H 0.25685 0.91221 0.73577 0.0
C2874 C 0.23345 0.93419 0.74724 0.0
C2875 C 0.21763 0.93951 0.76325 0.0
C2876 C 0.25579 0.874 0.79094 0.0
C2877 C 0.24175 0.90193 0.76643 0.0
C2878 C 0.26743 0.85594 0.7936 0.0
C2879 C 0.2782 0.84463 0.77495 0.0
C2880 C 0.25461 0.88201 0.76938 0.0
C2881 C 0.27642 0.85304 0.75344 0.0
C2882 C 0.24508 0.91556 0.74852 0.0
C2883 C 0.21459 0.92499 0.78053 0.0
N2884 N 0.26523 0.87103 0.75141 0.0
N2885 N 0.22645 0.90753 0.78175 0.0
H2886 H 0.39095 0.99874 0.0431 0.0
H2887 H 0.50209 0.97679 0.99365 0.0
H2888 H 0.38927 0.94147 0.98186 0.0
H2889 H 0.49424 0.04544 0.03274 0.0
H2890 H 0.46143 0.96204 0.98758 0.0
H2891 H 0.43089 0.01314 0.04179 0.0
C2892 C 0.39926 0.98909 0.02964 0.0
C2893 C 0.38734 0.96915 0.01255 0.0
C2894 C 0.46866 0.98056 0.99683 0.0
C2895 C 0.43212 0.98588 0.01006 0.0
C2896 C 0.49167 0.98898 0.99999 0.0
C2897 C 0.50106 0.01228 0.01341 0.0
C2898 C 0.45554 0.99548 0.00794 0.0
C2899 C 0.48735 0.02743 0.02205 0.0
C2900 C 0.4218 0.99744 0.02858 0.0
C2901 C 0.39836 0.95692 0.99536 0.0
N2902 N 0.46512 0.01862 0.01942 0.0
N2903 N 0.42037 0.96566 0.99435 0.0
H2904 H 0.83937 0.56678 0.81077 0.0
H2905 H 0.84571 0.68499 0.75949 0.0
H2906 H 0.89613 0.62793 0.82679 0.0
H2907 H 0.79798 0.61696 0.7331 0.0
H2908 H 0.86039 0.66819 0.79121 0.0
H2909 H 0.81874 0.59014 0.79149 0.0
C2910 C 0.8472 0.58546 0.81107 0.0
C2911 C 0.86968 0.59525 0.81962 0.0
C2912 C 0.84661 0.65704 0.77856 0.0
C2913 C 0.84644 0.62174 0.79726 0.0
C2914 C 0.8384 0.66651 0.76046 0.0
C2915 C 0.82089 0.65211 0.7437 0.0
C2916 C 0.83696 0.6332 0.77993 0.0
C2917 C 0.81178 0.62839 0.74555 0.0
C2918 C 0.83551 0.59867 0.79978 0.0
C2919 C 0.87893 0.61959 0.81991 0.0
N2920 N 0.81996 0.61963 0.76339 0.0
N2921 N 0.86743 0.63189 0.80818 0.0
H2922 H 0.87244 0.68021 0.02079 0.0
H2923 H 0.90633 0.5579 0.0255 0.0
H2924 H 0.82902 0.60913 0.99716 0.0
H2925 H 0.95523 0.62567 0.03845 0.0
H2926 H 0.87918 0.57668 0.00935 0.0
H2927 H 0.90457 0.66157 0.02139 0.0
C2928 C 0.8698 0.66077 0.01521 0.0
C2929 C 0.84819 0.646 0.00959 0.0
C2930 C 0.89588 0.58755 0.0154 0.0
C2931 C 0.88431 0.62479 0.01015 0.0
C2932 C 0.91128 0.57678 0.02469 0.0
C2933 C 0.93269 0.59045 0.03352 0.0
C2934 C 0.90181 0.61236 0.0155 0.0
C2935 C 0.93864 0.61475 0.03192 0.0
C2936 C 0.88803 0.65015 0.01556 0.0
C2937 C 0.84545 0.62102 0.00225 0.0
N2938 N 0.92306 0.62517 0.02348 0.0
N2939 N 0.86326 0.61119 0.00302 0.0
H2940 H 0.1879 0.10405 0.75188 0.0
H2941 H 0.30406 0.20424 0.79393 0.0
H2942 H 0.24271 0.08737 0.78961 0.0
H2943 H 0.24406 0.21697 0.76246 0.0
H2944 H 0.28397 0.16203 0.79217 0.0
H2945 H 0.20999 0.14465 0.75458 0.0
C2946 C 0.20465 0.1088 0.76087 0.0
C2947 C 0.21306 0.09167 0.77068 0.0
C2948 C 0.27523 0.17408 0.78565 0.0
C2949 C 0.23921 0.13975 0.77394 0.0
C2950 C 0.28676 0.19836 0.78663 0.0
C2951 C 0.27604 0.21474 0.77826 0.0
C2952 C 0.25269 0.1657 0.77604 0.0
C2953 C 0.2534 0.20553 0.76917 0.0
C2954 C 0.21739 0.13234 0.7624 0.0
C2955 C 0.23525 0.09957 0.78171 0.0
N2956 N 0.24276 0.18201 0.76826 0.0
N2957 N 0.24742 0.1229 0.78312 0.0
H2958 H 0.41474 0.94892 0.27478 0.0
H2959 H 0.29902 0.86152 0.27025 0.0
H2960 H 0.36104 0.97579 0.30697 0.0
H2961 H 0.36059 0.83862 0.27392 0.0
H2962 H 0.32019 0.90387 0.28313 0.0
H2963 H 0.39396 0.90804 0.27281 0.0
C2964 C 0.39855 0.94623 0.28144 0.0
C2965 C 0.38938 0.96572 0.29066 0.0
C2966 C 0.32894 0.88949 0.2815 0.0
C2967 C 0.36569 0.91901 0.28863 0.0
C2968 C 0.31696 0.86561 0.2741 0.0
C2969 C 0.32836 0.8472 0.27157 0.0
C2970 C 0.35227 0.89443 0.28518 0.0
C2971 C 0.35148 0.85273 0.27607 0.0
C2972 C 0.38682 0.92289 0.28055 0.0
C2973 C 0.36847 0.96116 0.29932 0.0
N2974 N 0.36281 0.87602 0.28258 0.0
N2975 N 0.35709 0.93808 0.29784 0.0
H2976 H 0.59147 0.36508 0.53865 0.0
H2977 H 0.56369 0.49469 0.5845 0.0
H2978 H 0.58912 0.39952 0.61196 0.0
H2979 H 0.57037 0.46923 0.51013 0.0
H2980 H 0.57015 0.45739 0.59286 0.0
H2981 H 0.58219 0.40045 0.52611 0.0
C2982 C 0.58912 0.38001 0.55212 0.0
C2983 C 0.59117 0.37914 0.57651 0.0
C2984 C 0.57016 0.45963 0.57461 0.0
C2985 C 0.58031 0.41962 0.5622 0.0
C2986 C 0.56634 0.48105 0.56978 0.0
C2987 C 0.5665 0.4853 0.5466 0.0
C2988 C 0.57452 0.44185 0.55622 0.0
C2989 C 0.56998 0.46674 0.52828 0.0
C2990 C 0.58375 0.40018 0.54491 0.0
C2991 C 0.58778 0.39909 0.59301 0.0
N2992 N 0.57403 0.44588 0.53351 0.0
N2993 N 0.58257 0.41821 0.58558 0.0
H2994 H 0.46047 0.74713 0.34716 0.0
H2995 H 0.34784 0.79371 0.35107 0.0
H2996 H 0.43792 0.77604 0.41389 0.0
H2997 H 0.36604 0.75001 0.28902 0.0
H2998 H 0.37966 0.78773 0.37486 0.0
H2999 H 0.42549 0.7482 0.32611 0.0
C3000 C 0.44784 0.75314 0.35749 0.0
C3001 C 0.45208 0.76105 0.38243 0.0
C3002 C 0.3767 0.77954 0.35596 0.0
C3003 C 0.41178 0.76324 0.3581 0.0
C3004 C 0.35846 0.78293 0.34225 0.0
C3005 C 0.3543 0.77294 0.31746 0.0
C3006 C 0.39114 0.76617 0.34488 0.0
C3007 C 0.36875 0.75899 0.30749 0.0
C3008 C 0.42785 0.75394 0.34539 0.0
C3009 C 0.43521 0.76924 0.39474 0.0
N3010 N 0.38644 0.75626 0.32103 0.0
N3011 N 0.41593 0.77038 0.38244 0.0
H3012 H 0.07181 0.71816 0.11308 0.0
H3013 H 0.07303 0.60222 0.01352 0.0
H3014 H 0.10351 0.72952 0.05007 0.0
H3015 H 0.0767 0.60563 0.0893 0.0
H3016 H 0.07985 0.64685 0.02179 0.0
H3017 H 0.06646 0.67494 0.09914 0.0
C3018 C 0.0775 0.71153 0.09608 0.0
C3019 C 0.08845 0.72768 0.08297 0.0
C3020 C 0.07949 0.63776 0.03652 0.0
C3021 C 0.08252 0.67743 0.06683 0.0
C3022 C 0.07574 0.61233 0.03186 0.0
C3023 C 0.07431 0.60014 0.05082 0.0
C3024 C 0.08131 0.65087 0.06025 0.0
C3025 C 0.07758 0.61416 0.07415 0.0
C3026 C 0.07454 0.68672 0.08819 0.0
C3027 C 0.09503 0.71776 0.06081 0.0
N3028 N 0.08066 0.63854 0.07814 0.0
N3029 N 0.09213 0.69317 0.05346 0.0
H3030 H 0.06776 0.23782 0.87006 0.0
H3031 H 0.18639 0.32164 0.86078 0.0
H3032 H 0.10219 0.29583 0.92823 0.0
H3033 H 0.15739 0.25435 0.8111 0.0
H3034 H 0.15696 0.31212 0.8868 0.0
H3035 H 0.10111 0.24313 0.84904 0.0
C3036 C 0.08239 0.25165 0.87847 0.0
C3037 C 0.08207 0.2665 0.90088 0.0
C3038 C 0.15725 0.2992 0.87045 0.0
C3039 C 0.12048 0.27291 0.87669 0.0
C3040 C 0.17412 0.30458 0.8557 0.0
C3041 C 0.17442 0.28857 0.83397 0.0
C3042 C 0.14031 0.27788 0.86314 0.0
C3043 C 0.15788 0.26698 0.82787 0.0
C3044 C 0.1015 0.25464 0.86647 0.0
C3045 C 0.10165 0.28399 0.91096 0.0
N3046 N 0.14141 0.26239 0.84222 0.0
N3047 N 0.11995 0.2869 0.89869 0.0
H3048 H 0.5973 0.7953 0.96669 0.0
H3049 H 0.56347 0.65644 0.9725 0.0
H3050 H 0.59936 0.73705 0.9076 0.0
H3051 H 0.56468 0.71553 0.0321 0.0
H3052 H 0.57968 0.68549 0.94936 0.0
H3053 H 0.58788 0.76612 0.99175 0.0
C3054 C 0.59597 0.77634 0.9591 0.0
C3055 C 0.59883 0.76842 0.93509 0.0
C3056 C 0.57648 0.69207 0.96753 0.0
C3057 C 0.58819 0.73502 0.96353 0.0
C3058 C 0.56734 0.67551 0.98082 0.0
C3059 C 0.56255 0.68364 0.00425 0.0
C3060 C 0.58063 0.71687 0.97768 0.0
C3061 C 0.56766 0.70853 0.01397 0.0
C3062 C 0.5906 0.7597 0.97337 0.0
C3063 C 0.59689 0.74373 0.926 0.0
N3064 N 0.57629 0.72428 1.00056 0.0
N3065 N 0.59159 0.7278 0.94027 0.0
H3066 H 0.08459 0.79196 0.68418 0.0
H3067 H 0.14461 0.70544 0.73499 0.0
H3068 H 0.06564 0.71519 0.65504 0.0
H3069 H 0.17874 0.77848 0.73425 0.0
H3070 H 0.11555 0.70787 0.70526 0.0
H3071 H 0.11986 0.78741 0.70195 0.0
C3072 C 0.08821 0.77424 0.68115 0.0
C3073 C 0.07255 0.75393 0.66819 0.0
C3074 C 0.12964 0.72317 0.71133 0.0
C3075 C 0.1121 0.74837 0.68902 0.0
C3076 C 0.14604 0.72186 0.72841 0.0
C3077 C 0.1639 0.74185 0.73719 0.0
C3078 C 0.13098 0.74479 0.70351 0.0
C3079 C 0.16522 0.76264 0.72791 0.0
C3080 C 0.10824 0.77161 0.69123 0.0
C3081 C 0.07761 0.73124 0.66481 0.0
N3082 N 0.14879 0.76371 0.71183 0.0
N3083 N 0.09687 0.72894 0.67566 0.0
H3084 H 0.14404 0.39431 0.44671 0.0
H3085 H 0.06973 0.48742 0.44766 0.0
H3086 H 0.12453 0.41674 0.38302 0.0
H3087 H 0.11115 0.48703 0.51072 0.0
H3088 H 0.08985 0.46135 0.42368 0.0
H3089 H 0.13375 0.42915 0.4709 0.0
C3090 C 0.13819 0.40697 0.43787 0.0
C3091 C 0.13492 0.40259 0.41289 0.0
C3092 C 0.09466 0.46719 0.44275 0.0
C3093 C 0.1225 0.44177 0.44025 0.0
C3094 C 0.08307 0.48191 0.45648 0.0
C3095 C 0.08851 0.48908 0.48131 0.0
C3096 C 0.11167 0.45947 0.45394 0.0
C3097 C 0.10602 0.48148 0.49173 0.0
C3098 C 0.13224 0.42675 0.45165 0.0
C3099 C 0.12732 0.41948 0.40226 0.0
N3100 N 0.11687 0.46686 0.478 0.0
N3101 N 0.12084 0.43806 0.41601 0.0
H3102 H 0.4667 0.26639 0.24617 0.0
H3103 H 0.33756 0.25588 0.21365 0.0
H3104 H 0.43285 0.24685 0.17472 0.0
H3105 H 0.36769 0.27042 0.28619 0.0
H3106 H 0.37411 0.25847 0.19951 0.0
H3107 H 0.4321 0.27356 0.26183 0.0
C3108 C 0.45193 0.26357 0.23389 0.0
C3109 C 0.45234 0.25598 0.20926 0.0
C3110 C 0.37289 0.26118 0.21854 0.0
C3111 C 0.41324 0.26386 0.22674 0.0
C3112 C 0.35209 0.25962 0.22651 0.0
C3113 C 0.35008 0.26285 0.2509 0.0
C3114 C 0.39162 0.26542 0.23517 0.0
C3115 C 0.36899 0.26772 0.26716 0.0
C3116 C 0.43235 0.26776 0.24275 0.0
C3117 C 0.43312 0.25286 0.19386 0.0
N3118 N 0.38922 0.26877 0.25895 0.0
N3119 N 0.41425 0.25663 0.20291 0.0
H3120 H 0.621 0.54647 0.33978 0.0
H3121 H 0.59856 0.48858 0.45643 0.0
H3122 H 0.64615 0.48476 0.3481 0.0
H3123 H 0.58065 0.55342 0.44577 0.0
H3124 H 0.61515 0.48525 0.41789 0.0
H3125 H 0.60611 0.54765 0.37809 0.0
C3126 C 0.62356 0.53298 0.34952 0.0
C3127 C 0.63523 0.51545 0.33978 0.0
C3128 C 0.60765 0.50026 0.42395 0.0
C3129 C 0.61728 0.51678 0.38555 0.0
C3130 C 0.59804 0.50217 0.44613 0.0
C3131 C 0.58813 0.52151 0.45503 0.0
C3132 C 0.60736 0.51767 0.40991 0.0
C3133 C 0.58821 0.53835 0.44033 0.0
C3134 C 0.61486 0.53376 0.37182 0.0
C3135 C 0.63758 0.49882 0.3543 0.0
N3136 N 0.59744 0.53601 0.41895 0.0
N3137 N 0.62871 0.49984 0.37608 0.0
H3138 H 0.35462 0.9308 0.09128 0.0
H3139 H 0.31759 0.82621 0.16094 0.0
H3140 H 0.28967 0.88177 0.07972 0.0
H3141 H 0.38465 0.87002 0.16748 0.0
H3142 H 0.30483 0.85315 0.13874 0.0
H3143 H 0.36367 0.91494 0.12591 0.0
C3144 C 0.3421 0.91704 0.0964 0.0
C3145 C 0.32147 0.90728 0.08264 0.0
C3146 C 0.32228 0.85709 0.14534 0.0
C3147 C 0.33162 0.88919 0.12202 0.0
C3148 C 0.32955 0.84182 0.15816 0.0
C3149 C 0.35227 0.84569 0.16563 0.0
C3150 C 0.33789 0.87616 0.13982 0.0
C3151 C 0.36706 0.8661 0.16146 0.0
C3152 C 0.34728 0.90799 0.11611 0.0
C3153 C 0.30587 0.88944 0.08978 0.0
N3154 N 0.35966 0.88041 0.14846 0.0
N3155 N 0.31135 0.88079 0.10895 0.0
H3156 H 0.94314 0.56176 0.88747 0.0
H3157 H 0.0428 0.51811 0.94019 0.0
H3158 H 0.95999 0.49444 0.85779 0.0
H3159 H 0.02245 0.58193 0.97397 0.0
H3160 H 0.0097 0.50692 0.91168 0.0
H3161 H 0.96584 0.56459 0.92445 0.0
C3162 C 0.95107 0.5472 0.88911 0.0
C3163 C 0.95111 0.52864 0.86947 0.0
C3164 C 0.01263 0.52365 0.92501 0.0
C3165 C 0.97717 0.53202 0.91068 0.0
C3166 C 0.03193 0.53047 0.94056 0.0
C3167 C 0.03526 0.55117 0.95874 0.0
C3168 C 0.99709 0.53809 0.92754 0.0
C3169 C 0.02043 0.56617 0.95956 0.0
C3170 C 0.96413 0.54888 0.91007 0.0
C3171 C 0.9608 0.50972 0.87241 0.0
N3172 N 0.00171 0.5592 0.94419 0.0
N3173 N 0.97412 0.51222 0.89258 0.0
H3174 H 0.33252 0.22686 0.588 0.0
H3175 H 0.29198 0.29471 0.70514 0.0
H3176 H 0.26459 0.23375 0.58433 0.0
H3177 H 0.31813 0.2311 0.70103 0.0
H3178 H 0.2904 0.28829 0.66109 0.0
H3179 H 0.3376 0.24679 0.63056 0.0
C3180 C 0.31901 0.23356 0.59595 0.0
C3181 C 0.29817 0.22893 0.58285 0.0
C3182 C 0.29658 0.276 0.67014 0.0
C3183 C 0.30381 0.25154 0.63106 0.0
C3184 C 0.29707 0.27934 0.69509 0.0
C3185 C 0.30422 0.26283 0.70675 0.0
C3186 C 0.30466 0.257 0.65728 0.0
C3187 C 0.31194 0.24402 0.69293 0.0
C3188 C 0.32187 0.24477 0.62014 0.0
C3189 C 0.28093 0.23728 0.59399 0.0
N3190 N 0.31214 0.24179 0.66907 0.0
N3191 N 0.28404 0.24805 0.61765 0.0
H3192 H 0.6215 0.52997 0.20989 0.0
H3193 H 0.60783 0.49866 0.06431 0.0
H3194 H 0.65448 0.48204 0.16631 0.0
H3195 H 0.57793 0.55252 0.10369 0.0
H3196 H 0.62178 0.49088 0.10171 0.0
H3197 H 0.604 0.53758 0.17311 0.0
C3198 C 0.62493 0.52071 0.1927 0.0
C3199 C 0.63976 0.50513 0.19183 0.0
C3200 C 0.61233 0.50459 0.10246 0.0
C3201 C 0.61903 0.51375 0.14856 0.0
C3202 C 0.60406 0.50912 0.08071 0.0
C3203 C 0.59158 0.52678 0.07982 0.0
C3204 C 0.60877 0.51785 0.12467 0.0
C3205 C 0.58752 0.539 0.10261 0.0
C3206 C 0.61487 0.5252 0.17148 0.0
C3207 C 0.64345 0.49425 0.16849 0.0
N3208 N 0.59615 0.53453 0.12372 0.0
N3209 N 0.63325 0.49858 0.1483 0.0
H3210 H 0.31116 0.85653 0.95431 0.0
H3211 H 0.36311 0.84219 0.83096 0.0
H3212 H 0.34554 0.91542 0.9248 0.0
H3213 H 0.31854 0.78403 0.85291 0.0
H3214 H 0.3671 0.86636 0.87136 0.0
H3215 H 0.32197 0.82799 0.92238 0.0
C3216 C 0.32103 0.86342 0.94114 0.0
C3217 C 0.32708 0.88826 0.94182 0.0
C3218 C 0.35668 0.84815 0.86742 0.0
C3219 C 0.33988 0.85592 0.90577 0.0
C3220 C 0.35446 0.83424 0.84436 0.0
C3221 C 0.33915 0.81169 0.83821 0.0
C3222 C 0.34359 0.8393 0.88428 0.0
C3223 C 0.32932 0.80197 0.85656 0.0
C3224 C 0.32733 0.84718 0.92308 0.0
C3225 C 0.34007 0.89633 0.92455 0.0
N3226 N 0.33115 0.81614 0.87873 0.0
N3227 N 0.34594 0.88016 0.90711 0.0
H3228 H 0.97432 0.57613 0.75993 0.0
H3229 H 0.98104 0.47884 0.64884 0.0
H3230 H 0.91355 0.5293 0.72103 0.0
H3231 H 0.02563 0.5496 0.66341 0.0
H3232 H 0.95592 0.49517 0.67587 0.0
H3233 H 0.99413 0.56529 0.72545 0.0
C3234 C 0.96508 0.564 0.7439 0.0
C3235 C 0.94234 0.55363 0.7432 0.0
C3236 C 0.9711 0.50709 0.67286 0.0
C3237 C 0.96486 0.54083 0.70411 0.0
C3238 C 0.98546 0.49776 0.65781 0.0
C3239 C 0.0055 0.51289 0.65461 0.0
C3240 C 0.9773 0.53145 0.68497 0.0
C3241 C 0.01041 0.53739 0.66589 0.0
C3242 C 0.97634 0.55785 0.72428 0.0
C3243 C 0.93111 0.53777 0.72216 0.0
N3244 N 0.99656 0.54587 0.68096 0.0
N3245 N 0.94262 0.53143 0.70347 0.0
H3246 H 0.30007 0.25419 0.45283 0.0
H3247 H 0.31614 0.21763 0.31463 0.0
H3248 H 0.31704 0.18764 0.42034 0.0
H3249 H 0.31121 0.28883 0.34979 0.0
H3250 H 0.31729 0.20644 0.3536 0.0
H3251 H 0.3051 0.26788 0.41548 0.0
C3252 C 0.30503 0.24257 0.43792 0.0
C3253 C 0.30795 0.21968 0.43957 0.0
C3254 C 0.31633 0.22465 0.35282 0.0
C3255 C 0.31363 0.23508 0.39693 0.0
C3256 C 0.31566 0.23094 0.33065 0.0
C3257 C 0.31418 0.25427 0.32931 0.0
C3258 C 0.31496 0.24173 0.37351 0.0
C3259 C 0.31328 0.27094 0.35034 0.0
C3260 C 0.30792 0.25037 0.41663 0.0
C3261 C 0.31442 0.20534 0.41976 0.0
N3262 N 0.31352 0.2643 0.37162 0.0
N3263 N 0.31688 0.21321 0.3992 0.0
H3264 H 0.33512 0.57302 0.5648 0.0
H3265 H 0.42159 0.56741 0.47285 0.0
H3266 H 0.35919 0.63205 0.53047 0.0
H3267 H 0.41668 0.52446 0.52625 0.0
H3268 H 0.40057 0.59337 0.49603 0.0
H3269 H 0.36797 0.55788 0.55544 0.0
C3270 C 0.3476 0.58315 0.55587 0.0
C3271 C 0.34406 0.60319 0.5475 0.0
C3272 C 0.40418 0.57833 0.50275 0.0
C3273 C 0.38121 0.58582 0.53639 0.0
C3274 C 0.41568 0.56332 0.48929 0.0
C3275 C 0.41991 0.54346 0.4974 0.0
C3276 C 0.39671 0.57306 0.52416 0.0
C3277 C 0.41297 0.53929 0.51924 0.0
C3278 C 0.36634 0.5745 0.5505 0.0
C3279 C 0.36094 0.61598 0.53648 0.0
N3280 N 0.40138 0.55382 0.53179 0.0
N3281 N 0.37858 0.60666 0.53061 0.0
H3282 H 0.88234 0.94919 0.49813 0.0
H3283 H 0.00419 0.98452 0.56897 0.0
H3284 H 0.89384 0.92739 0.5644 0.0
H3285 H 0.98399 0.01515 0.51138 0.0
H3286 H 0.9652 0.96173 0.56789 0.0
H3287 H 0.92104 0.97041 0.50198 0.0
C3288 C 0.89304 0.94898 0.51365 0.0
C3289 C 0.88471 0.93682 0.53117 0.0
C3290 C 0.96932 0.97365 0.55571 0.0
C3291 C 0.92953 0.96151 0.53585 0.0
C3292 C 0.99144 0.98669 0.55642 0.0
C3293 C 0.99702 1.00178 0.54037 0.0
C3294 C 0.95302 0.97568 0.53862 0.0
C3295 C 0.98022 1.00382 0.52415 0.0
C3296 C 0.91525 0.96118 0.51586 0.0
C3297 C 0.8996 0.93669 0.55055 0.0
N3298 N 0.95907 0.99087 0.52364 0.0
N3299 N 0.92136 0.94905 0.5525 0.0
H3300 H 0.8789 0.11881 0.23634 0.0
H3301 H 0.84142 0.24036 0.3012 0.0
H3302 H 0.90952 0.15805 0.30624 0.0
H3303 H 0.83922 0.21813 0.22496 0.0
H3304 H 0.86074 0.20789 0.30555 0.0
H3305 H 0.85957 0.15127 0.23385 0.0
C3306 C 0.8816 0.13407 0.25137 0.0
C3307 C 0.89635 0.13493 0.27155 0.0
C3308 C 0.85591 0.20992 0.2878 0.0
C3309 C 0.87296 0.17329 0.26895 0.0
C3310 C 0.84455 0.22856 0.28528 0.0
C3311 C 0.83808 0.23247 0.26254 0.0
C3312 C 0.86074 0.19411 0.26751 0.0
C3313 C 0.84344 0.21625 0.24292 0.0
C3314 C 0.8704 0.1529 0.24987 0.0
C3315 C 0.89864 0.15594 0.29014 0.0
N3316 N 0.85395 0.19814 0.24582 0.0
N3317 N 0.88714 0.17373 0.28849 0.0
H3318 H 0.71833 0.06348 0.99008 0.0
H3319 H 0.61422 0.09188 0.04402 0.0
H3320 H 0.71974 0.12637 0.04522 0.0
H3321 H 0.61566 0.02262 1.00086 0.0
H3322 H 0.65433 0.09994 0.05434 0.0
H3323 H 0.68294 0.04342 0.00181 0.0
C3324 C 0.71109 0.07291 0.00472 0.0
C3325 C 0.72099 0.09683 0.01593 0.0
C3326 C 0.64582 0.08259 0.04323 0.0
C3327 C 0.68128 0.07421 0.0299 0.0
C3328 C 0.62297 0.07805 0.03744 0.0
C3329 C 0.61192 0.05661 0.02171 0.0
C3330 C 0.65752 0.06594 0.0322 0.0
C3331 C 0.62372 0.0393 0.01318 0.0
C3332 C 0.69116 0.06144 0.01169 0.0
C3333 C 0.71175 0.10826 0.03535 0.0
N3334 N 0.64606 0.04449 0.01825 0.0
N3335 N 0.69214 0.09693 0.04154 0.0
H3336 H 0.26496 0.50484 0.22387 0.0
H3337 H 0.26207 0.39299 0.28391 0.0
H3338 H 0.20452 0.45231 0.22749 0.0
H3339 H 0.31595 0.45686 0.29681 0.0
H3340 H 0.24293 0.40929 0.25499 0.0
H3341 H 0.2865 0.48035 0.2401 0.0
C3342 C 0.25626 0.48776 0.22739 0.0
C3343 C 0.23296 0.48086 0.22524 0.0
C3344 C 0.25892 0.41971 0.26417 0.0
C3345 C 0.25733 0.45324 0.24393 0.0
C3346 C 0.26967 0.41061 0.28075 0.0
C3347 C 0.2904 0.42388 0.29269 0.0
C3348 C 0.26905 0.44216 0.25964 0.0
C3349 C 0.2998 0.44642 0.28811 0.0
C3350 C 0.26856 0.47394 0.23682 0.0
C3351 C 0.22249 0.45845 0.22954 0.0
N3352 N 0.28898 0.45494 0.27182 0.0
N3353 N 0.23481 0.44557 0.23929 0.0
H3354 H 0.27297 0.44573 0.06459 0.0
H3355 H 0.17296 0.44822 0.97483 0.0
H3356 H 0.23622 0.38172 0.01414 0.0
H3357 H 0.19255 0.5007 0.04136 0.0
H3358 H 0.19591 0.42329 0.98895 0.0
H3359 H 0.24355 0.46615 0.05699 0.0
C3360 C 0.25854 0.43588 0.05217 0.0
C3361 C 0.2571 0.41212 0.03979 0.0
C3362 C 0.19501 0.44012 1.00058 0.0
C3363 C 0.22364 0.43542 0.03075 0.0
C3364 C 0.18206 0.45432 0.99248 0.0
C3365 C 0.18119 0.47647 0.00696 0.0
C3366 C 0.20749 0.44847 0.02308 0.0
C3367 C 0.19299 0.48369 0.02975 0.0
C3368 C 0.24175 0.44751 0.04788 0.0
C3369 C 0.23801 0.4001 0.024 0.0
N3370 N 0.20598 0.46987 0.03702 0.0
N3371 N 0.22218 0.41204 0.0196 0.0
H3372 H 0.91499 0.96385 0.23455 0.0
H3373 H 0.81713 0.87872 0.28793 0.0
H3374 H 0.87825 0.99359 0.28967 0.0
H3375 H 0.8614 0.8515 0.24034 0.0
H3376 H 0.83712 0.92036 0.28762 0.0
H3377 H 0.89328 0.92329 0.23456 0.0
C3378 C 0.90224 0.962 0.24665 0.0
C3379 C 0.89868 0.98273 0.26208 0.0
C3380 C 0.84237 0.90535 0.27703 0.0
C3381 C 0.87338 0.93506 0.26243 0.0
C3382 C 0.83084 0.8814 0.2771 0.0
C3383 C 0.83727 0.86118 0.26393 0.0
C3384 C 0.86044 0.90955 0.26331 0.0
C3385 C 0.85564 0.86623 0.25078 0.0
C3386 C 0.8898 0.93856 0.24668 0.0
C3387 C 0.88164 0.97853 0.27718 0.0
N3388 N 0.86629 0.8896 0.25067 0.0
N3389 N 0.86984 0.95538 0.27705 0.0
H3390 H 0.75542 0.1066 0.76889 0.0
H3391 H 0.7507 0.22716 0.75151 0.0
H3392 H 0.72699 0.11502 0.70165 0.0
H3393 H 0.81311 0.22217 0.78501 0.0
H3394 H 0.74285 0.18438 0.73294 0.0
H3395 H 0.78055 0.14661 0.77415 0.0
C3396 C 0.75514 0.11657 0.75487 0.0
C3397 C 0.73884 0.10838 0.73529 0.0
C3398 C 0.75858 0.1927 0.7438 0.0
C3399 C 0.76709 0.15318 0.74099 0.0
C3400 C 0.76289 0.21691 0.75444 0.0
C3401 C 0.78277 0.22776 0.76883 0.0
C3402 C 0.77397 0.17928 0.74843 0.0
C3403 C 0.7978 0.21402 0.77339 0.0
C3404 C 0.76954 0.13916 0.75774 0.0
C3405 C 0.73896 0.12146 0.7174 0.0
N3406 N 0.79299 0.19007 0.76327 0.0
N3407 N 0.75266 0.14364 0.72089 0.0
loop_
_geom_bond_atom_site_label_1
_geom_bond_atom_site_label_2
_geom_bond_distance
_geom_bond_site_symmetry_2
_ccdc_geom_bond_type
C0 O1 1.306 . S
C0 O3 1.160 . S
O1 C0 1.306 . S
O1 Cd2 2.228 . S
Cd2 O1 2.228 . S
Cd2 O6 2.273 . S
Cd2 O10 2.277 . S
O3 C0 1.160 . S
O3 Cd4 2.203 . S
Cd4 O3 2.203 . S
Cd4 O6 2.411 . S
Cd4 O7 2.333 . S
Cd4 O8 2.352 . S
Cd4 O12 2.277 . S
Cd4 O13 2.356 . S
C5 O10 1.209 . S
C5 O12 1.226 . S
O6 Cd2 2.273 . S
O6 Cd4 2.411 . S
O6 C9 1.320 . S
O7 Cd4 2.333 . S
O7 C9 1.214 . S
O8 Cd4 2.352 . S
O8 C11 1.258 . S
C9 O6 1.320 . S
C9 O7 1.214 . S
O10 Cd2 2.277 . S
O10 C5 1.209 . S
C11 O8 1.258 . S
C11 O13 1.282 . S
O12 Cd4 2.277 . S
O12 C5 1.226 . S
O13 Cd4 2.356 . S
O13 C11 1.282 . S
C14 O15 1.306 . S
C14 O17 1.160 . S
O15 C14 1.306 . S
O15 Cd16 2.228 1_655 S
Cd16 O15 2.228 1_455 S
Cd16 O20 2.273 . S
Cd16 O24 2.277 1_455 S
O17 C14 1.160 . S
O17 Cd18 2.203 1_655 S
Cd18 O17 2.203 1_455 S
Cd18 O20 2.411 . S
Cd18 O21 2.333 . S
Cd18 O22 2.352 . S
Cd18 O26 2.277 1_455 S
Cd18 O27 2.356 . S
C19 O24 1.209 . S
C19 O26 1.226 . S
O20 Cd16 2.273 . S
O20 Cd18 2.411 . S
O20 C23 1.320 . S
O21 Cd18 2.333 . S
O21 C23 1.214 . S
O22 Cd18 2.352 . S
O22 C25 1.258 . S
C23 O20 1.320 . S
C23 O21 1.214 . S
O24 Cd16 2.277 1_655 S
O24 C19 1.209 . S
C25 O22 1.258 . S
C25 O27 1.282 . S
O26 Cd18 2.277 1_655 S
O26 C19 1.226 . S
O27 Cd18 2.356 . S
O27 C25 1.282 . S
C28 O29 1.306 . S
C28 O31 1.160 . S
O29 C28 1.306 . S
O29 Cd30 2.228 . S
Cd30 O29 2.228 . S
Cd30 O34 2.273 . S
Cd30 O38 2.277 . S
O31 C28 1.160 . S
O31 Cd32 2.203 . S
Cd32 O31 2.203 . S
Cd32 O34 2.411 . S
Cd32 O35 2.333 . S
Cd32 O36 2.352 . S
Cd32 O40 2.277 . S
Cd32 O41 2.356 . S
C33 O38 1.209 . S
C33 O40 1.226 . S
O34 Cd30 2.273 . S
O34 Cd32 2.411 . S
O34 C37 1.320 . S
O35 Cd32 2.333 . S
O35 C37 1.214 . S
O36 Cd32 2.352 . S
O36 C39 1.258 . S
C37 O34 1.320 . S
C37 O35 1.214 . S
O38 Cd30 2.277 . S
O38 C33 1.209 . S
C39 O36 1.258 . S
C39 O41 1.282 . S
O40 Cd32 2.277 . S
O40 C33 1.226 . S
O41 Cd32 2.356 . S
O41 C39 1.282 . S
C42 O43 1.306 . S
C42 O45 1.160 . S
O43 C42 1.306 . S
O43 Cd44 2.228 . S
Cd44 O43 2.228 . S
Cd44 O48 2.273 . S
Cd44 O52 2.277 . S
O45 C42 1.160 . S
O45 Cd46 2.203 . S
Cd46 O45 2.203 . S
Cd46 O48 2.411 . S
Cd46 O49 2.333 . S
Cd46 O50 2.352 . S
Cd46 O54 2.277 . S
Cd46 O55 2.356 . S
C47 O52 1.209 . S
C47 O54 1.226 . S
O48 Cd44 2.273 . S
O48 Cd46 2.411 . S
O48 C51 1.320 . S
O49 Cd46 2.333 . S
O49 C51 1.214 . S
O50 Cd46 2.352 . S
O50 C53 1.258 . S
C51 O48 1.320 . S
C51 O49 1.214 . S
O52 Cd44 2.277 . S
O52 C47 1.209 . S
C53 O50 1.258 . S
C53 O55 1.282 . S
O54 Cd46 2.277 . S
O54 C47 1.226 . S
O55 Cd46 2.356 . S
O55 C53 1.282 . S
C56 O57 1.306 . S
C56 O59 1.160 . S
O57 C56 1.306 . S
O57 Cd58 2.228 . S
Cd58 O57 2.228 . S
Cd58 O62 2.273 . S
Cd58 O66 2.277 . S
O59 C56 1.160 . S
O59 Cd60 2.203 . S
Cd60 O59 2.203 . S
Cd60 O62 2.411 . S
Cd60 O63 2.333 . S
Cd60 O64 2.352 . S
Cd60 O68 2.277 . S
Cd60 O69 2.356 . S
C61 O66 1.209 . S
C61 O68 1.226 . S
O62 Cd58 2.273 . S
O62 Cd60 2.411 . S
O62 C65 1.320 . S
O63 Cd60 2.333 . S
O63 C65 1.214 . S
O64 Cd60 2.352 . S
O64 C67 1.258 . S
C65 O62 1.320 . S
C65 O63 1.214 . S
O66 Cd58 2.277 . S
O66 C61 1.209 . S
C67 O64 1.258 . S
C67 O69 1.282 . S
O68 Cd60 2.277 . S
O68 C61 1.226 . S
O69 Cd60 2.356 . S
O69 C67 1.282 . S
C70 O71 1.306 . S
C70 O73 1.160 . S
O71 C70 1.306 . S
O71 Cd72 2.228 . S
Cd72 O71 2.228 . S
Cd72 O76 2.273 . S
Cd72 O80 2.277 . S
O73 C70 1.160 . S
O73 Cd74 2.203 . S
Cd74 O73 2.203 . S
Cd74 O76 2.411 . S
Cd74 O77 2.333 . S
Cd74 O78 2.352 . S
Cd74 O82 2.277 . S
Cd74 O83 2.356 . S
C75 O80 1.209 . S
C75 O82 1.226 . S
O76 Cd72 2.273 . S
O76 Cd74 2.411 . S
O76 C79 1.320 . S
O77 Cd74 2.333 . S
O77 C79 1.214 . S
O78 Cd74 2.352 . S
O78 C81 1.258 . S
C79 O76 1.320 . S
C79 O77 1.214 . S
O80 Cd72 2.277 . S
O80 C75 1.209 . S
C81 O78 1.258 . S
C81 O83 1.282 . S
O82 Cd74 2.277 . S
O82 C75 1.226 . S
O83 Cd74 2.356 . S
O83 C81 1.282 . S
C84 O85 1.306 . S
C84 O87 1.160 . S
O85 C84 1.306 . S
O85 Cd86 2.228 . S
Cd86 O85 2.228 . S
Cd86 O90 2.273 . S
Cd86 O94 2.277 . S
O87 C84 1.160 . S
O87 Cd88 2.203 . S
Cd88 O87 2.203 . S
Cd88 O90 2.411 . S
Cd88 O91 2.333 . S
Cd88 O92 2.352 . S
Cd88 O96 2.277 . S
Cd88 O97 2.356 . S
C89 O94 1.209 . S
C89 O96 1.226 . S
O90 Cd86 2.273 . S
O90 Cd88 2.411 . S
O90 C93 1.320 . S
O91 Cd88 2.333 . S
O91 C93 1.214 . S
O92 Cd88 2.352 . S
O92 C95 1.258 . S
C93 O90 1.320 . S
C93 O91 1.214 . S
O94 Cd86 2.277 . S
O94 C89 1.209 . S
C95 O92 1.258 . S
C95 O97 1.282 . S
O96 Cd88 2.277 . S
O96 C89 1.226 . S
O97 Cd88 2.356 . S
O97 C95 1.282 . S
C98 O99 1.306 . S
C98 O101 1.160 . S
O99 C98 1.306 . S
O99 Cd100 2.228 1_655 S
Cd100 O99 2.228 1_455 S
Cd100 O104 2.273 . S
Cd100 O108 2.277 . S
O101 C98 1.160 . S
O101 Cd102 2.203 1_655 S
Cd102 O101 2.203 1_455 S
Cd102 O104 2.411 . S
Cd102 O105 2.333 . S
Cd102 O106 2.352 . S
Cd102 O110 2.277 . S
Cd102 O111 2.356 . S
C103 O108 1.209 . S
C103 O110 1.226 . S
O104 Cd100 2.273 . S
O104 Cd102 2.411 . S
O104 C107 1.320 . S
O105 Cd102 2.333 . S
O105 C107 1.214 . S
O106 Cd102 2.352 . S
O106 C109 1.258 . S
C107 O104 1.320 . S
C107 O105 1.214 . S
O108 Cd100 2.277 . S
O108 C103 1.209 . S
C109 O106 1.258 . S
C109 O111 1.282 . S
O110 Cd102 2.277 . S
O110 C103 1.226 . S
O111 Cd102 2.356 . S
O111 C109 1.282 . S
C112 O113 1.306 . S
C112 O115 1.160 . S
O113 C112 1.306 . S
O113 Cd114 2.228 1_545 S
Cd114 O113 2.228 1_565 S
Cd114 O118 2.273 1_565 S
Cd114 O122 2.277 . S
O115 C112 1.160 . S
O115 Cd116 2.203 . S
Cd116 O115 2.203 . S
Cd116 O118 2.411 . S
Cd116 O119 2.333 . S
Cd116 O120 2.352 . S
Cd116 O124 2.277 1_545 S
Cd116 O125 2.356 . S
C117 O122 1.209 . S
C117 O124 1.226 . S
O118 Cd114 2.273 1_545 S
O118 Cd116 2.411 . S
O118 C121 1.320 . S
O119 Cd116 2.333 . S
O119 C121 1.214 . S
O120 Cd116 2.352 . S
O120 C123 1.258 . S
C121 O118 1.320 . S
C121 O119 1.214 . S
O122 Cd114 2.277 . S
O122 C117 1.209 . S
C123 O120 1.258 . S
C123 O125 1.282 . S
O124 Cd116 2.277 1_565 S
O124 C117 1.226 . S
O125 Cd116 2.356 . S
O125 C123 1.282 . S
C126 O127 1.306 . S
C126 O129 1.160 . S
O127 C126 1.306 . S
O127 Cd128 2.228 . S
Cd128 O127 2.228 . S
Cd128 O132 2.273 . S
Cd128 O136 2.277 . S
O129 C126 1.160 . S
O129 Cd130 2.203 . S
Cd130 O129 2.203 . S
Cd130 O132 2.411 . S
Cd130 O133 2.333 . S
Cd130 O134 2.352 . S
Cd130 O138 2.277 . S
Cd130 O139 2.356 . S
C131 O136 1.209 . S
C131 O138 1.226 . S
O132 Cd128 2.273 . S
O132 Cd130 2.411 . S
O132 C135 1.320 . S
O133 Cd130 2.333 . S
O133 C135 1.214 . S
O134 Cd130 2.352 . S
O134 C137 1.258 . S
C135 O132 1.320 . S
C135 O133 1.214 . S
O136 Cd128 2.277 . S
O136 C131 1.209 . S
C137 O134 1.258 . S
C137 O139 1.282 . S
O138 Cd130 2.277 . S
O138 C131 1.226 . S
O139 Cd130 2.356 . S
O139 C137 1.282 . S
C140 O141 1.306 . S
C140 O143 1.160 . S
O141 C140 1.306 . S
O141 Cd142 2.228 . S
Cd142 O141 2.228 . S
Cd142 O146 2.273 1_545 S
Cd142 O150 2.277 . S
O143 C140 1.160 . S
O143 Cd144 2.203 1_545 S
Cd144 O143 2.203 1_565 S
Cd144 O146 2.411 . S
Cd144 O147 2.333 . S
Cd144 O148 2.352 . S
Cd144 O152 2.277 1_565 S
Cd144 O153 2.356 . S
C145 O150 1.209 . S
C145 O152 1.226 . S
O146 Cd142 2.273 1_565 S
O146 Cd144 2.411 . S
O146 C149 1.320 . S
O147 Cd144 2.333 . S
O147 C149 1.214 . S
O148 Cd144 2.352 . S
O148 C151 1.258 . S
C149 O146 1.320 . S
C149 O147 1.214 . S
O150 Cd142 2.277 . S
O150 C145 1.209 . S
C151 O148 1.258 . S
C151 O153 1.282 . S
O152 Cd144 2.277 1_545 S
O152 C145 1.226 . S
O153 Cd144 2.356 . S
O153 C151 1.282 . S
C154 O155 1.306 . S
C154 O157 1.160 . S
O155 C154 1.306 . S
O155 Cd156 2.228 1_554 S
Cd156 O155 2.228 1_556 S
Cd156 O160 2.273 1_556 S
Cd156 O164 2.277 . S
O157 C154 1.160 . S
O157 Cd158 2.203 . S
Cd158 O157 2.203 . S
Cd158 O160 2.411 . S
Cd158 O161 2.333 . S
Cd158 O162 2.352 . S
Cd158 O166 2.277 1_554 S
Cd158 O167 2.356 . S
C159 O164 1.209 . S
C159 O166 1.226 . S
O160 Cd156 2.273 1_554 S
O160 Cd158 2.411 . S
O160 C163 1.320 . S
O161 Cd158 2.333 . S
O161 C163 1.214 . S
O162 Cd158 2.352 . S
O162 C165 1.258 . S
C163 O160 1.320 . S
C163 O161 1.214 . S
O164 Cd156 2.277 . S
O164 C159 1.209 . S
C165 O162 1.258 . S
C165 O167 1.282 . S
O166 Cd158 2.277 1_556 S
O166 C159 1.226 . S
O167 Cd158 2.356 . S
O167 C165 1.282 . S
C168 O169 1.306 . S
C168 O171 1.160 . S
O169 C168 1.306 . S
O169 Cd170 2.228 . S
Cd170 O169 2.228 . S
Cd170 O174 2.273 . S
Cd170 O178 2.277 1_554 S
O171 C168 1.160 . S
O171 Cd172 2.203 . S
Cd172 O171 2.203 . S
Cd172 O174 2.411 . S
Cd172 O175 2.333 . S
Cd172 O176 2.352 . S
Cd172 O180 2.277 . S
Cd172 O181 2.356 . S
C173 O178 1.209 . S
C173 O180 1.226 1_556 S
O174 Cd170 2.273 . S
O174 Cd172 2.411 . S
O174 C177 1.320 . S
O175 Cd172 2.333 . S
O175 C177 1.214 . S
O176 Cd172 2.352 . S
O176 C179 1.258 . S
C177 O174 1.320 . S
C177 O175 1.214 . S
O178 Cd170 2.277 1_556 S
O178 C173 1.209 . S
C179 O176 1.258 . S
C179 O181 1.282 . S
O180 Cd172 2.277 . S
O180 C173 1.226 1_554 S
O181 Cd172 2.356 . S
O181 C179 1.282 . S
C182 O183 1.306 . S
C182 O185 1.160 . S
O183 C182 1.306 . S
O183 Cd184 2.228 . S
Cd184 O183 2.228 . S
Cd184 O188 2.273 . S
Cd184 O192 2.277 . S
O185 C182 1.160 . S
O185 Cd186 2.203 . S
Cd186 O185 2.203 . S
Cd186 O188 2.411 . S
Cd186 O189 2.333 . S
Cd186 O190 2.352 1_554 S
Cd186 O194 2.277 . S
Cd186 O195 2.356 . S
C187 O192 1.209 . S
C187 O194 1.226 . S
O188 Cd184 2.273 . S
O188 Cd186 2.411 . S
O188 C191 1.320 . S
O189 Cd186 2.333 . S
O189 C191 1.214 . S
O190 Cd186 2.352 1_556 S
O190 C193 1.258 . S
C191 O188 1.320 . S
C191 O189 1.214 . S
O192 Cd184 2.277 . S
O192 C187 1.209 . S
C193 O190 1.258 . S
C193 O195 1.282 1_556 S
O194 Cd186 2.277 . S
O194 C187 1.226 . S
O195 Cd186 2.356 . S
O195 C193 1.282 1_554 S
C196 O197 1.306 . S
C196 O199 1.160 . S
O197 C196 1.306 . S
O197 Cd198 2.228 . S
Cd198 O197 2.228 . S
Cd198 O202 2.273 . S
Cd198 O206 2.277 . S
O199 C196 1.160 . S
O199 Cd200 2.203 . S
Cd200 O199 2.203 . S
Cd200 O202 2.411 . S
Cd200 O203 2.333 . S
Cd200 O204 2.352 . S
Cd200 O208 2.277 . S
Cd200 O209 2.356 . S
C201 O206 1.209 . S
C201 O208 1.226 . S
O202 Cd198 2.273 . S
O202 Cd200 2.411 . S
O202 C205 1.320 . S
O203 Cd200 2.333 . S
O203 C205 1.214 . S
O204 Cd200 2.352 . S
O204 C207 1.258 . S
C205 O202 1.320 . S
C205 O203 1.214 . S
O206 Cd198 2.277 . S
O206 C201 1.209 . S
C207 O204 1.258 . S
C207 O209 1.282 . S
O208 Cd200 2.277 . S
O208 C201 1.226 . S
O209 Cd200 2.356 . S
O209 C207 1.282 . S
C210 O211 1.306 . S
C210 O213 1.160 . S
O211 C210 1.306 . S
O211 Cd212 2.228 . S
Cd212 O211 2.228 . S
Cd212 O216 2.273 . S
Cd212 O220 2.277 . S
O213 C210 1.160 . S
O213 Cd214 2.203 . S
Cd214 O213 2.203 . S
Cd214 O216 2.411 . S
Cd214 O217 2.333 . S
Cd214 O218 2.352 . S
Cd214 O222 2.277 . S
Cd214 O223 2.356 . S
C215 O220 1.209 . S
C215 O222 1.226 . S
O216 Cd212 2.273 . S
O216 Cd214 2.411 . S
O216 C219 1.320 . S
O217 Cd214 2.333 . S
O217 C219 1.214 . S
O218 Cd214 2.352 . S
O218 C221 1.258 . S
C219 O216 1.320 . S
C219 O217 1.214 . S
O220 Cd212 2.277 . S
O220 C215 1.209 . S
C221 O218 1.258 . S
C221 O223 1.282 . S
O222 Cd214 2.277 . S
O222 C215 1.226 . S
O223 Cd214 2.356 . S
O223 C221 1.282 . S
C224 O225 1.306 . S
C224 O227 1.160 . S
O225 C224 1.306 . S
O225 Cd226 2.228 . S
Cd226 O225 2.228 . S
Cd226 O230 2.273 . S
Cd226 O234 2.277 . S
O227 C224 1.160 . S
O227 Cd228 2.203 . S
Cd228 O227 2.203 . S
Cd228 O230 2.411 . S
Cd228 O231 2.333 . S
Cd228 O232 2.352 . S
Cd228 O236 2.277 . S
Cd228 O237 2.356 . S
C229 O234 1.209 . S
C229 O236 1.226 . S
O230 Cd226 2.273 . S
O230 Cd228 2.411 . S
O230 C233 1.320 . S
O231 Cd228 2.333 . S
O231 C233 1.214 . S
O232 Cd228 2.352 . S
O232 C235 1.258 . S
C233 O230 1.320 . S
C233 O231 1.214 . S
O234 Cd226 2.277 . S
O234 C229 1.209 . S
C235 O232 1.258 . S
C235 O237 1.282 . S
O236 Cd228 2.277 . S
O236 C229 1.226 . S
O237 Cd228 2.356 . S
O237 C235 1.282 . S
C238 O239 1.306 . S
C238 O241 1.160 . S
O239 C238 1.306 . S
O239 Cd240 2.228 . S
Cd240 O239 2.228 . S
Cd240 O244 2.273 . S
Cd240 O248 2.277 . S
O241 C238 1.160 . S
O241 Cd242 2.203 . S
Cd242 O241 2.203 . S
Cd242 O244 2.411 . S
Cd242 O245 2.333 . S
Cd242 O246 2.352 . S
Cd242 O250 2.277 . S
Cd242 O251 2.356 . S
C243 O248 1.209 . S
C243 O250 1.226 . S
O244 Cd240 2.273 . S
O244 Cd242 2.411 . S
O244 C247 1.320 . S
O245 Cd242 2.333 . S
O245 C247 1.214 . S
O246 Cd242 2.352 . S
O246 C249 1.258 . S
C247 O244 1.320 . S
C247 O245 1.214 . S
O248 Cd240 2.277 . S
O248 C243 1.209 . S
C249 O246 1.258 . S
C249 O251 1.282 . S
O250 Cd242 2.277 . S
O250 C243 1.226 . S
O251 Cd242 2.356 . S
O251 C249 1.282 . S
C252 O253 1.306 . S
C252 O255 1.160 . S
O253 C252 1.306 . S
O253 Cd254 2.228 . S
Cd254 O253 2.228 . S
Cd254 O258 2.273 . S
Cd254 O262 2.277 . S
O255 C252 1.160 . S
O255 Cd256 2.203 . S
Cd256 O255 2.203 . S
Cd256 O258 2.411 . S
Cd256 O259 2.333 . S
Cd256 O260 2.352 . S
Cd256 O264 2.277 . S
Cd256 O265 2.356 . S
C257 O262 1.209 . S
C257 O264 1.226 . S
O258 Cd254 2.273 . S
O258 Cd256 2.411 . S
O258 C261 1.320 . S
O259 Cd256 2.333 . S
O259 C261 1.214 . S
O260 Cd256 2.352 . S
O260 C263 1.258 . S
C261 O258 1.320 . S
C261 O259 1.214 . S
O262 Cd254 2.277 . S
O262 C257 1.209 . S
C263 O260 1.258 . S
C263 O265 1.282 . S
O264 Cd256 2.277 . S
O264 C257 1.226 . S
O265 Cd256 2.356 . S
O265 C263 1.282 . S
C266 O267 1.306 . S
C266 O269 1.160 . S
O267 C266 1.306 . S
O267 Cd268 2.228 . S
Cd268 O267 2.228 . S
Cd268 O272 2.273 . S
Cd268 O276 2.277 . S
O269 C266 1.160 . S
O269 Cd270 2.203 . S
Cd270 O269 2.203 . S
Cd270 O272 2.411 . S
Cd270 O273 2.333 . S
Cd270 O274 2.352 . S
Cd270 O278 2.277 . S
Cd270 O279 2.356 . S
C271 O276 1.209 . S
C271 O278 1.226 . S
O272 Cd268 2.273 . S
O272 Cd270 2.411 . S
O272 C275 1.320 . S
O273 Cd270 2.333 . S
O273 C275 1.214 . S
O274 Cd270 2.352 . S
O274 C277 1.258 . S
C275 O272 1.320 . S
C275 O273 1.214 . S
O276 Cd268 2.277 . S
O276 C271 1.209 . S
C277 O274 1.258 . S
C277 O279 1.282 . S
O278 Cd270 2.277 . S
O278 C271 1.226 . S
O279 Cd270 2.356 . S
O279 C277 1.282 . S
C280 O281 1.306 . S
C280 O283 1.160 1_554 S
O281 C280 1.306 . S
O281 Cd282 2.228 . S
Cd282 O281 2.228 . S
Cd282 O286 2.273 1_554 S
Cd282 O290 2.277 . S
O283 C280 1.160 1_556 S
O283 Cd284 2.203 . S
Cd284 O283 2.203 . S
Cd284 O286 2.411 . S
Cd284 O287 2.333 . S
Cd284 O288 2.352 . S
Cd284 O292 2.277 1_556 S
Cd284 O293 2.356 . S
C285 O290 1.209 . S
C285 O292 1.226 . S
O286 Cd282 2.273 1_556 S
O286 Cd284 2.411 . S
O286 C289 1.320 . S
O287 Cd284 2.333 . S
O287 C289 1.214 . S
O288 Cd284 2.352 . S
O288 C291 1.258 . S
C289 O286 1.320 . S
C289 O287 1.214 . S
O290 Cd282 2.277 . S
O290 C285 1.209 . S
C291 O288 1.258 . S
C291 O293 1.282 . S
O292 Cd284 2.277 1_554 S
O292 C285 1.226 . S
O293 Cd284 2.356 . S
O293 C291 1.282 . S
C294 O295 1.306 . S
C294 O297 1.160 . S
O295 C294 1.306 . S
O295 Cd296 2.228 . S
Cd296 O295 2.228 . S
Cd296 O300 2.273 . S
Cd296 O304 2.277 . S
O297 C294 1.160 . S
O297 Cd298 2.203 . S
Cd298 O297 2.203 . S
Cd298 O300 2.411 . S
Cd298 O301 2.333 . S
Cd298 O302 2.352 . S
Cd298 O306 2.277 . S
Cd298 O307 2.356 . S
C299 O304 1.209 . S
C299 O306 1.226 . S
O300 Cd296 2.273 . S
O300 Cd298 2.411 . S
O300 C303 1.320 . S
O301 Cd298 2.333 . S
O301 C303 1.214 . S
O302 Cd298 2.352 . S
O302 C305 1.258 . S
C303 O300 1.320 . S
C303 O301 1.214 . S
O304 Cd296 2.277 . S
O304 C299 1.209 . S
C305 O302 1.258 . S
C305 O307 1.282 . S
O306 Cd298 2.277 . S
O306 C299 1.226 . S
O307 Cd298 2.356 . S
O307 C305 1.282 . S
C308 O309 1.306 . S
C308 O311 1.160 . S
O309 C308 1.306 . S
O309 Cd310 2.228 . S
Cd310 O309 2.228 . S
Cd310 O314 2.273 . S
Cd310 O318 2.277 . S
O311 C308 1.160 . S
O311 Cd312 2.203 . S
Cd312 O311 2.203 . S
Cd312 O314 2.411 . S
Cd312 O315 2.333 . S
Cd312 O316 2.352 . S
Cd312 O320 2.277 . S
Cd312 O321 2.356 . S
C313 O318 1.209 . S
C313 O320 1.226 . S
O314 Cd310 2.273 . S
O314 Cd312 2.411 . S
O314 C317 1.320 . S
O315 Cd312 2.333 . S
O315 C317 1.214 . S
O316 Cd312 2.352 . S
O316 C319 1.258 . S
C317 O314 1.320 . S
C317 O315 1.214 . S
O318 Cd310 2.277 . S
O318 C313 1.209 . S
C319 O316 1.258 . S
C319 O321 1.282 . S
O320 Cd312 2.277 . S
O320 C313 1.226 . S
O321 Cd312 2.356 . S
O321 C319 1.282 . S
C322 O323 1.306 . S
C322 O325 1.160 . S
O323 C322 1.306 . S
O323 Cd324 2.228 . S
Cd324 O323 2.228 . S
Cd324 O328 2.273 . S
Cd324 O332 2.277 . S
O325 C322 1.160 . S
O325 Cd326 2.203 . S
Cd326 O325 2.203 . S
Cd326 O328 2.411 . S
Cd326 O329 2.333 . S
Cd326 O330 2.352 . S
Cd326 O334 2.277 . S
Cd326 O335 2.356 . S
C327 O332 1.209 . S
C327 O334 1.226 . S
O328 Cd324 2.273 . S
O328 Cd326 2.411 . S
O328 C331 1.320 . S
O329 Cd326 2.333 . S
O329 C331 1.214 . S
O330 Cd326 2.352 . S
O330 C333 1.258 . S
C331 O328 1.320 . S
C331 O329 1.214 . S
O332 Cd324 2.277 . S
O332 C327 1.209 . S
C333 O330 1.258 . S
C333 O335 1.282 . S
O334 Cd326 2.277 . S
O334 C327 1.226 . S
O335 Cd326 2.356 . S
O335 C333 1.282 . S
Eu336 N367 2.657 1_545 S
Eu336 N374 2.609 1_544 S
Eu336 O380 2.558 1_454 S
Eu336 O381 2.612 . S
Eu336 O383 2.339 . S
Eu336 O384 2.563 . S
Eu336 O385 2.419 1_455 S
Eu336 O387 2.380 . S
Eu336 O388 2.432 1_554 S
Eu336 C400 2.848 1_454 S
C337 C340 1.429 . S
C337 C341 1.411 . S
C337 N344 1.377 . S
C338 C340 1.420 . S
C338 C342 1.423 . S
C338 C350 1.392 . S
C339 C341 1.420 . S
C339 C342 1.351 . S
C339 H362 0.931 . S
C340 C337 1.429 . S
C340 C338 1.420 . S
C340 N348 1.362 . S
C341 C337 1.411 . S
C341 C339 1.420 . S
C341 C346 1.395 . S
C342 C338 1.423 . S
C342 C339 1.351 . S
C342 H354 0.930 . S
C343 C345 1.400 . S
C343 C346 1.386 . S
C343 H355 0.930 . S
N344 C337 1.377 . S
N344 C345 1.321 . S
N344 Eu347 2.609 . S
C345 C343 1.400 . S
C345 N344 1.321 . S
C345 H352 0.930 . S
C346 C341 1.395 . S
C346 C343 1.386 . S
C346 H365 0.930 . S
Eu347 N344 2.609 . S
Eu347 N348 2.657 . S
Eu347 O381 2.380 . S
Eu347 O382 2.432 . S
Eu347 O386 2.558 . S
Eu347 O387 2.612 . S
Eu347 O389 2.339 1_554 S
Eu347 O390 2.563 . S
Eu347 O391 2.419 . S
Eu347 C411 2.848 . S
N348 C340 1.362 . S
N348 Eu347 2.657 . S
N348 C349 1.334 1_554 S
C349 N348 1.334 1_556 S
C349 C351 1.413 . S
C349 H356 0.929 . S
C350 C338 1.392 . S
C350 C351 1.367 1_554 S
C350 H358 0.930 1_554 S
C351 C349 1.413 . S
C351 C350 1.367 1_556 S
C351 H353 0.930 . S
H352 C345 0.930 . S
H353 C351 0.930 . S
H354 C342 0.930 . S
H355 C343 0.930 . S
H356 C349 0.929 . S
H357 C371 0.930 . S
H358 C350 0.930 1_556 S
H359 C377 0.930 . S
H360 C368 0.929 . S
H361 C375 0.929 . S
H362 C339 0.931 . S
H363 C369 0.930 . S
H364 C402 0.930 1_554 S
H365 C346 0.930 . S
H366 C401 0.931 . S
N367 Eu336 2.657 1_565 S
N367 C368 1.334 . S
N367 C372 1.368 . S
C368 H360 0.929 . S
C368 N367 1.334 . S
C368 C371 1.413 . S
C369 H363 0.930 . S
C369 C370 1.392 . S
C369 C371 1.367 1_655 S
C370 C369 1.392 . S
C370 C372 1.414 1_655 S
C370 C402 1.423 1_554 S
C371 H357 0.930 . S
C371 C368 1.413 . S
C371 C369 1.367 1_455 S
C372 N367 1.368 . S
C372 C370 1.414 1_455 S
C372 C376 1.430 1_554 S
H373 C378 0.930 . S
N374 Eu336 2.609 1_566 S
N374 C376 1.377 . S
N374 C377 1.321 . S
C375 H361 0.929 . S
C375 C377 1.396 1_655 S
C375 C378 1.390 . S
C376 C372 1.430 1_556 S
C376 N374 1.377 . S
C376 C379 1.411 1_455 S
C377 H359 0.930 . S
C377 N374 1.321 . S
C377 C375 1.396 1_455 S
C378 H373 0.930 . S
C378 C375 1.390 . S
C378 C379 1.395 . S
C379 C376 1.411 1_655 S
C379 C378 1.395 . S
C379 C401 1.420 . S
O380 Eu336 2.558 1_656 S
O380 C400 1.257 . S
O381 Eu336 2.612 . S
O381 Eu347 2.380 . S
O381 C392 1.276 . S
O382 Eu347 2.432 . S
O382 C399 1.264 . S
O383 Eu336 2.339 . S
O383 C399 1.254 . S
O384 Eu336 2.563 . S
O384 C392 1.235 . S
O385 Eu336 2.419 1_655 S
O385 C400 1.249 1_554 S
O386 Eu347 2.558 . S
O386 C411 1.257 . S
O387 Eu336 2.380 . S
O387 Eu347 2.612 . S
O387 C403 1.276 1_545 S
O388 Eu336 2.432 1_556 S
O388 C410 1.264 . S
O389 Eu347 2.339 1_556 S
O389 C410 1.254 . S
O390 Eu347 2.563 . S
O390 C403 1.235 1_545 S
O391 Eu347 2.419 . S
O391 C411 1.249 . S
C392 O381 1.276 . S
C392 O384 1.235 . S
C393 C395 1.393 1_556 S
C393 C397 1.395 . S
C393 C400 1.492 . S
C394 C395 1.389 1_556 S
C394 C396 1.400 . S
C395 C393 1.393 1_554 S
C395 C394 1.389 1_554 S
C395 H412 0.930 . S
C396 C394 1.400 . S
C396 C398 1.395 . S
C396 H413 0.930 . S
C397 C393 1.395 . S
C397 C398 1.379 . S
C397 H414 0.930 . S
C398 C396 1.395 . S
C398 C397 1.379 . S
C398 H415 0.930 . S
C399 O382 1.264 . S
C399 O383 1.254 . S
C400 Eu336 2.848 1_656 S
C400 O380 1.257 . S
C400 O385 1.249 1_556 S
C400 C393 1.492 . S
C401 H366 0.931 . S
C401 C379 1.420 . S
C401 C402 1.351 . S
C402 H364 0.930 1_556 S
C402 C370 1.423 1_556 S
C402 C401 1.351 . S
C403 O387 1.276 1_565 S
C403 O390 1.235 1_565 S
C404 C405 1.393 . S
C404 C408 1.395 . S
C404 C411 1.492 . S
C405 C404 1.393 . S
C405 C406 1.392 . S
C405 H416 0.930 . S
C406 C405 1.392 . S
C406 C407 1.386 . S
C407 C406 1.386 . S
C407 C409 1.395 . S
C407 H417 0.930 . S
C408 C404 1.395 . S
C408 C409 1.379 . S
C408 H418 0.930 . S
C409 C407 1.395 . S
C409 C408 1.379 . S
C409 H419 0.930 . S
C410 O388 1.264 . S
C410 O389 1.254 . S
C411 Eu347 2.848 . S
C411 O386 1.257 . S
C411 O391 1.249 . S
C411 C404 1.492 . S
H412 C395 0.930 . S
H413 C396 0.930 . S
H414 C397 0.930 . S
H415 C398 0.930 . S
H416 C405 0.930 . S
H417 C407 0.930 . S
H418 C408 0.930 . S
H419 C409 0.930 . S
Eu420 N451 2.657 . S
Eu420 N458 2.609 . S
Eu420 O464 2.558 . S
Eu420 O465 2.612 . S
Eu420 O467 2.339 . S
Eu420 O468 2.563 . S
Eu420 O469 2.419 . S
Eu420 O471 2.380 . S
Eu420 O472 2.432 . S
Eu420 C484 2.848 . S
C421 C424 1.429 . S
C421 C425 1.411 . S
C421 N428 1.377 . S
C422 C424 1.420 . S
C422 C426 1.423 . S
C422 C434 1.392 . S
C423 C425 1.420 . S
C423 C426 1.351 . S
C423 H446 0.931 . S
C424 C421 1.429 . S
C424 C422 1.420 . S
C424 N432 1.362 . S
C425 C421 1.411 . S
C425 C423 1.420 . S
C425 C430 1.395 . S
C426 C422 1.423 . S
C426 C423 1.351 . S
C426 H438 0.930 . S
C427 C429 1.400 . S
C427 C430 1.386 . S
C427 H439 0.930 . S
N428 C421 1.377 . S
N428 C429 1.321 . S
N428 Eu431 2.609 . S
C429 C427 1.400 . S
C429 N428 1.321 . S
C429 H436 0.930 . S
C430 C425 1.395 . S
C430 C427 1.386 . S
C430 H449 0.930 . S
Eu431 N428 2.609 . S
Eu431 N432 2.657 . S
Eu431 O465 2.380 . S
Eu431 O466 2.432 . S
Eu431 O470 2.558 . S
Eu431 O471 2.612 . S
Eu431 O473 2.339 . S
Eu431 O474 2.563 . S
Eu431 O475 2.419 . S
Eu431 C495 2.848 . S
N432 C424 1.362 . S
N432 Eu431 2.657 . S
N432 C433 1.334 . S
C433 N432 1.334 . S
C433 C435 1.413 . S
C433 H440 0.929 . S
C434 C422 1.392 . S
C434 C435 1.367 . S
C434 H442 0.930 . S
C435 C433 1.413 . S
C435 C434 1.367 . S
C435 H437 0.930 . S
H436 C429 0.930 . S
H437 C435 0.930 . S
H438 C426 0.930 . S
H439 C427 0.930 . S
H440 C433 0.929 . S
H441 C455 0.930 . S
H442 C434 0.930 . S
H443 C461 0.930 . S
H444 C452 0.929 . S
H445 C459 0.930 . S
H446 C423 0.931 . S
H447 C453 0.930 . S
H448 C486 0.930 . S
H449 C430 0.930 . S
H450 C485 0.931 . S
N451 Eu420 2.657 . S
N451 C452 1.334 . S
N451 C456 1.362 . S
C452 H444 0.929 . S
C452 N451 1.334 . S
C452 C455 1.413 . S
C453 H447 0.930 . S
C453 C454 1.392 . S
C453 C455 1.367 . S
C454 C453 1.392 . S
C454 C456 1.420 . S
C454 C486 1.423 . S
C455 H441 0.930 . S
C455 C452 1.413 . S
C455 C453 1.367 . S
C456 N451 1.362 . S
C456 C454 1.420 . S
C456 C460 1.429 . S
H457 C462 0.930 . S
N458 Eu420 2.609 . S
N458 C460 1.377 . S
N458 C461 1.321 . S
C459 H445 0.930 . S
C459 C461 1.400 . S
C459 C462 1.386 . S
C460 C456 1.429 . S
C460 N458 1.377 . S
C460 C463 1.411 . S
C461 H443 0.930 . S
C461 N458 1.321 . S
C461 C459 1.400 . S
C462 H457 0.930 . S
C462 C459 1.386 . S
C462 C463 1.395 . S
C463 C460 1.411 . S
C463 C462 1.395 . S
C463 C485 1.420 . S
O464 Eu420 2.558 . S
O464 C484 1.257 . S
O465 Eu420 2.612 . S
O465 Eu431 2.380 . S
O465 C476 1.276 . S
O466 Eu431 2.432 . S
O466 C483 1.264 . S
O467 Eu420 2.339 . S
O467 C483 1.254 . S
O468 Eu420 2.563 . S
O468 C476 1.235 . S
O469 Eu420 2.419 . S
O469 C484 1.249 . S
O470 Eu431 2.558 . S
O470 C495 1.257 . S
O471 Eu420 2.380 . S
O471 Eu431 2.612 . S
O471 C487 1.276 . S
O472 Eu420 2.432 . S
O472 C494 1.264 . S
O473 Eu431 2.339 . S
O473 C494 1.254 . S
O474 Eu431 2.563 . S
O474 C487 1.235 . S
O475 Eu431 2.419 . S
O475 C495 1.249 . S
C476 O465 1.276 . S
C476 O468 1.235 . S
C477 C479 1.393 . S
C477 C481 1.395 . S
C477 C484 1.492 . S
C478 C479 1.392 . S
C478 C480 1.386 . S
C479 C477 1.393 . S
C479 C478 1.392 . S
C479 H496 0.930 . S
C480 C478 1.386 . S
C480 C482 1.395 . S
C480 H497 0.930 . S
C481 C477 1.395 . S
C481 C482 1.379 . S
C481 H498 0.930 . S
C482 C480 1.395 . S
C482 C481 1.379 . S
C482 H499 0.930 . S
C483 O466 1.264 . S
C483 O467 1.254 . S
C484 Eu420 2.848 . S
C484 O464 1.257 . S
C484 O469 1.249 . S
C484 C477 1.492 . S
C485 H450 0.931 . S
C485 C463 1.420 . S
C485 C486 1.351 . S
C486 H448 0.930 . S
C486 C454 1.423 . S
C486 C485 1.351 . S
C487 O471 1.276 . S
C487 O474 1.235 . S
C488 C489 1.393 . S
C488 C492 1.395 . S
C488 C495 1.492 . S
C489 C488 1.393 . S
C489 C490 1.392 . S
C489 H500 0.930 . S
C490 C489 1.392 . S
C490 C491 1.386 . S
C491 C490 1.386 . S
C491 C493 1.395 . S
C491 H501 0.930 . S
C492 C488 1.395 . S
C492 C493 1.379 . S
C492 H502 0.930 . S
C493 C491 1.395 . S
C493 C492 1.379 . S
C493 H503 0.930 . S
C494 O472 1.264 . S
C494 O473 1.254 . S
C495 Eu431 2.848 . S
C495 O470 1.257 . S
C495 O475 1.249 . S
C495 C488 1.492 . S
H496 C479 0.930 . S
H497 C480 0.930 . S
H498 C481 0.930 . S
H499 C482 0.930 . S
H500 C489 0.930 . S
H501 C491 0.930 . S
H502 C492 0.930 . S
H503 C493 0.930 . S
Eu504 N535 2.657 . S
Eu504 N542 2.609 . S
Eu504 O548 2.558 . S
Eu504 O549 2.612 . S
Eu504 O551 2.339 . S
Eu504 O552 2.563 1_545 S
Eu504 O553 2.419 . S
Eu504 O555 2.380 . S
Eu504 O556 2.432 . S
Eu504 C568 2.848 . S
C505 C508 1.429 . S
C505 C509 1.411 . S
C505 N512 1.377 1_565 S
C506 C508 1.420 . S
C506 C510 1.423 . S
C506 C518 1.392 . S
C507 C509 1.420 . S
C507 C510 1.351 . S
C507 H530 0.931 . S
C508 C505 1.429 . S
C508 C506 1.420 . S
C508 N516 1.362 . S
C509 C505 1.411 . S
C509 C507 1.420 . S
C509 C514 1.395 . S
C510 C506 1.423 . S
C510 C507 1.351 . S
C510 H522 0.930 . S
C511 C513 1.382 1_565 S
C511 C514 1.408 . S
C511 H523 0.926 1_565 S
N512 C505 1.377 1_545 S
N512 C513 1.321 . S
N512 Eu515 2.609 . S
C513 C511 1.382 1_545 S
C513 N512 1.321 . S
C513 H520 0.930 . S
C514 C509 1.395 . S
C514 C511 1.408 . S
C514 H533 0.930 . S
Eu515 N512 2.609 . S
Eu515 N516 2.657 1_545 S
Eu515 O549 2.380 . S
Eu515 O550 2.432 . S
Eu515 O554 2.558 . S
Eu515 O555 2.612 . S
Eu515 O557 2.339 . S
Eu515 O558 2.563 . S
Eu515 O559 2.419 . S
Eu515 C579 2.848 . S
N516 C508 1.362 . S
N516 Eu515 2.657 1_565 S
N516 C517 1.334 . S
C517 N516 1.334 . S
C517 C519 1.413 . S
C517 H524 0.929 . S
C518 C506 1.392 . S
C518 C519 1.367 . S
C518 H526 0.930 . S
C519 C517 1.413 . S
C519 C518 1.367 . S
C519 H521 0.930 . S
H520 C513 0.930 . S
H521 C519 0.930 . S
H522 C510 0.930 . S
H523 C511 0.926 1_545 S
H524 C517 0.929 . S
H525 C539 0.930 . S
H526 C518 0.930 . S
H527 C545 0.930 . S
H528 C536 0.929 . S
H529 C543 0.930 . S
H530 C507 0.931 . S
H531 C537 0.930 . S
H532 C570 0.930 . S
H533 C514 0.930 . S
H534 C569 0.931 . S
N535 Eu504 2.657 . S
N535 C536 1.334 . S
N535 C540 1.362 . S
C536 H528 0.929 . S
C536 N535 1.334 . S
C536 C539 1.413 . S
C537 H531 0.930 . S
C537 C538 1.392 . S
C537 C539 1.367 . S
C538 C537 1.392 . S
C538 C540 1.420 . S
C538 C570 1.423 . S
C539 H525 0.930 . S
C539 C536 1.413 . S
C539 C537 1.367 . S
C540 N535 1.362 . S
C540 C538 1.420 . S
C540 C544 1.429 . S
H541 C546 0.930 . S
N542 Eu504 2.609 . S
N542 C544 1.377 . S
N542 C545 1.321 . S
C543 H529 0.930 . S
C543 C545 1.400 . S
C543 C546 1.386 . S
C544 C540 1.429 . S
C544 N542 1.377 . S
C544 C547 1.411 . S
C545 H527 0.930 . S
C545 N542 1.321 . S
C545 C543 1.400 . S
C546 H541 0.930 . S
C546 C543 1.386 . S
C546 C547 1.395 . S
C547 C544 1.411 . S
C547 C546 1.395 . S
C547 C569 1.420 . S
O548 Eu504 2.558 . S
O548 C568 1.257 . S
O549 Eu504 2.612 . S
O549 Eu515 2.380 . S
O549 C560 1.276 1_545 S
O550 Eu515 2.432 . S
O550 C567 1.264 . S
O551 Eu504 2.339 . S
O551 C567 1.254 . S
O552 Eu504 2.563 1_565 S
O552 C560 1.235 . S
O553 Eu504 2.419 . S
O553 C568 1.249 . S
O554 Eu515 2.558 . S
O554 C579 1.257 . S
O555 Eu504 2.380 . S
O555 Eu515 2.612 . S
O555 C571 1.276 . S
O556 Eu504 2.432 . S
O556 C578 1.264 . S
O557 Eu515 2.339 . S
O557 C578 1.254 . S
O558 Eu515 2.563 . S
O558 C571 1.235 . S
O559 Eu515 2.419 . S
O559 C579 1.249 . S
C560 O549 1.276 1_565 S
C560 O552 1.235 . S
C561 C563 1.393 1_545 S
C561 C565 1.394 . S
C561 C568 1.492 . S
C562 C563 1.392 . S
C562 C564 1.386 . S
C563 C561 1.393 1_565 S
C563 C562 1.392 . S
C563 H580 0.930 . S
C564 C562 1.386 . S
C564 C566 1.395 . S
C564 H581 0.930 . S
C565 C561 1.394 . S
C565 C566 1.370 1_545 S
C565 H582 0.939 . S
C566 C564 1.395 . S
C566 C565 1.370 1_565 S
C566 H583 0.930 . S
C567 O550 1.264 . S
C567 O551 1.254 . S
C568 Eu504 2.848 . S
C568 O548 1.257 . S
C568 O553 1.249 . S
C568 C561 1.492 . S
C569 H534 0.931 . S
C569 C547 1.420 . S
C569 C570 1.351 . S
C570 H532 0.930 . S
C570 C538 1.423 . S
C570 C569 1.351 . S
C571 O555 1.276 . S
C571 O558 1.235 . S
C572 C573 1.393 . S
C572 C576 1.395 . S
C572 C579 1.492 . S
C573 C572 1.393 . S
C573 C574 1.392 . S
C573 H584 0.930 . S
C574 C573 1.392 . S
C574 C575 1.386 . S
C575 C574 1.386 . S
C575 C577 1.395 . S
C575 H585 0.930 . S
C576 C572 1.395 . S
C576 C577 1.379 . S
C576 H586 0.930 . S
C577 C575 1.395 . S
C577 C576 1.379 . S
C577 H587 0.930 . S
C578 O556 1.264 . S
C578 O557 1.254 . S
C579 Eu515 2.848 . S
C579 O554 1.257 . S
C579 O559 1.249 . S
C579 C572 1.492 . S
H580 C563 0.930 . S
H581 C564 0.930 . S
H582 C565 0.939 . S
H583 C566 0.930 . S
H584 C573 0.930 . S
H585 C575 0.930 . S
H586 C576 0.930 . S
H587 C577 0.930 . S
Eu588 N619 2.657 . S
Eu588 N626 2.609 . S
Eu588 O632 2.558 . S
Eu588 O633 2.612 . S
Eu588 O635 2.339 . S
Eu588 O636 2.563 . S
Eu588 O637 2.419 . S
Eu588 O639 2.380 . S
Eu588 O640 2.432 . S
Eu588 C652 2.848 . S
C589 C592 1.429 . S
C589 C593 1.411 . S
C589 N596 1.377 . S
C590 C592 1.420 . S
C590 C594 1.423 . S
C590 C602 1.392 . S
C591 C593 1.420 . S
C591 C594 1.351 . S
C591 H614 0.931 . S
C592 C589 1.429 . S
C592 C590 1.420 . S
C592 N600 1.362 . S
C593 C589 1.411 . S
C593 C591 1.420 . S
C593 C598 1.395 . S
C594 C590 1.423 . S
C594 C591 1.351 . S
C594 H606 0.930 . S
C595 C597 1.400 . S
C595 C598 1.386 . S
C595 H607 0.930 . S
N596 C589 1.377 . S
N596 C597 1.321 . S
N596 Eu599 2.609 . S
C597 C595 1.400 . S
C597 N596 1.321 . S
C597 H604 0.930 . S
C598 C593 1.395 . S
C598 C595 1.386 . S
C598 H617 0.930 . S
Eu599 N596 2.609 . S
Eu599 N600 2.657 . S
Eu599 O633 2.380 . S
Eu599 O634 2.432 . S
Eu599 O638 2.558 . S
Eu599 O639 2.612 . S
Eu599 O641 2.339 . S
Eu599 O642 2.563 . S
Eu599 O643 2.419 . S
Eu599 C663 2.848 . S
N600 C592 1.362 . S
N600 Eu599 2.657 . S
N600 C601 1.334 . S
C601 N600 1.334 . S
C601 C603 1.413 . S
C601 H608 0.929 . S
C602 C590 1.392 . S
C602 C603 1.367 . S
C602 H610 0.930 . S
C603 C601 1.413 . S
C603 C602 1.367 . S
C603 H605 0.930 . S
H604 C597 0.930 . S
H605 C603 0.930 . S
H606 C594 0.930 . S
H607 C595 0.930 . S
H608 C601 0.929 . S
H609 C623 0.930 . S
H610 C602 0.930 . S
H611 C629 0.930 . S
H612 C620 0.929 . S
H613 C627 0.930 . S
H614 C591 0.931 . S
H615 C621 0.930 . S
H616 C654 0.930 . S
H617 C598 0.930 . S
H618 C653 0.931 . S
N619 Eu588 2.657 . S
N619 C620 1.334 . S
N619 C624 1.362 . S
C620 H612 0.929 . S
C620 N619 1.334 . S
C620 C623 1.413 . S
C621 H615 0.930 . S
C621 C622 1.392 . S
C621 C623 1.367 . S
C622 C621 1.392 . S
C622 C624 1.420 . S
C622 C654 1.423 . S
C623 H609 0.930 . S
C623 C620 1.413 . S
C623 C621 1.367 . S
C624 N619 1.362 . S
C624 C622 1.420 . S
C624 C628 1.429 . S
H625 C630 0.930 . S
N626 Eu588 2.609 . S
N626 C628 1.377 . S
N626 C629 1.321 . S
C627 H613 0.930 . S
C627 C629 1.400 . S
C627 C630 1.386 . S
C628 C624 1.429 . S
C628 N626 1.377 . S
C628 C631 1.411 . S
C629 H611 0.930 . S
C629 N626 1.321 . S
C629 C627 1.400 . S
C630 H625 0.930 . S
C630 C627 1.386 . S
C630 C631 1.395 . S
C631 C628 1.411 . S
C631 C630 1.395 . S
C631 C653 1.420 . S
O632 Eu588 2.558 . S
O632 C652 1.257 . S
O633 Eu588 2.612 . S
O633 Eu599 2.380 . S
O633 C644 1.276 . S
O634 Eu599 2.432 . S
O634 C651 1.264 . S
O635 Eu588 2.339 . S
O635 C651 1.254 . S
O636 Eu588 2.563 . S
O636 C644 1.235 . S
O637 Eu588 2.419 . S
O637 C652 1.249 . S
O638 Eu599 2.558 . S
O638 C663 1.257 . S
O639 Eu588 2.380 . S
O639 Eu599 2.612 . S
O639 C655 1.276 . S
O640 Eu588 2.432 . S
O640 C662 1.264 . S
O641 Eu599 2.339 . S
O641 C662 1.254 . S
O642 Eu599 2.563 . S
O642 C655 1.235 . S
O643 Eu599 2.419 . S
O643 C663 1.249 . S
C644 O633 1.276 . S
C644 O636 1.235 . S
C645 C647 1.393 . S
C645 C649 1.395 . S
C645 C652 1.492 . S
C646 C647 1.392 . S
C646 C648 1.386 . S
C647 C645 1.393 . S
C647 C646 1.392 . S
C647 H664 0.930 . S
C648 C646 1.386 . S
C648 C650 1.395 . S
C648 H665 0.930 . S
C649 C645 1.395 . S
C649 C650 1.379 . S
C649 H666 0.930 . S
C650 C648 1.395 . S
C650 C649 1.379 . S
C650 H667 0.930 . S
C651 O634 1.264 . S
C651 O635 1.254 . S
C652 Eu588 2.848 . S
C652 O632 1.257 . S
C652 O637 1.249 . S
C652 C645 1.492 . S
C653 H618 0.931 . S
C653 C631 1.420 . S
C653 C654 1.351 . S
C654 H616 0.930 . S
C654 C622 1.423 . S
C654 C653 1.351 . S
C655 O639 1.276 . S
C655 O642 1.235 . S
C656 C657 1.393 . S
C656 C660 1.395 . S
C656 C663 1.492 . S
C657 C656 1.393 . S
C657 C658 1.392 . S
C657 H668 0.930 . S
C658 C657 1.392 . S
C658 C659 1.386 . S
C659 C658 1.386 . S
C659 C661 1.395 . S
C659 H669 0.930 . S
C660 C656 1.395 . S
C660 C661 1.379 . S
C660 H670 0.930 . S
C661 C659 1.395 . S
C661 C660 1.379 . S
C661 H671 0.930 . S
C662 O640 1.264 . S
C662 O641 1.254 . S
C663 Eu599 2.848 . S
C663 O638 1.257 . S
C663 O643 1.249 . S
C663 C656 1.492 . S
H664 C647 0.930 . S
H665 C648 0.930 . S
H666 C649 0.930 . S
H667 C650 0.930 . S
H668 C657 0.930 . S
H669 C659 0.930 . S
H670 C660 0.930 . S
H671 C661 0.930 . S
Eu672 N703 2.657 . S
Eu672 N710 2.609 . S
Eu672 O716 2.558 . S
Eu672 O717 2.612 . S
Eu672 O719 2.339 . S
Eu672 O720 2.563 . S
Eu672 O721 2.419 . S
Eu672 O723 2.380 . S
Eu672 O724 2.432 . S
Eu672 C736 2.848 . S
C673 C676 1.429 . S
C673 C677 1.411 . S
C673 N680 1.377 . S
C674 C676 1.420 . S
C674 C678 1.423 . S
C674 C686 1.392 . S
C675 C677 1.420 . S
C675 C678 1.351 . S
C675 H698 0.931 . S
C676 C673 1.429 . S
C676 C674 1.420 . S
C676 N684 1.362 . S
C677 C673 1.411 . S
C677 C675 1.420 . S
C677 C682 1.395 . S
C678 C674 1.423 . S
C678 C675 1.351 . S
C678 H690 0.930 . S
C679 C681 1.400 . S
C679 C682 1.386 . S
C679 H691 0.930 . S
N680 C673 1.377 . S
N680 C681 1.321 . S
N680 Eu683 2.615 . S
C681 C679 1.400 . S
C681 N680 1.321 . S
C681 H688 0.930 . S
C682 C677 1.395 . S
C682 C679 1.386 . S
C682 H701 0.930 . S
Eu683 N680 2.615 . S
Eu683 N684 2.660 . S
Eu683 O717 2.361 1_565 S
Eu683 O718 2.420 1_565 S
Eu683 O722 2.576 . S
Eu683 O723 2.599 1_565 S
Eu683 O725 2.343 . S
Eu683 O726 2.567 1_565 S
Eu683 O727 2.439 . S
Eu683 C747 2.869 . S
N684 C676 1.362 . S
N684 Eu683 2.660 . S
N684 C685 1.334 . S
C685 N684 1.334 . S
C685 C687 1.413 . S
C685 H692 0.929 . S
C686 C674 1.392 . S
C686 C687 1.367 . S
C686 H694 0.930 . S
C687 C685 1.413 . S
C687 C686 1.367 . S
C687 H689 0.930 1_455 S
H688 C681 0.930 . S
H689 C687 0.930 1_655 S
H690 C678 0.930 . S
H691 C679 0.930 . S
H692 C685 0.929 . S
H693 C707 0.930 . S
H694 C686 0.930 . S
H695 C713 0.930 . S
H696 C704 0.929 . S
H697 C711 0.930 1_655 S
H698 C675 0.931 . S
H699 C705 0.930 . S
H700 C738 0.930 . S
H701 C682 0.930 . S
H702 C737 0.931 . S
N703 Eu672 2.657 . S
N703 C704 1.334 . S
N703 C708 1.362 . S
C704 H696 0.929 . S
C704 N703 1.334 . S
C704 C707 1.413 . S
C705 H699 0.930 . S
C705 C706 1.392 . S
C705 C707 1.367 . S
C706 C705 1.392 . S
C706 C708 1.420 . S
C706 C738 1.423 . S
C707 H693 0.930 . S
C707 C704 1.413 . S
C707 C705 1.367 . S
C708 N703 1.362 . S
C708 C706 1.420 . S
C708 C712 1.429 . S
H709 C714 0.930 . S
N710 Eu672 2.609 . S
N710 C712 1.377 . S
N710 C713 1.321 . S
C711 H697 0.930 1_455 S
C711 C713 1.400 . S
C711 C714 1.386 . S
C712 C708 1.429 . S
C712 N710 1.377 . S
C712 C715 1.411 . S
C713 H695 0.930 . S
C713 N710 1.321 . S
C713 C711 1.400 . S
C714 H709 0.930 . S
C714 C711 1.386 . S
C714 C715 1.395 . S
C715 C712 1.411 . S
C715 C714 1.395 . S
C715 C737 1.420 . S
O716 Eu672 2.558 . S
O716 C736 1.257 . S
O717 Eu672 2.612 . S
O717 Eu683 2.361 1_545 S
O717 C728 1.276 . S
O718 Eu683 2.420 1_545 S
O718 C735 1.264 . S
O719 Eu672 2.339 . S
O719 C735 1.254 . S
O720 Eu672 2.563 . S
O720 C728 1.235 . S
O721 Eu672 2.419 . S
O721 C736 1.249 . S
O722 Eu683 2.576 . S
O722 C747 1.257 . S
O723 Eu672 2.380 . S
O723 Eu683 2.599 1_545 S
O723 C739 1.276 . S
O724 Eu672 2.432 . S
O724 C746 1.264 . S
O725 Eu683 2.343 . S
O725 C746 1.225 1_565 S
O726 Eu683 2.567 1_545 S
O726 C739 1.235 . S
O727 Eu683 2.439 . S
O727 C747 1.249 . S
C728 O717 1.276 . S
C728 O720 1.235 . S
C729 C731 1.393 . S
C729 C733 1.395 . S
C729 C736 1.492 . S
C730 C731 1.392 . S
C730 C732 1.386 . S
C731 C729 1.393 . S
C731 C730 1.392 . S
C731 H748 0.930 . S
C732 C730 1.386 . S
C732 C734 1.395 . S
C732 H749 0.930 . S
C733 C729 1.395 . S
C733 C734 1.379 . S
C733 H750 0.930 . S
C734 C732 1.395 . S
C734 C733 1.379 . S
C734 H751 0.930 . S
C735 O718 1.264 . S
C735 O719 1.254 . S
C736 Eu672 2.848 . S
C736 O716 1.257 . S
C736 O721 1.249 . S
C736 C729 1.492 . S
C737 H702 0.931 . S
C737 C715 1.420 . S
C737 C738 1.351 . S
C738 H700 0.930 . S
C738 C706 1.423 . S
C738 C737 1.351 . S
C739 O723 1.276 . S
C739 O726 1.235 . S
C740 C741 1.393 . S
C740 C744 1.395 . S
C740 C747 1.492 . S
C741 C740 1.393 . S
C741 C742 1.392 . S
C741 H752 0.930 . S
C742 C741 1.392 . S
C742 C743 1.386 . S
C743 C742 1.386 . S
C743 C745 1.395 . S
C743 H753 0.930 . S
C744 C740 1.395 . S
C744 C745 1.379 . S
C744 H754 0.930 . S
C745 C743 1.395 . S
C745 C744 1.379 . S
C745 H755 0.930 . S
C746 O724 1.264 . S
C746 O725 1.225 1_545 S
C747 Eu683 2.869 . S
C747 O722 1.257 . S
C747 O727 1.249 . S
C747 C740 1.492 . S
H748 C731 0.930 . S
H749 C732 0.930 . S
H750 C733 0.930 . S
H751 C734 0.930 . S
H752 C741 0.930 . S
H753 C743 0.930 . S
H754 C744 0.930 . S
H755 C745 0.930 . S
Eu756 N787 2.657 . S
Eu756 N794 2.609 . S
Eu756 O800 2.558 . S
Eu756 O801 2.612 . S
Eu756 O803 2.339 . S
Eu756 O804 2.563 . S
Eu756 O805 2.419 . S
Eu756 O807 2.380 . S
Eu756 O808 2.432 . S
Eu756 C820 2.848 . S
C757 C760 1.429 . S
C757 C761 1.411 . S
C757 N764 1.377 . S
C758 C760 1.420 . S
C758 C762 1.423 . S
C758 C770 1.392 . S
C759 C761 1.420 . S
C759 C762 1.351 . S
C759 H782 0.931 . S
C760 C757 1.429 . S
C760 C758 1.420 . S
C760 N768 1.362 . S
C761 C757 1.411 . S
C761 C759 1.420 . S
C761 C766 1.395 . S
C762 C758 1.423 . S
C762 C759 1.351 . S
C762 H774 0.930 . S
C763 C765 1.400 . S
C763 C766 1.386 . S
C763 H775 0.930 . S
N764 C757 1.377 . S
N764 C765 1.321 . S
N764 Eu767 2.609 . S
C765 C763 1.400 . S
C765 N764 1.321 . S
C765 H772 0.930 . S
C766 C761 1.395 . S
C766 C763 1.386 . S
C766 H785 0.930 . S
Eu767 N764 2.609 . S
Eu767 N768 2.657 . S
Eu767 O801 2.380 . S
Eu767 O802 2.432 . S
Eu767 O806 2.558 . S
Eu767 O807 2.612 . S
Eu767 O809 2.339 . S
Eu767 O810 2.563 . S
Eu767 O811 2.419 . S
Eu767 C831 2.848 . S
N768 C760 1.362 . S
N768 Eu767 2.657 . S
N768 C769 1.334 . S
C769 N768 1.334 . S
C769 C771 1.413 . S
C769 H776 0.929 . S
C770 C758 1.392 . S
C770 C771 1.367 . S
C770 H778 0.930 . S
C771 C769 1.413 . S
C771 C770 1.367 . S
C771 H773 0.930 . S
H772 C765 0.930 . S
H773 C771 0.930 . S
H774 C762 0.930 . S
H775 C763 0.930 . S
H776 C769 0.929 . S
H777 C791 0.930 . S
H778 C770 0.930 . S
H779 C797 0.930 . S
H780 C788 0.929 . S
H781 C795 0.930 . S
H782 C759 0.931 . S
H783 C789 0.930 . S
H784 C822 0.930 . S
H785 C766 0.930 . S
H786 C821 0.931 . S
N787 Eu756 2.657 . S
N787 C788 1.334 . S
N787 C792 1.362 . S
C788 H780 0.929 . S
C788 N787 1.334 . S
C788 C791 1.413 . S
C789 H783 0.930 . S
C789 C790 1.392 . S
C789 C791 1.367 . S
C790 C789 1.392 . S
C790 C792 1.420 . S
C790 C822 1.423 . S
C791 H777 0.930 . S
C791 C788 1.413 . S
C791 C789 1.367 . S
C792 N787 1.362 . S
C792 C790 1.420 . S
C792 C796 1.429 . S
H793 C798 0.930 . S
N794 Eu756 2.609 . S
N794 C796 1.377 . S
N794 C797 1.321 . S
C795 H781 0.930 . S
C795 C797 1.400 . S
C795 C798 1.386 . S
C796 C792 1.429 . S
C796 N794 1.377 . S
C796 C799 1.411 . S
C797 H779 0.930 . S
C797 N794 1.321 . S
C797 C795 1.400 . S
C798 H793 0.930 . S
C798 C795 1.386 . S
C798 C799 1.395 . S
C799 C796 1.411 . S
C799 C798 1.395 . S
C799 C821 1.420 . S
O800 Eu756 2.558 . S
O800 C820 1.257 . S
O801 Eu756 2.612 . S
O801 Eu767 2.380 . S
O801 C812 1.276 . S
O802 Eu767 2.432 . S
O802 C819 1.264 . S
O803 Eu756 2.339 . S
O803 C819 1.254 . S
O804 Eu756 2.563 . S
O804 C812 1.235 . S
O805 Eu756 2.419 . S
O805 C820 1.249 . S
O806 Eu767 2.558 . S
O806 C831 1.257 . S
O807 Eu756 2.380 . S
O807 Eu767 2.612 . S
O807 C823 1.276 . S
O808 Eu756 2.432 . S
O808 C830 1.264 . S
O809 Eu767 2.339 . S
O809 C830 1.254 . S
O810 Eu767 2.563 . S
O810 C823 1.235 . S
O811 Eu767 2.419 . S
O811 C831 1.249 . S
C812 O801 1.276 . S
C812 O804 1.235 . S
C813 C815 1.393 . S
C813 C817 1.395 . S
C813 C820 1.492 . S
C814 C815 1.392 . S
C814 C816 1.386 . S
C815 C813 1.393 . S
C815 C814 1.392 . S
C815 H832 0.930 . S
C816 C814 1.386 . S
C816 C818 1.395 . S
C816 H833 0.930 . S
C817 C813 1.395 . S
C817 C818 1.379 . S
C817 H834 0.930 . S
C818 C816 1.395 . S
C818 C817 1.379 . S
C818 H835 0.930 . S
C819 O802 1.264 . S
C819 O803 1.254 . S
C820 Eu756 2.848 . S
C820 O800 1.257 . S
C820 O805 1.249 . S
C820 C813 1.492 . S
C821 H786 0.931 . S
C821 C799 1.420 . S
C821 C822 1.351 . S
C822 H784 0.930 . S
C822 C790 1.423 . S
C822 C821 1.351 . S
C823 O807 1.276 . S
C823 O810 1.235 . S
C824 C825 1.393 . S
C824 C828 1.395 . S
C824 C831 1.492 . S
C825 C824 1.393 . S
C825 C826 1.392 . S
C825 H836 0.930 . S
C826 C825 1.392 . S
C826 C827 1.386 . S
C827 C826 1.386 . S
C827 C829 1.395 . S
C827 H837 0.930 . S
C828 C824 1.395 . S
C828 C829 1.379 . S
C828 H838 0.930 . S
C829 C827 1.395 . S
C829 C828 1.379 . S
C829 H839 0.930 . S
C830 O808 1.264 . S
C830 O809 1.254 . S
C831 Eu767 2.848 . S
C831 O806 1.257 . S
C831 O811 1.249 . S
C831 C824 1.492 . S
H832 C815 0.930 . S
H833 C816 0.930 . S
H834 C817 0.930 . S
H835 C818 0.930 . S
H836 C825 0.930 . S
H837 C827 0.930 . S
H838 C828 0.930 . S
H839 C829 0.930 . S
Eu840 N871 2.657 . S
Eu840 N878 2.609 . S
Eu840 O884 2.558 1_545 S
Eu840 O885 2.612 . S
Eu840 O887 2.339 . S
Eu840 O888 2.563 . S
Eu840 O889 2.419 . S
Eu840 O891 2.380 . S
Eu840 O892 2.432 1_545 S
Eu840 C904 2.848 . S
C841 C844 1.429 . S
C841 C845 1.411 . S
C841 N848 1.377 . S
C842 C844 1.420 . S
C842 C846 1.423 . S
C842 C854 1.392 1_545 S
C843 C845 1.420 . S
C843 C846 1.351 . S
C843 H866 0.931 . S
C844 C841 1.429 . S
C844 C842 1.420 . S
C844 N852 1.362 . S
C845 C841 1.411 . S
C845 C843 1.420 . S
C845 C850 1.395 . S
C846 C842 1.423 . S
C846 C843 1.351 . S
C846 H858 0.930 . S
C847 C849 1.400 . S
C847 C850 1.386 . S
C847 H859 0.930 . S
N848 C841 1.377 . S
N848 C849 1.321 . S
N848 Eu851 2.609 . S
C849 C847 1.400 . S
C849 N848 1.321 . S
C849 H856 0.930 . S
C850 C845 1.395 . S
C850 C847 1.386 . S
C850 H869 0.930 . S
Eu851 N848 2.609 . S
Eu851 N852 2.657 . S
Eu851 O885 2.380 1_556 S
Eu851 O886 2.432 1_556 S
Eu851 O890 2.558 . S
Eu851 O891 2.612 1_556 S
Eu851 O893 2.339 . S
Eu851 O894 2.563 . S
Eu851 O895 2.419 . S
Eu851 C915 2.848 . S
N852 C844 1.362 . S
N852 Eu851 2.657 . S
N852 C853 1.334 1_545 S
C853 N852 1.334 1_565 S
C853 C855 1.413 . S
C853 H860 0.929 . S
C854 C842 1.392 1_565 S
C854 C855 1.367 . S
C854 H862 0.930 . S
C855 C853 1.413 . S
C855 C854 1.367 . S
C855 H857 0.930 . S
H856 C849 0.930 . S
H857 C855 0.930 . S
H858 C846 0.930 . S
H859 C847 0.930 . S
H860 C853 0.929 . S
H861 C875 0.930 . S
H862 C854 0.930 . S
H863 C881 0.930 . S
H864 C872 0.929 . S
H865 C879 0.930 . S
H866 C843 0.931 . S
H867 C873 0.930 . S
H868 C906 0.930 . S
H869 C850 0.930 . S
H870 C905 0.931 . S
N871 Eu840 2.657 . S
N871 C872 1.334 . S
N871 C876 1.362 . S
C872 H864 0.929 . S
C872 N871 1.334 . S
C872 C875 1.413 . S
C873 H867 0.930 . S
C873 C874 1.392 . S
C873 C875 1.367 . S
C874 C873 1.392 . S
C874 C876 1.420 . S
C874 C906 1.423 . S
C875 H861 0.930 . S
C875 C872 1.413 . S
C875 C873 1.367 . S
C876 N871 1.362 . S
C876 C874 1.420 . S
C876 C880 1.429 . S
H877 C882 0.930 . S
N878 Eu840 2.609 . S
N878 C880 1.377 . S
N878 C881 1.321 1_545 S
C879 H865 0.930 . S
C879 C881 1.400 . S
C879 C882 1.386 . S
C880 C876 1.429 . S
C880 N878 1.377 . S
C880 C883 1.411 . S
C881 H863 0.930 . S
C881 N878 1.321 1_565 S
C881 C879 1.400 . S
C882 H877 0.930 . S
C882 C879 1.386 . S
C882 C883 1.395 1_565 S
C883 C880 1.411 . S
C883 C882 1.395 1_545 S
C883 C905 1.420 . S
O884 Eu840 2.558 1_565 S
O884 C904 1.257 1_565 S
O885 Eu840 2.612 . S
O885 Eu851 2.380 1_554 S
O885 C896 1.276 . S
O886 Eu851 2.432 1_554 S
O886 C903 1.264 . S
O887 Eu840 2.339 . S
O887 C903 1.254 . S
O888 Eu840 2.563 . S
O888 C896 1.235 . S
O889 Eu840 2.419 . S
O889 C904 1.249 . S
O890 Eu851 2.558 . S
O890 C915 1.257 . S
O891 Eu840 2.380 . S
O891 Eu851 2.612 1_554 S
O891 C907 1.276 . S
O892 Eu840 2.432 1_565 S
O892 C914 1.264 1_554 S
O893 Eu851 2.339 . S
O893 C914 1.254 1_545 S
O894 Eu851 2.563 . S
O894 C907 1.235 1_556 S
O895 Eu851 2.419 . S
O895 C915 1.249 . S
C896 O885 1.276 . S
C896 O888 1.235 . S
C897 C899 1.393 . S
C897 C901 1.395 1_545 S
C897 C904 1.492 . S
C898 C899 1.392 . S
C898 C900 1.386 1_545 S
C899 C897 1.393 . S
C899 C898 1.392 . S
C899 H916 0.930 . S
C900 C898 1.386 1_565 S
C900 C902 1.395 . S
C900 H917 0.930 . S
C901 C897 1.395 1_565 S
C901 C902 1.379 . S
C901 H918 0.930 . S
C902 C900 1.395 . S
C902 C901 1.379 . S
C902 H919 0.930 . S
C903 O886 1.264 . S
C903 O887 1.254 . S
C904 Eu840 2.848 . S
C904 O884 1.257 1_545 S
C904 O889 1.249 . S
C904 C897 1.492 . S
C905 H870 0.931 . S
C905 C883 1.420 . S
C905 C906 1.351 . S
C906 H868 0.930 . S
C906 C874 1.423 . S
C906 C905 1.351 . S
C907 O891 1.276 . S
C907 O894 1.235 1_554 S
C908 C909 1.393 . S
C908 C912 1.395 . S
C908 C915 1.492 . S
C909 C908 1.393 . S
C909 C910 1.392 . S
C909 H920 0.930 . S
C910 C909 1.392 . S
C910 C911 1.386 . S
C911 C910 1.386 . S
C911 C913 1.395 . S
C911 H921 0.930 . S
C912 C908 1.395 . S
C912 C913 1.379 . S
C912 H922 0.930 . S
C913 C911 1.395 . S
C913 C912 1.379 . S
C913 H923 0.930 . S
C914 O892 1.264 1_556 S
C914 O893 1.254 1_565 S
C915 Eu851 2.848 . S
C915 O890 1.257 . S
C915 O895 1.249 . S
C915 C908 1.492 . S
H916 C899 0.930 . S
H917 C900 0.930 . S
H918 C901 0.930 . S
H919 C902 0.930 . S
H920 C909 0.930 . S
H921 C911 0.930 . S
H922 C912 0.930 . S
H923 C913 0.930 . S
Eu924 N955 2.657 . S
Eu924 N962 2.609 . S
Eu924 O968 2.558 . S
Eu924 O969 2.612 . S
Eu924 O971 2.339 . S
Eu924 O972 2.563 . S
Eu924 O973 2.419 . S
Eu924 O975 2.380 . S
Eu924 O976 2.432 . S
Eu924 C988 2.848 . S
C925 C928 1.429 . S
C925 C929 1.411 . S
C925 N932 1.377 . S
C926 C928 1.420 . S
C926 C930 1.423 . S
C926 C938 1.392 . S
C927 C929 1.420 . S
C927 C930 1.351 . S
C927 H950 0.931 . S
C928 C925 1.429 . S
C928 C926 1.420 . S
C928 N936 1.362 . S
C929 C925 1.411 . S
C929 C927 1.420 . S
C929 C934 1.395 . S
C930 C926 1.423 . S
C930 C927 1.351 . S
C930 H942 0.930 . S
C931 C933 1.400 . S
C931 C934 1.386 . S
C931 H943 0.930 . S
N932 C925 1.377 . S
N932 C933 1.321 . S
N932 Eu935 2.609 . S
C933 C931 1.400 . S
C933 N932 1.321 . S
C933 H940 0.930 . S
C934 C929 1.395 . S
C934 C931 1.386 . S
C934 H953 0.930 . S
Eu935 N932 2.609 . S
Eu935 N936 2.657 . S
Eu935 O969 2.380 . S
Eu935 O970 2.432 . S
Eu935 O974 2.558 . S
Eu935 O975 2.612 . S
Eu935 O977 2.339 . S
Eu935 O978 2.563 . S
Eu935 O979 2.419 . S
Eu935 C999 2.848 . S
N936 C928 1.362 . S
N936 Eu935 2.657 . S
N936 C937 1.334 . S
C937 N936 1.334 . S
C937 C939 1.413 . S
C937 H944 0.929 . S
C938 C926 1.392 . S
C938 C939 1.367 . S
C938 H946 0.930 . S
C939 C937 1.413 . S
C939 C938 1.367 . S
C939 H941 0.930 . S
H940 C933 0.930 . S
H941 C939 0.930 . S
H942 C930 0.930 . S
H943 C931 0.930 . S
H944 C937 0.929 . S
H945 C959 0.930 . S
H946 C938 0.930 . S
H947 C965 0.930 . S
H948 C956 0.929 . S
H949 C963 0.930 . S
H950 C927 0.931 . S
H951 C957 0.930 . S
H952 C990 0.930 . S
H953 C934 0.930 . S
H954 C989 0.931 . S
N955 Eu924 2.657 . S
N955 C956 1.334 . S
N955 C960 1.362 . S
C956 H948 0.929 . S
C956 N955 1.334 . S
C956 C959 1.413 . S
C957 H951 0.930 . S
C957 C958 1.392 . S
C957 C959 1.367 . S
C958 C957 1.392 . S
C958 C960 1.420 . S
C958 C990 1.423 . S
C959 H945 0.930 . S
C959 C956 1.413 . S
C959 C957 1.367 . S
C960 N955 1.362 . S
C960 C958 1.420 . S
C960 C964 1.429 . S
H961 C966 0.930 . S
N962 Eu924 2.609 . S
N962 C964 1.377 . S
N962 C965 1.321 . S
C963 H949 0.930 . S
C963 C965 1.400 . S
C963 C966 1.386 . S
C964 C960 1.429 . S
C964 N962 1.377 . S
C964 C967 1.411 . S
C965 H947 0.930 . S
C965 N962 1.321 . S
C965 C963 1.400 . S
C966 H961 0.930 . S
C966 C963 1.386 . S
C966 C967 1.395 . S
C967 C964 1.411 . S
C967 C966 1.395 . S
C967 C989 1.420 . S
O968 Eu924 2.558 . S
O968 C988 1.257 . S
O969 Eu924 2.612 . S
O969 Eu935 2.380 . S
O969 C980 1.276 . S
O970 Eu935 2.432 . S
O970 C987 1.264 . S
O971 Eu924 2.339 . S
O971 C987 1.254 . S
O972 Eu924 2.563 . S
O972 C980 1.235 . S
O973 Eu924 2.419 . S
O973 C988 1.249 . S
O974 Eu935 2.558 . S
O974 C999 1.257 . S
O975 Eu924 2.380 . S
O975 Eu935 2.612 . S
O975 C991 1.276 . S
O976 Eu924 2.432 . S
O976 C998 1.264 . S
O977 Eu935 2.339 . S
O977 C998 1.254 . S
O978 Eu935 2.563 . S
O978 C991 1.235 . S
O979 Eu935 2.419 . S
O979 C999 1.249 . S
C980 O969 1.276 . S
C980 O972 1.235 . S
C981 C983 1.393 . S
C981 C985 1.395 . S
C981 C988 1.492 . S
C982 C983 1.392 . S
C982 C984 1.386 . S
C983 C981 1.393 . S
C983 C982 1.392 . S
C983 H1000 0.930 . S
C984 C982 1.386 . S
C984 C986 1.395 . S
C984 H1001 0.930 . S
C985 C981 1.395 . S
C985 C986 1.379 . S
C985 H1002 0.930 . S
C986 C984 1.395 . S
C986 C985 1.379 . S
C986 H1003 0.930 . S
C987 O970 1.264 . S
C987 O971 1.254 . S
C988 Eu924 2.848 . S
C988 O968 1.257 . S
C988 O973 1.249 . S
C988 C981 1.492 . S
C989 H954 0.931 . S
C989 C967 1.420 . S
C989 C990 1.351 . S
C990 H952 0.930 . S
C990 C958 1.423 . S
C990 C989 1.351 . S
C991 O975 1.276 . S
C991 O978 1.235 . S
C992 C993 1.393 . S
C992 C996 1.395 . S
C992 C999 1.492 . S
C993 C992 1.393 . S
C993 C994 1.392 . S
C993 H1004 0.930 . S
C994 C993 1.392 . S
C994 C995 1.386 . S
C995 C994 1.386 . S
C995 C997 1.395 . S
C995 H1005 0.930 . S
C996 C992 1.395 . S
C996 C997 1.379 . S
C996 H1006 0.930 . S
C997 C995 1.395 . S
C997 C996 1.379 . S
C997 H1007 0.930 . S
C998 O976 1.264 . S
C998 O977 1.254 . S
C999 Eu935 2.848 . S
C999 O974 1.257 . S
C999 O979 1.249 . S
C999 C992 1.492 . S
H1000 C983 0.930 . S
H1001 C984 0.930 . S
H1002 C985 0.930 . S
H1003 C986 0.930 . S
H1004 C993 0.930 . S
H1005 C995 0.930 . S
H1006 C996 0.930 . S
H1007 C997 0.930 . S
Eu1008 N1039 2.657 . S
Eu1008 N1046 2.609 . S
Eu1008 O1052 2.558 . S
Eu1008 O1053 2.612 1_554 S
Eu1008 O1055 2.339 . S
Eu1008 O1056 2.563 1_554 S
Eu1008 O1057 2.419 . S
Eu1008 O1059 2.380 . S
Eu1008 O1060 2.432 . S
Eu1008 C1072 2.848 . S
C1009 C1012 1.429 . S
C1009 C1013 1.411 . S
C1009 N1016 1.377 . S
C1010 C1012 1.420 . S
C1010 C1014 1.423 . S
C1010 C1022 1.392 . S
C1011 C1013 1.420 . S
C1011 C1014 1.351 . S
C1011 H1034 0.931 . S
C1012 C1009 1.429 . S
C1012 C1010 1.420 . S
C1012 N1020 1.362 . S
C1013 C1009 1.411 . S
C1013 C1011 1.420 . S
C1013 C1018 1.395 . S
C1014 C1010 1.423 . S
C1014 C1011 1.351 . S
C1014 H1026 0.930 . S
C1015 C1017 1.400 . S
C1015 C1018 1.386 . S
C1015 H1027 0.930 . S
N1016 C1009 1.377 . S
N1016 C1017 1.321 . S
N1016 Eu1019 2.609 1_556 S
C1017 C1015 1.400 . S
C1017 N1016 1.321 . S
C1017 H1024 0.930 . S
C1018 C1013 1.395 . S
C1018 C1015 1.386 . S
C1018 H1037 0.930 . S
Eu1019 N1016 2.609 1_554 S
Eu1019 N1020 2.657 1_554 S
Eu1019 O1053 2.380 1_554 S
Eu1019 O1054 2.432 . S
Eu1019 O1058 2.558 . S
Eu1019 O1059 2.612 . S
Eu1019 O1061 2.339 . S
Eu1019 O1062 2.563 . S
Eu1019 O1063 2.419 . S
Eu1019 C1083 2.848 . S
N1020 C1012 1.362 . S
N1020 Eu1019 2.657 1_556 S
N1020 C1021 1.334 . S
C1021 N1020 1.334 . S
C1021 C1023 1.413 . S
C1021 H1028 0.929 . S
C1022 C1010 1.392 . S
C1022 C1023 1.367 . S
C1022 H1030 0.930 . S
C1023 C1021 1.413 . S
C1023 C1022 1.367 . S
C1023 H1025 0.930 . S
H1024 C1017 0.930 . S
H1025 C1023 0.930 . S
H1026 C1014 0.930 . S
H1027 C1015 0.930 . S
H1028 C1021 0.929 . S
H1029 C1043 0.930 . S
H1030 C1022 0.930 . S
H1031 C1049 0.930 . S
H1032 C1040 0.929 . S
H1033 C1047 0.930 . S
H1034 C1011 0.931 . S
H1035 C1041 0.930 . S
H1036 C1074 0.930 . S
H1037 C1018 0.930 . S
H1038 C1073 0.931 . S
N1039 Eu1008 2.657 . S
N1039 C1040 1.334 . S
N1039 C1044 1.362 . S
C1040 H1032 0.929 . S
C1040 N1039 1.334 . S
C1040 C1043 1.413 . S
C1041 H1035 0.930 . S
C1041 C1042 1.392 . S
C1041 C1043 1.367 . S
C1042 C1041 1.392 . S
C1042 C1044 1.420 . S
C1042 C1074 1.423 . S
C1043 H1029 0.930 . S
C1043 C1040 1.413 . S
C1043 C1041 1.367 . S
C1044 N1039 1.362 . S
C1044 C1042 1.420 . S
C1044 C1048 1.429 . S
H1045 C1050 0.930 . S
N1046 Eu1008 2.609 . S
N1046 C1048 1.377 . S
N1046 C1049 1.321 . S
C1047 H1033 0.930 . S
C1047 C1049 1.400 . S
C1047 C1050 1.386 . S
C1048 C1044 1.429 . S
C1048 N1046 1.377 . S
C1048 C1051 1.411 . S
C1049 H1031 0.930 . S
C1049 N1046 1.321 . S
C1049 C1047 1.400 . S
C1050 H1045 0.930 . S
C1050 C1047 1.386 . S
C1050 C1051 1.395 . S
C1051 C1048 1.411 . S
C1051 C1050 1.395 . S
C1051 C1073 1.420 . S
O1052 Eu1008 2.558 . S
O1052 C1072 1.257 . S
O1053 Eu1008 2.612 1_556 S
O1053 Eu1019 2.380 1_556 S
O1053 C1064 1.276 . S
O1054 Eu1019 2.432 . S
O1054 C1071 1.264 . S
O1055 Eu1008 2.339 . S
O1055 C1071 1.254 . S
O1056 Eu1008 2.563 1_556 S
O1056 C1064 1.235 . S
O1057 Eu1008 2.419 . S
O1057 C1072 1.249 . S
O1058 Eu1019 2.558 . S
O1058 C1083 1.257 . S
O1059 Eu1008 2.380 . S
O1059 Eu1019 2.612 . S
O1059 C1075 1.276 . S
O1060 Eu1008 2.432 . S
O1060 C1082 1.264 . S
O1061 Eu1019 2.339 . S
O1061 C1082 1.254 . S
O1062 Eu1019 2.563 . S
O1062 C1075 1.235 . S
O1063 Eu1019 2.419 . S
O1063 C1083 1.249 . S
C1064 O1053 1.276 . S
C1064 O1056 1.235 . S
C1065 C1067 1.393 . S
C1065 C1069 1.395 . S
C1065 C1072 1.492 . S
C1066 C1067 1.392 1_556 S
C1066 C1068 1.386 1_556 S
C1067 C1065 1.393 . S
C1067 C1066 1.392 1_554 S
C1067 H1084 0.930 1_554 S
C1068 C1066 1.386 1_554 S
C1068 C1070 1.395 . S
C1068 H1085 0.930 . S
C1069 C1065 1.395 . S
C1069 C1070 1.379 . S
C1069 H1086 0.930 . S
C1070 C1068 1.395 . S
C1070 C1069 1.379 . S
C1070 H1087 0.930 . S
C1071 O1054 1.264 . S
C1071 O1055 1.254 . S
C1072 Eu1008 2.848 . S
C1072 O1052 1.257 . S
C1072 O1057 1.249 . S
C1072 C1065 1.492 . S
C1073 H1038 0.931 . S
C1073 C1051 1.420 . S
C1073 C1074 1.351 . S
C1074 H1036 0.930 . S
C1074 C1042 1.423 . S
C1074 C1073 1.351 . S
C1075 O1059 1.276 . S
C1075 O1062 1.235 . S
C1076 C1077 1.393 . S
C1076 C1080 1.395 . S
C1076 C1083 1.492 . S
C1077 C1076 1.393 . S
C1077 C1078 1.392 . S
C1077 H1088 0.930 . S
C1078 C1077 1.392 . S
C1078 C1079 1.386 . S
C1079 C1078 1.386 . S
C1079 C1081 1.395 . S
C1079 H1089 0.930 . S
C1080 C1076 1.395 . S
C1080 C1081 1.379 . S
C1080 H1090 0.930 . S
C1081 C1079 1.395 . S
C1081 C1080 1.379 . S
C1081 H1091 0.930 . S
C1082 O1060 1.264 . S
C1082 O1061 1.254 . S
C1083 Eu1019 2.848 . S
C1083 O1058 1.257 . S
C1083 O1063 1.249 . S
C1083 C1076 1.492 . S
H1084 C1067 0.930 1_556 S
H1085 C1068 0.930 . S
H1086 C1069 0.930 . S
H1087 C1070 0.930 . S
H1088 C1077 0.930 . S
H1089 C1079 0.930 . S
H1090 C1080 0.930 . S
H1091 C1081 0.930 . S
Eu1092 N1123 2.657 . S
Eu1092 N1130 2.609 . S
Eu1092 O1136 2.558 . S
Eu1092 O1137 2.612 . S
Eu1092 O1139 2.339 . S
Eu1092 O1140 2.563 . S
Eu1092 O1141 2.419 . S
Eu1092 O1143 2.380 . S
Eu1092 O1144 2.432 . S
Eu1092 C1156 2.848 . S
C1093 C1096 1.429 . S
C1093 C1097 1.411 . S
C1093 N1100 1.377 . S
C1094 C1096 1.420 . S
C1094 C1098 1.423 . S
C1094 C1106 1.392 . S
C1095 C1097 1.420 . S
C1095 C1098 1.351 . S
C1095 H1118 0.931 . S
C1096 C1093 1.429 . S
C1096 C1094 1.420 . S
C1096 N1104 1.362 . S
C1097 C1093 1.411 . S
C1097 C1095 1.420 . S
C1097 C1102 1.395 . S
C1098 C1094 1.423 . S
C1098 C1095 1.351 . S
C1098 H1110 0.930 . S
C1099 C1101 1.400 . S
C1099 C1102 1.386 . S
C1099 H1111 0.930 . S
N1100 C1093 1.377 . S
N1100 C1101 1.321 . S
N1100 Eu1103 2.609 . S
C1101 C1099 1.400 . S
C1101 N1100 1.321 . S
C1101 H1108 0.930 . S
C1102 C1097 1.395 . S
C1102 C1099 1.386 . S
C1102 H1121 0.930 . S
Eu1103 N1100 2.609 . S
Eu1103 N1104 2.657 . S
Eu1103 O1137 2.380 . S
Eu1103 O1138 2.432 . S
Eu1103 O1142 2.558 . S
Eu1103 O1143 2.612 . S
Eu1103 O1145 2.339 . S
Eu1103 O1146 2.563 . S
Eu1103 O1147 2.419 . S
Eu1103 C1167 2.848 . S
N1104 C1096 1.362 . S
N1104 Eu1103 2.657 . S
N1104 C1105 1.334 . S
C1105 N1104 1.334 . S
C1105 C1107 1.413 . S
C1105 H1112 0.929 . S
C1106 C1094 1.392 . S
C1106 C1107 1.367 . S
C1106 H1114 0.930 . S
C1107 C1105 1.413 . S
C1107 C1106 1.367 . S
C1107 H1109 0.930 . S
H1108 C1101 0.930 . S
H1109 C1107 0.930 . S
H1110 C1098 0.930 . S
H1111 C1099 0.930 . S
H1112 C1105 0.929 . S
H1113 C1127 0.930 . S
H1114 C1106 0.930 . S
H1115 C1133 0.930 . S
H1116 C1124 0.929 . S
H1117 C1131 0.930 . S
H1118 C1095 0.931 . S
H1119 C1125 0.930 . S
H1120 C1158 0.930 . S
H1121 C1102 0.930 . S
H1122 C1157 0.931 . S
N1123 Eu1092 2.657 . S
N1123 C1124 1.334 . S
N1123 C1128 1.362 . S
C1124 H1116 0.929 . S
C1124 N1123 1.334 . S
C1124 C1127 1.413 . S
C1125 H1119 0.930 . S
C1125 C1126 1.392 . S
C1125 C1127 1.367 . S
C1126 C1125 1.392 . S
C1126 C1128 1.420 . S
C1126 C1158 1.423 . S
C1127 H1113 0.930 . S
C1127 C1124 1.413 . S
C1127 C1125 1.367 . S
C1128 N1123 1.362 . S
C1128 C1126 1.420 . S
C1128 C1132 1.429 . S
H1129 C1134 0.930 . S
N1130 Eu1092 2.609 . S
N1130 C1132 1.377 . S
N1130 C1133 1.321 . S
C1131 H1117 0.930 . S
C1131 C1133 1.400 . S
C1131 C1134 1.386 . S
C1132 C1128 1.429 . S
C1132 N1130 1.377 . S
C1132 C1135 1.411 . S
C1133 H1115 0.930 . S
C1133 N1130 1.321 . S
C1133 C1131 1.400 . S
C1134 H1129 0.930 . S
C1134 C1131 1.386 . S
C1134 C1135 1.395 . S
C1135 C1132 1.411 . S
C1135 C1134 1.395 . S
C1135 C1157 1.420 . S
O1136 Eu1092 2.558 . S
O1136 C1156 1.257 . S
O1137 Eu1092 2.612 . S
O1137 Eu1103 2.380 . S
O1137 C1148 1.276 . S
O1138 Eu1103 2.432 . S
O1138 C1155 1.264 . S
O1139 Eu1092 2.339 . S
O1139 C1155 1.254 . S
O1140 Eu1092 2.563 . S
O1140 C1148 1.235 . S
O1141 Eu1092 2.419 . S
O1141 C1156 1.249 . S
O1142 Eu1103 2.558 . S
O1142 C1167 1.257 . S
O1143 Eu1092 2.380 . S
O1143 Eu1103 2.612 . S
O1143 C1159 1.276 . S
O1144 Eu1092 2.432 . S
O1144 C1166 1.264 . S
O1145 Eu1103 2.339 . S
O1145 C1166 1.254 . S
O1146 Eu1103 2.563 . S
O1146 C1159 1.235 . S
O1147 Eu1103 2.419 . S
O1147 C1167 1.249 . S
C1148 O1137 1.276 . S
C1148 O1140 1.235 . S
C1149 C1151 1.393 . S
C1149 C1153 1.395 . S
C1149 C1156 1.492 . S
C1150 C1151 1.392 . S
C1150 C1152 1.386 . S
C1151 C1149 1.393 . S
C1151 C1150 1.392 . S
C1151 H1168 0.930 . S
C1152 C1150 1.386 . S
C1152 C1154 1.395 . S
C1152 H1169 0.930 . S
C1153 C1149 1.395 . S
C1153 C1154 1.379 . S
C1153 H1170 0.930 . S
C1154 C1152 1.395 . S
C1154 C1153 1.379 . S
C1154 H1171 0.930 . S
C1155 O1138 1.264 . S
C1155 O1139 1.254 . S
C1156 Eu1092 2.848 . S
C1156 O1136 1.257 . S
C1156 O1141 1.249 . S
C1156 C1149 1.492 . S
C1157 H1122 0.931 . S
C1157 C1135 1.420 . S
C1157 C1158 1.351 . S
C1158 H1120 0.930 . S
C1158 C1126 1.423 . S
C1158 C1157 1.351 . S
C1159 O1143 1.276 . S
C1159 O1146 1.235 . S
C1160 C1161 1.393 . S
C1160 C1164 1.395 . S
C1160 C1167 1.492 . S
C1161 C1160 1.393 . S
C1161 C1162 1.392 . S
C1161 H1172 0.930 . S
C1162 C1161 1.392 . S
C1162 C1163 1.386 . S
C1163 C1162 1.386 . S
C1163 C1165 1.395 . S
C1163 H1173 0.930 . S
C1164 C1160 1.395 . S
C1164 C1165 1.379 . S
C1164 H1174 0.930 . S
C1165 C1163 1.395 . S
C1165 C1164 1.379 . S
C1165 H1175 0.930 . S
C1166 O1144 1.264 . S
C1166 O1145 1.254 . S
C1167 Eu1103 2.848 . S
C1167 O1142 1.257 . S
C1167 O1147 1.249 . S
C1167 C1160 1.492 . S
H1168 C1151 0.930 . S
H1169 C1152 0.930 . S
H1170 C1153 0.930 . S
H1171 C1154 0.930 . S
H1172 C1161 0.930 . S
H1173 C1163 0.930 . S
H1174 C1164 0.930 . S
H1175 C1165 0.930 . S
Eu1176 N1207 2.657 . S
Eu1176 N1214 2.609 . S
Eu1176 O1220 2.558 . S
Eu1176 O1221 2.612 . S
Eu1176 O1223 2.339 . S
Eu1176 O1224 2.563 . S
Eu1176 O1225 2.419 . S
Eu1176 O1227 2.380 . S
Eu1176 O1228 2.432 . S
Eu1176 C1240 2.848 . S
C1177 C1180 1.429 . S
C1177 C1181 1.411 1_455 S
C1177 N1184 1.377 . S
C1178 C1180 1.420 1_655 S
C1178 C1182 1.423 . S
C1178 C1190 1.392 . S
C1179 C1181 1.420 . S
C1179 C1182 1.351 . S
C1179 H1202 0.931 . S
C1180 C1177 1.429 . S
C1180 C1178 1.420 1_455 S
C1180 N1188 1.362 . S
C1181 C1177 1.411 1_655 S
C1181 C1179 1.420 . S
C1181 C1186 1.395 . S
C1182 C1178 1.423 . S
C1182 C1179 1.351 . S
C1182 H1194 0.930 . S
C1183 C1185 1.400 . S
C1183 C1186 1.386 1_455 S
C1183 H1195 0.930 . S
N1184 C1177 1.377 . S
N1184 C1185 1.321 . S
N1184 Eu1187 2.609 . S
C1185 C1183 1.400 . S
C1185 N1184 1.321 . S
C1185 H1192 0.930 . S
C1186 C1181 1.395 . S
C1186 C1183 1.386 1_655 S
C1186 H1205 0.930 . S
Eu1187 N1184 2.609 . S
Eu1187 N1188 2.657 . S
Eu1187 O1221 2.380 . S
Eu1187 O1222 2.432 . S
Eu1187 O1226 2.558 . S
Eu1187 O1227 2.612 . S
Eu1187 O1229 2.339 . S
Eu1187 O1230 2.563 . S
Eu1187 O1231 2.419 . S
Eu1187 C1251 2.848 . S
N1188 C1180 1.362 . S
N1188 Eu1187 2.657 . S
N1188 C1189 1.334 . S
C1189 N1188 1.334 . S
C1189 C1191 1.413 1_455 S
C1189 H1196 0.929 . S
C1190 C1178 1.392 . S
C1190 C1191 1.367 . S
C1190 H1198 0.930 . S
C1191 C1189 1.413 1_655 S
C1191 C1190 1.367 . S
C1191 H1193 0.930 . S
H1192 C1185 0.930 . S
H1193 C1191 0.930 . S
H1194 C1182 0.930 . S
H1195 C1183 0.930 . S
H1196 C1189 0.929 . S
H1197 C1211 0.930 . S
H1198 C1190 0.930 . S
H1199 C1217 0.930 . S
H1200 C1208 0.929 . S
H1201 C1215 0.930 . S
H1202 C1179 0.931 . S
H1203 C1209 0.930 . S
H1204 C1242 0.930 . S
H1205 C1186 0.930 . S
H1206 C1241 0.931 . S
N1207 Eu1176 2.657 . S
N1207 C1208 1.334 . S
N1207 C1212 1.362 . S
C1208 H1200 0.929 . S
C1208 N1207 1.334 . S
C1208 C1211 1.413 . S
C1209 H1203 0.930 . S
C1209 C1210 1.392 . S
C1209 C1211 1.367 . S
C1210 C1209 1.392 . S
C1210 C1212 1.420 . S
C1210 C1242 1.423 . S
C1211 H1197 0.930 . S
C1211 C1208 1.413 . S
C1211 C1209 1.367 . S
C1212 N1207 1.362 . S
C1212 C1210 1.420 . S
C1212 C1216 1.429 . S
H1213 C1218 0.930 . S
N1214 Eu1176 2.609 . S
N1214 C1216 1.377 . S
N1214 C1217 1.321 . S
C1215 H1201 0.930 . S
C1215 C1217 1.400 . S
C1215 C1218 1.386 . S
C1216 C1212 1.429 . S
C1216 N1214 1.377 . S
C1216 C1219 1.411 . S
C1217 H1199 0.930 . S
C1217 N1214 1.321 . S
C1217 C1215 1.400 . S
C1218 H1213 0.930 . S
C1218 C1215 1.386 . S
C1218 C1219 1.395 . S
C1219 C1216 1.411 . S
C1219 C1218 1.395 . S
C1219 C1241 1.420 . S
O1220 Eu1176 2.558 . S
O1220 C1240 1.257 . S
O1221 Eu1176 2.612 . S
O1221 Eu1187 2.380 . S
O1221 C1232 1.276 . S
O1222 Eu1187 2.432 . S
O1222 C1239 1.264 . S
O1223 Eu1176 2.339 . S
O1223 C1239 1.254 . S
O1224 Eu1176 2.563 . S
O1224 C1232 1.235 . S
O1225 Eu1176 2.419 . S
O1225 C1240 1.249 . S
O1226 Eu1187 2.558 . S
O1226 C1251 1.257 . S
O1227 Eu1176 2.380 . S
O1227 Eu1187 2.612 . S
O1227 C1243 1.276 . S
O1228 Eu1176 2.432 . S
O1228 C1250 1.264 . S
O1229 Eu1187 2.339 . S
O1229 C1250 1.254 . S
O1230 Eu1187 2.563 . S
O1230 C1243 1.235 . S
O1231 Eu1187 2.419 . S
O1231 C1251 1.249 . S
C1232 O1221 1.276 . S
C1232 O1224 1.235 . S
C1233 C1235 1.393 . S
C1233 C1237 1.395 . S
C1233 C1240 1.492 . S
C1234 C1235 1.392 . S
C1234 C1236 1.386 . S
C1235 C1233 1.393 . S
C1235 C1234 1.392 . S
C1235 H1252 0.930 . S
C1236 C1234 1.386 . S
C1236 C1238 1.395 . S
C1236 H1253 0.930 . S
C1237 C1233 1.395 . S
C1237 C1238 1.379 . S
C1237 H1254 0.930 . S
C1238 C1236 1.395 . S
C1238 C1237 1.379 . S
C1238 H1255 0.930 . S
C1239 O1222 1.264 . S
C1239 O1223 1.254 . S
C1240 Eu1176 2.848 . S
C1240 O1220 1.257 . S
C1240 O1225 1.249 . S
C1240 C1233 1.492 . S
C1241 H1206 0.931 . S
C1241 C1219 1.420 . S
C1241 C1242 1.351 . S
C1242 H1204 0.930 . S
C1242 C1210 1.423 . S
C1242 C1241 1.351 . S
C1243 O1227 1.276 . S
C1243 O1230 1.235 . S
C1244 C1245 1.393 . S
C1244 C1248 1.395 . S
C1244 C1251 1.492 . S
C1245 C1244 1.393 . S
C1245 C1246 1.392 . S
C1245 H1256 0.930 . S
C1246 C1245 1.392 . S
C1246 C1247 1.386 . S
C1247 C1246 1.386 . S
C1247 C1249 1.395 . S
C1247 H1257 0.930 . S
C1248 C1244 1.395 . S
C1248 C1249 1.379 . S
C1248 H1258 0.930 . S
C1249 C1247 1.395 . S
C1249 C1248 1.379 . S
C1249 H1259 0.930 . S
C1250 O1228 1.264 . S
C1250 O1229 1.254 . S
C1251 Eu1187 2.848 . S
C1251 O1226 1.257 . S
C1251 O1231 1.249 . S
C1251 C1244 1.492 . S
H1252 C1235 0.930 . S
H1253 C1236 0.930 . S
H1254 C1237 0.930 . S
H1255 C1238 0.930 . S
H1256 C1245 0.930 . S
H1257 C1247 0.930 . S
H1258 C1248 0.930 . S
H1259 C1249 0.930 . S
Eu1260 N1291 2.657 . S
Eu1260 N1298 2.609 . S
Eu1260 O1304 2.558 . S
Eu1260 O1305 2.612 . S
Eu1260 O1307 2.339 . S
Eu1260 O1308 2.563 . S
Eu1260 O1309 2.419 . S
Eu1260 O1311 2.380 . S
Eu1260 O1312 2.432 . S
Eu1260 C1324 2.848 . S
C1261 C1264 1.429 . S
C1261 C1265 1.411 . S
C1261 N1268 1.377 . S
C1262 C1264 1.420 . S
C1262 C1266 1.423 . S
C1262 C1274 1.392 . S
C1263 C1265 1.420 . S
C1263 C1266 1.351 . S
C1263 H1286 0.931 . S
C1264 C1261 1.429 . S
C1264 C1262 1.420 . S
C1264 N1272 1.362 . S
C1265 C1261 1.411 . S
C1265 C1263 1.420 . S
C1265 C1270 1.395 . S
C1266 C1262 1.423 . S
C1266 C1263 1.351 . S
C1266 H1278 0.930 . S
C1267 C1269 1.400 . S
C1267 C1270 1.386 . S
C1267 H1279 0.930 . S
N1268 C1261 1.377 . S
N1268 C1269 1.321 . S
N1268 Eu1271 2.609 . S
C1269 C1267 1.400 . S
C1269 N1268 1.321 . S
C1269 H1276 0.930 . S
C1270 C1265 1.395 . S
C1270 C1267 1.386 . S
C1270 H1289 0.930 . S
Eu1271 N1268 2.609 . S
Eu1271 N1272 2.657 . S
Eu1271 O1305 2.380 . S
Eu1271 O1306 2.432 . S
Eu1271 O1310 2.558 . S
Eu1271 O1311 2.612 . S
Eu1271 O1313 2.339 . S
Eu1271 O1314 2.563 . S
Eu1271 O1315 2.419 . S
Eu1271 C1335 2.848 . S
N1272 C1264 1.362 . S
N1272 Eu1271 2.657 . S
N1272 C1273 1.334 . S
C1273 N1272 1.334 . S
C1273 C1275 1.413 . S
C1273 H1280 0.929 . S
C1274 C1262 1.392 . S
C1274 C1275 1.367 . S
C1274 H1282 0.930 . S
C1275 C1273 1.413 . S
C1275 C1274 1.367 . S
C1275 H1277 0.930 . S
H1276 C1269 0.930 . S
H1277 C1275 0.930 . S
H1278 C1266 0.930 . S
H1279 C1267 0.930 . S
H1280 C1273 0.929 . S
H1281 C1295 0.930 . S
H1282 C1274 0.930 . S
H1283 C1301 0.930 . S
H1284 C1292 0.929 . S
H1285 C1299 0.930 . S
H1286 C1263 0.931 . S
H1287 C1293 0.930 . S
H1288 C1326 0.930 . S
H1289 C1270 0.930 . S
H1290 C1325 0.931 . S
N1291 Eu1260 2.657 . S
N1291 C1292 1.334 . S
N1291 C1296 1.362 . S
C1292 H1284 0.929 . S
C1292 N1291 1.334 . S
C1292 C1295 1.413 . S
C1293 H1287 0.930 . S
C1293 C1294 1.392 . S
C1293 C1295 1.367 . S
C1294 C1293 1.392 . S
C1294 C1296 1.420 . S
C1294 C1326 1.423 . S
C1295 H1281 0.930 . S
C1295 C1292 1.413 . S
C1295 C1293 1.367 . S
C1296 N1291 1.362 . S
C1296 C1294 1.420 . S
C1296 C1300 1.429 . S
H1297 C1302 0.930 . S
N1298 Eu1260 2.609 . S
N1298 C1300 1.377 . S
N1298 C1301 1.321 . S
C1299 H1285 0.930 . S
C1299 C1301 1.400 . S
C1299 C1302 1.386 . S
C1300 C1296 1.429 . S
C1300 N1298 1.377 . S
C1300 C1303 1.411 . S
C1301 H1283 0.930 . S
C1301 N1298 1.321 . S
C1301 C1299 1.400 . S
C1302 H1297 0.930 . S
C1302 C1299 1.386 . S
C1302 C1303 1.395 . S
C1303 C1300 1.411 . S
C1303 C1302 1.395 . S
C1303 C1325 1.420 . S
O1304 Eu1260 2.558 . S
O1304 C1324 1.257 . S
O1305 Eu1260 2.612 . S
O1305 Eu1271 2.380 . S
O1305 C1316 1.276 . S
O1306 Eu1271 2.432 . S
O1306 C1323 1.264 . S
O1307 Eu1260 2.339 . S
O1307 C1323 1.254 . S
O1308 Eu1260 2.563 . S
O1308 C1316 1.235 . S
O1309 Eu1260 2.419 . S
O1309 C1324 1.249 . S
O1310 Eu1271 2.558 . S
O1310 C1335 1.257 . S
O1311 Eu1260 2.380 . S
O1311 Eu1271 2.612 . S
O1311 C1327 1.276 . S
O1312 Eu1260 2.432 . S
O1312 C1334 1.264 . S
O1313 Eu1271 2.339 . S
O1313 C1334 1.254 . S
O1314 Eu1271 2.563 . S
O1314 C1327 1.235 . S
O1315 Eu1271 2.419 . S
O1315 C1335 1.249 . S
C1316 O1305 1.276 . S
C1316 O1308 1.235 . S
C1317 C1319 1.393 . S
C1317 C1321 1.395 . S
C1317 C1324 1.492 . S
C1318 C1319 1.392 . S
C1318 C1320 1.386 . S
C1319 C1317 1.393 . S
C1319 C1318 1.392 . S
C1319 H1336 0.930 . S
C1320 C1318 1.386 . S
C1320 C1322 1.395 . S
C1320 H1337 0.930 . S
C1321 C1317 1.395 . S
C1321 C1322 1.379 . S
C1321 H1338 0.930 . S
C1322 C1320 1.395 . S
C1322 C1321 1.379 . S
C1322 H1339 0.930 . S
C1323 O1306 1.264 . S
C1323 O1307 1.254 . S
C1324 Eu1260 2.848 . S
C1324 O1304 1.257 . S
C1324 O1309 1.249 . S
C1324 C1317 1.492 . S
C1325 H1290 0.931 . S
C1325 C1303 1.420 . S
C1325 C1326 1.351 . S
C1326 H1288 0.930 . S
C1326 C1294 1.423 . S
C1326 C1325 1.351 . S
C1327 O1311 1.276 . S
C1327 O1314 1.235 . S
C1328 C1329 1.393 . S
C1328 C1332 1.395 . S
C1328 C1335 1.492 . S
C1329 C1328 1.393 . S
C1329 C1330 1.392 . S
C1329 H1340 0.930 . S
C1330 C1329 1.392 . S
C1330 C1331 1.386 . S
C1331 C1330 1.386 . S
C1331 C1333 1.395 . S
C1331 H1341 0.930 . S
C1332 C1328 1.395 . S
C1332 C1333 1.379 . S
C1332 H1342 0.930 . S
C1333 C1331 1.395 . S
C1333 C1332 1.379 . S
C1333 H1343 0.930 . S
C1334 O1312 1.264 . S
C1334 O1313 1.254 . S
C1335 Eu1271 2.848 . S
C1335 O1310 1.257 . S
C1335 O1315 1.249 . S
C1335 C1328 1.492 . S
H1336 C1319 0.930 . S
H1337 C1320 0.930 . S
H1338 C1321 0.930 . S
H1339 C1322 0.930 . S
H1340 C1329 0.930 . S
H1341 C1331 0.930 . S
H1342 C1332 0.930 . S
H1343 C1333 0.930 . S
Eu1344 N1375 2.657 . S
Eu1344 N1382 2.609 . S
Eu1344 O1388 2.558 . S
Eu1344 O1389 2.612 . S
Eu1344 O1391 2.339 . S
Eu1344 O1392 2.563 . S
Eu1344 O1393 2.419 . S
Eu1344 O1395 2.380 . S
Eu1344 O1396 2.432 . S
Eu1344 C1408 2.848 . S
C1345 C1348 1.429 . S
C1345 C1349 1.411 . S
C1345 N1352 1.377 . S
C1346 C1348 1.420 . S
C1346 C1350 1.423 . S
C1346 C1358 1.392 . S
C1347 C1349 1.420 . S
C1347 C1350 1.351 . S
C1347 H1370 0.931 . S
C1348 C1345 1.429 . S
C1348 C1346 1.420 . S
C1348 N1356 1.362 . S
C1349 C1345 1.411 . S
C1349 C1347 1.420 . S
C1349 C1354 1.395 . S
C1350 C1346 1.423 . S
C1350 C1347 1.351 . S
C1350 H1362 0.930 . S
C1351 C1353 1.400 . S
C1351 C1354 1.386 . S
C1351 H1363 0.930 . S
N1352 C1345 1.377 . S
N1352 C1353 1.321 . S
N1352 Eu1355 2.609 . S
C1353 C1351 1.400 . S
C1353 N1352 1.321 . S
C1353 H1360 0.930 . S
C1354 C1349 1.395 . S
C1354 C1351 1.386 . S
C1354 H1373 0.930 . S
Eu1355 N1352 2.609 . S
Eu1355 N1356 2.657 . S
Eu1355 O1389 2.380 . S
Eu1355 O1390 2.432 . S
Eu1355 O1394 2.558 . S
Eu1355 O1395 2.612 . S
Eu1355 O1397 2.339 . S
Eu1355 O1398 2.563 . S
Eu1355 O1399 2.419 . S
Eu1355 C1419 2.848 . S
N1356 C1348 1.362 . S
N1356 Eu1355 2.657 . S
N1356 C1357 1.334 . S
C1357 N1356 1.334 . S
C1357 C1359 1.413 . S
C1357 H1364 0.929 . S
C1358 C1346 1.392 . S
C1358 C1359 1.367 . S
C1358 H1366 0.930 . S
C1359 C1357 1.413 . S
C1359 C1358 1.367 . S
C1359 H1361 0.930 . S
H1360 C1353 0.930 . S
H1361 C1359 0.930 . S
H1362 C1350 0.930 . S
H1363 C1351 0.930 . S
H1364 C1357 0.929 . S
H1365 C1379 0.930 . S
H1366 C1358 0.930 . S
H1367 C1385 0.930 . S
H1368 C1376 0.929 . S
H1369 C1383 0.930 . S
H1370 C1347 0.931 . S
H1371 C1377 0.930 . S
H1372 C1410 0.930 . S
H1373 C1354 0.930 . S
H1374 C1409 0.931 . S
N1375 Eu1344 2.657 . S
N1375 C1376 1.334 . S
N1375 C1380 1.362 . S
C1376 H1368 0.929 . S
C1376 N1375 1.334 . S
C1376 C1379 1.413 . S
C1377 H1371 0.930 . S
C1377 C1378 1.392 . S
C1377 C1379 1.367 . S
C1378 C1377 1.392 . S
C1378 C1380 1.420 . S
C1378 C1410 1.423 . S
C1379 H1365 0.930 . S
C1379 C1376 1.413 . S
C1379 C1377 1.367 . S
C1380 N1375 1.362 . S
C1380 C1378 1.420 . S
C1380 C1384 1.429 . S
H1381 C1386 0.930 . S
N1382 Eu1344 2.609 . S
N1382 C1384 1.377 . S
N1382 C1385 1.321 . S
C1383 H1369 0.930 . S
C1383 C1385 1.400 . S
C1383 C1386 1.386 . S
C1384 C1380 1.429 . S
C1384 N1382 1.377 . S
C1384 C1387 1.411 . S
C1385 H1367 0.930 . S
C1385 N1382 1.321 . S
C1385 C1383 1.400 . S
C1386 H1381 0.930 . S
C1386 C1383 1.386 . S
C1386 C1387 1.395 . S
C1387 C1384 1.411 . S
C1387 C1386 1.395 . S
C1387 C1409 1.420 . S
O1388 Eu1344 2.558 . S
O1388 C1408 1.257 . S
O1389 Eu1344 2.612 . S
O1389 Eu1355 2.380 . S
O1389 C1400 1.276 . S
O1390 Eu1355 2.432 . S
O1390 C1407 1.264 . S
O1391 Eu1344 2.339 . S
O1391 C1407 1.254 . S
O1392 Eu1344 2.563 . S
O1392 C1400 1.235 . S
O1393 Eu1344 2.419 . S
O1393 C1408 1.249 . S
O1394 Eu1355 2.558 . S
O1394 C1419 1.257 . S
O1395 Eu1344 2.380 . S
O1395 Eu1355 2.612 . S
O1395 C1411 1.276 . S
O1396 Eu1344 2.432 . S
O1396 C1418 1.264 . S
O1397 Eu1355 2.339 . S
O1397 C1418 1.254 . S
O1398 Eu1355 2.563 . S
O1398 C1411 1.235 . S
O1399 Eu1355 2.419 . S
O1399 C1419 1.249 . S
C1400 O1389 1.276 . S
C1400 O1392 1.235 . S
C1401 C1403 1.393 . S
C1401 C1405 1.395 . S
C1401 C1408 1.492 . S
C1402 C1403 1.392 . S
C1402 C1404 1.386 . S
C1403 C1401 1.393 . S
C1403 C1402 1.392 . S
C1403 H1420 0.930 . S
C1404 C1402 1.386 . S
C1404 C1406 1.395 . S
C1404 H1421 0.930 . S
C1405 C1401 1.395 . S
C1405 C1406 1.379 . S
C1405 H1422 0.930 . S
C1406 C1404 1.395 . S
C1406 C1405 1.379 . S
C1406 H1423 0.930 . S
C1407 O1390 1.264 . S
C1407 O1391 1.254 . S
C1408 Eu1344 2.848 . S
C1408 O1388 1.257 . S
C1408 O1393 1.249 . S
C1408 C1401 1.492 . S
C1409 H1374 0.931 . S
C1409 C1387 1.420 . S
C1409 C1410 1.351 . S
C1410 H1372 0.930 . S
C1410 C1378 1.423 . S
C1410 C1409 1.351 . S
C1411 O1395 1.276 . S
C1411 O1398 1.235 . S
C1412 C1413 1.393 . S
C1412 C1416 1.395 . S
C1412 C1419 1.492 . S
C1413 C1412 1.393 . S
C1413 C1414 1.392 . S
C1413 H1424 0.930 . S
C1414 C1413 1.392 . S
C1414 C1415 1.386 . S
C1415 C1414 1.386 . S
C1415 C1417 1.395 . S
C1415 H1425 0.930 . S
C1416 C1412 1.395 . S
C1416 C1417 1.379 . S
C1416 H1426 0.930 . S
C1417 C1415 1.395 . S
C1417 C1416 1.379 . S
C1417 H1427 0.930 . S
C1418 O1396 1.264 . S
C1418 O1397 1.254 . S
C1419 Eu1355 2.848 . S
C1419 O1394 1.257 . S
C1419 O1399 1.249 . S
C1419 C1412 1.492 . S
H1420 C1403 0.930 . S
H1421 C1404 0.930 . S
H1422 C1405 0.930 . S
H1423 C1406 0.930 . S
H1424 C1413 0.930 . S
H1425 C1415 0.930 . S
H1426 C1416 0.930 . S
H1427 C1417 0.930 . S
Eu1428 N1459 2.657 . S
Eu1428 N1466 2.609 . S
Eu1428 O1472 2.558 . S
Eu1428 O1473 2.612 . S
Eu1428 O1475 2.339 . S
Eu1428 O1476 2.563 . S
Eu1428 O1477 2.419 . S
Eu1428 O1479 2.380 . S
Eu1428 O1480 2.432 . S
Eu1428 C1492 2.848 . S
C1429 C1432 1.429 . S
C1429 C1433 1.411 . S
C1429 N1436 1.377 . S
C1430 C1432 1.420 . S
C1430 C1434 1.423 . S
C1430 C1442 1.392 . S
C1431 C1433 1.420 . S
C1431 C1434 1.351 . S
C1431 H1454 0.931 . S
C1432 C1429 1.429 . S
C1432 C1430 1.420 . S
C1432 N1440 1.362 . S
C1433 C1429 1.411 . S
C1433 C1431 1.420 . S
C1433 C1438 1.395 . S
C1434 C1430 1.423 . S
C1434 C1431 1.351 . S
C1434 H1446 0.930 . S
C1435 C1437 1.400 . S
C1435 C1438 1.386 . S
C1435 H1447 0.930 . S
N1436 C1429 1.377 . S
N1436 C1437 1.321 . S
N1436 Eu1439 2.609 . S
C1437 C1435 1.400 . S
C1437 N1436 1.321 . S
C1437 H1444 0.930 . S
C1438 C1433 1.395 . S
C1438 C1435 1.386 . S
C1438 H1457 0.930 . S
Eu1439 N1436 2.609 . S
Eu1439 N1440 2.657 . S
Eu1439 O1473 2.380 . S
Eu1439 O1474 2.432 . S
Eu1439 O1478 2.558 . S
Eu1439 O1479 2.612 . S
Eu1439 O1481 2.339 . S
Eu1439 O1482 2.563 . S
Eu1439 O1483 2.419 . S
Eu1439 C1503 2.848 . S
N1440 C1432 1.362 . S
N1440 Eu1439 2.657 . S
N1440 C1441 1.334 . S
C1441 N1440 1.334 . S
C1441 C1443 1.413 . S
C1441 H1448 0.929 . S
C1442 C1430 1.392 . S
C1442 C1443 1.367 . S
C1442 H1450 0.930 . S
C1443 C1441 1.413 . S
C1443 C1442 1.367 . S
C1443 H1445 0.930 . S
H1444 C1437 0.930 . S
H1445 C1443 0.930 . S
H1446 C1434 0.930 . S
H1447 C1435 0.930 . S
H1448 C1441 0.929 . S
H1449 C1463 0.930 . S
H1450 C1442 0.930 . S
H1451 C1469 0.930 . S
H1452 C1460 0.929 . S
H1453 C1467 0.930 . S
H1454 C1431 0.931 . S
H1455 C1461 0.930 . S
H1456 C1494 0.930 . S
H1457 C1438 0.930 . S
H1458 C1493 0.931 . S
N1459 Eu1428 2.657 . S
N1459 C1460 1.334 . S
N1459 C1464 1.362 . S
C1460 H1452 0.929 . S
C1460 N1459 1.334 . S
C1460 C1463 1.413 . S
C1461 H1455 0.930 . S
C1461 C1462 1.392 . S
C1461 C1463 1.367 . S
C1462 C1461 1.392 . S
C1462 C1464 1.420 . S
C1462 C1494 1.423 . S
C1463 H1449 0.930 . S
C1463 C1460 1.413 . S
C1463 C1461 1.367 . S
C1464 N1459 1.362 . S
C1464 C1462 1.420 . S
C1464 C1468 1.429 . S
H1465 C1470 0.930 . S
N1466 Eu1428 2.609 . S
N1466 C1468 1.377 . S
N1466 C1469 1.321 . S
C1467 H1453 0.930 . S
C1467 C1469 1.400 . S
C1467 C1470 1.386 . S
C1468 C1464 1.429 . S
C1468 N1466 1.377 . S
C1468 C1471 1.411 . S
C1469 H1451 0.930 . S
C1469 N1466 1.321 . S
C1469 C1467 1.400 . S
C1470 H1465 0.930 . S
C1470 C1467 1.386 . S
C1470 C1471 1.395 . S
C1471 C1468 1.411 . S
C1471 C1470 1.395 . S
C1471 C1493 1.420 . S
O1472 Eu1428 2.558 . S
O1472 C1492 1.257 . S
O1473 Eu1428 2.612 . S
O1473 Eu1439 2.380 . S
O1473 C1484 1.276 . S
O1474 Eu1439 2.432 . S
O1474 C1491 1.264 . S
O1475 Eu1428 2.339 . S
O1475 C1491 1.254 . S
O1476 Eu1428 2.563 . S
O1476 C1484 1.235 . S
O1477 Eu1428 2.419 . S
O1477 C1492 1.249 . S
O1478 Eu1439 2.558 . S
O1478 C1503 1.257 . S
O1479 Eu1428 2.380 . S
O1479 Eu1439 2.612 . S
O1479 C1495 1.276 . S
O1480 Eu1428 2.432 . S
O1480 C1502 1.264 . S
O1481 Eu1439 2.339 . S
O1481 C1502 1.254 . S
O1482 Eu1439 2.563 . S
O1482 C1495 1.235 . S
O1483 Eu1439 2.419 . S
O1483 C1503 1.249 . S
C1484 O1473 1.276 . S
C1484 O1476 1.235 . S
C1485 C1487 1.393 . S
C1485 C1489 1.395 . S
C1485 C1492 1.492 . S
C1486 C1487 1.392 . S
C1486 C1488 1.386 . S
C1487 C1485 1.393 . S
C1487 C1486 1.392 . S
C1487 H1504 0.930 . S
C1488 C1486 1.386 . S
C1488 C1490 1.395 . S
C1488 H1505 0.930 . S
C1489 C1485 1.395 . S
C1489 C1490 1.379 . S
C1489 H1506 0.930 . S
C1490 C1488 1.395 . S
C1490 C1489 1.379 . S
C1490 H1507 0.930 . S
C1491 O1474 1.264 . S
C1491 O1475 1.254 . S
C1492 Eu1428 2.848 . S
C1492 O1472 1.257 . S
C1492 O1477 1.249 . S
C1492 C1485 1.492 . S
C1493 H1458 0.931 . S
C1493 C1471 1.420 . S
C1493 C1494 1.351 . S
C1494 H1456 0.930 . S
C1494 C1462 1.423 . S
C1494 C1493 1.351 . S
C1495 O1479 1.276 . S
C1495 O1482 1.235 . S
C1496 C1497 1.393 . S
C1496 C1500 1.395 . S
C1496 C1503 1.492 . S
C1497 C1496 1.393 . S
C1497 C1498 1.392 . S
C1497 H1508 0.930 . S
C1498 C1497 1.392 . S
C1498 C1499 1.386 . S
C1499 C1498 1.386 . S
C1499 C1501 1.395 . S
C1499 H1509 0.930 . S
C1500 C1496 1.395 . S
C1500 C1501 1.379 . S
C1500 H1510 0.930 . S
C1501 C1499 1.395 . S
C1501 C1500 1.379 . S
C1501 H1511 0.930 . S
C1502 O1480 1.264 . S
C1502 O1481 1.254 . S
C1503 Eu1439 2.848 . S
C1503 O1478 1.257 . S
C1503 O1483 1.249 . S
C1503 C1496 1.492 . S
H1504 C1487 0.930 . S
H1505 C1488 0.930 . S
H1506 C1489 0.930 . S
H1507 C1490 0.930 . S
H1508 C1497 0.930 . S
H1509 C1499 0.930 . S
H1510 C1500 0.930 . S
H1511 C1501 0.930 . S
Eu1512 N1543 2.657 . S
Eu1512 N1550 2.609 . S
Eu1512 O1556 2.558 . S
Eu1512 O1557 2.612 . S
Eu1512 O1559 2.339 . S
Eu1512 O1560 2.563 . S
Eu1512 O1561 2.419 . S
Eu1512 O1563 2.380 . S
Eu1512 O1564 2.432 . S
Eu1512 C1576 2.848 . S
C1513 C1516 1.429 . S
C1513 C1517 1.411 . S
C1513 N1520 1.377 . S
C1514 C1516 1.420 . S
C1514 C1518 1.423 . S
C1514 C1526 1.392 . S
C1515 C1517 1.420 . S
C1515 C1518 1.351 . S
C1515 H1538 0.931 . S
C1516 C1513 1.429 . S
C1516 C1514 1.420 . S
C1516 N1524 1.362 . S
C1517 C1513 1.411 . S
C1517 C1515 1.420 . S
C1517 C1522 1.395 . S
C1518 C1514 1.423 . S
C1518 C1515 1.351 . S
C1518 H1530 0.930 . S
C1519 C1521 1.400 . S
C1519 C1522 1.386 . S
C1519 H1531 0.930 . S
N1520 C1513 1.377 . S
N1520 C1521 1.321 . S
N1520 Eu1523 2.609 . S
C1521 C1519 1.400 . S
C1521 N1520 1.321 . S
C1521 H1528 0.930 . S
C1522 C1517 1.395 . S
C1522 C1519 1.386 . S
C1522 H1541 0.930 . S
Eu1523 N1520 2.609 . S
Eu1523 N1524 2.657 . S
Eu1523 O1557 2.380 . S
Eu1523 O1558 2.432 . S
Eu1523 O1562 2.558 . S
Eu1523 O1563 2.612 . S
Eu1523 O1565 2.339 . S
Eu1523 O1566 2.563 . S
Eu1523 O1567 2.419 . S
Eu1523 C1587 2.848 . S
N1524 C1516 1.362 . S
N1524 Eu1523 2.657 . S
N1524 C1525 1.334 . S
C1525 N1524 1.334 . S
C1525 C1527 1.413 . S
C1525 H1532 0.929 . S
C1526 C1514 1.392 . S
C1526 C1527 1.367 . S
C1526 H1534 0.930 . S
C1527 C1525 1.413 . S
C1527 C1526 1.367 . S
C1527 H1529 0.930 . S
H1528 C1521 0.930 . S
H1529 C1527 0.930 . S
H1530 C1518 0.930 . S
H1531 C1519 0.930 . S
H1532 C1525 0.929 . S
H1533 C1547 0.930 . S
H1534 C1526 0.930 . S
H1535 C1553 0.930 . S
H1536 C1544 0.929 . S
H1537 C1551 0.930 . S
H1538 C1515 0.931 . S
H1539 C1545 0.930 . S
H1540 C1578 0.930 . S
H1541 C1522 0.930 . S
H1542 C1577 0.931 . S
N1543 Eu1512 2.657 . S
N1543 C1544 1.334 . S
N1543 C1548 1.362 . S
C1544 H1536 0.929 . S
C1544 N1543 1.334 . S
C1544 C1547 1.413 . S
C1545 H1539 0.930 . S
C1545 C1546 1.392 . S
C1545 C1547 1.367 . S
C1546 C1545 1.392 . S
C1546 C1548 1.420 . S
C1546 C1578 1.423 . S
C1547 H1533 0.930 . S
C1547 C1544 1.413 . S
C1547 C1545 1.367 . S
C1548 N1543 1.362 . S
C1548 C1546 1.420 . S
C1548 C1552 1.429 . S
H1549 C1554 0.930 . S
N1550 Eu1512 2.609 . S
N1550 C1552 1.377 . S
N1550 C1553 1.321 . S
C1551 H1537 0.930 . S
C1551 C1553 1.400 . S
C1551 C1554 1.386 . S
C1552 C1548 1.429 . S
C1552 N1550 1.377 . S
C1552 C1555 1.411 . S
C1553 H1535 0.930 . S
C1553 N1550 1.321 . S
C1553 C1551 1.400 . S
C1554 H1549 0.930 . S
C1554 C1551 1.386 . S
C1554 C1555 1.395 . S
C1555 C1552 1.411 . S
C1555 C1554 1.395 . S
C1555 C1577 1.420 . S
O1556 Eu1512 2.558 . S
O1556 C1576 1.257 . S
O1557 Eu1512 2.612 . S
O1557 Eu1523 2.380 . S
O1557 C1568 1.276 . S
O1558 Eu1523 2.432 . S
O1558 C1575 1.264 . S
O1559 Eu1512 2.339 . S
O1559 C1575 1.254 . S
O1560 Eu1512 2.563 . S
O1560 C1568 1.235 . S
O1561 Eu1512 2.419 . S
O1561 C1576 1.249 . S
O1562 Eu1523 2.558 . S
O1562 C1587 1.257 . S
O1563 Eu1512 2.380 . S
O1563 Eu1523 2.612 . S
O1563 C1579 1.276 . S
O1564 Eu1512 2.432 . S
O1564 C1586 1.264 . S
O1565 Eu1523 2.339 . S
O1565 C1586 1.254 . S
O1566 Eu1523 2.563 . S
O1566 C1579 1.235 . S
O1567 Eu1523 2.419 . S
O1567 C1587 1.249 . S
C1568 O1557 1.276 . S
C1568 O1560 1.235 . S
C1569 C1571 1.393 . S
C1569 C1573 1.395 . S
C1569 C1576 1.492 . S
C1570 C1571 1.392 . S
C1570 C1572 1.386 . S
C1571 C1569 1.393 . S
C1571 C1570 1.392 . S
C1571 H1588 0.930 . S
C1572 C1570 1.386 . S
C1572 C1574 1.395 . S
C1572 H1589 0.930 . S
C1573 C1569 1.395 . S
C1573 C1574 1.379 . S
C1573 H1590 0.930 . S
C1574 C1572 1.395 . S
C1574 C1573 1.379 . S
C1574 H1591 0.930 . S
C1575 O1558 1.264 . S
C1575 O1559 1.254 . S
C1576 Eu1512 2.848 . S
C1576 O1556 1.257 . S
C1576 O1561 1.249 . S
C1576 C1569 1.492 . S
C1577 H1542 0.931 . S
C1577 C1555 1.420 . S
C1577 C1578 1.351 . S
C1578 H1540 0.930 . S
C1578 C1546 1.423 . S
C1578 C1577 1.351 . S
C1579 O1563 1.276 . S
C1579 O1566 1.235 . S
C1580 C1581 1.393 . S
C1580 C1584 1.395 . S
C1580 C1587 1.492 . S
C1581 C1580 1.393 . S
C1581 C1582 1.392 . S
C1581 H1592 0.930 . S
C1582 C1581 1.392 . S
C1582 C1583 1.386 . S
C1583 C1582 1.386 . S
C1583 C1585 1.395 . S
C1583 H1593 0.930 . S
C1584 C1580 1.395 . S
C1584 C1585 1.379 . S
C1584 H1594 0.930 . S
C1585 C1583 1.395 . S
C1585 C1584 1.379 . S
C1585 H1595 0.930 . S
C1586 O1564 1.264 . S
C1586 O1565 1.254 . S
C1587 Eu1523 2.848 . S
C1587 O1562 1.257 . S
C1587 O1567 1.249 . S
C1587 C1580 1.492 . S
H1588 C1571 0.930 . S
H1589 C1572 0.930 . S
H1590 C1573 0.930 . S
H1591 C1574 0.930 . S
H1592 C1581 0.930 . S
H1593 C1583 0.930 . S
H1594 C1584 0.930 . S
H1595 C1585 0.930 . S
Eu1596 N1627 2.657 . S
Eu1596 N1634 2.609 1_554 S
Eu1596 O1640 2.558 1_554 S
Eu1596 O1641 2.612 . S
Eu1596 O1643 2.339 . S
Eu1596 O1644 2.561 . S
Eu1596 O1645 2.419 . S
Eu1596 O1647 2.380 . S
Eu1596 O1648 2.432 1_554 S
Eu1596 C1660 2.848 1_554 S
C1597 C1600 1.429 . S
C1597 C1601 1.411 . S
C1597 N1604 1.377 1_655 S
C1598 C1600 1.420 . S
C1598 C1602 1.423 . S
C1598 C1610 1.392 1_554 S
C1599 C1601 1.420 . S
C1599 C1602 1.351 . S
C1599 H1622 0.931 . S
C1600 C1597 1.429 . S
C1600 C1598 1.420 . S
C1600 N1608 1.362 1_655 S
C1601 C1597 1.411 . S
C1601 C1599 1.420 . S
C1601 C1606 1.395 . S
C1602 C1598 1.423 . S
C1602 C1599 1.351 . S
C1602 H1614 0.930 . S
C1603 C1605 1.400 . S
C1603 C1606 1.386 1_455 S
C1603 H1615 0.930 . S
N1604 C1597 1.377 1_455 S
N1604 C1605 1.321 . S
N1604 Eu1607 2.609 . S
C1605 C1603 1.400 . S
C1605 N1604 1.321 . S
C1605 H1612 0.930 . S
C1606 C1601 1.395 . S
C1606 C1603 1.386 1_655 S
C1606 H1625 0.930 . S
Eu1607 N1604 2.609 . S
Eu1607 N1608 2.657 . S
Eu1607 O1641 2.380 . S
Eu1607 O1642 2.432 . S
Eu1607 O1646 2.558 . S
Eu1607 O1647 2.612 . S
Eu1607 O1649 2.339 1_554 S
Eu1607 O1650 2.563 . S
Eu1607 O1651 2.419 1_455 S
Eu1607 C1671 2.848 1_455 S
N1608 C1600 1.362 1_455 S
N1608 Eu1607 2.657 . S
N1608 C1609 1.334 1_454 S
C1609 N1608 1.334 1_656 S
C1609 C1611 1.413 . S
C1609 H1616 0.929 1_655 S
C1610 C1598 1.392 1_556 S
C1610 C1611 1.367 . S
C1610 H1618 0.930 . S
C1611 C1609 1.413 . S
C1611 C1610 1.367 . S
C1611 H1613 0.930 . S
H1612 C1605 0.930 . S
H1613 C1611 0.930 . S
H1614 C1602 0.930 . S
H1615 C1603 0.930 . S
H1616 C1609 0.929 1_455 S
H1617 C1631 0.930 . S
H1618 C1610 0.930 . S
H1619 C1637 0.930 . S
H1620 C1628 0.929 . S
H1621 C1635 0.930 . S
H1622 C1599 0.931 . S
H1623 C1629 0.930 . S
H1624 C1662 0.930 . S
H1625 C1606 0.930 . S
H1626 C1661 0.931 . S
N1627 Eu1596 2.657 . S
N1627 C1628 1.334 . S
N1627 C1632 1.362 . S
C1628 H1620 0.929 . S
C1628 N1627 1.334 . S
C1628 C1631 1.413 . S
C1629 H1623 0.930 . S
C1629 C1630 1.392 . S
C1629 C1631 1.367 . S
C1630 C1629 1.392 . S
C1630 C1632 1.420 . S
C1630 C1662 1.423 . S
C1631 H1617 0.930 . S
C1631 C1628 1.413 . S
C1631 C1629 1.367 . S
C1632 N1627 1.362 . S
C1632 C1630 1.420 . S
C1632 C1636 1.429 1_554 S
H1633 C1638 0.930 . S
N1634 Eu1596 2.609 1_556 S
N1634 C1636 1.377 . S
N1634 C1637 1.321 . S
C1635 H1621 0.930 . S
C1635 C1637 1.400 . S
C1635 C1638 1.386 . S
C1636 C1632 1.429 1_556 S
C1636 N1634 1.377 . S
C1636 C1639 1.411 . S
C1637 H1619 0.930 . S
C1637 N1634 1.321 . S
C1637 C1635 1.400 . S
C1638 H1633 0.930 . S
C1638 C1635 1.386 . S
C1638 C1639 1.395 . S
C1639 C1636 1.411 . S
C1639 C1638 1.395 . S
C1639 C1661 1.420 . S
O1640 Eu1596 2.558 1_556 S
O1640 C1660 1.257 . S
O1641 Eu1596 2.612 . S
O1641 Eu1607 2.380 . S
O1641 C1652 1.276 . S
O1642 Eu1607 2.432 . S
O1642 C1659 1.264 . S
O1643 Eu1596 2.339 . S
O1643 C1659 1.254 . S
O1644 Eu1596 2.561 . S
O1644 C1652 1.246 . S
O1645 Eu1596 2.419 . S
O1645 C1660 1.249 1_554 S
O1646 Eu1607 2.558 . S
O1646 C1671 1.257 1_455 S
O1647 Eu1596 2.380 . S
O1647 Eu1607 2.612 . S
O1647 C1663 1.276 . S
O1648 Eu1596 2.432 1_556 S
O1648 C1670 1.264 . S
O1649 Eu1607 2.339 1_556 S
O1649 C1670 1.254 . S
O1650 Eu1607 2.563 . S
O1650 C1663 1.235 . S
O1651 Eu1607 2.419 1_655 S
O1651 C1671 1.249 . S
C1652 O1641 1.276 . S
C1652 O1644 1.246 . S
C1653 C1655 1.393 1_556 S
C1653 C1657 1.395 . S
C1653 C1660 1.492 . S
C1654 C1655 1.392 1_556 S
C1654 C1656 1.386 . S
C1655 C1653 1.393 1_554 S
C1655 C1654 1.392 1_554 S
C1655 H1672 0.930 . S
C1656 C1654 1.386 . S
C1656 C1658 1.395 . S
C1656 H1673 0.930 . S
C1657 C1653 1.395 . S
C1657 C1658 1.379 . S
C1657 H1674 0.930 . S
C1658 C1656 1.395 . S
C1658 C1657 1.379 . S
C1658 H1675 0.930 . S
C1659 O1642 1.264 . S
C1659 O1643 1.254 . S
C1660 Eu1596 2.848 1_556 S
C1660 O1640 1.257 . S
C1660 O1645 1.249 1_556 S
C1660 C1653 1.492 . S
C1661 H1626 0.931 . S
C1661 C1639 1.420 . S
C1661 C1662 1.351 1_556 S
C1662 H1624 0.930 . S
C1662 C1630 1.423 . S
C1662 C1661 1.351 1_554 S
C1663 O1647 1.276 . S
C1663 O1650 1.235 . S
C1664 C1665 1.393 . S
C1664 C1668 1.395 . S
C1664 C1671 1.492 . S
C1665 C1664 1.393 . S
C1665 C1666 1.392 . S
C1665 H1676 0.930 . S
C1666 C1665 1.392 . S
C1666 C1667 1.386 . S
C1667 C1666 1.386 . S
C1667 C1669 1.395 . S
C1667 H1677 0.930 . S
C1668 C1664 1.395 . S
C1668 C1669 1.379 . S
C1668 H1678 0.930 . S
C1669 C1667 1.395 . S
C1669 C1668 1.379 . S
C1669 H1679 0.930 . S
C1670 O1648 1.264 . S
C1670 O1649 1.254 . S
C1671 Eu1607 2.848 1_655 S
C1671 O1646 1.257 1_655 S
C1671 O1651 1.249 . S
C1671 C1664 1.492 . S
H1672 C1655 0.930 . S
H1673 C1656 0.930 . S
H1674 C1657 0.930 . S
H1675 C1658 0.930 . S
H1676 C1665 0.930 . S
H1677 C1667 0.930 . S
H1678 C1668 0.930 . S
H1679 C1669 0.930 . S
H1680 C1686 0.930 1_554 S
H1681 C1690 0.930 . S
H1682 C1695 0.929 . S
H1683 C1693 0.929 . S
H1684 C1688 0.929 . S
H1685 C1694 0.929 . S
C1686 H1680 0.930 1_556 S
C1686 C1687 1.367 . S
C1686 C1694 1.378 1_556 S
C1687 C1686 1.367 . S
C1687 C1695 1.433 . S
C1688 H1684 0.929 . S
C1688 C1690 1.378 . S
C1688 C1692 1.350 . S
C1689 C1692 1.463 . S
C1689 C1694 1.350 1_556 S
C1689 N1697 1.427 . S
C1690 H1681 0.930 . S
C1690 C1688 1.378 . S
C1690 C1691 1.367 1_556 S
C1691 C1690 1.367 1_554 S
C1691 C1693 1.433 . S
C1692 C1688 1.350 . S
C1692 C1689 1.463 . S
C1692 N1696 1.427 1_556 S
C1693 H1683 0.929 . S
C1693 C1691 1.433 . S
C1693 N1696 1.384 . S
C1694 H1685 0.929 . S
C1694 C1686 1.378 1_554 S
C1694 C1689 1.350 1_554 S
C1695 H1682 0.929 . S
C1695 C1687 1.433 . S
C1695 N1697 1.384 . S
N1696 C1692 1.427 1_554 S
N1696 C1693 1.384 . S
N1697 C1689 1.427 . S
N1697 C1695 1.384 . S
H1698 C1704 0.930 . S
H1699 C1708 0.930 . S
H1700 C1713 0.929 . S
H1701 C1711 0.929 . S
H1702 C1706 0.929 . S
H1703 C1712 0.929 . S
C1704 H1698 0.930 . S
C1704 C1705 1.367 . S
C1704 C1712 1.378 . S
C1705 C1704 1.367 . S
C1705 C1713 1.433 . S
C1706 H1702 0.929 . S
C1706 C1708 1.378 . S
C1706 C1710 1.350 . S
C1707 C1710 1.463 . S
C1707 C1712 1.350 . S
C1707 N1715 1.427 . S
C1708 H1699 0.930 . S
C1708 C1706 1.378 . S
C1708 C1709 1.367 . S
C1709 C1708 1.367 . S
C1709 C1711 1.433 . S
C1710 C1706 1.350 . S
C1710 C1707 1.463 . S
C1710 N1714 1.427 . S
C1711 H1701 0.929 . S
C1711 C1709 1.433 . S
C1711 N1714 1.384 . S
C1712 H1703 0.929 . S
C1712 C1704 1.378 . S
C1712 C1707 1.350 . S
C1713 H1700 0.929 . S
C1713 C1705 1.433 . S
C1713 N1715 1.384 . S
N1714 C1710 1.427 . S
N1714 C1711 1.384 . S
N1715 C1707 1.427 . S
N1715 C1713 1.384 . S
H1716 C1722 0.930 . S
H1717 C1726 0.930 . S
H1718 C1731 0.929 . S
H1719 C1729 0.929 . S
H1720 C1724 0.929 . S
H1721 C1730 0.929 . S
C1722 H1716 0.930 . S
C1722 C1723 1.367 . S
C1722 C1730 1.378 . S
C1723 C1722 1.367 . S
C1723 C1731 1.433 . S
C1724 H1720 0.929 . S
C1724 C1726 1.378 . S
C1724 C1728 1.350 . S
C1725 C1728 1.463 . S
C1725 C1730 1.350 . S
C1725 N1733 1.427 . S
C1726 H1717 0.930 . S
C1726 C1724 1.378 . S
C1726 C1727 1.367 . S
C1727 C1726 1.367 . S
C1727 C1729 1.433 . S
C1728 C1724 1.350 . S
C1728 C1725 1.463 . S
C1728 N1732 1.427 . S
C1729 H1719 0.929 . S
C1729 C1727 1.433 . S
C1729 N1732 1.384 . S
C1730 H1721 0.929 . S
C1730 C1722 1.378 . S
C1730 C1725 1.350 . S
C1731 H1718 0.929 . S
C1731 C1723 1.433 . S
C1731 N1733 1.384 . S
N1732 C1728 1.427 . S
N1732 C1729 1.384 . S
N1733 C1725 1.427 . S
N1733 C1731 1.384 . S
H1734 C1740 0.930 . S
H1735 C1744 0.930 . S
H1736 C1749 0.929 . S
H1737 C1747 0.929 . S
H1738 C1742 0.929 . S
H1739 C1748 0.929 . S
C1740 H1734 0.930 . S
C1740 C1741 1.367 . S
C1740 C1748 1.378 . S
C1741 C1740 1.367 . S
C1741 C1749 1.433 . S
C1742 H1738 0.929 . S
C1742 C1744 1.378 . S
C1742 C1746 1.350 . S
C1743 C1746 1.463 . S
C1743 C1748 1.350 . S
C1743 N1751 1.427 . S
C1744 H1735 0.930 . S
C1744 C1742 1.378 . S
C1744 C1745 1.367 . S
C1745 C1744 1.367 . S
C1745 C1747 1.433 . S
C1746 C1742 1.350 . S
C1746 C1743 1.463 . S
C1746 N1750 1.427 . S
C1747 H1737 0.929 . S
C1747 C1745 1.433 . S
C1747 N1750 1.384 . S
C1748 H1739 0.929 . S
C1748 C1740 1.378 . S
C1748 C1743 1.350 . S
C1749 H1736 0.929 . S
C1749 C1741 1.433 . S
C1749 N1751 1.384 . S
N1750 C1746 1.427 . S
N1750 C1747 1.384 . S
N1751 C1743 1.427 . S
N1751 C1749 1.384 . S
H1752 C1758 0.930 . S
H1753 C1762 0.930 . S
H1754 C1767 0.929 . S
H1755 C1765 0.929 . S
H1756 C1760 0.929 . S
H1757 C1766 0.929 1_655 S
C1758 H1752 0.930 . S
C1758 C1759 1.367 1_655 S
C1758 C1766 1.378 1_655 S
C1759 C1758 1.367 1_455 S
C1759 C1767 1.433 . S
C1760 H1756 0.929 . S
C1760 C1762 1.378 . S
C1760 C1764 1.350 . S
C1761 C1764 1.463 . S
C1761 C1766 1.350 . S
C1761 N1769 1.427 . S
C1762 H1753 0.930 . S
C1762 C1760 1.378 . S
C1762 C1763 1.367 . S
C1763 C1762 1.367 . S
C1763 C1765 1.433 . S
C1764 C1760 1.350 . S
C1764 C1761 1.463 . S
C1764 N1768 1.427 . S
C1765 H1755 0.929 . S
C1765 C1763 1.433 . S
C1765 N1768 1.384 . S
C1766 H1757 0.929 1_455 S
C1766 C1758 1.378 1_455 S
C1766 C1761 1.350 . S
C1767 H1754 0.929 . S
C1767 C1759 1.433 . S
C1767 N1769 1.384 . S
N1768 C1764 1.427 . S
N1768 C1765 1.384 . S
N1769 C1761 1.427 . S
N1769 C1767 1.384 . S
H1770 C1776 0.930 . S
H1771 C1780 0.930 . S
H1772 C1785 0.929 . S
H1773 C1783 0.929 . S
H1774 C1778 0.929 . S
H1775 C1784 0.929 . S
C1776 H1770 0.930 . S
C1776 C1777 1.367 . S
C1776 C1784 1.378 . S
C1777 C1776 1.367 . S
C1777 C1785 1.433 . S
C1778 H1774 0.929 . S
C1778 C1780 1.378 . S
C1778 C1782 1.350 . S
C1779 C1782 1.463 . S
C1779 C1784 1.350 . S
C1779 N1787 1.427 . S
C1780 H1771 0.930 . S
C1780 C1778 1.378 . S
C1780 C1781 1.367 . S
C1781 C1780 1.367 . S
C1781 C1783 1.433 . S
C1782 C1778 1.350 . S
C1782 C1779 1.463 . S
C1782 N1786 1.427 . S
C1783 H1773 0.929 . S
C1783 C1781 1.433 . S
C1783 N1786 1.384 . S
C1784 H1775 0.929 . S
C1784 C1776 1.378 . S
C1784 C1779 1.350 . S
C1785 H1772 0.929 . S
C1785 C1777 1.433 . S
C1785 N1787 1.384 . S
N1786 C1782 1.427 . S
N1786 C1783 1.384 . S
N1787 C1779 1.427 . S
N1787 C1785 1.384 . S
H1788 C1794 0.930 . S
H1789 C1798 0.930 . S
H1790 C1803 0.929 . S
H1791 C1801 0.929 . S
H1792 C1796 0.929 . S
H1793 C1802 0.929 . S
C1794 H1788 0.930 . S
C1794 C1795 1.367 . S
C1794 C1802 1.378 . S
C1795 C1794 1.367 . S
C1795 C1803 1.433 . S
C1796 H1792 0.929 . S
C1796 C1798 1.378 . S
C1796 C1800 1.350 . S
C1797 C1800 1.463 . S
C1797 C1802 1.350 . S
C1797 N1805 1.427 . S
C1798 H1789 0.930 . S
C1798 C1796 1.378 . S
C1798 C1799 1.367 . S
C1799 C1798 1.367 . S
C1799 C1801 1.433 . S
C1800 C1796 1.350 . S
C1800 C1797 1.463 . S
C1800 N1804 1.427 . S
C1801 H1791 0.929 . S
C1801 C1799 1.433 . S
C1801 N1804 1.384 . S
C1802 H1793 0.929 . S
C1802 C1794 1.378 . S
C1802 C1797 1.350 . S
C1803 H1790 0.929 . S
C1803 C1795 1.433 . S
C1803 N1805 1.384 . S
N1804 C1800 1.427 . S
N1804 C1801 1.384 . S
N1805 C1797 1.427 . S
N1805 C1803 1.384 . S
H1806 C1812 0.930 . S
H1807 C1816 0.930 . S
H1808 C1821 0.929 . S
H1809 C1819 0.929 . S
H1810 C1814 0.929 . S
H1811 C1820 0.929 . S
C1812 H1806 0.930 . S
C1812 C1813 1.367 . S
C1812 C1820 1.378 . S
C1813 C1812 1.367 . S
C1813 C1821 1.433 . S
C1814 H1810 0.929 . S
C1814 C1816 1.378 . S
C1814 C1818 1.350 . S
C1815 C1818 1.463 . S
C1815 C1820 1.350 . S
C1815 N1823 1.427 . S
C1816 H1807 0.930 . S
C1816 C1814 1.378 . S
C1816 C1817 1.367 . S
C1817 C1816 1.367 . S
C1817 C1819 1.433 . S
C1818 C1814 1.350 . S
C1818 C1815 1.463 . S
C1818 N1822 1.427 . S
C1819 H1809 0.929 . S
C1819 C1817 1.433 . S
C1819 N1822 1.384 . S
C1820 H1811 0.929 . S
C1820 C1812 1.378 . S
C1820 C1815 1.350 . S
C1821 H1808 0.929 . S
C1821 C1813 1.433 . S
C1821 N1823 1.384 . S
N1822 C1818 1.427 . S
N1822 C1819 1.384 . S
N1823 C1815 1.427 . S
N1823 C1821 1.384 . S
H1824 C1830 0.930 . S
H1825 C1834 0.930 . S
H1826 C1839 0.929 . S
H1827 C1837 0.929 . S
H1828 C1832 0.929 . S
H1829 C1838 0.929 1_455 S
C1830 H1824 0.930 . S
C1830 C1831 1.367 . S
C1830 C1838 1.378 . S
C1831 C1830 1.367 . S
C1831 C1839 1.433 . S
C1832 H1828 0.929 . S
C1832 C1834 1.378 . S
C1832 C1836 1.350 . S
C1833 C1836 1.463 1_655 S
C1833 C1838 1.350 . S
C1833 N1841 1.427 . S
C1834 H1825 0.930 . S
C1834 C1832 1.378 . S
C1834 C1835 1.367 . S
C1835 C1834 1.367 . S
C1835 C1837 1.433 . S
C1836 C1832 1.350 . S
C1836 C1833 1.463 1_455 S
C1836 N1840 1.427 . S
C1837 H1827 0.929 . S
C1837 C1835 1.433 . S
C1837 N1840 1.384 . S
C1838 H1829 0.929 1_655 S
C1838 C1830 1.378 . S
C1838 C1833 1.350 . S
C1839 H1826 0.929 . S
C1839 C1831 1.433 . S
C1839 N1841 1.384 . S
N1840 C1836 1.427 . S
N1840 C1837 1.384 . S
N1841 C1833 1.427 . S
N1841 C1839 1.384 . S
H1842 C1848 0.930 . S
H1843 C1852 0.930 . S
H1844 C1857 0.929 . S
H1845 C1855 0.929 . S
H1846 C1850 0.929 . S
H1847 C1856 0.929 . S
C1848 H1842 0.930 . S
C1848 C1849 1.367 . S
C1848 C1856 1.378 . S
C1849 C1848 1.367 . S
C1849 C1857 1.433 . S
C1850 H1846 0.929 . S
C1850 C1852 1.378 . S
C1850 C1854 1.350 . S
C1851 C1854 1.463 . S
C1851 C1856 1.350 . S
C1851 N1859 1.427 . S
C1852 H1843 0.930 . S
C1852 C1850 1.378 . S
C1852 C1853 1.367 . S
C1853 C1852 1.367 . S
C1853 C1855 1.433 . S
C1854 C1850 1.350 . S
C1854 C1851 1.463 . S
C1854 N1858 1.427 . S
C1855 H1845 0.929 . S
C1855 C1853 1.433 . S
C1855 N1858 1.384 . S
C1856 H1847 0.929 . S
C1856 C1848 1.378 . S
C1856 C1851 1.350 . S
C1857 H1844 0.929 . S
C1857 C1849 1.433 . S
C1857 N1859 1.384 . S
N1858 C1854 1.427 . S
N1858 C1855 1.384 . S
N1859 C1851 1.427 . S
N1859 C1857 1.384 . S
H1860 C1866 0.930 . S
H1861 C1870 0.930 . S
H1862 C1875 0.929 . S
H1863 C1873 0.929 . S
H1864 C1868 0.929 . S
H1865 C1874 0.929 . S
C1866 H1860 0.930 . S
C1866 C1867 1.367 . S
C1866 C1874 1.378 . S
C1867 C1866 1.367 . S
C1867 C1875 1.433 . S
C1868 H1864 0.929 . S
C1868 C1870 1.378 . S
C1868 C1872 1.350 . S
C1869 C1872 1.463 . S
C1869 C1874 1.350 . S
C1869 N1877 1.427 . S
C1870 H1861 0.930 . S
C1870 C1868 1.378 . S
C1870 C1871 1.367 . S
C1871 C1870 1.367 . S
C1871 C1873 1.433 . S
C1872 C1868 1.350 . S
C1872 C1869 1.463 . S
C1872 N1876 1.427 . S
C1873 H1863 0.929 . S
C1873 C1871 1.433 . S
C1873 N1876 1.384 . S
C1874 H1865 0.929 . S
C1874 C1866 1.378 . S
C1874 C1869 1.350 . S
C1875 H1862 0.929 . S
C1875 C1867 1.433 . S
C1875 N1877 1.384 . S
N1876 C1872 1.427 . S
N1876 C1873 1.384 . S
N1877 C1869 1.427 . S
N1877 C1875 1.384 . S
H1878 C1884 0.930 . S
H1879 C1888 0.930 . S
H1880 C1893 0.929 . S
H1881 C1891 0.929 . S
H1882 C1886 0.929 . S
H1883 C1892 0.929 . S
C1884 H1878 0.930 . S
C1884 C1885 1.367 . S
C1884 C1892 1.378 . S
C1885 C1884 1.367 . S
C1885 C1893 1.433 . S
C1886 H1882 0.929 . S
C1886 C1888 1.378 . S
C1886 C1890 1.350 . S
C1887 C1890 1.463 . S
C1887 C1892 1.350 . S
C1887 N1895 1.427 . S
C1888 H1879 0.930 . S
C1888 C1886 1.378 . S
C1888 C1889 1.367 . S
C1889 C1888 1.367 . S
C1889 C1891 1.433 . S
C1890 C1886 1.350 . S
C1890 C1887 1.463 . S
C1890 N1894 1.427 . S
C1891 H1881 0.929 . S
C1891 C1889 1.433 . S
C1891 N1894 1.384 . S
C1892 H1883 0.929 . S
C1892 C1884 1.378 . S
C1892 C1887 1.350 . S
C1893 H1880 0.929 . S
C1893 C1885 1.433 . S
C1893 N1895 1.384 . S
N1894 C1890 1.427 . S
N1894 C1891 1.384 . S
N1895 C1887 1.427 . S
N1895 C1893 1.384 . S
H1896 C1902 0.930 . S
H1897 C1906 0.930 . S
H1898 C1911 0.929 . S
H1899 C1909 0.929 . S
H1900 C1904 0.929 1_655 S
H1901 C1910 0.929 . S
C1902 H1896 0.930 . S
C1902 C1903 1.367 1_455 S
C1902 C1910 1.378 . S
C1903 C1902 1.367 1_655 S
C1903 C1911 1.433 . S
C1904 H1900 0.929 1_455 S
C1904 C1906 1.378 . S
C1904 C1908 1.350 . S
C1905 C1908 1.463 . S
C1905 C1910 1.350 . S
C1905 N1913 1.427 1_455 S
C1906 H1897 0.930 . S
C1906 C1904 1.378 . S
C1906 C1907 1.367 . S
C1907 C1906 1.367 . S
C1907 C1909 1.433 . S
C1908 C1904 1.350 . S
C1908 C1905 1.463 . S
C1908 N1912 1.427 . S
C1909 H1899 0.929 . S
C1909 C1907 1.433 . S
C1909 N1912 1.384 . S
C1910 H1901 0.929 . S
C1910 C1902 1.378 . S
C1910 C1905 1.350 . S
C1911 H1898 0.929 . S
C1911 C1903 1.433 . S
C1911 N1913 1.384 . S
N1912 C1908 1.427 . S
N1912 C1909 1.384 . S
N1913 C1905 1.427 1_655 S
N1913 C1911 1.384 . S
H1914 C1920 0.930 . S
H1915 C1924 0.930 . S
H1916 C1929 0.929 . S
H1917 C1927 0.929 . S
H1918 C1922 0.929 . S
H1919 C1928 0.929 . S
C1920 H1914 0.930 . S
C1920 C1921 1.367 . S
C1920 C1928 1.378 . S
C1921 C1920 1.367 . S
C1921 C1929 1.433 . S
C1922 H1918 0.929 . S
C1922 C1924 1.378 . S
C1922 C1926 1.350 . S
C1923 C1926 1.463 . S
C1923 C1928 1.350 . S
C1923 N1931 1.427 . S
C1924 H1915 0.930 . S
C1924 C1922 1.378 . S
C1924 C1925 1.367 . S
C1925 C1924 1.367 . S
C1925 C1927 1.433 . S
C1926 C1922 1.350 . S
C1926 C1923 1.463 . S
C1926 N1930 1.427 . S
C1927 H1917 0.929 . S
C1927 C1925 1.433 . S
C1927 N1930 1.384 . S
C1928 H1919 0.929 . S
C1928 C1920 1.378 . S
C1928 C1923 1.350 . S
C1929 H1916 0.929 . S
C1929 C1921 1.433 . S
C1929 N1931 1.384 . S
N1930 C1926 1.427 . S
N1930 C1927 1.384 . S
N1931 C1923 1.427 . S
N1931 C1929 1.384 . S
H1932 C1938 0.930 . S
H1933 C1942 0.930 . S
H1934 C1947 0.929 . S
H1935 C1945 0.929 . S
H1936 C1940 0.929 . S
H1937 C1946 0.929 . S
C1938 H1932 0.930 . S
C1938 C1939 1.367 . S
C1938 C1946 1.378 . S
C1939 C1938 1.367 . S
C1939 C1947 1.433 . S
C1940 H1936 0.929 . S
C1940 C1942 1.378 . S
C1940 C1944 1.350 . S
C1941 C1944 1.463 . S
C1941 C1946 1.350 . S
C1941 N1949 1.427 . S
C1942 H1933 0.930 . S
C1942 C1940 1.378 . S
C1942 C1943 1.367 . S
C1943 C1942 1.367 . S
C1943 C1945 1.433 . S
C1944 C1940 1.350 . S
C1944 C1941 1.463 . S
C1944 N1948 1.427 . S
C1945 H1935 0.929 . S
C1945 C1943 1.433 . S
C1945 N1948 1.384 . S
C1946 H1937 0.929 . S
C1946 C1938 1.378 . S
C1946 C1941 1.350 . S
C1947 H1934 0.929 . S
C1947 C1939 1.433 . S
C1947 N1949 1.384 . S
N1948 C1944 1.427 . S
N1948 C1945 1.384 . S
N1949 C1941 1.427 . S
N1949 C1947 1.384 . S
H1950 C1956 0.930 . S
H1951 C1960 0.930 . S
H1952 C1965 0.929 . S
H1953 C1963 0.929 . S
H1954 C1958 0.929 . S
H1955 C1964 0.929 . S
C1956 H1950 0.930 . S
C1956 C1957 1.367 . S
C1956 C1964 1.378 . S
C1957 C1956 1.367 . S
C1957 C1965 1.433 . S
C1958 H1954 0.929 . S
C1958 C1960 1.378 . S
C1958 C1962 1.350 . S
C1959 C1962 1.463 . S
C1959 C1964 1.350 . S
C1959 N1967 1.427 . S
C1960 H1951 0.930 . S
C1960 C1958 1.378 . S
C1960 C1961 1.367 . S
C1961 C1960 1.367 . S
C1961 C1963 1.433 . S
C1962 C1958 1.350 . S
C1962 C1959 1.463 . S
C1962 N1966 1.427 . S
C1963 H1953 0.929 . S
C1963 C1961 1.433 . S
C1963 N1966 1.384 . S
C1964 H1955 0.929 . S
C1964 C1956 1.378 . S
C1964 C1959 1.350 . S
C1965 H1952 0.929 . S
C1965 C1957 1.433 . S
C1965 N1967 1.384 . S
N1966 C1962 1.427 . S
N1966 C1963 1.384 . S
N1967 C1959 1.427 . S
N1967 C1965 1.384 . S
H1968 C1974 0.930 . S
H1969 C1978 0.930 . S
H1970 C1983 0.929 . S
H1971 C1981 0.929 . S
H1972 C1976 0.929 1_556 S
H1973 C1982 0.901 1_545 S
C1974 H1968 0.930 . S
C1974 C1975 1.367 . S
C1974 C1982 1.378 . S
C1975 C1974 1.367 . S
C1975 C1983 1.433 1_554 S
C1976 H1972 0.929 1_554 S
C1976 C1978 1.378 . S
C1976 C1980 1.350 . S
C1977 C1980 1.463 . S
C1977 C1982 1.350 . S
C1977 N1985 1.447 . S
C1978 H1969 0.930 . S
C1978 C1976 1.378 . S
C1978 C1979 1.367 1_565 S
C1979 C1978 1.367 1_545 S
C1979 C1981 1.433 . S
C1980 C1976 1.350 . S
C1980 C1977 1.463 . S
C1980 N1984 1.427 1_565 S
C1981 H1971 0.929 . S
C1981 C1979 1.433 . S
C1981 N1984 1.384 . S
C1982 H1973 0.901 1_565 S
C1982 C1974 1.378 . S
C1982 C1977 1.350 . S
C1983 H1970 0.929 . S
C1983 C1975 1.433 1_556 S
C1983 N1985 1.380 1_556 S
N1984 C1980 1.427 1_545 S
N1984 C1981 1.384 . S
N1985 C1977 1.447 . S
N1985 C1983 1.380 1_554 S
H1986 C1992 0.930 . S
H1987 C1996 0.930 . S
H1988 C2001 0.929 . S
H1989 C1999 0.929 . S
H1990 C1994 0.929 . S
H1991 C2000 0.929 . S
C1992 H1986 0.930 . S
C1992 C1993 1.367 1_554 S
C1992 C2000 1.378 . S
C1993 C1992 1.367 1_556 S
C1993 C2001 1.433 . S
C1994 H1990 0.929 . S
C1994 C1996 1.378 . S
C1994 C1998 1.350 . S
C1995 C1998 1.463 . S
C1995 C2000 1.350 1_556 S
C1995 N2003 1.427 . S
C1996 H1987 0.930 . S
C1996 C1994 1.378 . S
C1996 C1997 1.383 . S
C1997 C1996 1.383 . S
C1997 C1999 1.421 1_556 S
C1998 C1994 1.350 . S
C1998 C1995 1.463 . S
C1998 N2002 1.427 1_556 S
C1999 H1989 0.929 . S
C1999 C1997 1.421 1_554 S
C1999 N2002 1.384 . S
C2000 H1991 0.929 . S
C2000 C1992 1.378 . S
C2000 C1995 1.350 1_554 S
C2001 H1988 0.929 . S
C2001 C1993 1.433 . S
C2001 N2003 1.384 . S
N2002 C1998 1.427 1_554 S
N2002 C1999 1.384 . S
N2003 C1995 1.427 . S
N2003 C2001 1.384 . S
H2004 C2010 0.930 . S
H2005 C2014 0.930 . S
H2006 C2019 0.929 . S
H2007 C2017 0.929 . S
H2008 C2012 0.929 . S
H2009 C2018 0.929 . S
C2010 H2004 0.930 . S
C2010 C2011 1.367 . S
C2010 C2018 1.378 . S
C2011 C2010 1.367 . S
C2011 C2019 1.433 . S
C2012 H2008 0.929 . S
C2012 C2014 1.378 . S
C2012 C2016 1.350 . S
C2013 C2016 1.463 . S
C2013 C2018 1.350 . S
C2013 N2021 1.427 . S
C2014 H2005 0.930 . S
C2014 C2012 1.378 . S
C2014 C2015 1.367 . S
C2015 C2014 1.367 . S
C2015 C2017 1.433 . S
C2016 C2012 1.350 . S
C2016 C2013 1.463 . S
C2016 N2020 1.427 . S
C2017 H2007 0.929 . S
C2017 C2015 1.433 . S
C2017 N2020 1.384 . S
C2018 H2009 0.929 . S
C2018 C2010 1.378 . S
C2018 C2013 1.350 . S
C2019 H2006 0.929 . S
C2019 C2011 1.433 . S
C2019 N2021 1.384 . S
N2020 C2016 1.427 . S
N2020 C2017 1.384 . S
N2021 C2013 1.427 . S
N2021 C2019 1.384 . S
H2022 C2028 0.930 . S
H2023 C2032 0.930 . S
H2024 C2037 0.929 . S
H2025 C2035 0.929 . S
H2026 C2030 0.929 . S
H2027 C2036 0.929 . S
C2028 H2022 0.930 . S
C2028 C2029 1.367 . S
C2028 C2036 1.378 . S
C2029 C2028 1.367 . S
C2029 C2037 1.433 . S
C2030 H2026 0.929 . S
C2030 C2032 1.378 1_655 S
C2030 C2034 1.350 . S
C2031 C2034 1.463 . S
C2031 C2036 1.350 . S
C2031 N2039 1.427 . S
C2032 H2023 0.930 . S
C2032 C2030 1.378 1_455 S
C2032 C2033 1.367 . S
C2033 C2032 1.367 . S
C2033 C2035 1.433 1_455 S
C2034 C2030 1.350 . S
C2034 C2031 1.463 . S
C2034 N2038 1.427 . S
C2035 H2025 0.929 . S
C2035 C2033 1.433 1_655 S
C2035 N2038 1.384 . S
C2036 H2027 0.929 . S
C2036 C2028 1.378 . S
C2036 C2031 1.350 . S
C2037 H2024 0.929 . S
C2037 C2029 1.433 . S
C2037 N2039 1.384 . S
N2038 C2034 1.427 . S
N2038 C2035 1.384 . S
N2039 C2031 1.427 . S
N2039 C2037 1.384 . S
H2040 C2046 0.930 . S
H2041 C2050 0.930 . S
H2042 C2055 0.929 . S
H2043 C2053 0.929 . S
H2044 C2048 0.929 . S
H2045 C2054 0.929 . S
C2046 H2040 0.930 . S
C2046 C2047 1.367 . S
C2046 C2054 1.378 . S
C2047 C2046 1.367 . S
C2047 C2055 1.433 . S
C2048 H2044 0.929 . S
C2048 C2050 1.378 . S
C2048 C2052 1.350 . S
C2049 C2052 1.463 . S
C2049 C2054 1.350 . S
C2049 N2057 1.427 . S
C2050 H2041 0.930 . S
C2050 C2048 1.378 . S
C2050 C2051 1.367 . S
C2051 C2050 1.367 . S
C2051 C2053 1.433 . S
C2052 C2048 1.350 . S
C2052 C2049 1.463 . S
C2052 N2056 1.427 . S
C2053 H2043 0.929 . S
C2053 C2051 1.433 . S
C2053 N2056 1.384 . S
C2054 H2045 0.929 . S
C2054 C2046 1.378 . S
C2054 C2049 1.350 . S
C2055 H2042 0.929 . S
C2055 C2047 1.433 . S
C2055 N2057 1.384 . S
N2056 C2052 1.427 . S
N2056 C2053 1.384 . S
N2057 C2049 1.427 . S
N2057 C2055 1.384 . S
H2058 C2064 0.930 . S
H2059 C2068 0.930 . S
H2060 C2073 0.929 . S
H2061 C2071 0.929 . S
H2062 C2066 0.929 . S
H2063 C2072 0.929 . S
C2064 H2058 0.930 . S
C2064 C2065 1.367 . S
C2064 C2072 1.378 . S
C2065 C2064 1.367 . S
C2065 C2073 1.433 . S
C2066 H2062 0.929 . S
C2066 C2068 1.378 . S
C2066 C2070 1.350 . S
C2067 C2070 1.463 . S
C2067 C2072 1.350 . S
C2067 N2075 1.427 . S
C2068 H2059 0.930 . S
C2068 C2066 1.378 . S
C2068 C2069 1.367 . S
C2069 C2068 1.367 . S
C2069 C2071 1.433 . S
C2070 C2066 1.350 . S
C2070 C2067 1.463 . S
C2070 N2074 1.427 . S
C2071 H2061 0.929 . S
C2071 C2069 1.433 . S
C2071 N2074 1.384 . S
C2072 H2063 0.929 . S
C2072 C2064 1.378 . S
C2072 C2067 1.350 . S
C2073 H2060 0.929 . S
C2073 C2065 1.433 . S
C2073 N2075 1.384 . S
N2074 C2070 1.427 . S
N2074 C2071 1.384 . S
N2075 C2067 1.427 . S
N2075 C2073 1.384 . S
H2076 C2082 0.930 . S
H2077 C2086 0.930 . S
H2078 C2091 0.929 . S
H2079 C2089 0.929 . S
H2080 C2084 0.929 . S
H2081 C2090 0.929 . S
C2082 H2076 0.930 . S
C2082 C2083 1.367 . S
C2082 C2090 1.378 . S
C2083 C2082 1.367 . S
C2083 C2091 1.433 . S
C2084 H2080 0.929 . S
C2084 C2086 1.378 . S
C2084 C2088 1.350 . S
C2085 C2088 1.463 . S
C2085 C2090 1.350 . S
C2085 N2093 1.427 . S
C2086 H2077 0.930 . S
C2086 C2084 1.378 . S
C2086 C2087 1.367 . S
C2087 C2086 1.367 . S
C2087 C2089 1.433 . S
C2088 C2084 1.350 . S
C2088 C2085 1.463 . S
C2088 N2092 1.427 . S
C2089 H2079 0.929 . S
C2089 C2087 1.433 . S
C2089 N2092 1.384 . S
C2090 H2081 0.929 . S
C2090 C2082 1.378 . S
C2090 C2085 1.350 . S
C2091 H2078 0.929 . S
C2091 C2083 1.433 . S
C2091 N2093 1.384 . S
N2092 C2088 1.427 . S
N2092 C2089 1.384 . S
N2093 C2085 1.427 . S
N2093 C2091 1.384 . S
H2094 C2100 0.930 . S
H2095 C2104 0.930 . S
H2096 C2109 0.929 . S
H2097 C2107 0.929 . S
H2098 C2102 0.929 . S
H2099 C2108 0.929 . S
C2100 H2094 0.930 . S
C2100 C2101 1.367 . S
C2100 C2108 1.378 . S
C2101 C2100 1.367 . S
C2101 C2109 1.433 . S
C2102 H2098 0.929 . S
C2102 C2104 1.378 . S
C2102 C2106 1.350 . S
C2103 C2106 1.463 . S
C2103 C2108 1.350 . S
C2103 N2111 1.427 . S
C2104 H2095 0.930 . S
C2104 C2102 1.378 . S
C2104 C2105 1.367 . S
C2105 C2104 1.367 . S
C2105 C2107 1.433 . S
C2106 C2102 1.350 . S
C2106 C2103 1.463 . S
C2106 N2110 1.427 . S
C2107 H2097 0.929 . S
C2107 C2105 1.433 . S
C2107 N2110 1.384 . S
C2108 H2099 0.929 . S
C2108 C2100 1.378 . S
C2108 C2103 1.350 . S
C2109 H2096 0.929 . S
C2109 C2101 1.433 . S
C2109 N2111 1.384 . S
N2110 C2106 1.427 . S
N2110 C2107 1.384 . S
N2111 C2103 1.427 . S
N2111 C2109 1.384 . S
H2112 C2118 0.930 . S
H2113 C2122 0.930 1_556 S
H2114 C2127 0.929 . S
H2115 C2125 0.929 . S
H2116 C2120 0.929 . S
H2117 C2126 0.929 . S
C2118 H2112 0.930 . S
C2118 C2119 1.367 . S
C2118 C2126 1.378 . S
C2119 C2118 1.367 . S
C2119 C2127 1.433 . S
C2120 H2116 0.929 . S
C2120 C2122 1.378 . S
C2120 C2124 1.350 . S
C2121 C2124 1.463 . S
C2121 C2126 1.350 . S
C2121 N2129 1.427 . S
C2122 H2113 0.930 1_554 S
C2122 C2120 1.378 . S
C2122 C2123 1.367 . S
C2123 C2122 1.367 . S
C2123 C2125 1.433 . S
C2124 C2120 1.350 . S
C2124 C2121 1.463 . S
C2124 N2128 1.427 . S
C2125 H2115 0.929 . S
C2125 C2123 1.433 . S
C2125 N2128 1.384 . S
C2126 H2117 0.929 . S
C2126 C2118 1.378 . S
C2126 C2121 1.350 . S
C2127 H2114 0.929 . S
C2127 C2119 1.433 . S
C2127 N2129 1.384 . S
N2128 C2124 1.427 . S
N2128 C2125 1.384 . S
N2129 C2121 1.427 . S
N2129 C2127 1.384 . S
H2130 C2136 0.930 . S
H2131 C2140 0.930 . S
H2132 C2145 0.929 . S
H2133 C2143 0.929 . S
H2134 C2138 0.929 . S
H2135 C2144 0.929 . S
C2136 H2130 0.930 . S
C2136 C2137 1.367 . S
C2136 C2144 1.378 . S
C2137 C2136 1.367 . S
C2137 C2145 1.433 . S
C2138 H2134 0.929 . S
C2138 C2140 1.378 . S
C2138 C2142 1.350 . S
C2139 C2142 1.463 . S
C2139 C2144 1.350 . S
C2139 N2147 1.427 . S
C2140 H2131 0.930 . S
C2140 C2138 1.378 . S
C2140 C2141 1.367 . S
C2141 C2140 1.367 . S
C2141 C2143 1.433 . S
C2142 C2138 1.350 . S
C2142 C2139 1.463 . S
C2142 N2146 1.427 . S
C2143 H2133 0.929 . S
C2143 C2141 1.433 . S
C2143 N2146 1.384 . S
C2144 H2135 0.929 . S
C2144 C2136 1.378 . S
C2144 C2139 1.350 . S
C2145 H2132 0.929 . S
C2145 C2137 1.433 . S
C2145 N2147 1.384 . S
N2146 C2142 1.427 . S
N2146 C2143 1.384 . S
N2147 C2139 1.427 . S
N2147 C2145 1.384 . S
H2148 C2154 0.930 . S
H2149 C2158 0.930 . S
H2150 C2163 0.929 . S
H2151 C2161 0.929 . S
H2152 C2156 0.929 . S
H2153 C2162 0.929 . S
C2154 H2148 0.930 . S
C2154 C2155 1.367 . S
C2154 C2162 1.378 . S
C2155 C2154 1.367 . S
C2155 C2163 1.433 . S
C2156 H2152 0.929 . S
C2156 C2158 1.378 . S
C2156 C2160 1.350 . S
C2157 C2160 1.463 . S
C2157 C2162 1.350 . S
C2157 N2165 1.427 . S
C2158 H2149 0.930 . S
C2158 C2156 1.378 . S
C2158 C2159 1.367 . S
C2159 C2158 1.367 . S
C2159 C2161 1.433 . S
C2160 C2156 1.350 . S
C2160 C2157 1.463 . S
C2160 N2164 1.427 . S
C2161 H2151 0.929 . S
C2161 C2159 1.433 . S
C2161 N2164 1.384 . S
C2162 H2153 0.929 . S
C2162 C2154 1.378 . S
C2162 C2157 1.350 . S
C2163 H2150 0.929 . S
C2163 C2155 1.433 . S
C2163 N2165 1.384 . S
N2164 C2160 1.427 . S
N2164 C2161 1.384 . S
N2165 C2157 1.427 . S
N2165 C2163 1.384 . S
H2166 C2172 0.930 . S
H2167 C2176 0.930 . S
H2168 C2181 0.929 . S
H2169 C2179 0.929 . S
H2170 C2174 0.929 . S
H2171 C2180 0.929 . S
C2172 H2166 0.930 . S
C2172 C2173 1.367 . S
C2172 C2180 1.378 . S
C2173 C2172 1.367 . S
C2173 C2181 1.433 . S
C2174 H2170 0.929 . S
C2174 C2176 1.378 . S
C2174 C2178 1.350 . S
C2175 C2178 1.463 . S
C2175 C2180 1.350 . S
C2175 N2183 1.427 . S
C2176 H2167 0.930 . S
C2176 C2174 1.378 . S
C2176 C2177 1.367 . S
C2177 C2176 1.367 . S
C2177 C2179 1.433 . S
C2178 C2174 1.350 . S
C2178 C2175 1.463 . S
C2178 N2182 1.427 . S
C2179 H2169 0.929 . S
C2179 C2177 1.433 . S
C2179 N2182 1.384 . S
C2180 H2171 0.929 . S
C2180 C2172 1.378 . S
C2180 C2175 1.350 . S
C2181 H2168 0.929 . S
C2181 C2173 1.433 . S
C2181 N2183 1.384 . S
N2182 C2178 1.427 . S
N2182 C2179 1.384 . S
N2183 C2175 1.427 . S
N2183 C2181 1.384 . S
H2184 C2190 0.930 . S
H2185 C2194 0.930 . S
H2186 C2199 0.929 . S
H2187 C2197 0.929 . S
H2188 C2192 0.929 . S
H2189 C2198 0.929 . S
C2190 H2184 0.930 . S
C2190 C2191 1.367 . S
C2190 C2198 1.378 . S
C2191 C2190 1.367 . S
C2191 C2199 1.433 . S
C2192 H2188 0.929 . S
C2192 C2194 1.378 . S
C2192 C2196 1.350 . S
C2193 C2196 1.463 . S
C2193 C2198 1.350 . S
C2193 N2201 1.427 . S
C2194 H2185 0.930 . S
C2194 C2192 1.378 . S
C2194 C2195 1.367 . S
C2195 C2194 1.367 . S
C2195 C2197 1.433 . S
C2196 C2192 1.350 . S
C2196 C2193 1.463 . S
C2196 N2200 1.427 . S
C2197 H2187 0.929 . S
C2197 C2195 1.433 . S
C2197 N2200 1.384 . S
C2198 H2189 0.929 . S
C2198 C2190 1.378 . S
C2198 C2193 1.350 . S
C2199 H2186 0.929 . S
C2199 C2191 1.433 . S
C2199 N2201 1.384 . S
N2200 C2196 1.427 . S
N2200 C2197 1.384 . S
N2201 C2193 1.427 . S
N2201 C2199 1.384 . S
H2202 C2208 0.930 . S
H2203 C2212 0.930 . S
H2204 C2217 0.929 . S
H2205 C2215 0.929 . S
H2206 C2210 0.929 . S
H2207 C2216 0.929 . S
C2208 H2202 0.930 . S
C2208 C2209 1.367 . S
C2208 C2216 1.378 . S
C2209 C2208 1.367 . S
C2209 C2217 1.433 . S
C2210 H2206 0.929 . S
C2210 C2212 1.378 . S
C2210 C2214 1.350 . S
C2211 C2214 1.463 . S
C2211 C2216 1.350 . S
C2211 N2219 1.427 . S
C2212 H2203 0.930 . S
C2212 C2210 1.378 . S
C2212 C2213 1.367 . S
C2213 C2212 1.367 . S
C2213 C2215 1.433 . S
C2214 C2210 1.350 . S
C2214 C2211 1.463 . S
C2214 N2218 1.427 . S
C2215 H2205 0.929 . S
C2215 C2213 1.433 . S
C2215 N2218 1.384 . S
C2216 H2207 0.929 . S
C2216 C2208 1.378 . S
C2216 C2211 1.350 . S
C2217 H2204 0.929 . S
C2217 C2209 1.433 . S
C2217 N2219 1.384 . S
N2218 C2214 1.427 . S
N2218 C2215 1.384 . S
N2219 C2211 1.427 . S
N2219 C2217 1.384 . S
H2220 C2226 0.930 . S
H2221 C2230 0.930 . S
H2222 C2235 0.929 . S
H2223 C2233 0.929 1_554 S
H2224 C2228 0.929 . S
H2225 C2234 0.929 . S
C2226 H2220 0.930 . S
C2226 C2227 1.367 . S
C2226 C2234 1.378 . S
C2227 C2226 1.367 . S
C2227 C2235 1.433 . S
C2228 H2224 0.929 . S
C2228 C2230 1.378 . S
C2228 C2232 1.350 . S
C2229 C2232 1.463 . S
C2229 C2234 1.350 . S
C2229 N2237 1.427 . S
C2230 H2221 0.930 . S
C2230 C2228 1.378 . S
C2230 C2231 1.367 . S
C2231 C2230 1.367 . S
C2231 C2233 1.433 . S
C2232 C2228 1.350 . S
C2232 C2229 1.463 . S
C2232 N2236 1.427 . S
C2233 H2223 0.929 1_556 S
C2233 C2231 1.433 . S
C2233 N2236 1.384 . S
C2234 H2225 0.929 . S
C2234 C2226 1.378 . S
C2234 C2229 1.350 . S
C2235 H2222 0.929 . S
C2235 C2227 1.433 . S
C2235 N2237 1.384 . S
N2236 C2232 1.427 . S
N2236 C2233 1.384 . S
N2237 C2229 1.427 . S
N2237 C2235 1.384 . S
H2238 C2244 0.930 . S
H2239 C2248 0.930 . S
H2240 C2253 0.929 . S
H2241 C2251 0.929 . S
H2242 C2246 0.929 . S
H2243 C2252 0.929 . S
C2244 H2238 0.930 . S
C2244 C2245 1.367 . S
C2244 C2252 1.378 . S
C2245 C2244 1.367 . S
C2245 C2253 1.433 . S
C2246 H2242 0.929 . S
C2246 C2248 1.378 . S
C2246 C2250 1.350 . S
C2247 C2250 1.463 . S
C2247 C2252 1.350 . S
C2247 N2255 1.427 . S
C2248 H2239 0.930 . S
C2248 C2246 1.378 . S
C2248 C2249 1.367 . S
C2249 C2248 1.367 . S
C2249 C2251 1.433 . S
C2250 C2246 1.350 . S
C2250 C2247 1.463 . S
C2250 N2254 1.427 . S
C2251 H2241 0.929 . S
C2251 C2249 1.433 . S
C2251 N2254 1.384 . S
C2252 H2243 0.929 . S
C2252 C2244 1.378 . S
C2252 C2247 1.350 . S
C2253 H2240 0.929 . S
C2253 C2245 1.433 . S
C2253 N2255 1.384 . S
N2254 C2250 1.427 . S
N2254 C2251 1.384 . S
N2255 C2247 1.427 . S
N2255 C2253 1.384 . S
H2256 C2262 0.930 . S
H2257 C2266 0.930 . S
H2258 C2271 0.929 . S
H2259 C2269 0.929 . S
H2260 C2264 0.929 . S
H2261 C2270 0.929 . S
C2262 H2256 0.930 . S
C2262 C2263 1.367 1_565 S
C2262 C2270 1.378 . S
C2263 C2262 1.367 1_545 S
C2263 C2271 1.433 . S
C2264 H2260 0.929 . S
C2264 C2266 1.378 . S
C2264 C2268 1.350 . S
C2265 C2268 1.463 . S
C2265 C2270 1.350 1_545 S
C2265 N2273 1.427 . S
C2266 H2257 0.930 . S
C2266 C2264 1.378 . S
C2266 C2267 1.367 . S
C2267 C2266 1.367 . S
C2267 C2269 1.433 1_545 S
C2268 C2264 1.350 . S
C2268 C2265 1.463 . S
C2268 N2272 1.427 1_545 S
C2269 H2259 0.929 . S
C2269 C2267 1.433 1_565 S
C2269 N2272 1.384 . S
C2270 H2261 0.929 . S
C2270 C2262 1.378 . S
C2270 C2265 1.350 1_565 S
C2271 H2258 0.929 . S
C2271 C2263 1.433 . S
C2271 N2273 1.384 . S
N2272 C2268 1.427 1_565 S
N2272 C2269 1.384 . S
N2273 C2265 1.427 . S
N2273 C2271 1.384 . S
H2274 C2280 0.930 . S
H2275 C2284 0.930 . S
H2276 C2289 0.929 . S
H2277 C2287 0.929 . S
H2278 C2282 0.929 . S
H2279 C2288 0.929 . S
C2280 H2274 0.930 . S
C2280 C2281 1.367 . S
C2280 C2288 1.378 . S
C2281 C2280 1.367 . S
C2281 C2289 1.433 . S
C2282 H2278 0.929 . S
C2282 C2284 1.378 . S
C2282 C2286 1.350 . S
C2283 C2286 1.463 . S
C2283 C2288 1.350 . S
C2283 N2291 1.427 . S
C2284 H2275 0.930 . S
C2284 C2282 1.378 . S
C2284 C2285 1.367 . S
C2285 C2284 1.367 . S
C2285 C2287 1.433 . S
C2286 C2282 1.350 . S
C2286 C2283 1.463 . S
C2286 N2290 1.427 . S
C2287 H2277 0.929 . S
C2287 C2285 1.433 . S
C2287 N2290 1.384 . S
C2288 H2279 0.929 . S
C2288 C2280 1.378 . S
C2288 C2283 1.350 . S
C2289 H2276 0.929 . S
C2289 C2281 1.433 . S
C2289 N2291 1.384 . S
N2290 C2286 1.427 . S
N2290 C2287 1.384 . S
N2291 C2283 1.427 . S
N2291 C2289 1.384 . S
H2292 C2298 0.930 1_565 S
H2293 C2302 0.930 . S
H2294 C2307 0.929 . S
H2295 C2305 0.929 . S
H2296 C2300 0.929 . S
H2297 C2306 0.929 1_565 S
C2298 H2292 0.930 1_545 S
C2298 C2299 1.367 . S
C2298 C2306 1.378 . S
C2299 C2298 1.367 . S
C2299 C2307 1.433 . S
C2300 H2296 0.929 . S
C2300 C2302 1.378 . S
C2300 C2304 1.350 . S
C2301 C2304 1.463 . S
C2301 C2306 1.350 . S
C2301 N2309 1.427 . S
C2302 H2293 0.930 . S
C2302 C2300 1.378 . S
C2302 C2303 1.367 . S
C2303 C2302 1.367 . S
C2303 C2305 1.433 . S
C2304 C2300 1.350 . S
C2304 C2301 1.463 . S
C2304 N2308 1.427 . S
C2305 H2295 0.929 . S
C2305 C2303 1.433 . S
C2305 N2308 1.384 . S
C2306 H2297 0.929 1_545 S
C2306 C2298 1.378 . S
C2306 C2301 1.350 . S
C2307 H2294 0.929 . S
C2307 C2299 1.433 . S
C2307 N2309 1.384 . S
N2308 C2304 1.427 . S
N2308 C2305 1.384 . S
N2309 C2301 1.427 . S
N2309 C2307 1.384 . S
H2310 C2316 0.930 . S
H2311 C2320 0.930 . S
H2312 C2325 0.929 . S
H2313 C2323 0.929 . S
H2314 C2318 0.929 . S
H2315 C2324 0.929 . S
C2316 H2310 0.930 . S
C2316 C2317 1.367 . S
C2316 C2324 1.378 . S
C2317 C2316 1.367 . S
C2317 C2325 1.433 . S
C2318 H2314 0.929 . S
C2318 C2320 1.378 . S
C2318 C2322 1.350 . S
C2319 C2322 1.463 . S
C2319 C2324 1.350 . S
C2319 N2327 1.427 . S
C2320 H2311 0.930 . S
C2320 C2318 1.378 . S
C2320 C2321 1.367 . S
C2321 C2320 1.367 . S
C2321 C2323 1.433 . S
C2322 C2318 1.350 . S
C2322 C2319 1.463 . S
C2322 N2326 1.427 . S
C2323 H2313 0.929 . S
C2323 C2321 1.433 . S
C2323 N2326 1.384 . S
C2324 H2315 0.929 . S
C2324 C2316 1.378 . S
C2324 C2319 1.350 . S
C2325 H2312 0.929 . S
C2325 C2317 1.433 . S
C2325 N2327 1.384 . S
N2326 C2322 1.427 . S
N2326 C2323 1.384 . S
N2327 C2319 1.427 . S
N2327 C2325 1.384 . S
H2328 C2334 0.930 . S
H2329 C2338 0.930 . S
H2330 C2343 0.929 . S
H2331 C2341 0.929 . S
H2332 C2336 0.929 . S
H2333 C2342 0.929 . S
C2334 H2328 0.930 . S
C2334 C2335 1.367 . S
C2334 C2342 1.378 . S
C2335 C2334 1.367 . S
C2335 C2343 1.433 1_565 S
C2336 H2332 0.929 . S
C2336 C2338 1.378 . S
C2336 C2340 1.350 . S
C2337 C2340 1.463 . S
C2337 C2342 1.350 1_545 S
C2337 N2345 1.427 . S
C2338 H2329 0.930 . S
C2338 C2336 1.378 . S
C2338 C2339 1.367 . S
C2339 C2338 1.367 . S
C2339 C2341 1.433 . S
C2340 C2336 1.350 . S
C2340 C2337 1.463 . S
C2340 N2344 1.427 . S
C2341 H2331 0.929 . S
C2341 C2339 1.433 . S
C2341 N2344 1.384 . S
C2342 H2333 0.929 . S
C2342 C2334 1.378 . S
C2342 C2337 1.350 1_565 S
C2343 H2330 0.929 . S
C2343 C2335 1.433 1_545 S
C2343 N2345 1.384 . S
N2344 C2340 1.427 . S
N2344 C2341 1.384 . S
N2345 C2337 1.427 . S
N2345 C2343 1.384 . S
H2346 C2352 0.930 . S
H2347 C2356 0.930 . S
H2348 C2361 0.929 . S
H2349 C2359 0.929 . S
H2350 C2354 0.929 . S
H2351 C2360 0.929 . S
C2352 H2346 0.930 . S
C2352 C2353 1.367 . S
C2352 C2360 1.378 . S
C2353 C2352 1.367 . S
C2353 C2361 1.433 . S
C2354 H2350 0.929 . S
C2354 C2356 1.378 . S
C2354 C2358 1.350 . S
C2355 C2358 1.463 . S
C2355 C2360 1.350 . S
C2355 N2363 1.427 . S
C2356 H2347 0.930 . S
C2356 C2354 1.378 . S
C2356 C2357 1.367 . S
C2357 C2356 1.367 . S
C2357 C2359 1.433 . S
C2358 C2354 1.350 . S
C2358 C2355 1.463 . S
C2358 N2362 1.427 . S
C2359 H2349 0.929 . S
C2359 C2357 1.433 . S
C2359 N2362 1.384 . S
C2360 H2351 0.929 . S
C2360 C2352 1.378 . S
C2360 C2355 1.350 . S
C2361 H2348 0.929 . S
C2361 C2353 1.433 . S
C2361 N2363 1.384 . S
N2362 C2358 1.427 . S
N2362 C2359 1.384 . S
N2363 C2355 1.427 . S
N2363 C2361 1.384 . S
H2364 C2370 0.930 . S
H2365 C2374 0.930 . S
H2366 C2379 0.929 . S
H2367 C2377 0.929 . S
H2368 C2372 0.929 . S
H2369 C2378 0.929 . S
C2370 H2364 0.930 . S
C2370 C2371 1.367 . S
C2370 C2378 1.378 . S
C2371 C2370 1.367 . S
C2371 C2379 1.433 1_545 S
C2372 H2368 0.929 . S
C2372 C2374 1.378 . S
C2372 C2376 1.350 1_565 S
C2373 C2376 1.463 . S
C2373 C2378 1.350 . S
C2373 N2381 1.427 1_545 S
C2374 H2365 0.930 . S
C2374 C2372 1.378 . S
C2374 C2375 1.367 1_565 S
C2375 C2374 1.367 1_545 S
C2375 C2377 1.433 . S
C2376 C2372 1.350 1_545 S
C2376 C2373 1.463 . S
C2376 N2380 1.427 . S
C2377 H2367 0.929 . S
C2377 C2375 1.433 . S
C2377 N2380 1.384 . S
C2378 H2369 0.929 . S
C2378 C2370 1.378 . S
C2378 C2373 1.350 . S
C2379 H2366 0.929 . S
C2379 C2371 1.433 1_565 S
C2379 N2381 1.384 . S
N2380 C2376 1.427 . S
N2380 C2377 1.384 . S
N2381 C2373 1.427 1_565 S
N2381 C2379 1.384 . S
H2382 C2388 0.930 . S
H2383 C2392 0.930 . S
H2384 C2397 0.929 . S
H2385 C2395 0.929 . S
H2386 C2390 0.929 . S
H2387 C2396 0.929 . S
C2388 H2382 0.930 . S
C2388 C2389 1.367 . S
C2388 C2396 1.378 . S
C2389 C2388 1.367 . S
C2389 C2397 1.433 . S
C2390 H2386 0.929 . S
C2390 C2392 1.378 . S
C2390 C2394 1.350 . S
C2391 C2394 1.463 . S
C2391 C2396 1.350 . S
C2391 N2399 1.427 . S
C2392 H2383 0.930 . S
C2392 C2390 1.378 . S
C2392 C2393 1.367 . S
C2393 C2392 1.367 . S
C2393 C2395 1.433 . S
C2394 C2390 1.350 . S
C2394 C2391 1.463 . S
C2394 N2398 1.427 . S
C2395 H2385 0.929 . S
C2395 C2393 1.433 . S
C2395 N2398 1.384 . S
C2396 H2387 0.929 . S
C2396 C2388 1.378 . S
C2396 C2391 1.350 . S
C2397 H2384 0.929 . S
C2397 C2389 1.433 . S
C2397 N2399 1.384 . S
N2398 C2394 1.427 . S
N2398 C2395 1.384 . S
N2399 C2391 1.427 . S
N2399 C2397 1.384 . S
H2400 C2406 0.930 . S
H2401 C2410 0.930 1_556 S
H2402 C2415 0.929 . S
H2403 C2413 0.929 . S
H2404 C2408 0.936 . S
H2405 C2414 0.929 . S
C2406 H2400 0.930 . S
C2406 C2407 1.367 . S
C2406 C2414 1.378 . S
C2407 C2406 1.367 . S
C2407 C2415 1.433 . S
C2408 H2404 0.936 . S
C2408 C2410 1.378 . S
C2408 C2412 1.350 . S
C2409 C2412 1.463 . S
C2409 C2414 1.350 . S
C2409 N2417 1.427 . S
C2410 H2401 0.930 1_554 S
C2410 C2408 1.378 . S
C2410 C2411 1.367 . S
C2411 C2410 1.367 . S
C2411 C2413 1.433 . S
C2412 C2408 1.350 . S
C2412 C2409 1.463 . S
C2412 N2416 1.427 . S
C2413 H2403 0.929 . S
C2413 C2411 1.433 . S
C2413 N2416 1.384 . S
C2414 H2405 0.929 . S
C2414 C2406 1.378 . S
C2414 C2409 1.350 . S
C2415 H2402 0.929 . S
C2415 C2407 1.433 . S
C2415 N2417 1.384 . S
N2416 C2412 1.427 . S
N2416 C2413 1.384 . S
N2417 C2409 1.427 . S
N2417 C2415 1.384 . S
H2418 C2424 0.930 . S
H2419 C2428 0.930 . S
H2420 C2433 0.929 . S
H2421 C2431 0.929 . S
H2422 C2426 0.929 . S
H2423 C2432 0.929 . S
C2424 H2418 0.930 . S
C2424 C2425 1.367 . S
C2424 C2432 1.378 . S
C2425 C2424 1.367 . S
C2425 C2433 1.433 . S
C2426 H2422 0.929 . S
C2426 C2428 1.378 . S
C2426 C2430 1.350 . S
C2427 C2430 1.463 . S
C2427 C2432 1.350 . S
C2427 N2435 1.427 . S
C2428 H2419 0.930 . S
C2428 C2426 1.378 . S
C2428 C2429 1.367 . S
C2429 C2428 1.367 . S
C2429 C2431 1.433 . S
C2430 C2426 1.350 . S
C2430 C2427 1.463 . S
C2430 N2434 1.427 . S
C2431 H2421 0.929 . S
C2431 C2429 1.433 . S
C2431 N2434 1.384 . S
C2432 H2423 0.929 . S
C2432 C2424 1.378 . S
C2432 C2427 1.350 . S
C2433 H2420 0.929 . S
C2433 C2425 1.433 . S
C2433 N2435 1.384 . S
N2434 C2430 1.427 . S
N2434 C2431 1.384 . S
N2435 C2427 1.427 . S
N2435 C2433 1.384 . S
H2436 C2442 0.930 . S
H2437 C2446 0.930 . S
H2438 C2451 0.929 . S
H2439 C2449 0.929 . S
H2440 C2444 0.929 . S
H2441 C2450 0.929 . S
C2442 H2436 0.930 . S
C2442 C2443 1.367 . S
C2442 C2450 1.378 . S
C2443 C2442 1.367 . S
C2443 C2451 1.433 . S
C2444 H2440 0.929 . S
C2444 C2446 1.378 . S
C2444 C2448 1.350 . S
C2445 C2448 1.463 . S
C2445 C2450 1.350 . S
C2445 N2453 1.427 . S
C2446 H2437 0.930 . S
C2446 C2444 1.378 . S
C2446 C2447 1.367 . S
C2447 C2446 1.367 . S
C2447 C2449 1.433 . S
C2448 C2444 1.350 . S
C2448 C2445 1.463 . S
C2448 N2452 1.427 . S
C2449 H2439 0.929 . S
C2449 C2447 1.433 . S
C2449 N2452 1.384 . S
C2450 H2441 0.929 . S
C2450 C2442 1.378 . S
C2450 C2445 1.350 . S
C2451 H2438 0.929 . S
C2451 C2443 1.433 . S
C2451 N2453 1.384 . S
N2452 C2448 1.427 . S
N2452 C2449 1.384 . S
N2453 C2445 1.427 . S
N2453 C2451 1.384 . S
H2454 C2460 0.930 . S
H2455 C2464 0.930 . S
H2456 C2469 0.929 . S
H2457 C2467 0.929 . S
H2458 C2462 0.929 . S
H2459 C2468 0.929 . S
C2460 H2454 0.930 . S
C2460 C2461 1.367 . S
C2460 C2468 1.378 . S
C2461 C2460 1.367 . S
C2461 C2469 1.433 . S
C2462 H2458 0.929 . S
C2462 C2464 1.378 . S
C2462 C2466 1.350 . S
C2463 C2466 1.463 . S
C2463 C2468 1.350 . S
C2463 N2471 1.427 . S
C2464 H2455 0.930 . S
C2464 C2462 1.378 . S
C2464 C2465 1.367 . S
C2465 C2464 1.367 . S
C2465 C2467 1.433 . S
C2466 C2462 1.350 . S
C2466 C2463 1.463 . S
C2466 N2470 1.427 . S
C2467 H2457 0.929 . S
C2467 C2465 1.433 . S
C2467 N2470 1.384 . S
C2468 H2459 0.929 . S
C2468 C2460 1.378 . S
C2468 C2463 1.350 . S
C2469 H2456 0.929 . S
C2469 C2461 1.433 . S
C2469 N2471 1.384 . S
N2470 C2466 1.427 . S
N2470 C2467 1.384 . S
N2471 C2463 1.427 . S
N2471 C2469 1.384 . S
H2472 C2478 0.930 . S
H2473 C2482 0.930 . S
H2474 C2487 0.929 . S
H2475 C2485 0.929 . S
H2476 C2480 0.929 . S
H2477 C2486 0.929 . S
C2478 H2472 0.930 . S
C2478 C2479 1.367 . S
C2478 C2486 1.378 . S
C2479 C2478 1.367 . S
C2479 C2487 1.433 1_565 S
C2480 H2476 0.929 . S
C2480 C2482 1.378 . S
C2480 C2484 1.350 . S
C2481 C2484 1.463 . S
C2481 C2486 1.350 . S
C2481 N2489 1.427 . S
C2482 H2473 0.930 . S
C2482 C2480 1.378 . S
C2482 C2483 1.367 . S
C2483 C2482 1.367 . S
C2483 C2485 1.433 . S
C2484 C2480 1.350 . S
C2484 C2481 1.463 . S
C2484 N2488 1.427 . S
C2485 H2475 0.929 . S
C2485 C2483 1.433 . S
C2485 N2488 1.384 . S
C2486 H2477 0.929 . S
C2486 C2478 1.378 . S
C2486 C2481 1.350 . S
C2487 H2474 0.929 . S
C2487 C2479 1.433 1_545 S
C2487 N2489 1.384 1_545 S
N2488 C2484 1.427 . S
N2488 C2485 1.384 . S
N2489 C2481 1.427 . S
N2489 C2487 1.384 1_565 S
H2490 C2496 0.930 . S
H2491 C2500 0.930 . S
H2492 C2505 0.929 . S
H2493 C2503 0.929 . S
H2494 C2498 0.929 . S
H2495 C2504 0.929 . S
C2496 H2490 0.930 . S
C2496 C2497 1.367 . S
C2496 C2504 1.378 . S
C2497 C2496 1.367 . S
C2497 C2505 1.433 . S
C2498 H2494 0.929 . S
C2498 C2500 1.378 . S
C2498 C2502 1.350 . S
C2499 C2502 1.463 . S
C2499 C2504 1.350 . S
C2499 N2507 1.427 . S
C2500 H2491 0.930 . S
C2500 C2498 1.378 . S
C2500 C2501 1.367 . S
C2501 C2500 1.367 . S
C2501 C2503 1.433 . S
C2502 C2498 1.350 . S
C2502 C2499 1.463 . S
C2502 N2506 1.427 . S
C2503 H2493 0.929 . S
C2503 C2501 1.433 . S
C2503 N2506 1.384 . S
C2504 H2495 0.929 . S
C2504 C2496 1.378 . S
C2504 C2499 1.350 . S
C2505 H2492 0.929 . S
C2505 C2497 1.433 . S
C2505 N2507 1.384 . S
N2506 C2502 1.427 . S
N2506 C2503 1.384 . S
N2507 C2499 1.427 . S
N2507 C2505 1.384 . S
H2508 C2514 0.930 . S
H2509 C2518 0.930 . S
H2510 C2523 0.929 . S
H2511 C2521 0.929 . S
H2512 C2516 0.929 . S
H2513 C2522 0.929 . S
C2514 H2508 0.930 . S
C2514 C2515 1.367 . S
C2514 C2522 1.378 . S
C2515 C2514 1.367 . S
C2515 C2523 1.433 . S
C2516 H2512 0.929 . S
C2516 C2518 1.378 . S
C2516 C2520 1.350 . S
C2517 C2520 1.463 . S
C2517 C2522 1.350 . S
C2517 N2525 1.427 . S
C2518 H2509 0.930 . S
C2518 C2516 1.378 . S
C2518 C2519 1.367 . S
C2519 C2518 1.367 . S
C2519 C2521 1.433 . S
C2520 C2516 1.350 . S
C2520 C2517 1.463 . S
C2520 N2524 1.427 . S
C2521 H2511 0.929 . S
C2521 C2519 1.433 . S
C2521 N2524 1.384 . S
C2522 H2513 0.929 . S
C2522 C2514 1.378 . S
C2522 C2517 1.350 . S
C2523 H2510 0.929 . S
C2523 C2515 1.433 . S
C2523 N2525 1.384 . S
N2524 C2520 1.427 . S
N2524 C2521 1.384 . S
N2525 C2517 1.427 . S
N2525 C2523 1.384 . S
H2526 C2532 0.930 . S
H2527 C2536 0.930 . S
H2528 C2541 0.929 . S
H2529 C2539 0.929 . S
H2530 C2534 0.929 . S
H2531 C2540 0.929 . S
C2532 H2526 0.930 . S
C2532 C2533 1.367 . S
C2532 C2540 1.378 . S
C2533 C2532 1.367 . S
C2533 C2541 1.433 . S
C2534 H2530 0.929 . S
C2534 C2536 1.378 . S
C2534 C2538 1.350 . S
C2535 C2538 1.463 . S
C2535 C2540 1.350 . S
C2535 N2543 1.427 . S
C2536 H2527 0.930 . S
C2536 C2534 1.378 . S
C2536 C2537 1.367 . S
C2537 C2536 1.367 . S
C2537 C2539 1.433 . S
C2538 C2534 1.350 . S
C2538 C2535 1.463 . S
C2538 N2542 1.427 . S
C2539 H2529 0.929 . S
C2539 C2537 1.433 . S
C2539 N2542 1.384 . S
C2540 H2531 0.929 . S
C2540 C2532 1.378 . S
C2540 C2535 1.350 . S
C2541 H2528 0.929 . S
C2541 C2533 1.433 . S
C2541 N2543 1.384 . S
N2542 C2538 1.427 . S
N2542 C2539 1.384 . S
N2543 C2535 1.427 . S
N2543 C2541 1.384 . S
H2544 C2550 0.930 . S
H2545 C2554 0.930 . S
H2546 C2559 0.929 . S
H2547 C2557 0.929 . S
H2548 C2552 0.929 . S
H2549 C2558 0.929 . S
C2550 H2544 0.930 . S
C2550 C2551 1.367 . S
C2550 C2558 1.378 . S
C2551 C2550 1.367 . S
C2551 C2559 1.433 . S
C2552 H2548 0.929 . S
C2552 C2554 1.378 . S
C2552 C2556 1.350 . S
C2553 C2556 1.463 . S
C2553 C2558 1.350 . S
C2553 N2561 1.427 . S
C2554 H2545 0.930 . S
C2554 C2552 1.378 . S
C2554 C2555 1.367 . S
C2555 C2554 1.367 . S
C2555 C2557 1.433 . S
C2556 C2552 1.350 . S
C2556 C2553 1.463 . S
C2556 N2560 1.427 . S
C2557 H2547 0.929 . S
C2557 C2555 1.433 . S
C2557 N2560 1.384 . S
C2558 H2549 0.929 . S
C2558 C2550 1.378 . S
C2558 C2553 1.350 . S
C2559 H2546 0.929 . S
C2559 C2551 1.433 . S
C2559 N2561 1.384 . S
N2560 C2556 1.427 . S
N2560 C2557 1.384 . S
N2561 C2553 1.427 . S
N2561 C2559 1.384 . S
H2562 C2568 0.930 . S
H2563 C2572 0.930 . S
H2564 C2577 0.929 . S
H2565 C2575 0.929 . S
H2566 C2570 0.929 . S
H2567 C2576 0.929 . S
C2568 H2562 0.930 . S
C2568 C2569 1.367 . S
C2568 C2576 1.378 . S
C2569 C2568 1.367 . S
C2569 C2577 1.433 . S
C2570 H2566 0.929 . S
C2570 C2572 1.378 . S
C2570 C2574 1.350 . S
C2571 C2574 1.463 . S
C2571 C2576 1.350 . S
C2571 N2579 1.427 . S
C2572 H2563 0.930 . S
C2572 C2570 1.378 . S
C2572 C2573 1.367 . S
C2573 C2572 1.367 . S
C2573 C2575 1.433 . S
C2574 C2570 1.350 . S
C2574 C2571 1.463 . S
C2574 N2578 1.427 . S
C2575 H2565 0.929 . S
C2575 C2573 1.433 . S
C2575 N2578 1.384 . S
C2576 H2567 0.929 . S
C2576 C2568 1.378 . S
C2576 C2571 1.350 . S
C2577 H2564 0.929 . S
C2577 C2569 1.433 . S
C2577 N2579 1.384 . S
N2578 C2574 1.427 . S
N2578 C2575 1.384 . S
N2579 C2571 1.427 . S
N2579 C2577 1.384 . S
H2580 C2586 0.930 1_554 S
H2581 C2590 0.930 . S
H2582 C2595 0.929 . S
H2583 C2593 0.929 . S
H2584 C2588 0.929 . S
H2585 C2594 0.934 . S
C2586 H2580 0.930 1_556 S
C2586 C2587 1.367 . S
C2586 C2594 1.377 1_556 S
C2587 C2586 1.367 . S
C2587 C2595 1.433 . S
C2588 H2584 0.929 . S
C2588 C2590 1.378 . S
C2588 C2592 1.350 . S
C2589 C2592 1.463 . S
C2589 C2594 1.345 1_556 S
C2589 N2597 1.427 . S
C2590 H2581 0.930 . S
C2590 C2588 1.378 . S
C2590 C2591 1.367 1_556 S
C2591 C2590 1.367 1_554 S
C2591 C2593 1.433 . S
C2592 C2588 1.350 . S
C2592 C2589 1.463 . S
C2592 N2596 1.427 1_556 S
C2593 H2583 0.929 . S
C2593 C2591 1.433 . S
C2593 N2596 1.384 . S
C2594 H2585 0.934 . S
C2594 C2586 1.377 1_554 S
C2594 C2589 1.345 1_554 S
C2595 H2582 0.929 . S
C2595 C2587 1.433 . S
C2595 N2597 1.384 . S
N2596 C2592 1.427 1_554 S
N2596 C2593 1.384 . S
N2597 C2589 1.427 . S
N2597 C2595 1.384 . S
H2598 C2604 0.930 . S
H2599 C2608 0.930 . S
H2600 C2613 0.929 . S
H2601 C2611 0.929 . S
H2602 C2606 0.929 . S
H2603 C2612 0.929 . S
C2604 H2598 0.930 . S
C2604 C2605 1.367 . S
C2604 C2612 1.378 1_455 S
C2605 C2604 1.367 . S
C2605 C2613 1.433 . S
C2606 H2602 0.929 . S
C2606 C2608 1.378 . S
C2606 C2610 1.350 . S
C2607 C2610 1.463 . S
C2607 C2612 1.350 . S
C2607 N2615 1.427 1_655 S
C2608 H2599 0.930 . S
C2608 C2606 1.378 . S
C2608 C2609 1.367 . S
C2609 C2608 1.367 . S
C2609 C2611 1.433 . S
C2610 C2606 1.350 . S
C2610 C2607 1.463 . S
C2610 N2614 1.427 . S
C2611 H2601 0.929 . S
C2611 C2609 1.433 . S
C2611 N2614 1.384 . S
C2612 H2603 0.929 . S
C2612 C2604 1.378 1_655 S
C2612 C2607 1.350 . S
C2613 H2600 0.929 . S
C2613 C2605 1.433 . S
C2613 N2615 1.384 . S
N2614 C2610 1.427 . S
N2614 C2611 1.384 . S
N2615 C2607 1.427 1_455 S
N2615 C2613 1.384 . S
H2616 C2622 0.930 . S
H2617 C2626 0.930 . S
H2618 C2631 0.929 . S
H2619 C2629 0.929 . S
H2620 C2624 0.929 . S
H2621 C2630 0.929 . S
C2622 H2616 0.930 . S
C2622 C2623 1.367 . S
C2622 C2630 1.378 . S
C2623 C2622 1.367 . S
C2623 C2631 1.433 . S
C2624 H2620 0.929 . S
C2624 C2626 1.378 . S
C2624 C2628 1.350 . S
C2625 C2628 1.463 . S
C2625 C2630 1.350 . S
C2625 N2633 1.427 . S
C2626 H2617 0.930 . S
C2626 C2624 1.378 . S
C2626 C2627 1.367 . S
C2627 C2626 1.367 . S
C2627 C2629 1.433 . S
C2628 C2624 1.350 . S
C2628 C2625 1.463 . S
C2628 N2632 1.427 . S
C2629 H2619 0.929 . S
C2629 C2627 1.433 . S
C2629 N2632 1.384 . S
C2630 H2621 0.929 . S
C2630 C2622 1.378 . S
C2630 C2625 1.350 . S
C2631 H2618 0.929 . S
C2631 C2623 1.433 . S
C2631 N2633 1.384 . S
N2632 C2628 1.427 . S
N2632 C2629 1.384 . S
N2633 C2625 1.427 . S
N2633 C2631 1.384 . S
H2634 C2640 0.930 . S
H2635 C2644 0.930 . S
H2636 C2649 0.929 . S
H2637 C2647 0.929 . S
H2638 C2642 0.926 1_455 S
H2639 C2648 0.929 . S
C2640 H2634 0.930 . S
C2640 C2641 1.367 . S
C2640 C2648 1.378 . S
C2641 C2640 1.367 . S
C2641 C2649 1.433 . S
C2642 H2638 0.926 1_655 S
C2642 C2644 1.378 . S
C2642 C2646 1.350 . S
C2643 C2646 1.463 1_455 S
C2643 C2648 1.350 . S
C2643 N2651 1.427 . S
C2644 H2635 0.930 . S
C2644 C2642 1.378 . S
C2644 C2645 1.367 . S
C2645 C2644 1.367 . S
C2645 C2647 1.433 . S
C2646 C2642 1.350 . S
C2646 C2643 1.463 1_655 S
C2646 N2650 1.427 . S
C2647 H2637 0.929 . S
C2647 C2645 1.433 . S
C2647 N2650 1.384 . S
C2648 H2639 0.929 . S
C2648 C2640 1.378 . S
C2648 C2643 1.350 . S
C2649 H2636 0.929 . S
C2649 C2641 1.433 . S
C2649 N2651 1.384 . S
N2650 C2646 1.427 . S
N2650 C2647 1.384 . S
N2651 C2643 1.427 . S
N2651 C2649 1.384 . S
H2652 C2658 0.930 . S
H2653 C2662 0.930 . S
H2654 C2667 0.929 . S
H2655 C2665 0.929 . S
H2656 C2660 0.929 . S
H2657 C2666 0.929 . S
C2658 H2652 0.930 . S
C2658 C2659 1.367 . S
C2658 C2666 1.378 . S
C2659 C2658 1.367 . S
C2659 C2667 1.433 1_655 S
C2660 H2656 0.929 . S
C2660 C2662 1.378 . S
C2660 C2664 1.350 . S
C2661 C2664 1.463 . S
C2661 C2666 1.350 1_455 S
C2661 N2669 1.427 . S
C2662 H2653 0.930 . S
C2662 C2660 1.378 . S
C2662 C2663 1.367 . S
C2663 C2662 1.367 . S
C2663 C2665 1.433 . S
C2664 C2660 1.350 . S
C2664 C2661 1.463 . S
C2664 N2668 1.427 . S
C2665 H2655 0.929 . S
C2665 C2663 1.433 . S
C2665 N2668 1.384 . S
C2666 H2657 0.929 . S
C2666 C2658 1.378 . S
C2666 C2661 1.350 1_655 S
C2667 H2654 0.929 . S
C2667 C2659 1.433 1_455 S
C2667 N2669 1.384 . S
N2668 C2664 1.427 . S
N2668 C2665 1.384 . S
N2669 C2661 1.427 . S
N2669 C2667 1.384 . S
H2670 C2676 0.930 . S
H2671 C2680 0.930 . S
H2672 C2685 0.929 . S
H2673 C2683 0.929 . S
H2674 C2678 0.929 . S
H2675 C2684 0.929 . S
C2676 H2670 0.930 . S
C2676 C2677 1.367 . S
C2676 C2684 1.378 . S
C2677 C2676 1.367 . S
C2677 C2685 1.433 . S
C2678 H2674 0.929 . S
C2678 C2680 1.378 . S
C2678 C2682 1.350 . S
C2679 C2682 1.463 . S
C2679 C2684 1.350 . S
C2679 N2687 1.427 . S
C2680 H2671 0.930 . S
C2680 C2678 1.378 . S
C2680 C2681 1.367 . S
C2681 C2680 1.367 . S
C2681 C2683 1.433 . S
C2682 C2678 1.350 . S
C2682 C2679 1.463 . S
C2682 N2686 1.427 . S
C2683 H2673 0.929 . S
C2683 C2681 1.433 . S
C2683 N2686 1.384 . S
C2684 H2675 0.929 . S
C2684 C2676 1.378 . S
C2684 C2679 1.350 . S
C2685 H2672 0.929 . S
C2685 C2677 1.433 . S
C2685 N2687 1.384 . S
N2686 C2682 1.427 . S
N2686 C2683 1.384 . S
N2687 C2679 1.427 . S
N2687 C2685 1.384 . S
H2688 C2694 0.930 . S
H2689 C2698 0.930 . S
H2690 C2703 0.929 . S
H2691 C2701 0.929 . S
H2692 C2696 0.929 . S
H2693 C2702 0.929 . S
C2694 H2688 0.930 . S
C2694 C2695 1.367 . S
C2694 C2702 1.378 . S
C2695 C2694 1.367 . S
C2695 C2703 1.433 . S
C2696 H2692 0.929 . S
C2696 C2698 1.378 . S
C2696 C2700 1.350 . S
C2697 C2700 1.463 . S
C2697 C2702 1.350 . S
C2697 N2705 1.427 . S
C2698 H2689 0.930 . S
C2698 C2696 1.378 . S
C2698 C2699 1.367 . S
C2699 C2698 1.367 . S
C2699 C2701 1.433 . S
C2700 C2696 1.350 . S
C2700 C2697 1.463 . S
C2700 N2704 1.427 . S
C2701 H2691 0.929 . S
C2701 C2699 1.433 . S
C2701 N2704 1.384 . S
C2702 H2693 0.929 . S
C2702 C2694 1.378 . S
C2702 C2697 1.350 . S
C2703 H2690 0.929 . S
C2703 C2695 1.433 . S
C2703 N2705 1.384 . S
N2704 C2700 1.427 . S
N2704 C2701 1.384 . S
N2705 C2697 1.427 . S
N2705 C2703 1.384 . S
H2706 C2712 0.930 . S
H2707 C2716 0.930 . S
H2708 C2721 0.929 . S
H2709 C2719 0.929 . S
H2710 C2714 0.929 . S
H2711 C2720 0.929 . S
C2712 H2706 0.930 . S
C2712 C2713 1.367 . S
C2712 C2720 1.378 . S
C2713 C2712 1.367 . S
C2713 C2721 1.433 . S
C2714 H2710 0.929 . S
C2714 C2716 1.378 . S
C2714 C2718 1.350 . S
C2715 C2718 1.463 . S
C2715 C2720 1.350 . S
C2715 N2723 1.427 . S
C2716 H2707 0.930 . S
C2716 C2714 1.378 . S
C2716 C2717 1.367 . S
C2717 C2716 1.367 . S
C2717 C2719 1.433 . S
C2718 C2714 1.350 . S
C2718 C2715 1.463 . S
C2718 N2722 1.427 . S
C2719 H2709 0.929 . S
C2719 C2717 1.433 . S
C2719 N2722 1.384 . S
C2720 H2711 0.929 . S
C2720 C2712 1.378 . S
C2720 C2715 1.350 . S
C2721 H2708 0.929 . S
C2721 C2713 1.433 . S
C2721 N2723 1.384 . S
N2722 C2718 1.427 . S
N2722 C2719 1.384 . S
N2723 C2715 1.427 . S
N2723 C2721 1.384 . S
H2724 C2730 0.930 . S
H2725 C2734 0.930 . S
H2726 C2739 0.929 . S
H2727 C2737 0.929 . S
H2728 C2732 0.929 . S
H2729 C2738 0.929 . S
C2730 H2724 0.930 . S
C2730 C2731 1.367 . S
C2730 C2738 1.378 . S
C2731 C2730 1.367 . S
C2731 C2739 1.433 . S
C2732 H2728 0.929 . S
C2732 C2734 1.378 . S
C2732 C2736 1.350 . S
C2733 C2736 1.463 . S
C2733 C2738 1.350 . S
C2733 N2741 1.427 . S
C2734 H2725 0.930 . S
C2734 C2732 1.378 . S
C2734 C2735 1.367 . S
C2735 C2734 1.367 . S
C2735 C2737 1.433 . S
C2736 C2732 1.350 . S
C2736 C2733 1.463 . S
C2736 N2740 1.427 . S
C2737 H2727 0.929 . S
C2737 C2735 1.433 . S
C2737 N2740 1.384 . S
C2738 H2729 0.929 . S
C2738 C2730 1.378 . S
C2738 C2733 1.350 . S
C2739 H2726 0.929 . S
C2739 C2731 1.433 . S
C2739 N2741 1.384 . S
N2740 C2736 1.427 . S
N2740 C2737 1.384 . S
N2741 C2733 1.427 . S
N2741 C2739 1.384 . S
H2742 C2748 0.930 . S
H2743 C2752 0.930 . S
H2744 C2757 0.929 . S
H2745 C2755 0.929 . S
H2746 C2750 0.929 . S
H2747 C2756 0.929 . S
C2748 H2742 0.930 . S
C2748 C2749 1.367 . S
C2748 C2756 1.378 . S
C2749 C2748 1.367 . S
C2749 C2757 1.433 . S
C2750 H2746 0.929 . S
C2750 C2752 1.378 . S
C2750 C2754 1.350 . S
C2751 C2754 1.463 . S
C2751 C2756 1.350 . S
C2751 N2759 1.427 . S
C2752 H2743 0.930 . S
C2752 C2750 1.378 . S
C2752 C2753 1.367 . S
C2753 C2752 1.367 . S
C2753 C2755 1.433 . S
C2754 C2750 1.350 . S
C2754 C2751 1.463 . S
C2754 N2758 1.427 . S
C2755 H2745 0.929 . S
C2755 C2753 1.433 . S
C2755 N2758 1.384 . S
C2756 H2747 0.929 . S
C2756 C2748 1.378 . S
C2756 C2751 1.350 . S
C2757 H2744 0.929 . S
C2757 C2749 1.433 . S
C2757 N2759 1.384 . S
N2758 C2754 1.427 . S
N2758 C2755 1.384 . S
N2759 C2751 1.427 . S
N2759 C2757 1.384 . S
H2760 C2766 0.930 . S
H2761 C2770 0.930 . S
H2762 C2775 0.929 . S
H2763 C2773 0.929 . S
H2764 C2768 0.929 . S
H2765 C2774 0.929 . S
C2766 H2760 0.930 . S
C2766 C2767 1.367 . S
C2766 C2774 1.378 . S
C2767 C2766 1.367 . S
C2767 C2775 1.433 . S
C2768 H2764 0.929 . S
C2768 C2770 1.378 . S
C2768 C2772 1.350 . S
C2769 C2772 1.463 . S
C2769 C2774 1.350 . S
C2769 N2777 1.427 . S
C2770 H2761 0.930 . S
C2770 C2768 1.378 . S
C2770 C2771 1.367 . S
C2771 C2770 1.367 . S
C2771 C2773 1.433 . S
C2772 C2768 1.350 . S
C2772 C2769 1.463 . S
C2772 N2776 1.427 . S
C2773 H2763 0.929 . S
C2773 C2771 1.433 . S
C2773 N2776 1.384 . S
C2774 H2765 0.929 . S
C2774 C2766 1.378 . S
C2774 C2769 1.350 . S
C2775 H2762 0.929 . S
C2775 C2767 1.433 . S
C2775 N2777 1.384 . S
N2776 C2772 1.427 . S
N2776 C2773 1.384 . S
N2777 C2769 1.427 . S
N2777 C2775 1.384 . S
H2778 C2784 0.930 . S
H2779 C2788 0.930 . S
H2780 C2793 0.929 . S
H2781 C2791 0.929 . S
H2782 C2786 0.929 . S
H2783 C2792 0.929 . S
C2784 H2778 0.930 . S
C2784 C2785 1.367 . S
C2784 C2792 1.378 . S
C2785 C2784 1.367 . S
C2785 C2793 1.433 . S
C2786 H2782 0.929 . S
C2786 C2788 1.378 . S
C2786 C2790 1.350 . S
C2787 C2790 1.463 . S
C2787 C2792 1.350 . S
C2787 N2795 1.427 . S
C2788 H2779 0.930 . S
C2788 C2786 1.378 . S
C2788 C2789 1.367 . S
C2789 C2788 1.367 . S
C2789 C2791 1.433 . S
C2790 C2786 1.350 . S
C2790 C2787 1.463 . S
C2790 N2794 1.427 . S
C2791 H2781 0.929 . S
C2791 C2789 1.433 . S
C2791 N2794 1.384 . S
C2792 H2783 0.929 . S
C2792 C2784 1.378 . S
C2792 C2787 1.350 . S
C2793 H2780 0.929 . S
C2793 C2785 1.433 . S
C2793 N2795 1.384 . S
N2794 C2790 1.427 . S
N2794 C2791 1.384 . S
N2795 C2787 1.427 . S
N2795 C2793 1.384 . S
H2796 C2802 0.930 . S
H2797 C2806 0.930 . S
H2798 C2811 0.929 . S
H2799 C2809 0.929 . S
H2800 C2804 0.929 . S
H2801 C2810 0.929 . S
C2802 H2796 0.930 . S
C2802 C2803 1.367 . S
C2802 C2810 1.378 . S
C2803 C2802 1.367 . S
C2803 C2811 1.433 . S
C2804 H2800 0.929 . S
C2804 C2806 1.378 . S
C2804 C2808 1.350 . S
C2805 C2808 1.463 . S
C2805 C2810 1.350 . S
C2805 N2813 1.427 . S
C2806 H2797 0.930 . S
C2806 C2804 1.378 . S
C2806 C2807 1.367 . S
C2807 C2806 1.367 . S
C2807 C2809 1.433 . S
C2808 C2804 1.350 . S
C2808 C2805 1.463 . S
C2808 N2812 1.427 . S
C2809 H2799 0.929 . S
C2809 C2807 1.433 . S
C2809 N2812 1.384 . S
C2810 H2801 0.929 . S
C2810 C2802 1.378 . S
C2810 C2805 1.350 . S
C2811 H2798 0.929 . S
C2811 C2803 1.433 . S
C2811 N2813 1.384 . S
N2812 C2808 1.427 . S
N2812 C2809 1.384 . S
N2813 C2805 1.427 . S
N2813 C2811 1.384 . S
H2814 C2820 0.930 . S
H2815 C2824 0.930 . S
H2816 C2829 0.929 . S
H2817 C2827 0.929 . S
H2818 C2822 0.929 . S
H2819 C2828 0.929 . S
C2820 H2814 0.930 . S
C2820 C2821 1.367 . S
C2820 C2828 1.378 . S
C2821 C2820 1.367 . S
C2821 C2829 1.433 . S
C2822 H2818 0.929 . S
C2822 C2824 1.378 . S
C2822 C2826 1.350 . S
C2823 C2826 1.463 . S
C2823 C2828 1.350 . S
C2823 N2831 1.427 . S
C2824 H2815 0.930 . S
C2824 C2822 1.378 . S
C2824 C2825 1.367 . S
C2825 C2824 1.367 . S
C2825 C2827 1.433 . S
C2826 C2822 1.350 . S
C2826 C2823 1.463 . S
C2826 N2830 1.427 . S
C2827 H2817 0.929 . S
C2827 C2825 1.433 . S
C2827 N2830 1.384 . S
C2828 H2819 0.929 . S
C2828 C2820 1.378 . S
C2828 C2823 1.350 . S
C2829 H2816 0.929 . S
C2829 C2821 1.433 . S
C2829 N2831 1.384 . S
N2830 C2826 1.427 . S
N2830 C2827 1.384 . S
N2831 C2823 1.427 . S
N2831 C2829 1.384 . S
H2832 C2838 0.930 . S
H2833 C2842 0.930 . S
H2834 C2847 0.929 . S
H2835 C2845 0.929 . S
H2836 C2840 0.929 . S
H2837 C2846 0.929 . S
C2838 H2832 0.930 . S
C2838 C2839 1.367 . S
C2838 C2846 1.378 . S
C2839 C2838 1.367 . S
C2839 C2847 1.433 . S
C2840 H2836 0.929 . S
C2840 C2842 1.378 . S
C2840 C2844 1.350 . S
C2841 C2844 1.463 . S
C2841 C2846 1.350 . S
C2841 N2849 1.427 . S
C2842 H2833 0.930 . S
C2842 C2840 1.378 . S
C2842 C2843 1.367 . S
C2843 C2842 1.367 . S
C2843 C2845 1.433 . S
C2844 C2840 1.350 . S
C2844 C2841 1.463 . S
C2844 N2848 1.427 . S
C2845 H2835 0.929 . S
C2845 C2843 1.433 . S
C2845 N2848 1.384 . S
C2846 H2837 0.929 . S
C2846 C2838 1.378 . S
C2846 C2841 1.350 . S
C2847 H2834 0.929 . S
C2847 C2839 1.433 . S
C2847 N2849 1.384 . S
N2848 C2844 1.427 . S
N2848 C2845 1.384 . S
N2849 C2841 1.427 . S
N2849 C2847 1.384 . S
H2850 C2856 0.930 . S
H2851 C2860 0.930 . S
H2852 C2865 0.929 . S
H2853 C2863 0.929 . S
H2854 C2858 0.929 . S
H2855 C2864 0.929 . S
C2856 H2850 0.930 . S
C2856 C2857 1.367 . S
C2856 C2864 1.378 . S
C2857 C2856 1.367 . S
C2857 C2865 1.433 . S
C2858 H2854 0.929 . S
C2858 C2860 1.378 . S
C2858 C2862 1.350 . S
C2859 C2862 1.463 . S
C2859 C2864 1.350 . S
C2859 N2867 1.427 . S
C2860 H2851 0.930 . S
C2860 C2858 1.378 . S
C2860 C2861 1.367 . S
C2861 C2860 1.367 . S
C2861 C2863 1.433 . S
C2862 C2858 1.350 . S
C2862 C2859 1.463 . S
C2862 N2866 1.427 . S
C2863 H2853 0.929 . S
C2863 C2861 1.433 . S
C2863 N2866 1.384 . S
C2864 H2855 0.929 . S
C2864 C2856 1.378 . S
C2864 C2859 1.350 . S
C2865 H2852 0.929 . S
C2865 C2857 1.433 . S
C2865 N2867 1.384 . S
N2866 C2862 1.427 . S
N2866 C2863 1.384 . S
N2867 C2859 1.427 . S
N2867 C2865 1.384 . S
H2868 C2874 0.930 . S
H2869 C2878 0.930 . S
H2870 C2883 0.929 . S
H2871 C2881 0.929 . S
H2872 C2876 0.929 . S
H2873 C2882 0.929 . S
C2874 H2868 0.930 . S
C2874 C2875 1.367 . S
C2874 C2882 1.378 . S
C2875 C2874 1.367 . S
C2875 C2883 1.433 . S
C2876 H2872 0.929 . S
C2876 C2878 1.378 . S
C2876 C2880 1.350 . S
C2877 C2880 1.463 . S
C2877 C2882 1.350 . S
C2877 N2885 1.427 . S
C2878 H2869 0.930 . S
C2878 C2876 1.378 . S
C2878 C2879 1.367 . S
C2879 C2878 1.367 . S
C2879 C2881 1.433 . S
C2880 C2876 1.350 . S
C2880 C2877 1.463 . S
C2880 N2884 1.427 . S
C2881 H2871 0.929 . S
C2881 C2879 1.433 . S
C2881 N2884 1.384 . S
C2882 H2873 0.929 . S
C2882 C2874 1.378 . S
C2882 C2877 1.350 . S
C2883 H2870 0.929 . S
C2883 C2875 1.433 . S
C2883 N2885 1.384 . S
N2884 C2880 1.427 . S
N2884 C2881 1.384 . S
N2885 C2877 1.427 . S
N2885 C2883 1.384 . S
H2886 C2892 0.930 . S
H2887 C2896 0.930 . S
H2888 C2901 0.929 . S
H2889 C2899 0.929 . S
H2890 C2894 0.929 . S
H2891 C2900 0.929 . S
C2892 H2886 0.930 . S
C2892 C2893 1.367 . S
C2892 C2900 1.378 . S
C2893 C2892 1.367 . S
C2893 C2901 1.433 1_554 S
C2894 H2890 0.929 . S
C2894 C2896 1.378 1_565 S
C2894 C2898 1.350 1_556 S
C2895 C2898 1.463 . S
C2895 C2900 1.350 . S
C2895 N2903 1.427 1_554 S
C2896 H2887 0.930 . S
C2896 C2894 1.378 1_545 S
C2896 C2897 1.367 1_556 S
C2897 C2896 1.367 1_554 S
C2897 C2899 1.433 . S
C2898 C2894 1.350 1_554 S
C2898 C2895 1.463 . S
C2898 N2902 1.427 1_565 S
C2899 H2889 0.929 . S
C2899 C2897 1.433 . S
C2899 N2902 1.384 . S
C2900 H2891 0.929 . S
C2900 C2892 1.378 . S
C2900 C2895 1.350 . S
C2901 H2888 0.929 . S
C2901 C2893 1.433 1_556 S
C2901 N2903 1.384 . S
N2902 C2898 1.427 1_545 S
N2902 C2899 1.384 . S
N2903 C2895 1.427 1_556 S
N2903 C2901 1.384 . S
H2904 C2910 0.930 . S
H2905 C2914 0.930 . S
H2906 C2919 0.929 . S
H2907 C2917 0.929 . S
H2908 C2912 0.929 . S
H2909 C2918 0.929 . S
C2910 H2904 0.930 . S
C2910 C2911 1.367 . S
C2910 C2918 1.378 . S
C2911 C2910 1.367 . S
C2911 C2919 1.433 . S
C2912 H2908 0.929 . S
C2912 C2914 1.378 . S
C2912 C2916 1.350 . S
C2913 C2916 1.463 . S
C2913 C2918 1.350 . S
C2913 N2921 1.427 . S
C2914 H2905 0.930 . S
C2914 C2912 1.378 . S
C2914 C2915 1.367 . S
C2915 C2914 1.367 . S
C2915 C2917 1.433 . S
C2916 C2912 1.350 . S
C2916 C2913 1.463 . S
C2916 N2920 1.427 . S
C2917 H2907 0.929 . S
C2917 C2915 1.433 . S
C2917 N2920 1.384 . S
C2918 H2909 0.929 . S
C2918 C2910 1.378 . S
C2918 C2913 1.350 . S
C2919 H2906 0.929 . S
C2919 C2911 1.433 . S
C2919 N2921 1.384 . S
N2920 C2916 1.427 . S
N2920 C2917 1.384 . S
N2921 C2913 1.427 . S
N2921 C2919 1.384 . S
H2922 C2928 0.930 1_556 S
H2923 C2932 0.930 . S
H2924 C2937 0.929 . S
H2925 C2935 0.929 . S
H2926 C2930 0.929 . S
H2927 C2936 0.929 . S
C2928 H2922 0.930 1_554 S
C2928 C2929 1.367 . S
C2928 C2936 1.378 . S
C2929 C2928 1.367 . S
C2929 C2937 1.433 . S
C2930 H2926 0.929 . S
C2930 C2932 1.378 . S
C2930 C2934 1.350 . S
C2931 C2934 1.463 . S
C2931 C2936 1.350 . S
C2931 N2939 1.427 . S
C2932 H2923 0.930 . S
C2932 C2930 1.378 . S
C2932 C2933 1.367 . S
C2933 C2932 1.367 . S
C2933 C2935 1.433 . S
C2934 C2930 1.350 . S
C2934 C2931 1.463 . S
C2934 N2938 1.427 . S
C2935 H2925 0.929 . S
C2935 C2933 1.433 . S
C2935 N2938 1.384 . S
C2936 H2927 0.929 . S
C2936 C2928 1.378 . S
C2936 C2931 1.350 . S
C2937 H2924 0.929 . S
C2937 C2929 1.433 . S
C2937 N2939 1.384 . S
N2938 C2934 1.427 . S
N2938 C2935 1.384 . S
N2939 C2931 1.427 . S
N2939 C2937 1.384 . S
H2940 C2946 0.930 . S
H2941 C2950 0.930 . S
H2942 C2955 0.929 . S
H2943 C2953 0.929 . S
H2944 C2948 0.929 . S
H2945 C2954 0.929 . S
C2946 H2940 0.930 . S
C2946 C2947 1.367 . S
C2946 C2954 1.378 . S
C2947 C2946 1.367 . S
C2947 C2955 1.433 . S
C2948 H2944 0.929 . S
C2948 C2950 1.378 . S
C2948 C2952 1.350 . S
C2949 C2952 1.463 . S
C2949 C2954 1.350 . S
C2949 N2957 1.427 . S
C2950 H2941 0.930 . S
C2950 C2948 1.378 . S
C2950 C2951 1.367 . S
C2951 C2950 1.367 . S
C2951 C2953 1.433 . S
C2952 C2948 1.350 . S
C2952 C2949 1.463 . S
C2952 N2956 1.427 . S
C2953 H2943 0.929 . S
C2953 C2951 1.433 . S
C2953 N2956 1.384 . S
C2954 H2945 0.929 . S
C2954 C2946 1.378 . S
C2954 C2949 1.350 . S
C2955 H2942 0.929 . S
C2955 C2947 1.433 . S
C2955 N2957 1.384 . S
N2956 C2952 1.427 . S
N2956 C2953 1.384 . S
N2957 C2949 1.427 . S
N2957 C2955 1.384 . S
H2958 C2964 0.930 . S
H2959 C2968 0.930 . S
H2960 C2973 0.929 . S
H2961 C2971 0.929 . S
H2962 C2966 0.929 . S
H2963 C2972 0.929 . S
C2964 H2958 0.930 . S
C2964 C2965 1.367 . S
C2964 C2972 1.378 . S
C2965 C2964 1.367 . S
C2965 C2973 1.433 . S
C2966 H2962 0.929 . S
C2966 C2968 1.378 . S
C2966 C2970 1.350 . S
C2967 C2970 1.463 . S
C2967 C2972 1.350 . S
C2967 N2975 1.427 . S
C2968 H2959 0.930 . S
C2968 C2966 1.378 . S
C2968 C2969 1.367 . S
C2969 C2968 1.367 . S
C2969 C2971 1.433 . S
C2970 C2966 1.350 . S
C2970 C2967 1.463 . S
C2970 N2974 1.427 . S
C2971 H2961 0.929 . S
C2971 C2969 1.433 . S
C2971 N2974 1.384 . S
C2972 H2963 0.929 . S
C2972 C2964 1.378 . S
C2972 C2967 1.350 . S
C2973 H2960 0.929 . S
C2973 C2965 1.433 . S
C2973 N2975 1.384 . S
N2974 C2970 1.427 . S
N2974 C2971 1.384 . S
N2975 C2967 1.427 . S
N2975 C2973 1.384 . S
H2976 C2982 0.930 . S
H2977 C2986 0.930 . S
H2978 C2991 0.929 . S
H2979 C2989 0.929 . S
H2980 C2984 0.929 . S
H2981 C2990 0.929 . S
C2982 H2976 0.930 . S
C2982 C2983 1.367 . S
C2982 C2990 1.378 . S
C2983 C2982 1.367 . S
C2983 C2991 1.433 . S
C2984 H2980 0.929 . S
C2984 C2986 1.378 . S
C2984 C2988 1.350 . S
C2985 C2988 1.463 . S
C2985 C2990 1.350 . S
C2985 N2993 1.427 . S
C2986 H2977 0.930 . S
C2986 C2984 1.378 . S
C2986 C2987 1.367 . S
C2987 C2986 1.367 . S
C2987 C2989 1.433 . S
C2988 C2984 1.350 . S
C2988 C2985 1.463 . S
C2988 N2992 1.427 . S
C2989 H2979 0.929 . S
C2989 C2987 1.433 . S
C2989 N2992 1.384 . S
C2990 H2981 0.929 . S
C2990 C2982 1.378 . S
C2990 C2985 1.350 . S
C2991 H2978 0.929 . S
C2991 C2983 1.433 . S
C2991 N2993 1.384 . S
N2992 C2988 1.427 . S
N2992 C2989 1.384 . S
N2993 C2985 1.427 . S
N2993 C2991 1.384 . S
H2994 C3000 0.930 . S
H2995 C3004 0.930 . S
H2996 C3009 0.929 . S
H2997 C3007 0.929 . S
H2998 C3002 0.929 . S
H2999 C3008 0.929 . S
C3000 H2994 0.930 . S
C3000 C3001 1.367 . S
C3000 C3008 1.378 . S
C3001 C3000 1.367 . S
C3001 C3009 1.433 . S
C3002 H2998 0.929 . S
C3002 C3004 1.378 . S
C3002 C3006 1.350 . S
C3003 C3006 1.463 . S
C3003 C3008 1.350 . S
C3003 N3011 1.427 . S
C3004 H2995 0.930 . S
C3004 C3002 1.378 . S
C3004 C3005 1.367 . S
C3005 C3004 1.367 . S
C3005 C3007 1.433 . S
C3006 C3002 1.350 . S
C3006 C3003 1.463 . S
C3006 N3010 1.427 . S
C3007 H2997 0.929 . S
C3007 C3005 1.433 . S
C3007 N3010 1.384 . S
C3008 H2999 0.929 . S
C3008 C3000 1.378 . S
C3008 C3003 1.350 . S
C3009 H2996 0.929 . S
C3009 C3001 1.433 . S
C3009 N3011 1.384 . S
N3010 C3006 1.427 . S
N3010 C3007 1.384 . S
N3011 C3003 1.427 . S
N3011 C3009 1.384 . S
H3012 C3018 0.930 . S
H3013 C3022 0.930 1_556 S
H3014 C3027 0.929 . S
H3015 C3025 0.929 . S
H3016 C3020 0.929 . S
H3017 C3026 0.929 . S
C3018 H3012 0.930 . S
C3018 C3019 1.367 . S
C3018 C3026 1.378 . S
C3019 C3018 1.367 . S
C3019 C3027 1.433 . S
C3020 H3016 0.929 . S
C3020 C3022 1.378 . S
C3020 C3024 1.350 . S
C3021 C3024 1.463 . S
C3021 C3026 1.350 . S
C3021 N3029 1.427 . S
C3022 H3013 0.930 1_554 S
C3022 C3020 1.378 . S
C3022 C3023 1.367 . S
C3023 C3022 1.367 . S
C3023 C3025 1.433 . S
C3024 C3020 1.350 . S
C3024 C3021 1.463 . S
C3024 N3028 1.427 . S
C3025 H3015 0.929 . S
C3025 C3023 1.433 . S
C3025 N3028 1.384 . S
C3026 H3017 0.929 . S
C3026 C3018 1.378 . S
C3026 C3021 1.350 . S
C3027 H3014 0.929 . S
C3027 C3019 1.433 . S
C3027 N3029 1.384 . S
N3028 C3024 1.427 . S
N3028 C3025 1.384 . S
N3029 C3021 1.427 . S
N3029 C3027 1.384 . S
H3030 C3036 0.930 . S
H3031 C3040 0.930 . S
H3032 C3045 0.929 . S
H3033 C3043 0.929 . S
H3034 C3038 0.929 . S
H3035 C3044 0.929 . S
C3036 H3030 0.930 . S
C3036 C3037 1.367 . S
C3036 C3044 1.378 . S
C3037 C3036 1.367 . S
C3037 C3045 1.433 . S
C3038 H3034 0.929 . S
C3038 C3040 1.378 . S
C3038 C3042 1.350 . S
C3039 C3042 1.463 . S
C3039 C3044 1.350 . S
C3039 N3047 1.427 . S
C3040 H3031 0.930 . S
C3040 C3038 1.378 . S
C3040 C3041 1.367 . S
C3041 C3040 1.367 . S
C3041 C3043 1.433 . S
C3042 C3038 1.350 . S
C3042 C3039 1.463 . S
C3042 N3046 1.427 . S
C3043 H3033 0.929 . S
C3043 C3041 1.433 . S
C3043 N3046 1.384 . S
C3044 H3035 0.929 . S
C3044 C3036 1.378 . S
C3044 C3039 1.350 . S
C3045 H3032 0.929 . S
C3045 C3037 1.433 . S
C3045 N3047 1.384 . S
N3046 C3042 1.427 . S
N3046 C3043 1.384 . S
N3047 C3039 1.427 . S
N3047 C3045 1.384 . S
H3048 C3054 0.930 . S
H3049 C3058 0.930 . S
H3050 C3063 0.929 . S
H3051 C3061 0.929 . S
H3052 C3056 0.929 . S
H3053 C3062 0.929 . S
C3054 H3048 0.930 . S
C3054 C3055 1.367 . S
C3054 C3062 1.378 . S
C3055 C3054 1.367 . S
C3055 C3063 1.433 . S
C3056 H3052 0.929 . S
C3056 C3058 1.378 . S
C3056 C3060 1.350 . S
C3057 C3060 1.463 . S
C3057 C3062 1.350 . S
C3057 N3065 1.427 . S
C3058 H3049 0.930 . S
C3058 C3056 1.378 . S
C3058 C3059 1.367 . S
C3059 C3058 1.367 . S
C3059 C3061 1.433 . S
C3060 C3056 1.350 . S
C3060 C3057 1.463 . S
C3060 N3064 1.427 . S
C3061 H3051 0.929 . S
C3061 C3059 1.433 . S
C3061 N3064 1.384 . S
C3062 H3053 0.929 . S
C3062 C3054 1.378 . S
C3062 C3057 1.350 . S
C3063 H3050 0.929 . S
C3063 C3055 1.433 . S
C3063 N3065 1.384 . S
N3064 C3060 1.427 . S
N3064 C3061 1.384 . S
N3065 C3057 1.427 . S
N3065 C3063 1.384 . S
H3066 C3072 0.930 . S
H3067 C3076 0.930 . S
H3068 C3081 0.929 . S
H3069 C3079 0.929 . S
H3070 C3074 0.929 . S
H3071 C3080 0.929 . S
C3072 H3066 0.930 . S
C3072 C3073 1.367 . S
C3072 C3080 1.378 . S
C3073 C3072 1.367 . S
C3073 C3081 1.433 . S
C3074 H3070 0.929 . S
C3074 C3076 1.378 . S
C3074 C3078 1.350 . S
C3075 C3078 1.463 . S
C3075 C3080 1.350 . S
C3075 N3083 1.427 . S
C3076 H3067 0.930 . S
C3076 C3074 1.378 . S
C3076 C3077 1.367 . S
C3077 C3076 1.367 . S
C3077 C3079 1.433 . S
C3078 C3074 1.350 . S
C3078 C3075 1.463 . S
C3078 N3082 1.427 . S
C3079 H3069 0.929 . S
C3079 C3077 1.433 . S
C3079 N3082 1.384 . S
C3080 H3071 0.929 . S
C3080 C3072 1.378 . S
C3080 C3075 1.350 . S
C3081 H3068 0.929 . S
C3081 C3073 1.433 . S
C3081 N3083 1.384 . S
N3082 C3078 1.427 . S
N3082 C3079 1.384 . S
N3083 C3075 1.427 . S
N3083 C3081 1.384 . S
H3084 C3090 0.930 . S
H3085 C3094 0.930 . S
H3086 C3099 0.929 . S
H3087 C3097 0.929 . S
H3088 C3092 0.929 . S
H3089 C3098 0.929 . S
C3090 H3084 0.930 . S
C3090 C3091 1.367 . S
C3090 C3098 1.378 . S
C3091 C3090 1.367 . S
C3091 C3099 1.433 . S
C3092 H3088 0.929 . S
C3092 C3094 1.378 . S
C3092 C3096 1.350 . S
C3093 C3096 1.463 . S
C3093 C3098 1.350 . S
C3093 N3101 1.427 . S
C3094 H3085 0.930 . S
C3094 C3092 1.378 . S
C3094 C3095 1.367 . S
C3095 C3094 1.367 . S
C3095 C3097 1.433 . S
C3096 C3092 1.350 . S
C3096 C3093 1.463 . S
C3096 N3100 1.427 . S
C3097 H3087 0.929 . S
C3097 C3095 1.433 . S
C3097 N3100 1.384 . S
C3098 H3089 0.929 . S
C3098 C3090 1.378 . S
C3098 C3093 1.350 . S
C3099 H3086 0.929 . S
C3099 C3091 1.433 . S
C3099 N3101 1.384 . S
N3100 C3096 1.427 . S
N3100 C3097 1.384 . S
N3101 C3093 1.427 . S
N3101 C3099 1.384 . S
H3102 C3108 0.930 . S
H3103 C3112 0.930 . S
H3104 C3117 0.929 . S
H3105 C3115 0.929 . S
H3106 C3110 0.929 . S
H3107 C3116 0.929 . S
C3108 H3102 0.930 . S
C3108 C3109 1.367 . S
C3108 C3116 1.378 . S
C3109 C3108 1.367 . S
C3109 C3117 1.433 . S
C3110 H3106 0.929 . S
C3110 C3112 1.378 . S
C3110 C3114 1.350 . S
C3111 C3114 1.463 . S
C3111 C3116 1.350 . S
C3111 N3119 1.427 . S
C3112 H3103 0.930 . S
C3112 C3110 1.378 . S
C3112 C3113 1.367 . S
C3113 C3112 1.367 . S
C3113 C3115 1.433 . S
C3114 C3110 1.350 . S
C3114 C3111 1.463 . S
C3114 N3118 1.427 . S
C3115 H3105 0.929 . S
C3115 C3113 1.433 . S
C3115 N3118 1.384 . S
C3116 H3107 0.929 . S
C3116 C3108 1.378 . S
C3116 C3111 1.350 . S
C3117 H3104 0.929 . S
C3117 C3109 1.433 . S
C3117 N3119 1.384 . S
N3118 C3114 1.427 . S
N3118 C3115 1.384 . S
N3119 C3111 1.427 . S
N3119 C3117 1.384 . S
H3120 C3126 0.930 . S
H3121 C3130 0.930 . S
H3122 C3135 0.929 . S
H3123 C3133 0.929 . S
H3124 C3128 0.929 . S
H3125 C3134 0.929 . S
C3126 H3120 0.930 . S
C3126 C3127 1.367 . S
C3126 C3134 1.378 . S
C3127 C3126 1.367 . S
C3127 C3135 1.433 . S
C3128 H3124 0.929 . S
C3128 C3130 1.378 . S
C3128 C3132 1.350 . S
C3129 C3132 1.463 . S
C3129 C3134 1.350 . S
C3129 N3137 1.427 . S
C3130 H3121 0.930 . S
C3130 C3128 1.378 . S
C3130 C3131 1.367 . S
C3131 C3130 1.367 . S
C3131 C3133 1.433 . S
C3132 C3128 1.350 . S
C3132 C3129 1.463 . S
C3132 N3136 1.427 . S
C3133 H3123 0.929 . S
C3133 C3131 1.433 . S
C3133 N3136 1.384 . S
C3134 H3125 0.929 . S
C3134 C3126 1.378 . S
C3134 C3129 1.350 . S
C3135 H3122 0.929 . S
C3135 C3127 1.433 . S
C3135 N3137 1.384 . S
N3136 C3132 1.427 . S
N3136 C3133 1.384 . S
N3137 C3129 1.427 . S
N3137 C3135 1.384 . S
H3138 C3144 0.930 . S
H3139 C3148 0.930 . S
H3140 C3153 0.929 . S
H3141 C3151 0.929 . S
H3142 C3146 0.929 . S
H3143 C3152 0.929 . S
C3144 H3138 0.930 . S
C3144 C3145 1.367 . S
C3144 C3152 1.378 . S
C3145 C3144 1.367 . S
C3145 C3153 1.433 . S
C3146 H3142 0.929 . S
C3146 C3148 1.378 . S
C3146 C3150 1.350 . S
C3147 C3150 1.463 . S
C3147 C3152 1.350 . S
C3147 N3155 1.427 . S
C3148 H3139 0.930 . S
C3148 C3146 1.378 . S
C3148 C3149 1.367 . S
C3149 C3148 1.367 . S
C3149 C3151 1.433 . S
C3150 C3146 1.350 . S
C3150 C3147 1.463 . S
C3150 N3154 1.427 . S
C3151 H3141 0.929 . S
C3151 C3149 1.433 . S
C3151 N3154 1.384 . S
C3152 H3143 0.929 . S
C3152 C3144 1.378 . S
C3152 C3147 1.350 . S
C3153 H3140 0.929 . S
C3153 C3145 1.433 . S
C3153 N3155 1.384 . S
N3154 C3150 1.427 . S
N3154 C3151 1.384 . S
N3155 C3147 1.427 . S
N3155 C3153 1.384 . S
H3156 C3162 0.930 . S
H3157 C3166 0.930 . S
H3158 C3171 0.929 . S
H3159 C3169 0.929 . S
H3160 C3164 0.932 . S
H3161 C3170 0.929 . S
C3162 H3156 0.930 . S
C3162 C3163 1.367 . S
C3162 C3170 1.378 . S
C3163 C3162 1.367 . S
C3163 C3171 1.433 . S
C3164 H3160 0.932 . S
C3164 C3166 1.378 . S
C3164 C3168 1.350 1_455 S
C3165 C3168 1.463 . S
C3165 C3170 1.350 . S
C3165 N3173 1.427 . S
C3166 H3157 0.930 . S
C3166 C3164 1.378 . S
C3166 C3167 1.367 . S
C3167 C3166 1.367 . S
C3167 C3169 1.433 . S
C3168 C3164 1.350 1_655 S
C3168 C3165 1.463 . S
C3168 N3172 1.427 1_655 S
C3169 H3159 0.929 . S
C3169 C3167 1.433 . S
C3169 N3172 1.384 . S
C3170 H3161 0.929 . S
C3170 C3162 1.378 . S
C3170 C3165 1.350 . S
C3171 H3158 0.929 . S
C3171 C3163 1.433 . S
C3171 N3173 1.384 . S
N3172 C3168 1.427 1_455 S
N3172 C3169 1.384 . S
N3173 C3165 1.427 . S
N3173 C3171 1.384 . S
H3174 C3180 0.930 . S
H3175 C3184 0.930 . S
H3176 C3189 0.929 . S
H3177 C3187 0.929 . S
H3178 C3182 0.929 . S
H3179 C3188 0.929 . S
C3180 H3174 0.930 . S
C3180 C3181 1.367 . S
C3180 C3188 1.378 . S
C3181 C3180 1.367 . S
C3181 C3189 1.433 . S
C3182 H3178 0.929 . S
C3182 C3184 1.378 . S
C3182 C3186 1.350 . S
C3183 C3186 1.463 . S
C3183 C3188 1.350 . S
C3183 N3191 1.427 . S
C3184 H3175 0.930 . S
C3184 C3182 1.378 . S
C3184 C3185 1.367 . S
C3185 C3184 1.367 . S
C3185 C3187 1.433 . S
C3186 C3182 1.350 . S
C3186 C3183 1.463 . S
C3186 N3190 1.427 . S
C3187 H3177 0.929 . S
C3187 C3185 1.433 . S
C3187 N3190 1.384 . S
C3188 H3179 0.929 . S
C3188 C3180 1.378 . S
C3188 C3183 1.350 . S
C3189 H3176 0.929 . S
C3189 C3181 1.433 . S
C3189 N3191 1.384 . S
N3190 C3186 1.427 . S
N3190 C3187 1.384 . S
N3191 C3183 1.427 . S
N3191 C3189 1.384 . S
H3192 C3198 0.930 . S
H3193 C3202 0.930 . S
H3194 C3207 0.929 . S
H3195 C3205 0.929 . S
H3196 C3200 0.929 . S
H3197 C3206 0.929 . S
C3198 H3192 0.930 . S
C3198 C3199 1.367 . S
C3198 C3206 1.378 . S
C3199 C3198 1.367 . S
C3199 C3207 1.433 . S
C3200 H3196 0.929 . S
C3200 C3202 1.378 . S
C3200 C3204 1.350 . S
C3201 C3204 1.463 . S
C3201 C3206 1.350 . S
C3201 N3209 1.427 . S
C3202 H3193 0.930 . S
C3202 C3200 1.378 . S
C3202 C3203 1.367 . S
C3203 C3202 1.367 . S
C3203 C3205 1.433 . S
C3204 C3200 1.350 . S
C3204 C3201 1.463 . S
C3204 N3208 1.427 . S
C3205 H3195 0.929 . S
C3205 C3203 1.433 . S
C3205 N3208 1.384 . S
C3206 H3197 0.929 . S
C3206 C3198 1.378 . S
C3206 C3201 1.350 . S
C3207 H3194 0.929 . S
C3207 C3199 1.433 . S
C3207 N3209 1.384 . S
N3208 C3204 1.427 . S
N3208 C3205 1.384 . S
N3209 C3201 1.427 . S
N3209 C3207 1.384 . S
H3210 C3216 0.930 . S
H3211 C3220 0.930 . S
H3212 C3225 0.929 . S
H3213 C3223 0.929 . S
H3214 C3218 0.929 . S
H3215 C3224 0.929 . S
C3216 H3210 0.930 . S
C3216 C3217 1.367 . S
C3216 C3224 1.378 . S
C3217 C3216 1.367 . S
C3217 C3225 1.433 . S
C3218 H3214 0.929 . S
C3218 C3220 1.378 . S
C3218 C3222 1.350 . S
C3219 C3222 1.463 . S
C3219 C3224 1.350 . S
C3219 N3227 1.427 . S
C3220 H3211 0.930 . S
C3220 C3218 1.378 . S
C3220 C3221 1.367 . S
C3221 C3220 1.367 . S
C3221 C3223 1.433 . S
C3222 C3218 1.350 . S
C3222 C3219 1.463 . S
C3222 N3226 1.427 . S
C3223 H3213 0.929 . S
C3223 C3221 1.433 . S
C3223 N3226 1.384 . S
C3224 H3215 0.929 . S
C3224 C3216 1.378 . S
C3224 C3219 1.350 . S
C3225 H3212 0.929 . S
C3225 C3217 1.433 . S
C3225 N3227 1.384 . S
N3226 C3222 1.427 . S
N3226 C3223 1.384 . S
N3227 C3219 1.427 . S
N3227 C3225 1.384 . S
H3228 C3234 0.930 . S
H3229 C3238 0.930 . S
H3230 C3243 0.929 . S
H3231 C3241 0.929 . S
H3232 C3236 0.929 . S
H3233 C3242 0.929 . S
C3234 H3228 0.930 . S
C3234 C3235 1.367 . S
C3234 C3242 1.378 . S
C3235 C3234 1.367 . S
C3235 C3243 1.433 . S
C3236 H3232 0.929 . S
C3236 C3238 1.378 . S
C3236 C3240 1.350 . S
C3237 C3240 1.463 . S
C3237 C3242 1.350 . S
C3237 N3245 1.427 . S
C3238 H3229 0.930 . S
C3238 C3236 1.378 . S
C3238 C3239 1.367 . S
C3239 C3238 1.367 . S
C3239 C3241 1.433 1_655 S
C3240 C3236 1.350 . S
C3240 C3237 1.463 . S
C3240 N3244 1.427 . S
C3241 H3231 0.929 . S
C3241 C3239 1.433 1_455 S
C3241 N3244 1.384 1_455 S
C3242 H3233 0.929 . S
C3242 C3234 1.378 . S
C3242 C3237 1.350 . S
C3243 H3230 0.929 . S
C3243 C3235 1.433 . S
C3243 N3245 1.384 . S
N3244 C3240 1.427 . S
N3244 C3241 1.384 1_655 S
N3245 C3237 1.427 . S
N3245 C3243 1.384 . S
H3246 C3252 0.930 . S
H3247 C3256 0.930 . S
H3248 C3261 0.929 . S
H3249 C3259 0.929 . S
H3250 C3254 0.929 . S
H3251 C3260 0.929 . S
C3252 H3246 0.930 . S
C3252 C3253 1.367 . S
C3252 C3260 1.378 . S
C3253 C3252 1.367 . S
C3253 C3261 1.433 . S
C3254 H3250 0.929 . S
C3254 C3256 1.378 . S
C3254 C3258 1.350 . S
C3255 C3258 1.463 . S
C3255 C3260 1.350 . S
C3255 N3263 1.427 . S
C3256 H3247 0.930 . S
C3256 C3254 1.378 . S
C3256 C3257 1.367 . S
C3257 C3256 1.367 . S
C3257 C3259 1.433 . S
C3258 C3254 1.350 . S
C3258 C3255 1.463 . S
C3258 N3262 1.427 . S
C3259 H3249 0.929 . S
C3259 C3257 1.433 . S
C3259 N3262 1.384 . S
C3260 H3251 0.929 . S
C3260 C3252 1.378 . S
C3260 C3255 1.350 . S
C3261 H3248 0.929 . S
C3261 C3253 1.433 . S
C3261 N3263 1.384 . S
N3262 C3258 1.427 . S
N3262 C3259 1.384 . S
N3263 C3255 1.427 . S
N3263 C3261 1.384 . S
H3264 C3270 0.930 . S
H3265 C3274 0.930 . S
H3266 C3279 0.929 . S
H3267 C3277 0.929 . S
H3268 C3272 0.929 . S
H3269 C3278 0.929 . S
C3270 H3264 0.930 . S
C3270 C3271 1.367 . S
C3270 C3278 1.378 . S
C3271 C3270 1.367 . S
C3271 C3279 1.433 . S
C3272 H3268 0.929 . S
C3272 C3274 1.378 . S
C3272 C3276 1.350 . S
C3273 C3276 1.463 . S
C3273 C3278 1.350 . S
C3273 N3281 1.427 . S
C3274 H3265 0.930 . S
C3274 C3272 1.378 . S
C3274 C3275 1.367 . S
C3275 C3274 1.367 . S
C3275 C3277 1.433 . S
C3276 C3272 1.350 . S
C3276 C3273 1.463 . S
C3276 N3280 1.427 . S
C3277 H3267 0.929 . S
C3277 C3275 1.433 . S
C3277 N3280 1.384 . S
C3278 H3269 0.929 . S
C3278 C3270 1.378 . S
C3278 C3273 1.350 . S
C3279 H3266 0.929 . S
C3279 C3271 1.433 . S
C3279 N3281 1.384 . S
N3280 C3276 1.427 . S
N3280 C3277 1.384 . S
N3281 C3273 1.427 . S
N3281 C3279 1.384 . S
H3282 C3288 0.930 . S
H3283 C3292 0.930 . S
H3284 C3297 0.929 . S
H3285 C3295 0.929 . S
H3286 C3290 0.929 . S
H3287 C3296 0.929 . S
C3288 H3282 0.930 . S
C3288 C3289 1.367 . S
C3288 C3296 1.378 . S
C3289 C3288 1.367 . S
C3289 C3297 1.433 . S
C3290 H3286 0.929 . S
C3290 C3292 1.378 . S
C3290 C3294 1.350 . S
C3291 C3294 1.463 . S
C3291 C3296 1.350 . S
C3291 N3299 1.427 . S
C3292 H3283 0.930 . S
C3292 C3290 1.378 . S
C3292 C3293 1.367 . S
C3293 C3292 1.367 . S
C3293 C3295 1.433 . S
C3294 C3290 1.350 . S
C3294 C3291 1.463 . S
C3294 N3298 1.427 . S
C3295 H3285 0.929 . S
C3295 C3293 1.433 . S
C3295 N3298 1.384 . S
C3296 H3287 0.929 . S
C3296 C3288 1.378 . S
C3296 C3291 1.350 . S
C3297 H3284 0.929 . S
C3297 C3289 1.433 . S
C3297 N3299 1.384 . S
N3298 C3294 1.427 . S
N3298 C3295 1.384 . S
N3299 C3291 1.427 . S
N3299 C3297 1.384 . S
H3300 C3306 0.930 . S
H3301 C3310 0.930 . S
H3302 C3315 0.929 . S
H3303 C3313 0.929 . S
H3304 C3308 0.929 . S
H3305 C3314 0.929 . S
C3306 H3300 0.930 . S
C3306 C3307 1.367 . S
C3306 C3314 1.378 . S
C3307 C3306 1.367 . S
C3307 C3315 1.433 . S
C3308 H3304 0.929 . S
C3308 C3310 1.378 . S
C3308 C3312 1.350 . S
C3309 C3312 1.463 . S
C3309 C3314 1.350 . S
C3309 N3317 1.427 . S
C3310 H3301 0.930 . S
C3310 C3308 1.378 . S
C3310 C3311 1.367 . S
C3311 C3310 1.367 . S
C3311 C3313 1.433 . S
C3312 C3308 1.350 . S
C3312 C3309 1.463 . S
C3312 N3316 1.427 . S
C3313 H3303 0.929 . S
C3313 C3311 1.433 . S
C3313 N3316 1.384 . S
C3314 H3305 0.929 . S
C3314 C3306 1.378 . S
C3314 C3309 1.350 . S
C3315 H3302 0.929 . S
C3315 C3307 1.433 . S
C3315 N3317 1.384 . S
N3316 C3312 1.427 . S
N3316 C3313 1.384 . S
N3317 C3309 1.427 . S
N3317 C3315 1.384 . S
H3318 C3324 0.930 1_556 S
H3319 C3328 0.930 . S
H3320 C3333 0.929 . S
H3321 C3331 0.929 . S
H3322 C3326 0.929 . S
H3323 C3332 0.890 1_556 S
C3324 H3318 0.930 1_554 S
C3324 C3325 1.367 . S
C3324 C3332 1.373 . S
C3325 C3324 1.367 . S
C3325 C3333 1.433 . S
C3326 H3322 0.929 . S
C3326 C3328 1.378 . S
C3326 C3330 1.350 . S
C3327 C3330 1.463 . S
C3327 C3332 1.395 . S
C3327 N3335 1.427 . S
C3328 H3319 0.930 . S
C3328 C3326 1.378 . S
C3328 C3329 1.367 . S
C3329 C3328 1.367 . S
C3329 C3331 1.433 1_554 S
C3330 C3326 1.350 . S
C3330 C3327 1.463 . S
C3330 N3334 1.427 1_554 S
C3331 H3321 0.929 . S
C3331 C3329 1.433 1_556 S
C3331 N3334 1.384 . S
C3332 H3323 0.890 1_554 S
C3332 C3324 1.373 . S
C3332 C3327 1.395 . S
C3333 H3320 0.929 . S
C3333 C3325 1.433 . S
C3333 N3335 1.384 . S
N3334 C3330 1.427 1_556 S
N3334 C3331 1.384 . S
N3335 C3327 1.427 . S
N3335 C3333 1.384 . S
H3336 C3342 0.930 . S
H3337 C3346 0.930 . S
H3338 C3351 0.929 . S
H3339 C3349 0.929 . S
H3340 C3344 0.929 . S
H3341 C3350 0.929 . S
C3342 H3336 0.930 . S
C3342 C3343 1.367 . S
C3342 C3350 1.378 . S
C3343 C3342 1.367 . S
C3343 C3351 1.433 . S
C3344 H3340 0.929 . S
C3344 C3346 1.378 . S
C3344 C3348 1.350 . S
C3345 C3348 1.463 . S
C3345 C3350 1.350 . S
C3345 N3353 1.427 . S
C3346 H3337 0.930 . S
C3346 C3344 1.378 . S
C3346 C3347 1.367 . S
C3347 C3346 1.367 . S
C3347 C3349 1.433 . S
C3348 C3344 1.350 . S
C3348 C3345 1.463 . S
C3348 N3352 1.427 . S
C3349 H3339 0.929 . S
C3349 C3347 1.433 . S
C3349 N3352 1.384 . S
C3350 H3341 0.929 . S
C3350 C3342 1.378 . S
C3350 C3345 1.350 . S
C3351 H3338 0.929 . S
C3351 C3343 1.433 . S
C3351 N3353 1.384 . S
N3352 C3348 1.427 . S
N3352 C3349 1.384 . S
N3353 C3345 1.427 . S
N3353 C3351 1.384 . S
H3354 C3360 0.930 . S
H3355 C3364 0.930 . S
H3356 C3369 0.929 . S
H3357 C3367 0.929 . S
H3358 C3362 0.928 . S
H3359 C3368 0.929 . S
C3360 H3354 0.930 . S
C3360 C3361 1.367 . S
C3360 C3368 1.378 . S
C3361 C3360 1.367 . S
C3361 C3369 1.433 . S
C3362 H3358 0.928 . S
C3362 C3364 1.378 . S
C3362 C3366 1.350 1_556 S
C3363 C3366 1.463 . S
C3363 C3368 1.350 . S
C3363 N3371 1.427 . S
C3364 H3355 0.930 . S
C3364 C3362 1.378 . S
C3364 C3365 1.367 1_556 S
C3365 C3364 1.367 1_554 S
C3365 C3367 1.433 . S
C3366 C3362 1.350 1_554 S
C3366 C3363 1.463 . S
C3366 N3370 1.427 . S
C3367 H3357 0.929 . S
C3367 C3365 1.433 . S
C3367 N3370 1.384 . S
C3368 H3359 0.929 . S
C3368 C3360 1.378 . S
C3368 C3363 1.350 . S
C3369 H3356 0.929 . S
C3369 C3361 1.433 . S
C3369 N3371 1.384 . S
N3370 C3366 1.427 . S
N3370 C3367 1.384 . S
N3371 C3363 1.427 . S
N3371 C3369 1.384 . S
H3372 C3378 0.930 . S
H3373 C3382 0.930 . S
H3374 C3387 0.929 . S
H3375 C3385 0.929 . S
H3376 C3380 0.929 . S
H3377 C3386 0.929 . S
C3378 H3372 0.930 . S
C3378 C3379 1.367 . S
C3378 C3386 1.378 . S
C3379 C3378 1.367 . S
C3379 C3387 1.433 . S
C3380 H3376 0.929 . S
C3380 C3382 1.378 . S
C3380 C3384 1.350 . S
C3381 C3384 1.463 . S
C3381 C3386 1.350 . S
C3381 N3389 1.427 . S
C3382 H3373 0.930 . S
C3382 C3380 1.378 . S
C3382 C3383 1.367 . S
C3383 C3382 1.367 . S
C3383 C3385 1.433 . S
C3384 C3380 1.350 . S
C3384 C3381 1.463 . S
C3384 N3388 1.427 . S
C3385 H3375 0.929 . S
C3385 C3383 1.433 . S
C3385 N3388 1.384 . S
C3386 H3377 0.929 . S
C3386 C3378 1.378 . S
C3386 C3381 1.350 . S
C3387 H3374 0.929 . S
C3387 C3379 1.433 . S
C3387 N3389 1.384 . S
N3388 C3384 1.427 . S
N3388 C3385 1.384 . S
N3389 C3381 1.427 . S
N3389 C3387 1.384 . S
H3390 C3396 0.930 . S
H3391 C3400 0.930 . S
H3392 C3405 0.929 . S
H3393 C3403 0.929 . S
H3394 C3398 0.929 . S
H3395 C3404 0.929 . S
C3396 H3390 0.930 . S
C3396 C3397 1.367 . S
C3396 C3404 1.378 . S
C3397 C3396 1.367 . S
C3397 C3405 1.433 . S
C3398 H3394 0.929 . S
C3398 C3400 1.378 . S
C3398 C3402 1.350 . S
C3399 C3402 1.463 . S
C3399 C3404 1.350 . S
C3399 N3407 1.427 . S
C3400 H3391 0.930 . S
C3400 C3398 1.378 . S
C3400 C3401 1.367 . S
C3401 C3400 1.367 . S
C3401 C3403 1.433 . S
C3402 C3398 1.350 . S
C3402 C3399 1.463 . S
C3402 N3406 1.427 . S
C3403 H3393 0.929 . S
C3403 C3401 1.433 . S
C3403 N3406 1.384 . S
C3404 H3395 0.929 . S
C3404 C3396 1.378 . S
C3404 C3399 1.350 . S
C3405 H3392 0.929 . S
C3405 C3397 1.433 . S
C3405 N3407 1.384 . S
N3406 C3402 1.427 . S
N3406 C3403 1.384 . S
N3407 C3399 1.427 . S
N3407 C3405 1.384 . S
C1687 C109 1.787 . S
C1691 C392 1.648 . S
C1705 C65 2.232 . S
C1709 C483 2.163 . S
C1723 C75 1.577 . S
C1727 C560 1.493 . S
C1745 C658 1.471 . S
C1741 C84 1.598 . S
C1759 C25 1.537 . S
C1763 C742 1.517 . S
C1781 C814 0.934 . S
C1777 C28 0.969 . S
C1799 C903 0.949 . S
C1795 C47 0.918 . S
C1813 C9 1.521 . S
C1817 C980 1.358 . S
C1835 C399 2.083 . S
C1831 C233 2.196 . S
C1849 C249 0.677 . S
C1853 C490 0.714 . S
C1871 C567 1.226 . S
C1867 C275 1.278 . S
C1889 C644 1.547 . S
C1885 C173 1.646 . S
C1903 C224 2.144 . S
C1907 C728 2.010 . S
C1925 C830 1.132 . S
C1921 C243 1.228 . S
C1943 C910 0.756 . S
C1939 C266 0.791 . S
C1961 C987 1.459 . S
C1957 C179 1.590 . S
C1979 C406 1.444 . S
C1975 C163 1.511 . S
C1993 C289 1.955 . S
C1997 C1071 1.866 1_556 S
C2015 C1159 2.184 . S
C2011 C333 2.357 . S
C2033 C1232 0.519 . S
C2029 C308 0.441 . S
C2047 C123 0.960 . S
C2051 C994 1.000 . S
C2065 C126 1.478 . S
C2069 C574 1.442 . S
C2083 C327 2.287 . S
C2087 C1323 2.195 . S
C2105 C1400 0.808 . S
C2101 C299 0.813 . S
C2123 C403 1.685 . S
C2119 C67 1.818 . S
C2141 C1418 2.194 . S
C2137 C98 2.198 . S
C2155 C89 1.611 . S
C2159 C571 1.514 . S
C2173 C79 1.658 . S
C2177 C1318 1.521 . S
C2195 C730 1.528 . S
C2191 C11 1.548 . S
C2209 C51 1.010 . S
C2213 C1162 0.953 . S
C2231 C914 1.014 . S
C2227 C33 0.995 . S
C2249 C1495 1.348 . S
C2245 C14 1.507 . S
C2267 C410 2.075 . S
C2263 C140 2.187 . S
C2285 C1402 0.683 . S
C2281 C319 0.695 . S
C2299 C112 1.259 . S
C2303 C578 1.242 . S
C2317 C285 1.668 . S
C2321 C1327 1.561 . S
C2335 C149 2.217 . S
C2339 C739 2.039 . S
C2357 C1155 1.166 . S
C2353 C313 1.255 . S
C2371 C121 0.838 . S
C2375 C898 0.809 . S
C2389 C291 1.628 . S
C2393 C1502 1.503 . S
C2407 C182 1.513 . S
C2411 C394 1.417 1_554 S
C2425 C168 1.948 . S
C2429 C1082 1.884 . S
C2443 C263 2.412 . S
C2447 C812 2.245 . S
C2461 C247 0.502 . S
C2465 C1243 0.591 . S
C2483 C1486 0.934 . S
C2479 C277 0.945 1_565 S
C2497 C219 1.525 . S
C2501 C562 1.453 . S
C2519 C662 2.236 . S
C2515 C257 2.327 . S
C2537 C487 0.799 . S
C2533 C201 0.814 . S
C2551 C81 1.793 . S
C2555 C1568 1.664 . S
C2573 C1407 2.167 . S
C2569 C93 2.231 . S
C2587 C103 1.580 . S
C2591 C1652 1.486 . S
C2605 C56 1.601 . S
C2609 C1330 1.468 . S
C2623 C53 1.533 . S
C2627 C1078 1.523 . S
C2645 C1150 0.919 . S
C2641 C0 0.979 . S
C2663 C1239 0.940 . S
C2659 C19 0.939 . S
C2681 C1484 1.361 . S
C2677 C37 1.519 . S
C2699 C1575 2.092 . S
C2695 C261 2.197 . S
C2713 C193 0.690 . S
C2717 C1414 0.701 . S
C2735 C1659 1.228 . S
C2731 C205 1.278 . S
C2753 C1316 1.541 . S
C2749 C215 1.646 . S
C2771 C1064 2.011 . S
C2767 C252 2.142 . S
C2785 C187 1.228 . S
C2789 C1166 1.144 . S
C2807 C1246 0.791 . S
C2803 C196 0.779 . S
C2821 C221 1.590 . S
C2825 C1491 1.459 . S
C2843 C1582 1.443 . S
C2839 C317 1.509 . S
C2857 C135 1.955 . S
C2861 C735 1.868 . S
C2879 C823 2.185 . S
C2875 C151 2.365 . S
C2897 C896 0.555 . S
C2893 C154 0.458 . S
C2915 C1498 1.001 . S
C2911 C305 0.956 . S
C2929 C280 1.476 . S
C2933 C1666 1.441 . S
C2951 C651 2.201 . S
C2947 C145 2.280 . S
C2969 C476 0.811 . S
C2965 C117 0.811 . S
C2983 C95 1.816 . S
C2987 C1579 1.669 . S
C3005 C494 2.189 . S
C3001 C70 2.195 . S
C3019 C61 1.606 . S
C3023 C1663 1.529 . S
C3037 C107 1.658 . S
C3041 C646 1.511 . S
C3055 C39 1.547 . S
C3059 C1066 1.529 . S
C3077 C826 0.939 . S
C3073 C23 1.006 . S
C3091 C5 1.000 . S
C3095 C1250 1.011 . S
C3109 C42 1.501 . S
C3113 C991 1.332 . S
C3131 C1586 2.087 . S
C3127 C322 2.184 . S
C3145 C165 0.691 . S
C3149 C478 0.719 . S
C3167 C1670 1.225 . S
C3163 C294 1.269 . S
C3181 C131 1.667 . S
C3185 C655 1.570 . S
C3199 C331 2.213 . S
C3203 C1075 2.036 . S
C3221 C819 1.153 . S
C3217 C159 1.252 . S
C3235 C303 0.839 . S
C3239 C1234 0.817 1_655 S
C3257 C998 1.509 . S
C3253 C137 1.629 . S
C3275 C1570 1.422 . S
C3271 C238 1.513 . S
C3293 C746 1.896 1_665 S
C3289 C210 1.941 . S
C3307 C235 2.408 . S
C3311 C1148 2.247 . S
C3329 C907 0.582 . S
C3325 C191 0.506 . S
C3343 C207 0.924 . S
C3347 C982 0.951 . S
C3361 C177 1.525 . S
C3365 C1654 1.455 1_554 S
C3383 C1334 2.230 . S
C3379 C229 2.328 1_565 S
C3401 C1411 0.796 . S
C3397 C271 0.810 . S
