# Generated by pormake.
# Topology nia, (6,6)-cn, num edge types: 1
# Building blocks:
#     Node 0, Type 0, BuildingBlock: BETGAK_clean_sbu_0, # of connection points: 6
#     Node 1, Type 0, BuildingBlock: BETGAK_clean_sbu_0, # of connection points: 6
#     Node 2, Type 1, BuildingBlock: MIDCAF_clean_sbu_0, # of connection points: 6
#     Node 3, Type 1, BuildingBlock: MIDCAF_clean_sbu_0, # of connection points: 6
#     Edge 4, Type (0, 1), BuildingBlock: XUDNAN_clean_linker_2, # of connection points: 2
#     Edge 5, Type (0, 1), BuildingBlock: XUDNAN_clean_linker_2, # of connection points: 2
#     Edge 6, Type (0, 1), BuildingBlock: XUDNAN_clean_linker_2, # of connection points: 2
#     Edge 7, Type (0, 1), BuildingBlock: XUDNAN_clean_linker_2, # of connection points: 2
#     Edge 8, Type (0, 1), BuildingBlock: XUDNAN_clean_linker_2, # of connection points: 2
#     Edge 9, Type (0, 1), BuildingBlock: XUDNAN_clean_linker_2, # of connection points: 2
#     Edge 10, Type (0, 1), BuildingBlock: XUDNAN_clean_linker_2, # of connection points: 2
#     Edge 11, Type (0, 1), BuildingBlock: XUDNAN_clean_linker_2, # of connection points: 2
#     Edge 12, Type (0, 1), BuildingBlock: XUDNAN_clean_linker_2, # of connection points: 2
#     Edge 13, Type (0, 1), BuildingBlock: XUDNAN_clean_linker_2, # of connection points: 2
#     Edge 14, Type (0, 1), BuildingBlock: XUDNAN_clean_linker_2, # of connection points: 2
#     Edge 15, Type (0, 1), BuildingBlock: XUDNAN_clean_linker_2, # of connection points: 2
# Relax obj value: 0.323
# Max RMSD: 0.269
# Mean RMSD: 0.247
data_MOF--net-nia--node1-BETGAK_clean_sbu_0--node2-MIDCAF_clean_sbu_0--edge1-XUDNAN_clean_linker_2
_symmetry_space_group_name_H-M    P1
_symmetry_Int_Tables_number       1
_symmetry_cell_setting            triclinic
loop_
_symmetry_equiv_pos_as_xyz
'x, y, z'
_cell_length_a     25.405047
_cell_length_b     28.528274
_cell_length_c     33.522648
_cell_angle_alpha  68.735053
_cell_angle_beta   102.44483
_cell_angle_gamma 127.9857
loop_
_atom_site_label
_atom_site_type_symbol
_atom_site_fract_x
_atom_site_fract_y
_atom_site_fract_z
_atom_type_partial_charge
La0 La 0.07892 0.04205 0.054 0.0
La1 La 0.98324 0.93418 1.02286 0.0
C2 C 0.18078 0.13557 0.07377 0.0
C3 C 0.19558 0.18884 0.0828 0.0
C4 C 0.14692 0.18364 0.10118 0.0
C5 C 0.16469 0.23121 0.11611 0.0
C6 C 0.2312 0.28445 0.11262 0.0
C7 C 0.27823 0.29182 0.09061 0.0
C8 C 0.26045 0.24405 0.07587 0.0
C9 C 0.95954 0.96798 0.09153 0.0
C10 C 0.97767 0.0502 0.98972 0.0
C11 C 0.88912 0.84577 0.99483 0.0
C12 C 0.88902 0.80944 0.97278 0.0
C13 C 0.9121 0.83632 0.9302 0.0
C14 C 0.91316 0.80226 0.90976 0.0
C15 C 0.89134 0.74083 0.93146 0.0
C16 C 0.86911 0.7141 0.97415 0.0
C17 C 0.86776 0.7481 0.9946 0.0
C18 C 0.10288 0.0091 0.98561 0.0
C19 C 0.08374 0.92603 0.08997 0.0
O20 O 0.14202 0.08129 0.10167 0.0
O21 O 0.16497 0.13405 1.0343 0.0
O22 O 0.99929 0.02792 0.08404 0.0
O23 O 0.98904 0.95112 0.08111 0.0
O24 O 0.03934 0.08354 1.00283 0.0
O25 O 0.94204 -0.01133 1.00093 0.0
O26 O 0.91636 0.90441 0.97364 0.0
O27 O 0.90673 0.8381 1.03506 0.0
O28 O 0.06404 0.94938 0.99354 0.0
O29 O 0.07211 0.02488 0.99558 0.0
O30 O 0.02339 0.89182 0.07484 0.0
O31 O 0.1177 -0.013 0.07959 0.0
H32 H 0.0962 0.1415 0.10612 0.0
H33 H 0.12752 0.2243 0.13304 0.0
H34 H 0.32949 0.33309 0.08681 0.0
H35 H 0.2981 0.24896 0.06096 0.0
H36 H 0.92922 0.88366 0.91243 0.0
H37 H 0.93042 0.82371 0.87682 0.0
H38 H 0.85073 0.66624 0.99129 0.0
H39 H 0.84976 0.72632 1.02737 0.0
La40 La 0.00921 0.01794 0.572 0.0
La41 La 0.05613 0.97373 0.5294 0.0
C42 C 0.99332 0.08014 0.59954 0.0
C43 C 0.96054 0.07531 0.63374 0.0
C44 C 0.98367 0.06941 0.67607 0.0
C45 C 0.9592 0.07568 0.70597 0.0
C46 C 0.91135 0.08807 0.69408 0.0
C47 C 0.88567 0.09042 0.65241 0.0
C48 C 0.91021 0.08434 0.62256 0.0
C49 C 0.9531 0.89699 0.60479 0.0
C50 C 0.92445 0.96047 0.50036 0.0
C51 C 0.06576 0.91268 0.49616 0.0
C52 C 0.1102 0.91416 0.47264 0.0
C53 C 0.11165 0.93421 0.4276 0.0
C54 C 0.14154 0.92345 0.40493 0.0
C55 C 0.17057 0.89227 0.42673 0.0
C56 C 0.17284 0.87565 0.4717 0.0
C57 C 0.14259 0.88614 0.49444 0.0
C58 C 0.10903 0.09506 0.49719 0.0
C59 C 0.15002 0.03979 0.5959 0.0
O60 O 0.04379 0.07678 0.6096 0.0
O61 O 0.95458 0.05101 0.57154 0.0
O62 O 0.92598 0.92333 0.60437 0.0
O63 O 0.01263 0.93869 0.59146 0.0
O64 O 0.94955 0.00829 0.51414 0.0
O65 O 0.95121 0.93005 0.5125 0.0
O66 O 0.0457 0.94776 0.47576 0.0
O67 O 0.07716 0.91016 0.53665 0.0
O68 O 0.1388 0.07133 0.49645 0.0
O69 O 0.05088 0.05077 0.51117 0.0
O70 O 0.13316 -0.00051 0.5766 0.0
O71 O 0.11287 0.05858 0.59401 0.0
H72 H 0.02253 0.06253 0.68568 0.0
H73 H 0.97954 0.07319 0.73797 0.0
H74 H 0.84962 0.1009 0.64198 0.0
H75 H 0.89205 0.08977 0.59003 0.0
H76 H 0.08672 0.95545 0.4097 0.0
H77 H 0.13975 0.93751 0.37029 0.0
H78 H 0.19436 0.85108 0.48945 0.0
H79 H 0.14157 0.86934 0.52909 0.0
Zn80 Zn 0.39106 0.70396 0.20404 0.0
Zn81 Zn 0.41115 0.66151 0.36956 0.0
Zn82 Zn 0.40154 0.68417 0.28669 0.0
C83 C 0.54006 0.74825 0.33767 0.0
C84 C 0.33331 0.54473 0.36085 0.0
O85 O 0.34838 0.72957 0.25736 0.0
O86 O 0.34964 0.74774 0.18735 0.0
C87 C 0.52695 0.75791 0.22195 0.0
O88 O 0.50826 0.74415 0.30209 0.0
O89 O 0.50932 0.71269 0.37295 0.0
O90 O 0.35791 0.56967 0.39059 0.0
O91 O 0.34479 0.57942 0.3214 0.0
O92 O 0.48706 0.74882 0.19091 0.0
O93 O 0.50509 0.73954 0.25995 0.0
O94 O 0.35051 0.5945 0.27669 0.0
O95 O 0.33151 0.61483 0.207 0.0
C96 C 0.32577 0.57657 0.24296 0.0
O97 O 0.35213 0.71725 0.30256 0.0
O98 O 0.36901 0.70052 0.37243 0.0
C99 C 0.33374 0.75095 0.21889 0.0
C100 C 0.34595 0.72009 0.33864 0.0
Zn101 Zn 0.64151 0.23701 0.92099 0.0
Zn102 Zn 0.72587 0.35475 0.73612 0.0
Zn103 Zn 0.67459 0.30597 0.80915 0.0
C104 C 0.76562 0.45628 0.75111 0.0
C105 C 0.57812 0.27125 0.73712 0.0
O106 O 0.72252 0.25926 0.84518 0.0
O107 O 0.69225 0.20724 0.91442 0.0
C108 C 0.71474 0.36059 0.89089 0.0
O109 O 0.72603 0.41037 0.7824 0.0
O110 O 0.78144 0.44545 0.72419 0.0
O111 O 0.63181 0.31048 0.7153 0.0
O112 O 0.57976 0.26024 0.77787 0.0
O113 O 0.69766 0.3233 0.92842 0.0
O114 O 0.69929 0.33953 0.85967 0.0
O115 O 0.5654 0.24956 0.8212 0.0
O116 O 0.55209 0.20994 0.89265 0.0
C117 C 0.52843 0.21752 0.85536 0.0
O118 O 0.72581 0.26875 0.79978 0.0
O119 O 0.77042 0.31904 0.73475 0.0
C120 C 0.72509 0.22452 0.88216 0.0
C121 C 0.75858 0.27776 0.76999 0.0
H122 H 0.08207 0.82947 0.08758 0.0
H123 H 0.16046 0.96121 0.1577 0.0
H124 H 0.22655 0.92485 0.20266 0.0
H125 H 0.07659 0.70354 0.17795 0.0
H126 H 0.10414 0.6846 0.14484 0.0
H127 H 0.05632 0.71523 0.12186 0.0
H128 H 0.14984 0.804 0.06523 0.0
H129 H 0.19817 0.77404 0.08821 0.0
H130 H 0.23395 0.8537 0.08263 0.0
H131 H 0.29362 0.88275 0.23486 0.0
H132 H 0.35388 0.83482 0.25301 0.0
H133 H 0.23256 0.73041 0.16264 0.0
C134 C 0.11173 0.84924 0.11321 0.0
C135 C 0.11576 0.89763 0.11954 0.0
C136 C 0.15666 0.92391 0.15248 0.0
C137 C 0.19428 0.90351 0.17823 0.0
C138 C 0.19093 0.85701 0.17051 0.0
C139 C 0.15057 0.82997 0.13891 0.0
C140 C 0.16048 0.78461 0.13493 0.0
C141 C 0.09551 0.71804 0.14554 0.0
C142 C 0.1872 0.80535 0.0901 0.0
C143 C 0.21286 0.79081 0.1689 0.0
C144 C 0.22964 0.83264 0.18919 0.0
C145 C 0.27991 0.8489 0.21983 0.0
C146 C 0.31361 0.82131 0.23016 0.0
C147 C 0.29626 0.77756 0.21031 0.0
C148 C 0.24563 0.76267 0.17908 0.0
H149 H 0.18991 0.07495 0.6703 0.0
H150 H 0.26075 0.07485 0.56342 0.0
H151 H 0.3749 0.12984 0.59082 0.0
H152 H 0.32979 0.22401 0.67886 0.0
H153 H 0.33292 0.20166 0.73653 0.0
H154 H 0.25474 0.15998 0.71007 0.0
H155 H 0.24017 0.0564 0.75182 0.0
H156 H 0.31843 0.09811 0.77832 0.0
H157 H 0.30524 0.04956 0.74925 0.0
H158 H 0.47899 0.18868 0.62427 0.0
H159 H 0.57486 0.24757 0.66604 0.0
H160 H 0.44364 0.20877 0.75662 0.0
C161 C 0.22973 0.08637 0.65307 0.0
C162 C 0.21687 0.07068 0.61479 0.0
C163 C 0.2696 0.08588 0.59297 0.0
C164 C 0.33457 0.1172 0.60823 0.0
C165 C 0.34587 0.13191 0.64587 0.0
C166 C 0.29541 0.11655 0.66863 0.0
C167 C 0.32316 0.13824 0.70857 0.0
C168 C 0.30934 0.1837 0.70846 0.0
C169 C 0.29507 0.08224 0.74941 0.0
C170 C 0.39732 0.1708 0.70305 0.0
C171 C 0.40819 0.16561 0.66668 0.0
C172 C 0.4714 0.19279 0.65303 0.0
C173 C 0.52565 0.22665 0.67699 0.0
C174 C 0.51696 0.23337 0.71447 0.0
C175 C 0.45169 0.20426 0.72818 0.0
H176 H 0.1705 0.33451 0.11885 0.0
H177 H 0.34048 0.32846 0.16316 0.0
H178 H 0.37032 0.38815 0.21207 0.0
H179 H 0.25069 0.48933 0.11772 0.0
H180 H 0.17775 0.47352 0.13561 0.0
H181 H 0.16831 0.42689 0.10649 0.0
H182 H 0.09512 0.32789 0.1689 0.0
H183 H 0.10678 0.37482 0.1989 0.0
H184 H 0.12875 0.3213 0.22216 0.0
H185 H 0.38194 0.44729 0.25588 0.0
H186 H 0.39167 0.52551 0.27843 0.0
H187 H 0.21699 0.49654 0.2044 0.0
C188 C 0.21385 0.34569 0.13898 0.0
C189 C 0.25305 0.32678 0.13748 0.0
C190 C 0.31013 0.34305 0.16362 0.0
C191 C 0.32677 0.37589 0.19204 0.0
C192 C 0.2857 0.39183 0.19394 0.0
C193 C 0.23142 0.37874 0.1674 0.0
C194 C 0.19921 0.40616 0.17313 0.0
C195 C 0.19907 0.45171 0.13073 0.0
C196 C 0.12825 0.35445 0.19188 0.0
C197 C 0.24601 0.43934 0.20546 0.0
C198 C 0.29375 0.42812 0.2184 0.0
C199 C 0.34453 0.45604 0.24643 0.0
C200 C 0.34918 0.49972 0.25952 0.0
C201 C 0.3044 0.51582 0.24348 0.0
C202 C 0.25066 0.48355 0.21768 0.0
H203 H 0.78832 0.05463 0.70918 0.0
H204 H 0.99806 0.16743 0.7411 0.0
H205 H 0.97599 0.21529 0.77694 0.0
H206 H 0.76629 0.168 0.68 0.0
H207 H 0.68323 0.12077 0.70173 0.0
H208 H 0.71188 0.08542 0.68678 0.0
H209 H 0.68488 0.00807 0.76298 0.0
H210 H 0.65682 0.04354 0.77881 0.0
H211 H 0.72126 0.03704 0.80859 0.0
H212 H 0.93932 0.27023 0.79029 0.0
H213 H 0.88564 0.31874 0.7902 0.0
H214 H 0.69675 0.16546 0.75793 0.0
C215 C 0.82908 0.08791 0.72498 0.0
C216 C 0.89483 0.10689 0.72265 0.0
C217 C 0.94709 0.15114 0.74321 0.0
C218 C 0.93508 0.17882 0.76354 0.0
C219 C 0.87031 0.16098 0.76377 0.0
C220 C 0.81773 0.11557 0.74587 0.0
C221 C 0.75438 0.10971 0.74662 0.0
C222 C 0.72744 0.12173 0.70109 0.0
C223 C 0.70119 0.0458 0.77602 0.0
C224 C 0.78064 0.16144 0.76536 0.0
C225 C 0.8477 0.19028 0.7751 0.0
C226 C 0.88614 0.24622 0.78509 0.0
C227 C 0.85539 0.27341 0.78506 0.0
C228 C 0.78654 0.24343 0.77692 0.0
C229 C 0.74855 0.18671 0.76714 0.0
H230 H 0.90003 -0.00184 0.12754 0.0
H231 H 0.87223 0.84137 0.1092 0.0
H232 H 0.76392 0.76998 0.14777 0.0
H233 H 0.82169 0.9134 0.23586 0.0
H234 H 0.78433 0.9533 0.22689 0.0
H235 H 0.86192 -0.00803 0.20048 0.0
H236 H 0.80949 0.01258 0.12671 0.0
H237 H 0.73214 0.97452 0.15293 0.0
H238 H 0.7331 0.94805 0.11192 0.0
H239 H 0.65627 0.71613 0.18505 0.0
H240 H 0.55364 0.68441 0.2139 0.0
H241 H 0.6488 0.87495 0.20883 0.0
C242 C 0.87133 0.94871 0.13199 0.0
C243 C 0.8948 0.9253 0.1154 0.0
C244 C 0.85555 0.86037 0.1217 0.0
C245 C 0.79402 0.81942 0.14375 0.0
C246 C 0.77241 0.84387 0.15984 0.0
C247 C 0.80982 0.90701 0.15429 0.0
C248 C 0.7737 0.92127 0.17342 0.0
C249 C 0.81276 0.9465 0.2114 0.0
C250 C 0.76136 0.96678 0.13919 0.0
C251 C 0.70876 0.85679 0.18869 0.0
C252 C 0.70996 0.81269 0.18141 0.0
C253 C 0.65524 0.75016 0.19137 0.0
C254 C 0.59728 0.73247 0.20803 0.0
C255 C 0.59388 0.77688 0.21454 0.0
C256 C 0.65076 0.83979 0.20532 0.0
H257 H 0.99431 0.83051 0.66824 0.0
H258 H 0.83228 0.8097 0.58185 0.0
H259 H 0.76408 0.69566 0.61525 0.0
H260 H 0.97316 0.6906 0.67389 0.0
H261 H 0.98937 0.67164 0.73047 0.0
H262 H 0.02598 0.75159 0.69919 0.0
H263 H 0.97388 0.76096 0.75142 0.0
H264 H 0.93416 0.68016 0.78214 0.0
H265 H 0.88479 0.70924 0.75985 0.0
H266 H 0.7113 0.58519 0.65904 0.0
H267 H 0.68263 0.48188 0.70358 0.0
H268 H 0.87771 0.56951 0.76198 0.0
C269 C 0.94499 0.80154 0.65595 0.0
C270 C 0.91865 0.82867 0.622 0.0
C271 C 0.85332 0.78968 0.60757 0.0
C272 C 0.81408 0.72492 0.62657 0.0
C273 C 0.84026 0.69952 0.66073 0.0
C274 C 0.90437 0.73625 0.67518 0.0
C275 C 0.91929 0.6962 0.71292 0.0
C276 C 0.98057 0.70288 0.70353 0.0
C277 C 0.92865 0.71263 0.75402 0.0
C278 C 0.85513 0.63116 0.71562 0.0
C279 C 0.80956 0.63482 0.68611 0.0
C280 C 0.74641 0.58176 0.68245 0.0
C281 C 0.73015 0.52321 0.70836 0.0
C282 C 0.77695 0.51753 0.7372 0.0
C283 C 0.84015 0.57246 0.74122 0.0
H284 H 0.28441 0.89725 0.43798 0.0
H285 H 0.10376 0.83809 0.36284 0.0
H286 H 0.1324 0.79334 0.32822 0.0
H287 H 0.38903 0.93515 0.35331 0.0
H288 H 0.43308 0.90741 0.39136 0.0
H289 H 0.40155 0.94014 0.40705 0.0
H290 H 0.3365 0.83917 0.47002 0.0
H291 H 0.3673 0.80598 0.45434 0.0
H292 H 0.27863 0.76521 0.45921 0.0
H293 H 0.17401 0.74418 0.30793 0.0
H294 H 0.23062 0.70168 0.29996 0.0
H295 H 0.38526 0.7956 0.38638 0.0
C296 C 0.25137 0.87557 0.41385 0.0
C297 C 0.192 0.87142 0.403 0.0
C298 C 0.15005 0.84272 0.37121 0.0
C299 C 0.1657 0.81685 0.3515 0.0
C300 C 0.22387 0.82059 0.36355 0.0
C301 C 0.26658 0.85003 0.39354 0.0
C302 C 0.32482 0.84594 0.40182 0.0
C303 C 0.39104 0.91103 0.38752 0.0
C304 C 0.32688 0.81204 0.44915 0.0
C305 C 0.3068 0.80757 0.37311 0.0
C306 C 0.24865 0.7937 0.35103 0.0
C307 C 0.22032 0.75582 0.32439 0.0
C308 C 0.25274 0.73204 0.31993 0.0
C309 C 0.31298 0.74684 0.34164 0.0
C310 C 0.33984 0.78463 0.36876 0.0
H311 H 0.17232 0.97773 0.9635 0.0
H312 H 0.173 0.13578 0.94764 0.0
H313 H 0.27459 0.20488 0.90182 0.0
H314 H 0.3463 0.05571 0.97371 0.0
H315 H 0.35017 0.0147 0.94557 0.0
H316 H 0.27477 0.97828 0.97333 0.0
H317 H 0.20865 0.96144 0.90295 0.0
H318 H 0.28442 -0.00088 0.87479 0.0
H319 H 0.23406 0.02747 0.85573 0.0
H320 H 0.37921 0.25717 0.85894 0.0
H321 H 0.48506 0.28971 0.83379 0.0
H322 H 0.41768 0.09804 0.88061 0.0
C323 C 0.19347 0.02682 0.95002 0.0
C324 C 0.16442 0.05134 0.95877 0.0
C325 C 0.19426 0.11597 0.94118 0.0
C326 C 0.25167 0.15544 0.91484 0.0
C327 C 0.2787 0.12959 0.90639 0.0
C328 C 0.25088 0.06679 0.92398 0.0
C329 C 0.2922 0.05115 0.91299 0.0
C330 C 0.31737 0.02336 0.95382 0.0
C331 C 0.25243 0.00716 0.88496 0.0
C332 C 0.34886 0.11514 0.88758 0.0
C333 C 0.33931 0.15962 0.88297 0.0
C334 C 0.38655 0.22248 0.86192 0.0
C335 C 0.44615 0.24051 0.84708 0.0
C336 C 0.45849 0.19608 0.85398 0.0
C337 C 0.40836 0.13253 0.87348 0.0
H338 H 0.21518 0.19136 0.44011 0.0
H339 H 0.05426 0.14702 0.5067 0.0
H340 H 0.08798 0.25433 0.47254 0.0
H341 H 0.33714 0.34521 0.44639 0.0
H342 H 0.37085 0.37814 0.39317 0.0
H343 H 0.33209 0.29674 0.42087 0.0
H344 H 0.25144 0.26815 0.35731 0.0
H345 H 0.29003 0.3497 0.32974 0.0
H346 H 0.20125 0.29678 0.33964 0.0
H347 H 0.14129 0.3665 0.43509 0.0
H348 H 0.21531 0.47954 0.39918 0.0
H349 H 0.34275 0.45542 0.35457 0.0
C350 C 0.18712 0.20442 0.44732 0.0
C351 C 0.13199 0.16068 0.47625 0.0
C352 C 0.0964 0.17947 0.4847 0.0
C353 C 0.11503 0.24036 0.46525 0.0
C354 C 0.16899 0.2822 0.43672 0.0
C355 C 0.20462 0.26532 0.42753 0.0
C356 C 0.26165 0.32057 0.39626 0.0
C357 C 0.32945 0.33608 0.41534 0.0
C358 C 0.25041 0.30802 0.3532 0.0
C359 C 0.2547 0.37174 0.39141 0.0
C360 C 0.19974 0.34779 0.41432 0.0
C361 C 0.18383 0.38559 0.41654 0.0
C362 C 0.226 0.44973 0.39587 0.0
C363 C 0.28364 0.47599 0.37316 0.0
C364 C 0.2977 0.4363 0.37035 0.0
H365 H 0.84449 0.00438 0.97918 0.0
H366 H 0.04574 0.17192 0.94272 0.0
H367 H 1.00125 0.23252 0.90601 0.0
H368 H 0.76358 0.04549 0.87971 0.0
H369 H 0.68985 0.01348 0.90765 0.0
H370 H 0.7354 0.98011 0.9276 0.0
H371 H 0.74888 -0.0032 1.00106 0.0
H372 H 0.70293 0.02962 0.98198 0.0
H373 H 0.78543 0.07352 1.0034 0.0
H374 H 0.93839 0.27791 0.8819 0.0
H375 H 0.85778 0.30374 0.86615 0.0
H376 H 0.69648 0.10825 0.91615 0.0
C377 C 0.87889 0.05349 0.96261 0.0
C378 C 0.94859 0.08345 0.96391 0.0
C379 C 0.99218 0.14802 0.94243 0.0
C380 C 0.96743 0.1829 0.9213 0.0
C381 C 0.89884 0.15261 0.92173 0.0
C382 C 0.85493 0.08931 0.94136 0.0
C383 C 0.78378 0.06938 0.93901 0.0
C384 C 0.74055 0.02441 0.91188 0.0
C385 C 0.75351 0.04065 0.98404 0.0
C386 C 0.79518 0.13169 0.91645 0.0
C387 C 0.86194 0.17894 0.90652 0.0
C388 C 0.88571 0.24117 0.88845 0.0
C389 C 0.83977 0.25542 0.8795 0.0
C390 C 0.77115 0.2077 0.88853 0.0
C391 C 0.74863 0.14519 0.90769 0.0
H392 H 0.87569 0.8756 0.45805 0.0
H393 H 0.85407 0.01008 0.46889 0.0
H394 H 0.76672 -0.01596 0.41357 0.0
H395 H 0.84064 0.90051 0.34001 0.0
H396 H 0.79673 0.81912 0.34606 0.0
H397 H 0.86519 0.85567 0.38095 0.0
H398 H 0.78848 0.77283 0.44751 0.0
H399 H 0.72075 0.7357 0.41288 0.0
H400 H 0.71083 0.76043 0.45144 0.0
H401 H 0.67581 0.93717 0.3624 0.0
H402 H 0.5759 0.86096 0.32994 0.0
H403 H 0.65333 0.75397 0.35515 0.0
C404 C 0.85323 0.90022 0.44845 0.0
C405 C 0.87178 0.94503 0.46766 0.0
C406 C 0.84084 0.97581 0.45442 0.0
C407 C 0.79174 0.96182 0.4227 0.0
C408 C 0.77495 0.91763 0.40419 0.0
C409 C 0.80448 0.88699 0.41683 0.0
C410 C 0.77259 0.83667 0.3955 0.0
C411 C 0.82173 0.85403 0.36376 0.0
C412 C 0.74657 0.77265 0.42883 0.0
C413 C 0.71646 0.83985 0.37193 0.0
C414 C 0.72095 0.8891 0.37547 0.0
C415 C 0.67254 0.89933 0.35866 0.0
C416 C 0.61633 0.85621 0.33989 0.0
C417 C 0.60835 0.80289 0.33926 0.0
C418 C 0.65989 0.79571 0.35402 0.0
H419 H 0.92868 0.6627 0.95903 0.0
H420 H 0.83597 0.73006 0.85358 0.0
H421 H 0.80204 0.6495 0.82247 0.0
H422 H 0.97342 0.60201 0.89284 0.0
H423 H 0.95527 0.53664 0.93912 0.0
H424 H 0.99211 0.6113 0.94563 0.0
H425 H 0.89534 0.55905 0.99738 0.0
H426 H 0.85823 0.485 0.99056 0.0
H427 H 0.81029 0.51548 0.97932 0.0
H428 H 0.7496 0.54863 0.81545 0.0
H429 H 0.68952 0.43621 0.82956 0.0
H430 H 0.81894 0.43224 0.93641 0.0
C431 C 0.90382 0.66189 0.92842 0.0
C432 C 0.88514 0.70243 0.90849 0.0
C433 C 0.85176 0.70003 0.86886 0.0
C434 C 0.83248 0.65455 0.85088 0.0
C435 C 0.84839 0.61296 0.87244 0.0
C436 C 0.88475 0.61696 0.90989 0.0
C437 C 0.88578 0.56067 0.93023 0.0
C438 C 0.95581 0.57875 0.92673 0.0
C439 C 0.86086 0.52818 0.9771 0.0
C440 C 0.8374 0.52125 0.90148 0.0
C441 C 0.81853 0.55334 0.8674 0.0
C442 C 0.7664 0.52395 0.84053 0.0
C443 C 0.73268 0.46024 0.84866 0.0
C444 C 0.7519 0.42713 0.88286 0.0
C445 C 0.80498 0.45769 0.90943 0.0
loop_
_geom_bond_atom_site_label_1
_geom_bond_atom_site_label_2
_geom_bond_distance
_geom_bond_site_symmetry_2
_ccdc_geom_bond_type
La0 C2 2.928 . S
La0 O20 2.521 . S
La0 O21 2.628 . S
La0 O22 2.554 1_445 S
La0 O23 2.757 1_445 S
La0 O24 2.470 . S
La0 O29 2.482 1_554 S
La0 O31 2.503 1_545 S
La1 C11 2.928 . S
La1 O23 2.482 1_556 S
La1 O25 2.503 1_565 S
La1 O26 2.521 . S
La1 O27 2.628 . S
La1 O28 2.554 1_665 S
La1 O29 2.757 1_665 S
La1 O30 2.470 1_656 S
C2 La0 2.928 . S
C2 C3 1.503 . S
C2 O20 1.261 . S
C2 O21 1.243 . S
C3 C2 1.503 . S
C3 C4 1.394 . S
C3 C8 1.373 . S
C4 C3 1.394 . S
C4 C5 1.380 . S
C4 H32 0.930 . S
C5 C4 1.380 . S
C5 C6 1.376 . S
C5 H33 0.930 . S
C6 C5 1.376 . S
C6 C7 1.370 . S
C7 C6 1.370 . S
C7 C8 1.396 . S
C7 H34 0.929 . S
C8 C3 1.373 . S
C8 C7 1.396 . S
C8 H35 0.929 . S
C9 O22 1.240 . S
C9 O23 1.289 . S
C10 O24 1.258 1_656 S
C10 O25 1.256 . S
C11 La1 2.928 . S
C11 C12 1.503 . S
C11 O26 1.261 . S
C11 O27 1.243 . S
C12 C11 1.503 . S
C12 C13 1.394 . S
C12 C17 1.373 . S
C13 C12 1.394 . S
C13 C14 1.380 . S
C13 H36 0.930 . S
C14 C13 1.380 . S
C14 C15 1.376 . S
C14 H37 0.930 . S
C15 C14 1.376 . S
C15 C16 1.370 . S
C16 C15 1.370 . S
C16 C17 1.396 . S
C16 H38 0.929 . S
C17 C12 1.373 . S
C17 C16 1.396 . S
C17 H39 0.929 1_556 S
C18 O28 1.240 . S
C18 O29 1.289 . S
C19 O30 1.258 . S
C19 O31 1.256 . S
O20 La0 2.521 . S
O20 C2 1.261 . S
O21 La0 2.628 . S
O21 C2 1.243 . S
O22 La0 2.554 1_665 S
O22 C9 1.240 . S
O23 La0 2.757 1_665 S
O23 La1 2.482 1_554 S
O23 C9 1.289 . S
O24 La0 2.470 . S
O24 C10 1.258 1_454 S
O25 La1 2.503 1_545 S
O25 C10 1.256 . S
O26 La1 2.521 . S
O26 C11 1.261 . S
O27 La1 2.628 . S
O27 C11 1.243 . S
O28 La1 2.554 1_445 S
O28 C18 1.240 . S
O29 La0 2.482 1_556 S
O29 La1 2.757 1_445 S
O29 C18 1.289 . S
O30 La1 2.470 1_454 S
O30 C19 1.258 . S
O31 La0 2.503 1_565 S
O31 C19 1.256 . S
H32 C4 0.930 . S
H33 C5 0.930 . S
H34 C7 0.929 . S
H35 C8 0.929 . S
H36 C13 0.930 . S
H37 C14 0.930 . S
H38 C16 0.929 . S
H39 C17 0.929 1_554 S
La40 C42 2.928 1_455 S
La40 O60 2.521 1_455 S
La40 O61 2.628 1_455 S
La40 O62 2.554 1_445 S
La40 O63 2.757 1_545 S
La40 O64 2.470 1_445 S
La40 O69 2.482 . S
La40 O71 2.503 . S
La41 C51 2.928 . S
La41 O63 2.482 . S
La41 O65 2.503 1_455 S
La41 O66 2.521 1_565 S
La41 O67 2.628 . S
La41 O68 2.554 1_565 S
La41 O69 2.757 1_565 S
La41 O70 2.470 1_565 S
C42 La40 2.928 1_655 S
C42 C43 1.503 . S
C42 O60 1.261 . S
C42 O61 1.243 . S
C43 C42 1.503 . S
C43 C44 1.394 . S
C43 C48 1.373 . S
C44 C43 1.394 . S
C44 C45 1.380 . S
C44 H72 0.930 . S
C45 C44 1.380 . S
C45 C46 1.376 . S
C45 H73 0.930 . S
C46 C45 1.376 . S
C46 C47 1.370 . S
C47 C46 1.370 . S
C47 C48 1.396 . S
C47 H74 0.929 . S
C48 C43 1.373 . S
C48 C47 1.396 . S
C48 H75 0.929 . S
C49 O62 1.240 . S
C49 O63 1.289 1_655 S
C50 O64 1.258 . S
C50 O65 1.256 . S
C51 La41 2.928 . S
C51 C52 1.503 . S
C51 O66 1.261 1_565 S
C51 O67 1.243 . S
C52 C51 1.503 . S
C52 C53 1.394 . S
C52 C57 1.373 . S
C53 C52 1.394 . S
C53 C54 1.380 . S
C53 H76 0.930 1_565 S
C54 C53 1.380 . S
C54 C55 1.376 . S
C54 H77 0.930 1_565 S
C55 C54 1.376 . S
C55 C56 1.370 . S
C56 C55 1.370 . S
C56 C57 1.396 . S
C56 H78 0.929 . S
C57 C52 1.373 . S
C57 C56 1.396 . S
C57 H79 0.929 . S
C58 O68 1.240 . S
C58 O69 1.289 . S
C59 O70 1.258 . S
C59 O71 1.256 . S
O60 La40 2.521 1_655 S
O60 C42 1.261 . S
O61 La40 2.628 1_655 S
O61 C42 1.243 . S
O62 La40 2.554 1_665 S
O62 C49 1.240 . S
O63 La40 2.757 1_565 S
O63 La41 2.482 . S
O63 C49 1.289 1_455 S
O64 La40 2.470 1_665 S
O64 C50 1.258 . S
O65 La41 2.503 1_655 S
O65 C50 1.256 . S
O66 La41 2.521 1_545 S
O66 C51 1.261 1_545 S
O67 La41 2.628 . S
O67 C51 1.243 . S
O68 La41 2.554 1_545 S
O68 C58 1.240 . S
O69 La40 2.482 . S
O69 La41 2.757 1_545 S
O69 C58 1.289 . S
O70 La41 2.470 1_545 S
O70 C59 1.258 . S
O71 La40 2.503 . S
O71 C59 1.256 . S
H72 C44 0.930 . S
H73 C45 0.930 . S
H74 C47 0.929 . S
H75 C48 0.929 . S
H76 C53 0.930 1_545 S
H77 C54 0.930 1_545 S
H78 C56 0.929 . S
H79 C57 0.929 . S
Zn80 O86 1.920 . S
Zn80 O92 1.898 . S
Zn80 O95 1.905 . S
Zn81 O89 1.905 . S
Zn81 O90 1.898 . S
Zn81 O98 1.920 . S
Zn82 O85 2.080 . S
Zn82 O88 2.114 . S
Zn82 O91 2.120 . S
Zn82 O93 2.120 . S
Zn82 O94 2.114 . S
Zn82 O97 2.080 . S
C83 O88 1.166 . S
C83 O89 1.182 . S
C84 O90 1.167 . S
C84 O91 1.299 . S
O85 Zn82 2.080 . S
O85 C99 1.305 . S
O86 Zn80 1.920 . S
O86 C99 1.234 . S
C87 O92 1.167 . S
C87 O93 1.299 . S
O88 Zn82 2.114 . S
O88 C83 1.166 . S
O89 Zn81 1.905 . S
O89 C83 1.182 . S
O90 Zn81 1.898 . S
O90 C84 1.167 . S
O91 Zn82 2.120 . S
O91 C84 1.299 . S
O92 Zn80 1.898 . S
O92 C87 1.167 . S
O93 Zn82 2.120 . S
O93 C87 1.299 . S
O94 Zn82 2.114 . S
O94 C96 1.166 . S
O95 Zn80 1.905 . S
O95 C96 1.182 . S
C96 O94 1.166 . S
C96 O95 1.182 . S
O97 Zn82 2.080 . S
O97 C100 1.305 . S
O98 Zn81 1.920 . S
O98 C100 1.234 . S
C99 O85 1.305 . S
C99 O86 1.234 . S
C100 O97 1.305 . S
C100 O98 1.234 . S
Zn101 O107 1.920 . S
Zn101 O113 1.898 . S
Zn101 O116 1.905 . S
Zn102 O110 1.905 . S
Zn102 O111 1.898 . S
Zn102 O119 1.920 . S
Zn103 O106 2.080 . S
Zn103 O109 2.114 . S
Zn103 O112 2.120 . S
Zn103 O114 2.120 . S
Zn103 O115 2.114 . S
Zn103 O118 2.080 . S
C104 O109 1.166 . S
C104 O110 1.182 . S
C105 O111 1.167 . S
C105 O112 1.299 . S
O106 Zn103 2.080 . S
O106 C120 1.305 . S
O107 Zn101 1.920 . S
O107 C120 1.234 . S
C108 O113 1.167 . S
C108 O114 1.299 . S
O109 Zn103 2.114 . S
O109 C104 1.166 . S
O110 Zn102 1.905 . S
O110 C104 1.182 . S
O111 Zn102 1.898 . S
O111 C105 1.167 . S
O112 Zn103 2.120 . S
O112 C105 1.299 . S
O113 Zn101 1.898 . S
O113 C108 1.167 . S
O114 Zn103 2.120 . S
O114 C108 1.299 . S
O115 Zn103 2.114 . S
O115 C117 1.166 . S
O116 Zn101 1.905 . S
O116 C117 1.182 . S
C117 O115 1.166 . S
C117 O116 1.182 . S
O118 Zn103 2.080 . S
O118 C121 1.305 . S
O119 Zn102 1.920 . S
O119 C121 1.234 . S
C120 O106 1.305 . S
C120 O107 1.234 . S
C121 O118 1.305 . S
C121 O119 1.234 . S
H122 C134 0.930 . S
H123 C136 0.930 . S
H124 C137 0.930 . S
H125 C141 0.959 . S
H126 C141 0.959 . S
H127 C141 0.961 . S
H128 C142 0.960 . S
H129 C142 0.961 . S
H130 C142 0.959 . S
H131 C145 0.929 . S
H132 C146 0.931 . S
H133 C148 0.930 . S
C134 H122 0.930 . S
C134 C135 1.399 . S
C134 C139 1.399 . S
C135 C134 1.399 . S
C135 C136 1.376 . S
C136 H123 0.930 . S
C136 C135 1.376 . S
C136 C137 1.388 . S
C137 H124 0.930 . S
C137 C136 1.388 . S
C137 C138 1.390 . S
C138 C137 1.390 . S
C138 C139 1.394 . S
C138 C144 1.465 . S
C139 C134 1.399 . S
C139 C138 1.394 . S
C139 C140 1.516 . S
C140 C139 1.516 . S
C140 C141 1.502 . S
C140 C142 1.561 . S
C140 C143 1.526 . S
C141 H125 0.959 . S
C141 H126 0.959 . S
C141 H127 0.961 . S
C141 C140 1.502 . S
C142 H128 0.960 . S
C142 H129 0.961 . S
C142 H130 0.959 . S
C142 C140 1.561 . S
C143 C140 1.526 . S
C143 C144 1.396 . S
C143 C148 1.390 . S
C144 C138 1.465 . S
C144 C143 1.396 . S
C144 C145 1.399 . S
C145 H131 0.929 . S
C145 C144 1.399 . S
C145 C146 1.385 . S
C146 H132 0.931 . S
C146 C145 1.385 . S
C146 C147 1.389 . S
C147 C146 1.389 . S
C147 C148 1.387 . S
C148 H133 0.930 . S
C148 C143 1.390 . S
C148 C147 1.387 . S
H149 C161 0.930 . S
H150 C163 0.930 . S
H151 C164 0.930 . S
H152 C168 0.959 . S
H153 C168 0.959 . S
H154 C168 0.961 . S
H155 C169 0.960 1_565 S
H156 C169 0.961 . S
H157 C169 0.959 . S
H158 C172 0.929 . S
H159 C173 0.931 . S
H160 C175 0.930 . S
C161 H149 0.930 . S
C161 C162 1.399 . S
C161 C166 1.399 . S
C162 C161 1.399 . S
C162 C163 1.376 . S
C163 H150 0.930 . S
C163 C162 1.376 . S
C163 C164 1.388 . S
C164 H151 0.930 . S
C164 C163 1.388 . S
C164 C165 1.390 . S
C165 C164 1.390 . S
C165 C166 1.394 . S
C165 C171 1.465 . S
C166 C161 1.399 . S
C166 C165 1.394 . S
C166 C167 1.516 . S
C167 C166 1.516 . S
C167 C168 1.502 . S
C167 C169 1.561 . S
C167 C170 1.526 . S
C168 H152 0.959 . S
C168 H153 0.959 . S
C168 H154 0.961 . S
C168 C167 1.502 . S
C169 H155 0.960 1_545 S
C169 H156 0.961 . S
C169 H157 0.959 . S
C169 C167 1.561 . S
C170 C167 1.526 . S
C170 C171 1.396 . S
C170 C175 1.390 . S
C171 C165 1.465 . S
C171 C170 1.396 . S
C171 C172 1.399 . S
C172 H158 0.929 . S
C172 C171 1.399 . S
C172 C173 1.385 . S
C173 H159 0.931 . S
C173 C172 1.385 . S
C173 C174 1.389 . S
C174 C173 1.389 . S
C174 C175 1.387 . S
C175 H160 0.930 . S
C175 C170 1.390 . S
C175 C174 1.387 . S
H176 C188 0.930 . S
H177 C190 0.930 . S
H178 C191 0.930 . S
H179 C195 0.959 . S
H180 C195 0.959 . S
H181 C195 0.961 . S
H182 C196 0.960 . S
H183 C196 0.961 . S
H184 C196 0.959 . S
H185 C199 0.929 . S
H186 C200 0.931 . S
H187 C202 0.930 . S
C188 H176 0.930 . S
C188 C189 1.399 . S
C188 C193 1.399 . S
C189 C188 1.399 . S
C189 C190 1.376 . S
C190 H177 0.930 . S
C190 C189 1.376 . S
C190 C191 1.388 . S
C191 H178 0.930 . S
C191 C190 1.388 . S
C191 C192 1.390 . S
C192 C191 1.390 . S
C192 C193 1.394 . S
C192 C198 1.465 . S
C193 C188 1.399 . S
C193 C192 1.394 . S
C193 C194 1.516 . S
C194 C193 1.516 . S
C194 C195 1.502 . S
C194 C196 1.561 . S
C194 C197 1.526 . S
C195 H179 0.959 . S
C195 H180 0.959 . S
C195 H181 0.961 . S
C195 C194 1.502 . S
C196 H182 0.960 . S
C196 H183 0.961 . S
C196 H184 0.959 . S
C196 C194 1.561 . S
C197 C194 1.526 . S
C197 C198 1.396 . S
C197 C202 1.390 . S
C198 C192 1.465 . S
C198 C197 1.396 . S
C198 C199 1.399 . S
C199 H185 0.929 . S
C199 C198 1.399 . S
C199 C200 1.385 . S
C200 H186 0.931 . S
C200 C199 1.385 . S
C200 C201 1.389 . S
C201 C200 1.389 . S
C201 C202 1.387 . S
C202 H187 0.930 . S
C202 C197 1.390 . S
C202 C201 1.387 . S
H203 C215 0.930 . S
H204 C217 0.930 . S
H205 C218 0.930 . S
H206 C222 0.959 . S
H207 C222 0.959 . S
H208 C222 0.961 . S
H209 C223 0.960 . S
H210 C223 0.961 . S
H211 C223 0.959 . S
H212 C226 0.929 . S
H213 C227 0.931 . S
H214 C229 0.930 . S
C215 H203 0.930 . S
C215 C216 1.399 . S
C215 C220 1.399 . S
C216 C215 1.399 . S
C216 C217 1.376 . S
C217 H204 0.930 . S
C217 C216 1.376 . S
C217 C218 1.388 . S
C218 H205 0.930 . S
C218 C217 1.388 . S
C218 C219 1.390 . S
C219 C218 1.390 . S
C219 C220 1.394 . S
C219 C225 1.465 . S
C220 C215 1.399 . S
C220 C219 1.394 . S
C220 C221 1.516 . S
C221 C220 1.516 . S
C221 C222 1.502 . S
C221 C223 1.561 . S
C221 C224 1.526 . S
C222 H206 0.959 . S
C222 H207 0.959 . S
C222 H208 0.961 . S
C222 C221 1.502 . S
C223 H209 0.960 . S
C223 H210 0.961 . S
C223 H211 0.959 . S
C223 C221 1.561 . S
C224 C221 1.526 . S
C224 C225 1.396 . S
C224 C229 1.390 . S
C225 C219 1.465 . S
C225 C224 1.396 . S
C225 C226 1.399 . S
C226 H212 0.929 . S
C226 C225 1.399 . S
C226 C227 1.385 . S
C227 H213 0.931 . S
C227 C226 1.385 . S
C227 C228 1.389 . S
C228 C227 1.389 . S
C228 C229 1.387 . S
C229 H214 0.930 . S
C229 C224 1.390 . S
C229 C228 1.387 . S
H230 C242 0.930 . S
H231 C244 0.930 . S
H232 C245 0.930 . S
H233 C249 0.959 . S
H234 C249 0.959 . S
H235 C249 0.961 . S
H236 C250 0.960 1_545 S
H237 C250 0.952 1_545 S
H238 C250 0.960 . S
H239 C253 0.929 . S
H240 C254 0.931 . S
H241 C256 0.930 . S
C242 H230 0.930 . S
C242 C243 1.399 . S
C242 C247 1.399 . S
C243 C242 1.399 . S
C243 C244 1.376 . S
C244 H231 0.930 . S
C244 C243 1.376 . S
C244 C245 1.388 . S
C245 H232 0.930 . S
C245 C244 1.388 . S
C245 C246 1.390 . S
C246 C245 1.390 . S
C246 C247 1.394 . S
C246 C252 1.465 . S
C247 C242 1.399 . S
C247 C246 1.394 . S
C247 C248 1.516 . S
C248 C247 1.516 . S
C248 C249 1.502 . S
C248 C250 1.570 . S
C248 C251 1.526 . S
C249 H233 0.959 . S
C249 H234 0.959 . S
C249 H235 0.961 . S
C249 C248 1.502 . S
C250 H236 0.960 1_565 S
C250 H237 0.952 1_565 S
C250 H238 0.960 . S
C250 C248 1.570 . S
C251 C248 1.526 . S
C251 C252 1.396 . S
C251 C256 1.390 . S
C252 C246 1.465 . S
C252 C251 1.396 . S
C252 C253 1.399 . S
C253 H239 0.929 . S
C253 C252 1.399 . S
C253 C254 1.385 . S
C254 H240 0.931 . S
C254 C253 1.385 . S
C254 C255 1.389 . S
C255 C254 1.389 . S
C255 C256 1.387 . S
C256 H241 0.930 . S
C256 C251 1.390 . S
C256 C255 1.387 . S
H257 C269 0.930 . S
H258 C271 0.930 . S
H259 C272 0.930 . S
H260 C276 0.959 . S
H261 C276 0.959 . S
H262 C276 0.961 . S
H263 C277 0.960 . S
H264 C277 0.961 . S
H265 C277 0.959 . S
H266 C280 0.929 . S
H267 C281 0.931 . S
H268 C283 0.930 . S
C269 H257 0.930 . S
C269 C270 1.399 . S
C269 C274 1.399 . S
C270 C269 1.399 . S
C270 C271 1.376 . S
C271 H258 0.930 . S
C271 C270 1.376 . S
C271 C272 1.388 . S
C272 H259 0.930 . S
C272 C271 1.388 . S
C272 C273 1.390 . S
C273 C272 1.390 . S
C273 C274 1.394 . S
C273 C279 1.465 . S
C274 C269 1.399 . S
C274 C273 1.394 . S
C274 C275 1.516 . S
C275 C274 1.516 . S
C275 C276 1.502 . S
C275 C277 1.561 . S
C275 C278 1.526 . S
C276 H260 0.959 . S
C276 H261 0.959 . S
C276 H262 0.961 . S
C276 C275 1.502 . S
C277 H263 0.960 . S
C277 H264 0.961 . S
C277 H265 0.959 . S
C277 C275 1.561 . S
C278 C275 1.526 . S
C278 C279 1.396 . S
C278 C283 1.390 . S
C279 C273 1.465 . S
C279 C278 1.396 . S
C279 C280 1.399 . S
C280 H266 0.929 . S
C280 C279 1.399 . S
C280 C281 1.385 . S
C281 H267 0.931 . S
C281 C280 1.385 . S
C281 C282 1.389 . S
C282 C281 1.389 . S
C282 C283 1.387 . S
C283 H268 0.930 . S
C283 C278 1.390 . S
C283 C282 1.387 . S
H284 C296 0.930 . S
H285 C298 0.930 . S
H286 C299 0.930 . S
H287 C303 0.959 . S
H288 C303 0.959 . S
H289 C303 0.961 1_545 S
H290 C304 0.960 . S
H291 C304 0.961 . S
H292 C304 0.959 . S
H293 C307 0.929 . S
H294 C308 0.931 . S
H295 C310 0.930 . S
C296 H284 0.930 . S
C296 C297 1.399 . S
C296 C301 1.399 . S
C297 C296 1.399 . S
C297 C298 1.376 . S
C298 H285 0.930 . S
C298 C297 1.376 . S
C298 C299 1.388 . S
C299 H286 0.930 . S
C299 C298 1.388 . S
C299 C300 1.390 . S
C300 C299 1.390 . S
C300 C301 1.394 . S
C300 C306 1.465 . S
C301 C296 1.399 . S
C301 C300 1.394 . S
C301 C302 1.516 . S
C302 C301 1.516 . S
C302 C303 1.502 . S
C302 C304 1.561 . S
C302 C305 1.526 . S
C303 H287 0.959 . S
C303 H288 0.959 . S
C303 H289 0.961 1_565 S
C303 C302 1.502 . S
C304 H290 0.960 . S
C304 H291 0.961 . S
C304 H292 0.959 . S
C304 C302 1.561 . S
C305 C302 1.526 . S
C305 C306 1.396 . S
C305 C310 1.390 . S
C306 C300 1.465 . S
C306 C305 1.396 . S
C306 C307 1.399 . S
C307 H293 0.929 . S
C307 C306 1.399 . S
C307 C308 1.385 . S
C308 H294 0.931 . S
C308 C307 1.385 . S
C308 C309 1.389 . S
C309 C308 1.389 . S
C309 C310 1.387 . S
C310 H295 0.930 . S
C310 C305 1.390 . S
C310 C309 1.387 . S
H311 C323 0.930 . S
H312 C325 0.930 . S
H313 C326 0.930 . S
H314 C330 0.959 . S
H315 C330 0.959 . S
H316 C330 0.961 . S
H317 C331 0.960 . S
H318 C331 0.961 . S
H319 C331 0.959 . S
H320 C334 0.929 . S
H321 C335 0.931 . S
H322 C337 0.930 . S
C323 H311 0.930 . S
C323 C324 1.399 . S
C323 C328 1.399 . S
C324 C323 1.399 . S
C324 C325 1.376 . S
C325 H312 0.930 . S
C325 C324 1.376 . S
C325 C326 1.388 . S
C326 H313 0.930 . S
C326 C325 1.388 . S
C326 C327 1.390 . S
C327 C326 1.390 . S
C327 C328 1.394 . S
C327 C333 1.465 . S
C328 C323 1.399 . S
C328 C327 1.394 . S
C328 C329 1.516 . S
C329 C328 1.516 . S
C329 C330 1.502 . S
C329 C331 1.561 . S
C329 C332 1.526 . S
C330 H314 0.959 . S
C330 H315 0.959 . S
C330 H316 0.961 . S
C330 C329 1.502 . S
C331 H317 0.960 . S
C331 H318 0.961 . S
C331 H319 0.959 . S
C331 C329 1.561 . S
C332 C329 1.526 . S
C332 C333 1.396 . S
C332 C337 1.390 . S
C333 C327 1.465 . S
C333 C332 1.396 . S
C333 C334 1.399 . S
C334 H320 0.929 . S
C334 C333 1.399 . S
C334 C335 1.385 . S
C335 H321 0.931 . S
C335 C334 1.385 . S
C335 C336 1.389 . S
C336 C335 1.389 . S
C336 C337 1.387 . S
C337 H322 0.930 . S
C337 C332 1.390 . S
C337 C336 1.387 . S
H338 C350 0.930 . S
H339 C352 0.930 . S
H340 C353 0.930 . S
H341 C357 0.959 . S
H342 C357 0.959 . S
H343 C357 0.961 . S
H344 C358 0.960 . S
H345 C358 0.961 . S
H346 C358 0.959 . S
H347 C361 0.929 . S
H348 C362 0.931 . S
H349 C364 0.930 . S
C350 H338 0.930 . S
C350 C351 1.399 . S
C350 C355 1.399 . S
C351 C350 1.399 . S
C351 C352 1.376 . S
C352 H339 0.930 . S
C352 C351 1.376 . S
C352 C353 1.388 . S
C353 H340 0.930 . S
C353 C352 1.388 . S
C353 C354 1.390 . S
C354 C353 1.390 . S
C354 C355 1.394 . S
C354 C360 1.465 . S
C355 C350 1.399 . S
C355 C354 1.394 . S
C355 C356 1.516 . S
C356 C355 1.516 . S
C356 C357 1.502 . S
C356 C358 1.561 . S
C356 C359 1.526 . S
C357 H341 0.959 . S
C357 H342 0.959 . S
C357 H343 0.961 . S
C357 C356 1.502 . S
C358 H344 0.960 . S
C358 H345 0.961 . S
C358 H346 0.959 . S
C358 C356 1.561 . S
C359 C356 1.526 . S
C359 C360 1.396 . S
C359 C364 1.390 . S
C360 C354 1.465 . S
C360 C359 1.396 . S
C360 C361 1.399 . S
C361 H347 0.929 . S
C361 C360 1.399 . S
C361 C362 1.385 . S
C362 H348 0.931 . S
C362 C361 1.385 . S
C362 C363 1.389 . S
C363 C362 1.389 . S
C363 C364 1.387 . S
C364 H349 0.930 . S
C364 C359 1.390 . S
C364 C363 1.387 . S
H365 C377 0.930 . S
H366 C379 0.930 1_455 S
H367 C380 0.930 . S
H368 C384 0.959 . S
H369 C384 0.959 . S
H370 C384 0.961 . S
H371 C385 0.960 . S
H372 C385 0.961 . S
H373 C385 0.959 . S
H374 C388 0.929 . S
H375 C389 0.931 . S
H376 C391 0.930 . S
C377 H365 0.930 . S
C377 C378 1.399 . S
C377 C382 1.399 . S
C378 C377 1.399 . S
C378 C379 1.376 . S
C379 H366 0.930 1_655 S
C379 C378 1.376 . S
C379 C380 1.388 . S
C380 H367 0.930 . S
C380 C379 1.388 . S
C380 C381 1.390 . S
C381 C380 1.390 . S
C381 C382 1.394 . S
C381 C387 1.465 . S
C382 C377 1.399 . S
C382 C381 1.394 . S
C382 C383 1.516 . S
C383 C382 1.516 . S
C383 C384 1.502 . S
C383 C385 1.561 . S
C383 C386 1.526 . S
C384 H368 0.959 . S
C384 H369 0.959 . S
C384 H370 0.961 . S
C384 C383 1.502 . S
C385 H371 0.960 . S
C385 H372 0.961 . S
C385 H373 0.959 . S
C385 C383 1.561 . S
C386 C383 1.526 . S
C386 C387 1.396 . S
C386 C391 1.390 . S
C387 C381 1.465 . S
C387 C386 1.396 . S
C387 C388 1.399 . S
C388 H374 0.929 . S
C388 C387 1.399 . S
C388 C389 1.385 . S
C389 H375 0.931 . S
C389 C388 1.385 . S
C389 C390 1.389 . S
C390 C389 1.389 . S
C390 C391 1.387 . S
C391 H376 0.930 . S
C391 C386 1.390 . S
C391 C390 1.387 . S
H392 C404 0.930 . S
H393 C406 0.930 . S
H394 C407 0.930 . S
H395 C411 0.959 . S
H396 C411 0.959 . S
H397 C411 0.961 . S
H398 C412 0.960 . S
H399 C412 0.961 . S
H400 C412 0.959 . S
H401 C415 0.929 . S
H402 C416 0.931 . S
H403 C418 0.930 . S
C404 H392 0.930 . S
C404 C405 1.399 . S
C404 C409 1.399 . S
C405 C404 1.399 . S
C405 C406 1.376 . S
C406 H393 0.930 . S
C406 C405 1.376 . S
C406 C407 1.388 . S
C407 H394 0.930 . S
C407 C406 1.388 . S
C407 C408 1.390 . S
C408 C407 1.390 . S
C408 C409 1.394 . S
C408 C414 1.465 . S
C409 C404 1.399 . S
C409 C408 1.394 . S
C409 C410 1.516 . S
C410 C409 1.516 . S
C410 C411 1.502 . S
C410 C412 1.561 . S
C410 C413 1.526 . S
C411 H395 0.959 . S
C411 H396 0.959 . S
C411 H397 0.961 . S
C411 C410 1.502 . S
C412 H398 0.960 . S
C412 H399 0.961 . S
C412 H400 0.959 . S
C412 C410 1.561 . S
C413 C410 1.526 . S
C413 C414 1.396 . S
C413 C418 1.390 . S
C414 C408 1.465 . S
C414 C413 1.396 . S
C414 C415 1.399 . S
C415 H401 0.929 . S
C415 C414 1.399 . S
C415 C416 1.385 . S
C416 H402 0.931 . S
C416 C415 1.385 . S
C416 C417 1.389 . S
C417 C416 1.389 . S
C417 C418 1.387 . S
C418 H403 0.930 . S
C418 C413 1.390 . S
C418 C417 1.387 . S
H419 C431 0.930 . S
H420 C433 0.930 . S
H421 C434 0.930 . S
H422 C438 0.959 . S
H423 C438 0.959 . S
H424 C438 0.961 . S
H425 C439 0.960 . S
H426 C439 0.961 . S
H427 C439 0.959 . S
H428 C442 0.929 . S
H429 C443 0.931 . S
H430 C445 0.930 . S
C431 H419 0.930 . S
C431 C432 1.399 . S
C431 C436 1.399 . S
C432 C431 1.399 . S
C432 C433 1.376 . S
C433 H420 0.930 . S
C433 C432 1.376 . S
C433 C434 1.388 . S
C434 H421 0.930 . S
C434 C433 1.388 . S
C434 C435 1.390 . S
C435 C434 1.390 . S
C435 C436 1.394 . S
C435 C441 1.465 . S
C436 C431 1.399 . S
C436 C435 1.394 . S
C436 C437 1.516 . S
C437 C436 1.516 . S
C437 C438 1.502 . S
C437 C439 1.561 . S
C437 C440 1.526 . S
C438 H422 0.959 . S
C438 H423 0.959 . S
C438 H424 0.961 . S
C438 C437 1.502 . S
C439 H425 0.960 . S
C439 H426 0.961 . S
C439 H427 0.959 . S
C439 C437 1.561 . S
C440 C437 1.526 . S
C440 C441 1.396 . S
C440 C445 1.390 . S
C441 C435 1.465 . S
C441 C440 1.396 . S
C441 C442 1.399 . S
C442 H428 0.929 . S
C442 C441 1.399 . S
C442 C443 1.385 . S
C443 H429 0.931 . S
C443 C442 1.385 . S
C443 C444 1.389 . S
C444 C443 1.389 . S
C444 C445 1.387 . S
C445 H430 0.930 . S
C445 C440 1.390 . S
C445 C444 1.387 . S
C135 C19 1.850 . S
C147 C99 1.855 . S
C162 C59 1.216 . S
C174 C105 1.057 . S
C189 C6 0.882 . S
C201 C96 0.844 . S
C216 C46 1.349 . S
C228 C121 1.288 . S
C243 C9 2.124 . S
C255 C87 1.942 . S
C282 C104 2.249 . S
C270 C49 2.332 . S
C297 C55 1.226 . S
C309 C100 1.169 . S
C336 C117 1.741 . S
C324 C18 1.826 . S
C363 C84 2.066 . S
C351 C58 2.189 . S
C390 C120 2.045 . S
C378 C10 2.106 . S
C417 C83 1.335 . S
C405 C50 1.428 . S
C444 C108 0.834 . S
C432 C15 0.888 . S
