# Generated by pormake.
# Topology anh, (6,3)-cn, num edge types: 1
# Building blocks:
#     Node 0, Type 0, BuildingBlock: PAMTUU_clean_sbu_0, # of connection points: 6
#     Node 1, Type 0, BuildingBlock: PAMTUU_clean_sbu_0, # of connection points: 6
#     Node 2, Type 0, BuildingBlock: PAMTUU_clean_sbu_0, # of connection points: 6
#     Node 3, Type 1, BuildingBlock: WUSLED_clean_sbu_0, # of connection points: 3
#     Node 4, Type 1, BuildingBlock: WUSLED_clean_sbu_0, # of connection points: 3
#     Node 5, Type 1, BuildingBlock: WUSLED_clean_sbu_0, # of connection points: 3
#     Node 6, Type 1, BuildingBlock: WUSLED_clean_sbu_0, # of connection points: 3
#     Node 7, Type 1, BuildingBlock: WUSLED_clean_sbu_0, # of connection points: 3
#     Node 8, Type 1, BuildingBlock: WUSLED_clean_sbu_0, # of connection points: 3
#     Edge 9, Type (0, 1), BuildingBlock: CIFDUS_clean_linker_0, # of connection points: 2
#     Edge 10, Type (0, 1), BuildingBlock: CIFDUS_clean_linker_0, # of connection points: 2
#     Edge 11, Type (0, 1), BuildingBlock: CIFDUS_clean_linker_0, # of connection points: 2
#     Edge 12, Type (0, 1), BuildingBlock: CIFDUS_clean_linker_0, # of connection points: 2
#     Edge 13, Type (0, 1), BuildingBlock: CIFDUS_clean_linker_0, # of connection points: 2
#     Edge 14, Type (0, 1), BuildingBlock: CIFDUS_clean_linker_0, # of connection points: 2
#     Edge 15, Type (0, 1), BuildingBlock: CIFDUS_clean_linker_0, # of connection points: 2
#     Edge 16, Type (0, 1), BuildingBlock: CIFDUS_clean_linker_0, # of connection points: 2
#     Edge 17, Type (0, 1), BuildingBlock: CIFDUS_clean_linker_0, # of connection points: 2
#     Edge 18, Type (0, 1), BuildingBlock: CIFDUS_clean_linker_0, # of connection points: 2
#     Edge 19, Type (0, 1), BuildingBlock: CIFDUS_clean_linker_0, # of connection points: 2
#     Edge 20, Type (0, 1), BuildingBlock: CIFDUS_clean_linker_0, # of connection points: 2
#     Edge 21, Type (0, 1), BuildingBlock: CIFDUS_clean_linker_0, # of connection points: 2
#     Edge 22, Type (0, 1), BuildingBlock: CIFDUS_clean_linker_0, # of connection points: 2
#     Edge 23, Type (0, 1), BuildingBlock: CIFDUS_clean_linker_0, # of connection points: 2
#     Edge 24, Type (0, 1), BuildingBlock: CIFDUS_clean_linker_0, # of connection points: 2
#     Edge 25, Type (0, 1), BuildingBlock: CIFDUS_clean_linker_0, # of connection points: 2
#     Edge 26, Type (0, 1), BuildingBlock: CIFDUS_clean_linker_0, # of connection points: 2
# Relax obj value: 0.239
# Max RMSD: 0.185
# Mean RMSD: 0.151
data_MOF--net-anh--node1-PAMTUU_clean_sbu_0--node2-WUSLED_clean_sbu_0--edge1-CIFDUS_clean_linker_0
_symmetry_space_group_name_H-M    P1
_symmetry_Int_Tables_number       1
_symmetry_cell_setting            triclinic
loop_
_symmetry_equiv_pos_as_xyz
'x, y, z'
_cell_length_a     35.330755
_cell_length_b     35.123841
_cell_length_c     63.396828
_cell_angle_alpha  90.631696
_cell_angle_beta   93.333915
_cell_angle_gamma 120.15535
loop_
_atom_site_label
_atom_site_type_symbol
_atom_site_fract_x
_atom_site_fract_y
_atom_site_fract_z
_atom_type_partial_charge
Tb0 Tb 0.10531 0.6233 0.16264 0.0
Tb1 Tb 0.15334 0.56746 0.17202 0.0
C2 C 0.13998 0.59178 0.12448 0.0
C3 C 1.03247 0.66493 0.17035 0.0
C4 C 0.94965 0.63431 0.18541 0.0
C5 C 0.96316 0.66342 0.16875 0.0
C6 C 1.0045 0.67848 0.16112 0.0
C7 C 1.02035 0.63946 0.18824 0.0
C8 C 0.97923 0.62404 0.19569 0.0
C9 C 1.07056 0.67056 0.15979 0.0
O10 O 1.0474 0.55505 0.16386 0.0
O11 O 1.08451 0.51961 0.17401 0.0
O12 O 0.15348 0.59907 0.20164 0.0
O13 O 1.09064 0.59963 0.19404 0.0
O14 O 0.16053 0.51298 0.16537 0.0
O15 O 0.18734 0.55136 0.19484 0.0
O16 O 0.21036 0.63172 0.16765 0.0
O17 O 0.17617 0.67224 0.17098 0.0
O18 O 0.12089 0.6131 0.13114 0.0
O19 O 0.15453 0.57215 0.13753 0.0
C20 C 1.04747 0.51892 0.16974 0.0
O21 O 0.105 0.68036 0.17241 0.0
O22 O 1.062 0.63884 0.14602 0.0
C23 C 0.11914 0.59937 0.20787 0.0
C24 C 0.22685 0.52349 0.18043 0.0
C25 C 0.31144 0.53822 0.17816 0.0
C26 C 0.28539 0.51191 0.19389 0.0
C27 C 0.24306 0.50464 0.19505 0.0
C28 C 0.25274 0.54978 0.1648 0.0
C29 C 0.29464 0.55682 0.16355 0.0
C30 C 0.18492 0.51992 0.18283 0.0
C31 C 0.21248 0.66997 0.17045 0.0
H32 H 0.94049 0.6714 0.16051 0.0
H33 H 1.01335 0.69812 0.14727 0.0
H34 H 1.04152 0.62893 0.19556 0.0
H35 H 0.9694 0.60159 0.20851 0.0
H36 H 0.29772 0.49702 0.20514 0.0
H37 H 0.22323 0.48488 0.20741 0.0
H38 H 0.24061 0.56504 0.15363 0.0
H39 H 0.3135 0.57604 0.15082 0.0
Tb40 Tb 0.58189 0.08063 0.49639 0.0
Tb41 Tb 0.68687 0.12283 0.5008 0.0
C42 C 0.63413 0.10054 0.45558 0.0
C43 C 0.47237 1.0089 0.5103 0.0
C44 C 0.42024 0.93529 0.53384 0.0
C45 C 0.4457 0.93278 0.51814 0.0
C46 C 0.47144 0.96906 0.50661 0.0
C47 C 0.4495 1.01272 0.52681 0.0
C48 C 0.42385 0.97628 0.5386 0.0
C49 C 0.50124 1.04767 0.4987 0.0
O50 O 0.58815 1.02086 0.49602 0.0
O51 O 0.66252 1.05208 0.50363 0.0
O52 O 0.6666 0.12991 0.53168 0.0
O53 O 0.6009 1.06744 0.5269 0.0
O54 O 0.75083 0.16335 0.49184 0.0
O55 O 0.73817 0.12143 0.51837 0.0
O56 O 0.68061 0.18237 0.50052 0.0
O57 O 0.60647 0.15102 0.50355 0.0
O58 O 0.59998 0.09735 0.46435 0.0
O59 O 0.66891 0.10539 0.46689 0.0
C60 C 0.62309 1.01701 0.50071 0.0
O61 O 0.53027 0.08112 0.51078 0.0
O62 O 0.51819 1.04074 0.4823 0.0
C63 C 0.63237 0.09754 0.53949 0.0
C64 C 0.79827 0.19218 0.52217 0.0
C65 C 0.85804 0.27706 0.53815 0.0
C66 C 0.87291 0.24834 0.53219 0.0
C67 C 0.84297 0.20609 0.52381 0.0
C68 C 0.78313 0.21788 0.53157 0.0
C69 C 0.81297 0.26029 0.5396 0.0
C70 C 0.76779 0.15415 0.5085 0.0
C71 C 0.64585 0.18615 0.50345 0.0
H72 H 0.44376 0.90205 0.51352 0.0
H73 H 0.48993 0.96543 0.49448 0.0
H74 H 0.45119 1.04378 0.53043 0.0
H75 H 0.40531 0.97967 0.55076 0.0
H76 H 0.90766 0.26057 0.53129 0.0
H77 H 0.85489 0.18599 0.51702 0.0
H78 H 0.74842 0.20691 0.53082 0.0
H79 H 0.80059 0.2816 0.54415 0.0
Tb80 Tb 0.62704 0.55201 0.82843 0.0
Tb81 Tb 0.6797 0.65691 0.83736 0.0
C82 C 0.65462 0.61394 0.7906 0.0
C83 C 0.59338 0.43952 0.83848 0.0
C84 C 0.61763 0.38223 0.85685 0.0
C85 C 0.5754 0.36568 0.84668 0.0
C86 C 0.56342 0.39431 0.83745 0.0
C87 C 0.63337 0.45641 0.85071 0.0
C88 C 0.64529 0.42793 0.86002 0.0
C89 C 0.58387 0.4695 0.82671 0.0
O90 O 0.69675 0.56715 0.82942 0.0
O91 O 0.73165 0.64005 0.84081 0.0
O92 O 0.65693 0.62768 0.86752 0.0
O93 O 0.65822 0.56532 0.85971 0.0
O94 O 0.69848 0.7204 0.82775 0.0
O95 O 0.72672 0.71042 0.85685 0.0
O96 O 0.61107 0.64319 0.83653 0.0
O97 O 0.57667 0.56788 0.8372 0.0
O98 O 0.62409 0.5769 0.79763 0.0
O99 O 0.68394 0.64578 0.8037 0.0
C100 C 0.73303 0.60404 0.83631 0.0
O101 O 0.57481 0.49388 0.83859 0.0
O102 O 0.61196 0.49242 0.81293 0.0
C103 C 0.65933 0.59342 0.87359 0.0
C104 C 0.71093 0.76727 0.85652 0.0
C105 C 0.67425 0.81801 0.86771 0.0
C106 C 0.71529 0.83793 0.85903 0.0
C107 C 0.73349 0.81248 0.85334 0.0
C108 C 0.67244 0.74832 0.86727 0.0
C109 C 0.65415 0.77364 0.87286 0.0
C110 C 0.72249 0.7387 0.84533 0.0
C111 C 0.57518 0.60469 0.83834 0.0
H112 H 0.55346 0.33056 0.84385 0.0
H113 H 0.53199 0.38103 0.82847 0.0
H114 H 0.65656 0.49144 0.85195 0.0
H115 H 0.67791 0.44145 0.86778 0.0
H116 H 0.73116 0.87205 0.85474 0.0
H117 H 0.76318 0.82729 0.84497 0.0
H118 H 0.6547 0.71326 0.86977 0.0
H119 H 0.62258 0.75777 0.87961 0.0
C120 C 0.73965 0.2117 0.20009 0.0
C121 C 0.74007 0.25136 0.20454 0.0
C122 C 0.81574 0.29697 0.19355 0.0
C123 C 0.77728 0.29294 0.20152 0.0
C124 C 0.81561 0.25706 0.18977 0.0
C125 C 0.77846 0.21549 0.19296 0.0
U126 U 0.63487 0.1018 0.21957 0.0
O127 O 0.56748 1.07063 0.20416 0.0
O128 O 0.60288 1.03456 0.20403 0.0
C129 C 0.56573 1.03345 0.19883 0.0
C130 C 0.69755 0.1672 0.19924 0.0
C131 C 0.52264 0.99042 0.19988 0.0
C132 C 0.47672 0.91123 0.18945 0.0
C133 C 0.51817 0.95042 0.19214 0.0
C134 C 0.4427 0.95008 0.20299 0.0
C135 C 0.4376 0.91011 0.19441 0.0
C136 C 0.48405 0.98931 0.20542 0.0
C137 C 0.64331 0.10704 0.28453 0.0
C138 C 0.63213 1.07022 0.31795 0.0
C139 C 0.66443 0.14945 0.31817 0.0
C140 C 0.66055 0.1475 0.29596 0.0
C141 C 0.6502 0.11083 0.32946 0.0
C142 C 0.62924 1.06843 0.29572 0.0
C143 C 0.64029 0.10522 0.26104 0.0
O144 O 0.69887 0.13183 0.20476 0.0
O145 O 0.66116 0.16559 0.20418 0.0
O146 O 0.62189 0.12373 0.24986 0.0
O147 O 0.65591 0.08501 0.24997 0.0
H148 H 0.71103 0.25042 0.20982 0.0
H149 H 0.77536 0.32198 0.2053 0.0
H150 H 0.84358 0.25743 0.18347 0.0
H151 H 0.77956 0.18602 0.18895 0.0
H152 H 0.47559 0.88229 0.18266 0.0
H153 H 0.54674 0.94972 0.18732 0.0
H154 H 0.41468 0.95172 0.20779 0.0
H155 H 0.48548 1.01915 0.21122 0.0
H156 H 0.62102 1.03993 0.32616 0.0
H157 H 0.67823 0.18118 0.32656 0.0
H158 H 0.67164 0.17774 0.28771 0.0
H159 H 0.61569 1.0368 0.28727 0.0
C160 C 0.63631 0.71321 0.53355 0.0
C161 C 0.5991 0.71525 0.52584 0.0
C162 C 0.63966 0.79699 0.52776 0.0
C163 C 0.60068 0.756 0.52298 0.0
C164 C 0.67634 0.79442 0.53641 0.0
C165 C 0.67486 0.75371 0.53894 0.0
U166 U 0.63755 0.60445 0.55307 0.0
O167 O 0.60181 0.53831 0.53667 0.0
O168 O 0.67342 0.57446 0.539 0.0
C169 C 0.63752 0.53752 0.53262 0.0
C170 C 0.63632 0.66992 0.53259 0.0
C171 C 0.63735 0.49419 0.53367 0.0
C172 C 0.67089 0.44981 0.52415 0.0
C173 C 0.67305 0.491 0.52688 0.0
C174 C 0.59777 0.41334 0.53582 0.0
C175 C 0.63283 0.40958 0.52814 0.0
C176 C 0.59977 0.45446 0.53825 0.0
C177 C 0.63769 0.60534 0.61804 0.0
C178 C 0.59801 0.57757 0.64978 0.0
C179 C 0.67614 0.6289 0.65327 0.0
C180 C 0.67653 0.63047 0.63111 0.0
C181 C 0.63693 0.60191 0.66294 0.0
C182 C 0.59839 0.57927 0.62771 0.0
C183 C 0.63802 0.60527 0.59451 0.0
O184 O 0.67237 0.66966 0.53882 0.0
O185 O 0.60076 0.63324 0.53682 0.0
O186 O 0.60161 0.58622 0.58207 0.0
O187 O 0.67438 0.62413 0.5846 0.0
H188 H 0.56883 0.68506 0.52117 0.0
H189 H 0.57126 0.75475 0.51627 0.0
H190 H 0.70704 0.82376 0.54124 0.0
H191 H 0.70457 0.7542 0.54469 0.0
H192 H 0.69891 0.4499 0.51811 0.0
H193 H 0.70243 0.5205 0.52283 0.0
H194 H 0.56802 0.3845 0.53992 0.0
H195 H 0.57121 0.45487 0.5433 0.0
H196 H 0.567 0.55701 0.65655 0.0
H197 H 0.70682 0.64792 0.66279 0.0
H198 H 0.70739 0.65103 0.62421 0.0
H199 H 0.56782 0.55961 0.61819 0.0
C200 C 1.0431 0.59648 0.86992 0.0
C201 C 1.03882 0.63351 0.86532 0.0
C202 C 0.95737 0.58915 0.86157 0.0
C203 C 0.99716 0.63001 0.86129 0.0
C204 C 0.96193 0.55239 0.86686 0.0
C205 C 1.00359 0.55589 0.87072 0.0
U206 U 0.15851 0.60121 0.88907 0.0
O207 O 0.18788 0.56846 0.87128 0.0
O208 O 0.22137 0.64011 0.87396 0.0
C209 C 0.22314 0.60553 0.86718 0.0
C210 C 1.0877 0.59915 0.87005 0.0
C211 C 0.26754 0.60763 0.86783 0.0
C212 C 0.31259 0.57622 0.85644 0.0
C213 C 0.27121 0.57249 0.85912 0.0
C214 C 0.34873 0.65005 0.87171 0.0
C215 C 0.35277 0.61542 0.86232 0.0
C216 C 0.30734 0.64642 0.87418 0.0
C217 C 0.15288 0.59654 0.95252 0.0
C218 C 0.14214 0.56247 0.98685 0.0
C219 C 0.14542 0.63255 0.98402 0.0
C220 C 0.15119 0.63183 0.96225 0.0
C221 C 0.14157 0.59822 0.99679 0.0
C222 C 0.14774 0.56171 0.96511 0.0
C223 C 0.16753 0.5986 0.93067 0.0
O224 O 0.1239 0.63573 0.87657 0.0
O225 O 1.09069 0.56392 0.87377 0.0
O226 O 0.14784 0.56308 0.91796 0.0
O227 O 0.18172 0.63536 0.9206 0.0
H228 H 1.068 0.66533 0.86402 0.0
H229 H 0.9966 0.65952 0.85715 0.0
H230 H 0.93323 0.52023 0.86793 0.0
H231 H 1.0047 0.5262 0.87381 0.0
H232 H 0.31261 0.5484 0.84899 0.0
H233 H 0.24176 0.54221 0.85362 0.0
H234 H 0.3776 0.68069 0.8772 0.0
H235 H 0.30671 0.67467 0.88073 0.0
H236 H 0.13858 0.53504 0.9959 0.0
H237 H 0.14561 0.66094 0.99097 0.0
H238 H 0.15582 0.65967 0.95322 0.0
H239 H 0.14965 0.53438 0.95826 0.0
C240 C 1.038 0.5881 0.47153 0.0
C241 C 1.00076 0.55775 0.45885 0.0
C242 C 0.97542 0.51046 0.48849 0.0
C243 C 0.96935 0.51914 0.46737 0.0
C244 C 1.0098 0.54347 0.50174 0.0
C245 C 1.04108 0.58223 0.49323 0.0
U246 U 0.1057 0.61852 0.42414 0.0
O247 O 0.17289 0.63085 0.42284 0.0
O248 O 0.15805 0.68273 0.41443 0.0
C249 C 0.18846 0.67315 0.42062 0.0
C250 C 1.07797 0.6177 0.46162 0.0
C251 C 0.21697 0.69945 0.43898 0.0
C252 C 0.21993 0.71769 0.4762 0.0
C253 C 0.19642 0.70178 0.45681 0.0
C254 C 0.28613 0.73173 0.46014 0.0
C255 C 0.26515 0.73345 0.47812 0.0
C256 C 0.26194 0.71418 0.44068 0.0
C257 C 1.06732 0.55846 0.37224 0.0
C258 C 0.12316 0.5832 0.34706 0.0
C259 C 1.04646 0.53484 0.33538 0.0
C260 C 1.03485 0.53405 0.35611 0.0
C261 C 1.09063 0.56025 0.33063 0.0
C262 C 0.11154 0.58238 0.36771 0.0
C263 C 1.05557 0.56289 0.39341 0.0
O264 O 1.10036 0.59861 0.45685 0.0
O265 O 1.07462 0.64123 0.4464 0.0
O266 O 1.05684 0.60042 0.39727 0.0
O267 O 1.0752 0.5525 0.40863 0.0
H268 H 0.99825 0.56169 0.44199 0.0
H269 H 0.94275 0.49422 0.45695 0.0
H270 H 1.01529 0.53739 0.51804 0.0
H271 H 1.07003 0.60526 0.5031 0.0
H272 H 0.20253 0.71775 0.4897 0.0
H273 H 0.16156 0.68977 0.45592 0.0
H274 H 0.32118 0.74441 0.46102 0.0
H275 H 0.27803 0.71149 0.42718 0.0
H276 H 0.1573 0.60353 0.34382 0.0
H277 H 1.02082 0.51654 0.32297 0.0
H278 H 1.00059 0.51562 0.35943 0.0
H279 H 0.13693 0.60182 0.38005 0.0
C280 C 0.54727 0.99535 0.80115 0.0
C281 C 0.53884 0.95655 0.79033 0.0
C282 C 0.53982 0.92445 0.82386 0.0
C283 C 0.53512 0.9212 0.80163 0.0
C284 C 0.54323 0.9615 0.83451 0.0
C285 C 0.54737 0.99703 0.82318 0.0
U286 U 0.57661 1.0522 0.75 0.0
O287 O 0.56875 0.10596 0.73722 0.0
O288 O 0.63454 0.11434 0.74265 0.0
C289 C 0.61135 0.13383 0.7395 0.0
C290 C 0.56295 1.03573 0.78978 0.0
C291 C 0.6256 0.17276 0.75373 0.0
C292 C 0.60937 0.20705 0.78247 0.0
C293 C 0.59508 0.17624 0.76563 0.0
C294 C 0.68499 0.23316 0.77532 0.0
C295 C 0.65443 0.23491 0.78789 0.0
C296 C 0.67064 0.20235 0.75832 0.0
C297 C 0.55984 0.99461 0.69813 0.0
C298 C 0.53353 1.01011 0.66497 0.0
C299 C 0.60283 1.01133 0.66742 0.0
C300 C 0.59711 1.00015 0.68856 0.0
C301 C 0.57125 1.01689 0.65555 0.0
C302 C 0.52767 0.99871 0.68592 0.0
C303 C 0.55699 0.99043 0.72121 0.0
O304 O 0.6012 1.04922 0.78206 0.0
O305 O 0.5339 1.03685 0.77628 0.0
O306 O 0.52741 0.99779 0.72899 0.0
O307 O 0.59472 1.00965 0.73268 0.0
H308 H 0.53875 0.955 0.77324 0.0
H309 H 0.53288 0.8933 0.79297 0.0
H310 H 0.54633 0.96447 0.85164 0.0
H311 H 0.55374 1.02685 0.83167 0.0
H312 H 0.58496 0.2088 0.79137 0.0
H313 H 0.56011 0.15405 0.76256 0.0
H314 H 0.7199 0.25466 0.779 0.0
H315 H 0.6948 0.20015 0.74942 0.0
H316 H 0.50885 1.01462 0.65628 0.0
H317 H 0.63189 1.01571 0.66038 0.0
H318 H 0.6224 0.9971 0.69756 0.0
H319 H 0.49852 0.99473 0.69269 0.0
C320 C 0.63821 0.47266 0.13489 0.0
C321 C 0.66773 0.46148 0.12701 0.0
C322 C 0.70234 0.47171 0.16241 0.0
C323 C 0.69949 0.46066 0.14076 0.0
C324 C 0.66925 0.47738 0.17051 0.0
C325 C 0.63735 0.47801 0.15675 0.0
U326 U 0.62579 0.51887 0.0826 0.0
O327 O 0.56628 0.51205 0.0657 0.0
O328 O 0.6198 0.57727 0.0774 0.0
C329 C 0.57843 0.55343 0.07039 0.0
C330 C 0.6158 0.48858 0.12071 0.0
C331 C 0.54993 0.5591 0.08399 0.0
C332 C 0.52572 0.55225 0.11919 0.0
C333 C 0.54711 0.54302 0.10426 0.0
C334 C 0.50764 0.59256 0.09351 0.0
C335 C 0.50503 0.57626 0.11389 0.0
C336 C 0.53057 0.58429 0.07856 0.0
C337 C 0.68815 0.54263 0.03713 0.0
C338 C 0.65968 0.57313 0.01079 0.0
C339 C 0.72379 0.56738 1.0046 0.0
C340 C 0.72178 0.54942 0.02439 0.0
C341 C 0.6923 0.57879 0.99757 0.0
C342 C 0.65766 0.55518 0.03033 0.0
C343 C 0.68329 0.52301 0.0577 0.0
O344 O 0.64014 0.5305 0.11688 0.0
O345 O 0.59406 0.46358 0.10368 0.0
O346 O 0.64518 0.48675 0.05906 0.0
O347 O 0.69397 0.55153 0.07371 0.0
H348 H 0.66896 0.45768 0.11012 0.0
H349 H 0.72483 0.45662 0.13403 0.0
H350 H 0.67079 0.48584 0.18715 0.0
H351 H 0.61474 0.48687 0.16299 0.0
H352 H 0.52488 0.54 0.13488 0.0
H353 H 0.56243 0.52403 0.10873 0.0
H354 H 0.49144 0.61084 0.08909 0.0
H355 H 0.53334 0.59753 0.06301 0.0
H356 H 0.63447 0.58067 1.00566 0.0
H357 H 0.74935 0.57159 0.99461 0.0
H358 H 0.74579 0.54028 0.02955 0.0
H359 H 0.63144 0.55008 0.03996 0.0
H360 H 0.38566 0.61234 0.16997 0.0
H361 H 0.33128 0.47306 0.17836 0.0
H362 H 0.39147 0.4747 0.1608 0.0
H363 H 0.44855 0.51147 0.13681 0.0
H364 H 0.49981 0.64904 0.12497 0.0
H365 H 0.44969 0.65194 0.14929 0.0
C366 C 0.3878 0.5827 0.16836 0.0
C367 C 0.354 0.54252 0.17492 0.0
C368 C 0.42049 0.58322 0.15692 0.0
C369 C 0.35711 0.50435 0.17338 0.0
C370 C 0.391 0.5051 0.16301 0.0
C371 C 0.4497 0.54248 0.13999 0.0
C372 C 0.4775 0.58 0.12922 0.0
C373 C 0.42114 0.5437 0.15371 0.0
C374 C 0.47802 0.61967 0.13298 0.0
C375 C 0.44984 0.62139 0.14697 0.0
H376 H 0.90333 0.31169 0.50471 0.0
H377 H 0.86998 0.34749 0.56316 0.0
H378 H 0.9026 0.42419 0.55258 0.0
H379 H 0.93752 0.47965 0.52555 0.0
H380 H 0.96606 0.43963 0.4667 0.0
H381 H 0.93738 0.36522 0.47851 0.0
C382 C 0.9045 0.3365 0.51553 0.0
C383 C 0.8856 0.32447 0.53496 0.0
C384 C 0.92118 0.37927 0.50897 0.0
C385 C 0.88543 0.3565 0.54834 0.0
C386 C 0.90348 0.40001 0.54217 0.0
C387 C 0.93704 0.45439 0.51536 0.0
C388 C 0.95306 0.46474 0.49519 0.0
C389 C 0.92073 0.41153 0.52231 0.0
C390 C 0.95269 0.43206 0.48206 0.0
C391 C 0.93697 0.38972 0.48889 0.0
H392 H 0.59267 0.78562 0.84976 0.0
H393 H 0.69996 0.90127 0.88253 0.0
H394 H 0.66299 0.94297 0.87422 0.0
H395 H 0.60604 0.94866 0.85359 0.0
H396 H 0.50107 0.83453 0.81869 0.0
H397 H 0.53127 0.78943 0.83211 0.0
C398 C 0.60717 0.81953 0.85571 0.0
C399 C 0.64866 0.8405 0.86689 0.0
C400 C 0.58646 0.84342 0.85029 0.0
C401 C 0.6679 0.8847 0.87399 0.0
C402 C 0.64689 0.90843 0.86917 0.0
C403 C 0.58871 0.91356 0.84955 0.0
C404 C 0.55118 0.8948 0.83533 0.0
C405 C 0.60689 0.88844 0.85679 0.0
C406 C 0.52998 0.84958 0.82966 0.0
C407 C 0.5473 0.82393 0.83726 0.0
H408 H 0.90099 0.54637 0.18232 0.0
H409 H 0.89411 0.6633 0.19554 0.0
H410 H 0.81387 0.61884 0.19481 0.0
H411 H 0.74713 0.54989 0.18384 0.0
H412 H 0.7544 0.43474 0.1665 0.0
H413 H 0.83336 0.4752 0.1758 0.0
C414 C 0.88185 0.56181 0.18567 0.0
C415 C 0.90285 0.60779 0.18898 0.0
C416 C 0.83608 0.53641 0.18432 0.0
C417 C 0.87817 0.62788 0.1929 0.0
C418 C 0.83252 0.60251 0.19245 0.0
C419 C 0.76567 0.53301 0.18301 0.0
C420 C 0.74515 0.48944 0.17452 0.0
C421 C 0.81118 0.55708 0.18731 0.0
C422 C 0.76965 0.46825 0.17305 0.0
C423 C 0.8148 0.49148 0.17819 0.0
H424 H 0.41765 0.85745 0.54204 0.0
H425 H 0.33728 0.91783 0.54137 0.0
H426 H 0.27409 0.8493 0.52804 0.0
H427 H 0.25204 0.78699 0.50371 0.0
H428 H 0.3358 0.73138 0.49754 0.0
H429 H 0.38804 0.7841 0.52497 0.0
C430 C 0.38585 0.85504 0.53959 0.0
C431 C 0.38312 0.89364 0.54077 0.0
C432 C 0.35097 0.81717 0.52925 0.0
C433 C 0.34126 0.88941 0.53952 0.0
C434 C 0.30501 0.85025 0.53137 0.0
C435 C 0.28066 0.78484 0.50894 0.0
C436 C 0.29075 0.75625 0.49815 0.0
C437 C 0.31102 0.81606 0.524 0.0
C438 C 0.32818 0.75426 0.50512 0.0
C439 C 0.35781 0.78411 0.52092 0.0
H440 H 0.69189 0.3993 0.84012 0.0
H441 H 0.58484 0.29994 0.87281 0.0
H442 H 0.59643 0.24296 0.85715 0.0
H443 H 0.62169 0.22113 0.82649 0.0
H444 H 0.71892 0.3213 0.78956 0.0
H445 H 0.72745 0.37833 0.81476 0.0
C446 C 0.67251 0.36548 0.8447 0.0
C447 C 0.63682 0.35344 0.85712 0.0
C448 C 0.67686 0.33292 0.83424 0.0
C449 C 0.61208 0.30964 0.863 0.0
C450 C 0.61832 0.2771 0.85379 0.0
C451 C 0.64541 0.25544 0.82426 0.0
C452 C 0.66862 0.26725 0.8059 0.0
C453 C 0.64807 0.28815 0.83806 0.0
C454 C 0.70038 0.31146 0.80347 0.0
C455 C 0.70502 0.34412 0.81781 0.0
H456 H 0.68795 0.99622 0.50961 0.0
H457 H 0.54713 0.93537 0.50105 0.0
H458 H 0.53949 0.86379 0.50901 0.0
H459 H 0.5726 0.81806 0.5191 0.0
H460 H 0.71438 0.88012 0.52506 0.0
H461 H 0.72079 0.95028 0.51826 0.0
C462 C 0.65541 0.9674 0.50932 0.0
C463 C 0.61821 0.97205 0.50451 0.0
C464 C 0.65112 0.92586 0.51388 0.0
C465 C 0.57658 0.93359 0.50446 0.0
C466 C 0.57216 0.89233 0.50914 0.0
C467 C 0.60521 0.84634 0.51875 0.0
C468 C 0.64277 0.84162 0.52316 0.0
C469 C 0.60923 0.88788 0.51394 0.0
C470 C 0.68416 0.88061 0.52261 0.0
C471 C 0.68819 0.92165 0.51833 0.0
H472 H 0.75656 0.53776 0.83394 0.0
H473 H 0.81161 0.67655 0.84933 0.0
H474 H 0.88264 0.68408 0.85856 0.0
H475 H 0.93086 0.65252 0.86325 0.0
H476 H 0.87865 0.51484 0.84612 0.0
H477 H 0.80685 0.5064 0.83737 0.0
C478 C 0.78406 0.56977 0.83914 0.0
C479 C 0.77738 0.60644 0.84072 0.0
C480 C 0.82632 0.5744 0.84454 0.0
C481 C 0.81438 0.64734 0.84775 0.0
C482 C 0.85568 0.65188 0.85317 0.0
C483 C 0.90434 0.62054 0.85739 0.0
C484 C 0.91196 0.58447 0.85583 0.0
C485 C 0.86232 0.61576 0.85173 0.0
C486 C 0.87532 0.54355 0.84831 0.0
C487 C 0.83356 0.53857 0.84296 0.0
H488 H 0.23474 0.75811 0.17544 0.0
H489 H 0.2932 0.67588 0.17475 0.0
H490 H 0.36581 0.74048 0.18241 0.0
H491 H 0.41381 0.82069 0.19001 0.0
H492 H 0.35575 0.90368 0.18807 0.0
H493 H 0.28355 0.83919 0.1815 0.0
C494 C 0.26327 0.75415 0.17687 0.0
C495 C 0.25749 0.71127 0.17441 0.0
C496 C 0.30582 0.79206 0.18118 0.0
C497 C 0.29566 0.70778 0.17642 0.0
C498 C 0.33764 0.74504 0.18089 0.0
C499 C 0.38583 0.82538 0.18794 0.0
C500 C 0.39203 0.86862 0.19003 0.0
C501 C 0.34335 0.78752 0.18337 0.0
C502 C 0.35371 0.87195 0.18739 0.0
C503 C 0.31166 0.83459 0.18328 0.0
H504 H 0.58149 0.208 0.50839 0.0
H505 H 0.72204 0.2675 0.50847 0.0
H506 H 0.73071 0.33999 0.51638 0.0
H507 H 0.69874 0.38717 0.52394 0.0
H508 H 0.55733 0.32688 0.52129 0.0
H509 H 0.54961 0.25543 0.51456 0.0
C510 C 0.61417 0.23671 0.51004 0.0
C511 C 0.65101 0.23138 0.50767 0.0
C512 C 0.61907 0.27888 0.51454 0.0
C513 C 0.69285 0.26974 0.51002 0.0
C514 C 0.69788 0.31155 0.51464 0.0
C515 C 0.66596 0.3589 0.52169 0.0
C516 C 0.62887 0.36436 0.52366 0.0
C517 C 0.66123 0.31673 0.51699 0.0
C518 C 0.58715 0.32558 0.52076 0.0
C519 C 0.58241 0.2839 0.51653 0.0
H520 H 0.5536 0.67104 0.84559 0.0
H521 H 0.49525 0.52962 0.84038 0.0
H522 H 0.42424 0.52036 0.84739 0.0
H523 H 0.37712 0.55108 0.85561 0.0
H524 H 0.43372 0.69257 0.85904 0.0
H525 H 0.50501 0.70208 0.85285 0.0
C526 C 0.52544 0.63811 0.84588 0.0
C527 C 0.53106 0.60117 0.84232 0.0
C528 C 0.48341 0.63259 0.84997 0.0
C529 C 0.49321 0.55903 0.84299 0.0
C530 C 0.45199 0.55353 0.84706 0.0
C531 C 0.40449 0.58426 0.85483 0.0
C532 C 0.39806 0.62079 0.85821 0.0
C533 C 0.4464 0.58995 0.85064 0.0
C534 C 0.43586 0.66311 0.85722 0.0
C535 C 0.47742 0.66885 0.85337 0.0
H536 H 0.95798 0.49598 0.17056 0.0
H537 H 1.04298 0.44074 0.17724 0.0
H538 H 0.98204 0.37069 0.18564 0.0
H539 H 0.90457 0.32337 0.19207 0.0
H540 H 0.81647 0.37443 0.18314 0.0
H541 H 0.8779 0.44582 0.17522 0.0
C542 C 0.96321 0.46861 0.17364 0.0
C543 C 1.0062 0.47508 0.17319 0.0
C544 C 0.927 0.42667 0.17846 0.0
C545 C 1.01118 0.43825 0.17744 0.0
C546 C 0.97595 0.39744 0.18234 0.0
C547 C 0.89802 0.34955 0.18818 0.0
C548 C 0.85464 0.34199 0.18858 0.0
C549 C 0.93363 0.39106 0.18303 0.0
C550 C 0.84876 0.37804 0.18369 0.0
C551 C 0.88415 0.41942 0.17888 0.0
H552 H 0.10568 0.61956 0.09232 0.0
H553 H 0.18563 0.55994 0.10376 0.0
H554 H 0.19331 0.55682 0.06576 0.0
H555 H 0.17746 0.5711 0.02903 0.0
H556 H 1.09601 0.62922 0.01794 0.0
H557 H 1.08941 0.63316 0.05586 0.0
C558 C 0.12489 0.60587 0.0866 0.0
C559 C 0.14496 0.58994 0.10116 0.0
C560 C 0.12905 0.60397 0.06463 0.0
C561 C 0.16958 0.57231 0.09315 0.0
C562 C 0.17405 0.57055 0.07132 0.0
C563 C 0.15785 0.58425 0.03482 0.0
C564 C 0.13736 0.59992 0.02031 0.0
C565 C 0.15381 0.58614 0.05686 0.0
C566 C 0.11279 0.61748 0.02846 0.0
C567 C 0.10872 0.61951 0.05025 0.0
H568 H 0.69964 0.14429 0.42873 0.0
H569 H 0.56223 1.04745 0.42958 0.0
H570 H 0.55525 1.04046 0.39099 0.0
H571 H 0.58753 1.06309 0.35666 0.0
H572 H 0.72334 0.16407 0.35541 0.0
H573 H 0.73156 0.16845 0.39414 0.0
C574 C 0.6683 0.12152 0.42042 0.0
C575 C 0.63156 0.09633 0.43207 0.0
C576 C 0.66414 0.1186 0.39804 0.0
C577 C 0.591 1.06738 0.42103 0.0
C578 C 0.58696 1.0633 0.39893 0.0
C579 C 0.61897 0.08587 0.36489 0.0
C580 C 0.65481 0.11309 0.35311 0.0
C581 C 0.62319 0.08893 0.38722 0.0
C582 C 0.69517 0.14289 0.36406 0.0
C583 C 0.69993 0.14531 0.38623 0.0
H584 H 0.61043 0.55065 0.75891 0.0
H585 H 0.7036 0.68949 0.76955 0.0
H586 H 0.70674 0.69829 0.73135 0.0
H587 H 0.68237 0.66655 0.69463 0.0
H588 H 0.59076 0.52709 0.68455 0.0
H589 H 0.58764 0.51886 0.7226 0.0
C590 C 0.63141 0.58293 0.75294 0.0
C591 C 0.65663 0.61935 0.76725 0.0
C592 C 0.6333 0.58774 0.7309 0.0
C593 C 0.68383 0.66078 0.75903 0.0
C594 C 0.68563 0.66587 0.73712 0.0
C595 C 0.66196 0.63428 0.70073 0.0
C596 C 0.63645 0.59762 0.6865 0.0
C597 C 0.6605 0.62957 0.72285 0.0
C598 C 0.61003 0.55617 0.69491 0.0
C599 C 0.60842 0.55131 0.71676 0.0
H600 H 0.5599 1.04338 0.55844 0.0
H601 H 0.69697 0.1399 0.57187 0.0
H602 H 0.69016 0.12397 0.60957 0.0
H603 H 0.64512 0.07948 0.63822 0.0
H604 H 0.50909 0.9812 0.62292 0.0
H605 H 0.51576 1.00107 0.5862 0.0
C606 C 0.58848 1.06107 0.56954 0.0
C607 C 0.62902 0.09232 0.56241 0.0
C608 C 0.58449 1.05122 0.59079 0.0
C609 C 0.66541 0.11554 0.57706 0.0
C610 C 0.66156 0.10627 0.59853 0.0
C611 C 0.61716 1.06226 0.62676 0.0
C612 C 0.57666 1.0289 0.63324 0.0
C613 C 0.62133 0.07355 0.6055 0.0
C614 C 0.54044 1.00727 0.61836 0.0
C615 C 0.54424 1.01848 0.59736 0.0
H616 H 0.6584 0.63943 0.90858 0.0
H617 H 0.67812 0.53275 0.88884 0.0
H618 H 0.69263 0.52122 0.9252 0.0
H619 H 0.69833 0.53952 0.96255 0.0
H620 H 0.67773 0.64439 0.98364 0.0
H621 H 0.66489 0.65841 0.94688 0.0
C622 C 0.66596 0.6138 0.9123 0.0
C623 C 0.66715 0.58713 0.89599 0.0
C624 C 0.67432 0.60703 0.93346 0.0
C625 C 0.67676 0.55379 0.90103 0.0
C626 C 0.68528 0.54713 0.92186 0.0
C627 C 0.69212 0.56618 0.95909 0.0
C628 C 0.68972 0.59134 0.97564 0.0
C629 C 0.68422 0.57352 0.93815 0.0
C630 C 0.68006 0.62478 0.97102 0.0
C631 C 0.6726 0.63271 0.95006 0.0
H632 H 0.16509 0.58722 0.24055 0.0
H633 H 1.05252 0.60229 0.22586 0.0
H634 H 1.03444 0.59188 0.26238 0.0
H635 H 1.04904 0.57673 0.2983 0.0
H636 H 0.15953 0.55893 0.31363 0.0
H637 H 0.18005 0.57225 0.27705 0.0
C638 C 0.13681 0.58855 0.24538 0.0
C639 C 0.11039 0.59583 0.23043 0.0
C640 C 0.12596 0.58162 0.26648 0.0
C641 C 1.07372 0.59717 0.23695 0.0
C642 C 1.0631 0.59094 0.25787 0.0
C643 C 1.07721 0.57506 0.29356 0.0
C644 C 1.10235 0.56624 0.30847 0.0
C645 C 1.08865 0.58264 0.27268 0.0
C646 C 0.13961 0.56556 0.30232 0.0
C647 C 0.15132 0.57315 0.28146 0.0
loop_
_geom_bond_atom_site_label_1
_geom_bond_atom_site_label_2
_geom_bond_distance
_geom_bond_site_symmetry_2
_ccdc_geom_bond_type
Tb0 C9 2.764 1_455 S
Tb0 O10 2.325 1_455 S
Tb0 O13 2.303 . S
Tb0 O17 2.322 . S
Tb0 O18 2.349 . S
Tb0 O21 2.415 1_455 S
Tb0 O22 2.399 1_455 S
Tb1 O11 2.322 1_455 S
Tb1 O12 2.349 . S
Tb1 O14 2.415 . S
Tb1 O15 2.399 . S
Tb1 O16 2.325 . S
Tb1 O19 2.303 . S
Tb1 C30 2.764 . S
C2 O18 1.261 . S
C2 O19 1.257 . S
C3 C6 1.358 . S
C3 C7 1.332 . S
C3 C9 1.504 . S
C4 C5 1.373 . S
C4 C8 1.308 . S
C5 C4 1.373 . S
C5 C6 1.429 . S
C5 H32 0.932 . S
C6 C3 1.358 . S
C6 C5 1.429 . S
C6 H33 0.930 . S
C7 C3 1.332 . S
C7 C8 1.394 . S
C7 H34 0.932 . S
C8 C4 1.308 . S
C8 C7 1.394 . S
C8 H35 0.929 . S
C9 Tb0 2.764 1_655 S
C9 C3 1.504 . S
C9 O21 1.239 . S
C9 O22 1.263 . S
O10 Tb0 2.325 1_655 S
O10 C20 1.236 . S
O11 Tb1 2.322 1_655 S
O11 C20 1.257 . S
O12 Tb1 2.349 . S
O12 C23 1.261 . S
O13 Tb0 2.303 . S
O13 C23 1.257 . S
O14 Tb1 2.415 . S
O14 C30 1.239 . S
O15 Tb1 2.399 . S
O15 C30 1.263 . S
O16 Tb1 2.325 . S
O16 C31 1.236 . S
O17 Tb0 2.322 . S
O17 C31 1.257 . S
O18 Tb0 2.349 . S
O18 C2 1.261 . S
O19 Tb1 2.303 . S
O19 C2 1.257 . S
C20 O10 1.236 . S
C20 O11 1.257 . S
O21 Tb0 2.415 1_655 S
O21 C9 1.239 . S
O22 Tb0 2.399 1_655 S
O22 C9 1.263 . S
C23 O12 1.261 . S
C23 O13 1.257 . S
C24 C27 1.358 . S
C24 C28 1.332 . S
C24 C30 1.504 . S
C25 C26 1.373 . S
C25 C29 1.308 . S
C26 C25 1.373 . S
C26 C27 1.429 . S
C26 H36 0.932 . S
C27 C24 1.358 . S
C27 C26 1.429 . S
C27 H37 0.930 . S
C28 C24 1.332 . S
C28 C29 1.394 . S
C28 H38 0.932 . S
C29 C25 1.308 . S
C29 C28 1.394 . S
C29 H39 0.929 . S
C30 Tb1 2.764 . S
C30 O14 1.239 . S
C30 O15 1.263 . S
C30 C24 1.504 . S
C31 O16 1.236 . S
C31 O17 1.257 . S
H32 C5 0.932 . S
H33 C6 0.930 . S
H34 C7 0.932 . S
H35 C8 0.929 . S
H36 C26 0.932 . S
H37 C27 0.930 . S
H38 C28 0.932 . S
H39 C29 0.929 . S
Tb40 C49 2.764 . S
Tb40 O50 2.325 . S
Tb40 O53 2.303 1_565 S
Tb40 O57 2.322 1_565 S
Tb40 O58 2.349 1_565 S
Tb40 O61 2.415 . S
Tb40 O62 2.399 . S
Tb41 O51 2.322 1_545 S
Tb41 O52 2.349 . S
Tb41 O54 2.415 . S
Tb41 O55 2.399 . S
Tb41 O56 2.325 . S
Tb41 O59 2.303 . S
Tb41 C70 2.764 . S
C42 O58 1.261 . S
C42 O59 1.257 . S
C43 C46 1.358 . S
C43 C47 1.332 . S
C43 C49 1.504 . S
C44 C45 1.373 . S
C44 C48 1.308 . S
C45 C44 1.373 . S
C45 C46 1.429 . S
C45 H72 0.932 . S
C46 C43 1.358 . S
C46 C45 1.429 . S
C46 H73 0.930 . S
C47 C43 1.332 . S
C47 C48 1.394 . S
C47 H74 0.932 . S
C48 C44 1.308 . S
C48 C47 1.394 . S
C48 H75 0.929 . S
C49 Tb40 2.764 . S
C49 C43 1.504 . S
C49 O61 1.239 . S
C49 O62 1.263 . S
O50 Tb40 2.325 . S
O50 C60 1.236 . S
O51 Tb41 2.322 1_565 S
O51 C60 1.257 . S
O52 Tb41 2.349 . S
O52 C63 1.261 . S
O53 Tb40 2.303 1_545 S
O53 C63 1.257 . S
O54 Tb41 2.415 . S
O54 C70 1.239 . S
O55 Tb41 2.399 . S
O55 C70 1.263 . S
O56 Tb41 2.325 . S
O56 C71 1.236 . S
O57 Tb40 2.322 1_545 S
O57 C71 1.257 . S
O58 Tb40 2.349 1_545 S
O58 C42 1.261 . S
O59 Tb41 2.303 . S
O59 C42 1.257 . S
C60 O50 1.236 . S
C60 O51 1.257 . S
O61 Tb40 2.415 . S
O61 C49 1.239 . S
O62 Tb40 2.399 . S
O62 C49 1.263 . S
C63 O52 1.261 . S
C63 O53 1.257 . S
C64 C67 1.358 . S
C64 C68 1.332 . S
C64 C70 1.504 . S
C65 C66 1.373 . S
C65 C69 1.308 . S
C66 C65 1.373 . S
C66 C67 1.429 . S
C66 H76 0.932 . S
C67 C64 1.358 . S
C67 C66 1.429 . S
C67 H77 0.930 . S
C68 C64 1.332 . S
C68 C69 1.394 . S
C68 H78 0.932 . S
C69 C65 1.308 . S
C69 C68 1.394 . S
C69 H79 0.929 . S
C70 Tb41 2.764 . S
C70 O54 1.239 . S
C70 O55 1.263 . S
C70 C64 1.504 . S
C71 O56 1.236 . S
C71 O57 1.257 . S
H72 C45 0.932 . S
H73 C46 0.930 . S
H74 C47 0.932 . S
H75 C48 0.929 . S
H76 C66 0.932 . S
H77 C67 0.930 . S
H78 C68 0.932 . S
H79 C69 0.929 . S
Tb80 C89 2.764 . S
Tb80 O90 2.325 . S
Tb80 O93 2.303 . S
Tb80 O97 2.322 . S
Tb80 O98 2.349 . S
Tb80 O101 2.415 . S
Tb80 O102 2.399 . S
Tb81 O91 2.322 . S
Tb81 O92 2.349 . S
Tb81 O94 2.415 . S
Tb81 O95 2.399 . S
Tb81 O96 2.325 . S
Tb81 O99 2.303 . S
Tb81 C110 2.764 . S
C82 O98 1.261 . S
C82 O99 1.257 . S
C83 C86 1.358 . S
C83 C87 1.332 . S
C83 C89 1.504 . S
C84 C85 1.373 . S
C84 C88 1.308 . S
C85 C84 1.373 . S
C85 C86 1.429 . S
C85 H112 0.932 . S
C86 C83 1.358 . S
C86 C85 1.429 . S
C86 H113 0.930 . S
C87 C83 1.332 . S
C87 C88 1.394 . S
C87 H114 0.932 . S
C88 C84 1.308 . S
C88 C87 1.394 . S
C88 H115 0.929 . S
C89 Tb80 2.764 . S
C89 C83 1.504 . S
C89 O101 1.239 . S
C89 O102 1.263 . S
O90 Tb80 2.325 . S
O90 C100 1.236 . S
O91 Tb81 2.322 . S
O91 C100 1.257 . S
O92 Tb81 2.349 . S
O92 C103 1.261 . S
O93 Tb80 2.303 . S
O93 C103 1.257 . S
O94 Tb81 2.415 . S
O94 C110 1.239 . S
O95 Tb81 2.399 . S
O95 C110 1.263 . S
O96 Tb81 2.325 . S
O96 C111 1.236 . S
O97 Tb80 2.322 . S
O97 C111 1.257 . S
O98 Tb80 2.349 . S
O98 C82 1.261 . S
O99 Tb81 2.303 . S
O99 C82 1.257 . S
C100 O90 1.236 . S
C100 O91 1.257 . S
O101 Tb80 2.415 . S
O101 C89 1.239 . S
O102 Tb80 2.399 . S
O102 C89 1.263 . S
C103 O92 1.261 . S
C103 O93 1.257 . S
C104 C107 1.358 . S
C104 C108 1.332 . S
C104 C110 1.504 . S
C105 C106 1.373 . S
C105 C109 1.308 . S
C106 C105 1.373 . S
C106 C107 1.429 . S
C106 H116 0.932 . S
C107 C104 1.358 . S
C107 C106 1.429 . S
C107 H117 0.930 . S
C108 C104 1.332 . S
C108 C109 1.394 . S
C108 H118 0.932 . S
C109 C105 1.308 . S
C109 C108 1.394 . S
C109 H119 0.929 . S
C110 Tb81 2.764 . S
C110 O94 1.239 . S
C110 O95 1.263 . S
C110 C104 1.504 . S
C111 O96 1.236 . S
C111 O97 1.257 . S
H112 C85 0.932 . S
H113 C86 0.930 . S
H114 C87 0.932 . S
H115 C88 0.929 . S
H116 C106 0.932 . S
H117 C107 0.930 . S
H118 C108 0.932 . S
H119 C109 0.929 . S
C120 C121 1.264 . S
C120 C125 1.479 . S
C120 C130 1.465 . S
C121 C120 1.264 . S
C121 C123 1.339 . S
C121 H148 0.931 . S
C122 C123 1.395 . S
C122 C124 1.320 . S
C123 C121 1.339 . S
C123 C122 1.395 . S
C123 H149 0.929 . S
C124 C122 1.320 . S
C124 C125 1.405 . S
C124 H150 0.930 . S
C125 C120 1.479 . S
C125 C124 1.405 . S
C125 H151 0.931 . S
U126 O127 2.454 1_545 S
U126 O128 2.458 1_545 S
U126 C129 2.984 1_545 S
U126 C130 2.847 . S
U126 C143 2.882 . S
U126 O144 2.441 . S
U126 O145 2.420 . S
U126 O146 2.455 . S
U126 O147 2.449 . S
O127 U126 2.454 1_565 S
O127 C129 1.353 . S
O128 U126 2.458 1_565 S
O128 C129 1.286 . S
C129 U126 2.984 1_565 S
C129 O127 1.353 . S
C129 O128 1.286 . S
C129 C131 1.363 . S
C130 C120 1.465 . S
C130 U126 2.847 . S
C130 O144 1.249 . S
C130 O145 1.202 . S
C131 C129 1.363 . S
C131 C133 1.408 . S
C131 C136 1.342 . S
C132 C133 1.310 . S
C132 C135 1.461 . S
C132 H152 0.932 . S
C133 C131 1.408 . S
C133 C132 1.310 . S
C133 H153 0.930 . S
C134 C135 1.474 . S
C134 C136 1.285 . S
C134 H154 0.929 . S
C135 C132 1.461 . S
C135 C134 1.474 . S
C136 C131 1.342 . S
C136 C134 1.285 . S
C136 H155 0.930 . S
C137 C140 1.424 . S
C137 C142 1.245 . S
C137 C143 1.428 . S
C138 C141 1.260 . S
C138 C142 1.477 . S
C138 H156 0.932 . S
C139 C140 1.384 . S
C139 C141 1.479 . S
C139 H157 0.929 . S
C140 C137 1.424 . S
C140 C139 1.384 . S
C140 H158 0.928 . S
C141 C138 1.260 . S
C141 C139 1.479 . S
C142 C137 1.245 . S
C142 C138 1.477 . S
C142 H159 0.932 1_545 S
C143 U126 2.882 . S
C143 C137 1.428 . S
C143 O146 1.301 . S
C143 O147 1.282 . S
O144 U126 2.441 . S
O144 C130 1.249 . S
O145 U126 2.420 . S
O145 C130 1.202 . S
O146 U126 2.455 . S
O146 C143 1.301 . S
O147 U126 2.449 . S
O147 C143 1.282 . S
H148 C121 0.931 . S
H149 C123 0.929 . S
H150 C124 0.930 . S
H151 C125 0.931 . S
H152 C132 0.932 . S
H153 C133 0.930 . S
H154 C134 0.929 . S
H155 C136 0.930 . S
H156 C138 0.932 . S
H157 C139 0.929 . S
H158 C140 0.928 . S
H159 C142 0.932 1_565 S
C160 C161 1.264 . S
C160 C165 1.479 . S
C160 C170 1.465 . S
C161 C160 1.264 . S
C161 C163 1.339 . S
C161 H188 0.931 . S
C162 C163 1.395 . S
C162 C164 1.320 . S
C163 C161 1.339 . S
C163 C162 1.395 . S
C163 H189 0.929 . S
C164 C162 1.320 . S
C164 C165 1.405 . S
C164 H190 0.930 . S
C165 C160 1.479 . S
C165 C164 1.405 . S
C165 H191 0.931 . S
U166 O167 2.454 . S
U166 O168 2.458 . S
U166 C169 2.984 . S
U166 C170 2.847 . S
U166 C183 2.882 . S
U166 O184 2.441 . S
U166 O185 2.420 . S
U166 O186 2.455 . S
U166 O187 2.449 . S
O167 U166 2.454 . S
O167 C169 1.353 . S
O168 U166 2.458 . S
O168 C169 1.286 . S
C169 U166 2.984 . S
C169 O167 1.353 . S
C169 O168 1.286 . S
C169 C171 1.363 . S
C170 C160 1.465 . S
C170 U166 2.847 . S
C170 O184 1.249 . S
C170 O185 1.202 . S
C171 C169 1.363 . S
C171 C173 1.408 . S
C171 C176 1.342 . S
C172 C173 1.310 . S
C172 C175 1.461 . S
C172 H192 0.932 . S
C173 C171 1.408 . S
C173 C172 1.310 . S
C173 H193 0.930 . S
C174 C175 1.474 . S
C174 C176 1.285 . S
C174 H194 0.929 . S
C175 C172 1.461 . S
C175 C174 1.474 . S
C176 C171 1.342 . S
C176 C174 1.285 . S
C176 H195 0.930 . S
C177 C180 1.424 . S
C177 C182 1.245 . S
C177 C183 1.428 . S
C178 C181 1.260 . S
C178 C182 1.477 . S
C178 H196 0.932 . S
C179 C180 1.384 . S
C179 C181 1.479 . S
C179 H197 0.929 . S
C180 C177 1.424 . S
C180 C179 1.384 . S
C180 H198 0.928 . S
C181 C178 1.260 . S
C181 C179 1.479 . S
C182 C177 1.245 . S
C182 C178 1.477 . S
C182 H199 0.932 . S
C183 U166 2.882 . S
C183 C177 1.428 . S
C183 O186 1.301 . S
C183 O187 1.282 . S
O184 U166 2.441 . S
O184 C170 1.249 . S
O185 U166 2.420 . S
O185 C170 1.202 . S
O186 U166 2.455 . S
O186 C183 1.301 . S
O187 U166 2.449 . S
O187 C183 1.282 . S
H188 C161 0.931 . S
H189 C163 0.929 . S
H190 C164 0.930 . S
H191 C165 0.931 . S
H192 C172 0.932 . S
H193 C173 0.930 . S
H194 C174 0.929 . S
H195 C176 0.930 . S
H196 C178 0.932 . S
H197 C179 0.929 . S
H198 C180 0.928 . S
H199 C182 0.932 . S
C200 C201 1.264 . S
C200 C205 1.479 . S
C200 C210 1.465 . S
C201 C200 1.264 . S
C201 C203 1.339 . S
C201 H228 0.931 . S
C202 C203 1.395 . S
C202 C204 1.320 . S
C203 C201 1.339 . S
C203 C202 1.395 . S
C203 H229 0.929 . S
C204 C202 1.320 . S
C204 C205 1.405 . S
C204 H230 0.930 . S
C205 C200 1.479 . S
C205 C204 1.405 . S
C205 H231 0.931 . S
U206 O207 2.454 . S
U206 O208 2.458 . S
U206 C209 2.984 . S
U206 C210 2.847 1_455 S
U206 C223 2.882 . S
U206 O224 2.441 . S
U206 O225 2.420 1_455 S
U206 O226 2.455 . S
U206 O227 2.449 . S
O207 U206 2.454 . S
O207 C209 1.353 . S
O208 U206 2.458 . S
O208 C209 1.286 . S
C209 U206 2.984 . S
C209 O207 1.353 . S
C209 O208 1.286 . S
C209 C211 1.363 . S
C210 C200 1.465 . S
C210 U206 2.847 1_655 S
C210 O224 1.249 1_655 S
C210 O225 1.202 . S
C211 C209 1.363 . S
C211 C213 1.408 . S
C211 C216 1.342 . S
C212 C213 1.310 . S
C212 C215 1.461 . S
C212 H232 0.932 . S
C213 C211 1.408 . S
C213 C212 1.310 . S
C213 H233 0.930 . S
C214 C215 1.474 . S
C214 C216 1.285 . S
C214 H234 0.929 . S
C215 C212 1.461 . S
C215 C214 1.474 . S
C216 C211 1.342 . S
C216 C214 1.285 . S
C216 H235 0.930 . S
C217 C220 1.424 . S
C217 C222 1.245 . S
C217 C223 1.428 . S
C218 C221 1.260 . S
C218 C222 1.477 . S
C218 H236 0.932 . S
C219 C220 1.384 . S
C219 C221 1.479 . S
C219 H237 0.929 1_455 S
C220 C217 1.424 . S
C220 C219 1.384 . S
C220 H238 0.928 . S
C221 C218 1.260 . S
C221 C219 1.479 . S
C222 C217 1.245 . S
C222 C218 1.477 . S
C222 H239 0.932 . S
C223 U206 2.882 . S
C223 C217 1.428 . S
C223 O226 1.301 . S
C223 O227 1.282 . S
O224 U206 2.441 . S
O224 C210 1.249 1_455 S
O225 U206 2.420 1_655 S
O225 C210 1.202 . S
O226 U206 2.455 . S
O226 C223 1.301 . S
O227 U206 2.449 . S
O227 C223 1.282 . S
H228 C201 0.931 . S
H229 C203 0.929 . S
H230 C204 0.930 . S
H231 C205 0.931 . S
H232 C212 0.932 . S
H233 C213 0.930 . S
H234 C214 0.929 . S
H235 C216 0.930 . S
H236 C218 0.932 . S
H237 C219 0.929 1_655 S
H238 C220 0.928 . S
H239 C222 0.932 . S
C240 C241 1.264 . S
C240 C245 1.479 . S
C240 C250 1.465 . S
C241 C240 1.264 . S
C241 C243 1.339 . S
C241 H268 0.931 . S
C242 C243 1.395 . S
C242 C244 1.320 . S
C243 C241 1.339 . S
C243 C242 1.395 . S
C243 H269 0.929 . S
C244 C242 1.320 . S
C244 C245 1.405 . S
C244 H270 0.930 . S
C245 C240 1.479 . S
C245 C244 1.405 . S
C245 H271 0.931 . S
U246 O247 2.454 1_655 S
U246 O248 2.458 1_655 S
U246 C249 2.984 1_655 S
U246 C250 2.847 . S
U246 C263 2.882 . S
U246 O264 2.441 . S
U246 O265 2.420 . S
U246 O266 2.455 1_655 S
U246 O267 2.449 . S
O247 U246 2.454 1_455 S
O247 C249 1.353 . S
O248 U246 2.458 1_455 S
O248 C249 1.286 . S
C249 U246 2.984 1_455 S
C249 O247 1.353 . S
C249 O248 1.286 . S
C249 C251 1.363 . S
C250 C240 1.465 . S
C250 U246 2.847 . S
C250 O264 1.249 . S
C250 O265 1.202 . S
C251 C249 1.363 . S
C251 C253 1.408 . S
C251 C256 1.342 . S
C252 C253 1.310 . S
C252 C255 1.461 . S
C252 H272 0.932 . S
C253 C251 1.408 . S
C253 C252 1.310 . S
C253 H273 0.930 . S
C254 C255 1.474 . S
C254 C256 1.285 . S
C254 H274 0.929 . S
C255 C252 1.461 . S
C255 C254 1.474 . S
C256 C251 1.342 . S
C256 C254 1.285 . S
C256 H275 0.930 . S
C257 C260 1.424 . S
C257 C262 1.245 1_655 S
C257 C263 1.428 . S
C258 C261 1.260 1_455 S
C258 C262 1.477 . S
C258 H276 0.932 . S
C259 C260 1.384 . S
C259 C261 1.479 . S
C259 H277 0.929 . S
C260 C257 1.424 . S
C260 C259 1.384 . S
C260 H278 0.928 . S
C261 C258 1.260 1_655 S
C261 C259 1.479 . S
C262 C257 1.245 1_455 S
C262 C258 1.477 . S
C262 H279 0.932 . S
C263 U246 2.882 . S
C263 C257 1.428 . S
C263 O266 1.301 1_655 S
C263 O267 1.282 . S
O264 U246 2.441 . S
O264 C250 1.249 . S
O265 U246 2.420 . S
O265 C250 1.202 . S
O266 U246 2.455 1_455 S
O266 C263 1.301 1_455 S
O267 U246 2.449 . S
O267 C263 1.282 . S
H268 C241 0.931 . S
H269 C243 0.929 . S
H270 C244 0.930 . S
H271 C245 0.931 . S
H272 C252 0.932 . S
H273 C253 0.930 . S
H274 C254 0.929 . S
H275 C256 0.930 . S
H276 C258 0.932 . S
H277 C259 0.929 . S
H278 C260 0.928 . S
H279 C262 0.932 . S
C280 C281 1.264 . S
C280 C285 1.479 . S
C280 C290 1.465 . S
C281 C280 1.264 . S
C281 C283 1.339 . S
C281 H308 0.931 . S
C282 C283 1.395 . S
C282 C284 1.320 . S
C283 C281 1.339 . S
C283 C282 1.395 . S
C283 H309 0.929 . S
C284 C282 1.320 . S
C284 C285 1.405 . S
C284 H310 0.930 . S
C285 C280 1.479 . S
C285 C284 1.405 . S
C285 H311 0.931 . S
U286 O287 2.454 1_565 S
U286 O288 2.458 1_565 S
U286 C289 2.984 1_565 S
U286 C290 2.847 . S
U286 C303 2.882 . S
U286 O304 2.441 . S
U286 O305 2.420 . S
U286 O306 2.455 1_565 S
U286 O307 2.449 . S
O287 U286 2.454 1_545 S
O287 C289 1.353 . S
O288 U286 2.458 1_545 S
O288 C289 1.286 . S
C289 U286 2.984 1_545 S
C289 O287 1.353 . S
C289 O288 1.286 . S
C289 C291 1.363 . S
C290 C280 1.465 . S
C290 U286 2.847 . S
C290 O304 1.249 . S
C290 O305 1.202 . S
C291 C289 1.363 . S
C291 C293 1.408 . S
C291 C296 1.342 . S
C292 C293 1.310 . S
C292 C295 1.461 . S
C292 H312 0.932 . S
C293 C291 1.408 . S
C293 C292 1.310 . S
C293 H313 0.930 . S
C294 C295 1.474 . S
C294 C296 1.285 . S
C294 H314 0.929 . S
C295 C292 1.461 . S
C295 C294 1.474 . S
C296 C291 1.342 . S
C296 C294 1.285 . S
C296 H315 0.930 . S
C297 C300 1.424 . S
C297 C302 1.245 1_565 S
C297 C303 1.428 . S
C298 C301 1.260 1_545 S
C298 C302 1.477 . S
C298 H316 0.932 . S
C299 C300 1.384 . S
C299 C301 1.479 . S
C299 H317 0.929 . S
C300 C297 1.424 . S
C300 C299 1.384 . S
C300 H318 0.928 . S
C301 C298 1.260 1_565 S
C301 C299 1.479 . S
C302 C297 1.245 1_545 S
C302 C298 1.477 . S
C302 H319 0.932 . S
C303 U286 2.882 . S
C303 C297 1.428 . S
C303 O306 1.301 1_565 S
C303 O307 1.282 . S
O304 U286 2.441 . S
O304 C290 1.249 . S
O305 U286 2.420 . S
O305 C290 1.202 . S
O306 U286 2.455 1_545 S
O306 C303 1.301 1_545 S
O307 U286 2.449 . S
O307 C303 1.282 . S
H308 C281 0.931 . S
H309 C283 0.929 . S
H310 C284 0.930 . S
H311 C285 0.931 . S
H312 C292 0.932 . S
H313 C293 0.930 . S
H314 C294 0.929 . S
H315 C296 0.930 . S
H316 C298 0.932 . S
H317 C299 0.929 . S
H318 C300 0.928 . S
H319 C302 0.932 . S
C320 C321 1.264 . S
C320 C325 1.479 . S
C320 C330 1.465 . S
C321 C320 1.264 . S
C321 C323 1.339 . S
C321 H348 0.931 . S
C322 C323 1.395 . S
C322 C324 1.320 . S
C323 C321 1.339 . S
C323 C322 1.395 . S
C323 H349 0.929 . S
C324 C322 1.320 . S
C324 C325 1.405 . S
C324 H350 0.930 . S
C325 C320 1.479 . S
C325 C324 1.405 . S
C325 H351 0.931 . S
U326 O327 2.454 . S
U326 O328 2.458 . S
U326 C329 2.984 . S
U326 C330 2.847 . S
U326 C343 2.882 . S
U326 O344 2.441 . S
U326 O345 2.420 . S
U326 O346 2.455 . S
U326 O347 2.449 . S
O327 U326 2.454 . S
O327 C329 1.353 . S
O328 U326 2.458 . S
O328 C329 1.286 . S
C329 U326 2.984 . S
C329 O327 1.353 . S
C329 O328 1.286 . S
C329 C331 1.363 . S
C330 C320 1.465 . S
C330 U326 2.847 . S
C330 O344 1.249 . S
C330 O345 1.202 . S
C331 C329 1.363 . S
C331 C333 1.408 . S
C331 C336 1.342 . S
C332 C333 1.310 . S
C332 C335 1.461 . S
C332 H352 0.932 . S
C333 C331 1.408 . S
C333 C332 1.310 . S
C333 H353 0.930 . S
C334 C335 1.474 . S
C334 C336 1.285 . S
C334 H354 0.929 . S
C335 C332 1.461 . S
C335 C334 1.474 . S
C336 C331 1.342 . S
C336 C334 1.285 . S
C336 H355 0.930 . S
C337 C340 1.424 . S
C337 C342 1.245 . S
C337 C343 1.428 . S
C338 C341 1.260 . S
C338 C342 1.477 1_556 S
C338 H356 0.932 . S
C339 C340 1.384 1_556 S
C339 C341 1.479 . S
C339 H357 0.929 . S
C340 C337 1.424 . S
C340 C339 1.384 1_554 S
C340 H358 0.928 . S
C341 C338 1.260 . S
C341 C339 1.479 . S
C342 C337 1.245 . S
C342 C338 1.477 1_554 S
C342 H359 0.932 . S
C343 U326 2.882 . S
C343 C337 1.428 . S
C343 O346 1.301 . S
C343 O347 1.282 . S
O344 U326 2.441 . S
O344 C330 1.249 . S
O345 U326 2.420 . S
O345 C330 1.202 . S
O346 U326 2.455 . S
O346 C343 1.301 . S
O347 U326 2.449 . S
O347 C343 1.282 . S
H348 C321 0.931 . S
H349 C323 0.929 . S
H350 C324 0.930 . S
H351 C325 0.931 . S
H352 C332 0.932 . S
H353 C333 0.930 . S
H354 C334 0.929 . S
H355 C336 0.930 . S
H356 C338 0.932 . S
H357 C339 0.929 . S
H358 C340 0.928 . S
H359 C342 0.932 . S
H360 C366 0.930 . S
H361 C369 0.930 . S
H362 C370 0.930 . S
H363 C371 0.930 . S
H364 C374 0.930 . S
H365 C375 0.930 . S
C366 H360 0.930 . S
C366 C367 1.355 . S
C366 C368 1.415 . S
C367 C366 1.355 . S
C367 C369 1.419 . S
C368 C366 1.415 . S
C368 C373 1.425 . S
C368 C375 1.409 . S
C369 H361 0.930 . S
C369 C367 1.419 . S
C369 C370 1.362 . S
C370 H362 0.930 . S
C370 C369 1.362 . S
C370 C373 1.409 . S
C371 H363 0.930 . S
C371 C372 1.355 . S
C371 C373 1.415 . S
C372 C371 1.355 . S
C372 C374 1.419 . S
C373 C368 1.425 . S
C373 C370 1.409 . S
C373 C371 1.415 . S
C374 H364 0.930 . S
C374 C372 1.419 . S
C374 C375 1.362 . S
C375 H365 0.930 . S
C375 C368 1.409 . S
C375 C374 1.362 . S
H376 C382 0.930 . S
H377 C385 0.930 . S
H378 C386 0.930 . S
H379 C387 0.930 . S
H380 C390 0.930 . S
H381 C391 0.930 . S
C382 H376 0.930 . S
C382 C383 1.355 . S
C382 C384 1.415 . S
C383 C382 1.355 . S
C383 C385 1.419 . S
C384 C382 1.415 . S
C384 C389 1.425 . S
C384 C391 1.409 . S
C385 H377 0.930 . S
C385 C383 1.419 . S
C385 C386 1.362 . S
C386 H378 0.930 . S
C386 C385 1.362 . S
C386 C389 1.409 . S
C387 H379 0.930 . S
C387 C388 1.355 . S
C387 C389 1.415 . S
C388 C387 1.355 . S
C388 C390 1.419 . S
C389 C384 1.425 . S
C389 C386 1.409 . S
C389 C387 1.415 . S
C390 H380 0.930 . S
C390 C388 1.419 . S
C390 C391 1.362 . S
C391 H381 0.930 . S
C391 C384 1.409 . S
C391 C390 1.362 . S
H392 C398 0.930 . S
H393 C401 0.930 . S
H394 C402 0.930 . S
H395 C403 0.930 . S
H396 C406 0.930 . S
H397 C407 0.930 . S
C398 H392 0.930 . S
C398 C399 1.355 . S
C398 C400 1.415 . S
C399 C398 1.355 . S
C399 C401 1.419 . S
C400 C398 1.415 . S
C400 C405 1.425 . S
C400 C407 1.409 . S
C401 H393 0.930 . S
C401 C399 1.419 . S
C401 C402 1.362 . S
C402 H394 0.930 . S
C402 C401 1.362 . S
C402 C405 1.409 . S
C403 H395 0.930 . S
C403 C404 1.355 . S
C403 C405 1.415 . S
C404 C403 1.355 . S
C404 C406 1.419 . S
C405 C400 1.425 . S
C405 C402 1.409 . S
C405 C403 1.415 . S
C406 H396 0.930 . S
C406 C404 1.419 . S
C406 C407 1.362 . S
C407 H397 0.930 . S
C407 C400 1.409 . S
C407 C406 1.362 . S
H408 C414 0.930 . S
H409 C417 0.930 . S
H410 C418 0.930 . S
H411 C419 0.930 . S
H412 C422 0.930 . S
H413 C423 0.930 . S
C414 H408 0.930 . S
C414 C415 1.355 . S
C414 C416 1.415 . S
C415 C414 1.355 . S
C415 C417 1.419 . S
C416 C414 1.415 . S
C416 C421 1.425 . S
C416 C423 1.409 . S
C417 H409 0.930 . S
C417 C415 1.419 . S
C417 C418 1.362 . S
C418 H410 0.930 . S
C418 C417 1.362 . S
C418 C421 1.409 . S
C419 H411 0.930 . S
C419 C420 1.355 . S
C419 C421 1.415 . S
C420 C419 1.355 . S
C420 C422 1.419 . S
C421 C416 1.425 . S
C421 C418 1.409 . S
C421 C419 1.415 . S
C422 H412 0.930 . S
C422 C420 1.419 . S
C422 C423 1.362 . S
C423 H413 0.930 . S
C423 C416 1.409 . S
C423 C422 1.362 . S
H424 C430 0.930 . S
H425 C433 0.930 . S
H426 C434 0.930 . S
H427 C435 0.930 . S
H428 C438 0.930 . S
H429 C439 0.930 . S
C430 H424 0.930 . S
C430 C431 1.355 . S
C430 C432 1.415 . S
C431 C430 1.355 . S
C431 C433 1.419 . S
C432 C430 1.415 . S
C432 C437 1.425 . S
C432 C439 1.409 . S
C433 H425 0.930 . S
C433 C431 1.419 . S
C433 C434 1.362 . S
C434 H426 0.930 . S
C434 C433 1.362 . S
C434 C437 1.409 . S
C435 H427 0.930 . S
C435 C436 1.355 . S
C435 C437 1.415 . S
C436 C435 1.355 . S
C436 C438 1.419 . S
C437 C432 1.425 . S
C437 C434 1.409 . S
C437 C435 1.415 . S
C438 H428 0.930 . S
C438 C436 1.419 . S
C438 C439 1.362 . S
C439 H429 0.930 . S
C439 C432 1.409 . S
C439 C438 1.362 . S
H440 C446 0.930 . S
H441 C449 0.930 . S
H442 C450 0.930 . S
H443 C451 0.930 . S
H444 C454 0.930 . S
H445 C455 0.930 . S
C446 H440 0.930 . S
C446 C447 1.355 . S
C446 C448 1.415 . S
C447 C446 1.355 . S
C447 C449 1.419 . S
C448 C446 1.415 . S
C448 C453 1.425 . S
C448 C455 1.409 . S
C449 H441 0.930 . S
C449 C447 1.419 . S
C449 C450 1.362 . S
C450 H442 0.930 . S
C450 C449 1.362 . S
C450 C453 1.409 . S
C451 H443 0.930 . S
C451 C452 1.355 . S
C451 C453 1.415 . S
C452 C451 1.355 . S
C452 C454 1.419 . S
C453 C448 1.425 . S
C453 C450 1.409 . S
C453 C451 1.415 . S
C454 H444 0.930 . S
C454 C452 1.419 . S
C454 C455 1.362 . S
C455 H445 0.930 . S
C455 C448 1.409 . S
C455 C454 1.362 . S
H456 C462 0.930 . S
H457 C465 0.930 . S
H458 C466 0.930 . S
H459 C467 0.930 . S
H460 C470 0.930 . S
H461 C471 0.930 . S
C462 H456 0.930 . S
C462 C463 1.355 . S
C462 C464 1.415 . S
C463 C462 1.355 . S
C463 C465 1.419 . S
C464 C462 1.415 . S
C464 C469 1.425 . S
C464 C471 1.409 . S
C465 H457 0.930 . S
C465 C463 1.419 . S
C465 C466 1.362 . S
C466 H458 0.930 . S
C466 C465 1.362 . S
C466 C469 1.409 . S
C467 H459 0.930 . S
C467 C468 1.355 . S
C467 C469 1.415 . S
C468 C467 1.355 . S
C468 C470 1.419 . S
C469 C464 1.425 . S
C469 C466 1.409 . S
C469 C467 1.415 . S
C470 H460 0.930 . S
C470 C468 1.419 . S
C470 C471 1.362 . S
C471 H461 0.930 . S
C471 C464 1.409 . S
C471 C470 1.362 . S
H472 C478 0.930 . S
H473 C481 0.930 . S
H474 C482 0.930 . S
H475 C483 0.930 . S
H476 C486 0.930 . S
H477 C487 0.930 . S
C478 H472 0.930 . S
C478 C479 1.355 . S
C478 C480 1.415 . S
C479 C478 1.355 . S
C479 C481 1.419 . S
C480 C478 1.415 . S
C480 C485 1.425 . S
C480 C487 1.409 . S
C481 H473 0.930 . S
C481 C479 1.419 . S
C481 C482 1.362 . S
C482 H474 0.930 . S
C482 C481 1.362 . S
C482 C485 1.409 . S
C483 H475 0.930 . S
C483 C484 1.355 . S
C483 C485 1.415 . S
C484 C483 1.355 . S
C484 C486 1.419 . S
C485 C480 1.425 . S
C485 C482 1.409 . S
C485 C483 1.415 . S
C486 H476 0.930 . S
C486 C484 1.419 . S
C486 C487 1.362 . S
C487 H477 0.930 . S
C487 C480 1.409 . S
C487 C486 1.362 . S
H488 C494 0.930 . S
H489 C497 0.930 . S
H490 C498 0.930 . S
H491 C499 0.930 . S
H492 C502 0.930 . S
H493 C503 0.930 . S
C494 H488 0.930 . S
C494 C495 1.355 . S
C494 C496 1.415 . S
C495 C494 1.355 . S
C495 C497 1.419 . S
C496 C494 1.415 . S
C496 C501 1.425 . S
C496 C503 1.409 . S
C497 H489 0.930 . S
C497 C495 1.419 . S
C497 C498 1.362 . S
C498 H490 0.930 . S
C498 C497 1.362 . S
C498 C501 1.409 . S
C499 H491 0.930 . S
C499 C500 1.355 . S
C499 C501 1.415 . S
C500 C499 1.355 . S
C500 C502 1.419 . S
C501 C496 1.425 . S
C501 C498 1.409 . S
C501 C499 1.415 . S
C502 H492 0.930 . S
C502 C500 1.419 . S
C502 C503 1.362 . S
C503 H493 0.930 . S
C503 C496 1.409 . S
C503 C502 1.362 . S
H504 C510 0.930 . S
H505 C513 0.930 . S
H506 C514 0.930 . S
H507 C515 0.930 . S
H508 C518 0.930 . S
H509 C519 0.930 . S
C510 H504 0.930 . S
C510 C511 1.355 . S
C510 C512 1.415 . S
C511 C510 1.355 . S
C511 C513 1.419 . S
C512 C510 1.415 . S
C512 C517 1.425 . S
C512 C519 1.409 . S
C513 H505 0.930 . S
C513 C511 1.419 . S
C513 C514 1.362 . S
C514 H506 0.930 . S
C514 C513 1.362 . S
C514 C517 1.409 . S
C515 H507 0.930 . S
C515 C516 1.355 . S
C515 C517 1.415 . S
C516 C515 1.355 . S
C516 C518 1.419 . S
C517 C512 1.425 . S
C517 C514 1.409 . S
C517 C515 1.415 . S
C518 H508 0.930 . S
C518 C516 1.419 . S
C518 C519 1.362 . S
C519 H509 0.930 . S
C519 C512 1.409 . S
C519 C518 1.362 . S
H520 C526 0.930 . S
H521 C529 0.930 . S
H522 C530 0.930 . S
H523 C531 0.930 . S
H524 C534 0.930 . S
H525 C535 0.930 . S
C526 H520 0.930 . S
C526 C527 1.355 . S
C526 C528 1.415 . S
C527 C526 1.355 . S
C527 C529 1.419 . S
C528 C526 1.415 . S
C528 C533 1.425 . S
C528 C535 1.409 . S
C529 H521 0.930 . S
C529 C527 1.419 . S
C529 C530 1.362 . S
C530 H522 0.930 . S
C530 C529 1.362 . S
C530 C533 1.409 . S
C531 H523 0.930 . S
C531 C532 1.355 . S
C531 C533 1.415 . S
C532 C531 1.355 . S
C532 C534 1.419 . S
C533 C528 1.425 . S
C533 C530 1.409 . S
C533 C531 1.415 . S
C534 H524 0.930 . S
C534 C532 1.419 . S
C534 C535 1.362 . S
C535 H525 0.930 . S
C535 C528 1.409 . S
C535 C534 1.362 . S
H536 C542 0.930 . S
H537 C545 0.930 . S
H538 C546 0.930 . S
H539 C547 0.930 . S
H540 C550 0.930 . S
H541 C551 0.930 . S
C542 H536 0.930 . S
C542 C543 1.355 . S
C542 C544 1.415 . S
C543 C542 1.355 . S
C543 C545 1.419 . S
C544 C542 1.415 . S
C544 C549 1.425 . S
C544 C551 1.409 . S
C545 H537 0.930 . S
C545 C543 1.419 . S
C545 C546 1.362 . S
C546 H538 0.930 . S
C546 C545 1.362 . S
C546 C549 1.409 . S
C547 H539 0.930 . S
C547 C548 1.355 . S
C547 C549 1.415 . S
C548 C547 1.355 . S
C548 C550 1.419 . S
C549 C544 1.425 . S
C549 C546 1.409 . S
C549 C547 1.415 . S
C550 H540 0.930 . S
C550 C548 1.419 . S
C550 C551 1.362 . S
C551 H541 0.930 . S
C551 C544 1.409 . S
C551 C550 1.362 . S
H552 C558 0.930 1_655 S
H553 C561 0.930 . S
H554 C562 0.930 . S
H555 C563 0.930 . S
H556 C566 0.930 1_655 S
H557 C567 0.923 1_655 S
C558 H552 0.930 1_455 S
C558 C559 1.355 . S
C558 C560 1.415 . S
C559 C558 1.355 . S
C559 C561 1.419 . S
C560 C558 1.415 . S
C560 C565 1.425 . S
C560 C567 1.415 . S
C561 H553 0.930 . S
C561 C559 1.419 . S
C561 C562 1.362 . S
C562 H554 0.930 . S
C562 C561 1.362 . S
C562 C565 1.409 . S
C563 H555 0.930 . S
C563 C564 1.355 . S
C563 C565 1.415 . S
C564 C563 1.355 . S
C564 C566 1.419 . S
C565 C560 1.425 . S
C565 C562 1.409 . S
C565 C563 1.415 . S
C566 H556 0.930 1_455 S
C566 C564 1.419 . S
C566 C567 1.364 . S
C567 H557 0.923 1_455 S
C567 C560 1.415 . S
C567 C566 1.364 . S
H568 C574 0.930 . S
H569 C577 0.930 1_565 S
H570 C578 0.925 1_565 S
H571 C579 0.931 . S
H572 C582 0.930 . S
H573 C583 0.930 . S
C574 H568 0.930 . S
C574 C575 1.355 . S
C574 C576 1.415 . S
C575 C574 1.355 . S
C575 C577 1.419 . S
C576 C574 1.415 . S
C576 C581 1.425 . S
C576 C583 1.409 . S
C577 H569 0.930 1_545 S
C577 C575 1.419 . S
C577 C578 1.362 . S
C578 H570 0.925 1_545 S
C578 C577 1.362 . S
C578 C581 1.415 . S
C579 H571 0.931 . S
C579 C580 1.355 . S
C579 C581 1.415 . S
C580 C579 1.355 . S
C580 C582 1.419 . S
C581 C576 1.425 . S
C581 C578 1.415 . S
C581 C579 1.415 . S
C582 H572 0.930 . S
C582 C580 1.419 . S
C582 C583 1.362 . S
C583 H573 0.930 . S
C583 C576 1.409 . S
C583 C582 1.362 . S
H584 C590 0.930 . S
H585 C593 0.930 . S
H586 C594 0.930 . S
H587 C595 0.930 . S
H588 C598 0.930 . S
H589 C599 0.930 . S
C590 H584 0.930 . S
C590 C591 1.355 . S
C590 C592 1.415 . S
C591 C590 1.355 . S
C591 C593 1.419 . S
C592 C590 1.415 . S
C592 C597 1.425 . S
C592 C599 1.409 . S
C593 H585 0.930 . S
C593 C591 1.419 . S
C593 C594 1.362 . S
C594 H586 0.930 . S
C594 C593 1.362 . S
C594 C597 1.409 . S
C595 H587 0.930 . S
C595 C596 1.355 . S
C595 C597 1.415 . S
C596 C595 1.355 . S
C596 C598 1.419 . S
C597 C592 1.425 . S
C597 C594 1.409 . S
C597 C595 1.415 . S
C598 H588 0.930 . S
C598 C596 1.419 . S
C598 C599 1.362 . S
C599 H589 0.930 . S
C599 C592 1.409 . S
C599 C598 1.362 . S
H600 C606 0.930 . S
H601 C609 0.930 . S
H602 C610 0.930 . S
H603 C611 0.928 1_545 S
H604 C614 0.930 . S
H605 C615 0.930 . S
C606 H600 0.930 . S
C606 C607 1.355 . S
C606 C608 1.415 . S
C607 C606 1.355 . S
C607 C609 1.419 . S
C608 C606 1.415 . S
C608 C613 1.425 . S
C608 C615 1.409 1_545 S
C609 H601 0.930 . S
C609 C607 1.419 . S
C609 C610 1.362 . S
C610 H602 0.930 . S
C610 C609 1.362 . S
C610 C613 1.409 . S
C611 H603 0.928 1_565 S
C611 C612 1.355 . S
C611 C613 1.415 1_565 S
C612 C611 1.355 . S
C612 C614 1.419 . S
C613 C608 1.425 . S
C613 C610 1.409 . S
C613 C611 1.415 1_545 S
C614 H604 0.930 . S
C614 C612 1.419 . S
C614 C615 1.362 . S
C615 H605 0.930 . S
C615 C608 1.409 1_565 S
C615 C614 1.362 . S
H616 C622 0.930 . S
H617 C625 0.930 . S
H618 C626 0.930 . S
H619 C627 0.930 . S
H620 C630 0.930 . S
H621 C631 0.930 . S
C622 H616 0.930 . S
C622 C623 1.355 . S
C622 C624 1.415 . S
C623 C622 1.355 . S
C623 C625 1.419 . S
C624 C622 1.415 . S
C624 C629 1.425 . S
C624 C631 1.409 . S
C625 H617 0.930 . S
C625 C623 1.419 . S
C625 C626 1.362 . S
C626 H618 0.930 . S
C626 C625 1.362 . S
C626 C629 1.409 . S
C627 H619 0.930 . S
C627 C628 1.355 . S
C627 C629 1.415 . S
C628 C627 1.355 . S
C628 C630 1.419 . S
C629 C624 1.425 . S
C629 C626 1.409 . S
C629 C627 1.415 . S
C630 H620 0.930 . S
C630 C628 1.419 . S
C630 C631 1.362 . S
C631 H621 0.930 . S
C631 C624 1.409 . S
C631 C630 1.362 . S
H632 C638 0.930 . S
H633 C641 0.930 . S
H634 C642 0.930 . S
H635 C643 0.930 . S
H636 C646 0.930 . S
H637 C647 0.930 . S
C638 H632 0.930 . S
C638 C639 1.355 . S
C638 C640 1.415 . S
C639 C638 1.355 . S
C639 C641 1.419 1_455 S
C640 C638 1.415 . S
C640 C645 1.425 1_455 S
C640 C647 1.409 . S
C641 H633 0.930 . S
C641 C639 1.419 1_655 S
C641 C642 1.362 . S
C642 H634 0.930 . S
C642 C641 1.362 . S
C642 C645 1.409 . S
C643 H635 0.930 . S
C643 C644 1.355 . S
C643 C645 1.415 . S
C644 C643 1.355 . S
C644 C646 1.419 1_655 S
C645 C640 1.425 1_655 S
C645 C642 1.409 . S
C645 C643 1.415 . S
C646 H636 0.930 . S
C646 C644 1.419 1_455 S
C646 C647 1.362 . S
C647 H637 0.930 . S
C647 C640 1.409 . S
C647 C646 1.362 . S
C367 C25 0.429 . S
C372 C335 0.399 . S
C383 C65 0.370 . S
C388 C242 0.209 . S
C399 C105 0.624 . S
C404 C282 0.425 . S
C415 C4 0.566 . S
C420 C322 0.405 . S
C436 C255 0.386 . S
C431 C44 0.389 . S
C452 C295 0.464 . S
C447 C84 0.554 . S
C463 C60 2.993 . S
C468 C162 2.962 . S
C479 C100 3.194 . S
C484 C202 3.146 . S
C495 C31 3.239 . S
C500 C135 3.124 . S
C516 C175 3.128 . S
C511 C71 3.231 . S
C532 C215 2.954 . S
C527 C111 3.032 . S
C543 C20 2.988 . S
C548 C122 2.940 . S
C564 C221 1.773 1_554 S
C559 C2 1.756 . S
C575 C42 1.735 . S
C580 C141 1.796 . S
C591 C82 1.780 . S
C596 C181 1.788 . S
C612 C301 1.106 . S
C607 C63 1.076 . S
C628 C341 1.140 . S
C623 C103 1.152 . S
C639 C23 1.103 . S
C644 C261 1.084 . S
