# Generated by pormake.
# Topology myd, (4,6)-cn, num edge types: 1
# Building blocks:
#     Node 0, Type 0, BuildingBlock: NAWXER_clean_sbu_0, # of connection points: 4
#     Node 1, Type 0, BuildingBlock: NAWXER_clean_sbu_0, # of connection points: 4
#     Node 2, Type 0, BuildingBlock: NAWXER_clean_sbu_0, # of connection points: 4
#     Node 3, Type 0, BuildingBlock: NAWXER_clean_sbu_0, # of connection points: 4
#     Node 4, Type 0, BuildingBlock: NAWXER_clean_sbu_0, # of connection points: 4
#     Node 5, Type 0, BuildingBlock: NAWXER_clean_sbu_0, # of connection points: 4
#     Node 6, Type 0, BuildingBlock: NAWXER_clean_sbu_0, # of connection points: 4
#     Node 7, Type 0, BuildingBlock: NAWXER_clean_sbu_0, # of connection points: 4
#     Node 8, Type 0, BuildingBlock: NAWXER_clean_sbu_0, # of connection points: 4
#     Node 9, Type 0, BuildingBlock: NAWXER_clean_sbu_0, # of connection points: 4
#     Node 10, Type 0, BuildingBlock: NAWXER_clean_sbu_0, # of connection points: 4
#     Node 11, Type 0, BuildingBlock: NAWXER_clean_sbu_0, # of connection points: 4
#     Node 12, Type 1, BuildingBlock: JUFBIX_clean_sbu_0, # of connection points: 6
#     Node 13, Type 1, BuildingBlock: JUFBIX_clean_sbu_0, # of connection points: 6
#     Node 14, Type 1, BuildingBlock: JUFBIX_clean_sbu_0, # of connection points: 6
#     Node 15, Type 1, BuildingBlock: JUFBIX_clean_sbu_0, # of connection points: 6
#     Node 16, Type 1, BuildingBlock: JUFBIX_clean_sbu_0, # of connection points: 6
#     Node 17, Type 1, BuildingBlock: JUFBIX_clean_sbu_0, # of connection points: 6
#     Node 18, Type 1, BuildingBlock: JUFBIX_clean_sbu_0, # of connection points: 6
#     Node 19, Type 1, BuildingBlock: JUFBIX_clean_sbu_0, # of connection points: 6
#     Edge 20, Type (0, 1), BuildingBlock: OJICUG_clean_linker_0, # of connection points: 2
#     Edge 21, Type (0, 1), BuildingBlock: OJICUG_clean_linker_0, # of connection points: 2
#     Edge 22, Type (0, 1), BuildingBlock: OJICUG_clean_linker_0, # of connection points: 2
#     Edge 23, Type (0, 1), BuildingBlock: OJICUG_clean_linker_0, # of connection points: 2
#     Edge 24, Type (0, 1), BuildingBlock: OJICUG_clean_linker_0, # of connection points: 2
#     Edge 25, Type (0, 1), BuildingBlock: OJICUG_clean_linker_0, # of connection points: 2
#     Edge 26, Type (0, 1), BuildingBlock: OJICUG_clean_linker_0, # of connection points: 2
#     Edge 27, Type (0, 1), BuildingBlock: OJICUG_clean_linker_0, # of connection points: 2
#     Edge 28, Type (0, 1), BuildingBlock: OJICUG_clean_linker_0, # of connection points: 2
#     Edge 29, Type (0, 1), BuildingBlock: OJICUG_clean_linker_0, # of connection points: 2
#     Edge 30, Type (0, 1), BuildingBlock: OJICUG_clean_linker_0, # of connection points: 2
#     Edge 31, Type (0, 1), BuildingBlock: OJICUG_clean_linker_0, # of connection points: 2
#     Edge 32, Type (0, 1), BuildingBlock: OJICUG_clean_linker_0, # of connection points: 2
#     Edge 33, Type (0, 1), BuildingBlock: OJICUG_clean_linker_0, # of connection points: 2
#     Edge 34, Type (0, 1), BuildingBlock: OJICUG_clean_linker_0, # of connection points: 2
#     Edge 35, Type (0, 1), BuildingBlock: OJICUG_clean_linker_0, # of connection points: 2
#     Edge 36, Type (0, 1), BuildingBlock: OJICUG_clean_linker_0, # of connection points: 2
#     Edge 37, Type (0, 1), BuildingBlock: OJICUG_clean_linker_0, # of connection points: 2
#     Edge 38, Type (0, 1), BuildingBlock: OJICUG_clean_linker_0, # of connection points: 2
#     Edge 39, Type (0, 1), BuildingBlock: OJICUG_clean_linker_0, # of connection points: 2
#     Edge 40, Type (0, 1), BuildingBlock: OJICUG_clean_linker_0, # of connection points: 2
#     Edge 41, Type (0, 1), BuildingBlock: OJICUG_clean_linker_0, # of connection points: 2
#     Edge 42, Type (0, 1), BuildingBlock: OJICUG_clean_linker_0, # of connection points: 2
#     Edge 43, Type (0, 1), BuildingBlock: OJICUG_clean_linker_0, # of connection points: 2
#     Edge 44, Type (0, 1), BuildingBlock: OJICUG_clean_linker_0, # of connection points: 2
#     Edge 45, Type (0, 1), BuildingBlock: OJICUG_clean_linker_0, # of connection points: 2
#     Edge 46, Type (0, 1), BuildingBlock: OJICUG_clean_linker_0, # of connection points: 2
#     Edge 47, Type (0, 1), BuildingBlock: OJICUG_clean_linker_0, # of connection points: 2
#     Edge 48, Type (0, 1), BuildingBlock: OJICUG_clean_linker_0, # of connection points: 2
#     Edge 49, Type (0, 1), BuildingBlock: OJICUG_clean_linker_0, # of connection points: 2
#     Edge 50, Type (0, 1), BuildingBlock: OJICUG_clean_linker_0, # of connection points: 2
#     Edge 51, Type (0, 1), BuildingBlock: OJICUG_clean_linker_0, # of connection points: 2
#     Edge 52, Type (0, 1), BuildingBlock: OJICUG_clean_linker_0, # of connection points: 2
#     Edge 53, Type (0, 1), BuildingBlock: OJICUG_clean_linker_0, # of connection points: 2
#     Edge 54, Type (0, 1), BuildingBlock: OJICUG_clean_linker_0, # of connection points: 2
#     Edge 55, Type (0, 1), BuildingBlock: OJICUG_clean_linker_0, # of connection points: 2
#     Edge 56, Type (0, 1), BuildingBlock: OJICUG_clean_linker_0, # of connection points: 2
#     Edge 57, Type (0, 1), BuildingBlock: OJICUG_clean_linker_0, # of connection points: 2
#     Edge 58, Type (0, 1), BuildingBlock: OJICUG_clean_linker_0, # of connection points: 2
#     Edge 59, Type (0, 1), BuildingBlock: OJICUG_clean_linker_0, # of connection points: 2
#     Edge 60, Type (0, 1), BuildingBlock: OJICUG_clean_linker_0, # of connection points: 2
#     Edge 61, Type (0, 1), BuildingBlock: OJICUG_clean_linker_0, # of connection points: 2
#     Edge 62, Type (0, 1), BuildingBlock: OJICUG_clean_linker_0, # of connection points: 2
#     Edge 63, Type (0, 1), BuildingBlock: OJICUG_clean_linker_0, # of connection points: 2
#     Edge 64, Type (0, 1), BuildingBlock: OJICUG_clean_linker_0, # of connection points: 2
#     Edge 65, Type (0, 1), BuildingBlock: OJICUG_clean_linker_0, # of connection points: 2
#     Edge 66, Type (0, 1), BuildingBlock: OJICUG_clean_linker_0, # of connection points: 2
#     Edge 67, Type (0, 1), BuildingBlock: OJICUG_clean_linker_0, # of connection points: 2
# Relax obj value: 0.282
# Max RMSD: 0.244
# Mean RMSD: 0.146
data_MOF--net-myd--node1-NAWXER_clean_sbu_0--node2-JUFBIX_clean_sbu_0--edge1-OJICUG_clean_linker_0
_symmetry_space_group_name_H-M    P1
_symmetry_Int_Tables_number       1
_symmetry_cell_setting            triclinic
loop_
_symmetry_equiv_pos_as_xyz
'x, y, z'
_cell_length_a     32.005009
_cell_length_b     35.040173
_cell_length_c     34.292425
_cell_angle_alpha  90.090461
_cell_angle_beta   86.6845
_cell_angle_gamma 90.917633
loop_
_atom_site_label
_atom_site_type_symbol
_atom_site_fract_x
_atom_site_fract_y
_atom_site_fract_z
_atom_type_partial_charge
C0 C 0.03188 0.17608 0.27504 0.0
C1 C 0.03771 0.26764 0.38376 0.0
O2 O 0.06333 0.19592 0.28474 0.0
Zn3 Zn 0.03882 0.21728 0.33288 0.0
O4 O 0.99798 0.17648 0.29686 0.0
Zn5 Zn 0.97508 0.20361 0.35024 0.0
O6 O 0.92896 0.23302 0.33069 0.0
O7 O 0.99279 0.25231 0.31003 0.0
O8 O 1.00255 0.24948 0.3836 0.0
O9 O 0.06835 0.25613 0.3617 0.0
O10 O 0.03227 0.16896 0.36976 0.0
O11 O 0.96497 0.15959 0.38469 0.0
C12 C 0.95315 0.25635 0.3114 0.0
C13 C 1.00266 0.14926 0.38691 0.0
C14 C 0.08121 0.7545 0.22645 0.0
C15 C 0.04063 0.65265 0.13834 0.0
O16 O 0.10751 0.73447 0.20635 0.0
Zn17 Zn 0.06415 0.70446 0.18142 0.0
O18 O 0.04192 0.74842 0.22486 0.0
Zn19 Zn 0.99885 0.71343 0.19646 0.0
O20 O 0.97299 0.68674 0.24149 0.0
O21 O 0.03964 0.67262 0.2313 0.0
O22 O 1.00951 0.66921 0.15573 0.0
O23 O 0.07768 0.66417 0.14389 0.0
O24 O 0.03678 0.75047 0.15023 0.0
O25 O 0.96987 0.75281 0.1693 0.0
C26 C 1.00488 0.6686 0.25144 0.0
C27 C 1.00124 0.76681 0.14935 0.0
C28 C 0.37801 1.00695 0.18646 0.0
C29 C 0.27974 0.97013 0.2959 0.0
O30 O 0.36919 0.97297 0.19757 0.0
Zn31 Zn 0.32865 0.98516 0.24062 0.0
O32 O 0.3611 0.03494 0.20521 0.0
Zn33 Zn 0.31648 0.04504 0.25223 0.0
O34 O 0.34702 0.07059 0.29371 0.0
O35 O 0.36502 1.0105 0.28454 0.0
O36 O 0.28356 1.0059 0.28943 0.0
O37 O 0.29888 0.94636 0.2733 0.0
O38 O 0.27811 1.00707 0.21012 0.0
O39 O 0.27068 0.06795 0.22466 0.0
C40 C 0.36822 0.04192 0.30335 0.0
C41 C 0.25905 0.03849 0.20598 0.0
C42 C 0.76588 0.46465 0.23639 0.0
C43 C 0.66652 0.47705 0.35413 0.0
O44 O 0.75118 0.43652 0.25689 0.0
Zn45 Zn 0.7181 0.46631 0.29717 0.0
O46 O 0.75768 0.49858 0.24784 0.0
Zn47 Zn 0.72136 0.528 0.29177 0.0
O48 O 0.76365 0.55507 0.3205 0.0
O49 O 0.76618 0.49275 0.32845 0.0
O50 O 0.67941 0.50804 0.33744 0.0
O51 O 0.68046 0.44534 0.34099 0.0
O52 O 0.67622 0.49062 0.25831 0.0
O53 O 0.68458 0.5533 0.25702 0.0
C54 C 0.78026 0.52627 0.33567 0.0
C55 C 0.66726 0.52311 0.24417 0.0
C56 C 0.21342 0.40627 1.01532 0.0
C57 C 0.32787 0.32124 0.97397 0.0
O58 O 0.22729 0.40043 0.98031 0.0
Zn59 Zn 0.27524 0.36884 0.99142 0.0
O60 O 0.23519 0.39555 0.04349 0.0
Zn61 Zn 0.28973 0.36235 0.05189 0.0
O62 O 0.33438 0.39445 0.07137 0.0
O63 O 0.32651 0.40365 1.00866 0.0
O64 O 0.32505 0.32867 1.01054 0.0
O65 O 0.30363 0.3372 0.95094 0.0
O66 O 0.24282 0.32488 0.02336 0.0
O67 O 0.26371 0.321 0.08373 0.0
C68 C 0.34718 0.40968 0.03912 0.0
C69 C 0.24022 0.30948 0.05717 0.0
C70 C 0.23047 0.7481 0.4919 0.0
C71 C 0.33721 0.64612 0.50114 0.0
O72 O 0.25043 0.73322 0.46246 0.0
Zn73 Zn 0.28217 0.69492 0.49121 0.0
O74 O 0.23574 0.73501 0.52599 0.0
Zn75 Zn 0.26926 0.69258 0.55457 0.0
O76 O 0.30299 0.72645 0.58747 0.0
O77 O 0.3185 0.7319 0.52421 0.0
O78 O 0.31687 0.65465 0.53316 0.0
O79 O 0.32762 0.66203 0.46949 0.0
O80 O 0.23327 0.65658 0.50896 0.0
O81 O 0.22212 0.65907 0.57301 0.0
C82 C 0.32476 0.742 0.55921 0.0
C83 C 0.21238 0.64582 0.54003 0.0
C84 C 0.71315 0.90861 0.51607 0.0
C85 C 0.82613 0.82135 0.47677 0.0
O86 O 0.72783 0.90303 0.48126 0.0
Zn87 Zn 0.77443 0.87012 0.49308 0.0
O88 O 0.73347 0.89656 0.54466 0.0
Zn89 Zn 0.78611 0.86167 0.5542 0.0
O90 O 0.83072 0.89191 0.57604 0.0
O91 O 0.82553 0.90333 0.51327 0.0
O92 O 0.82181 0.82826 0.51335 0.0
O93 O 0.80368 0.83845 0.45293 0.0
O94 O 0.7399 0.82594 0.52255 0.0
O95 O 0.75788 0.81979 0.58363 0.0
C96 C 0.845 0.90795 0.54468 0.0
C97 C 0.73558 0.8094 0.55573 0.0
C98 C 0.47211 0.76352 0.81268 0.0
C99 C 0.53181 0.65679 0.88005 0.0
O100 O 0.45134 0.74056 0.83542 0.0
Zn101 Zn 0.50047 0.71136 0.84824 0.0
O102 O 0.5114 0.75954 0.80572 0.0
Zn103 Zn 0.56108 0.72523 0.82228 0.0
O104 O 0.57855 0.70441 0.77201 0.0
O105 O 0.516 0.68289 0.79299 0.0
O106 O 0.55902 0.67499 0.85799 0.0
O107 O 0.49493 0.66945 0.88512 0.0
O108 O 0.53317 0.75613 0.8775 0.0
O109 O 0.59453 0.76561 0.84622 0.0
C110 C 0.5466 0.68319 0.76706 0.0
C111 C 0.56759 0.77524 0.87302 0.0
C112 C 0.51192 0.16214 0.75154 0.0
C113 C 0.50452 0.26612 0.65559 0.0
O114 O 0.47963 0.18063 0.74329 0.0
Zn115 Zn 0.50433 0.21092 0.70023 0.0
O116 O 0.54641 0.16807 0.73142 0.0
Zn117 Zn 0.56924 0.203 0.68296 0.0
O118 O 0.61318 0.23225 0.70718 0.0
O119 O 0.5482 0.24468 0.72922 0.0
O120 O 0.54019 0.24986 0.65473 0.0
O121 O 0.47393 0.25148 0.67613 0.0
O122 O 0.51445 0.16979 0.65625 0.0
O123 O 0.58246 0.16544 0.64274 0.0
C124 C 0.58761 0.25094 0.72942 0.0
C125 C 0.54525 0.15448 0.63709 0.0
C126 C 0.76572 0.53188 0.70068 0.0
C127 C 0.87493 0.53546 0.7981 0.0
O128 O 0.77929 0.56152 0.71779 0.0
Zn129 Zn 0.8238 0.53793 0.74656 0.0
O130 O 0.78295 0.49978 0.70636 0.0
Zn131 Zn 0.83286 0.47737 0.73778 0.0
O132 O 0.80219 0.44123 0.77301 0.0
O133 O 0.7894 0.50186 0.78609 0.0
O134 O 0.87062 0.50338 0.78066 0.0
O135 O 0.85502 0.56436 0.78695 0.0
O136 O 0.86879 0.52396 0.70077 0.0
O137 O 0.87272 0.4614 0.69527 0.0
C138 C 0.78446 0.46659 0.79468 0.0
C139 C 0.8842 0.49452 0.68331 0.0
C140 C 0.26521 0.97216 0.73689 0.0
C141 C 0.16442 0.98641 0.85276 0.0
O142 O 0.25019 0.94456 0.75793 0.0
Zn143 Zn 0.21613 0.97514 0.79649 0.0
O144 O 0.25669 1.00638 0.74717 0.0
Zn145 Zn 0.21947 0.03674 0.78978 0.0
O146 O 0.26118 0.06483 0.81856 0.0
O147 O 0.26294 1.00271 0.82828 0.0
O148 O 0.17734 0.01723 0.8357 0.0
O149 O 0.17826 0.95454 0.84 0.0
O150 O 0.17492 0.99842 0.75654 0.0
O151 O 0.18308 0.06108 0.75396 0.0
C152 C 0.27699 0.03634 0.83504 0.0
C153 C 0.16607 0.03056 0.74156 0.0
C154 C 0.71134 0.14012 0.0361 0.0
C155 C 0.82102 0.23943 0.05608 0.0
O156 O 0.72037 0.15365 0.06919 0.0
Zn157 Zn 0.76601 0.18926 0.05134 0.0
O158 O 0.73146 0.15219 1.00515 0.0
Zn159 Zn 0.7785 0.19255 0.98783 0.0
O160 O 0.82485 0.16113 0.96537 0.0
O161 O 0.81417 0.15278 0.02897 0.0
O162 O 0.81442 0.22966 0.02107 0.0
O163 O 0.79988 0.22321 0.08435 0.0
O164 O 0.73143 0.23156 0.02384 0.0
O165 O 0.74551 0.23067 0.96019 0.0
C166 C 0.83462 0.14496 0.99685 0.0
C167 C 0.72568 0.24501 0.98999 0.0
Co168 Co 0.04425 0.03133 0.07646 0.0
C169 C 0.03736 0.09355 0.12796 0.0
Co170 Co 0.07222 0.08503 0.05299 0.0
C171 C 0.02795 0.94957 0.09278 0.0
C172 C 0.97947 0.98635 0.115 0.0
N173 N 1.01731 0.9868 0.09561 0.0
N174 N 0.998 0.92596 0.10958 0.0
C175 C 0.96766 0.94936 0.12366 0.0
H176 H 0.05683 0.94006 0.07823 0.0
H177 H 0.96138 1.01146 0.12226 0.0
C178 C 0.08253 0.02474 1.00096 0.0
N179 N 0.09742 0.12939 0.03489 0.0
C180 C 0.12181 0.15291 0.05524 0.0
C181 C 0.09276 0.14729 1.00069 0.0
N182 N 0.132 0.18504 0.03541 0.0
C183 C 0.11392 0.18176 1.00101 0.0
C184 C 0.12545 0.04256 0.09797 0.0
O185 O 0.06269 1.00524 0.02776 0.0
O186 O 0.0901 0.05985 1.00693 0.0
O187 O 0.1221 0.07205 0.07696 0.0
O188 O 0.09538 0.01814 0.10018 0.0
O189 O 0.05492 0.11059 0.0988 0.0
H190 H 0.07429 0.13644 0.97754 0.0
H191 H 0.13047 0.14736 0.08472 0.0
O192 O 0.02755 0.0583 0.12475 0.0
O193 O 0.99268 0.04598 0.05333 0.0
O194 O 0.02202 0.0985 0.02975 0.0
C195 C 0.99 0.07677 0.03392 0.0
H196 H 0.93908 0.94062 0.13981 0.0
H197 H 0.11567 0.20289 0.97796 0.0
Co198 Co 0.9703 0.42778 0.11036 0.0
C199 C 0.98571 0.50456 0.09216 0.0
Co200 Co 0.95079 0.44541 0.052 0.0
C201 C 0.95423 0.39168 0.1829 0.0
C202 C 1.01213 0.42294 0.18393 0.0
N203 N 0.98027 0.41484 0.1611 0.0
N204 N 0.9686 0.38413 0.21801 0.0
C205 C 1.00504 0.40394 0.21908 0.0
H206 H 0.92546 0.37965 0.17274 0.0
H207 H 0.03927 0.44032 0.17511 0.0
C208 C 0.93399 0.36843 0.07109 0.0
N209 N 0.94008 0.45608 0.99926 0.0
C210 C 0.92777 0.48684 0.97872 0.0
C211 C 0.95081 0.43016 0.97143 0.0
N212 N 0.93117 0.48066 0.93943 0.0
C213 C 0.94532 0.44488 0.93527 0.0
C214 C 0.03617 0.4223 0.05757 0.0
O215 O 0.95133 0.37684 0.10224 0.0
O216 O 0.93267 0.39362 0.04462 0.0
O217 O 1.00894 0.43377 0.03458 0.0
O218 O 0.02479 0.41545 0.09297 0.0
O219 O 0.96817 0.49665 0.06065 0.0
H220 H 0.96357 0.40241 0.97688 0.0
H221 H 0.91834 0.5136 0.99206 0.0
O222 O 0.98903 0.47882 0.11798 0.0
O223 O 0.91659 0.44021 0.12817 0.0
O224 O 0.89334 0.45696 0.07177 0.0
C225 C 0.88683 0.4509 0.1085 0.0
H226 H 0.0262 0.40299 0.24256 0.0
H227 H 0.95167 0.43033 0.90773 0.0
Co228 Co 0.10122 0.95287 0.48451 0.0
C229 C 0.15293 0.94752 0.41723 0.0
Co230 Co 0.07109 0.92509 0.43545 0.0
C231 C 0.11434 0.98027 0.56383 0.0
C232 C 0.15178 1.00965 0.5194 0.0
N233 N 0.12438 0.98023 0.52494 0.0
N234 N 0.13427 1.00873 0.58258 0.0
C235 C 0.15809 0.02693 0.55452 0.0
H236 H 0.09179 0.96064 0.57785 0.0
H237 H 0.16536 0.01895 0.49134 0.0
C238 C 1.01741 0.92953 0.5003 0.0
N239 N 0.0502 0.89991 0.39349 0.0
C240 C 0.07221 0.87393 0.37219 0.0
C241 C 1.01667 0.90725 0.37281 0.0
N242 N 0.05453 0.8653 0.33873 0.0
C243 C 1.01935 0.88597 0.33886 0.0
C244 C 0.11762 0.87602 0.48109 0.0
O245 O 0.0486 0.94574 0.51549 0.0
O246 O 0.02164 0.91631 0.46583 0.0
O247 O 0.09436 0.87836 0.45239 0.0
O248 O 0.12258 0.90542 0.50247 0.0
O249 O 0.11972 0.93384 0.40454 0.0
H250 H 0.99315 0.92813 0.3808 0.0
H251 H 0.1024 0.86359 0.37964 0.0
O252 O 0.15267 0.95936 0.45232 0.0
O253 O 0.08094 0.99988 0.46598 0.0
O254 O 0.04867 0.97228 0.41867 0.0
C255 C 0.05768 1.00236 0.43739 0.0
H256 H 0.17885 0.05103 0.5589 0.0
H257 H 0.9977 0.88628 0.31576 0.0
Co258 Co 0.97387 0.58894 0.47686 0.0
C259 C 0.05642 0.58104 0.49472 0.0
Co260 Co 0.99956 0.53338 0.45675 0.0
C261 C 0.92971 0.65959 0.47178 0.0
C262 C 0.95877 0.65394 0.5262 0.0
N263 N 0.95153 0.63509 0.4929 0.0
N264 N 0.92404 0.69325 0.49021 0.0
C265 C 0.94204 0.68975 0.52456 0.0
H266 H 0.91989 0.65353 0.44271 0.0
H267 H 0.97644 0.64286 0.54952 0.0
C268 C 0.91765 0.54314 0.43774 0.0
N269 N 0.02435 0.48751 0.43936 0.0
C270 C 1.0128 0.45011 0.4427 0.0
C271 C 0.06208 0.48702 0.41978 0.0
N272 N 0.04218 0.4265 0.42609 0.0
C273 C 0.07296 0.45006 0.41159 0.0
C274 C 0.96387 0.53218 0.53314 0.0
O275 O 0.9226 0.57451 0.45573 0.0
O276 O 0.94708 0.51892 0.43632 0.0
O277 O 0.98226 0.51083 0.5074 0.0
O278 O 0.95688 0.5667 0.52478 0.0
O279 O 0.05234 0.54926 0.47716 0.0
H280 H 0.08069 0.51215 0.41184 0.0
H281 H 0.98365 0.44048 0.45729 0.0
O282 O 0.02554 0.60331 0.49757 0.0
O283 O 0.99026 0.61116 0.42905 0.0
O284 O 1.015 0.55714 0.40625 0.0
C285 C 1.00584 0.59194 0.40073 0.0
H286 H 0.94335 0.7117 0.54673 0.0
H287 H 0.10119 0.44146 0.39528 0.0
Co288 Co 0.47161 0.93232 0.61159 0.0
C289 C 0.48676 1.00859 0.59152 0.0
Co290 Co 0.45129 0.94895 0.55326 0.0
C291 C 0.45901 0.89763 0.68555 0.0
C292 C 0.51643 0.92989 0.68326 0.0
N293 N 0.48354 0.92062 0.66214 0.0
N294 N 0.47538 0.89128 0.72011 0.0
C295 C 0.51153 0.91174 0.719 0.0
H296 H 0.43001 0.8848 0.67686 0.0
H297 H 0.54286 0.94742 0.67281 0.0
C298 C 0.43541 0.87223 0.57387 0.0
N299 N 0.43891 0.95903 0.50098 0.0
C300 C 0.426 0.98997 0.48117 0.0
C301 C 0.44861 0.93323 0.47274 0.0
N302 N 0.42802 0.98411 0.44186 0.0
C303 C 0.44192 0.9483 0.43693 0.0
C304 C 0.53657 0.92645 0.55755 0.0
O305 O 0.45266 0.88128 0.60492 0.0
O306 O 0.43364 0.89696 0.54699 0.0
O307 O 0.50904 0.93754 0.5347 0.0
O308 O 0.52564 0.91994 0.59311 0.0
O309 O 0.46843 1.00029 0.56059 0.0
H310 H 0.46148 0.90542 0.47764 0.0
H311 H 0.41718 0.01668 0.49499 0.0
O312 O 0.49042 0.98337 0.61774 0.0
O313 O 0.41829 0.94482 0.6305 0.0
O314 O 0.39424 0.96037 0.57405 0.0
C315 C 0.38823 0.95503 0.61093 0.0
H316 H 0.53408 0.9117 0.74134 0.0
H317 H 0.44735 0.93402 0.40912 0.0
Co318 Co 0.54689 0.52862 0.57653 0.0
C319 C 0.54253 0.59298 0.62511 0.0
Co320 Co 0.57575 0.58051 0.54997 0.0
C321 C 0.52952 0.44793 0.59585 0.0
C322 C 0.48241 0.48585 0.61861 0.0
N323 N 0.51947 0.48532 0.5979 0.0
N324 N 0.50003 0.42512 0.61446 0.0
C325 C 0.47051 0.44922 0.62887 0.0
H326 H 0.55772 0.43777 0.58059 0.0
H327 H 0.46498 0.51137 0.62576 0.0
C328 C 0.5837 0.51823 0.50054 0.0
N329 N 0.6016 0.62368 0.52979 0.0
C330 C 0.62531 0.64831 0.54953 0.0
C331 C 0.59756 0.63998 0.49467 0.0
N332 N 0.63549 0.67973 0.52852 0.0
C333 C 0.61831 0.67468 0.49386 0.0
C334 C 0.62907 0.53859 0.59578 0.0
O335 O 0.5633 0.50042 0.52827 0.0
O336 O 0.59257 0.55331 0.50491 0.0
O337 O 0.62597 0.56765 0.57405 0.0
O338 O 0.59834 0.51496 0.59929 0.0
O339 O 0.55946 0.60814 0.59462 0.0
H340 H 0.57947 0.62804 0.47177 0.0
H341 H 0.63313 0.64418 0.5795 0.0
O342 O 0.53237 0.55764 0.62423 0.0
O343 O 0.49485 0.54376 0.55443 0.0
O344 O 0.52531 0.59394 0.52681 0.0
C345 C 0.49249 0.57363 0.53352 0.0
H346 H 0.4425 0.44125 0.6463 0.0
H347 H 0.62002 0.69492 0.46998 0.0
Co348 Co 0.60507 0.45404 0.98371 0.0
C349 C 0.66181 0.44628 0.91955 0.0
Co350 Co 0.57858 0.42793 0.93194 0.0
C351 C 0.61572 0.47845 0.06473 0.0
C352 C 0.65412 0.50928 0.02205 0.0
N353 N 0.62664 0.47974 0.02601 0.0
N354 N 0.63519 0.50624 0.08485 0.0
C355 C 0.65958 0.52535 0.05789 0.0
H356 H 0.59295 0.45835 0.07765 0.0
H357 H 0.66837 0.51948 0.99459 0.0
C358 C 0.5199 0.43467 0.99361 0.0
N359 N 0.55913 0.40437 0.88852 0.0
C360 C 0.58021 0.37668 0.86895 0.0
C361 C 0.52793 0.41365 0.86567 0.0
N362 N 0.56416 0.36861 0.83461 0.0
C363 C 0.53103 0.39161 0.83223 0.0
C364 C 0.61725 0.37612 0.98026 0.0
O365 O 0.55089 0.44702 1.01215 0.0
O366 O 0.52588 0.42403 0.95833 0.0
O367 O 0.59454 0.37954 0.95129 0.0
O368 O 0.62425 0.40546 1.00118 0.0
O369 O 0.62995 0.4317 0.90534 0.0
H370 H 0.5057 0.43606 0.87204 0.0
H371 H 0.60864 0.36436 0.87849 0.0
O372 O 0.65859 0.46049 0.95377 0.0
O373 O 0.58672 0.50209 0.96568 0.0
O374 O 0.56417 0.47664 0.91229 0.0
C375 C 0.57015 0.50592 0.93324 0.0
H376 H 0.68025 0.5492 0.06355 0.0
H377 H 0.51094 0.39275 0.80794 0.0
Co378 Co 0.47597 0.09098 0.97284 0.0
C379 C 0.55763 0.07188 0.99175 0.0
Co380 Co 0.49426 0.03136 0.95842 0.0
C381 C 0.44154 0.16569 0.96165 0.0
C382 C 0.47888 0.16371 1.01145 0.0
N383 N 0.46492 0.14203 0.98227 0.0
N384 N 0.44049 0.20127 0.97677 0.0
C385 C 0.46401 0.20007 1.00811 0.0
H386 H 0.42551 0.15696 0.93608 0.0
H387 H 0.49809 0.1536 0.03409 0.0
C388 C 0.41308 0.05217 0.93847 0.0
N389 N 0.50307 0.97853 0.94989 0.0
C390 C 0.53409 0.95606 0.93415 0.0
C391 C 0.47308 0.9534 0.96304 0.0
N392 N 0.52432 0.91821 0.938 0.0
C393 C 0.48587 0.91695 0.95598 0.0
C394 C 0.45739 0.04406 0.03496 0.0
O395 O 0.42238 0.08417 0.95321 0.0
O396 O 0.43898 0.02508 0.93972 0.0
O397 O 0.47363 0.01942 1.01158 0.0
O398 O 0.45464 0.07826 0.02341 0.0
O399 O 0.54993 0.0393 0.9767 0.0
H400 H 0.44337 0.96109 0.9773 0.0
H401 H 0.56333 0.96708 0.92088 0.0
O402 O 0.5299 0.09745 0.99218 0.0
O403 O 0.49662 0.1036 0.92227 0.0
O404 O 0.51356 0.04485 0.90556 0.0
C405 C 0.50977 0.07998 0.8965 0.0
H406 H 0.46881 0.22343 0.02815 0.0
H407 H 0.4678 0.89123 0.96307 0.0
C408 C 0.98922 0.07932 0.39785 0.0
C409 C 1.01309 0.11245 0.40464 0.0
H410 H 0.98526 0.01811 0.40189 0.0
C411 C 0.05069 0.10913 0.42342 0.0
H412 H 0.96048 0.08105 0.38277 0.0
C413 C 0.06451 0.07341 0.43477 0.0
C414 C 0.0417 0.04006 0.42647 0.0
H415 H 0.06988 0.13417 0.42863 0.0
H416 H 0.09385 0.0718 0.4489 0.0
C417 C 1.00369 0.04334 0.40823 0.0
C418 C 1.0025 0.32522 0.41432 0.0
C419 C 0.03962 0.30603 0.40266 0.0
H420 H 0.97392 0.37846 0.43025 0.0
C421 C 0.07775 0.32628 0.40355 0.0
H422 H 0.97242 0.31067 0.41388 0.0
C423 C 0.07859 0.3651 0.41338 0.0
C424 C 0.04126 0.38517 0.42202 0.0
H425 H 0.10696 0.31252 0.39507 0.0
H426 H 0.10868 0.3796 0.41299 0.0
C427 C 1.00328 0.3643 0.42369 0.0
C428 C 0.96137 0.82504 0.1317 0.0
C429 C 0.99938 0.80559 0.13183 0.0
H430 H 0.93092 0.87794 0.12346 0.0
C431 C 0.03661 0.82567 0.12042 0.0
H432 H 0.9321 0.81055 0.14013 0.0
C433 C 0.03612 0.86473 0.11163 0.0
C434 C 0.99834 0.88476 0.11378 0.0
H435 H 0.0666 0.81176 0.12036 0.0
H436 H 0.06562 0.87948 0.10502 0.0
C437 C 0.96084 0.86398 0.12257 0.0
C438 C 0.99669 0.61189 0.0969 0.0
C439 C 0.03248 0.61627 0.11849 0.0
H440 H 0.95419 0.57275 0.0708 0.0
C441 C 0.05492 0.58386 0.12806 0.0
H442 H 0.97861 0.63652 0.08967 0.0
C443 C 0.04003 0.54746 0.1187 0.0
C444 C 1.00319 0.54302 0.09866 0.0
H445 H 0.08212 0.58645 0.14533 0.0
H446 H 0.05674 0.52273 0.128 0.0
C447 C 0.98256 0.57553 0.08642 0.0
C448 C 0.4124 0.05327 0.13897 0.0
C449 C 0.40358 0.01512 0.1497 0.0
H450 H 0.43602 0.09211 0.0948 0.0
C451 C 0.41564 0.98602 0.12322 0.0
H452 H 0.40387 0.07651 0.15856 0.0
C453 C 0.4344 0.99511 0.08623 0.0
C454 C 0.44118 0.03346 0.07501 0.0
H455 H 0.40923 0.95635 0.13048 0.0
H456 H 0.44225 0.97221 0.06599 0.0
C457 C 0.43076 0.06229 0.10219 0.0
C458 C 0.65165 0.55402 0.18095 0.0
C459 C 0.64622 0.52305 0.20674 0.0
H460 H 0.65157 0.57315 0.12183 0.0
C461 C 0.62938 0.48857 0.19274 0.0
H462 H 0.6643 0.58102 0.1907 0.0
C463 C 0.623 0.48373 0.15303 0.0
C464 C 0.63303 0.51335 0.12646 0.0
H465 H 0.6244 0.46416 0.2119 0.0
H466 H 0.61326 0.4559 0.1429 0.0
C467 C 0.64505 0.54922 0.14124 0.0
C468 C 0.36761 0.04615 0.37643 0.0
C469 C 0.39005 0.04049 0.34032 0.0
H470 H 0.36226 0.0323 0.43784 0.0
C471 C 0.42882 0.02241 0.3402 0.0
H472 H 0.33709 0.05916 0.37729 0.0
C473 C 0.44313 1.00732 0.37462 0.0
C474 C 0.41873 1.0092 0.41006 0.0
H475 H 0.44652 0.01719 0.31287 0.0
H476 H 0.472 0.99156 0.37295 0.0
C477 C 0.38184 0.03057 0.4111 0.0
C478 C 0.61147 0.51232 0.39277 0.0
C479 C 0.63745 0.48036 0.38959 0.0
H480 H 0.57373 0.54848 0.43005 0.0
C481 C 0.63977 0.45662 0.42257 0.0
H482 H 0.60859 0.53109 0.36801 0.0
C483 C 0.61922 0.46669 0.45871 0.0
C484 C 0.5962 0.50059 0.46218 0.0
H485 H 0.6598 0.43198 0.4212 0.0
H486 H 0.62392 0.44964 0.48435 0.0
C487 C 0.59134 0.5223 0.42841 0.0
C488 C 0.15396 0.41895 0.06387 0.0
C489 C 0.16888 0.41682 0.02455 0.0
H490 H 0.10125 0.42151 0.10473 0.0
C491 C 0.13951 0.4184 0.99547 0.0
H492 H 0.1753 0.41779 0.08721 0.0
C493 C 0.09629 0.42064 1.00571 0.0
C494 C 0.08158 0.42071 0.04521 0.0
H495 H 0.14972 0.41643 0.96488 0.0
H496 H 0.0744 0.42123 0.98279 0.0
C497 C 0.11115 0.42059 0.074 0.0
C498 C 0.17295 0.59495 0.50579 0.0
C499 C 0.17369 0.6229 0.53528 0.0
H500 H 0.13537 0.55914 0.4704 0.0
C501 C 0.13567 0.63403 0.55403 0.0
H502 H 0.20182 0.58619 0.49053 0.0
C503 C 0.09755 0.61949 0.5416 0.0
C504 C 0.09676 0.59285 0.51083 0.0
H505 H 0.13521 0.65601 0.5763 0.0
H506 H 0.06861 0.62999 0.55529 0.0
C507 C 0.13492 0.57963 0.4941 0.0
C508 C 0.90144 0.94408 0.50712 0.0
C509 C 0.88852 0.92349 0.54092 0.0
H510 H 0.95262 0.96186 0.46819 0.0
C511 C 0.91936 0.91053 0.56535 0.0
H512 H 0.87869 0.95458 0.48772 0.0
C513 C 0.96218 0.91486 0.55405 0.0
C514 C 0.97445 0.93206 0.51819 0.0
H515 H 0.91048 0.89422 0.59141 0.0
H516 H 0.98532 0.90229 0.57174 0.0
C517 C 0.94383 0.94806 0.4958 0.0
C518 C 0.41205 0.63062 0.48103 0.0
C519 C 0.3749 0.62187 0.50333 0.0
H520 H 0.47846 0.6226 0.47335 0.0
C521 C 0.37612 0.59385 0.53265 0.0
H522 H 0.41236 0.65241 0.45864 0.0
C523 C 0.4138 0.57628 0.54068 0.0
C524 C 0.45153 0.587 0.52029 0.0
H525 H 0.34811 0.5866 0.55053 0.0
H526 H 0.41374 0.55597 0.56446 0.0
C527 C 0.45 0.61372 0.48971 0.0
C528 C 0.561 0.59218 0.86857 0.0
C529 C 0.54185 0.61859 0.8945 0.0
H530 H 0.58364 0.53524 0.86031 0.0
C531 C 0.53121 0.60751 0.93315 0.0
H532 H 0.56901 0.59998 0.83846 0.0
C533 C 0.54073 0.57083 0.94591 0.0
C534 C 0.55936 0.54428 0.91976 0.0
H535 H 0.51622 0.62737 0.95353 0.0
H536 H 0.53303 0.56301 0.97606 0.0
C537 C 0.56902 0.55514 0.8809 0.0
C538 C 0.57872 0.84645 0.872 0.0
C539 C 0.57019 0.81259 0.89341 0.0
H540 H 0.57051 0.90739 0.86955 0.0
C541 C 0.55375 0.81555 0.93205 0.0
H542 H 0.59056 0.84501 0.84181 0.0
C543 C 0.54282 0.85105 0.94789 0.0
C544 C 0.54709 0.88457 0.92529 0.0
H545 H 0.54655 0.79006 0.94916 0.0
H546 H 0.52805 0.85196 0.97709 0.0
C547 C 0.56712 0.88221 0.88779 0.0
C548 C 0.46393 0.3249 0.64098 0.0
C549 C 0.50176 0.30506 0.63866 0.0
H550 H 0.43339 0.378 0.63418 0.0
C551 C 0.5384 0.32468 0.62471 0.0
H552 H 0.4351 0.31076 0.65144 0.0
C553 C 0.53768 0.3636 0.61555 0.0
C554 C 0.50023 0.38403 0.61982 0.0
H555 H 0.56825 0.31046 0.62269 0.0
H556 H 0.5669 0.37791 0.60677 0.0
C557 C 0.46313 0.36376 0.63148 0.0
C558 C 0.55954 0.08649 0.62347 0.0
C559 C 0.53672 0.11917 0.61573 0.0
H560 H 0.56055 0.02539 0.62269 0.0
C561 C 0.49976 0.11552 0.59569 0.0
H562 H 0.58769 0.08855 0.6395 0.0
C563 C 0.48455 0.07945 0.58557 0.0
C564 C 0.50541 0.04667 0.59663 0.0
H565 H 0.48144 0.1404 0.58989 0.0
H566 H 0.45515 0.07711 0.57153 0.0
C567 C 0.54365 0.05042 0.61449 0.0
C568 C 0.92934 0.53684 0.63986 0.0
C569 C 0.91175 0.50041 0.64727 0.0
H570 H 0.95989 0.57483 0.5985 0.0
C571 C 0.91658 0.47225 0.61797 0.0
H572 H 0.9268 0.55912 0.66178 0.0
C573 C 0.93599 0.48139 0.5811 0.0
C574 C 0.95058 0.51882 0.57311 0.0
H575 H 0.90331 0.44391 0.62274 0.0
H576 H 0.93732 0.45995 0.5583 0.0
C577 C 0.94833 0.54589 0.60342 0.0
C578 C 0.15207 0.05947 0.67696 0.0
C579 C 0.14549 0.02959 0.70392 0.0
H580 H 0.15295 0.07649 0.61712 0.0
C581 C 0.1279 0.99497 0.69113 0.0
H582 H 0.1654 0.08653 0.68576 0.0
C583 C 0.12171 0.98883 0.65158 0.0
C584 C 0.13267 0.01728 0.62391 0.0
H585 H 0.12208 0.97138 0.71121 0.0
H586 H 0.11121 0.96087 0.64254 0.0
C587 C 0.14566 0.05338 0.63737 0.0
C588 C 0.87249 0.54115 0.87113 0.0
C589 C 0.89585 0.53482 0.83562 0.0
H590 H 0.8655 0.52858 0.93279 0.0
C591 C 0.93459 0.5169 0.83682 0.0
H592 H 0.84197 0.55405 0.87098 0.0
C593 C 0.94807 0.50274 0.872 0.0
C594 C 0.92276 0.50524 0.9069 0.0
H595 H 0.95297 0.51112 0.80999 0.0
H596 H 0.97702 0.48712 0.87135 0.0
C597 C 0.88581 0.5264 0.90655 0.0
C598 C 0.13646 0.96456 0.92036 0.0
C599 C 0.13597 0.99005 0.88858 0.0
H600 H 0.11938 0.95521 0.98159 0.0
C601 C 0.11229 0.02336 0.89326 0.0
H602 H 0.15461 0.93877 0.9178 0.0
C603 C 0.09267 0.03269 0.92928 0.0
C604 C 0.09568 1.00897 0.96192 0.0
H605 H 0.1107 0.04347 0.86944 0.0
H606 H 0.07665 0.05968 0.93207 0.0
C607 C 0.11634 0.97395 0.95686 0.0
C608 C 0.63957 0.92029 0.49539 0.0
C609 C 0.66899 0.92047 0.5245 0.0
H610 H 0.57436 0.92184 0.48273 0.0
C611 C 0.65427 0.92519 0.56359 0.0
H612 H 0.6497 0.91632 0.46499 0.0
C613 C 0.61153 0.92723 0.57368 0.0
C614 C 0.58187 0.92516 0.54502 0.0
H615 H 0.67574 0.9256 0.58689 0.0
H616 H 0.60174 0.93001 0.60432 0.0
C617 C 0.59638 0.92292 0.50555 0.0
C618 C 0.63668 0.12141 0.05316 0.0
C619 C 0.67428 0.11486 0.03129 0.0
H620 H 0.57006 0.113 0.05729 0.0
C621 C 0.6739 0.08919 0.99958 0.0
H622 H 0.63582 0.14136 0.07735 0.0
C623 C 0.63631 0.07229 0.98849 0.0
C624 C 0.59827 0.08162 1.00828 0.0
H625 H 0.70244 0.08377 0.98203 0.0
H626 H 0.63665 0.05433 0.96274 0.0
C627 C 0.59901 0.10537 0.04145 0.0
C628 C 0.42157 0.4175 0.05943 0.0
C629 C 0.39036 0.42593 0.03342 0.0
H630 H 0.48779 0.41384 0.06742 0.0
C631 C 0.4027 0.44275 0.99732 0.0
H632 H 0.41321 0.40428 0.08738 0.0
C633 C 0.44497 0.44731 0.9858 0.0
C634 C 0.47619 0.43588 1.01024 0.0
H635 H 0.37972 0.44988 0.97663 0.0
H636 H 0.45328 0.45829 0.95679 0.0
C637 C 0.46428 0.42268 0.04797 0.0
C638 C 0.91061 0.13278 0.97936 0.0
C639 C 0.87273 0.12148 0.99905 0.0
H640 H 0.97754 0.12783 0.97531 0.0
C641 C 0.87342 0.0921 0.02698 0.0
H642 H 0.91125 0.15574 0.95821 0.0
C643 C 0.91124 0.07572 0.03645 0.0
C644 C 0.94949 0.08905 0.01896 0.0
H645 H 0.84476 0.08299 0.0429 0.0
H646 H 0.9107 0.05431 0.05923 0.0
C647 C 0.94863 0.11704 0.98951 0.0
C648 C 1.00544 0.12308 0.23252 0.0
C649 C 0.03337 0.15394 0.23803 0.0
H650 H 0.98497 0.07911 0.19358 0.0
C651 C 0.06194 0.16439 0.20726 0.0
H652 H 0.98306 0.11431 0.25581 0.0
C653 C 0.06223 0.14501 0.17165 0.0
C654 C 0.03455 0.11406 0.16596 0.0
H655 H 0.08368 0.18806 0.2104 0.0
H656 H 0.08479 0.15409 0.14864 0.0
C657 C 1.00642 0.10295 0.19696 0.0
C658 C 0.95218 0.32591 0.30872 0.0
C659 C 0.93852 0.29099 0.29328 0.0
H660 H 0.97308 0.38328 0.2964 0.0
C661 C 0.92753 0.28939 0.25443 0.0
H662 H 0.96171 0.32745 0.33849 0.0
C663 C 0.93433 0.32124 0.23027 0.0
C664 C 0.95276 0.35489 0.24461 0.0
H665 H 0.91822 0.26248 0.24165 0.0
H666 H 0.92891 0.31817 0.19957 0.0
C667 C 0.95952 0.35757 0.28452 0.0
C668 C 0.07761 0.82242 0.24041 0.0
C669 C 0.09302 0.7867 0.25063 0.0
H670 H 0.05211 0.87536 0.26101 0.0
C671 C 0.10199 0.77976 0.28944 0.0
H672 H 0.06959 0.82794 0.21067 0.0
C673 C 0.09159 0.80678 0.3183 0.0
C674 C 0.07149 0.84061 0.30859 0.0
H675 H 0.11262 0.75198 0.29808 0.0
H676 H 0.09599 0.79983 0.34853 0.0
C677 C 0.06655 0.84906 0.26923 0.0
C678 C 0.03556 0.6199 0.29532 0.0
C679 C 1.00354 0.64576 0.28794 0.0
H680 H 0.06136 0.58183 0.33672 0.0
C681 C 0.97191 0.65188 0.31713 0.0
H682 H 0.06038 0.6145 0.27328 0.0
C683 C 0.97313 0.63399 0.35334 0.0
C684 C 1.00559 0.60895 0.36123 0.0
H685 H 0.94687 0.67154 0.31255 0.0
H686 H 0.94843 0.63989 0.37535 0.0
C687 C 0.03627 0.60123 0.33154 0.0
C688 C 0.20281 1.00592 0.16909 0.0
C689 C 0.22457 0.03969 0.17866 0.0
H690 H 0.15434 0.98015 0.13644 0.0
C691 C 0.21425 0.07384 0.16052 0.0
H692 H 0.21 0.97905 0.18256 0.0
C693 C 0.18323 0.07419 0.13329 0.0
C694 C 0.16102 0.04055 0.12406 0.0
H695 H 0.23056 0.10024 0.16693 0.0
H696 H 0.176 0.10119 0.12012 0.0
C697 C 0.17104 1.00643 0.14251 0.0
C698 C 0.80428 0.42381 0.18526 0.0
C699 C 0.79119 0.45978 0.19866 0.0
H700 H 0.84384 0.39287 0.14412 0.0
C701 C 0.80328 0.49212 0.17575 0.0
H702 H 0.79537 0.3983 0.20171 0.0
C703 C 0.83042 0.48893 0.14226 0.0
C704 C 0.84588 0.45329 0.13062 0.0
H705 H 0.79337 0.52038 0.18468 0.0
H706 H 0.84207 0.51463 0.12755 0.0
C707 C 0.83138 0.42067 0.15175 0.0
C708 C 0.22495 0.92798 0.32878 0.0
C709 C 0.25342 0.95847 0.33047 0.0
H710 H 0.17037 0.90078 0.35548 0.0
C711 C 0.25242 0.98211 0.36383 0.0
H712 H 0.22511 0.90952 0.30339 0.0
C713 C 0.22136 0.97713 0.39377 0.0
C714 C 0.19051 0.94883 0.39037 0.0
H715 H 0.27451 1.00569 0.36584 0.0
H716 H 0.21993 0.99689 0.41813 0.0
C717 C 0.1935 0.92335 0.35843 0.0
C718 C 0.82382 0.56594 0.37962 0.0
C719 C 0.81496 0.53062 0.36235 0.0
H720 H 0.86239 0.59731 0.41769 0.0
C721 C 0.83894 0.49885 0.37164 0.0
H722 H 0.80579 0.59087 0.37336 0.0
C723 C 0.87159 0.50249 0.39694 0.0
C724 C 0.88057 0.53785 0.41409 0.0
H725 H 0.83291 0.47115 0.35887 0.0
H726 H 0.89005 0.4777 0.40274 0.0
C727 C 0.85603 0.56946 0.4054 0.0
C728 C 0.16968 0.28492 0.04712 0.0
C729 C 0.20839 0.27934 0.06337 0.0
H730 H 0.11503 0.25876 0.02517 0.0
C731 C 0.21887 0.24283 0.07584 0.0
H732 H 0.16099 0.313 0.03742 0.0
C733 C 0.19235 0.21168 0.06872 0.0
C734 C 0.15568 0.21702 0.04876 0.0
H735 H 0.24887 0.23794 0.0879 0.0
H736 H 0.20189 0.18322 0.0762 0.0
C737 C 0.14368 0.254 0.03965 0.0
C738 C 0.18034 0.78708 0.45437 0.0
C739 C 0.20139 0.78062 0.48846 0.0
H740 H 0.13636 0.82127 0.42585 0.0
C741 C 0.19312 0.80486 0.52081 0.0
H742 H 0.18565 0.76882 0.42911 0.0
C743 C 0.16522 0.83518 0.51894 0.0
C744 C 0.14399 0.84162 0.48496 0.0
H745 H 0.20881 0.80076 0.54762 0.0
H746 H 0.16052 0.85374 0.54405 0.0
C747 C 0.15167 0.81694 0.45279 0.0
C748 C 0.84225 0.75622 0.45211 0.0
C749 C 0.85642 0.79198 0.46489 0.0
H750 H 0.85337 0.69586 0.45045 0.0
C751 C 0.89644 0.79533 0.47934 0.0
H752 H 0.81104 0.75288 0.44179 0.0
C753 C 0.91999 0.76295 0.4851 0.0
C754 C 0.90404 0.72664 0.47631 0.0
H755 H 0.90773 0.82261 0.48984 0.0
H756 H 0.94952 0.76603 0.49877 0.0
C757 C 0.86616 0.72363 0.45759 0.0
C758 C 0.3669 0.78587 0.60154 0.0
C759 C 0.35633 0.77285 0.56456 0.0
H760 H 0.40132 0.82737 0.63355 0.0
C761 C 0.37553 0.79062 0.53109 0.0
H762 H 0.35289 0.77275 0.62782 0.0
C763 C 0.40279 0.82166 0.5343 0.0
C764 C 0.41224 0.8356 0.57104 0.0
H765 H 0.36859 0.78138 0.50198 0.0
H766 H 0.41561 0.83544 0.50787 0.0
C767 C 0.39489 0.8169 0.60474 0.0
C768 C 0.56726 0.67109 0.69699 0.0
C769 C 0.54417 0.65985 0.73108 0.0
H770 H 0.58383 0.65963 0.63725 0.0
C771 C 0.51888 0.62654 0.73012 0.0
H772 H 0.58676 0.69667 0.6966 0.0
C773 C 0.51762 0.6045 0.69582 0.0
C774 C 0.54078 0.61602 0.66166 0.0
H775 H 0.50074 0.61714 0.75609 0.0
H776 H 0.49869 0.5786 0.69603 0.0
C777 C 0.56525 0.6498 0.66277 0.0
C778 C 0.43901 0.79631 0.75956 0.0
C779 C 0.45438 0.79793 0.79688 0.0
H780 H 0.43388 0.82511 0.70538 0.0
C781 C 0.46895 0.833 0.81121 0.0
H782 H 0.42886 0.76929 0.74759 0.0
C783 C 0.47292 0.86486 0.78683 0.0
C784 C 0.46201 0.86215 0.74789 0.0
H785 H 0.48189 0.83456 0.83972 0.0
H786 H 0.48734 0.89071 0.79751 0.0
C787 C 0.44253 0.8283 0.73526 0.0
C788 C 0.60648 0.27795 0.79208 0.0
C789 C 0.60024 0.28357 0.75246 0.0
H790 H 0.59917 0.30113 0.84978 0.0
C791 C 0.5882 0.31956 0.73956 0.0
H792 H 0.61437 0.25001 0.8027 0.0
C793 C 0.57792 0.34825 0.76645 0.0
C794 C 0.58029 0.34147 0.8065 0.0
H795 H 0.58214 0.32404 0.70913 0.0
H796 H 0.56608 0.37497 0.75615 0.0
C797 C 0.59691 0.30692 0.81897 0.0
C798 C 0.54758 0.11842 0.79737 0.0
C799 C 0.51077 0.13572 0.78555 0.0
H800 H 0.57638 0.08629 0.84195 0.0
C801 C 0.47332 0.12945 0.80812 0.0
H802 H 0.57702 0.12256 0.78059 0.0
C803 C 0.47311 0.10855 0.84275 0.0
C804 C 0.51019 0.09314 0.85565 0.0
H805 H 0.44438 0.142 0.79992 0.0
H806 H 0.44411 0.10594 0.86058 0.0
C807 C 0.54731 0.09733 0.83225 0.0
C808 C 0.72137 0.56788 0.65512 0.0
C809 C 0.73083 0.53367 0.67371 0.0
H810 H 0.68288 0.59591 0.61527 0.0
C811 C 0.70738 0.50052 0.66534 0.0
H812 H 0.73891 0.59383 0.66063 0.0
C813 C 0.6748 0.50172 0.63963 0.0
C814 C 0.66551 0.5359 0.62084 0.0
H815 H 0.71381 0.47364 0.67916 0.0
H816 H 0.65682 0.47592 0.63454 0.0
C817 C 0.68946 0.56889 0.62875 0.0
C818 C 0.30308 0.9977 0.67563 0.0
C819 C 0.29134 0.96621 0.69988 0.0
H820 H 0.34208 0.01874 0.62685 0.0
C821 C 0.30561 0.92998 0.68856 0.0
H822 H 0.29224 0.02608 0.68299 0.0
C823 C 0.33346 0.92589 0.65574 0.0
C824 C 0.34744 0.95778 0.63321 0.0
H825 H 0.29702 0.9051 0.70611 0.0
H826 H 0.34667 0.89806 0.64963 0.0
C827 C 0.3309 0.99354 0.64276 0.0
C828 C 0.75533 0.48494 0.86083 0.0
C829 C 0.75936 0.45726 0.83092 0.0
H830 H 0.72162 0.50278 0.91351 0.0
C831 C 0.73658 0.42299 0.83492 0.0
H832 H 0.77331 0.5114 0.85885 0.0
C833 C 0.70716 0.41819 0.86629 0.0
C834 C 0.70051 0.44737 0.89429 0.0
H835 H 0.73939 0.40114 0.81259 0.0
H836 H 0.68774 0.39255 0.86738 0.0
C837 C 0.72624 0.47995 0.89243 0.0
C838 C 0.32257 0.07701 0.87671 0.0
C839 C 0.31085 0.04096 0.8626 0.0
H840 H 0.36345 0.10879 0.91253 0.0
C841 C 0.33136 1.00854 0.87574 0.0
H842 H 0.30723 0.1025 0.86742 0.0
C843 C 0.36343 1.01207 0.90152 0.0
C844 C 0.37563 0.04809 0.9152 0.0
H845 H 0.32311 0.98025 0.86564 0.0
H846 H 0.37918 0.98656 0.91019 0.0
C847 C 0.35449 0.08052 0.90289 0.0
C848 C 0.71528 0.74238 0.57401 0.0
C849 C 0.70493 0.77794 0.55896 0.0
H850 H 0.70082 0.6823 0.57536 0.0
C851 C 0.66854 0.78131 0.5383 0.0
H852 H 0.74353 0.73915 0.58954 0.0
C853 C 0.64497 0.74916 0.52955 0.0
C854 C 0.65707 0.71307 0.54164 0.0
H855 H 0.65986 0.80862 0.52662 0.0
H856 H 0.61805 0.75233 0.51217 0.0
C857 C 0.69123 0.70998 0.56548 0.0
C858 C 0.67522 0.28462 0.95361 0.0
C859 C 0.69689 0.27782 0.98725 0.0
H860 H 0.63179 0.31982 0.92572 0.0
C861 C 0.68999 0.30232 0.01962 0.0
H862 H 0.67945 0.26616 0.92838 0.0
C863 C 0.66313 0.33346 0.01803 0.0
C864 C 0.64154 0.34045 0.98436 0.0
H865 H 0.70618 0.29793 0.04609 0.0
H866 H 0.65973 0.35236 0.043 0.0
C867 C 0.64751 0.31524 0.95237 0.0
C868 C 0.34785 0.25705 0.94878 0.0
C869 C 0.35975 0.29376 0.96071 0.0
H870 H 0.36475 0.19812 0.94473 0.0
C871 C 0.40091 0.30048 0.9713 0.0
H872 H 0.31592 0.25112 0.94141 0.0
C873 C 0.42862 0.27038 0.9735 0.0
C874 C 0.41557 0.23288 0.96551 0.0
H875 H 0.41054 0.32856 0.98105 0.0
H876 H 0.45941 0.27609 0.98389 0.0
C877 C 0.3757 0.22673 0.95105 0.0
C878 C 0.86481 0.28213 0.09828 0.0
C879 C 0.85263 0.27034 0.06139 0.0
H880 H 0.90114 0.32217 0.1303 0.0
C881 C 0.87068 0.28906 0.02795 0.0
H882 H 0.85174 0.26829 0.12454 0.0
C883 C 0.89861 0.31963 0.03118 0.0
C884 C 0.90989 0.33224 0.06789 0.0
H885 H 0.86244 0.28083 0.99889 0.0
H886 H 0.91059 0.33405 1.00482 0.0
C887 C 0.89341 0.31273 0.10148 0.0
loop_
_geom_bond_atom_site_label_1
_geom_bond_atom_site_label_2
_geom_bond_distance
_geom_bond_site_symmetry_2
_ccdc_geom_bond_type
C0 O2 1.247 . S
C0 O4 1.258 . S
C1 O8 1.247 1_455 S
C1 O9 1.258 . S
O2 C0 1.247 . S
O2 Zn3 2.028 . S
Zn3 O2 2.028 . S
Zn3 O7 2.035 . S
Zn3 O9 2.035 . S
Zn3 O10 2.028 . S
O4 C0 1.258 . S
O4 Zn5 2.035 1_455 S
Zn5 O4 2.035 1_655 S
Zn5 O6 2.028 . S
Zn5 O8 2.028 . S
Zn5 O11 2.035 1_655 S
O6 Zn5 2.028 . S
O6 C12 1.247 1_655 S
O7 Zn3 2.035 . S
O7 C12 1.258 . S
O8 C1 1.247 1_655 S
O8 Zn5 2.028 . S
O9 C1 1.258 . S
O9 Zn3 2.035 . S
O10 Zn3 2.028 . S
O10 C13 1.247 . S
O11 Zn5 2.035 1_455 S
O11 C13 1.258 . S
C12 O6 1.247 1_455 S
C12 O7 1.258 . S
C13 O10 1.247 . S
C13 O11 1.258 . S
C14 O16 1.247 . S
C14 O18 1.258 1_455 S
C15 O22 1.247 . S
C15 O23 1.258 1_655 S
O16 C14 1.247 . S
O16 Zn17 2.028 . S
Zn17 O16 2.028 . S
Zn17 O21 2.035 . S
Zn17 O23 2.035 . S
Zn17 O24 2.028 . S
O18 C14 1.258 1_655 S
O18 Zn19 2.035 . S
Zn19 O18 2.035 . S
Zn19 O20 2.028 . S
Zn19 O22 2.028 . S
Zn19 O25 2.035 . S
O20 Zn19 2.028 . S
O20 C26 1.268 . S
O21 Zn17 2.035 . S
O21 C26 1.236 1_455 S
O22 C15 1.247 . S
O22 Zn19 2.028 . S
O23 C15 1.258 1_455 S
O23 Zn17 2.035 . S
O24 Zn17 2.028 . S
O24 C27 1.247 . S
O25 Zn19 2.035 . S
O25 C27 1.258 1_655 S
C26 O20 1.268 . S
C26 O21 1.236 1_655 S
C27 O24 1.247 . S
C27 O25 1.258 1_455 S
C28 O30 1.247 1_545 S
C28 O32 1.258 . S
C29 O36 1.247 1_565 S
C29 O37 1.258 . S
O30 C28 1.247 1_565 S
O30 Zn31 2.028 . S
Zn31 O30 2.028 . S
Zn31 O35 2.035 . S
Zn31 O37 2.035 . S
Zn31 O38 2.028 . S
O32 C28 1.258 . S
O32 Zn33 2.035 . S
Zn33 O32 2.035 . S
Zn33 O34 2.028 . S
Zn33 O36 2.028 . S
Zn33 O39 2.035 . S
O34 Zn33 2.028 . S
O34 C40 1.247 1_545 S
O35 Zn31 2.035 . S
O35 C40 1.258 . S
O36 C29 1.247 1_545 S
O36 Zn33 2.028 . S
O37 C29 1.258 . S
O37 Zn31 2.035 . S
O38 Zn31 2.028 . S
O38 C41 1.247 1_565 S
O39 Zn33 2.035 . S
O39 C41 1.258 . S
C40 O34 1.247 1_565 S
C40 O35 1.258 . S
C41 O38 1.247 1_545 S
C41 O39 1.258 . S
C42 O44 1.247 . S
C42 O46 1.258 . S
C43 O50 1.247 . S
C43 O51 1.258 . S
O44 C42 1.247 . S
O44 Zn45 2.028 . S
Zn45 O44 2.028 . S
Zn45 O49 2.035 . S
Zn45 O51 2.035 . S
Zn45 O52 2.028 . S
O46 C42 1.258 . S
O46 Zn47 2.035 . S
Zn47 O46 2.035 . S
Zn47 O48 2.028 . S
Zn47 O50 2.028 . S
Zn47 O53 2.035 . S
O48 Zn47 2.028 . S
O48 C54 1.247 . S
O49 Zn45 2.035 . S
O49 C54 1.258 . S
O50 C43 1.247 . S
O50 Zn47 2.028 . S
O51 C43 1.258 . S
O51 Zn45 2.035 . S
O52 Zn45 2.028 . S
O52 C55 1.247 . S
O53 Zn47 2.035 . S
O53 C55 1.258 . S
C54 O48 1.247 . S
C54 O49 1.258 . S
C55 O52 1.247 . S
C55 O53 1.258 . S
C56 O58 1.247 1_554 S
C56 O60 1.258 . S
C57 O64 1.247 . S
C57 O65 1.258 1_554 S
O58 C56 1.247 1_556 S
O58 Zn59 2.028 . S
Zn59 O58 2.028 . S
Zn59 O63 2.035 . S
Zn59 O65 2.035 . S
Zn59 O66 2.028 . S
O60 C56 1.258 . S
O60 Zn61 2.035 . S
Zn61 O60 2.035 . S
Zn61 O62 2.028 . S
Zn61 O64 2.028 . S
Zn61 O67 2.035 . S
O62 Zn61 2.028 . S
O62 C68 1.247 . S
O63 Zn59 2.035 . S
O63 C68 1.258 1_556 S
O64 C57 1.247 . S
O64 Zn61 2.028 . S
O65 C57 1.258 1_556 S
O65 Zn59 2.035 . S
O66 Zn59 2.028 . S
O66 C69 1.247 1_556 S
O67 Zn61 2.035 . S
O67 C69 1.258 . S
C68 O62 1.247 . S
C68 O63 1.258 1_554 S
C69 O66 1.247 1_554 S
C69 O67 1.258 . S
C70 O72 1.247 . S
C70 O74 1.258 . S
C71 O78 1.247 . S
C71 O79 1.258 . S
O72 C70 1.247 . S
O72 Zn73 2.028 . S
Zn73 O72 2.028 . S
Zn73 O77 2.035 . S
Zn73 O79 2.035 . S
Zn73 O80 2.028 . S
O74 C70 1.258 . S
O74 Zn75 2.035 . S
Zn75 O74 2.035 . S
Zn75 O76 2.028 . S
Zn75 O78 2.028 . S
Zn75 O81 2.035 . S
O76 Zn75 2.028 . S
O76 C82 1.247 . S
O77 Zn73 2.035 . S
O77 C82 1.258 . S
O78 C71 1.247 . S
O78 Zn75 2.028 . S
O79 C71 1.258 . S
O79 Zn73 2.035 . S
O80 Zn73 2.028 . S
O80 C83 1.247 . S
O81 Zn75 2.035 . S
O81 C83 1.258 . S
C82 O76 1.247 . S
C82 O77 1.258 . S
C83 O80 1.247 . S
C83 O81 1.258 . S
C84 O86 1.247 . S
C84 O88 1.258 . S
C85 O92 1.247 . S
C85 O93 1.258 . S
O86 C84 1.247 . S
O86 Zn87 2.028 . S
Zn87 O86 2.028 . S
Zn87 O91 2.035 . S
Zn87 O93 2.035 . S
Zn87 O94 2.028 . S
O88 C84 1.258 . S
O88 Zn89 2.035 . S
Zn89 O88 2.035 . S
Zn89 O90 2.028 . S
Zn89 O92 2.028 . S
Zn89 O95 2.035 . S
O90 Zn89 2.028 . S
O90 C96 1.247 . S
O91 Zn87 2.035 . S
O91 C96 1.258 . S
O92 C85 1.247 . S
O92 Zn89 2.028 . S
O93 C85 1.258 . S
O93 Zn87 2.035 . S
O94 Zn87 2.028 . S
O94 C97 1.247 . S
O95 Zn89 2.035 . S
O95 C97 1.258 . S
C96 O90 1.247 . S
C96 O91 1.258 . S
C97 O94 1.247 . S
C97 O95 1.258 . S
C98 O100 1.247 . S
C98 O102 1.258 . S
C99 O106 1.247 . S
C99 O107 1.258 . S
O100 C98 1.247 . S
O100 Zn101 2.028 . S
Zn101 O100 2.028 . S
Zn101 O105 2.035 . S
Zn101 O107 2.035 . S
Zn101 O108 2.028 . S
O102 C98 1.258 . S
O102 Zn103 2.035 . S
Zn103 O102 2.035 . S
Zn103 O104 2.028 . S
Zn103 O106 2.028 . S
Zn103 O109 2.035 . S
O104 Zn103 2.028 . S
O104 C110 1.247 . S
O105 Zn101 2.035 . S
O105 C110 1.258 . S
O106 C99 1.247 . S
O106 Zn103 2.028 . S
O107 C99 1.258 . S
O107 Zn101 2.035 . S
O108 Zn101 2.028 . S
O108 C111 1.247 . S
O109 Zn103 2.035 . S
O109 C111 1.258 . S
C110 O104 1.247 . S
C110 O105 1.258 . S
C111 O108 1.247 . S
C111 O109 1.258 . S
C112 O114 1.247 . S
C112 O116 1.258 . S
C113 O120 1.247 . S
C113 O121 1.258 . S
O114 C112 1.247 . S
O114 Zn115 2.028 . S
Zn115 O114 2.028 . S
Zn115 O119 2.035 . S
Zn115 O121 2.035 . S
Zn115 O122 2.028 . S
O116 C112 1.258 . S
O116 Zn117 2.035 . S
Zn117 O116 2.035 . S
Zn117 O118 2.028 . S
Zn117 O120 2.028 . S
Zn117 O123 2.035 . S
O118 Zn117 2.028 . S
O118 C124 1.247 . S
O119 Zn115 2.035 . S
O119 C124 1.258 . S
O120 C113 1.247 . S
O120 Zn117 2.028 . S
O121 C113 1.258 . S
O121 Zn115 2.035 . S
O122 Zn115 2.028 . S
O122 C125 1.247 . S
O123 Zn117 2.035 . S
O123 C125 1.258 . S
C124 O118 1.247 . S
C124 O119 1.258 . S
C125 O122 1.247 . S
C125 O123 1.258 . S
C126 O128 1.247 . S
C126 O130 1.258 . S
C127 O134 1.247 . S
C127 O135 1.258 . S
O128 C126 1.247 . S
O128 Zn129 2.028 . S
Zn129 O128 2.028 . S
Zn129 O133 2.035 . S
Zn129 O135 2.035 . S
Zn129 O136 2.028 . S
O130 C126 1.258 . S
O130 Zn131 2.035 . S
Zn131 O130 2.035 . S
Zn131 O132 2.028 . S
Zn131 O134 2.028 . S
Zn131 O137 2.035 . S
O132 Zn131 2.028 . S
O132 C138 1.247 . S
O133 Zn129 2.035 . S
O133 C138 1.258 . S
O134 C127 1.247 . S
O134 Zn131 2.028 . S
O135 C127 1.258 . S
O135 Zn129 2.035 . S
O136 Zn129 2.028 . S
O136 C139 1.247 . S
O137 Zn131 2.035 . S
O137 C139 1.258 . S
C138 O132 1.247 . S
C138 O133 1.258 . S
C139 O136 1.247 . S
C139 O137 1.258 . S
C140 O142 1.247 . S
C140 O144 1.258 1_565 S
C141 O148 1.247 . S
C141 O149 1.258 1_545 S
O142 C140 1.247 . S
O142 Zn143 2.028 . S
Zn143 O142 2.028 . S
Zn143 O147 2.035 . S
Zn143 O149 2.035 . S
Zn143 O150 2.028 . S
O144 C140 1.258 1_545 S
O144 Zn145 2.035 . S
Zn145 O144 2.035 . S
Zn145 O146 2.028 . S
Zn145 O148 2.028 . S
Zn145 O151 2.035 . S
O146 Zn145 2.028 . S
O146 C152 1.247 . S
O147 Zn143 2.035 . S
O147 C152 1.258 1_565 S
O148 C141 1.247 . S
O148 Zn145 2.028 . S
O149 C141 1.258 1_565 S
O149 Zn143 2.035 . S
O150 Zn143 2.028 . S
O150 C153 1.247 . S
O151 Zn145 2.035 . S
O151 C153 1.258 1_545 S
C152 O146 1.247 . S
C152 O147 1.258 1_545 S
C153 O150 1.247 . S
C153 O151 1.258 1_565 S
C154 O156 1.247 . S
C154 O158 1.258 1_554 S
C155 O162 1.247 1_554 S
C155 O163 1.258 . S
O156 C154 1.247 . S
O156 Zn157 2.028 . S
Zn157 O156 2.028 . S
Zn157 O161 2.035 . S
Zn157 O163 2.035 . S
Zn157 O164 2.028 . S
O158 C154 1.258 1_556 S
O158 Zn159 2.035 . S
Zn159 O158 2.035 . S
Zn159 O160 2.028 . S
Zn159 O162 2.028 . S
Zn159 O165 2.035 . S
O160 Zn159 2.028 . S
O160 C166 1.247 1_556 S
O161 Zn157 2.035 . S
O161 C166 1.258 . S
O162 C155 1.247 1_556 S
O162 Zn159 2.028 . S
O163 C155 1.258 . S
O163 Zn157 2.035 . S
O164 Zn157 2.028 . S
O164 C167 1.247 . S
O165 Zn159 2.035 . S
O165 C167 1.258 1_556 S
C166 O160 1.247 1_554 S
C166 O161 1.258 . S
C167 O164 1.247 . S
C167 O165 1.258 1_554 S
Co168 N173 2.057 1_445 S
Co168 O185 2.021 1_544 S
Co168 O188 2.062 1_545 S
Co168 O192 2.117 . S
Co168 O193 2.020 1_455 S
C169 O189 1.259 . S
C169 O192 1.258 . S
Co170 N179 2.057 . S
Co170 O186 2.117 1_554 S
Co170 O187 2.020 . S
Co170 O189 2.021 . S
Co170 O194 2.062 . S
C171 N173 1.316 . S
C171 N174 1.347 . S
C171 H176 0.931 1_655 S
C172 N173 1.375 . S
C172 C175 1.350 . S
C172 H177 0.930 . S
N173 Co168 2.057 1_665 S
N173 C171 1.316 . S
N173 C172 1.375 . S
N174 C171 1.347 . S
N174 C175 1.373 . S
C175 C172 1.350 . S
C175 N174 1.373 . S
C175 H196 0.931 . S
H176 C171 0.931 1_455 S
H177 C172 0.930 . S
C178 O185 1.259 1_545 S
C178 O186 1.258 . S
N179 Co170 2.057 . S
N179 C180 1.316 . S
N179 C181 1.375 1_554 S
C180 N179 1.316 . S
C180 N182 1.347 . S
C180 H191 0.931 . S
C181 N179 1.375 1_556 S
C181 C183 1.350 . S
C181 H190 0.930 . S
N182 C180 1.347 . S
N182 C183 1.373 1_554 S
C183 C181 1.350 . S
C183 N182 1.373 1_556 S
C183 H197 0.931 . S
C184 O187 1.256 . S
C184 O188 1.255 1_545 S
O185 Co168 2.021 1_566 S
O185 C178 1.259 1_565 S
O186 Co170 2.117 1_556 S
O186 C178 1.258 . S
O187 Co170 2.020 . S
O187 C184 1.256 . S
O188 Co168 2.062 1_565 S
O188 C184 1.255 1_565 S
O189 C169 1.259 . S
O189 Co170 2.021 . S
H190 C181 0.930 . S
H191 C180 0.931 . S
O192 Co168 2.117 . S
O192 C169 1.258 . S
O193 Co168 2.020 1_655 S
O193 C195 1.256 . S
O194 Co170 2.062 . S
O194 C195 1.255 1_455 S
C195 O193 1.256 . S
C195 O194 1.255 1_655 S
H196 C175 0.931 . S
H197 C183 0.931 . S
Co198 N203 2.057 . S
Co198 O215 2.021 . S
Co198 O218 2.062 1_655 S
Co198 O222 2.117 . S
Co198 O223 2.020 . S
C199 O219 1.259 . S
C199 O222 1.258 . S
Co200 N209 2.057 1_554 S
Co200 O216 2.117 . S
Co200 O217 2.020 . S
Co200 O219 2.021 . S
Co200 O224 2.062 . S
C201 N203 1.316 . S
C201 N204 1.347 1_655 S
C201 H206 0.931 . S
C202 N203 1.375 1_455 S
C202 C205 1.350 . S
C202 H207 0.930 . S
N203 Co198 2.057 . S
N203 C201 1.316 . S
N203 C202 1.375 1_655 S
N204 C201 1.347 1_455 S
N204 C205 1.373 . S
C205 C202 1.350 . S
C205 N204 1.373 . S
C205 H226 0.931 . S
H206 C201 0.931 . S
H207 C202 0.930 . S
C208 O215 1.259 . S
C208 O216 1.258 . S
N209 Co200 2.057 1_556 S
N209 C210 1.316 . S
N209 C211 1.375 . S
C210 N209 1.316 . S
C210 N212 1.347 . S
C210 H221 0.931 . S
C211 N209 1.375 . S
C211 C213 1.350 . S
C211 H220 0.930 . S
N212 C210 1.347 . S
N212 C213 1.373 . S
C213 C211 1.350 . S
C213 N212 1.373 . S
C213 H227 0.931 . S
C214 O217 1.256 1_455 S
C214 O218 1.255 . S
O215 Co198 2.021 . S
O215 C208 1.259 . S
O216 Co200 2.117 . S
O216 C208 1.258 . S
O217 Co200 2.020 . S
O217 C214 1.256 1_655 S
O218 Co198 2.062 1_455 S
O218 C214 1.255 . S
O219 C199 1.259 . S
O219 Co200 2.021 . S
H220 C211 0.930 . S
H221 C210 0.931 . S
O222 Co198 2.117 . S
O222 C199 1.258 . S
O223 Co198 2.020 . S
O223 C225 1.256 . S
O224 Co200 2.062 . S
O224 C225 1.255 . S
C225 O223 1.256 . S
C225 O224 1.255 . S
H226 C205 0.931 . S
H227 C213 0.931 . S
Co228 N233 2.057 . S
Co228 O245 2.021 . S
Co228 O248 2.062 . S
Co228 O252 2.117 . S
Co228 O253 2.020 . S
C229 O249 1.259 . S
C229 O252 1.258 . S
Co230 N239 2.057 . S
Co230 O246 2.117 1_455 S
Co230 O247 2.020 . S
Co230 O249 2.021 . S
Co230 O254 2.062 . S
C231 N233 1.316 . S
C231 N234 1.347 1_565 S
C231 H236 0.931 . S
C232 N233 1.375 1_545 S
C232 C235 1.350 . S
C232 H237 0.930 . S
N233 Co228 2.057 . S
N233 C231 1.316 . S
N233 C232 1.375 1_565 S
N234 C231 1.347 1_545 S
N234 C235 1.373 . S
C235 C232 1.350 . S
C235 N234 1.373 . S
C235 H256 0.931 . S
H236 C231 0.931 . S
H237 C232 0.930 . S
C238 O245 1.259 1_655 S
C238 O246 1.258 . S
N239 Co230 2.057 . S
N239 C240 1.316 . S
N239 C241 1.375 1_455 S
C240 N239 1.316 . S
C240 N242 1.343 1_455 S
C240 H251 0.931 . S
C241 N239 1.375 1_655 S
C241 C243 1.350 . S
C241 H250 0.930 . S
N242 C240 1.343 1_655 S
N242 C243 1.377 . S
C243 C241 1.350 . S
C243 N242 1.377 . S
C243 H257 0.931 . S
C244 O247 1.256 . S
C244 O248 1.255 . S
O245 Co228 2.021 . S
O245 C238 1.259 1_455 S
O246 Co230 2.117 1_655 S
O246 C238 1.258 . S
O247 Co230 2.020 . S
O247 C244 1.256 . S
O248 Co228 2.062 . S
O248 C244 1.255 . S
O249 C229 1.259 . S
O249 Co230 2.021 . S
H250 C241 0.930 . S
H251 C240 0.931 . S
O252 Co228 2.117 . S
O252 C229 1.258 . S
O253 Co228 2.020 . S
O253 C255 1.256 . S
O254 Co230 2.062 . S
O254 C255 1.255 . S
C255 O253 1.256 . S
C255 O254 1.255 . S
H256 C235 0.931 . S
H257 C243 0.931 . S
Co258 N263 2.057 . S
Co258 O275 2.021 . S
Co258 O278 2.062 . S
Co258 O282 2.102 1_655 S
Co258 O283 2.020 . S
C259 O279 1.259 . S
C259 O282 1.271 . S
Co260 N269 2.057 . S
Co260 O276 2.117 . S
Co260 O277 2.020 . S
Co260 O279 2.021 1_655 S
Co260 O284 2.057 1_655 S
C261 N263 1.316 . S
C261 N264 1.347 . S
C261 H266 0.931 . S
C262 N263 1.375 . S
C262 C265 1.350 . S
C262 H267 0.930 . S
N263 Co258 2.057 . S
N263 C261 1.316 . S
N263 C262 1.375 . S
N264 C261 1.347 . S
N264 C265 1.373 . S
C265 C262 1.350 . S
C265 N264 1.373 . S
C265 H286 0.931 . S
H266 C261 0.931 . S
H267 C262 0.930 . S
C268 O275 1.259 . S
C268 O276 1.258 . S
N269 Co260 2.057 . S
N269 C270 1.316 1_655 S
N269 C271 1.375 . S
C270 N269 1.316 1_455 S
C270 N272 1.347 . S
C270 H281 0.931 . S
C271 N269 1.375 . S
C271 C273 1.350 . S
C271 H280 0.930 . S
N272 C270 1.347 . S
N272 C273 1.373 1_455 S
C273 C271 1.350 . S
C273 N272 1.373 1_655 S
C273 H287 0.931 . S
C274 O277 1.256 . S
C274 O278 1.255 . S
O275 Co258 2.021 . S
O275 C268 1.259 . S
O276 Co260 2.117 . S
O276 C268 1.258 . S
O277 Co260 2.020 . S
O277 C274 1.256 . S
O278 Co258 2.062 . S
O278 C274 1.255 . S
O279 C259 1.259 . S
O279 Co260 2.021 1_455 S
H280 C271 0.930 . S
H281 C270 0.931 . S
O282 Co258 2.102 1_455 S
O282 C259 1.271 . S
O283 Co258 2.020 . S
O283 C285 1.256 . S
O284 Co260 2.057 1_455 S
O284 C285 1.250 1_455 S
C285 O283 1.256 . S
C285 O284 1.250 1_655 S
H286 C265 0.931 . S
H287 C273 0.931 . S
Co288 N293 2.057 . S
Co288 O305 2.021 . S
Co288 O308 2.062 . S
Co288 O312 2.117 . S
Co288 O313 2.020 . S
C289 O309 1.260 . S
C289 O312 1.258 . S
Co290 N299 2.057 . S
Co290 O306 2.117 . S
Co290 O307 2.020 . S
Co290 O309 2.022 . S
Co290 O314 2.062 . S
C291 N293 1.316 . S
C291 N294 1.347 . S
C291 H296 0.931 . S
C292 N293 1.375 . S
C292 C295 1.350 . S
C292 H297 0.930 . S
N293 Co288 2.057 . S
N293 C291 1.316 . S
N293 C292 1.375 . S
N294 C291 1.347 . S
N294 C295 1.373 . S
C295 C292 1.350 . S
C295 N294 1.373 . S
C295 H316 0.931 . S
H296 C291 0.931 . S
H297 C292 0.930 . S
C298 O305 1.259 . S
C298 O306 1.258 . S
N299 Co290 2.057 . S
N299 C300 1.313 1_565 S
N299 C301 1.375 . S
C300 N299 1.313 1_545 S
C300 N302 1.347 . S
C300 H311 0.934 . S
C301 N299 1.375 . S
C301 C303 1.350 . S
C301 H310 0.930 . S
N302 C300 1.347 . S
N302 C303 1.372 1_545 S
C303 C301 1.350 . S
C303 N302 1.372 1_565 S
C303 H317 0.931 . S
C304 O307 1.256 . S
C304 O308 1.255 . S
O305 Co288 2.021 . S
O305 C298 1.259 . S
O306 Co290 2.117 . S
O306 C298 1.258 . S
O307 Co290 2.020 . S
O307 C304 1.256 . S
O308 Co288 2.062 . S
O308 C304 1.255 . S
O309 C289 1.260 . S
O309 Co290 2.022 . S
H310 C301 0.930 . S
H311 C300 0.934 . S
O312 Co288 2.117 . S
O312 C289 1.258 . S
O313 Co288 2.020 . S
O313 C315 1.256 . S
O314 Co290 2.062 . S
O314 C315 1.255 . S
C315 O313 1.256 . S
C315 O314 1.255 . S
H316 C295 0.931 . S
H317 C303 0.931 . S
Co318 N323 2.057 . S
Co318 O335 2.021 . S
Co318 O338 2.062 . S
Co318 O342 2.117 . S
Co318 O343 2.020 . S
C319 O339 1.259 . S
C319 O342 1.258 . S
Co320 N329 2.057 . S
Co320 O336 2.117 . S
Co320 O337 2.020 . S
Co320 O339 2.021 . S
Co320 O344 2.062 . S
C321 N323 1.316 . S
C321 N324 1.347 . S
C321 H326 0.931 . S
C322 N323 1.375 . S
C322 C325 1.350 . S
C322 H327 0.930 . S
N323 Co318 2.057 . S
N323 C321 1.316 . S
N323 C322 1.375 . S
N324 C321 1.347 . S
N324 C325 1.373 . S
C325 C322 1.350 . S
C325 N324 1.373 . S
C325 H346 0.931 . S
H326 C321 0.931 . S
H327 C322 0.930 . S
C328 O335 1.259 . S
C328 O336 1.258 . S
N329 Co320 2.057 . S
N329 C330 1.316 . S
N329 C331 1.375 . S
C330 N329 1.316 . S
C330 N332 1.347 . S
C330 H341 0.931 . S
C331 N329 1.375 . S
C331 C333 1.350 . S
C331 H340 0.930 . S
N332 C330 1.347 . S
N332 C333 1.373 . S
C333 C331 1.350 . S
C333 N332 1.373 . S
C333 H347 0.931 . S
C334 O337 1.256 . S
C334 O338 1.255 . S
O335 Co318 2.021 . S
O335 C328 1.259 . S
O336 Co320 2.117 . S
O336 C328 1.258 . S
O337 Co320 2.020 . S
O337 C334 1.256 . S
O338 Co318 2.062 . S
O338 C334 1.255 . S
O339 C319 1.259 . S
O339 Co320 2.021 . S
H340 C331 0.930 . S
H341 C330 0.931 . S
O342 Co318 2.117 . S
O342 C319 1.258 . S
O343 Co318 2.020 . S
O343 C345 1.256 . S
O344 Co320 2.062 . S
O344 C345 1.255 . S
C345 O343 1.256 . S
C345 O344 1.255 . S
H346 C325 0.931 . S
H347 C333 0.931 . S
Co348 N353 2.057 1_556 S
Co348 O365 2.021 1_556 S
Co348 O368 2.062 . S
Co348 O372 2.117 . S
Co348 O373 2.020 . S
C349 O369 1.259 . S
C349 O372 1.258 . S
Co350 N359 2.057 . S
Co350 O366 2.117 . S
Co350 O367 2.020 . S
Co350 O369 2.021 . S
Co350 O374 2.062 . S
C351 N353 1.316 . S
C351 N354 1.347 . S
C351 H356 0.931 . S
C352 N353 1.375 . S
C352 C355 1.350 . S
C352 H357 0.930 1_554 S
N353 Co348 2.057 1_554 S
N353 C351 1.316 . S
N353 C352 1.375 . S
N354 C351 1.347 . S
N354 C355 1.373 . S
C355 C352 1.350 . S
C355 N354 1.373 . S
C355 H376 0.931 . S
H356 C351 0.931 . S
H357 C352 0.930 1_556 S
C358 O365 1.259 1_556 S
C358 O366 1.258 . S
N359 Co350 2.057 . S
N359 C360 1.316 . S
N359 C361 1.375 . S
C360 N359 1.316 . S
C360 N362 1.347 . S
C360 H371 0.931 . S
C361 N359 1.375 . S
C361 C363 1.350 . S
C361 H370 0.930 . S
N362 C360 1.347 . S
N362 C363 1.373 . S
C363 C361 1.350 . S
C363 N362 1.373 . S
C363 H377 0.931 . S
C364 O367 1.256 . S
C364 O368 1.255 . S
O365 Co348 2.021 1_554 S
O365 C358 1.259 1_554 S
O366 Co350 2.117 . S
O366 C358 1.258 . S
O367 Co350 2.020 . S
O367 C364 1.256 . S
O368 Co348 2.062 . S
O368 C364 1.255 . S
O369 C349 1.259 . S
O369 Co350 2.021 . S
H370 C361 0.930 . S
H371 C360 0.931 . S
O372 Co348 2.117 . S
O372 C349 1.258 . S
O373 Co348 2.020 . S
O373 C375 1.256 . S
O374 Co350 2.062 . S
O374 C375 1.255 . S
C375 O373 1.256 . S
C375 O374 1.255 . S
H376 C355 0.931 . S
H377 C363 0.931 . S
Co378 N383 2.057 . S
Co378 O395 2.021 . S
Co378 O398 2.062 1_556 S
Co378 O402 2.117 . S
Co378 O403 2.020 . S
C379 O399 1.259 . S
C379 O402 1.258 . S
Co380 N389 2.057 1_545 S
Co380 O396 2.117 . S
Co380 O397 2.020 1_546 S
Co380 O399 2.021 . S
Co380 O404 2.062 . S
C381 N383 1.316 . S
C381 N384 1.347 1_556 S
C381 H386 0.931 . S
C382 N383 1.375 . S
C382 C385 1.350 1_556 S
C382 H387 0.930 1_556 S
N383 Co378 2.057 . S
N383 C381 1.316 . S
N383 C382 1.375 . S
N384 C381 1.347 1_554 S
N384 C385 1.373 . S
C385 C382 1.350 1_554 S
C385 N384 1.373 . S
C385 H406 0.931 . S
H386 C381 0.931 . S
H387 C382 0.930 1_554 S
C388 O395 1.259 . S
C388 O396 1.258 . S
N389 Co380 2.057 1_565 S
N389 C390 1.316 . S
N389 C391 1.375 . S
C390 N389 1.316 . S
C390 N392 1.347 . S
C390 H401 0.931 . S
C391 N389 1.375 . S
C391 C393 1.350 . S
C391 H400 0.930 . S
N392 C390 1.347 . S
N392 C393 1.373 . S
C393 C391 1.350 . S
C393 N392 1.373 . S
C393 H407 0.931 . S
C394 O397 1.256 1_545 S
C394 O398 1.255 . S
O395 Co378 2.021 . S
O395 C388 1.259 . S
O396 Co380 2.117 . S
O396 C388 1.258 . S
O397 Co380 2.020 1_564 S
O397 C394 1.256 1_565 S
O398 Co378 2.062 1_554 S
O398 C394 1.255 . S
O399 C379 1.259 . S
O399 Co380 2.021 . S
H400 C391 0.930 . S
H401 C390 0.931 . S
O402 Co378 2.117 . S
O402 C379 1.258 . S
O403 Co378 2.020 . S
O403 C405 1.256 . S
O404 Co380 2.062 . S
O404 C405 1.255 . S
C405 O403 1.256 . S
C405 O404 1.255 . S
H406 C385 0.931 . S
H407 C393 0.931 . S
C408 C409 1.387 . S
C408 H412 0.950 . S
C408 C417 1.390 . S
C409 C408 1.387 . S
C409 C411 1.387 . S
H410 C417 0.950 . S
C411 C409 1.387 . S
C411 C413 1.390 . S
C411 H415 0.950 1_455 S
H412 C408 0.950 . S
C413 C411 1.390 . S
C413 C414 1.387 . S
C413 H416 0.950 1_455 S
C414 C413 1.387 . S
C414 C417 1.387 . S
H415 C411 0.950 1_655 S
H416 C413 0.950 1_655 S
C417 C408 1.390 . S
C417 H410 0.950 . S
C417 C414 1.387 . S
C418 C419 1.387 . S
C418 H422 0.950 . S
C418 C427 1.390 . S
C419 C418 1.387 . S
C419 C421 1.387 . S
H420 C427 0.950 . S
C421 C419 1.387 . S
C421 C423 1.390 . S
C421 H425 0.950 . S
H422 C418 0.950 . S
C423 C421 1.390 . S
C423 C424 1.387 . S
C423 H426 0.950 . S
C424 C423 1.387 . S
C424 C427 1.387 . S
H425 C421 0.950 . S
H426 C423 0.950 . S
C427 C418 1.390 . S
C427 H420 0.950 . S
C427 C424 1.387 . S
C428 C429 1.387 1_655 S
C428 H432 0.950 . S
C428 C437 1.390 . S
C429 C428 1.387 1_455 S
C429 C431 1.387 . S
H430 C437 0.950 . S
C431 C429 1.387 . S
C431 C433 1.390 . S
C431 H435 0.950 . S
H432 C428 0.950 . S
C433 C431 1.390 . S
C433 C434 1.387 1_455 S
C433 H436 0.950 . S
C434 C433 1.387 1_655 S
C434 C437 1.387 . S
H435 C431 0.950 . S
H436 C433 0.950 . S
C437 C428 1.390 . S
C437 H430 0.950 . S
C437 C434 1.387 . S
C438 C439 1.387 . S
C438 H442 0.950 . S
C438 C447 1.390 . S
C439 C438 1.387 . S
C439 C441 1.387 1_655 S
H440 C447 0.950 . S
C441 C439 1.387 1_455 S
C441 C443 1.390 . S
C441 H445 0.950 . S
H442 C438 0.950 . S
C443 C441 1.390 . S
C443 C444 1.387 1_455 S
C443 H446 0.950 . S
C444 C443 1.387 1_655 S
C444 C447 1.387 . S
H445 C441 0.950 . S
H446 C443 0.950 . S
C447 C438 1.390 . S
C447 H440 0.950 . S
C447 C444 1.387 . S
C448 C449 1.387 . S
C448 H452 0.950 . S
C448 C457 1.390 . S
C449 C448 1.387 . S
C449 C451 1.387 1_545 S
H450 C457 0.950 . S
C451 C449 1.387 1_565 S
C451 C453 1.390 . S
C451 H455 0.950 . S
H452 C448 0.950 . S
C453 C451 1.390 . S
C453 C454 1.387 1_565 S
C453 H456 0.950 . S
C454 C453 1.387 1_545 S
C454 C457 1.387 . S
H455 C451 0.950 . S
H456 C453 0.950 . S
C457 C448 1.390 . S
C457 H450 0.950 . S
C457 C454 1.387 . S
C458 C459 1.387 . S
C458 H462 0.950 . S
C458 C467 1.390 . S
C459 C458 1.387 . S
C459 C461 1.387 . S
H460 C467 0.950 . S
C461 C459 1.387 . S
C461 C463 1.390 . S
C461 H465 0.950 . S
H462 C458 0.950 . S
C463 C461 1.390 . S
C463 C464 1.387 . S
C463 H466 0.950 . S
C464 C463 1.387 . S
C464 C467 1.387 . S
H465 C461 0.950 . S
H466 C463 0.950 . S
C467 C458 1.390 . S
C467 H460 0.950 . S
C467 C464 1.387 . S
C468 C469 1.387 . S
C468 H472 0.950 . S
C468 C477 1.390 . S
C469 C468 1.387 . S
C469 C471 1.387 1_565 S
H470 C477 0.950 . S
C471 C469 1.387 1_545 S
C471 C473 1.390 . S
C471 H475 0.950 . S
H472 C468 0.950 . S
C473 C471 1.390 . S
C473 C474 1.387 . S
C473 H476 0.950 . S
C474 C473 1.387 . S
C474 C477 1.387 1_545 S
H475 C471 0.950 . S
H476 C473 0.950 . S
C477 C468 1.390 . S
C477 H470 0.950 . S
C477 C474 1.387 1_565 S
C478 C479 1.387 . S
C478 H482 0.950 . S
C478 C487 1.390 . S
C479 C478 1.387 . S
C479 C481 1.387 . S
H480 C487 0.950 . S
C481 C479 1.387 . S
C481 C483 1.390 . S
C481 H485 0.950 . S
H482 C478 0.950 . S
C483 C481 1.390 . S
C483 C484 1.387 . S
C483 H486 0.950 . S
C484 C483 1.387 . S
C484 C487 1.387 . S
H485 C481 0.950 . S
H486 C483 0.950 . S
C487 C478 1.390 . S
C487 H480 0.950 . S
C487 C484 1.387 . S
C488 C489 1.387 . S
C488 H492 0.950 . S
C488 C497 1.390 . S
C489 C488 1.387 . S
C489 C491 1.387 . S
H490 C497 0.950 . S
C491 C489 1.387 . S
C491 C493 1.390 . S
C491 H495 0.950 . S
H492 C488 0.950 . S
C493 C491 1.390 . S
C493 C494 1.387 . S
C493 H496 0.950 . S
C494 C493 1.387 . S
C494 C497 1.387 . S
H495 C491 0.950 . S
H496 C493 0.950 . S
C497 C488 1.390 . S
C497 H490 0.950 . S
C497 C494 1.387 . S
C498 C499 1.387 . S
C498 H502 0.950 . S
C498 C507 1.390 . S
C499 C498 1.387 . S
C499 C501 1.387 . S
H500 C507 0.950 . S
C501 C499 1.387 . S
C501 C503 1.390 . S
C501 H505 0.950 . S
H502 C498 0.950 . S
C503 C501 1.390 . S
C503 C504 1.387 . S
C503 H506 0.950 . S
C504 C503 1.387 . S
C504 C507 1.387 . S
H505 C501 0.950 . S
H506 C503 0.950 . S
C507 C498 1.390 . S
C507 H500 0.950 . S
C507 C504 1.387 . S
C508 C509 1.387 . S
C508 H512 0.950 . S
C508 C517 1.390 . S
C509 C508 1.387 . S
C509 C511 1.387 . S
H510 C517 0.950 . S
C511 C509 1.387 . S
C511 C513 1.390 . S
C511 H515 0.950 . S
H512 C508 0.950 . S
C513 C511 1.390 . S
C513 C514 1.387 . S
C513 H516 0.950 . S
C514 C513 1.387 . S
C514 C517 1.387 . S
H515 C511 0.950 . S
H516 C513 0.950 . S
C517 C508 1.390 . S
C517 H510 0.950 . S
C517 C514 1.387 . S
C518 C519 1.387 . S
C518 H522 0.950 . S
C518 C527 1.390 . S
C519 C518 1.387 . S
C519 C521 1.387 . S
H520 C527 0.950 . S
C521 C519 1.387 . S
C521 C523 1.390 . S
C521 H525 0.950 . S
H522 C518 0.950 . S
C523 C521 1.390 . S
C523 C524 1.387 . S
C523 H526 0.950 . S
C524 C523 1.387 . S
C524 C527 1.387 . S
H525 C521 0.950 . S
H526 C523 0.950 . S
C527 C518 1.390 . S
C527 H520 0.950 . S
C527 C524 1.387 . S
C528 C529 1.387 . S
C528 H532 0.950 . S
C528 C537 1.390 . S
C529 C528 1.387 . S
C529 C531 1.387 . S
H530 C537 0.950 . S
C531 C529 1.387 . S
C531 C533 1.390 . S
C531 H535 0.950 . S
H532 C528 0.950 . S
C533 C531 1.390 . S
C533 C534 1.387 . S
C533 H536 0.950 . S
C534 C533 1.387 . S
C534 C537 1.387 . S
H535 C531 0.950 . S
H536 C533 0.950 . S
C537 C528 1.390 . S
C537 H530 0.950 . S
C537 C534 1.387 . S
C538 C539 1.387 . S
C538 H542 0.950 . S
C538 C547 1.390 . S
C539 C538 1.387 . S
C539 C541 1.387 . S
H540 C547 0.950 . S
C541 C539 1.387 . S
C541 C543 1.390 . S
C541 H545 0.950 . S
H542 C538 0.950 . S
C543 C541 1.390 . S
C543 C544 1.387 . S
C543 H546 0.950 . S
C544 C543 1.387 . S
C544 C547 1.387 . S
H545 C541 0.950 . S
H546 C543 0.950 . S
C547 C538 1.390 . S
C547 H540 0.950 . S
C547 C544 1.387 . S
C548 C549 1.387 . S
C548 H552 0.950 . S
C548 C557 1.390 . S
C549 C548 1.387 . S
C549 C551 1.387 . S
H550 C557 0.950 . S
C551 C549 1.387 . S
C551 C553 1.390 . S
C551 H555 0.950 . S
H552 C548 0.950 . S
C553 C551 1.390 . S
C553 C554 1.387 . S
C553 H556 0.950 . S
C554 C553 1.387 . S
C554 C557 1.387 . S
H555 C551 0.950 . S
H556 C553 0.950 . S
C557 C548 1.390 . S
C557 H550 0.950 . S
C557 C554 1.387 . S
C558 C559 1.387 . S
C558 H562 0.950 . S
C558 C567 1.390 . S
C559 C558 1.387 . S
C559 C561 1.387 . S
H560 C567 0.950 . S
C561 C559 1.387 . S
C561 C563 1.390 . S
C561 H565 0.950 . S
H562 C558 0.950 . S
C563 C561 1.390 . S
C563 C564 1.387 . S
C563 H566 0.950 . S
C564 C563 1.387 . S
C564 C567 1.387 . S
H565 C561 0.950 . S
H566 C563 0.950 . S
C567 C558 1.390 . S
C567 H560 0.950 . S
C567 C564 1.387 . S
C568 C569 1.387 . S
C568 H572 0.950 . S
C568 C577 1.390 . S
C569 C568 1.387 . S
C569 C571 1.387 . S
H570 C577 0.950 . S
C571 C569 1.387 . S
C571 C573 1.390 . S
C571 H575 0.950 . S
H572 C568 0.950 . S
C573 C571 1.390 . S
C573 C574 1.387 . S
C573 H576 0.950 . S
C574 C573 1.387 . S
C574 C577 1.387 . S
H575 C571 0.950 . S
H576 C573 0.950 . S
C577 C568 1.390 . S
C577 H570 0.950 . S
C577 C574 1.387 . S
C578 C579 1.387 1_545 S
C578 H582 0.950 . S
C578 C587 1.390 . S
C579 C578 1.387 1_565 S
C579 C581 1.387 . S
H580 C587 0.950 . S
C581 C579 1.387 . S
C581 C583 1.390 . S
C581 H585 0.950 . S
H582 C578 0.950 . S
C583 C581 1.390 . S
C583 C584 1.387 1_565 S
C583 H586 0.950 . S
C584 C583 1.387 1_545 S
C584 C587 1.387 . S
H585 C581 0.950 . S
H586 C583 0.950 . S
C587 C578 1.390 . S
C587 H580 0.950 . S
C587 C584 1.387 . S
C588 C589 1.387 . S
C588 H592 0.950 . S
C588 C597 1.390 . S
C589 C588 1.387 . S
C589 C591 1.387 . S
H590 C597 0.950 . S
C591 C589 1.387 . S
C591 C593 1.390 . S
C591 H595 0.950 . S
H592 C588 0.950 . S
C593 C591 1.390 . S
C593 C594 1.387 . S
C593 H596 0.950 . S
C594 C593 1.387 . S
C594 C597 1.387 . S
H595 C591 0.950 . S
H596 C593 0.950 . S
C597 C588 1.390 . S
C597 H590 0.950 . S
C597 C594 1.387 . S
C598 C599 1.387 1_565 S
C598 H602 0.950 . S
C598 C607 1.390 . S
C599 C598 1.387 1_545 S
C599 C601 1.387 . S
H600 C607 0.950 . S
C601 C599 1.387 . S
C601 C603 1.390 . S
C601 H605 0.950 . S
H602 C598 0.950 . S
C603 C601 1.390 . S
C603 C604 1.387 . S
C603 H606 0.950 . S
C604 C603 1.387 . S
C604 C607 1.387 1_545 S
H605 C601 0.950 . S
H606 C603 0.950 . S
C607 C598 1.390 . S
C607 H600 0.950 . S
C607 C604 1.387 1_565 S
C608 C609 1.387 . S
C608 H612 0.950 . S
C608 C617 1.390 . S
C609 C608 1.387 . S
C609 C611 1.387 . S
H610 C617 0.950 . S
C611 C609 1.387 . S
C611 C613 1.390 . S
C611 H615 0.950 . S
H612 C608 0.950 . S
C613 C611 1.390 . S
C613 C614 1.387 . S
C613 H616 0.950 . S
C614 C613 1.387 . S
C614 C617 1.387 . S
H615 C611 0.950 . S
H616 C613 0.950 . S
C617 C608 1.390 . S
C617 H610 0.950 . S
C617 C614 1.387 . S
C618 C619 1.387 1_554 S
C618 H622 0.950 . S
C618 C627 1.390 . S
C619 C618 1.387 1_556 S
C619 C621 1.387 . S
H620 C627 0.950 . S
C621 C619 1.387 . S
C621 C623 1.390 . S
C621 H625 0.950 . S
H622 C618 0.950 . S
C623 C621 1.390 . S
C623 C624 1.387 . S
C623 H626 0.950 . S
C624 C623 1.387 . S
C624 C627 1.387 1_556 S
H625 C621 0.950 . S
H626 C623 0.950 . S
C627 C618 1.390 . S
C627 H620 0.950 . S
C627 C624 1.387 1_554 S
C628 C629 1.383 1_554 S
C628 H632 0.950 . S
C628 C637 1.390 . S
C629 C628 1.383 1_556 S
C629 C631 1.392 . S
H630 C637 0.950 . S
C631 C629 1.392 . S
C631 C633 1.390 . S
C631 H635 0.950 . S
H632 C628 0.950 . S
C633 C631 1.390 . S
C633 C634 1.387 . S
C633 H636 0.950 . S
C634 C633 1.387 . S
C634 C637 1.387 1_556 S
H635 C631 0.950 . S
H636 C633 0.950 . S
C637 C628 1.390 . S
C637 H630 0.950 . S
C637 C634 1.387 1_554 S
C638 C639 1.387 1_556 S
C638 H642 0.950 . S
C638 C647 1.390 . S
C639 C638 1.387 1_554 S
C639 C641 1.387 . S
H640 C647 0.950 . S
C641 C639 1.387 . S
C641 C643 1.390 . S
C641 H645 0.950 . S
H642 C638 0.950 . S
C643 C641 1.390 . S
C643 C644 1.387 . S
C643 H646 0.950 . S
C644 C643 1.387 . S
C644 C647 1.387 1_554 S
H645 C641 0.950 . S
H646 C643 0.950 . S
C647 C638 1.390 . S
C647 H640 0.950 . S
C647 C644 1.387 1_556 S
C648 C649 1.387 . S
C648 H652 0.950 . S
C648 C657 1.390 . S
C649 C648 1.387 . S
C649 C651 1.387 . S
H650 C657 0.950 . S
C651 C649 1.387 . S
C651 C653 1.390 . S
C651 H655 0.950 . S
H652 C648 0.950 . S
C653 C651 1.390 . S
C653 C654 1.387 . S
C653 H656 0.950 1_455 S
C654 C653 1.387 . S
C654 C657 1.387 . S
H655 C651 0.950 . S
H656 C653 0.950 1_655 S
C657 C648 1.390 . S
C657 H650 0.950 . S
C657 C654 1.387 . S
C658 C659 1.387 . S
C658 H662 0.950 . S
C658 C667 1.390 . S
C659 C658 1.387 . S
C659 C661 1.387 . S
H660 C667 0.950 . S
C661 C659 1.387 . S
C661 C663 1.390 . S
C661 H665 0.950 . S
H662 C658 0.950 . S
C663 C661 1.390 . S
C663 C664 1.387 . S
C663 H666 0.955 . S
C664 C663 1.387 . S
C664 C667 1.387 . S
H665 C661 0.950 . S
H666 C663 0.955 . S
C667 C658 1.390 . S
C667 H660 0.950 . S
C667 C664 1.387 . S
C668 C669 1.387 . S
C668 H672 0.950 . S
C668 C677 1.390 . S
C669 C668 1.387 . S
C669 C671 1.387 . S
H670 C677 0.950 . S
C671 C669 1.387 . S
C671 C673 1.390 1_455 S
C671 H675 0.950 . S
H672 C668 0.950 . S
C673 C671 1.390 1_655 S
C673 C674 1.387 1_655 S
C673 H676 0.950 . S
C674 C673 1.387 1_455 S
C674 C677 1.387 . S
H675 C671 0.950 . S
H676 C673 0.950 . S
C677 C668 1.390 . S
C677 H670 0.950 . S
C677 C674 1.387 . S
C678 C679 1.387 1_455 S
C678 H682 0.950 . S
C678 C687 1.390 . S
C679 C678 1.387 1_655 S
C679 C681 1.387 . S
H680 C687 0.950 . S
C681 C679 1.387 . S
C681 C683 1.390 . S
C681 H685 0.950 . S
H682 C678 0.950 . S
C683 C681 1.390 . S
C683 C684 1.381 1_655 S
C683 H686 0.950 . S
C684 C683 1.381 1_455 S
C684 C687 1.393 . S
H685 C681 0.950 . S
H686 C683 0.950 . S
C687 C678 1.390 . S
C687 H680 0.950 . S
C687 C684 1.393 . S
C688 C689 1.387 1_565 S
C688 H692 0.950 . S
C688 C697 1.390 . S
C689 C688 1.387 1_545 S
C689 C691 1.387 . S
H690 C697 0.950 . S
C691 C689 1.387 . S
C691 C693 1.390 . S
C691 H695 0.950 . S
H692 C688 0.950 . S
C693 C691 1.390 . S
C693 C694 1.387 . S
C693 H696 0.950 . S
C694 C693 1.387 . S
C694 C697 1.387 1_545 S
H695 C691 0.950 . S
H696 C693 0.950 . S
C697 C688 1.390 . S
C697 H690 0.950 . S
C697 C694 1.387 1_565 S
C698 C699 1.387 . S
C698 H702 0.950 . S
C698 C707 1.390 . S
C699 C698 1.387 . S
C699 C701 1.387 . S
H700 C707 0.950 . S
C701 C699 1.387 . S
C701 C703 1.390 . S
C701 H705 0.950 . S
H702 C698 0.950 . S
C703 C701 1.390 . S
C703 C704 1.387 . S
C703 H706 0.950 . S
C704 C703 1.387 . S
C704 C707 1.387 . S
H705 C701 0.950 . S
H706 C703 0.950 . S
C707 C698 1.390 . S
C707 H700 0.950 . S
C707 C704 1.387 . S
C708 C709 1.387 . S
C708 H712 0.950 . S
C708 C717 1.390 . S
C709 C708 1.387 . S
C709 C711 1.387 1_565 S
H710 C717 0.950 . S
C711 C709 1.387 1_545 S
C711 C713 1.396 . S
C711 H715 0.950 . S
H712 C708 0.950 . S
C713 C711 1.396 . S
C713 C714 1.365 1_545 S
C713 H716 0.967 . S
C714 C713 1.365 1_565 S
C714 C717 1.387 . S
H715 C711 0.950 . S
H716 C713 0.967 . S
C717 C708 1.390 . S
C717 H710 0.950 . S
C717 C714 1.387 . S
C718 C719 1.387 . S
C718 H722 0.950 . S
C718 C727 1.390 . S
C719 C718 1.387 . S
C719 C721 1.387 . S
H720 C727 0.950 . S
C721 C719 1.387 . S
C721 C723 1.390 . S
C721 H725 0.950 . S
H722 C718 0.950 . S
C723 C721 1.390 . S
C723 C724 1.387 . S
C723 H726 0.950 . S
C724 C723 1.387 . S
C724 C727 1.387 . S
H725 C721 0.950 . S
H726 C723 0.950 . S
C727 C718 1.390 . S
C727 H720 0.950 . S
C727 C724 1.387 . S
C728 C729 1.387 1_556 S
C728 H732 0.950 . S
C728 C737 1.390 . S
C729 C728 1.387 1_554 S
C729 C731 1.387 . S
H730 C737 0.950 . S
C731 C729 1.387 . S
C731 C733 1.390 . S
C731 H735 0.950 . S
H732 C728 0.950 . S
C733 C731 1.390 . S
C733 C734 1.387 . S
C733 H736 0.950 . S
C734 C733 1.387 . S
C734 C737 1.387 1_554 S
H735 C731 0.950 . S
H736 C733 0.950 . S
C737 C728 1.390 . S
C737 H730 0.950 . S
C737 C734 1.387 1_556 S
C738 C739 1.387 . S
C738 H742 0.950 . S
C738 C747 1.390 . S
C739 C738 1.387 . S
C739 C741 1.387 . S
H740 C747 0.950 . S
C741 C739 1.387 . S
C741 C743 1.390 . S
C741 H745 0.950 . S
H742 C738 0.950 . S
C743 C741 1.390 . S
C743 C744 1.387 . S
C743 H746 0.950 . S
C744 C743 1.387 . S
C744 C747 1.387 . S
H745 C741 0.950 . S
H746 C743 0.950 . S
C747 C738 1.390 . S
C747 H740 0.950 . S
C747 C744 1.387 . S
C748 C749 1.387 . S
C748 H752 0.950 . S
C748 C757 1.390 . S
C749 C748 1.387 . S
C749 C751 1.387 . S
H750 C757 0.950 . S
C751 C749 1.387 . S
C751 C753 1.390 . S
C751 H755 0.950 . S
H752 C748 0.950 . S
C753 C751 1.390 . S
C753 C754 1.387 . S
C753 H756 0.950 . S
C754 C753 1.387 . S
C754 C757 1.387 . S
H755 C751 0.950 . S
H756 C753 0.950 . S
C757 C748 1.390 . S
C757 H750 0.950 . S
C757 C754 1.387 . S
C758 C759 1.387 . S
C758 H762 0.950 . S
C758 C767 1.390 . S
C759 C758 1.387 . S
C759 C761 1.387 . S
H760 C767 0.950 . S
C761 C759 1.387 . S
C761 C763 1.390 . S
C761 H765 0.950 . S
H762 C758 0.950 . S
C763 C761 1.390 . S
C763 C764 1.387 . S
C763 H766 0.950 . S
C764 C763 1.387 . S
C764 C767 1.387 . S
H765 C761 0.950 . S
H766 C763 0.950 . S
C767 C758 1.390 . S
C767 H760 0.950 . S
C767 C764 1.387 . S
C768 C769 1.387 . S
C768 H772 0.950 . S
C768 C777 1.390 . S
C769 C768 1.387 . S
C769 C771 1.387 . S
H770 C777 0.950 . S
C771 C769 1.387 . S
C771 C773 1.390 . S
C771 H775 0.950 . S
H772 C768 0.950 . S
C773 C771 1.390 . S
C773 C774 1.387 . S
C773 H776 0.950 . S
C774 C773 1.387 . S
C774 C777 1.387 . S
H775 C771 0.950 . S
H776 C773 0.950 . S
C777 C768 1.390 . S
C777 H770 0.950 . S
C777 C774 1.387 . S
C778 C779 1.387 . S
C778 H782 0.950 . S
C778 C787 1.390 . S
C779 C778 1.387 . S
C779 C781 1.387 . S
H780 C787 0.950 . S
C781 C779 1.387 . S
C781 C783 1.390 . S
C781 H785 0.950 . S
H782 C778 0.950 . S
C783 C781 1.390 . S
C783 C784 1.387 . S
C783 H786 0.950 . S
C784 C783 1.387 . S
C784 C787 1.387 . S
H785 C781 0.950 . S
H786 C783 0.950 . S
C787 C778 1.390 . S
C787 H780 0.950 . S
C787 C784 1.387 . S
C788 C789 1.387 . S
C788 H792 0.950 . S
C788 C797 1.390 . S
C789 C788 1.387 . S
C789 C791 1.387 . S
H790 C797 0.950 . S
C791 C789 1.387 . S
C791 C793 1.390 . S
C791 H795 0.950 . S
H792 C788 0.950 . S
C793 C791 1.390 . S
C793 C794 1.387 . S
C793 H796 0.950 . S
C794 C793 1.387 . S
C794 C797 1.387 . S
H795 C791 0.950 . S
H796 C793 0.950 . S
C797 C788 1.390 . S
C797 H790 0.950 . S
C797 C794 1.387 . S
C798 C799 1.387 . S
C798 H802 0.950 . S
C798 C807 1.390 . S
C799 C798 1.387 . S
C799 C801 1.387 . S
H800 C807 0.950 . S
C801 C799 1.387 . S
C801 C803 1.390 . S
C801 H805 0.950 . S
H802 C798 0.950 . S
C803 C801 1.390 . S
C803 C804 1.387 . S
C803 H806 0.950 . S
C804 C803 1.387 . S
C804 C807 1.387 . S
H805 C801 0.950 . S
H806 C803 0.950 . S
C807 C798 1.390 . S
C807 H800 0.950 . S
C807 C804 1.387 . S
C808 C809 1.387 . S
C808 H812 0.950 . S
C808 C817 1.390 . S
C809 C808 1.387 . S
C809 C811 1.387 . S
H810 C817 0.950 . S
C811 C809 1.387 . S
C811 C813 1.390 . S
C811 H815 0.950 . S
H812 C808 0.950 . S
C813 C811 1.390 . S
C813 C814 1.387 . S
C813 H816 0.950 . S
C814 C813 1.387 . S
C814 C817 1.387 . S
H815 C811 0.950 . S
H816 C813 0.950 . S
C817 C808 1.390 . S
C817 H810 0.950 . S
C817 C814 1.387 . S
C818 C819 1.387 1_545 S
C818 H822 0.950 . S
C818 C827 1.390 . S
C819 C818 1.387 1_565 S
C819 C821 1.387 . S
H820 C827 0.950 . S
C821 C819 1.387 . S
C821 C823 1.390 . S
C821 H825 0.950 . S
H822 C818 0.950 . S
C823 C821 1.390 . S
C823 C824 1.387 . S
C823 H826 0.950 . S
C824 C823 1.387 . S
C824 C827 1.387 1_565 S
H825 C821 0.950 . S
H826 C823 0.950 . S
C827 C818 1.390 . S
C827 H820 0.950 . S
C827 C824 1.387 1_545 S
C828 C829 1.387 . S
C828 H832 0.950 . S
C828 C837 1.390 . S
C829 C828 1.387 . S
C829 C831 1.387 . S
H830 C837 0.950 . S
C831 C829 1.387 . S
C831 C833 1.390 . S
C831 H835 0.950 . S
H832 C828 0.950 . S
C833 C831 1.390 . S
C833 C834 1.387 . S
C833 H836 0.950 . S
C834 C833 1.387 . S
C834 C837 1.387 . S
H835 C831 0.950 . S
H836 C833 0.950 . S
C837 C828 1.390 . S
C837 H830 0.950 . S
C837 C834 1.387 . S
C838 C839 1.387 . S
C838 H842 0.950 . S
C838 C847 1.390 . S
C839 C838 1.387 . S
C839 C841 1.387 1_545 S
H840 C847 0.950 . S
C841 C839 1.387 1_565 S
C841 C843 1.390 . S
C841 H845 0.950 . S
H842 C838 0.950 . S
C843 C841 1.390 . S
C843 C844 1.387 1_565 S
C843 H846 0.950 . S
C844 C843 1.387 1_545 S
C844 C847 1.387 . S
H845 C841 0.950 . S
H846 C843 0.950 . S
C847 C838 1.390 . S
C847 H840 0.950 . S
C847 C844 1.387 . S
C848 C849 1.387 . S
C848 H852 0.950 . S
C848 C857 1.390 . S
C849 C848 1.387 . S
C849 C851 1.387 . S
H850 C857 0.950 . S
C851 C849 1.387 . S
C851 C853 1.390 . S
C851 H855 0.950 . S
H852 C848 0.950 . S
C853 C851 1.390 . S
C853 C854 1.387 . S
C853 H856 0.950 . S
C854 C853 1.387 . S
C854 C857 1.387 . S
H855 C851 0.950 . S
H856 C853 0.950 . S
C857 C848 1.390 . S
C857 H850 0.950 . S
C857 C854 1.387 . S
C858 C859 1.387 . S
C858 H862 0.950 . S
C858 C867 1.390 . S
C859 C858 1.387 . S
C859 C861 1.387 1_556 S
H860 C867 0.950 . S
C861 C859 1.387 1_554 S
C861 C863 1.390 . S
C861 H865 0.950 . S
H862 C858 0.950 . S
C863 C861 1.390 . S
C863 C864 1.387 1_554 S
C863 H866 0.950 . S
C864 C863 1.387 1_556 S
C864 C867 1.387 . S
H865 C861 0.950 . S
H866 C863 0.950 . S
C867 C858 1.390 . S
C867 H860 0.950 . S
C867 C864 1.387 . S
C868 C869 1.387 . S
C868 H872 0.950 . S
C868 C877 1.390 . S
C869 C868 1.387 . S
C869 C871 1.387 1_554 S
H870 C877 0.950 . S
C871 C869 1.387 1_556 S
C871 C873 1.390 . S
C871 H875 0.950 . S
H872 C868 0.950 . S
C873 C871 1.390 . S
C873 C874 1.387 1_556 S
C873 H876 0.950 . S
C874 C873 1.387 1_554 S
C874 C877 1.387 . S
H875 C871 0.950 . S
H876 C873 0.950 . S
C877 C868 1.390 . S
C877 H870 0.950 . S
C877 C874 1.387 . S
C878 C879 1.387 . S
C878 H882 0.950 . S
C878 C887 1.390 . S
C879 C878 1.387 . S
C879 C881 1.387 1_554 S
H880 C887 0.950 . S
C881 C879 1.387 1_556 S
C881 C883 1.390 . S
C881 H885 0.950 . S
H882 C878 0.950 . S
C883 C881 1.390 . S
C883 C884 1.387 1_556 S
C883 H886 0.950 . S
C884 C883 1.387 1_554 S
C884 C887 1.387 . S
H885 C881 0.950 . S
H886 C883 0.950 . S
C887 C878 1.390 . S
C887 H880 0.950 . S
C887 C884 1.387 . S
C409 C13 1.608 . S
C414 C255 1.557 1_545 S
C424 N272 1.608 . S
C419 C1 1.791 . S
C434 N174 1.731 . S
C429 C27 1.708 . S
C439 C15 1.294 . S
C444 C199 1.279 . S
C449 C28 1.718 . S
C454 C394 1.703 . S
C459 C55 1.498 . S
C464 N354 1.497 . S
C474 N302 1.517 . S
C469 C40 1.741 . S
C479 C43 1.710 . S
C484 C328 1.700 . S
C494 C214 1.633 . S
C489 C56 1.626 . S
C504 C259 1.766 . S
C499 C83 1.777 . S
C509 C96 1.681 . S
C514 C238 1.701 . S
C519 C71 1.851 . S
C524 C345 1.814 . S
C534 C375 1.557 . S
C529 C99 1.608 . S
C544 N392 1.608 . S
C539 C111 1.791 . S
C549 C113 1.708 . S
C554 N324 1.732 . S
C564 C289 1.280 1_545 S
C559 C125 1.296 . S
C569 C139 1.719 . S
C574 C274 1.703 . S
C579 C153 1.498 . S
C584 N234 1.497 . S
C594 N212 1.517 . S
C589 C127 1.743 . S
C599 C141 1.711 . S
C604 C178 1.700 . S
C614 C304 1.633 . S
C609 C84 1.627 . S
C624 C379 1.766 . S
C619 C154 1.777 1_556 S
C629 C68 1.683 1_556 S
C634 C358 1.704 . S
C639 C166 1.849 . S
C644 C195 1.814 . S
C654 C169 1.489 . S
C649 C0 1.514 . S
C659 C12 1.167 . S
C664 N204 1.158 . S
C674 N242 1.242 1_455 S
C669 C14 1.417 . S
C684 C285 1.800 1_455 S
C679 C26 1.774 . S
C689 C41 1.593 . S
C694 C184 1.557 . S
C699 C42 1.695 . S
C704 C225 1.649 . S
C714 C229 1.383 . S
C709 C29 1.429 . S
C719 C54 1.580 . S
C724 C268 1.540 . S
C729 C69 1.213 . S
C734 N182 1.149 . S
C744 C244 1.839 . S
C739 C70 1.841 . S
C749 C85 1.244 . S
C754 N264 1.232 . S
C759 C82 1.565 . S
C764 C298 1.541 . S
C774 C319 1.485 . S
C769 C110 1.513 . S
C779 C98 1.167 . S
C784 N294 1.157 . S
C789 C124 1.416 . S
C794 N362 1.244 . S
C799 C112 1.775 . S
C804 C405 1.800 . S
C809 C126 1.593 . S
C814 C334 1.558 . S
C824 C315 1.648 . S
C819 C140 1.695 . S
C829 C138 1.428 . S
C834 C349 1.381 . S
C844 C388 1.540 . S
C839 C152 1.580 . S
C854 N332 1.153 . S
C849 C97 1.211 . S
C864 C364 1.839 . S
C859 C167 1.842 1_556 S
C874 N384 1.231 . S
C869 C57 1.244 . S
C879 C155 1.564 . S
C884 C208 1.541 . S
