# Generated by pormake.
# Topology nia, (6,6)-cn, num edge types: 1
# Building blocks:
#     Node 0, Type 0, BuildingBlock: PAMTUU_clean_sbu_0, # of connection points: 6
#     Node 1, Type 0, BuildingBlock: PAMTUU_clean_sbu_0, # of connection points: 6
#     Node 2, Type 1, BuildingBlock: MIDCAF_clean_sbu_0, # of connection points: 6
#     Node 3, Type 1, BuildingBlock: MIDCAF_clean_sbu_0, # of connection points: 6
#     Edge 4, Type (0, 1), BuildingBlock: ZUJKAS_clean_linker_0, # of connection points: 2
#     Edge 5, Type (0, 1), BuildingBlock: ZUJKAS_clean_linker_0, # of connection points: 2
#     Edge 6, Type (0, 1), BuildingBlock: ZUJKAS_clean_linker_0, # of connection points: 2
#     Edge 7, Type (0, 1), BuildingBlock: ZUJKAS_clean_linker_0, # of connection points: 2
#     Edge 8, Type (0, 1), BuildingBlock: ZUJKAS_clean_linker_0, # of connection points: 2
#     Edge 9, Type (0, 1), BuildingBlock: ZUJKAS_clean_linker_0, # of connection points: 2
#     Edge 10, Type (0, 1), BuildingBlock: ZUJKAS_clean_linker_0, # of connection points: 2
#     Edge 11, Type (0, 1), BuildingBlock: ZUJKAS_clean_linker_0, # of connection points: 2
#     Edge 12, Type (0, 1), BuildingBlock: ZUJKAS_clean_linker_0, # of connection points: 2
#     Edge 13, Type (0, 1), BuildingBlock: ZUJKAS_clean_linker_0, # of connection points: 2
#     Edge 14, Type (0, 1), BuildingBlock: ZUJKAS_clean_linker_0, # of connection points: 2
#     Edge 15, Type (0, 1), BuildingBlock: ZUJKAS_clean_linker_0, # of connection points: 2
# Relax obj value: 0.264
# Max RMSD: 0.257
# Mean RMSD: 0.228
data_MOF--net-nia--node1-PAMTUU_clean_sbu_0--node2-MIDCAF_clean_sbu_0--edge1-ZUJKAS_clean_linker_0
_symmetry_space_group_name_H-M    P1
_symmetry_Int_Tables_number       1
_symmetry_cell_setting            triclinic
loop_
_symmetry_equiv_pos_as_xyz
'x, y, z'
_cell_length_a     31.636675
_cell_length_b     35.424863
_cell_length_c     43.194816
_cell_angle_alpha  74.196521
_cell_angle_beta   100.25771
_cell_angle_gamma 126.72813
loop_
_atom_site_label
_atom_site_type_symbol
_atom_site_fract_x
_atom_site_fract_y
_atom_site_fract_z
_atom_type_partial_charge
Tb0 Tb 1.00013 0.96392 1.01546 0.0
Tb1 Tb 0.07522 0.04984 0.05619 0.0
C2 C 0.11668 0.05148 0.99438 0.0
C3 C 0.94043 0.86909 0.9667 0.0
C4 C 0.93991 0.81346 0.93091 0.0
C5 C 0.98696 0.8468 0.94556 0.0
C6 C 0.98725 0.87463 0.96332 0.0
C7 C 0.89368 0.83607 0.95214 0.0
C8 C 0.89333 0.80844 0.93441 0.0
C9 C 0.93871 0.89645 0.98574 0.0
O10 O 0.06186 0.95523 0.03673 0.0
O11 O 0.07915 -0.01092 0.07956 0.0
O12 O 0.99539 0.01232 0.07156 0.0
O13 O 0.96435 0.93957 0.06182 0.0
O14 O 0.12595 0.12226 0.06058 0.0
O15 O 0.10567 0.0643 0.10199 0.0
O16 O 0.04315 0.07861 1.01575 0.0
O17 O 0.96971 0.00694 1.00468 0.0
O18 O 0.06799 0.02023 0.98528 0.0
O19 O 0.1284 0.06163 1.02317 0.0
C20 C 0.08201 0.96208 0.06559 0.0
O21 O 0.95148 0.88993 1.01613 0.0
O22 O 0.9593 0.94169 0.97284 0.0
C23 C 0.9608 0.96553 0.0764 0.0
C24 C 0.11461 0.1311 0.11043 0.0
C25 C 0.08763 0.16705 0.14812 0.0
C26 C 0.11994 0.15135 0.16098 0.0
C27 C 0.13344 0.1337 0.14224 0.0
C28 C 0.08129 0.14573 0.09767 0.0
C29 C 0.06828 0.16398 0.11631 0.0
C30 C 0.12766 0.11025 0.09191 0.0
C31 C 0.99734 0.0538 1.00109 0.0
H32 H 0.0234 0.85145 0.94316 0.0
H33 H 0.02371 0.90013 0.97454 0.0
H34 H 0.8572 0.83128 0.95475 0.0
H35 H 0.85626 0.78238 0.924 0.0
H36 H 0.13611 0.15406 0.18524 0.0
H37 H 0.15869 0.12206 0.15261 0.0
H38 H 0.0654 0.14315 0.07335 0.0
H39 H 0.04325 0.17583 0.10588 0.0
Tb40 Tb 0.06225 -0.01171 0.50227 0.0
Tb41 Tb 0.99197 -0.00706 0.5465 0.0
C42 C 0.06203 0.07949 0.49119 0.0
C43 C 0.14614 0.97188 0.4606 0.0
C44 C 0.19585 0.93984 0.43873 0.0
C45 C 0.21384 -0.01166 0.42917 0.0
C46 C 0.18908 0.00414 0.44001 0.0
C47 C 0.13073 0.92433 0.47225 0.0
C48 C 0.15548 0.90845 0.46138 0.0
C49 C 0.11295 0.98646 0.46443 0.0
O50 O 0.11651 0.02765 0.53862 0.0
O51 O 0.05595 -0.00378 0.57702 0.0
O52 O 0.96498 0.91845 0.55457 0.0
O53 O 0.03957 0.92827 0.54323 0.0
O54 O 0.98933 0.01658 0.58494 0.0
O55 O 0.91743 0.96817 0.56065 0.0
O56 O 0.95401 -0.01107 0.49913 0.0
O57 O 0.98098 0.94891 0.48506 0.0
O58 O 0.05965 0.04914 0.4778 0.0
O59 O 0.0454 0.06674 0.52053 0.0
C60 C 0.10485 0.02027 0.56834 0.0
O61 O 0.06381 0.95247 0.47177 0.0
O62 O 0.13323 0.02216 0.4786 0.0
C63 C 0.99396 0.90232 0.55756 0.0
C64 C 0.91697 0.01899 0.58664 0.0
C65 C 0.884 0.06727 0.6058 0.0
C66 C 0.8538 0.01666 0.61307 0.0
C67 C 0.87023 -0.0072 0.60358 0.0
C68 C 0.94565 0.06937 0.57752 0.0
C69 C 0.92926 0.09336 0.58708 0.0
C70 C 0.93823 -0.00665 0.58296 0.0
C71 C 0.94928 0.9622 0.48105 0.0
H72 H 0.24456 0.01333 0.41159 0.0
H73 H 0.20125 0.04087 0.43056 0.0
H74 H 0.09773 0.89877 0.48826 0.0
H75 H 0.14147 0.87108 0.46958 0.0
H76 H 0.8191 -0.00451 0.62774 0.0
H77 H 0.84784 0.95392 0.61098 0.0
H78 H 0.98185 0.09024 0.56432 0.0
H79 H 0.95287 0.13234 0.5807 0.0
Zn80 Zn 0.35927 0.66426 0.20368 0.0
Zn81 Zn 0.37892 0.665 0.32742 0.0
Zn82 Zn 0.36947 0.66803 0.26622 0.0
C83 C 0.47868 0.70752 0.30746 0.0
C84 C 0.30878 0.57132 0.32443 0.0
O85 O 0.33475 0.70734 0.24083 0.0
O86 O 0.32791 0.7012 0.1902 0.0
C87 C 0.46606 0.71103 0.21983 0.0
O88 O 0.45438 0.70568 0.27998 0.0
O89 O 0.45344 0.68777 0.33322 0.0
O90 O 0.3249 0.59685 0.34495 0.0
O91 O 0.32265 0.59153 0.29476 0.0
O92 O 0.43478 0.69592 0.19643 0.0
O93 O 0.44862 0.70442 0.24699 0.0
O94 O 0.31458 0.59189 0.26157 0.0
O95 O 0.31118 0.59369 0.20952 0.0
C96 C 0.2966 0.57019 0.23786 0.0
O97 O 0.34308 0.70992 0.2735 0.0
O98 O 0.36434 0.71267 0.32494 0.0
C99 C 0.32131 0.71602 0.21118 0.0
C100 C 0.34702 0.72504 0.29848 0.0
Zn101 Zn 0.68979 0.3058 0.8468 0.0
Zn102 Zn 0.67208 0.32418 0.72334 0.0
Zn103 Zn 0.68208 0.31493 0.78601 0.0
C104 C 0.74274 0.41662 0.7331 0.0
C105 C 0.57191 0.27636 0.74489 0.0
O106 O 0.71811 0.27479 0.80722 0.0
O107 O 0.70183 0.25503 0.85901 0.0
C108 C 0.75985 0.4024 0.82208 0.0
O109 O 0.72933 0.39333 0.7624 0.0
O110 O 0.72518 0.39436 0.71047 0.0
O111 O 0.59648 0.29803 0.71881 0.0
O112 O 0.59692 0.27733 0.77207 0.0
O113 O 0.75198 0.37238 0.84813 0.0
O114 O 0.73416 0.38781 0.79625 0.0
O115 O 0.60198 0.27735 0.80506 0.0
O116 O 0.62006 0.28876 0.85488 0.0
C117 C 0.58702 0.27414 0.83212 0.0
O118 O 0.71299 0.27959 0.77325 0.0
O119 O 0.69161 0.28131 0.7214 0.0
C120 C 0.71936 0.25254 0.83614 0.0
C121 C 0.71097 0.26868 0.74667 0.0
H122 H 0.13327 0.97209 0.12419 0.0
H123 H 0.1782 0.93489 0.15222 0.0
H124 H 0.13431 0.86147 0.07494 0.0
H125 H 0.09005 0.89902 0.04646 0.0
H126 H 0.13929 0.83866 0.17403 0.0
H127 H 0.29284 0.92726 0.08314 0.0
H128 H 0.25201 0.94714 0.08329 0.0
H129 H 0.22719 0.89615 0.06629 0.0
C130 C 0.13322 0.9481 0.11308 0.0
C131 C 0.10828 0.93878 0.08295 0.0
C132 C 0.15893 0.92687 0.12918 0.0
C133 C 0.1604 0.8961 0.11542 0.0
C134 C 0.13473 0.88601 0.08566 0.0
H135 H 0.24601 0.70098 0.16491 0.0
H136 H 0.20894 0.74727 0.14481 0.0
C137 C 0.10916 0.90731 0.06949 0.0
C138 C 0.18805 0.87388 0.13233 0.0
H139 H 0.2823 0.85986 0.12242 0.0
C140 C 0.17113 0.84389 0.16299 0.0
C141 C 0.2298 0.88096 0.11796 0.0
C142 C 0.25194 0.91502 0.086 0.0
C143 C 0.19333 0.8191 0.17898 0.0
C144 C 0.23329 0.82458 0.1639 0.0
C145 C 0.25141 0.8557 0.13378 0.0
C146 C 0.25407 0.79555 0.17777 0.0
C147 C 0.17226 0.78525 0.21109 0.0
C148 C 0.29183 0.80762 0.20293 0.0
C149 C 0.3134 0.78136 0.21433 0.0
C150 C 0.2971 0.74255 0.2009 0.0
C151 C 0.25909 0.73057 0.17583 0.0
C152 C 0.2378 0.75684 0.16438 0.0
H153 H 0.14339 0.78722 0.22061 0.0
H154 H 0.15278 0.74774 0.20855 0.0
H155 H 0.20516 0.79366 0.22885 0.0
H156 H 0.30543 0.83795 0.21318 0.0
H157 H 0.34427 0.79263 0.2326 0.0
H158 H 0.0981 0.03147 0.62699 0.0
H159 H 0.17017 0.07272 0.66464 0.0
H160 H 0.28022 0.09622 0.60272 0.0
H161 H 0.20861 0.05644 0.56436 0.0
H162 H 0.24022 0.05832 0.69946 0.0
H163 H 0.34575 0.23131 0.61111 0.0
H164 H 0.27964 0.18139 0.60369 0.0
H165 H 0.33553 0.18342 0.59675 0.0
C166 C 0.13761 0.04518 0.62142 0.0
C167 C 0.14775 0.04116 0.59247 0.0
C168 C 0.17876 0.06875 0.64301 0.0
C169 C 0.23077 0.08856 0.63617 0.0
C170 C 0.24061 0.08249 0.60805 0.0
H171 H 0.50816 0.17972 0.75359 0.0
H172 H 0.41776 0.1322 0.73285 0.0
C173 C 0.19959 0.05947 0.58623 0.0
C174 C 0.2749 0.11652 0.65799 0.0
H175 H 0.39453 0.2241 0.65849 0.0
C176 C 0.27378 0.09478 0.69063 0.0
C177 C 0.31793 0.16459 0.64674 0.0
C178 C 0.31959 0.19173 0.61275 0.0
C179 C 0.31572 0.11907 0.71193 0.0
C180 C 0.36051 0.16582 0.70004 0.0
C181 C 0.36046 0.18817 0.66772 0.0
C182 C 0.40968 0.19122 0.71954 0.0
C183 C 0.31138 0.0944 0.74689 0.0
C184 C 0.4352 0.24006 0.71968 0.0
C185 C 0.4873 0.26739 0.73096 0.0
C186 C 0.51417 0.24602 0.74291 0.0
C187 C 0.4875 0.1965 0.74521 0.0
C188 C 0.43573 0.16932 0.73342 0.0
H189 H 0.26953 0.06929 0.75434 0.0
H190 H 0.3273 0.07281 0.75047 0.0
H191 H 0.3338 0.1208 0.76281 0.0
H192 H 0.41606 0.25783 0.70903 0.0
H193 H 0.50768 0.3058 0.72843 0.0
H194 H 0.09956 0.25238 0.12813 0.0
H195 H 0.10372 0.29982 0.16162 0.0
H196 H 0.05909 0.18294 0.24424 0.0
H197 H 0.05665 0.13567 0.21075 0.0
H198 H 0.04267 0.29461 0.20245 0.0
H199 H 0.20499 0.28572 0.27069 0.0
H200 H 0.17622 0.26184 0.23477 0.0
H201 H 0.14015 0.23054 0.27159 0.0
C202 C 0.08927 0.23626 0.15323 0.0
C203 C 0.0787 0.19076 0.167 0.0
C204 C 0.09156 0.26336 0.1724 0.0
C205 C 0.0829 0.24535 0.20561 0.0
C206 C 0.06725 0.19801 0.21885 0.0
H207 H 0.20732 0.50941 0.27407 0.0
H208 H 0.14393 0.4216 0.27835 0.0
C209 C 0.06577 0.17107 0.19972 0.0
C210 C 0.09829 0.27933 0.22612 0.0
H211 H 0.20315 0.34957 0.27219 0.0
C212 C 0.07668 0.3058 0.21863 0.0
C213 C 0.14237 0.29346 0.24753 0.0
C214 C 0.16761 0.2667 0.25665 0.0
C215 C 0.10188 0.3493 0.22869 0.0
C216 C 0.1493 0.36605 0.24698 0.0
C217 C 0.1669 0.3365 0.25793 0.0
C218 C 0.18773 0.41773 0.24757 0.0
C219 C 0.08095 0.37951 0.21682 0.0
C220 C 0.23341 0.44409 0.22941 0.0
C221 C 0.26917 0.49348 0.22707 0.0
C222 C 0.26028 0.5175 0.24311 0.0
C223 C 0.21509 0.49126 0.26184 0.0
C224 C 0.17889 0.44141 0.26413 0.0
H225 H 0.04406 0.36159 0.20218 0.0
H226 H 0.07277 0.38678 0.23765 0.0
H227 H 0.11098 0.41473 0.20199 0.0
H228 H 0.24075 0.42652 0.21628 0.0
H229 H 0.30363 0.5131 0.21237 0.0
H230 H 0.9518 0.14573 0.6331 0.0
H231 H 0.92916 0.181 0.66278 0.0
H232 H 0.76412 0.07979 0.64236 0.0
H233 H 0.78632 0.04479 0.61213 0.0
H234 H 0.86806 0.22042 0.64183 0.0
H235 H 0.77705 0.06059 0.74259 0.0
H236 H 0.82056 0.07091 0.71439 0.0
H237 H 0.75298 0.04774 0.70318 0.0
C238 C 0.91074 0.13159 0.63435 0.0
C239 C 0.87078 0.09229 0.62039 0.0
C240 C 0.89792 0.15149 0.65157 0.0
C241 C 0.845 0.13221 0.65528 0.0
C242 C 0.80515 0.09435 0.64033 0.0
H243 H 0.65787 0.18183 0.73138 0.0
H244 H 0.69625 0.14824 0.71395 0.0
C245 C 0.8179 0.07451 0.62303 0.0
C246 C 0.83122 0.15166 0.67476 0.0
H247 H 0.76328 0.12025 0.74101 0.0
C248 C 0.84574 0.19889 0.66374 0.0
C249 C 0.80231 0.12328 0.70334 0.0
C250 C 0.78763 0.07293 0.71682 0.0
C251 C 0.82976 0.21783 0.67975 0.0
C252 C 0.79961 0.18899 0.70793 0.0
C253 C 0.78658 0.14226 0.7195 0.0
C254 C 0.77697 0.20511 0.72379 0.0
C255 C 0.84306 0.2676 0.66541 0.0
C256 C 0.80956 0.24705 0.73633 0.0
C257 C 0.78762 0.26632 0.74608 0.0
C258 C 0.73288 0.24311 0.74425 0.0
C259 C 0.70016 0.19966 0.73358 0.0
C260 C 0.72204 0.1806 0.72359 0.0
H261 H 0.85683 0.28076 0.64029 0.0
H262 H 0.80829 0.26804 0.66554 0.0
H263 H 0.87507 0.29321 0.68001 0.0
H264 H 0.85203 0.26619 0.73697 0.0
H265 H 0.81357 0.30086 0.75305 0.0
H266 H 0.87639 0.87097 0.08715 0.0
H267 H 0.80016 0.83226 0.12032 0.0
H268 H 0.8678 0.96612 0.14835 0.0
H269 H 0.94397 0.00559 0.11464 0.0
H270 H 0.79125 0.82049 0.18566 0.0
H271 H 0.72352 0.93127 0.11183 0.0
H272 H 0.77364 0.93027 0.09848 0.0
H273 H 0.78962 0.96463 0.12789 0.0
C274 C 0.87526 0.89225 0.10041 0.0
C275 C 0.91607 0.94153 0.09797 0.0
C276 C 0.83166 0.86999 0.11943 0.0
C277 C 0.82795 0.89647 0.13641 0.0
C278 C 0.86939 0.94527 0.13491 0.0
H279 H 0.54673 0.79781 0.2336 0.0
H280 H 0.64011 0.84417 0.22022 0.0
C281 C 0.91297 0.9677 0.11573 0.0
C282 C 0.77981 0.87292 0.15479 0.0
H283 H 0.67216 0.8728 0.15616 0.0
C284 C 0.76542 0.83217 0.17942 0.0
C285 C 0.74624 0.88831 0.14665 0.0
C286 C 0.75862 0.93075 0.11962 0.0
C287 C 0.71775 0.80574 0.19561 0.0
C288 C 0.68345 0.8202 0.1867 0.0
C289 C 0.69875 0.862 0.163 0.0
C290 C 0.62929 0.78998 0.19914 0.0
C291 C 0.70411 0.76219 0.22183 0.0
C292 C 0.59255 0.74422 0.19191 0.0
C293 C 0.53968 0.71781 0.19981 0.0
C294 C 0.52274 0.73657 0.21524 0.0
C295 C 0.55953 0.78191 0.22302 0.0
C296 C 0.61253 0.80854 0.21499 0.0
H297 H 0.73999 0.76421 0.23225 0.0
H298 H 0.6825 0.75833 0.24142 0.0
H299 H 0.67839 0.72938 0.21155 0.0
H300 H 0.60434 0.72976 0.17896 0.0
H301 H 0.51171 0.68317 0.19316 0.0
H302 H 0.90582 0.84373 0.59396 0.0
H303 H 0.87177 0.76424 0.62768 0.0
H304 H 1.00113 0.77014 0.60133 0.0
H305 H 0.03639 0.85081 0.56757 0.0
H306 H 0.83969 0.68316 0.60796 0.0
H307 H 1.0014 0.72831 0.69979 0.0
H308 H 0.99499 0.77356 0.67272 0.0
H309 H 0.02124 0.74827 0.65867 0.0
C310 C 0.92738 0.82845 0.59528 0.0
C311 C 0.97394 0.85379 0.57794 0.0
C312 C 0.90779 0.78289 0.6147 0.0
C313 C 0.93417 0.76145 0.61737 0.0
C314 C 0.98068 0.78643 0.60013 0.0
H315 H 0.84093 0.47193 0.70934 0.0
H316 H 0.89094 0.55788 0.68365 0.0
C317 C 1.00056 0.83236 0.58066 0.0
C318 C 0.91091 0.71195 0.63701 0.0
H319 H 0.93161 0.64559 0.70349 0.0
C320 C 0.85978 0.67499 0.62888 0.0
C321 C 0.93727 0.70135 0.66423 0.0
C322 C 0.9916 0.73994 0.67465 0.0
C323 C 0.83427 0.62774 0.64711 0.0
C324 C 0.8602 0.61722 0.67463 0.0
C325 C 0.91168 0.65393 0.68256 0.0
C326 C 0.83457 0.56782 0.69473 0.0
C327 C 0.78003 0.58928 0.63639 0.0
C328 C 0.78738 0.54546 0.71051 0.0
C329 C 0.75883 0.49646 0.72506 0.0
C330 C 0.77776 0.4695 0.72475 0.0
C331 C 0.82628 0.49243 0.71045 0.0
C332 C 0.85471 0.54136 0.69575 0.0
H333 H 0.77113 0.60065 0.61093 0.0
H334 H 0.77609 0.55524 0.63901 0.0
H335 H 0.75002 0.58182 0.65161 0.0
H336 H 0.77135 0.56535 0.71019 0.0
H337 H 0.72061 0.47907 0.73494 0.0
H338 H 0.13706 0.85693 0.41613 0.0
H339 H 0.16694 0.82907 0.38499 0.0
H340 H 0.3267 0.95396 0.39095 0.0
H341 H 0.29737 0.98155 0.42295 0.0
H342 H 0.22175 0.88025 0.32467 0.0
H343 H 0.33572 0.83759 0.42331 0.0
H344 H 0.28745 0.84553 0.43084 0.0
H345 H 0.35146 0.89704 0.41654 0.0
C346 C 0.17874 0.87797 0.41144 0.0
C347 C 0.21499 0.92119 0.42229 0.0
C348 C 0.19558 0.86232 0.39328 0.0
C349 C 0.24892 0.88945 0.38579 0.0
C350 C 0.28537 0.9324 0.39674 0.0
H351 H 0.41464 0.81681 0.30487 0.0
H352 H 0.3921 0.86568 0.31794 0.0
C353 C 0.26857 0.94814 0.4149 0.0
C354 C 0.26629 0.8724 0.36671 0.0
H355 H 0.33847 0.82837 0.37205 0.0
C356 C 0.24751 0.8691 0.33486 0.0
C357 C 0.29976 0.85793 0.38022 0.0
C358 C 0.31956 0.85925 0.41467 0.0
C359 C 0.26157 0.85167 0.31603 0.0
C360 C 0.29448 0.83655 0.32972 0.0
C361 C 0.31363 0.84044 0.36148 0.0
C362 C 0.3078 0.81401 0.31272 0.0
C363 C 0.24122 0.84971 0.28176 0.0
C364 C 0.26795 0.76998 0.3037 0.0
C365 C 0.28095 0.7424 0.29572 0.0
C366 C 0.33375 0.75851 0.29708 0.0
C367 C 0.37367 0.80408 0.30357 0.0
C368 C 0.36082 0.83186 0.31106 0.0
H369 H 0.23193 0.87645 0.27182 0.0
H370 H 0.27016 0.8564 0.26599 0.0
H371 H 0.20426 0.81337 0.2812 0.0
H372 H 0.22677 0.75514 0.30534 0.0
H373 H 0.24971 0.70697 0.29111 0.0
H374 H 0.10885 0.0518 0.93005 0.0
H375 H 0.18067 0.08746 0.89348 0.0
H376 H 0.29401 0.13791 0.97095 0.0
H377 H 0.22283 0.10288 1.00765 0.0
H378 H 0.28045 0.19344 0.88212 0.0
H379 H 0.31488 0.05128 0.93056 0.0
H380 H 0.25271 0.04122 0.93442 0.0
H381 H 0.30798 0.07496 0.95981 0.0
C382 C 0.14906 0.07058 0.93933 0.0
C383 C 0.16003 0.07435 0.97185 0.0
C384 C 0.18998 0.09098 0.91836 0.0
C385 C 0.24244 0.11492 0.92964 0.0
C386 C 0.25364 0.11925 0.9619 0.0
H387 H 0.55308 0.30543 0.86537 0.0
H388 H 0.46327 0.26589 0.88182 0.0
C389 C 0.21289 0.09932 0.9828 0.0
C390 C 0.28584 0.13517 0.90795 0.0
H391 H 0.3801 0.12235 0.89617 0.0
C392 C 0.30185 0.17762 0.8848 0.0
C393 C 0.31311 0.11403 0.91128 0.0
C394 C 0.29626 0.06763 0.93517 0.0
C395 C 0.34641 0.20092 0.86604 0.0
C396 C 0.37553 0.18123 0.8707 0.0
C397 C 0.35769 0.13736 0.8926 0.0
C398 C 0.42797 0.20834 0.85631 0.0
C399 C 0.36281 0.24703 0.84195 0.0
C400 C 0.43796 0.18925 0.83628 0.0
C401 C 0.48955 0.21205 0.8267 0.0
C402 C 0.5317 0.25372 0.83746 0.0
C403 C 0.52122 0.2734 0.85666 0.0
C404 C 0.46988 0.25104 0.86589 0.0
H405 H 0.32911 0.24977 0.83449 0.0
H406 H 0.39368 0.27813 0.85306 0.0
H407 H 0.37946 0.24973 0.82023 0.0
H408 H 0.40618 0.15595 0.82896 0.0
H409 H 0.49685 0.1956 0.81258 0.0
H410 H 0.1041 0.11895 0.43121 0.0
H411 H 0.14268 0.20118 0.40061 0.0
H412 H 0.1066 0.23454 0.47678 0.0
H413 H 0.06859 0.15232 0.508 0.0
H414 H 0.1 0.2524 0.37759 0.0
H415 H 0.26369 0.33964 0.46478 0.0
H416 H 0.22336 0.27555 0.46686 0.0
H417 H 0.19949 0.30194 0.48211 0.0
C418 C 0.10426 0.14366 0.44157 0.0
C419 C 0.08355 0.12904 0.47225 0.0
C420 C 0.12631 0.1907 0.42395 0.0
C421 C 0.1283 0.22422 0.4366 0.0
C422 C 0.10652 0.20953 0.46685 0.0
H423 H 0.23436 0.51919 0.37012 0.0
H424 H 0.18818 0.43336 0.39467 0.0
C425 C 0.08456 0.16244 0.4846 0.0
C426 C 0.15345 0.27454 0.41811 0.0
H427 H 0.25232 0.39155 0.42184 0.0
C428 C 0.13351 0.28281 0.38717 0.0
C429 C 0.19745 0.31416 0.43054 0.0
C430 C 0.22266 0.30751 0.46275 0.0
C431 C 0.15568 0.32976 0.36872 0.0
C432 C 0.19877 0.36922 0.3815 0.0
C433 C 0.21907 0.36102 0.41221 0.0
C434 C 0.22249 0.41962 0.36396 0.0
C435 C 0.13237 0.33728 0.33603 0.0
C436 C 0.2567 0.44008 0.33834 0.0
C437 C 0.28346 0.48931 0.32437 0.0
C438 C 0.27585 0.51845 0.33565 0.0
C439 C 0.24056 0.49744 0.36077 0.0
C440 C 0.21417 0.4485 0.37479 0.0
H441 H 0.09843 0.30283 0.3295 0.0
H442 H 0.11921 0.36035 0.33543 0.0
H443 H 0.1631 0.35651 0.31767 0.0
H444 H 0.26406 0.41837 0.32995 0.0
H445 H 0.31146 0.50489 0.30561 0.0
H446 H 0.94958 0.03607 0.94334 0.0
H447 H 0.90944 0.07342 0.90747 0.0
H448 H 0.95224 0.16192 0.97496 0.0
H449 H 0.9959 0.12676 1.00982 0.0
H450 H 0.82957 0.06812 0.9152 0.0
H451 H 0.99277 0.26173 0.89554 0.0
H452 H 0.00329 0.21589 0.91478 0.0
H453 H 0.98109 0.23648 0.93767 0.0
C454 C 0.95111 0.0641 0.95021 0.0
C455 C 0.97581 0.0787 0.97922 0.0
C456 C 0.92812 0.08542 0.92973 0.0
C457 C 0.92818 0.12107 0.93813 0.0
C458 C 0.95304 0.13574 0.96726 0.0
H459 H 0.6923 0.17375 0.88332 0.0
H460 H 0.74326 0.14069 0.90365 0.0
C461 C 0.97755 0.11535 0.98735 0.0
C462 C 0.89865 0.13977 0.91759 0.0
H463 H 0.90516 0.24222 0.88394 0.0
C464 C 0.8466 0.1063 0.90801 0.0
C465 C 0.92076 0.1896 0.90744 0.0
C466 C 0.97774 0.22792 0.9141 0.0
C467 C 0.81563 0.12101 0.88968 0.0
C468 C 0.83628 0.1705 0.88185 0.0
C469 C 0.88896 0.2042 0.89026 0.0
C470 C 0.80291 0.18773 0.86714 0.0
C471 C 0.76115 0.08318 0.87882 0.0
C472 C 0.81965 0.22581 0.84004 0.0
C473 C 0.7909 0.24545 0.8287 0.0
C474 C 0.74472 0.22701 0.84408 0.0
C475 C 0.72734 0.18814 0.8706 0.0
C476 C 0.75623 0.16891 0.88214 0.0
H477 H 0.75929 0.05212 0.87566 0.0
H478 H 0.7324 0.06934 0.8975 0.0
H479 H 0.74898 0.09795 0.85578 0.0
H480 H 0.85596 0.24148 0.82833 0.0
H481 H 0.80654 0.27688 0.80944 0.0
H482 H 0.93056 0.90793 0.43938 0.0
H483 H 0.85822 0.8755 0.40051 0.0
H484 H 0.79957 0.94532 0.4267 0.0
H485 H 0.87183 0.97757 0.46634 0.0
H486 H 0.72438 0.8501 0.42849 0.0
H487 H 0.82795 0.93464 0.31276 0.0
H488 H 0.85372 0.90612 0.34219 0.0
H489 H 0.85949 0.95687 0.34917 0.0
C490 C 0.90268 0.91692 0.43675 0.0
C491 C 0.90685 0.94518 0.45616 0.0
C492 C 0.86162 0.89873 0.41417 0.0
C493 C 0.82407 0.90871 0.41025 0.0
C494 C 0.82852 0.93761 0.42914 0.0
H495 H 0.54382 0.80393 0.28681 0.0
H496 H 0.63422 0.85691 0.30652 0.0
C497 C 0.8697 0.95587 0.45184 0.0
C498 C 0.77725 0.88459 0.38901 0.0
H499 H 0.73853 0.86376 0.31274 0.0
C500 C 0.72749 0.85362 0.40311 0.0
C501 C 0.78135 0.88932 0.35583 0.0
C502 C 0.83348 0.92392 0.33901 0.0
C503 C 0.6819 0.82598 0.38526 0.0
C504 C 0.68628 0.82887 0.35256 0.0
C505 C 0.73564 0.86109 0.338 0.0
C506 C 0.63916 0.7985 0.33357 0.0
C507 C 0.62925 0.79345 0.4016 0.0
C508 C 0.61345 0.74843 0.34091 0.0
C509 C 0.56217 0.71828 0.32943 0.0
C510 C 0.5364 0.73792 0.31008 0.0
C511 C 0.56377 0.78814 0.30062 0.0
C512 C 0.61511 0.81835 0.31213 0.0
H513 H 0.63139 0.8023 0.42487 0.0
H514 H 0.59891 0.7961 0.38585 0.0
H515 H 0.61616 0.75554 0.40645 0.0
H516 H 0.6315 0.73258 0.35753 0.0
H517 H 0.54126 0.67961 0.33755 0.0
H518 H 0.98543 0.76474 0.94779 0.0
H519 H 0.97072 0.70407 0.92188 0.0
H520 H 0.87432 0.73036 0.84838 0.0
H521 H 0.88946 0.79146 0.87367 0.0
H522 H 0.82638 0.63153 0.88863 0.0
H523 H 0.0151 0.70911 0.83223 0.0
H524 H 0.01778 0.71669 0.8723 0.0
H525 H 0.99795 0.74651 0.83912 0.0
C526 C 0.96243 0.7586 0.92558 0.0
C527 C 0.93813 0.78244 0.9129 0.0
C528 C 0.9541 0.724 0.91084 0.0
C529 C 0.92169 0.71312 0.88322 0.0
C530 C 0.89963 0.73855 0.86964 0.0
H531 H 0.7451 0.47116 0.79079 0.0
H532 H 0.79262 0.55249 0.80049 0.0
C533 C 0.90799 0.77311 0.88425 0.0
C534 C 0.90471 0.67098 0.87093 0.0
H535 H 0.94533 0.62796 0.83033 0.0
C536 C 0.85225 0.63077 0.87574 0.0
C537 C 0.93899 0.67021 0.8546 0.0
C538 C 0.99563 0.71292 0.849 0.0
C539 C 0.83291 0.58946 0.86462 0.0
C540 C 0.86667 0.58899 0.84747 0.0
C541 C 0.91948 0.62895 0.84304 0.0
C542 C 0.84747 0.54605 0.83533 0.0
C543 C 0.77677 0.54623 0.87195 0.0
C544 C 0.86475 0.51697 0.85028 0.0
C545 C 0.83837 0.47103 0.84413 0.0
C546 C 0.79469 0.45388 0.8228 0.0
C547 C 0.77989 0.48437 0.80622 0.0
C548 C 0.80645 0.53041 0.8122 0.0
H549 H 0.76021 0.54868 0.89135 0.0
H550 H 0.75171 0.54396 0.85 0.0
H551 H 0.77435 0.51242 0.87931 0.0
H552 H 0.89626 0.52849 0.86826 0.0
H553 H 0.85029 0.44795 0.85732 0.0
loop_
_geom_bond_atom_site_label_1
_geom_bond_atom_site_label_2
_geom_bond_distance
_geom_bond_site_symmetry_2
_ccdc_geom_bond_type
Tb0 C9 2.764 . S
Tb0 O10 2.325 1_656 S
Tb0 O13 2.303 1_556 S
Tb0 O17 2.322 1_565 S
Tb0 O18 2.349 1_665 S
Tb0 O21 2.415 . S
Tb0 O22 2.413 . S
Tb1 O11 2.322 1_545 S
Tb1 O12 2.349 1_445 S
Tb1 O14 2.415 . S
Tb1 O15 2.399 . S
Tb1 O16 2.342 . S
Tb1 O19 2.303 1_554 S
Tb1 C30 2.764 . S
C2 O18 1.261 . S
C2 O19 1.257 . S
C3 C6 1.358 . S
C3 C7 1.332 . S
C3 C9 1.504 . S
C4 C5 1.373 . S
C4 C8 1.308 . S
C5 C4 1.373 . S
C5 C6 1.429 . S
C5 H32 0.932 . S
C6 C3 1.358 . S
C6 C5 1.429 . S
C6 H33 0.930 . S
C7 C3 1.332 . S
C7 C8 1.394 . S
C7 H34 0.932 . S
C8 C4 1.308 . S
C8 C7 1.394 . S
C8 H35 0.929 . S
C9 Tb0 2.764 . S
C9 C3 1.504 . S
C9 O21 1.239 . S
C9 O22 1.273 . S
O10 Tb0 2.325 1_454 S
O10 C20 1.236 . S
O11 Tb1 2.322 1_565 S
O11 C20 1.257 . S
O12 Tb1 2.349 1_665 S
O12 C23 1.261 . S
O13 Tb0 2.303 1_554 S
O13 C23 1.257 . S
O14 Tb1 2.415 . S
O14 C30 1.239 . S
O15 Tb1 2.399 . S
O15 C30 1.263 . S
O16 Tb1 2.342 . S
O16 C31 1.207 1_554 S
O17 Tb0 2.322 1_545 S
O17 C31 1.257 1_655 S
O18 Tb0 2.349 1_445 S
O18 C2 1.261 . S
O19 Tb1 2.303 1_556 S
O19 C2 1.257 . S
C20 O10 1.236 . S
C20 O11 1.257 . S
O21 Tb0 2.415 . S
O21 C9 1.239 . S
O22 Tb0 2.413 . S
O22 C9 1.273 . S
C23 O12 1.261 . S
C23 O13 1.257 . S
C24 C27 1.358 . S
C24 C28 1.332 . S
C24 C30 1.504 . S
C25 C26 1.373 . S
C25 C29 1.308 . S
C26 C25 1.373 . S
C26 C27 1.429 . S
C26 H36 0.932 . S
C27 C24 1.358 . S
C27 C26 1.429 . S
C27 H37 0.930 . S
C28 C24 1.332 . S
C28 C29 1.394 . S
C28 H38 0.932 . S
C29 C25 1.308 . S
C29 C28 1.394 . S
C29 H39 0.929 . S
C30 Tb1 2.764 . S
C30 O14 1.239 . S
C30 O15 1.263 . S
C30 C24 1.504 . S
C31 O16 1.207 1_556 S
C31 O17 1.257 1_455 S
H32 C5 0.932 . S
H33 C6 0.930 . S
H34 C7 0.932 . S
H35 C8 0.929 . S
H36 C26 0.932 . S
H37 C27 0.930 . S
H38 C28 0.932 . S
H39 C29 0.929 . S
Tb40 C49 2.764 . S
Tb40 O50 2.325 1_565 S
Tb40 O53 2.303 . S
Tb40 O57 2.322 1_455 S
Tb40 O58 2.349 1_565 S
Tb40 O61 2.415 . S
Tb40 O62 2.399 1_565 S
Tb41 O51 2.322 . S
Tb41 O52 2.349 1_445 S
Tb41 O54 2.415 1_455 S
Tb41 O55 2.399 1_455 S
Tb41 O56 2.325 1_445 S
Tb41 O59 2.303 . S
Tb41 C70 2.764 1_455 S
C42 O58 1.261 . S
C42 O59 1.257 . S
C43 C46 1.358 . S
C43 C47 1.332 . S
C43 C49 1.504 . S
C44 C45 1.373 . S
C44 C48 1.308 . S
C45 C44 1.373 . S
C45 C46 1.429 . S
C45 H72 0.932 . S
C46 C43 1.358 . S
C46 C45 1.429 . S
C46 H73 0.930 1_565 S
C47 C43 1.332 . S
C47 C48 1.394 . S
C47 H74 0.932 . S
C48 C44 1.308 . S
C48 C47 1.394 . S
C48 H75 0.929 . S
C49 Tb40 2.764 . S
C49 C43 1.504 . S
C49 O61 1.239 . S
C49 O62 1.263 1_565 S
O50 Tb40 2.325 1_545 S
O50 C60 1.236 . S
O51 Tb41 2.322 . S
O51 C60 1.257 . S
O52 Tb41 2.349 1_665 S
O52 C63 1.261 . S
O53 Tb40 2.303 . S
O53 C63 1.257 1_455 S
O54 Tb41 2.415 1_655 S
O54 C70 1.239 . S
O55 Tb41 2.399 1_655 S
O55 C70 1.263 . S
O56 Tb41 2.325 1_665 S
O56 C71 1.236 . S
O57 Tb40 2.322 1_655 S
O57 C71 1.257 . S
O58 Tb40 2.349 1_545 S
O58 C42 1.261 . S
O59 Tb41 2.303 . S
O59 C42 1.257 . S
C60 O50 1.236 . S
C60 O51 1.257 . S
O61 Tb40 2.415 . S
O61 C49 1.239 . S
O62 Tb40 2.399 1_545 S
O62 C49 1.263 1_545 S
C63 O52 1.261 . S
C63 O53 1.257 1_655 S
C64 C67 1.358 . S
C64 C68 1.332 . S
C64 C70 1.504 . S
C65 C66 1.373 . S
C65 C69 1.308 . S
C66 C65 1.373 . S
C66 C67 1.429 . S
C66 H76 0.932 . S
C67 C64 1.358 . S
C67 C66 1.429 . S
C67 H77 0.930 . S
C68 C64 1.332 . S
C68 C69 1.394 . S
C68 H78 0.932 . S
C69 C65 1.308 . S
C69 C68 1.394 . S
C69 H79 0.929 . S
C70 Tb41 2.764 1_655 S
C70 O54 1.239 . S
C70 O55 1.263 . S
C70 C64 1.504 . S
C71 O56 1.236 . S
C71 O57 1.257 . S
H72 C45 0.932 . S
H73 C46 0.930 1_545 S
H74 C47 0.932 . S
H75 C48 0.929 . S
H76 C66 0.932 . S
H77 C67 0.930 . S
H78 C68 0.932 . S
H79 C69 0.929 . S
Zn80 O86 1.920 . S
Zn80 O92 1.898 . S
Zn80 O95 1.905 . S
Zn81 O89 1.905 . S
Zn81 O90 1.898 . S
Zn81 O98 1.920 . S
Zn82 O85 2.080 . S
Zn82 O88 2.114 . S
Zn82 O91 2.120 . S
Zn82 O93 2.120 . S
Zn82 O94 2.114 . S
Zn82 O97 2.080 . S
C83 O88 1.166 . S
C83 O89 1.182 . S
C84 O90 1.167 . S
C84 O91 1.299 . S
O85 Zn82 2.080 . S
O85 C99 1.305 . S
O86 Zn80 1.920 . S
O86 C99 1.234 . S
C87 O92 1.167 . S
C87 O93 1.299 . S
O88 Zn82 2.114 . S
O88 C83 1.166 . S
O89 Zn81 1.905 . S
O89 C83 1.182 . S
O90 Zn81 1.898 . S
O90 C84 1.167 . S
O91 Zn82 2.120 . S
O91 C84 1.299 . S
O92 Zn80 1.898 . S
O92 C87 1.167 . S
O93 Zn82 2.120 . S
O93 C87 1.299 . S
O94 Zn82 2.114 . S
O94 C96 1.166 . S
O95 Zn80 1.905 . S
O95 C96 1.182 . S
C96 O94 1.166 . S
C96 O95 1.182 . S
O97 Zn82 2.080 . S
O97 C100 1.305 . S
O98 Zn81 1.920 . S
O98 C100 1.234 . S
C99 O85 1.305 . S
C99 O86 1.234 . S
C100 O97 1.305 . S
C100 O98 1.234 . S
Zn101 O107 1.920 . S
Zn101 O113 1.898 . S
Zn101 O116 1.905 . S
Zn102 O110 1.905 . S
Zn102 O111 1.898 . S
Zn102 O119 1.920 . S
Zn103 O106 2.080 . S
Zn103 O109 2.114 . S
Zn103 O112 2.120 . S
Zn103 O114 2.120 . S
Zn103 O115 2.114 . S
Zn103 O118 2.080 . S
C104 O109 1.166 . S
C104 O110 1.182 . S
C105 O111 1.167 . S
C105 O112 1.299 . S
O106 Zn103 2.080 . S
O106 C120 1.305 . S
O107 Zn101 1.920 . S
O107 C120 1.234 . S
C108 O113 1.167 . S
C108 O114 1.299 . S
O109 Zn103 2.114 . S
O109 C104 1.166 . S
O110 Zn102 1.905 . S
O110 C104 1.182 . S
O111 Zn102 1.898 . S
O111 C105 1.167 . S
O112 Zn103 2.120 . S
O112 C105 1.299 . S
O113 Zn101 1.898 . S
O113 C108 1.167 . S
O114 Zn103 2.120 . S
O114 C108 1.299 . S
O115 Zn103 2.114 . S
O115 C117 1.166 . S
O116 Zn101 1.905 . S
O116 C117 1.182 . S
C117 O115 1.166 . S
C117 O116 1.182 . S
O118 Zn103 2.080 . S
O118 C121 1.305 . S
O119 Zn102 1.920 . S
O119 C121 1.234 . S
C120 O106 1.305 . S
C120 O107 1.234 . S
C121 O118 1.305 . S
C121 O119 1.234 . S
H122 C130 0.929 . S
H123 C132 0.930 . S
H124 C134 0.930 . S
H125 C137 0.929 . S
H126 C140 0.930 . S
H127 C142 0.960 . S
H128 C142 0.960 . S
H129 C142 0.960 . S
C130 H122 0.929 . S
C130 C131 1.377 . S
C130 C132 1.384 . S
C131 C130 1.377 . S
C131 C137 1.390 . S
C132 H123 0.930 . S
C132 C130 1.384 . S
C132 C133 1.372 . S
C133 C132 1.372 . S
C133 C134 1.400 . S
C133 C138 1.490 . S
C134 H124 0.930 . S
C134 C133 1.400 . S
C134 C137 1.386 . S
H135 C151 0.930 . S
H136 C152 0.931 . S
C137 H125 0.929 . S
C137 C131 1.390 . S
C137 C134 1.386 . S
C138 C133 1.490 . S
C138 C140 1.395 . S
C138 C141 1.403 . S
H139 C145 0.930 . S
C140 H126 0.930 . S
C140 C138 1.395 . S
C140 C143 1.403 . S
C141 C138 1.403 . S
C141 C142 1.524 . S
C141 C145 1.400 . S
C142 H127 0.960 . S
C142 H128 0.960 . S
C142 H129 0.960 . S
C142 C141 1.524 . S
C143 C140 1.403 . S
C143 C144 1.392 . S
C143 C147 1.495 . S
C144 C143 1.392 . S
C144 C145 1.385 . S
C144 C146 1.478 . S
C145 H139 0.930 . S
C145 C141 1.400 . S
C145 C144 1.385 . S
C146 C144 1.478 . S
C146 C148 1.381 . S
C146 C152 1.383 . S
C147 C143 1.495 . S
C147 H153 0.959 . S
C147 H154 0.961 . S
C147 H155 0.960 . S
C148 C146 1.381 . S
C148 C149 1.394 . S
C148 H156 0.930 . S
C149 C148 1.394 . S
C149 C150 1.383 . S
C149 H157 0.929 . S
C150 C149 1.383 . S
C150 C151 1.377 . S
C151 H135 0.930 . S
C151 C150 1.377 . S
C151 C152 1.379 . S
C152 H136 0.931 . S
C152 C146 1.383 . S
C152 C151 1.379 . S
H153 C147 0.959 . S
H154 C147 0.961 . S
H155 C147 0.960 . S
H156 C148 0.930 . S
H157 C149 0.929 . S
H158 C166 0.929 . S
H159 C168 0.930 . S
H160 C170 0.930 . S
H161 C173 0.929 1_565 S
H162 C176 0.930 . S
H163 C178 0.960 . S
H164 C178 0.960 . S
H165 C178 0.960 . S
C166 H158 0.929 . S
C166 C167 1.377 . S
C166 C168 1.384 . S
C167 C166 1.377 . S
C167 C173 1.390 . S
C168 H159 0.930 . S
C168 C166 1.384 . S
C168 C169 1.372 . S
C169 C168 1.372 . S
C169 C170 1.400 . S
C169 C174 1.490 . S
C170 H160 0.930 . S
C170 C169 1.400 . S
C170 C173 1.386 . S
H171 C187 0.930 . S
H172 C188 0.931 . S
C173 H161 0.929 1_545 S
C173 C167 1.390 . S
C173 C170 1.386 . S
C174 C169 1.490 . S
C174 C176 1.395 . S
C174 C177 1.403 . S
H175 C181 0.930 . S
C176 H162 0.930 . S
C176 C174 1.395 . S
C176 C179 1.403 . S
C177 C174 1.403 . S
C177 C178 1.524 . S
C177 C181 1.400 . S
C178 H163 0.960 . S
C178 H164 0.960 . S
C178 H165 0.960 . S
C178 C177 1.524 . S
C179 C176 1.403 . S
C179 C180 1.392 . S
C179 C183 1.495 . S
C180 C179 1.392 . S
C180 C181 1.385 . S
C180 C182 1.478 . S
C181 H175 0.930 . S
C181 C177 1.400 . S
C181 C180 1.385 . S
C182 C180 1.478 . S
C182 C184 1.381 . S
C182 C188 1.383 . S
C183 C179 1.495 . S
C183 H189 0.959 . S
C183 H190 0.961 . S
C183 H191 0.960 . S
C184 C182 1.381 . S
C184 C185 1.394 . S
C184 H192 0.930 . S
C185 C184 1.394 . S
C185 C186 1.383 . S
C185 H193 0.929 . S
C186 C185 1.383 . S
C186 C187 1.377 . S
C187 H171 0.930 . S
C187 C186 1.377 . S
C187 C188 1.379 . S
C188 H172 0.931 . S
C188 C182 1.383 . S
C188 C187 1.379 . S
H189 C183 0.959 . S
H190 C183 0.961 . S
H191 C183 0.960 . S
H192 C184 0.930 . S
H193 C185 0.929 . S
H194 C202 0.929 . S
H195 C204 0.930 . S
H196 C206 0.930 . S
H197 C209 0.929 . S
H198 C212 0.930 . S
H199 C214 0.960 . S
H200 C214 0.960 . S
H201 C214 0.960 . S
C202 H194 0.929 . S
C202 C203 1.377 . S
C202 C204 1.384 . S
C203 C202 1.377 . S
C203 C209 1.390 . S
C204 H195 0.930 . S
C204 C202 1.384 . S
C204 C205 1.372 . S
C205 C204 1.372 . S
C205 C206 1.400 . S
C205 C210 1.490 . S
C206 H196 0.930 . S
C206 C205 1.400 . S
C206 C209 1.386 . S
H207 C223 0.930 . S
H208 C224 0.931 . S
C209 H197 0.929 . S
C209 C203 1.390 . S
C209 C206 1.386 . S
C210 C205 1.490 . S
C210 C212 1.395 . S
C210 C213 1.403 . S
H211 C217 0.930 . S
C212 H198 0.930 . S
C212 C210 1.395 . S
C212 C215 1.403 . S
C213 C210 1.403 . S
C213 C214 1.524 . S
C213 C217 1.400 . S
C214 H199 0.960 . S
C214 H200 0.960 . S
C214 H201 0.960 . S
C214 C213 1.524 . S
C215 C212 1.403 . S
C215 C216 1.392 . S
C215 C219 1.495 . S
C216 C215 1.392 . S
C216 C217 1.385 . S
C216 C218 1.478 . S
C217 H211 0.930 . S
C217 C213 1.400 . S
C217 C216 1.385 . S
C218 C216 1.478 . S
C218 C220 1.381 . S
C218 C224 1.383 . S
C219 C215 1.495 . S
C219 H225 0.959 . S
C219 H226 0.961 . S
C219 H227 0.960 . S
C220 C218 1.381 . S
C220 C221 1.394 . S
C220 H228 0.930 . S
C221 C220 1.394 . S
C221 C222 1.383 . S
C221 H229 0.929 . S
C222 C221 1.383 . S
C222 C223 1.377 . S
C223 H207 0.930 . S
C223 C222 1.377 . S
C223 C224 1.379 . S
C224 H208 0.931 . S
C224 C218 1.383 . S
C224 C223 1.379 . S
H225 C219 0.959 . S
H226 C219 0.961 . S
H227 C219 0.960 . S
H228 C220 0.930 . S
H229 C221 0.929 . S
H230 C238 0.929 . S
H231 C240 0.930 . S
H232 C242 0.930 . S
H233 C245 0.929 . S
H234 C248 0.930 . S
H235 C250 0.960 . S
H236 C250 0.960 . S
H237 C250 0.960 . S
C238 H230 0.929 . S
C238 C239 1.377 . S
C238 C240 1.384 . S
C239 C238 1.377 . S
C239 C245 1.390 . S
C240 H231 0.930 . S
C240 C238 1.384 . S
C240 C241 1.372 . S
C241 C240 1.372 . S
C241 C242 1.400 . S
C241 C246 1.490 . S
C242 H232 0.930 . S
C242 C241 1.400 . S
C242 C245 1.386 . S
H243 C259 0.930 . S
H244 C260 0.931 . S
C245 H233 0.929 . S
C245 C239 1.390 . S
C245 C242 1.386 . S
C246 C241 1.490 . S
C246 C248 1.395 . S
C246 C249 1.403 . S
H247 C253 0.930 . S
C248 H234 0.930 . S
C248 C246 1.395 . S
C248 C251 1.403 . S
C249 C246 1.403 . S
C249 C250 1.524 . S
C249 C253 1.400 . S
C250 H235 0.960 . S
C250 H236 0.960 . S
C250 H237 0.960 . S
C250 C249 1.524 . S
C251 C248 1.403 . S
C251 C252 1.392 . S
C251 C255 1.495 . S
C252 C251 1.392 . S
C252 C253 1.385 . S
C252 C254 1.478 . S
C253 H247 0.930 . S
C253 C249 1.400 . S
C253 C252 1.385 . S
C254 C252 1.478 . S
C254 C256 1.381 . S
C254 C260 1.383 . S
C255 C251 1.495 . S
C255 H261 0.959 . S
C255 H262 0.961 . S
C255 H263 0.960 . S
C256 C254 1.381 . S
C256 C257 1.394 . S
C256 H264 0.930 . S
C257 C256 1.394 . S
C257 C258 1.383 . S
C257 H265 0.929 . S
C258 C257 1.383 . S
C258 C259 1.377 . S
C259 H243 0.930 . S
C259 C258 1.377 . S
C259 C260 1.379 . S
C260 H244 0.931 . S
C260 C254 1.383 . S
C260 C259 1.379 . S
H261 C255 0.959 . S
H262 C255 0.961 . S
H263 C255 0.960 . S
H264 C256 0.930 . S
H265 C257 0.929 . S
H266 C274 0.929 . S
H267 C276 0.930 . S
H268 C278 0.930 . S
H269 C281 0.929 . S
H270 C284 0.930 . S
H271 C286 0.960 . S
H272 C286 0.960 . S
H273 C286 0.960 . S
C274 H266 0.929 . S
C274 C275 1.377 . S
C274 C276 1.384 . S
C275 C274 1.377 . S
C275 C281 1.390 . S
C276 H267 0.930 . S
C276 C274 1.384 . S
C276 C277 1.372 . S
C277 C276 1.372 . S
C277 C278 1.400 . S
C277 C282 1.490 . S
C278 H268 0.930 . S
C278 C277 1.400 . S
C278 C281 1.386 . S
H279 C295 0.930 . S
H280 C296 0.931 . S
C281 H269 0.929 . S
C281 C275 1.390 . S
C281 C278 1.386 . S
C282 C277 1.490 . S
C282 C284 1.395 . S
C282 C285 1.403 . S
H283 C289 0.930 . S
C284 H270 0.930 . S
C284 C282 1.395 . S
C284 C287 1.403 . S
C285 C282 1.403 . S
C285 C286 1.524 . S
C285 C289 1.400 . S
C286 H271 0.960 . S
C286 H272 0.960 . S
C286 H273 0.960 . S
C286 C285 1.524 . S
C287 C284 1.403 . S
C287 C288 1.392 . S
C287 C291 1.495 . S
C288 C287 1.392 . S
C288 C289 1.385 . S
C288 C290 1.478 . S
C289 H283 0.930 . S
C289 C285 1.400 . S
C289 C288 1.385 . S
C290 C288 1.478 . S
C290 C292 1.381 . S
C290 C296 1.383 . S
C291 C287 1.495 . S
C291 H297 0.959 . S
C291 H298 0.961 . S
C291 H299 0.960 . S
C292 C290 1.381 . S
C292 C293 1.394 . S
C292 H300 0.930 . S
C293 C292 1.394 . S
C293 C294 1.383 . S
C293 H301 0.929 . S
C294 C293 1.383 . S
C294 C295 1.377 . S
C295 H279 0.930 . S
C295 C294 1.377 . S
C295 C296 1.379 . S
C296 H280 0.931 . S
C296 C290 1.383 . S
C296 C295 1.379 . S
H297 C291 0.959 . S
H298 C291 0.961 . S
H299 C291 0.960 . S
H300 C292 0.930 . S
H301 C293 0.929 . S
H302 C310 0.929 . S
H303 C312 0.930 . S
H304 C314 0.930 . S
H305 C317 0.929 1_455 S
H306 C320 0.930 . S
H307 C322 0.960 . S
H308 C322 0.960 . S
H309 C322 0.960 . S
C310 H302 0.929 . S
C310 C311 1.377 . S
C310 C312 1.384 . S
C311 C310 1.377 . S
C311 C317 1.390 . S
C312 H303 0.930 . S
C312 C310 1.384 . S
C312 C313 1.372 . S
C313 C312 1.372 . S
C313 C314 1.400 . S
C313 C318 1.490 . S
C314 H304 0.930 . S
C314 C313 1.400 . S
C314 C317 1.386 . S
H315 C331 0.930 . S
H316 C332 0.931 . S
C317 H305 0.929 1_655 S
C317 C311 1.390 . S
C317 C314 1.386 . S
C318 C313 1.490 . S
C318 C320 1.395 . S
C318 C321 1.403 . S
H319 C325 0.930 . S
C320 H306 0.930 . S
C320 C318 1.395 . S
C320 C323 1.403 . S
C321 C318 1.403 . S
C321 C322 1.524 . S
C321 C325 1.400 . S
C322 H307 0.960 . S
C322 H308 0.960 . S
C322 H309 0.960 . S
C322 C321 1.524 . S
C323 C320 1.403 . S
C323 C324 1.392 . S
C323 C327 1.495 . S
C324 C323 1.392 . S
C324 C325 1.385 . S
C324 C326 1.478 . S
C325 H319 0.930 . S
C325 C321 1.400 . S
C325 C324 1.385 . S
C326 C324 1.478 . S
C326 C328 1.381 . S
C326 C332 1.383 . S
C327 C323 1.495 . S
C327 H333 0.959 . S
C327 H334 0.961 . S
C327 H335 0.960 . S
C328 C326 1.381 . S
C328 C329 1.394 . S
C328 H336 0.930 . S
C329 C328 1.394 . S
C329 C330 1.383 . S
C329 H337 0.929 . S
C330 C329 1.383 . S
C330 C331 1.377 . S
C331 H315 0.930 . S
C331 C330 1.377 . S
C331 C332 1.379 . S
C332 H316 0.931 . S
C332 C326 1.383 . S
C332 C331 1.379 . S
H333 C327 0.959 . S
H334 C327 0.961 . S
H335 C327 0.960 . S
H336 C328 0.930 . S
H337 C329 0.929 . S
H338 C346 0.929 . S
H339 C348 0.930 . S
H340 C350 0.930 . S
H341 C353 0.929 . S
H342 C356 0.930 . S
H343 C358 0.960 . S
H344 C358 0.960 . S
H345 C358 0.960 . S
C346 H338 0.929 . S
C346 C347 1.377 . S
C346 C348 1.384 . S
C347 C346 1.377 . S
C347 C353 1.390 . S
C348 H339 0.930 . S
C348 C346 1.384 . S
C348 C349 1.372 . S
C349 C348 1.372 . S
C349 C350 1.400 . S
C349 C354 1.490 . S
C350 H340 0.930 . S
C350 C349 1.400 . S
C350 C353 1.386 . S
H351 C367 0.930 . S
H352 C368 0.931 . S
C353 H341 0.929 . S
C353 C347 1.390 . S
C353 C350 1.386 . S
C354 C349 1.490 . S
C354 C356 1.395 . S
C354 C357 1.403 . S
H355 C361 0.930 . S
C356 H342 0.930 . S
C356 C354 1.395 . S
C356 C359 1.403 . S
C357 C354 1.403 . S
C357 C358 1.524 . S
C357 C361 1.400 . S
C358 H343 0.960 . S
C358 H344 0.960 . S
C358 H345 0.960 . S
C358 C357 1.524 . S
C359 C356 1.403 . S
C359 C360 1.392 . S
C359 C363 1.495 . S
C360 C359 1.392 . S
C360 C361 1.385 . S
C360 C362 1.478 . S
C361 H355 0.930 . S
C361 C357 1.400 . S
C361 C360 1.385 . S
C362 C360 1.478 . S
C362 C364 1.381 . S
C362 C368 1.383 . S
C363 C359 1.495 . S
C363 H369 0.959 . S
C363 H370 0.961 . S
C363 H371 0.960 . S
C364 C362 1.381 . S
C364 C365 1.394 . S
C364 H372 0.930 . S
C365 C364 1.394 . S
C365 C366 1.383 . S
C365 H373 0.929 . S
C366 C365 1.383 . S
C366 C367 1.377 . S
C367 H351 0.930 . S
C367 C366 1.377 . S
C367 C368 1.379 . S
C368 H352 0.931 . S
C368 C362 1.383 . S
C368 C367 1.379 . S
H369 C363 0.959 . S
H370 C363 0.961 . S
H371 C363 0.960 . S
H372 C364 0.930 . S
H373 C365 0.929 . S
H374 C382 0.929 . S
H375 C384 0.930 . S
H376 C386 0.930 . S
H377 C389 0.929 . S
H378 C392 0.930 . S
H379 C394 0.960 . S
H380 C394 0.960 . S
H381 C394 0.960 . S
C382 H374 0.929 . S
C382 C383 1.377 . S
C382 C384 1.384 . S
C383 C382 1.377 . S
C383 C389 1.390 . S
C384 H375 0.930 . S
C384 C382 1.384 . S
C384 C385 1.372 . S
C385 C384 1.372 . S
C385 C386 1.400 . S
C385 C390 1.490 . S
C386 H376 0.930 . S
C386 C385 1.400 . S
C386 C389 1.386 . S
H387 C403 0.930 . S
H388 C404 0.931 . S
C389 H377 0.929 . S
C389 C383 1.390 . S
C389 C386 1.386 . S
C390 C385 1.490 . S
C390 C392 1.395 . S
C390 C393 1.403 . S
H391 C397 0.930 . S
C392 H378 0.930 . S
C392 C390 1.395 . S
C392 C395 1.403 . S
C393 C390 1.403 . S
C393 C394 1.524 . S
C393 C397 1.400 . S
C394 H379 0.960 . S
C394 H380 0.960 . S
C394 H381 0.960 . S
C394 C393 1.524 . S
C395 C392 1.403 . S
C395 C396 1.392 . S
C395 C399 1.495 . S
C396 C395 1.392 . S
C396 C397 1.385 . S
C396 C398 1.478 . S
C397 H391 0.930 . S
C397 C393 1.400 . S
C397 C396 1.385 . S
C398 C396 1.478 . S
C398 C400 1.381 . S
C398 C404 1.383 . S
C399 C395 1.495 . S
C399 H405 0.959 . S
C399 H406 0.961 . S
C399 H407 0.960 . S
C400 C398 1.381 . S
C400 C401 1.394 . S
C400 H408 0.930 . S
C401 C400 1.394 . S
C401 C402 1.383 . S
C401 H409 0.929 . S
C402 C401 1.383 . S
C402 C403 1.377 . S
C403 H387 0.930 . S
C403 C402 1.377 . S
C403 C404 1.379 . S
C404 H388 0.931 . S
C404 C398 1.383 . S
C404 C403 1.379 . S
H405 C399 0.959 . S
H406 C399 0.961 . S
H407 C399 0.960 . S
H408 C400 0.930 . S
H409 C401 0.929 . S
H410 C418 0.929 . S
H411 C420 0.930 . S
H412 C422 0.930 . S
H413 C425 0.929 . S
H414 C428 0.930 . S
H415 C430 0.960 . S
H416 C430 0.960 . S
H417 C430 0.960 . S
C418 H410 0.929 . S
C418 C419 1.377 . S
C418 C420 1.384 . S
C419 C418 1.377 . S
C419 C425 1.390 . S
C420 H411 0.930 . S
C420 C418 1.384 . S
C420 C421 1.372 . S
C421 C420 1.372 . S
C421 C422 1.400 . S
C421 C426 1.490 . S
C422 H412 0.930 . S
C422 C421 1.400 . S
C422 C425 1.386 . S
H423 C439 0.930 . S
H424 C440 0.931 . S
C425 H413 0.929 . S
C425 C419 1.390 . S
C425 C422 1.386 . S
C426 C421 1.490 . S
C426 C428 1.395 . S
C426 C429 1.403 . S
H427 C433 0.930 . S
C428 H414 0.930 . S
C428 C426 1.395 . S
C428 C431 1.403 . S
C429 C426 1.403 . S
C429 C430 1.524 . S
C429 C433 1.400 . S
C430 H415 0.960 . S
C430 H416 0.960 . S
C430 H417 0.960 . S
C430 C429 1.524 . S
C431 C428 1.403 . S
C431 C432 1.392 . S
C431 C435 1.495 . S
C432 C431 1.392 . S
C432 C433 1.385 . S
C432 C434 1.478 . S
C433 H427 0.930 . S
C433 C429 1.400 . S
C433 C432 1.385 . S
C434 C432 1.478 . S
C434 C436 1.381 . S
C434 C440 1.383 . S
C435 C431 1.495 . S
C435 H441 0.959 . S
C435 H442 0.961 . S
C435 H443 0.960 . S
C436 C434 1.381 . S
C436 C437 1.394 . S
C436 H444 0.930 . S
C437 C436 1.394 . S
C437 C438 1.383 . S
C437 H445 0.929 . S
C438 C437 1.383 . S
C438 C439 1.377 . S
C439 H423 0.930 . S
C439 C438 1.377 . S
C439 C440 1.379 . S
C440 H424 0.931 . S
C440 C434 1.383 . S
C440 C439 1.379 . S
H441 C435 0.959 . S
H442 C435 0.961 . S
H443 C435 0.960 . S
H444 C436 0.930 . S
H445 C437 0.929 . S
H446 C454 0.929 . S
H447 C456 0.930 . S
H448 C458 0.930 . S
H449 C461 0.929 . S
H450 C464 0.930 . S
H451 C466 0.960 . S
H452 C466 0.960 . S
H453 C466 0.960 . S
C454 H446 0.929 . S
C454 C455 1.377 . S
C454 C456 1.384 . S
C455 C454 1.377 . S
C455 C461 1.390 . S
C456 H447 0.930 . S
C456 C454 1.384 . S
C456 C457 1.372 . S
C457 C456 1.372 . S
C457 C458 1.400 . S
C457 C462 1.490 . S
C458 H448 0.930 . S
C458 C457 1.400 . S
C458 C461 1.386 . S
H459 C475 0.930 . S
H460 C476 0.931 . S
C461 H449 0.929 . S
C461 C455 1.390 . S
C461 C458 1.386 . S
C462 C457 1.490 . S
C462 C464 1.395 . S
C462 C465 1.403 . S
H463 C469 0.930 . S
C464 H450 0.930 . S
C464 C462 1.395 . S
C464 C467 1.403 . S
C465 C462 1.403 . S
C465 C466 1.524 . S
C465 C469 1.400 . S
C466 H451 0.960 . S
C466 H452 0.960 . S
C466 H453 0.960 . S
C466 C465 1.524 . S
C467 C464 1.403 . S
C467 C468 1.392 . S
C467 C471 1.495 . S
C468 C467 1.392 . S
C468 C469 1.385 . S
C468 C470 1.478 . S
C469 H463 0.930 . S
C469 C465 1.400 . S
C469 C468 1.385 . S
C470 C468 1.478 . S
C470 C472 1.381 . S
C470 C476 1.383 . S
C471 C467 1.495 . S
C471 H477 0.959 . S
C471 H478 0.961 . S
C471 H479 0.960 . S
C472 C470 1.381 . S
C472 C473 1.394 . S
C472 H480 0.930 . S
C473 C472 1.394 . S
C473 C474 1.383 . S
C473 H481 0.929 . S
C474 C473 1.383 . S
C474 C475 1.377 . S
C475 H459 0.930 . S
C475 C474 1.377 . S
C475 C476 1.379 . S
C476 H460 0.931 . S
C476 C470 1.383 . S
C476 C475 1.379 . S
H477 C471 0.959 . S
H478 C471 0.961 . S
H479 C471 0.960 . S
H480 C472 0.930 . S
H481 C473 0.929 . S
H482 C490 0.929 . S
H483 C492 0.930 . S
H484 C494 0.930 . S
H485 C497 0.929 1_545 S
H486 C500 0.930 . S
H487 C502 0.960 . S
H488 C502 0.960 . S
H489 C502 0.960 . S
C490 H482 0.929 . S
C490 C491 1.377 . S
C490 C492 1.384 . S
C491 C490 1.377 . S
C491 C497 1.390 . S
C492 H483 0.930 . S
C492 C490 1.384 . S
C492 C493 1.372 . S
C493 C492 1.372 . S
C493 C494 1.400 . S
C493 C498 1.490 . S
C494 H484 0.930 . S
C494 C493 1.400 . S
C494 C497 1.386 . S
H495 C511 0.930 . S
H496 C512 0.931 . S
C497 H485 0.929 1_565 S
C497 C491 1.390 . S
C497 C494 1.386 . S
C498 C493 1.490 . S
C498 C500 1.395 . S
C498 C501 1.403 . S
H499 C505 0.930 . S
C500 H486 0.930 . S
C500 C498 1.395 . S
C500 C503 1.403 . S
C501 C498 1.403 . S
C501 C502 1.524 . S
C501 C505 1.400 . S
C502 H487 0.960 . S
C502 H488 0.960 . S
C502 H489 0.960 . S
C502 C501 1.524 . S
C503 C500 1.403 . S
C503 C504 1.392 . S
C503 C507 1.495 . S
C504 C503 1.392 . S
C504 C505 1.385 . S
C504 C506 1.478 . S
C505 H499 0.930 . S
C505 C501 1.400 . S
C505 C504 1.385 . S
C506 C504 1.478 . S
C506 C508 1.381 . S
C506 C512 1.383 . S
C507 C503 1.495 . S
C507 H513 0.959 . S
C507 H514 0.961 . S
C507 H515 0.960 . S
C508 C506 1.381 . S
C508 C509 1.394 . S
C508 H516 0.930 . S
C509 C508 1.394 . S
C509 C510 1.383 . S
C509 H517 0.929 . S
C510 C509 1.383 . S
C510 C511 1.377 . S
C511 H495 0.930 . S
C511 C510 1.377 . S
C511 C512 1.379 . S
C512 H496 0.931 . S
C512 C506 1.383 . S
C512 C511 1.379 . S
H513 C507 0.959 . S
H514 C507 0.961 . S
H515 C507 0.960 . S
H516 C508 0.930 . S
H517 C509 0.929 . S
H518 C526 0.929 . S
H519 C528 0.930 . S
H520 C530 0.930 . S
H521 C533 0.929 . S
H522 C536 0.930 . S
H523 C538 0.960 . S
H524 C538 0.960 . S
H525 C538 0.960 . S
C526 H518 0.929 . S
C526 C527 1.377 . S
C526 C528 1.384 . S
C527 C526 1.377 . S
C527 C533 1.390 . S
C528 H519 0.930 . S
C528 C526 1.384 . S
C528 C529 1.372 . S
C529 C528 1.372 . S
C529 C530 1.400 . S
C529 C534 1.490 . S
C530 H520 0.930 . S
C530 C529 1.400 . S
C530 C533 1.386 . S
H531 C547 0.930 . S
H532 C548 0.931 . S
C533 H521 0.929 . S
C533 C527 1.390 . S
C533 C530 1.386 . S
C534 C529 1.490 . S
C534 C536 1.395 . S
C534 C537 1.403 . S
H535 C541 0.930 . S
C536 H522 0.930 . S
C536 C534 1.395 . S
C536 C539 1.403 . S
C537 C534 1.403 . S
C537 C538 1.524 . S
C537 C541 1.400 . S
C538 H523 0.960 . S
C538 H524 0.960 . S
C538 H525 0.960 . S
C538 C537 1.524 . S
C539 C536 1.403 . S
C539 C540 1.392 . S
C539 C543 1.495 . S
C540 C539 1.392 . S
C540 C541 1.385 . S
C540 C542 1.478 . S
C541 H535 0.930 . S
C541 C537 1.400 . S
C541 C540 1.385 . S
C542 C540 1.478 . S
C542 C544 1.381 . S
C542 C548 1.383 . S
C543 C539 1.495 . S
C543 H549 0.959 . S
C543 H550 0.961 . S
C543 H551 0.960 . S
C544 C542 1.381 . S
C544 C545 1.394 . S
C544 H552 0.930 . S
C545 C544 1.394 . S
C545 C546 1.383 . S
C545 H553 0.929 . S
C546 C545 1.383 . S
C546 C547 1.377 . S
C547 H531 0.930 . S
C547 C546 1.377 . S
C547 C548 1.379 . S
C548 H532 0.931 . S
C548 C542 1.383 . S
C548 C547 1.379 . S
H549 C543 0.959 . S
H550 C543 0.961 . S
H551 C543 0.960 . S
H552 C544 0.930 . S
H553 C545 0.929 . S
C131 C20 1.987 . S
C150 C99 1.906 . S
C167 C60 1.244 . S
C186 C105 1.178 . S
C203 C25 0.741 . S
C222 C96 0.664 . S
C239 C65 1.124 . S
C258 C121 1.030 . S
C275 C23 1.968 . S
C294 C87 1.872 . S
C330 C104 2.246 . S
C311 C63 2.341 . S
C347 C44 1.034 . S
C366 C100 0.999 . S
C402 C117 1.660 . S
C383 C2 1.736 . S
C438 C84 2.116 . S
C419 C42 2.200 . S
C474 C120 2.066 . S
C455 C31 2.156 1_655 S
C510 C83 1.330 . S
C491 C71 1.473 . S
C546 C108 0.708 . S
C527 C4 0.765 . S
