# Generated by pormake.
# Topology ocu, (6,8)-cn, num edge types: 1
# Building blocks:
#     Node 0, Type 0, BuildingBlock: VOLQOD_clean_sbu_1, # of connection points: 6
#     Node 1, Type 0, BuildingBlock: VOLQOD_clean_sbu_1, # of connection points: 6
#     Node 2, Type 0, BuildingBlock: VOLQOD_clean_sbu_1, # of connection points: 6
#     Node 3, Type 0, BuildingBlock: VOLQOD_clean_sbu_1, # of connection points: 6
#     Node 4, Type 0, BuildingBlock: VOLQOD_clean_sbu_1, # of connection points: 6
#     Node 5, Type 0, BuildingBlock: VOLQOD_clean_sbu_1, # of connection points: 6
#     Node 6, Type 0, BuildingBlock: VOLQOD_clean_sbu_1, # of connection points: 6
#     Node 7, Type 0, BuildingBlock: VOLQOD_clean_sbu_1, # of connection points: 6
#     Node 8, Type 1, BuildingBlock: AJUNOK_clean_sbu_0, # of connection points: 8
#     Node 9, Type 1, BuildingBlock: AJUNOK_clean_sbu_0, # of connection points: 8
#     Node 10, Type 1, BuildingBlock: AJUNOK_clean_sbu_0, # of connection points: 8
#     Node 11, Type 1, BuildingBlock: AJUNOK_clean_sbu_0, # of connection points: 8
#     Node 12, Type 1, BuildingBlock: AJUNOK_clean_sbu_0, # of connection points: 8
#     Node 13, Type 1, BuildingBlock: AJUNOK_clean_sbu_0, # of connection points: 8
#     Edge 14, Type (0, 1), BuildingBlock: KIFKEQ_clean_linker_1, # of connection points: 2
#     Edge 15, Type (0, 1), BuildingBlock: KIFKEQ_clean_linker_1, # of connection points: 2
#     Edge 16, Type (0, 1), BuildingBlock: KIFKEQ_clean_linker_1, # of connection points: 2
#     Edge 17, Type (0, 1), BuildingBlock: KIFKEQ_clean_linker_1, # of connection points: 2
#     Edge 18, Type (0, 1), BuildingBlock: KIFKEQ_clean_linker_1, # of connection points: 2
#     Edge 19, Type (0, 1), BuildingBlock: KIFKEQ_clean_linker_1, # of connection points: 2
#     Edge 20, Type (0, 1), BuildingBlock: KIFKEQ_clean_linker_1, # of connection points: 2
#     Edge 21, Type (0, 1), BuildingBlock: KIFKEQ_clean_linker_1, # of connection points: 2
#     Edge 22, Type (0, 1), BuildingBlock: KIFKEQ_clean_linker_1, # of connection points: 2
#     Edge 23, Type (0, 1), BuildingBlock: KIFKEQ_clean_linker_1, # of connection points: 2
#     Edge 24, Type (0, 1), BuildingBlock: KIFKEQ_clean_linker_1, # of connection points: 2
#     Edge 25, Type (0, 1), BuildingBlock: KIFKEQ_clean_linker_1, # of connection points: 2
#     Edge 26, Type (0, 1), BuildingBlock: KIFKEQ_clean_linker_1, # of connection points: 2
#     Edge 27, Type (0, 1), BuildingBlock: KIFKEQ_clean_linker_1, # of connection points: 2
#     Edge 28, Type (0, 1), BuildingBlock: KIFKEQ_clean_linker_1, # of connection points: 2
#     Edge 29, Type (0, 1), BuildingBlock: KIFKEQ_clean_linker_1, # of connection points: 2
#     Edge 30, Type (0, 1), BuildingBlock: KIFKEQ_clean_linker_1, # of connection points: 2
#     Edge 31, Type (0, 1), BuildingBlock: KIFKEQ_clean_linker_1, # of connection points: 2
#     Edge 32, Type (0, 1), BuildingBlock: KIFKEQ_clean_linker_1, # of connection points: 2
#     Edge 33, Type (0, 1), BuildingBlock: KIFKEQ_clean_linker_1, # of connection points: 2
#     Edge 34, Type (0, 1), BuildingBlock: KIFKEQ_clean_linker_1, # of connection points: 2
#     Edge 35, Type (0, 1), BuildingBlock: KIFKEQ_clean_linker_1, # of connection points: 2
#     Edge 36, Type (0, 1), BuildingBlock: KIFKEQ_clean_linker_1, # of connection points: 2
#     Edge 37, Type (0, 1), BuildingBlock: KIFKEQ_clean_linker_1, # of connection points: 2
#     Edge 38, Type (0, 1), BuildingBlock: KIFKEQ_clean_linker_1, # of connection points: 2
#     Edge 39, Type (0, 1), BuildingBlock: KIFKEQ_clean_linker_1, # of connection points: 2
#     Edge 40, Type (0, 1), BuildingBlock: KIFKEQ_clean_linker_1, # of connection points: 2
#     Edge 41, Type (0, 1), BuildingBlock: KIFKEQ_clean_linker_1, # of connection points: 2
#     Edge 42, Type (0, 1), BuildingBlock: KIFKEQ_clean_linker_1, # of connection points: 2
#     Edge 43, Type (0, 1), BuildingBlock: KIFKEQ_clean_linker_1, # of connection points: 2
#     Edge 44, Type (0, 1), BuildingBlock: KIFKEQ_clean_linker_1, # of connection points: 2
#     Edge 45, Type (0, 1), BuildingBlock: KIFKEQ_clean_linker_1, # of connection points: 2
#     Edge 46, Type (0, 1), BuildingBlock: KIFKEQ_clean_linker_1, # of connection points: 2
#     Edge 47, Type (0, 1), BuildingBlock: KIFKEQ_clean_linker_1, # of connection points: 2
#     Edge 48, Type (0, 1), BuildingBlock: KIFKEQ_clean_linker_1, # of connection points: 2
#     Edge 49, Type (0, 1), BuildingBlock: KIFKEQ_clean_linker_1, # of connection points: 2
#     Edge 50, Type (0, 1), BuildingBlock: KIFKEQ_clean_linker_1, # of connection points: 2
#     Edge 51, Type (0, 1), BuildingBlock: KIFKEQ_clean_linker_1, # of connection points: 2
#     Edge 52, Type (0, 1), BuildingBlock: KIFKEQ_clean_linker_1, # of connection points: 2
#     Edge 53, Type (0, 1), BuildingBlock: KIFKEQ_clean_linker_1, # of connection points: 2
#     Edge 54, Type (0, 1), BuildingBlock: KIFKEQ_clean_linker_1, # of connection points: 2
#     Edge 55, Type (0, 1), BuildingBlock: KIFKEQ_clean_linker_1, # of connection points: 2
#     Edge 56, Type (0, 1), BuildingBlock: KIFKEQ_clean_linker_1, # of connection points: 2
#     Edge 57, Type (0, 1), BuildingBlock: KIFKEQ_clean_linker_1, # of connection points: 2
#     Edge 58, Type (0, 1), BuildingBlock: KIFKEQ_clean_linker_1, # of connection points: 2
#     Edge 59, Type (0, 1), BuildingBlock: KIFKEQ_clean_linker_1, # of connection points: 2
#     Edge 60, Type (0, 1), BuildingBlock: KIFKEQ_clean_linker_1, # of connection points: 2
#     Edge 61, Type (0, 1), BuildingBlock: KIFKEQ_clean_linker_1, # of connection points: 2
# Relax obj value: 0.275
# Max RMSD: 0.362
# Mean RMSD: 0.269
data_MOF--net-ocu--node1-VOLQOD_clean_sbu_1--node2-AJUNOK_clean_sbu_0--edge1-KIFKEQ_clean_linker_1
_symmetry_space_group_name_H-M    P1
_symmetry_Int_Tables_number       1
_symmetry_cell_setting            triclinic
loop_
_symmetry_equiv_pos_as_xyz
'x, y, z'
_cell_length_a     42.680151
_cell_length_b     42.753075
_cell_length_c     35.966026
_cell_angle_alpha  96.91738
_cell_angle_beta   96.857227
_cell_angle_gamma 101.25148
loop_
_atom_site_label
_atom_site_type_symbol
_atom_site_fract_x
_atom_site_fract_y
_atom_site_fract_z
_atom_type_partial_charge
O0 O 0.3076 0.31753 0.29272 0.0
Zn1 Zn 0.27356 0.27934 0.3005 0.0
O2 O 0.24971 0.25676 0.25083 0.0
Zn3 Zn 0.20466 0.25938 0.24761 0.0
Zn4 Zn 0.26765 0.27478 0.20876 0.0
Zn5 Zn 0.25206 0.21183 0.24484 0.0
O6 O 0.1759 0.21607 0.24467 0.0
O7 O 0.20984 0.18303 0.24771 0.0
O8 O 0.24331 0.29653 0.33362 0.0
O9 O 0.19682 0.28496 0.29462 0.0
O10 O 0.19047 0.2794 0.20277 0.0
O11 O 0.23441 0.29043 0.17535 0.0
O12 O 0.28565 0.24311 0.17534 0.0
O13 O 0.29667 0.24939 0.32813 0.0
O14 O 0.26624 0.19745 0.19599 0.0
O15 O 0.28452 0.20475 0.28581 0.0
C16 C 0.31613 0.32693 0.26243 0.0
C17 C 0.18137 0.18805 0.24629 0.0
C18 C 0.20474 0.29054 0.17655 0.0
C19 C 0.21346 0.29727 0.32663 0.0
C20 C 0.2808 0.21253 0.17252 0.0
C21 C 0.29948 0.2207 0.31717 0.0
O22 O 0.3029 0.31252 0.22969 0.0
O23 O 0.75416 0.19104 0.18442 0.0
Zn24 Zn 0.77806 0.22297 0.23005 0.0
O25 O 0.75014 0.24885 0.25325 0.0
Zn26 Zn 0.76231 0.29466 0.24965 0.0
Zn27 Zn 0.70662 0.23314 0.22893 0.0
Zn28 Zn 0.75181 0.24445 0.306 0.0
O29 O 0.77114 0.32227 0.30129 0.0
O30 O 0.77348 0.2851 0.33901 0.0
O31 O 0.81499 0.25255 0.21439 0.0
O32 O 0.80466 0.30124 0.23052 0.0
O33 O 0.72951 0.30986 0.21335 0.0
O34 O 0.69083 0.26568 0.20265 0.0
O35 O 0.67599 0.22004 0.2646 0.0
O36 O 0.79645 0.19728 0.2674 0.0
O37 O 0.70811 0.2318 0.31973 0.0
O38 O 0.77605 0.21131 0.31927 0.0
C39 C 0.72401 0.18377 0.1724 0.0
C40 C 0.77758 0.31441 0.33399 0.0
C41 C 0.70155 0.29435 0.19741 0.0
C42 C 0.82254 0.28316 0.2177 0.0
C43 C 0.68021 0.2221 0.30044 0.0
C44 C 0.79298 0.19492 0.30171 0.0
O45 O 0.70408 0.19724 0.18829 0.0
O46 O 0.70979 0.69327 0.27959 0.0
Zn47 Zn 0.74057 0.73532 0.29762 0.0
O48 O 0.75571 0.75212 0.25248 0.0
Zn49 Zn 0.80042 0.7498 0.2542 0.0
Zn50 Zn 0.73373 0.72948 0.20419 0.0
Zn51 Zn 0.7497 0.79544 0.25449 0.0
O52 O 0.82691 0.79321 0.27367 0.0
O53 O 0.79107 0.82464 0.27677 0.0
O54 O 0.77655 0.72363 0.33217 0.0
O55 O 0.81256 0.72209 0.29265 0.0
O56 O 0.81197 0.73153 0.20477 0.0
O57 O 0.76378 0.71282 0.17058 0.0
O58 O 0.70804 0.75644 0.17486 0.0
O59 O 0.71737 0.76542 0.32724 0.0
O60 O 0.73056 0.80563 0.20475 0.0
O61 O 0.71999 0.80425 0.29137 0.0
C62 C 0.69911 0.67905 0.2461 0.0
C63 C 0.81968 0.82022 0.28324 0.0
C64 C 0.79436 0.71615 0.17452 0.0
C65 C 0.8025 0.71606 0.32352 0.0
C66 C 0.71181 0.78701 0.17727 0.0
C67 C 0.71032 0.79179 0.31945 0.0
O68 O 0.70597 0.69108 0.21663 0.0
O69 O 0.30427 0.74925 0.32314 0.0
Zn70 Zn 0.27383 0.72659 0.27586 0.0
O71 O 0.2471 0.75445 0.25513 0.0
Zn72 Zn 0.20127 0.73795 0.25383 0.0
Zn73 Zn 0.25818 0.79622 0.28538 0.0
Zn74 Zn 0.2542 0.75837 0.20401 0.0
O75 O 0.17618 0.7331 0.20158 0.0
O76 O 0.21599 0.73535 0.1669 0.0
O77 O 0.24549 0.6873 0.28839 0.0
O78 O 0.19623 0.69389 0.2677 0.0
O79 O 0.18188 0.76331 0.29316 0.0
O80 O 0.22438 0.80248 0.31653 0.0
O81 O 0.26583 0.83207 0.25411 0.0
O82 O 0.3005 0.71202 0.23748 0.0
O83 O 0.26172 0.80416 0.19691 0.0
O84 O 0.29112 0.73934 0.19009 0.0
C85 C 0.31026 0.77879 0.33778 0.0
C86 C 0.1861 0.72945 0.16963 0.0
C87 C 0.19559 0.78802 0.31714 0.0
C88 C 0.21498 0.67719 0.28175 0.0
C89 C 0.26564 0.83084 0.21856 0.0
C90 C 0.30581 0.71993 0.20541 0.0
O91 O 0.2958 0.79903 0.32401 0.0
O92 O 0.26018 0.69405 0.70225 0.0
Zn93 Zn 0.27912 0.72917 0.74695 0.0
O94 O 0.2475 0.75405 0.76203 0.0
Zn95 Zn 0.25938 0.79852 0.75463 0.0
Zn96 Zn 0.20633 0.73577 0.73154 0.0
Zn97 Zn 0.24405 0.75396 0.81521 0.0
O98 O 0.25984 0.82959 0.80112 0.0
O99 O 0.25927 0.79778 0.84533 0.0
O100 O 0.31825 0.75876 0.73472 0.0
O101 O 0.30444 0.80637 0.74422 0.0
O102 O 0.2318 0.80912 0.71052 0.0
O103 O 0.19434 0.76406 0.69496 0.0
O104 O 0.17122 0.727 0.76317 0.0
O105 O 0.29387 0.7072 0.7902 0.0
O106 O 0.19823 0.73922 0.8215 0.0
O107 O 0.27025 0.72501 0.83796 0.0
C108 C 0.23065 0.68292 0.68852 0.0
C109 C 0.26246 0.82577 0.8358 0.0
C110 C 0.20667 0.79229 0.68939 0.0
C111 C 0.32481 0.78934 0.73666 0.0
C112 C 0.17187 0.72971 0.79886 0.0
C113 C 0.28871 0.70796 0.82444 0.0
O114 O 0.20809 0.69546 0.69949 0.0
O115 O 0.20745 0.19683 0.78101 0.0
Zn116 Zn 0.2412 0.2368 0.79916 0.0
O117 O 0.25877 0.25234 0.75478 0.0
Zn118 Zn 0.3023 0.24537 0.75825 0.0
Zn119 Zn 0.23591 0.23068 0.70606 0.0
Zn120 Zn 0.25752 0.29727 0.75643 0.0
O121 O 0.33169 0.28698 0.77878 0.0
O122 O 0.30168 0.32374 0.77282 0.0
O123 O 0.27474 0.22317 0.83503 0.0
O124 O 0.31156 0.21728 0.79744 0.0
O125 O 0.31299 0.22598 0.70891 0.0
O126 O 0.26522 0.21204 0.67266 0.0
O127 O 0.21221 0.2595 0.67676 0.0
O128 O 0.22108 0.26948 0.82827 0.0
O129 O 0.23615 0.3078 0.70802 0.0
O130 O 0.23202 0.31078 0.7967 0.0
C131 C 0.19648 0.18284 0.74749 0.0
C132 C 0.32831 0.31599 0.78329 0.0
C133 C 0.29544 0.21267 0.67774 0.0
C134 C 0.30023 0.21371 0.82816 0.0
C135 C 0.21683 0.29019 0.68027 0.0
C136 C 0.21951 0.29815 0.82323 0.0
O137 O 0.20526 0.19382 0.71812 0.0
O138 O 0.80909 0.24523 0.82499 0.0
Zn139 Zn 0.77684 0.22184 0.77931 0.0
O140 O 0.75309 0.25063 0.75516 0.0
Zn141 Zn 0.70673 0.237 0.75307 0.0
Zn142 Zn 0.76592 0.29338 0.78327 0.0
Zn143 Zn 0.76231 0.25142 0.70394 0.0
O144 O 0.68326 0.23005 0.7 0.0
O145 O 0.72348 0.23046 0.66612 0.0
O146 O 0.74573 0.18695 0.79631 0.0
O147 O 0.69786 0.19459 0.77152 0.0
O148 O 0.68798 0.2673 0.78735 0.0
O149 O 0.73104 0.30615 0.80884 0.0
O150 O 0.77956 0.32648 0.75045 0.0
O151 O 0.80053 0.20049 0.74197 0.0
O152 O 0.77546 0.2965 0.69453 0.0
O153 O 0.79654 0.22716 0.69283 0.0
C154 C 0.81489 0.27481 0.83944 0.0
C155 C 0.69349 0.22558 0.66837 0.0
C156 C 0.70145 0.2938 0.80833 0.0
C157 C 0.71512 0.17834 0.78905 0.0
C158 C 0.78133 0.32386 0.71522 0.0
C159 C 0.8075 0.20616 0.70963 0.0
O160 O 0.80066 0.29494 0.8251 0.0
O161 O 0.81239 0.82069 0.79009 0.0
Zn162 Zn 0.77789 0.78313 0.7981 0.0
O163 O 0.75603 0.75889 0.7484 0.0
Zn164 Zn 0.71046 0.75855 0.74356 0.0
Zn165 Zn 0.77335 0.77709 0.70633 0.0
Zn166 Zn 0.76146 0.71492 0.74443 0.0
O167 O 0.68464 0.71499 0.74737 0.0
O168 O 0.72126 0.6848 0.75181 0.0
O169 O 0.74631 0.80112 0.82843 0.0
O170 O 0.70156 0.78822 0.78638 0.0
O171 O 0.6945 0.77353 0.69567 0.0
O172 O 0.73933 0.7912 0.67219 0.0
O173 O 0.79242 0.74564 0.67392 0.0
O174 O 0.80124 0.75523 0.82848 0.0
O175 O 0.77488 0.69964 0.69507 0.0
O176 O 0.79607 0.71184 0.78538 0.0
C177 C 0.82104 0.83 0.75983 0.0
C178 C 0.69232 0.68822 0.75173 0.0
C179 C 0.70884 0.78709 0.6709 0.0
C180 C 0.71689 0.80223 0.81847 0.0
C181 C 0.78883 0.71516 0.67147 0.0
C182 C 0.80817 0.72825 0.81756 0.0
O183 O 0.80808 0.81536 0.72708 0.0
Cd184 Cd 0.98439 0.97849 0.55372 0.0
Cd185 Cd 0.0277 0.01808 0.45313 0.0
C186 C 0.04834 0.95357 0.57161 0.0
N187 N 0.01857 0.94266 0.55103 0.0
C188 C 0.03145 0.89191 0.53123 0.0
C189 C 0.0626 0.90291 0.55175 0.0
C190 C 0.07089 0.93414 0.57221 0.0
C191 C 0.00953 0.91229 0.53156 0.0
H192 H 0.05427 0.9771 0.58845 0.0
H193 H 0.98515 0.90364 0.51714 0.0
C194 C 0.98237 0.95743 0.46024 0.0
C195 C 0.95087 0.02102 0.44416 0.0
C196 C 0.92486 0.03575 0.4379 0.0
C197 C 0.93028 0.06941 0.4414 0.0
C198 C 0.96147 0.08764 0.45535 0.0
C199 C 0.98681 0.07183 0.46216 0.0
N200 N 0.98129 0.0391 0.45533 0.0
H201 H 0.94652 -0.00471 0.4374 0.0
H202 H 0.01127 0.08565 0.47037 0.0
C203 C 0.05491 0.95747 0.42678 0.0
N204 N 0.05907 0.97979 0.45821 0.0
C205 C 0.09655 0.95382 0.49047 0.0
C206 C 0.09043 0.92915 0.45947 0.0
C207 C 0.0697 0.93137 0.42716 0.0
C208 C 0.07984 0.97881 0.48963 0.0
H209 H 0.03958 0.95963 0.40145 0.0
H210 H 0.08365 -0.00266 0.51388 0.0
C211 C 0.04866 0.04037 0.55679 0.0
C212 C 0.95551 0.95274 0.61234 0.0
N213 N 0.94715 0.00945 0.53962 0.0
C214 C 0.95874 0.04134 0.5392 0.0
C215 C 0.9391 0.0634 0.54534 0.0
C216 C 0.90779 0.0523 0.553 0.0
C217 C 0.89545 0.01899 0.54952 0.0
C218 C 0.91579 -0.00226 0.54275 0.0
C219 C 0.05508 0.05112 0.39722 0.0
O220 O 0.99154 0.97653 0.49068 0.0
O221 O 0.9911 0.96694 0.43053 0.0
O222 O 0.04827 0.03842 0.52106 0.0
O223 O 0.02828 0.02247 0.57231 0.0
O224 O 0.94791 0.93845 0.57821 0.0
O225 O 0.97643 0.97918 0.61875 0.0
O226 O 0.06232 0.06262 0.43209 0.0
O227 O 0.03547 0.02416 0.38859 0.0
H228 H 0.98399 0.05002 0.53769 0.0
H229 H 0.90753 0.97237 0.54396 0.0
H230 H 0.02398 0.8677 0.51573 0.0
H231 H 0.09423 0.94312 0.58957 0.0
H232 H 0.90107 0.02086 0.42763 0.0
H233 H 0.96674 0.1137 0.45807 0.0
H234 H 0.11375 0.95379 0.51502 0.0
H235 H 0.0656 0.91347 0.40207 0.0
H236 H 0.94944 0.08899 0.5484 0.0
H237 H 0.87144 0.0098 0.55576 0.0
Cd238 Cd 0.47501 0.97855 0.06432 0.0
Cd239 Cd 0.52113 0.0149 0.96747 0.0
C240 C 0.54131 0.95314 0.08406 0.0
N241 N 0.51125 0.94315 0.06366 0.0
C242 C 0.52323 0.89194 0.04261 0.0
C243 C 0.55467 0.90223 0.06264 0.0
C244 C 0.56352 0.93327 0.08347 0.0
C245 C 0.50188 0.91309 0.0432 0.0
H246 H 0.54824 0.97633 0.10149 0.0
H247 H 0.4778 0.90552 0.02737 0.0
C248 C 0.45769 0.96546 0.96071 0.0
C249 C 0.46053 0.04372 0.93844 0.0
C250 C 0.43848 0.06363 0.93493 0.0
C251 C 0.44301 0.09225 0.96022 0.0
C252 C 0.46967 0.09998 0.98914 0.0
C253 C 0.49082 0.07873 0.99231 0.0
N254 N 0.48589 0.05118 0.96703 0.0
H255 H 0.45758 0.02253 0.9177 0.0
H256 H 0.51126 0.08441 0.01464 0.0
C257 C 0.53425 0.94211 0.96989 0.0
N258 N 0.54919 0.97379 0.97666 0.0
C259 C 0.60097 0.95997 0.97923 0.0
C260 C 0.58616 0.92714 0.96886 0.0
C261 C 0.55236 0.9183 0.96653 0.0
C262 C 0.58194 0.98291 0.98328 0.0
H263 H 0.50827 0.93511 0.96503 0.0
H264 H 0.59339 0.00819 0.98907 0.0
C265 C 0.53482 0.02939 0.06817 0.0
C266 C 0.42528 0.94947 0.10102 0.0
N267 N 0.45349 0.02438 0.06458 0.0
C268 C 0.45416 0.04079 0.09952 0.0
C269 C 0.43584 0.06417 0.1044 0.0
C270 C 0.41654 0.07053 0.073 0.0
C271 C 0.41733 0.05429 0.03699 0.0
C272 C 0.43599 0.03092 0.0334 0.0
C273 C 0.56442 0.04476 0.92307 0.0
O274 O 0.47002 0.97342 0.9953 0.0
O275 O 0.4749 0.9746 0.93603 0.0
O276 O 0.51983 0.01893 0.03508 0.0
O277 O 0.52127 0.0201 0.09558 0.0
O278 O 0.42325 0.94519 0.06526 0.0
O279 O 0.45212 0.96449 0.12004 0.0
O280 O 0.56984 0.05085 0.95891 0.0
O281 O 0.53819 0.02568 0.90778 0.0
H282 H 0.4675 0.03438 0.12394 0.0
H283 H 0.43507 0.01694 0.0061 0.0
H284 H 0.51543 0.86803 0.02641 0.0
H285 H 0.58715 0.94181 0.1003 0.0
H286 H 0.41862 0.05725 0.91175 0.0
H287 H 0.47396 0.12203 0.00903 0.0
H288 H 0.62681 0.96835 0.98131 0.0
H289 H 0.53974 0.89332 0.96008 0.0
H290 H 0.43565 0.07618 0.13265 0.0
H291 H 0.40221 0.05819 0.01235 0.0
Cd292 Cd 0.98591 0.47939 0.04987 0.0
Cd293 Cd 0.01556 0.51989 0.94888 0.0
C294 C 0.05842 0.46679 0.06485 0.0
N295 N 0.03021 0.45695 0.04073 0.0
C296 C 0.04769 0.41091 0.01301 0.0
C297 C 0.07631 0.41944 0.03899 0.0
C298 C 0.08204 0.44841 0.06429 0.0
C299 C 0.02476 0.42999 0.01461 0.0
H300 H 0.06181 0.48767 0.08623 0.0
H301 H 0.00176 0.42215 0.99662 0.0
C302 C 0.96701 0.45935 0.94878 0.0
C303 C 0.94283 0.53346 0.93951 0.0
C304 C 0.9207 0.55328 0.93569 0.0
C305 C 0.93055 0.58654 0.94879 0.0
C306 C 0.96134 0.59814 0.97009 0.0
C307 C 0.98244 0.57721 0.9742 0.0
N308 N 0.97336 0.54592 0.9575 0.0
H309 H 0.93607 0.50873 0.92593 0.0
H310 H 0.00705 0.58663 0.98777 0.0
C311 C 0.04388 0.45885 0.91981 0.0
N312 N 0.05096 0.48417 0.94836 0.0
C313 C 0.09784 0.4664 0.9738 0.0
C314 C 0.09055 0.43963 0.94502 0.0
C315 C 0.06311 0.43605 0.91788 0.0
C316 C 0.07736 0.48835 0.97519 0.0
H317 H 0.02344 0.45645 0.89807 0.0
H318 H 0.08257 0.5087 0.99759 0.0
C319 C 0.03341 0.54078 0.04993 0.0
C320 C 0.96107 0.43393 0.09448 0.0
N321 N 0.94973 0.51411 0.05259 0.0
C322 C 0.95417 0.53402 0.08604 0.0
C323 C 0.93459 0.55611 0.09192 0.0
C324 C 0.90991 0.55776 0.06319 0.0
C325 C 0.90588 0.53712 0.02866 0.0
C326 C 0.92604 0.51504 0.02407 0.0
C327 C 0.04286 0.56785 0.90925 0.0
O328 O 0.97777 0.47551 0.98123 0.0
O329 O 0.97499 0.47213 0.92034 0.0
O330 O 0.02283 0.52495 0.01728 0.0
O331 O 0.02507 0.52779 0.07807 0.0
O332 O 0.95571 0.42786 0.05862 0.0
O333 O 0.97693 0.46174 0.10956 0.0
O334 O 0.05078 0.56926 0.94462 0.0
O335 O 0.02433 0.54222 0.89128 0.0
H336 H 0.97293 0.53259 0.1084 0.0
H337 H 0.92262 0.49851 0.99798 0.0
H338 H 0.04239 0.38892 0.99289 0.0
H339 H 0.10341 0.45559 0.0854 0.0
H340 H 0.89686 0.54305 0.9201 0.0
H341 H 0.97017 0.62355 0.98054 0.0
H342 H 0.11887 0.4701 0.99518 0.0
H343 H 0.05711 0.41636 0.89455 0.0
H344 H 0.93875 0.5718 0.11882 0.0
H345 H 0.88693 0.53753 0.00594 0.0
Cd346 Cd 0.48027 0.4844 0.06207 0.0
Cd347 Cd 0.5247 0.52842 0.96136 0.0
C348 C 0.53801 0.45145 0.04249 0.0
N349 N 0.50639 0.44293 0.04655 0.0
C350 C 0.51167 0.38919 0.0525 0.0
C351 C 0.54523 0.39836 0.05256 0.0
C352 C 0.55798 0.42949 0.04538 0.0
C353 C 0.49263 0.41219 0.04998 0.0
H354 H 0.54847 0.47593 0.03992 0.0
H355 H 0.46746 0.40614 0.05355 0.0
C356 C 0.46258 0.48217 0.96598 0.0
C357 C 0.46758 0.55607 0.92624 0.0
C358 C 0.44175 0.57121 0.92187 0.0
C359 C 0.43534 0.59093 0.95285 0.0
C360 C 0.45589 0.59574 0.98749 0.0
C361 C 0.48102 0.57906 0.99099 0.0
N362 N 0.48586 0.55929 0.96062 0.0
H363 H 0.47278 0.54111 0.90227 0.0
H364 H 0.49657 0.5818 0.01773 0.0
C365 C 0.5303 0.45326 0.94937 0.0
N366 N 0.54786 0.48359 0.96204 0.0
C367 C 0.59701 0.46454 0.9652 0.0
C368 C 0.57947 0.43344 0.94976 0.0
C369 C 0.54565 0.42765 0.94374 0.0
C370 C 0.58053 0.48948 0.97115 0.0
H371 H 0.50457 0.44888 0.94152 0.0
H372 H 0.59388 0.51392 0.98084 0.0
C373 C 0.54712 0.53649 0.06536 0.0
C374 C 0.4477 0.45899 0.11881 0.0
N375 N 0.45416 0.52656 0.05884 0.0
C376 C 0.46815 0.55477 0.08154 0.0
C377 C 0.452 0.58001 0.08443 0.0
C378 C 0.42095 0.57596 0.06414 0.0
C379 C 0.40753 0.54699 0.03975 0.0
C380 C 0.42469 0.52233 0.0376 0.0
C381 C 0.56225 0.55858 0.91125 0.0
O382 O 0.4795 0.49169 0.99796 0.0
O383 O 0.47369 0.4921 0.9375 0.0
O384 O 0.53936 0.53366 0.02977 0.0
O385 O 0.52959 0.52047 0.08565 0.0
O386 O 0.43454 0.45273 0.08419 0.0
O387 O 0.47595 0.4767 0.1264 0.0
O388 O 0.56415 0.57189 0.94528 0.0
O389 O 0.54324 0.53132 0.90116 0.0
H390 H 0.49126 0.55727 0.09876 0.0
H391 H 0.414 0.4994 0.02029 0.0
H392 H 0.50064 0.36521 0.05712 0.0
H393 H 0.58361 0.43792 0.04541 0.0
H394 H 0.42715 0.56788 0.89432 0.0
H395 H 0.4522 0.61169 0.01152 0.0
H396 H 0.62317 0.47003 0.96997 0.0
H397 H 0.53126 0.40387 0.93237 0.0
H398 H 0.4629 0.60168 0.10415 0.0
H399 H 0.3836 0.54303 0.02372 0.0
Cd400 Cd 0.98486 0.48838 0.56364 0.0
Cd401 Cd 0.02618 0.51816 0.46337 0.0
C402 C 0.04464 0.45774 0.59226 0.0
N403 N 0.01948 0.4515 0.56353 0.0
C404 C 0.03691 0.40472 0.5369 0.0
C405 C 0.06369 0.41148 0.56559 0.0
C406 C 0.06737 0.43834 0.59347 0.0
C407 C 0.01513 0.42546 0.53613 0.0
H408 H 0.0472 0.47788 0.61442 0.0
H409 H -0.00516 0.4208 0.51366 0.0
C410 C 0.96405 0.4704 0.46166 0.0
C411 C 0.96613 0.54529 0.42757 0.0
C412 C 0.94235 0.56327 0.42334 0.0
C413 C 0.94194 0.58895 0.45143 0.0
C414 C 0.96605 0.59595 0.4833 0.0
C415 C 0.9891 0.57672 0.48682 0.0
N416 N 0.98852 0.55175 0.45925 0.0
H417 H 0.96683 0.52626 0.40521 0.0
H418 H 0.0075 0.5818 0.51145 0.0
C419 C 0.03837 0.4449 0.45065 0.0
N420 N 0.05044 0.47449 0.47139 0.0
C421 C 0.09945 0.45868 0.49281 0.0
C422 C 0.08839 0.42857 0.46995 0.0
C423 C 0.05695 0.42141 0.44972 0.0
C424 C 0.08008 0.48148 0.49281 0.0
H425 H 0.01523 0.44001 0.43288 0.0
H426 H 0.08953 0.50553 0.50785 0.0
C427 C 0.04667 0.53535 0.56384 0.0
C428 C 0.93559 0.46211 0.60248 0.0
N429 N 0.96059 0.53164 0.55393 0.0
C430 C 0.97162 0.56159 0.57423 0.0
C431 C 0.95207 0.58428 0.57405 0.0
C432 C 0.92081 0.57566 0.55349 0.0
C433 C 0.91063 0.54514 0.53156 0.0
C434 C 0.93107 0.5234 0.53216 0.0
C435 C 0.07204 0.54656 0.42152 0.0
O436 O 0.97887 0.48046 0.49494 0.0
O437 O 0.97828 0.47894 0.43443 0.0
O438 O 0.03022 0.5252 0.53148 0.0
O439 O 0.03389 0.52758 0.59235 0.0
O440 O 0.93451 0.45434 0.56713 0.0
O441 O 0.96133 0.48029 0.62077 0.0
O442 O 0.07347 0.55704 0.45646 0.0
O443 O 0.0484 0.52397 0.40632 0.0
H444 H -0.0053 0.5673 0.59229 0.0
H445 H 0.9225 0.49913 0.51733 0.0
H446 H 0.03321 0.38399 0.5151 0.0
H447 H 0.08732 0.44391 0.61652 0.0
H448 H 0.92501 0.55769 0.39765 0.0
H449 H 0.96693 0.61586 0.50533 0.0
H450 H 0.1235 0.46519 0.50887 0.0
H451 H 0.04764 0.39875 0.43116 0.0
H452 H 0.96037 0.60747 0.59183 0.0
H453 H 0.88649 0.53764 0.51578 0.0
Cd454 Cd 0.48436 0.97946 0.5588 0.0
Cd455 Cd 0.51429 0.0174 0.45663 0.0
C456 C 0.55552 0.96409 0.57309 0.0
N457 N 0.5272 0.95443 0.54912 0.0
C458 C 0.54461 0.90847 0.52091 0.0
C459 C 0.57355 0.91704 0.54641 0.0
C460 C 0.57916 0.94576 0.57214 0.0
C461 C 0.52152 0.92735 0.52314 0.0
H462 H 0.5591 0.98497 0.59449 0.0
H463 H 0.49842 0.91942 0.50546 0.0
C464 C 0.46635 0.95619 0.45713 0.0
C465 C 0.43968 0.028 0.44486 0.0
C466 C 0.4165 0.0466 0.4397 0.0
C467 C 0.42518 0.08028 0.45024 0.0
C468 C 0.45625 0.09374 0.47011 0.0
C469 C 0.47847 0.07408 0.47553 0.0
N470 N 0.47032 0.04214 0.4614 0.0
H471 H 0.43342 0.0027 0.43358 0.0
H472 H 0.50305 0.08479 0.48838 0.0
C473 C 0.54098 0.95572 0.42413 0.0
N474 N 0.54834 0.98011 0.45385 0.0
C475 C 0.59408 0.96004 0.47835 0.0
C476 C 0.58614 0.93401 0.44866 0.0
C477 C 0.55919 0.93205 0.4214 0.0
C478 C 0.57438 0.98269 0.48078 0.0
H479 H 0.52108 0.95469 0.40214 0.0
H480 H 0.57993 0.00234 0.50405 0.0
C481 C 0.53377 0.03897 0.55709 0.0
C482 C 0.45759 0.93578 0.60473 0.0
N483 N 0.4494 0.0159 0.5557 0.0
C484 C 0.45743 0.04336 0.58127 0.0
C485 C 0.43857 0.06649 0.58062 0.0
C486 C 0.41041 0.06103 0.55424 0.0
C487 C 0.40198 0.03213 0.52873 0.0
C488 C 0.42219 0.00987 0.52968 0.0
C489 C 0.54474 0.06556 0.41915 0.0
O490 O 0.47659 0.97226 0.48977 0.0
O491 O 0.47453 0.96917 0.4289 0.0
O492 O 0.52194 0.02275 0.52495 0.0
O493 O 0.52538 0.02716 0.58593 0.0
O494 O 0.44807 0.93196 0.56937 0.0
O495 O 0.47843 0.96115 0.61904 0.0
O496 O 0.55111 0.06631 0.4546 0.0
O497 O 0.5256 0.0407 0.40022 0.0
H498 H 0.47829 0.04729 0.60273 0.0
H499 H 0.41607 0.98775 0.50981 0.0
H500 H 0.53929 0.88677 0.50033 0.0
H501 H 0.60066 0.95302 0.59305 0.0
H502 H 0.39254 0.03486 0.4255 0.0
H503 H 0.46432 0.11949 0.47872 0.0
H504 H 0.61497 0.96256 0.49965 0.0
H505 H 0.5529 0.91296 0.39738 0.0
H506 H 0.4454 0.08805 0.6015 0.0
H507 H 0.38021 0.02696 0.50823 0.0
H508 H 0.18332 0.1251 0.25151 0.0
H509 H 0.12018 0.19287 0.2571 0.0
H510 H 0.14587 0.08798 0.28034 0.0
H511 H 0.08314 0.15573 0.28612 0.0
H512 H 0.0798 0.11517 0.40326 0.0
H513 H 0.10306 0.14418 0.3553 0.0
H514 H 0.08441 0.05525 0.2775 0.0
H515 H 0.06034 0.02606 0.32543 0.0
C516 C 0.16104 0.13167 0.25775 0.0
C517 C 0.15513 0.16228 0.25301 0.0
C518 C 0.13957 0.11033 0.27405 0.0
C519 C 0.11211 0.11946 0.2859 0.0
C520 C 0.10445 0.14849 0.27748 0.0
C521 C 0.12569 0.16967 0.26088 0.0
C522 C 0.08044 0.10186 0.37585 0.0
C523 C 0.06848 0.06847 0.36798 0.0
C524 C 0.09338 0.11845 0.34834 0.0
C525 C 0.09505 0.10185 0.31275 0.0
C526 C 0.08304 0.06845 0.30472 0.0
C527 C 0.06942 0.05189 0.33206 0.0
H528 H 0.7901 0.18381 0.37448 0.0
H529 H 0.83389 0.15814 0.27585 0.0
H530 H 0.81989 0.15119 0.40993 0.0
H531 H 0.86395 0.12584 0.31167 0.0
H532 H 0.89101 0.0484 0.37429 0.0
H533 H 0.85446 0.07638 0.34149 0.0
H534 H 0.87766 0.15441 0.43516 0.0
H535 H 0.91371 0.12572 0.46889 0.0
C536 C 0.806 0.17115 0.36029 0.0
C537 C 0.80975 0.17369 0.32235 0.0
C538 C 0.82313 0.15261 0.38072 0.0
C539 C 0.84424 0.13613 0.36358 0.0
C540 C 0.84753 0.13806 0.32544 0.0
C541 C 0.83043 0.15667 0.305 0.0
C542 C 0.88768 0.07109 0.38847 0.0
C543 C 0.90514 0.08486 0.4243 0.0
C544 C 0.86709 0.0873 0.36937 0.0
C545 C 0.86355 0.11766 0.3856 0.0
C546 C 0.87989 0.13092 0.42209 0.0
C547 C 0.90063 0.11466 0.44127 0.0
H548 H 0.80433 0.84516 0.34881 0.0
H549 H 0.88435 0.8404 0.28691 0.0
H550 H 0.84158 0.8672 0.4066 0.0
H551 H 0.9219 0.86507 0.3438 0.0
H552 H 0.98892 0.89713 0.43765 0.0
H553 H 0.94444 0.85555 0.40256 0.0
H554 H 0.87716 0.91376 0.43584 0.0
H555 H 0.92136 0.95308 0.47391 0.0
C556 C 0.83002 0.85022 0.34737 0.0
C557 C 0.84177 0.84193 0.3135 0.0
C558 C 0.85132 0.86233 0.38057 0.0
C559 C 0.88471 0.8672 0.38015 0.0
C560 C 0.89631 0.86037 0.34561 0.0
C561 C 0.87498 0.84728 0.31269 0.0
C562 C 0.96432 0.89969 0.43928 0.0
C563 C 0.95807 0.92821 0.4572 0.0
C564 C 0.93895 0.87633 0.41878 0.0
C565 C 0.90768 0.88254 0.41437 0.0
C566 C 0.90104 0.90846 0.43793 0.0
C567 C 0.92635 0.9311 0.45986 0.0
H568 H 0.22288 0.81533 0.38819 0.0
H569 H 0.13112 0.78722 0.31509 0.0
H570 H 0.19784 0.84172 0.43681 0.0
H571 H 0.10612 0.81497 0.36303 0.0
H572 H 0.06365 0.8652 0.44868 0.0
H573 H 0.0894 0.82231 0.42417 0.0
H574 H 0.18057 0.8911 0.43976 0.0
H575 H 0.15487 0.93324 0.46522 0.0
C576 C 0.19722 0.81468 0.38268 0.0
C577 C 0.17895 0.79993 0.34765 0.0
C578 C 0.1829 0.82975 0.41054 0.0
C579 C 0.15013 0.83096 0.40367 0.0
C580 C 0.13138 0.81425 0.36951 0.0
C581 C 0.14567 0.7986 0.34182 0.0
C582 C 0.08948 0.87058 0.44824 0.0
C583 C 0.10737 0.90236 0.45815 0.0
C584 C 0.10414 0.84621 0.43391 0.0
C585 C 0.13679 0.85345 0.42894 0.0
C586 C 0.15538 0.88454 0.4432 0.0
C587 C 0.14075 0.90881 0.45785 0.0
H588 H 0.16244 0.75953 0.62963 0.0
H589 H 0.21472 0.85544 0.67921 0.0
H590 H 0.13085 0.78217 0.58301 0.0
H591 H 0.18249 0.87811 0.63349 0.0
H592 H 0.12745 0.91609 0.54809 0.0
H593 H 0.16638 0.88531 0.56954 0.0
H594 H 0.08839 0.8109 0.58943 0.0
H595 H 0.04944 0.84116 0.56635 0.0
C596 C 0.16735 0.78546 0.63037 0.0
C597 C 0.1906 0.80582 0.6585 0.0
C598 C 0.14926 0.79837 0.60365 0.0
C599 C 0.15389 0.8319 0.60476 0.0
C600 C 0.17855 0.85213 0.63148 0.0
C601 C 0.19686 0.83919 0.65798 0.0
C602 C 0.11853 0.89268 0.55572 0.0
C603 C 0.08538 0.88119 0.55584 0.0
C604 C 0.14089 0.87513 0.56831 0.0
C605 C 0.13054 0.84605 0.58199 0.0
C606 C 0.09722 0.83315 0.57886 0.0
C607 C 0.07482 0.85052 0.56569 0.0
H608 H 0.21109 0.12639 0.72565 0.0
H609 H 0.13259 0.17126 0.75128 0.0
H610 H 0.17464 0.08659 0.67839 0.0
H611 H 0.09508 0.13002 0.70553 0.0
H612 H 0.05817 0.10408 0.58115 0.0
H613 H 0.09297 0.13184 0.63931 0.0
H614 H 0.1307 0.04592 0.65073 0.0
H615 H 0.09813 0.01975 0.59095 0.0
C616 C 0.18545 0.12613 0.723 0.0
C617 C 0.17438 0.15187 0.74099 0.0
C618 C 0.16455 0.10352 0.69565 0.0
C619 C 0.13236 0.10632 0.68702 0.0
C620 C 0.1202 0.12837 0.71058 0.0
C621 C 0.14135 0.15142 0.73742 0.0
C622 C 0.07502 0.09193 0.59548 0.0
C623 C 0.07588 0.06016 0.58218 0.0
C624 C 0.09409 0.10722 0.62928 0.0
C625 C 0.11343 0.09045 0.65044 0.0
C626 C 0.11577 0.05932 0.6354 0.0
C627 C 0.09735 0.04443 0.60117 0.0
H628 H 0.84735 0.22158 0.65748 0.0
H629 H 0.80629 0.14329 0.71411 0.0
H630 H 0.87258 0.18508 0.61931 0.0
H631 H 0.82914 0.10641 0.67452 0.0
H632 H 0.89628 0.0516 0.62437 0.0
H633 H 0.87554 0.09051 0.66365 0.0
H634 H 0.86281 0.14281 0.56896 0.0
H635 H 0.88616 0.10448 0.53041 0.0
C636 C 0.84382 0.19654 0.66173 0.0
C637 C 0.82524 0.18525 0.68897 0.0
C638 C 0.85789 0.17552 0.63957 0.0
C639 C 0.85294 0.14264 0.64362 0.0
C640 C 0.83432 0.13162 0.67109 0.0
C641 C 0.82107 0.15276 0.69384 0.0
C642 C 0.88864 0.07124 0.61191 0.0
C643 C 0.892 0.07479 0.57428 0.0
C644 C 0.87664 0.09358 0.63437 0.0
C645 C 0.86691 0.1197 0.6195 0.0
C646 C 0.87032 0.12323 0.58158 0.0
C647 C 0.88321 0.10113 0.55927 0.0
H648 H 0.81941 0.89213 0.7541 0.0
H649 H 0.88326 0.82597 0.76437 0.0
H650 H 0.86016 0.92832 0.72791 0.0
H651 H 0.92376 0.86176 0.73758 0.0
H652 H 0.92722 0.89029 0.61268 0.0
H653 H 0.90257 0.86693 0.66354 0.0
H654 H 0.92553 0.96042 0.73276 0.0
H655 H 0.9512 0.98397 0.68193 0.0
C656 C 0.84293 0.88637 0.75285 0.0
C657 C 0.84856 0.85662 0.76136 0.0
C658 C 0.86614 0.90694 0.73778 0.0
C659 C 0.89476 0.89746 0.73047 0.0
C660 C 0.90182 0.86946 0.7431 0.0
C661 C 0.87882 0.84916 0.75862 0.0
C662 C 0.92729 0.90584 0.63883 0.0
C663 C 0.94102 0.93888 0.6434 0.0
C664 C 0.91353 0.89244 0.66802 0.0
C665 C 0.91274 0.91191 0.7021 0.0
C666 C 0.92632 0.945 0.70683 0.0
C667 C 0.94081 0.95835 0.6778 0.0
H668 H 0.25787 0.15045 0.13982 0.0
H669 H 0.33576 0.23236 0.14197 0.0
H670 H 0.28699 0.1158 0.10522 0.0
H671 H 0.36544 0.19737 0.10812 0.0
H672 H 0.4077 0.12241 0.03798 0.0
H673 H 0.37 0.15782 0.05114 0.0
H674 H 0.33545 0.09972 0.13423 0.0
H675 H 0.3725 0.06477 0.12092 0.0
C676 C 0.28096 0.16114 0.13218 0.0
C677 C 0.29489 0.19391 0.14416 0.0
C678 C 0.29763 0.14132 0.11244 0.0
C679 C 0.32878 0.15376 0.10478 0.0
C680 C 0.34145 0.18714 0.1136 0.0
C681 C 0.32451 0.20714 0.13306 0.0
C682 C 0.39168 0.11723 0.05867 0.0
C683 C 0.39311 0.09122 0.0788 0.0
C684 C 0.37027 0.13743 0.06627 0.0
C685 C 0.34965 0.13141 0.09353 0.0
C686 C 0.35061 0.10473 0.11264 0.0
C687 C 0.3721 0.08494 0.10541 0.0
H688 H 0.86937 0.33097 0.25788 0.0
H689 H 0.84151 0.27023 0.14955 0.0
H690 H 0.91321 0.36403 0.23338 0.0
H691 H 0.88323 0.30456 0.12365 0.0
H692 H 0.95769 0.36973 0.0799 0.0
H693 H 0.93454 0.32866 0.11618 0.0
H694 H 0.91266 0.40329 0.19545 0.0
H695 H 0.93825 0.44398 0.1608 0.0
C696 C 0.87308 0.32461 0.22888 0.0
C697 C 0.8522 0.29859 0.20524 0.0
C698 C 0.89789 0.34362 0.21469 0.0
C699 C 0.90124 0.33765 0.17619 0.0
C700 C 0.88171 0.30991 0.15348 0.0
C701 C 0.85759 0.29028 0.16811 0.0
C702 C 0.9483 0.37709 0.10549 0.0
C703 C 0.94916 0.40968 0.11754 0.0
C704 C 0.93498 0.35367 0.12621 0.0
C705 C 0.92128 0.36246 0.15855 0.0
C706 C 0.92346 0.39543 0.17121 0.0
C707 C 0.93773 0.41885 0.15114 0.0
H708 H 0.66267 0.75591 0.1205 0.0
H709 H 0.7161 0.85086 0.17204 0.0
H710 H 0.62599 0.78037 0.08148 0.0
H711 H 0.67938 0.87505 0.13383 0.0
H712 H 0.54337 0.84003 0.07692 0.0
H713 H 0.58378 0.80932 0.09521 0.0
H714 H 0.65884 0.88482 0.07165 0.0
H715 H 0.61835 0.91569 0.05396 0.0
C716 C 0.66691 0.78195 0.12316 0.0
C717 C 0.69216 0.80138 0.14976 0.0
C718 C 0.64578 0.79595 0.1009 0.0
C719 C 0.64958 0.82968 0.10461 0.0
C720 C 0.67588 0.84902 0.12978 0.0
C721 C 0.69686 0.83508 0.15202 0.0
C722 C 0.56839 0.84958 0.07458 0.0
C723 C 0.5778 0.88047 0.06472 0.0
C724 C 0.59161 0.83198 0.08504 0.0
C725 C 0.62467 0.84489 0.08566 0.0
C726 C 0.63368 0.87453 0.07241 0.0
C727 C 0.61051 0.89216 0.06216 0.0
H728 H 0.19696 0.68662 0.11337 0.0
H729 H 0.12323 0.73338 0.15175 0.0
H730 H 0.1561 0.64629 0.07145 0.0
H731 H 0.08213 0.69431 0.10746 0.0
H732 H 0.02903 0.58862 0.1034 0.0
H733 H 0.06316 0.64193 0.11877 0.0
H734 H 0.11294 0.62206 0.02335 0.0
H735 H 0.07955 0.56734 0.00976 0.0
C736 C 0.17206 0.68912 0.11146 0.0
C737 C 0.16298 0.71241 0.1365 0.0
C738 C 0.14853 0.66606 0.08713 0.0
C739 C 0.11563 0.66639 0.08699 0.0
C740 C 0.10718 0.69267 0.10801 0.0
C741 C 0.13063 0.71515 0.1332 0.0
C742 C 0.04709 0.59581 0.08552 0.0
C743 C 0.0519 0.57405 0.05552 0.0
C744 C 0.06633 0.62667 0.09382 0.0
C745 C 0.09088 0.63654 0.07223 0.0
C746 C 0.0944 0.61522 0.04069 0.0
C747 C 0.07513 0.58407 0.03258 0.0
H748 H 0.27565 0.88912 0.82591 0.0
H749 H 0.28238 0.82658 0.91125 0.0
H750 H 0.31844 0.93024 0.86465 0.0
H751 H 0.3252 0.86795 0.94977 0.0
H752 H 0.40813 0.95918 0.00287 0.0
H753 H 0.3515 0.93203 0.98132 0.0
H754 H 0.37458 0.90911 0.86894 0.0
H755 H 0.43089 0.93448 0.89079 0.0
C756 C 0.28518 0.88463 0.8536 0.0
C757 C 0.27674 0.85408 0.86477 0.0
C758 C 0.3096 0.90824 0.87577 0.0
C759 C 0.32552 0.90164 0.90942 0.0
C760 C 0.31333 0.87336 0.92368 0.0
C761 C 0.28891 0.84963 0.90145 0.0
C762 C 0.40118 0.94742 0.97401 0.0
C763 C 0.42402 0.94806 0.94886 0.0
C764 C 0.36877 0.93262 0.96152 0.0
C765 C 0.35882 0.9192 0.92342 0.0
C766 C 0.38164 0.92004 0.89831 0.0
C767 C 0.4139 0.93423 0.91091 0.0
H768 H 0.18316 0.27873 0.87806 0.0
H769 H 0.21881 0.36189 0.82568 0.0
H770 H 0.15507 0.31144 0.9178 0.0
H771 H 0.19084 0.39403 0.86476 0.0
H772 H 0.15636 0.45367 0.95147 0.0
H773 H 0.19071 0.41768 0.93046 0.0
H774 H 0.10822 0.33791 0.90675 0.0
H775 H 0.07405 0.37377 0.92883 0.0
C776 C 0.1852 0.30395 0.87517 0.0
C777 C 0.20316 0.31762 0.84853 0.0
C778 C 0.1691 0.32263 0.89789 0.0
C779 C 0.17099 0.35541 0.89471 0.0
C780 C 0.18941 0.36906 0.86856 0.0
C781 C 0.2052 0.35046 0.84578 0.0
C782 C 0.14576 0.42827 0.94294 0.0
C783 C 0.11239 0.41669 0.94092 0.0
C784 C 0.16537 0.4077 0.93056 0.0
C785 C 0.15202 0.37514 0.91602 0.0
C786 C 0.11924 0.36289 0.91757 0.0
C787 C 0.09961 0.38349 0.92989 0.0
H788 H 0.7275 0.16458 0.85988 0.0
H789 H 0.66501 0.13127 0.75327 0.0
H790 H 0.6924 0.12702 0.89018 0.0
H791 H 0.63107 0.0914 0.78245 0.0
H792 H 0.55269 0.06681 0.85648 0.0
H793 H 0.59241 0.09341 0.82105 0.0
H794 H 0.66924 0.07709 0.90185 0.0
H795 H 0.62915 0.05314 0.93878 0.0
C796 C 0.70685 0.14816 0.8427 0.0
C797 C 0.69854 0.15079 0.80457 0.0
C798 C 0.68672 0.12646 0.85994 0.0
C799 C 0.65843 0.10641 0.83894 0.0
C800 C 0.65198 0.10719 0.79981 0.0
C801 C 0.67155 0.12966 0.78293 0.0
C802 C 0.57813 0.06897 0.86638 0.0
C803 C 0.58815 0.05859 0.90036 0.0
C804 C 0.60098 0.08381 0.84591 0.0
C805 C 0.63424 0.08753 0.85852 0.0
C806 C 0.64397 0.07546 0.89173 0.0
C807 C 0.6211 0.06163 0.91283 0.0
H808 H 0.8112 0.72573 0.89372 0.0
H809 H 0.85592 0.70088 0.796 0.0
H810 H 0.8423 0.69385 0.93007 0.0
H811 H 0.88779 0.67052 0.83226 0.0
H812 H 0.89606 0.58066 0.87879 0.0
H813 H 0.86903 0.61896 0.85207 0.0
H814 H 0.89653 0.6844 0.95738 0.0
H815 H 0.92268 0.64475 0.98544 0.0
C816 C 0.82835 0.71421 0.88047 0.0
C817 C 0.83086 0.71509 0.84202 0.0
C818 C 0.84614 0.69606 0.90119 0.0
C819 C 0.8668 0.679 0.88366 0.0
C820 C 0.87128 0.68253 0.84618 0.0
C821 C 0.85321 0.70002 0.82547 0.0
C822 C 0.89571 0.60268 0.89692 0.0
C823 C 0.91135 0.6093 0.93455 0.0
C824 C 0.88072 0.62505 0.88121 0.0
C825 C 0.88127 0.65502 0.90234 0.0
C826 C 0.89589 0.66152 0.94038 0.0
C827 C 0.91095 0.63888 0.95634 0.0
H828 H 0.14093 0.29259 0.16903 0.0
H829 H 0.2274 0.32076 0.11886 0.0
H830 H 0.11175 0.31945 0.12534 0.0
H831 H 0.1977 0.34735 0.07434 0.0
H832 H 0.14248 0.43179 0.05453 0.0
H833 H 0.17482 0.39599 0.08008 0.0
H834 H 0.09039 0.31832 0.0595 0.0
H835 H 0.05786 0.35431 0.0359 0.0
C836 C 0.15364 0.30413 0.14832 0.0
C837 C 0.18659 0.30474 0.1477 0.0
C838 C 0.13677 0.31928 0.12293 0.0
C839 C 0.15238 0.33538 0.09619 0.0
C840 C 0.1851 0.33526 0.09475 0.0
C841 C 0.20205 0.31998 0.12021 0.0
C842 C 0.13099 0.40691 0.0549 0.0
C843 C 0.09749 0.39615 0.04407 0.0
C844 C 0.14957 0.3863 0.06917 0.0
C845 C 0.13494 0.35455 0.07263 0.0
C846 C 0.10216 0.34289 0.05797 0.0
C847 C 0.0836 0.36348 0.04395 0.0
H848 H 0.16455 0.73198 0.87307 0.0
H849 H 0.11233 0.6997 0.75992 0.0
H850 H 0.12305 0.69781 0.89833 0.0
H851 H 0.06958 0.66623 0.78564 0.0
H852 H 0.05247 0.56911 0.83595 0.0
H853 H 0.07293 0.61654 0.80761 0.0
H854 H 0.07173 0.67764 0.91236 0.0
H855 H 0.05336 0.62998 0.94113 0.0
C856 C 0.1436 0.71839 0.85368 0.0
C857 C 0.14233 0.7174 0.8144 0.0
C858 C 0.11947 0.69896 0.86825 0.0
C859 C 0.09343 0.6785 0.8438 0.0
C860 C 0.08993 0.68099 0.80499 0.0
C861 C 0.11432 0.70027 0.79032 0.0
C862 C 0.05649 0.59276 0.85264 0.0
C863 C 0.05255 0.59609 0.89087 0.0
C864 C 0.06764 0.62 0.83633 0.0
C865 C 0.07427 0.65093 0.8579 0.0
C866 C 0.0676 0.65415 0.8953 0.0
C867 C 0.0573 0.62692 0.91181 0.0
H868 H 0.29216 0.1499 0.8314 0.0
H869 H 0.34731 0.24272 0.88641 0.0
H870 H 0.32508 0.12329 0.87216 0.0
H871 H 0.38003 0.2164 0.92839 0.0
H872 H 0.45833 0.15481 0.94859 0.0
H873 H 0.42124 0.18656 0.92345 0.0
H874 H 0.34023 0.11105 0.93314 0.0
H875 H 0.37759 0.07886 0.95641 0.0
C876 C 0.31095 0.16452 0.85296 0.0
C877 C 0.31727 0.19817 0.8561 0.0
C878 C 0.32974 0.14938 0.87655 0.0
C879 C 0.35533 0.16765 0.90377 0.0
C880 C 0.36082 0.20154 0.90757 0.0
C881 C 0.34199 0.21665 0.88383 0.0
C882 C 0.43257 0.14548 0.94622 0.0
C883 C 0.42078 0.11436 0.95409 0.0
C884 C 0.41122 0.16366 0.93185 0.0
C885 C 0.37762 0.15116 0.92551 0.0
C886 C 0.36592 0.12109 0.93658 0.0
C887 C 0.38726 0.10275 0.9503 0.0
H888 H 0.80735 0.31358 0.90054 0.0
H889 H 0.87658 0.26554 0.85304 0.0
H890 H 0.85045 0.35188 0.94143 0.0
H891 H 0.92049 0.30361 0.89522 0.0
H892 H 0.96755 0.41186 0.89222 0.0
H893 H 0.93604 0.35714 0.88136 0.0
H894 H 0.89681 0.37558 0.98544 0.0
H895 H 0.92702 0.43149 0.99454 0.0
C896 C 0.83191 0.31034 0.90035 0.0
C897 C 0.83896 0.28744 0.8731 0.0
C898 C 0.85675 0.33221 0.92404 0.0
C899 C 0.88906 0.33156 0.92061 0.0
C900 C 0.89579 0.30525 0.89763 0.0
C901 C 0.87074 0.28328 0.87374 0.0
C902 C 0.95228 0.40412 0.91283 0.0
C903 C 0.94937 0.42576 0.94408 0.0
C904 C 0.93476 0.37247 0.90715 0.0
C905 C 0.91389 0.36176 0.93263 0.0
C906 C 0.91256 0.38305 0.9652 0.0
C907 C 0.92992 0.41492 0.97062 0.0
H908 H 0.73027 0.81827 0.89608 0.0
H909 H 0.66419 0.82633 0.79867 0.0
H910 H 0.69848 0.84458 0.93767 0.0
H911 H 0.63358 0.85347 0.83943 0.0
H912 H 0.56538 0.87471 0.91333 0.0
H913 H 0.59736 0.84204 0.88239 0.0
H914 H 0.68299 0.89449 0.95746 0.0
H915 H 0.65024 0.92553 0.99131 0.0
C916 C 0.70919 0.82594 0.88358 0.0
C917 C 0.69953 0.81993 0.84416 0.0
C918 C 0.69101 0.84102 0.90735 0.0
C919 C 0.66304 0.8506 0.89203 0.0
C920 C 0.65424 0.84545 0.85248 0.0
C921 C 0.67202 0.8301 0.82896 0.0
C922 C 0.59074 0.87872 0.92454 0.0
C923 C 0.60508 0.9034 0.95474 0.0
C924 C 0.60934 0.86027 0.90604 0.0
C925 C 0.643 0.86637 0.91645 0.0
C926 C 0.65717 0.88931 0.94838 0.0
C927 C 0.63837 0.90745 0.9675 0.0
H928 H 0.85872 0.7217 0.17041 0.0
H929 H 0.76439 0.66901 0.11522 0.0
H930 H 0.88371 0.68398 0.13391 0.0
H931 H 0.78985 0.63127 0.07886 0.0
H932 H 0.89097 0.60054 0.01826 0.0
H933 H 0.86075 0.64252 0.03559 0.0
H934 H 0.85018 0.60756 0.14193 0.0
H935 H 0.88004 0.56606 0.12497 0.0
C936 C 0.84333 0.7027 0.14975 0.0
C937 C 0.80949 0.69817 0.14618 0.0
C938 C 0.85771 0.68125 0.12874 0.0
C939 C 0.83862 0.65498 0.10362 0.0
C940 C 0.80499 0.65167 0.09778 0.0
C941 C 0.7905 0.67324 0.11872 0.0
C942 C 0.88167 0.6016 0.04499 0.0
C943 C 0.88823 0.58039 0.07052 0.0
C944 C 0.8645 0.62553 0.05485 0.0
C945 C 0.85341 0.6281 0.0901 0.0
C946 C 0.85863 0.60597 0.11465 0.0
C947 C 0.87582 0.58238 0.10499 0.0
H948 H 0.29559 0.89096 0.25569 0.0
H949 H 0.25694 0.83786 0.14436 0.0
H950 H 0.32815 0.93236 0.22709 0.0
H951 H 0.29032 0.87783 0.1161 0.0
H952 H 0.36281 0.94081 0.06936 0.0
H953 H 0.31489 0.92659 0.09943 0.0
H954 H 0.37579 0.9236 0.20369 0.0
H955 H 0.42348 0.93969 0.17409 0.0
C956 C 0.29322 0.88867 0.2251 0.0
C957 C 0.27506 0.86055 0.20224 0.0
C958 C 0.31204 0.91222 0.20873 0.0
C959 C 0.31304 0.90757 0.16953 0.0
C960 C 0.29064 0.88212 0.14644 0.0
C961 C 0.27165 0.85887 0.16272 0.0
C962 C 0.36581 0.93722 0.09879 0.0
C963 C 0.39667 0.94043 0.11929 0.0
C964 C 0.33841 0.92937 0.11608 0.0
C965 C 0.34139 0.92378 0.15392 0.0
C966 C 0.37246 0.92834 0.17474 0.0
C967 C 0.39986 0.93689 0.15764 0.0
H968 H 0.73021 0.1212 0.16366 0.0
H969 H 0.68547 0.18984 0.11049 0.0
H970 H 0.68937 0.07697 0.1258 0.0
H971 H 0.64441 0.14649 0.07377 0.0
H972 H 0.56348 0.06896 0.02311 0.0
H973 H 0.61937 0.09913 0.03254 0.0
H974 H 0.63542 0.06468 0.14008 0.0
H975 H 0.5807 0.03268 0.12853 0.0
C976 C 0.71262 0.12666 0.14246 0.0
C977 C 0.71041 0.15863 0.14014 0.0
C978 C 0.68899 0.10148 0.12118 0.0
C979 C 0.66297 0.10825 0.09776 0.0
C980 C 0.66389 0.14021 0.0915 0.0
C981 C 0.68744 0.1652 0.11261 0.0
C982 C 0.57959 0.06689 0.04773 0.0
C983 C 0.56814 0.04818 0.07455 0.0
C984 C 0.61141 0.08441 0.05352 0.0
C985 C 0.63209 0.0842 0.08697 0.0
C986 C 0.6206 0.06483 0.11351 0.0
C987 C 0.58896 0.047 0.10733 0.0
H988 H 0.70088 0.62968 0.76972 0.0
H989 H 0.62983 0.68911 0.76045 0.0
H990 H 0.66627 0.59445 0.80378 0.0
H991 H 0.59563 0.65391 0.79467 0.0
H992 H 0.58506 0.62274 0.91385 0.0
H993 H 0.61243 0.64957 0.86679 0.0
H994 H 0.60742 0.55722 0.80019 0.0
H995 H 0.57936 0.53022 0.84704 0.0
C996 C 0.67757 0.63475 0.77397 0.0
C997 C 0.66842 0.66261 0.76313 0.0
C998 C 0.6578 0.61454 0.79341 0.0
C999 C 0.62877 0.62202 0.80234 0.0
C1000 C 0.61826 0.64809 0.78853 0.0
C1001 C 0.63782 0.66812 0.76886 0.0
C1002 C 0.58988 0.6082 0.88923 0.0
C1003 C 0.58019 0.57452 0.88396 0.0
C1004 C 0.60518 0.6235 0.86219 0.0
C1005 C 0.61154 0.60534 0.82981 0.0
C1006 C 0.60251 0.57161 0.82487 0.0
C1007 C 0.58657 0.55629 0.85159 0.0
H1008 H 0.31089 0.65415 0.803 0.0
H1009 H 0.30392 0.71963 0.90157 0.0
H1010 H 0.34103 0.62482 0.84311 0.0
H1011 H 0.33466 0.69029 0.94182 0.0
H1012 H 0.4357 0.65496 0.97048 0.0
H1013 H 0.39449 0.6827 0.94542 0.0
H1014 H 0.3326 0.59085 0.89691 0.0
H1015 H 0.3736 0.56323 0.92204 0.0
C1016 C 0.31563 0.66212 0.83328 0.0
C1017 C 0.30517 0.68919 0.84917 0.0
C1018 C 0.33262 0.64519 0.85627 0.0
C1019 C 0.33992 0.65524 0.89555 0.0
C1020 C 0.3292 0.68208 0.91161 0.0
C1021 C 0.31161 0.69873 0.88862 0.0
C1022 C 0.41279 0.64077 0.95568 0.0
C1023 C 0.40795 0.6071 0.94742 0.0
C1024 C 0.38927 0.65659 0.94134 0.0
C1025 C 0.36075 0.63883 0.91865 0.0
C1026 C 0.35466 0.60503 0.91377 0.0
C1027 C 0.37804 0.58929 0.92814 0.0
H1028 H 0.35626 0.30184 0.84817 0.0
H1029 H 0.34761 0.38075 0.78582 0.0
H1030 H 0.37924 0.3396 0.90504 0.0
H1031 H 0.37327 0.41894 0.84198 0.0
H1032 H 0.40177 0.48582 0.94053 0.0
H1033 H 0.3635 0.44091 0.90106 0.0
H1034 H 0.42509 0.37639 0.93367 0.0
H1035 H 0.46124 0.42079 0.9753 0.0
C1036 C 0.36068 0.32741 0.84629 0.0
C1037 C 0.35078 0.33862 0.8126 0.0
C1038 C 0.37343 0.34903 0.87905 0.0
C1039 C 0.37742 0.38229 0.8784 0.0
C1040 C 0.36931 0.39344 0.84393 0.0
C1041 C 0.35556 0.37174 0.81144 0.0
C1042 C 0.40571 0.46156 0.94096 0.0
C1043 C 0.43426 0.45635 0.96009 0.0
C1044 C 0.38434 0.43601 0.91781 0.0
C1045 C 0.3923 0.40554 0.91258 0.0
C1046 C 0.41835 0.39959 0.93656 0.0
C1047 C 0.43907 0.425 0.96071 0.0
H1048 H 0.72469 0.34752 0.86066 0.0
H1049 H 0.63681 0.27801 0.81314 0.0
H1050 H 0.69449 0.37731 0.89955 0.0
H1051 H 0.60665 0.30756 0.85305 0.0
H1052 H 0.5627 0.39603 0.88138 0.0
H1053 H 0.59145 0.35883 0.85172 0.0
H1054 H 0.66318 0.37797 0.95184 0.0
H1055 H 0.63428 0.41611 0.98165 0.0
C1056 C 0.69892 0.33841 0.85871 0.0
C1057 C 0.68301 0.31066 0.83329 0.0
C1058 C 0.6817 0.35532 0.88144 0.0
C1059 C 0.64819 0.34485 0.87928 0.0
C1060 C 0.63245 0.31642 0.85493 0.0
C1061 C 0.64969 0.29949 0.83211 0.0
C1062 C 0.58412 0.39171 0.89759 0.0
C1063 C 0.59598 0.40861 0.93411 0.0
C1064 C 0.60061 0.37032 0.88052 0.0
C1065 C 0.62941 0.3652 0.89953 0.0
C1066 C 0.64108 0.38158 0.93644 0.0
C1067 C 0.62456 0.40328 0.95354 0.0
H1068 H 0.71417 0.35408 0.17341 0.0
H1069 H 0.64095 0.26645 0.16254 0.0
H1070 H 0.67678 0.37673 0.13231 0.0
H1071 H 0.60456 0.28886 0.12205 0.0
H1072 H 0.53803 0.36106 0.10853 0.0
H1073 H 0.5774 0.33514 0.13919 0.0
H1074 H 0.64374 0.36605 0.06261 0.0
H1075 H 0.60352 0.39132 0.03042 0.0
C1076 C 0.69036 0.33966 0.16222 0.0
C1077 C 0.68046 0.30869 0.17178 0.0
C1078 C 0.66915 0.35246 0.13849 0.0
C1079 C 0.63781 0.33451 0.12433 0.0
C1080 C 0.62845 0.30329 0.13293 0.0
C1081 C 0.64944 0.29055 0.15627 0.0
C1082 C 0.56044 0.36151 0.09713 0.0
C1083 C 0.56741 0.37821 0.06673 0.0
C1084 C 0.5832 0.34693 0.11509 0.0
C1085 C 0.61363 0.34886 0.1034 0.0
C1086 C 0.62054 0.36466 0.07241 0.0
C1087 C 0.59749 0.37898 0.054 0.0
H1088 H 0.63592 0.66216 0.25134 0.0
H1089 H 0.71833 0.6253 0.2223 0.0
H1090 H 0.60075 0.6214 0.20296 0.0
H1091 H 0.68363 0.58541 0.1729 0.0
H1092 H 0.59698 0.51292 0.0933 0.0
H1093 H 0.63611 0.54075 0.14815 0.0
H1094 H 0.60379 0.62914 0.135 0.0
H1095 H 0.56422 0.60089 0.08079 0.0
C1096 C 0.64611 0.64395 0.2363 0.0
C1097 C 0.67949 0.64683 0.23954 0.0
C1098 C 0.62626 0.62127 0.20804 0.0
C1099 C 0.64004 0.60174 0.18325 0.0
C1100 C 0.67268 0.6007 0.19133 0.0
C1101 C 0.6924 0.62313 0.21992 0.0
C1102 C 0.59948 0.53866 0.10136 0.0
C1103 C 0.57799 0.55513 0.08369 0.0
C1104 C 0.62137 0.55435 0.13285 0.0
C1105 C 0.62154 0.58644 0.14656 0.0
C1106 C 0.60291 0.60389 0.12563 0.0
C1107 C 0.58101 0.58816 0.0942 0.0
H1108 H 0.32941 0.73524 0.14077 0.0
H1109 H 0.32807 0.6665 0.21987 0.0
H1110 H 0.3562 0.70244 0.09951 0.0
H1111 H 0.3544 0.63398 0.17855 0.0
H1112 H 0.35927 0.56394 0.07876 0.0
H1113 H 0.33199 0.6023 0.11003 0.0
H1114 H 0.41134 0.68034 0.1035 0.0
H1115 H 0.43881 0.64186 0.07173 0.0
C1116 C 0.33514 0.7134 0.14955 0.0
C1117 C 0.32634 0.70326 0.18339 0.0
C1118 C 0.35039 0.69473 0.12594 0.0
C1119 C 0.35655 0.66549 0.13562 0.0
C1120 C 0.34919 0.65617 0.17021 0.0
C1121 C 0.33442 0.67496 0.19399 0.0
C1122 C 0.37041 0.58937 0.08268 0.0
C1123 C 0.40131 0.59992 0.07324 0.0
C1124 C 0.35497 0.61123 0.10097 0.0
C1125 C 0.37003 0.64399 0.1098 0.0
C1126 C 0.39945 0.6551 0.09714 0.0
C1127 C 0.4151 0.63313 0.07908 0.0
H1128 H 0.38007 0.32981 0.26474 0.0
H1129 H 0.30752 0.38714 0.25866 0.0
H1130 H 0.41641 0.37043 0.23879 0.0
H1131 H 0.34373 0.4279 0.23274 0.0
H1132 H 0.38331 0.43615 0.1162 0.0
H1133 H 0.35579 0.41305 0.1653 0.0
H1134 H 0.44687 0.42958 0.23898 0.0
H1135 H 0.47455 0.45325 0.18982 0.0
C1136 C 0.37273 0.35204 0.25993 0.0
C1137 C 0.34131 0.35571 0.2638 0.0
C1138 C 0.3934 0.3752 0.24492 0.0
C1139 C 0.38254 0.40194 0.23319 0.0
C1140 C 0.35247 0.4073 0.24126 0.0
C1141 C 0.33192 0.38423 0.25642 0.0
C1142 C 0.39742 0.43515 0.14298 0.0
C1143 C 0.43102 0.44624 0.14912 0.0
C1144 C 0.38166 0.42233 0.17127 0.0
C1145 C 0.39923 0.41991 0.20607 0.0
C1146 C 0.43282 0.43141 0.21249 0.0
C1147 C 0.44856 0.44482 0.18436 0.0
H1148 H 0.84707 0.73452 0.64857 0.0
H1149 H 0.76408 0.65572 0.63113 0.0
H1150 H 0.87603 0.70123 0.6119 0.0
H1151 H 0.79175 0.62301 0.59172 0.0
H1152 H 0.86564 0.55951 0.58249 0.0
H1153 H 0.83068 0.59439 0.60291 0.0
H1154 H 0.88737 0.67295 0.55828 0.0
H1155 H 0.92379 0.63791 0.5403 0.0
C1156 C 0.83468 0.71036 0.6357 0.0
C1157 C 0.8036 0.69745 0.64304 0.0
C1158 C 0.85119 0.69121 0.61441 0.0
C1159 C 0.83662 0.65897 0.59925 0.0
C1160 C 0.80434 0.64722 0.604 0.0
C1161 C 0.78826 0.66604 0.62624 0.0
C1162 C 0.87023 0.58412 0.57653 0.0
C1163 C 0.89732 0.59615 0.55998 0.0
C1164 C 0.85001 0.60422 0.58797 0.0
C1165 C 0.85599 0.6368 0.58244 0.0
C1166 C 0.88229 0.64829 0.56385 0.0
C1167 C 0.90303 0.62824 0.55321 0.0
H1168 H 0.35643 0.85044 0.76378 0.0
H1169 H 0.36207 0.76599 0.68788 0.0
H1170 H 0.39796 0.88295 0.73594 0.0
H1171 H 0.40436 0.79868 0.66011 0.0
H1172 H 0.41522 0.87869 0.58063 0.0
H1173 H 0.39362 0.83892 0.61892 0.0
H1174 H 0.4524 0.89685 0.71913 0.0
H1175 H 0.47374 0.93716 0.68075 0.0
C1176 C 0.36736 0.83868 0.74188 0.0
C1177 C 0.35559 0.80598 0.72719 0.0
C1178 C 0.39139 0.85724 0.72617 0.0
C1179 C 0.40391 0.8434 0.69539 0.0
C1180 C 0.39464 0.80994 0.68347 0.0
C1181 C 0.37064 0.79124 0.69943 0.0
C1182 C 0.42373 0.88285 0.61079 0.0
C1183 C 0.44568 0.91124 0.62787 0.0
C1184 C 0.41177 0.8598 0.63263 0.0
C1185 C 0.42153 0.86472 0.67196 0.0
C1186 C 0.44447 0.89255 0.68886 0.0
C1187 C 0.45648 0.91564 0.66696 0.0
H1188 H 0.16936 0.26197 0.61998 0.0
H1189 H 0.22058 0.35467 0.68088 0.0
H1190 H 0.13438 0.28878 0.58175 0.0
H1191 H 0.18538 0.38108 0.64403 0.0
H1192 H 0.12881 0.42827 0.56793 0.0
H1193 H 0.1685 0.39661 0.5858 0.0
H1194 H 0.09107 0.31569 0.58999 0.0
H1195 H 0.05161 0.34717 0.57043 0.0
C1196 C 0.17341 0.28803 0.62499 0.0
C1197 C 0.19771 0.30607 0.65379 0.0
C1198 C 0.15321 0.30342 0.60321 0.0
C1199 C 0.15683 0.33719 0.60973 0.0
C1200 C 0.18201 0.35515 0.63752 0.0
C1201 C 0.20216 0.33987 0.65907 0.0
C1202 C 0.12042 0.40343 0.57178 0.0
C1203 C 0.08723 0.39023 0.56831 0.0
C1204 C 0.1431 0.38532 0.58233 0.0
C1205 C 0.13311 0.35377 0.59042 0.0
C1206 C 0.09981 0.3398 0.58398 0.0
C1207 C 0.07711 0.35783 0.57284 0.0
H1208 H 0.70287 0.17983 0.61447 0.0
H1209 H 0.63168 0.23208 0.64877 0.0
H1210 H 0.66078 0.13923 0.57461 0.0
H1211 H 0.58941 0.19265 0.60647 0.0
H1212 H 0.53156 0.08973 0.60792 0.0
H1213 H 0.568 0.14193 0.62079 0.0
H1214 H 0.61733 0.11438 0.52759 0.0
H1215 H 0.58173 0.06082 0.51686 0.0
C1216 C 0.67831 0.18345 0.61195 0.0
C1217 C 0.67025 0.20847 0.63536 0.0
C1218 C 0.65406 0.16019 0.58885 0.0
C1219 C 0.62146 0.16203 0.58831 0.0
C1220 C 0.61415 0.18984 0.60744 0.0
C1221 C 0.6383 0.21257 0.63141 0.0
C1222 C 0.55002 0.095 0.58998 0.0
C1223 C 0.5539 0.07148 0.56132 0.0
C1224 C 0.57063 0.12522 0.59683 0.0
C1225 C 0.59568 0.13265 0.5751 0.0
C1226 C 0.59845 0.10948 0.54501 0.0
C1227 C 0.57786 0.07899 0.53845 0.0
H1228 H 0.81975 0.3065 0.3928 0.0
H1229 H 0.7749 0.37821 0.34609 0.0
H1230 H 0.85848 0.34837 0.43496 0.0
H1231 H 0.81243 0.42054 0.39059 0.0
H1232 H 0.91885 0.475 0.40504 0.0
H1233 H 0.86592 0.44082 0.38573 0.0
H1234 H 0.87946 0.39168 0.48305 0.0
H1235 H 0.93399 0.42513 0.50077 0.0
C1236 C 0.81737 0.33126 0.39265 0.0
C1237 C 0.79494 0.33926 0.36549 0.0
C1238 C 0.8395 0.3554 0.41721 0.0
C1239 C 0.83922 0.38803 0.4156 0.0
C1240 C 0.81407 0.39569 0.39163 0.0
C1241 C 0.79247 0.37153 0.36626 0.0
C1242 C 0.91038 0.45706 0.42248 0.0
C1243 C 0.93049 0.4523 0.45409 0.0
C1244 C 0.87966 0.43777 0.41185 0.0
C1245 C 0.86824 0.4132 0.43266 0.0
C1246 C 0.88762 0.41006 0.46604 0.0
C1247 C 0.91866 0.42937 0.47653 0.0
H1248 H 0.69547 0.84986 0.31177 0.0
H1249 H 0.68385 0.77485 0.38281 0.0
H1250 H 0.66835 0.88153 0.35249 0.0
H1251 H 0.65584 0.8071 0.42374 0.0
H1252 H 0.56815 0.86817 0.43564 0.0
H1253 H 0.60023 0.83066 0.41119 0.0
H1254 H 0.68299 0.90939 0.42428 0.0
H1255 H 0.65111 0.94675 0.44879 0.0
C1256 C 0.68716 0.84001 0.3361 0.0
C1257 C 0.69212 0.80977 0.34405 0.0
C1258 C 0.67178 0.85838 0.3596 0.0
C1259 C 0.66058 0.84703 0.3916 0.0
C1260 C 0.66456 0.81646 0.39934 0.0
C1261 C 0.6805 0.79805 0.3759 0.0
C1262 C 0.59347 0.8772 0.43426 0.0
C1263 C 0.60708 0.9104 0.44348 0.0
C1264 C 0.61181 0.85574 0.42052 0.0
C1265 C 0.64388 0.86729 0.41538 0.0
C1266 C 0.65821 0.89998 0.42775 0.0
C1267 C 0.64003 0.92132 0.44193 0.0
H1268 H 0.15652 0.63868 0.25424 0.0
H1269 H 0.23968 0.64942 0.33974 0.0
H1270 H 0.1257 0.59943 0.28672 0.0
H1271 H 0.20876 0.60961 0.37221 0.0
H1272 H 0.12361 0.5966 0.44491 0.0
H1273 H 0.16362 0.61936 0.40717 0.0
H1274 H 0.11754 0.54754 0.31118 0.0
H1275 H 0.07711 0.52511 0.34866 0.0
C1276 C 0.16848 0.63182 0.27935 0.0
C1277 C 0.20016 0.64746 0.29501 0.0
C1278 C 0.15091 0.60919 0.29782 0.0
C1279 C 0.16477 0.60199 0.33229 0.0
C1280 C 0.19749 0.61521 0.34591 0.0
C1281 C 0.2152 0.63774 0.32722 0.0
C1282 C 0.12221 0.58553 0.41586 0.0
C1283 C 0.09706 0.55946 0.3995 0.0
C1284 C 0.14535 0.59825 0.39443 0.0
C1285 C 0.14371 0.58501 0.35636 0.0
C1286 C 0.11922 0.55819 0.34044 0.0
C1287 C 0.09605 0.54552 0.36184 0.0
H1288 H 0.33888 0.1836 0.29182 0.0
H1289 H 0.30806 0.22233 0.39438 0.0
H1290 H 0.36957 0.15194 0.32729 0.0
H1291 H 0.3377 0.18905 0.43022 0.0
H1292 H 0.41773 0.13988 0.48338 0.0
H1293 H 0.38942 0.17704 0.4537 0.0
H1294 H 0.3554 0.10488 0.35474 0.0
H1295 H 0.38522 0.06914 0.38263 0.0
C1296 C 0.33874 0.18528 0.32212 0.0
C1297 C 0.32087 0.20504 0.34036 0.0
C1298 C 0.35609 0.16691 0.34245 0.0
C1299 C 0.35533 0.16716 0.38147 0.0
C1300 C 0.33873 0.18824 0.40019 0.0
C1301 C 0.32176 0.20724 0.37977 0.0
C1302 C 0.40423 0.13197 0.45527 0.0
C1303 C 0.40401 0.10136 0.43554 0.0
C1304 C 0.38778 0.15322 0.43839 0.0
C1305 C 0.37068 0.14423 0.40149 0.0
C1306 C 0.36905 0.11304 0.38276 0.0
C1307 C 0.3857 0.0921 0.39929 0.0
H1308 H 0.73087 0.82318 0.61741 0.0
H1309 H 0.64362 0.78158 0.65927 0.0
H1310 H 0.69968 0.85051 0.57542 0.0
H1311 H 0.61292 0.80936 0.6185 0.0
H1312 H 0.55768 0.85109 0.53738 0.0
H1313 H 0.59197 0.81501 0.55596 0.0
H1314 H 0.67368 0.89551 0.58475 0.0
H1315 H 0.6398 0.93142 0.56341 0.0
C1316 C 0.70502 0.81951 0.61732 0.0
C1317 C 0.68979 0.80044 0.64198 0.0
C1318 C 0.6872 0.83529 0.59339 0.0
C1319 C 0.65382 0.83223 0.59361 0.0
C1320 C 0.63847 0.8119 0.61701 0.0
C1321 C 0.6562 0.79616 0.64078 0.0
C1322 C 0.58319 0.86106 0.54619 0.0
C1323 C 0.59578 0.89441 0.54973 0.0
C1324 C 0.6028 0.84033 0.5574 0.0
C1325 C 0.63534 0.85248 0.57292 0.0
C1326 C 0.64867 0.8853 0.5731 0.0
C1327 C 0.62912 0.90601 0.56137 0.0
H1328 H 0.6819 0.2184 0.37552 0.0
H1329 H 0.61726 0.19713 0.2692 0.0
H1330 H 0.64181 0.18577 0.40456 0.0
H1331 H 0.57624 0.16523 0.299 0.0
H1332 H 0.5675 0.12688 0.45387 0.0
H1333 H 0.59126 0.17313 0.4257 0.0
H1334 H 0.57556 0.11278 0.31672 0.0
H1335 H 0.55026 0.06694 0.34471 0.0
C1336 C 0.65872 0.20754 0.3586 0.0
C1337 C 0.65309 0.20942 0.31977 0.0
C1338 C 0.6355 0.18903 0.37542 0.0
C1339 C 0.60608 0.17238 0.35381 0.0
C1340 C 0.59908 0.17717 0.31602 0.0
C1341 C 0.62249 0.19551 0.29904 0.0
C1342 C 0.5689 0.12366 0.42381 0.0
C1343 C 0.5578 0.09334 0.40146 0.0
C1344 C 0.58235 0.15013 0.40769 0.0
C1345 C 0.58554 0.14656 0.36911 0.0
C1346 C 0.57301 0.11647 0.34644 0.0
C1347 C 0.55898 0.09009 0.36248 0.0
H1348 H 0.84757 0.68214 0.30533 0.0
H1349 H 0.79928 0.71082 0.39879 0.0
H1350 H 0.87798 0.65316 0.34569 0.0
H1351 H 0.83043 0.68165 0.43939 0.0
H1352 H 0.95182 0.65492 0.4632 0.0
H1353 H 0.91487 0.68771 0.43945 0.0
H1354 H 0.84084 0.6019 0.40112 0.0
H1355 H 0.87737 0.56898 0.42528 0.0
C1356 C 0.84359 0.68252 0.33455 0.0
C1357 C 0.82104 0.69895 0.34884 0.0
C1358 C 0.86098 0.66586 0.35755 0.0
C1359 C 0.85651 0.66543 0.39545 0.0
C1360 C 0.83419 0.68181 0.41015 0.0
C1361 C 0.81642 0.69836 0.38693 0.0
C1362 C 0.92731 0.64313 0.45099 0.0
C1363 C 0.91771 0.6093 0.44544 0.0
C1364 C 0.90623 0.66191 0.43744 0.0
C1365 C 0.8752 0.64717 0.41856 0.0
C1366 C 0.86465 0.61371 0.41581 0.0
C1367 C 0.88566 0.59494 0.42932 0.0
H1368 H 0.30352 0.81922 0.39787 0.0
H1369 H 0.37052 0.76611 0.35366 0.0
H1370 H 0.34696 0.85417 0.44189 0.0
H1371 H 0.41472 0.80095 0.39887 0.0
H1372 H 0.46804 0.90892 0.40099 0.0
H1373 H 0.43483 0.85494 0.3877 0.0
H1374 H 0.39241 0.8731 0.4895 0.0
H1375 H 0.42469 0.92824 0.50124 0.0
C1376 C 0.32755 0.81427 0.39882 0.0
C1377 C 0.33411 0.7909 0.37176 0.0
C1378 C 0.35251 0.8341 0.42441 0.0
C1379 C 0.38454 0.83102 0.42307 0.0
C1380 C 0.39033 0.80437 0.39982 0.0
C1381 C 0.36512 0.78435 0.37409 0.0
C1382 C 0.45178 0.90124 0.42066 0.0
C1383 C 0.44839 0.9227 0.45182 0.0
C1384 C 0.43326 0.86999 0.41358 0.0
C1385 C 0.41081 0.85961 0.4375 0.0
C1386 C 0.40933 0.88043 0.47041 0.0
C1387 C 0.42781 0.91187 0.4773 0.0
H1388 H 0.14885 0.29101 0.32732 0.0
H1389 H 0.2414 0.33855 0.39198 0.0
H1390 H 0.12174 0.31962 0.37151 0.0
H1391 H 0.21396 0.36719 0.43678 0.0
H1392 H 0.15093 0.44552 0.45804 0.0
H1393 H 0.18363 0.41043 0.43157 0.0
H1394 H 0.10924 0.32718 0.43649 0.0
H1395 H 0.07634 0.36252 0.4633 0.0
C1396 C 0.16345 0.30735 0.35124 0.0
C1397 C 0.19735 0.31281 0.35582 0.0
C1398 C 0.14783 0.32348 0.37689 0.0
C1399 C 0.16567 0.34566 0.40773 0.0
C1400 C 0.19957 0.35036 0.41315 0.0
C1401 C 0.21526 0.33393 0.38756 0.0
C1402 C 0.14196 0.41969 0.45479 0.0
C1403 C 0.11082 0.40682 0.46231 0.0
C1404 C 0.16076 0.39953 0.43952 0.0
C1405 C 0.14884 0.36604 0.43138 0.0
C1406 C 0.11881 0.35296 0.44177 0.0
C1407 C 0.09999 0.37315 0.45712 0.0
H1408 H 0.35951 0.21584 0.675 0.0
H1409 H 0.26494 0.16927 0.61493 0.0
H1410 H 0.38394 0.18145 0.63404 0.0
H1411 H 0.28968 0.13492 0.57305 0.0
H1412 H 0.34626 0.04976 0.56067 0.0
H1413 H 0.3158 0.08993 0.58091 0.0
H1414 H 0.39657 0.16603 0.57238 0.0
H1415 H 0.42723 0.12569 0.5534 0.0
C1416 C 0.34392 0.19867 0.65251 0.0
C1417 C 0.31021 0.19515 0.6486 0.0
C1418 C 0.35801 0.17905 0.62867 0.0
C1419 C 0.33883 0.15525 0.60017 0.0
C1420 C 0.30516 0.15276 0.59494 0.0
C1421 C 0.291 0.1726 0.61881 0.0
C1422 C 0.35705 0.07508 0.56203 0.0
C1423 C 0.38924 0.08469 0.55616 0.0
C1424 C 0.33961 0.09817 0.57359 0.0
C1425 C 0.354 0.13129 0.5792 0.0
C1426 C 0.38507 0.14075 0.56942 0.0
C1427 C 0.40258 0.1177 0.55832 0.0
H1428 H 0.78326 0.32745 0.64068 0.0
H1429 H 0.80563 0.38557 0.75135 0.0
H1430 H 0.81407 0.37061 0.61433 0.0
H1431 H 0.83585 0.42972 0.72442 0.0
H1432 H 0.87331 0.44525 0.56931 0.0
H1433 H 0.82656 0.42284 0.59773 0.0
H1434 H 0.88808 0.43206 0.70494 0.0
H1435 H 0.93444 0.4561 0.67683 0.0
C1436 C 0.79405 0.34984 0.65922 0.0
C1437 C 0.7931 0.35273 0.69831 0.0
C1438 C 0.81142 0.37488 0.64397 0.0
C1439 C 0.82799 0.40339 0.6675 0.0
C1440 C 0.82392 0.40768 0.70584 0.0
C1441 C 0.8066 0.38245 0.7212 0.0
C1442 C 0.87664 0.44285 0.59911 0.0
C1443 C 0.90744 0.45137 0.62079 0.0
C1444 C 0.8499 0.43024 0.61539 0.0
C1445 C 0.8537 0.42516 0.65336 0.0
C1446 C 0.88423 0.43593 0.67569 0.0
C1447 C 0.9109 0.44921 0.65953 0.0
H1448 H 0.21565 0.6214 0.70031 0.0
H1449 H 0.22059 0.68182 0.61273 0.0
H1450 H 0.17682 0.57954 0.65796 0.0
H1451 H 0.18263 0.63925 0.56891 0.0
H1452 H 0.0714 0.59502 0.54841 0.0
H1453 H 0.12675 0.62543 0.56793 0.0
H1454 H 0.15379 0.54091 0.60643 0.0
H1455 H 0.09784 0.51177 0.58951 0.0
C1456 C 0.20988 0.62476 0.67107 0.0
C1457 C 0.22097 0.65452 0.65955 0.0
C1458 C 0.18745 0.60078 0.64658 0.0
C1459 C 0.1758 0.60625 0.61008 0.0
C1460 C 0.19037 0.63456 0.59711 0.0
C1461 C 0.21255 0.65872 0.62189 0.0
C1462 C 0.08948 0.58305 0.56052 0.0
C1463 C 0.08063 0.55159 0.56845 0.0
C1464 C 0.12132 0.60023 0.57133 0.0
C1465 C 0.14484 0.58584 0.58951 0.0
C1466 C 0.13623 0.55311 0.59366 0.0
C1467 C 0.10426 0.53638 0.58397 0.0
loop_
_geom_bond_atom_site_label_1
_geom_bond_atom_site_label_2
_geom_bond_distance
_geom_bond_site_symmetry_2
_ccdc_geom_bond_type
O0 Zn1 1.953 . S
O0 C16 1.225 . S
Zn1 O0 1.953 . S
Zn1 O2 1.949 . S
Zn1 O8 1.919 . S
Zn1 O13 1.924 . S
O2 Zn1 1.949 . S
O2 Zn3 1.923 . S
O2 Zn4 1.950 . S
O2 Zn5 1.945 . S
Zn3 O2 1.923 . S
Zn3 O6 1.933 . S
Zn3 O9 1.941 . S
Zn3 O10 1.965 . S
Zn4 O2 1.950 . S
Zn4 O11 1.938 . S
Zn4 O12 1.906 . S
Zn4 O22 1.953 . S
Zn5 O2 1.945 . S
Zn5 O7 1.932 . S
Zn5 O14 1.977 . S
Zn5 O15 1.910 . S
O6 Zn3 1.933 . S
O6 C17 1.226 . S
O7 Zn5 1.932 . S
O7 C17 1.307 . S
O8 Zn1 1.919 . S
O8 C19 1.253 . S
O9 Zn3 1.941 . S
O9 C19 1.283 . S
O10 Zn3 1.965 . S
O10 C18 1.303 . S
O11 Zn4 1.938 . S
O11 C18 1.247 . S
O12 Zn4 1.906 . S
O12 C20 1.304 . S
O13 Zn1 1.924 . S
O13 C21 1.311 . S
O14 Zn5 1.977 . S
O14 C20 1.272 . S
O15 Zn5 1.910 . S
O15 C21 1.231 . S
C16 O0 1.225 . S
C16 O22 1.298 . S
C17 O6 1.226 . S
C17 O7 1.307 . S
C18 O10 1.303 . S
C18 O11 1.247 . S
C19 O8 1.253 . S
C19 O9 1.283 . S
C20 O12 1.304 . S
C20 O14 1.272 . S
C21 O13 1.311 . S
C21 O15 1.231 . S
O22 Zn4 1.953 . S
O22 C16 1.298 . S
O23 Zn24 1.953 . S
O23 C39 1.225 . S
Zn24 O23 1.953 . S
Zn24 O25 1.949 . S
Zn24 O31 1.919 . S
Zn24 O36 1.924 . S
O25 Zn24 1.949 . S
O25 Zn26 1.923 . S
O25 Zn27 1.950 . S
O25 Zn28 1.945 . S
Zn26 O25 1.923 . S
Zn26 O29 1.933 . S
Zn26 O32 1.941 . S
Zn26 O33 1.965 . S
Zn27 O25 1.950 . S
Zn27 O34 1.938 . S
Zn27 O35 1.906 . S
Zn27 O45 1.953 . S
Zn28 O25 1.945 . S
Zn28 O30 1.932 . S
Zn28 O37 1.977 . S
Zn28 O38 1.910 . S
O29 Zn26 1.933 . S
O29 C40 1.226 . S
O30 Zn28 1.932 . S
O30 C40 1.307 . S
O31 Zn24 1.919 . S
O31 C42 1.253 . S
O32 Zn26 1.941 . S
O32 C42 1.283 . S
O33 Zn26 1.965 . S
O33 C41 1.303 . S
O34 Zn27 1.938 . S
O34 C41 1.247 . S
O35 Zn27 1.906 . S
O35 C43 1.304 . S
O36 Zn24 1.924 . S
O36 C44 1.311 . S
O37 Zn28 1.977 . S
O37 C43 1.272 . S
O38 Zn28 1.910 . S
O38 C44 1.231 . S
C39 O23 1.225 . S
C39 O45 1.298 . S
C40 O29 1.226 . S
C40 O30 1.307 . S
C41 O33 1.303 . S
C41 O34 1.247 . S
C42 O31 1.253 . S
C42 O32 1.283 . S
C43 O35 1.304 . S
C43 O37 1.272 . S
C44 O36 1.311 . S
C44 O38 1.231 . S
O45 Zn27 1.953 . S
O45 C39 1.298 . S
O46 Zn47 1.953 . S
O46 C62 1.225 . S
Zn47 O46 1.953 . S
Zn47 O48 1.949 . S
Zn47 O54 1.919 . S
Zn47 O59 1.924 . S
O48 Zn47 1.949 . S
O48 Zn49 1.923 . S
O48 Zn50 1.950 . S
O48 Zn51 1.945 . S
Zn49 O48 1.923 . S
Zn49 O52 1.933 . S
Zn49 O55 1.941 . S
Zn49 O56 1.965 . S
Zn50 O48 1.950 . S
Zn50 O57 1.938 . S
Zn50 O58 1.906 . S
Zn50 O68 1.953 . S
Zn51 O48 1.945 . S
Zn51 O53 1.932 . S
Zn51 O60 1.977 . S
Zn51 O61 1.910 . S
O52 Zn49 1.933 . S
O52 C63 1.226 . S
O53 Zn51 1.932 . S
O53 C63 1.307 . S
O54 Zn47 1.919 . S
O54 C65 1.253 . S
O55 Zn49 1.941 . S
O55 C65 1.283 . S
O56 Zn49 1.965 . S
O56 C64 1.303 . S
O57 Zn50 1.938 . S
O57 C64 1.247 . S
O58 Zn50 1.906 . S
O58 C66 1.304 . S
O59 Zn47 1.924 . S
O59 C67 1.311 . S
O60 Zn51 1.977 . S
O60 C66 1.272 . S
O61 Zn51 1.910 . S
O61 C67 1.231 . S
C62 O46 1.225 . S
C62 O68 1.298 . S
C63 O52 1.226 . S
C63 O53 1.307 . S
C64 O56 1.303 . S
C64 O57 1.247 . S
C65 O54 1.253 . S
C65 O55 1.283 . S
C66 O58 1.304 . S
C66 O60 1.272 . S
C67 O59 1.311 . S
C67 O61 1.231 . S
O68 Zn50 1.953 . S
O68 C62 1.298 . S
O69 Zn70 1.953 . S
O69 C85 1.225 . S
Zn70 O69 1.953 . S
Zn70 O71 1.949 . S
Zn70 O77 1.919 . S
Zn70 O82 1.924 . S
O71 Zn70 1.949 . S
O71 Zn72 1.923 . S
O71 Zn73 1.950 . S
O71 Zn74 1.945 . S
Zn72 O71 1.923 . S
Zn72 O75 1.933 . S
Zn72 O78 1.941 . S
Zn72 O79 1.965 . S
Zn73 O71 1.950 . S
Zn73 O80 1.938 . S
Zn73 O81 1.906 . S
Zn73 O91 1.953 . S
Zn74 O71 1.945 . S
Zn74 O76 1.932 . S
Zn74 O83 1.977 . S
Zn74 O84 1.910 . S
O75 Zn72 1.933 . S
O75 C86 1.226 . S
O76 Zn74 1.932 . S
O76 C86 1.307 . S
O77 Zn70 1.919 . S
O77 C88 1.253 . S
O78 Zn72 1.941 . S
O78 C88 1.283 . S
O79 Zn72 1.965 . S
O79 C87 1.303 . S
O80 Zn73 1.938 . S
O80 C87 1.247 . S
O81 Zn73 1.906 . S
O81 C89 1.304 . S
O82 Zn70 1.924 . S
O82 C90 1.311 . S
O83 Zn74 1.977 . S
O83 C89 1.272 . S
O84 Zn74 1.910 . S
O84 C90 1.231 . S
C85 O69 1.225 . S
C85 O91 1.298 . S
C86 O75 1.226 . S
C86 O76 1.307 . S
C87 O79 1.303 . S
C87 O80 1.247 . S
C88 O77 1.253 . S
C88 O78 1.283 . S
C89 O81 1.304 . S
C89 O83 1.272 . S
C90 O82 1.311 . S
C90 O84 1.231 . S
O91 Zn73 1.953 . S
O91 C85 1.298 . S
O92 Zn93 1.953 . S
O92 C108 1.225 . S
Zn93 O92 1.953 . S
Zn93 O94 1.949 . S
Zn93 O100 1.919 . S
Zn93 O105 1.924 . S
O94 Zn93 1.949 . S
O94 Zn95 1.923 . S
O94 Zn96 1.950 . S
O94 Zn97 1.945 . S
Zn95 O94 1.923 . S
Zn95 O98 1.933 . S
Zn95 O101 1.941 . S
Zn95 O102 1.965 . S
Zn96 O94 1.950 . S
Zn96 O103 1.938 . S
Zn96 O104 1.906 . S
Zn96 O114 1.953 . S
Zn97 O94 1.945 . S
Zn97 O99 1.932 . S
Zn97 O106 1.977 . S
Zn97 O107 1.910 . S
O98 Zn95 1.933 . S
O98 C109 1.226 . S
O99 Zn97 1.932 . S
O99 C109 1.307 . S
O100 Zn93 1.919 . S
O100 C111 1.253 . S
O101 Zn95 1.941 . S
O101 C111 1.283 . S
O102 Zn95 1.965 . S
O102 C110 1.303 . S
O103 Zn96 1.938 . S
O103 C110 1.247 . S
O104 Zn96 1.906 . S
O104 C112 1.304 . S
O105 Zn93 1.924 . S
O105 C113 1.311 . S
O106 Zn97 1.977 . S
O106 C112 1.272 . S
O107 Zn97 1.910 . S
O107 C113 1.231 . S
C108 O92 1.225 . S
C108 O114 1.298 . S
C109 O98 1.226 . S
C109 O99 1.307 . S
C110 O102 1.303 . S
C110 O103 1.247 . S
C111 O100 1.253 . S
C111 O101 1.283 . S
C112 O104 1.304 . S
C112 O106 1.272 . S
C113 O105 1.311 . S
C113 O107 1.231 . S
O114 Zn96 1.953 . S
O114 C108 1.298 . S
O115 Zn116 1.953 . S
O115 C131 1.225 . S
Zn116 O115 1.953 . S
Zn116 O117 1.949 . S
Zn116 O123 1.919 . S
Zn116 O128 1.924 . S
O117 Zn116 1.949 . S
O117 Zn118 1.923 . S
O117 Zn119 1.950 . S
O117 Zn120 1.945 . S
Zn118 O117 1.923 . S
Zn118 O121 1.933 . S
Zn118 O124 1.941 . S
Zn118 O125 1.965 . S
Zn119 O117 1.950 . S
Zn119 O126 1.938 . S
Zn119 O127 1.906 . S
Zn119 O137 1.953 . S
Zn120 O117 1.945 . S
Zn120 O122 1.932 . S
Zn120 O129 1.977 . S
Zn120 O130 1.910 . S
O121 Zn118 1.933 . S
O121 C132 1.226 . S
O122 Zn120 1.932 . S
O122 C132 1.307 . S
O123 Zn116 1.919 . S
O123 C134 1.253 . S
O124 Zn118 1.941 . S
O124 C134 1.283 . S
O125 Zn118 1.965 . S
O125 C133 1.303 . S
O126 Zn119 1.938 . S
O126 C133 1.247 . S
O127 Zn119 1.906 . S
O127 C135 1.304 . S
O128 Zn116 1.924 . S
O128 C136 1.311 . S
O129 Zn120 1.977 . S
O129 C135 1.272 . S
O130 Zn120 1.910 . S
O130 C136 1.231 . S
C131 O115 1.225 . S
C131 O137 1.298 . S
C132 O121 1.226 . S
C132 O122 1.307 . S
C133 O125 1.303 . S
C133 O126 1.247 . S
C134 O123 1.253 . S
C134 O124 1.283 . S
C135 O127 1.304 . S
C135 O129 1.272 . S
C136 O128 1.311 . S
C136 O130 1.231 . S
O137 Zn119 1.953 . S
O137 C131 1.298 . S
O138 Zn139 1.953 . S
O138 C154 1.225 . S
Zn139 O138 1.953 . S
Zn139 O140 1.949 . S
Zn139 O146 1.919 . S
Zn139 O151 1.924 . S
O140 Zn139 1.949 . S
O140 Zn141 1.923 . S
O140 Zn142 1.950 . S
O140 Zn143 1.945 . S
Zn141 O140 1.923 . S
Zn141 O144 1.933 . S
Zn141 O147 1.941 . S
Zn141 O148 1.965 . S
Zn142 O140 1.950 . S
Zn142 O149 1.938 . S
Zn142 O150 1.906 . S
Zn142 O160 1.953 . S
Zn143 O140 1.945 . S
Zn143 O145 1.932 . S
Zn143 O152 1.977 . S
Zn143 O153 1.910 . S
O144 Zn141 1.933 . S
O144 C155 1.226 . S
O145 Zn143 1.932 . S
O145 C155 1.307 . S
O146 Zn139 1.919 . S
O146 C157 1.253 . S
O147 Zn141 1.941 . S
O147 C157 1.283 . S
O148 Zn141 1.965 . S
O148 C156 1.303 . S
O149 Zn142 1.938 . S
O149 C156 1.247 . S
O150 Zn142 1.906 . S
O150 C158 1.304 . S
O151 Zn139 1.924 . S
O151 C159 1.311 . S
O152 Zn143 1.977 . S
O152 C158 1.272 . S
O153 Zn143 1.910 . S
O153 C159 1.231 . S
C154 O138 1.225 . S
C154 O160 1.298 . S
C155 O144 1.226 . S
C155 O145 1.307 . S
C156 O148 1.303 . S
C156 O149 1.247 . S
C157 O146 1.253 . S
C157 O147 1.283 . S
C158 O150 1.304 . S
C158 O152 1.272 . S
C159 O151 1.311 . S
C159 O153 1.231 . S
O160 Zn142 1.953 . S
O160 C154 1.298 . S
O161 Zn162 1.953 . S
O161 C177 1.225 . S
Zn162 O161 1.953 . S
Zn162 O163 1.949 . S
Zn162 O169 1.919 . S
Zn162 O174 1.924 . S
O163 Zn162 1.949 . S
O163 Zn164 1.923 . S
O163 Zn165 1.950 . S
O163 Zn166 1.945 . S
Zn164 O163 1.923 . S
Zn164 O167 1.933 . S
Zn164 O170 1.941 . S
Zn164 O171 1.965 . S
Zn165 O163 1.950 . S
Zn165 O172 1.938 . S
Zn165 O173 1.906 . S
Zn165 O183 1.953 . S
Zn166 O163 1.945 . S
Zn166 O168 1.932 . S
Zn166 O175 1.977 . S
Zn166 O176 1.910 . S
O167 Zn164 1.933 . S
O167 C178 1.226 . S
O168 Zn166 1.932 . S
O168 C178 1.307 . S
O169 Zn162 1.919 . S
O169 C180 1.253 . S
O170 Zn164 1.941 . S
O170 C180 1.283 . S
O171 Zn164 1.965 . S
O171 C179 1.303 . S
O172 Zn165 1.938 . S
O172 C179 1.247 . S
O173 Zn165 1.906 . S
O173 C181 1.304 . S
O174 Zn162 1.924 . S
O174 C182 1.311 . S
O175 Zn166 1.977 . S
O175 C181 1.272 . S
O176 Zn166 1.910 . S
O176 C182 1.231 . S
C177 O161 1.225 . S
C177 O183 1.298 . S
C178 O167 1.226 . S
C178 O168 1.307 . S
C179 O171 1.303 . S
C179 O172 1.247 . S
C180 O169 1.253 . S
C180 O170 1.283 . S
C181 O173 1.304 . S
C181 O175 1.272 . S
C182 O174 1.311 . S
C182 O176 1.231 . S
O183 Zn165 1.953 . S
O183 C177 1.298 . S
Cd184 N187 2.334 1_655 S
Cd184 N213 2.304 1_565 S
Cd184 O220 2.268 . S
Cd184 O223 2.273 1_665 S
Cd184 O224 2.417 . S
Cd184 O225 2.330 . S
Cd185 N200 2.304 1_455 S
Cd185 N204 2.334 1_545 S
Cd185 O221 2.273 1_445 S
Cd185 O222 2.268 . S
Cd185 O226 2.417 . S
Cd185 O227 2.330 . S
C186 N187 1.332 . S
C186 C190 1.381 . S
C186 H192 0.931 . S
N187 Cd184 2.334 1_455 S
N187 C186 1.332 . S
N187 C191 1.328 . S
C188 C189 1.396 . S
C188 C191 1.378 . S
C188 H230 0.931 . S
C189 C188 1.396 . S
C189 C190 1.382 . S
C190 C186 1.381 . S
C190 C189 1.382 . S
C190 H231 0.930 . S
C191 N187 1.328 . S
C191 C188 1.378 . S
C191 H193 0.930 . S
H192 C186 0.931 . S
H193 C191 0.930 . S
C194 O220 1.238 . S
C194 O221 1.253 . S
C195 C196 1.379 . S
C195 N200 1.337 . S
C195 H201 0.929 . S
C196 C195 1.379 . S
C196 C197 1.380 . S
C196 H232 0.929 . S
C197 C196 1.380 . S
C197 C198 1.399 . S
C198 C197 1.399 . S
C198 C199 1.376 . S
C198 H233 0.931 . S
C199 C198 1.376 . S
C199 N200 1.338 . S
C199 H202 0.930 1_655 S
N200 Cd185 2.304 1_655 S
N200 C195 1.337 . S
N200 C199 1.338 . S
H201 C195 0.929 . S
H202 C199 0.930 1_455 S
C203 N204 1.332 . S
C203 C207 1.381 . S
C203 H209 0.931 . S
N204 Cd185 2.334 1_565 S
N204 C203 1.332 . S
N204 C208 1.328 . S
C205 C206 1.396 . S
C205 C208 1.378 . S
C205 H234 0.931 . S
C206 C205 1.396 . S
C206 C207 1.382 . S
C207 C203 1.381 . S
C207 C206 1.382 . S
C207 H235 0.930 . S
C208 N204 1.328 . S
C208 C205 1.378 . S
C208 H210 0.930 1_565 S
H209 C203 0.931 . S
H210 C208 0.930 1_545 S
C211 O222 1.238 . S
C211 O223 1.253 . S
C212 O224 1.239 . S
C212 O225 1.230 . S
N213 Cd184 2.304 1_545 S
N213 C214 1.337 . S
N213 C218 1.338 . S
C214 N213 1.337 . S
C214 C215 1.379 . S
C214 H228 0.929 . S
C215 C214 1.379 . S
C215 C216 1.380 . S
C215 H236 0.929 . S
C216 C215 1.380 . S
C216 C217 1.399 . S
C217 C216 1.399 . S
C217 C218 1.376 . S
C217 H237 0.931 . S
C218 N213 1.338 . S
C218 C217 1.376 . S
C218 H229 0.930 . S
C219 O226 1.239 . S
C219 O227 1.230 . S
O220 Cd184 2.268 . S
O220 C194 1.238 . S
O221 Cd185 2.273 1_665 S
O221 C194 1.253 . S
O222 Cd185 2.268 . S
O222 C211 1.238 . S
O223 Cd184 2.273 1_445 S
O223 C211 1.253 . S
O224 Cd184 2.417 . S
O224 C212 1.239 . S
O225 Cd184 2.330 . S
O225 C212 1.230 . S
O226 Cd185 2.417 . S
O226 C219 1.239 . S
O227 Cd185 2.330 . S
O227 C219 1.230 . S
H228 C214 0.929 . S
H229 C218 0.930 . S
H230 C188 0.931 . S
H231 C190 0.930 . S
H232 C196 0.929 . S
H233 C198 0.931 . S
H234 C205 0.931 . S
H235 C207 0.930 . S
H236 C215 0.929 . S
H237 C217 0.931 . S
Cd238 N241 2.334 . S
Cd238 N267 2.304 1_565 S
Cd238 O274 2.268 1_554 S
Cd238 O277 2.273 1_565 S
Cd238 O278 2.417 . S
Cd238 O279 2.330 . S
Cd239 N254 2.304 . S
Cd239 N258 2.334 1_545 S
Cd239 O275 2.273 1_545 S
Cd239 O276 2.268 1_556 S
Cd239 O280 2.417 . S
Cd239 O281 2.330 . S
C240 N241 1.332 . S
C240 C244 1.381 . S
C240 H246 0.931 . S
N241 Cd238 2.334 . S
N241 C240 1.332 . S
N241 C245 1.328 . S
C242 C243 1.396 . S
C242 C245 1.378 . S
C242 H284 0.931 . S
C243 C242 1.396 . S
C243 C244 1.382 . S
C244 C240 1.381 . S
C244 C243 1.382 . S
C244 H285 0.930 . S
C245 N241 1.328 . S
C245 C242 1.378 . S
C245 H247 0.930 . S
H246 C240 0.931 . S
H247 C245 0.930 . S
C248 O274 1.238 . S
C248 O275 1.253 . S
C249 C250 1.379 . S
C249 N254 1.337 . S
C249 H255 0.929 . S
C250 C249 1.379 . S
C250 C251 1.380 . S
C250 H286 0.929 . S
C251 C250 1.380 . S
C251 C252 1.403 . S
C252 C251 1.403 . S
C252 C253 1.376 . S
C252 H287 0.926 1_556 S
C253 C252 1.376 . S
C253 N254 1.357 . S
C253 H256 0.911 1_556 S
N254 Cd239 2.304 . S
N254 C249 1.337 . S
N254 C253 1.357 . S
H255 C249 0.929 . S
H256 C253 0.911 1_554 S
C257 N258 1.332 . S
C257 C261 1.381 . S
C257 H263 0.931 . S
N258 Cd239 2.334 1_565 S
N258 C257 1.332 . S
N258 C262 1.328 . S
C259 C260 1.396 . S
C259 C262 1.378 . S
C259 H288 0.931 1_556 S
C260 C259 1.396 . S
C260 C261 1.382 . S
C261 C257 1.381 . S
C261 C260 1.382 . S
C261 H289 0.930 . S
C262 N258 1.328 . S
C262 C259 1.378 . S
C262 H264 0.930 1_566 S
H263 C257 0.931 . S
H264 C262 0.930 1_544 S
C265 O276 1.238 . S
C265 O277 1.253 . S
C266 O278 1.239 . S
C266 O279 1.230 . S
N267 Cd238 2.304 1_545 S
N267 C268 1.337 . S
N267 C272 1.338 . S
C268 N267 1.337 . S
C268 C269 1.379 . S
C268 H282 0.929 . S
C269 C268 1.379 . S
C269 C270 1.380 . S
C269 H290 0.929 . S
C270 C269 1.380 . S
C270 C271 1.399 . S
C271 C270 1.399 . S
C271 C272 1.376 . S
C271 H291 0.931 . S
C272 N267 1.338 . S
C272 C271 1.376 . S
C272 H283 0.930 . S
C273 O280 1.239 . S
C273 O281 1.230 . S
O274 Cd238 2.268 1_556 S
O274 C248 1.238 . S
O275 Cd239 2.273 1_565 S
O275 C248 1.253 . S
O276 Cd239 2.268 1_554 S
O276 C265 1.238 . S
O277 Cd238 2.273 1_545 S
O277 C265 1.253 . S
O278 Cd238 2.417 . S
O278 C266 1.239 . S
O279 Cd238 2.330 . S
O279 C266 1.230 . S
O280 Cd239 2.417 . S
O280 C273 1.239 . S
O281 Cd239 2.330 . S
O281 C273 1.230 . S
H282 C268 0.929 . S
H283 C272 0.930 . S
H284 C242 0.931 . S
H285 C244 0.930 . S
H286 C250 0.929 . S
H287 C252 0.926 1_554 S
H288 C259 0.931 1_554 S
H289 C261 0.930 . S
H290 C269 0.929 . S
H291 C271 0.931 . S
Cd292 N295 2.334 1_655 S
Cd292 N321 2.304 . S
Cd292 O328 2.268 1_554 S
Cd292 O331 2.273 1_655 S
Cd292 O332 2.417 . S
Cd292 O333 2.330 . S
Cd293 N308 2.304 1_455 S
Cd293 N312 2.334 . S
Cd293 O329 2.273 1_455 S
Cd293 O330 2.268 1_556 S
Cd293 O334 2.417 . S
Cd293 O335 2.330 . S
C294 N295 1.332 . S
C294 C298 1.381 . S
C294 H300 0.931 . S
N295 Cd292 2.334 1_455 S
N295 C294 1.332 . S
N295 C299 1.328 . S
C296 C297 1.396 . S
C296 C299 1.378 . S
C296 H338 0.931 1_554 S
C297 C296 1.396 . S
C297 C298 1.382 . S
C298 C294 1.381 . S
C298 C297 1.382 . S
C298 H339 0.930 . S
C299 N295 1.328 . S
C299 C296 1.378 . S
C299 H301 0.930 1_554 S
H300 C294 0.931 . S
H301 C299 0.930 1_556 S
C302 O328 1.238 . S
C302 O329 1.253 . S
C303 C304 1.379 . S
C303 N308 1.337 . S
C303 H309 0.929 . S
C304 C303 1.379 . S
C304 C305 1.380 . S
C304 H340 0.929 . S
C305 C304 1.380 . S
C305 C306 1.399 . S
C306 C305 1.399 . S
C306 C307 1.395 . S
C306 H341 0.931 1_556 S
C307 C306 1.395 . S
C307 N308 1.335 . S
C307 H310 0.914 1_656 S
N308 Cd293 2.304 1_655 S
N308 C303 1.337 . S
N308 C307 1.335 . S
H309 C303 0.929 . S
H310 C307 0.914 1_454 S
C311 N312 1.332 . S
C311 C315 1.381 . S
C311 H317 0.931 . S
N312 Cd293 2.334 . S
N312 C311 1.332 . S
N312 C316 1.328 . S
C313 C314 1.396 . S
C313 C316 1.378 . S
C313 H342 0.931 1_556 S
C314 C313 1.396 . S
C314 C315 1.382 . S
C315 C311 1.381 . S
C315 C314 1.382 . S
C315 H343 0.930 . S
C316 N312 1.328 . S
C316 C313 1.378 . S
C316 H318 0.930 1_556 S
H317 C311 0.931 . S
H318 C316 0.930 1_554 S
C319 O330 1.238 . S
C319 O331 1.253 . S
C320 O332 1.239 . S
C320 O333 1.230 . S
N321 Cd292 2.304 . S
N321 C322 1.337 . S
N321 C326 1.338 . S
C322 N321 1.337 . S
C322 C323 1.379 . S
C322 H336 0.929 . S
C323 C322 1.379 . S
C323 C324 1.380 . S
C323 H344 0.929 . S
C324 C323 1.380 . S
C324 C325 1.399 . S
C325 C324 1.399 . S
C325 C326 1.376 . S
C325 H345 0.931 1_554 S
C326 N321 1.338 . S
C326 C325 1.376 . S
C326 H337 0.930 1_554 S
C327 O334 1.239 . S
C327 O335 1.230 . S
O328 Cd292 2.268 1_556 S
O328 C302 1.238 . S
O329 Cd293 2.273 1_655 S
O329 C302 1.253 . S
O330 Cd293 2.268 1_554 S
O330 C319 1.238 . S
O331 Cd292 2.273 1_455 S
O331 C319 1.253 . S
O332 Cd292 2.417 . S
O332 C320 1.239 . S
O333 Cd292 2.330 . S
O333 C320 1.230 . S
O334 Cd293 2.417 . S
O334 C327 1.239 . S
O335 Cd293 2.330 . S
O335 C327 1.230 . S
H336 C322 0.929 . S
H337 C326 0.930 1_556 S
H338 C296 0.931 1_556 S
H339 C298 0.930 . S
H340 C304 0.929 . S
H341 C306 0.931 1_554 S
H342 C313 0.931 1_554 S
H343 C315 0.930 . S
H344 C323 0.929 . S
H345 C325 0.931 1_556 S
Cd346 N349 2.334 . S
Cd346 N375 2.304 . S
Cd346 O382 2.268 1_554 S
Cd346 O385 2.273 . S
Cd346 O386 2.417 . S
Cd346 O387 2.330 . S
Cd347 N362 2.304 . S
Cd347 N366 2.334 . S
Cd347 O383 2.273 . S
Cd347 O384 2.268 1_556 S
Cd347 O388 2.417 . S
Cd347 O389 2.330 . S
C348 N349 1.332 . S
C348 C352 1.381 . S
C348 H354 0.931 . S
N349 Cd346 2.334 . S
N349 C348 1.332 . S
N349 C353 1.328 . S
C350 C351 1.396 . S
C350 C353 1.378 . S
C350 H392 0.931 . S
C351 C350 1.396 . S
C351 C352 1.382 . S
C352 C348 1.381 . S
C352 C351 1.382 . S
C352 H393 0.930 . S
C353 N349 1.328 . S
C353 C350 1.378 . S
C353 H355 0.930 . S
H354 C348 0.931 . S
H355 C353 0.930 . S
C356 O382 1.238 . S
C356 O383 1.253 . S
C357 C358 1.379 . S
C357 N362 1.337 . S
C357 H363 0.929 . S
C358 C357 1.379 . S
C358 C359 1.380 . S
C358 H394 0.929 . S
C359 C358 1.380 . S
C359 C360 1.399 . S
C360 C359 1.399 . S
C360 C361 1.376 . S
C360 H395 0.931 1_556 S
C361 C360 1.376 . S
C361 N362 1.338 . S
C361 H364 0.930 1_556 S
N362 Cd347 2.304 . S
N362 C357 1.337 . S
N362 C361 1.338 . S
H363 C357 0.929 . S
H364 C361 0.930 1_554 S
C365 N366 1.332 . S
C365 C369 1.381 . S
C365 H371 0.931 . S
N366 Cd347 2.334 . S
N366 C365 1.332 . S
N366 C370 1.328 . S
C367 C368 1.396 . S
C367 C370 1.378 . S
C367 H396 0.931 1_556 S
C368 C367 1.396 . S
C368 C369 1.382 . S
C369 C365 1.381 . S
C369 C368 1.382 . S
C369 H397 0.930 . S
C370 N366 1.328 . S
C370 C367 1.378 . S
C370 H372 0.930 1_556 S
H371 C365 0.931 . S
H372 C370 0.930 1_554 S
C373 O384 1.238 . S
C373 O385 1.253 . S
C374 O386 1.239 . S
C374 O387 1.230 . S
N375 Cd346 2.304 . S
N375 C376 1.337 . S
N375 C380 1.338 . S
C376 N375 1.337 . S
C376 C377 1.379 . S
C376 H390 0.929 . S
C377 C376 1.379 . S
C377 C378 1.380 . S
C377 H398 0.929 . S
C378 C377 1.380 . S
C378 C379 1.399 . S
C379 C378 1.399 . S
C379 C380 1.376 . S
C379 H399 0.931 . S
C380 N375 1.338 . S
C380 C379 1.376 . S
C380 H391 0.930 . S
C381 O388 1.239 . S
C381 O389 1.230 . S
O382 Cd346 2.268 1_556 S
O382 C356 1.238 . S
O383 Cd347 2.273 . S
O383 C356 1.253 . S
O384 Cd347 2.268 1_554 S
O384 C373 1.238 . S
O385 Cd346 2.273 . S
O385 C373 1.253 . S
O386 Cd346 2.417 . S
O386 C374 1.239 . S
O387 Cd346 2.330 . S
O387 C374 1.230 . S
O388 Cd347 2.417 . S
O388 C381 1.239 . S
O389 Cd347 2.330 . S
O389 C381 1.230 . S
H390 C376 0.929 . S
H391 C380 0.930 . S
H392 C350 0.931 . S
H393 C352 0.930 . S
H394 C358 0.929 . S
H395 C360 0.931 1_554 S
H396 C367 0.931 1_554 S
H397 C369 0.930 . S
H398 C377 0.929 . S
H399 C379 0.931 . S
Cd400 N403 2.334 1_655 S
Cd400 N429 2.304 . S
Cd400 O436 2.268 . S
Cd400 O439 2.273 1_655 S
Cd400 O440 2.417 . S
Cd400 O441 2.330 . S
Cd401 N416 2.304 1_455 S
Cd401 N420 2.334 . S
Cd401 O437 2.273 1_455 S
Cd401 O438 2.268 . S
Cd401 O442 2.417 . S
Cd401 O443 2.330 . S
C402 N403 1.332 . S
C402 C406 1.381 . S
C402 H408 0.931 . S
N403 Cd400 2.334 1_455 S
N403 C402 1.332 . S
N403 C407 1.328 . S
C404 C405 1.396 . S
C404 C407 1.378 . S
C404 H446 0.931 . S
C405 C404 1.396 . S
C405 C406 1.382 . S
C406 C402 1.381 . S
C406 C405 1.382 . S
C406 H447 0.930 . S
C407 N403 1.328 . S
C407 C404 1.378 . S
C407 H409 0.930 . S
H408 C402 0.931 . S
H409 C407 0.930 . S
C410 O436 1.238 . S
C410 O437 1.253 . S
C411 C412 1.379 . S
C411 N416 1.337 . S
C411 H417 0.929 . S
C412 C411 1.379 . S
C412 C413 1.380 . S
C412 H448 0.929 . S
C413 C412 1.380 . S
C413 C414 1.399 . S
C414 C413 1.399 . S
C414 C415 1.376 . S
C414 H449 0.931 . S
C415 C414 1.376 . S
C415 N416 1.338 . S
C415 H418 0.930 1_655 S
N416 Cd401 2.304 1_655 S
N416 C411 1.337 . S
N416 C415 1.338 . S
H417 C411 0.929 . S
H418 C415 0.930 1_455 S
C419 N420 1.332 . S
C419 C423 1.381 . S
C419 H425 0.931 . S
N420 Cd401 2.334 . S
N420 C419 1.332 . S
N420 C424 1.328 . S
C421 C422 1.396 . S
C421 C424 1.378 . S
C421 H450 0.931 . S
C422 C421 1.396 . S
C422 C423 1.382 . S
C423 C419 1.381 . S
C423 C422 1.382 . S
C423 H451 0.930 . S
C424 N420 1.328 . S
C424 C421 1.378 . S
C424 H426 0.930 . S
H425 C419 0.931 . S
H426 C424 0.930 . S
C427 O438 1.238 . S
C427 O439 1.253 . S
C428 O440 1.239 . S
C428 O441 1.230 . S
N429 Cd400 2.304 . S
N429 C430 1.337 . S
N429 C434 1.338 . S
C430 N429 1.337 . S
C430 C431 1.379 . S
C430 H444 0.929 . S
C431 C430 1.379 . S
C431 C432 1.380 . S
C431 H452 0.929 . S
C432 C431 1.380 . S
C432 C433 1.399 . S
C433 C432 1.399 . S
C433 C434 1.376 . S
C433 H453 0.931 . S
C434 N429 1.338 . S
C434 C433 1.376 . S
C434 H445 0.930 . S
C435 O442 1.239 . S
C435 O443 1.230 . S
O436 Cd400 2.268 . S
O436 C410 1.238 . S
O437 Cd401 2.273 1_655 S
O437 C410 1.253 . S
O438 Cd401 2.268 . S
O438 C427 1.238 . S
O439 Cd400 2.273 1_455 S
O439 C427 1.253 . S
O440 Cd400 2.417 . S
O440 C428 1.239 . S
O441 Cd400 2.330 . S
O441 C428 1.230 . S
O442 Cd401 2.417 . S
O442 C435 1.239 . S
O443 Cd401 2.330 . S
O443 C435 1.230 . S
H444 C430 0.929 . S
H445 C434 0.930 . S
H446 C404 0.931 . S
H447 C406 0.930 . S
H448 C412 0.929 . S
H449 C414 0.931 . S
H450 C421 0.931 . S
H451 C423 0.930 . S
H452 C431 0.929 . S
H453 C433 0.931 . S
Cd454 N457 2.334 . S
Cd454 N483 2.304 1_565 S
Cd454 O490 2.268 . S
Cd454 O493 2.273 1_565 S
Cd454 O494 2.417 . S
Cd454 O495 2.330 . S
Cd455 N470 2.304 . S
Cd455 N474 2.334 1_545 S
Cd455 O491 2.273 1_545 S
Cd455 O492 2.268 . S
Cd455 O496 2.417 . S
Cd455 O497 2.330 . S
C456 N457 1.332 . S
C456 C460 1.381 . S
C456 H462 0.931 . S
N457 Cd454 2.334 . S
N457 C456 1.332 . S
N457 C461 1.328 . S
C458 C459 1.396 . S
C458 C461 1.378 . S
C458 H500 0.931 . S
C459 C458 1.396 . S
C459 C460 1.382 . S
C460 C456 1.381 . S
C460 C459 1.382 . S
C460 H501 0.930 . S
C461 N457 1.328 . S
C461 C458 1.378 . S
C461 H463 0.930 . S
H462 C456 0.931 . S
H463 C461 0.930 . S
C464 O490 1.238 . S
C464 O491 1.253 . S
C465 C466 1.379 . S
C465 N470 1.337 . S
C465 H471 0.929 . S
C466 C465 1.379 . S
C466 C467 1.380 . S
C466 H502 0.929 . S
C467 C466 1.380 . S
C467 C468 1.399 . S
C468 C467 1.399 . S
C468 C469 1.376 . S
C468 H503 0.931 . S
C469 C468 1.376 . S
C469 N470 1.338 . S
C469 H472 0.930 . S
N470 Cd455 2.304 . S
N470 C465 1.337 . S
N470 C469 1.338 . S
H471 C465 0.929 . S
H472 C469 0.930 . S
C473 N474 1.332 . S
C473 C477 1.381 . S
C473 H479 0.931 . S
N474 Cd455 2.334 1_565 S
N474 C473 1.332 . S
N474 C478 1.328 . S
C475 C476 1.396 . S
C475 C478 1.378 . S
C475 H504 0.931 . S
C476 C475 1.396 . S
C476 C477 1.382 . S
C477 C473 1.381 . S
C477 C476 1.382 . S
C477 H505 0.930 . S
C478 N474 1.328 . S
C478 C475 1.378 . S
C478 H480 0.930 1_565 S
H479 C473 0.931 . S
H480 C478 0.930 1_545 S
C481 O492 1.238 . S
C481 O493 1.253 . S
C482 O494 1.239 . S
C482 O495 1.230 . S
N483 Cd454 2.304 1_545 S
N483 C484 1.337 . S
N483 C488 1.338 . S
C484 N483 1.337 . S
C484 C485 1.379 . S
C484 H498 0.929 . S
C485 C484 1.379 . S
C485 C486 1.380 . S
C485 H506 0.929 . S
C486 C485 1.380 . S
C486 C487 1.399 . S
C487 C486 1.399 . S
C487 C488 1.376 . S
C487 H507 0.931 . S
C488 N483 1.338 . S
C488 C487 1.376 . S
C488 H499 0.930 . S
C489 O496 1.239 . S
C489 O497 1.230 . S
O490 Cd454 2.268 . S
O490 C464 1.238 . S
O491 Cd455 2.273 1_565 S
O491 C464 1.253 . S
O492 Cd455 2.268 . S
O492 C481 1.238 . S
O493 Cd454 2.273 1_545 S
O493 C481 1.253 . S
O494 Cd454 2.417 . S
O494 C482 1.239 . S
O495 Cd454 2.330 . S
O495 C482 1.230 . S
O496 Cd455 2.417 . S
O496 C489 1.239 . S
O497 Cd455 2.330 . S
O497 C489 1.230 . S
H498 C484 0.929 . S
H499 C488 0.930 . S
H500 C458 0.931 . S
H501 C460 0.930 . S
H502 C466 0.929 . S
H503 C468 0.931 . S
H504 C475 0.931 . S
H505 C477 0.930 . S
H506 C485 0.929 . S
H507 C487 0.931 . S
H508 C516 0.950 . S
H509 C521 0.950 . S
H510 C518 0.950 . S
H511 C520 0.950 . S
H512 C522 0.950 . S
H513 C524 0.950 . S
H514 C526 0.950 . S
H515 C527 0.950 . S
C516 H508 0.950 . S
C516 C517 1.386 . S
C516 C518 1.391 . S
C517 C516 1.386 . S
C517 C521 1.393 . S
C518 H510 0.950 . S
C518 C516 1.391 . S
C518 C519 1.400 . S
C519 C518 1.400 . S
C519 C520 1.398 . S
C519 C525 1.491 . S
C520 H511 0.950 . S
C520 C519 1.398 . S
C520 C521 1.391 . S
C521 H509 0.950 . S
C521 C517 1.393 . S
C521 C520 1.391 . S
C522 H512 0.950 . S
C522 C523 1.386 . S
C522 C524 1.391 . S
C523 C522 1.386 . S
C523 C527 1.393 . S
C524 H513 0.950 . S
C524 C522 1.391 . S
C524 C525 1.400 . S
C525 C519 1.491 . S
C525 C524 1.400 . S
C525 C526 1.398 . S
C526 H514 0.950 . S
C526 C525 1.398 . S
C526 C527 1.391 . S
C527 H515 0.950 . S
C527 C523 1.393 . S
C527 C526 1.391 . S
H528 C536 0.950 . S
H529 C541 0.950 . S
H530 C538 0.950 . S
H531 C540 0.950 . S
H532 C542 0.950 . S
H533 C544 0.950 . S
H534 C546 0.950 . S
H535 C547 0.950 . S
C536 H528 0.950 . S
C536 C537 1.386 . S
C536 C538 1.391 . S
C537 C536 1.386 . S
C537 C541 1.393 . S
C538 H530 0.950 . S
C538 C536 1.391 . S
C538 C539 1.400 . S
C539 C538 1.400 . S
C539 C540 1.398 . S
C539 C545 1.491 . S
C540 H531 0.950 . S
C540 C539 1.398 . S
C540 C541 1.391 . S
C541 H529 0.950 . S
C541 C537 1.393 . S
C541 C540 1.391 . S
C542 H532 0.950 . S
C542 C543 1.386 . S
C542 C544 1.391 . S
C543 C542 1.386 . S
C543 C547 1.393 . S
C544 H533 0.950 . S
C544 C542 1.391 . S
C544 C545 1.400 . S
C545 C539 1.491 . S
C545 C544 1.400 . S
C545 C546 1.398 . S
C546 H534 0.950 . S
C546 C545 1.398 . S
C546 C547 1.391 . S
C547 H535 0.950 . S
C547 C543 1.393 . S
C547 C546 1.391 . S
H548 C556 0.950 . S
H549 C561 0.950 . S
H550 C558 0.950 . S
H551 C560 0.950 . S
H552 C562 0.950 . S
H553 C564 0.950 . S
H554 C566 0.950 . S
H555 C567 0.950 . S
C556 H548 0.950 . S
C556 C557 1.386 . S
C556 C558 1.391 . S
C557 C556 1.386 . S
C557 C561 1.393 . S
C558 H550 0.950 . S
C558 C556 1.391 . S
C558 C559 1.400 . S
C559 C558 1.400 . S
C559 C560 1.398 . S
C559 C565 1.491 . S
C560 H551 0.950 . S
C560 C559 1.398 . S
C560 C561 1.391 . S
C561 H549 0.950 . S
C561 C557 1.393 . S
C561 C560 1.391 . S
C562 H552 0.950 . S
C562 C563 1.386 . S
C562 C564 1.391 . S
C563 C562 1.386 . S
C563 C567 1.393 . S
C564 H553 0.950 . S
C564 C562 1.391 . S
C564 C565 1.400 . S
C565 C559 1.491 . S
C565 C564 1.400 . S
C565 C566 1.398 . S
C566 H554 0.950 . S
C566 C565 1.398 . S
C566 C567 1.391 . S
C567 H555 0.950 . S
C567 C563 1.393 . S
C567 C566 1.391 . S
H568 C576 0.950 . S
H569 C581 0.950 . S
H570 C578 0.950 . S
H571 C580 0.950 . S
H572 C582 0.950 . S
H573 C584 0.950 . S
H574 C586 0.950 . S
H575 C587 0.950 . S
C576 H568 0.950 . S
C576 C577 1.386 . S
C576 C578 1.391 . S
C577 C576 1.386 . S
C577 C581 1.393 . S
C578 H570 0.950 . S
C578 C576 1.391 . S
C578 C579 1.400 . S
C579 C578 1.400 . S
C579 C580 1.398 . S
C579 C585 1.491 . S
C580 H571 0.950 . S
C580 C579 1.398 . S
C580 C581 1.391 . S
C581 H569 0.950 . S
C581 C577 1.393 . S
C581 C580 1.391 . S
C582 H572 0.950 . S
C582 C583 1.386 . S
C582 C584 1.391 . S
C583 C582 1.386 . S
C583 C587 1.393 . S
C584 H573 0.950 . S
C584 C582 1.391 . S
C584 C585 1.400 . S
C585 C579 1.491 . S
C585 C584 1.400 . S
C585 C586 1.398 . S
C586 H574 0.950 . S
C586 C585 1.398 . S
C586 C587 1.391 . S
C587 H575 0.950 . S
C587 C583 1.393 . S
C587 C586 1.391 . S
H588 C596 0.950 . S
H589 C601 0.950 . S
H590 C598 0.950 . S
H591 C600 0.950 . S
H592 C602 0.950 . S
H593 C604 0.950 . S
H594 C606 0.950 . S
H595 C607 0.950 . S
C596 H588 0.950 . S
C596 C597 1.386 . S
C596 C598 1.391 . S
C597 C596 1.386 . S
C597 C601 1.393 . S
C598 H590 0.950 . S
C598 C596 1.391 . S
C598 C599 1.400 . S
C599 C598 1.400 . S
C599 C600 1.398 . S
C599 C605 1.491 . S
C600 H591 0.950 . S
C600 C599 1.398 . S
C600 C601 1.391 . S
C601 H589 0.950 . S
C601 C597 1.393 . S
C601 C600 1.391 . S
C602 H592 0.950 . S
C602 C603 1.386 . S
C602 C604 1.391 . S
C603 C602 1.386 . S
C603 C607 1.393 . S
C604 H593 0.950 . S
C604 C602 1.391 . S
C604 C605 1.400 . S
C605 C599 1.491 . S
C605 C604 1.400 . S
C605 C606 1.398 . S
C606 H594 0.950 . S
C606 C605 1.398 . S
C606 C607 1.391 . S
C607 H595 0.950 . S
C607 C603 1.393 . S
C607 C606 1.391 . S
H608 C616 0.950 . S
H609 C621 0.950 . S
H610 C618 0.950 . S
H611 C620 0.950 . S
H612 C622 0.950 . S
H613 C624 0.950 . S
H614 C626 0.950 . S
H615 C627 0.950 . S
C616 H608 0.950 . S
C616 C617 1.386 . S
C616 C618 1.391 . S
C617 C616 1.386 . S
C617 C621 1.393 . S
C618 H610 0.950 . S
C618 C616 1.391 . S
C618 C619 1.400 . S
C619 C618 1.400 . S
C619 C620 1.398 . S
C619 C625 1.491 . S
C620 H611 0.950 . S
C620 C619 1.398 . S
C620 C621 1.391 . S
C621 H609 0.950 . S
C621 C617 1.393 . S
C621 C620 1.391 . S
C622 H612 0.950 . S
C622 C623 1.386 . S
C622 C624 1.391 . S
C623 C622 1.386 . S
C623 C627 1.393 . S
C624 H613 0.950 . S
C624 C622 1.391 . S
C624 C625 1.400 . S
C625 C619 1.491 . S
C625 C624 1.400 . S
C625 C626 1.398 . S
C626 H614 0.950 . S
C626 C625 1.398 . S
C626 C627 1.391 . S
C627 H615 0.950 . S
C627 C623 1.393 . S
C627 C626 1.391 . S
H628 C636 0.950 . S
H629 C641 0.950 . S
H630 C638 0.950 . S
H631 C640 0.950 . S
H632 C642 0.950 . S
H633 C644 0.950 . S
H634 C646 0.950 . S
H635 C647 0.950 . S
C636 H628 0.950 . S
C636 C637 1.386 . S
C636 C638 1.391 . S
C637 C636 1.386 . S
C637 C641 1.393 . S
C638 H630 0.950 . S
C638 C636 1.391 . S
C638 C639 1.400 . S
C639 C638 1.400 . S
C639 C640 1.398 . S
C639 C645 1.491 . S
C640 H631 0.950 . S
C640 C639 1.398 . S
C640 C641 1.391 . S
C641 H629 0.950 . S
C641 C637 1.393 . S
C641 C640 1.391 . S
C642 H632 0.950 . S
C642 C643 1.386 . S
C642 C644 1.391 . S
C643 C642 1.386 . S
C643 C647 1.393 . S
C644 H633 0.950 . S
C644 C642 1.391 . S
C644 C645 1.400 . S
C645 C639 1.491 . S
C645 C644 1.400 . S
C645 C646 1.398 . S
C646 H634 0.950 . S
C646 C645 1.398 . S
C646 C647 1.391 . S
C647 H635 0.950 . S
C647 C643 1.393 . S
C647 C646 1.391 . S
H648 C656 0.950 . S
H649 C661 0.950 . S
H650 C658 0.950 . S
H651 C660 0.950 . S
H652 C662 0.950 . S
H653 C664 0.950 . S
H654 C666 0.950 . S
H655 C667 0.950 . S
C656 H648 0.950 . S
C656 C657 1.386 . S
C656 C658 1.391 . S
C657 C656 1.386 . S
C657 C661 1.393 . S
C658 H650 0.950 . S
C658 C656 1.391 . S
C658 C659 1.400 . S
C659 C658 1.400 . S
C659 C660 1.398 . S
C659 C665 1.491 . S
C660 H651 0.950 . S
C660 C659 1.398 . S
C660 C661 1.391 . S
C661 H649 0.950 . S
C661 C657 1.393 . S
C661 C660 1.391 . S
C662 H652 0.950 . S
C662 C663 1.386 . S
C662 C664 1.391 . S
C663 C662 1.386 . S
C663 C667 1.393 . S
C664 H653 0.950 . S
C664 C662 1.391 . S
C664 C665 1.400 . S
C665 C659 1.491 . S
C665 C664 1.400 . S
C665 C666 1.398 . S
C666 H654 0.950 . S
C666 C665 1.398 . S
C666 C667 1.391 . S
C667 H655 0.950 . S
C667 C663 1.393 . S
C667 C666 1.391 . S
H668 C676 0.950 . S
H669 C681 0.950 . S
H670 C678 0.950 . S
H671 C680 0.950 . S
H672 C682 0.950 . S
H673 C684 0.950 . S
H674 C686 0.950 . S
H675 C687 0.950 . S
C676 H668 0.950 . S
C676 C677 1.386 . S
C676 C678 1.391 . S
C677 C676 1.386 . S
C677 C681 1.393 . S
C678 H670 0.950 . S
C678 C676 1.391 . S
C678 C679 1.400 . S
C679 C678 1.400 . S
C679 C680 1.398 . S
C679 C685 1.491 . S
C680 H671 0.950 . S
C680 C679 1.398 . S
C680 C681 1.391 . S
C681 H669 0.950 . S
C681 C677 1.393 . S
C681 C680 1.391 . S
C682 H672 0.950 . S
C682 C683 1.386 . S
C682 C684 1.391 . S
C683 C682 1.386 . S
C683 C687 1.393 . S
C684 H673 0.950 . S
C684 C682 1.391 . S
C684 C685 1.400 . S
C685 C679 1.491 . S
C685 C684 1.400 . S
C685 C686 1.398 . S
C686 H674 0.950 . S
C686 C685 1.398 . S
C686 C687 1.391 . S
C687 H675 0.950 . S
C687 C683 1.393 . S
C687 C686 1.391 . S
H688 C696 0.950 . S
H689 C701 0.950 . S
H690 C698 0.950 . S
H691 C700 0.950 . S
H692 C702 0.950 . S
H693 C704 0.950 . S
H694 C706 0.950 . S
H695 C707 0.950 . S
C696 H688 0.950 . S
C696 C697 1.386 . S
C696 C698 1.391 . S
C697 C696 1.386 . S
C697 C701 1.393 . S
C698 H690 0.950 . S
C698 C696 1.391 . S
C698 C699 1.400 . S
C699 C698 1.400 . S
C699 C700 1.398 . S
C699 C705 1.491 . S
C700 H691 0.950 . S
C700 C699 1.398 . S
C700 C701 1.391 . S
C701 H689 0.950 . S
C701 C697 1.393 . S
C701 C700 1.391 . S
C702 H692 0.950 . S
C702 C703 1.386 . S
C702 C704 1.391 . S
C703 C702 1.386 . S
C703 C707 1.393 . S
C704 H693 0.950 . S
C704 C702 1.391 . S
C704 C705 1.400 . S
C705 C699 1.491 . S
C705 C704 1.400 . S
C705 C706 1.398 . S
C706 H694 0.950 . S
C706 C705 1.398 . S
C706 C707 1.391 . S
C707 H695 0.950 . S
C707 C703 1.393 . S
C707 C706 1.391 . S
H708 C716 0.950 . S
H709 C721 0.950 . S
H710 C718 0.950 . S
H711 C720 0.950 . S
H712 C722 0.950 . S
H713 C724 0.950 . S
H714 C726 0.950 . S
H715 C727 0.950 . S
C716 H708 0.950 . S
C716 C717 1.386 . S
C716 C718 1.391 . S
C717 C716 1.386 . S
C717 C721 1.393 . S
C718 H710 0.950 . S
C718 C716 1.391 . S
C718 C719 1.400 . S
C719 C718 1.400 . S
C719 C720 1.398 . S
C719 C725 1.491 . S
C720 H711 0.950 . S
C720 C719 1.398 . S
C720 C721 1.391 . S
C721 H709 0.950 . S
C721 C717 1.393 . S
C721 C720 1.391 . S
C722 H712 0.950 . S
C722 C723 1.386 . S
C722 C724 1.391 . S
C723 C722 1.386 . S
C723 C727 1.393 . S
C724 H713 0.950 . S
C724 C722 1.391 . S
C724 C725 1.400 . S
C725 C719 1.491 . S
C725 C724 1.400 . S
C725 C726 1.398 . S
C726 H714 0.950 . S
C726 C725 1.398 . S
C726 C727 1.391 . S
C727 H715 0.950 . S
C727 C723 1.393 . S
C727 C726 1.391 . S
H728 C736 0.950 . S
H729 C741 0.950 . S
H730 C738 0.950 . S
H731 C740 0.950 . S
H732 C742 0.950 . S
H733 C744 0.950 . S
H734 C746 0.950 . S
H735 C747 0.950 . S
C736 H728 0.950 . S
C736 C737 1.386 . S
C736 C738 1.391 . S
C737 C736 1.386 . S
C737 C741 1.393 . S
C738 H730 0.950 . S
C738 C736 1.391 . S
C738 C739 1.400 . S
C739 C738 1.400 . S
C739 C740 1.398 . S
C739 C745 1.491 . S
C740 H731 0.950 . S
C740 C739 1.398 . S
C740 C741 1.391 . S
C741 H729 0.950 . S
C741 C737 1.393 . S
C741 C740 1.391 . S
C742 H732 0.950 . S
C742 C743 1.386 . S
C742 C744 1.391 . S
C743 C742 1.386 . S
C743 C747 1.393 . S
C744 H733 0.950 . S
C744 C742 1.391 . S
C744 C745 1.400 . S
C745 C739 1.491 . S
C745 C744 1.400 . S
C745 C746 1.398 . S
C746 H734 0.950 . S
C746 C745 1.398 . S
C746 C747 1.391 . S
C747 H735 0.950 . S
C747 C743 1.393 . S
C747 C746 1.391 . S
H748 C756 0.950 . S
H749 C761 0.950 . S
H750 C758 0.950 . S
H751 C760 0.950 . S
H752 C762 0.950 . S
H753 C764 0.950 . S
H754 C766 0.950 . S
H755 C767 0.950 . S
C756 H748 0.950 . S
C756 C757 1.386 . S
C756 C758 1.391 . S
C757 C756 1.386 . S
C757 C761 1.393 . S
C758 H750 0.950 . S
C758 C756 1.391 . S
C758 C759 1.400 . S
C759 C758 1.400 . S
C759 C760 1.398 . S
C759 C765 1.491 . S
C760 H751 0.950 . S
C760 C759 1.398 . S
C760 C761 1.391 . S
C761 H749 0.950 . S
C761 C757 1.393 . S
C761 C760 1.391 . S
C762 H752 0.950 . S
C762 C763 1.386 . S
C762 C764 1.391 . S
C763 C762 1.386 . S
C763 C767 1.393 . S
C764 H753 0.950 . S
C764 C762 1.391 . S
C764 C765 1.400 . S
C765 C759 1.491 . S
C765 C764 1.400 . S
C765 C766 1.398 . S
C766 H754 0.950 . S
C766 C765 1.398 . S
C766 C767 1.391 . S
C767 H755 0.950 . S
C767 C763 1.393 . S
C767 C766 1.391 . S
H768 C776 0.950 . S
H769 C781 0.950 . S
H770 C778 0.950 . S
H771 C780 0.950 . S
H772 C782 0.950 . S
H773 C784 0.950 . S
H774 C786 0.950 . S
H775 C787 0.950 . S
C776 H768 0.950 . S
C776 C777 1.386 . S
C776 C778 1.391 . S
C777 C776 1.386 . S
C777 C781 1.393 . S
C778 H770 0.950 . S
C778 C776 1.391 . S
C778 C779 1.400 . S
C779 C778 1.400 . S
C779 C780 1.398 . S
C779 C785 1.491 . S
C780 H771 0.950 . S
C780 C779 1.398 . S
C780 C781 1.391 . S
C781 H769 0.950 . S
C781 C777 1.393 . S
C781 C780 1.391 . S
C782 H772 0.950 . S
C782 C783 1.386 . S
C782 C784 1.391 . S
C783 C782 1.386 . S
C783 C787 1.393 . S
C784 H773 0.950 . S
C784 C782 1.391 . S
C784 C785 1.400 . S
C785 C779 1.491 . S
C785 C784 1.400 . S
C785 C786 1.398 . S
C786 H774 0.950 . S
C786 C785 1.398 . S
C786 C787 1.391 . S
C787 H775 0.950 . S
C787 C783 1.393 . S
C787 C786 1.391 . S
H788 C796 0.950 . S
H789 C801 0.950 . S
H790 C798 0.950 . S
H791 C800 0.950 . S
H792 C802 0.950 . S
H793 C804 0.950 . S
H794 C806 0.950 . S
H795 C807 0.950 . S
C796 H788 0.950 . S
C796 C797 1.386 . S
C796 C798 1.391 . S
C797 C796 1.386 . S
C797 C801 1.393 . S
C798 H790 0.950 . S
C798 C796 1.391 . S
C798 C799 1.400 . S
C799 C798 1.400 . S
C799 C800 1.398 . S
C799 C805 1.491 . S
C800 H791 0.950 . S
C800 C799 1.398 . S
C800 C801 1.391 . S
C801 H789 0.950 . S
C801 C797 1.393 . S
C801 C800 1.391 . S
C802 H792 0.950 . S
C802 C803 1.386 . S
C802 C804 1.391 . S
C803 C802 1.386 . S
C803 C807 1.393 . S
C804 H793 0.950 . S
C804 C802 1.391 . S
C804 C805 1.400 . S
C805 C799 1.491 . S
C805 C804 1.400 . S
C805 C806 1.398 . S
C806 H794 0.950 . S
C806 C805 1.398 . S
C806 C807 1.391 . S
C807 H795 0.950 . S
C807 C803 1.393 . S
C807 C806 1.391 . S
H808 C816 0.950 . S
H809 C821 0.950 . S
H810 C818 0.950 . S
H811 C820 0.950 . S
H812 C822 0.950 . S
H813 C824 0.950 . S
H814 C826 0.950 . S
H815 C827 0.950 . S
C816 H808 0.950 . S
C816 C817 1.386 . S
C816 C818 1.391 . S
C817 C816 1.386 . S
C817 C821 1.393 . S
C818 H810 0.950 . S
C818 C816 1.391 . S
C818 C819 1.400 . S
C819 C818 1.400 . S
C819 C820 1.398 . S
C819 C825 1.491 . S
C820 H811 0.950 . S
C820 C819 1.398 . S
C820 C821 1.391 . S
C821 H809 0.950 . S
C821 C817 1.393 . S
C821 C820 1.391 . S
C822 H812 0.950 . S
C822 C823 1.386 . S
C822 C824 1.391 . S
C823 C822 1.386 . S
C823 C827 1.393 . S
C824 H813 0.950 . S
C824 C822 1.391 . S
C824 C825 1.400 . S
C825 C819 1.491 . S
C825 C824 1.400 . S
C825 C826 1.398 . S
C826 H814 0.950 . S
C826 C825 1.398 . S
C826 C827 1.391 . S
C827 H815 0.950 . S
C827 C823 1.393 . S
C827 C826 1.391 . S
H828 C836 0.950 . S
H829 C841 0.950 . S
H830 C838 0.950 . S
H831 C840 0.950 . S
H832 C842 0.950 . S
H833 C844 0.950 . S
H834 C846 0.950 . S
H835 C847 0.950 . S
C836 H828 0.950 . S
C836 C837 1.386 . S
C836 C838 1.391 . S
C837 C836 1.386 . S
C837 C841 1.393 . S
C838 H830 0.950 . S
C838 C836 1.391 . S
C838 C839 1.400 . S
C839 C838 1.400 . S
C839 C840 1.398 . S
C839 C845 1.491 . S
C840 H831 0.950 . S
C840 C839 1.398 . S
C840 C841 1.391 . S
C841 H829 0.950 . S
C841 C837 1.393 . S
C841 C840 1.391 . S
C842 H832 0.950 . S
C842 C843 1.386 . S
C842 C844 1.391 . S
C843 C842 1.386 . S
C843 C847 1.393 . S
C844 H833 0.950 . S
C844 C842 1.391 . S
C844 C845 1.400 . S
C845 C839 1.491 . S
C845 C844 1.400 . S
C845 C846 1.398 . S
C846 H834 0.950 . S
C846 C845 1.398 . S
C846 C847 1.391 . S
C847 H835 0.950 . S
C847 C843 1.393 . S
C847 C846 1.391 . S
H848 C856 0.950 . S
H849 C861 0.950 . S
H850 C858 0.950 . S
H851 C860 0.950 . S
H852 C862 0.950 . S
H853 C864 0.950 . S
H854 C866 0.950 . S
H855 C867 0.950 . S
C856 H848 0.950 . S
C856 C857 1.386 . S
C856 C858 1.391 . S
C857 C856 1.386 . S
C857 C861 1.393 . S
C858 H850 0.950 . S
C858 C856 1.391 . S
C858 C859 1.400 . S
C859 C858 1.400 . S
C859 C860 1.398 . S
C859 C865 1.491 . S
C860 H851 0.950 . S
C860 C859 1.398 . S
C860 C861 1.391 . S
C861 H849 0.950 . S
C861 C857 1.393 . S
C861 C860 1.391 . S
C862 H852 0.950 . S
C862 C863 1.386 . S
C862 C864 1.391 . S
C863 C862 1.386 . S
C863 C867 1.393 . S
C864 H853 0.950 . S
C864 C862 1.391 . S
C864 C865 1.400 . S
C865 C859 1.491 . S
C865 C864 1.400 . S
C865 C866 1.398 . S
C866 H854 0.950 . S
C866 C865 1.398 . S
C866 C867 1.391 . S
C867 H855 0.950 . S
C867 C863 1.393 . S
C867 C866 1.391 . S
H868 C876 0.950 . S
H869 C881 0.950 . S
H870 C878 0.950 . S
H871 C880 0.950 . S
H872 C882 0.950 . S
H873 C884 0.950 . S
H874 C886 0.950 . S
H875 C887 0.950 . S
C876 H868 0.950 . S
C876 C877 1.386 . S
C876 C878 1.391 . S
C877 C876 1.386 . S
C877 C881 1.393 . S
C878 H870 0.950 . S
C878 C876 1.391 . S
C878 C879 1.400 . S
C879 C878 1.400 . S
C879 C880 1.398 . S
C879 C885 1.491 . S
C880 H871 0.950 . S
C880 C879 1.398 . S
C880 C881 1.391 . S
C881 H869 0.950 . S
C881 C877 1.393 . S
C881 C880 1.391 . S
C882 H872 0.950 . S
C882 C883 1.386 . S
C882 C884 1.391 . S
C883 C882 1.386 . S
C883 C887 1.393 . S
C884 H873 0.950 . S
C884 C882 1.391 . S
C884 C885 1.400 . S
C885 C879 1.491 . S
C885 C884 1.400 . S
C885 C886 1.398 . S
C886 H874 0.950 . S
C886 C885 1.398 . S
C886 C887 1.391 . S
C887 H875 0.950 . S
C887 C883 1.393 . S
C887 C886 1.391 . S
H888 C896 0.950 . S
H889 C901 0.950 . S
H890 C898 0.950 . S
H891 C900 0.950 . S
H892 C902 0.950 . S
H893 C904 0.950 . S
H894 C906 0.950 . S
H895 C907 0.950 . S
C896 H888 0.950 . S
C896 C897 1.386 . S
C896 C898 1.391 . S
C897 C896 1.386 . S
C897 C901 1.393 . S
C898 H890 0.950 . S
C898 C896 1.391 . S
C898 C899 1.400 . S
C899 C898 1.400 . S
C899 C900 1.398 . S
C899 C905 1.491 . S
C900 H891 0.950 . S
C900 C899 1.398 . S
C900 C901 1.391 . S
C901 H889 0.950 . S
C901 C897 1.393 . S
C901 C900 1.391 . S
C902 H892 0.950 . S
C902 C903 1.386 . S
C902 C904 1.391 . S
C903 C902 1.386 . S
C903 C907 1.393 . S
C904 H893 0.950 . S
C904 C902 1.391 . S
C904 C905 1.400 . S
C905 C899 1.491 . S
C905 C904 1.400 . S
C905 C906 1.398 . S
C906 H894 0.950 . S
C906 C905 1.398 . S
C906 C907 1.391 . S
C907 H895 0.950 . S
C907 C903 1.393 . S
C907 C906 1.391 . S
H908 C916 0.950 . S
H909 C921 0.950 . S
H910 C918 0.950 . S
H911 C920 0.950 . S
H912 C922 0.950 . S
H913 C924 0.950 . S
H914 C926 0.950 . S
H915 C927 0.950 1_554 S
C916 H908 0.950 . S
C916 C917 1.386 . S
C916 C918 1.391 . S
C917 C916 1.386 . S
C917 C921 1.393 . S
C918 H910 0.950 . S
C918 C916 1.391 . S
C918 C919 1.400 . S
C919 C918 1.400 . S
C919 C920 1.398 . S
C919 C925 1.491 . S
C920 H911 0.950 . S
C920 C919 1.398 . S
C920 C921 1.391 . S
C921 H909 0.950 . S
C921 C917 1.393 . S
C921 C920 1.391 . S
C922 H912 0.950 . S
C922 C923 1.386 . S
C922 C924 1.391 . S
C923 C922 1.386 . S
C923 C927 1.393 . S
C924 H913 0.950 . S
C924 C922 1.391 . S
C924 C925 1.400 . S
C925 C919 1.491 . S
C925 C924 1.400 . S
C925 C926 1.398 . S
C926 H914 0.950 . S
C926 C925 1.398 . S
C926 C927 1.391 . S
C927 H915 0.950 1_556 S
C927 C923 1.393 . S
C927 C926 1.391 . S
H928 C936 0.950 . S
H929 C941 0.950 . S
H930 C938 0.950 . S
H931 C940 0.950 . S
H932 C942 0.950 . S
H933 C944 0.950 . S
H934 C946 0.950 . S
H935 C947 0.950 . S
C936 H928 0.950 . S
C936 C937 1.386 . S
C936 C938 1.391 . S
C937 C936 1.386 . S
C937 C941 1.393 . S
C938 H930 0.950 . S
C938 C936 1.391 . S
C938 C939 1.400 . S
C939 C938 1.400 . S
C939 C940 1.398 . S
C939 C945 1.491 . S
C940 H931 0.950 . S
C940 C939 1.398 . S
C940 C941 1.391 . S
C941 H929 0.950 . S
C941 C937 1.393 . S
C941 C940 1.391 . S
C942 H932 0.950 . S
C942 C943 1.386 . S
C942 C944 1.391 . S
C943 C942 1.386 . S
C943 C947 1.393 . S
C944 H933 0.950 . S
C944 C942 1.391 . S
C944 C945 1.400 . S
C945 C939 1.491 . S
C945 C944 1.400 . S
C945 C946 1.398 . S
C946 H934 0.950 . S
C946 C945 1.398 . S
C946 C947 1.391 . S
C947 H935 0.950 . S
C947 C943 1.393 . S
C947 C946 1.391 . S
H948 C956 0.950 . S
H949 C961 0.950 . S
H950 C958 0.950 . S
H951 C960 0.950 . S
H952 C962 0.950 . S
H953 C964 0.950 . S
H954 C966 0.950 . S
H955 C967 0.950 . S
C956 H948 0.950 . S
C956 C957 1.386 . S
C956 C958 1.391 . S
C957 C956 1.386 . S
C957 C961 1.393 . S
C958 H950 0.950 . S
C958 C956 1.391 . S
C958 C959 1.400 . S
C959 C958 1.400 . S
C959 C960 1.398 . S
C959 C965 1.491 . S
C960 H951 0.950 . S
C960 C959 1.398 . S
C960 C961 1.391 . S
C961 H949 0.950 . S
C961 C957 1.393 . S
C961 C960 1.391 . S
C962 H952 0.950 . S
C962 C963 1.386 . S
C962 C964 1.391 . S
C963 C962 1.386 . S
C963 C967 1.393 . S
C964 H953 0.950 . S
C964 C962 1.391 . S
C964 C965 1.400 . S
C965 C959 1.491 . S
C965 C964 1.400 . S
C965 C966 1.398 . S
C966 H954 0.950 . S
C966 C965 1.398 . S
C966 C967 1.391 . S
C967 H955 0.950 . S
C967 C963 1.393 . S
C967 C966 1.391 . S
H968 C976 0.950 . S
H969 C981 0.950 . S
H970 C978 0.950 . S
H971 C980 0.950 . S
H972 C982 0.950 . S
H973 C984 0.950 . S
H974 C986 0.950 . S
H975 C987 0.950 . S
C976 H968 0.950 . S
C976 C977 1.386 . S
C976 C978 1.391 . S
C977 C976 1.386 . S
C977 C981 1.393 . S
C978 H970 0.950 . S
C978 C976 1.391 . S
C978 C979 1.400 . S
C979 C978 1.400 . S
C979 C980 1.398 . S
C979 C985 1.491 . S
C980 H971 0.950 . S
C980 C979 1.398 . S
C980 C981 1.391 . S
C981 H969 0.950 . S
C981 C977 1.393 . S
C981 C980 1.391 . S
C982 H972 0.950 . S
C982 C983 1.386 . S
C982 C984 1.391 . S
C983 C982 1.386 . S
C983 C987 1.393 . S
C984 H973 0.950 . S
C984 C982 1.391 . S
C984 C985 1.400 . S
C985 C979 1.491 . S
C985 C984 1.400 . S
C985 C986 1.398 . S
C986 H974 0.950 . S
C986 C985 1.398 . S
C986 C987 1.391 . S
C987 H975 0.950 . S
C987 C983 1.393 . S
C987 C986 1.391 . S
H988 C996 0.950 . S
H989 C1001 0.950 . S
H990 C998 0.950 . S
H991 C1000 0.950 . S
H992 C1002 0.950 . S
H993 C1004 0.950 . S
H994 C1006 0.950 . S
H995 C1007 0.950 . S
C996 H988 0.950 . S
C996 C997 1.386 . S
C996 C998 1.391 . S
C997 C996 1.386 . S
C997 C1001 1.393 . S
C998 H990 0.950 . S
C998 C996 1.391 . S
C998 C999 1.400 . S
C999 C998 1.400 . S
C999 C1000 1.398 . S
C999 C1005 1.491 . S
C1000 H991 0.950 . S
C1000 C999 1.398 . S
C1000 C1001 1.391 . S
C1001 H989 0.950 . S
C1001 C997 1.393 . S
C1001 C1000 1.391 . S
C1002 H992 0.950 . S
C1002 C1003 1.386 . S
C1002 C1004 1.391 . S
C1003 C1002 1.386 . S
C1003 C1007 1.393 . S
C1004 H993 0.950 . S
C1004 C1002 1.391 . S
C1004 C1005 1.400 . S
C1005 C999 1.491 . S
C1005 C1004 1.400 . S
C1005 C1006 1.398 . S
C1006 H994 0.950 . S
C1006 C1005 1.398 . S
C1006 C1007 1.391 . S
C1007 H995 0.950 . S
C1007 C1003 1.393 . S
C1007 C1006 1.391 . S
H1008 C1016 0.950 . S
H1009 C1021 0.950 . S
H1010 C1018 0.950 . S
H1011 C1020 0.950 . S
H1012 C1022 0.950 . S
H1013 C1024 0.950 . S
H1014 C1026 0.950 . S
H1015 C1027 0.950 . S
C1016 H1008 0.950 . S
C1016 C1017 1.386 . S
C1016 C1018 1.391 . S
C1017 C1016 1.386 . S
C1017 C1021 1.393 . S
C1018 H1010 0.950 . S
C1018 C1016 1.391 . S
C1018 C1019 1.400 . S
C1019 C1018 1.400 . S
C1019 C1020 1.398 . S
C1019 C1025 1.491 . S
C1020 H1011 0.950 . S
C1020 C1019 1.398 . S
C1020 C1021 1.391 . S
C1021 H1009 0.950 . S
C1021 C1017 1.393 . S
C1021 C1020 1.391 . S
C1022 H1012 0.950 . S
C1022 C1023 1.386 . S
C1022 C1024 1.391 . S
C1023 C1022 1.386 . S
C1023 C1027 1.393 . S
C1024 H1013 0.950 . S
C1024 C1022 1.391 . S
C1024 C1025 1.400 . S
C1025 C1019 1.491 . S
C1025 C1024 1.400 . S
C1025 C1026 1.398 . S
C1026 H1014 0.950 . S
C1026 C1025 1.398 . S
C1026 C1027 1.391 . S
C1027 H1015 0.950 . S
C1027 C1023 1.393 . S
C1027 C1026 1.391 . S
H1028 C1036 0.950 . S
H1029 C1041 0.950 . S
H1030 C1038 0.950 . S
H1031 C1040 0.950 . S
H1032 C1042 0.950 . S
H1033 C1044 0.950 . S
H1034 C1046 0.950 . S
H1035 C1047 0.950 . S
C1036 H1028 0.950 . S
C1036 C1037 1.386 . S
C1036 C1038 1.391 . S
C1037 C1036 1.386 . S
C1037 C1041 1.393 . S
C1038 H1030 0.950 . S
C1038 C1036 1.391 . S
C1038 C1039 1.400 . S
C1039 C1038 1.400 . S
C1039 C1040 1.398 . S
C1039 C1045 1.491 . S
C1040 H1031 0.950 . S
C1040 C1039 1.398 . S
C1040 C1041 1.391 . S
C1041 H1029 0.950 . S
C1041 C1037 1.393 . S
C1041 C1040 1.391 . S
C1042 H1032 0.950 . S
C1042 C1043 1.386 . S
C1042 C1044 1.391 . S
C1043 C1042 1.386 . S
C1043 C1047 1.393 . S
C1044 H1033 0.950 . S
C1044 C1042 1.391 . S
C1044 C1045 1.400 . S
C1045 C1039 1.491 . S
C1045 C1044 1.400 . S
C1045 C1046 1.398 . S
C1046 H1034 0.950 . S
C1046 C1045 1.398 . S
C1046 C1047 1.391 . S
C1047 H1035 0.950 . S
C1047 C1043 1.393 . S
C1047 C1046 1.391 . S
H1048 C1056 0.950 . S
H1049 C1061 0.950 . S
H1050 C1058 0.950 . S
H1051 C1060 0.950 . S
H1052 C1062 0.950 . S
H1053 C1064 0.950 . S
H1054 C1066 0.950 . S
H1055 C1067 0.950 . S
C1056 H1048 0.950 . S
C1056 C1057 1.386 . S
C1056 C1058 1.391 . S
C1057 C1056 1.386 . S
C1057 C1061 1.393 . S
C1058 H1050 0.950 . S
C1058 C1056 1.391 . S
C1058 C1059 1.400 . S
C1059 C1058 1.400 . S
C1059 C1060 1.398 . S
C1059 C1065 1.491 . S
C1060 H1051 0.950 . S
C1060 C1059 1.398 . S
C1060 C1061 1.391 . S
C1061 H1049 0.950 . S
C1061 C1057 1.393 . S
C1061 C1060 1.391 . S
C1062 H1052 0.950 . S
C1062 C1063 1.386 . S
C1062 C1064 1.391 . S
C1063 C1062 1.386 . S
C1063 C1067 1.393 . S
C1064 H1053 0.950 . S
C1064 C1062 1.391 . S
C1064 C1065 1.400 . S
C1065 C1059 1.491 . S
C1065 C1064 1.400 . S
C1065 C1066 1.398 . S
C1066 H1054 0.950 . S
C1066 C1065 1.398 . S
C1066 C1067 1.391 . S
C1067 H1055 0.950 . S
C1067 C1063 1.393 . S
C1067 C1066 1.391 . S
H1068 C1076 0.950 . S
H1069 C1081 0.950 . S
H1070 C1078 0.950 . S
H1071 C1080 0.950 . S
H1072 C1082 0.950 . S
H1073 C1084 0.950 . S
H1074 C1086 0.950 . S
H1075 C1087 0.950 . S
C1076 H1068 0.950 . S
C1076 C1077 1.386 . S
C1076 C1078 1.391 . S
C1077 C1076 1.386 . S
C1077 C1081 1.393 . S
C1078 H1070 0.950 . S
C1078 C1076 1.391 . S
C1078 C1079 1.400 . S
C1079 C1078 1.400 . S
C1079 C1080 1.398 . S
C1079 C1085 1.491 . S
C1080 H1071 0.950 . S
C1080 C1079 1.398 . S
C1080 C1081 1.391 . S
C1081 H1069 0.950 . S
C1081 C1077 1.393 . S
C1081 C1080 1.391 . S
C1082 H1072 0.950 . S
C1082 C1083 1.386 . S
C1082 C1084 1.391 . S
C1083 C1082 1.386 . S
C1083 C1087 1.393 . S
C1084 H1073 0.950 . S
C1084 C1082 1.391 . S
C1084 C1085 1.400 . S
C1085 C1079 1.491 . S
C1085 C1084 1.400 . S
C1085 C1086 1.398 . S
C1086 H1074 0.950 . S
C1086 C1085 1.398 . S
C1086 C1087 1.391 . S
C1087 H1075 0.950 . S
C1087 C1083 1.393 . S
C1087 C1086 1.391 . S
H1088 C1096 0.950 . S
H1089 C1101 0.950 . S
H1090 C1098 0.950 . S
H1091 C1100 0.950 . S
H1092 C1102 0.950 . S
H1093 C1104 0.950 . S
H1094 C1106 0.950 . S
H1095 C1107 0.950 . S
C1096 H1088 0.950 . S
C1096 C1097 1.386 . S
C1096 C1098 1.391 . S
C1097 C1096 1.386 . S
C1097 C1101 1.393 . S
C1098 H1090 0.950 . S
C1098 C1096 1.391 . S
C1098 C1099 1.400 . S
C1099 C1098 1.400 . S
C1099 C1100 1.398 . S
C1099 C1105 1.491 . S
C1100 H1091 0.950 . S
C1100 C1099 1.398 . S
C1100 C1101 1.391 . S
C1101 H1089 0.950 . S
C1101 C1097 1.393 . S
C1101 C1100 1.391 . S
C1102 H1092 0.950 . S
C1102 C1103 1.386 . S
C1102 C1104 1.391 . S
C1103 C1102 1.386 . S
C1103 C1107 1.393 . S
C1104 H1093 0.950 . S
C1104 C1102 1.391 . S
C1104 C1105 1.400 . S
C1105 C1099 1.491 . S
C1105 C1104 1.400 . S
C1105 C1106 1.398 . S
C1106 H1094 0.950 . S
C1106 C1105 1.398 . S
C1106 C1107 1.391 . S
C1107 H1095 0.950 . S
C1107 C1103 1.393 . S
C1107 C1106 1.391 . S
H1108 C1116 0.950 . S
H1109 C1121 0.950 . S
H1110 C1118 0.950 . S
H1111 C1120 0.950 . S
H1112 C1122 0.950 . S
H1113 C1124 0.950 . S
H1114 C1126 0.950 . S
H1115 C1127 0.950 . S
C1116 H1108 0.950 . S
C1116 C1117 1.386 . S
C1116 C1118 1.391 . S
C1117 C1116 1.386 . S
C1117 C1121 1.393 . S
C1118 H1110 0.950 . S
C1118 C1116 1.391 . S
C1118 C1119 1.400 . S
C1119 C1118 1.400 . S
C1119 C1120 1.398 . S
C1119 C1125 1.491 . S
C1120 H1111 0.950 . S
C1120 C1119 1.398 . S
C1120 C1121 1.391 . S
C1121 H1109 0.950 . S
C1121 C1117 1.393 . S
C1121 C1120 1.391 . S
C1122 H1112 0.950 . S
C1122 C1123 1.386 . S
C1122 C1124 1.391 . S
C1123 C1122 1.386 . S
C1123 C1127 1.393 . S
C1124 H1113 0.950 . S
C1124 C1122 1.391 . S
C1124 C1125 1.400 . S
C1125 C1119 1.491 . S
C1125 C1124 1.400 . S
C1125 C1126 1.398 . S
C1126 H1114 0.950 . S
C1126 C1125 1.398 . S
C1126 C1127 1.391 . S
C1127 H1115 0.950 . S
C1127 C1123 1.393 . S
C1127 C1126 1.391 . S
H1128 C1136 0.950 . S
H1129 C1141 0.950 . S
H1130 C1138 0.950 . S
H1131 C1140 0.950 . S
H1132 C1142 0.950 . S
H1133 C1144 0.950 . S
H1134 C1146 0.950 . S
H1135 C1147 0.950 . S
C1136 H1128 0.950 . S
C1136 C1137 1.386 . S
C1136 C1138 1.391 . S
C1137 C1136 1.386 . S
C1137 C1141 1.393 . S
C1138 H1130 0.950 . S
C1138 C1136 1.391 . S
C1138 C1139 1.400 . S
C1139 C1138 1.400 . S
C1139 C1140 1.398 . S
C1139 C1145 1.491 . S
C1140 H1131 0.950 . S
C1140 C1139 1.398 . S
C1140 C1141 1.391 . S
C1141 H1129 0.950 . S
C1141 C1137 1.393 . S
C1141 C1140 1.391 . S
C1142 H1132 0.950 . S
C1142 C1143 1.386 . S
C1142 C1144 1.391 . S
C1143 C1142 1.386 . S
C1143 C1147 1.393 . S
C1144 H1133 0.950 . S
C1144 C1142 1.391 . S
C1144 C1145 1.400 . S
C1145 C1139 1.491 . S
C1145 C1144 1.400 . S
C1145 C1146 1.398 . S
C1146 H1134 0.950 . S
C1146 C1145 1.398 . S
C1146 C1147 1.391 . S
C1147 H1135 0.950 . S
C1147 C1143 1.393 . S
C1147 C1146 1.391 . S
H1148 C1156 0.950 . S
H1149 C1161 0.950 . S
H1150 C1158 0.950 . S
H1151 C1160 0.950 . S
H1152 C1162 0.950 . S
H1153 C1164 0.950 . S
H1154 C1166 0.950 . S
H1155 C1167 0.950 . S
C1156 H1148 0.950 . S
C1156 C1157 1.386 . S
C1156 C1158 1.391 . S
C1157 C1156 1.386 . S
C1157 C1161 1.393 . S
C1158 H1150 0.950 . S
C1158 C1156 1.391 . S
C1158 C1159 1.400 . S
C1159 C1158 1.400 . S
C1159 C1160 1.398 . S
C1159 C1165 1.491 . S
C1160 H1151 0.950 . S
C1160 C1159 1.398 . S
C1160 C1161 1.391 . S
C1161 H1149 0.950 . S
C1161 C1157 1.393 . S
C1161 C1160 1.391 . S
C1162 H1152 0.950 . S
C1162 C1163 1.386 . S
C1162 C1164 1.391 . S
C1163 C1162 1.386 . S
C1163 C1167 1.393 . S
C1164 H1153 0.950 . S
C1164 C1162 1.391 . S
C1164 C1165 1.400 . S
C1165 C1159 1.491 . S
C1165 C1164 1.400 . S
C1165 C1166 1.398 . S
C1166 H1154 0.950 . S
C1166 C1165 1.398 . S
C1166 C1167 1.391 . S
C1167 H1155 0.950 . S
C1167 C1163 1.393 . S
C1167 C1166 1.391 . S
H1168 C1176 0.950 . S
H1169 C1181 0.950 . S
H1170 C1178 0.950 . S
H1171 C1180 0.950 . S
H1172 C1182 0.950 . S
H1173 C1184 0.950 . S
H1174 C1186 0.950 . S
H1175 C1187 0.950 . S
C1176 H1168 0.950 . S
C1176 C1177 1.386 . S
C1176 C1178 1.391 . S
C1177 C1176 1.386 . S
C1177 C1181 1.393 . S
C1178 H1170 0.950 . S
C1178 C1176 1.391 . S
C1178 C1179 1.400 . S
C1179 C1178 1.400 . S
C1179 C1180 1.398 . S
C1179 C1185 1.491 . S
C1180 H1171 0.950 . S
C1180 C1179 1.398 . S
C1180 C1181 1.391 . S
C1181 H1169 0.950 . S
C1181 C1177 1.393 . S
C1181 C1180 1.391 . S
C1182 H1172 0.950 . S
C1182 C1183 1.386 . S
C1182 C1184 1.391 . S
C1183 C1182 1.386 . S
C1183 C1187 1.393 . S
C1184 H1173 0.950 . S
C1184 C1182 1.391 . S
C1184 C1185 1.400 . S
C1185 C1179 1.491 . S
C1185 C1184 1.400 . S
C1185 C1186 1.398 . S
C1186 H1174 0.950 . S
C1186 C1185 1.398 . S
C1186 C1187 1.391 . S
C1187 H1175 0.950 . S
C1187 C1183 1.393 . S
C1187 C1186 1.391 . S
H1188 C1196 0.950 . S
H1189 C1201 0.950 . S
H1190 C1198 0.950 . S
H1191 C1200 0.950 . S
H1192 C1202 0.950 . S
H1193 C1204 0.950 . S
H1194 C1206 0.950 . S
H1195 C1207 0.950 . S
C1196 H1188 0.950 . S
C1196 C1197 1.386 . S
C1196 C1198 1.391 . S
C1197 C1196 1.386 . S
C1197 C1201 1.393 . S
C1198 H1190 0.950 . S
C1198 C1196 1.391 . S
C1198 C1199 1.400 . S
C1199 C1198 1.400 . S
C1199 C1200 1.398 . S
C1199 C1205 1.491 . S
C1200 H1191 0.950 . S
C1200 C1199 1.398 . S
C1200 C1201 1.391 . S
C1201 H1189 0.950 . S
C1201 C1197 1.393 . S
C1201 C1200 1.391 . S
C1202 H1192 0.950 . S
C1202 C1203 1.386 . S
C1202 C1204 1.391 . S
C1203 C1202 1.386 . S
C1203 C1207 1.393 . S
C1204 H1193 0.950 . S
C1204 C1202 1.391 . S
C1204 C1205 1.400 . S
C1205 C1199 1.491 . S
C1205 C1204 1.400 . S
C1205 C1206 1.398 . S
C1206 H1194 0.950 . S
C1206 C1205 1.398 . S
C1206 C1207 1.391 . S
C1207 H1195 0.950 . S
C1207 C1203 1.393 . S
C1207 C1206 1.391 . S
H1208 C1216 0.950 . S
H1209 C1221 0.950 . S
H1210 C1218 0.950 . S
H1211 C1220 0.950 . S
H1212 C1222 0.950 . S
H1213 C1224 0.950 . S
H1214 C1226 0.950 . S
H1215 C1227 0.950 . S
C1216 H1208 0.950 . S
C1216 C1217 1.386 . S
C1216 C1218 1.391 . S
C1217 C1216 1.386 . S
C1217 C1221 1.393 . S
C1218 H1210 0.950 . S
C1218 C1216 1.391 . S
C1218 C1219 1.400 . S
C1219 C1218 1.400 . S
C1219 C1220 1.398 . S
C1219 C1225 1.491 . S
C1220 H1211 0.950 . S
C1220 C1219 1.398 . S
C1220 C1221 1.391 . S
C1221 H1209 0.950 . S
C1221 C1217 1.393 . S
C1221 C1220 1.391 . S
C1222 H1212 0.950 . S
C1222 C1223 1.386 . S
C1222 C1224 1.391 . S
C1223 C1222 1.386 . S
C1223 C1227 1.393 . S
C1224 H1213 0.950 . S
C1224 C1222 1.391 . S
C1224 C1225 1.400 . S
C1225 C1219 1.491 . S
C1225 C1224 1.400 . S
C1225 C1226 1.398 . S
C1226 H1214 0.950 . S
C1226 C1225 1.398 . S
C1226 C1227 1.391 . S
C1227 H1215 0.950 . S
C1227 C1223 1.393 . S
C1227 C1226 1.391 . S
H1228 C1236 0.950 . S
H1229 C1241 0.950 . S
H1230 C1238 0.950 . S
H1231 C1240 0.950 . S
H1232 C1242 0.950 . S
H1233 C1244 0.950 . S
H1234 C1246 0.950 . S
H1235 C1247 0.950 . S
C1236 H1228 0.950 . S
C1236 C1237 1.386 . S
C1236 C1238 1.391 . S
C1237 C1236 1.386 . S
C1237 C1241 1.393 . S
C1238 H1230 0.950 . S
C1238 C1236 1.391 . S
C1238 C1239 1.400 . S
C1239 C1238 1.400 . S
C1239 C1240 1.398 . S
C1239 C1245 1.491 . S
C1240 H1231 0.950 . S
C1240 C1239 1.398 . S
C1240 C1241 1.391 . S
C1241 H1229 0.950 . S
C1241 C1237 1.393 . S
C1241 C1240 1.391 . S
C1242 H1232 0.950 . S
C1242 C1243 1.386 . S
C1242 C1244 1.391 . S
C1243 C1242 1.386 . S
C1243 C1247 1.393 . S
C1244 H1233 0.950 . S
C1244 C1242 1.391 . S
C1244 C1245 1.400 . S
C1245 C1239 1.491 . S
C1245 C1244 1.400 . S
C1245 C1246 1.398 . S
C1246 H1234 0.950 . S
C1246 C1245 1.398 . S
C1246 C1247 1.391 . S
C1247 H1235 0.950 . S
C1247 C1243 1.393 . S
C1247 C1246 1.391 . S
H1248 C1256 0.950 . S
H1249 C1261 0.950 . S
H1250 C1258 0.950 . S
H1251 C1260 0.950 . S
H1252 C1262 0.950 . S
H1253 C1264 0.950 . S
H1254 C1266 0.950 . S
H1255 C1267 0.950 . S
C1256 H1248 0.950 . S
C1256 C1257 1.386 . S
C1256 C1258 1.391 . S
C1257 C1256 1.386 . S
C1257 C1261 1.393 . S
C1258 H1250 0.950 . S
C1258 C1256 1.391 . S
C1258 C1259 1.400 . S
C1259 C1258 1.400 . S
C1259 C1260 1.398 . S
C1259 C1265 1.491 . S
C1260 H1251 0.950 . S
C1260 C1259 1.398 . S
C1260 C1261 1.391 . S
C1261 H1249 0.950 . S
C1261 C1257 1.393 . S
C1261 C1260 1.391 . S
C1262 H1252 0.950 . S
C1262 C1263 1.386 . S
C1262 C1264 1.391 . S
C1263 C1262 1.386 . S
C1263 C1267 1.393 . S
C1264 H1253 0.950 . S
C1264 C1262 1.391 . S
C1264 C1265 1.400 . S
C1265 C1259 1.491 . S
C1265 C1264 1.400 . S
C1265 C1266 1.398 . S
C1266 H1254 0.950 . S
C1266 C1265 1.398 . S
C1266 C1267 1.391 . S
C1267 H1255 0.950 . S
C1267 C1263 1.393 . S
C1267 C1266 1.391 . S
H1268 C1276 0.950 . S
H1269 C1281 0.950 . S
H1270 C1278 0.950 . S
H1271 C1280 0.950 . S
H1272 C1282 0.950 . S
H1273 C1284 0.950 . S
H1274 C1286 0.950 . S
H1275 C1287 0.950 . S
C1276 H1268 0.950 . S
C1276 C1277 1.386 . S
C1276 C1278 1.391 . S
C1277 C1276 1.386 . S
C1277 C1281 1.393 . S
C1278 H1270 0.950 . S
C1278 C1276 1.391 . S
C1278 C1279 1.400 . S
C1279 C1278 1.400 . S
C1279 C1280 1.398 . S
C1279 C1285 1.491 . S
C1280 H1271 0.950 . S
C1280 C1279 1.398 . S
C1280 C1281 1.391 . S
C1281 H1269 0.950 . S
C1281 C1277 1.393 . S
C1281 C1280 1.391 . S
C1282 H1272 0.950 . S
C1282 C1283 1.386 . S
C1282 C1284 1.391 . S
C1283 C1282 1.386 . S
C1283 C1287 1.393 . S
C1284 H1273 0.950 . S
C1284 C1282 1.391 . S
C1284 C1285 1.400 . S
C1285 C1279 1.491 . S
C1285 C1284 1.400 . S
C1285 C1286 1.398 . S
C1286 H1274 0.950 . S
C1286 C1285 1.398 . S
C1286 C1287 1.391 . S
C1287 H1275 0.950 . S
C1287 C1283 1.393 . S
C1287 C1286 1.391 . S
H1288 C1296 0.950 . S
H1289 C1301 0.950 . S
H1290 C1298 0.950 . S
H1291 C1300 0.950 . S
H1292 C1302 0.950 . S
H1293 C1304 0.950 . S
H1294 C1306 0.950 . S
H1295 C1307 0.950 . S
C1296 H1288 0.950 . S
C1296 C1297 1.386 . S
C1296 C1298 1.391 . S
C1297 C1296 1.386 . S
C1297 C1301 1.393 . S
C1298 H1290 0.950 . S
C1298 C1296 1.391 . S
C1298 C1299 1.400 . S
C1299 C1298 1.400 . S
C1299 C1300 1.398 . S
C1299 C1305 1.491 . S
C1300 H1291 0.950 . S
C1300 C1299 1.398 . S
C1300 C1301 1.391 . S
C1301 H1289 0.950 . S
C1301 C1297 1.393 . S
C1301 C1300 1.391 . S
C1302 H1292 0.950 . S
C1302 C1303 1.386 . S
C1302 C1304 1.391 . S
C1303 C1302 1.386 . S
C1303 C1307 1.393 . S
C1304 H1293 0.950 . S
C1304 C1302 1.391 . S
C1304 C1305 1.400 . S
C1305 C1299 1.491 . S
C1305 C1304 1.400 . S
C1305 C1306 1.398 . S
C1306 H1294 0.950 . S
C1306 C1305 1.398 . S
C1306 C1307 1.391 . S
C1307 H1295 0.950 . S
C1307 C1303 1.393 . S
C1307 C1306 1.391 . S
H1308 C1316 0.950 . S
H1309 C1321 0.950 . S
H1310 C1318 0.950 . S
H1311 C1320 0.950 . S
H1312 C1322 0.950 . S
H1313 C1324 0.950 . S
H1314 C1326 0.950 . S
H1315 C1327 0.950 . S
C1316 H1308 0.950 . S
C1316 C1317 1.386 . S
C1316 C1318 1.391 . S
C1317 C1316 1.386 . S
C1317 C1321 1.393 . S
C1318 H1310 0.950 . S
C1318 C1316 1.391 . S
C1318 C1319 1.400 . S
C1319 C1318 1.400 . S
C1319 C1320 1.398 . S
C1319 C1325 1.491 . S
C1320 H1311 0.950 . S
C1320 C1319 1.398 . S
C1320 C1321 1.391 . S
C1321 H1309 0.950 . S
C1321 C1317 1.393 . S
C1321 C1320 1.391 . S
C1322 H1312 0.950 . S
C1322 C1323 1.386 . S
C1322 C1324 1.391 . S
C1323 C1322 1.386 . S
C1323 C1327 1.393 . S
C1324 H1313 0.950 . S
C1324 C1322 1.391 . S
C1324 C1325 1.400 . S
C1325 C1319 1.491 . S
C1325 C1324 1.400 . S
C1325 C1326 1.398 . S
C1326 H1314 0.950 . S
C1326 C1325 1.398 . S
C1326 C1327 1.391 . S
C1327 H1315 0.950 . S
C1327 C1323 1.393 . S
C1327 C1326 1.391 . S
H1328 C1336 0.950 . S
H1329 C1341 0.950 . S
H1330 C1338 0.950 . S
H1331 C1340 0.950 . S
H1332 C1342 0.950 . S
H1333 C1344 0.950 . S
H1334 C1346 0.950 . S
H1335 C1347 0.950 . S
C1336 H1328 0.950 . S
C1336 C1337 1.386 . S
C1336 C1338 1.391 . S
C1337 C1336 1.386 . S
C1337 C1341 1.393 . S
C1338 H1330 0.950 . S
C1338 C1336 1.391 . S
C1338 C1339 1.400 . S
C1339 C1338 1.400 . S
C1339 C1340 1.398 . S
C1339 C1345 1.491 . S
C1340 H1331 0.950 . S
C1340 C1339 1.398 . S
C1340 C1341 1.391 . S
C1341 H1329 0.950 . S
C1341 C1337 1.393 . S
C1341 C1340 1.391 . S
C1342 H1332 0.950 . S
C1342 C1343 1.386 . S
C1342 C1344 1.391 . S
C1343 C1342 1.386 . S
C1343 C1347 1.393 . S
C1344 H1333 0.950 . S
C1344 C1342 1.391 . S
C1344 C1345 1.400 . S
C1345 C1339 1.491 . S
C1345 C1344 1.400 . S
C1345 C1346 1.398 . S
C1346 H1334 0.950 . S
C1346 C1345 1.398 . S
C1346 C1347 1.391 . S
C1347 H1335 0.950 . S
C1347 C1343 1.393 . S
C1347 C1346 1.391 . S
H1348 C1356 0.950 . S
H1349 C1361 0.950 . S
H1350 C1358 0.950 . S
H1351 C1360 0.950 . S
H1352 C1362 0.950 . S
H1353 C1364 0.950 . S
H1354 C1366 0.950 . S
H1355 C1367 0.950 . S
C1356 H1348 0.950 . S
C1356 C1357 1.386 . S
C1356 C1358 1.391 . S
C1357 C1356 1.386 . S
C1357 C1361 1.393 . S
C1358 H1350 0.950 . S
C1358 C1356 1.391 . S
C1358 C1359 1.400 . S
C1359 C1358 1.400 . S
C1359 C1360 1.398 . S
C1359 C1365 1.491 . S
C1360 H1351 0.950 . S
C1360 C1359 1.398 . S
C1360 C1361 1.391 . S
C1361 H1349 0.950 . S
C1361 C1357 1.393 . S
C1361 C1360 1.391 . S
C1362 H1352 0.950 . S
C1362 C1363 1.386 . S
C1362 C1364 1.391 . S
C1363 C1362 1.386 . S
C1363 C1367 1.393 . S
C1364 H1353 0.950 . S
C1364 C1362 1.391 . S
C1364 C1365 1.400 . S
C1365 C1359 1.491 . S
C1365 C1364 1.400 . S
C1365 C1366 1.398 . S
C1366 H1354 0.950 . S
C1366 C1365 1.398 . S
C1366 C1367 1.391 . S
C1367 H1355 0.950 . S
C1367 C1363 1.393 . S
C1367 C1366 1.391 . S
H1368 C1376 0.950 . S
H1369 C1381 0.950 . S
H1370 C1378 0.950 . S
H1371 C1380 0.950 . S
H1372 C1382 0.950 . S
H1373 C1384 0.950 . S
H1374 C1386 0.950 . S
H1375 C1387 0.950 . S
C1376 H1368 0.950 . S
C1376 C1377 1.386 . S
C1376 C1378 1.391 . S
C1377 C1376 1.386 . S
C1377 C1381 1.393 . S
C1378 H1370 0.950 . S
C1378 C1376 1.391 . S
C1378 C1379 1.400 . S
C1379 C1378 1.400 . S
C1379 C1380 1.398 . S
C1379 C1385 1.491 . S
C1380 H1371 0.950 . S
C1380 C1379 1.398 . S
C1380 C1381 1.391 . S
C1381 H1369 0.950 . S
C1381 C1377 1.393 . S
C1381 C1380 1.391 . S
C1382 H1372 0.950 . S
C1382 C1383 1.386 . S
C1382 C1384 1.391 . S
C1383 C1382 1.386 . S
C1383 C1387 1.393 . S
C1384 H1373 0.950 . S
C1384 C1382 1.391 . S
C1384 C1385 1.400 . S
C1385 C1379 1.491 . S
C1385 C1384 1.400 . S
C1385 C1386 1.398 . S
C1386 H1374 0.950 . S
C1386 C1385 1.398 . S
C1386 C1387 1.391 . S
C1387 H1375 0.950 . S
C1387 C1383 1.393 . S
C1387 C1386 1.391 . S
H1388 C1396 0.950 . S
H1389 C1401 0.950 . S
H1390 C1398 0.950 . S
H1391 C1400 0.950 . S
H1392 C1402 0.950 . S
H1393 C1404 0.950 . S
H1394 C1406 0.950 . S
H1395 C1407 0.950 . S
C1396 H1388 0.950 . S
C1396 C1397 1.386 . S
C1396 C1398 1.391 . S
C1397 C1396 1.386 . S
C1397 C1401 1.393 . S
C1398 H1390 0.950 . S
C1398 C1396 1.391 . S
C1398 C1399 1.400 . S
C1399 C1398 1.400 . S
C1399 C1400 1.398 . S
C1399 C1405 1.491 . S
C1400 H1391 0.950 . S
C1400 C1399 1.398 . S
C1400 C1401 1.391 . S
C1401 H1389 0.950 . S
C1401 C1397 1.393 . S
C1401 C1400 1.391 . S
C1402 H1392 0.950 . S
C1402 C1403 1.386 . S
C1402 C1404 1.391 . S
C1403 C1402 1.386 . S
C1403 C1407 1.393 . S
C1404 H1393 0.950 . S
C1404 C1402 1.391 . S
C1404 C1405 1.400 . S
C1405 C1399 1.491 . S
C1405 C1404 1.400 . S
C1405 C1406 1.398 . S
C1406 H1394 0.950 . S
C1406 C1405 1.398 . S
C1406 C1407 1.391 . S
C1407 H1395 0.950 . S
C1407 C1403 1.393 . S
C1407 C1406 1.391 . S
H1408 C1416 0.950 . S
H1409 C1421 0.950 . S
H1410 C1418 0.950 . S
H1411 C1420 0.950 . S
H1412 C1422 0.950 . S
H1413 C1424 0.950 . S
H1414 C1426 0.950 . S
H1415 C1427 0.950 . S
C1416 H1408 0.950 . S
C1416 C1417 1.386 . S
C1416 C1418 1.391 . S
C1417 C1416 1.386 . S
C1417 C1421 1.393 . S
C1418 H1410 0.950 . S
C1418 C1416 1.391 . S
C1418 C1419 1.400 . S
C1419 C1418 1.400 . S
C1419 C1420 1.398 . S
C1419 C1425 1.491 . S
C1420 H1411 0.950 . S
C1420 C1419 1.398 . S
C1420 C1421 1.391 . S
C1421 H1409 0.950 . S
C1421 C1417 1.393 . S
C1421 C1420 1.391 . S
C1422 H1412 0.950 . S
C1422 C1423 1.386 . S
C1422 C1424 1.391 . S
C1423 C1422 1.386 . S
C1423 C1427 1.393 . S
C1424 H1413 0.950 . S
C1424 C1422 1.391 . S
C1424 C1425 1.400 . S
C1425 C1419 1.491 . S
C1425 C1424 1.400 . S
C1425 C1426 1.398 . S
C1426 H1414 0.950 . S
C1426 C1425 1.398 . S
C1426 C1427 1.391 . S
C1427 H1415 0.950 . S
C1427 C1423 1.393 . S
C1427 C1426 1.391 . S
H1428 C1436 0.950 . S
H1429 C1441 0.950 . S
H1430 C1438 0.950 . S
H1431 C1440 0.950 . S
H1432 C1442 0.950 . S
H1433 C1444 0.950 . S
H1434 C1446 0.950 . S
H1435 C1447 0.950 . S
C1436 H1428 0.950 . S
C1436 C1437 1.386 . S
C1436 C1438 1.391 . S
C1437 C1436 1.386 . S
C1437 C1441 1.393 . S
C1438 H1430 0.950 . S
C1438 C1436 1.391 . S
C1438 C1439 1.400 . S
C1439 C1438 1.400 . S
C1439 C1440 1.398 . S
C1439 C1445 1.491 . S
C1440 H1431 0.950 . S
C1440 C1439 1.398 . S
C1440 C1441 1.391 . S
C1441 H1429 0.950 . S
C1441 C1437 1.393 . S
C1441 C1440 1.391 . S
C1442 H1432 0.950 . S
C1442 C1443 1.386 . S
C1442 C1444 1.391 . S
C1443 C1442 1.386 . S
C1443 C1447 1.393 . S
C1444 H1433 0.950 . S
C1444 C1442 1.391 . S
C1444 C1445 1.400 . S
C1445 C1439 1.491 . S
C1445 C1444 1.400 . S
C1445 C1446 1.398 . S
C1446 H1434 0.950 . S
C1446 C1445 1.398 . S
C1446 C1447 1.391 . S
C1447 H1435 0.950 . S
C1447 C1443 1.393 . S
C1447 C1446 1.391 . S
H1448 C1456 0.950 . S
H1449 C1461 0.950 . S
H1450 C1458 0.950 . S
H1451 C1460 0.950 . S
H1452 C1462 0.950 . S
H1453 C1464 0.950 . S
H1454 C1466 0.950 . S
H1455 C1467 0.950 . S
C1456 H1448 0.950 . S
C1456 C1457 1.386 . S
C1456 C1458 1.391 . S
C1457 C1456 1.386 . S
C1457 C1461 1.393 . S
C1458 H1450 0.950 . S
C1458 C1456 1.391 . S
C1458 C1459 1.400 . S
C1459 C1458 1.400 . S
C1459 C1460 1.398 . S
C1459 C1465 1.491 . S
C1460 H1451 0.950 . S
C1460 C1459 1.398 . S
C1460 C1461 1.391 . S
C1461 H1449 0.950 . S
C1461 C1457 1.393 . S
C1461 C1460 1.391 . S
C1462 H1452 0.950 . S
C1462 C1463 1.386 . S
C1462 C1464 1.391 . S
C1463 C1462 1.386 . S
C1463 C1467 1.393 . S
C1464 H1453 0.950 . S
C1464 C1462 1.391 . S
C1464 C1465 1.400 . S
C1465 C1459 1.491 . S
C1465 C1464 1.400 . S
C1465 C1466 1.398 . S
C1466 H1454 0.950 . S
C1466 C1465 1.398 . S
C1466 C1467 1.391 . S
C1467 H1455 0.950 . S
C1467 C1463 1.393 . S
C1467 C1466 1.391 . S
C523 C219 1.049 . S
C517 C17 1.035 . S
C543 C197 1.749 . S
C537 C44 1.734 . S
C563 C194 0.686 . S
C557 C63 0.686 . S
C577 C87 1.620 . S
C583 C206 1.537 . S
C597 C110 1.589 . S
C603 C189 1.513 . S
C623 C211 0.720 . S
C617 C131 0.715 . S
C637 C159 1.707 . S
C643 C216 1.725 . S
C657 C177 1.066 . S
C663 C212 1.061 . S
C683 C270 1.629 . S
C677 C20 1.563 . S
C697 C42 1.229 . S
C703 C320 1.218 . S
C723 C243 1.708 . S
C717 C66 1.595 . S
C743 C319 0.689 . S
C737 C86 0.674 . S
C757 C109 0.680 . S
C763 C248 0.672 . S
C783 C314 1.714 . S
C777 C136 1.627 . S
C797 C157 1.198 . S
C803 C273 1.207 . S
C817 C182 1.584 . S
C823 C305 1.646 . S
C837 C18 1.647 . S
C843 C297 1.588 . S
C857 C112 1.177 . S
C863 C327 1.282 . S
C883 C251 1.588 . S
C877 C134 1.583 . S
C903 C302 0.874 . S
C897 C154 0.879 . S
C917 C180 1.585 . S
C923 C260 1.582 . S
C937 C64 1.649 . S
C943 C324 1.593 . S
C963 C266 1.285 . S
C957 C89 1.155 . S
C977 C39 0.860 . S
C983 C265 0.877 . S
C997 C178 1.037 . S
C1003 C381 1.047 . S
C1017 C113 1.727 . S
C1023 C359 1.758 . S
C1043 C356 0.698 . S
C1037 C132 0.694 . S
C1063 C368 1.525 . S
C1057 C156 1.622 . S
C1077 C41 1.593 . S
C1083 C351 1.496 . S
C1103 C373 0.691 . S
C1097 C62 0.694 . S
C1117 C90 1.705 . S
C1123 C378 1.731 . S
C1137 C16 1.053 . S
C1143 C374 1.070 . S
C1157 C181 1.562 . S
C1163 C432 1.653 . S
C1183 C482 1.224 . S
C1177 C111 1.228 . S
C1197 C135 1.591 . S
C1203 C405 1.722 . S
C1217 C155 0.674 . S
C1223 C481 0.689 . S
C1243 C410 0.675 . S
C1237 C40 0.663 . S
C1257 C67 1.660 . S
C1263 C476 1.728 . S
C1283 C435 1.219 . S
C1277 C88 1.209 . S
C1303 C467 1.658 . S
C1297 C21 1.615 . S
C1323 C459 1.575 . S
C1317 C179 1.643 . S
C1337 C43 1.166 . S
C1343 C489 1.286 . S
C1357 C65 1.589 . S
C1363 C413 1.583 . S
C1383 C464 0.870 . S
C1377 C85 0.877 . S
C1397 C19 1.603 . S
C1403 C422 1.563 . S
C1417 C133 1.648 . S
C1423 C486 1.600 . S
C1443 C428 1.294 . S
C1437 C158 1.176 . S
C1463 C427 0.880 . S
C1457 C108 0.856 . S
