# Generated by pormake.
# Topology iac, (4,6)-cn, num edge types: 1
# Building blocks:
#     Node 0, Type 0, BuildingBlock: QUQFOY_clean_sbu_3, # of connection points: 4
#     Node 1, Type 0, BuildingBlock: QUQFOY_clean_sbu_3, # of connection points: 4
#     Node 2, Type 0, BuildingBlock: QUQFOY_clean_sbu_3, # of connection points: 4
#     Node 3, Type 0, BuildingBlock: QUQFOY_clean_sbu_3, # of connection points: 4
#     Node 4, Type 0, BuildingBlock: QUQFOY_clean_sbu_3, # of connection points: 4
#     Node 5, Type 0, BuildingBlock: QUQFOY_clean_sbu_3, # of connection points: 4
#     Node 6, Type 0, BuildingBlock: QUQFOY_clean_sbu_3, # of connection points: 4
#     Node 7, Type 0, BuildingBlock: QUQFOY_clean_sbu_3, # of connection points: 4
#     Node 8, Type 0, BuildingBlock: QUQFOY_clean_sbu_3, # of connection points: 4
#     Node 9, Type 0, BuildingBlock: QUQFOY_clean_sbu_3, # of connection points: 4
#     Node 10, Type 0, BuildingBlock: QUQFOY_clean_sbu_3, # of connection points: 4
#     Node 11, Type 0, BuildingBlock: QUQFOY_clean_sbu_3, # of connection points: 4
#     Node 12, Type 0, BuildingBlock: QUQFOY_clean_sbu_3, # of connection points: 4
#     Node 13, Type 0, BuildingBlock: QUQFOY_clean_sbu_3, # of connection points: 4
#     Node 14, Type 0, BuildingBlock: QUQFOY_clean_sbu_3, # of connection points: 4
#     Node 15, Type 0, BuildingBlock: QUQFOY_clean_sbu_3, # of connection points: 4
#     Node 16, Type 0, BuildingBlock: QUQFOY_clean_sbu_3, # of connection points: 4
#     Node 17, Type 0, BuildingBlock: QUQFOY_clean_sbu_3, # of connection points: 4
#     Node 18, Type 0, BuildingBlock: QUQFOY_clean_sbu_3, # of connection points: 4
#     Node 19, Type 0, BuildingBlock: QUQFOY_clean_sbu_3, # of connection points: 4
#     Node 20, Type 0, BuildingBlock: QUQFOY_clean_sbu_3, # of connection points: 4
#     Node 21, Type 0, BuildingBlock: QUQFOY_clean_sbu_3, # of connection points: 4
#     Node 22, Type 0, BuildingBlock: QUQFOY_clean_sbu_3, # of connection points: 4
#     Node 23, Type 0, BuildingBlock: QUQFOY_clean_sbu_3, # of connection points: 4
#     Node 24, Type 1, BuildingBlock: LEVNOQ01_clean_sbu_1, # of connection points: 6
#     Node 25, Type 1, BuildingBlock: LEVNOQ01_clean_sbu_1, # of connection points: 6
#     Node 26, Type 1, BuildingBlock: LEVNOQ01_clean_sbu_1, # of connection points: 6
#     Node 27, Type 1, BuildingBlock: LEVNOQ01_clean_sbu_1, # of connection points: 6
#     Node 28, Type 1, BuildingBlock: LEVNOQ01_clean_sbu_1, # of connection points: 6
#     Node 29, Type 1, BuildingBlock: LEVNOQ01_clean_sbu_1, # of connection points: 6
#     Node 30, Type 1, BuildingBlock: LEVNOQ01_clean_sbu_1, # of connection points: 6
#     Node 31, Type 1, BuildingBlock: LEVNOQ01_clean_sbu_1, # of connection points: 6
#     Node 32, Type 1, BuildingBlock: LEVNOQ01_clean_sbu_1, # of connection points: 6
#     Node 33, Type 1, BuildingBlock: LEVNOQ01_clean_sbu_1, # of connection points: 6
#     Node 34, Type 1, BuildingBlock: LEVNOQ01_clean_sbu_1, # of connection points: 6
#     Node 35, Type 1, BuildingBlock: LEVNOQ01_clean_sbu_1, # of connection points: 6
#     Node 36, Type 1, BuildingBlock: LEVNOQ01_clean_sbu_1, # of connection points: 6
#     Node 37, Type 1, BuildingBlock: LEVNOQ01_clean_sbu_1, # of connection points: 6
#     Node 38, Type 1, BuildingBlock: LEVNOQ01_clean_sbu_1, # of connection points: 6
#     Node 39, Type 1, BuildingBlock: LEVNOQ01_clean_sbu_1, # of connection points: 6
#     Edge 40, Type (0, 1), BuildingBlock: XIVTED_clean_linker_0, # of connection points: 2
#     Edge 41, Type (0, 1), BuildingBlock: XIVTED_clean_linker_0, # of connection points: 2
#     Edge 42, Type (0, 1), BuildingBlock: XIVTED_clean_linker_0, # of connection points: 2
#     Edge 43, Type (0, 1), BuildingBlock: XIVTED_clean_linker_0, # of connection points: 2
#     Edge 44, Type (0, 1), BuildingBlock: XIVTED_clean_linker_0, # of connection points: 2
#     Edge 45, Type (0, 1), BuildingBlock: XIVTED_clean_linker_0, # of connection points: 2
#     Edge 46, Type (0, 1), BuildingBlock: XIVTED_clean_linker_0, # of connection points: 2
#     Edge 47, Type (0, 1), BuildingBlock: XIVTED_clean_linker_0, # of connection points: 2
#     Edge 48, Type (0, 1), BuildingBlock: XIVTED_clean_linker_0, # of connection points: 2
#     Edge 49, Type (0, 1), BuildingBlock: XIVTED_clean_linker_0, # of connection points: 2
#     Edge 50, Type (0, 1), BuildingBlock: XIVTED_clean_linker_0, # of connection points: 2
#     Edge 51, Type (0, 1), BuildingBlock: XIVTED_clean_linker_0, # of connection points: 2
#     Edge 52, Type (0, 1), BuildingBlock: XIVTED_clean_linker_0, # of connection points: 2
#     Edge 53, Type (0, 1), BuildingBlock: XIVTED_clean_linker_0, # of connection points: 2
#     Edge 54, Type (0, 1), BuildingBlock: XIVTED_clean_linker_0, # of connection points: 2
#     Edge 55, Type (0, 1), BuildingBlock: XIVTED_clean_linker_0, # of connection points: 2
#     Edge 56, Type (0, 1), BuildingBlock: XIVTED_clean_linker_0, # of connection points: 2
#     Edge 57, Type (0, 1), BuildingBlock: XIVTED_clean_linker_0, # of connection points: 2
#     Edge 58, Type (0, 1), BuildingBlock: XIVTED_clean_linker_0, # of connection points: 2
#     Edge 59, Type (0, 1), BuildingBlock: XIVTED_clean_linker_0, # of connection points: 2
#     Edge 60, Type (0, 1), BuildingBlock: XIVTED_clean_linker_0, # of connection points: 2
#     Edge 61, Type (0, 1), BuildingBlock: XIVTED_clean_linker_0, # of connection points: 2
#     Edge 62, Type (0, 1), BuildingBlock: XIVTED_clean_linker_0, # of connection points: 2
#     Edge 63, Type (0, 1), BuildingBlock: XIVTED_clean_linker_0, # of connection points: 2
#     Edge 64, Type (0, 1), BuildingBlock: XIVTED_clean_linker_0, # of connection points: 2
#     Edge 65, Type (0, 1), BuildingBlock: XIVTED_clean_linker_0, # of connection points: 2
#     Edge 66, Type (0, 1), BuildingBlock: XIVTED_clean_linker_0, # of connection points: 2
#     Edge 67, Type (0, 1), BuildingBlock: XIVTED_clean_linker_0, # of connection points: 2
#     Edge 68, Type (0, 1), BuildingBlock: XIVTED_clean_linker_0, # of connection points: 2
#     Edge 69, Type (0, 1), BuildingBlock: XIVTED_clean_linker_0, # of connection points: 2
#     Edge 70, Type (0, 1), BuildingBlock: XIVTED_clean_linker_0, # of connection points: 2
#     Edge 71, Type (0, 1), BuildingBlock: XIVTED_clean_linker_0, # of connection points: 2
#     Edge 72, Type (0, 1), BuildingBlock: XIVTED_clean_linker_0, # of connection points: 2
#     Edge 73, Type (0, 1), BuildingBlock: XIVTED_clean_linker_0, # of connection points: 2
#     Edge 74, Type (0, 1), BuildingBlock: XIVTED_clean_linker_0, # of connection points: 2
#     Edge 75, Type (0, 1), BuildingBlock: XIVTED_clean_linker_0, # of connection points: 2
#     Edge 76, Type (0, 1), BuildingBlock: XIVTED_clean_linker_0, # of connection points: 2
#     Edge 77, Type (0, 1), BuildingBlock: XIVTED_clean_linker_0, # of connection points: 2
#     Edge 78, Type (0, 1), BuildingBlock: XIVTED_clean_linker_0, # of connection points: 2
#     Edge 79, Type (0, 1), BuildingBlock: XIVTED_clean_linker_0, # of connection points: 2
#     Edge 80, Type (0, 1), BuildingBlock: XIVTED_clean_linker_0, # of connection points: 2
#     Edge 81, Type (0, 1), BuildingBlock: XIVTED_clean_linker_0, # of connection points: 2
#     Edge 82, Type (0, 1), BuildingBlock: XIVTED_clean_linker_0, # of connection points: 2
#     Edge 83, Type (0, 1), BuildingBlock: XIVTED_clean_linker_0, # of connection points: 2
#     Edge 84, Type (0, 1), BuildingBlock: XIVTED_clean_linker_0, # of connection points: 2
#     Edge 85, Type (0, 1), BuildingBlock: XIVTED_clean_linker_0, # of connection points: 2
#     Edge 86, Type (0, 1), BuildingBlock: XIVTED_clean_linker_0, # of connection points: 2
#     Edge 87, Type (0, 1), BuildingBlock: XIVTED_clean_linker_0, # of connection points: 2
#     Edge 88, Type (0, 1), BuildingBlock: XIVTED_clean_linker_0, # of connection points: 2
#     Edge 89, Type (0, 1), BuildingBlock: XIVTED_clean_linker_0, # of connection points: 2
#     Edge 90, Type (0, 1), BuildingBlock: XIVTED_clean_linker_0, # of connection points: 2
#     Edge 91, Type (0, 1), BuildingBlock: XIVTED_clean_linker_0, # of connection points: 2
#     Edge 92, Type (0, 1), BuildingBlock: XIVTED_clean_linker_0, # of connection points: 2
#     Edge 93, Type (0, 1), BuildingBlock: XIVTED_clean_linker_0, # of connection points: 2
#     Edge 94, Type (0, 1), BuildingBlock: XIVTED_clean_linker_0, # of connection points: 2
#     Edge 95, Type (0, 1), BuildingBlock: XIVTED_clean_linker_0, # of connection points: 2
#     Edge 96, Type (0, 1), BuildingBlock: XIVTED_clean_linker_0, # of connection points: 2
#     Edge 97, Type (0, 1), BuildingBlock: XIVTED_clean_linker_0, # of connection points: 2
#     Edge 98, Type (0, 1), BuildingBlock: XIVTED_clean_linker_0, # of connection points: 2
#     Edge 99, Type (0, 1), BuildingBlock: XIVTED_clean_linker_0, # of connection points: 2
#     Edge 100, Type (0, 1), BuildingBlock: XIVTED_clean_linker_0, # of connection points: 2
#     Edge 101, Type (0, 1), BuildingBlock: XIVTED_clean_linker_0, # of connection points: 2
#     Edge 102, Type (0, 1), BuildingBlock: XIVTED_clean_linker_0, # of connection points: 2
#     Edge 103, Type (0, 1), BuildingBlock: XIVTED_clean_linker_0, # of connection points: 2
#     Edge 104, Type (0, 1), BuildingBlock: XIVTED_clean_linker_0, # of connection points: 2
#     Edge 105, Type (0, 1), BuildingBlock: XIVTED_clean_linker_0, # of connection points: 2
#     Edge 106, Type (0, 1), BuildingBlock: XIVTED_clean_linker_0, # of connection points: 2
#     Edge 107, Type (0, 1), BuildingBlock: XIVTED_clean_linker_0, # of connection points: 2
#     Edge 108, Type (0, 1), BuildingBlock: XIVTED_clean_linker_0, # of connection points: 2
#     Edge 109, Type (0, 1), BuildingBlock: XIVTED_clean_linker_0, # of connection points: 2
#     Edge 110, Type (0, 1), BuildingBlock: XIVTED_clean_linker_0, # of connection points: 2
#     Edge 111, Type (0, 1), BuildingBlock: XIVTED_clean_linker_0, # of connection points: 2
#     Edge 112, Type (0, 1), BuildingBlock: XIVTED_clean_linker_0, # of connection points: 2
#     Edge 113, Type (0, 1), BuildingBlock: XIVTED_clean_linker_0, # of connection points: 2
#     Edge 114, Type (0, 1), BuildingBlock: XIVTED_clean_linker_0, # of connection points: 2
#     Edge 115, Type (0, 1), BuildingBlock: XIVTED_clean_linker_0, # of connection points: 2
#     Edge 116, Type (0, 1), BuildingBlock: XIVTED_clean_linker_0, # of connection points: 2
#     Edge 117, Type (0, 1), BuildingBlock: XIVTED_clean_linker_0, # of connection points: 2
#     Edge 118, Type (0, 1), BuildingBlock: XIVTED_clean_linker_0, # of connection points: 2
#     Edge 119, Type (0, 1), BuildingBlock: XIVTED_clean_linker_0, # of connection points: 2
#     Edge 120, Type (0, 1), BuildingBlock: XIVTED_clean_linker_0, # of connection points: 2
#     Edge 121, Type (0, 1), BuildingBlock: XIVTED_clean_linker_0, # of connection points: 2
#     Edge 122, Type (0, 1), BuildingBlock: XIVTED_clean_linker_0, # of connection points: 2
#     Edge 123, Type (0, 1), BuildingBlock: XIVTED_clean_linker_0, # of connection points: 2
#     Edge 124, Type (0, 1), BuildingBlock: XIVTED_clean_linker_0, # of connection points: 2
#     Edge 125, Type (0, 1), BuildingBlock: XIVTED_clean_linker_0, # of connection points: 2
#     Edge 126, Type (0, 1), BuildingBlock: XIVTED_clean_linker_0, # of connection points: 2
#     Edge 127, Type (0, 1), BuildingBlock: XIVTED_clean_linker_0, # of connection points: 2
#     Edge 128, Type (0, 1), BuildingBlock: XIVTED_clean_linker_0, # of connection points: 2
#     Edge 129, Type (0, 1), BuildingBlock: XIVTED_clean_linker_0, # of connection points: 2
#     Edge 130, Type (0, 1), BuildingBlock: XIVTED_clean_linker_0, # of connection points: 2
#     Edge 131, Type (0, 1), BuildingBlock: XIVTED_clean_linker_0, # of connection points: 2
#     Edge 132, Type (0, 1), BuildingBlock: XIVTED_clean_linker_0, # of connection points: 2
#     Edge 133, Type (0, 1), BuildingBlock: XIVTED_clean_linker_0, # of connection points: 2
#     Edge 134, Type (0, 1), BuildingBlock: XIVTED_clean_linker_0, # of connection points: 2
#     Edge 135, Type (0, 1), BuildingBlock: XIVTED_clean_linker_0, # of connection points: 2
# Relax obj value: 0.089
# Max RMSD: 0.169
# Mean RMSD: 0.086
data_MOF--net-iac--node1-QUQFOY_clean_sbu_3--node2-LEVNOQ01_clean_sbu_1--edge1-XIVTED_clean_linker_0
_symmetry_space_group_name_H-M    P1
_symmetry_Int_Tables_number       1
_symmetry_cell_setting            triclinic
loop_
_symmetry_equiv_pos_as_xyz
'x, y, z'
_cell_length_a     54.716404
_cell_length_b     55.468213
_cell_length_c     55.108739
_cell_angle_alpha  90.913351
_cell_angle_beta   89.95125
_cell_angle_gamma 90.488084
loop_
_atom_site_label
_atom_site_type_symbol
_atom_site_fract_x
_atom_site_fract_y
_atom_site_fract_z
_atom_type_partial_charge
C0 C 0.94446 0.23881 0.15794 0.0
O1 O 0.95794 0.22677 0.17196 0.0
Cd2 Cd 0.00019 0.21885 0.16584 0.0
O3 O 0.95317 0.24895 0.1392 0.0
Cd4 Cd -0.00612 0.25595 0.12056 0.0
C5 C 0.00088 0.19629 0.10684 0.0
O6 O 0.01545 0.25812 0.15854 0.0
O7 O 0.0388 0.25619 0.12725 0.0
O8 O 0.98205 0.29791 0.1169 0.0
C9 C 0.03691 0.25783 0.15016 0.0
O10 O 0.00394 0.19293 0.12946 0.0
C11 C 0.98599 0.29936 0.09428 0.0
O12 O -0.00428 0.21713 0.09891 0.0
O13 O -0.00622 0.28047 0.08356 0.0
C14 C 0.95753 0.75824 0.33029 0.0
O15 O 0.97491 0.76451 0.31629 0.0
Cd16 Cd 0.0182 0.75709 0.31925 0.0
O17 O 0.96145 0.74573 0.34908 0.0
Cd18 Cd -0.00334 0.72941 0.37081 0.0
C19 C 0.02261 0.78667 0.37313 0.0
O20 O 0.01919 0.71753 0.33537 0.0
O21 O 0.03573 0.70788 0.36902 0.0
O22 O 0.97225 0.69846 0.39078 0.0
C23 C 0.03758 0.70918 0.34618 0.0
O24 O 0.02838 0.7869 0.35074 0.0
C25 C 0.97931 0.70477 0.41202 0.0
O26 O 0.01144 0.76882 0.38233 0.0
O27 O -0.00627 0.72278 0.41374 0.0
C28 C 0.4378 0.73391 0.63739 0.0
O29 O 0.44745 0.7201 0.65276 0.0
Cd30 Cd 0.4904 0.71664 0.66094 0.0
O31 O 0.45089 0.74705 0.62381 0.0
Cd32 Cd 0.49495 0.75256 0.61647 0.0
C33 C 0.50706 0.6931 0.60591 0.0
O34 O 0.50927 0.75546 0.65861 0.0
O35 O 0.53685 0.75159 0.63081 0.0
O36 O 0.48624 0.79494 0.60952 0.0
C37 C 0.53175 0.7544 0.65311 0.0
O38 O 0.50594 0.69072 0.62882 0.0
C39 C 0.49464 0.79517 0.58806 0.0
O40 O 0.50168 0.7131 0.59615 0.0
O41 O 0.50345 0.77553 0.57983 0.0
C42 C 0.45189 0.25885 0.84394 0.0
O43 O 0.46554 0.26831 0.82789 0.0
Cd44 Cd 0.50939 0.26605 0.82346 0.0
O45 O 0.46078 0.24649 0.86105 0.0
Cd46 Cd 0.50142 0.23557 0.87604 0.0
C47 C 0.52046 0.29554 0.87639 0.0
O48 O 0.51647 0.22557 0.8359 0.0
O49 O 0.53981 0.21533 0.86524 0.0
O50 O 0.48086 0.20374 0.89876 0.0
C51 C 0.53658 0.21681 0.84257 0.0
O52 O 0.5219 0.2965 0.85338 0.0
C53 C 0.49242 0.20823 0.91839 0.0
O54 O 0.51346 0.2764 0.88685 0.0
O55 O 0.50797 0.22536 0.91813 0.0
C56 C 0.09934 0.01457 0.30395 0.0
O57 O 0.08404 0.02924 0.29532 0.0
Cd58 Cd 0.07683 0.03391 0.25233 0.0
O59 O 0.11253 0.00172 0.29005 0.0
Cd60 Cd 0.12094 -0.00518 0.24722 0.0
C61 C 0.13331 0.05368 0.23443 0.0
O62 O 0.07877 -0.00506 0.23312 0.0
O63 O 0.10699 -0.00707 0.20563 0.0
O64 O 0.12497 0.95314 0.25847 0.0
C65 C 0.08442 -0.00584 0.21077 0.0
O66 O 0.11062 0.05789 0.23709 0.0
C67 C 0.14746 0.95142 0.25318 0.0
O68 O 0.14207 0.03293 0.23878 0.0
O69 O 0.15764 0.96978 0.24381 0.0
C70 C 0.30048 0.89005 0.4978 0.0
O71 O 0.29229 0.91131 0.49963 0.0
Cd72 Cd 0.25253 0.91895 0.48388 0.0
O73 O 0.28617 0.8723 0.49347 0.0
Cd74 Cd 0.24109 0.8651 0.49486 0.0
C75 C 0.24879 0.87727 0.4362 0.0
O76 O 0.22288 0.9026 0.51083 0.0
O77 O 0.19982 0.87965 0.48835 0.0
O78 O 0.24964 0.84555 0.53274 0.0
C79 C 0.20203 0.89857 0.50142 0.0
O80 O 0.25224 0.89892 0.44362 0.0
C81 C 0.23873 0.82577 0.52794 0.0
O82 O 0.24426 0.86037 0.451 0.0
O83 O 0.22825 0.82392 0.50735 0.0
C84 C 0.4018 -0.00672 0.79568 0.0
O85 O 0.4186 0.98198 0.78446 0.0
Cd86 Cd 0.42238 0.9781 0.74101 0.0
O87 O 0.38506 0.00398 0.78417 0.0
Cd88 Cd 0.37172 0.00956 0.74231 0.0
C89 C 0.36856 0.94842 0.73357 0.0
O90 O 0.41183 0.01636 0.7239 0.0
O91 O 0.38118 0.01259 0.69955 0.0
O92 O 0.35347 0.04727 0.75631 0.0
C93 C 0.40398 0.01572 0.70226 0.0
O94 O 0.39171 0.94705 0.73176 0.0
C95 C 0.33243 0.0425 0.74759 0.0
O96 O 0.35818 0.96835 0.73846 0.0
O97 O 0.32996 0.02281 0.73573 0.0
C98 C 0.28585 0.07637 -0.00647 0.0
O99 O 0.27069 0.06245 0.00386 0.0
Cd100 Cd 0.23057 0.07695 0.01287 0.0
O101 O 0.2793 0.09675 0.98583 0.0
Cd102 Cd 0.24327 0.12124 0.97997 0.0
C103 C 0.24471 0.1318 0.04032 0.0
O104 O 0.21525 0.08826 0.97381 0.0
O105 O 0.19815 0.12309 0.97768 0.0
O106 O 0.25896 0.12278 0.93932 0.0
C107 C 0.19598 0.10071 0.9729 0.0
O108 O 0.23737 0.11009 0.04267 0.0
C109 C 0.25927 0.14558 0.93823 0.0
O110 O 0.24854 0.14035 0.01938 0.0
O111 O 0.25191 0.15733 0.95681 0.0
C112 C 0.79503 0.40248 0.9756 0.0
O113 O 0.78427 0.42064 0.96696 0.0
Cd114 Cd 0.74159 0.42969 0.96835 0.0
O115 O 0.78328 0.38658 0.98737 0.0
Cd116 Cd 0.73988 0.37919 -0.00231 0.0
C117 C 0.72768 0.37865 0.93677 0.0
O118 O 0.72661 0.42011 0.00797 0.0
O119 O 0.69837 0.3934 0.00152 0.0
O120 O 0.75277 0.36115 0.03564 0.0
C121 C 0.70402 0.41485 0.00758 0.0
O122 O 0.72751 0.4016 0.93675 0.0
C123 C 0.7404 0.34182 0.0327 0.0
O124 O 0.73275 0.36716 0.95594 0.0
O125 O 0.72786 0.33979 0.01337 0.0
C126 C 0.89764 0.48682 0.29643 0.0
O127 O 0.91671 0.48071 0.28479 0.0
Cd128 Cd 0.91821 0.47689 0.24123 0.0
O129 O 0.87835 0.49275 0.28534 0.0
Cd130 Cd 0.86295 0.49648 0.24417 0.0
C131 C 0.87162 0.43602 0.24158 0.0
O132 O 0.89906 0.51065 0.22264 0.0
O133 O 0.86997 0.49474 0.20092 0.0
O134 O 0.84646 0.53342 0.26021 0.0
C135 C 0.89052 0.50548 0.20176 0.0
O136 O 0.89388 0.44013 0.23614 0.0
C137 C 0.82502 0.53048 0.25185 0.0
O138 O 0.85696 0.45313 0.24672 0.0
O139 O 0.82081 0.51131 0.23947 0.0
C140 C 0.77643 0.56811 0.50054 0.0
O141 O 0.75751 0.55887 0.5101 0.0
Cd142 Cd 0.72038 0.58117 0.51346 0.0
O143 O 0.77556 0.58889 0.4912 0.0
Cd144 Cd 0.74596 0.62086 0.4831 0.0
C145 C 0.7424 0.63191 0.54309 0.0
O146 O 0.71028 0.59624 0.47395 0.0
O147 O 0.70264 0.63361 0.48225 0.0
O148 O 0.7637 0.62308 0.44274 0.0
C149 C 0.69492 0.61319 0.47478 0.0
O150 O 0.72953 0.6127 0.54412 0.0
C151 C 0.76892 0.64539 0.44419 0.0
O152 O 0.75162 0.63862 0.52309 0.0
O153 O 0.76317 0.65638 0.46375 0.0
C154 C 0.58275 0.50851 0.78005 0.0
O155 O 0.57061 0.51686 0.7625 0.0
Cd156 Cd 0.58033 0.51427 0.72065 0.0
O157 O 0.60279 0.49747 0.77638 0.0
Cd158 Cd 0.62776 0.48606 0.74036 0.0
C159 C 0.6354 0.54433 0.72233 0.0
O160 O 0.59334 0.4737 0.71576 0.0
O161 O 0.6271 0.47743 0.69631 0.0
O162 O 0.63546 0.44804 0.76043 0.0
C163 C 0.60478 0.47118 0.69602 0.0
O164 O 0.61325 0.54357 0.71527 0.0
C165 C 0.6583 0.4479 0.75653 0.0
O166 O 0.64487 0.52654 0.73323 0.0
O167 O 0.66728 0.46616 0.74597 0.0
C168 C 0.97203 0.75631 0.81532 0.0
O169 O 0.98708 0.77161 0.807 0.0
Cd170 Cd 0.02356 0.78074 0.82935 0.0
O171 O 0.97635 0.74581 0.83527 0.0
Cd172 Cd 0.00805 0.74445 0.86754 0.0
C173 C -0.00161 0.80297 0.88191 0.0
O174 O 0.04245 0.74298 0.84026 0.0
O175 O 0.05138 0.75044 0.87789 0.0
O176 O -0.00044 0.70155 0.86712 0.0
C177 C 0.05846 0.74407 0.85687 0.0
O178 O 0.00997 0.80732 0.86241 0.0
C179 C 0.00023 0.69901 0.88992 0.0
O180 O -0.00596 0.78132 0.88807 0.0
O181 O 0.00318 0.71805 0.90276 0.0
C182 C 0.96717 0.25113 0.65512 0.0
O183 O 0.98391 0.24129 0.66735 0.0
Cd184 Cd 0.0222 0.2313 0.64863 0.0
O185 O 0.97047 0.25573 0.63275 0.0
Cd186 Cd 0.00136 0.25219 0.60002 0.0
C187 C 0.00075 0.19209 0.60526 0.0
O188 O 0.03369 0.26645 0.62563 0.0
O189 O 0.04581 0.25053 0.59183 0.0
O190 O 0.97941 0.28643 0.58543 0.0
C191 C 0.05107 0.26229 0.61103 0.0
O192 O 0.01391 0.19442 0.62422 0.0
C193 C 0.98345 0.28238 0.56308 0.0
O194 O -0.00719 0.21042 0.59435 0.0
O195 O -0.00391 0.26404 0.55752 0.0
C196 C 0.47797 0.25024 0.31456 0.0
O197 O 0.4967 0.25747 0.30316 0.0
Cd198 Cd 0.53175 0.26779 0.32671 0.0
O199 O 0.47942 0.24406 0.33672 0.0
Cd200 Cd 0.51022 0.23729 0.36921 0.0
C201 C 0.50238 0.29642 0.37556 0.0
O202 O 0.54627 0.23181 0.34486 0.0
O203 O 0.55287 0.24453 0.38151 0.0
O204 O 0.49923 0.1949 0.37017 0.0
C205 C 0.56146 0.23622 0.36172 0.0
O206 O 0.51469 0.29723 0.35591 0.0
C207 C 0.49808 0.19366 0.39312 0.0
O208 O 0.49748 0.2763 0.38536 0.0
O209 O 0.50114 0.21323 0.40513 0.0
C210 C 0.46196 0.76077 0.14916 0.0
O211 O 0.47636 0.75176 0.16458 0.0
Cd212 Cd 0.5183 0.74184 0.1603 0.0
O213 O 0.46932 0.76588 0.12781 0.0
Cd214 Cd 0.50802 0.76312 0.10354 0.0
C215 C 0.51447 0.70232 0.11173 0.0
O216 O 0.53351 0.77352 0.13644 0.0
O217 O 0.55324 0.76121 0.10496 0.0
O218 O 0.50947 0.80115 0.08312 0.0
C219 C 0.55386 0.76811 0.12702 0.0
O220 O 0.51857 0.70573 0.13429 0.0
C221 C 0.50284 0.79304 0.06249 0.0
O222 O 0.50955 0.71972 0.09772 0.0
O223 O 0.49793 0.77067 0.06064 0.0
C224 C 0.93151 0.98118 0.76857 0.0
O225 O 0.94477 0.97299 0.75151 0.0
Cd226 Cd 0.92248 0.96462 0.71459 0.0
O227 O 0.91004 0.98854 0.76413 0.0
Cd228 Cd 0.88155 -0.00406 0.73068 0.0
C229 C 0.87082 0.93758 0.73818 0.0
O230 O 0.90737 0.0006 0.69537 0.0
O231 O 0.86995 0.98882 0.68892 0.0
O232 O 0.88231 0.0384 0.74085 0.0
C233 C 0.88958 -0.00212 0.68069 0.0
O234 O 0.89121 0.93518 0.72725 0.0
C235 C 0.85935 0.04113 0.73958 0.0
O236 O 0.8623 0.95847 0.74263 0.0
O237 O 0.84637 0.02225 0.73616 0.0
C238 C 0.76881 0.06071 0.48833 0.0
O239 O 0.74967 0.05056 0.49641 0.0
Cd240 Cd 0.71324 0.07268 0.50612 0.0
O241 O 0.76941 0.08342 0.485 0.0
Cd242 Cd 0.74279 0.11959 0.48985 0.0
C243 C 0.73785 0.11068 0.54988 0.0
O244 O 0.70449 0.1017 0.4756 0.0
O245 O 0.70165 0.13501 0.49611 0.0
O246 O 0.76202 0.13121 0.45221 0.0
C247 C 0.69113 0.11871 0.48351 0.0
O248 O 0.7228 0.09398 0.5439 0.0
C249 C 0.76226 0.15375 0.4564 0.0
O250 O 0.75003 0.12203 0.53384 0.0
O251 O 0.75451 0.16084 0.47702 0.0
C252 C 0.57288 -0.00578 0.26205 0.0
O253 O 0.56142 -0.0063 0.24207 0.0
Cd254 Cd 0.58317 0.00492 0.2062 0.0
O255 O 0.59602 -0.0031 0.2627 0.0
Cd256 Cd 0.6326 -0.00101 0.23601 0.0
C257 C 0.61386 0.05549 0.2292 0.0
O258 O 0.61664 0.97801 0.20112 0.0
O259 O 0.6468 0.00207 0.19383 0.0
O260 O 0.64422 0.96573 0.26042 0.0
C261 C 0.63212 0.98593 0.18603 0.0
O262 O 0.59768 0.04626 0.21512 0.0
C263 C 0.66714 0.96889 0.25895 0.0
O264 O 0.62885 0.04232 0.24062 0.0
O265 O 0.67467 0.98749 0.24789 0.0
C266 C 0.76566 0.911 0.01494 0.0
O267 O 0.7527 0.9249 0.0023 0.0
Cd268 Cd 0.71353 0.91441 0.98598 0.0
O269 O 0.75748 0.89046 0.02122 0.0
Cd270 Cd 0.71685 0.86988 0.01719 0.0
C271 C 0.72293 0.85997 0.95732 0.0
O272 O 0.6882 0.90294 0.01921 0.0
O273 O 0.67439 0.86919 0.00432 0.0
O274 O 0.71451 0.865 0.0604 0.0
C275 C 0.66999 0.89009 0.01274 0.0
O276 O 0.7177 0.88218 0.95538 0.0
C277 C 0.71094 0.8424 0.05966 0.0
O278 O 0.72556 0.85068 0.97815 0.0
O279 O 0.7118 0.83203 0.03894 0.0
C280 C 0.26535 0.56694 0.99039 0.0
O281 O 0.24648 0.5571 -0.00059 0.0
Cd282 Cd 0.20952 0.5778 0.00945 0.0
O283 O 0.26551 0.58934 0.98529 0.0
Cd284 Cd 0.23717 0.62474 0.98846 0.0
C285 C 0.23408 0.6196 0.04975 0.0
O286 O 0.1981 0.60596 0.97927 0.0
O287 O 0.19693 0.63953 -0.00024 0.0
O288 O 0.23935 0.63872 0.94714 0.0
C289 C 0.18544 0.62295 0.98836 0.0
O290 O 0.22068 0.60114 0.04542 0.0
C291 C 0.24915 0.65908 0.9517 0.0
O292 O 0.24401 0.63129 0.03245 0.0
O293 O 0.25518 0.66342 0.97366 0.0
C294 C 0.0737 0.48304 0.76843 0.0
O295 O 0.06105 0.49441 0.75316 0.0
Cd296 Cd 0.07853 0.50963 0.71599 0.0
O297 O 0.09619 0.47899 0.7643 0.0
Cd298 Cd 0.12706 0.48837 0.73338 0.0
C299 C 0.11972 0.54811 0.74128 0.0
O300 O 0.10529 0.48108 0.6958 0.0
O301 O 0.13803 0.50325 0.69357 0.0
O302 O 0.14726 0.45009 0.73157 0.0
C303 C 0.12146 0.49113 0.68272 0.0
O304 O 0.10088 0.54643 0.72778 0.0
C305 C 0.16695 0.45728 0.74154 0.0
O306 O 0.13129 0.52942 0.7475 0.0
O307 O 0.16811 0.47913 0.74865 0.0
C308 C 0.27406 0.40225 0.49765 0.0
O309 O 0.26244 0.41481 0.48252 0.0
Cd310 Cd 0.21901 0.41199 0.4755 0.0
O311 O 0.26285 0.38678 0.51048 0.0
Cd312 Cd 0.21993 0.37163 0.51345 0.0
C313 C 0.21737 0.35421 0.45422 0.0
O314 O 0.1964 0.40902 0.51275 0.0
O315 O 0.17622 0.37555 0.50848 0.0
O316 O 0.22512 0.37039 0.55692 0.0
C317 C 0.17584 0.39824 0.51143 0.0
O318 O 0.21385 0.37638 0.44992 0.0
C319 C 0.21937 0.34832 0.55896 0.0
O320 O 0.22196 0.34733 0.4757 0.0
O321 O 0.2145 0.33663 0.53951 0.0
C322 C 0.41576 0.49758 0.27053 0.0
O323 O 0.42796 0.48434 0.25607 0.0
Cd324 Cd 0.40775 0.46816 0.22077 0.0
O325 O 0.39397 0.50344 0.26531 0.0
Cd326 Cd 0.36332 0.49963 0.23272 0.0
C327 C 0.3578 0.44141 0.24773 0.0
O328 O 0.39024 0.50079 0.19827 0.0
O329 O 0.3534 0.48781 0.19097 0.0
O330 O 0.36317 0.54243 0.23557 0.0
C331 C 0.37357 0.49583 0.18293 0.0
O332 O 0.37834 0.43919 0.23707 0.0
C333 C 0.34021 0.54515 0.23592 0.0
O334 O 0.34774 0.46199 0.24974 0.0
O335 O 0.32709 0.52609 0.23639 0.0
O336 O 0.94968 0.0123 0.9467 0.0
Mg337 Mg 0.94192 0.02799 0.98094 0.0
O338 O 0.97945 0.98852 0.9593 0.0
Mg339 Mg 0.98577 -0.00458 0.00071 0.0
O340 O 0.97355 0.0348 -0.00079 0.0
O341 O 0.94867 0.06406 0.98819 0.0
O342 O -0.00759 0.00224 0.04235 0.0
O343 O 0.02424 0.01029 -0.00902 0.0
Mg344 Mg 0.02899 0.96114 0.02188 0.0
O345 O -0.00129 0.95653 0.00123 0.0
O346 O 0.01696 0.97365 0.05602 0.0
O347 O 0.05274 0.98432 0.00207 0.0
O348 O 0.02202 0.92572 0.01084 0.0
C349 C 0.92511 0.98789 0.01278 0.0
C350 C 0.96571 -0.00362 0.94256 0.0
C351 C 0.96815 0.05749 -0.00063 0.0
C352 C 0.00309 0.99154 0.05971 0.0
C353 C 0.04653 0.00378 -0.00806 0.0
C354 C 0.00339 0.93379 -0.00068 0.0
O355 O 0.91914 0.00802 0.00407 0.0
O356 O 0.94698 0.98008 0.01117 0.0
O357 O 0.2784 0.77079 0.30034 0.0
Mg358 Mg 0.26378 0.73546 0.29735 0.0
O359 O 0.25546 0.78333 0.26996 0.0
Mg360 Mg 0.24623 0.75164 0.24274 0.0
O361 O 0.26807 0.72436 0.26269 0.0
O362 O 0.28577 0.70496 0.29241 0.0
O363 O 0.23633 0.72077 0.21466 0.0
O364 O 0.28037 0.76073 0.22018 0.0
Mg365 Mg 0.2307 0.77191 0.1873 0.0
O366 O 0.22547 0.77878 0.22271 0.0
O367 O 0.21654 0.73645 0.18328 0.0
O368 O 0.26988 0.77427 0.18373 0.0
O369 O 0.20952 0.80281 0.1961 0.0
C370 C 0.20784 0.73488 0.28706 0.0
C371 C 0.26867 0.78773 0.28866 0.0
C372 C 0.28085 0.70642 0.26964 0.0
C373 C 0.22409 0.71836 0.19494 0.0
C374 C 0.28609 0.76859 0.19922 0.0
C375 C 0.21362 0.79802 0.21849 0.0
O376 O 0.22511 0.73166 0.30219 0.0
O377 O 0.21199 0.74193 0.26543 0.0
O378 O 0.54832 0.97567 0.44213 0.0
Mg379 Mg 0.55837 0.97632 0.47951 0.0
O380 O 0.50994 0.98854 0.44616 0.0
Mg381 Mg 0.50035 0.99122 0.48724 0.0
O382 O 0.52846 0.96326 0.49635 0.0
O383 O 0.56344 0.94405 0.4979 0.0
O384 O 0.49068 -0.0056 0.52826 0.0
O385 O 0.47309 0.95874 0.48248 0.0
Mg386 Mg 0.44176 0.00712 0.49406 0.0
O387 O 0.47239 0.0188 0.478 0.0
O388 O 0.45209 0.00717 0.5314 0.0
O389 O 0.43527 0.97265 0.47812 0.0
O390 O 0.43866 0.0398 0.47525 0.0
C391 C 0.54975 0.02753 0.49662 0.0
C392 C 0.52803 0.98196 0.43303 0.0
C393 C 0.54051 0.94473 0.50324 0.0
C394 C 0.47229 0.00112 0.5409 0.0
C395 C 0.45045 0.95544 0.47769 0.0
C396 C 0.46158 0.03772 0.47046 0.0
O397 O 0.5653 0.01069 0.49546 0.0
O398 O 0.52712 0.02381 0.49226 0.0
O399 O 0.3033 0.23882 0.75561 0.0
Mg400 Mg 0.28665 0.2272 0.72243 0.0
O401 O 0.26991 0.24682 0.77772 0.0
Mg402 Mg 0.23588 0.24638 0.75304 0.0
O403 O 0.25866 0.24989 0.72049 0.0
O404 O 0.28462 0.24838 0.69043 0.0
O405 O 0.20184 0.24784 0.72838 0.0
O406 O 0.23511 0.288 0.75744 0.0
Mg407 Mg 0.18594 0.26614 0.78583 0.0
O408 O 0.21295 0.24272 0.78481 0.0
O409 O 0.16986 0.25949 0.751 0.0
O410 O 0.2072 0.29861 0.78534 0.0
O411 O 0.18842 0.24158 0.81577 0.0
C412 C 0.24914 0.18843 0.738 0.0
C413 C 0.293 0.24461 0.77557 0.0
C414 C 0.26485 0.25708 0.69949 0.0
C415 C 0.17932 0.25339 0.73065 0.0
C416 C 0.22488 0.3038 0.77118 0.0
C417 C 0.20785 0.2338 0.80528 0.0
O418 O 0.26773 0.19369 0.72515 0.0
O419 O 0.23698 0.2044 0.74976 0.0
O420 O -0.00141 0.92279 0.50573 0.0
Mg421 Mg 0.00224 0.94709 0.53575 0.0
O422 O -0.0081 0.948 0.47516 0.0
Mg423 Mg -0.01042 0.98671 0.49106 0.0
O424 O 0.97902 0.97275 0.52632 0.0
O425 O 0.97299 0.95414 0.56038 0.0
O426 O 0.98814 0.02499 0.50734 0.0
O427 O 0.94728 0.98861 0.4819 0.0
Mg428 Mg 0.97525 0.02593 0.4482 0.0
O429 O 0.00072 0.0012 0.45559 0.0
O430 O 0.9783 0.05066 0.47821 0.0
O431 O 0.94178 0.00689 0.44672 0.0
O432 O 0.00326 0.0221 0.42221 0.0
C433 C 0.04507 0.97726 0.5177 0.0
C434 C -0.00466 0.92679 0.48325 0.0
C435 C 0.96607 0.97019 0.54533 0.0
C436 C 0.98357 0.04626 0.50021 0.0
C437 C 0.93333 -0.00471 0.4646 0.0
C438 C 0.01256 0.00629 0.43627 0.0
O439 O 0.03669 0.96544 0.53556 0.0
O440 O 0.03116 0.9844 0.50059 0.0
O441 O 0.28676 0.72627 0.79019 0.0
Mg442 Mg 0.28399 0.705 0.75802 0.0
O443 O 0.25217 0.74562 0.78284 0.0
Mg444 Mg 0.24434 0.74666 0.7406 0.0
O445 O 0.27902 0.7286 0.73116 0.0
O446 O 0.3106 0.70455 0.73023 0.0
O447 O 0.23618 0.74743 0.69866 0.0
O448 O 0.26333 0.78407 0.73776 0.0
Mg449 Mg 0.20261 0.78813 0.72427 0.0
O450 O 0.20961 0.76397 0.74966 0.0
O451 O 0.20171 0.76725 0.6915 0.0
O452 O 0.23439 0.81025 0.7274 0.0
O453 O 0.17679 0.78588 0.75314 0.0
C454 C 0.23013 0.68871 0.7501 0.0
C455 C 0.26885 0.73887 0.79755 0.0
C456 C 0.29823 0.72128 0.72011 0.0
C457 C 0.21938 0.75425 0.68415 0.0
C458 C 0.25649 0.80541 0.73261 0.0
C459 C 0.19056 0.76946 0.76186 0.0
O460 O 0.25171 0.68297 0.75638 0.0
O461 O 0.22486 0.70999 0.74347 0.0
O462 O 0.46104 0.9519 0.03425 0.0
Mg463 Mg 0.46294 0.98292 0.05774 0.0
O464 O 0.48506 0.96449 0.00395 0.0
Mg465 Mg 0.48991 0.00614 0.00635 0.0
O466 O 0.46088 0.00852 0.03314 0.0
O467 O 0.43228 0.00696 0.06044 0.0
O468 O 0.49401 0.04816 0.00855 0.0
O469 O 0.46185 0.00948 0.97552 0.0
Mg470 Mg 0.51711 0.03061 0.95622 0.0
O471 O 0.51916 0.00366 0.9794 0.0
O472 O 0.52069 0.06057 0.98055 0.0
O473 O 0.48047 0.02594 0.94349 0.0
O474 O 0.54546 0.00458 0.94974 0.0
C475 C 0.51859 -0.00512 0.05906 0.0
C476 C 0.47276 0.94798 0.01457 0.0
C477 C 0.44042 0.01621 0.04076 0.0
C478 C 0.5072 0.06466 -0.00102 0.0
C479 C 0.46153 0.01748 0.95393 0.0
C480 C 0.53756 -0.00581 0.96893 0.0
O481 O 0.4994 0.98828 0.07041 0.0
O482 O 0.51815 0.00183 0.03707 0.0
O483 O 0.24594 0.26001 0.18289 0.0
Mg484 Mg 0.22918 0.28282 0.20956 0.0
O485 O 0.25558 0.23101 0.20846 0.0
Mg486 Mg 0.24961 0.24315 0.24845 0.0
O487 O 0.25047 0.28277 0.23946 0.0
O488 O 0.24281 0.31654 0.22027 0.0
O489 O 0.2429 0.25467 0.28864 0.0
O490 O 0.29198 0.24656 0.25304 0.0
Mg491 Mg 0.27163 0.20361 0.28713 0.0
O492 O 0.24972 0.20374 0.25753 0.0
O493 O 0.25426 0.22588 0.31383 0.0
O494 O 0.30592 0.21581 0.27449 0.0
O495 O 0.25813 0.16984 0.27599 0.0
C496 C 0.19014 0.25248 0.23384 0.0
C497 C 0.25401 0.23901 0.18692 0.0
C498 C 0.25357 0.30575 0.23777 0.0
C499 C 0.24477 0.24635 0.31007 0.0
C500 C 0.30954 0.23442 0.26183 0.0
C501 C 0.24703 0.18072 0.25876 0.0
O502 O 0.19466 0.27117 0.22158 0.0
O503 O 0.2071 0.23984 0.24313 0.0
O504 O 0.44352 0.53133 0.98064 0.0
Mg505 Mg 0.48128 0.53358 0.97565 0.0
O506 O 0.44814 0.4946 -0.00585 0.0
Mg507 Mg 0.49116 0.4944 -0.00062 0.0
O508 O 0.50039 0.50662 0.95899 0.0
O509 O 0.48621 0.53967 0.94057 0.0
O510 O 0.53341 0.49334 0.0055 0.0
O511 O 0.49289 0.45601 0.9822 0.0
Mg512 Mg 0.50985 0.45573 0.04204 0.0
O513 O 0.48316 0.47875 0.03491 0.0
O514 O 0.54162 0.47802 0.04169 0.0
O515 O 0.50712 0.43209 0.01125 0.0
O516 O 0.48119 0.45767 0.06802 0.0
C517 C 0.50149 0.55219 0.01657 0.0
C518 C 0.43431 0.51168 0.98752 0.0
C519 C 0.49847 0.51995 0.93983 0.0
C520 C 0.54842 0.48889 0.02265 0.0
C521 C 0.50007 0.43543 0.98951 0.0
C522 C 0.47134 0.47318 0.05402 0.0
O523 O 0.50242 0.55811 -0.00531 0.0
O524 O 0.49303 0.53147 0.02202 0.0
O525 O 0.76155 0.19282 0.27925 0.0
Mg526 Mg 0.75443 0.18465 0.24184 0.0
O527 O 0.74813 0.23076 0.28241 0.0
Mg528 Mg 0.7406 0.24425 0.24305 0.0
O529 O 0.76431 0.21587 0.22709 0.0
O530 O 0.78307 0.18291 0.21568 0.0
O531 O 0.7344 0.2567 0.20334 0.0
O532 O 0.77457 0.26926 0.24665 0.0
Mg533 Mg 0.72349 0.30189 0.23817 0.0
O534 O 0.71684 0.27304 0.25891 0.0
O535 O 0.7138 0.29108 0.20216 0.0
O536 O 0.76151 0.30725 0.24379 0.0
O537 O 0.69824 0.30714 0.26677 0.0
C538 C 0.70075 0.19785 0.23388 0.0
C539 C 0.75693 0.21174 0.29183 0.0
C540 C 0.78122 0.20596 0.21446 0.0
C541 C 0.72315 0.27285 0.19156 0.0
C542 C 0.77847 0.29198 0.24652 0.0
C543 C 0.70186 0.28498 0.27229 0.0
O544 O 0.71701 0.18166 0.23235 0.0
O545 O 0.70583 0.21985 0.23903 0.0
O546 O 0.97337 0.45178 0.54556 0.0
Mg547 Mg 0.975 0.48724 0.56072 0.0
O548 O 0.98357 0.4592 0.50708 0.0
Mg549 Mg 0.98499 0.50073 0.50314 0.0
O550 O 0.95878 0.5059 0.53425 0.0
O551 O 0.94228 0.50412 0.57058 0.0
O552 O 0.98518 0.54222 0.49906 0.0
O553 O 0.95206 0.49678 0.47691 0.0
Mg554 Mg 0.00241 0.51815 0.44605 0.0
O555 O 0.01091 0.49651 0.47306 0.0
O556 O 0.0027 0.55247 0.46396 0.0
O557 O 0.96621 0.50518 0.43968 0.0
O558 O 0.03564 0.49796 0.44218 0.0
C559 C 0.02548 0.50586 0.54947 0.0
C560 C 0.97774 0.44467 0.52392 0.0
C561 C 0.94062 0.51071 0.54832 0.0
C562 C -0.00661 0.558 0.48447 0.0
C563 C 0.94917 0.49865 0.45401 0.0
C564 C 0.03092 0.48977 0.46337 0.0
O565 O 0.01014 0.50256 0.56639 0.0
O566 O 0.01951 0.50407 0.52721 0.0
O567 O 0.69469 0.78836 0.28825 0.0
Mg568 Mg 0.68959 0.75181 0.29752 0.0
O569 O 0.72437 0.78712 0.26031 0.0
Mg570 Mg 0.73644 0.7463 0.25758 0.0
O571 O 0.72428 0.74081 0.29514 0.0
O572 O 0.70525 0.73843 0.32995 0.0
O573 O 0.74773 0.70572 0.25632 0.0
O574 O 0.77453 0.75821 0.2722 0.0
Mg575 Mg 0.78068 0.7353 0.21673 0.0
O576 O 0.74756 0.7505 0.21895 0.0
O577 O 0.77389 0.69879 0.22594 0.0
O578 O 0.80139 0.75646 0.24169 0.0
O579 O 0.76702 0.74869 0.18407 0.0
C580 C 0.67737 0.72918 0.24868 0.0
C581 C 0.70891 0.79887 0.27337 0.0
C582 C 0.72493 0.73534 0.31754 0.0
C583 C 0.76054 0.69137 0.24321 0.0
C584 C 0.79575 0.76231 0.26338 0.0
C585 C 0.74782 0.75475 0.19615 0.0
O586 O 0.67014 0.73125 0.27058 0.0
O587 O 0.69905 0.73502 0.24254 0.0
O588 O 0.75884 0.24681 0.81302 0.0
Mg589 Mg 0.75063 0.2119 0.79984 0.0
O590 O 0.75286 0.26707 0.77899 0.0
Mg591 Mg 0.74856 0.23941 0.74686 0.0
O592 O 0.76673 0.20965 0.76719 0.0
O593 O 0.77711 0.18521 0.79661 0.0
O594 O 0.74463 0.20997 0.71603 0.0
O595 O 0.7868 0.24964 0.73213 0.0
Mg596 Mg 0.74013 0.2571 0.69461 0.0
O597 O 0.73182 0.27168 0.72736 0.0
O598 O 0.72076 0.22474 0.68795 0.0
O599 O 0.77926 0.25735 0.69331 0.0
O600 O 0.72186 0.28931 0.69286 0.0
C601 C 0.70027 0.21425 0.77614 0.0
C602 C 0.75724 0.26655 0.80176 0.0
C603 C 0.77945 0.19173 0.77439 0.0
C604 C 0.73094 0.2069 0.69753 0.0
C605 C 0.7942 0.25493 0.71083 0.0
C606 C 0.7224 0.28978 0.71626 0.0
O607 O 0.71333 0.20457 0.79232 0.0
O608 O 0.70949 0.22823 0.76023 0.0
O609 O 0.739 0.76215 0.68504 0.0
Mg610 Mg 0.72643 0.78657 0.71258 0.0
O611 O 0.74854 0.73275 0.71019 0.0
Mg612 Mg 0.74347 0.74557 0.75005 0.0
O613 O 0.75006 0.78507 0.7409 0.0
O614 O 0.74436 0.81871 0.7204 0.0
O615 O 0.73775 0.75886 0.7901 0.0
O616 O 0.78607 0.74299 0.75556 0.0
Mg617 Mg 0.75687 0.70478 0.78985 0.0
O618 O 0.73744 0.70601 0.75863 0.0
O619 O 0.74108 0.72858 0.81571 0.0
O620 O 0.79333 0.71222 0.77995 0.0
O621 O 0.74071 0.67229 0.77934 0.0
C622 C 0.68477 0.76198 0.7371 0.0
C623 C 0.74646 0.74087 0.68874 0.0
C624 C 0.75546 0.80749 0.73742 0.0
C625 C 0.73646 0.75052 0.81156 0.0
C626 C 0.8009 0.72907 0.76645 0.0
C627 C 0.73247 0.68333 0.76068 0.0
O628 O 0.69083 0.78091 0.72592 0.0
O629 O 0.70082 0.74729 0.74474 0.0
O630 O 0.55538 0.49953 0.4704 0.0
Mg631 Mg 0.54117 0.46682 0.48396 0.0
O632 O 0.52358 0.52167 0.48183 0.0
Mg633 Mg 0.49018 0.49645 0.491 0.0
O634 O 0.50622 0.46337 0.47248 0.0
O635 O 0.53462 0.43715 0.46146 0.0
O636 O 0.45612 0.4717 0.50018 0.0
O637 O 0.47352 0.50576 0.45406 0.0
Mg638 Mg 0.43853 0.52687 0.49782 0.0
O639 O 0.47389 0.52956 0.50806 0.0
O640 O 0.42531 0.49455 0.51317 0.0
O641 O 0.43979 0.52749 0.45896 0.0
O642 O 0.44762 0.55759 0.5188 0.0
C643 C 0.52459 0.47418 0.53629 0.0
C644 C 0.54529 0.51986 0.47347 0.0
C645 C 0.51215 0.44389 0.46088 0.0
C646 C 0.43477 0.47399 0.50949 0.0
C647 C 0.45557 0.51731 0.44531 0.0
C648 C 0.46974 0.54985 0.5188 0.0
O649 O 0.53942 0.46349 0.5221 0.0
O650 O 0.50722 0.4872 0.5284 0.0
O651 O 0.0531 0.47581 0.95923 0.0
Mg652 Mg 0.05468 0.4777 -0.00178 0.0
O653 O 0.01556 0.49004 0.95329 0.0
Mg654 Mg -0.0032 0.49626 0.9905 0.0
O655 O 0.0203 0.46875 0.00726 0.0
O656 O 0.0504 0.44632 0.01963 0.0
O657 O 0.97864 0.50199 0.0282 0.0
O658 O 0.97017 0.46462 0.98077 0.0
Mg659 Mg 0.93976 0.51532 0.98585 0.0
O660 O 0.97318 0.52448 0.97342 0.0
O661 O 0.94242 0.5196 0.02426 0.0
O662 O 0.93369 0.47995 0.97224 0.0
O663 O 0.9406 0.54508 0.96299 0.0
C664 C 0.04492 0.53066 0.00936 0.0
C665 C 0.03587 0.48204 0.94511 0.0
C666 C 0.02725 0.44996 0.01845 0.0
C667 C 0.95955 0.5116 0.03738 0.0
C668 C 0.94823 0.46226 0.97326 0.0
C669 C 0.96393 0.54236 0.96212 0.0
O670 O 0.05916 0.5131 0.01319 0.0
O671 O 0.02381 0.52757 -0.00012 0.0
H672 H -0.00064 0.19692 0.05718 0.0
H673 H -0.0071 0.05343 0.04248 0.0
H674 H 0.00733 0.14842 0.11713 0.0
H675 H 0.97572 0.10368 0.98624 0.0
H676 H 0.00769 0.08729 0.06802 0.0
H677 H -0.00043 0.16242 0.02926 0.0
C678 C 0.00125 0.17903 0.0645 0.0
C679 C 0.00285 0.17559 0.08961 0.0
C680 C 0.00114 0.09081 0.04989 0.0
C681 C 0.00308 0.13584 0.05763 0.0
C682 C -0.00707 0.07148 0.03527 0.0
C683 C 0.98279 0.07592 0.01245 0.0
C684 C -0.00075 0.11453 0.0414 0.0
C685 C 0.98307 0.09959 0.00393 0.0
C686 C 0.00146 0.15929 0.04851 0.0
C687 C 0.00571 0.15193 0.09794 0.0
N688 N -0.00913 0.11801 0.01849 0.0
N689 N 0.00543 0.13293 0.08201 0.0
H690 H 0.05032 0.72213 0.29996 0.0
H691 H 0.19267 0.71715 0.33055 0.0
H692 H 0.08006 0.6935 0.36595 0.0
H693 H 0.16521 0.73979 0.26112 0.0
H694 H 0.15124 0.70723 0.3429 0.0
H695 H 0.0919 0.72639 0.28399 0.0
C696 C 0.06555 0.71637 0.31092 0.0
C697 C 0.06178 0.70777 0.33445 0.0
C698 C 0.15421 0.71427 0.32491 0.0
C699 C 0.10925 0.71287 0.31647 0.0
C700 C 0.17793 0.72007 0.31785 0.0
C701 C 0.1825 0.72938 0.29474 0.0
C702 C 0.13475 0.71787 0.30884 0.0
C703 C 0.16256 0.73269 0.27913 0.0
C704 C 0.08927 0.71893 0.30184 0.0
C705 C 0.08214 0.7005 0.34783 0.0
N706 N 0.13951 0.72701 0.2865 0.0
N707 N 0.10499 0.70346 0.33875 0.0
H708 H 0.47754 0.83988 0.6012 0.0
H709 H 0.49764 0.94245 0.52976 0.0
H710 H 0.51315 0.80142 0.54256 0.0
H711 H 0.55641 0.8989 0.50138 0.0
H712 H 0.48039 0.90636 0.54914 0.0
H713 H 0.48321 0.87749 0.57922 0.0
C714 C 0.48619 0.83929 0.58352 0.0
C715 C 0.49524 0.81753 0.57384 0.0
C716 C 0.49712 0.90482 0.53877 0.0
C717 C 0.50146 0.86039 0.54848 0.0
C718 C 0.50685 0.92534 0.52763 0.0
C719 C 0.52872 0.92368 0.51442 0.0
C720 C 0.50927 0.88264 0.53621 0.0
C721 C 0.53981 0.90109 0.51185 0.0
C722 C 0.48921 0.86077 0.57088 0.0
C723 C 0.50617 0.81779 0.55085 0.0
N724 N 0.52995 0.88153 0.52259 0.0
N725 N 0.50931 0.83893 0.53915 0.0
H726 H 0.42684 0.2936 0.82018 0.0
H727 H 0.30971 0.21456 0.81011 0.0
H728 H 0.41622 0.23055 0.86398 0.0
H729 H 0.31291 0.28803 0.78619 0.0
H730 H 0.34534 0.22245 0.83608 0.0
H731 H 0.38297 0.29482 0.81294 0.0
C732 C 0.41521 0.28013 0.82845 0.0
C733 C 0.42519 0.26158 0.84216 0.0
C734 C 0.33783 0.2371 0.82576 0.0
C735 C 0.37498 0.26269 0.8338 0.0
C736 C 0.3175 0.23257 0.81106 0.0
C737 C 0.30877 0.25069 0.79609 0.0
C738 C 0.3497 0.25965 0.82472 0.0
C739 C 0.31938 0.27367 0.79755 0.0
C740 C 0.39011 0.28093 0.82449 0.0
C741 C 0.40926 0.24493 0.85295 0.0
N742 N 0.33968 0.2774 0.81124 0.0
N743 N 0.38494 0.24554 0.84807 0.0
H744 H 0.02453 0.83378 0.35884 0.0
H745 H -0.00341 0.87912 0.49388 0.0
H746 H 0.02637 0.78895 0.4221 0.0
H747 H 0.00212 0.92802 0.43382 0.0
H748 H 0.00762 0.84605 0.46694 0.0
H749 H 0.0188 0.86919 0.3854 0.0
C750 C 0.02439 0.83149 0.37832 0.0
C751 C 0.02557 0.80845 0.38836 0.0
C752 C 0.00644 0.86398 0.45955 0.0
C753 C 0.01851 0.84848 0.41857 0.0
C754 C -6e-05 0.8829 0.47493 0.0
C755 C -0.00149 0.90641 0.46611 0.0
C756 C 0.01152 0.86848 0.43507 0.0
C757 C 0.00293 0.91013 0.44134 0.0
C758 C 0.02084 0.85163 0.39343 0.0
C759 C 0.02515 0.80639 0.41364 0.0
N760 N 0.00933 0.89131 0.42663 0.0
N761 N 0.02137 0.8261 0.42785 0.0
H762 H 0.41012 0.77459 0.63622 0.0
H763 H 0.29849 0.69516 0.67858 0.0
H764 H 0.40504 0.69702 0.63685 0.0
H765 H 0.31549 0.7657 0.70794 0.0
H766 H 0.32587 0.70281 0.64447 0.0
H767 H 0.36599 0.77675 0.64465 0.0
C768 C 0.39952 0.75806 0.63733 0.0
C769 C 0.41107 0.73558 0.63648 0.0
C770 C 0.32291 0.71701 0.65784 0.0
C771 C 0.36108 0.73792 0.64549 0.0
C772 C 0.30724 0.71269 0.6772 0.0
C773 C 0.30536 0.72967 0.69612 0.0
C774 C 0.33728 0.73809 0.65804 0.0
C775 C 0.31687 0.75211 0.69369 0.0
C776 C 0.37445 0.75932 0.64208 0.0
C777 C 0.39676 0.71467 0.63793 0.0
N778 N 0.33307 0.75546 0.67529 0.0
N779 N 0.37252 0.71634 0.64263 0.0
H780 H 0.45633 0.17508 0.92753 0.0
H781 H 0.54047 0.10096 0.00512 0.0
H782 H 0.5218 0.20673 0.9584 0.0
H783 H 0.46306 0.0862 0.0033 0.0
H784 H 0.5325 0.14285 -0.00487 0.0
H785 H 0.45591 0.14545 0.95988 0.0
C786 C 0.47038 0.17603 0.94135 0.0
C787 C 0.48946 0.19299 0.93996 0.0
C788 C 0.51713 0.13076 -0.00219 0.0
C789 C 0.48924 0.15906 0.97687 0.0
C790 C 0.52171 0.10688 0.00373 0.0
C791 C 0.50242 0.09015 0.00465 0.0
C792 C 0.4932 0.13756 -0.00808 0.0
C793 C 0.47844 0.0986 0.00259 0.0
C794 C 0.47004 0.15924 0.95995 0.0
C795 C 0.50698 0.19368 0.95856 0.0
N796 N 0.47452 0.12157 -0.00461 0.0
N797 N 0.50681 0.17656 0.97591 0.0
H798 H 0.04055 0.2697 0.19816 0.0
H799 H 0.17313 0.21248 0.21069 0.0
H800 H 0.0802 0.23585 0.1393 0.0
H801 H 0.15015 0.27452 0.25251 0.0
H802 H 0.13203 0.20924 0.19317 0.0
H803 H 0.07482 0.26145 0.22543 0.0
C804 C 0.05646 0.26051 0.19101 0.0
C805 C 0.05779 0.25376 0.1664 0.0
C806 C 0.13577 0.22301 0.20686 0.0
C807 C 0.09641 0.24359 0.19755 0.0
C808 C 0.15902 0.22457 0.2172 0.0
C809 C 0.16484 0.24377 0.23303 0.0
C810 C 0.1184 0.24068 0.21266 0.0
C811 C 0.14619 0.25942 0.24041 0.0
C812 C 0.07584 0.25568 0.20658 0.0
C813 C 0.07866 0.24171 0.15807 0.0
N814 N 0.12381 0.25779 0.22985 0.0
N815 N 0.09718 0.23697 0.17364 0.0
H816 H 0.0358 0.98174 0.20948 0.0
H817 H 0.02106 0.03434 0.07638 0.0
H818 H 0.09207 0.01859 0.16923 0.0
H819 H 0.98529 0.96907 0.0993 0.0
H820 H 0.03545 0.0413 0.11807 0.0
H821 H 0.00713 0.98853 0.17581 0.0
C822 C 0.04197 0.99149 0.19371 0.0
C823 C 0.06637 -0.00084 0.19176 0.0
C824 C 0.02363 0.02597 0.11414 0.0
C825 C 0.03377 0.00773 0.15403 0.0
C826 C 0.01516 0.02219 0.09048 0.0
C827 C 0.00212 0.00108 0.0846 0.0
C828 C 0.01885 0.00853 0.13179 0.0
C829 C -0.00463 0.98554 0.10331 0.0
C830 C 0.02566 -0.00454 0.17468 0.0
C831 C 0.07352 0.01192 0.17115 0.0
N832 N 0.00418 0.98933 0.12609 0.0
N833 N 0.05732 0.01574 0.15305 0.0
H834 H 0.28413 0.89228 0.40483 0.0
H835 H 0.22936 0.81714 0.2929 0.0
H836 H 0.2182 0.84938 0.40856 0.0
H837 H 0.30502 0.81117 0.31369 0.0
H838 H 0.22353 0.84701 0.32563 0.0
H839 H 0.28958 0.87883 0.36232 0.0
C840 C 0.27057 0.88045 0.3965 0.0
C841 C 0.25086 0.87159 0.41012 0.0
C842 C 0.24159 0.83979 0.32235 0.0
C843 C 0.25646 0.85711 0.36177 0.0
C844 C 0.24502 0.82297 0.30357 0.0
C845 C 0.26764 0.81149 0.3009 0.0
C846 C 0.26105 0.84543 0.33805 0.0
C847 C 0.28725 0.81948 0.3154 0.0
C848 C 0.27367 0.8729 0.37238 0.0
C849 C 0.23379 0.8563 0.39867 0.0
N850 N 0.28344 0.83577 0.33366 0.0
N851 N 0.23698 0.84952 0.3751 0.0
H852 H 0.4005 0.97967 0.66913 0.0
H853 H 0.47852 0.04001 0.57071 0.0
H854 H 0.44474 0.04159 0.68883 0.0
H855 H 0.46706 0.96311 0.57067 0.0
H856 H 0.46868 0.04167 0.6142 0.0
H857 H 0.42562 0.97344 0.63303 0.0
C858 C 0.41565 -0.0081 0.66581 0.0
C859 C 0.42045 0.01135 0.68163 0.0
C860 C 0.46911 0.02434 0.60488 0.0
C861 C 0.44911 0.00451 0.64031 0.0
C862 C 0.47476 0.0234 0.58017 0.0
C863 C 0.47362 0.00138 0.56741 0.0
C864 C 0.4615 0.00321 0.61647 0.0
C865 C 0.46823 0.98037 0.5801 0.0
C866 C 0.43013 0.9882 0.64538 0.0
C867 C 0.44046 0.02649 0.67684 0.0
N868 N 0.46182 0.98185 0.60389 0.0
N869 N 0.45382 0.02309 0.6562 0.0
H870 H 0.26932 0.19331 0.9313 0.0
H871 H 0.25175 0.2472 0.82311 0.0
H872 H 0.26171 0.12512 0.8931 0.0
H873 H 0.20236 0.18656 0.81641 0.0
H874 H 0.27704 0.22416 0.8511 0.0
H875 H 0.26789 0.2139 0.89254 0.0
C876 C 0.26805 0.18267 0.91469 0.0
C877 C 0.26489 0.15761 0.91534 0.0
C878 C 0.26099 0.21574 0.84303 0.0
C879 C 0.26318 0.18087 0.87117 0.0
C880 C 0.24673 0.22873 0.82703 0.0
C881 C 0.22506 0.21859 0.81786 0.0
C882 C 0.25325 0.19264 0.84976 0.0
C883 C 0.21889 0.19488 0.8235 0.0
C884 C 0.2675 0.19438 0.89254 0.0
C885 C 0.26369 0.14456 0.89335 0.0
N886 N 0.23289 0.18267 0.83936 0.0
N887 N 0.26195 0.15643 0.87212 0.0
H888 H 0.10678 0.97186 0.32634 0.0
H889 H 0.05444 0.02969 0.44676 0.0
H890 H 0.09269 0.0471 0.34097 0.0
H891 H 0.02593 0.9649 0.41293 0.0
H892 H 0.09044 0.02727 0.42054 0.0
H893 H 0.09814 0.96314 0.36905 0.0
C894 C 0.10269 0.98665 0.33874 0.0
C895 C 0.09976 0.01016 0.33017 0.0
C896 C 0.07695 0.01287 0.41977 0.0
C897 C 0.09079 0.00038 0.37873 0.0
C898 C 0.05652 0.01415 0.43479 0.0
C899 C 0.03722 -0.00228 0.43145 0.0
C900 C 0.07764 -0.0048 0.40133 0.0
C901 C 0.04048 0.97801 0.4157 0.0
C902 C 0.09791 0.98163 0.36302 0.0
C903 C 0.09455 0.02867 0.34684 0.0
N904 N 0.06009 0.97762 0.40059 0.0
N905 N 0.08994 0.02334 0.37035 0.0
H906 H 0.20578 0.7881 0.5317 0.0
H907 H 0.18405 0.75166 0.6492 0.0
H908 H 0.26972 0.81949 0.5658 0.0
H909 H 0.26228 0.75254 0.65865 0.0
H910 H 0.18965 0.76085 0.60643 0.0
H911 H 0.20176 0.76037 0.56588 0.0
C912 C 0.21912 0.78896 0.54621 0.0
C913 C 0.23776 0.8065 0.54623 0.0
C914 C 0.20567 0.75812 0.61752 0.0
C915 C 0.23321 0.77512 0.58533 0.0
C916 C 0.20245 0.75293 0.64204 0.0
C917 C 0.22271 0.75163 0.65758 0.0
C918 C 0.22932 0.76253 0.60859 0.0
C919 C 0.24614 0.75345 0.64735 0.0
C920 C 0.21672 0.77326 0.56578 0.0
C921 C 0.25473 0.80662 0.56532 0.0
N922 N 0.24878 0.75955 0.62366 0.0
N923 N 0.25195 0.79133 0.58414 0.0
H924 H 0.42252 0.96146 0.82664 0.0
H925 H 0.43749 0.05149 0.92881 0.0
H926 H 0.38044 0.0269 0.8254 0.0
H927 H 0.43745 0.97561 0.94422 0.0
H928 H 0.41203 0.04327 0.89315 0.0
H929 H 0.42536 0.96534 0.87077 0.0
C930 C 0.41371 0.97653 0.8357 0.0
C931 C 0.40171 -0.00583 0.82239 0.0
C932 C 0.4168 0.02848 0.9048 0.0
C933 C 0.40489 -0.00126 0.8727 0.0
C934 C 0.43125 0.03321 0.92512 0.0
C935 C 0.43967 0.01411 0.93903 0.0
C936 C 0.41177 0.00446 0.89799 0.0
C937 C 0.43131 0.99072 0.93369 0.0
C938 C 0.41504 0.97856 0.86089 0.0
C939 C 0.39017 0.01308 0.83502 0.0
N940 N 0.41845 0.98637 0.91298 0.0
N941 N 0.39256 0.01522 0.85949 0.0
H942 H 0.25929 0.17911 0.04187 0.0
H943 H 0.25765 0.18972 0.18684 0.0
H944 H 0.24116 0.11962 0.0884 0.0
H945 H 0.26052 0.25085 0.13932 0.0
H946 H 0.25876 0.16278 0.15127 0.0
H947 H 0.26634 0.2045 0.07772 0.0
C948 C 0.25678 0.17134 0.05962 0.0
C949 C 0.24932 0.14722 0.06207 0.0
C950 C 0.25942 0.18209 0.14867 0.0
C951 C 0.25754 0.1763 0.1033 0.0
C952 C 0.25897 0.1975 0.16897 0.0
C953 C 0.25877 0.22262 0.16604 0.0
C954 C 0.25983 0.19187 0.12532 0.0
C955 C 0.26039 0.23162 0.14243 0.0
C956 C 0.26086 0.18588 0.0801 0.0
C957 C 0.24664 0.13817 0.0856 0.0
N958 N 0.26069 0.21627 0.123 0.0
N959 N 0.25066 0.15274 0.10531 0.0
H960 H 0.18783 0.05648 0.95268 0.0
H961 H 0.04598 0.05296 0.98695 0.0
H962 H 0.14992 0.11803 0.98266 0.0
H963 H 0.09111 0.99049 0.97477 0.0
H964 H 0.08074 0.07889 0.9758 0.0
H965 H 0.14921 0.03445 0.95037 0.0
C966 C 0.1713 0.06542 0.95865 0.0
C967 C 0.17212 0.08889 0.96845 0.0
C968 C 0.08285 0.05949 0.97526 0.0
C969 C 0.12783 0.06366 0.96606 0.0
C970 C 0.06305 0.04471 0.98152 0.0
C971 C 0.06587 0.01958 0.98213 0.0
C972 C 0.10537 0.04897 0.96929 0.0
C973 C 0.0883 0.00979 0.97494 0.0
C974 C 0.14924 0.05284 0.9573 0.0
C975 C 0.15008 0.09981 0.97532 0.0
N976 N 0.1072 0.0245 0.96896 0.0
N977 N 0.12878 0.08694 0.97438 0.0
H978 H 0.69964 0.45372 0.03866 0.0
H979 H 0.5724 0.48963 0.97918 0.0
H980 H 0.66618 0.41867 0.97654 0.0
H981 H 0.58488 0.49289 0.0565 0.0
H982 H 0.61542 0.47959 0.97311 0.0
H983 H 0.66524 0.48227 0.04029 0.0
C984 C 0.68527 0.45235 0.02518 0.0
C985 C 0.68529 0.43366 0.00776 0.0
C986 C 0.60885 0.48326 -0.00866 0.0
C987 C 0.64689 0.46636 0.00895 0.0
C988 C 0.58436 0.48915 -0.00517 0.0
C989 C 0.57496 0.4914 0.01843 0.0
C990 C 0.62395 0.47989 0.01157 0.0
C991 C 0.59134 0.49069 0.03803 0.0
C992 C 0.66582 0.46858 0.02607 0.0
C993 C 0.66648 0.43258 0.99055 0.0
N994 N 0.61502 0.48451 0.03421 0.0
N995 N 0.648 0.44866 -0.00839 0.0
H996 H 0.83815 0.41974 0.27364 0.0
H997 H 0.81396 0.29722 0.21253 0.0
H998 H 0.88711 0.39542 0.21711 0.0
H999 H 0.79701 0.31102 0.28775 0.0
H1000 H 0.84481 0.32957 0.21427 0.0
H1001 H 0.82465 0.37834 0.27935 0.0
C1002 C 0.84596 0.40562 0.26234 0.0
C1003 C 0.86337 0.41096 0.24457 0.0
C1004 C 0.8351 0.32483 0.23067 0.0
C1005 C 0.84813 0.36346 0.25106 0.0
C1006 C 0.81772 0.30625 0.22973 0.0
C1007 C 0.80306 0.30176 0.25003 0.0
C1008 C 0.83707 0.33913 0.25186 0.0
C1009 C 0.80807 0.31412 0.27177 0.0
C1010 C 0.83856 0.38193 0.26585 0.0
C1011 C 0.87338 0.39195 0.2308 0.0
N1012 N 0.82426 0.33274 0.27198 0.0
N1013 N 0.86523 0.36896 0.23398 0.0
H1014 H 0.78738 0.52905 0.52791 0.0
H1015 H 0.93121 0.53204 0.50441 0.0
H1016 H 0.81987 0.58 0.47866 0.0
H1017 H 0.89694 0.51022 0.57128 0.0
H1018 H 0.89077 0.54354 0.48895 0.0
H1019 H 0.82801 0.51403 0.53707 0.0
C1020 C 0.803 0.53683 0.51871 0.0
C1021 C 0.80027 0.5561 0.50283 0.0
C1022 C 0.89229 0.53625 0.507 0.0
C1023 C 0.84679 0.53908 0.51338 0.0
C1024 C 0.91526 0.52973 0.5158 0.0
C1025 C 0.91738 0.52011 0.53911 0.0
C1026 C 0.87151 0.53267 0.52153 0.0
C1027 C 0.89621 0.51763 0.55324 0.0
C1028 C 0.82619 0.52836 0.52409 0.0
C1029 C 0.82122 0.56535 0.49132 0.0
N1030 N 0.87419 0.52369 0.54416 0.0
N1031 N 0.84371 0.55687 0.49697 0.0
H1032 H 0.18127 0.05097 0.22049 0.0
H1033 H 0.20099 0.19073 0.2427 0.0
H1034 H 0.12267 0.1017 0.23125 0.0
H1035 H 0.25849 0.13836 0.23719 0.0
H1036 H 0.1723 0.16089 0.22538 0.0
H1037 H 0.20936 0.0846 0.2139 0.0
C1038 C 0.17427 0.06917 0.22129 0.0
C1039 C 0.14977 0.07356 0.22721 0.0
C1040 C 0.19135 0.15615 0.22728 0.0
C1041 C 0.18184 0.11218 0.21986 0.0
C1042 C 0.20772 0.17325 0.23694 0.0
C1043 C 0.23185 0.16666 0.24173 0.0
C1044 C 0.19941 0.13248 0.2226 0.0
C1045 C 0.2398 0.14383 0.23418 0.0
C1046 C 0.19028 0.08839 0.21739 0.0
C1047 C 0.14156 0.0975 0.2273 0.0
N1048 N 0.22352 0.12739 0.22537 0.0
N1049 N 0.15767 0.11595 0.22421 0.0
H1050 H 0.33311 0.90689 0.53121 0.0
H1051 H 0.425 0.93414 0.44076 0.0
H1052 H 0.32794 0.86636 0.46403 0.0
H1053 H 0.4499 0.92316 0.5138 0.0
H1054 H 0.39243 0.90443 0.44706 0.0
H1055 H 0.37749 0.90922 0.52614 0.0
C1056 C 0.34149 0.89792 0.51574 0.0
C1057 C 0.32706 0.88659 0.49792 0.0
C1058 C 0.4057 0.90762 0.46136 0.0
C1059 C 0.37746 0.88983 0.49156 0.0
C1060 C 0.42436 0.92447 0.45768 0.0
C1061 C 0.43994 0.93106 0.47685 0.0
C1062 C 0.4021 0.89834 0.48466 0.0
C1063 C 0.43819 0.91842 0.4986 0.0
C1064 C 0.36677 0.89909 0.5129 0.0
C1065 C 0.33862 0.87527 0.47813 0.0
N1066 N 0.4189 0.90332 0.50231 0.0
N1067 N 0.36317 0.87787 0.47501 0.0
H1068 H 0.78584 0.54057 0.22277 0.0
H1069 H 0.77022 0.6699 0.28615 0.0
H1070 H 0.823 0.56422 0.28804 0.0
H1071 H 0.75279 0.65431 0.21133 0.0
H1072 H 0.77738 0.62693 0.29247 0.0
H1073 H 0.76168 0.57769 0.22411 0.0
C1074 C 0.78848 0.55329 0.23768 0.0
C1075 C 0.80677 0.54968 0.25501 0.0
C1076 C 0.77138 0.63281 0.27482 0.0
C1077 C 0.77936 0.59188 0.25668 0.0
C1078 C 0.76699 0.65727 0.27134 0.0
C1079 C 0.7607 0.66546 0.24831 0.0
C1080 C 0.76957 0.61658 0.25504 0.0
C1081 C 0.75772 0.64856 0.22935 0.0
C1082 C 0.77479 0.57447 0.23838 0.0
C1083 C 0.80941 0.56661 0.27402 0.0
N1084 N 0.76239 0.62489 0.23307 0.0
N1085 N 0.79607 0.58711 0.2742 0.0
H1086 H 0.64387 0.40625 0.77876 0.0
H1087 H 0.7388 0.33326 0.70299 0.0
H1088 H 0.70564 0.43932 0.74322 0.0
H1089 H 0.69575 0.29856 0.7581 0.0
H1090 H 0.72872 0.37235 0.7206 0.0
H1091 H 0.66428 0.36723 0.77582 0.0
C1092 C 0.66198 0.40542 0.77085 0.0
C1093 C 0.67281 0.42596 0.76063 0.0
C1094 C 0.72167 0.35629 0.72917 0.0
C1095 C 0.69603 0.38138 0.75694 0.0
C1096 C 0.72727 0.33397 0.71898 0.0
C1097 C 0.71771 0.31281 0.72892 0.0
C1098 C 0.70578 0.35763 0.74913 0.0
C1099 C 0.70321 0.3146 0.74983 0.0
C1100 C 0.67361 0.38312 0.76921 0.0
C1101 C 0.6964 0.42389 0.75093 0.0
N1102 N 0.69721 0.33676 0.75902 0.0
N1103 N 0.70698 0.4019 0.74885 0.0
H1104 H -0.00075 0.85123 0.87195 0.0
H1105 H 0.98738 0.88881 0.00924 0.0
H1106 H 0.97961 0.80117 0.92805 0.0
H1107 H -0.00929 0.94074 0.95203 0.0
H1108 H 0.97751 0.8573 0.97938 0.0
H1109 H -0.00953 0.88467 0.89986 0.0
C1110 C -0.00711 0.84724 0.89008 0.0
C1111 C -0.00934 0.82331 0.89782 0.0
C1112 C 0.97973 0.87566 0.97331 0.0
C1113 C 0.98058 0.8616 0.9299 0.0
C1114 C 0.98521 0.89366 0.9904 0.0
C1115 C -0.0101 0.91728 0.98298 0.0
C1116 C 0.97974 0.88121 0.94853 0.0
C1117 C 0.98705 0.92272 0.95842 0.0
C1118 C 0.98772 0.86638 0.90597 0.0
C1119 C 0.98194 0.8193 0.92138 0.0
N1120 N 0.98275 0.90466 0.94192 0.0
N1121 N 0.9776 0.83823 0.93669 0.0
H1122 H 0.93009 0.27773 0.63662 0.0
H1123 H 0.83321 0.24064 0.73859 0.0
H1124 H 0.94937 0.23585 0.69904 0.0
H1125 H 0.81539 0.27596 0.6717 0.0
H1126 H 0.87669 0.24327 0.72777 0.0
H1127 H 0.88901 0.28222 0.65285 0.0
C1128 C 0.92573 0.26957 0.65384 0.0
C1129 C 0.94311 0.25607 0.6663 0.0
C1130 C 0.86322 0.2506 0.71561 0.0
C1131 C 0.89585 0.26098 0.68496 0.0
C1132 C 0.83843 0.24916 0.72179 0.0
C1133 C 0.82062 0.25788 0.7059 0.0
C1134 C 0.87014 0.26096 0.6935 0.0
C1135 C 0.82842 0.26871 0.68437 0.0
C1136 C 0.90222 0.27214 0.66312 0.0
C1137 C 0.93647 0.24624 0.68873 0.0
N1138 N 0.85252 0.26984 0.67879 0.0
N1139 N 0.91325 0.24866 0.69724 0.0
H1140 H 0.49787 0.18456 0.44186 0.0
H1141 H 0.47501 0.04267 0.42322 0.0
H1142 H 0.49203 0.14924 0.37171 0.0
H1143 H 0.476 0.07879 0.49295 0.0
H1144 H 0.48752 0.08056 0.40414 0.0
H1145 H 0.49467 0.14524 0.4611 0.0
C1146 C 0.49579 0.16856 0.43052 0.0
C1147 C 0.49497 0.17021 0.40516 0.0
C1148 C 0.48546 0.08012 0.42367 0.0
C1149 C 0.4916 0.12512 0.42701 0.0
C1150 C 0.47861 0.05848 0.4345 0.0
C1151 C 0.47473 0.05786 0.45956 0.0
C1152 C 0.48809 0.10116 0.4381 0.0
C1153 C 0.47902 0.07874 0.47352 0.0
C1154 C 0.49412 0.14609 0.44149 0.0
C1155 C 0.49254 0.14883 0.39134 0.0
N1156 N 0.48527 0.09965 0.46258 0.0
N1157 N 0.49087 0.12719 0.40244 0.0
H1158 H 0.59754 0.74672 0.11458 0.0
H1159 H 0.62792 0.72333 0.25354 0.0
H1160 H 0.5562 0.77381 0.17588 0.0
H1161 H 0.68517 0.72602 0.19955 0.0
H1162 H 0.59789 0.72959 0.22173 0.0
H1163 H 0.62765 0.73032 0.14297 0.0
C1164 C 0.59492 0.74942 0.13391 0.0
C1165 C 0.57427 0.76151 0.14292 0.0
C1166 C 0.61703 0.72846 0.21684 0.0
C1167 C 0.60783 0.74217 0.17508 0.0
C1168 C 0.63418 0.72464 0.23495 0.0
C1169 C 0.65916 0.725 0.22932 0.0
C1170 C 0.62494 0.73257 0.19302 0.0
C1171 C 0.6661 0.72631 0.20477 0.0
C1172 C 0.61192 0.73988 0.15001 0.0
C1173 C 0.57173 0.7645 0.1681 0.0
N1174 N 0.64906 0.73055 0.18748 0.0
N1175 N 0.58815 0.75468 0.18327 0.0
H1176 H 0.02441 0.14914 0.6126 0.0
H1177 H 0.96291 0.09035 0.49562 0.0
H1178 H 0.9645 0.18067 0.57361 0.0
H1179 H 0.00501 0.04783 0.54524 0.0
H1180 H 0.96433 0.12386 0.52449 0.0
H1181 H 0.01802 0.11143 0.58934 0.0
C1182 C 0.00971 0.148 0.59947 0.0
C1183 C -0.00472 0.16815 0.59462 0.0
C1184 C 0.97313 0.10716 0.52921 0.0
C1185 C 0.98805 0.12551 0.56809 0.0
C1186 C 0.97247 0.08807 0.51262 0.0
C1187 C 0.98401 0.06635 0.51798 0.0
C1188 C 0.9857 0.10471 0.55122 0.0
C1189 C -0.00409 0.06433 0.54042 0.0
C1190 C 0.0061 0.12655 0.58621 0.0
C1191 C 0.97642 0.16574 0.57753 0.0
N1192 N -0.00332 0.08341 0.5562 0.0
N1193 N 0.97354 0.14493 0.56472 0.0
H1194 H 0.5858 0.20922 0.32818 0.0
H1195 H 0.68103 0.3084 0.31054 0.0
H1196 H 0.59675 0.26468 0.38295 0.0
H1197 H 0.69311 0.23709 0.28085 0.0
H1198 H 0.65298 0.29137 0.34017 0.0
H1199 H 0.62727 0.21641 0.31337 0.0
C1200 C 0.59717 0.22258 0.33738 0.0
C1201 C 0.58778 0.23678 0.3564 0.0
C1202 C 0.66216 0.27933 0.32754 0.0
C1203 C 0.63489 0.24537 0.33938 0.0
C1204 C 0.67803 0.28907 0.3105 0.0
C1205 C 0.68878 0.27416 0.2928 0.0
C1206 C 0.65653 0.25462 0.32639 0.0
C1207 C 0.68471 0.24922 0.29384 0.0
C1208 C 0.62087 0.22658 0.32904 0.0
C1209 C 0.60327 0.25359 0.368 0.0
N1210 N 0.66832 0.24024 0.30996 0.0
N1211 N 0.62592 0.25791 0.35885 0.0
H1212 H 0.53663 0.82449 0.04591 0.0
H1213 H 0.43792 0.91273 0.0164 0.0
H1214 H 0.46281 0.79954 0.0339 0.0
H1215 H 0.51249 0.92583 -0.00544 0.0
H1216 H 0.44553 0.86945 0.01502 0.0
H1217 H 0.52895 0.85886 0.01998 0.0
C1218 C 0.51898 0.826 0.03718 0.0
C1219 C 0.5002 0.80954 0.04216 0.0
C1220 C 0.46004 0.88169 0.00973 0.0
C1221 C 0.49091 0.84914 0.01331 0.0
C1222 C 0.4557 0.9064 0.01058 0.0
C1223 C 0.47479 0.92276 0.00617 0.0
C1224 C 0.48385 0.87345 0.00527 0.0
C1225 C 0.49738 0.91374 -0.0016 0.0
C1226 C 0.51458 0.84554 0.02232 0.0
C1227 C 0.47767 0.81205 0.03049 0.0
N1228 N 0.50154 0.88963 -0.00104 0.0
N1229 N 0.47336 0.832 0.01714 0.0
H1230 H 0.94465 0.71529 0.81711 0.0
H1231 H 0.82665 0.77137 0.7595 0.0
H1232 H 0.94701 0.7853 0.78412 0.0
H1233 H 0.83594 0.69523 0.77074 0.0
H1234 H 0.87079 0.77739 0.7658 0.0
H1235 H 0.90486 0.70781 0.7986 0.0
C1236 C 0.9368 0.72904 0.80582 0.0
C1237 C 0.94899 0.75101 0.80233 0.0
C1238 C 0.86318 0.75932 0.76636 0.0
C1239 C 0.90321 0.74274 0.78124 0.0
C1240 C 0.83805 0.75589 0.76262 0.0
C1241 C 0.82762 0.73284 0.76495 0.0
C1242 C 0.87772 0.73956 0.7726 0.0
C1243 C 0.84315 0.71339 0.76926 0.0
C1244 C 0.91413 0.72474 0.79513 0.0
C1245 C 0.93812 0.76812 0.7873 0.0
N1246 N 0.8673 0.71724 0.77327 0.0
N1247 N 0.91559 0.7638 0.7776 0.0
H1248 H 0.9023 0.97678 0.80765 0.0
H1249 H 0.00125 0.00168 0.90795 0.0
H1250 H 0.97841 0.98149 0.78747 0.0
H1251 H 0.93124 0.96849 0.92159 0.0
H1252 H -0.00422 -0.00675 0.86419 0.0
H1253 H 0.91405 0.97392 0.84982 0.0
C1254 C 0.92157 0.97736 0.81215 0.0
C1255 C 0.9394 0.97972 0.79407 0.0
C1256 C 0.98199 0.9872 0.87687 0.0
C1257 C 0.95311 0.97634 0.84267 0.0
C1258 C 0.98517 -0.00813 0.90174 0.0
C1259 C 0.96656 0.9858 0.91808 0.0
C1260 C 0.95994 0.97675 0.86866 0.0
C1261 C 0.94589 0.9735 0.90939 0.0
C1262 C 0.92831 0.97543 0.83627 0.0
C1263 C 0.96412 0.97986 0.80096 0.0
N1264 N 0.94298 0.96967 0.88524 0.0
N1265 N 0.97031 0.97857 0.82488 0.0
H1266 H 0.77471 0.13605 0.57283 0.0
H1267 H 0.69296 0.18409 0.67496 0.0
H1268 H 0.70458 0.10232 0.58567 0.0
H1269 H 0.77059 0.1794 0.68703 0.0
H1270 H 0.69627 0.1534 0.64273 0.0
H1271 H 0.77418 0.15215 0.61455 0.0
C1272 C 0.75938 0.1318 0.58449 0.0
C1273 C 0.73952 0.11812 0.57569 0.0
C1274 C 0.71248 0.15859 0.65288 0.0
C1275 C 0.73871 0.1366 0.62309 0.0
C1276 C 0.71056 0.17602 0.67125 0.0
C1277 C 0.73154 0.18421 0.68348 0.0
C1278 C 0.73565 0.15007 0.64617 0.0
C1279 C 0.754 0.17341 0.67798 0.0
C1280 C 0.75918 0.1408 0.60831 0.0
C1281 C 0.72021 0.11293 0.59165 0.0
N1282 N 0.75562 0.15734 0.65918 0.0
N1283 N 0.72002 0.12262 0.61442 0.0
H1284 H 0.54555 0.95648 0.27843 0.0
H1285 H 0.5133 0.01944 0.40545 0.0
H1286 H 0.5702 0.02829 0.29749 0.0
H1287 H 0.53965 0.9465 0.40068 0.0
H1288 H 0.51814 0.02274 0.36118 0.0
H1289 H 0.52754 0.95284 0.3193 0.0
C1290 C 0.54668 0.97158 0.2911 0.0
C1291 C 0.55944 -0.00739 0.28497 0.0
C1292 C 0.52224 0.00587 0.36986 0.0
C1293 C 0.53861 0.98887 0.33085 0.0
C1294 C 0.51938 0.00394 0.39495 0.0
C1295 C 0.52621 0.98271 0.40648 0.0
C1296 C 0.53137 0.98621 0.3564 0.0
C1297 C 0.53434 0.96318 0.39229 0.0
C1298 C 0.5365 0.96951 0.31425 0.0
C1299 C 0.56061 0.01175 0.30182 0.0
N1300 N 0.53675 0.96539 0.3679 0.0
N1301 N 0.5503 0.00945 0.32408 0.0
H1302 H 0.70545 0.86081 0.10551 0.0
H1303 H 0.72188 0.73289 0.16053 0.0
H1304 H 0.70366 0.79381 0.06457 0.0
H1305 H 0.72794 0.79924 0.20178 0.0
H1306 H 0.69997 0.75404 0.12887 0.0
H1307 H 0.70034 0.83833 0.14285 0.0
C1308 C 0.70384 0.84135 0.10437 0.0
C1309 C 0.70579 0.82905 0.082 0.0
C1310 C 0.7054 0.76393 0.14512 0.0
C1311 C 0.69978 0.80327 0.12466 0.0
C1312 C 0.7177 0.75181 0.16324 0.0
C1313 C 0.72698 0.76461 0.18332 0.0
C1314 C 0.70334 0.78911 0.14685 0.0
C1315 C 0.72117 0.78895 0.18629 0.0
C1316 C 0.70069 0.82855 0.12569 0.0
C1317 C 0.7029 0.80394 0.08151 0.0
N1318 N 0.71031 0.80068 0.16779 0.0
N1319 N 0.70045 0.79183 0.10259 0.0
H1320 H 0.85934 0.98487 0.64312 0.0
H1321 H 0.9656 0.01825 0.55477 0.0
H1322 H 0.92423 0.02658 0.65999 0.0
H1323 H 0.91913 0.95538 0.54951 0.0
H1324 H 0.93562 0.03739 0.58174 0.0
H1325 H 0.86741 0.99037 0.59984 0.0
C1326 C 0.87503 -0.00445 0.63773 0.0
C1327 C 0.89184 0.00433 0.655 0.0
C1328 C 0.93142 0.01989 0.57372 0.0
C1329 C 0.90077 0.01106 0.60584 0.0
C1330 C 0.94844 0.00905 0.55826 0.0
C1331 C 0.94489 0.98508 0.55075 0.0
C1332 C 0.91119 0.00632 0.58163 0.0
C1333 C 0.92257 0.97375 0.55562 0.0
C1334 C 0.87944 -0.0011 0.61308 0.0
C1335 C 0.91142 0.01865 0.64714 0.0
N1336 N 0.90669 0.98427 0.57131 0.0
N1337 N 0.91563 0.02119 0.62307 0.0
H1338 H 0.74106 0.19708 0.44636 0.0
H1339 H 0.79608 0.19104 0.31243 0.0
H1340 H 0.79636 0.14778 0.42116 0.0
H1341 H 0.7313 0.23126 0.33052 0.0
H1342 H 0.80317 0.18436 0.35538 0.0
H1343 H 0.74401 0.21842 0.40763 0.0
C1344 C 0.75439 0.19127 0.433 0.0
C1345 C 0.76832 0.17051 0.43674 0.0
C1346 C 0.7875 0.19486 0.3501 0.0
C1347 C 0.77166 0.19457 0.39264 0.0
C1348 C 0.78344 0.19865 0.32556 0.0
C1349 C 0.76282 0.21127 0.31796 0.0
C1350 C 0.77053 0.20327 0.3673 0.0
C1351 C 0.74731 0.22122 0.33571 0.0
C1352 C 0.7559 0.2033 0.41086 0.0
C1353 C 0.78512 0.16355 0.41884 0.0
N1354 N 0.7512 0.21658 0.35965 0.0
N1355 N 0.78614 0.1754 0.39753 0.0
H1356 H 0.61567 0.94529 0.16343 0.0
H1357 H 0.56054 0.02272 0.05739 0.0
H1358 H 0.63785 0.01861 0.14979 0.0
H1359 H 0.53045 0.95715 0.08653 0.0
H1360 H 0.59822 0.01616 0.08089 0.0
H1361 H 0.59589 0.94345 0.1238 0.0
C1362 C 0.61691 0.96078 0.15173 0.0
C1363 C 0.62767 0.98233 0.16 0.0
C1364 C 0.58347 0.00306 0.08172 0.0
C1365 C 0.60431 0.98079 0.1153 0.0
C1366 C 0.56203 0.00688 0.06852 0.0
C1367 C 0.54221 0.99091 0.07088 0.0
C1368 C 0.58498 0.98291 0.09682 0.0
C1369 C 0.54505 0.97035 0.08496 0.0
C1370 C 0.60556 0.9598 0.12918 0.0
C1371 C 0.62927 0.00179 0.14411 0.0
N1372 N 0.56592 0.96706 0.09753 0.0
N1373 N 0.61696 0.00085 0.1227 0.0
H1374 H 0.72117 0.87368 0.90966 0.0
H1375 H 0.72794 0.73812 0.85857 0.0
H1376 H 0.72815 0.811 0.95456 0.0
H1377 H 0.73322 0.80007 0.81228 0.0
H1378 H 0.7236 0.76498 0.89358 0.0
H1379 H 0.7222 0.8474 0.87357 0.0
C1380 C 0.723 0.85442 0.91196 0.0
C1381 C 0.72465 0.84454 0.93523 0.0
C1382 C 0.72564 0.77275 0.87578 0.0
C1383 C 0.72558 0.81442 0.894 0.0
C1384 C 0.72805 0.7574 0.85571 0.0
C1385 C 0.73118 0.76683 0.83242 0.0
C1386 C 0.72639 0.7978 0.87267 0.0
C1387 C 0.73092 0.79199 0.82991 0.0
C1388 C 0.72354 0.83945 0.89133 0.0
C1389 C 0.72693 0.81946 0.93705 0.0
N1390 N 0.72873 0.80664 0.84983 0.0
N1391 N 0.72727 0.8053 0.91673 0.0
H1392 H 0.80738 0.88414 0.01991 0.0
H1393 H 0.88766 0.00356 0.04067 0.0
H1394 H 0.77981 0.95653 0.02677 0.0
H1395 H 0.91759 0.9389 0.00846 0.0
H1396 H 0.84985 0.98173 0.04921 0.0
H1397 H 0.84902 0.89992 0.02752 0.0
C1398 C 0.81006 0.90324 0.02345 0.0
C1399 C 0.79029 0.91917 0.02237 0.0
C1400 C 0.8648 0.97214 0.04063 0.0
C1401 C 0.83735 0.93709 0.03146 0.0
C1402 C 0.88639 0.98457 0.03585 0.0
C1403 C 0.90548 0.97309 0.02343 0.0
C1404 C 0.86205 0.94817 0.03252 0.0
C1405 C 0.90313 0.94839 0.01792 0.0
C1406 C 0.83373 0.91219 0.02773 0.0
C1407 C 0.79462 0.94372 0.02705 0.0
N1408 N 0.88148 0.93679 0.02201 0.0
N1409 N 0.81764 0.9519 0.03131 0.0
H1410 H 0.27983 0.52842 0.01715 0.0
H1411 H 0.40736 0.51806 0.94759 0.0
H1412 H 0.30235 0.57313 0.95767 0.0
H1413 H 0.40082 0.50093 0.02332 0.0
H1414 H 0.36355 0.52585 0.94612 0.0
H1415 H 0.31932 0.50764 0.01495 0.0
C1416 C 0.29292 0.53359 0.00337 0.0
C1417 C 0.28793 0.55267 0.98764 0.0
C1418 C 0.37155 0.51991 0.96296 0.0
C1419 C 0.3327 0.52873 0.98485 0.0
C1420 C 0.39647 0.51526 0.96376 0.0
C1421 C 0.4076 0.50898 0.98562 0.0
C1422 C 0.35764 0.51854 0.98425 0.0
C1423 C 0.39279 0.50565 0.0061 0.0
C1424 C 0.3154 0.52178 0.00223 0.0
C1425 C 0.30554 0.55871 0.97027 0.0
N1426 N 0.36848 0.51087 0.00505 0.0
N1427 N 0.3271 0.54677 0.96933 0.0
H1428 H 0.15095 0.55865 0.77831 0.0
H1429 H 0.18442 0.68956 0.72957 0.0
H1430 H 0.1122 0.59154 0.71938 0.0
H1431 H 0.23103 0.64642 0.77447 0.0
H1432 H 0.15274 0.65812 0.73185 0.0
H1433 H 0.17436 0.59577 0.78426 0.0
C1434 C 0.14716 0.57383 0.76681 0.0
C1435 C 0.13004 0.57188 0.74796 0.0
C1436 C 0.16987 0.6557 0.74129 0.0
C1437 C 0.15703 0.61427 0.75443 0.0
C1438 C 0.18795 0.67355 0.73996 0.0
C1439 C 0.21054 0.67039 0.75152 0.0
C1440 C 0.17439 0.63478 0.7545 0.0
C1441 C 0.21408 0.64944 0.76491 0.0
C1442 C 0.16057 0.59499 0.77018 0.0
C1443 C 0.12546 0.59226 0.73395 0.0
N1444 N 0.19623 0.63243 0.76597 0.0
N1445 N 0.13924 0.61257 0.73718 0.0
H1446 H 0.12969 0.37964 0.50622 0.0
H1447 H 0.07138 0.50861 0.48417 0.0
H1448 H 0.16902 0.44702 0.5149 0.0
H1449 H 0.0323 0.44172 0.47265 0.0
H1450 H 0.10512 0.48647 0.50222 0.0
H1451 H 0.09195 0.40201 0.50048 0.0
C1452 C 0.13036 0.39915 0.50713 0.0
C1453 C 0.15261 0.41153 0.51058 0.0
C1454 C 0.08911 0.47657 0.496 0.0
C1455 C 0.10949 0.4372 0.50401 0.0
C1456 C 0.06992 0.4892 0.48577 0.0
C1457 C 0.04939 0.47676 0.47692 0.0
C1458 C 0.08782 0.4513 0.49698 0.0
C1459 C 0.04801 0.45176 0.47939 0.0
C1460 C 0.10878 0.4119 0.50388 0.0
C1461 C 0.15233 0.43677 0.51192 0.0
N1462 N 0.06718 0.43972 0.48895 0.0
N1463 N 0.13114 0.44879 0.50837 0.0
H1464 H 0.88289 0.89003 0.73121 0.0
H1465 H 0.75042 0.84556 0.76813 0.0
H1466 H 0.82739 0.93563 0.76289 0.0
H1467 H 0.80412 0.79978 0.73434 0.0
H1468 H 0.78226 0.87567 0.77669 0.0
H1469 H 0.85812 0.85467 0.74108 0.0
C1470 C 0.86557 0.89264 0.74038 0.0
C1471 C 0.85694 0.91591 0.7457 0.0
C1472 C 0.78733 0.85875 0.76807 0.0
C1473 C 0.82856 0.87544 0.75719 0.0
C1474 C 0.7692 0.84148 0.76348 0.0
C1475 C 0.77487 0.82025 0.75073 0.0
C1476 C 0.81108 0.85497 0.75912 0.0
C1477 C 0.79926 0.81586 0.74459 0.0
C1478 C 0.8515 0.8724 0.74614 0.0
C1479 C 0.83457 0.91809 0.75799 0.0
N1480 N 0.81646 0.83335 0.74835 0.0
N1481 N 0.82104 0.89815 0.76303 0.0
H1482 H 0.66199 0.09876 0.44844 0.0
H1483 H 0.57539 0.04693 0.53434 0.0
H1484 H 0.65972 0.13241 0.51948 0.0
H1485 H 0.54756 0.06274 0.46331 0.0
H1486 H 0.60407 0.08082 0.53109 0.0
H1487 H 0.6188 0.08757 0.45272 0.0
C1488 C 0.6522 0.10421 0.46469 0.0
C1489 C 0.66436 0.11614 0.48378 0.0
C1490 C 0.591 0.07753 0.51663 0.0
C1491 C 0.61545 0.10303 0.48902 0.0
C1492 C 0.57464 0.05826 0.51853 0.0
C1493 C 0.55933 0.05216 0.49902 0.0
C1494 C 0.59271 0.08984 0.49463 0.0
C1495 C 0.5592 0.06704 0.4787 0.0
C1496 C 0.62757 0.09804 0.46706 0.0
C1497 C 0.65094 0.12302 0.50444 0.0
N1498 N 0.57637 0.08473 0.47659 0.0
N1499 N 0.62732 0.11566 0.50688 0.0
H1500 H 0.19632 0.45275 0.78131 0.0
H1501 H 0.2419 0.32597 0.73061 0.0
H1502 H 0.18292 0.4236 0.70952 0.0
H1503 H 0.22141 0.33996 0.8051 0.0
H1504 H 0.23953 0.36921 0.72285 0.0
H1505 H 0.22365 0.4187 0.7892 0.0
C1506 C 0.19976 0.43958 0.76702 0.0
C1507 C 0.18712 0.44047 0.74496 0.0
C1508 C 0.23638 0.36284 0.74108 0.0
C1509 C 0.21834 0.40225 0.75357 0.0
C1510 C 0.2378 0.33822 0.74554 0.0
C1511 C 0.2311 0.32944 0.76833 0.0
C1512 C 0.22841 0.37858 0.7596 0.0
C1513 C 0.22604 0.34605 0.78709 0.0
C1514 C 0.21528 0.42027 0.7715 0.0
C1515 C 0.19205 0.42313 0.72694 0.0
N1516 N 0.22432 0.36987 0.7822 0.0
N1517 N 0.20713 0.40456 0.73171 0.0
H1518 H 0.36488 0.58664 0.22714 0.0
H1519 H 0.25069 0.67208 0.25069 0.0
H1520 H 0.29217 0.55934 0.24113 0.0
H1521 H 0.32606 0.69482 0.25404 0.0
H1522 H 0.26372 0.63215 0.23588 0.0
H1523 H 0.34893 0.62728 0.2263 0.0
C1524 C 0.34549 0.58919 0.23009 0.0
C1525 C 0.32989 0.5696 0.23475 0.0
C1526 C 0.27734 0.6461 0.23919 0.0
C1527 C 0.31147 0.61635 0.23373 0.0
C1528 C 0.26992 0.66888 0.24731 0.0
C1529 C 0.28745 0.68651 0.25338 0.0
C1530 C 0.30241 0.64122 0.23721 0.0
C1531 C 0.3121 0.68159 0.24936 0.0
C1532 C 0.33638 0.61245 0.22946 0.0
C1533 C 0.30486 0.57401 0.23785 0.0
N1534 N 0.3189 0.65929 0.24172 0.0
N1535 N 0.29642 0.59704 0.23758 0.0
H1536 H 0.50816 0.68906 0.55609 0.0
H1537 H 0.49344 0.54823 0.56219 0.0
H1538 H 0.5194 0.64808 0.62105 0.0
H1539 H 0.48833 0.58853 0.4963 0.0
H1540 H 0.51376 0.5829 0.58188 0.0
H1541 H 0.511 0.65179 0.53206 0.0
C1542 C 0.51156 0.67231 0.56529 0.0
C1543 C 0.5128 0.67163 0.59069 0.0
C1544 C 0.50892 0.58396 0.56289 0.0
C1545 C 0.51589 0.62885 0.56333 0.0
C1546 C 0.49756 0.56408 0.55164 0.0
C1547 C 0.48925 0.5658 0.52776 0.0
C1548 C 0.51132 0.6057 0.55018 0.0
C1549 C 0.49454 0.58672 0.51484 0.0
C1550 C 0.51325 0.651 0.55155 0.0
C1551 C 0.51769 0.64943 0.60156 0.0
N1552 N 0.50479 0.60609 0.52636 0.0
N1553 N 0.51858 0.62889 0.58788 0.0
H1554 H 0.54677 0.23806 0.79906 0.0
H1555 H 0.67701 0.17475 0.79355 0.0
H1556 H 0.57182 0.18327 0.84755 0.0
H1557 H 0.663 0.24341 0.76081 0.0
H1558 H 0.63363 0.17051 0.80253 0.0
H1559 H 0.58448 0.23324 0.77513 0.0
C1560 C 0.55994 0.22464 0.8043 0.0
C1561 C 0.55652 0.21129 0.82547 0.0
C1562 C 0.63994 0.18638 0.79309 0.0
C1563 C 0.59919 0.20559 0.79829 0.0
C1564 C 0.66471 0.18883 0.78797 0.0
C1565 C 0.67366 0.20976 0.777 0.0
C1566 C 0.62397 0.20515 0.78753 0.0
C1567 C 0.65683 0.22713 0.7696 0.0
C1568 C 0.58142 0.22198 0.79073 0.0
C1569 C 0.57402 0.19417 0.83156 0.0
N1570 N 0.63276 0.22469 0.77546 0.0
N1571 N 0.59466 0.19192 0.81814 0.0
H1572 H 0.9734 0.34307 0.11391 0.0
H1573 H 0.00477 0.41418 -0.00714 0.0
H1574 H -0.00823 0.30837 0.04571 0.0
H1575 H 0.01256 0.44414 0.06502 0.0
H1576 H 0.98615 0.37774 0.01001 0.0
H1577 H 0.9742 0.38206 0.09391 0.0
C1578 C 0.9773 0.34359 0.09465 0.0
C1579 C 0.9831 0.32247 0.08157 0.0
C1580 C -0.00865 0.39255 0.02203 0.0
C1581 C 0.98388 0.36706 0.05861 0.0
C1582 C 0.00174 0.41333 0.01227 0.0
C1583 C 0.0101 0.43193 0.02769 0.0
C1584 C -0.01059 0.39054 0.04734 0.0
C1585 C 0.00622 0.43007 0.05266 0.0
C1586 C 0.97772 0.36587 0.08327 0.0
C1587 C 0.98764 0.32425 0.05658 0.0
N1588 N -0.00365 0.40956 0.06179 0.0
N1589 N 0.98821 0.34621 0.04595 0.0
H1590 H 0.94284 0.78986 0.29577 0.0
H1591 H 0.80288 0.75499 0.31188 0.0
H1592 H 0.91501 0.74491 0.353 0.0
H1593 H 0.83341 0.79119 0.24999 0.0
H1594 H 0.84149 0.76174 0.33364 0.0
H1595 H 0.90107 0.8002 0.28517 0.0
C1596 C 0.92795 0.7822 0.30616 0.0
C1597 C 0.9324 0.76595 0.32486 0.0
C1598 C 0.8395 0.7687 0.3155 0.0
C1599 C 0.8845 0.77777 0.31283 0.0
C1600 C 0.81745 0.765 0.30318 0.0
C1601 C 0.81537 0.77199 0.27895 0.0
C1602 C 0.85932 0.77946 0.30338 0.0
C1603 C 0.83463 0.78499 0.26848 0.0
C1604 C 0.90409 0.78825 0.30021 0.0
C1605 C 0.9124 0.75711 0.33811 0.0
N1606 N 0.85597 0.78795 0.28062 0.0
N1607 N 0.88926 0.76284 0.33158 0.0
H1608 H 0.51699 0.34264 0.86226 0.0
H1609 H 0.50743 0.3883 -6e-05 0.0
H1610 H 0.5299 0.29853 0.92471 0.0
H1611 H 0.4991 0.43621 0.93951 0.0
H1612 H 0.51631 0.35557 0.97179 0.0
H1613 H 0.51293 0.37791 0.88933 0.0
C1614 C 0.51953 0.34048 0.88159 0.0
C1615 C 0.52347 0.3176 0.89134 0.0
C1616 C 0.51255 0.3732 0.96457 0.0
C1617 C 0.51841 0.35757 0.92224 0.0
C1618 C 0.50731 0.39194 0.98068 0.0
C1619 C 0.50253 0.41509 0.97209 0.0
C1620 C 0.51301 0.37748 0.93956 0.0
C1621 C 0.50254 0.4186 0.9469 0.0
C1622 C 0.51697 0.36055 0.89702 0.0
C1623 C 0.52651 0.31577 0.91647 0.0
N1624 N 0.50777 0.39995 0.93146 0.0
N1625 N 0.52368 0.33543 0.93104 0.0
H1626 H 0.92502 0.24466 0.20277 0.0
H1627 H 0.79666 0.19972 0.16792 0.0
H1628 H 0.90524 0.23934 0.12712 0.0
H1629 H 0.80908 0.24216 0.2329 0.0
H1630 H 0.83478 0.21584 0.1509 0.0
H1631 H 0.88178 0.2454 0.21356 0.0
C1632 C 0.91147 0.24383 0.18844 0.0
C1633 C 0.91852 0.24157 0.16409 0.0
C1634 C 0.82867 0.22233 0.16851 0.0
C1635 C 0.86915 0.24211 0.17624 0.0
C1636 C 0.80701 0.21314 0.17817 0.0
C1637 C 0.79974 0.22 0.20162 0.0
C1638 C 0.84341 0.23768 0.18288 0.0
C1639 C 0.81378 0.23707 0.21448 0.0
C1640 C 0.88684 0.24449 0.19456 0.0
C1641 C 0.90039 0.24092 0.14613 0.0
N1642 N 0.8353 0.24494 0.20516 0.0
N1643 N 0.87639 0.2406 0.15259 0.0
H1644 H 0.00039 0.70803 0.45687 0.0
H1645 H 0.02689 0.59416 0.48722 0.0
H1646 H 0.94652 0.66737 0.41576 0.0
H1647 H 0.94955 0.57943 0.4904 0.0
H1648 H 0.01825 0.63671 0.48085 0.0
H1649 H 3e-05 0.67662 0.48753 0.0
C1650 C 0.98799 0.69284 0.45459 0.0
C1651 C 0.97409 0.6898 0.43332 0.0
C1652 C 0.00313 0.62445 0.48408 0.0
C1653 C 0.97367 0.6541 0.46822 0.0
C1654 C 0.0081 0.60019 0.48765 0.0
C1655 C -0.01113 0.58355 0.48933 0.0
C1656 C 0.97878 0.63174 0.48119 0.0
C1657 C 0.9648 0.59195 0.4893 0.0
C1658 C 0.98786 0.67496 0.47209 0.0
C1659 C 0.95804 0.67003 0.43156 0.0
N1660 N 0.96036 0.61542 0.48432 0.0
N1661 N 0.95858 0.65265 0.44862 0.0
H1662 H 0.53387 0.77532 0.6985 0.0
H1663 H 0.6646 0.71846 0.72508 0.0
H1664 H 0.57246 0.727 0.65014 0.0
H1665 H 0.646 0.79104 0.74669 0.0
H1666 H 0.62263 0.71218 0.71062 0.0
H1667 H 0.56776 0.77244 0.72779 0.0
C1668 C 0.54931 0.7639 0.69424 0.0
C1669 C 0.55075 0.75178 0.67176 0.0
C1670 C 0.62756 0.72918 0.71931 0.0
C1671 C 0.5887 0.74775 0.7052 0.0
C1672 C 0.65138 0.73266 0.72783 0.0
C1673 C 0.65868 0.75534 0.73687 0.0
C1674 C 0.61107 0.74846 0.72013 0.0
C1675 C 0.64099 0.77336 0.73961 0.0
C1676 C 0.56848 0.7622 0.71091 0.0
C1677 C 0.57094 0.73703 0.66708 0.0
N1678 N 0.61802 0.76966 0.73092 0.0
N1679 N 0.58916 0.73546 0.68364 0.0
H1680 H 0.57343 0.43585 0.68055 0.0
H1681 H 0.52365 0.51086 0.56969 0.0
H1682 H 0.60416 0.50468 0.66102 0.0
H1683 H 0.53726 0.43467 0.56165 0.0
H1684 H 0.54058 0.50971 0.61099 0.0
H1685 H 0.54851 0.43604 0.64324 0.0
C1686 C 0.57494 0.45087 0.66829 0.0
C1687 C 0.59111 0.47 0.67327 0.0
C1688 C 0.53931 0.49321 0.60026 0.0
C1689 C 0.56214 0.47094 0.63191 0.0
C1690 C 0.5295 0.4938 0.57693 0.0
C1691 C 0.52929 0.47285 0.56242 0.0
C1692 C 0.54833 0.47143 0.60911 0.0
C1693 C 0.53734 0.4512 0.57237 0.0
C1694 C 0.56071 0.45105 0.64727 0.0
C1695 C 0.59225 0.48936 0.65732 0.0
N1696 N 0.54665 0.45103 0.59518 0.0
N1697 N 0.57779 0.48944 0.63735 0.0
H1698 H 0.71956 0.33058 0.93089 0.0
H1699 H 0.73512 0.30988 0.79205 0.0
H1700 H 0.73195 0.39548 0.89016 0.0
H1701 H 0.7776 0.27339 0.84605 0.0
H1702 H 0.72445 0.34081 0.8229 0.0
H1703 H 0.72726 0.30675 0.89424 0.0
C1704 C 0.72342 0.33985 0.91414 0.0
C1705 C 0.72576 0.365 0.91369 0.0
C1706 C 0.73649 0.32622 0.82763 0.0
C1707 C 0.73466 0.33781 0.87189 0.0
C1708 C 0.74275 0.30875 0.8101 0.0
C1709 C 0.75679 0.28879 0.81672 0.0
C1710 C 0.74416 0.32319 0.85165 0.0
C1711 C 0.76626 0.28816 0.84031 0.0
C1712 C 0.72792 0.32625 0.89332 0.0
C1713 C 0.7303 0.37607 0.89129 0.0
N1714 N 0.75931 0.30478 0.85706 0.0
N1715 N 0.73504 0.36232 0.87116 0.0
H1716 H 0.9197 0.54304 0.18763 0.0
H1717 H 0.97007 0.47625 0.06937 0.0
H1718 H 0.89582 0.47145 0.16652 0.0
H1719 H 0.94136 0.54825 0.06519 0.0
H1720 H 0.95809 0.47527 0.11239 0.0
H1721 H 0.94254 0.54579 0.14906 0.0
C1722 C 0.91958 0.52785 0.17502 0.0
C1723 C 0.90571 0.50713 0.17988 0.0
C1724 C 0.95498 0.49143 0.10208 0.0
C1725 C 0.93215 0.50979 0.13682 0.0
C1726 C 0.96183 0.49204 0.0777 0.0
C1727 C 0.95638 0.51226 0.06385 0.0
C1728 C 0.94329 0.51142 0.11264 0.0
C1729 C 0.94556 0.53225 0.07533 0.0
C1730 C 0.93253 0.52943 0.1532 0.0
C1731 C 0.90606 0.48785 0.16315 0.0
N1732 N 0.93928 0.53133 0.09915 0.0
N1733 N 0.91916 0.4896 0.14234 0.0
H1734 H 0.77833 0.62747 0.39859 0.0
H1735 H 0.75476 0.75654 0.3509 0.0
H1736 H 0.78153 0.69309 0.44165 0.0
H1737 H 0.7423 0.69062 0.31053 0.0
H1738 H 0.78187 0.73506 0.37832 0.0
H1739 H 0.78293 0.65121 0.36194 0.0
C1740 C 0.78057 0.64684 0.40039 0.0
C1741 C 0.77841 0.65848 0.42306 0.0
C1742 C 0.77395 0.7254 0.36297 0.0
C1743 C 0.78343 0.68566 0.3813 0.0
C1744 C 0.75856 0.73767 0.34737 0.0
C1745 C 0.74647 0.72506 0.32873 0.0
C1746 C 0.77631 0.70027 0.36029 0.0
C1747 C 0.75169 0.70076 0.32469 0.0
C1748 C 0.78326 0.66038 0.37944 0.0
C1749 C 0.78218 0.68349 0.42441 0.0
N1750 N 0.76582 0.68892 0.34075 0.0
N1751 N 0.78388 0.69634 0.40373 0.0
H1752 H 0.54516 0.53676 0.79472 0.0
H1753 H 0.54109 0.4946 0.93233 0.0
H1754 H 0.59647 0.48471 0.82142 0.0
H1755 H 0.48306 0.531 0.89507 0.0
H1756 H 0.56338 0.49104 0.89349 0.0
H1757 H 0.52489 0.53708 0.83375 0.0
C1758 C 0.55223 0.5254 0.80886 0.0
C1759 C 0.57236 0.51047 0.80469 0.0
C1760 C 0.54564 0.49954 0.89391 0.0
C1761 C 0.54893 0.51053 0.84965 0.0
C1762 C 0.5329 0.5014 0.91594 0.0
C1763 C 0.51044 0.51342 0.91683 0.0
C1764 C 0.53567 0.50979 0.87299 0.0
C1765 C 0.50055 0.522 0.89524 0.0
C1766 C 0.54054 0.52549 0.83118 0.0
C1767 C 0.58091 0.49643 0.82389 0.0
N1768 N 0.5133 0.52018 0.87431 0.0
N1769 N 0.56903 0.49669 0.84562 0.0
H1770 H 0.70559 0.30673 0.03901 0.0
H1771 H 0.68626 0.28295 0.16032 0.0
H1772 H 0.77264 0.33503 0.06977 0.0
H1773 H 0.76229 0.26338 0.16258 0.0
H1774 H 0.69058 0.29161 0.11707 0.0
H1775 H 0.70064 0.28097 0.07453 0.0
C1776 C 0.71947 0.30723 0.05302 0.0
C1777 C 0.73925 0.32345 0.05179 0.0
C1778 C 0.70611 0.28465 0.12682 0.0
C1779 C 0.73375 0.29408 0.09212 0.0
C1780 C 0.70367 0.27983 0.15147 0.0
C1781 C 0.72394 0.27249 0.16487 0.0
C1782 C 0.7292 0.2829 0.11582 0.0
C1783 C 0.7462 0.2689 0.15274 0.0
C1784 C 0.71657 0.29261 0.07325 0.0
C1785 C 0.75684 0.32316 0.07029 0.0
N1786 N 0.74846 0.27489 0.12899 0.0
N1787 N 0.75359 0.30882 0.08981 0.0
H1788 H 0.86906 0.51248 0.32813 0.0
H1789 H 0.93557 0.4538 0.44017 0.0
H1790 H 0.92403 0.45717 0.32501 0.0
H1791 H 0.9127 0.52784 0.43964 0.0
H1792 H 0.91243 0.44619 0.40283 0.0
H1793 H 0.86913 0.51011 0.37263 0.0
C1794 C 0.88098 0.49972 0.33682 0.0
C1795 C 0.89706 0.48543 0.32304 0.0
C1796 C 0.91156 0.46383 0.4115 0.0
C1797 C 0.8964 0.48199 0.37343 0.0
C1798 C 0.92441 0.46806 0.43297 0.0
C1799 C 0.92617 0.49152 0.44255 0.0
C1800 C 0.90069 0.48329 0.39977 0.0
C1801 C 0.91179 0.50955 0.4325 0.0
C1802 C 0.8808 0.49825 0.36208 0.0
C1803 C 0.91185 0.46895 0.33505 0.0
N1804 N 0.90011 0.50526 0.41112 0.0
N1805 N 0.91124 0.46776 0.35959 0.0
H1806 H 0.73317 0.62003 0.59035 0.0
H1807 H 0.75396 0.75321 0.64143 0.0
H1808 H 0.76069 0.67792 0.54623 0.0
H1809 H 0.74843 0.69153 0.68802 0.0
H1810 H 0.75635 0.72598 0.60626 0.0
H1811 H 0.73814 0.64591 0.62638 0.0
C1812 C 0.74031 0.63815 0.58824 0.0
C1813 C 0.74632 0.64689 0.56521 0.0
C1814 C 0.75489 0.7184 0.6242 0.0
C1815 C 0.75197 0.67659 0.60634 0.0
C1816 C 0.75349 0.73393 0.64428 0.0
C1817 C 0.75084 0.72464 0.66768 0.0
C1818 C 0.75323 0.69339 0.62748 0.0
C1819 C 0.75047 0.69949 0.67031 0.0
C1820 C 0.74327 0.65286 0.60883 0.0
C1821 C 0.75573 0.67045 0.5636 0.0
N1822 N 0.75132 0.68473 0.6504 0.0
N1823 N 0.75802 0.68456 0.58385 0.0
H1824 H 0.6569 0.62267 0.50565 0.0
H1825 H 0.5732 0.52838 0.434 0.0
H1826 H 0.67405 0.59122 0.4358 0.0
H1827 H 0.55216 0.55971 0.50286 0.0
H1828 H 0.60565 0.55848 0.43066 0.0
H1829 H 0.615 0.60653 0.50202 0.0
C1830 C 0.65156 0.61295 0.48926 0.0
C1831 C 0.66879 0.608 0.47104 0.0
C1832 C 0.59376 0.55916 0.44636 0.0
C1833 C 0.62126 0.58959 0.46672 0.0
C1834 C 0.57515 0.54203 0.44817 0.0
C1835 C 0.56023 0.54151 0.46879 0.0
C1836 C 0.59804 0.57547 0.4657 0.0
C1837 C 0.56338 0.55958 0.48666 0.0
C1838 C 0.62773 0.60369 0.48721 0.0
C1839 C 0.66126 0.59513 0.45032 0.0
N1840 N 0.58237 0.57554 0.485 0.0
N1841 N 0.63813 0.58625 0.44879 0.0
H1842 H 0.19424 0.93328 0.53664 0.0
H1843 H 0.07046 0.97723 0.475 0.0
H1844 H 0.16475 0.90457 0.4695 0.0
H1845 H 0.08061 0.97655 0.55262 0.0
H1846 H 0.11269 0.96398 0.46968 0.0
H1847 H 0.15938 0.961 0.5395 0.0
C1848 C 0.18059 0.93299 0.52242 0.0
C1849 C 0.1821 0.91636 0.50303 0.0
C1850 C 0.10582 0.96736 0.48785 0.0
C1851 C 0.14287 0.94829 0.50582 0.0
C1852 C 0.08181 0.9752 0.49091 0.0
C1853 C 0.07189 0.97756 0.51432 0.0
C1854 C 0.12002 0.96219 0.50832 0.0
C1855 C 0.08747 0.97454 0.53427 0.0
C1856 C 0.16082 0.9488 0.52403 0.0
C1857 C 0.16405 0.91681 0.48498 0.0
N1858 N 0.1107 0.96666 0.53084 0.0
N1859 N 0.14518 0.93248 0.48682 0.0
H1860 H 0.31962 0.9467 0.72608 0.0
H1861 H 0.30671 0.80371 0.73754 0.0
H1862 H 0.38231 0.90078 0.73453 0.0
H1863 H 0.24706 0.8529 0.72642 0.0
H1864 H 0.33538 0.838 0.7357 0.0
H1865 H 0.29339 0.91138 0.72468 0.0
C1866 C 0.3279 0.92911 0.72757 0.0
C1867 C 0.35316 0.92668 0.73066 0.0
C1868 C 0.31599 0.84113 0.73363 0.0
C1869 C 0.32306 0.8859 0.72922 0.0
C1870 C 0.29964 0.82163 0.73477 0.0
C1871 C 0.27444 0.82541 0.73217 0.0
C1872 C 0.30694 0.86442 0.72994 0.0
C1873 C 0.26628 0.84899 0.7285 0.0
C1874 C 0.31288 0.90887 0.72676 0.0
C1875 C 0.36287 0.9034 0.73218 0.0
N1876 N 0.28246 0.86749 0.72754 0.0
N1877 N 0.34773 0.88381 0.73165 0.0
H1878 H 0.32509 0.10671 -0.0071 0.0
H1879 H 0.42024 -0.0001 -0.0006 0.0
H1880 H 0.30516 0.03125 0.98997 0.0
H1881 H 0.42324 0.0618 0.04759 0.0
H1882 H 0.38561 0.01777 0.97826 0.0
H1883 H 0.36821 0.09544 -0.00421 0.0
C1884 C 0.32985 0.08779 -0.00768 0.0
C1885 C 0.31167 0.06978 -0.00826 0.0
C1886 C 0.39442 0.02776 -0.00708 0.0
C1887 C 0.36052 0.05707 -0.0057 0.0
C1888 C 0.41415 0.01774 0.00483 0.0
C1889 C 0.42433 0.02961 0.02505 0.0
C1890 C 0.38502 0.0497 0.00146 0.0
C1891 C 0.41563 0.05227 0.03201 0.0
C1892 C 0.35434 0.08147 -0.00609 0.0
C1893 C 0.31869 0.04559 0.99091 0.0
N1894 N 0.39615 0.0616 0.0203 0.0
N1895 N 0.34268 0.03989 -0.00762 0.0
H1896 H 0.61848 0.58969 0.71335 0.0
H1897 H 0.75069 0.64796 0.73227 0.0
H1898 H 0.68514 0.54996 0.72321 0.0
H1899 H 0.6841 0.68553 0.74902 0.0
H1900 H 0.72677 0.6153 0.71337 0.0
H1901 H 0.64244 0.6272 0.7124 0.0
C1902 C 0.63818 0.58879 0.71495 0.0
C1903 C 0.64982 0.5667 0.71888 0.0
C1904 C 0.71738 0.63099 0.72052 0.0
C1905 C 0.67721 0.60945 0.71741 0.0
C1906 C 0.73101 0.6497 0.73106 0.0
C1907 C 0.71921 0.66928 0.74213 0.0
C1908 C 0.69178 0.63174 0.72155 0.0
C1909 C 0.69375 0.67073 0.74042 0.0
C1910 C 0.65179 0.61021 0.71437 0.0
C1911 C 0.67538 0.56662 0.72064 0.0
N1912 N 0.68074 0.65187 0.73076 0.0
N1913 N 0.68819 0.58768 0.72006 0.0
H1914 H 0.82907 0.37998 0.00387 0.0
H1915 H 0.93189 0.44582 0.9298 0.0
H1916 H 0.82076 0.41798 0.93673 0.0
H1917 H 0.93926 0.42601 0.00463 0.0
H1918 H 0.89767 0.41761 0.9255 0.0
H1919 H 0.87366 0.38095 -0.00186 0.0
C1920 C 0.83662 0.38812 0.98774 0.0
C1921 C 0.82141 0.39968 0.97115 0.0
C1922 C 0.90728 0.41871 0.94267 0.0
C1923 C 0.87192 0.40031 0.96424 0.0
C1924 C 0.92699 0.43459 0.945 0.0
C1925 C 0.93788 0.43844 0.9677 0.0
C1926 C 0.89801 0.40745 0.96344 0.0
C1927 C 0.93097 0.42362 0.9869 0.0
C1928 C 0.86198 0.38854 0.98443 0.0
C1929 C 0.83195 0.40958 0.95036 0.0
N1930 N 0.91079 0.40929 0.98462 0.0
N1931 N 0.85655 0.40992 0.94765 0.0
H1932 H 0.3272 0.07798 0.78202 0.0
H1933 H 0.24295 0.15236 0.70469 0.0
H1934 H 0.29082 0.04504 0.72033 0.0
H1935 H 0.24871 0.16645 0.78156 0.0
H1936 H 0.25461 0.11056 0.71123 0.0
H1937 H 0.29521 0.10842 0.78414 0.0
C1938 C 0.31234 0.07706 0.76906 0.0
C1939 C 0.31191 0.05936 0.75063 0.0
C1940 C 0.25242 0.12248 0.72683 0.0
C1941 C 0.27535 0.09412 0.75285 0.0
C1942 C 0.24559 0.14628 0.72308 0.0
C1943 C 0.24512 0.16274 0.7426 0.0
C1944 C 0.25975 0.11555 0.7501 0.0
C1945 C 0.24893 0.15418 0.76607 0.0
C1946 C 0.29392 0.09425 0.77044 0.0
C1947 C 0.29199 0.05864 0.73459 0.0
N1948 N 0.25696 0.1313 0.76912 0.0
N1949 N 0.27479 0.07616 0.7357 0.0
H1950 H 0.19618 0.94244 0.24597 0.0
H1951 H 0.17343 0.80276 0.24724 0.0
H1952 H 0.1293 0.90923 0.27091 0.0
H1953 H 0.24283 0.83557 0.23034 0.0
H1954 H 0.16045 0.84069 0.26642 0.0
H1955 H 0.21666 0.90365 0.24934 0.0
C1956 C 0.18586 0.92703 0.2523 0.0
C1957 C 0.16083 0.92887 0.25742 0.0
C1958 C 0.1788 0.83946 0.25918 0.0
C1959 C 0.18408 0.88444 0.26134 0.0
C1960 C 0.18621 0.81776 0.24845 0.0
C1961 C 0.20903 0.8164 0.23715 0.0
C1962 C 0.19414 0.85992 0.25779 0.0
C1963 C 0.22498 0.8362 0.23884 0.0
C1964 C 0.19758 0.90491 0.25441 0.0
C1965 C 0.14849 0.90848 0.26616 0.0
N1966 N 0.21704 0.85739 0.24845 0.0
N1967 N 0.16012 0.88702 0.26742 0.0
H1968 H 0.48116 0.30337 0.42039 0.0
H1969 H 0.50111 0.44446 0.41307 0.0
H1970 H 0.50357 0.34151 0.3563 0.0
H1971 H 0.48581 0.40709 0.47928 0.0
H1972 H 0.4883 0.40862 0.38982 0.0
H1973 H 0.47094 0.34198 0.43985 0.0
C1974 C 0.48371 0.31981 0.41032 0.0
C1975 C 0.49386 0.31923 0.38691 0.0
C1976 C 0.48694 0.40844 0.40942 0.0
C1977 C 0.482 0.36342 0.40898 0.0
C1978 C 0.49388 0.42904 0.42264 0.0
C1979 C 0.49447 0.42852 0.44799 0.0
C1980 C 0.48122 0.38713 0.4218 0.0
C1981 C 0.48547 0.40805 0.45967 0.0
C1982 C 0.47776 0.34184 0.4214 0.0
C1983 C 0.49637 0.34109 0.37459 0.0
N1984 N 0.47976 0.38787 0.44649 0.0
N1985 N 0.49079 0.36226 0.38587 0.0
H1986 H 0.42383 0.77688 0.12121 0.0
H1987 H 0.32561 0.75723 0.22698 0.0
H1988 H 0.44115 0.75289 0.19333 0.0
H1989 H 0.30626 0.78261 0.15587 0.0
H1990 H 0.36835 0.75717 0.21493 0.0
H1991 H 0.38093 0.78072 0.13351 0.0
C1992 C 0.41868 0.77255 0.13962 0.0
C1993 C 0.43614 0.76447 0.15621 0.0
C1994 C 0.35481 0.76288 0.20196 0.0
C1995 C 0.38721 0.76876 0.17035 0.0
C1996 C 0.33033 0.76296 0.20886 0.0
C1997 C 0.31223 0.76992 0.19242 0.0
C1998 C 0.36138 0.76976 0.1784 0.0
C1999 C 0.31957 0.7771 0.16916 0.0
C2000 C 0.3942 0.77472 0.14662 0.0
C2001 C 0.4284 0.75911 0.17984 0.0
N2002 N 0.34359 0.77674 0.1628 0.0
N2003 N 0.40456 0.76127 0.18614 0.0
H2004 H 0.00589 0.68677 0.93767 0.0
H2005 H 0.96692 0.55026 0.914 0.0
H2006 H -0.0079 0.65607 0.86647 0.0
H2007 H -0.00761 0.57679 0.9834 0.0
H2008 H 0.98078 0.58772 0.89545 0.0
H2009 H 0.00418 0.64618 0.95453 0.0
C2010 C 0.00245 0.67151 0.92561 0.0
C2011 C -0.00119 0.67482 0.90069 0.0
C2012 C 0.98391 0.58522 0.91464 0.0
C2013 C -0.00291 0.62841 0.91974 0.0
C2014 C 0.97624 0.56375 0.92511 0.0
C2015 C 0.97885 0.56057 0.95007 0.0
C2016 C -0.00648 0.60386 0.92946 0.0
C2017 C -0.00955 0.57864 0.96396 0.0
C2018 C 0.00169 0.64834 0.93519 0.0
C2019 C -0.00524 0.6544 0.88583 0.0
N2020 N -0.003 0.59979 0.95354 0.0
N2021 N -0.00616 0.63212 0.89561 0.0
H2022 H 0.08985 0.23179 0.60498 0.0
H2023 H 0.14542 0.28752 0.72437 0.0
H2024 H 0.06913 0.3002 0.63659 0.0
H2025 H 0.18073 0.22852 0.68679 0.0
H2026 H 0.12077 0.29455 0.68887 0.0
H2027 H 0.12716 0.2327 0.62977 0.0
C2028 C 0.09363 0.24738 0.6165 0.0
C2029 C 0.07631 0.26571 0.61933 0.0
C2030 C 0.13391 0.28007 0.68814 0.0
C2031 C 0.11834 0.26672 0.64769 0.0
C2032 C 0.14779 0.27584 0.70861 0.0
C2033 C 0.16458 0.25694 0.70872 0.0
C2034 C 0.13626 0.26492 0.66765 0.0
C2035 C 0.16755 0.24296 0.68749 0.0
C2036 C 0.11481 0.24784 0.63071 0.0
C2037 C 0.08189 0.2855 0.63438 0.0
N2038 N 0.15309 0.2469 0.66785 0.0
N2039 N 0.10224 0.2853 0.64828 0.0
H2040 H 0.50604 0.65885 0.13364 0.0
H2041 H 0.53604 0.58652 0.01125 0.0
H2042 H 0.52803 0.69048 0.0659 0.0
H2043 H 0.48518 0.55826 0.06372 0.0
H2044 H 0.54426 0.62075 0.03816 0.0
H2045 H 0.50788 0.61859 0.1141 0.0
C2046 C 0.51143 0.65728 0.11477 0.0
C2047 C 0.5165 0.67793 0.10116 0.0
C2048 C 0.53148 0.60696 0.04396 0.0
C2049 C 0.51919 0.63243 0.0792 0.0
C2050 C 0.52678 0.58743 0.02863 0.0
C2051 C 0.50941 0.56996 0.03506 0.0
C2052 C 0.51853 0.60924 0.0658 0.0
C2053 C 0.49844 0.57161 0.05803 0.0
C2054 C 0.51246 0.63442 0.10372 0.0
C2055 C 0.52353 0.67504 0.07689 0.0
N2056 N 0.50284 0.59131 0.07252 0.0
N2057 N 0.52467 0.65273 0.06671 0.0
H2058 H 0.07602 0.71315 0.82268 0.0
H2059 H 0.18625 0.79116 0.80578 0.0
H2060 H 0.09929 0.76299 0.87905 0.0
H2061 H 0.1795 0.72229 0.76918 0.0
H2062 H 0.16164 0.77592 0.83919 0.0
H2063 H 0.11815 0.70999 0.80879 0.0
C2064 C 0.09016 0.7232 0.83231 0.0
C2065 C 0.08421 0.73903 0.85142 0.0
C2066 C 0.1662 0.76375 0.82435 0.0
C2067 C 0.13237 0.73584 0.83546 0.0
C2068 C 0.18025 0.77249 0.80531 0.0
C2069 C 0.18425 0.75803 0.78471 0.0
C2070 C 0.15519 0.74086 0.822 0.0
C2071 C 0.17639 0.73399 0.78478 0.0
C2072 C 0.11427 0.72119 0.82457 0.0
C2073 C 0.10316 0.75106 0.86382 0.0
N2074 N 0.16144 0.72632 0.80282 0.0
N2075 N 0.12639 0.7498 0.85515 0.0
H2076 H 0.94045 0.30598 0.56126 0.0
H2077 H 0.00689 0.41376 0.49752 0.0
H2078 H 0.00972 0.29908 0.52467 0.0
H2079 H 0.93915 0.4177 0.53727 0.0
H2080 H 0.00244 0.36959 0.49545 0.0
H2081 H 0.93311 0.34323 0.53971 0.0
C2082 C 0.95383 0.3121 0.54816 0.0
C2083 C 0.97593 0.29997 0.54506 0.0
C2084 C 0.98826 0.38019 0.50408 0.0
C2085 C 0.96836 0.34307 0.5213 0.0
C2086 C -0.00916 0.40531 0.50526 0.0
C2087 C 0.97371 0.41905 0.5182 0.0
C2088 C 0.96837 0.3691 0.51584 0.0
C2089 C 0.9531 0.40752 0.52775 0.0
C2090 C 0.94973 0.33339 0.5359 0.0
C2091 C -0.00743 0.30826 0.52769 0.0
N2092 N 0.95116 0.3832 0.52665 0.0
N2093 N -0.01118 0.32982 0.51696 0.0
H2094 H 0.4352 0.26318 0.3355 0.0
H2095 H 0.34761 0.21071 0.24137 0.0
H2096 H 0.46631 0.24032 0.26705 0.0
H2097 H 0.32863 0.27639 0.27938 0.0
H2098 H 0.39096 0.21925 0.24944 0.0
H2099 H 0.39511 0.26555 0.31611 0.0
C2100 C 0.43351 0.25855 0.31639 0.0
C2101 C 0.45388 0.25122 0.30286 0.0
C2102 C 0.37736 0.23219 0.25528 0.0
C2103 C 0.4083 0.25388 0.2807 0.0
C2104 C 0.35274 0.22738 0.25063 0.0
C2105 C 0.33479 0.24299 0.25966 0.0
C2106 C 0.38374 0.25218 0.26988 0.0
C2107 C 0.34209 0.26411 0.27196 0.0
C2108 C 0.41078 0.26025 0.3053 0.0
C2109 C 0.4509 0.24586 0.27806 0.0
N2110 N 0.36607 0.26779 0.27735 0.0
N2111 N 0.42832 0.2468 0.2678 0.0
H2112 H 0.4577 0.48183 0.2924 0.0
H2113 H 0.42218 0.54302 0.41958 0.0
H2114 H 0.39682 0.52989 0.30312 0.0
H2115 H 0.48241 0.49385 0.4103 0.0
H2116 H 0.41598 0.54226 0.37581 0.0
H2117 H 0.47061 0.49016 0.33423 0.0
C2118 C 0.44724 0.49437 0.30342 0.0
C2119 C 0.42591 0.50487 0.29439 0.0
C2120 C 0.43067 0.53176 0.38331 0.0
C2121 C 0.44047 0.51435 0.3422 0.0
C2122 C 0.43419 0.53215 0.40834 0.0
C2123 C 0.45268 0.51828 0.41868 0.0
C2124 C 0.44561 0.51727 0.36846 0.0
C2125 C 0.46782 0.50472 0.40315 0.0
C2126 C 0.45458 0.49907 0.32731 0.0
C2127 C 0.41316 0.52108 0.30943 0.0
N2128 N 0.46381 0.50439 0.37882 0.0
N2129 N 0.4205 0.52513 0.33264 0.0
H2130 H 0.21881 0.59699 0.09099 0.0
H2131 H 0.18708 0.70089 0.16675 0.0
H2132 H 0.25345 0.66257 0.06655 0.0
H2133 H 0.25938 0.68393 0.19218 0.0
H2134 H 0.19158 0.6705 0.1343 0.0
H2135 H 0.21617 0.61464 0.13202 0.0
C2136 C 0.22625 0.6149 0.09427 0.0
C2137 C 0.23612 0.62847 0.07516 0.0
C2138 C 0.20605 0.67293 0.14756 0.0
C2139 C 0.23342 0.64824 0.12193 0.0
C2140 C 0.20348 0.69008 0.16609 0.0
C2141 C 0.22293 0.69493 0.18205 0.0
C2142 C 0.22829 0.66092 0.14486 0.0
C2143 C 0.24394 0.68061 0.18027 0.0
C2144 C 0.22478 0.62479 0.11766 0.0
C2145 C 0.24565 0.65149 0.08062 0.0
N2146 N 0.24643 0.66469 0.16139 0.0
N2147 N 0.24375 0.6608 0.1035 0.0
H2148 H 0.03089 0.49901 0.78916 0.0
H2149 H 0.07373 0.46031 0.92116 0.0
H2150 H 0.09396 0.45515 0.80332 0.0
H2151 H 0.00621 0.49783 0.9084 0.0
H2152 H 0.07984 0.45657 0.87756 0.0
H2153 H 0.01932 0.49619 0.83198 0.0
C2154 C 0.04204 0.48839 0.80113 0.0
C2155 C 0.06364 0.47758 0.79269 0.0
C2156 C 0.06359 0.46552 0.88423 0.0
C2157 C 0.05068 0.47459 0.8417 0.0
C2158 C 0.06014 0.46777 0.9092 0.0
C2159 C 0.03947 0.47952 0.91854 0.0
C2160 C 0.04638 0.47524 0.8683 0.0
C2161 C 0.02244 0.48866 0.90203 0.0
C2162 C 0.03549 0.48692 0.82561 0.0
C2163 C 0.07735 0.46407 0.80905 0.0
N2164 N 0.02636 0.48647 0.87771 0.0
N2165 N 0.07079 0.4632 0.83277 0.0
H2166 H 0.23012 0.36906 0.60292 0.0
H2167 H 0.22636 0.24375 0.6716 0.0
H2168 H 0.20727 0.30159 0.5696 0.0
H2169 H 0.26947 0.30532 0.69444 0.0
H2170 H 0.20745 0.26824 0.6401 0.0
H2171 H 0.23311 0.34901 0.64189 0.0
C2172 C 0.22554 0.35006 0.60383 0.0
C2173 C 0.21898 0.33682 0.58289 0.0
C2174 C 0.22062 0.27654 0.65236 0.0
C2175 C 0.22222 0.31389 0.62742 0.0
C2176 C 0.23123 0.26267 0.67034 0.0
C2177 C 0.24942 0.27274 0.68526 0.0
C2178 C 0.22851 0.30048 0.64943 0.0
C2179 C 0.25547 0.29711 0.68306 0.0
C2180 C 0.22718 0.33868 0.62609 0.0
C2181 C 0.21283 0.31236 0.58522 0.0
N2182 N 0.2452 0.31017 0.6652 0.0
N2183 N 0.21487 0.30159 0.60708 0.0
H2184 H 0.35235 0.47162 0.14457 0.0
H2185 H 0.45829 0.52002 0.06076 0.0
H2186 H 0.40389 0.52847 0.16227 0.0
H2187 H 0.42999 0.44734 0.06054 0.0
H2188 H 0.42267 0.53304 0.08458 0.0
H2189 H 0.36571 0.47318 0.10203 0.0
C2190 C 0.36605 0.48478 0.13937 0.0
C2191 C 0.37782 0.49927 0.15691 0.0
C2192 C 0.42376 0.51444 0.0784 0.0
C2193 C 0.39258 0.50153 0.10869 0.0
C2194 C 0.44399 0.50708 0.06483 0.0
C2195 C 0.44711 0.48257 0.05953 0.0
C2196 C 0.40692 0.49703 0.08651 0.0
C2197 C 0.42827 0.46635 0.06497 0.0
C2198 C 0.3735 0.48578 0.11516 0.0
C2199 C 0.39507 0.51637 0.14932 0.0
N2200 N 0.4091 0.47378 0.07865 0.0
N2201 N 0.40223 0.51679 0.1258 0.0
H2202 H 0.28366 0.69538 0.94658 0.0
H2203 H 0.22506 0.73807 0.82141 0.0
H2204 H 0.21939 0.66416 0.91299 0.0
H2205 H 0.30286 0.73983 0.834 0.0
H2206 H 0.21891 0.72446 0.86302 0.0
H2207 H 0.28722 0.72343 0.91233 0.0
C2208 C 0.27021 0.69462 0.93218 0.0
C2209 C 0.25145 0.6772 0.93236 0.0
C2210 C 0.23728 0.7285 0.85686 0.0
C2211 C 0.25488 0.70952 0.89391 0.0
C2212 C 0.24079 0.73658 0.8332 0.0
C2213 C 0.26455 0.73972 0.8241 0.0
C2214 C 0.25764 0.72385 0.87157 0.0
C2215 C 0.28425 0.73728 0.84023 0.0
C2216 C 0.2722 0.7106 0.91276 0.0
C2217 C 0.23438 0.67703 0.91335 0.0
N2218 N 0.28041 0.72912 0.86309 0.0
N2219 N 0.23649 0.6929 0.89497 0.0
H2220 H 0.10243 0.45627 0.65302 0.0
H2221 H 0.04892 0.54369 0.57122 0.0
H2222 H 0.13449 0.52754 0.65244 0.0
H2223 H 0.05926 0.47103 0.54478 0.0
H2224 H 0.08535 0.53994 0.59651 0.0
H2225 H 0.09125 0.46052 0.61041 0.0
C2226 C 0.10747 0.47264 0.64372 0.0
C2227 C 0.11877 0.49182 0.65624 0.0
C2228 C 0.08034 0.52515 0.5844 0.0
C2229 C 0.10576 0.49702 0.60785 0.0
C2230 C 0.05959 0.52735 0.56998 0.0
C2231 C 0.05122 0.50756 0.55626 0.0
C2232 C 0.09179 0.50264 0.58584 0.0
C2233 C 0.06531 0.48661 0.55531 0.0
C2234 C 0.10137 0.47499 0.61936 0.0
C2235 C 0.12538 0.51251 0.64339 0.0
N2236 N 0.08452 0.48434 0.57065 0.0
N2237 N 0.11804 0.51492 0.62001 0.0
H2238 H 0.22666 0.30556 0.45493 0.0
H2239 H 0.22619 0.29216 0.31011 0.0
H2240 H 0.20803 0.36298 0.40645 0.0
H2241 H 0.24491 0.23439 0.35816 0.0
H2242 H 0.21586 0.31724 0.34539 0.0
H2243 H 0.22978 0.27806 0.41993 0.0
C2244 C 0.22306 0.31236 0.43699 0.0
C2245 C 0.21735 0.3367 0.43364 0.0
C2246 C 0.22207 0.29901 0.34821 0.0
C2247 C 0.22098 0.30536 0.3935 0.0
C2248 C 0.22797 0.28466 0.32805 0.0
C2249 C 0.23666 0.26117 0.33113 0.0
C2250 C 0.22495 0.28988 0.37167 0.0
C2251 C 0.23849 0.25245 0.35486 0.0
C2252 C 0.22486 0.29665 0.417 0.0
C2253 C 0.21272 0.34444 0.40994 0.0
N2254 N 0.23285 0.26685 0.37421 0.0
N2255 N 0.21481 0.32888 0.3908 0.0
H2256 H 0.30643 0.41519 0.46255 0.0
H2257 H 0.40598 0.4631 0.54813 0.0
H2258 H 0.3025 0.39684 0.53822 0.0
H2259 H 0.42495 0.43866 0.476 0.0
H2260 H 0.36917 0.43766 0.54649 0.0
H2261 H 0.35013 0.42369 0.46728 0.0
C2262 C 0.31483 0.41282 0.48014 0.0
C2263 C 0.3008 0.4056 0.5001 0.0
C2264 C 0.38178 0.43724 0.53133 0.0
C2265 C 0.35072 0.41552 0.50568 0.0
C2266 C 0.40283 0.45164 0.53231 0.0
C2267 C 0.41841 0.45296 0.51214 0.0
C2268 C 0.37588 0.42487 0.50969 0.0
C2269 C 0.41341 0.43803 0.49195 0.0
C2270 C 0.3398 0.41742 0.48277 0.0
C2271 C 0.31267 0.40251 0.52242 0.0
N2272 N 0.39214 0.42515 0.49091 0.0
N2273 N 0.33687 0.40802 0.52477 0.0
H2274 H 0.80289 0.06796 0.45314 0.0
H2275 H 0.90567 0.98911 0.50601 0.0
H2276 H 0.78477 0.02069 0.512 0.0
H2277 H 0.89939 0.00055 0.42898 0.0
H2278 H 0.86254 0.00035 0.51077 0.0
H2279 H 0.8403 0.04506 0.44597 0.0
C2280 C 0.80679 0.0527 0.46449 0.0
C2281 C 0.7908 0.04621 0.48319 0.0
C2282 C 0.87054 -0.00024 0.49279 0.0
C2283 C 0.8337 0.02017 0.47536 0.0
C2284 C 0.89509 -0.00681 0.49002 0.0
C2285 C 0.90633 -0.00567 0.46712 0.0
C2286 C 0.85746 0.00782 0.47258 0.0
C2287 C 0.89167 -0.00011 0.44706 0.0
C2288 C 0.82801 0.03954 0.4603 0.0
C2289 C 0.79665 0.02618 0.49733 0.0
N2290 N 0.86822 0.00699 0.45034 0.0
N2291 N 0.8179 0.01408 0.49342 0.0
H2292 H 0.62883 0.0817 0.26872 0.0
H2293 H 0.67749 0.18249 0.19313 0.0
H2294 H 0.60318 0.08922 0.19527 0.0
H2295 H 0.66789 0.19254 0.27016 0.0
H2296 H 0.64418 0.1529 0.19278 0.0
H2297 H 0.63781 0.12487 0.27048 0.0
C2298 C 0.62482 0.09256 0.25307 0.0
C2299 C 0.61586 0.0819 0.23163 0.0
C2300 C 0.64858 0.16227 0.20963 0.0
C2301 C 0.62633 0.13116 0.23335 0.0
C2302 C 0.66748 0.17928 0.20976 0.0
C2303 C 0.67536 0.18968 0.23172 0.0
C2304 C 0.63839 0.15504 0.23179 0.0
C2305 C 0.66222 0.18475 0.25289 0.0
C2306 C 0.62968 0.11724 0.25415 0.0
C2307 C 0.61046 0.09678 0.21202 0.0
N2308 N 0.64484 0.16712 0.25258 0.0
N2309 N 0.61643 0.12061 0.21309 0.0
H2310 H 0.65272 0.92818 0.03895 0.0
H2311 H 0.54898 0.95189 0.94623 0.0
H2312 H 0.63139 0.87489 0.98494 0.0
H2313 H 0.55569 0.99089 0.01407 0.0
H2314 H 0.57562 0.92052 0.96216 0.0
H2315 H 0.61387 0.94849 0.03322 0.0
C2316 C 0.63969 0.92066 0.02605 0.0
C2317 C 0.64539 0.90027 0.01193 0.0
C2318 C 0.57065 0.93557 0.97386 0.0
C2319 C 0.60118 0.92347 0.00501 0.0
C2320 C 0.55563 0.95344 0.96471 0.0
C2321 C 0.55009 0.97362 0.97912 0.0
C2322 C 0.58068 0.93853 -0.0028 0.0
C2323 C 0.55902 0.97513 0.00284 0.0
C2324 C 0.61746 0.93213 0.02288 0.0
C2325 C 0.62775 0.89085 -0.00413 0.0
N2326 N 0.57426 0.95799 0.01106 0.0
N2327 N 0.60658 0.90288 -0.00759 0.0
H2328 H 0.37436 0.39488 0.24734 0.0
H2329 H 0.24117 0.34444 0.26521 0.0
H2330 H 0.31256 0.43805 0.26906 0.0
H2331 H 0.30236 0.30006 0.24518 0.0
H2332 H 0.26938 0.37626 0.27858 0.0
H2333 H 0.35108 0.35855 0.25691 0.0
C2334 C 0.35598 0.39677 0.25438 0.0
C2335 C 0.34514 0.41958 0.25672 0.0
C2336 C 0.27678 0.35935 0.27193 0.0
C2337 C 0.31839 0.37794 0.26775 0.0
C2338 C 0.26065 0.34113 0.26453 0.0
C2339 C 0.26959 0.31985 0.25397 0.0
C2340 C 0.30195 0.35651 0.26791 0.0
C2341 C 0.29488 0.31631 0.25329 0.0
C2342 C 0.34274 0.37597 0.25997 0.0
C2343 C 0.32148 0.42087 0.26644 0.0
N2344 N 0.31026 0.33479 0.25952 0.0
N2345 N 0.30876 0.40033 0.27119 0.0
H2346 H 0.15333 0.60511 0.95498 0.0
H2347 H 0.07327 0.54914 0.04587 0.0
H2348 H 0.15759 0.63394 0.02798 0.0
H2349 H 0.04168 0.56664 0.9768 0.0
H2350 H 0.10179 0.58305 0.04184 0.0
H2351 H 0.11075 0.59345 0.96232 0.0
C2352 C 0.14506 0.60941 0.97237 0.0
C2353 C 0.15888 0.62015 -0.00899 0.0
C2354 C 0.08797 0.58009 0.02802 0.0
C2355 C 0.11068 0.60645 -0.00028 0.0
C2356 C 0.07174 0.56075 0.03033 0.0
C2357 C 0.0554 0.55506 0.0115 0.0
C2358 C 0.08839 0.593 0.00633 0.0
C2359 C 0.05408 0.57052 -0.00832 0.0
C2360 C 0.12077 0.60297 0.9765 0.0
C2361 C 0.14744 0.62553 0.01322 0.0
N2362 N 0.07104 0.58833 0.98915 0.0
N2363 N 0.12413 0.61792 0.01727 0.0
H2364 H 0.70561 0.94963 0.23376 0.0
H2365 H 0.68008 0.8276 0.30128 0.0
H2366 H 0.66401 0.94266 0.29972 0.0
H2367 H 0.73437 0.8314 0.24441 0.0
H2368 H 0.67716 0.87075 0.30165 0.0
H2369 H 0.72113 0.90854 0.23907 0.0
C2370 C 0.70061 0.93983 0.2499 0.0
C2371 C 0.68337 0.94932 0.26627 0.0
C2372 C 0.68994 0.86238 0.28916 0.0
C2373 C 0.70039 0.90246 0.27207 0.0
C2374 C 0.69154 0.83748 0.28878 0.0
C2375 C 0.70749 0.82559 0.27268 0.0
C2376 C 0.70413 0.87599 0.27312 0.0
C2377 C 0.72175 0.83976 0.25705 0.0
C2378 C 0.70922 0.9163 0.25275 0.0
C2379 C 0.67713 0.93587 0.28662 0.0
N2380 N 0.71957 0.8643 0.25748 0.0
N2381 N 0.68535 0.91304 0.28875 0.0
H2382 H 0.81235 0.05375 0.72897 0.0
H2383 H 0.82837 0.18675 0.77686 0.0
H2384 H 0.88224 0.08387 0.75031 0.0
H2385 H 0.76469 0.16271 0.73722 0.0
H2386 H 0.85047 0.15143 0.76197 0.0
H2387 H 0.79553 0.09444 0.72847 0.0
C2388 C 0.82412 0.06891 0.73366 0.0
C2389 C 0.8486 0.06541 0.74013 0.0
C2390 C 0.8319 0.15415 0.75586 0.0
C2391 C 0.82963 0.11198 0.73924 0.0
C2392 C 0.81944 0.17446 0.76414 0.0
C2393 C 0.79484 0.17742 0.75816 0.0
C2394 C 0.81928 0.1364 0.74227 0.0
C2395 C 0.78377 0.16095 0.74203 0.0
C2396 C 0.81461 0.09215 0.73305 0.0
C2397 C 0.86317 0.08572 0.74555 0.0
N2398 N 0.79589 0.14069 0.73511 0.0
N2399 N 0.85339 0.10812 0.74524 0.0
loop_
_geom_bond_atom_site_label_1
_geom_bond_atom_site_label_2
_geom_bond_distance
_geom_bond_site_symmetry_2
_ccdc_geom_bond_type
C0 O1 1.306 . S
C0 O3 1.160 . S
O1 C0 1.306 . S
O1 Cd2 2.228 1_655 S
Cd2 O1 2.228 1_455 S
Cd2 O6 2.273 . S
Cd2 O10 2.277 . S
O3 C0 1.160 . S
O3 Cd4 2.203 1_655 S
Cd4 O3 2.203 1_455 S
Cd4 O6 2.411 . S
Cd4 O7 2.333 . S
Cd4 O8 2.352 . S
Cd4 O12 2.277 . S
Cd4 O13 2.356 . S
C5 O10 1.209 . S
C5 O12 1.226 . S
O6 Cd2 2.273 . S
O6 Cd4 2.411 . S
O6 C9 1.320 . S
O7 Cd4 2.333 . S
O7 C9 1.214 . S
O8 Cd4 2.352 . S
O8 C11 1.258 . S
C9 O6 1.320 . S
C9 O7 1.214 . S
O10 Cd2 2.277 . S
O10 C5 1.209 . S
C11 O8 1.258 . S
C11 O13 1.282 . S
O12 Cd4 2.277 . S
O12 C5 1.226 . S
O13 Cd4 2.356 . S
O13 C11 1.282 . S
C14 O15 1.306 . S
C14 O17 1.160 . S
O15 C14 1.306 . S
O15 Cd16 2.228 1_655 S
Cd16 O15 2.228 1_455 S
Cd16 O20 2.273 . S
Cd16 O24 2.277 . S
O17 C14 1.160 . S
O17 Cd18 2.203 1_655 S
Cd18 O17 2.203 1_455 S
Cd18 O20 2.411 . S
Cd18 O21 2.333 . S
Cd18 O22 2.352 . S
Cd18 O26 2.277 . S
Cd18 O27 2.356 . S
C19 O24 1.209 . S
C19 O26 1.226 . S
O20 Cd16 2.273 . S
O20 Cd18 2.411 . S
O20 C23 1.320 . S
O21 Cd18 2.333 . S
O21 C23 1.214 . S
O22 Cd18 2.352 . S
O22 C25 1.258 . S
C23 O20 1.320 . S
C23 O21 1.214 . S
O24 Cd16 2.277 . S
O24 C19 1.209 . S
C25 O22 1.258 . S
C25 O27 1.282 . S
O26 Cd18 2.277 . S
O26 C19 1.226 . S
O27 Cd18 2.356 . S
O27 C25 1.282 . S
C28 O29 1.306 . S
C28 O31 1.160 . S
O29 C28 1.306 . S
O29 Cd30 2.228 . S
Cd30 O29 2.228 . S
Cd30 O34 2.273 . S
Cd30 O38 2.277 . S
O31 C28 1.160 . S
O31 Cd32 2.203 . S
Cd32 O31 2.203 . S
Cd32 O34 2.411 . S
Cd32 O35 2.333 . S
Cd32 O36 2.352 . S
Cd32 O40 2.277 . S
Cd32 O41 2.356 . S
C33 O38 1.209 . S
C33 O40 1.226 . S
O34 Cd30 2.273 . S
O34 Cd32 2.411 . S
O34 C37 1.320 . S
O35 Cd32 2.333 . S
O35 C37 1.214 . S
O36 Cd32 2.352 . S
O36 C39 1.258 . S
C37 O34 1.320 . S
C37 O35 1.214 . S
O38 Cd30 2.277 . S
O38 C33 1.209 . S
C39 O36 1.258 . S
C39 O41 1.282 . S
O40 Cd32 2.277 . S
O40 C33 1.226 . S
O41 Cd32 2.356 . S
O41 C39 1.282 . S
C42 O43 1.306 . S
C42 O45 1.160 . S
O43 C42 1.306 . S
O43 Cd44 2.228 . S
Cd44 O43 2.228 . S
Cd44 O48 2.273 . S
Cd44 O52 2.277 . S
O45 C42 1.160 . S
O45 Cd46 2.203 . S
Cd46 O45 2.203 . S
Cd46 O48 2.411 . S
Cd46 O49 2.333 . S
Cd46 O50 2.352 . S
Cd46 O54 2.277 . S
Cd46 O55 2.356 . S
C47 O52 1.209 . S
C47 O54 1.226 . S
O48 Cd44 2.273 . S
O48 Cd46 2.411 . S
O48 C51 1.320 . S
O49 Cd46 2.333 . S
O49 C51 1.214 . S
O50 Cd46 2.352 . S
O50 C53 1.258 . S
C51 O48 1.320 . S
C51 O49 1.214 . S
O52 Cd44 2.277 . S
O52 C47 1.209 . S
C53 O50 1.258 . S
C53 O55 1.282 . S
O54 Cd46 2.277 . S
O54 C47 1.226 . S
O55 Cd46 2.356 . S
O55 C53 1.282 . S
C56 O57 1.306 . S
C56 O59 1.165 . S
O57 C56 1.306 . S
O57 Cd58 2.228 . S
Cd58 O57 2.228 . S
Cd58 O62 2.273 . S
Cd58 O66 2.277 . S
O59 C56 1.165 . S
O59 Cd60 2.203 1_545 S
Cd60 O59 2.203 1_565 S
Cd60 O62 2.411 1_565 S
Cd60 O63 2.333 . S
Cd60 O64 2.352 . S
Cd60 O68 2.277 1_565 S
Cd60 O69 2.356 . S
C61 O66 1.209 . S
C61 O68 1.226 . S
O62 Cd58 2.273 . S
O62 Cd60 2.411 1_545 S
O62 C65 1.320 . S
O63 Cd60 2.333 . S
O63 C65 1.214 1_565 S
O64 Cd60 2.352 . S
O64 C67 1.258 . S
C65 O62 1.320 . S
C65 O63 1.214 1_545 S
O66 Cd58 2.277 . S
O66 C61 1.209 . S
C67 O64 1.258 . S
C67 O69 1.282 . S
O68 Cd60 2.277 1_545 S
O68 C61 1.226 . S
O69 Cd60 2.356 . S
O69 C67 1.282 . S
C70 O71 1.306 . S
C70 O73 1.160 . S
O71 C70 1.306 . S
O71 Cd72 2.228 . S
Cd72 O71 2.228 . S
Cd72 O76 2.273 . S
Cd72 O80 2.277 . S
O73 C70 1.160 . S
O73 Cd74 2.203 . S
Cd74 O73 2.203 . S
Cd74 O76 2.411 . S
Cd74 O77 2.333 . S
Cd74 O78 2.352 . S
Cd74 O82 2.277 . S
Cd74 O83 2.356 . S
C75 O80 1.209 . S
C75 O82 1.226 . S
O76 Cd72 2.273 . S
O76 Cd74 2.411 . S
O76 C79 1.320 . S
O77 Cd74 2.333 . S
O77 C79 1.214 . S
O78 Cd74 2.352 . S
O78 C81 1.258 . S
C79 O76 1.320 . S
C79 O77 1.214 . S
O80 Cd72 2.277 . S
O80 C75 1.209 . S
C81 O78 1.258 . S
C81 O83 1.282 . S
O82 Cd74 2.277 . S
O82 C75 1.226 . S
O83 Cd74 2.356 . S
O83 C81 1.282 . S
C84 O85 1.306 1_545 S
C84 O87 1.160 . S
O85 C84 1.306 1_565 S
O85 Cd86 2.228 . S
Cd86 O85 2.228 . S
Cd86 O90 2.273 1_565 S
Cd86 O94 2.277 . S
O87 C84 1.160 . S
O87 Cd88 2.203 . S
Cd88 O87 2.203 . S
Cd88 O90 2.411 . S
Cd88 O91 2.333 . S
Cd88 O92 2.352 . S
Cd88 O96 2.277 1_545 S
Cd88 O97 2.356 . S
C89 O94 1.209 . S
C89 O96 1.226 . S
O90 Cd86 2.273 1_545 S
O90 Cd88 2.411 . S
O90 C93 1.320 . S
O91 Cd88 2.333 . S
O91 C93 1.214 . S
O92 Cd88 2.352 . S
O92 C95 1.258 . S
C93 O90 1.320 . S
C93 O91 1.214 . S
O94 Cd86 2.277 . S
O94 C89 1.209 . S
C95 O92 1.258 . S
C95 O97 1.282 . S
O96 Cd88 2.277 1_565 S
O96 C89 1.226 . S
O97 Cd88 2.356 . S
O97 C95 1.282 . S
C98 O99 1.306 . S
C98 O101 1.160 . S
O99 C98 1.306 . S
O99 Cd100 2.228 . S
Cd100 O99 2.228 . S
Cd100 O104 2.273 . S
Cd100 O108 2.277 . S
O101 C98 1.160 . S
O101 Cd102 2.204 . S
Cd102 O101 2.204 . S
Cd102 O104 2.412 . S
Cd102 O105 2.333 . S
Cd102 O106 2.345 1_554 S
Cd102 O110 2.282 . S
Cd102 O111 2.352 1_554 S
C103 O108 1.209 . S
C103 O110 1.226 . S
O104 Cd100 2.273 . S
O104 Cd102 2.412 . S
O104 C107 1.320 . S
O105 Cd102 2.333 . S
O105 C107 1.215 . S
O106 Cd102 2.345 1_556 S
O106 C109 1.258 . S
C107 O104 1.320 . S
C107 O105 1.215 . S
O108 Cd100 2.277 . S
O108 C103 1.209 . S
C109 O106 1.258 . S
C109 O111 1.282 . S
O110 Cd102 2.282 . S
O110 C103 1.226 . S
O111 Cd102 2.352 1_556 S
O111 C109 1.282 . S
C112 O113 1.290 1_554 S
C112 O115 1.172 . S
O113 C112 1.290 1_556 S
O113 Cd114 2.228 . S
Cd114 O113 2.228 . S
Cd114 O118 2.273 1_556 S
Cd114 O122 2.277 . S
O115 C112 1.172 . S
O115 Cd116 2.203 . S
Cd116 O115 2.203 . S
Cd116 O118 2.411 . S
Cd116 O119 2.333 . S
Cd116 O120 2.352 . S
Cd116 O124 2.277 1_554 S
Cd116 O125 2.356 . S
C117 O122 1.209 . S
C117 O124 1.226 . S
O118 Cd114 2.273 1_554 S
O118 Cd116 2.411 . S
O118 C121 1.320 . S
O119 Cd116 2.333 . S
O119 C121 1.214 . S
O120 Cd116 2.352 . S
O120 C123 1.258 . S
C121 O118 1.320 . S
C121 O119 1.214 . S
O122 Cd114 2.277 . S
O122 C117 1.209 . S
C123 O120 1.258 . S
C123 O125 1.282 . S
O124 Cd116 2.277 1_556 S
O124 C117 1.226 . S
O125 Cd116 2.356 . S
O125 C123 1.282 . S
C126 O127 1.306 . S
C126 O129 1.160 . S
O127 C126 1.306 . S
O127 Cd128 2.228 . S
Cd128 O127 2.228 . S
Cd128 O132 2.273 . S
Cd128 O136 2.277 . S
O129 C126 1.160 . S
O129 Cd130 2.203 . S
Cd130 O129 2.203 . S
Cd130 O132 2.411 . S
Cd130 O133 2.333 . S
Cd130 O134 2.352 . S
Cd130 O138 2.277 . S
Cd130 O139 2.356 . S
C131 O136 1.209 . S
C131 O138 1.226 . S
O132 Cd128 2.273 . S
O132 Cd130 2.411 . S
O132 C135 1.320 . S
O133 Cd130 2.333 . S
O133 C135 1.214 . S
O134 Cd130 2.352 . S
O134 C137 1.258 . S
C135 O132 1.320 . S
C135 O133 1.214 . S
O136 Cd128 2.277 . S
O136 C131 1.209 . S
C137 O134 1.258 . S
C137 O139 1.282 . S
O138 Cd130 2.277 . S
O138 C131 1.226 . S
O139 Cd130 2.356 . S
O139 C137 1.282 . S
C140 O141 1.306 . S
C140 O143 1.160 . S
O141 C140 1.306 . S
O141 Cd142 2.228 . S
Cd142 O141 2.228 . S
Cd142 O146 2.273 . S
Cd142 O150 2.277 . S
O143 C140 1.160 . S
O143 Cd144 2.203 . S
Cd144 O143 2.203 . S
Cd144 O146 2.411 . S
Cd144 O147 2.333 . S
Cd144 O148 2.352 . S
Cd144 O152 2.277 . S
Cd144 O153 2.356 . S
C145 O150 1.209 . S
C145 O152 1.226 . S
O146 Cd142 2.273 . S
O146 Cd144 2.411 . S
O146 C149 1.320 . S
O147 Cd144 2.333 . S
O147 C149 1.214 . S
O148 Cd144 2.352 . S
O148 C151 1.258 . S
C149 O146 1.320 . S
C149 O147 1.214 . S
O150 Cd142 2.277 . S
O150 C145 1.209 . S
C151 O148 1.258 . S
C151 O153 1.282 . S
O152 Cd144 2.277 . S
O152 C145 1.226 . S
O153 Cd144 2.356 . S
O153 C151 1.282 . S
C154 O155 1.306 . S
C154 O157 1.160 . S
O155 C154 1.306 . S
O155 Cd156 2.228 . S
Cd156 O155 2.228 . S
Cd156 O160 2.273 . S
Cd156 O164 2.277 . S
O157 C154 1.160 . S
O157 Cd158 2.203 . S
Cd158 O157 2.203 . S
Cd158 O160 2.411 . S
Cd158 O161 2.333 . S
Cd158 O162 2.352 . S
Cd158 O166 2.277 . S
Cd158 O167 2.356 . S
C159 O164 1.209 . S
C159 O166 1.226 . S
O160 Cd156 2.273 . S
O160 Cd158 2.411 . S
O160 C163 1.320 . S
O161 Cd158 2.333 . S
O161 C163 1.214 . S
O162 Cd158 2.352 . S
O162 C165 1.258 . S
C163 O160 1.320 . S
C163 O161 1.214 . S
O164 Cd156 2.277 . S
O164 C159 1.209 . S
C165 O162 1.258 . S
C165 O167 1.282 . S
O166 Cd158 2.277 . S
O166 C159 1.226 . S
O167 Cd158 2.356 . S
O167 C165 1.282 . S
C168 O169 1.306 . S
C168 O171 1.160 . S
O169 C168 1.306 . S
O169 Cd170 2.228 1_655 S
Cd170 O169 2.228 1_455 S
Cd170 O174 2.273 . S
Cd170 O178 2.277 . S
O171 C168 1.160 . S
O171 Cd172 2.203 1_655 S
Cd172 O171 2.203 1_455 S
Cd172 O174 2.411 . S
Cd172 O175 2.333 . S
Cd172 O176 2.352 . S
Cd172 O180 2.277 . S
Cd172 O181 2.356 . S
C173 O178 1.209 . S
C173 O180 1.226 . S
O174 Cd170 2.273 . S
O174 Cd172 2.411 . S
O174 C177 1.320 . S
O175 Cd172 2.333 . S
O175 C177 1.214 . S
O176 Cd172 2.352 . S
O176 C179 1.258 . S
C177 O174 1.320 . S
C177 O175 1.214 . S
O178 Cd170 2.277 . S
O178 C173 1.209 . S
C179 O176 1.258 . S
C179 O181 1.282 . S
O180 Cd172 2.277 . S
O180 C173 1.226 . S
O181 Cd172 2.356 . S
O181 C179 1.282 . S
C182 O183 1.306 . S
C182 O185 1.160 . S
O183 C182 1.306 . S
O183 Cd184 2.228 1_655 S
Cd184 O183 2.228 1_455 S
Cd184 O188 2.273 . S
Cd184 O192 2.277 . S
O185 C182 1.160 . S
O185 Cd186 2.203 1_655 S
Cd186 O185 2.203 1_455 S
Cd186 O188 2.411 . S
Cd186 O189 2.333 . S
Cd186 O190 2.352 . S
Cd186 O194 2.277 . S
Cd186 O195 2.356 . S
C187 O192 1.209 . S
C187 O194 1.226 . S
O188 Cd184 2.273 . S
O188 Cd186 2.411 . S
O188 C191 1.320 . S
O189 Cd186 2.333 . S
O189 C191 1.214 . S
O190 Cd186 2.352 . S
O190 C193 1.258 . S
C191 O188 1.320 . S
C191 O189 1.214 . S
O192 Cd184 2.277 . S
O192 C187 1.209 . S
C193 O190 1.258 . S
C193 O195 1.282 . S
O194 Cd186 2.277 . S
O194 C187 1.226 . S
O195 Cd186 2.356 . S
O195 C193 1.282 . S
C196 O197 1.306 . S
C196 O199 1.160 . S
O197 C196 1.306 . S
O197 Cd198 2.228 . S
Cd198 O197 2.228 . S
Cd198 O202 2.273 . S
Cd198 O206 2.277 . S
O199 C196 1.160 . S
O199 Cd200 2.203 . S
Cd200 O199 2.203 . S
Cd200 O202 2.411 . S
Cd200 O203 2.333 . S
Cd200 O204 2.352 . S
Cd200 O208 2.277 . S
Cd200 O209 2.356 . S
C201 O206 1.209 . S
C201 O208 1.226 . S
O202 Cd198 2.273 . S
O202 Cd200 2.411 . S
O202 C205 1.320 . S
O203 Cd200 2.333 . S
O203 C205 1.214 . S
O204 Cd200 2.352 . S
O204 C207 1.258 . S
C205 O202 1.320 . S
C205 O203 1.214 . S
O206 Cd198 2.277 . S
O206 C201 1.209 . S
C207 O204 1.258 . S
C207 O209 1.282 . S
O208 Cd200 2.277 . S
O208 C201 1.226 . S
O209 Cd200 2.356 . S
O209 C207 1.282 . S
C210 O211 1.306 . S
C210 O213 1.160 . S
O211 C210 1.306 . S
O211 Cd212 2.228 . S
Cd212 O211 2.228 . S
Cd212 O216 2.273 . S
Cd212 O220 2.277 . S
O213 C210 1.160 . S
O213 Cd214 2.203 . S
Cd214 O213 2.203 . S
Cd214 O216 2.411 . S
Cd214 O217 2.333 . S
Cd214 O218 2.352 . S
Cd214 O222 2.277 . S
Cd214 O223 2.356 . S
C215 O220 1.209 . S
C215 O222 1.226 . S
O216 Cd212 2.273 . S
O216 Cd214 2.411 . S
O216 C219 1.320 . S
O217 Cd214 2.333 . S
O217 C219 1.214 . S
O218 Cd214 2.352 . S
O218 C221 1.258 . S
C219 O216 1.320 . S
C219 O217 1.214 . S
O220 Cd212 2.277 . S
O220 C215 1.209 . S
C221 O218 1.258 . S
C221 O223 1.282 . S
O222 Cd214 2.277 . S
O222 C215 1.226 . S
O223 Cd214 2.356 . S
O223 C221 1.282 . S
C224 O225 1.306 . S
C224 O227 1.160 1_565 S
O225 C224 1.306 . S
O225 Cd226 2.228 . S
Cd226 O225 2.228 . S
Cd226 O230 2.276 . S
Cd226 O234 2.277 . S
O227 C224 1.160 1_545 S
O227 Cd228 2.203 . S
Cd228 O227 2.203 . S
Cd228 O230 2.411 1_545 S
Cd228 O231 2.333 . S
Cd228 O232 2.352 . S
Cd228 O236 2.277 1_545 S
Cd228 O237 2.356 . S
C229 O234 1.209 . S
C229 O236 1.226 . S
O230 Cd226 2.276 . S
O230 Cd228 2.411 1_565 S
O230 C233 1.320 1_565 S
O231 Cd228 2.333 . S
O231 C233 1.214 . S
O232 Cd228 2.352 . S
O232 C235 1.258 . S
C233 O230 1.320 1_545 S
C233 O231 1.214 . S
O234 Cd226 2.277 . S
O234 C229 1.209 . S
C235 O232 1.258 . S
C235 O237 1.282 . S
O236 Cd228 2.277 1_565 S
O236 C229 1.226 . S
O237 Cd228 2.356 . S
O237 C235 1.282 . S
C238 O239 1.306 . S
C238 O241 1.160 . S
O239 C238 1.306 . S
O239 Cd240 2.228 . S
Cd240 O239 2.228 . S
Cd240 O244 2.273 . S
Cd240 O248 2.277 . S
O241 C238 1.160 . S
O241 Cd242 2.203 . S
Cd242 O241 2.203 . S
Cd242 O244 2.411 . S
Cd242 O245 2.333 . S
Cd242 O246 2.352 . S
Cd242 O250 2.277 . S
Cd242 O251 2.356 . S
C243 O248 1.209 . S
C243 O250 1.226 . S
O244 Cd240 2.273 . S
O244 Cd242 2.411 . S
O244 C247 1.320 . S
O245 Cd242 2.333 . S
O245 C247 1.214 . S
O246 Cd242 2.352 . S
O246 C249 1.258 . S
C247 O244 1.320 . S
C247 O245 1.214 . S
O248 Cd240 2.277 . S
O248 C243 1.209 . S
C249 O246 1.258 . S
C249 O251 1.282 . S
O250 Cd242 2.277 . S
O250 C243 1.226 . S
O251 Cd242 2.356 . S
O251 C249 1.282 . S
C252 O253 1.306 . S
C252 O255 1.160 . S
O253 C252 1.306 . S
O253 Cd254 2.228 . S
Cd254 O253 2.228 . S
Cd254 O258 2.273 . S
Cd254 O262 2.277 . S
O255 C252 1.160 . S
O255 Cd256 2.203 1_545 S
Cd256 O255 2.203 1_565 S
Cd256 O258 2.408 1_565 S
Cd256 O259 2.333 . S
Cd256 O260 2.373 . S
Cd256 O264 2.260 1_565 S
Cd256 O265 2.371 . S
C257 O262 1.209 . S
C257 O264 1.226 . S
O258 Cd254 2.273 . S
O258 Cd256 2.408 1_545 S
O258 C261 1.320 . S
O259 Cd256 2.333 . S
O259 C261 1.214 1_565 S
O260 Cd256 2.373 . S
O260 C263 1.258 . S
C261 O258 1.320 . S
C261 O259 1.214 1_545 S
O262 Cd254 2.277 . S
O262 C257 1.209 . S
C263 O260 1.258 . S
C263 O265 1.282 . S
O264 Cd256 2.260 1_545 S
O264 C257 1.226 . S
O265 Cd256 2.371 . S
O265 C263 1.282 . S
C266 O267 1.306 1_554 S
C266 O269 1.160 . S
O267 C266 1.306 1_556 S
O267 Cd268 2.228 . S
Cd268 O267 2.228 . S
Cd268 O272 2.273 1_556 S
Cd268 O276 2.277 . S
O269 C266 1.160 . S
O269 Cd270 2.203 . S
Cd270 O269 2.203 . S
Cd270 O272 2.411 . S
Cd270 O273 2.333 . S
Cd270 O274 2.352 . S
Cd270 O278 2.277 1_554 S
Cd270 O279 2.356 . S
C271 O276 1.209 . S
C271 O278 1.226 . S
O272 Cd268 2.273 1_554 S
O272 Cd270 2.411 . S
O272 C275 1.320 . S
O273 Cd270 2.333 . S
O273 C275 1.214 . S
O274 Cd270 2.352 . S
O274 C277 1.258 . S
C275 O272 1.320 . S
C275 O273 1.214 . S
O276 Cd268 2.277 . S
O276 C271 1.209 . S
C277 O274 1.258 . S
C277 O279 1.282 . S
O278 Cd270 2.277 1_556 S
O278 C271 1.226 . S
O279 Cd270 2.356 . S
O279 C277 1.282 . S
C280 O281 1.306 . S
C280 O283 1.160 1_554 S
O281 C280 1.306 . S
O281 Cd282 2.228 . S
Cd282 O281 2.228 . S
Cd282 O286 2.273 . S
Cd282 O290 2.277 . S
O283 C280 1.160 1_556 S
O283 Cd284 2.203 . S
Cd284 O283 2.203 . S
Cd284 O286 2.411 1_556 S
Cd284 O287 2.333 . S
Cd284 O288 2.352 . S
Cd284 O292 2.277 1_556 S
Cd284 O293 2.356 . S
C285 O290 1.209 . S
C285 O292 1.226 . S
O286 Cd282 2.273 . S
O286 Cd284 2.411 1_554 S
O286 C289 1.318 1_554 S
O287 Cd284 2.333 . S
O287 C289 1.217 . S
O288 Cd284 2.352 . S
O288 C291 1.258 . S
C289 O286 1.318 1_556 S
C289 O287 1.217 . S
O290 Cd282 2.277 . S
O290 C285 1.209 . S
C291 O288 1.258 . S
C291 O293 1.282 . S
O292 Cd284 2.277 1_554 S
O292 C285 1.226 . S
O293 Cd284 2.356 . S
O293 C291 1.282 . S
C294 O295 1.306 . S
C294 O297 1.160 . S
O295 C294 1.306 . S
O295 Cd296 2.228 . S
Cd296 O295 2.228 . S
Cd296 O300 2.273 . S
Cd296 O304 2.277 . S
O297 C294 1.160 . S
O297 Cd298 2.203 . S
Cd298 O297 2.203 . S
Cd298 O300 2.411 . S
Cd298 O301 2.333 . S
Cd298 O302 2.352 . S
Cd298 O306 2.277 . S
Cd298 O307 2.356 . S
C299 O304 1.209 . S
C299 O306 1.226 . S
O300 Cd296 2.273 . S
O300 Cd298 2.411 . S
O300 C303 1.320 . S
O301 Cd298 2.333 . S
O301 C303 1.214 . S
O302 Cd298 2.352 . S
O302 C305 1.258 . S
C303 O300 1.320 . S
C303 O301 1.214 . S
O304 Cd296 2.277 . S
O304 C299 1.209 . S
C305 O302 1.258 . S
C305 O307 1.282 . S
O306 Cd298 2.277 . S
O306 C299 1.226 . S
O307 Cd298 2.356 . S
O307 C305 1.282 . S
C308 O309 1.306 . S
C308 O311 1.160 . S
O309 C308 1.306 . S
O309 Cd310 2.228 . S
Cd310 O309 2.228 . S
Cd310 O314 2.273 . S
Cd310 O318 2.277 . S
O311 C308 1.160 . S
O311 Cd312 2.203 . S
Cd312 O311 2.203 . S
Cd312 O314 2.411 . S
Cd312 O315 2.333 . S
Cd312 O316 2.352 . S
Cd312 O320 2.277 . S
Cd312 O321 2.356 . S
C313 O318 1.209 . S
C313 O320 1.226 . S
O314 Cd310 2.273 . S
O314 Cd312 2.411 . S
O314 C317 1.320 . S
O315 Cd312 2.333 . S
O315 C317 1.214 . S
O316 Cd312 2.352 . S
O316 C319 1.258 . S
C317 O314 1.320 . S
C317 O315 1.214 . S
O318 Cd310 2.277 . S
O318 C313 1.209 . S
C319 O316 1.258 . S
C319 O321 1.282 . S
O320 Cd312 2.277 . S
O320 C313 1.226 . S
O321 Cd312 2.356 . S
O321 C319 1.282 . S
C322 O323 1.306 . S
C322 O325 1.160 . S
O323 C322 1.306 . S
O323 Cd324 2.228 . S
Cd324 O323 2.228 . S
Cd324 O328 2.273 . S
Cd324 O332 2.277 . S
O325 C322 1.160 . S
O325 Cd326 2.203 . S
Cd326 O325 2.203 . S
Cd326 O328 2.411 . S
Cd326 O329 2.333 . S
Cd326 O330 2.352 . S
Cd326 O334 2.277 . S
Cd326 O335 2.356 . S
C327 O332 1.209 . S
C327 O334 1.226 . S
O328 Cd324 2.273 . S
O328 Cd326 2.411 . S
O328 C331 1.320 . S
O329 Cd326 2.333 . S
O329 C331 1.214 . S
O330 Cd326 2.352 . S
O330 C333 1.258 . S
C331 O328 1.320 . S
C331 O329 1.214 . S
O332 Cd324 2.277 . S
O332 C327 1.209 . S
C333 O330 1.258 . S
C333 O335 1.282 . S
O334 Cd326 2.277 . S
O334 C327 1.226 . S
O335 Cd326 2.356 . S
O335 C333 1.282 . S
O336 Mg337 1.990 . S
O336 C350 1.253 . S
Mg337 O336 1.990 . S
Mg337 O340 2.180 1_556 S
Mg337 O341 2.117 1_556 S
Mg337 O355 2.030 1_556 S
O338 Mg339 2.072 1_656 S
O338 C350 1.260 . S
Mg339 O338 2.072 1_454 S
Mg339 O340 2.099 1_455 S
Mg339 O342 2.079 1_545 S
Mg339 O343 2.080 . S
Mg339 O345 2.099 1_544 S
Mg339 O356 2.079 1_445 S
O340 Mg337 2.180 1_554 S
O340 Mg339 2.099 1_655 S
O340 C351 1.279 . S
O341 Mg337 2.117 1_554 S
O341 C351 1.250 . S
O342 Mg339 2.079 1_565 S
O342 C352 1.264 . S
O343 Mg339 2.080 . S
O343 C353 1.256 1_554 S
Mg344 O345 2.181 1_554 S
Mg344 O346 2.030 . S
Mg344 O347 1.990 1_554 S
Mg344 O348 2.117 1_554 S
O345 Mg339 2.099 1_566 S
O345 Mg344 2.181 1_556 S
O345 C354 1.277 . S
O346 Mg344 2.030 . S
O346 C352 1.248 . S
O347 Mg344 1.990 1_556 S
O347 C353 1.253 1_565 S
O348 Mg344 2.117 1_556 S
O348 C354 1.250 . S
C349 O355 1.246 1_565 S
C349 O356 1.264 . S
C350 O336 1.253 . S
C350 O338 1.260 . S
C351 O340 1.279 . S
C351 O341 1.250 . S
C352 O342 1.264 . S
C352 O346 1.248 . S
C353 O343 1.256 1_556 S
C353 O347 1.253 1_545 S
C354 O345 1.277 . S
C354 O348 1.250 . S
O355 Mg337 2.030 1_554 S
O355 C349 1.246 1_545 S
O356 Mg339 2.079 1_665 S
O356 C349 1.264 . S
O357 Mg358 1.990 . S
O357 C371 1.253 . S
Mg358 O357 1.990 . S
Mg358 O361 2.180 . S
Mg358 O362 2.117 . S
Mg358 O376 2.030 . S
O359 Mg360 2.072 . S
O359 C371 1.260 . S
Mg360 O359 2.072 . S
Mg360 O361 2.099 . S
Mg360 O363 2.079 . S
Mg360 O364 2.072 . S
Mg360 O366 2.099 . S
Mg360 O377 2.079 . S
O361 Mg358 2.180 . S
O361 Mg360 2.099 . S
O361 C372 1.279 . S
O362 Mg358 2.117 . S
O362 C372 1.250 . S
O363 Mg360 2.079 . S
O363 C373 1.264 . S
O364 Mg360 2.072 . S
O364 C374 1.260 . S
Mg365 O366 2.180 . S
Mg365 O367 2.030 . S
Mg365 O368 1.990 . S
Mg365 O369 2.117 . S
O366 Mg360 2.099 . S
O366 Mg365 2.180 . S
O366 C375 1.279 . S
O367 Mg365 2.030 . S
O367 C373 1.248 . S
O368 Mg365 1.990 . S
O368 C374 1.253 . S
O369 Mg365 2.117 . S
O369 C375 1.250 . S
C370 O376 1.248 . S
C370 O377 1.264 . S
C371 O357 1.253 . S
C371 O359 1.260 . S
C372 O361 1.279 . S
C372 O362 1.250 . S
C373 O363 1.264 . S
C373 O367 1.248 . S
C374 O364 1.260 . S
C374 O368 1.253 . S
C375 O366 1.279 . S
C375 O369 1.250 . S
O376 Mg358 2.030 . S
O376 C370 1.248 . S
O377 Mg360 2.079 . S
O377 C370 1.264 . S
O378 Mg379 1.990 . S
O378 C392 1.253 . S
Mg379 O378 1.990 . S
Mg379 O382 2.180 . S
Mg379 O383 2.117 . S
Mg379 O397 2.030 1_565 S
O380 Mg381 2.072 . S
O380 C392 1.260 1_545 S
Mg381 O380 2.072 . S
Mg381 O382 2.099 1_545 S
Mg381 O384 2.079 . S
Mg381 O385 2.072 1_545 S
Mg381 O387 2.099 . S
Mg381 O398 2.079 . S
O382 Mg379 2.180 . S
O382 Mg381 2.099 1_565 S
O382 C393 1.279 . S
O383 Mg379 2.117 . S
O383 C393 1.250 . S
O384 Mg381 2.079 . S
O384 C394 1.264 . S
O385 Mg381 2.072 1_565 S
O385 C395 1.260 . S
Mg386 O387 2.180 . S
Mg386 O388 2.030 . S
Mg386 O389 1.990 . S
Mg386 O390 2.117 . S
O387 Mg381 2.099 . S
O387 Mg386 2.180 . S
O387 C396 1.279 . S
O388 Mg386 2.030 . S
O388 C394 1.248 . S
O389 Mg386 1.990 . S
O389 C395 1.253 1_545 S
O390 Mg386 2.117 . S
O390 C396 1.250 . S
C391 O397 1.248 . S
C391 O398 1.264 . S
C392 O378 1.253 . S
C392 O380 1.260 1_565 S
C393 O382 1.279 . S
C393 O383 1.250 . S
C394 O384 1.264 . S
C394 O388 1.248 . S
C395 O385 1.260 . S
C395 O389 1.253 1_565 S
C396 O387 1.279 . S
C396 O390 1.250 . S
O397 Mg379 2.030 1_545 S
O397 C391 1.248 . S
O398 Mg381 2.079 . S
O398 C391 1.264 . S
O399 Mg400 1.990 . S
O399 C413 1.253 . S
Mg400 O399 1.990 . S
Mg400 O403 2.180 . S
Mg400 O404 2.117 . S
Mg400 O418 2.030 . S
O401 Mg402 2.072 . S
O401 C413 1.260 . S
Mg402 O401 2.072 . S
Mg402 O403 2.099 . S
Mg402 O405 2.079 . S
Mg402 O406 2.072 . S
Mg402 O408 2.099 . S
Mg402 O419 2.079 . S
O403 Mg400 2.180 . S
O403 Mg402 2.099 . S
O403 C414 1.279 . S
O404 Mg400 2.117 . S
O404 C414 1.250 . S
O405 Mg402 2.079 . S
O405 C415 1.264 . S
O406 Mg402 2.072 . S
O406 C416 1.260 . S
Mg407 O408 2.180 . S
Mg407 O409 2.030 . S
Mg407 O410 1.990 . S
Mg407 O411 2.117 . S
O408 Mg402 2.099 . S
O408 Mg407 2.180 . S
O408 C417 1.279 . S
O409 Mg407 2.030 . S
O409 C415 1.248 . S
O410 Mg407 1.990 . S
O410 C416 1.253 . S
O411 Mg407 2.117 . S
O411 C417 1.250 . S
C412 O418 1.248 . S
C412 O419 1.264 . S
C413 O399 1.253 . S
C413 O401 1.260 . S
C414 O403 1.279 . S
C414 O404 1.250 . S
C415 O405 1.264 . S
C415 O409 1.248 . S
C416 O406 1.260 . S
C416 O410 1.253 . S
C417 O408 1.279 . S
C417 O411 1.250 . S
O418 Mg400 2.030 . S
O418 C412 1.248 . S
O419 Mg402 2.079 . S
O419 C412 1.264 . S
O420 Mg421 1.990 1_655 S
O420 C434 1.255 . S
Mg421 O420 1.990 1_455 S
Mg421 O424 2.180 . S
Mg421 O425 2.117 1_455 S
Mg421 O439 2.030 . S
O422 Mg423 2.072 1_565 S
O422 C434 1.258 1_455 S
Mg423 O422 2.072 1_545 S
Mg423 O424 2.099 1_545 S
Mg423 O426 2.079 . S
Mg423 O427 2.072 1_455 S
Mg423 O429 2.099 . S
Mg423 O440 2.079 1_545 S
O424 Mg421 2.180 . S
O424 Mg423 2.099 1_565 S
O424 C435 1.279 1_455 S
O425 Mg421 2.117 1_655 S
O425 C435 1.250 . S
O426 Mg423 2.079 . S
O426 C436 1.264 . S
O427 Mg423 2.072 1_655 S
O427 C437 1.260 . S
Mg428 O429 2.161 1_655 S
Mg428 O430 2.027 1_655 S
Mg428 O431 2.024 . S
Mg428 O432 2.109 1_655 S
O429 Mg423 2.099 . S
O429 Mg428 2.161 1_455 S
O429 C438 1.279 . S
O430 Mg428 2.027 1_455 S
O430 C436 1.248 . S
O431 Mg428 2.024 . S
O431 C437 1.253 . S
O432 Mg428 2.109 1_455 S
O432 C438 1.250 . S
C433 O439 1.248 . S
C433 O440 1.264 . S
C434 O420 1.255 . S
C434 O422 1.258 1_655 S
C435 O424 1.279 1_655 S
C435 O425 1.250 . S
C436 O426 1.264 . S
C436 O430 1.248 . S
C437 O427 1.260 . S
C437 O431 1.253 . S
C438 O429 1.279 . S
C438 O432 1.250 . S
O439 Mg421 2.030 . S
O439 C433 1.248 . S
O440 Mg423 2.079 1_565 S
O440 C433 1.264 . S
O441 Mg442 1.990 . S
O441 C455 1.253 . S
Mg442 O441 1.990 . S
Mg442 O445 2.180 . S
Mg442 O446 2.117 . S
Mg442 O460 2.030 . S
O443 Mg444 2.072 . S
O443 C455 1.260 . S
Mg444 O443 2.072 . S
Mg444 O445 2.099 . S
Mg444 O447 2.079 . S
Mg444 O448 2.072 . S
Mg444 O450 2.099 . S
Mg444 O461 2.079 . S
O445 Mg442 2.180 . S
O445 Mg444 2.099 . S
O445 C456 1.279 . S
O446 Mg442 2.117 . S
O446 C456 1.250 . S
O447 Mg444 2.079 . S
O447 C457 1.264 . S
O448 Mg444 2.072 . S
O448 C458 1.260 . S
Mg449 O450 2.180 . S
Mg449 O451 2.030 . S
Mg449 O452 1.990 . S
Mg449 O453 2.117 . S
O450 Mg444 2.099 . S
O450 Mg449 2.180 . S
O450 C459 1.279 . S
O451 Mg449 2.030 . S
O451 C457 1.248 . S
O452 Mg449 1.990 . S
O452 C458 1.253 . S
O453 Mg449 2.117 . S
O453 C459 1.250 . S
C454 O460 1.248 . S
C454 O461 1.264 . S
C455 O441 1.253 . S
C455 O443 1.260 . S
C456 O445 1.279 . S
C456 O446 1.250 . S
C457 O447 1.264 . S
C457 O451 1.248 . S
C458 O448 1.260 . S
C458 O452 1.253 . S
C459 O450 1.279 . S
C459 O453 1.250 . S
O460 Mg442 2.030 . S
O460 C454 1.248 . S
O461 Mg444 2.079 . S
O461 C454 1.264 . S
O462 Mg463 1.990 . S
O462 C476 1.253 . S
Mg463 O462 1.990 . S
Mg463 O466 2.180 1_565 S
Mg463 O467 2.117 1_565 S
Mg463 O481 2.030 . S
O464 Mg465 2.072 1_565 S
O464 C476 1.260 . S
Mg465 O464 2.072 1_545 S
Mg465 O466 2.099 . S
Mg465 O468 2.079 1_554 S
Mg465 O469 2.072 1_544 S
Mg465 O471 2.091 1_544 S
Mg465 O482 2.079 . S
O466 Mg463 2.180 1_545 S
O466 Mg465 2.099 . S
O466 C477 1.279 . S
O467 Mg463 2.117 1_545 S
O467 C477 1.250 . S
O468 Mg465 2.079 1_556 S
O468 C478 1.264 . S
O469 Mg465 2.072 1_566 S
O469 C479 1.260 . S
Mg470 O471 2.167 1_545 S
Mg470 O472 2.030 . S
Mg470 O473 1.990 1_545 S
Mg470 O474 2.117 1_545 S
O471 Mg465 2.091 1_566 S
O471 Mg470 2.167 1_565 S
O471 C480 1.309 . S
O472 Mg470 2.030 . S
O472 C478 1.248 . S
O473 Mg470 1.990 1_565 S
O473 C479 1.253 . S
O474 Mg470 2.117 1_565 S
O474 C480 1.250 . S
C475 O481 1.244 1_545 S
C475 O482 1.264 . S
C476 O462 1.253 . S
C476 O464 1.260 . S
C477 O466 1.279 . S
C477 O467 1.250 . S
C478 O468 1.264 . S
C478 O472 1.248 . S
C479 O469 1.260 . S
C479 O473 1.253 . S
C480 O471 1.309 . S
C480 O474 1.250 . S
O481 Mg463 2.030 . S
O481 C475 1.244 1_565 S
O482 Mg465 2.079 . S
O482 C475 1.264 . S
O483 Mg484 1.990 . S
O483 C497 1.253 . S
Mg484 O483 1.990 . S
Mg484 O487 2.180 . S
Mg484 O488 2.117 . S
Mg484 O502 2.030 . S
O485 Mg486 2.072 . S
O485 C497 1.260 . S
Mg486 O485 2.072 . S
Mg486 O487 2.099 . S
Mg486 O489 2.079 . S
Mg486 O490 2.072 . S
Mg486 O492 2.099 . S
Mg486 O503 2.079 . S
O487 Mg484 2.180 . S
O487 Mg486 2.099 . S
O487 C498 1.279 . S
O488 Mg484 2.117 . S
O488 C498 1.250 . S
O489 Mg486 2.079 . S
O489 C499 1.264 . S
O490 Mg486 2.072 . S
O490 C500 1.260 . S
Mg491 O492 2.180 . S
Mg491 O493 2.030 . S
Mg491 O494 1.990 . S
Mg491 O495 2.117 . S
O492 Mg486 2.099 . S
O492 Mg491 2.180 . S
O492 C501 1.279 . S
O493 Mg491 2.030 . S
O493 C499 1.248 . S
O494 Mg491 1.990 . S
O494 C500 1.253 . S
O495 Mg491 2.117 . S
O495 C501 1.250 . S
C496 O502 1.248 . S
C496 O503 1.264 . S
C497 O483 1.253 . S
C497 O485 1.260 . S
C498 O487 1.279 . S
C498 O488 1.250 . S
C499 O489 1.264 . S
C499 O493 1.248 . S
C500 O490 1.260 . S
C500 O494 1.253 . S
C501 O492 1.279 . S
C501 O495 1.250 . S
O502 Mg484 2.030 . S
O502 C496 1.248 . S
O503 Mg486 2.079 . S
O503 C496 1.264 . S
O504 Mg505 1.990 . S
O504 C518 1.253 . S
Mg505 O504 1.990 . S
Mg505 O508 2.180 . S
Mg505 O509 2.117 . S
Mg505 O523 2.030 1_556 S
O506 Mg507 2.072 . S
O506 C518 1.260 1_554 S
Mg507 O506 2.072 . S
Mg507 O508 2.099 1_554 S
Mg507 O510 2.079 . S
Mg507 O511 2.072 1_554 S
Mg507 O513 2.099 . S
Mg507 O524 2.079 . S
O508 Mg505 2.180 . S
O508 Mg507 2.099 1_556 S
O508 C519 1.279 . S
O509 Mg505 2.117 . S
O509 C519 1.250 . S
O510 Mg507 2.079 . S
O510 C520 1.264 . S
O511 Mg507 2.072 1_556 S
O511 C521 1.260 . S
Mg512 O513 2.180 . S
Mg512 O514 2.030 . S
Mg512 O515 1.990 . S
Mg512 O516 2.117 . S
O513 Mg507 2.099 . S
O513 Mg512 2.180 . S
O513 C522 1.279 . S
O514 Mg512 2.030 . S
O514 C520 1.248 . S
O515 Mg512 1.990 . S
O515 C521 1.253 1_554 S
O516 Mg512 2.117 . S
O516 C522 1.250 . S
C517 O523 1.248 . S
C517 O524 1.264 . S
C518 O504 1.253 . S
C518 O506 1.260 1_556 S
C519 O508 1.279 . S
C519 O509 1.250 . S
C520 O510 1.264 . S
C520 O514 1.248 . S
C521 O511 1.260 . S
C521 O515 1.253 1_556 S
C522 O513 1.279 . S
C522 O516 1.250 . S
O523 Mg505 2.030 1_554 S
O523 C517 1.248 . S
O524 Mg507 2.079 . S
O524 C517 1.264 . S
O525 Mg526 1.990 . S
O525 C539 1.253 . S
Mg526 O525 1.990 . S
Mg526 O529 2.180 . S
Mg526 O530 2.117 . S
Mg526 O544 2.030 . S
O527 Mg528 2.072 . S
O527 C539 1.260 . S
Mg528 O527 2.072 . S
Mg528 O529 2.099 . S
Mg528 O531 2.079 . S
Mg528 O532 2.072 . S
Mg528 O534 2.099 . S
Mg528 O545 2.079 . S
O529 Mg526 2.180 . S
O529 Mg528 2.099 . S
O529 C540 1.279 . S
O530 Mg526 2.117 . S
O530 C540 1.250 . S
O531 Mg528 2.079 . S
O531 C541 1.264 . S
O532 Mg528 2.072 . S
O532 C542 1.260 . S
Mg533 O534 2.180 . S
Mg533 O535 2.030 . S
Mg533 O536 1.990 . S
Mg533 O537 2.117 . S
O534 Mg528 2.099 . S
O534 Mg533 2.180 . S
O534 C543 1.279 . S
O535 Mg533 2.030 . S
O535 C541 1.248 . S
O536 Mg533 1.990 . S
O536 C542 1.253 . S
O537 Mg533 2.117 . S
O537 C543 1.250 . S
C538 O544 1.248 . S
C538 O545 1.264 . S
C539 O525 1.253 . S
C539 O527 1.260 . S
C540 O529 1.279 . S
C540 O530 1.250 . S
C541 O531 1.264 . S
C541 O535 1.248 . S
C542 O532 1.260 . S
C542 O536 1.253 . S
C543 O534 1.279 . S
C543 O537 1.250 . S
O544 Mg526 2.030 . S
O544 C538 1.248 . S
O545 Mg528 2.079 . S
O545 C538 1.264 . S
O546 Mg547 1.990 . S
O546 C560 1.253 . S
Mg547 O546 1.990 . S
Mg547 O550 2.180 . S
Mg547 O551 2.117 . S
Mg547 O565 2.030 1_655 S
O548 Mg549 2.072 . S
O548 C560 1.260 1_455 S
Mg549 O548 2.072 . S
Mg549 O550 2.099 1_455 S
Mg549 O552 2.079 . S
Mg549 O553 2.072 1_455 S
Mg549 O555 2.099 . S
Mg549 O566 2.079 . S
O550 Mg547 2.180 . S
O550 Mg549 2.099 1_655 S
O550 C561 1.279 . S
O551 Mg547 2.117 . S
O551 C561 1.250 . S
O552 Mg549 2.079 . S
O552 C562 1.264 . S
O553 Mg549 2.072 1_655 S
O553 C563 1.260 . S
Mg554 O555 2.180 . S
Mg554 O556 2.030 . S
Mg554 O557 1.990 . S
Mg554 O558 2.117 . S
O555 Mg549 2.099 . S
O555 Mg554 2.180 . S
O555 C564 1.279 . S
O556 Mg554 2.030 . S
O556 C562 1.248 . S
O557 Mg554 1.990 . S
O557 C563 1.253 1_455 S
O558 Mg554 2.117 . S
O558 C564 1.250 . S
C559 O565 1.248 . S
C559 O566 1.264 . S
C560 O546 1.253 . S
C560 O548 1.260 1_655 S
C561 O550 1.279 . S
C561 O551 1.250 . S
C562 O552 1.264 . S
C562 O556 1.248 . S
C563 O553 1.260 . S
C563 O557 1.253 1_655 S
C564 O555 1.279 . S
C564 O558 1.250 . S
O565 Mg547 2.030 1_455 S
O565 C559 1.248 . S
O566 Mg549 2.079 . S
O566 C559 1.264 . S
O567 Mg568 1.990 . S
O567 C581 1.253 . S
Mg568 O567 1.990 . S
Mg568 O571 2.180 . S
Mg568 O572 2.117 . S
Mg568 O586 2.030 . S
O569 Mg570 2.072 . S
O569 C581 1.260 . S
Mg570 O569 2.072 . S
Mg570 O571 2.099 . S
Mg570 O573 2.079 . S
Mg570 O574 2.072 . S
Mg570 O576 2.099 . S
Mg570 O587 2.079 . S
O571 Mg568 2.180 . S
O571 Mg570 2.099 . S
O571 C582 1.279 . S
O572 Mg568 2.117 . S
O572 C582 1.250 . S
O573 Mg570 2.079 . S
O573 C583 1.264 . S
O574 Mg570 2.072 . S
O574 C584 1.260 . S
Mg575 O576 2.180 . S
Mg575 O577 2.030 . S
Mg575 O578 1.990 . S
Mg575 O579 2.117 . S
O576 Mg570 2.099 . S
O576 Mg575 2.180 . S
O576 C585 1.279 . S
O577 Mg575 2.030 . S
O577 C583 1.248 . S
O578 Mg575 1.990 . S
O578 C584 1.253 . S
O579 Mg575 2.117 . S
O579 C585 1.250 . S
C580 O586 1.248 . S
C580 O587 1.264 . S
C581 O567 1.253 . S
C581 O569 1.260 . S
C582 O571 1.279 . S
C582 O572 1.250 . S
C583 O573 1.264 . S
C583 O577 1.248 . S
C584 O574 1.260 . S
C584 O578 1.253 . S
C585 O576 1.279 . S
C585 O579 1.250 . S
O586 Mg568 2.030 . S
O586 C580 1.248 . S
O587 Mg570 2.079 . S
O587 C580 1.264 . S
O588 Mg589 1.990 . S
O588 C602 1.253 . S
Mg589 O588 1.990 . S
Mg589 O592 2.180 . S
Mg589 O593 2.117 . S
Mg589 O607 2.030 . S
O590 Mg591 2.072 . S
O590 C602 1.260 . S
Mg591 O590 2.072 . S
Mg591 O592 2.099 . S
Mg591 O594 2.079 . S
Mg591 O595 2.072 . S
Mg591 O597 2.099 . S
Mg591 O608 2.079 . S
O592 Mg589 2.180 . S
O592 Mg591 2.099 . S
O592 C603 1.279 . S
O593 Mg589 2.117 . S
O593 C603 1.250 . S
O594 Mg591 2.079 . S
O594 C604 1.264 . S
O595 Mg591 2.072 . S
O595 C605 1.260 . S
Mg596 O597 2.180 . S
Mg596 O598 2.030 . S
Mg596 O599 1.990 . S
Mg596 O600 2.117 . S
O597 Mg591 2.099 . S
O597 Mg596 2.180 . S
O597 C606 1.279 . S
O598 Mg596 2.030 . S
O598 C604 1.248 . S
O599 Mg596 1.990 . S
O599 C605 1.253 . S
O600 Mg596 2.117 . S
O600 C606 1.250 . S
C601 O607 1.248 . S
C601 O608 1.264 . S
C602 O588 1.253 . S
C602 O590 1.260 . S
C603 O592 1.279 . S
C603 O593 1.250 . S
C604 O594 1.264 . S
C604 O598 1.248 . S
C605 O595 1.260 . S
C605 O599 1.253 . S
C606 O597 1.279 . S
C606 O600 1.250 . S
O607 Mg589 2.030 . S
O607 C601 1.248 . S
O608 Mg591 2.079 . S
O608 C601 1.264 . S
O609 Mg610 1.990 . S
O609 C623 1.253 . S
Mg610 O609 1.990 . S
Mg610 O613 2.180 . S
Mg610 O614 2.117 . S
Mg610 O628 2.030 . S
O611 Mg612 2.072 . S
O611 C623 1.260 . S
Mg612 O611 2.072 . S
Mg612 O613 2.099 . S
Mg612 O615 2.079 . S
Mg612 O616 2.072 . S
Mg612 O618 2.099 . S
Mg612 O629 2.079 . S
O613 Mg610 2.180 . S
O613 Mg612 2.099 . S
O613 C624 1.279 . S
O614 Mg610 2.117 . S
O614 C624 1.250 . S
O615 Mg612 2.079 . S
O615 C625 1.264 . S
O616 Mg612 2.072 . S
O616 C626 1.260 . S
Mg617 O618 2.180 . S
Mg617 O619 2.030 . S
Mg617 O620 1.990 . S
Mg617 O621 2.117 . S
O618 Mg612 2.099 . S
O618 Mg617 2.180 . S
O618 C627 1.279 . S
O619 Mg617 2.030 . S
O619 C625 1.248 . S
O620 Mg617 1.990 . S
O620 C626 1.253 . S
O621 Mg617 2.117 . S
O621 C627 1.250 . S
C622 O628 1.248 . S
C622 O629 1.264 . S
C623 O609 1.253 . S
C623 O611 1.260 . S
C624 O613 1.279 . S
C624 O614 1.250 . S
C625 O615 1.264 . S
C625 O619 1.248 . S
C626 O616 1.260 . S
C626 O620 1.253 . S
C627 O618 1.279 . S
C627 O621 1.250 . S
O628 Mg610 2.030 . S
O628 C622 1.248 . S
O629 Mg612 2.079 . S
O629 C622 1.264 . S
O630 Mg631 1.990 . S
O630 C644 1.253 . S
Mg631 O630 1.990 . S
Mg631 O634 2.180 . S
Mg631 O635 2.117 . S
Mg631 O649 2.030 . S
O632 Mg633 2.072 . S
O632 C644 1.260 . S
Mg633 O632 2.072 . S
Mg633 O634 2.099 . S
Mg633 O636 2.079 . S
Mg633 O637 2.072 . S
Mg633 O639 2.099 . S
Mg633 O650 2.079 . S
O634 Mg631 2.180 . S
O634 Mg633 2.099 . S
O634 C645 1.279 . S
O635 Mg631 2.117 . S
O635 C645 1.250 . S
O636 Mg633 2.079 . S
O636 C646 1.264 . S
O637 Mg633 2.072 . S
O637 C647 1.260 . S
Mg638 O639 2.180 . S
Mg638 O640 2.030 . S
Mg638 O641 1.990 . S
Mg638 O642 2.117 . S
O639 Mg633 2.099 . S
O639 Mg638 2.180 . S
O639 C648 1.279 . S
O640 Mg638 2.030 . S
O640 C646 1.248 . S
O641 Mg638 1.990 . S
O641 C647 1.253 . S
O642 Mg638 2.117 . S
O642 C648 1.250 . S
C643 O649 1.248 . S
C643 O650 1.264 . S
C644 O630 1.253 . S
C644 O632 1.260 . S
C645 O634 1.279 . S
C645 O635 1.250 . S
C646 O636 1.264 . S
C646 O640 1.248 . S
C647 O637 1.260 . S
C647 O641 1.253 . S
C648 O639 1.279 . S
C648 O642 1.250 . S
O649 Mg631 2.030 . S
O649 C643 1.248 . S
O650 Mg633 2.079 . S
O650 C643 1.264 . S
O651 Mg652 1.990 . S
O651 C665 1.253 . S
Mg652 O651 1.990 . S
Mg652 O655 2.180 1_556 S
Mg652 O656 2.117 1_556 S
Mg652 O670 2.030 . S
O653 Mg654 2.072 1_556 S
O653 C665 1.260 . S
Mg654 O653 2.072 1_554 S
Mg654 O655 2.099 . S
Mg654 O657 2.079 1_455 S
Mg654 O658 2.071 1_454 S
Mg654 O660 2.096 1_454 S
Mg654 O671 2.079 . S
O655 Mg652 2.180 1_554 S
O655 Mg654 2.099 . S
O655 C666 1.279 . S
O656 Mg652 2.117 1_554 S
O656 C666 1.250 . S
O657 Mg654 2.079 1_655 S
O657 C667 1.264 . S
O658 Mg654 2.071 1_656 S
O658 C668 1.261 . S
Mg659 O660 2.176 1_554 S
Mg659 O661 2.030 . S
Mg659 O662 1.990 1_554 S
Mg659 O663 2.117 1_554 S
O660 Mg654 2.096 1_656 S
O660 Mg659 2.176 1_556 S
O660 C669 1.289 . S
O661 Mg659 2.030 . S
O661 C667 1.248 . S
O662 Mg659 1.990 1_556 S
O662 C668 1.253 . S
O663 Mg659 2.117 1_556 S
O663 C669 1.250 . S
C664 O670 1.248 1_554 S
C664 O671 1.264 . S
C665 O651 1.253 . S
C665 O653 1.260 . S
C666 O655 1.279 . S
C666 O656 1.250 . S
C667 O657 1.264 . S
C667 O661 1.248 . S
C668 O658 1.261 . S
C668 O662 1.253 . S
C669 O660 1.289 . S
C669 O663 1.250 . S
O670 Mg652 2.030 . S
O670 C664 1.248 1_556 S
O671 Mg654 2.079 . S
O671 C664 1.264 . S
H672 C678 0.930 . S
H673 C682 0.930 . S
H674 C687 0.929 . S
H675 C685 0.929 . S
H676 C680 0.929 . S
H677 C686 0.929 . S
C678 H672 0.930 . S
C678 C679 1.367 . S
C678 C686 1.378 . S
C679 C678 1.367 . S
C679 C687 1.433 1_455 S
C680 H676 0.929 . S
C680 C682 1.378 . S
C680 C684 1.361 . S
C681 C684 1.461 1_455 S
C681 C686 1.372 . S
C681 N689 1.407 1_455 S
C682 H673 0.930 . S
C682 C680 1.378 . S
C682 C683 1.367 . S
C683 C682 1.367 . S
C683 C685 1.433 1_655 S
C684 C680 1.361 . S
C684 C681 1.461 1_655 S
C684 N688 1.417 1_655 S
C685 H675 0.929 . S
C685 C683 1.433 1_455 S
C685 N688 1.384 . S
C686 H677 0.929 . S
C686 C678 1.378 . S
C686 C681 1.372 . S
C687 H674 0.929 . S
C687 C679 1.433 1_655 S
C687 N689 1.384 . S
N688 C684 1.417 1_455 S
N688 C685 1.384 . S
N689 C681 1.407 1_655 S
N689 C687 1.384 . S
H690 C696 0.930 . S
H691 C700 0.930 . S
H692 C705 0.929 . S
H693 C703 0.929 . S
H694 C698 0.929 . S
H695 C704 0.929 . S
C696 H690 0.930 . S
C696 C697 1.367 . S
C696 C704 1.378 . S
C697 C696 1.367 . S
C697 C705 1.433 . S
C698 H694 0.929 . S
C698 C700 1.378 . S
C698 C702 1.350 . S
C699 C702 1.463 . S
C699 C704 1.350 . S
C699 N707 1.427 . S
C700 H691 0.930 . S
C700 C698 1.378 . S
C700 C701 1.367 . S
C701 C700 1.367 . S
C701 C703 1.433 . S
C702 C698 1.350 . S
C702 C699 1.463 . S
C702 N706 1.427 . S
C703 H693 0.929 . S
C703 C701 1.433 . S
C703 N706 1.384 . S
C704 H695 0.929 . S
C704 C696 1.378 . S
C704 C699 1.350 . S
C705 H692 0.929 . S
C705 C697 1.433 . S
C705 N707 1.384 . S
N706 C702 1.427 . S
N706 C703 1.384 . S
N707 C699 1.427 . S
N707 C705 1.384 . S
H708 C714 0.930 . S
H709 C718 0.930 . S
H710 C723 0.929 . S
H711 C721 0.929 . S
H712 C716 0.929 . S
H713 C722 0.929 . S
C714 H708 0.930 . S
C714 C715 1.367 . S
C714 C722 1.378 . S
C715 C714 1.367 . S
C715 C723 1.433 . S
C716 H712 0.929 . S
C716 C718 1.378 . S
C716 C720 1.350 . S
C717 C720 1.463 . S
C717 C722 1.350 . S
C717 N725 1.427 . S
C718 H709 0.930 . S
C718 C716 1.378 . S
C718 C719 1.367 . S
C719 C718 1.367 . S
C719 C721 1.433 . S
C720 C716 1.350 . S
C720 C717 1.463 . S
C720 N724 1.427 . S
C721 H711 0.929 . S
C721 C719 1.433 . S
C721 N724 1.384 . S
C722 H713 0.929 . S
C722 C714 1.378 . S
C722 C717 1.350 . S
C723 H710 0.929 . S
C723 C715 1.433 . S
C723 N725 1.384 . S
N724 C720 1.427 . S
N724 C721 1.384 . S
N725 C717 1.427 . S
N725 C723 1.384 . S
H726 C732 0.930 . S
H727 C736 0.930 . S
H728 C741 0.929 . S
H729 C739 0.929 . S
H730 C734 0.929 . S
H731 C740 0.929 . S
C732 H726 0.930 . S
C732 C733 1.367 . S
C732 C740 1.378 . S
C733 C732 1.367 . S
C733 C741 1.433 . S
C734 H730 0.929 . S
C734 C736 1.378 . S
C734 C738 1.350 . S
C735 C738 1.463 . S
C735 C740 1.350 . S
C735 N743 1.427 . S
C736 H727 0.930 . S
C736 C734 1.378 . S
C736 C737 1.367 . S
C737 C736 1.367 . S
C737 C739 1.433 . S
C738 C734 1.350 . S
C738 C735 1.463 . S
C738 N742 1.427 . S
C739 H729 0.929 . S
C739 C737 1.433 . S
C739 N742 1.384 . S
C740 H731 0.929 . S
C740 C732 1.378 . S
C740 C735 1.350 . S
C741 H728 0.929 . S
C741 C733 1.433 . S
C741 N743 1.384 . S
N742 C738 1.427 . S
N742 C739 1.384 . S
N743 C735 1.427 . S
N743 C741 1.384 . S
H744 C750 0.930 . S
H745 C754 0.930 . S
H746 C759 0.929 . S
H747 C757 0.929 . S
H748 C752 0.929 . S
H749 C758 0.929 . S
C750 H744 0.930 . S
C750 C751 1.367 . S
C750 C758 1.378 . S
C751 C750 1.367 . S
C751 C759 1.433 1_455 S
C752 H748 0.929 . S
C752 C754 1.378 . S
C752 C756 1.350 1_655 S
C753 C756 1.463 . S
C753 C758 1.350 . S
C753 N761 1.427 1_455 S
C754 H745 0.930 . S
C754 C752 1.378 . S
C754 C755 1.367 . S
C755 C754 1.367 . S
C755 C757 1.433 1_655 S
C756 C752 1.350 1_455 S
C756 C753 1.463 . S
C756 N760 1.427 . S
C757 H747 0.929 . S
C757 C755 1.433 1_455 S
C757 N760 1.384 . S
C758 H749 0.929 . S
C758 C750 1.378 . S
C758 C753 1.350 . S
C759 H746 0.929 . S
C759 C751 1.433 1_655 S
C759 N761 1.384 . S
N760 C756 1.427 . S
N760 C757 1.384 . S
N761 C753 1.427 1_655 S
N761 C759 1.384 . S
H762 C768 0.930 . S
H763 C772 0.930 . S
H764 C777 0.929 . S
H765 C775 0.929 . S
H766 C770 0.929 . S
H767 C776 0.929 . S
C768 H762 0.930 . S
C768 C769 1.367 . S
C768 C776 1.378 . S
C769 C768 1.367 . S
C769 C777 1.433 . S
C770 H766 0.929 . S
C770 C772 1.378 . S
C770 C774 1.350 . S
C771 C774 1.463 . S
C771 C776 1.350 . S
C771 N779 1.427 . S
C772 H763 0.930 . S
C772 C770 1.378 . S
C772 C773 1.367 . S
C773 C772 1.367 . S
C773 C775 1.433 . S
C774 C770 1.350 . S
C774 C771 1.463 . S
C774 N778 1.427 . S
C775 H765 0.929 . S
C775 C773 1.433 . S
C775 N778 1.384 . S
C776 H767 0.929 . S
C776 C768 1.378 . S
C776 C771 1.350 . S
C777 H764 0.929 . S
C777 C769 1.433 . S
C777 N779 1.384 . S
N778 C774 1.427 . S
N778 C775 1.384 . S
N779 C771 1.427 . S
N779 C777 1.384 . S
H780 C786 0.930 . S
H781 C790 0.930 1_554 S
H782 C795 0.929 . S
H783 C793 0.929 . S
H784 C788 0.929 . S
H785 C794 0.929 . S
C786 H780 0.930 . S
C786 C787 1.367 . S
C786 C794 1.378 . S
C787 C786 1.367 . S
C787 C795 1.433 . S
C788 H784 0.929 . S
C788 C790 1.378 . S
C788 C792 1.350 . S
C789 C792 1.463 . S
C789 C794 1.350 . S
C789 N797 1.427 . S
C790 H781 0.930 1_556 S
C790 C788 1.378 . S
C790 C791 1.367 . S
C791 C790 1.367 . S
C791 C793 1.433 . S
C792 C788 1.350 . S
C792 C789 1.463 . S
C792 N796 1.427 . S
C793 H783 0.929 . S
C793 C791 1.433 . S
C793 N796 1.384 . S
C794 H785 0.929 . S
C794 C786 1.378 . S
C794 C789 1.350 . S
C795 H782 0.929 . S
C795 C787 1.433 . S
C795 N797 1.384 . S
N796 C792 1.427 . S
N796 C793 1.384 . S
N797 C789 1.427 . S
N797 C795 1.384 . S
H798 C804 0.930 . S
H799 C808 0.930 . S
H800 C813 0.929 . S
H801 C811 0.929 . S
H802 C806 0.929 . S
H803 C812 0.929 . S
C804 H798 0.930 . S
C804 C805 1.367 . S
C804 C812 1.378 . S
C805 C804 1.367 . S
C805 C813 1.433 . S
C806 H802 0.929 . S
C806 C808 1.378 . S
C806 C810 1.350 . S
C807 C810 1.463 . S
C807 C812 1.350 . S
C807 N815 1.427 . S
C808 H799 0.930 . S
C808 C806 1.378 . S
C808 C809 1.367 . S
C809 C808 1.367 . S
C809 C811 1.433 . S
C810 C806 1.350 . S
C810 C807 1.463 . S
C810 N814 1.427 . S
C811 H801 0.929 . S
C811 C809 1.433 . S
C811 N814 1.384 . S
C812 H803 0.929 . S
C812 C804 1.378 . S
C812 C807 1.350 . S
C813 H800 0.929 . S
C813 C805 1.433 . S
C813 N815 1.384 . S
N814 C810 1.427 . S
N814 C811 1.384 . S
N815 C807 1.427 . S
N815 C813 1.384 . S
H816 C822 0.930 . S
H817 C826 0.930 . S
H818 C831 0.929 . S
H819 C829 0.929 . S
H820 C824 0.929 . S
H821 C830 0.929 . S
C822 H816 0.930 . S
C822 C823 1.367 1_565 S
C822 C830 1.378 . S
C823 C822 1.367 1_545 S
C823 C831 1.433 . S
C824 H820 0.929 . S
C824 C826 1.378 . S
C824 C828 1.350 1_545 S
C825 C828 1.463 . S
C825 C830 1.350 . S
C825 N833 1.427 1_565 S
C826 H817 0.930 . S
C826 C824 1.378 . S
C826 C827 1.367 1_545 S
C827 C826 1.367 1_565 S
C827 C829 1.433 . S
C828 C824 1.350 1_565 S
C828 C825 1.463 . S
C828 N832 1.427 . S
C829 H819 0.929 . S
C829 C827 1.433 . S
C829 N832 1.384 . S
C830 H821 0.929 . S
C830 C822 1.378 . S
C830 C825 1.350 . S
C831 H818 0.929 . S
C831 C823 1.433 . S
C831 N833 1.384 . S
N832 C828 1.427 . S
N832 C829 1.384 . S
N833 C825 1.427 1_545 S
N833 C831 1.384 . S
H834 C840 0.930 . S
H835 C844 0.930 . S
H836 C849 0.929 . S
H837 C847 0.929 . S
H838 C842 0.929 . S
H839 C848 0.929 . S
C840 H834 0.930 . S
C840 C841 1.367 . S
C840 C848 1.378 . S
C841 C840 1.367 . S
C841 C849 1.433 . S
C842 H838 0.929 . S
C842 C844 1.378 . S
C842 C846 1.350 . S
C843 C846 1.463 . S
C843 C848 1.350 . S
C843 N851 1.427 . S
C844 H835 0.930 . S
C844 C842 1.378 . S
C844 C845 1.367 . S
C845 C844 1.367 . S
C845 C847 1.433 . S
C846 C842 1.350 . S
C846 C843 1.463 . S
C846 N850 1.427 . S
C847 H837 0.929 . S
C847 C845 1.433 . S
C847 N850 1.384 . S
C848 H839 0.929 . S
C848 C840 1.378 . S
C848 C843 1.350 . S
C849 H836 0.929 . S
C849 C841 1.433 . S
C849 N851 1.384 . S
N850 C846 1.427 . S
N850 C847 1.384 . S
N851 C843 1.427 . S
N851 C849 1.384 . S
H852 C858 0.930 . S
H853 C862 0.930 . S
H854 C867 0.929 . S
H855 C865 0.929 1_565 S
H856 C860 0.929 . S
H857 C866 0.929 . S
C858 H852 0.930 . S
C858 C859 1.367 1_565 S
C858 C866 1.378 . S
C859 C858 1.367 1_545 S
C859 C867 1.433 . S
C860 H856 0.929 . S
C860 C862 1.378 . S
C860 C864 1.350 . S
C861 C864 1.463 . S
C861 C866 1.350 1_545 S
C861 N869 1.427 . S
C862 H853 0.930 . S
C862 C860 1.378 . S
C862 C863 1.367 . S
C863 C862 1.367 . S
C863 C865 1.433 . S
C864 C860 1.350 . S
C864 C861 1.463 . S
C864 N868 1.427 . S
C865 H855 0.929 1_545 S
C865 C863 1.433 . S
C865 N868 1.384 . S
C866 H857 0.929 . S
C866 C858 1.378 . S
C866 C861 1.350 1_565 S
C867 H854 0.929 . S
C867 C859 1.433 . S
C867 N869 1.384 . S
N868 C864 1.427 . S
N868 C865 1.384 . S
N869 C861 1.427 . S
N869 C867 1.384 . S
H870 C876 0.930 . S
H871 C880 0.930 . S
H872 C885 0.929 . S
H873 C883 0.929 . S
H874 C878 0.929 . S
H875 C884 0.929 . S
C876 H870 0.930 . S
C876 C877 1.367 . S
C876 C884 1.378 . S
C877 C876 1.367 . S
C877 C885 1.433 . S
C878 H874 0.929 . S
C878 C880 1.378 . S
C878 C882 1.350 . S
C879 C882 1.463 . S
C879 C884 1.350 . S
C879 N887 1.427 . S
C880 H871 0.930 . S
C880 C878 1.378 . S
C880 C881 1.367 . S
C881 C880 1.367 . S
C881 C883 1.433 . S
C882 C878 1.350 . S
C882 C879 1.463 . S
C882 N886 1.427 . S
C883 H873 0.929 . S
C883 C881 1.433 . S
C883 N886 1.384 . S
C884 H875 0.929 . S
C884 C876 1.378 . S
C884 C879 1.350 . S
C885 H872 0.929 . S
C885 C877 1.433 . S
C885 N887 1.384 . S
N886 C882 1.427 . S
N886 C883 1.384 . S
N887 C879 1.427 . S
N887 C885 1.384 . S
H888 C894 0.930 . S
H889 C898 0.930 . S
H890 C903 0.929 . S
H891 C901 0.929 . S
H892 C896 0.929 . S
H893 C902 0.929 . S
C894 H888 0.930 . S
C894 C895 1.367 1_565 S
C894 C902 1.378 . S
C895 C894 1.367 1_545 S
C895 C903 1.433 . S
C896 H892 0.929 . S
C896 C898 1.378 . S
C896 C900 1.350 . S
C897 C900 1.463 . S
C897 C902 1.350 1_545 S
C897 N905 1.427 . S
C898 H889 0.930 . S
C898 C896 1.378 . S
C898 C899 1.367 . S
C899 C898 1.367 . S
C899 C901 1.433 1_545 S
C900 C896 1.350 . S
C900 C897 1.463 . S
C900 N904 1.427 1_545 S
C901 H891 0.929 . S
C901 C899 1.433 1_565 S
C901 N904 1.384 . S
C902 H893 0.929 . S
C902 C894 1.378 . S
C902 C897 1.350 1_565 S
C903 H890 0.929 . S
C903 C895 1.433 . S
C903 N905 1.384 . S
N904 C900 1.427 1_565 S
N904 C901 1.384 . S
N905 C897 1.427 . S
N905 C903 1.384 . S
H906 C912 0.930 . S
H907 C916 0.930 . S
H908 C921 0.929 . S
H909 C919 0.929 . S
H910 C914 0.929 . S
H911 C920 0.929 . S
C912 H906 0.930 . S
C912 C913 1.367 . S
C912 C920 1.378 . S
C913 C912 1.367 . S
C913 C921 1.433 . S
C914 H910 0.929 . S
C914 C916 1.378 . S
C914 C918 1.350 . S
C915 C918 1.463 . S
C915 C920 1.350 . S
C915 N923 1.427 . S
C916 H907 0.930 . S
C916 C914 1.378 . S
C916 C917 1.367 . S
C917 C916 1.367 . S
C917 C919 1.433 . S
C918 C914 1.350 . S
C918 C915 1.463 . S
C918 N922 1.427 . S
C919 H909 0.929 . S
C919 C917 1.433 . S
C919 N922 1.384 . S
C920 H911 0.929 . S
C920 C912 1.378 . S
C920 C915 1.350 . S
C921 H908 0.929 . S
C921 C913 1.433 . S
C921 N923 1.384 . S
N922 C918 1.427 . S
N922 C919 1.384 . S
N923 C915 1.427 . S
N923 C921 1.384 . S
H924 C930 0.930 . S
H925 C934 0.930 . S
H926 C939 0.929 . S
H927 C937 0.929 . S
H928 C932 0.929 . S
H929 C938 0.929 . S
C930 H924 0.930 . S
C930 C931 1.367 1_565 S
C930 C938 1.378 . S
C931 C930 1.367 1_545 S
C931 C939 1.433 . S
C932 H928 0.929 . S
C932 C934 1.378 . S
C932 C936 1.346 . S
C933 C936 1.462 1_565 S
C933 C938 1.347 . S
C933 N941 1.431 1_565 S
C934 H925 0.930 . S
C934 C932 1.378 . S
C934 C935 1.367 1_545 S
C935 C934 1.367 1_565 S
C935 C937 1.433 . S
C936 C932 1.346 . S
C936 C933 1.462 1_545 S
C936 N940 1.431 1_545 S
C937 H927 0.929 . S
C937 C935 1.433 . S
C937 N940 1.384 . S
C938 H929 0.929 . S
C938 C930 1.378 . S
C938 C933 1.347 . S
C939 H926 0.929 . S
C939 C931 1.433 . S
C939 N941 1.384 . S
N940 C936 1.431 1_565 S
N940 C937 1.384 . S
N941 C933 1.431 1_545 S
N941 C939 1.384 . S
H942 C948 0.930 . S
H943 C952 0.930 . S
H944 C957 0.929 . S
H945 C955 0.929 . S
H946 C950 0.929 . S
H947 C956 0.929 . S
C948 H942 0.930 . S
C948 C949 1.367 . S
C948 C956 1.378 . S
C949 C948 1.367 . S
C949 C957 1.433 . S
C950 H946 0.929 . S
C950 C952 1.378 . S
C950 C954 1.350 . S
C951 C954 1.463 . S
C951 C956 1.350 . S
C951 N959 1.427 . S
C952 H943 0.930 . S
C952 C950 1.378 . S
C952 C953 1.367 . S
C953 C952 1.367 . S
C953 C955 1.433 . S
C954 C950 1.350 . S
C954 C951 1.463 . S
C954 N958 1.427 . S
C955 H945 0.929 . S
C955 C953 1.433 . S
C955 N958 1.384 . S
C956 H947 0.929 . S
C956 C948 1.378 . S
C956 C951 1.350 . S
C957 H944 0.929 . S
C957 C949 1.433 . S
C957 N959 1.384 . S
N958 C954 1.427 . S
N958 C955 1.384 . S
N959 C951 1.427 . S
N959 C957 1.384 . S
H960 C966 0.930 . S
H961 C970 0.930 . S
H962 C975 0.929 . S
H963 C973 0.929 . S
H964 C968 0.929 . S
H965 C974 0.929 . S
C966 H960 0.930 . S
C966 C967 1.367 1_556 S
C966 C974 1.378 . S
C967 C966 1.367 1_554 S
C967 C975 1.433 . S
C968 H964 0.929 . S
C968 C970 1.378 . S
C968 C972 1.370 . S
C969 C972 1.463 . S
C969 C974 1.350 1_554 S
C969 N977 1.427 . S
C970 H961 0.930 . S
C970 C968 1.378 . S
C970 C971 1.367 1_554 S
C971 C970 1.367 1_556 S
C971 C973 1.433 . S
C972 C968 1.370 . S
C972 C969 1.463 . S
C972 N976 1.406 1_554 S
C973 H963 0.929 . S
C973 C971 1.433 . S
C973 N976 1.384 . S
C974 H965 0.929 . S
C974 C966 1.378 . S
C974 C969 1.350 1_556 S
C975 H962 0.929 . S
C975 C967 1.433 . S
C975 N977 1.384 . S
N976 C972 1.406 1_556 S
N976 C973 1.384 . S
N977 C969 1.427 . S
N977 C975 1.384 . S
H978 C984 0.930 . S
H979 C988 0.930 . S
H980 C993 0.929 . S
H981 C991 0.929 . S
H982 C986 0.929 . S
H983 C992 0.929 . S
C984 H978 0.930 . S
C984 C985 1.367 . S
C984 C992 1.378 . S
C985 C984 1.367 . S
C985 C993 1.433 1_554 S
C986 H982 0.929 . S
C986 C988 1.378 . S
C986 C990 1.350 1_556 S
C987 C990 1.463 . S
C987 C992 1.350 . S
C987 N995 1.427 1_554 S
C988 H979 0.930 . S
C988 C986 1.378 . S
C988 C989 1.367 1_556 S
C989 C988 1.367 1_554 S
C989 C991 1.433 . S
C990 C986 1.350 1_554 S
C990 C987 1.463 . S
C990 N994 1.427 . S
C991 H981 0.929 . S
C991 C989 1.433 . S
C991 N994 1.384 . S
C992 H983 0.929 . S
C992 C984 1.378 . S
C992 C987 1.350 . S
C993 H980 0.929 . S
C993 C985 1.433 1_556 S
C993 N995 1.384 . S
N994 C990 1.427 . S
N994 C991 1.384 . S
N995 C987 1.427 1_556 S
N995 C993 1.384 . S
H996 C1002 0.930 . S
H997 C1006 0.930 . S
H998 C1011 0.929 . S
H999 C1009 0.929 . S
H1000 C1004 0.929 . S
H1001 C1010 0.929 . S
C1002 H996 0.930 . S
C1002 C1003 1.367 . S
C1002 C1010 1.378 . S
C1003 C1002 1.367 . S
C1003 C1011 1.433 . S
C1004 H1000 0.929 . S
C1004 C1006 1.378 . S
C1004 C1008 1.350 . S
C1005 C1008 1.463 . S
C1005 C1010 1.350 . S
C1005 N1013 1.427 . S
C1006 H997 0.930 . S
C1006 C1004 1.378 . S
C1006 C1007 1.367 . S
C1007 C1006 1.367 . S
C1007 C1009 1.433 . S
C1008 C1004 1.350 . S
C1008 C1005 1.463 . S
C1008 N1012 1.427 . S
C1009 H999 0.929 . S
C1009 C1007 1.433 . S
C1009 N1012 1.384 . S
C1010 H1001 0.929 . S
C1010 C1002 1.378 . S
C1010 C1005 1.350 . S
C1011 H998 0.929 . S
C1011 C1003 1.433 . S
C1011 N1013 1.384 . S
N1012 C1008 1.427 . S
N1012 C1009 1.384 . S
N1013 C1005 1.427 . S
N1013 C1011 1.384 . S
H1014 C1020 0.930 . S
H1015 C1024 0.930 . S
H1016 C1029 0.929 . S
H1017 C1027 0.929 . S
H1018 C1022 0.929 . S
H1019 C1028 0.929 . S
C1020 H1014 0.930 . S
C1020 C1021 1.367 . S
C1020 C1028 1.378 . S
C1021 C1020 1.367 . S
C1021 C1029 1.433 . S
C1022 H1018 0.929 . S
C1022 C1024 1.378 . S
C1022 C1026 1.350 . S
C1023 C1026 1.463 . S
C1023 C1028 1.350 . S
C1023 N1031 1.427 . S
C1024 H1015 0.930 . S
C1024 C1022 1.378 . S
C1024 C1025 1.367 . S
C1025 C1024 1.367 . S
C1025 C1027 1.433 . S
C1026 C1022 1.350 . S
C1026 C1023 1.463 . S
C1026 N1030 1.427 . S
C1027 H1017 0.929 . S
C1027 C1025 1.433 . S
C1027 N1030 1.384 . S
C1028 H1019 0.929 . S
C1028 C1020 1.378 . S
C1028 C1023 1.350 . S
C1029 H1016 0.929 . S
C1029 C1021 1.433 . S
C1029 N1031 1.384 . S
N1030 C1026 1.427 . S
N1030 C1027 1.384 . S
N1031 C1023 1.427 . S
N1031 C1029 1.384 . S
H1032 C1038 0.930 . S
H1033 C1042 0.930 . S
H1034 C1047 0.929 . S
H1035 C1045 0.929 . S
H1036 C1040 0.929 . S
H1037 C1046 0.929 . S
C1038 H1032 0.930 . S
C1038 C1039 1.367 . S
C1038 C1046 1.378 . S
C1039 C1038 1.367 . S
C1039 C1047 1.433 . S
C1040 H1036 0.929 . S
C1040 C1042 1.378 . S
C1040 C1044 1.350 . S
C1041 C1044 1.463 . S
C1041 C1046 1.350 . S
C1041 N1049 1.427 . S
C1042 H1033 0.930 . S
C1042 C1040 1.378 . S
C1042 C1043 1.367 . S
C1043 C1042 1.367 . S
C1043 C1045 1.433 . S
C1044 C1040 1.350 . S
C1044 C1041 1.463 . S
C1044 N1048 1.427 . S
C1045 H1035 0.929 . S
C1045 C1043 1.433 . S
C1045 N1048 1.384 . S
C1046 H1037 0.929 . S
C1046 C1038 1.378 . S
C1046 C1041 1.350 . S
C1047 H1034 0.929 . S
C1047 C1039 1.433 . S
C1047 N1049 1.384 . S
N1048 C1044 1.427 . S
N1048 C1045 1.384 . S
N1049 C1041 1.427 . S
N1049 C1047 1.384 . S
H1050 C1056 0.930 . S
H1051 C1060 0.930 . S
H1052 C1065 0.929 . S
H1053 C1063 0.929 . S
H1054 C1058 0.929 . S
H1055 C1064 0.929 . S
C1056 H1050 0.930 . S
C1056 C1057 1.367 . S
C1056 C1064 1.378 . S
C1057 C1056 1.367 . S
C1057 C1065 1.433 . S
C1058 H1054 0.929 . S
C1058 C1060 1.378 . S
C1058 C1062 1.350 . S
C1059 C1062 1.463 . S
C1059 C1064 1.350 . S
C1059 N1067 1.427 . S
C1060 H1051 0.930 . S
C1060 C1058 1.378 . S
C1060 C1061 1.367 . S
C1061 C1060 1.367 . S
C1061 C1063 1.433 . S
C1062 C1058 1.350 . S
C1062 C1059 1.463 . S
C1062 N1066 1.427 . S
C1063 H1053 0.929 . S
C1063 C1061 1.433 . S
C1063 N1066 1.384 . S
C1064 H1055 0.929 . S
C1064 C1056 1.378 . S
C1064 C1059 1.350 . S
C1065 H1052 0.929 . S
C1065 C1057 1.433 . S
C1065 N1067 1.384 . S
N1066 C1062 1.427 . S
N1066 C1063 1.384 . S
N1067 C1059 1.427 . S
N1067 C1065 1.384 . S
H1068 C1074 0.930 . S
H1069 C1078 0.930 . S
H1070 C1083 0.929 . S
H1071 C1081 0.929 . S
H1072 C1076 0.929 . S
H1073 C1082 0.929 . S
C1074 H1068 0.930 . S
C1074 C1075 1.367 . S
C1074 C1082 1.378 . S
C1075 C1074 1.367 . S
C1075 C1083 1.433 . S
C1076 H1072 0.929 . S
C1076 C1078 1.378 . S
C1076 C1080 1.350 . S
C1077 C1080 1.463 . S
C1077 C1082 1.350 . S
C1077 N1085 1.427 . S
C1078 H1069 0.930 . S
C1078 C1076 1.378 . S
C1078 C1079 1.367 . S
C1079 C1078 1.367 . S
C1079 C1081 1.433 . S
C1080 C1076 1.350 . S
C1080 C1077 1.463 . S
C1080 N1084 1.427 . S
C1081 H1071 0.929 . S
C1081 C1079 1.433 . S
C1081 N1084 1.384 . S
C1082 H1073 0.929 . S
C1082 C1074 1.378 . S
C1082 C1077 1.350 . S
C1083 H1070 0.929 . S
C1083 C1075 1.433 . S
C1083 N1085 1.384 . S
N1084 C1080 1.427 . S
N1084 C1081 1.384 . S
N1085 C1077 1.427 . S
N1085 C1083 1.384 . S
H1086 C1092 0.930 . S
H1087 C1096 0.930 . S
H1088 C1101 0.929 . S
H1089 C1099 0.929 . S
H1090 C1094 0.929 . S
H1091 C1100 0.929 . S
C1092 H1086 0.930 . S
C1092 C1093 1.367 . S
C1092 C1100 1.378 . S
C1093 C1092 1.367 . S
C1093 C1101 1.433 . S
C1094 H1090 0.929 . S
C1094 C1096 1.378 . S
C1094 C1098 1.350 . S
C1095 C1098 1.463 . S
C1095 C1100 1.350 . S
C1095 N1103 1.427 . S
C1096 H1087 0.930 . S
C1096 C1094 1.378 . S
C1096 C1097 1.367 . S
C1097 C1096 1.367 . S
C1097 C1099 1.433 . S
C1098 C1094 1.350 . S
C1098 C1095 1.463 . S
C1098 N1102 1.427 . S
C1099 H1089 0.929 . S
C1099 C1097 1.433 . S
C1099 N1102 1.384 . S
C1100 H1091 0.929 . S
C1100 C1092 1.378 . S
C1100 C1095 1.350 . S
C1101 H1088 0.929 . S
C1101 C1093 1.433 . S
C1101 N1103 1.384 . S
N1102 C1098 1.427 . S
N1102 C1099 1.384 . S
N1103 C1095 1.427 . S
N1103 C1101 1.384 . S
H1104 C1110 0.930 . S
H1105 C1114 0.930 . S
H1106 C1119 0.929 . S
H1107 C1117 0.929 . S
H1108 C1112 0.929 . S
H1109 C1118 0.929 . S
C1110 H1104 0.930 . S
C1110 C1111 1.367 1_655 S
C1110 C1118 1.378 . S
C1111 C1110 1.367 1_455 S
C1111 C1119 1.433 . S
C1112 H1108 0.929 . S
C1112 C1114 1.378 . S
C1112 C1116 1.350 . S
C1113 C1116 1.463 . S
C1113 C1118 1.350 1_455 S
C1113 N1121 1.427 . S
C1114 H1105 0.930 . S
C1114 C1112 1.378 . S
C1114 C1115 1.367 . S
C1115 C1114 1.367 . S
C1115 C1117 1.433 1_455 S
C1116 C1112 1.350 . S
C1116 C1113 1.463 . S
C1116 N1120 1.427 1_455 S
C1117 H1107 0.929 . S
C1117 C1115 1.433 1_655 S
C1117 N1120 1.384 . S
C1118 H1109 0.929 . S
C1118 C1110 1.378 . S
C1118 C1113 1.350 1_655 S
C1119 H1106 0.929 . S
C1119 C1111 1.433 . S
C1119 N1121 1.384 . S
N1120 C1116 1.427 1_655 S
N1120 C1117 1.384 . S
N1121 C1113 1.427 . S
N1121 C1119 1.384 . S
H1122 C1128 0.930 . S
H1123 C1132 0.930 . S
H1124 C1137 0.929 . S
H1125 C1135 0.929 . S
H1126 C1130 0.929 . S
H1127 C1136 0.929 . S
C1128 H1122 0.930 . S
C1128 C1129 1.367 . S
C1128 C1136 1.378 . S
C1129 C1128 1.367 . S
C1129 C1137 1.433 . S
C1130 H1126 0.929 . S
C1130 C1132 1.378 . S
C1130 C1134 1.350 . S
C1131 C1134 1.463 . S
C1131 C1136 1.350 . S
C1131 N1139 1.427 . S
C1132 H1123 0.930 . S
C1132 C1130 1.378 . S
C1132 C1133 1.367 . S
C1133 C1132 1.367 . S
C1133 C1135 1.433 . S
C1134 C1130 1.350 . S
C1134 C1131 1.463 . S
C1134 N1138 1.427 . S
C1135 H1125 0.929 . S
C1135 C1133 1.433 . S
C1135 N1138 1.384 . S
C1136 H1127 0.929 . S
C1136 C1128 1.378 . S
C1136 C1131 1.350 . S
C1137 H1124 0.929 . S
C1137 C1129 1.433 . S
C1137 N1139 1.384 . S
N1138 C1134 1.427 . S
N1138 C1135 1.384 . S
N1139 C1131 1.427 . S
N1139 C1137 1.384 . S
H1140 C1146 0.930 . S
H1141 C1150 0.930 . S
H1142 C1155 0.929 . S
H1143 C1153 0.929 . S
H1144 C1148 0.929 . S
H1145 C1154 0.929 . S
C1146 H1140 0.930 . S
C1146 C1147 1.367 . S
C1146 C1154 1.378 . S
C1147 C1146 1.367 . S
C1147 C1155 1.433 . S
C1148 H1144 0.929 . S
C1148 C1150 1.378 . S
C1148 C1152 1.350 . S
C1149 C1152 1.463 . S
C1149 C1154 1.350 . S
C1149 N1157 1.427 . S
C1150 H1141 0.930 . S
C1150 C1148 1.378 . S
C1150 C1151 1.367 . S
C1151 C1150 1.367 . S
C1151 C1153 1.433 . S
C1152 C1148 1.350 . S
C1152 C1149 1.463 . S
C1152 N1156 1.427 . S
C1153 H1143 0.929 . S
C1153 C1151 1.433 . S
C1153 N1156 1.384 . S
C1154 H1145 0.929 . S
C1154 C1146 1.378 . S
C1154 C1149 1.350 . S
C1155 H1142 0.929 . S
C1155 C1147 1.433 . S
C1155 N1157 1.384 . S
N1156 C1152 1.427 . S
N1156 C1153 1.384 . S
N1157 C1149 1.427 . S
N1157 C1155 1.384 . S
H1158 C1164 0.930 . S
H1159 C1168 0.930 . S
H1160 C1173 0.929 . S
H1161 C1171 0.929 . S
H1162 C1166 0.929 . S
H1163 C1172 0.929 . S
C1164 H1158 0.930 . S
C1164 C1165 1.367 . S
C1164 C1172 1.378 . S
C1165 C1164 1.367 . S
C1165 C1173 1.433 . S
C1166 H1162 0.929 . S
C1166 C1168 1.378 . S
C1166 C1170 1.350 . S
C1167 C1170 1.463 . S
C1167 C1172 1.350 . S
C1167 N1175 1.427 . S
C1168 H1159 0.930 . S
C1168 C1166 1.378 . S
C1168 C1169 1.367 . S
C1169 C1168 1.367 . S
C1169 C1171 1.433 . S
C1170 C1166 1.350 . S
C1170 C1167 1.463 . S
C1170 N1174 1.427 . S
C1171 H1161 0.929 . S
C1171 C1169 1.433 . S
C1171 N1174 1.384 . S
C1172 H1163 0.929 . S
C1172 C1164 1.378 . S
C1172 C1167 1.350 . S
C1173 H1160 0.929 . S
C1173 C1165 1.433 . S
C1173 N1175 1.384 . S
N1174 C1170 1.427 . S
N1174 C1171 1.384 . S
N1175 C1167 1.427 . S
N1175 C1173 1.384 . S
H1176 C1182 0.930 . S
H1177 C1186 0.930 . S
H1178 C1191 0.929 . S
H1179 C1189 0.929 . S
H1180 C1184 0.929 . S
H1181 C1190 0.929 . S
C1182 H1176 0.930 . S
C1182 C1183 1.367 . S
C1182 C1190 1.378 . S
C1183 C1182 1.367 . S
C1183 C1191 1.433 . S
C1184 H1180 0.929 . S
C1184 C1186 1.378 . S
C1184 C1188 1.350 . S
C1185 C1188 1.463 . S
C1185 C1190 1.350 . S
C1185 N1193 1.427 . S
C1186 H1177 0.930 . S
C1186 C1184 1.378 . S
C1186 C1187 1.367 . S
C1187 C1186 1.367 . S
C1187 C1189 1.433 . S
C1188 C1184 1.350 . S
C1188 C1185 1.463 . S
C1188 N1192 1.427 . S
C1189 H1179 0.929 . S
C1189 C1187 1.433 . S
C1189 N1192 1.384 . S
C1190 H1181 0.929 . S
C1190 C1182 1.378 . S
C1190 C1185 1.350 . S
C1191 H1178 0.929 . S
C1191 C1183 1.433 . S
C1191 N1193 1.384 . S
N1192 C1188 1.427 . S
N1192 C1189 1.384 . S
N1193 C1185 1.427 . S
N1193 C1191 1.384 . S
H1194 C1200 0.930 . S
H1195 C1204 0.930 . S
H1196 C1209 0.929 . S
H1197 C1207 0.929 . S
H1198 C1202 0.929 . S
H1199 C1208 0.929 . S
C1200 H1194 0.930 . S
C1200 C1201 1.367 . S
C1200 C1208 1.378 . S
C1201 C1200 1.367 . S
C1201 C1209 1.433 . S
C1202 H1198 0.929 . S
C1202 C1204 1.378 . S
C1202 C1206 1.350 . S
C1203 C1206 1.463 . S
C1203 C1208 1.350 . S
C1203 N1211 1.427 . S
C1204 H1195 0.930 . S
C1204 C1202 1.378 . S
C1204 C1205 1.367 . S
C1205 C1204 1.367 . S
C1205 C1207 1.433 . S
C1206 C1202 1.350 . S
C1206 C1203 1.463 . S
C1206 N1210 1.427 . S
C1207 H1197 0.929 . S
C1207 C1205 1.433 . S
C1207 N1210 1.384 . S
C1208 H1199 0.929 . S
C1208 C1200 1.378 . S
C1208 C1203 1.350 . S
C1209 H1196 0.929 . S
C1209 C1201 1.433 . S
C1209 N1211 1.384 . S
N1210 C1206 1.427 . S
N1210 C1207 1.384 . S
N1211 C1203 1.427 . S
N1211 C1209 1.384 . S
H1212 C1218 0.930 . S
H1213 C1222 0.930 . S
H1214 C1227 0.929 . S
H1215 C1225 0.929 . S
H1216 C1220 0.929 . S
H1217 C1226 0.929 . S
C1218 H1212 0.930 . S
C1218 C1219 1.367 . S
C1218 C1226 1.378 . S
C1219 C1218 1.367 . S
C1219 C1227 1.433 . S
C1220 H1216 0.929 . S
C1220 C1222 1.378 . S
C1220 C1224 1.350 . S
C1221 C1224 1.463 . S
C1221 C1226 1.350 . S
C1221 N1229 1.427 . S
C1222 H1213 0.930 . S
C1222 C1220 1.378 . S
C1222 C1223 1.367 . S
C1223 C1222 1.367 . S
C1223 C1225 1.433 . S
C1224 C1220 1.350 . S
C1224 C1221 1.463 . S
C1224 N1228 1.427 . S
C1225 H1215 0.929 . S
C1225 C1223 1.433 . S
C1225 N1228 1.384 . S
C1226 H1217 0.929 . S
C1226 C1218 1.378 . S
C1226 C1221 1.350 . S
C1227 H1214 0.929 . S
C1227 C1219 1.433 . S
C1227 N1229 1.384 . S
N1228 C1224 1.427 . S
N1228 C1225 1.384 . S
N1229 C1221 1.427 . S
N1229 C1227 1.384 . S
H1230 C1236 0.930 . S
H1231 C1240 0.930 . S
H1232 C1245 0.929 . S
H1233 C1243 0.929 . S
H1234 C1238 0.929 . S
H1235 C1244 0.929 . S
C1236 H1230 0.930 . S
C1236 C1237 1.367 . S
C1236 C1244 1.378 . S
C1237 C1236 1.367 . S
C1237 C1245 1.433 . S
C1238 H1234 0.929 . S
C1238 C1240 1.378 . S
C1238 C1242 1.350 . S
C1239 C1242 1.463 . S
C1239 C1244 1.350 . S
C1239 N1247 1.427 . S
C1240 H1231 0.930 . S
C1240 C1238 1.378 . S
C1240 C1241 1.367 . S
C1241 C1240 1.367 . S
C1241 C1243 1.433 . S
C1242 C1238 1.350 . S
C1242 C1239 1.463 . S
C1242 N1246 1.427 . S
C1243 H1233 0.929 . S
C1243 C1241 1.433 . S
C1243 N1246 1.384 . S
C1244 H1235 0.929 . S
C1244 C1236 1.378 . S
C1244 C1239 1.350 . S
C1245 H1232 0.929 . S
C1245 C1237 1.433 . S
C1245 N1247 1.384 . S
N1246 C1242 1.427 . S
N1246 C1243 1.384 . S
N1247 C1239 1.427 . S
N1247 C1245 1.384 . S
H1248 C1254 0.930 . S
H1249 C1258 0.930 . S
H1250 C1263 0.929 . S
H1251 C1261 0.929 . S
H1252 C1256 0.929 . S
H1253 C1262 0.929 . S
C1254 H1248 0.930 . S
C1254 C1255 1.347 1_565 S
C1254 C1262 1.378 . S
C1255 C1254 1.347 1_545 S
C1255 C1263 1.455 . S
C1256 H1252 0.929 . S
C1256 C1258 1.378 . S
C1256 C1260 1.350 . S
C1257 C1260 1.463 . S
C1257 C1262 1.350 1_545 S
C1257 N1265 1.427 . S
C1258 H1249 0.930 . S
C1258 C1256 1.378 . S
C1258 C1259 1.367 . S
C1259 C1258 1.367 . S
C1259 C1261 1.433 1_545 S
C1260 C1256 1.350 . S
C1260 C1257 1.463 . S
C1260 N1264 1.427 1_545 S
C1261 H1251 0.929 . S
C1261 C1259 1.433 1_565 S
C1261 N1264 1.384 . S
C1262 H1253 0.929 . S
C1262 C1254 1.378 . S
C1262 C1257 1.350 1_565 S
C1263 H1250 0.929 . S
C1263 C1255 1.455 . S
C1263 N1265 1.384 . S
N1264 C1260 1.427 1_565 S
N1264 C1261 1.384 . S
N1265 C1257 1.427 . S
N1265 C1263 1.384 . S
H1266 C1272 0.930 . S
H1267 C1276 0.930 . S
H1268 C1281 0.929 . S
H1269 C1279 0.929 . S
H1270 C1274 0.929 . S
H1271 C1280 0.929 . S
C1272 H1266 0.930 . S
C1272 C1273 1.367 . S
C1272 C1280 1.378 . S
C1273 C1272 1.367 . S
C1273 C1281 1.433 . S
C1274 H1270 0.929 . S
C1274 C1276 1.378 . S
C1274 C1278 1.350 . S
C1275 C1278 1.463 . S
C1275 C1280 1.350 . S
C1275 N1283 1.427 . S
C1276 H1267 0.930 . S
C1276 C1274 1.378 . S
C1276 C1277 1.367 . S
C1277 C1276 1.367 . S
C1277 C1279 1.433 . S
C1278 C1274 1.350 . S
C1278 C1275 1.463 . S
C1278 N1282 1.427 . S
C1279 H1269 0.929 . S
C1279 C1277 1.433 . S
C1279 N1282 1.384 . S
C1280 H1271 0.929 . S
C1280 C1272 1.378 . S
C1280 C1275 1.350 . S
C1281 H1268 0.929 . S
C1281 C1273 1.433 . S
C1281 N1283 1.384 . S
N1282 C1278 1.427 . S
N1282 C1279 1.384 . S
N1283 C1275 1.427 . S
N1283 C1281 1.384 . S
H1284 C1290 0.930 . S
H1285 C1294 0.930 . S
H1286 C1299 0.929 . S
H1287 C1297 0.929 . S
H1288 C1292 0.929 . S
H1289 C1298 0.929 . S
C1290 H1284 0.930 . S
C1290 C1291 1.367 1_565 S
C1290 C1298 1.378 . S
C1291 C1290 1.367 1_545 S
C1291 C1299 1.433 . S
C1292 H1288 0.929 . S
C1292 C1294 1.378 . S
C1292 C1296 1.350 . S
C1293 C1296 1.463 . S
C1293 C1298 1.350 1_545 S
C1293 N1301 1.427 . S
C1294 H1285 0.930 . S
C1294 C1292 1.378 . S
C1294 C1295 1.351 1_545 S
C1295 C1294 1.351 1_565 S
C1295 C1297 1.448 . S
C1296 C1292 1.350 . S
C1296 C1293 1.463 . S
C1296 N1300 1.427 1_545 S
C1297 H1287 0.929 . S
C1297 C1295 1.448 . S
C1297 N1300 1.384 . S
C1298 H1289 0.929 . S
C1298 C1290 1.378 . S
C1298 C1293 1.350 1_565 S
C1299 H1286 0.929 . S
C1299 C1291 1.433 . S
C1299 N1301 1.384 . S
N1300 C1296 1.427 1_565 S
N1300 C1297 1.384 . S
N1301 C1293 1.427 . S
N1301 C1299 1.384 . S
H1302 C1308 0.930 . S
H1303 C1312 0.930 . S
H1304 C1317 0.929 . S
H1305 C1315 0.929 . S
H1306 C1310 0.929 . S
H1307 C1316 0.929 . S
C1308 H1302 0.930 . S
C1308 C1309 1.367 . S
C1308 C1316 1.378 . S
C1309 C1308 1.367 . S
C1309 C1317 1.433 . S
C1310 H1306 0.929 . S
C1310 C1312 1.378 . S
C1310 C1314 1.350 . S
C1311 C1314 1.463 . S
C1311 C1316 1.350 . S
C1311 N1319 1.427 . S
C1312 H1303 0.930 . S
C1312 C1310 1.378 . S
C1312 C1313 1.367 . S
C1313 C1312 1.367 . S
C1313 C1315 1.433 . S
C1314 C1310 1.350 . S
C1314 C1311 1.463 . S
C1314 N1318 1.427 . S
C1315 H1305 0.929 . S
C1315 C1313 1.433 . S
C1315 N1318 1.384 . S
C1316 H1307 0.929 . S
C1316 C1308 1.378 . S
C1316 C1311 1.350 . S
C1317 H1304 0.929 . S
C1317 C1309 1.433 . S
C1317 N1319 1.384 . S
N1318 C1314 1.427 . S
N1318 C1315 1.384 . S
N1319 C1311 1.427 . S
N1319 C1317 1.384 . S
H1320 C1326 0.930 . S
H1321 C1330 0.930 . S
H1322 C1335 0.929 . S
H1323 C1333 0.929 . S
H1324 C1328 0.929 . S
H1325 C1334 0.929 . S
C1326 H1320 0.930 . S
C1326 C1327 1.386 . S
C1326 C1334 1.378 . S
C1327 C1326 1.386 . S
C1327 C1335 1.417 1_565 S
C1328 H1324 0.929 . S
C1328 C1330 1.378 . S
C1328 C1332 1.350 1_545 S
C1329 C1332 1.463 . S
C1329 C1334 1.350 . S
C1329 N1337 1.427 1_565 S
C1330 H1321 0.930 . S
C1330 C1328 1.378 . S
C1330 C1331 1.367 1_545 S
C1331 C1330 1.367 1_565 S
C1331 C1333 1.433 . S
C1332 C1328 1.350 1_565 S
C1332 C1329 1.463 . S
C1332 N1336 1.427 . S
C1333 H1323 0.929 . S
C1333 C1331 1.433 . S
C1333 N1336 1.384 . S
C1334 H1325 0.929 . S
C1334 C1326 1.378 . S
C1334 C1329 1.350 . S
C1335 H1322 0.929 . S
C1335 C1327 1.417 1_545 S
C1335 N1337 1.384 . S
N1336 C1332 1.427 . S
N1336 C1333 1.384 . S
N1337 C1329 1.427 1_545 S
N1337 C1335 1.384 . S
H1338 C1344 0.930 . S
H1339 C1348 0.930 . S
H1340 C1353 0.929 . S
H1341 C1351 0.929 . S
H1342 C1346 0.929 . S
H1343 C1352 0.929 . S
C1344 H1338 0.930 . S
C1344 C1345 1.367 . S
C1344 C1352 1.378 . S
C1345 C1344 1.367 . S
C1345 C1353 1.433 . S
C1346 H1342 0.929 . S
C1346 C1348 1.378 . S
C1346 C1350 1.350 . S
C1347 C1350 1.463 . S
C1347 C1352 1.350 . S
C1347 N1355 1.427 . S
C1348 H1339 0.930 . S
C1348 C1346 1.378 . S
C1348 C1349 1.367 . S
C1349 C1348 1.367 . S
C1349 C1351 1.433 . S
C1350 C1346 1.350 . S
C1350 C1347 1.463 . S
C1350 N1354 1.427 . S
C1351 H1341 0.929 . S
C1351 C1349 1.433 . S
C1351 N1354 1.384 . S
C1352 H1343 0.929 . S
C1352 C1344 1.378 . S
C1352 C1347 1.350 . S
C1353 H1340 0.929 . S
C1353 C1345 1.433 . S
C1353 N1355 1.384 . S
N1354 C1350 1.427 . S
N1354 C1351 1.384 . S
N1355 C1347 1.427 . S
N1355 C1353 1.384 . S
H1356 C1362 0.930 . S
H1357 C1366 0.930 . S
H1358 C1371 0.929 . S
H1359 C1369 0.929 . S
H1360 C1364 0.929 . S
H1361 C1370 0.929 . S
C1362 H1356 0.930 . S
C1362 C1363 1.367 1_565 S
C1362 C1370 1.378 . S
C1363 C1362 1.367 1_545 S
C1363 C1371 1.433 . S
C1364 H1360 0.929 . S
C1364 C1366 1.378 . S
C1364 C1368 1.350 . S
C1365 C1368 1.463 . S
C1365 C1370 1.350 1_545 S
C1365 N1373 1.427 . S
C1366 H1357 0.930 . S
C1366 C1364 1.378 . S
C1366 C1367 1.367 . S
C1367 C1366 1.367 . S
C1367 C1369 1.433 1_545 S
C1368 C1364 1.350 . S
C1368 C1365 1.463 . S
C1368 N1372 1.427 1_545 S
C1369 H1359 0.929 . S
C1369 C1367 1.433 1_565 S
C1369 N1372 1.384 . S
C1370 H1361 0.929 . S
C1370 C1362 1.378 . S
C1370 C1365 1.350 1_565 S
C1371 H1358 0.929 . S
C1371 C1363 1.433 . S
C1371 N1373 1.384 . S
N1372 C1368 1.427 1_565 S
N1372 C1369 1.384 . S
N1373 C1365 1.427 . S
N1373 C1371 1.384 . S
H1374 C1380 0.930 . S
H1375 C1384 0.930 . S
H1376 C1389 0.929 . S
H1377 C1387 0.929 . S
H1378 C1382 0.929 . S
H1379 C1388 0.929 . S
C1380 H1374 0.930 . S
C1380 C1381 1.367 . S
C1380 C1388 1.378 . S
C1381 C1380 1.367 . S
C1381 C1389 1.433 . S
C1382 H1378 0.929 . S
C1382 C1384 1.378 . S
C1382 C1386 1.350 . S
C1383 C1386 1.463 . S
C1383 C1388 1.350 . S
C1383 N1391 1.427 . S
C1384 H1375 0.930 . S
C1384 C1382 1.378 . S
C1384 C1385 1.367 . S
C1385 C1384 1.367 . S
C1385 C1387 1.433 . S
C1386 C1382 1.350 . S
C1386 C1383 1.463 . S
C1386 N1390 1.427 . S
C1387 H1377 0.929 . S
C1387 C1385 1.433 . S
C1387 N1390 1.384 . S
C1388 H1379 0.929 . S
C1388 C1380 1.378 . S
C1388 C1383 1.350 . S
C1389 H1376 0.929 . S
C1389 C1381 1.433 . S
C1389 N1391 1.384 . S
N1390 C1386 1.427 . S
N1390 C1387 1.384 . S
N1391 C1383 1.427 . S
N1391 C1389 1.384 . S
H1392 C1398 0.930 . S
H1393 C1402 0.930 . S
H1394 C1407 0.929 . S
H1395 C1405 0.929 . S
H1396 C1400 0.929 . S
H1397 C1406 0.929 . S
C1398 H1392 0.930 . S
C1398 C1399 1.367 1_556 S
C1398 C1406 1.378 . S
C1399 C1398 1.367 1_554 S
C1399 C1407 1.433 . S
C1400 H1396 0.929 . S
C1400 C1402 1.378 . S
C1400 C1404 1.350 . S
C1401 C1404 1.463 . S
C1401 C1406 1.350 1_554 S
C1401 N1409 1.427 . S
C1402 H1393 0.930 . S
C1402 C1400 1.378 . S
C1402 C1403 1.367 . S
C1403 C1402 1.367 . S
C1403 C1405 1.433 1_554 S
C1404 C1400 1.350 . S
C1404 C1401 1.463 . S
C1404 N1408 1.427 1_554 S
C1405 H1395 0.929 . S
C1405 C1403 1.433 1_556 S
C1405 N1408 1.384 . S
C1406 H1397 0.929 . S
C1406 C1398 1.378 . S
C1406 C1401 1.350 1_556 S
C1407 H1394 0.929 . S
C1407 C1399 1.433 . S
C1407 N1409 1.384 . S
N1408 C1404 1.427 1_556 S
N1408 C1405 1.384 . S
N1409 C1401 1.427 . S
N1409 C1407 1.384 . S
H1410 C1416 0.930 . S
H1411 C1420 0.930 . S
H1412 C1425 0.929 . S
H1413 C1423 0.929 . S
H1414 C1418 0.929 . S
H1415 C1424 0.929 . S
C1416 H1410 0.930 . S
C1416 C1417 1.367 . S
C1416 C1424 1.378 . S
C1417 C1416 1.367 . S
C1417 C1425 1.433 1_554 S
C1418 H1414 0.929 . S
C1418 C1420 1.378 . S
C1418 C1422 1.350 . S
C1419 C1422 1.462 1_554 S
C1419 C1424 1.358 . S
C1419 N1427 1.419 1_554 S
C1420 H1411 0.930 . S
C1420 C1418 1.378 . S
C1420 C1421 1.367 . S
C1421 C1420 1.367 . S
C1421 C1423 1.433 1_556 S
C1422 C1418 1.350 . S
C1422 C1419 1.462 1_556 S
C1422 N1426 1.427 1_556 S
C1423 H1413 0.929 . S
C1423 C1421 1.433 1_554 S
C1423 N1426 1.384 . S
C1424 H1415 0.929 . S
C1424 C1416 1.378 . S
C1424 C1419 1.358 . S
C1425 H1412 0.929 . S
C1425 C1417 1.433 1_556 S
C1425 N1427 1.384 . S
N1426 C1422 1.427 1_554 S
N1426 C1423 1.384 . S
N1427 C1419 1.419 1_556 S
N1427 C1425 1.384 . S
H1428 C1434 0.930 . S
H1429 C1438 0.930 . S
H1430 C1443 0.929 . S
H1431 C1441 0.929 . S
H1432 C1436 0.929 . S
H1433 C1442 0.929 . S
C1434 H1428 0.930 . S
C1434 C1435 1.367 . S
C1434 C1442 1.378 . S
C1435 C1434 1.367 . S
C1435 C1443 1.433 . S
C1436 H1432 0.929 . S
C1436 C1438 1.378 . S
C1436 C1440 1.350 . S
C1437 C1440 1.463 . S
C1437 C1442 1.350 . S
C1437 N1445 1.427 . S
C1438 H1429 0.930 . S
C1438 C1436 1.378 . S
C1438 C1439 1.367 . S
C1439 C1438 1.367 . S
C1439 C1441 1.433 . S
C1440 C1436 1.350 . S
C1440 C1437 1.463 . S
C1440 N1444 1.427 . S
C1441 H1431 0.929 . S
C1441 C1439 1.433 . S
C1441 N1444 1.384 . S
C1442 H1433 0.929 . S
C1442 C1434 1.378 . S
C1442 C1437 1.350 . S
C1443 H1430 0.929 . S
C1443 C1435 1.433 . S
C1443 N1445 1.384 . S
N1444 C1440 1.427 . S
N1444 C1441 1.384 . S
N1445 C1437 1.427 . S
N1445 C1443 1.384 . S
H1446 C1452 0.930 . S
H1447 C1456 0.930 . S
H1448 C1461 0.929 . S
H1449 C1459 0.929 . S
H1450 C1454 0.929 . S
H1451 C1460 0.929 . S
C1452 H1446 0.930 . S
C1452 C1453 1.367 . S
C1452 C1460 1.378 . S
C1453 C1452 1.367 . S
C1453 C1461 1.433 . S
C1454 H1450 0.929 . S
C1454 C1456 1.378 . S
C1454 C1458 1.350 . S
C1455 C1458 1.463 . S
C1455 C1460 1.350 . S
C1455 N1463 1.427 . S
C1456 H1447 0.930 . S
C1456 C1454 1.378 . S
C1456 C1457 1.367 . S
C1457 C1456 1.367 . S
C1457 C1459 1.433 . S
C1458 C1454 1.350 . S
C1458 C1455 1.463 . S
C1458 N1462 1.427 . S
C1459 H1449 0.929 . S
C1459 C1457 1.433 . S
C1459 N1462 1.384 . S
C1460 H1451 0.929 . S
C1460 C1452 1.378 . S
C1460 C1455 1.350 . S
C1461 H1448 0.929 . S
C1461 C1453 1.433 . S
C1461 N1463 1.384 . S
N1462 C1458 1.427 . S
N1462 C1459 1.384 . S
N1463 C1455 1.427 . S
N1463 C1461 1.384 . S
H1464 C1470 0.930 . S
H1465 C1474 0.930 . S
H1466 C1479 0.929 . S
H1467 C1477 0.929 . S
H1468 C1472 0.929 . S
H1469 C1478 0.929 . S
C1470 H1464 0.930 . S
C1470 C1471 1.367 . S
C1470 C1478 1.378 . S
C1471 C1470 1.367 . S
C1471 C1479 1.433 . S
C1472 H1468 0.929 . S
C1472 C1474 1.378 . S
C1472 C1476 1.350 . S
C1473 C1476 1.463 . S
C1473 C1478 1.350 . S
C1473 N1481 1.427 . S
C1474 H1465 0.930 . S
C1474 C1472 1.378 . S
C1474 C1475 1.367 . S
C1475 C1474 1.367 . S
C1475 C1477 1.433 . S
C1476 C1472 1.350 . S
C1476 C1473 1.463 . S
C1476 N1480 1.427 . S
C1477 H1467 0.929 . S
C1477 C1475 1.433 . S
C1477 N1480 1.384 . S
C1478 H1469 0.929 . S
C1478 C1470 1.378 . S
C1478 C1473 1.350 . S
C1479 H1466 0.929 . S
C1479 C1471 1.433 . S
C1479 N1481 1.384 . S
N1480 C1476 1.427 . S
N1480 C1477 1.384 . S
N1481 C1473 1.427 . S
N1481 C1479 1.384 . S
H1482 C1488 0.930 . S
H1483 C1492 0.930 . S
H1484 C1497 0.929 . S
H1485 C1495 0.929 . S
H1486 C1490 0.929 . S
H1487 C1496 0.929 . S
C1488 H1482 0.930 . S
C1488 C1489 1.367 . S
C1488 C1496 1.378 . S
C1489 C1488 1.367 . S
C1489 C1497 1.433 . S
C1490 H1486 0.929 . S
C1490 C1492 1.378 . S
C1490 C1494 1.350 . S
C1491 C1494 1.463 . S
C1491 C1496 1.350 . S
C1491 N1499 1.427 . S
C1492 H1483 0.930 . S
C1492 C1490 1.378 . S
C1492 C1493 1.367 . S
C1493 C1492 1.367 . S
C1493 C1495 1.433 . S
C1494 C1490 1.350 . S
C1494 C1491 1.463 . S
C1494 N1498 1.427 . S
C1495 H1485 0.929 . S
C1495 C1493 1.433 . S
C1495 N1498 1.384 . S
C1496 H1487 0.929 . S
C1496 C1488 1.378 . S
C1496 C1491 1.350 . S
C1497 H1484 0.929 . S
C1497 C1489 1.433 . S
C1497 N1499 1.384 . S
N1498 C1494 1.427 . S
N1498 C1495 1.384 . S
N1499 C1491 1.427 . S
N1499 C1497 1.384 . S
H1500 C1506 0.930 . S
H1501 C1510 0.930 . S
H1502 C1515 0.929 . S
H1503 C1513 0.929 . S
H1504 C1508 0.929 . S
H1505 C1514 0.929 . S
C1506 H1500 0.930 . S
C1506 C1507 1.367 . S
C1506 C1514 1.378 . S
C1507 C1506 1.367 . S
C1507 C1515 1.433 . S
C1508 H1504 0.929 . S
C1508 C1510 1.378 . S
C1508 C1512 1.350 . S
C1509 C1512 1.463 . S
C1509 C1514 1.350 . S
C1509 N1517 1.427 . S
C1510 H1501 0.930 . S
C1510 C1508 1.378 . S
C1510 C1511 1.367 . S
C1511 C1510 1.367 . S
C1511 C1513 1.433 . S
C1512 C1508 1.350 . S
C1512 C1509 1.463 . S
C1512 N1516 1.427 . S
C1513 H1503 0.929 . S
C1513 C1511 1.433 . S
C1513 N1516 1.384 . S
C1514 H1505 0.929 . S
C1514 C1506 1.378 . S
C1514 C1509 1.350 . S
C1515 H1502 0.929 . S
C1515 C1507 1.433 . S
C1515 N1517 1.384 . S
N1516 C1512 1.427 . S
N1516 C1513 1.384 . S
N1517 C1509 1.427 . S
N1517 C1515 1.384 . S
H1518 C1524 0.930 . S
H1519 C1528 0.930 . S
H1520 C1533 0.929 . S
H1521 C1531 0.929 . S
H1522 C1526 0.929 . S
H1523 C1532 0.929 . S
C1524 H1518 0.930 . S
C1524 C1525 1.367 . S
C1524 C1532 1.378 . S
C1525 C1524 1.367 . S
C1525 C1533 1.433 . S
C1526 H1522 0.929 . S
C1526 C1528 1.378 . S
C1526 C1530 1.350 . S
C1527 C1530 1.463 . S
C1527 C1532 1.350 . S
C1527 N1535 1.427 . S
C1528 H1519 0.930 . S
C1528 C1526 1.378 . S
C1528 C1529 1.367 . S
C1529 C1528 1.367 . S
C1529 C1531 1.433 . S
C1530 C1526 1.350 . S
C1530 C1527 1.463 . S
C1530 N1534 1.427 . S
C1531 H1521 0.929 . S
C1531 C1529 1.433 . S
C1531 N1534 1.384 . S
C1532 H1523 0.929 . S
C1532 C1524 1.378 . S
C1532 C1527 1.350 . S
C1533 H1520 0.929 . S
C1533 C1525 1.433 . S
C1533 N1535 1.384 . S
N1534 C1530 1.427 . S
N1534 C1531 1.384 . S
N1535 C1527 1.427 . S
N1535 C1533 1.384 . S
H1536 C1542 0.930 . S
H1537 C1546 0.930 . S
H1538 C1551 0.929 . S
H1539 C1549 0.929 . S
H1540 C1544 0.929 . S
H1541 C1550 0.929 . S
C1542 H1536 0.930 . S
C1542 C1543 1.367 . S
C1542 C1550 1.378 . S
C1543 C1542 1.367 . S
C1543 C1551 1.433 . S
C1544 H1540 0.929 . S
C1544 C1546 1.378 . S
C1544 C1548 1.350 . S
C1545 C1548 1.463 . S
C1545 C1550 1.350 . S
C1545 N1553 1.427 . S
C1546 H1537 0.930 . S
C1546 C1544 1.378 . S
C1546 C1547 1.367 . S
C1547 C1546 1.367 . S
C1547 C1549 1.433 . S
C1548 C1544 1.350 . S
C1548 C1545 1.463 . S
C1548 N1552 1.427 . S
C1549 H1539 0.929 . S
C1549 C1547 1.433 . S
C1549 N1552 1.384 . S
C1550 H1541 0.929 . S
C1550 C1542 1.378 . S
C1550 C1545 1.350 . S
C1551 H1538 0.929 . S
C1551 C1543 1.433 . S
C1551 N1553 1.384 . S
N1552 C1548 1.427 . S
N1552 C1549 1.384 . S
N1553 C1545 1.427 . S
N1553 C1551 1.384 . S
H1554 C1560 0.930 . S
H1555 C1564 0.930 . S
H1556 C1569 0.929 . S
H1557 C1567 0.929 . S
H1558 C1562 0.929 . S
H1559 C1568 0.929 . S
C1560 H1554 0.930 . S
C1560 C1561 1.367 . S
C1560 C1568 1.378 . S
C1561 C1560 1.367 . S
C1561 C1569 1.433 . S
C1562 H1558 0.929 . S
C1562 C1564 1.378 . S
C1562 C1566 1.350 . S
C1563 C1566 1.463 . S
C1563 C1568 1.350 . S
C1563 N1571 1.427 . S
C1564 H1555 0.930 . S
C1564 C1562 1.378 . S
C1564 C1565 1.367 . S
C1565 C1564 1.367 . S
C1565 C1567 1.433 . S
C1566 C1562 1.350 . S
C1566 C1563 1.463 . S
C1566 N1570 1.427 . S
C1567 H1557 0.929 . S
C1567 C1565 1.433 . S
C1567 N1570 1.384 . S
C1568 H1559 0.929 . S
C1568 C1560 1.378 . S
C1568 C1563 1.350 . S
C1569 H1556 0.929 . S
C1569 C1561 1.433 . S
C1569 N1571 1.384 . S
N1570 C1566 1.427 . S
N1570 C1567 1.384 . S
N1571 C1563 1.427 . S
N1571 C1569 1.384 . S
H1572 C1578 0.930 . S
H1573 C1582 0.930 . S
H1574 C1587 0.929 . S
H1575 C1585 0.929 . S
H1576 C1580 0.929 . S
H1577 C1586 0.929 . S
C1578 H1572 0.930 . S
C1578 C1579 1.367 . S
C1578 C1586 1.378 . S
C1579 C1578 1.367 . S
C1579 C1587 1.433 1_455 S
C1580 H1576 0.929 . S
C1580 C1582 1.378 . S
C1580 C1584 1.350 1_655 S
C1581 C1584 1.463 . S
C1581 C1586 1.350 . S
C1581 N1589 1.427 1_455 S
C1582 H1573 0.930 . S
C1582 C1580 1.378 . S
C1582 C1583 1.367 1_655 S
C1583 C1582 1.367 1_455 S
C1583 C1585 1.433 . S
C1584 C1580 1.350 1_455 S
C1584 C1581 1.463 . S
C1584 N1588 1.427 . S
C1585 H1575 0.929 . S
C1585 C1583 1.433 . S
C1585 N1588 1.384 . S
C1586 H1577 0.929 . S
C1586 C1578 1.378 . S
C1586 C1581 1.350 . S
C1587 H1574 0.929 . S
C1587 C1579 1.433 1_655 S
C1587 N1589 1.384 . S
N1588 C1584 1.427 . S
N1588 C1585 1.384 . S
N1589 C1581 1.427 1_655 S
N1589 C1587 1.384 . S
H1590 C1596 0.930 . S
H1591 C1600 0.930 . S
H1592 C1605 0.929 . S
H1593 C1603 0.929 . S
H1594 C1598 0.929 . S
H1595 C1604 0.929 . S
C1596 H1590 0.930 . S
C1596 C1597 1.367 . S
C1596 C1604 1.378 . S
C1597 C1596 1.367 . S
C1597 C1605 1.433 . S
C1598 H1594 0.929 . S
C1598 C1600 1.378 . S
C1598 C1602 1.350 . S
C1599 C1602 1.463 . S
C1599 C1604 1.350 . S
C1599 N1607 1.427 . S
C1600 H1591 0.930 . S
C1600 C1598 1.378 . S
C1600 C1601 1.367 . S
C1601 C1600 1.367 . S
C1601 C1603 1.433 . S
C1602 C1598 1.350 . S
C1602 C1599 1.463 . S
C1602 N1606 1.427 . S
C1603 H1593 0.929 . S
C1603 C1601 1.433 . S
C1603 N1606 1.384 . S
C1604 H1595 0.929 . S
C1604 C1596 1.378 . S
C1604 C1599 1.350 . S
C1605 H1592 0.929 . S
C1605 C1597 1.433 . S
C1605 N1607 1.384 . S
N1606 C1602 1.427 . S
N1606 C1603 1.384 . S
N1607 C1599 1.427 . S
N1607 C1605 1.384 . S
H1608 C1614 0.930 . S
H1609 C1618 0.930 1_554 S
H1610 C1623 0.929 . S
H1611 C1621 0.929 . S
H1612 C1616 0.929 . S
H1613 C1622 0.929 . S
C1614 H1608 0.930 . S
C1614 C1615 1.367 . S
C1614 C1622 1.378 . S
C1615 C1614 1.367 . S
C1615 C1623 1.433 . S
C1616 H1612 0.929 . S
C1616 C1618 1.378 . S
C1616 C1620 1.350 . S
C1617 C1620 1.463 . S
C1617 C1622 1.350 . S
C1617 N1625 1.427 . S
C1618 H1609 0.930 1_556 S
C1618 C1616 1.378 . S
C1618 C1619 1.367 . S
C1619 C1618 1.367 . S
C1619 C1621 1.433 . S
C1620 C1616 1.350 . S
C1620 C1617 1.463 . S
C1620 N1624 1.427 . S
C1621 H1611 0.929 . S
C1621 C1619 1.433 . S
C1621 N1624 1.384 . S
C1622 H1613 0.929 . S
C1622 C1614 1.378 . S
C1622 C1617 1.350 . S
C1623 H1610 0.929 . S
C1623 C1615 1.433 . S
C1623 N1625 1.384 . S
N1624 C1620 1.427 . S
N1624 C1621 1.384 . S
N1625 C1617 1.427 . S
N1625 C1623 1.384 . S
H1626 C1632 0.930 . S
H1627 C1636 0.930 . S
H1628 C1641 0.929 . S
H1629 C1639 0.929 . S
H1630 C1634 0.929 . S
H1631 C1640 0.929 . S
C1632 H1626 0.930 . S
C1632 C1633 1.367 . S
C1632 C1640 1.378 . S
C1633 C1632 1.367 . S
C1633 C1641 1.433 . S
C1634 H1630 0.929 . S
C1634 C1636 1.378 . S
C1634 C1638 1.350 . S
C1635 C1638 1.463 . S
C1635 C1640 1.350 . S
C1635 N1643 1.427 . S
C1636 H1627 0.930 . S
C1636 C1634 1.378 . S
C1636 C1637 1.367 . S
C1637 C1636 1.367 . S
C1637 C1639 1.433 . S
C1638 C1634 1.350 . S
C1638 C1635 1.463 . S
C1638 N1642 1.427 . S
C1639 H1629 0.929 . S
C1639 C1637 1.433 . S
C1639 N1642 1.384 . S
C1640 H1631 0.929 . S
C1640 C1632 1.378 . S
C1640 C1635 1.350 . S
C1641 H1628 0.929 . S
C1641 C1633 1.433 . S
C1641 N1643 1.384 . S
N1642 C1638 1.427 . S
N1642 C1639 1.384 . S
N1643 C1635 1.427 . S
N1643 C1641 1.384 . S
H1644 C1650 0.930 . S
H1645 C1654 0.930 . S
H1646 C1659 0.929 . S
H1647 C1657 0.929 . S
H1648 C1652 0.929 . S
H1649 C1658 0.929 . S
C1650 H1644 0.930 . S
C1650 C1651 1.367 1_655 S
C1650 C1658 1.378 . S
C1651 C1650 1.367 1_455 S
C1651 C1659 1.433 . S
C1652 H1648 0.929 . S
C1652 C1654 1.378 . S
C1652 C1656 1.350 . S
C1653 C1656 1.463 . S
C1653 C1658 1.350 1_455 S
C1653 N1661 1.427 . S
C1654 H1645 0.930 . S
C1654 C1652 1.378 . S
C1654 C1655 1.367 . S
C1655 C1654 1.367 . S
C1655 C1657 1.433 1_455 S
C1656 C1652 1.350 . S
C1656 C1653 1.463 . S
C1656 N1660 1.427 1_455 S
C1657 H1647 0.929 . S
C1657 C1655 1.433 1_655 S
C1657 N1660 1.384 . S
C1658 H1649 0.929 . S
C1658 C1650 1.378 . S
C1658 C1653 1.350 1_655 S
C1659 H1646 0.929 . S
C1659 C1651 1.433 . S
C1659 N1661 1.384 . S
N1660 C1656 1.427 1_655 S
N1660 C1657 1.384 . S
N1661 C1653 1.427 . S
N1661 C1659 1.384 . S
H1662 C1668 0.930 . S
H1663 C1672 0.930 . S
H1664 C1677 0.929 . S
H1665 C1675 0.929 . S
H1666 C1670 0.929 . S
H1667 C1676 0.929 . S
C1668 H1662 0.930 . S
C1668 C1669 1.367 . S
C1668 C1676 1.378 . S
C1669 C1668 1.367 . S
C1669 C1677 1.433 . S
C1670 H1666 0.929 . S
C1670 C1672 1.378 . S
C1670 C1674 1.350 . S
C1671 C1674 1.463 . S
C1671 C1676 1.350 . S
C1671 N1679 1.427 . S
C1672 H1663 0.930 . S
C1672 C1670 1.378 . S
C1672 C1673 1.367 . S
C1673 C1672 1.367 . S
C1673 C1675 1.433 . S
C1674 C1670 1.350 . S
C1674 C1671 1.463 . S
C1674 N1678 1.427 . S
C1675 H1665 0.929 . S
C1675 C1673 1.433 . S
C1675 N1678 1.384 . S
C1676 H1667 0.929 . S
C1676 C1668 1.378 . S
C1676 C1671 1.350 . S
C1677 H1664 0.929 . S
C1677 C1669 1.433 . S
C1677 N1679 1.384 . S
N1678 C1674 1.427 . S
N1678 C1675 1.384 . S
N1679 C1671 1.427 . S
N1679 C1677 1.384 . S
H1680 C1686 0.930 . S
H1681 C1690 0.930 . S
H1682 C1695 0.929 . S
H1683 C1693 0.929 . S
H1684 C1688 0.929 . S
H1685 C1694 0.929 . S
C1686 H1680 0.930 . S
C1686 C1687 1.367 . S
C1686 C1694 1.378 . S
C1687 C1686 1.367 . S
C1687 C1695 1.433 . S
C1688 H1684 0.929 . S
C1688 C1690 1.378 . S
C1688 C1692 1.350 . S
C1689 C1692 1.463 . S
C1689 C1694 1.350 . S
C1689 N1697 1.427 . S
C1690 H1681 0.930 . S
C1690 C1688 1.378 . S
C1690 C1691 1.367 . S
C1691 C1690 1.367 . S
C1691 C1693 1.433 . S
C1692 C1688 1.350 . S
C1692 C1689 1.463 . S
C1692 N1696 1.427 . S
C1693 H1683 0.929 . S
C1693 C1691 1.433 . S
C1693 N1696 1.384 . S
C1694 H1685 0.929 . S
C1694 C1686 1.378 . S
C1694 C1689 1.350 . S
C1695 H1682 0.929 . S
C1695 C1687 1.433 . S
C1695 N1697 1.384 . S
N1696 C1692 1.427 . S
N1696 C1693 1.384 . S
N1697 C1689 1.427 . S
N1697 C1695 1.384 . S
H1698 C1704 0.930 . S
H1699 C1708 0.930 . S
H1700 C1713 0.929 . S
H1701 C1711 0.929 . S
H1702 C1706 0.929 . S
H1703 C1712 0.929 . S
C1704 H1698 0.930 . S
C1704 C1705 1.367 . S
C1704 C1712 1.378 . S
C1705 C1704 1.367 . S
C1705 C1713 1.433 . S
C1706 H1702 0.929 . S
C1706 C1708 1.378 . S
C1706 C1710 1.350 . S
C1707 C1710 1.463 . S
C1707 C1712 1.350 . S
C1707 N1715 1.427 . S
C1708 H1699 0.930 . S
C1708 C1706 1.378 . S
C1708 C1709 1.367 . S
C1709 C1708 1.367 . S
C1709 C1711 1.433 . S
C1710 C1706 1.350 . S
C1710 C1707 1.463 . S
C1710 N1714 1.427 . S
C1711 H1701 0.929 . S
C1711 C1709 1.433 . S
C1711 N1714 1.384 . S
C1712 H1703 0.929 . S
C1712 C1704 1.378 . S
C1712 C1707 1.350 . S
C1713 H1700 0.929 . S
C1713 C1705 1.433 . S
C1713 N1715 1.384 . S
N1714 C1710 1.427 . S
N1714 C1711 1.384 . S
N1715 C1707 1.427 . S
N1715 C1713 1.384 . S
H1716 C1722 0.930 . S
H1717 C1726 0.930 . S
H1718 C1731 0.929 . S
H1719 C1729 0.929 . S
H1720 C1724 0.929 . S
H1721 C1730 0.929 . S
C1722 H1716 0.930 . S
C1722 C1723 1.367 . S
C1722 C1730 1.378 . S
C1723 C1722 1.367 . S
C1723 C1731 1.433 . S
C1724 H1720 0.929 . S
C1724 C1726 1.378 . S
C1724 C1728 1.350 . S
C1725 C1728 1.463 . S
C1725 C1730 1.350 . S
C1725 N1733 1.427 . S
C1726 H1717 0.930 . S
C1726 C1724 1.378 . S
C1726 C1727 1.367 . S
C1727 C1726 1.367 . S
C1727 C1729 1.433 . S
C1728 C1724 1.350 . S
C1728 C1725 1.463 . S
C1728 N1732 1.427 . S
C1729 H1719 0.929 . S
C1729 C1727 1.433 . S
C1729 N1732 1.384 . S
C1730 H1721 0.929 . S
C1730 C1722 1.378 . S
C1730 C1725 1.350 . S
C1731 H1718 0.929 . S
C1731 C1723 1.433 . S
C1731 N1733 1.384 . S
N1732 C1728 1.427 . S
N1732 C1729 1.384 . S
N1733 C1725 1.427 . S
N1733 C1731 1.384 . S
H1734 C1740 0.930 . S
H1735 C1744 0.930 . S
H1736 C1749 0.929 . S
H1737 C1747 0.929 . S
H1738 C1742 0.929 . S
H1739 C1748 0.929 . S
C1740 H1734 0.930 . S
C1740 C1741 1.367 . S
C1740 C1748 1.378 . S
C1741 C1740 1.367 . S
C1741 C1749 1.433 . S
C1742 H1738 0.929 . S
C1742 C1744 1.378 . S
C1742 C1746 1.350 . S
C1743 C1746 1.463 . S
C1743 C1748 1.350 . S
C1743 N1751 1.427 . S
C1744 H1735 0.930 . S
C1744 C1742 1.378 . S
C1744 C1745 1.367 . S
C1745 C1744 1.367 . S
C1745 C1747 1.433 . S
C1746 C1742 1.350 . S
C1746 C1743 1.463 . S
C1746 N1750 1.427 . S
C1747 H1737 0.929 . S
C1747 C1745 1.433 . S
C1747 N1750 1.384 . S
C1748 H1739 0.929 . S
C1748 C1740 1.378 . S
C1748 C1743 1.350 . S
C1749 H1736 0.929 . S
C1749 C1741 1.433 . S
C1749 N1751 1.384 . S
N1750 C1746 1.427 . S
N1750 C1747 1.384 . S
N1751 C1743 1.427 . S
N1751 C1749 1.384 . S
H1752 C1758 0.930 . S
H1753 C1762 0.930 . S
H1754 C1767 0.929 . S
H1755 C1765 0.929 . S
H1756 C1760 0.929 . S
H1757 C1766 0.929 . S
C1758 H1752 0.930 . S
C1758 C1759 1.367 . S
C1758 C1766 1.378 . S
C1759 C1758 1.367 . S
C1759 C1767 1.433 . S
C1760 H1756 0.929 . S
C1760 C1762 1.378 . S
C1760 C1764 1.350 . S
C1761 C1764 1.463 . S
C1761 C1766 1.350 . S
C1761 N1769 1.427 . S
C1762 H1753 0.930 . S
C1762 C1760 1.378 . S
C1762 C1763 1.367 . S
C1763 C1762 1.367 . S
C1763 C1765 1.433 . S
C1764 C1760 1.350 . S
C1764 C1761 1.463 . S
C1764 N1768 1.427 . S
C1765 H1755 0.929 . S
C1765 C1763 1.433 . S
C1765 N1768 1.384 . S
C1766 H1757 0.929 . S
C1766 C1758 1.378 . S
C1766 C1761 1.350 . S
C1767 H1754 0.929 . S
C1767 C1759 1.433 . S
C1767 N1769 1.384 . S
N1768 C1764 1.427 . S
N1768 C1765 1.384 . S
N1769 C1761 1.427 . S
N1769 C1767 1.384 . S
H1770 C1776 0.930 . S
H1771 C1780 0.930 . S
H1772 C1785 0.929 . S
H1773 C1783 0.929 . S
H1774 C1778 0.929 . S
H1775 C1784 0.929 . S
C1776 H1770 0.930 . S
C1776 C1777 1.367 . S
C1776 C1784 1.378 . S
C1777 C1776 1.367 . S
C1777 C1785 1.433 . S
C1778 H1774 0.929 . S
C1778 C1780 1.378 . S
C1778 C1782 1.350 . S
C1779 C1782 1.463 . S
C1779 C1784 1.350 . S
C1779 N1787 1.427 . S
C1780 H1771 0.930 . S
C1780 C1778 1.378 . S
C1780 C1781 1.367 . S
C1781 C1780 1.367 . S
C1781 C1783 1.433 . S
C1782 C1778 1.350 . S
C1782 C1779 1.463 . S
C1782 N1786 1.427 . S
C1783 H1773 0.929 . S
C1783 C1781 1.433 . S
C1783 N1786 1.384 . S
C1784 H1775 0.929 . S
C1784 C1776 1.378 . S
C1784 C1779 1.350 . S
C1785 H1772 0.929 . S
C1785 C1777 1.433 . S
C1785 N1787 1.384 . S
N1786 C1782 1.427 . S
N1786 C1783 1.384 . S
N1787 C1779 1.427 . S
N1787 C1785 1.384 . S
H1788 C1794 0.930 . S
H1789 C1798 0.930 1_455 S
H1790 C1803 0.929 . S
H1791 C1801 0.929 . S
H1792 C1796 0.929 . S
H1793 C1802 0.929 . S
C1794 H1788 0.930 . S
C1794 C1795 1.367 . S
C1794 C1802 1.378 . S
C1795 C1794 1.367 . S
C1795 C1803 1.433 . S
C1796 H1792 0.929 . S
C1796 C1798 1.378 . S
C1796 C1800 1.350 . S
C1797 C1800 1.463 . S
C1797 C1802 1.350 . S
C1797 N1805 1.427 . S
C1798 H1789 0.930 1_655 S
C1798 C1796 1.378 . S
C1798 C1799 1.367 . S
C1799 C1798 1.367 . S
C1799 C1801 1.433 . S
C1800 C1796 1.350 . S
C1800 C1797 1.463 . S
C1800 N1804 1.427 . S
C1801 H1791 0.929 . S
C1801 C1799 1.433 . S
C1801 N1804 1.384 . S
C1802 H1793 0.929 . S
C1802 C1794 1.378 . S
C1802 C1797 1.350 . S
C1803 H1790 0.929 . S
C1803 C1795 1.433 . S
C1803 N1805 1.384 . S
N1804 C1800 1.427 . S
N1804 C1801 1.384 . S
N1805 C1797 1.427 . S
N1805 C1803 1.384 . S
H1806 C1812 0.930 . S
H1807 C1816 0.930 . S
H1808 C1821 0.929 . S
H1809 C1819 0.929 . S
H1810 C1814 0.929 . S
H1811 C1820 0.929 . S
C1812 H1806 0.930 . S
C1812 C1813 1.367 . S
C1812 C1820 1.378 . S
C1813 C1812 1.367 . S
C1813 C1821 1.433 . S
C1814 H1810 0.929 . S
C1814 C1816 1.378 . S
C1814 C1818 1.350 . S
C1815 C1818 1.463 . S
C1815 C1820 1.350 . S
C1815 N1823 1.427 . S
C1816 H1807 0.930 . S
C1816 C1814 1.378 . S
C1816 C1817 1.367 . S
C1817 C1816 1.367 . S
C1817 C1819 1.433 . S
C1818 C1814 1.350 . S
C1818 C1815 1.463 . S
C1818 N1822 1.427 . S
C1819 H1809 0.929 . S
C1819 C1817 1.433 . S
C1819 N1822 1.384 . S
C1820 H1811 0.929 . S
C1820 C1812 1.378 . S
C1820 C1815 1.350 . S
C1821 H1808 0.929 . S
C1821 C1813 1.433 . S
C1821 N1823 1.384 . S
N1822 C1818 1.427 . S
N1822 C1819 1.384 . S
N1823 C1815 1.427 . S
N1823 C1821 1.384 . S
H1824 C1830 0.930 . S
H1825 C1834 0.930 . S
H1826 C1839 0.929 . S
H1827 C1837 0.929 . S
H1828 C1832 0.929 . S
H1829 C1838 0.929 . S
C1830 H1824 0.930 . S
C1830 C1831 1.367 . S
C1830 C1838 1.378 . S
C1831 C1830 1.367 . S
C1831 C1839 1.433 . S
C1832 H1828 0.929 . S
C1832 C1834 1.378 . S
C1832 C1836 1.350 . S
C1833 C1836 1.463 . S
C1833 C1838 1.350 . S
C1833 N1841 1.427 . S
C1834 H1825 0.930 . S
C1834 C1832 1.378 . S
C1834 C1835 1.367 . S
C1835 C1834 1.367 . S
C1835 C1837 1.433 . S
C1836 C1832 1.350 . S
C1836 C1833 1.463 . S
C1836 N1840 1.427 . S
C1837 H1827 0.929 . S
C1837 C1835 1.433 . S
C1837 N1840 1.384 . S
C1838 H1829 0.929 . S
C1838 C1830 1.378 . S
C1838 C1833 1.350 . S
C1839 H1826 0.929 . S
C1839 C1831 1.433 . S
C1839 N1841 1.384 . S
N1840 C1836 1.427 . S
N1840 C1837 1.384 . S
N1841 C1833 1.427 . S
N1841 C1839 1.384 . S
H1842 C1848 0.930 . S
H1843 C1852 0.930 . S
H1844 C1857 0.929 . S
H1845 C1855 0.929 . S
H1846 C1850 0.929 . S
H1847 C1856 0.929 . S
C1848 H1842 0.930 . S
C1848 C1849 1.367 . S
C1848 C1856 1.378 . S
C1849 C1848 1.367 . S
C1849 C1857 1.433 . S
C1850 H1846 0.929 . S
C1850 C1852 1.378 . S
C1850 C1854 1.350 . S
C1851 C1854 1.463 . S
C1851 C1856 1.350 . S
C1851 N1859 1.427 . S
C1852 H1843 0.930 . S
C1852 C1850 1.378 . S
C1852 C1853 1.367 . S
C1853 C1852 1.367 . S
C1853 C1855 1.433 . S
C1854 C1850 1.350 . S
C1854 C1851 1.463 . S
C1854 N1858 1.427 . S
C1855 H1845 0.929 . S
C1855 C1853 1.433 . S
C1855 N1858 1.384 . S
C1856 H1847 0.929 . S
C1856 C1848 1.378 . S
C1856 C1851 1.350 . S
C1857 H1844 0.929 . S
C1857 C1849 1.433 . S
C1857 N1859 1.384 . S
N1858 C1854 1.427 . S
N1858 C1855 1.384 . S
N1859 C1851 1.427 . S
N1859 C1857 1.384 . S
H1860 C1866 0.930 . S
H1861 C1870 0.930 . S
H1862 C1875 0.929 . S
H1863 C1873 0.929 . S
H1864 C1868 0.929 . S
H1865 C1874 0.929 . S
C1866 H1860 0.930 . S
C1866 C1867 1.367 . S
C1866 C1874 1.378 . S
C1867 C1866 1.367 . S
C1867 C1875 1.433 . S
C1868 H1864 0.929 . S
C1868 C1870 1.378 . S
C1868 C1872 1.350 . S
C1869 C1872 1.463 . S
C1869 C1874 1.350 . S
C1869 N1877 1.427 . S
C1870 H1861 0.930 . S
C1870 C1868 1.378 . S
C1870 C1871 1.367 . S
C1871 C1870 1.367 . S
C1871 C1873 1.433 . S
C1872 C1868 1.350 . S
C1872 C1869 1.463 . S
C1872 N1876 1.427 . S
C1873 H1863 0.929 . S
C1873 C1871 1.433 . S
C1873 N1876 1.384 . S
C1874 H1865 0.929 . S
C1874 C1866 1.378 . S
C1874 C1869 1.350 . S
C1875 H1862 0.929 . S
C1875 C1867 1.433 . S
C1875 N1877 1.384 . S
N1876 C1872 1.427 . S
N1876 C1873 1.384 . S
N1877 C1869 1.427 . S
N1877 C1875 1.384 . S
H1878 C1884 0.930 . S
H1879 C1888 0.930 . S
H1880 C1893 0.929 . S
H1881 C1891 0.929 . S
H1882 C1886 0.929 . S
H1883 C1892 0.929 . S
C1884 H1878 0.930 . S
C1884 C1885 1.367 . S
C1884 C1892 1.378 . S
C1885 C1884 1.367 . S
C1885 C1893 1.433 1_554 S
C1886 H1882 0.929 . S
C1886 C1888 1.378 . S
C1886 C1890 1.350 1_556 S
C1887 C1890 1.463 . S
C1887 C1892 1.350 . S
C1887 N1895 1.427 1_554 S
C1888 H1879 0.930 . S
C1888 C1886 1.378 . S
C1888 C1889 1.367 1_556 S
C1889 C1888 1.367 1_554 S
C1889 C1891 1.433 . S
C1890 C1886 1.350 1_554 S
C1890 C1887 1.463 . S
C1890 N1894 1.427 . S
C1891 H1881 0.929 . S
C1891 C1889 1.433 . S
C1891 N1894 1.384 . S
C1892 H1883 0.929 . S
C1892 C1884 1.378 . S
C1892 C1887 1.350 . S
C1893 H1880 0.929 . S
C1893 C1885 1.433 1_556 S
C1893 N1895 1.384 . S
N1894 C1890 1.427 . S
N1894 C1891 1.384 . S
N1895 C1887 1.427 1_556 S
N1895 C1893 1.384 . S
H1896 C1902 0.930 . S
H1897 C1906 0.930 . S
H1898 C1911 0.929 . S
H1899 C1909 0.929 . S
H1900 C1904 0.929 . S
H1901 C1910 0.929 . S
C1902 H1896 0.930 . S
C1902 C1903 1.367 . S
C1902 C1910 1.378 . S
C1903 C1902 1.367 . S
C1903 C1911 1.433 . S
C1904 H1900 0.929 . S
C1904 C1906 1.378 . S
C1904 C1908 1.350 . S
C1905 C1908 1.463 . S
C1905 C1910 1.350 . S
C1905 N1913 1.427 . S
C1906 H1897 0.930 . S
C1906 C1904 1.378 . S
C1906 C1907 1.367 . S
C1907 C1906 1.367 . S
C1907 C1909 1.433 . S
C1908 C1904 1.350 . S
C1908 C1905 1.463 . S
C1908 N1912 1.427 . S
C1909 H1899 0.929 . S
C1909 C1907 1.433 . S
C1909 N1912 1.384 . S
C1910 H1901 0.929 . S
C1910 C1902 1.378 . S
C1910 C1905 1.350 . S
C1911 H1898 0.929 . S
C1911 C1903 1.433 . S
C1911 N1913 1.384 . S
N1912 C1908 1.427 . S
N1912 C1909 1.384 . S
N1913 C1905 1.427 . S
N1913 C1911 1.384 . S
H1914 C1920 0.930 . S
H1915 C1924 0.930 . S
H1916 C1929 0.929 . S
H1917 C1927 0.929 . S
H1918 C1922 0.929 . S
H1919 C1928 0.929 . S
C1920 H1914 0.930 . S
C1920 C1921 1.367 . S
C1920 C1928 1.378 . S
C1921 C1920 1.367 . S
C1921 C1929 1.433 1_554 S
C1922 H1918 0.929 . S
C1922 C1924 1.378 . S
C1922 C1926 1.350 . S
C1923 C1926 1.460 1_554 S
C1923 C1928 1.370 . S
C1923 N1931 1.408 1_554 S
C1924 H1915 0.930 . S
C1924 C1922 1.378 . S
C1924 C1925 1.367 . S
C1925 C1924 1.367 . S
C1925 C1927 1.433 1_556 S
C1926 C1922 1.350 . S
C1926 C1923 1.460 1_556 S
C1926 N1930 1.427 1_556 S
C1927 H1917 0.929 . S
C1927 C1925 1.433 1_554 S
C1927 N1930 1.384 . S
C1928 H1919 0.929 . S
C1928 C1920 1.378 . S
C1928 C1923 1.370 . S
C1929 H1916 0.929 . S
C1929 C1921 1.433 1_556 S
C1929 N1931 1.384 . S
N1930 C1926 1.427 1_554 S
N1930 C1927 1.384 . S
N1931 C1923 1.408 1_556 S
N1931 C1929 1.384 . S
H1932 C1938 0.930 . S
H1933 C1942 0.930 . S
H1934 C1947 0.929 . S
H1935 C1945 0.929 . S
H1936 C1940 0.929 . S
H1937 C1946 0.929 . S
C1938 H1932 0.930 . S
C1938 C1939 1.367 . S
C1938 C1946 1.378 . S
C1939 C1938 1.367 . S
C1939 C1947 1.433 . S
C1940 H1936 0.929 . S
C1940 C1942 1.378 . S
C1940 C1944 1.350 . S
C1941 C1944 1.463 . S
C1941 C1946 1.350 . S
C1941 N1949 1.427 . S
C1942 H1933 0.930 . S
C1942 C1940 1.378 . S
C1942 C1943 1.367 . S
C1943 C1942 1.367 . S
C1943 C1945 1.433 . S
C1944 C1940 1.350 . S
C1944 C1941 1.463 . S
C1944 N1948 1.427 . S
C1945 H1935 0.929 . S
C1945 C1943 1.433 . S
C1945 N1948 1.384 . S
C1946 H1937 0.929 . S
C1946 C1938 1.378 . S
C1946 C1941 1.350 . S
C1947 H1934 0.929 . S
C1947 C1939 1.433 . S
C1947 N1949 1.384 . S
N1948 C1944 1.427 . S
N1948 C1945 1.384 . S
N1949 C1941 1.427 . S
N1949 C1947 1.384 . S
H1950 C1956 0.930 . S
H1951 C1960 0.930 . S
H1952 C1965 0.929 . S
H1953 C1963 0.929 . S
H1954 C1958 0.929 . S
H1955 C1964 0.929 . S
C1956 H1950 0.930 . S
C1956 C1957 1.367 . S
C1956 C1964 1.378 . S
C1957 C1956 1.367 . S
C1957 C1965 1.433 . S
C1958 H1954 0.929 . S
C1958 C1960 1.378 . S
C1958 C1962 1.350 . S
C1959 C1962 1.463 . S
C1959 C1964 1.350 . S
C1959 N1967 1.427 . S
C1960 H1951 0.930 . S
C1960 C1958 1.378 . S
C1960 C1961 1.367 . S
C1961 C1960 1.367 . S
C1961 C1963 1.433 . S
C1962 C1958 1.350 . S
C1962 C1959 1.463 . S
C1962 N1966 1.427 . S
C1963 H1953 0.929 . S
C1963 C1961 1.433 . S
C1963 N1966 1.384 . S
C1964 H1955 0.929 . S
C1964 C1956 1.378 . S
C1964 C1959 1.350 . S
C1965 H1952 0.929 . S
C1965 C1957 1.433 . S
C1965 N1967 1.384 . S
N1966 C1962 1.427 . S
N1966 C1963 1.384 . S
N1967 C1959 1.427 . S
N1967 C1965 1.384 . S
H1968 C1974 0.930 . S
H1969 C1978 0.930 . S
H1970 C1983 0.929 . S
H1971 C1981 0.929 . S
H1972 C1976 0.929 . S
H1973 C1982 0.929 . S
C1974 H1968 0.930 . S
C1974 C1975 1.367 . S
C1974 C1982 1.378 . S
C1975 C1974 1.367 . S
C1975 C1983 1.433 . S
C1976 H1972 0.929 . S
C1976 C1978 1.378 . S
C1976 C1980 1.350 . S
C1977 C1980 1.463 . S
C1977 C1982 1.350 . S
C1977 N1985 1.427 . S
C1978 H1969 0.930 . S
C1978 C1976 1.378 . S
C1978 C1979 1.367 . S
C1979 C1978 1.367 . S
C1979 C1981 1.433 . S
C1980 C1976 1.350 . S
C1980 C1977 1.463 . S
C1980 N1984 1.427 . S
C1981 H1971 0.929 . S
C1981 C1979 1.433 . S
C1981 N1984 1.384 . S
C1982 H1973 0.929 . S
C1982 C1974 1.378 . S
C1982 C1977 1.350 . S
C1983 H1970 0.929 . S
C1983 C1975 1.433 . S
C1983 N1985 1.384 . S
N1984 C1980 1.427 . S
N1984 C1981 1.384 . S
N1985 C1977 1.427 . S
N1985 C1983 1.384 . S
H1986 C1992 0.930 . S
H1987 C1996 0.930 . S
H1988 C2001 0.929 . S
H1989 C1999 0.929 . S
H1990 C1994 0.929 . S
H1991 C2000 0.929 . S
C1992 H1986 0.930 . S
C1992 C1993 1.367 . S
C1992 C2000 1.378 . S
C1993 C1992 1.367 . S
C1993 C2001 1.433 . S
C1994 H1990 0.929 . S
C1994 C1996 1.378 . S
C1994 C1998 1.350 . S
C1995 C1998 1.463 . S
C1995 C2000 1.350 . S
C1995 N2003 1.427 . S
C1996 H1987 0.930 . S
C1996 C1994 1.378 . S
C1996 C1997 1.367 . S
C1997 C1996 1.367 . S
C1997 C1999 1.433 . S
C1998 C1994 1.350 . S
C1998 C1995 1.463 . S
C1998 N2002 1.427 . S
C1999 H1989 0.929 . S
C1999 C1997 1.433 . S
C1999 N2002 1.384 . S
C2000 H1991 0.929 . S
C2000 C1992 1.378 . S
C2000 C1995 1.350 . S
C2001 H1988 0.929 . S
C2001 C1993 1.433 . S
C2001 N2003 1.384 . S
N2002 C1998 1.427 . S
N2002 C1999 1.384 . S
N2003 C1995 1.427 . S
N2003 C2001 1.384 . S
H2004 C2010 0.930 . S
H2005 C2014 0.930 . S
H2006 C2019 0.929 . S
H2007 C2017 0.929 . S
H2008 C2012 0.929 . S
H2009 C2018 0.929 . S
C2010 H2004 0.930 . S
C2010 C2011 1.367 . S
C2010 C2018 1.378 . S
C2011 C2010 1.367 . S
C2011 C2019 1.433 1_455 S
C2012 H2008 0.929 . S
C2012 C2014 1.378 . S
C2012 C2016 1.371 . S
C2013 C2016 1.459 1_455 S
C2013 C2018 1.350 . S
C2013 N2021 1.427 1_455 S
C2014 H2005 0.930 . S
C2014 C2012 1.378 . S
C2014 C2015 1.367 . S
C2015 C2014 1.367 . S
C2015 C2017 1.433 1_655 S
C2016 C2012 1.371 . S
C2016 C2013 1.459 1_655 S
C2016 N2020 1.409 1_655 S
C2017 H2007 0.929 . S
C2017 C2015 1.433 1_455 S
C2017 N2020 1.384 . S
C2018 H2009 0.929 . S
C2018 C2010 1.378 . S
C2018 C2013 1.350 . S
C2019 H2006 0.929 . S
C2019 C2011 1.433 1_655 S
C2019 N2021 1.384 . S
N2020 C2016 1.409 1_455 S
N2020 C2017 1.384 . S
N2021 C2013 1.427 1_655 S
N2021 C2019 1.384 . S
H2022 C2028 0.930 . S
H2023 C2032 0.930 . S
H2024 C2037 0.929 . S
H2025 C2035 0.929 . S
H2026 C2030 0.929 . S
H2027 C2036 0.929 . S
C2028 H2022 0.930 . S
C2028 C2029 1.367 . S
C2028 C2036 1.378 . S
C2029 C2028 1.367 . S
C2029 C2037 1.433 . S
C2030 H2026 0.929 . S
C2030 C2032 1.378 . S
C2030 C2034 1.350 . S
C2031 C2034 1.463 . S
C2031 C2036 1.350 . S
C2031 N2039 1.427 . S
C2032 H2023 0.930 . S
C2032 C2030 1.378 . S
C2032 C2033 1.367 . S
C2033 C2032 1.367 . S
C2033 C2035 1.433 . S
C2034 C2030 1.350 . S
C2034 C2031 1.463 . S
C2034 N2038 1.427 . S
C2035 H2025 0.929 . S
C2035 C2033 1.433 . S
C2035 N2038 1.384 . S
C2036 H2027 0.929 . S
C2036 C2028 1.378 . S
C2036 C2031 1.350 . S
C2037 H2024 0.929 . S
C2037 C2029 1.433 . S
C2037 N2039 1.384 . S
N2038 C2034 1.427 . S
N2038 C2035 1.384 . S
N2039 C2031 1.427 . S
N2039 C2037 1.384 . S
H2040 C2046 0.930 . S
H2041 C2050 0.930 . S
H2042 C2055 0.929 . S
H2043 C2053 0.929 . S
H2044 C2048 0.929 . S
H2045 C2054 0.929 . S
C2046 H2040 0.930 . S
C2046 C2047 1.367 . S
C2046 C2054 1.378 . S
C2047 C2046 1.367 . S
C2047 C2055 1.433 . S
C2048 H2044 0.929 . S
C2048 C2050 1.378 . S
C2048 C2052 1.350 . S
C2049 C2052 1.463 . S
C2049 C2054 1.350 . S
C2049 N2057 1.427 . S
C2050 H2041 0.930 . S
C2050 C2048 1.378 . S
C2050 C2051 1.367 . S
C2051 C2050 1.367 . S
C2051 C2053 1.433 . S
C2052 C2048 1.350 . S
C2052 C2049 1.463 . S
C2052 N2056 1.427 . S
C2053 H2043 0.929 . S
C2053 C2051 1.433 . S
C2053 N2056 1.384 . S
C2054 H2045 0.929 . S
C2054 C2046 1.378 . S
C2054 C2049 1.350 . S
C2055 H2042 0.929 . S
C2055 C2047 1.433 . S
C2055 N2057 1.384 . S
N2056 C2052 1.427 . S
N2056 C2053 1.384 . S
N2057 C2049 1.427 . S
N2057 C2055 1.384 . S
H2058 C2064 0.930 . S
H2059 C2068 0.930 . S
H2060 C2073 0.929 . S
H2061 C2071 0.929 . S
H2062 C2066 0.929 . S
H2063 C2072 0.929 . S
C2064 H2058 0.930 . S
C2064 C2065 1.367 . S
C2064 C2072 1.378 . S
C2065 C2064 1.367 . S
C2065 C2073 1.433 . S
C2066 H2062 0.929 . S
C2066 C2068 1.378 . S
C2066 C2070 1.350 . S
C2067 C2070 1.463 . S
C2067 C2072 1.350 . S
C2067 N2075 1.427 . S
C2068 H2059 0.930 . S
C2068 C2066 1.378 . S
C2068 C2069 1.367 . S
C2069 C2068 1.367 . S
C2069 C2071 1.433 . S
C2070 C2066 1.350 . S
C2070 C2067 1.463 . S
C2070 N2074 1.427 . S
C2071 H2061 0.929 . S
C2071 C2069 1.433 . S
C2071 N2074 1.384 . S
C2072 H2063 0.929 . S
C2072 C2064 1.378 . S
C2072 C2067 1.350 . S
C2073 H2060 0.929 . S
C2073 C2065 1.433 . S
C2073 N2075 1.384 . S
N2074 C2070 1.427 . S
N2074 C2071 1.384 . S
N2075 C2067 1.427 . S
N2075 C2073 1.384 . S
H2076 C2082 0.930 . S
H2077 C2086 0.930 . S
H2078 C2091 0.929 . S
H2079 C2089 0.929 . S
H2080 C2084 0.929 . S
H2081 C2090 0.929 . S
C2082 H2076 0.930 . S
C2082 C2083 1.367 1_655 S
C2082 C2090 1.378 . S
C2083 C2082 1.367 1_455 S
C2083 C2091 1.433 . S
C2084 H2080 0.929 . S
C2084 C2086 1.378 . S
C2084 C2088 1.364 . S
C2085 C2088 1.462 . S
C2085 C2090 1.330 1_455 S
C2085 N2093 1.449 . S
C2086 H2077 0.930 . S
C2086 C2084 1.378 . S
C2086 C2087 1.367 1_455 S
C2087 C2086 1.367 1_655 S
C2087 C2089 1.433 . S
C2088 C2084 1.364 . S
C2088 C2085 1.462 . S
C2088 N2092 1.412 1_455 S
C2089 H2079 0.929 . S
C2089 C2087 1.433 . S
C2089 N2092 1.384 . S
C2090 H2081 0.929 . S
C2090 C2082 1.378 . S
C2090 C2085 1.330 1_655 S
C2091 H2078 0.929 . S
C2091 C2083 1.433 . S
C2091 N2093 1.384 . S
N2092 C2088 1.412 1_655 S
N2092 C2089 1.384 . S
N2093 C2085 1.449 . S
N2093 C2091 1.384 . S
H2094 C2100 0.930 . S
H2095 C2104 0.930 . S
H2096 C2109 0.929 . S
H2097 C2107 0.929 . S
H2098 C2102 0.929 . S
H2099 C2108 0.929 . S
C2100 H2094 0.930 . S
C2100 C2101 1.367 . S
C2100 C2108 1.378 . S
C2101 C2100 1.367 . S
C2101 C2109 1.433 . S
C2102 H2098 0.929 . S
C2102 C2104 1.378 . S
C2102 C2106 1.350 . S
C2103 C2106 1.463 . S
C2103 C2108 1.350 . S
C2103 N2111 1.427 . S
C2104 H2095 0.930 . S
C2104 C2102 1.378 . S
C2104 C2105 1.367 . S
C2105 C2104 1.367 . S
C2105 C2107 1.433 . S
C2106 C2102 1.350 . S
C2106 C2103 1.463 . S
C2106 N2110 1.427 . S
C2107 H2097 0.929 . S
C2107 C2105 1.433 . S
C2107 N2110 1.384 . S
C2108 H2099 0.929 . S
C2108 C2100 1.378 . S
C2108 C2103 1.350 . S
C2109 H2096 0.929 . S
C2109 C2101 1.433 . S
C2109 N2111 1.384 . S
N2110 C2106 1.427 . S
N2110 C2107 1.384 . S
N2111 C2103 1.427 . S
N2111 C2109 1.384 . S
H2112 C2118 0.930 . S
H2113 C2122 0.930 . S
H2114 C2127 0.929 . S
H2115 C2125 0.929 . S
H2116 C2120 0.929 . S
H2117 C2126 0.929 . S
C2118 H2112 0.930 . S
C2118 C2119 1.367 . S
C2118 C2126 1.378 . S
C2119 C2118 1.367 . S
C2119 C2127 1.433 . S
C2120 H2116 0.929 . S
C2120 C2122 1.378 . S
C2120 C2124 1.350 . S
C2121 C2124 1.463 . S
C2121 C2126 1.350 . S
C2121 N2129 1.427 . S
C2122 H2113 0.930 . S
C2122 C2120 1.378 . S
C2122 C2123 1.367 . S
C2123 C2122 1.367 . S
C2123 C2125 1.433 . S
C2124 C2120 1.350 . S
C2124 C2121 1.463 . S
C2124 N2128 1.427 . S
C2125 H2115 0.929 . S
C2125 C2123 1.433 . S
C2125 N2128 1.384 . S
C2126 H2117 0.929 . S
C2126 C2118 1.378 . S
C2126 C2121 1.350 . S
C2127 H2114 0.929 . S
C2127 C2119 1.433 . S
C2127 N2129 1.384 . S
N2128 C2124 1.427 . S
N2128 C2125 1.384 . S
N2129 C2121 1.427 . S
N2129 C2127 1.384 . S
H2130 C2136 0.930 . S
H2131 C2140 0.930 . S
H2132 C2145 0.929 . S
H2133 C2143 0.929 . S
H2134 C2138 0.929 . S
H2135 C2144 0.929 . S
C2136 H2130 0.930 . S
C2136 C2137 1.367 . S
C2136 C2144 1.378 . S
C2137 C2136 1.367 . S
C2137 C2145 1.433 . S
C2138 H2134 0.929 . S
C2138 C2140 1.378 . S
C2138 C2142 1.350 . S
C2139 C2142 1.463 . S
C2139 C2144 1.350 . S
C2139 N2147 1.427 . S
C2140 H2131 0.930 . S
C2140 C2138 1.378 . S
C2140 C2141 1.367 . S
C2141 C2140 1.367 . S
C2141 C2143 1.433 . S
C2142 C2138 1.350 . S
C2142 C2139 1.463 . S
C2142 N2146 1.427 . S
C2143 H2133 0.929 . S
C2143 C2141 1.433 . S
C2143 N2146 1.384 . S
C2144 H2135 0.929 . S
C2144 C2136 1.378 . S
C2144 C2139 1.350 . S
C2145 H2132 0.929 . S
C2145 C2137 1.433 . S
C2145 N2147 1.384 . S
N2146 C2142 1.427 . S
N2146 C2143 1.384 . S
N2147 C2139 1.427 . S
N2147 C2145 1.384 . S
H2148 C2154 0.930 . S
H2149 C2158 0.930 . S
H2150 C2163 0.929 . S
H2151 C2161 0.929 . S
H2152 C2156 0.929 . S
H2153 C2162 0.929 . S
C2154 H2148 0.930 . S
C2154 C2155 1.367 . S
C2154 C2162 1.378 . S
C2155 C2154 1.367 . S
C2155 C2163 1.433 . S
C2156 H2152 0.929 . S
C2156 C2158 1.378 . S
C2156 C2160 1.350 . S
C2157 C2160 1.463 . S
C2157 C2162 1.350 . S
C2157 N2165 1.427 . S
C2158 H2149 0.930 . S
C2158 C2156 1.378 . S
C2158 C2159 1.367 . S
C2159 C2158 1.367 . S
C2159 C2161 1.433 . S
C2160 C2156 1.350 . S
C2160 C2157 1.463 . S
C2160 N2164 1.427 . S
C2161 H2151 0.929 . S
C2161 C2159 1.433 . S
C2161 N2164 1.384 . S
C2162 H2153 0.929 . S
C2162 C2154 1.378 . S
C2162 C2157 1.350 . S
C2163 H2150 0.929 . S
C2163 C2155 1.433 . S
C2163 N2165 1.384 . S
N2164 C2160 1.427 . S
N2164 C2161 1.384 . S
N2165 C2157 1.427 . S
N2165 C2163 1.384 . S
H2166 C2172 0.930 . S
H2167 C2176 0.930 . S
H2168 C2181 0.929 . S
H2169 C2179 0.929 . S
H2170 C2174 0.929 . S
H2171 C2180 0.929 . S
C2172 H2166 0.930 . S
C2172 C2173 1.367 . S
C2172 C2180 1.378 . S
C2173 C2172 1.367 . S
C2173 C2181 1.433 . S
C2174 H2170 0.929 . S
C2174 C2176 1.378 . S
C2174 C2178 1.350 . S
C2175 C2178 1.463 . S
C2175 C2180 1.350 . S
C2175 N2183 1.427 . S
C2176 H2167 0.930 . S
C2176 C2174 1.378 . S
C2176 C2177 1.367 . S
C2177 C2176 1.367 . S
C2177 C2179 1.433 . S
C2178 C2174 1.350 . S
C2178 C2175 1.463 . S
C2178 N2182 1.427 . S
C2179 H2169 0.929 . S
C2179 C2177 1.433 . S
C2179 N2182 1.384 . S
C2180 H2171 0.929 . S
C2180 C2172 1.378 . S
C2180 C2175 1.350 . S
C2181 H2168 0.929 . S
C2181 C2173 1.433 . S
C2181 N2183 1.384 . S
N2182 C2178 1.427 . S
N2182 C2179 1.384 . S
N2183 C2175 1.427 . S
N2183 C2181 1.384 . S
H2184 C2190 0.930 . S
H2185 C2194 0.930 . S
H2186 C2199 0.929 . S
H2187 C2197 0.929 . S
H2188 C2192 0.929 . S
H2189 C2198 0.929 . S
C2190 H2184 0.930 . S
C2190 C2191 1.367 . S
C2190 C2198 1.378 . S
C2191 C2190 1.367 . S
C2191 C2199 1.433 . S
C2192 H2188 0.929 . S
C2192 C2194 1.378 . S
C2192 C2196 1.350 . S
C2193 C2196 1.463 . S
C2193 C2198 1.350 . S
C2193 N2201 1.427 . S
C2194 H2185 0.930 . S
C2194 C2192 1.378 . S
C2194 C2195 1.367 . S
C2195 C2194 1.367 . S
C2195 C2197 1.433 . S
C2196 C2192 1.350 . S
C2196 C2193 1.463 . S
C2196 N2200 1.427 . S
C2197 H2187 0.929 . S
C2197 C2195 1.433 . S
C2197 N2200 1.384 . S
C2198 H2189 0.929 . S
C2198 C2190 1.378 . S
C2198 C2193 1.350 . S
C2199 H2186 0.929 . S
C2199 C2191 1.433 . S
C2199 N2201 1.384 . S
N2200 C2196 1.427 . S
N2200 C2197 1.384 . S
N2201 C2193 1.427 . S
N2201 C2199 1.384 . S
H2202 C2208 0.930 . S
H2203 C2212 0.930 . S
H2204 C2217 0.929 . S
H2205 C2215 0.929 . S
H2206 C2210 0.929 . S
H2207 C2216 0.929 . S
C2208 H2202 0.930 . S
C2208 C2209 1.367 . S
C2208 C2216 1.378 . S
C2209 C2208 1.367 . S
C2209 C2217 1.433 . S
C2210 H2206 0.929 . S
C2210 C2212 1.378 . S
C2210 C2214 1.350 . S
C2211 C2214 1.463 . S
C2211 C2216 1.350 . S
C2211 N2219 1.427 . S
C2212 H2203 0.930 . S
C2212 C2210 1.378 . S
C2212 C2213 1.367 . S
C2213 C2212 1.367 . S
C2213 C2215 1.433 . S
C2214 C2210 1.350 . S
C2214 C2211 1.463 . S
C2214 N2218 1.427 . S
C2215 H2205 0.929 . S
C2215 C2213 1.433 . S
C2215 N2218 1.384 . S
C2216 H2207 0.929 . S
C2216 C2208 1.378 . S
C2216 C2211 1.350 . S
C2217 H2204 0.929 . S
C2217 C2209 1.433 . S
C2217 N2219 1.384 . S
N2218 C2214 1.427 . S
N2218 C2215 1.384 . S
N2219 C2211 1.427 . S
N2219 C2217 1.384 . S
H2220 C2226 0.930 . S
H2221 C2230 0.930 . S
H2222 C2235 0.929 . S
H2223 C2233 0.929 . S
H2224 C2228 0.929 . S
H2225 C2234 0.929 . S
C2226 H2220 0.930 . S
C2226 C2227 1.367 . S
C2226 C2234 1.378 . S
C2227 C2226 1.367 . S
C2227 C2235 1.433 . S
C2228 H2224 0.929 . S
C2228 C2230 1.378 . S
C2228 C2232 1.350 . S
C2229 C2232 1.463 . S
C2229 C2234 1.350 . S
C2229 N2237 1.427 . S
C2230 H2221 0.930 . S
C2230 C2228 1.378 . S
C2230 C2231 1.367 . S
C2231 C2230 1.367 . S
C2231 C2233 1.433 . S
C2232 C2228 1.350 . S
C2232 C2229 1.463 . S
C2232 N2236 1.427 . S
C2233 H2223 0.929 . S
C2233 C2231 1.433 . S
C2233 N2236 1.384 . S
C2234 H2225 0.929 . S
C2234 C2226 1.378 . S
C2234 C2229 1.350 . S
C2235 H2222 0.929 . S
C2235 C2227 1.433 . S
C2235 N2237 1.384 . S
N2236 C2232 1.427 . S
N2236 C2233 1.384 . S
N2237 C2229 1.427 . S
N2237 C2235 1.384 . S
H2238 C2244 0.930 . S
H2239 C2248 0.930 . S
H2240 C2253 0.929 . S
H2241 C2251 0.929 . S
H2242 C2246 0.929 . S
H2243 C2252 0.929 . S
C2244 H2238 0.930 . S
C2244 C2245 1.367 . S
C2244 C2252 1.378 . S
C2245 C2244 1.367 . S
C2245 C2253 1.433 . S
C2246 H2242 0.929 . S
C2246 C2248 1.378 . S
C2246 C2250 1.350 . S
C2247 C2250 1.463 . S
C2247 C2252 1.350 . S
C2247 N2255 1.427 . S
C2248 H2239 0.930 . S
C2248 C2246 1.378 . S
C2248 C2249 1.367 . S
C2249 C2248 1.367 . S
C2249 C2251 1.433 . S
C2250 C2246 1.350 . S
C2250 C2247 1.463 . S
C2250 N2254 1.427 . S
C2251 H2241 0.929 . S
C2251 C2249 1.433 . S
C2251 N2254 1.384 . S
C2252 H2243 0.929 . S
C2252 C2244 1.378 . S
C2252 C2247 1.350 . S
C2253 H2240 0.929 . S
C2253 C2245 1.433 . S
C2253 N2255 1.384 . S
N2254 C2250 1.427 . S
N2254 C2251 1.384 . S
N2255 C2247 1.427 . S
N2255 C2253 1.384 . S
H2256 C2262 0.930 . S
H2257 C2266 0.930 . S
H2258 C2271 0.929 . S
H2259 C2269 0.929 . S
H2260 C2264 0.929 . S
H2261 C2270 0.929 . S
C2262 H2256 0.930 . S
C2262 C2263 1.367 . S
C2262 C2270 1.378 . S
C2263 C2262 1.367 . S
C2263 C2271 1.433 . S
C2264 H2260 0.929 . S
C2264 C2266 1.378 . S
C2264 C2268 1.350 . S
C2265 C2268 1.463 . S
C2265 C2270 1.350 . S
C2265 N2273 1.427 . S
C2266 H2257 0.930 . S
C2266 C2264 1.378 . S
C2266 C2267 1.367 . S
C2267 C2266 1.367 . S
C2267 C2269 1.433 . S
C2268 C2264 1.350 . S
C2268 C2265 1.463 . S
C2268 N2272 1.427 . S
C2269 H2259 0.929 . S
C2269 C2267 1.433 . S
C2269 N2272 1.384 . S
C2270 H2261 0.929 . S
C2270 C2262 1.378 . S
C2270 C2265 1.350 . S
C2271 H2258 0.929 . S
C2271 C2263 1.433 . S
C2271 N2273 1.384 . S
N2272 C2268 1.427 . S
N2272 C2269 1.384 . S
N2273 C2265 1.427 . S
N2273 C2271 1.384 . S
H2274 C2280 0.930 . S
H2275 C2284 0.930 . S
H2276 C2289 0.929 . S
H2277 C2287 0.929 . S
H2278 C2282 0.929 . S
H2279 C2288 0.929 . S
C2280 H2274 0.930 . S
C2280 C2281 1.367 . S
C2280 C2288 1.378 . S
C2281 C2280 1.367 . S
C2281 C2289 1.433 . S
C2282 H2278 0.929 . S
C2282 C2284 1.378 . S
C2282 C2286 1.350 . S
C2283 C2286 1.463 . S
C2283 C2288 1.350 . S
C2283 N2291 1.427 . S
C2284 H2275 0.930 . S
C2284 C2282 1.378 . S
C2284 C2285 1.367 . S
C2285 C2284 1.367 . S
C2285 C2287 1.433 . S
C2286 C2282 1.350 . S
C2286 C2283 1.463 . S
C2286 N2290 1.427 . S
C2287 H2277 0.929 . S
C2287 C2285 1.433 . S
C2287 N2290 1.384 . S
C2288 H2279 0.929 . S
C2288 C2280 1.378 . S
C2288 C2283 1.350 . S
C2289 H2276 0.929 . S
C2289 C2281 1.433 . S
C2289 N2291 1.384 . S
N2290 C2286 1.427 . S
N2290 C2287 1.384 . S
N2291 C2283 1.427 . S
N2291 C2289 1.384 . S
H2292 C2298 0.930 . S
H2293 C2302 0.930 . S
H2294 C2307 0.929 . S
H2295 C2305 0.929 . S
H2296 C2300 0.929 . S
H2297 C2306 0.929 . S
C2298 H2292 0.930 . S
C2298 C2299 1.367 . S
C2298 C2306 1.378 . S
C2299 C2298 1.367 . S
C2299 C2307 1.433 . S
C2300 H2296 0.929 . S
C2300 C2302 1.378 . S
C2300 C2304 1.350 . S
C2301 C2304 1.463 . S
C2301 C2306 1.350 . S
C2301 N2309 1.427 . S
C2302 H2293 0.930 . S
C2302 C2300 1.378 . S
C2302 C2303 1.367 . S
C2303 C2302 1.367 . S
C2303 C2305 1.433 . S
C2304 C2300 1.350 . S
C2304 C2301 1.463 . S
C2304 N2308 1.427 . S
C2305 H2295 0.929 . S
C2305 C2303 1.433 . S
C2305 N2308 1.384 . S
C2306 H2297 0.929 . S
C2306 C2298 1.378 . S
C2306 C2301 1.350 . S
C2307 H2294 0.929 . S
C2307 C2299 1.433 . S
C2307 N2309 1.384 . S
N2308 C2304 1.427 . S
N2308 C2305 1.384 . S
N2309 C2301 1.427 . S
N2309 C2307 1.384 . S
H2310 C2316 0.930 . S
H2311 C2320 0.930 . S
H2312 C2325 0.929 . S
H2313 C2323 0.929 . S
H2314 C2318 0.929 . S
H2315 C2324 0.929 . S
C2316 H2310 0.930 . S
C2316 C2317 1.367 . S
C2316 C2324 1.378 . S
C2317 C2316 1.367 . S
C2317 C2325 1.433 1_554 S
C2318 H2314 0.929 . S
C2318 C2320 1.378 . S
C2318 C2322 1.350 . S
C2319 C2322 1.463 1_554 S
C2319 C2324 1.350 . S
C2319 N2327 1.427 1_554 S
C2320 H2311 0.930 . S
C2320 C2318 1.378 . S
C2320 C2321 1.367 . S
C2321 C2320 1.367 . S
C2321 C2323 1.433 1_556 S
C2322 C2318 1.350 . S
C2322 C2319 1.463 1_556 S
C2322 N2326 1.427 1_556 S
C2323 H2313 0.929 . S
C2323 C2321 1.433 1_554 S
C2323 N2326 1.384 . S
C2324 H2315 0.929 . S
C2324 C2316 1.378 . S
C2324 C2319 1.350 . S
C2325 H2312 0.929 . S
C2325 C2317 1.433 1_556 S
C2325 N2327 1.384 . S
N2326 C2322 1.427 1_554 S
N2326 C2323 1.384 . S
N2327 C2319 1.427 1_556 S
N2327 C2325 1.384 . S
H2328 C2334 0.930 . S
H2329 C2338 0.930 . S
H2330 C2343 0.929 . S
H2331 C2341 0.929 . S
H2332 C2336 0.929 . S
H2333 C2342 0.929 . S
C2334 H2328 0.930 . S
C2334 C2335 1.367 . S
C2334 C2342 1.378 . S
C2335 C2334 1.367 . S
C2335 C2343 1.433 . S
C2336 H2332 0.929 . S
C2336 C2338 1.378 . S
C2336 C2340 1.350 . S
C2337 C2340 1.463 . S
C2337 C2342 1.350 . S
C2337 N2345 1.427 . S
C2338 H2329 0.930 . S
C2338 C2336 1.378 . S
C2338 C2339 1.367 . S
C2339 C2338 1.367 . S
C2339 C2341 1.433 . S
C2340 C2336 1.350 . S
C2340 C2337 1.463 . S
C2340 N2344 1.427 . S
C2341 H2331 0.929 . S
C2341 C2339 1.433 . S
C2341 N2344 1.384 . S
C2342 H2333 0.929 . S
C2342 C2334 1.378 . S
C2342 C2337 1.350 . S
C2343 H2330 0.929 . S
C2343 C2335 1.433 . S
C2343 N2345 1.384 . S
N2344 C2340 1.427 . S
N2344 C2341 1.384 . S
N2345 C2337 1.427 . S
N2345 C2343 1.384 . S
H2346 C2352 0.930 . S
H2347 C2356 0.930 . S
H2348 C2361 0.929 . S
H2349 C2359 0.929 . S
H2350 C2354 0.929 . S
H2351 C2360 0.929 . S
C2352 H2346 0.930 . S
C2352 C2353 1.367 1_556 S
C2352 C2360 1.378 . S
C2353 C2352 1.367 1_554 S
C2353 C2361 1.433 . S
C2354 H2350 0.929 . S
C2354 C2356 1.378 . S
C2354 C2358 1.350 . S
C2355 C2358 1.463 . S
C2355 C2360 1.350 1_554 S
C2355 N2363 1.427 . S
C2356 H2347 0.930 . S
C2356 C2354 1.378 . S
C2356 C2357 1.367 . S
C2357 C2356 1.367 . S
C2357 C2359 1.433 1_554 S
C2358 C2354 1.350 . S
C2358 C2355 1.463 . S
C2358 N2362 1.427 1_554 S
C2359 H2349 0.929 . S
C2359 C2357 1.433 1_556 S
C2359 N2362 1.384 . S
C2360 H2351 0.929 . S
C2360 C2352 1.378 . S
C2360 C2355 1.350 1_556 S
C2361 H2348 0.929 . S
C2361 C2353 1.433 . S
C2361 N2363 1.384 . S
N2362 C2358 1.427 1_556 S
N2362 C2359 1.384 . S
N2363 C2355 1.427 . S
N2363 C2361 1.384 . S
H2364 C2370 0.930 . S
H2365 C2374 0.930 . S
H2366 C2379 0.929 . S
H2367 C2377 0.929 . S
H2368 C2372 0.929 . S
H2369 C2378 0.929 . S
C2370 H2364 0.930 . S
C2370 C2371 1.367 . S
C2370 C2378 1.378 . S
C2371 C2370 1.367 . S
C2371 C2379 1.433 . S
C2372 H2368 0.929 . S
C2372 C2374 1.378 . S
C2372 C2376 1.350 . S
C2373 C2376 1.463 . S
C2373 C2378 1.350 . S
C2373 N2381 1.427 . S
C2374 H2365 0.930 . S
C2374 C2372 1.378 . S
C2374 C2375 1.367 . S
C2375 C2374 1.367 . S
C2375 C2377 1.433 . S
C2376 C2372 1.350 . S
C2376 C2373 1.463 . S
C2376 N2380 1.427 . S
C2377 H2367 0.929 . S
C2377 C2375 1.433 . S
C2377 N2380 1.384 . S
C2378 H2369 0.929 . S
C2378 C2370 1.378 . S
C2378 C2373 1.350 . S
C2379 H2366 0.929 . S
C2379 C2371 1.433 . S
C2379 N2381 1.384 . S
N2380 C2376 1.427 . S
N2380 C2377 1.384 . S
N2381 C2373 1.427 . S
N2381 C2379 1.384 . S
H2382 C2388 0.930 . S
H2383 C2392 0.930 . S
H2384 C2397 0.929 . S
H2385 C2395 0.929 . S
H2386 C2390 0.929 . S
H2387 C2396 0.929 . S
C2388 H2382 0.930 . S
C2388 C2389 1.367 . S
C2388 C2396 1.378 . S
C2389 C2388 1.367 . S
C2389 C2397 1.433 . S
C2390 H2386 0.929 . S
C2390 C2392 1.378 . S
C2390 C2394 1.350 . S
C2391 C2394 1.463 . S
C2391 C2396 1.350 . S
C2391 N2399 1.427 . S
C2392 H2383 0.930 . S
C2392 C2390 1.378 . S
C2392 C2393 1.367 . S
C2393 C2392 1.367 . S
C2393 C2395 1.433 . S
C2394 C2390 1.350 . S
C2394 C2391 1.463 . S
C2394 N2398 1.427 . S
C2395 H2385 0.929 . S
C2395 C2393 1.433 . S
C2395 N2398 1.384 . S
C2396 H2387 0.929 . S
C2396 C2388 1.378 . S
C2396 C2391 1.350 . S
C2397 H2384 0.929 . S
C2397 C2389 1.433 . S
C2397 N2399 1.384 . S
N2398 C2394 1.427 . S
N2398 C2395 1.384 . S
N2399 C2391 1.427 . S
N2399 C2397 1.384 . S
C683 C351 1.253 . S
C679 C5 1.368 . S
C697 C23 1.220 . S
C701 C370 1.183 . S
C715 C39 1.314 . S
C719 C393 1.208 . S
C737 C413 1.329 . S
C733 C42 1.357 . S
C751 C19 1.381 . S
C755 C434 1.346 . S
C773 C456 1.294 . S
C769 C28 1.404 . S
C791 C478 1.159 . S
C787 C53 1.188 . S
C805 C9 1.331 . S
C809 C496 1.289 . S
C823 C65 1.365 . S
C827 C352 1.319 . S
C841 C75 1.379 . S
C845 C371 1.344 . S
C863 C394 1.239 . S
C859 C93 1.267 . S
C881 C417 1.273 . S
C877 C109 1.350 . S
C895 C56 1.429 . S
C899 C438 1.308 . S
C917 C457 1.087 . S
C913 C81 1.123 . S
C935 C479 1.358 . S
C931 C84 1.387 . S
C953 C497 1.294 . S
C949 C103 1.316 . S
C971 C353 1.287 . S
C967 C107 1.308 . S
C989 C520 1.168 . S
C985 C121 1.204 . S
C1003 C131 1.397 . S
C1007 C542 1.372 . S
C1025 C561 1.330 . S
C1021 C140 1.418 . S
C1039 C61 1.381 . S
C1043 C501 1.258 . S
C1061 C395 1.332 . S
C1057 C70 1.349 . S
C1075 C137 1.166 . S
C1079 C583 1.135 . S
C1097 C606 1.180 . S
C1093 C165 1.292 . S
C1111 C173 1.324 . S
C1115 C354 1.209 . S
C1133 C605 1.229 . S
C1129 C182 1.253 . S
C1147 C207 1.365 . S
C1151 C396 1.278 . S
C1165 C219 1.230 . S
C1169 C580 1.187 . S
C1187 C436 1.206 . S
C1183 C187 1.252 . S
C1205 C543 1.256 . S
C1201 C205 1.378 . S
C1223 C476 1.245 . S
C1219 C221 1.271 . S
C1241 C626 1.341 . S
C1237 C168 1.368 . S
C1259 C350 1.370 . S
C1255 C224 1.399 1_545 S
C1273 C243 1.229 . S
C1277 C604 1.198 . S
C1295 C392 1.265 . S
C1291 C252 1.289 . S
C1309 C277 1.283 . S
C1313 C585 1.187 . S
C1327 C233 1.410 1_565 S
C1331 C435 1.298 . S
C1345 C249 1.241 . S
C1349 C539 1.210 . S
C1367 C475 1.234 . S
C1363 C261 1.265 . S
C1381 C271 1.259 . S
C1385 C625 1.216 . S
C1399 C266 1.243 . S
C1403 C349 1.207 . S
C1417 C280 1.297 . S
C1421 C518 1.262 . S
C1435 C299 1.262 . S
C1439 C454 1.230 . S
C1453 C317 1.357 . S
C1457 C564 1.268 . S
C1475 C624 1.227 . S
C1471 C229 1.334 . S
C1493 C391 1.198 . S
C1489 C247 1.229 . S
C1511 C416 1.222 . S
C1507 C305 1.253 . S
C1529 C372 1.240 . S
C1525 C333 1.356 . S
C1543 C33 1.368 . S
C1547 C648 1.247 . S
C1565 C601 1.180 . S
C1561 C51 1.225 . S
C1583 C666 1.225 . S
C1579 C11 1.314 . S
C1597 C14 1.356 . S
C1601 C584 1.339 . S
C1615 C47 1.380 . S
C1619 C521 1.341 . S
C1637 C540 1.314 . S
C1633 C0 1.398 . S
C1655 C562 1.144 . S
C1651 C25 1.184 . S
C1673 C622 1.287 . S
C1669 C37 1.331 . S
C1691 C643 1.325 . S
C1687 C163 1.364 . S
C1705 C117 1.377 . S
C1709 C602 1.355 . S
C1723 C135 1.265 . S
C1727 C667 1.228 . S
C1745 C582 1.264 . S
C1741 C151 1.354 . S
C1763 C519 1.330 . S
C1759 C154 1.423 . S
C1777 C123 1.122 . S
C1781 C541 1.085 . S
C1799 C563 1.355 . S
C1795 C126 1.392 . S
C1813 C145 1.317 . S
C1817 C623 1.283 . S
C1835 C644 1.286 . S
C1831 C149 1.311 . S
C1853 C433 1.164 . S
C1849 C79 1.206 . S
C1871 C458 1.368 . S
C1867 C89 1.396 . S
C1885 C98 1.420 . S
C1889 C477 1.324 . S
C1907 C627 1.253 . S
C1903 C159 1.382 . S
C1921 C112 1.355 . S
C1925 C668 1.325 . S
C1943 C412 1.142 . S
C1939 C95 1.172 . S
C1961 C375 1.204 . S
C1957 C67 1.287 . S
C1975 C201 1.322 . S
C1979 C645 1.231 . S
C1997 C374 1.230 . S
C1993 C210 1.254 . S
C2015 C669 1.264 . S
C2011 C179 1.366 . S
C2029 C191 1.231 . S
C2033 C415 1.188 . S
C2047 C215 1.253 . S
C2051 C517 1.208 . S
C2065 C177 1.380 . S
C2069 C459 1.264 . S
C2083 C193 1.269 . S
C2087 C560 1.247 . S
C2101 C196 1.369 . S
C2105 C500 1.341 . S
C2123 C647 1.367 . S
C2119 C322 1.400 . S
C2137 C285 1.229 . S
C2141 C373 1.188 . S
C2159 C665 1.254 . S
C2155 C294 1.287 . S
C2173 C319 1.283 . S
C2177 C414 1.186 . S
C2191 C331 1.414 . S
C2195 C522 1.305 . S
C2213 C455 1.208 . S
C2209 C291 1.241 . S
C2227 C303 1.264 . S
C2231 C559 1.232 . S
C2249 C499 1.227 . S
C2245 C313 1.257 . S
C2267 C646 1.217 . S
C2263 C308 1.239 . S
C2285 C437 1.273 . S
C2281 C238 1.301 . S
C2299 C257 1.263 . S
C2303 C538 1.230 . S
C2321 C480 1.252 . S
C2317 C275 1.357 . S
C2339 C498 1.218 . S
C2335 C327 1.335 . S
C2353 C289 1.227 1_554 S
C2357 C664 1.199 . S
C2375 C581 1.222 . S
C2371 C263 1.253 . S
C2393 C603 1.244 . S
C2389 C235 1.354 . S
