# Generated by pormake.
# Topology alb, (6,12)-cn, num edge types: 1
# Building blocks:
#     Node 0, Type 0, BuildingBlock: IZENUY_clean_sbu_0, # of connection points: 6
#     Node 1, Type 0, BuildingBlock: IZENUY_clean_sbu_0, # of connection points: 6
#     Node 2, Type 1, BuildingBlock: QEWDON_clean_sbu_0, # of connection points: 12
#     Edge 3, Type (0, 1), BuildingBlock: CIFDUS_clean_linker_0, # of connection points: 2
#     Edge 4, Type (0, 1), BuildingBlock: CIFDUS_clean_linker_0, # of connection points: 2
#     Edge 5, Type (0, 1), BuildingBlock: CIFDUS_clean_linker_0, # of connection points: 2
#     Edge 6, Type (0, 1), BuildingBlock: CIFDUS_clean_linker_0, # of connection points: 2
#     Edge 7, Type (0, 1), BuildingBlock: CIFDUS_clean_linker_0, # of connection points: 2
#     Edge 8, Type (0, 1), BuildingBlock: CIFDUS_clean_linker_0, # of connection points: 2
#     Edge 9, Type (0, 1), BuildingBlock: CIFDUS_clean_linker_0, # of connection points: 2
#     Edge 10, Type (0, 1), BuildingBlock: CIFDUS_clean_linker_0, # of connection points: 2
#     Edge 11, Type (0, 1), BuildingBlock: CIFDUS_clean_linker_0, # of connection points: 2
#     Edge 12, Type (0, 1), BuildingBlock: CIFDUS_clean_linker_0, # of connection points: 2
#     Edge 13, Type (0, 1), BuildingBlock: CIFDUS_clean_linker_0, # of connection points: 2
#     Edge 14, Type (0, 1), BuildingBlock: CIFDUS_clean_linker_0, # of connection points: 2
# Relax obj value: 0.108
# Max RMSD: 0.216
# Mean RMSD: 0.115
data_MOF--net-alb--node1-IZENUY_clean_sbu_0--node2-QEWDON_clean_sbu_0--edge1-CIFDUS_clean_linker_0
_symmetry_space_group_name_H-M    P1
_symmetry_Int_Tables_number       1
_symmetry_cell_setting            triclinic
loop_
_symmetry_equiv_pos_as_xyz
'x, y, z'
_cell_length_a     22.08123
_cell_length_b     21.81071
_cell_length_c     18.009876
_cell_angle_alpha  90.094464
_cell_angle_beta   89.665922
_cell_angle_gamma 119.91783
loop_
_atom_site_label
_atom_site_type_symbol
_atom_site_fract_x
_atom_site_fract_y
_atom_site_fract_z
_atom_type_partial_charge
Fe0 Fe 0.33592 0.7627 0.12383 0.0
Fe1 Fe 0.31736 0.61375 0.11321 0.0
O2 O 0.28148 0.66967 0.13013 0.0
Fe3 Fe 0.19145 0.63244 0.15325 0.0
O4 O 0.1759 0.67404 0.07285 0.0
O5 O 0.2684 0.77927 0.08747 0.0
O6 O 0.35953 0.75795 0.02841 0.0
C7 C 0.39086 0.72565 0.0086 0.0
C8 C 0.25741 0.75456 0.24549 0.0
O9 O 0.38358 0.67308 0.0457 0.0
C10 C 0.2249 0.54632 0.23417 0.0
O11 O 0.41336 0.76326 0.15952 0.0
O12 O 0.37882 0.65269 0.18933 0.0
O13 O 0.20345 0.70517 0.21501 0.0
O14 O 0.31722 0.77524 0.21851 0.0
C15 C 0.19211 0.53902 0.04253 0.0
O16 O 0.25909 0.54449 0.17835 0.0
O17 O 0.2004 0.58791 0.23526 0.0
C18 C 0.4203 0.71816 0.19684 0.0
O19 O 0.25796 0.57053 0.03636 0.0
O20 O 0.16321 0.55316 0.09578 0.0
C21 C 0.21078 0.73913 0.05635 0.0
Fe22 Fe 0.69424 0.42009 0.05809 0.0
Fe23 Fe 0.71164 0.28896 0.05451 0.0
O24 O 0.74873 0.3823 0.04675 0.0
Fe25 Fe 0.83965 0.43799 0.02802 0.0
O26 O 0.84819 0.51164 0.08632 0.0
O27 O 0.74422 0.4719 0.13705 0.0
O28 O 0.63478 0.35436 0.12379 0.0
C29 C 0.64228 0.31319 0.16676 0.0
C30 C 0.78696 0.50516 0.94398 0.0
O31 O 0.68002 0.28727 0.1486 0.0
C32 C 0.80162 0.31691 0.9365 0.0
O33 O 0.6397 0.37015 0.97999 0.0
O34 O 0.62736 0.2677 0.01423 0.0
O35 O 0.82316 0.47505 0.94467 0.0
O36 O 0.74347 0.49397 -0.00482 0.0
C37 C 0.84207 0.34264 0.12658 0.0
O38 O 0.74003 0.28247 0.96161 0.0
O39 O 0.84684 0.37386 0.96715 0.0
C40 C 0.6082 0.30337 0.97555 0.0
O41 O 0.7887 0.29306 0.09609 0.0
O42 O 0.86461 0.40648 0.10938 0.0
C43 C 0.80914 0.51483 0.13653 0.0
Zn44 Zn 0.16297 0.16061 0.382 0.0
Zn45 Zn 0.1395 1.00646 0.41923 0.0
O46 O 0.08829 0.05924 0.40552 0.0
H47 H 0.0399 0.04244 0.41802 0.0
C48 C 0.20447 0.2587 0.52774 0.0
O49 O 0.24754 0.23364 0.53177 0.0
Zn50 Zn 0.89241 0.89302 0.74522 0.0
Zn51 Zn 0.89199 0.03803 0.78113 0.0
O52 O 0.94855 0.99766 0.73468 0.0
H53 H 0.99791 0.024 0.72371 0.0
Zn54 Zn 0.14333 0.15783 0.65196 0.0
O55 O 0.09495 0.0535 0.6259 0.0
Zn56 Zn 0.12726 1.0004 0.69309 0.0
H57 H 0.074 0.03916 0.57759 0.0
Zn58 Zn 0.86154 0.98036 0.52507 0.0
O59 O 0.93371 0.95097 0.54046 0.0
H60 H 0.96238 0.96539 0.58421 0.0
Zn61 Zn 0.90755 0.862 0.4824 0.0
C62 C 0.87083 0.09496 0.62512 0.0
O63 O 0.92862 0.1345 0.58744 0.0
O64 O 0.26097 0.17255 0.36307 0.0
O65 O 0.23869 0.06221 0.38151 0.0
O66 O 0.79151 0.96163 0.81293 0.0
O67 O 0.7953 0.86362 0.78651 0.0
O68 O 0.22411 0.18023 0.72338 0.0
O69 O 0.21372 0.07534 0.7515 0.0
C70 C 0.02672 0.8705 0.37275 0.0
O71 O 0.78504 0.9097 0.45608 0.0
O72 O 0.81825 0.83223 0.42229 0.0
O73 O 0.94616 0.1379 0.83124 0.0
C74 C 0.28047 0.12644 0.36385 0.0
O75 O 0.13155 0.2227 0.32388 0.0
C76 C 1.00835 0.8833 0.806 0.0
O77 O 0.15324 0.23494 0.57308 0.0
C78 C 0.76244 0.89427 0.81034 0.0
O79 O 0.83481 0.02929 0.60998 0.0
C80 C 0.15323 0.94358 0.55838 0.0
O81 O 0.09092 0.91517 0.3623 0.0
O82 O 0.99383 0.88547 0.42117 0.0
C83 C 0.24535 0.14312 0.7573 0.0
O84 O 0.94331 0.86141 0.81285 0.0
O85 O 0.04301 0.93162 0.75784 0.0
C86 C 0.88508 0.79342 0.62363 0.0
O87 O 0.15172 0.9382 0.62877 0.0
O88 O 0.14266 0.99001 0.52871 0.0
C89 C 0.77505 0.85522 0.41964 0.0
O90 O 0.8914 0.78429 0.5549 0.0
O91 O 0.88641 0.85 0.64393 0.0
C92 C 1.00887 0.17903 0.81024 0.0
O93 O 0.03584 0.15736 0.75832 0.0
C94 C 0.07397 0.2178 0.34373 0.0
O95 O 0.03929 0.17589 0.39951 0.0
H96 H 0.1456 0.71512 0.3388 0.0
H97 H 0.35397 0.88639 0.2918 0.0
H98 H 0.34136 0.95838 0.3872 0.0
H99 H 0.26852 0.97646 0.47831 0.0
H100 H 0.06322 0.80477 0.53166 0.0
H101 H 0.0769 0.72923 0.43964 0.0
C102 C 0.18832 0.76803 0.34977 0.0
C103 C 0.25034 0.79535 0.30759 0.0
C104 C 0.18114 0.80928 0.40561 0.0
C105 C 0.30553 0.86385 0.32314 0.0
C106 C 0.29835 0.90538 0.37755 0.0
C107 C 0.22742 0.92211 0.47032 0.0
C108 C 0.16515 0.89571 0.51109 0.0
C109 C 0.2361 0.87913 0.41824 0.0
C110 C 0.1119 0.82547 0.50098 0.0
C111 C 0.1196 0.78261 0.4482 0.0
H112 H 0.55358 0.17596 0.20197 0.0
H113 H 0.62025 0.3901 0.26862 0.0
H114 H 0.51498 0.34935 0.3443 0.0
H115 H 0.39553 0.25615 0.37245 0.0
H116 H 0.32555 0.0422 0.30178 0.0
H117 H 0.44029 0.079 0.24728 0.0
C118 C 0.5462 0.21301 0.23569 0.0
C119 C 0.59408 0.28568 0.23017 0.0
C120 C 0.48405 0.18944 0.27659 0.0
C121 C 0.58378 0.33378 0.27267 0.0
C122 C 0.52331 0.31064 0.31512 0.0
C123 C 0.4058 0.21752 0.34595 0.0
C124 C 0.3521 0.14696 0.33999 0.0
C125 C 0.47155 0.23916 0.31428 0.0
C126 C 0.36624 0.09698 0.30684 0.0
C127 C 0.43174 0.11802 0.27544 0.0
H128 H 0.29484 0.47663 0.26237 0.0
H129 H 0.12494 0.5016 0.34573 0.0
H130 H 0.1031 0.41509 0.44432 0.0
H131 H 0.13215 0.33062 0.50605 0.0
H132 H 0.30409 0.30988 0.41988 0.0
H133 H 0.32482 0.39609 0.32365 0.0
C134 C 0.2529 0.46338 0.302 0.0
C135 C 0.21149 0.49566 0.29621 0.0
C136 C 0.24102 0.41415 0.35846 0.0
C137 C 0.15789 0.47796 0.34882 0.0
C138 C 0.14532 0.42832 0.40519 0.0
C139 C 0.1743 0.34521 0.46639 0.0
C140 C 0.21623 0.31311 0.47051 0.0
C141 C 0.18654 0.39585 0.41055 0.0
C142 C 0.27068 0.33305 0.41845 0.0
C143 C 0.28274 0.38261 0.3631 0.0
H144 H 0.98122 0.38729 0.1319 0.0
H145 H 0.78479 0.25232 0.24118 0.0
H146 H 0.84105 0.20663 0.32298 0.0
H147 H 0.94319 0.19761 0.35621 0.0
H148 H 0.13783 0.32223 0.23853 0.0
H149 H 0.0858 0.3797 0.16725 0.0
C150 C 0.95141 0.34874 0.17436 0.0
C151 C 0.8793 0.32326 0.18091 0.0
C152 C 0.98364 0.32036 0.21898 0.0
C153 C 0.84047 0.27255 0.2354 0.0
C154 C 0.87253 0.24631 0.28192 0.0
C155 C 0.97454 0.23771 0.3154 0.0
C156 C 0.0443 0.25556 0.30279 0.0
C157 C 0.94365 0.26859 0.27305 0.0
C158 C 0.08392 0.30738 0.24926 0.0
C159 C 0.05417 0.34024 0.20844 0.0
H160 H 0.51007 0.66741 0.21924 0.0
H161 H 0.46449 0.83019 0.28651 0.0
H162 H 0.56945 0.88567 0.36209 0.0
H163 H 0.67576 0.8917 0.40414 0.0
H164 H 0.72792 0.73367 0.33594 0.0
H165 H 0.61907 0.67283 0.26495 0.0
C166 C 0.52297 0.7144 0.25143 0.0
C167 C 0.47993 0.74484 0.24768 0.0
C168 C 0.58479 0.74734 0.29353 0.0
C169 C 0.49722 0.80619 0.28856 0.0
C170 C 0.5572 0.838 0.33158 0.0
C171 C 0.66375 0.84391 0.37393 0.0
C172 C 0.71026 0.81755 0.37528 0.0
C173 C 0.6018 0.80972 0.33347 0.0
C174 C 0.69322 0.75537 0.33567 0.0
C175 C 0.63089 0.72045 0.29525 0.0
H176 H 0.94552 0.61532 0.15391 0.0
H177 H 0.73929 0.54907 0.24067 0.0
H178 H 0.78759 0.65125 0.32372 0.0
H179 H 0.88885 0.76309 0.36867 0.0
H180 H 0.09379 0.82681 0.27894 0.0
H181 H 0.04561 0.72228 0.20149 0.0
C182 C 0.91097 0.62284 0.19114 0.0
C183 C 0.83878 0.57454 0.19038 0.0
C184 C 0.93894 0.68175 0.23862 0.0
C185 C 0.79513 0.58535 0.23963 0.0
C186 C 0.8227 0.64396 0.28724 0.0
C187 C 0.92282 0.75385 0.3324 0.0
C188 C 0.99481 0.80344 0.32961 0.0
C189 C 0.89457 0.69309 0.28676 0.0
C190 C 0.03809 0.79019 0.2823 0.0
C191 C 0.01065 0.73018 0.23765 0.0
H192 H 0.07544 0.69147 0.01442 0.0
H193 H 0.28643 0.86105 0.97798 0.0
H194 H 0.24452 0.91958 0.89439 0.0
H195 H 0.14675 0.92537 0.83421 0.0
H196 H 0.93585 0.75855 0.87864 0.0
H197 H 0.97861 0.69671 0.95435 0.0
C198 C 0.11224 0.74087 0.98769 0.0
C199 C 0.18388 0.77165 0.00278 0.0
C200 C 0.08773 0.77523 0.94053 0.0
C201 C 0.23079 0.83621 0.96797 0.0
C202 C 0.20693 0.86985 0.91988 0.0
C203 C 0.11038 0.87537 0.86015 0.0
C204 C 0.03814 0.84688 0.85001 0.0
C205 C 0.13534 0.84034 0.90617 0.0
C206 C 0.99177 0.78203 0.88476 0.0
C207 C 0.01611 0.74635 0.92861 0.0
H208 H 0.52657 0.3541 0.92033 0.0
H209 H 0.54117 0.16442 0.93543 0.0
H210 H 0.42936 0.09725 0.87249 0.0
H211 H 0.32666 0.09178 0.81301 0.0
H212 H 0.31212 0.2817 0.7991 0.0
H213 H 0.42365 0.34846 0.862 0.0
C214 C 0.50562 0.29823 0.9093 0.0
C215 C 0.54252 0.26462 0.93252 0.0
C216 C 0.44066 0.25946 0.87373 0.0
C217 C 0.514 0.19185 0.91832 0.0
C218 C 0.44986 0.15319 0.88241 0.0
C219 C 0.34758 0.14761 0.82425 0.0
C220 C 0.31077 0.18137 0.80102 0.0
C221 C 0.41244 0.18628 0.86018 0.0
C222 C 0.33916 0.25405 0.81589 0.0
C223 C 0.40322 0.29256 0.85184 0.0
H224 H 0.23481 0.47337 0.94256 0.0
H225 H 0.04992 0.46377 0.03604 0.0
H226 H 0.97669 0.35076 0.97466 0.0
H227 H 0.96544 0.25155 0.89884 0.0
H228 H 0.14983 0.26513 0.79869 0.0
H229 H 0.22261 0.37942 0.85786 0.0
C230 C 0.17847 0.44712 0.94875 0.0
C231 C 0.14815 0.47632 -0.00445 0.0
C232 C 0.13642 0.38248 0.91223 0.0
C233 C 0.07487 0.44165 0.00204 0.0
C234 C 0.03282 0.37707 0.96665 0.0
C235 C 0.02147 0.27977 0.88953 0.0
C236 C 0.05202 0.24956 0.8446 0.0
C237 C 0.06309 0.34632 0.92263 0.0
C238 C 0.12478 0.28702 0.83298 0.0
C239 C 0.16658 0.35251 0.86682 0.0
H240 H 0.7322 0.18221 0.88238 0.0
H241 H 0.91975 0.38381 0.85039 0.0
H242 H 0.95696 0.33357 0.75073 0.0
H243 H 0.93764 0.23166 0.67434 0.0
H244 H 0.75079 0.02975 0.70809 0.0
H245 H 0.71248 0.08076 0.80558 0.0
C246 C 0.78104 0.21541 0.85337 0.0
C247 C 0.82295 0.28688 0.874 0.0
C248 C 0.80262 0.18594 0.79665 0.0
C249 C 0.88634 0.32872 0.83589 0.0
C250 C 0.90767 0.30002 0.77873 0.0
C251 C 0.88836 0.1988 0.70273 0.0
C252 C 0.8474 0.12673 0.68386 0.0
C253 C 0.86649 0.22855 0.75897 0.0
C254 C 0.78374 0.08516 0.72157 0.0
C255 C 0.76163 0.11437 0.77736 0.0
H256 H 0.47424 0.67581 0.9566 0.0
H257 H 0.44184 0.85496 0.94133 0.0
H258 H 0.55285 0.92217 0.87554 0.0
H259 H 0.66479 0.9344 0.83376 0.0
H260 H 0.69614 0.75472 0.84815 0.0
H261 H 0.58021 0.68379 0.90285 0.0
C262 C 0.49074 0.72911 0.93779 0.0
C263 C 0.4499 0.76036 0.95498 0.0
C264 C 0.55518 0.76797 0.90078 0.0
C265 C 0.4721 0.82939 0.92936 0.0
C266 C 0.53597 0.86822 0.89211 0.0
C267 C 0.64611 0.87961 0.8485 0.0
C268 C 0.68971 0.85031 0.83796 0.0
C269 C 0.57895 0.8388 0.87959 0.0
C270 C 0.66404 0.77882 0.85614 0.0
C271 C 0.59764 0.73814 0.88747 0.0
H272 H 0.87629 0.55027 0.82296 0.0
H273 H 0.72474 0.58537 0.94002 0.0
H274 H 0.74364 0.67795 0.85364 0.0
H275 H 0.80164 0.74962 0.7443 0.0
H276 H 0.95031 0.71512 0.62255 0.0
H277 H 0.9343 0.62246 0.71076 0.0
C278 C 0.84733 0.57807 0.82932 0.0
C279 C 0.79915 0.56035 0.88821 0.0
C280 C 0.85793 0.63181 0.77856 0.0
C281 C 0.76213 0.59725 0.89544 0.0
C282 C 0.77283 0.65063 0.84596 0.0
C283 C 0.83103 0.72231 0.7377 0.0
C284 C 0.87766 0.7396 0.67803 0.0
C285 C 0.82047 0.66844 0.78745 0.0
C286 C 0.91424 0.70268 0.66862 0.0
C287 C 0.90504 0.64973 0.71892 0.0
loop_
_geom_bond_atom_site_label_1
_geom_bond_atom_site_label_2
_geom_bond_distance
_geom_bond_site_symmetry_2
_ccdc_geom_bond_type
Fe0 O2 1.918 . S
Fe0 O5 1.997 . S
Fe0 O6 2.002 . S
Fe0 O11 1.976 . S
Fe0 O14 1.996 . S
Fe1 O2 1.918 . S
Fe1 O9 1.997 . S
Fe1 O12 1.996 . S
Fe1 O16 1.976 . S
Fe1 O19 2.002 . S
O2 Fe0 1.918 . S
O2 Fe1 1.918 . S
O2 Fe3 1.918 . S
Fe3 O2 1.918 . S
Fe3 O4 2.002 . S
Fe3 O13 1.976 . S
Fe3 O17 1.996 . S
Fe3 O20 1.997 . S
O4 Fe3 2.002 . S
O4 C21 1.295 . S
O5 Fe0 1.997 . S
O5 C21 1.235 . S
O6 Fe0 2.002 . S
O6 C7 1.295 . S
C7 O6 1.295 . S
C7 O9 1.235 . S
C8 O13 1.287 . S
C8 O14 1.255 . S
O9 Fe1 1.997 . S
O9 C7 1.235 . S
C10 O16 1.287 . S
C10 O17 1.255 . S
O11 Fe0 1.976 . S
O11 C18 1.287 . S
O12 Fe1 1.996 . S
O12 C18 1.255 . S
O13 Fe3 1.976 . S
O13 C8 1.287 . S
O14 Fe0 1.996 . S
O14 C8 1.255 . S
C15 O19 1.295 . S
C15 O20 1.235 . S
O16 Fe1 1.976 . S
O16 C10 1.287 . S
O17 Fe3 1.996 . S
O17 C10 1.255 . S
C18 O11 1.287 . S
C18 O12 1.255 . S
O19 Fe1 2.002 . S
O19 C15 1.295 . S
O20 Fe3 1.997 . S
O20 C15 1.235 . S
C21 O4 1.295 . S
C21 O5 1.235 . S
Fe22 O24 1.918 . S
Fe22 O27 1.997 . S
Fe22 O28 2.002 . S
Fe22 O33 1.976 1_554 S
Fe22 O36 1.996 1_554 S
Fe23 O24 1.918 . S
Fe23 O31 1.997 . S
Fe23 O34 1.996 1_554 S
Fe23 O38 1.976 1_554 S
Fe23 O41 2.002 . S
O24 Fe22 1.918 . S
O24 Fe23 1.918 . S
O24 Fe25 1.918 . S
Fe25 O24 1.918 . S
Fe25 O26 2.002 . S
Fe25 O35 1.976 1_554 S
Fe25 O39 1.996 1_554 S
Fe25 O42 1.997 . S
O26 Fe25 2.002 . S
O26 C43 1.295 . S
O27 Fe22 1.997 . S
O27 C43 1.235 . S
O28 Fe22 2.002 . S
O28 C29 1.295 . S
C29 O28 1.295 . S
C29 O31 1.235 . S
C30 O35 1.287 . S
C30 O36 1.255 . S
O31 Fe23 1.997 . S
O31 C29 1.235 . S
C32 O38 1.287 . S
C32 O39 1.255 . S
O33 Fe22 1.976 1_556 S
O33 C40 1.287 . S
O34 Fe23 1.996 1_556 S
O34 C40 1.255 . S
O35 Fe25 1.976 1_556 S
O35 C30 1.287 . S
O36 Fe22 1.996 1_556 S
O36 C30 1.255 . S
C37 O41 1.295 . S
C37 O42 1.235 . S
O38 Fe23 1.976 1_556 S
O38 C32 1.287 . S
O39 Fe25 1.996 1_556 S
O39 C32 1.255 . S
C40 O33 1.287 . S
C40 O34 1.255 . S
O41 Fe23 2.002 . S
O41 C37 1.295 . S
O42 Fe25 1.997 . S
O42 C37 1.235 . S
C43 O26 1.295 . S
C43 O27 1.235 . S
Zn44 O46 1.933 . S
Zn44 O64 1.985 . S
Zn44 O75 1.955 . S
Zn45 O46 1.911 1_565 S
Zn45 O65 1.970 1_565 S
Zn45 O81 1.945 . S
Zn45 O88 1.981 . S
O46 Zn44 1.933 . S
O46 Zn45 1.911 1_545 S
O46 H47 0.841 1_445 S
H47 O46 0.841 1_665 S
C48 O49 1.246 . S
C48 O77 1.276 . S
O49 C48 1.246 . S
Zn50 O52 1.911 . S
Zn50 O67 1.970 . S
Zn50 O84 1.945 1_655 S
Zn50 O91 1.981 . S
Zn51 O52 1.933 1_545 S
Zn51 O66 1.985 1_545 S
Zn51 O73 1.955 1_655 S
O52 Zn50 1.911 . S
O52 Zn51 1.933 1_565 S
O52 H53 0.841 1_665 S
H53 O52 0.841 1_445 S
Zn54 O55 1.933 . S
Zn54 O68 1.985 . S
Zn54 O77 1.955 . S
O55 Zn54 1.933 . S
O55 Zn56 1.911 . S
O55 H57 0.841 . S
Zn56 O55 1.911 . S
Zn56 O69 1.970 . S
Zn56 O85 1.981 1_545 S
Zn56 O87 1.945 1_545 S
H57 O55 0.841 . S
Zn58 O59 1.933 . S
Zn58 O71 1.985 . S
Zn58 O79 1.955 1_565 S
O59 Zn58 1.933 . S
O59 H60 0.841 . S
O59 Zn61 1.911 . S
H60 O59 0.841 . S
Zn61 O59 1.911 . S
Zn61 O72 1.970 . S
Zn61 O82 1.981 . S
Zn61 O90 1.945 . S
C62 O63 1.246 . S
C62 O79 1.276 . S
O63 C62 1.246 . S
O64 Zn44 1.985 . S
O64 C74 1.245 . S
O65 Zn45 1.970 1_545 S
O65 C74 1.263 . S
O66 Zn51 1.985 1_565 S
O66 C78 1.245 . S
O67 Zn50 1.970 . S
O67 C78 1.263 . S
O68 Zn54 1.985 . S
O68 C83 1.245 . S
O69 Zn56 1.970 . S
O69 C83 1.263 . S
C70 O81 1.262 1_655 S
C70 O82 1.245 . S
O71 Zn58 1.985 . S
O71 C89 1.245 . S
O72 Zn61 1.970 . S
O72 C89 1.263 . S
O73 Zn51 1.955 1_455 S
O73 C92 1.276 . S
C74 O64 1.245 . S
C74 O65 1.263 . S
O75 Zn44 1.955 . S
O75 C94 1.276 1_455 S
C76 O84 1.262 . S
C76 O85 1.245 . S
O77 C48 1.276 . S
O77 Zn54 1.955 . S
C78 O66 1.245 . S
C78 O67 1.263 . S
O79 Zn58 1.955 1_545 S
O79 C62 1.276 . S
C80 O87 1.262 . S
C80 O88 1.245 . S
O81 Zn45 1.945 . S
O81 C70 1.262 1_455 S
O82 Zn61 1.981 . S
O82 C70 1.245 . S
C83 O68 1.245 . S
C83 O69 1.263 . S
O84 Zn50 1.945 1_455 S
O84 C76 1.262 . S
O85 Zn56 1.981 1_565 S
O85 C76 1.245 . S
C86 O90 1.262 . S
C86 O91 1.245 . S
O87 Zn56 1.945 1_565 S
O87 C80 1.262 . S
O88 Zn45 1.981 . S
O88 C80 1.245 . S
C89 O71 1.245 . S
C89 O72 1.263 . S
O90 Zn61 1.945 . S
O90 C86 1.262 . S
O91 Zn50 1.981 . S
O91 C86 1.245 . S
C92 O73 1.276 . S
C92 O93 1.246 . S
O93 C92 1.246 . S
C94 O75 1.276 1_655 S
C94 O95 1.246 . S
O95 C94 1.246 . S
H96 C102 0.930 . S
H97 C105 0.930 . S
H98 C106 0.930 . S
H99 C107 0.930 . S
H100 C110 0.930 . S
H101 C111 0.930 . S
C102 H96 0.930 . S
C102 C103 1.355 . S
C102 C104 1.415 . S
C103 C102 1.355 . S
C103 C105 1.419 . S
C104 C102 1.415 . S
C104 C109 1.425 . S
C104 C111 1.409 . S
C105 H97 0.930 . S
C105 C103 1.419 . S
C105 C106 1.362 . S
C106 H98 0.930 . S
C106 C105 1.362 . S
C106 C109 1.409 . S
C107 H99 0.930 . S
C107 C108 1.355 . S
C107 C109 1.415 . S
C108 C107 1.355 . S
C108 C110 1.419 . S
C109 C104 1.425 . S
C109 C106 1.409 . S
C109 C107 1.415 . S
C110 H100 0.930 . S
C110 C108 1.419 . S
C110 C111 1.362 . S
C111 H101 0.930 . S
C111 C104 1.409 . S
C111 C110 1.362 . S
H112 C118 0.930 . S
H113 C121 0.930 . S
H114 C122 0.930 . S
H115 C123 0.930 . S
H116 C126 0.930 . S
H117 C127 0.930 . S
C118 H112 0.930 . S
C118 C119 1.355 . S
C118 C120 1.415 . S
C119 C118 1.355 . S
C119 C121 1.419 . S
C120 C118 1.415 . S
C120 C125 1.425 . S
C120 C127 1.409 . S
C121 H113 0.930 . S
C121 C119 1.419 . S
C121 C122 1.362 . S
C122 H114 0.930 . S
C122 C121 1.362 . S
C122 C125 1.409 . S
C123 H115 0.930 . S
C123 C124 1.355 . S
C123 C125 1.415 . S
C124 C123 1.355 . S
C124 C126 1.419 . S
C125 C120 1.425 . S
C125 C122 1.409 . S
C125 C123 1.415 . S
C126 H116 0.930 . S
C126 C124 1.419 . S
C126 C127 1.362 . S
C127 H117 0.930 . S
C127 C120 1.409 . S
C127 C126 1.362 . S
H128 C134 0.930 . S
H129 C137 0.930 . S
H130 C138 0.930 . S
H131 C139 0.930 . S
H132 C142 0.930 . S
H133 C143 0.930 . S
C134 H128 0.930 . S
C134 C135 1.355 . S
C134 C136 1.415 . S
C135 C134 1.355 . S
C135 C137 1.419 . S
C136 C134 1.415 . S
C136 C141 1.425 . S
C136 C143 1.409 . S
C137 H129 0.930 . S
C137 C135 1.419 . S
C137 C138 1.362 . S
C138 H130 0.930 . S
C138 C137 1.362 . S
C138 C141 1.409 . S
C139 H131 0.930 . S
C139 C140 1.355 . S
C139 C141 1.415 . S
C140 C139 1.355 . S
C140 C142 1.419 . S
C141 C136 1.425 . S
C141 C138 1.409 . S
C141 C139 1.415 . S
C142 H132 0.930 . S
C142 C140 1.419 . S
C142 C143 1.362 . S
C143 H133 0.930 . S
C143 C136 1.409 . S
C143 C142 1.362 . S
H144 C150 0.930 . S
H145 C153 0.930 . S
H146 C154 0.930 . S
H147 C155 0.930 . S
H148 C158 0.930 . S
H149 C159 0.930 . S
C150 H144 0.930 . S
C150 C151 1.355 . S
C150 C152 1.415 . S
C151 C150 1.355 . S
C151 C153 1.419 . S
C152 C150 1.415 . S
C152 C157 1.425 . S
C152 C159 1.409 . S
C153 H145 0.930 . S
C153 C151 1.419 . S
C153 C154 1.362 . S
C154 H146 0.930 . S
C154 C153 1.362 . S
C154 C157 1.409 . S
C155 H147 0.930 . S
C155 C156 1.355 . S
C155 C157 1.415 . S
C156 C155 1.355 . S
C156 C158 1.419 . S
C157 C152 1.425 . S
C157 C154 1.409 . S
C157 C155 1.415 . S
C158 H148 0.930 . S
C158 C156 1.419 . S
C158 C159 1.362 . S
C159 H149 0.930 . S
C159 C152 1.409 . S
C159 C158 1.362 . S
H160 C166 0.930 . S
H161 C169 0.930 . S
H162 C170 0.930 . S
H163 C171 0.930 . S
H164 C174 0.930 . S
H165 C175 0.930 . S
C166 H160 0.930 . S
C166 C167 1.355 . S
C166 C168 1.415 . S
C167 C166 1.355 . S
C167 C169 1.419 . S
C168 C166 1.415 . S
C168 C173 1.425 . S
C168 C175 1.409 . S
C169 H161 0.930 . S
C169 C167 1.419 . S
C169 C170 1.362 . S
C170 H162 0.930 . S
C170 C169 1.362 . S
C170 C173 1.409 . S
C171 H163 0.930 . S
C171 C172 1.355 . S
C171 C173 1.415 . S
C172 C171 1.355 . S
C172 C174 1.419 . S
C173 C168 1.425 . S
C173 C170 1.409 . S
C173 C171 1.415 . S
C174 H164 0.930 . S
C174 C172 1.419 . S
C174 C175 1.362 . S
C175 H165 0.930 . S
C175 C168 1.409 . S
C175 C174 1.362 . S
H176 C182 0.930 . S
H177 C185 0.930 . S
H178 C186 0.930 . S
H179 C187 0.930 . S
H180 C190 0.930 . S
H181 C191 0.930 . S
C182 H176 0.930 . S
C182 C183 1.355 . S
C182 C184 1.415 . S
C183 C182 1.355 . S
C183 C185 1.419 . S
C184 C182 1.415 . S
C184 C189 1.425 . S
C184 C191 1.409 . S
C185 H177 0.930 . S
C185 C183 1.419 . S
C185 C186 1.362 . S
C186 H178 0.930 . S
C186 C185 1.362 . S
C186 C189 1.409 . S
C187 H179 0.930 . S
C187 C188 1.355 . S
C187 C189 1.415 . S
C188 C187 1.355 . S
C188 C190 1.419 . S
C189 C184 1.425 . S
C189 C186 1.409 . S
C189 C187 1.415 . S
C190 H180 0.930 . S
C190 C188 1.419 . S
C190 C191 1.362 . S
C191 H181 0.930 . S
C191 C184 1.409 . S
C191 C190 1.362 . S
H192 C198 0.930 1_554 S
H193 C201 0.930 . S
H194 C202 0.930 . S
H195 C203 0.930 . S
H196 C206 0.930 . S
H197 C207 0.930 . S
C198 H192 0.930 1_556 S
C198 C199 1.355 . S
C198 C200 1.415 . S
C199 C198 1.355 . S
C199 C201 1.419 . S
C200 C198 1.415 . S
C200 C205 1.425 . S
C200 C207 1.409 . S
C201 H193 0.930 . S
C201 C199 1.419 . S
C201 C202 1.362 . S
C202 H194 0.930 . S
C202 C201 1.362 . S
C202 C205 1.409 . S
C203 H195 0.930 . S
C203 C204 1.355 . S
C203 C205 1.415 . S
C204 C203 1.355 . S
C204 C206 1.419 . S
C205 C200 1.425 . S
C205 C202 1.409 . S
C205 C203 1.415 . S
C206 H196 0.930 . S
C206 C204 1.419 . S
C206 C207 1.362 . S
C207 H197 0.930 . S
C207 C200 1.409 . S
C207 C206 1.362 . S
H208 C214 0.930 . S
H209 C217 0.930 . S
H210 C218 0.930 . S
H211 C219 0.930 . S
H212 C222 0.930 . S
H213 C223 0.930 . S
C214 H208 0.930 . S
C214 C215 1.355 . S
C214 C216 1.415 . S
C215 C214 1.355 . S
C215 C217 1.419 . S
C216 C214 1.415 . S
C216 C221 1.425 . S
C216 C223 1.409 . S
C217 H209 0.930 . S
C217 C215 1.419 . S
C217 C218 1.362 . S
C218 H210 0.930 . S
C218 C217 1.362 . S
C218 C221 1.409 . S
C219 H211 0.930 . S
C219 C220 1.355 . S
C219 C221 1.415 . S
C220 C219 1.355 . S
C220 C222 1.419 . S
C221 C216 1.425 . S
C221 C218 1.409 . S
C221 C219 1.415 . S
C222 H212 0.930 . S
C222 C220 1.419 . S
C222 C223 1.362 . S
C223 H213 0.930 . S
C223 C216 1.409 . S
C223 C222 1.362 . S
H224 C230 0.930 . S
H225 C233 0.930 . S
H226 C234 0.930 . S
H227 C235 0.930 . S
H228 C238 0.930 . S
H229 C239 0.930 . S
C230 H224 0.930 . S
C230 C231 1.355 . S
C230 C232 1.415 . S
C231 C230 1.355 . S
C231 C233 1.419 1_556 S
C232 C230 1.415 . S
C232 C237 1.425 . S
C232 C239 1.409 . S
C233 H225 0.930 . S
C233 C231 1.419 1_554 S
C233 C234 1.362 1_554 S
C234 H226 0.930 . S
C234 C233 1.362 1_556 S
C234 C237 1.409 . S
C235 H227 0.930 . S
C235 C236 1.355 . S
C235 C237 1.415 . S
C236 C235 1.355 . S
C236 C238 1.419 . S
C237 C232 1.425 . S
C237 C234 1.409 . S
C237 C235 1.415 . S
C238 H228 0.930 . S
C238 C236 1.419 . S
C238 C239 1.362 . S
C239 H229 0.930 . S
C239 C232 1.409 . S
C239 C238 1.362 . S
H240 C246 0.930 . S
H241 C249 0.930 . S
H242 C250 0.930 . S
H243 C251 0.930 . S
H244 C254 0.930 . S
H245 C255 0.930 . S
C246 H240 0.930 . S
C246 C247 1.355 . S
C246 C248 1.415 . S
C247 C246 1.355 . S
C247 C249 1.419 . S
C248 C246 1.415 . S
C248 C253 1.425 . S
C248 C255 1.409 . S
C249 H241 0.930 . S
C249 C247 1.419 . S
C249 C250 1.362 . S
C250 H242 0.930 . S
C250 C249 1.362 . S
C250 C253 1.409 . S
C251 H243 0.930 . S
C251 C252 1.355 . S
C251 C253 1.415 . S
C252 C251 1.355 . S
C252 C254 1.419 . S
C253 C248 1.425 . S
C253 C250 1.409 . S
C253 C251 1.415 . S
C254 H244 0.930 . S
C254 C252 1.419 . S
C254 C255 1.362 . S
C255 H245 0.930 . S
C255 C248 1.409 . S
C255 C254 1.362 . S
H256 C262 0.930 . S
H257 C265 0.930 . S
H258 C266 0.930 . S
H259 C267 0.930 . S
H260 C270 0.930 1_554 S
H261 C271 0.930 . S
C262 H256 0.930 . S
C262 C263 1.355 . S
C262 C264 1.415 . S
C263 C262 1.355 . S
C263 C265 1.419 1_554 S
C264 C262 1.415 . S
C264 C269 1.425 1_554 S
C264 C271 1.409 . S
C265 H257 0.930 . S
C265 C263 1.419 1_556 S
C265 C266 1.362 . S
C266 H258 0.930 . S
C266 C265 1.362 . S
C266 C269 1.409 . S
C267 H259 0.930 . S
C267 C268 1.355 . S
C267 C269 1.415 . S
C268 C267 1.355 . S
C268 C270 1.419 . S
C269 C264 1.425 1_556 S
C269 C266 1.409 . S
C269 C267 1.415 . S
C270 H260 0.930 1_556 S
C270 C268 1.419 . S
C270 C271 1.362 1_556 S
C271 H261 0.930 . S
C271 C264 1.409 . S
C271 C270 1.362 1_554 S
H272 C278 0.930 . S
H273 C281 0.930 . S
H274 C282 0.930 . S
H275 C283 0.930 . S
H276 C286 0.930 . S
H277 C287 0.930 . S
C278 H272 0.930 . S
C278 C279 1.355 . S
C278 C280 1.415 . S
C279 C278 1.355 . S
C279 C281 1.419 . S
C280 C278 1.415 . S
C280 C285 1.425 . S
C280 C287 1.409 . S
C281 H273 0.930 . S
C281 C279 1.419 . S
C281 C282 1.362 . S
C282 H274 0.930 . S
C282 C281 1.362 . S
C282 C285 1.409 . S
C283 H275 0.930 . S
C283 C284 1.355 . S
C283 C285 1.415 . S
C284 C283 1.355 . S
C284 C286 1.419 . S
C285 C280 1.425 . S
C285 C282 1.409 . S
C285 C283 1.415 . S
C286 H276 0.930 . S
C286 C284 1.419 . S
C286 C287 1.362 . S
C287 H277 0.930 . S
C287 C280 1.409 . S
C287 C286 1.362 . S
C103 C8 1.414 . S
C108 C80 1.439 . S
C124 C74 1.765 . S
C119 C29 1.734 . S
C140 C48 1.449 . S
C135 C10 1.470 . S
C156 C94 1.857 . S
C151 C37 1.971 . S
C172 C89 0.462 . S
C167 C18 0.449 . S
C183 C43 1.871 . S
C188 C70 1.855 . S
C199 C21 1.894 1_556 S
C204 C76 1.806 . S
C215 C40 0.394 . S
C220 C83 0.415 . S
C231 C15 1.956 1_556 S
C236 C92 1.900 . S
C247 C32 1.460 . S
C252 C62 1.431 . S
C268 C78 1.787 . S
C263 C7 1.765 . S
C279 C30 1.431 . S
C284 C86 1.412 . S
