# Generated by pormake.
# Topology gar, (4,6)-cn, num edge types: 1
# Building blocks:
#     Node 0, Type 0, BuildingBlock: GALJAG_clean_sbu_0, # of connection points: 4
#     Node 1, Type 0, BuildingBlock: GALJAG_clean_sbu_0, # of connection points: 4
#     Node 2, Type 0, BuildingBlock: GALJAG_clean_sbu_0, # of connection points: 4
#     Node 3, Type 0, BuildingBlock: GALJAG_clean_sbu_0, # of connection points: 4
#     Node 4, Type 0, BuildingBlock: GALJAG_clean_sbu_0, # of connection points: 4
#     Node 5, Type 0, BuildingBlock: GALJAG_clean_sbu_0, # of connection points: 4
#     Node 6, Type 0, BuildingBlock: GALJAG_clean_sbu_0, # of connection points: 4
#     Node 7, Type 0, BuildingBlock: GALJAG_clean_sbu_0, # of connection points: 4
#     Node 8, Type 0, BuildingBlock: GALJAG_clean_sbu_0, # of connection points: 4
#     Node 9, Type 0, BuildingBlock: GALJAG_clean_sbu_0, # of connection points: 4
#     Node 10, Type 0, BuildingBlock: GALJAG_clean_sbu_0, # of connection points: 4
#     Node 11, Type 0, BuildingBlock: GALJAG_clean_sbu_0, # of connection points: 4
#     Node 12, Type 0, BuildingBlock: GALJAG_clean_sbu_0, # of connection points: 4
#     Node 13, Type 0, BuildingBlock: GALJAG_clean_sbu_0, # of connection points: 4
#     Node 14, Type 0, BuildingBlock: GALJAG_clean_sbu_0, # of connection points: 4
#     Node 15, Type 0, BuildingBlock: GALJAG_clean_sbu_0, # of connection points: 4
#     Node 16, Type 0, BuildingBlock: GALJAG_clean_sbu_0, # of connection points: 4
#     Node 17, Type 0, BuildingBlock: GALJAG_clean_sbu_0, # of connection points: 4
#     Node 18, Type 0, BuildingBlock: GALJAG_clean_sbu_0, # of connection points: 4
#     Node 19, Type 0, BuildingBlock: GALJAG_clean_sbu_0, # of connection points: 4
#     Node 20, Type 0, BuildingBlock: GALJAG_clean_sbu_0, # of connection points: 4
#     Node 21, Type 0, BuildingBlock: GALJAG_clean_sbu_0, # of connection points: 4
#     Node 22, Type 0, BuildingBlock: GALJAG_clean_sbu_0, # of connection points: 4
#     Node 23, Type 0, BuildingBlock: GALJAG_clean_sbu_0, # of connection points: 4
#     Node 24, Type 1, BuildingBlock: GEDQOX_clean_sbu_0, # of connection points: 6
#     Node 25, Type 1, BuildingBlock: GEDQOX_clean_sbu_0, # of connection points: 6
#     Node 26, Type 1, BuildingBlock: GEDQOX_clean_sbu_0, # of connection points: 6
#     Node 27, Type 1, BuildingBlock: GEDQOX_clean_sbu_0, # of connection points: 6
#     Node 28, Type 1, BuildingBlock: GEDQOX_clean_sbu_0, # of connection points: 6
#     Node 29, Type 1, BuildingBlock: GEDQOX_clean_sbu_0, # of connection points: 6
#     Node 30, Type 1, BuildingBlock: GEDQOX_clean_sbu_0, # of connection points: 6
#     Node 31, Type 1, BuildingBlock: GEDQOX_clean_sbu_0, # of connection points: 6
#     Node 32, Type 1, BuildingBlock: GEDQOX_clean_sbu_0, # of connection points: 6
#     Node 33, Type 1, BuildingBlock: GEDQOX_clean_sbu_0, # of connection points: 6
#     Node 34, Type 1, BuildingBlock: GEDQOX_clean_sbu_0, # of connection points: 6
#     Node 35, Type 1, BuildingBlock: GEDQOX_clean_sbu_0, # of connection points: 6
#     Node 36, Type 1, BuildingBlock: GEDQOX_clean_sbu_0, # of connection points: 6
#     Node 37, Type 1, BuildingBlock: GEDQOX_clean_sbu_0, # of connection points: 6
#     Node 38, Type 1, BuildingBlock: GEDQOX_clean_sbu_0, # of connection points: 6
#     Node 39, Type 1, BuildingBlock: GEDQOX_clean_sbu_0, # of connection points: 6
#     Edge 40, Type (0, 1), BuildingBlock: MIFKUJ_clean_linker_0, # of connection points: 2
#     Edge 41, Type (0, 1), BuildingBlock: MIFKUJ_clean_linker_0, # of connection points: 2
#     Edge 42, Type (0, 1), BuildingBlock: MIFKUJ_clean_linker_0, # of connection points: 2
#     Edge 43, Type (0, 1), BuildingBlock: MIFKUJ_clean_linker_0, # of connection points: 2
#     Edge 44, Type (0, 1), BuildingBlock: MIFKUJ_clean_linker_0, # of connection points: 2
#     Edge 45, Type (0, 1), BuildingBlock: MIFKUJ_clean_linker_0, # of connection points: 2
#     Edge 46, Type (0, 1), BuildingBlock: MIFKUJ_clean_linker_0, # of connection points: 2
#     Edge 47, Type (0, 1), BuildingBlock: MIFKUJ_clean_linker_0, # of connection points: 2
#     Edge 48, Type (0, 1), BuildingBlock: MIFKUJ_clean_linker_0, # of connection points: 2
#     Edge 49, Type (0, 1), BuildingBlock: MIFKUJ_clean_linker_0, # of connection points: 2
#     Edge 50, Type (0, 1), BuildingBlock: MIFKUJ_clean_linker_0, # of connection points: 2
#     Edge 51, Type (0, 1), BuildingBlock: MIFKUJ_clean_linker_0, # of connection points: 2
#     Edge 52, Type (0, 1), BuildingBlock: MIFKUJ_clean_linker_0, # of connection points: 2
#     Edge 53, Type (0, 1), BuildingBlock: MIFKUJ_clean_linker_0, # of connection points: 2
#     Edge 54, Type (0, 1), BuildingBlock: MIFKUJ_clean_linker_0, # of connection points: 2
#     Edge 55, Type (0, 1), BuildingBlock: MIFKUJ_clean_linker_0, # of connection points: 2
#     Edge 56, Type (0, 1), BuildingBlock: MIFKUJ_clean_linker_0, # of connection points: 2
#     Edge 57, Type (0, 1), BuildingBlock: MIFKUJ_clean_linker_0, # of connection points: 2
#     Edge 58, Type (0, 1), BuildingBlock: MIFKUJ_clean_linker_0, # of connection points: 2
#     Edge 59, Type (0, 1), BuildingBlock: MIFKUJ_clean_linker_0, # of connection points: 2
#     Edge 60, Type (0, 1), BuildingBlock: MIFKUJ_clean_linker_0, # of connection points: 2
#     Edge 61, Type (0, 1), BuildingBlock: MIFKUJ_clean_linker_0, # of connection points: 2
#     Edge 62, Type (0, 1), BuildingBlock: MIFKUJ_clean_linker_0, # of connection points: 2
#     Edge 63, Type (0, 1), BuildingBlock: MIFKUJ_clean_linker_0, # of connection points: 2
#     Edge 64, Type (0, 1), BuildingBlock: MIFKUJ_clean_linker_0, # of connection points: 2
#     Edge 65, Type (0, 1), BuildingBlock: MIFKUJ_clean_linker_0, # of connection points: 2
#     Edge 66, Type (0, 1), BuildingBlock: MIFKUJ_clean_linker_0, # of connection points: 2
#     Edge 67, Type (0, 1), BuildingBlock: MIFKUJ_clean_linker_0, # of connection points: 2
#     Edge 68, Type (0, 1), BuildingBlock: MIFKUJ_clean_linker_0, # of connection points: 2
#     Edge 69, Type (0, 1), BuildingBlock: MIFKUJ_clean_linker_0, # of connection points: 2
#     Edge 70, Type (0, 1), BuildingBlock: MIFKUJ_clean_linker_0, # of connection points: 2
#     Edge 71, Type (0, 1), BuildingBlock: MIFKUJ_clean_linker_0, # of connection points: 2
#     Edge 72, Type (0, 1), BuildingBlock: MIFKUJ_clean_linker_0, # of connection points: 2
#     Edge 73, Type (0, 1), BuildingBlock: MIFKUJ_clean_linker_0, # of connection points: 2
#     Edge 74, Type (0, 1), BuildingBlock: MIFKUJ_clean_linker_0, # of connection points: 2
#     Edge 75, Type (0, 1), BuildingBlock: MIFKUJ_clean_linker_0, # of connection points: 2
#     Edge 76, Type (0, 1), BuildingBlock: MIFKUJ_clean_linker_0, # of connection points: 2
#     Edge 77, Type (0, 1), BuildingBlock: MIFKUJ_clean_linker_0, # of connection points: 2
#     Edge 78, Type (0, 1), BuildingBlock: MIFKUJ_clean_linker_0, # of connection points: 2
#     Edge 79, Type (0, 1), BuildingBlock: MIFKUJ_clean_linker_0, # of connection points: 2
#     Edge 80, Type (0, 1), BuildingBlock: MIFKUJ_clean_linker_0, # of connection points: 2
#     Edge 81, Type (0, 1), BuildingBlock: MIFKUJ_clean_linker_0, # of connection points: 2
#     Edge 82, Type (0, 1), BuildingBlock: MIFKUJ_clean_linker_0, # of connection points: 2
#     Edge 83, Type (0, 1), BuildingBlock: MIFKUJ_clean_linker_0, # of connection points: 2
#     Edge 84, Type (0, 1), BuildingBlock: MIFKUJ_clean_linker_0, # of connection points: 2
#     Edge 85, Type (0, 1), BuildingBlock: MIFKUJ_clean_linker_0, # of connection points: 2
#     Edge 86, Type (0, 1), BuildingBlock: MIFKUJ_clean_linker_0, # of connection points: 2
#     Edge 87, Type (0, 1), BuildingBlock: MIFKUJ_clean_linker_0, # of connection points: 2
#     Edge 88, Type (0, 1), BuildingBlock: MIFKUJ_clean_linker_0, # of connection points: 2
#     Edge 89, Type (0, 1), BuildingBlock: MIFKUJ_clean_linker_0, # of connection points: 2
#     Edge 90, Type (0, 1), BuildingBlock: MIFKUJ_clean_linker_0, # of connection points: 2
#     Edge 91, Type (0, 1), BuildingBlock: MIFKUJ_clean_linker_0, # of connection points: 2
#     Edge 92, Type (0, 1), BuildingBlock: MIFKUJ_clean_linker_0, # of connection points: 2
#     Edge 93, Type (0, 1), BuildingBlock: MIFKUJ_clean_linker_0, # of connection points: 2
#     Edge 94, Type (0, 1), BuildingBlock: MIFKUJ_clean_linker_0, # of connection points: 2
#     Edge 95, Type (0, 1), BuildingBlock: MIFKUJ_clean_linker_0, # of connection points: 2
#     Edge 96, Type (0, 1), BuildingBlock: MIFKUJ_clean_linker_0, # of connection points: 2
#     Edge 97, Type (0, 1), BuildingBlock: MIFKUJ_clean_linker_0, # of connection points: 2
#     Edge 98, Type (0, 1), BuildingBlock: MIFKUJ_clean_linker_0, # of connection points: 2
#     Edge 99, Type (0, 1), BuildingBlock: MIFKUJ_clean_linker_0, # of connection points: 2
#     Edge 100, Type (0, 1), BuildingBlock: MIFKUJ_clean_linker_0, # of connection points: 2
#     Edge 101, Type (0, 1), BuildingBlock: MIFKUJ_clean_linker_0, # of connection points: 2
#     Edge 102, Type (0, 1), BuildingBlock: MIFKUJ_clean_linker_0, # of connection points: 2
#     Edge 103, Type (0, 1), BuildingBlock: MIFKUJ_clean_linker_0, # of connection points: 2
#     Edge 104, Type (0, 1), BuildingBlock: MIFKUJ_clean_linker_0, # of connection points: 2
#     Edge 105, Type (0, 1), BuildingBlock: MIFKUJ_clean_linker_0, # of connection points: 2
#     Edge 106, Type (0, 1), BuildingBlock: MIFKUJ_clean_linker_0, # of connection points: 2
#     Edge 107, Type (0, 1), BuildingBlock: MIFKUJ_clean_linker_0, # of connection points: 2
#     Edge 108, Type (0, 1), BuildingBlock: MIFKUJ_clean_linker_0, # of connection points: 2
#     Edge 109, Type (0, 1), BuildingBlock: MIFKUJ_clean_linker_0, # of connection points: 2
#     Edge 110, Type (0, 1), BuildingBlock: MIFKUJ_clean_linker_0, # of connection points: 2
#     Edge 111, Type (0, 1), BuildingBlock: MIFKUJ_clean_linker_0, # of connection points: 2
#     Edge 112, Type (0, 1), BuildingBlock: MIFKUJ_clean_linker_0, # of connection points: 2
#     Edge 113, Type (0, 1), BuildingBlock: MIFKUJ_clean_linker_0, # of connection points: 2
#     Edge 114, Type (0, 1), BuildingBlock: MIFKUJ_clean_linker_0, # of connection points: 2
#     Edge 115, Type (0, 1), BuildingBlock: MIFKUJ_clean_linker_0, # of connection points: 2
#     Edge 116, Type (0, 1), BuildingBlock: MIFKUJ_clean_linker_0, # of connection points: 2
#     Edge 117, Type (0, 1), BuildingBlock: MIFKUJ_clean_linker_0, # of connection points: 2
#     Edge 118, Type (0, 1), BuildingBlock: MIFKUJ_clean_linker_0, # of connection points: 2
#     Edge 119, Type (0, 1), BuildingBlock: MIFKUJ_clean_linker_0, # of connection points: 2
#     Edge 120, Type (0, 1), BuildingBlock: MIFKUJ_clean_linker_0, # of connection points: 2
#     Edge 121, Type (0, 1), BuildingBlock: MIFKUJ_clean_linker_0, # of connection points: 2
#     Edge 122, Type (0, 1), BuildingBlock: MIFKUJ_clean_linker_0, # of connection points: 2
#     Edge 123, Type (0, 1), BuildingBlock: MIFKUJ_clean_linker_0, # of connection points: 2
#     Edge 124, Type (0, 1), BuildingBlock: MIFKUJ_clean_linker_0, # of connection points: 2
#     Edge 125, Type (0, 1), BuildingBlock: MIFKUJ_clean_linker_0, # of connection points: 2
#     Edge 126, Type (0, 1), BuildingBlock: MIFKUJ_clean_linker_0, # of connection points: 2
#     Edge 127, Type (0, 1), BuildingBlock: MIFKUJ_clean_linker_0, # of connection points: 2
#     Edge 128, Type (0, 1), BuildingBlock: MIFKUJ_clean_linker_0, # of connection points: 2
#     Edge 129, Type (0, 1), BuildingBlock: MIFKUJ_clean_linker_0, # of connection points: 2
#     Edge 130, Type (0, 1), BuildingBlock: MIFKUJ_clean_linker_0, # of connection points: 2
#     Edge 131, Type (0, 1), BuildingBlock: MIFKUJ_clean_linker_0, # of connection points: 2
#     Edge 132, Type (0, 1), BuildingBlock: MIFKUJ_clean_linker_0, # of connection points: 2
#     Edge 133, Type (0, 1), BuildingBlock: MIFKUJ_clean_linker_0, # of connection points: 2
#     Edge 134, Type (0, 1), BuildingBlock: MIFKUJ_clean_linker_0, # of connection points: 2
#     Edge 135, Type (0, 1), BuildingBlock: MIFKUJ_clean_linker_0, # of connection points: 2
# Relax obj value: 0.243
# Max RMSD: 0.354
# Mean RMSD: 0.179
data_MOF--net-gar--node1-GALJAG_clean_sbu_0--node2-GEDQOX_clean_sbu_0--edge1-MIFKUJ_clean_linker_0
_symmetry_space_group_name_H-M    P1
_symmetry_Int_Tables_number       1
_symmetry_cell_setting            triclinic
loop_
_symmetry_equiv_pos_as_xyz
'x, y, z'
_cell_length_a     77.490124
_cell_length_b     74.983352
_cell_length_c     69.358041
_cell_angle_alpha  96.134763
_cell_angle_beta   96.368353
_cell_angle_gamma 99.39391
loop_
_atom_site_label
_atom_site_type_symbol
_atom_site_fract_x
_atom_site_fract_y
_atom_site_fract_z
_atom_type_partial_charge
In0 In 0.07011 0.34789 0.46706 0.0
O1 O 0.07162 0.34885 0.43561 0.0
O2 O 0.09479 0.34499 0.45395 0.0
C3 C 0.03527 0.34429 0.4566 0.0
C4 C 0.07122 0.31689 0.48186 0.0
C5 C 0.08226 0.38236 0.48199 0.0
O6 O 0.04517 0.33606 0.44723 0.0
O7 O 0.04287 0.35496 0.4714 0.0
O8 O 0.07669 0.37047 0.49251 0.0
O9 O 0.08375 0.37613 0.46488 0.0
C10 C 0.08733 0.34591 0.4369 0.0
O11 O 0.06925 0.33101 0.49242 0.0
O12 O 0.07488 0.31934 0.46509 0.0
In13 In 1.00548 0.77455 0.65376 0.0
O14 O 1.0141 0.78846 0.62887 0.0
O15 O 1.0085 0.80437 0.65429 0.0
C16 C 0.99822 0.74101 0.63831 0.0
C17 C 0.03628 0.77445 0.67357 0.0
C18 C 0.97613 0.77296 0.66783 0.0
O19 O 0.99802 0.75385 0.6279 0.0
O20 O 1.00121 0.74526 0.65656 0.0
O21 O 0.99079 0.77597 0.67861 0.0
O22 O 0.97635 0.7731 0.64966 0.0
C23 C 1.01406 0.80396 0.63787 0.0
O24 O 0.02388 0.77995 0.68146 0.0
O25 O 0.03306 0.76894 0.65552 0.0
In26 In 0.57083 0.84926 0.96609 0.0
O27 O 0.57658 0.85326 0.93591 0.0
O28 O 0.59574 0.84354 0.955 0.0
C29 C 0.53774 0.85335 0.95475 0.0
C30 C 0.56735 0.81555 0.97382 0.0
C31 C 0.58047 0.87944 0.99022 0.0
O32 O 0.55084 0.86117 0.94775 0.0
O33 O 0.54133 0.84358 0.96775 0.0
O34 O 0.57094 0.86573 0.99492 0.0
O35 O 0.58858 0.87607 0.9759 0.0
C36 C 0.59118 0.84786 0.93826 0.0
O37 O 0.5744 0.82868 0.98679 0.0
O38 O 0.56307 0.81957 0.95699 0.0
In39 In 0.50711 0.27444 0.15652 0.0
O40 O 0.50306 0.25535 0.12975 0.0
O41 O 0.50083 0.24455 0.15723 0.0
C42 C 0.51409 0.30562 0.14349 0.0
C43 C 0.47797 0.27647 0.17079 0.0
C44 C 0.5389 0.27271 0.17309 0.0
O45 O 0.50816 0.29125 0.13186 0.0
O46 O 0.51547 0.30413 0.16148 0.0
O47 O 0.52607 0.27298 0.18283 0.0
O48 O 0.5354 0.27269 0.1549 0.0
C49 C 0.50077 0.24166 0.13896 0.0
O50 O 0.49279 0.28104 0.18118 0.0
O51 O 0.47793 0.27145 0.15285 0.0
In52 In 0.02719 0.79014 0.21058 0.0
O53 O 0.01909 0.76956 0.18311 0.0
O54 O 0.02778 0.75925 0.20911 0.0
C55 C 0.03093 0.81927 0.19012 0.0
C56 C 0.99503 0.79016 0.22545 0.0
C57 C 0.06202 0.79479 0.22817 0.0
O58 O 0.03007 0.80311 0.18246 0.0
O59 O 0.02943 0.82085 0.20814 0.0
O60 O 0.04914 0.7945 0.23804 0.0
O61 O 0.05724 0.79251 0.20999 0.0
C62 C 0.02234 0.75588 0.19097 0.0
O63 O 1.00984 0.79479 0.23609 0.0
O64 O 0.99652 0.78546 0.20781 0.0
In65 In 0.54451 0.8269 0.39443 0.0
O66 O 0.56491 0.8289 0.37055 0.0
O67 O 0.57381 0.82232 0.39809 0.0
C68 C 0.50819 0.82257 0.38009 0.0
C69 C 0.54139 0.80023 0.41746 0.0
C70 C 0.54921 0.86127 0.41267 0.0
O71 O 0.51988 0.82071 0.36878 0.0
O72 O 0.51481 0.82592 0.3978 0.0
O73 O 0.55413 0.84839 0.42075 0.0
O74 O 0.54293 0.85717 0.39487 0.0
C75 C 0.5779 0.82539 0.38154 0.0
O76 O 0.54274 0.81684 0.42381 0.0
O77 O 0.54146 0.79672 0.39917 0.0
In78 In 0.52716 0.29097 0.71162 0.0
O79 O 0.51919 0.27113 0.68347 0.0
O80 O 0.5305 0.26097 0.70859 0.0
C81 C 0.52962 0.31959 0.69034 0.0
C82 C 0.49567 0.29023 0.72825 0.0
C83 C 0.56187 0.29486 0.72904 0.0
O84 O 0.52282 0.30356 0.68292 0.0
O85 O 0.53451 0.32128 0.70847 0.0
O86 O 0.54904 0.2945 0.73901 0.0
O87 O 0.55708 0.29292 0.71087 0.0
C88 C 0.52419 0.25774 0.69067 0.0
O89 O 0.5089 0.30286 0.73302 0.0
O90 O 0.49866 0.27768 0.71622 0.0
In91 In 0.04477 0.32682 0.89422 0.0
O92 O 0.05212 0.31808 0.92381 0.0
O93 O 0.03818 0.29732 0.90184 0.0
C94 C 0.04725 0.36045 0.91306 0.0
C95 C 0.07714 0.32684 0.87855 0.0
C96 C 1.00844 0.32369 0.88081 0.0
O97 O 0.05185 0.34743 0.92122 0.0
O98 O 0.04204 0.35686 0.89485 0.0
O99 O 0.01986 0.32203 0.86914 0.0
O100 O 1.0153 0.32651 0.89845 0.0
C101 C 0.04521 0.30159 0.91941 0.0
O102 O 0.06308 0.31578 0.87144 0.0
O103 O 0.07439 0.33831 0.89197 0.0
In104 In 0.43046 0.11417 0.29287 0.0
O105 O 0.45376 0.10865 0.27602 0.0
O106 O 0.43311 0.11866 0.26079 0.0
C107 C 0.44563 0.11147 0.33049 0.0
C108 C 0.40837 0.13911 0.28908 0.0
C109 C 0.41078 0.08096 0.28543 0.0
O110 O 0.45219 0.12372 0.32074 0.0
O111 O 0.43138 0.10211 0.32192 0.0
O112 O 0.40475 0.0949 0.29132 0.0
O113 O 0.4269 0.08371 0.28324 0.0
C114 C 0.44714 0.11246 0.25984 0.0
O115 O 0.40395 0.12217 0.28442 0.0
O116 O 0.42435 0.14408 0.29683 0.0
In117 In 0.26521 0.15189 0.49422 0.0
O118 O 0.26942 0.17803 0.51445 0.0
O119 O 0.27296 0.15375 0.52684 0.0
C120 C 0.26372 0.17063 0.46423 0.0
C121 C 0.2941 0.13704 0.49529 0.0
C122 C 0.23228 0.13601 0.49554 0.0
O123 O 0.26764 0.17794 0.48168 0.0
O124 O 0.26031 0.15342 0.46168 0.0
O125 O 0.24169 0.12901 0.48414 0.0
O126 O 0.23941 0.15084 0.50557 0.0
C127 C 0.27331 0.17074 0.52955 0.0
O128 O 0.27928 0.12788 0.49699 0.0
O129 O 0.29382 0.15298 0.49129 0.0
In130 In 0.16937 0.04632 0.82092 0.0
O131 O 0.14315 0.03646 0.79847 0.0
O132 O 0.16484 0.05144 0.78825 0.0
C133 C 0.15059 0.04621 0.85423 0.0
C134 C 0.18599 0.01468 0.81792 0.0
C135 C 0.18962 0.08236 0.8239 0.0
O136 O 0.14659 0.0536 0.8392 0.0
O137 O 0.16374 0.03839 0.85251 0.0
O138 O 0.19434 0.0682 0.81606 0.0
O139 O 0.17546 0.07834 0.8311 0.0
C140 C 0.14911 0.0432 0.78404 0.0
O141 O 0.19186 0.02891 0.83002 0.0
O142 O 0.17198 0.01634 0.80758 0.0
In143 In 0.23038 0.91511 0.06254 0.0
O144 O 0.22912 0.89022 0.08021 0.0
O145 O 0.23573 0.91675 0.09584 0.0
C146 C 0.23357 0.89938 0.02533 0.0
C147 C 0.20372 0.93505 0.06299 0.0
C148 C 0.26245 0.93546 0.07035 0.0
O149 O 0.22318 0.89137 0.03588 0.0
O150 O 0.24116 0.91495 0.03315 0.0
O151 O 0.24859 0.94228 0.06874 0.0
O152 O 0.26006 0.91826 0.06864 0.0
C153 C 0.23363 0.89987 0.09672 0.0
O154 O 0.21818 0.94017 0.05693 0.0
O155 O 0.20186 0.91902 0.06755 0.0
In156 In 0.30496 0.46769 0.11282 0.0
O157 O 0.3075 0.4412 0.12358 0.0
O158 O 0.29934 0.46119 0.14323 0.0
C159 C 0.30181 0.45438 0.07563 0.0
C160 C 0.27313 0.47662 0.10761 0.0
C161 C 0.33807 0.48532 0.11425 0.0
O162 O 0.30016 0.44442 0.08907 0.0
O163 O 0.30554 0.47131 0.08083 0.0
O164 O 0.32516 0.49371 0.11313 0.0
O165 O 0.3343 0.46895 0.11723 0.0
C166 C 0.3021 0.445 0.13973 0.0
O167 O 0.28578 0.48775 0.11789 0.0
O168 O 0.27655 0.46133 0.10168 0.0
In169 In 0.84006 0.20269 0.05064 0.0
O170 O 0.8532 0.17723 0.04627 0.0
O171 O 0.87019 0.20242 0.05569 0.0
C172 C 0.80662 0.1837 0.04253 0.0
C173 C 0.83886 0.22061 0.08706 0.0
C174 C 0.83809 0.22021 0.01824 0.0
O175 O 0.81921 0.17667 0.0499 0.0
O176 O 0.81102 0.19997 0.03943 0.0
O177 O 0.83726 0.2278 0.03515 0.0
O178 O 0.84096 0.20411 0.0177 0.0
C179 C 0.86892 0.18549 0.0508 0.0
O180 O 0.84975 0.22656 0.07598 0.0
O181 O 0.82938 0.20548 0.08026 0.0
In182 In 0.13607 0.50048 0.30574 0.0
O183 O 0.16006 0.48614 0.30537 0.0
O184 O 0.13517 0.46926 0.30385 0.0
C185 C 0.15477 0.53479 0.31256 0.0
C186 C 0.11732 0.50157 0.27015 0.0
C187 C 0.12221 0.50365 0.33983 0.0
O188 O 0.16205 0.52089 0.31278 0.0
O189 O 0.13821 0.53133 0.30817 0.0
O190 O 0.11306 0.49598 0.32405 0.0
O191 O 0.13829 0.50859 0.33857 0.0
C192 C 0.15163 0.47018 0.30458 0.0
O193 O 0.1101 0.49669 0.28463 0.0
O194 O 0.13396 0.50513 0.27335 0.0
In195 In 0.80386 0.96708 0.61428 0.0
O196 O 0.80987 0.94408 0.63048 0.0
O197 O 0.79746 0.96395 0.64529 0.0
C198 C 0.79847 0.94864 0.5787 0.0
C199 C 0.77258 0.97766 0.60984 0.0
C200 C 0.8367 0.9853 0.61391 0.0
O201 O 0.79678 0.94104 0.59387 0.0
O202 O 0.80341 0.96562 0.58146 0.0
O203 O 0.82344 0.99315 0.61237 0.0
O204 O 0.83347 0.96917 0.61782 0.0
C205 C 0.80271 0.9488 0.64518 0.0
O206 O 0.78677 0.98923 0.61396 0.0
O207 O 0.7743 0.96122 0.60916 0.0
In208 In 0.90274 0.0789 0.29095 0.0
O209 O 0.92986 0.08325 0.27829 0.0
O210 O 0.90724 0.07907 0.25751 0.0
C211 C 0.92423 0.07907 0.32564 0.0
C212 C 0.88817 0.11241 0.2927 0.0
C213 C 0.88377 0.042 0.29054 0.0
O214 O 0.92791 0.0734 0.30908 0.0
O215 O 0.90995 0.08518 0.32483 0.0
O216 O 0.88356 0.05525 0.3034 0.0
O217 O 0.89213 0.0475 0.27699 0.0
C218 C 0.92399 0.08188 0.26035 0.0
O219 O 0.87917 0.09667 0.28654 0.0
O220 O 0.90409 0.11125 0.29771 0.0
In221 In 0.34086 0.70268 0.55148 0.0
O222 O 0.35675 0.68053 0.56065 0.0
O223 O 0.36909 0.70031 0.54468 0.0
C224 C 0.30734 0.68387 0.54262 0.0
C225 C 0.34106 0.72139 0.58771 0.0
C226 C 0.33648 0.72044 0.51973 0.0
O227 O 0.32043 0.67661 0.53885 0.0
O228 O 0.31136 0.69989 0.55122 0.0
O229 O 0.33848 0.72843 0.53702 0.0
O230 O 0.33798 0.70388 0.51845 0.0
C231 C 0.3702 0.68617 0.55276 0.0
O232 O 0.34992 0.72806 0.57506 0.0
O233 O 0.3333 0.70516 0.58253 0.0
In234 In 0.40329 0.57925 0.79093 0.0
O235 O 0.38372 0.59931 0.77924 0.0
O236 O 0.39882 0.60831 0.80618 0.0
C237 C 0.38604 0.54172 0.79095 0.0
C238 C 0.42479 0.58243 0.76055 0.0
C239 C 0.42393 0.58044 0.82613 0.0
O240 O 0.37807 0.554 0.78484 0.0
O241 O 0.40206 0.5482 0.79648 0.0
O242 O 0.42989 0.57981 0.80985 0.0
O243 O 0.40764 0.58131 0.82483 0.0
C244 C 0.38779 0.61226 0.79321 0.0
O245 O 0.42969 0.58911 0.77814 0.0
O246 O 0.40893 0.57422 0.75793 0.0
In247 In 0.63621 1.00163 0.80599 0.0
O248 O 0.66073 0.98832 0.80697 0.0
O249 O 0.63597 0.97058 0.8018 0.0
C250 C 0.65494 0.03598 0.81329 0.0
C251 C 0.61768 1.00206 0.77051 0.0
C252 C 0.61913 1.00332 0.83787 0.0
O253 O 0.66043 0.02265 0.8199 0.0
O254 O 0.6404 0.0319 0.80238 0.0
O255 O 0.61112 0.99864 0.82082 0.0
O256 O 0.63565 1.00587 0.83891 0.0
C257 C 0.65256 0.97216 0.8043 0.0
O258 O 0.61061 1.00068 0.78595 0.0
O259 O 0.63421 1.00251 0.77273 0.0
In260 In 0.76541 0.65153 0.99416 0.0
O261 O 0.77671 0.62669 1.0006 0.0
O262 O 0.79338 0.64884 0.99135 0.0
C263 C 0.73215 0.63592 0.9937 0.0
C264 C 0.77621 0.6703 0.02932 0.0
C265 C 0.76385 0.66883 0.96303 0.0
O266 O 0.74265 0.62802 0.98463 0.0
O267 O 0.73833 0.6518 1.00206 0.0
O268 O 0.76125 0.67582 0.97958 0.0
O269 O 0.76687 0.65273 0.96203 0.0
C270 C 0.79206 0.63372 0.99792 0.0
O271 O 0.78029 0.67656 0.01393 0.0
O272 O 0.76638 0.6549 0.02684 0.0
In273 In 0.93055 0.61421 0.79198 0.0
O274 O 0.90361 0.62217 0.78484 0.0
O275 O 0.92486 0.64429 0.79186 0.0
C276 C 0.91132 0.58099 0.78981 0.0
C277 C 0.94441 0.61085 0.75727 0.0
C278 C 0.94831 0.6126 0.82883 0.0
O279 O 0.90497 0.59534 0.79269 0.0
O280 O 0.92759 0.58335 0.78833 0.0
O281 O 0.95552 0.61166 0.81338 0.0
O282 O 0.933 0.6163 0.82603 0.0
C283 C 0.90836 0.63917 0.78677 0.0
O284 O 0.95139 0.62326 0.77113 0.0
O285 O 0.93081 0.60092 0.761 0.0
In286 In 0.73008 0.41547 0.56258 0.0
O287 O 0.73148 0.39037 0.57956 0.0
O288 O 0.73137 0.41571 0.59593 0.0
C289 C 0.73294 0.40103 0.52467 0.0
C290 C 0.70392 0.43608 0.56375 0.0
C291 C 0.76276 0.43471 0.57044 0.0
O292 O 0.72288 0.39252 0.53519 0.0
O293 O 0.74015 0.4167 0.53271 0.0
O294 O 0.74926 0.44211 0.56935 0.0
O295 O 0.75976 0.41751 0.56791 0.0
C296 C 0.73263 0.39925 0.59635 0.0
O297 O 0.72001 0.44232 0.56386 0.0
O298 O 0.70036 0.4188 0.56181 0.0
In299 In 0.66944 0.54599 0.32065 0.0
O300 O 0.69423 0.53042 0.32596 0.0
O301 O 0.67011 0.51412 0.31463 0.0
C302 C 0.68785 0.58267 0.32186 0.0
C303 C 0.6491 0.54349 0.28377 0.0
C304 C 0.65222 0.54617 0.35496 0.0
O305 O 0.69269 0.56872 0.31368 0.0
O306 O 0.6741 0.57827 0.32977 0.0
O307 O 0.64534 0.53751 0.33849 0.0
O308 O 0.66778 0.55431 0.35438 0.0
C309 C 0.6863 0.51433 0.31968 0.0
O310 O 0.64247 0.54338 0.29962 0.0
O311 O 0.66565 0.54505 0.28651 0.0
Nd312 Nd 0.05991 0.0913 0.06935 0.0
Nd313 Nd 0.03635 0.05392 0.06411 0.0
C314 C 0.07298 0.126 0.08139 0.0
C315 C 0.06956 0.14283 0.07318 0.0
C316 C 0.05442 0.15023 0.07661 0.0
C317 C 0.05043 0.16513 0.06753 0.0
C318 C 0.06165 0.17316 0.05509 0.0
C319 C 0.07696 0.16605 0.05196 0.0
C320 C 0.08086 0.15104 0.06087 0.0
C321 C 0.06221 0.07671 0.03111 0.0
C322 C 0.01739 0.088 0.05366 0.0
C323 C 0.02397 0.01891 0.05392 0.0
C324 C 0.02653 1.00301 0.06426 0.0
C325 C 0.03395 0.98909 0.05512 0.0
C326 C 0.03787 0.97468 0.06505 0.0
C327 C 0.0347 0.97377 0.08458 0.0
C328 C 0.02699 0.98773 0.09364 0.0
C329 C 0.02305 1.00219 0.08367 0.0
C330 C 0.03361 0.06971 0.10187 0.0
C331 C 0.07826 0.0571 0.08149 0.0
O332 O 0.05995 0.11684 0.08866 0.0
O333 O 0.08139 0.11533 0.07126 0.0
O334 O 0.06846 0.09321 0.03903 0.0
O335 O 0.05292 0.06844 0.04287 0.0
O336 O 0.03283 0.09838 0.06003 0.0
O337 O 1.01553 0.06997 0.05125 0.0
O338 O 0.03808 0.02732 0.0478 0.0
O339 O 1.0145 0.03018 0.06139 0.0
O340 O 0.02615 0.05348 0.09412 0.0
O341 O 0.043 0.07684 0.08968 0.0
O342 O 0.06259 0.04686 0.07661 0.0
O343 O 0.08081 0.07495 0.08118 0.0
H344 H 0.04543 0.14433 0.08606 0.0
H345 H 0.0386 0.1704 0.07025 0.0
H346 H 0.08572 0.17186 0.04223 0.0
H347 H 0.09257 0.14567 0.05783 0.0
H348 H 0.03697 0.98946 0.04027 0.0
H349 H 0.04347 0.96436 0.05723 0.0
H350 H 0.02374 0.98749 0.10839 0.0
H351 H 0.01743 0.01279 0.09125 0.0
Nd352 Nd 0.28417 0.83481 0.32566 0.0
Nd353 Nd 0.28002 0.79463 0.30274 0.0
C354 C 0.2786 0.86791 0.33654 0.0
C355 C 0.28668 0.88581 0.33149 0.0
C356 C 0.27988 0.89233 0.31444 0.0
C357 C 0.28889 0.90788 0.30814 0.0
C358 C 0.30485 0.91722 0.31876 0.0
C359 C 0.31122 0.91125 0.33627 0.0
C360 C 0.3022 0.89575 0.34261 0.0
C361 C 0.3182 0.82607 0.32511 0.0
C362 C 0.28393 0.82849 0.2772 0.0
C363 C 0.28256 0.76016 0.2943 0.0
C364 C 0.27262 0.74349 0.30064 0.0
C365 C 0.27995 0.73562 0.31644 0.0
C366 C 0.27042 0.72043 0.32307 0.0
C367 C 0.25331 0.71259 0.31399 0.0
C368 C 0.24591 0.72059 0.2983 0.0
C369 C 0.25541 0.73582 0.29174 0.0
C370 C 0.24648 0.80416 0.30407 0.0
C371 C 0.27972 0.80116 0.35081 0.0
O372 O 0.26869 0.85682 0.32223 0.0
O373 O 0.28878 0.85957 0.34748 0.0
O374 O 0.31466 0.84134 0.33287 0.0
O375 O 0.30355 0.81613 0.31724 0.0
O376 O 0.28303 0.83924 0.29335 0.0
O377 O 0.28557 0.81113 0.27724 0.0
O378 O 0.29331 0.77122 0.30797 0.0
O379 O 0.27387 0.76889 0.28222 0.0
O380 O 0.24941 0.78893 0.29561 0.0
O381 O 0.2614 0.81313 0.31185 0.0
O382 O 0.28111 0.79062 0.33483 0.0
O383 O 0.27796 0.81838 0.3509 0.0
H384 H 0.2679 0.88507 0.30557 0.0
H385 H 0.28371 0.91221 0.29458 0.0
H386 H 0.32332 0.91846 0.34494 0.0
H387 H 0.30769 0.89123 0.35591 0.0
H388 H 0.29307 0.74129 0.32382 0.0
H389 H 0.27647 0.7149 0.33538 0.0
H390 H 0.23289 0.71486 0.29073 0.0
H391 H 0.24922 0.74156 0.27966 0.0
Nd392 Nd 0.54071 0.05783 0.55158 0.0
Nd393 Nd 0.50634 0.04553 0.55541 0.0
C394 C 0.5724 0.06163 0.54055 0.0
C395 C 0.58549 0.04936 0.54113 0.0
C396 C 0.59019 0.04149 0.52362 0.0
C397 C 0.60229 0.02956 0.52398 0.0
C398 C 0.60995 0.02533 0.54188 0.0
C399 C 0.60483 0.03281 0.55936 0.0
C400 C 0.5927 0.04464 0.559 0.0
C401 C 0.53783 0.04734 0.58858 0.0
C402 C 0.5246 0.01449 0.53877 0.0
C403 C 0.47546 0.03966 0.56816 0.0
C404 C 0.46235 0.05132 0.57151 0.0
C405 C 0.4594 0.05678 0.59072 0.0
C406 C 0.44718 0.06812 0.5941 0.0
C407 C 0.43785 0.07398 0.57827 0.0
C408 C 0.4411 0.06899 0.55915 0.0
C409 C 0.45329 0.05775 0.55576 0.0
C410 C 0.50859 0.0551 0.51792 0.0
C411 C 0.52258 0.08876 0.56951 0.0
O412 O 0.55803 0.05583 0.52829 0.0
O413 O 0.56927 0.06918 0.55736 0.0
O414 O 0.54742 0.06213 0.58514 0.0
O415 O 0.53019 0.03838 0.5726 0.0
O416 O 0.53616 0.02849 0.53581 0.0
O417 O 0.5119 0.01698 0.54909 0.0
O418 O 0.49032 0.04419 0.57983 0.0
O419 O 0.47765 0.03506 0.55 0.0
O420 O 0.49963 0.04015 0.52199 0.0
O421 O 0.5167 0.06463 0.53359 0.0
O422 O 0.51051 0.07481 0.57144 0.0
O423 O 0.53553 0.08647 0.55938 0.0
H424 H 0.58454 0.04462 0.50966 0.0
H425 H 0.60582 0.02381 0.51027 0.0
H426 H 0.61066 0.03005 0.57341 0.0
H427 H 0.58913 0.05019 0.57277 0.0
H428 H 0.46643 0.05214 0.60307 0.0
H429 H 0.4446 0.07181 0.6089 0.0
H430 H 0.43382 0.07342 0.54681 0.0
H431 H 0.45544 0.054 0.54081 0.0
Nd432 Nd 0.29819 0.31295 0.82501 0.0
Nd433 Nd 0.28148 0.30756 0.79325 0.0
C434 C 0.30946 0.31357 0.86238 0.0
C435 C 0.30263 0.31862 0.88058 0.0
C436 C 0.29507 0.30501 0.89111 0.0
C437 C 0.28878 0.30981 0.90863 0.0
C438 C 0.29006 0.32821 0.91555 0.0
C439 C 0.29709 0.3418 0.90484 0.0
C440 C 0.30341 0.33706 0.88748 0.0
C441 C 0.30843 0.34582 0.80913 0.0
C442 C 0.25624 0.31881 0.82328 0.0
C443 C 0.27156 0.30418 0.75532 0.0
C444 C 0.27931 0.29515 0.73937 0.0
C445 C 0.29324 0.30481 0.7312 0.0
C446 C 0.30143 0.29589 0.71713 0.0
C447 C 0.29585 0.2772 0.71109 0.0
C448 C 0.28216 0.26748 0.71943 0.0
C449 C 0.27389 0.27638 0.73337 0.0
C450 C 0.27313 0.27495 0.81008 0.0
C451 C 0.32268 0.3005 0.79472 0.0
O452 O 0.30067 0.29902 0.85147 0.0
O453 O 0.31435 0.32675 0.8523 0.0
O454 O 0.31887 0.33607 0.81709 0.0
O455 O 0.29243 0.33724 0.80819 0.0
O456 O 0.27036 0.3168 0.83489 0.0
O457 O 0.25757 0.31787 0.80457 0.0
O458 O 0.28124 0.31893 0.76505 0.0
O459 O 0.26397 0.29355 0.76674 0.0
O460 O 0.26186 0.28454 0.80356 0.0
O461 O 0.28866 0.28365 0.80924 0.0
O462 O 0.30846 0.30197 0.78314 0.0
O463 O 0.32206 0.30296 0.81351 0.0
H464 H 0.29428 0.2907 0.88595 0.0
H465 H 0.28346 0.29931 0.91701 0.0
H466 H 0.29825 0.3561 0.9103 0.0
H467 H 0.30912 0.34787 0.87969 0.0
H468 H 0.29783 0.31925 0.73569 0.0
H469 H 0.31191 0.30361 0.71072 0.0
H470 H 0.27739 0.25311 0.71463 0.0
H471 H 0.26325 0.26854 0.73944 0.0
Nd472 Nd 0.03472 0.07178 0.55991 0.0
Nd473 Nd 0.04013 0.03401 0.54224 0.0
C474 C 0.02469 0.10316 0.56724 0.0
C475 C 0.02278 0.11689 0.55387 0.0
C476 C 1.0059 0.11973 0.54683 0.0
C477 C 1.00388 0.13214 0.53353 0.0
C478 C 0.01872 0.14193 0.52711 0.0
C479 C 0.03558 0.13864 0.53358 0.0
C480 C 0.03761 0.12623 0.54685 0.0
C481 C 0.06704 0.06985 0.54885 0.0
C482 C 0.02135 0.05782 0.51207 0.0
C483 C 0.05578 1.00775 0.5294 0.0
C484 C 0.05772 0.99144 0.53859 0.0
C485 C 0.07461 0.98924 0.54642 0.0
C486 C 0.0765 0.9768 0.55968 0.0
C487 C 0.06151 0.96642 0.5651 0.0
C488 C 0.04465 0.96795 0.55654 0.0
C489 C 0.04275 0.98038 0.54338 0.0
C490 C 1.00858 0.02948 0.55749 0.0
C491 C 0.05151 0.04743 0.59028 0.0
O492 O 1.01337 0.08784 0.56308 0.0
O493 O 0.0408 0.10074 0.57244 0.0
O494 O 0.06484 0.0792 0.5649 0.0
O495 O 0.05253 0.06238 0.53911 0.0
O496 O 0.02218 0.07037 0.52736 0.0
O497 O 0.02814 0.04292 0.51377 0.0
O498 O 0.06447 0.02287 0.53972 0.0
O499 O 0.0397 1.00898 0.52213 0.0
O500 O 1.01497 0.01601 0.54944 0.0
O501 O 0.01907 0.04416 0.55775 0.0
O502 O 0.05413 0.03701 0.57449 0.0
O503 O 0.04181 0.06036 0.58883 0.0
H504 H 0.99427 0.1124 0.5517 0.0
H505 H 0.99075 0.13445 0.52862 0.0
H506 H 0.04726 0.14623 0.52906 0.0
H507 H 0.05082 0.12413 0.55169 0.0
H508 H 0.08628 0.99787 0.54315 0.0
H509 H 0.08961 0.97563 0.56609 0.0
H510 H 0.03293 0.95964 0.56014 0.0
H511 H 0.02952 0.98188 0.53775 0.0
Nd512 Nd 0.3108 0.83007 0.81302 0.0
Nd513 Nd 0.28052 0.80885 0.7989 0.0
C514 C 0.34015 0.85395 0.81664 0.0
C515 C 0.35799 0.85153 0.81409 0.0
C516 C 0.36074 0.83514 0.80406 0.0
C517 C 0.37725 0.83002 0.80673 0.0
C518 C 0.39106 0.84144 0.81912 0.0
C519 C 0.3886 0.85851 0.82775 0.0
C520 C 0.37207 0.86348 0.82538 0.0
C521 C 0.29167 0.8259 0.84421 0.0
C522 C 0.31329 0.78634 0.80951 0.0
C523 C 0.24946 0.7887 0.79295 0.0
C524 C 0.23445 0.7967 0.78583 0.0
C525 C 0.21919 0.79497 0.795 0.0
C526 C 0.20547 0.80372 0.78861 0.0
C527 C 0.20711 0.81435 0.77317 0.0
C528 C 0.22309 0.81759 0.76552 0.0
C529 C 0.23652 0.8086 0.77155 0.0
C530 C 0.29901 0.81449 0.7676 0.0
C531 C 0.27736 0.85197 0.80091 0.0
O532 O 0.3287 0.8508 0.80079 0.0
O533 O 0.33428 0.84634 0.83129 0.0
O534 O 0.30815 0.8243 0.84463 0.0
O535 O 0.28559 0.82837 0.82717 0.0
O536 O 0.3229 0.80298 0.81265 0.0
O537 O 0.29595 0.78509 0.80591 0.0
O538 O 0.25685 0.79557 0.8106 0.0
O539 O 0.26084 0.78721 0.7806 0.0
O540 O 0.28283 0.81685 0.76815 0.0
O541 O 0.30545 0.81112 0.78419 0.0
O542 O 0.26839 0.83532 0.79548 0.0
O543 O 0.29429 0.85355 0.80769 0.0
H544 H 0.34981 0.82565 0.79556 0.0
H545 H 0.3789 0.8167 0.80028 0.0
H546 H 0.39905 0.86725 0.83775 0.0
H547 H 0.36997 0.87589 0.8336 0.0
H548 H 0.21774 0.78655 0.80668 0.0
H549 H 0.19315 0.80106 0.79469 0.0
H550 H 0.22461 0.82585 0.7537 0.0
H551 H 0.24845 0.81083 0.76472 0.0
Nd552 Nd 0.50388 0.06179 0.02686 0.0
Nd553 Nd 0.54446 0.0706 0.04711 0.0
C554 C 0.47085 0.05861 0.01085 0.0
C555 C 0.4541 0.05113 0.01761 0.0
C556 C 0.44718 0.06113 0.03233 0.0
C557 C 0.43241 0.05318 0.04016 0.0
C558 C 0.42437 0.0351 0.03347 0.0
C559 C 0.43099 0.02526 0.01846 0.0
C560 C 0.44566 0.03323 0.01052 0.0
C561 C 0.51491 0.03281 0.04163 0.0
C562 C 0.51305 0.07391 0.0751 0.0
C563 C 0.57871 0.07502 0.0591 0.0
C564 C 0.59495 0.08346 0.05155 0.0
C565 C 0.60469 0.07239 0.04114 0.0
C566 C 0.62029 0.07997 0.03445 0.0
C567 C 0.62666 0.09884 0.03809 0.0
C568 C 0.61665 0.11002 0.04797 0.0
C569 C 0.60101 0.10243 0.05468 0.0
C570 C 0.53301 0.09821 0.02856 0.0
C571 C 0.53568 0.05546 1.00086 0.0
O572 O 0.47971 0.07381 0.02061 0.0
O573 O 0.48094 0.04677 0.00645 0.0
O574 O 0.50221 0.03152 0.02752 0.0
O575 O 0.52053 0.04925 0.04861 0.0
O576 O 0.50155 0.07268 0.05909 0.0
O577 O 0.52958 0.07128 0.07439 0.0
O578 O 0.56972 0.06015 0.0488 0.0
O579 O 0.56854 0.08587 0.06593 0.0
O580 O 0.54509 0.10084 0.04349 0.0
O581 O 0.52811 0.08147 0.02401 0.0
O582 O 0.54559 0.05474 0.01741 0.0
O583 O 0.52 0.06047 1.00064 0.0
H584 H 0.45339 0.07495 0.03815 0.0
H585 H 0.42752 0.06101 0.05175 0.0
H586 H 0.42478 0.01138 0.01283 0.0
H587 H 0.45063 0.02523 0.99913 0.0
H588 H 0.60036 0.05776 0.03833 0.0
H589 H 0.62752 0.07099 0.02664 0.0
H590 H 0.62125 0.12459 0.05117 0.0
H591 H 0.59383 0.11141 0.06257 0.0
Nd592 Nd 0.24469 0.27604 0.26668 0.0
Nd593 Nd 0.27674 0.29982 0.28962 0.0
C594 C 0.21247 0.26518 0.24836 0.0
C595 C 0.19601 0.26926 0.25571 0.0
C596 C 0.19034 0.28585 0.25304 0.0
C597 C 0.17773 0.29182 0.26393 0.0
C598 C 0.17052 0.28128 0.27754 0.0
C599 C 0.17509 0.26415 0.27923 0.0
C600 C 0.18763 0.25811 0.26831 0.0
C601 C 0.25284 0.26609 0.30235 0.0
C602 C 0.24239 0.31604 0.29284 0.0
C603 C 0.30848 0.31229 0.30837 0.0
C604 C 0.32525 0.30769 0.30284 0.0
C605 C 0.33169 0.29274 0.30976 0.0
C606 C 0.34482 0.2855 0.30102 0.0
C607 C 0.35196 0.29338 0.28562 0.0
C608 C 0.34654 0.30903 0.27956 0.0
C609 C 0.33327 0.31616 0.2881 0.0
C610 C 0.268 0.30852 0.2531 0.0
C611 C 0.28038 0.25946 0.26694 0.0
O612 O 0.22324 0.27895 0.24368 0.0
O613 O 0.22088 0.25463 0.25825 0.0
O614 O 0.24601 0.25487 0.28695 0.0
O615 O 0.25373 0.28256 0.29937 0.0
O616 O 0.23577 0.30315 0.27806 0.0
O617 O 0.25784 0.31612 0.30287 0.0
O618 O 0.29767 0.29908 0.31395 0.0
O619 O 0.30034 0.32154 0.29649 0.0
O620 O 0.27313 0.32033 0.26847 0.0
O621 O 0.26796 0.29241 0.25678 0.0
O622 O 0.28619 0.27323 0.28081 0.0
O623 O 0.26482 0.25828 0.25618 0.0
H624 H 0.19648 0.29481 0.24353 0.0
H625 H 0.17443 0.30517 0.2626 0.0
H626 H 0.16968 0.25589 0.28979 0.0
H627 H 0.19157 0.24523 0.27073 0.0
H628 H 0.32582 0.28593 0.32108 0.0
H629 H 0.34901 0.27341 0.30583 0.0
H630 H 0.35199 0.31522 0.26762 0.0
H631 H 0.32868 0.32769 0.28241 0.0
Nd632 Nd 0.53375 0.57125 0.06001 0.0
Nd633 Nd 0.54149 0.53441 0.04228 0.0
C634 C 0.52233 0.60177 0.06717 0.0
C635 C 0.52188 0.61587 0.0541 0.0
C636 C 0.50567 0.62039 0.04728 0.0
C637 C 0.50494 0.63317 0.03421 0.0
C638 C 0.52046 0.64175 0.02796 0.0
C639 C 0.53657 0.63649 0.03387 0.0
C640 C 0.53728 0.62359 0.04681 0.0
C641 C 0.56649 0.57172 0.04877 0.0
C642 C 0.52103 0.55676 0.01208 0.0
C643 C 0.55837 0.50881 0.03078 0.0
C644 C 0.55923 0.49222 0.03972 0.0
C645 C 0.5757 0.48813 0.0464 0.0
C646 C 0.57669 0.47417 0.05798 0.0
C647 C 0.56119 0.46423 0.06281 0.0
C648 C 0.54476 0.46847 0.05637 0.0
C649 C 0.54377 0.48235 0.04489 0.0
C650 C 0.50978 0.52831 0.05764 0.0
C651 C 0.55203 0.54816 0.09015 0.0
O652 O 0.51154 0.58639 0.06104 0.0
O653 O 0.53801 0.59957 0.07453 0.0
O654 O 0.56368 0.58089 0.06463 0.0
O655 O 0.55228 0.56326 0.03915 0.0
O656 O 0.52015 0.56843 0.02764 0.0
O657 O 0.52992 0.54323 0.01351 0.0
O658 O 0.5663 0.52366 0.04212 0.0
O659 O 0.54286 0.51016 0.02187 0.0
O660 O 0.51666 0.5153 0.04943 0.0
O661 O 0.51991 0.54311 0.05775 0.0
O662 O 0.55643 0.53949 0.07419 0.0
O663 O 0.54015 0.559 0.08867 0.0
H664 H 0.49359 0.61411 0.05216 0.0
H665 H 0.49233 0.63681 0.02946 0.0
H666 H 0.54872 0.64296 0.02926 0.0
H667 H 0.54993 0.61987 0.05126 0.0
H668 H 0.58776 0.49602 0.04306 0.0
H669 H 0.58945 0.47092 0.06287 0.0
H670 H 0.53269 0.461 0.06021 0.0
H671 H 0.53091 0.48557 0.04046 0.0
Nd672 Nd 0.80804 0.32925 0.311 0.0
Nd673 Nd 0.77823 0.30731 0.29814 0.0
C674 C 0.83765 0.35286 0.31647 0.0
C675 C 0.85597 0.35003 0.31867 0.0
C676 C 0.86415 0.34445 0.30246 0.0
C677 C 0.88096 0.33993 0.30532 0.0
C678 C 0.88937 0.34071 0.32436 0.0
C679 C 0.8812 0.34615 0.34045 0.0
C680 C 0.86478 0.35105 0.33764 0.0
C681 C 0.78956 0.32522 0.34287 0.0
C682 C 0.81183 0.286 0.30884 0.0
C683 C 0.74827 0.2844 0.29189 0.0
C684 C 0.73091 0.28932 0.2884 0.0
C685 C 0.72758 0.30546 0.29853 0.0
C686 C 0.7141 0.3139 0.2909 0.0
C687 C 0.70411 0.30639 0.27301 0.0
C688 C 0.70666 0.28966 0.2636 0.0
C689 C 0.71995 0.28113 0.27131 0.0
C690 C 0.79639 0.31268 0.26648 0.0
C691 C 0.77444 0.35021 0.29891 0.0
O692 O 0.82842 0.34792 0.29921 0.0
O693 O 0.82894 0.34794 0.33064 0.0
O694 O 0.80587 0.32323 0.34265 0.0
O695 O 0.78303 0.32747 0.32591 0.0
O696 O 0.82107 0.30271 0.31015 0.0
O697 O 0.79444 0.28454 0.30681 0.0
O698 O 0.75694 0.2894 0.30943 0.0
O699 O 0.75784 0.2882 0.27806 0.0
O700 O 0.78028 0.31518 0.26716 0.0
O701 O 0.80294 0.30946 0.28303 0.0
O702 O 0.76523 0.33358 0.29794 0.0
O703 O 0.79185 0.35182 0.3015 0.0
H704 H 0.85756 0.34344 0.28767 0.0
H705 H 0.88738 0.33598 0.29284 0.0
H706 H 0.88778 0.34702 0.35525 0.0
H707 H 0.85882 0.35528 0.35039 0.0
H708 H 0.73614 0.31223 0.31156 0.0
H709 H 0.71202 0.32665 0.29842 0.0
H710 H 0.69867 0.28346 0.24998 0.0
H711 H 0.72259 0.26894 0.26312 0.0
Nd712 Nd 1.00387 0.56153 0.5275 0.0
Nd713 Nd 0.0447 0.57296 0.54627 0.0
C714 C 0.97167 0.55505 0.50867 0.0
C715 C 0.95447 0.54908 0.51509 0.0
C716 C 0.95089 0.55567 0.5337 0.0
C717 C 0.93543 0.5482 0.54067 0.0
C718 C 0.92346 0.53389 0.52923 0.0
C719 C 0.92688 0.52769 0.5104 0.0
C720 C 0.94227 0.53523 0.50341 0.0
C721 C 0.01776 0.53606 0.54673 0.0
C722 C 1.01355 0.57323 0.57469 0.0
C723 C 0.07907 0.57551 0.55566 0.0
C724 C 0.09506 0.58398 0.5478 0.0
C725 C 0.10716 0.5732 0.54173 0.0
C726 C 0.12294 0.58118 0.53563 0.0
C727 C 0.12701 0.60016 0.53554 0.0
C728 C 0.11446 0.61081 0.54069 0.0
C729 C 0.09868 0.60283 0.54674 0.0
C730 C 0.02998 0.60009 0.53134 0.0
C731 C 0.03528 0.5593 0.49921 0.0
O732 O 0.97987 0.5715 0.51585 0.0
O733 O 0.98206 0.5429 0.50847 0.0
O734 O 1.00143 0.53814 0.54639 0.0
O735 O 0.0255 0.5471 0.53682 0.0
O736 O 1.00213 0.57361 0.55906 0.0
O737 O 0.03002 0.57075 0.57346 0.0
O738 O 0.06922 0.56123 0.54501 0.0
O739 O 0.06982 0.58655 0.56398 0.0
O740 O 0.04251 0.6031 0.54596 0.0
O741 O 0.02627 0.58354 0.52527 0.0
O742 O 0.04746 0.566 0.51421 0.0
O743 O 0.01813 0.55608 0.5005 0.0
H744 H 0.96027 0.56618 0.54313 0.0
H745 H 0.93321 0.55313 0.55529 0.0
H746 H 0.91775 0.51683 0.50118 0.0
H747 H 0.94491 0.52986 0.4891 0.0
H748 H 0.10462 0.55862 0.54222 0.0
H749 H 0.1323 0.57255 0.53184 0.0
H750 H 0.11698 0.62542 0.5404 0.0
H751 H 0.08951 0.61154 0.55095 0.0
Nd752 Nd 0.79972 0.81373 0.32775 0.0
Nd753 Nd 0.78292 0.80884 0.29543 0.0
C754 C 0.81302 0.81524 0.36479 0.0
C755 C 0.80599 0.81323 0.38307 0.0
C756 C 0.78775 0.80799 0.38296 0.0
C757 C 0.78012 0.81251 0.39964 0.0
C758 C 0.79085 0.82185 0.41639 0.0
C759 C 0.80928 0.82458 0.41726 0.0
C760 C 0.81686 0.82043 0.4005 0.0
C761 C 0.80902 0.84646 0.31083 0.0
C762 C 0.75769 0.81856 0.3257 0.0
C763 C 0.7747 0.80788 0.25754 0.0
C764 C 0.78112 0.79733 0.24177 0.0
C765 C 0.78693 0.80586 0.22608 0.0
C766 C 0.79344 0.79599 0.2112 0.0
C767 C 0.79411 0.77747 0.21188 0.0
C768 C 0.78939 0.76929 0.22825 0.0
C769 C 0.783 0.77917 0.24315 0.0
C770 C 0.77332 0.77567 0.31109 0.0
C771 C 0.82418 0.80143 0.29714 0.0
O772 O 0.81071 0.80057 0.35228 0.0
O773 O 0.80948 0.82938 0.35675 0.0
O774 O 0.8199 0.83652 0.3175 0.0
O775 O 0.79337 0.83799 0.31156 0.0
O776 O 0.77077 0.81345 0.33651 0.0
O777 O 0.7603 0.82103 0.30775 0.0
O778 O 0.78671 0.82048 0.2679 0.0
O779 O 0.76462 0.79864 0.26822 0.0
O780 O 0.76256 0.78455 0.30218 0.0
O781 O 0.78907 0.78462 0.31191 0.0
O782 O 0.80972 0.80226 0.28559 0.0
O783 O 0.82379 0.80457 0.31593 0.0
H784 H 0.77928 0.80219 0.36955 0.0
H785 H 0.76588 0.81058 0.39877 0.0
H786 H 0.81765 0.83208 0.43011 0.0
H787 H 0.83095 0.82457 0.40066 0.0
H788 H 0.78617 0.82006 0.22521 0.0
H789 H 0.79701 0.80256 0.19868 0.0
H790 H 0.79006 0.75508 0.22917 0.0
H791 H 0.7793 0.77253 0.25558 0.0
Nd792 Nd 0.78369 0.33546 0.82617 0.0
Nd793 Nd 0.78072 0.29554 0.80393 0.0
C794 C 0.77755 0.36834 0.83667 0.0
C795 C 0.78586 0.38619 0.83179 0.0
C796 C 0.7779 0.39376 0.81612 0.0
C797 C 0.78688 0.40906 0.80936 0.0
C798 C 0.80393 0.41709 0.81819 0.0
C799 C 0.81159 0.41006 0.83438 0.0
C800 C 0.80263 0.39478 0.84115 0.0
C801 C 0.81819 0.32762 0.82692 0.0
C802 C 0.78386 0.32931 0.77797 0.0
C803 C 0.78441 0.26138 0.79556 0.0
C804 C 0.77402 0.2446 0.80085 0.0
C805 C 0.78262 0.23117 0.80818 0.0
C806 C 0.77294 0.21569 0.81414 0.0
C807 C 0.75442 0.21335 0.81293 0.0
C808 C 0.74593 0.22714 0.80615 0.0
C809 C 0.75559 0.24255 0.80019 0.0
C810 C 0.74669 0.30412 0.80383 0.0
C811 C 0.77809 0.30213 0.85155 0.0
O812 O 0.76819 0.3573 0.82197 0.0
O813 O 0.7873 0.36001 0.84811 0.0
O814 O 0.81404 0.34282 0.834 0.0
O815 O 0.80388 0.31721 0.81879 0.0
O816 O 0.78257 0.33993 0.79402 0.0
O817 O 0.78613 0.31213 0.77821 0.0
O818 O 0.79392 0.27228 0.81025 0.0
O819 O 0.77638 0.27018 0.78298 0.0
O820 O 0.75021 0.28896 0.79589 0.0
O821 O 0.7613 0.31357 0.81191 0.0
O822 O 0.78075 0.29152 0.83617 0.0
O823 O 0.77639 0.31927 0.85106 0.0
H824 H 0.765 0.38744 0.8086 0.0
H825 H 0.78074 0.41425 0.79682 0.0
H826 H 0.82461 0.41627 0.84166 0.0
H827 H 0.80911 0.38939 0.85332 0.0
H828 H 0.79684 0.23264 0.80927 0.0
H829 H 0.77993 0.20535 0.81921 0.0
H830 H 0.73175 0.22603 0.80542 0.0
H831 H 0.74859 0.25288 0.79513 0.0
Nd832 Nd 0.74373 0.77565 0.76958 0.0
Nd833 Nd 0.77614 0.80043 0.78889 0.0
C834 C 0.71124 0.7618 0.75317 0.0
C835 C 0.69425 0.76313 0.7608 0.0
C836 C 0.68619 0.77843 0.75865 0.0
C837 C 0.67213 0.78132 0.76887 0.0
C838 C 0.66575 0.76899 0.78145 0.0
C839 C 0.67305 0.75312 0.78263 0.0
C840 C 0.68709 0.75019 0.77237 0.0
C841 C 0.75307 0.77036 0.80707 0.0
C842 C 0.74204 0.8173 0.79176 0.0
C843 C 0.80809 0.81435 0.80606 0.0
C844 C 0.82464 0.8088 0.80112 0.0
C845 C 0.82841 0.79166 0.80488 0.0
C846 C 0.84141 0.78442 0.79598 0.0
C847 C 0.85093 0.79414 0.78328 0.0
C848 C 0.84798 0.81171 0.78043 0.0
C849 C 0.83499 0.81902 0.78935 0.0
C850 C 0.76531 0.80666 0.75189 0.0
C851 C 0.77949 0.75931 0.76815 0.0
O852 O 0.72017 0.77679 0.74858 0.0
O853 O 0.7214 0.75243 0.76256 0.0
O854 O 0.74701 0.75731 0.79312 0.0
O855 O 0.75347 0.78577 0.80147 0.0
O856 O 0.73511 0.80369 0.7778 0.0
O857 O 0.75757 0.81758 0.80172 0.0
O858 O 0.79735 0.8025 0.81367 0.0
O859 O 0.79986 0.82197 0.79257 0.0
O860 O 0.77129 0.81932 0.76633 0.0
O861 O 0.76589 0.79093 0.75657 0.0
O862 O 0.78617 0.77357 0.7812 0.0
O863 O 0.76332 0.75764 0.75878 0.0
H864 H 0.69132 0.78868 0.74987 0.0
H865 H 0.667 0.79382 0.76779 0.0
H866 H 0.66833 0.74327 0.79205 0.0
H867 H 0.69287 0.73818 0.77427 0.0
H868 H 0.82059 0.78329 0.81369 0.0
H869 H 0.8432 0.77072 0.79796 0.0
H870 H 0.85535 0.81956 0.77083 0.0
H871 H 0.83235 0.83221 0.78611 0.0
Nd872 Nd 0.55845 0.59113 0.56924 0.0
Nd873 Nd 0.53589 0.55308 0.56271 0.0
C874 C 0.57007 0.62601 0.58205 0.0
C875 C 0.56827 0.64293 0.57319 0.0
C876 C 0.55747 0.65467 0.58065 0.0
C877 C 0.55459 0.66998 0.57162 0.0
C878 C 0.56261 0.67402 0.55501 0.0
C879 C 0.5735 0.66232 0.54764 0.0
C880 C 0.57628 0.64698 0.55658 0.0
C881 C 0.56224 0.57734 0.53114 0.0
C882 C 0.51594 0.58629 0.55181 0.0
C883 C 0.52591 0.51774 0.55197 0.0
C884 C 0.52957 0.50205 0.56224 0.0
C885 C 0.5377 0.48866 0.55299 0.0
C886 C 0.54191 0.47415 0.56267 0.0
C887 C 0.5383 0.47284 0.58192 0.0
C888 C 0.53058 0.48645 0.59141 0.0
C889 C 0.52621 0.50089 0.58167 0.0
C890 C 0.5322 0.56778 0.6006 0.0
C891 C 0.57749 0.55729 0.58161 0.0
O892 O 0.55551 0.61688 0.58648 0.0
O893 O 0.58001 0.61533 0.57441 0.0
O894 O 0.56813 0.59376 0.53957 0.0
O895 O 0.55279 0.56862 0.54245 0.0
O896 O 0.5311 0.59727 0.55808 0.0
O897 O 0.51442 0.56833 0.55029 0.0
O898 O 0.53959 0.52727 0.54614 0.0
O899 O 0.51547 0.52799 0.55933 0.0
O900 O 0.52524 0.55157 0.5923 0.0
O901 O 0.54162 0.57555 0.58882 0.0
O902 O 0.562 0.54701 0.57591 0.0
O903 O 0.57977 0.57524 0.58187 0.0
H904 H 0.55105 0.65186 0.59337 0.0
H905 H 0.54619 0.67871 0.57771 0.0
H906 H 0.57961 0.66481 0.53464 0.0
H907 H 0.58448 0.63816 0.55023 0.0
H908 H 0.54083 0.48945 0.53823 0.0
H909 H 0.54801 0.46391 0.55513 0.0
H910 H 0.52758 0.4857 0.60622 0.0
H911 H 0.52025 0.51113 0.58938 0.0
Nd912 Nd 0.04101 0.55754 0.04951 0.0
Nd913 Nd 1.00548 0.54679 0.05705 0.0
C914 C 0.07159 0.56079 0.03581 0.0
C915 C 0.08587 0.54997 0.03781 0.0
C916 C 0.08615 0.53487 0.02399 0.0
C917 C 0.09897 0.52393 0.02675 0.0
C918 C 0.11174 0.52791 0.04336 0.0
C919 C 0.11157 0.54314 0.05698 0.0
C920 C 0.09881 0.55403 0.05425 0.0
C921 C 0.0402 0.54992 0.0876 0.0
C922 C 0.02294 0.51435 0.03873 0.0
C923 C 0.978 0.53953 0.07579 0.0
C924 C 0.96271 0.54861 0.07703 0.0
C925 C 0.95957 0.5565 0.09533 0.0
C926 C 0.9474 0.56829 0.09646 0.0
C927 C 0.93845 0.57235 0.07928 0.0
C928 C 0.94096 0.56383 0.06107 0.0
C929 C 0.95299 0.55203 0.05992 0.0
C930 C 1.00145 0.55966 0.02061 0.0
C931 C 0.02358 0.58922 0.06772 0.0
O932 O 0.0568 0.55262 0.02534 0.0
O933 O 0.06905 0.57046 0.05173 0.0
O934 O 0.04976 0.56396 0.08241 0.0
O935 O 0.03083 0.54038 0.07264 0.0
O936 O 0.03718 0.52681 0.03976 0.0
O937 O 1.00837 0.51836 0.04457 0.0
O938 O 0.99296 0.5495 0.08405 0.0
O939 O 0.97922 0.53064 0.05881 0.0
O940 O 0.98875 0.55419 0.03037 0.0
O941 O 0.01616 0.55916 0.03038 0.0
O942 O 1.01325 0.57568 0.07339 0.0
O943 O 0.03415 0.58608 0.05469 0.0
H944 H 0.07632 0.53135 0.01118 0.0
H945 H 0.09873 0.51223 0.01605 0.0
H946 H 0.12146 0.54682 0.06973 0.0
H947 H 0.09903 0.56556 0.06517 0.0
H948 H 0.96712 0.5542 0.10866 0.0
H949 H 0.9455 0.57476 0.11061 0.0
H950 H 0.93387 0.56663 0.04767 0.0
H951 H 0.95519 0.54626 0.0456 0.0
H952 H 0.02124 0.27061 0.92079 0.0
H953 H 0.02112 0.25048 0.94666 0.0
H954 H 0.06911 0.28382 0.9769 0.0
H955 H 0.06905 0.3041 0.95156 0.0
H956 H 0.06953 0.24545 0.9693 0.0
H957 H 0.03572 0.28753 0.9963 0.0
H958 H 1.01132 0.30488 0.99657 0.0
H959 H 0.97381 0.25496 0.98926 0.0
H960 H 0.99799 0.23726 0.98859 0.0
H961 H 0.08303 0.20554 0.05392 0.0
H962 H 0.07742 0.22946 0.03393 0.0
H963 H 0.02517 0.19939 0.01285 0.0
H964 H 0.03055 0.17569 0.03349 0.0
H965 H 0.02542 0.23606 0.01564 0.0
H966 H 0.05986 0.19419 0.98764 0.0
H967 H 0.08474 0.17743 0.98775 0.0
H968 H 0.12144 0.22802 0.99693 0.0
H969 H 0.09678 0.24507 0.99718 0.0
C970 C 0.03175 0.27354 0.93295 0.0
C971 C 0.04524 0.28877 0.93414 0.0
C972 C 0.03158 0.26219 0.94777 0.0
C973 C 0.04505 0.26578 0.96371 0.0
C974 C 0.05855 0.28091 0.96477 0.0
C975 C 0.05853 0.29242 0.95026 0.0
C976 C 0.04594 0.25315 0.97866 0.0
C977 C 0.05997 0.24353 0.97955 0.0
C978 C 0.03326 0.25046 0.99175 0.0
C979 C 0.01867 0.26105 0.99207 0.0
C980 C 0.02226 0.28022 0.99448 0.0
C981 C 1.00847 0.29013 0.99477 0.0
C982 C 0.99102 0.28103 0.99284 0.0
C983 C 0.98733 0.26199 0.99069 0.0
C984 C 1.00108 0.25201 0.99035 0.0
C985 C 0.07026 0.20418 0.04524 0.0
C986 C 0.05735 0.18864 0.04496 0.0
C987 C 0.06704 0.21785 0.03385 0.0
C988 C 0.05104 0.21598 0.02147 0.0
C989 C 0.03765 0.20107 0.02217 0.0
C990 C 0.04076 0.18752 0.0339 0.0
C991 C 0.04915 0.22845 0.00636 0.0
C992 C 0.03493 0.23796 1.00535 0.0
C993 C 0.06168 0.23113 0.99306 0.0
C994 C 0.07649 0.22089 0.99257 0.0
C995 C 0.07324 0.20172 0.98977 0.0
C996 C 0.0873 0.19218 0.98978 0.0
C997 C 0.10466 0.20165 0.99238 0.0
C998 C 0.10799 0.2207 0.99493 0.0
C999 C 0.09398 0.23031 0.99499 0.0
H1000 H 0.11552 0.19423 0.99238 0.0
H1001 H 0.98036 0.28872 0.99308 0.0
H1002 H 0.07717 0.80327 0.26699 0.0
H1003 H 0.10861 0.80822 0.28019 0.0
H1004 H 0.12202 0.79817 0.22182 0.0
H1005 H 0.09075 0.79316 0.20867 0.0
H1006 H 0.14126 0.78152 0.24427 0.0
H1007 H 0.13076 0.8419 0.24797 0.0
H1008 H 0.11567 0.86771 0.25599 0.0
H1009 H 0.12674 0.86348 0.31721 0.0
H1010 H 0.14178 0.83749 0.30953 0.0
H1011 H 0.2333 0.80917 0.26765 0.0
H1012 H 0.20286 0.81097 0.25546 0.0
H1013 H 0.18979 0.81389 0.31435 0.0
H1014 H 0.22056 0.81221 0.32663 0.0
H1015 H 0.17062 0.83519 0.2914 0.0
H1016 H 0.18178 0.77303 0.28442 0.0
H1017 H 0.19784 0.74885 0.27324 0.0
H1018 H 0.18627 0.7589 0.21378 0.0
H1019 H 0.17031 0.78329 0.22465 0.0
C1020 C 0.0868 0.80211 0.25696 0.0
C1021 C 0.08123 0.79775 0.23671 0.0
C1022 C 0.1049 0.80508 0.26453 0.0
C1023 C 0.11805 0.80377 0.25211 0.0
C1024 C 0.11241 0.7993 0.2319 0.0
C1025 C 0.09438 0.79645 0.22434 0.0
C1026 C 0.13753 0.8066 0.2601 0.0
C1027 C 0.14761 0.7934 0.25441 0.0
C1028 C 0.14623 0.82202 0.27341 0.0
C1029 C 0.13724 0.83763 0.27817 0.0
C1030 C 0.12987 0.84638 0.26314 0.0
C1031 C 0.12135 0.86106 0.26762 0.0
C1032 C 0.12021 0.8672 0.2871 0.0
C1033 C 0.12763 0.85869 0.30213 0.0
C1034 C 0.13617 0.844 0.29773 0.0
C1035 C 0.22413 0.81084 0.27813 0.0
C1036 C 0.22962 0.81088 0.29821 0.0
C1037 C 0.20654 0.81165 0.27108 0.0
C1038 C 0.19362 0.81219 0.28381 0.0
C1039 C 0.1993 0.81342 0.30406 0.0
C1040 C 0.21702 0.81264 0.31116 0.0
C1041 C 0.17419 0.80995 0.27577 0.0
C1042 C 0.16418 0.82328 0.28136 0.0
C1043 C 0.1656 0.79486 0.26194 0.0
C1044 C 0.17498 0.78005 0.25537 0.0
C1045 C 0.18274 0.77013 0.26897 0.0
C1046 C 0.19182 0.75639 0.26269 0.0
C1047 C 0.1931 0.75237 0.24282 0.0
C1048 C 0.18527 0.76204 0.22917 0.0
C1049 C 0.17619 0.77581 0.23538 0.0
H1050 H 0.20014 0.74173 0.23798 0.0
H1051 H 0.1136 0.87857 0.29055 0.0
H1052 H 0.51886 0.87403 0.41342 0.0
H1053 H 0.51241 0.89751 0.43731 0.0
H1054 H 0.56723 0.90916 0.46254 0.0
H1055 H 0.57321 0.88426 0.43967 0.0
H1056 H 0.54947 0.91023 0.49039 0.0
H1057 H 0.54497 0.93701 0.43022 0.0
H1058 H 0.53415 0.93881 0.39579 0.0
H1059 H 0.48112 0.93468 0.4097 0.0
H1060 H 0.49159 0.93259 0.44416 0.0
H1061 H 0.55416 1.00174 0.5312 0.0
H1062 H 0.55587 0.97284 0.51222 0.0
H1063 H 0.49919 0.95756 0.50613 0.0
H1064 H 0.49742 0.98647 0.52549 0.0
H1065 H 0.51461 0.95667 0.4704 0.0
H1066 H 0.52096 0.93321 0.532 0.0
H1067 H 0.53367 0.93614 0.56664 0.0
H1068 H 0.58557 0.93844 0.54976 0.0
H1069 H 0.57317 0.93567 0.515 0.0
C1070 C 0.52958 0.88193 0.4238 0.0
C1071 C 0.54662 0.87781 0.42445 0.0
C1072 C 0.5259 0.89535 0.43749 0.0
C1073 C 0.5394 0.90553 0.45152 0.0
C1074 C 0.55657 0.90158 0.45188 0.0
C1075 C 0.56007 0.88759 0.43866 0.0
C1076 C 0.53553 0.91999 0.466 0.0
C1077 C 0.54198 0.92044 0.4859 0.0
C1078 C 0.52534 0.93314 0.46042 0.0
C1079 C 0.51904 0.93443 0.4397 0.0
C1080 C 0.53099 0.93635 0.4259 0.0
C1081 C 0.52491 0.93744 0.40638 0.0
C1082 C 0.50695 0.9368 0.40055 0.0
C1083 C 0.49502 0.93513 0.41423 0.0
C1084 C 0.50102 0.934 0.43375 0.0
C1085 C 0.5421 0.99207 0.52609 0.0
C1086 C 0.52566 0.99624 0.52965 0.0
C1087 C 0.5431 0.97558 0.51535 0.0
C1088 C 0.52765 0.96314 0.50787 0.0
C1089 C 0.51122 0.96702 0.51191 0.0
C1090 C 0.51025 0.98343 0.52299 0.0
C1091 C 0.5288 0.94695 0.49437 0.0
C1092 C 0.52186 0.94621 0.47475 0.0
C1093 C 0.53876 0.93382 0.50013 0.0
C1094 C 0.54614 0.93421 0.5209 0.0
C1095 C 0.53508 0.93428 0.53568 0.0
C1096 C 0.54223 0.93594 0.55533 0.0
C1097 C 0.56041 0.93747 0.5604 0.0
C1098 C 0.57147 0.9372 0.5458 0.0
C1099 C 0.56439 0.93551 0.52611 0.0
H1100 H 0.56594 0.93887 0.57563 0.0
H1101 H 0.50228 0.93765 0.38543 0.0
H1102 H 0.48453 0.31757 0.75108 0.0
H1103 H 0.45521 0.31831 0.76088 0.0
H1104 H 0.43659 0.26413 0.73065 0.0
H1105 H 0.46578 0.26364 0.72027 0.0
H1106 H 0.41112 0.28268 0.72518 0.0
H1107 H 0.44658 0.27375 0.78343 0.0
H1108 H 0.47374 0.28153 0.80706 0.0
H1109 H 0.4625 0.33515 0.82189 0.0
H1110 H 0.43531 0.32771 0.79822 0.0
H1111 H 0.32907 0.27429 0.76621 0.0
H1112 H 0.35736 0.27016 0.75532 0.0
H1113 H 0.38324 0.3185 0.79378 0.0
H1114 H 0.35536 0.32119 0.80612 0.0
H1115 H 0.40549 0.30054 0.79473 0.0
H1116 H 0.37004 0.30952 0.73457 0.0
H1117 H 0.34578 0.30256 0.70713 0.0
H1118 H 0.35783 0.24907 0.69395 0.0
H1119 H 0.38206 0.25564 0.7214 0.0
C1120 C 0.47426 0.30574 0.74661 0.0
C1121 C 0.47781 0.29045 0.73508 0.0
C1122 C 0.45736 0.30613 0.7523 0.0
C1123 C 0.4434 0.29111 0.747 0.0
C1124 C 0.44689 0.27594 0.73518 0.0
C1125 C 0.46375 0.27561 0.72933 0.0
C1126 C 0.42539 0.29116 0.75393 0.0
C1127 C 0.40989 0.28644 0.74044 0.0
C1128 C 0.42341 0.29614 0.77378 0.0
C1129 C 0.43894 0.30018 0.78908 0.0
C1130 C 0.44986 0.28716 0.79184 0.0
C1131 C 0.46528 0.29153 0.80518 0.0
C1132 C 0.46985 0.30883 0.81597 0.0
C1133 C 0.45892 0.32175 0.81355 0.0
C1134 C 0.44347 0.31744 0.80023 0.0
C1135 C 0.34084 0.28401 0.77233 0.0
C1136 C 0.3398 0.29813 0.78704 0.0
C1137 C 0.35719 0.28183 0.76584 0.0
C1138 C 0.37299 0.2943 0.77302 0.0
C1139 C 0.37171 0.30846 0.78772 0.0
C1140 C 0.35556 0.31013 0.79478 0.0
C1141 C 0.39083 0.29271 0.76584 0.0
C1142 C 0.40645 0.29694 0.77939 0.0
C1143 C 0.39287 0.28725 0.74595 0.0
C1144 C 0.37778 0.28304 0.7301 0.0
C1145 C 0.3674 0.29623 0.72593 0.0
C1146 C 0.35369 0.29236 0.71036 0.0
C1147 C 0.35034 0.27542 0.69878 0.0
C1148 C 0.3605 0.2622 0.70291 0.0
C1149 C 0.37421 0.26598 0.71846 0.0
H1150 H 0.33996 0.2726 0.68652 0.0
H1151 H 0.48186 0.31223 0.82619 0.0
H1152 H 1.0109 0.83802 0.65142 0.0
H1153 H 0.02499 0.86607 0.64081 0.0
H1154 H 0.04949 0.83512 0.59892 0.0
H1155 H 0.03545 0.80675 0.60957 0.0
H1156 H 0.07098 0.86973 0.62365 0.0
H1157 H 0.01813 0.84558 0.57928 0.0
H1158 H 0.98711 0.83001 0.57335 0.0
H1159 H 0.97178 0.87519 0.60651 0.0
H1160 H 1.00281 0.89085 0.61308 0.0
H1161 H 0.0825 0.94106 0.56366 0.0
H1162 H 0.07964 0.91398 0.58034 0.0
H1163 H 0.04131 0.93439 0.61341 0.0
H1164 H 0.04397 0.96149 0.59646 0.0
H1165 H 0.02798 0.90294 0.59106 0.0
H1166 H 0.08063 0.92694 0.63585 0.0
H1167 H 0.11189 0.94043 0.64635 0.0
H1168 H 0.12776 0.89487 0.61442 0.0
H1169 H 0.09659 0.88126 0.60343 0.0
C1170 C 0.01928 0.8372 0.63997 0.0
C1171 C 0.02185 0.82045 0.6309 0.0
C1172 C 0.02741 0.85312 0.63413 0.0
C1173 C 0.03805 0.8523 0.61917 0.0
C1174 C 0.04124 0.83567 0.61053 0.0
C1175 C 0.03302 0.81965 0.61635 0.0
C1176 C 0.04411 0.86894 0.61136 0.0
C1177 C 0.06182 0.87699 0.61611 0.0
C1178 C 0.03173 0.87806 0.60201 0.0
C1179 C 1.01284 0.8694 0.59671 0.0
C1180 C 1.00816 0.85221 0.58532 0.0
C1181 C 0.99057 0.84334 0.58189 0.0
C1182 C 0.97748 0.8516 0.58956 0.0
C1183 C 0.98194 0.86881 0.60056 0.0
C1184 C 0.99953 0.87771 0.60412 0.0
C1185 C 0.07402 0.94008 0.57504 0.0
C1186 C 0.06323 0.95302 0.57865 0.0
C1187 C 0.07242 0.92468 0.58458 0.0
C1188 C 0.06022 0.92231 0.59794 0.0
C1189 C 0.05071 0.93609 0.60298 0.0
C1190 C 0.05218 0.95142 0.59332 0.0
C1191 C 0.05506 0.90427 0.60372 0.0
C1192 C 0.03736 0.8958 0.59839 0.0
C1193 C 0.06752 0.89476 0.61245 0.0
C1194 C 0.08627 0.90318 0.61864 0.0
C1195 C 0.09078 0.91991 0.63086 0.0
C1196 C 0.10849 0.92755 0.63694 0.0
C1197 C 0.12181 0.91853 0.63102 0.0
C1198 C 0.11744 0.90186 0.61897 0.0
C1199 C 0.09975 0.89418 0.61281 0.0
H1200 H 0.13551 0.92445 0.6358 0.0
H1201 H 0.96388 0.84468 0.58696 0.0
H1202 H 0.50753 0.83167 0.96126 0.0
H1203 H 0.479 0.82663 0.94047 0.0
H1204 H 0.49944 0.86906 0.90724 0.0
H1205 H 0.52739 0.87459 0.92827 0.0
H1206 H 0.46724 0.8697 0.90915 0.0
H1207 H 0.50167 0.82162 0.89627 0.0
H1208 H 0.51583 0.79565 0.90416 0.0
H1209 H 0.46602 0.76616 0.91439 0.0
H1210 H 0.45163 0.79209 0.90684 0.0
H1211 H 0.42527 0.85438 0.81615 0.0
H1212 H 0.44984 0.85203 0.84057 0.0
H1213 H 0.41561 0.81213 0.86587 0.0
H1214 H 0.39126 0.81393 0.84098 0.0
H1215 H 0.45033 0.80786 0.87175 0.0
H1216 H 0.41692 0.8583 0.8821 0.0
H1217 H 0.40528 0.88572 0.87389 0.0
H1218 H 0.45711 0.91145 0.86539 0.0
H1219 H 0.46906 0.8843 0.87378 0.0
C1220 C 0.50565 0.84027 0.94988 0.0
C1221 C 0.51967 0.85325 0.94599 0.0
C1222 C 0.48946 0.83725 0.93794 0.0
C1223 C 0.48735 0.84707 0.92198 0.0
C1224 C 0.50085 0.86119 0.91937 0.0
C1225 C 0.51685 0.86432 0.93135 0.0
C1226 C 0.47191 0.84207 0.90684 0.0
C1227 C 0.46357 0.85616 0.90099 0.0
C1228 C 0.46691 0.8243 0.89643 0.0
C1229 C 0.47564 0.80889 0.9013 0.0
C1230 C 0.49378 0.80967 0.9004 0.0
C1231 C 0.50184 0.79495 0.90478 0.0
C1232 C 0.49185 0.77929 0.90985 0.0
C1233 C 0.47376 0.77832 0.91053 0.0
C1234 C 0.46566 0.79303 0.90623 0.0
C1235 C 0.42336 0.84436 0.82623 0.0
C1236 C 0.40655 0.83445 0.82695 0.0
C1237 C 0.43725 0.84319 0.84029 0.0
C1238 C 0.4342 0.83247 0.85537 0.0
C1239 C 0.41806 0.82065 0.85444 0.0
C1240 C 0.40424 0.82158 0.84015 0.0
C1241 C 0.44661 0.83579 0.8735 0.0
C1242 C 0.45398 0.82132 0.88007 0.0
C1243 C 0.45122 0.85335 0.8843 0.0
C1244 C 0.44382 0.86927 0.87844 0.0
C1245 C 0.42578 0.86977 0.87836 0.0
C1246 C 0.41916 0.8853 0.87378 0.0
C1247 C 0.43044 0.90029 0.86908 0.0
C1248 C 0.44838 0.89983 0.86901 0.0
C1249 C 0.45509 0.88442 0.87376 0.0
H1250 H 0.42528 0.91228 0.86552 0.0
H1251 H 0.4981 0.76789 0.91318 0.0
H1252 H 0.52267 0.23511 0.1136 0.0
H1253 H 0.52355 0.20604 0.09509 0.0
H1254 H 0.48223 0.17964 0.12477 0.0
H1255 H 0.48169 0.20913 0.14416 0.0
H1256 H 0.51693 0.16265 0.1142 0.0
H1257 H 0.46522 0.18674 0.08784 0.0
H1258 H 0.45017 0.21142 0.0776 0.0
H1259 H 0.488 0.224 0.03805 0.0
H1260 H 0.50348 0.19973 0.04835 0.0
H1261 H 0.50138 0.09448 0.0382 0.0
H1262 H 0.49154 0.11842 0.05686 0.0
H1263 H 0.53116 0.15713 0.03712 0.0
H1264 H 0.54083 0.13204 0.01782 0.0
H1265 H 0.4934 0.16477 0.04503 0.0
H1266 H 0.54662 0.1464 0.06945 0.0
H1267 H 0.56845 0.12819 0.08077 0.0
H1268 H 0.53739 0.11142 0.1252 0.0
H1269 H 0.51483 0.12879 0.11363 0.0
C1270 C 0.51388 0.22307 0.11626 0.0
C1271 C 0.50165 0.22403 0.12951 0.0
C1272 C 0.51455 0.20661 0.10596 0.0
C1273 C 0.50266 0.19121 0.10853 0.0
C1274 C 0.49128 0.19173 0.12278 0.0
C1275 C 0.49088 0.20835 0.13354 0.0
C1276 C 0.50119 0.17549 0.09433 0.0
C1277 C 0.51125 0.16241 0.09912 0.0
C1278 C 0.49467 0.17657 0.07475 0.0
C1279 C 0.48549 0.19142 0.06891 0.0
C1280 C 0.47042 0.1949 0.07712 0.0
C1281 C 0.46181 0.20881 0.07127 0.0
C1282 C 0.46812 0.21926 0.05718 0.0
C1283 C 0.4831 0.2159 0.04895 0.0
C1284 C 0.49179 0.20207 0.05479 0.0
C1285 C 0.50653 0.10788 0.03589 0.0
C1286 C 0.52151 0.11127 0.02658 0.0
C1287 C 0.50156 0.12167 0.0474 0.0
C1288 C 0.5114 0.13902 0.0489 0.0
C1289 C 0.52397 0.14336 0.03633 0.0
C1290 C 0.52918 0.12921 0.02506 0.0
C1291 C 0.50929 0.15197 0.06478 0.0
C1292 C 0.49853 0.16439 0.06017 0.0
C1293 C 0.51587 0.15066 0.08441 0.0
C1294 C 0.52856 0.1385 0.09008 0.0
C1295 C 0.54396 0.13827 0.08109 0.0
C1296 C 0.55663 0.12823 0.08775 0.0
C1297 C 0.55427 0.11859 0.10368 0.0
C1298 C 0.53916 0.11883 0.11284 0.0
C1299 C 0.52635 0.12867 0.10613 0.0
H1300 H 0.5642 0.11105 0.10899 0.0
H1301 H 0.46138 0.22997 0.05261 0.0
H1302 H 0.12173 0.34338 0.43469 0.0
H1303 H 0.13418 0.33332 0.40524 0.0
H1304 H 0.08322 0.32797 0.37086 0.0
H1305 H 0.07077 0.33816 0.39995 0.0
H1306 H 0.10044 0.29776 0.36513 0.0
H1307 H 0.11032 0.36209 0.36954 0.0
H1308 H 0.12058 0.3925 0.38809 0.0
H1309 H 0.1741 0.3836 0.39163 0.0
H1310 H 0.16409 0.35271 0.3738 0.0
H1311 H 0.13479 0.27939 0.27503 0.0
H1312 H 0.11837 0.2923 0.29988 0.0
H1313 H 0.16745 0.31319 0.33735 0.0
H1314 H 0.18371 0.30095 0.31227 0.0
H1315 H 0.14805 0.33748 0.33961 0.0
H1316 H 0.13682 0.27139 0.34095 0.0
H1317 H 0.12494 0.23879 0.33038 0.0
H1318 H 0.07273 0.25087 0.31921 0.0
H1319 H 0.08434 0.28353 0.32939 0.0
C1320 C 0.1133 0.34023 0.42078 0.0
C1321 C 0.09541 0.34167 0.41941 0.0
C1322 C 0.12035 0.33443 0.40411 0.0
C1323 C 0.1095 0.32996 0.38609 0.0
C1324 C 0.09166 0.33136 0.38474 0.0
C1325 C 0.08468 0.33736 0.40129 0.0
C1326 C 0.11682 0.32415 0.3684 0.0
C1327 C 0.11066 0.30643 0.35922 0.0
C1328 C 0.13013 0.33572 0.36117 0.0
C1329 C 0.13641 0.35488 0.37048 0.0
C1330 C 0.12427 0.36645 0.37448 0.0
C1331 C 0.13003 0.38379 0.38493 0.0
C1332 C 0.14798 0.38993 0.39116 0.0
C1333 C 0.16019 0.37878 0.38683 0.0
C1334 C 0.15447 0.36133 0.37656 0.0
C1335 C 0.14194 0.28686 0.28857 0.0
C1336 C 0.16039 0.28921 0.29194 0.0
C1337 C 0.13261 0.29412 0.30277 0.0
C1338 C 0.14165 0.30351 0.32062 0.0
C1339 C 0.16016 0.30604 0.32372 0.0
C1340 C 0.16944 0.29899 0.30949 0.0
C1341 C 0.1321 0.31054 0.33635 0.0
C1342 C 0.1377 0.32872 0.34519 0.0
C1343 C 0.11813 0.29936 0.34333 0.0
C1344 C 0.11153 0.27996 0.33551 0.0
C1345 C 0.12288 0.26714 0.33583 0.0
C1346 C 0.11617 0.24863 0.33002 0.0
C1347 C 0.09811 0.24278 0.32402 0.0
C1348 C 0.08673 0.25542 0.32374 0.0
C1349 C 0.09338 0.27393 0.32946 0.0
H1350 H 0.09293 0.22843 0.31969 0.0
H1351 H 0.15243 0.40338 0.39922 0.0
H1352 H 0.91528 0.08312 0.2205 0.0
H1353 H 0.93465 0.08517 0.19487 0.0
H1354 H 0.97951 0.08522 0.23758 0.0
H1355 H 0.96023 0.08401 0.26331 0.0
H1356 H 0.99146 0.10579 0.21396 0.0
H1357 H 0.9558 0.04592 0.19995 0.0
H1358 H 0.92876 0.02263 0.19211 0.0
H1359 H 0.91376 0.04663 0.14069 0.0
H1360 H 0.94058 0.07021 0.14837 0.0
H1361 H 0.04614 0.07434 0.14154 0.0
H1362 H 0.02939 0.0806 0.16897 0.0
H1363 H 0.98644 0.08962 0.12831 0.0
H1364 H 1.00326 0.08368 0.10112 0.0
H1365 H 0.97416 0.06568 0.15095 0.0
H1366 H 1.01084 0.12414 0.16354 0.0
H1367 H 0.03807 0.14717 0.17082 0.0
H1368 H 0.05178 0.12567 0.22426 0.0
H1369 H 0.02476 0.10231 0.21718 0.0
C1370 C 0.92926 0.08355 0.22451 0.0
C1371 C 0.93593 0.08321 0.24423 0.0
C1372 C 0.94048 0.08458 0.20965 0.0
C1373 C 0.95888 0.08489 0.2137 0.0
C1374 C 0.96556 0.08492 0.23353 0.0
C1375 C 0.95437 0.08413 0.24842 0.0
C1376 C 0.97104 0.08503 0.19753 0.0
C1377 C 0.98766 0.09675 0.20034 0.0
C1378 C 0.96643 0.07376 0.17917 0.0
C1379 C 0.95006 0.05994 0.17488 0.0
C1380 C 0.94663 0.04633 0.18709 0.0
C1381 C 0.93136 0.03306 0.18265 0.0
C1382 C 0.91952 0.03319 0.16595 0.0
C1383 C 0.92291 0.04658 0.15365 0.0
C1384 C 0.93813 0.0599 0.15805 0.0
C1385 C 0.03347 0.07849 0.13852 0.0
C1386 C 0.02642 0.07904 0.11895 0.0
C1387 C 0.02372 0.08192 0.15432 0.0
C1388 C 1.00636 0.08562 0.1511 0.0
C1389 C 0.99967 0.08684 0.13159 0.0
C1390 C 1.00947 0.08366 0.11591 0.0
C1391 C 0.99451 0.08633 0.16739 0.0
C1392 C 0.97795 0.07472 0.16459 0.0
C1393 C 0.99928 0.09764 0.18569 0.0
C1394 C 1.01587 0.11127 0.18966 0.0
C1395 C 0.01978 0.12413 0.1767 0.0
C1396 C 0.03515 0.1373 0.18084 0.0
C1397 C 0.04668 0.13784 0.19795 0.0
C1398 C 0.04286 0.1252 0.21098 0.0
C1399 C 0.02752 0.11199 0.20691 0.0
H1400 H 0.05854 0.14808 0.20115 0.0
H1401 H 0.90773 0.02286 0.16251 0.0
H1402 H 0.34097 0.71158 0.48153 0.0
H1403 H 0.3292 0.72472 0.45292 0.0
H1404 H 0.3054 0.76054 0.49044 0.0
H1405 H 0.31754 0.74789 0.5191 0.0
H1406 H 0.28306 0.73886 0.45107 0.0
H1407 H 0.33826 0.78456 0.47797 0.0
H1408 H 0.37024 0.79157 0.48958 0.0
H1409 H 0.38043 0.75977 0.43815 0.0
H1410 H 0.34848 0.75243 0.42646 0.0
H1411 H 0.26533 0.80527 0.38568 0.0
H1412 H 0.27312 0.79103 0.4153 0.0
H1413 H 0.31166 0.76655 0.38642 0.0
H1414 H 0.30406 0.78039 0.35742 0.0
H1415 H 0.32534 0.78187 0.42192 0.0
H1416 H 0.27429 0.74166 0.39043 0.0
H1417 H 0.24346 0.7324 0.37502 0.0
H1418 H 0.2253 0.74732 0.42976 0.0
H1419 H 0.25609 0.75708 0.44544 0.0
C1420 C 0.33333 0.72234 0.48365 0.0
C1421 C 0.33041 0.72895 0.50254 0.0
C1422 C 0.32649 0.7297 0.46733 0.0
C1423 C 0.31629 0.74344 0.46963 0.0
C1424 C 0.31314 0.74985 0.48841 0.0
C1425 C 0.32028 0.74279 0.50475 0.0
C1426 C 0.3101 0.75219 0.45264 0.0
C1427 C 0.29217 0.74847 0.4448 0.0
C1428 C 0.3221 0.76412 0.44406 0.0
C1429 C 0.34113 0.76807 0.45134 0.0
C1430 C 0.34736 0.77904 0.46923 0.0
C1431 C 0.36545 0.78306 0.47581 0.0
C1432 C 0.37736 0.77615 0.46459 0.0
C1433 C 0.3712 0.76514 0.44681 0.0
C1434 C 0.35313 0.76108 0.44019 0.0
C1435 C 0.27545 0.79686 0.38583 0.0
C1436 C 0.28392 0.79371 0.36923 0.0
C1437 C 0.27982 0.78869 0.40261 0.0
C1438 C 0.2929 0.77764 0.40296 0.0
C1439 C 0.30152 0.77494 0.38649 0.0
C1440 C 0.29705 0.7828 0.36986 0.0
C1441 C 0.29814 0.76892 0.42036 0.0
C1442 C 0.31601 0.77249 0.42824 0.0
C1443 C 0.28609 0.75636 0.42836 0.0
C1444 C 0.26753 0.7504 0.41906 0.0
C1445 C 0.26374 0.74319 0.39915 0.0
C1446 C 0.24627 0.73781 0.39036 0.0
C1447 C 0.23243 0.73935 0.40138 0.0
C1448 C 0.23605 0.74621 0.42123 0.0
C1449 C 0.25352 0.75167 0.43008 0.0
H1450 H 0.2189 0.73517 0.39456 0.0
H1451 H 0.39137 0.77932 0.46969 0.0
H1452 H 0.62807 1.00029 0.73397 0.0
H1453 H 0.61195 1.00639 0.70371 0.0
H1454 H 0.56865 0.01682 0.73482 0.0
H1455 H 0.58439 0.00982 0.76486 0.0
H1456 H 0.5553 1.00062 0.70119 0.0
H1457 H 0.60013 0.05211 0.7218 0.0
H1458 H 0.63027 0.06883 0.73334 0.0
H1459 H 0.64766 0.04871 0.67984 0.0
H1460 H 0.61767 0.03165 0.66808 0.0
H1461 H 0.52178 0.0483 0.62186 0.0
H1462 H 0.53227 0.03879 0.65339 0.0
H1463 H 0.57485 0.01913 0.62755 0.0
H1464 H 0.56441 0.02866 0.59625 0.0
H1465 H 0.5869 0.04211 0.6605 0.0
H1466 H 0.53865 0.99039 0.6413 0.0
H1467 H 0.50779 0.97449 0.63316 0.0
H1468 H 0.4953 0.99881 0.6876 0.0
H1469 H 0.52601 0.01505 0.69595 0.0
C1470 C 0.61505 1.00372 0.73431 0.0
C1471 C 0.60756 1.00463 0.75183 0.0
C1472 C 0.60587 1.00738 0.71701 0.0
C1473 C 0.58917 0.01256 0.71692 0.0
C1474 C 0.58149 0.01296 0.73437 0.0
C1475 C 0.59054 1.00897 0.75159 0.0
C1476 C 0.57992 0.01773 0.69873 0.0
C1477 C 0.56216 0.0099 0.69244 0.0
C1478 C 0.58868 0.02997 0.68727 0.0
C1479 C 0.60667 0.0405 0.69411 0.0
C1480 C 0.6104 0.05119 0.71253 0.0
C1481 C 0.62746 0.06072 0.71911 0.0
C1482 C 0.64088 0.0598 0.70735 0.0
C1483 C 0.63725 0.0494 0.68894 0.0
C1484 C 0.62022 0.03981 0.6823 0.0
C1485 C 0.53313 0.04154 0.62288 0.0
C1486 C 0.54221 0.03904 0.6066 0.0
C1487 C 0.53912 0.0361 0.64089 0.0
C1488 C 0.55439 0.02816 0.64297 0.0
C1489 C 0.56306 0.02519 0.62644 0.0
C1490 C 0.55705 0.03055 0.60849 0.0
C1491 C 0.56244 0.02447 0.66252 0.0
C1492 C 0.58 0.03283 0.66923 0.0
C1493 C 0.55325 0.01322 0.67465 0.0
C1494 C 0.53459 1.00417 0.66909 0.0
C1495 C 0.52927 0.99258 0.65139 0.0
C1496 C 0.51181 0.98344 0.64678 0.0
C1497 C 0.49958 0.98569 0.65981 0.0
C1498 C 0.50476 0.99712 0.67748 0.0
C1499 C 0.52219 1.0063 0.68214 0.0
H1500 H 0.4861 0.97854 0.65625 0.0
H1501 H 0.65409 0.06717 0.71249 0.0
H1502 H 0.26959 0.43849 0.05897 0.0
H1503 H 0.26298 0.41676 0.02913 0.0
H1504 H 0.31725 0.4299 0.01857 0.0
H1505 H 0.32369 0.45209 0.04821 0.0
H1506 H 0.29515 0.42116 0.9852 0.0
H1507 H 0.3058 0.39808 0.04588 0.0
H1508 H 0.3021 0.39164 0.07943 0.0
H1509 H 0.2498 0.36205 0.05939 0.0
H1510 H 0.253 0.36873 0.02578 0.0
H1511 H 0.31364 0.33693 0.94746 0.0
H1512 H 0.31096 0.35882 0.97521 0.0
H1513 H 0.25582 0.35553 0.95436 0.0
H1514 H 0.25866 0.33403 0.92602 0.0
H1515 H 0.27559 0.35903 1.00231 0.0
H1516 H 0.26868 0.3847 0.93905 0.0
H1517 H 0.27756 0.39127 0.90713 0.0
H1518 H 0.3297 0.41536 0.93486 0.0
H1519 H 0.32124 0.40846 0.96688 0.0
C1520 C 0.27983 0.43723 0.04971 0.0
C1521 C 0.29709 0.44658 0.05551 0.0
C1522 C 0.27611 0.42483 0.03288 0.0
C1523 C 0.28978 0.42151 0.02219 0.0
C1524 C 0.30663 0.43232 0.02687 0.0
C1525 C 0.31029 0.44494 0.04363 0.0
C1526 C 0.28714 0.40531 0.00781 0.0
C1527 C 0.29077 0.40758 0.98888 0.0
C1528 C 0.28169 0.38766 0.01295 0.0
C1529 C 0.27952 0.38422 0.03334 0.0
C1530 C 0.29339 0.39048 0.04866 0.0
C1531 C 0.2914 0.38673 0.0677 0.0
C1532 C 0.2757 0.37651 0.07156 0.0
C1533 C 0.26193 0.37004 0.0564 0.0
C1534 C 0.26381 0.37384 0.03736 0.0
C1535 C 0.30077 0.34019 0.94943 0.0
C1536 C 0.2863 0.33396 0.93499 0.0
C1537 C 0.29931 0.35276 0.96504 0.0
C1538 C 0.28331 0.35883 0.96629 0.0
C1539 C 0.26825 0.3509 0.95325 0.0
C1540 C 0.26979 0.33855 0.93736 0.0
C1541 C 0.28314 0.37501 0.9797 0.0
C1542 C 0.27936 0.37269 0.99856 0.0
C1543 C 0.2891 0.39256 0.97473 0.0
C1544 C 0.29442 0.39567 0.95529 0.0
C1545 C 0.28215 0.39097 0.93828 0.0
C1546 C 0.28708 0.39488 0.92018 0.0
C1547 C 0.30421 0.40364 0.91895 0.0
C1548 C 0.31646 0.40847 0.93581 0.0
C1549 C 0.31162 0.40453 0.95392 0.0
H1550 H 0.30795 0.40676 0.90495 0.0
H1551 H 0.27422 0.37354 0.08628 0.0
H1552 H 0.9517 0.06044 0.33107 0.0
H1553 H 0.96889 0.05692 0.36189 0.0
H1554 H 0.93931 0.09122 0.39367 0.0
H1555 H 0.92184 0.09454 0.36288 0.0
H1556 H 0.97727 0.09942 0.40547 0.0
H1557 H 0.92948 0.04704 0.39442 0.0
H1558 H 0.91177 0.01981 0.37406 0.0
H1559 H 0.95824 0.9959 0.37069 0.0
H1560 H 0.97626 0.02309 0.39087 0.0
H1561 H 1.00222 0.0844 0.5028 0.0
H1562 H 0.98699 0.08796 0.47104 0.0
H1563 H 1.00537 0.04109 0.44451 0.0
H1564 H 0.02015 0.03711 0.47641 0.0
H1565 H 0.9741 0.03876 0.4286 0.0
H1566 H 0.02232 0.08711 0.43656 0.0
H1567 H 0.04402 0.1144 0.4509 0.0
H1568 H 1.00237 0.14543 0.45526 0.0
H1569 H 0.98037 0.11824 0.44101 0.0
C1570 C 0.94887 0.0673 0.3446 0.0
C1571 C 0.9353 0.07775 0.34442 0.0
C1572 C 0.9587 0.06522 0.36227 0.0
C1573 C 0.95539 0.07369 0.38025 0.0
C1574 C 0.94216 0.08451 0.38007 0.0
C1575 C 0.93213 0.08638 0.36241 0.0
C1576 C 0.96554 0.07109 0.39922 0.0
C1577 C 0.97634 0.08622 0.41071 0.0
C1578 C 0.96513 0.05372 0.40566 0.0
C1579 C 0.95423 0.03714 0.39406 0.0
C1580 C 0.93593 0.036 0.38929 0.0
C1581 C 0.92583 0.02057 0.37778 0.0
C1582 C 0.93388 1.00615 0.37106 0.0
C1583 C 0.95202 1.00708 0.37591 0.0
C1584 C 0.96218 0.02248 0.38742 0.0
C1585 C 1.00313 0.07486 0.49023 0.0
C1586 C 1.01254 0.06048 0.49237 0.0
C1587 C 0.99444 0.07699 0.4719 0.0
C1588 C 0.99509 0.06499 0.45498 0.0
C1589 C 1.00451 0.0506 0.45712 0.0
C1590 C 1.01307 0.04838 0.47548 0.0
C1591 C 0.98569 0.06727 0.43531 0.0
C1592 C 0.97505 0.05205 0.42357 0.0
C1593 C 0.98672 0.08448 0.42826 0.0
C1594 C 0.99969 0.10061 0.43787 0.0
C1595 C 0.01776 0.09969 0.44081 0.0
C1596 C 0.03012 0.11515 0.44883 0.0
C1597 C 0.02457 0.13164 0.45393 0.0
C1598 C 1.00663 0.13265 0.45124 0.0
C1599 C 0.99422 0.11722 0.44317 0.0
H1600 H 0.0342 0.14365 0.45984 0.0
H1601 H 0.92605 0.99424 0.36212 0.0
H1602 H 0.31397 0.71428 0.60923 0.0
H1603 H 0.30819 0.73205 0.63877 0.0
H1604 H 0.35589 0.77049 0.63804 0.0
H1605 H 0.36151 0.75293 0.60796 0.0
H1606 H 0.3507 0.75825 0.67622 0.0
H1607 H 0.31978 0.78393 0.62498 0.0
H1608 H 0.29911 0.78234 0.59487 0.0
H1609 H 0.25669 0.75659 0.62282 0.0
H1610 H 0.27716 0.75783 0.65304 0.0
H1611 H 0.3324 0.81815 0.7562 0.0
H1612 H 0.34104 0.80494 0.72554 0.0
H1613 H 0.28704 0.77854 0.70693 0.0
H1614 H 0.27833 0.79305 0.73656 0.0
H1615 H 0.29714 0.78637 0.67701 0.0
H1616 H 0.32677 0.75722 0.72661 0.0
H1617 H 0.34694 0.75498 0.75607 0.0
H1618 H 0.39057 0.78291 0.73151 0.0
H1619 H 0.37064 0.78546 0.70201 0.0
C1620 C 0.32332 0.72647 0.61538 0.0
C1621 C 0.3383 0.73208 0.60625 0.0
C1622 C 0.31993 0.73669 0.63226 0.0
C1623 C 0.33156 0.75269 0.64074 0.0
C1624 C 0.3467 0.75821 0.63185 0.0
C1625 C 0.34991 0.74817 0.61464 0.0
C1626 C 0.3278 0.76347 0.65888 0.0
C1627 C 0.33914 0.76466 0.67639 0.0
C1628 C 0.31244 0.77138 0.6593 0.0
C1629 C 0.30004 0.77087 0.64124 0.0
C1630 C 0.30606 0.77783 0.62467 0.0
C1631 C 0.29438 0.77701 0.60759 0.0
C1632 C 0.2766 0.76934 0.60692 0.0
C1633 C 0.27046 0.76253 0.62336 0.0
C1634 C 0.2821 0.76331 0.64048 0.0
C1635 C 0.32239 0.80967 0.74543 0.0
C1636 C 0.30464 0.80684 0.74885 0.0
C1637 C 0.32736 0.80181 0.72789 0.0
C1638 C 0.31486 0.79017 0.71364 0.0
C1639 C 0.29713 0.78742 0.71727 0.0
C1640 C 0.2921 0.79576 0.73439 0.0
C1641 C 0.3199 0.781 0.69494 0.0
C1642 C 0.30877 0.78006 0.67714 0.0
C1643 C 0.3353 0.77294 0.69435 0.0
C1644 C 0.34718 0.77175 0.71225 0.0
C1645 C 0.34064 0.76302 0.72759 0.0
C1646 C 0.35203 0.76167 0.74427 0.0
C1647 C 0.37001 0.76886 0.74569 0.0
C1648 C 0.37664 0.77739 0.73042 0.0
C1649 C 0.3653 0.77879 0.71372 0.0
H1650 H 0.37881 0.76778 0.7586 0.0
H1651 H 0.26758 0.76871 0.59368 0.0
H1652 H 0.63346 0.01148 0.8761 0.0
H1653 H 0.61965 0.02402 0.90332 0.0
H1654 H 0.5712 0.02029 0.86472 0.0
H1655 H 0.58489 1.00769 0.83742 0.0
H1656 H 0.58207 0.0545 0.88884 0.0
H1657 H 0.57487 0.98935 0.89463 0.0
H1658 H 0.58426 0.96007 0.89943 0.0
H1659 H 0.61586 0.98466 0.95343 0.0
H1660 H 0.60693 0.01415 0.94877 0.0
H1661 H 0.52024 0.05042 0.96253 0.0
H1662 H 0.53545 0.04746 0.93329 0.0
H1663 H 0.58554 0.05678 0.97007 0.0
H1664 H 0.57076 0.05961 0.99896 0.0
H1665 H 0.57445 0.02188 0.94669 0.0
H1666 H 0.58368 0.08526 0.94418 0.0
H1667 H 0.57615 0.11583 0.94309 0.0
H1668 H 0.54475 0.09778 0.88732 0.0
H1669 H 0.55186 0.06694 0.88821 0.0
C1670 C 0.61979 0.01309 0.87349 0.0
C1671 C 0.61017 1.00846 0.85471 0.0
C1672 C 0.61197 0.02034 0.88899 0.0
C1673 C 0.59446 0.0231 0.88593 0.0
C1674 C 0.58477 0.01831 0.86728 0.0
C1675 C 0.59253 0.01092 0.85179 0.0
C1676 C 0.58609 0.03059 0.90231 0.0
C1677 C 0.58018 0.04731 0.90142 0.0
C1678 C 0.58435 0.02154 0.91901 0.0
C1679 C 0.59043 1.00402 0.92119 0.0
C1680 C 0.58405 0.98859 0.90735 0.0
C1681 C 0.58924 0.97193 0.9101 0.0
C1682 C 0.6007 0.97052 0.92669 0.0
C1683 C 0.60704 0.98578 0.94055 0.0
C1684 C 0.60195 1.00246 0.93785 0.0
C1685 C 0.5345 0.05201 0.96428 0.0
C1686 C 0.54424 0.05457 0.98298 0.0
C1687 C 0.54315 0.0506 0.94764 0.0
C1688 C 0.56156 0.05197 0.94969 0.0
C1689 C 0.57132 0.05575 0.96829 0.0
C1690 C 0.56277 0.05702 0.98478 0.0
C1691 C 0.57033 0.04564 0.93322 0.0
C1692 C 0.57632 0.02911 0.93411 0.0
C1693 C 0.5726 0.0552 0.91698 0.0
C1694 C 0.56805 0.07365 0.91643 0.0
C1695 C 0.57495 0.08769 0.93181 0.0
C1696 C 0.57082 0.10511 0.93119 0.0
C1697 C 0.5599 0.10872 0.91519 0.0
C1698 C 0.55315 0.09493 0.89974 0.0
C1699 C 0.55724 0.07748 0.90029 0.0
H1700 H 0.55673 0.12221 0.91474 0.0
H1701 H 0.60461 0.95759 0.92884 0.0
H1702 H 0.27983 0.44527 0.1676 0.0
H1703 H 0.2669 0.41902 0.18268 0.0
H1704 H 0.29856 0.38555 0.15281 0.0
H1705 H 0.31107 0.4115 0.13729 0.0
H1706 H 0.26546 0.36739 0.15105 0.0
H1707 H 0.31084 0.40129 0.20199 0.0
H1708 H 0.32567 0.43002 0.22205 0.0
H1709 H 0.27723 0.43627 0.24449 0.0
H1710 H 0.26214 0.40756 0.22451 0.0
H1711 H 0.27963 0.30276 0.21778 0.0
H1712 H 0.27754 0.32339 0.19279 0.0
H1713 H 0.23993 0.34826 0.22293 0.0
H1714 H 0.24216 0.32784 0.24785 0.0
H1715 H 0.27154 0.37106 0.22338 0.0
H1716 H 0.22858 0.33141 0.17678 0.0
H1717 H 0.21546 0.30245 0.15626 0.0
H1718 H 0.26044 0.30623 0.12496 0.0
H1719 H 0.274 0.33508 0.14551 0.0
C1720 C 0.28425 0.4324 0.16457 0.0
C1721 C 0.29661 0.43045 0.15153 0.0
C1722 C 0.27675 0.41739 0.17302 0.0
C1723 C 0.2818 0.40036 0.16884 0.0
C1724 C 0.29438 0.39852 0.15608 0.0
C1725 C 0.3017 0.41342 0.14748 0.0
C1726 C 0.27466 0.38459 0.17843 0.0
C1727 C 0.26679 0.3681 0.16686 0.0
C1728 C 0.27616 0.38568 0.199 0.0
C1729 C 0.28539 0.40234 0.21181 0.0
C1730 C 0.3034 0.40877 0.21129 0.0
C1731 C 0.31184 0.42505 0.2226 0.0
C1732 C 0.3024 0.43496 0.23453 0.0
C1733 C 0.28453 0.42857 0.23524 0.0
C1734 C 0.27604 0.41226 0.224 0.0
C1735 C 0.27018 0.31191 0.21834 0.0
C1736 C 0.26116 0.31397 0.23462 0.0
C1737 C 0.26903 0.32374 0.20416 0.0
C1738 C 0.25878 0.3375 0.20628 0.0
C1739 C 0.24796 0.33779 0.22116 0.0
C1740 C 0.24918 0.32608 0.2353 0.0
C1741 C 0.26235 0.3537 0.19604 0.0
C1742 C 0.26977 0.37033 0.20755 0.0
C1743 C 0.2606 0.35257 0.17546 0.0
C1744 C 0.25236 0.33538 0.16279 0.0
C1745 C 0.23574 0.32602 0.16561 0.0
C1746 C 0.22821 0.30962 0.15396 0.0
C1747 C 0.23712 0.30249 0.13934 0.0
C1748 C 0.25356 0.31177 0.13629 0.0
C1749 C 0.26116 0.32817 0.14792 0.0
H1750 H 0.23128 0.28978 0.13034 0.0
H1751 H 0.30893 0.44761 0.24322 0.0
H1752 H 0.20331 0.96784 0.04939 0.0
H1753 H 0.18405 0.9898 0.05633 0.0
H1754 H 0.15735 0.9539 0.09257 0.0
H1755 H 0.17617 0.93153 0.08492 0.0
H1756 H 0.13446 0.96552 0.07173 0.0
H1757 H 0.18703 0.99762 0.1114 0.0
H1758 H 0.21855 0.01148 0.11875 0.0
H1759 H 0.21206 0.04701 0.07489 0.0
H1760 H 0.18051 0.03331 0.06721 0.0
H1761 H 0.07926 0.02708 0.1003 0.0
H1762 H 0.10142 1.00738 0.10046 0.0
H1763 H 0.13258 0.04375 0.06816 0.0
H1764 H 0.11085 0.06407 0.06917 0.0
H1765 H 0.15426 0.03204 0.08955 0.0
H1766 H 0.10335 0.99486 0.04591 0.0
H1767 H 0.07566 0.97361 0.03288 0.0
H1768 H 0.08042 0.9451 0.08317 0.0
H1769 H 0.10806 0.96617 0.09646 0.0
C1770 C 0.19325 0.96456 0.05875 0.0
C1771 C 0.19115 0.94779 0.0664 0.0
C1772 C 0.18239 0.97732 0.063 0.0
C1773 C 0.16937 0.97387 0.07538 0.0
C1774 C 0.16728 0.95707 0.08304 0.0
C1775 C 0.17798 0.94417 0.07855 0.0
C1776 C 0.15697 0.98696 0.079 0.0
C1777 C 0.13886 0.98004 0.0761 0.0
C1778 C 0.16252 1.00604 0.08405 0.0
C1779 C 0.18145 0.01434 0.08864 0.0
C1780 C 0.19236 1.00832 0.10325 0.0
C1781 C 0.21021 0.01617 0.1075 0.0
C1782 C 0.21731 0.03009 0.09727 0.0
C1783 C 0.20654 0.03623 0.08281 0.0
C1784 C 0.18867 0.02846 0.07854 0.0
C1785 C 0.09107 0.03109 0.09364 0.0
C1786 C 0.09337 0.04729 0.08494 0.0
C1787 C 0.10363 0.01956 0.09334 0.0
C1788 C 0.1186 0.02352 0.08371 0.0
C1789 C 0.12123 0.04014 0.07567 0.0
C1790 C 0.10884 0.05191 0.07638 0.0
C1791 C 0.13152 0.01056 0.08212 0.0
C1792 C 0.1498 0.01752 0.08542 0.0
C1793 C 0.12616 0.99138 0.07753 0.0
C1794 C 0.10762 0.98218 0.07224 0.0
C1795 C 0.09817 0.98443 0.05446 0.0
C1796 C 0.08263 0.97225 0.0469 0.0
C1797 C 0.07651 0.95784 0.05704 0.0
C1798 C 0.0853 0.95615 0.07525 0.0
C1799 C 0.10082 0.96824 0.08283 0.0
H1800 H 0.065 0.9479 0.05073 0.0
H1801 H 0.23114 0.03613 0.10056 0.0
H1802 H 0.71324 0.6453 0.02238 0.0
H1803 H 0.68561 0.62837 0.0297 0.0
H1804 H 0.68427 0.58866 0.97947 0.0
H1805 H 0.7123 0.60545 0.97217 0.0
H1806 H 0.65198 0.60401 0.98464 0.0
H1807 H 0.69608 0.57652 0.02023 0.0
H1808 H 0.72306 0.57804 0.04327 0.0
H1809 H 0.69935 0.6039 0.08921 0.0
H1810 H 0.67235 0.60286 0.06638 0.0
H1811 H 0.57473 0.55612 0.01419 0.0
H1812 H 0.6037 0.56074 1.00248 0.0
H1813 H 0.62607 0.59417 0.05695 0.0
H1814 H 0.59755 0.58908 0.06881 0.0
H1815 H 0.64893 0.57625 0.04625 0.0
H1816 H 0.61003 0.61097 0.01485 0.0
H1817 H 0.58436 0.61754 0.99428 0.0
H1818 H 0.5989 0.58765 0.94408 0.0
H1819 H 0.62442 0.5805 0.96447 0.0
C1820 C 0.70698 0.63306 0.01276 0.0
C1821 C 0.71477 0.6266 0.99668 0.0
C1822 C 0.69134 0.62336 0.01708 0.0
C1823 C 0.68322 0.60722 1.00526 0.0
C1824 C 0.6906 0.60104 0.98879 0.0
C1825 C 0.70646 0.61061 0.98464 0.0
C1826 C 0.66674 0.59712 0.01001 0.0
C1827 C 0.65121 0.59745 0.99781 0.0
C1828 C 0.66603 0.58942 0.02767 0.0
C1829 C 0.68218 0.58965 0.04153 0.0
C1830 C 0.69664 0.58262 0.03521 0.0
C1831 C 0.71195 0.5834 0.04824 0.0
C1832 C 0.71292 0.59107 0.06769 0.0
C1833 C 0.69858 0.59795 0.07415 0.0
C1834 C 0.68326 0.59724 0.06117 0.0
C1835 C 0.58595 0.56422 0.02369 0.0
C1836 C 0.58393 0.57259 0.04222 0.0
C1837 C 0.60243 0.56688 0.017 0.0
C1838 C 0.61696 0.5781 0.0287 0.0
C1839 C 0.61506 0.58551 0.04763 0.0
C1840 C 0.59872 0.58273 0.05434 0.0
C1841 C 0.63386 0.5834 0.02104 0.0
C1842 C 0.64956 0.58225 0.03272 0.0
C1843 C 0.63471 0.59121 1.00336 0.0
C1844 C 0.6189 0.59482 0.99129 0.0
C1845 C 0.60758 0.6055 0.99951 0.0
C1846 C 0.59308 0.60939 0.98786 0.0
C1847 C 0.58993 0.60292 0.96792 0.0
C1848 C 0.60128 0.59254 0.95957 0.0
C1849 C 0.61572 0.58851 0.97117 0.0
H1850 H 0.57876 0.60602 0.9589 0.0
H1851 H 0.72479 0.59166 0.07775 0.0
H1852 H 0.67091 0.47798 0.30738 0.0
H1853 H 0.68469 0.45085 0.30304 0.0
H1854 H 0.73571 0.48395 0.32283 0.0
H1855 H 0.72189 0.51116 0.32689 0.0
H1856 H 0.74065 0.46103 0.29486 0.0
H1857 H 0.70834 0.44952 0.34979 0.0
H1858 H 0.68244 0.4435 0.36741 0.0
H1859 H 0.65946 0.39813 0.32405 0.0
H1860 H 0.68506 0.40404 0.30603 0.0
H1861 H 0.78935 0.38728 0.30611 0.0
H1862 H 0.77492 0.41404 0.30854 0.0
H1863 H 0.72416 0.37906 0.29403 0.0
H1864 H 0.73862 0.35229 0.29221 0.0
H1865 H 0.71841 0.40267 0.31842 0.0
H1866 H 0.7475 0.41214 0.26301 0.0
H1867 H 0.77089 0.41697 0.24177 0.0
H1868 H 0.79699 0.46449 0.28062 0.0
H1869 H 0.77392 0.45978 0.30228 0.0
C1870 C 0.68508 0.4796 0.31098 0.0
C1871 C 0.69506 0.49721 0.31768 0.0
C1872 C 0.69309 0.46379 0.30859 0.0
C1873 C 0.71157 0.46464 0.31283 0.0
C1874 C 0.72152 0.4823 0.31939 0.0
C1875 C 0.7135 0.4981 0.32183 0.0
C1876 C 0.72058 0.44759 0.30998 0.0
C1877 C 0.73585 0.44842 0.30041 0.0
C1878 C 0.71427 0.43033 0.31606 0.0
C1879 C 0.69853 0.42739 0.32643 0.0
C1880 C 0.69766 0.43842 0.34388 0.0
C1881 C 0.68305 0.43499 0.35397 0.0
C1882 C 0.66929 0.42048 0.34682 0.0
C1883 C 0.67009 0.4094 0.32954 0.0
C1884 C 0.68463 0.4128 0.31938 0.0
C1885 C 0.7751 0.38516 0.30323 0.0
C1886 C 0.7654 0.36715 0.29887 0.0
C1887 C 0.76669 0.40075 0.30452 0.0
C1888 C 0.74807 0.39929 0.30131 0.0
C1889 C 0.73842 0.38124 0.29675 0.0
C1890 C 0.74682 0.36565 0.29558 0.0
C1891 C 0.73867 0.41614 0.30349 0.0
C1892 C 0.72331 0.41527 0.31291 0.0
C1893 C 0.74461 0.4332 0.29677 0.0
C1894 C 0.7591 0.43542 0.28445 0.0
C1895 C 0.75838 0.42344 0.26721 0.0
C1896 C 0.77154 0.42621 0.25505 0.0
C1897 C 0.78545 0.44099 0.25988 0.0
C1898 C 0.78625 0.453 0.27693 0.0
C1899 C 0.77314 0.45027 0.28917 0.0
H1900 H 0.79557 0.44316 0.25039 0.0
H1901 H 0.65804 0.4178 0.35471 0.0
H1902 H 0.77323 0.47081 0.5831 0.0
H1903 H 0.80183 0.48936 0.58088 0.0
H1904 H 0.82032 0.44128 0.55742 0.0
H1905 H 0.79203 0.42263 0.5603 0.0
H1906 H 0.84558 0.46271 0.58162 0.0
H1907 H 0.80439 0.47 0.52697 0.0
H1908 H 0.77647 0.47694 0.51141 0.0
H1909 H 0.78903 0.53123 0.54209 0.0
H1910 H 0.81698 0.52454 0.55796 0.0
H1911 H 0.91123 0.49748 0.52668 0.0
H1912 H 0.88482 0.48239 0.53836 0.0
H1913 H 0.87436 0.53455 0.56215 0.0
H1914 H 0.90055 0.54987 0.54976 0.0
H1915 H 0.84531 0.51347 0.5412 0.0
H1916 H 0.88912 0.50492 0.59344 0.0
H1917 H 0.91671 0.49582 0.60706 0.0
H1918 H 0.89887 0.44148 0.57761 0.0
H1919 H 0.87122 0.45027 0.56379 0.0
C1920 C 0.78355 0.46421 0.57782 0.0
C1921 C 0.78052 0.44537 0.57181 0.0
C1922 C 0.79978 0.4748 0.57644 0.0
C1923 C 0.81301 0.46671 0.56864 0.0
C1924 C 0.81025 0.44776 0.56348 0.0
C1925 C 0.79413 0.43713 0.56515 0.0
C1926 C 0.82945 0.47801 0.56499 0.0
C1927 C 0.84554 0.47377 0.57272 0.0
C1928 C 0.82932 0.49255 0.55358 0.0
C1929 C 0.81269 0.49672 0.54378 0.0
C1930 C 0.80116 0.48339 0.53046 0.0
C1931 C 0.78534 0.48728 0.52157 0.0
C1932 C 0.78096 0.5045 0.5258 0.0
C1933 C 0.79244 0.51789 0.53885 0.0
C1934 C 0.80828 0.51407 0.54776 0.0
C1935 C 0.90326 0.50576 0.5343 0.0
C1936 C 0.90783 0.52486 0.53715 0.0
C1937 C 0.88832 0.49711 0.54121 0.0
C1938 C 0.8778 0.50736 0.55137 0.0
C1939 C 0.88241 0.52642 0.55445 0.0
C1940 C 0.89737 0.53512 0.54746 0.0
C1941 C 0.86149 0.49809 0.55772 0.0
C1942 C 0.84538 0.50265 0.55041 0.0
C1943 C 0.86158 0.48358 0.56917 0.0
C1944 C 0.87817 0.47828 0.57753 0.0
C1945 C 0.89113 0.49106 0.58981 0.0
C1946 C 0.90676 0.48594 0.59759 0.0
C1947 C 0.90955 0.46809 0.59318 0.0
C1948 C 0.89669 0.45529 0.58103 0.0
C1949 C 0.88102 0.46032 0.57327 0.0
H1950 H 0.92167 0.46417 0.59919 0.0
H1951 H 0.7687 0.50748 0.51894 0.0
H1952 H 0.40951 0.17526 0.30401 0.0
H1953 H 0.38697 0.19424 0.29713 0.0
H1954 H 0.35582 0.14993 0.25684 0.0
H1955 H 0.37801 0.13103 0.26374 0.0
H1956 H 0.35504 0.18264 0.24228 0.0
H1957 H 0.34461 0.15762 0.3013 0.0
H1958 H 0.35192 0.15037 0.33476 0.0
H1959 H 0.36578 0.20745 0.35598 0.0
H1960 H 0.35886 0.21503 0.32255 0.0
H1961 H 0.27627 0.22624 0.24185 0.0
H1962 H 0.29648 0.2038 0.2423 0.0
H1963 H 0.33114 0.23882 0.28915 0.0
H1964 H 0.31141 0.26017 0.28927 0.0
H1965 H 0.32849 0.20796 0.2984 0.0
H1966 H 0.33643 0.23251 0.23913 0.0
H1967 H 0.33023 0.2396 0.20555 0.0
H1968 H 0.31955 0.18249 0.18414 0.0
H1969 H 0.32568 0.17508 0.21775 0.0
C1970 C 0.39792 0.16963 0.29362 0.0
C1971 C 0.39556 0.15153 0.28463 0.0
C1972 C 0.385 0.18047 0.28967 0.0
C1973 C 0.36952 0.17354 0.27648 0.0
C1974 C 0.36753 0.1557 0.26701 0.0
C1975 C 0.38026 0.14484 0.27113 0.0
C1976 C 0.35494 0.18438 0.27344 0.0
C1977 C 0.34895 0.1879 0.25451 0.0
C1978 C 0.34699 0.19136 0.28931 0.0
C1979 C 0.35143 0.18689 0.30939 0.0
C1980 C 0.34941 0.16862 0.31307 0.0
C1981 C 0.35345 0.16445 0.33203 0.0
C1982 C 0.35937 0.17844 0.34747 0.0
C1983 C 0.36126 0.19663 0.34398 0.0
C1984 C 0.3573 0.20087 0.32503 0.0
C1985 C 0.28824 0.2291 0.25213 0.0
C1986 C 0.2921 0.24532 0.26534 0.0
C1987 C 0.29986 0.21627 0.25239 0.0
C1988 C 0.31557 0.21949 0.26578 0.0
C1989 C 0.31923 0.23569 0.27873 0.0
C1990 C 0.3078 0.24818 0.27858 0.0
C1991 C 0.32835 0.20635 0.2673 0.0
C1992 C 0.33412 0.20233 0.28606 0.0
C1993 C 0.33589 0.19888 0.25121 0.0
C1994 C 0.33149 0.20325 0.23106 0.0
C1995 C 0.33273 0.22146 0.22732 0.0
C1996 C 0.32924 0.22554 0.20825 0.0
C1997 C 0.32452 0.21151 0.19269 0.0
C1998 C 0.32322 0.19336 0.19621 0.0
C1999 C 0.32673 0.18922 0.21529 0.0
H2000 H 0.32187 0.21469 0.17791 0.0
H2001 H 0.36246 0.17519 0.36215 0.0
H2002 H 0.30033 0.10298 0.50025 0.0
H2003 H 0.32539 0.0959 0.52099 0.0
H2004 H 0.34858 0.15306 0.53152 0.0
H2005 H 0.32433 0.16 0.50996 0.0
H2006 H 0.3726 0.134 0.52679 0.0
H2007 H 0.32498 0.13075 0.56724 0.0
H2008 H 0.29476 0.11985 0.57422 0.0
H2009 H 0.30305 0.06448 0.56524 0.0
H2010 H 0.33329 0.07507 0.55824 0.0
H2011 H 0.4389 0.11009 0.58945 0.0
H2012 H 0.41382 0.12612 0.58422 0.0
H2013 H 0.37921 0.07434 0.56566 0.0
H2014 H 0.40392 0.05859 0.57174 0.0
H2015 H 0.3612 0.09703 0.58073 0.0
H2016 H 0.40436 0.09818 0.53382 0.0
H2017 H 0.43348 0.10667 0.52282 0.0
H2018 H 0.43261 0.16325 0.53996 0.0
H2019 H 0.40356 0.15504 0.55123 0.0
C2020 C 0.31107 0.11389 0.50657 0.0
C2021 C 0.31051 0.13196 0.50349 0.0
C2022 C 0.32515 0.10992 0.51869 0.0
C2023 C 0.33845 0.12408 0.52831 0.0
C2024 C 0.33833 0.14199 0.52438 0.0
C2025 C 0.32456 0.14588 0.51189 0.0
C2026 C 0.35277 0.12028 0.54216 0.0
C2027 C 0.37014 0.12629 0.53889 0.0
C2028 C 0.34946 0.11004 0.55775 0.0
C2029 C 0.33136 0.10371 0.5622 0.0
C2030 C 0.32033 0.11626 0.56674 0.0
C2031 C 0.30321 0.11013 0.57072 0.0
C2032 C 0.29699 0.09148 0.57017 0.0
C2033 C 0.30789 0.07892 0.56571 0.0
C2034 C 0.32504 0.08498 0.56181 0.0
C2035 C 0.42572 0.10228 0.58521 0.0
C2036 C 0.42305 0.08328 0.58093 0.0
C2037 C 0.4115 0.11136 0.58208 0.0
C2038 C 0.39479 0.1014 0.57415 0.0
C2039 C 0.39197 0.08229 0.57181 0.0
C2040 C 0.40605 0.07329 0.57521 0.0
C2041 C 0.381 0.11028 0.56495 0.0
C2042 C 0.36368 0.1053 0.56907 0.0
C2043 C 0.3843 0.12115 0.54982 0.0
C2044 C 0.40199 0.12599 0.54368 0.0
C2045 C 0.41049 0.11241 0.53543 0.0
C2046 C 0.42695 0.11717 0.52911 0.0
C2047 C 0.43492 0.13548 0.53077 0.0
C2048 C 0.42645 0.14907 0.53876 0.0
C2049 C 0.41002 0.14437 0.54514 0.0
H2050 H 0.44763 0.13915 0.52581 0.0
H2051 H 0.28372 0.08677 0.57321 0.0
H2052 H 0.70747 0.59744 0.29439 0.0
H2053 H 0.72125 0.62896 0.29325 0.0
H2054 H 0.70427 0.64502 0.34862 0.0
H2055 H 0.68903 0.61358 0.34869 0.0
H2056 H 0.70465 0.67275 0.3334 0.0
H2057 H 0.75205 0.6403 0.33796 0.0
H2058 H 0.76705 0.61463 0.32893 0.0
H2059 H 0.76877 0.62998 0.27118 0.0
H2060 H 0.75362 0.65568 0.27983 0.0
H2061 H 0.7619 0.76129 0.34387 0.0
H2062 H 0.7489 0.72982 0.34749 0.0
H2063 H 0.75676 0.7124 0.28842 0.0
H2064 H 0.7701 0.74386 0.28504 0.0
H2065 H 0.76196 0.68547 0.30776 0.0
H2066 H 0.71366 0.72028 0.30807 0.0
H2067 H 0.69824 0.74432 0.32118 0.0
H2068 H 0.7004 0.72366 0.37664 0.0
H2069 H 0.71602 0.69967 0.36395 0.0
C2070 C 0.70668 0.60761 0.30642 0.0
C2071 C 0.69713 0.60246 0.32174 0.0
C2072 C 0.7149 0.62596 0.30593 0.0
C2073 C 0.71483 0.64017 0.32123 0.0
C2074 C 0.70504 0.63495 0.33649 0.0
C2075 C 0.69627 0.61666 0.33662 0.0
C2076 C 0.7247 0.6601 0.32119 0.0
C2077 C 0.7173 0.67529 0.32799 0.0
C2078 C 0.74146 0.66443 0.31439 0.0
C2079 C 0.75167 0.64987 0.30951 0.0
C2080 C 0.75572 0.63825 0.32337 0.0
C2081 C 0.76419 0.62367 0.3183 0.0
C2082 C 0.76884 0.62067 0.29948 0.0
C2083 C 0.76517 0.63235 0.28576 0.0
C2084 C 0.75669 0.64696 0.29074 0.0
C2085 C 0.7612 0.75075 0.3317 0.0
C2086 C 0.76762 0.75554 0.31425 0.0
C2087 C 0.75337 0.73249 0.33367 0.0
C2088 C 0.75114 0.71797 0.31814 0.0
C2089 C 0.75797 0.72277 0.30086 0.0
C2090 C 0.76582 0.74102 0.29891 0.0
C2091 C 0.74175 0.69814 0.31963 0.0
C2092 C 0.74931 0.68292 0.31317 0.0
C2093 C 0.72547 0.69383 0.32752 0.0
C2094 C 0.71618 0.70833 0.33511 0.0
C2095 C 0.71095 0.72096 0.3231 0.0
C2096 C 0.70216 0.73456 0.33045 0.0
C2097 C 0.69839 0.73555 0.34974 0.0
C2098 C 0.70337 0.72291 0.36172 0.0
C2099 C 0.71218 0.70932 0.35445 0.0
H2100 H 0.69158 0.74608 0.3554 0.0
H2101 H 0.7753 0.6093 0.29554 0.0
H2102 H 0.8757 0.57311 0.78514 0.0
H2103 H 0.85729 0.54346 0.78513 0.0
H2104 H 0.90372 0.51856 0.79083 0.0
H2105 H 0.92235 0.54831 0.79055 0.0
H2106 H 0.87371 0.49726 0.76502 0.0
H2107 H 0.88918 0.52779 0.83071 0.0
H2108 H 0.89347 0.55497 0.8553 0.0
H2109 H 0.83837 0.55761 0.8442 0.0
H2110 H 0.8338 0.53052 0.81937 0.0
H2111 H 0.83778 0.42109 0.81017 0.0
H2112 H 0.85526 0.44798 0.80033 0.0
H2113 H 0.81005 0.47486 0.7988 0.0
H2114 H 0.7925 0.44799 0.80886 0.0
H2115 H 0.8398 0.49501 0.8217 0.0
H2116 H 0.82496 0.46477 0.75488 0.0
H2117 H 0.82181 0.43911 0.72856 0.0
H2118 H 0.87646 0.43564 0.74249 0.0
H2119 H 0.88003 0.46162 0.76855 0.0
C2120 C 0.88198 0.5613 0.7862 0.0
C2121 C 0.9004 0.56293 0.78819 0.0
C2122 C 0.87147 0.54442 0.78609 0.0
C2123 C 0.87925 0.52903 0.78821 0.0
C2124 C 0.89758 0.53039 0.78916 0.0
C2125 C 0.90815 0.54733 0.78913 0.0
C2126 C 0.86823 0.51202 0.79136 0.0
C2127 C 0.86644 0.49662 0.7775 0.0
C2128 C 0.85868 0.51146 0.80755 0.0
C2129 C 0.86116 0.52717 0.82316 0.0
C2130 C 0.87798 0.53418 0.83352 0.0
C2131 C 0.88047 0.54957 0.84748 0.0
C2132 C 0.8662 0.55802 0.8513 0.0
C2133 C 0.8494 0.55103 0.84124 0.0
C2134 C 0.84684 0.53562 0.82726 0.0
C2135 C 0.83156 0.4327 0.8076 0.0
C2136 C 0.8139 0.43263 0.81049 0.0
C2137 C 0.84148 0.44793 0.80178 0.0
C2138 C 0.83387 0.4633 0.79878 0.0
C2139 C 0.81607 0.46305 0.80101 0.0
C2140 C 0.80609 0.44775 0.8067 0.0
C2141 C 0.84501 0.48016 0.79519 0.0
C2142 C 0.84697 0.49559 0.80914 0.0
C2143 C 0.85483 0.48066 0.77919 0.0
C2144 C 0.85272 0.46499 0.76372 0.0
C2145 C 0.83628 0.45847 0.75236 0.0
C2146 C 0.83444 0.44393 0.73745 0.0
C2147 C 0.84888 0.43564 0.73398 0.0
C2148 C 0.86527 0.44204 0.74523 0.0
C2149 C 0.86724 0.45676 0.75997 0.0
H2150 H 0.84738 0.42429 0.72252 0.0
H2151 H 0.86816 0.56998 0.86206 0.0
H2152 H 0.03026 0.855 0.20235 0.0
H2153 H 0.03467 0.88084 0.18355 0.0
H2154 H 0.04302 0.8451 0.13379 0.0
H2155 H 0.03857 0.81914 0.15253 0.0
H2156 H 0.06662 0.87883 0.13945 0.0
H2157 H 1.00503 0.85662 0.13239 0.0
H2158 H 0.97646 0.84564 0.14342 0.0
H2159 H 0.97907 0.89749 0.1776 0.0
H2160 H 1.00782 0.90869 0.167 0.0
H2161 H 0.03598 0.93831 0.0692 0.0
H2162 H 0.04101 0.91281 0.08667 0.0
H2163 H 0.047 0.94725 0.14161 0.0
H2164 H 0.0435 0.97341 0.12441 0.0
H2165 H 0.01718 0.91306 0.13147 0.0
H2166 H 0.07985 0.93495 0.13549 0.0
H2167 H 0.10816 0.94386 0.12303 0.0
H2168 H 0.10263 0.8905 0.09113 0.0
H2169 H 0.07411 0.88132 0.10315 0.0
C2170 C 0.03308 0.85265 0.18744 0.0
C2171 C 0.03389 0.83501 0.17888 0.0
C2172 C 0.03564 0.86742 0.17671 0.0
C2173 C 0.03911 0.8649 0.15722 0.0
C2174 C 0.04042 0.84739 0.1488 0.0
C2175 C 0.03773 0.83256 0.15949 0.0
C2176 C 0.04019 0.88042 0.14543 0.0
C2177 C 0.05577 0.88622 0.13749 0.0
C2178 C 0.02602 0.89001 0.14282 0.0
C2179 C 1.00865 0.88344 0.14906 0.0
C2180 C 0.99957 0.86564 0.14238 0.0
C2181 C 0.98335 0.85938 0.14853 0.0
C2182 C 0.97598 0.87084 0.16124 0.0
C2183 C 0.98481 0.88861 0.16777 0.0
C2184 C 1.00107 0.89493 0.16169 0.0
C2185 C 0.03896 0.94086 0.08495 0.0
C2186 C 0.03901 0.95821 0.09521 0.0
C2187 C 0.04178 0.92608 0.09493 0.0
C2188 C 0.04438 0.92813 0.1154 0.0
C2189 C 0.04504 0.9454 0.12576 0.0
C2190 C 0.04269 0.96031 0.11581 0.0
C2191 C 0.04378 0.91187 0.12596 0.0
C2192 C 0.0281 0.90575 0.13346 0.0
C2193 C 0.05775 0.90185 0.1277 0.0
C2194 C 0.07464 0.90755 0.11996 0.0
C2195 C 0.08448 0.9252 0.12554 0.0
C2196 C 0.10063 0.93027 0.11863 0.0
C2197 C 0.10714 0.9178 0.10619 0.0
C2198 C 0.09753 0.90019 0.10069 0.0
C2199 C 0.08138 0.89504 0.10756 0.0
H2200 H 0.11965 0.92175 0.1009 0.0
H2201 H 0.96341 0.86597 0.166 0.0
H2202 H 0.98453 0.33665 0.90277 0.0
H2203 H 0.95299 0.33588 0.89432 0.0
H2204 H 0.95494 0.30699 0.83763 0.0
H2205 H 0.98694 0.30898 0.84573 0.0
H2206 H 0.93339 0.32622 0.83064 0.0
H2207 H 0.93496 0.28966 0.88443 0.0
H2208 H 0.94196 0.28259 0.91807 0.0
H2209 H 0.91785 0.32672 0.94052 0.0
H2210 H 0.91093 0.33423 0.9071 0.0
H2211 H 0.83785 0.30462 0.80668 0.0
H2212 H 0.86909 0.30191 0.81547 0.0
H2213 H 0.87182 0.33878 0.86822 0.0
H2214 H 0.84114 0.34158 0.85948 0.0
H2215 H 0.8902 0.31409 0.87722 0.0
H2216 H 0.8898 0.3517 0.82597 0.0
H2217 H 0.88153 0.35989 0.79313 0.0
H2218 H 0.90306 0.31521 0.76718 0.0
H2219 H 0.91121 0.30659 0.79989 0.0
C2220 C 0.97831 0.33009 0.88844 0.0
C2221 C 0.98866 0.32285 0.87502 0.0
C2222 C 0.95991 0.3294 0.88363 0.0
C2223 C 0.95071 0.32086 0.86535 0.0
C2224 C 0.96115 0.31368 0.85189 0.0
C2225 C 0.97968 0.31477 0.85655 0.0
C2226 C 0.93064 0.32001 0.85989 0.0
C2227 C 0.92409 0.32311 0.84089 0.0
C2228 C 0.91783 0.31675 0.87307 0.0
C2229 C 0.92261 0.31263 0.89324 0.0
C2230 C 0.93133 0.29798 0.89656 0.0
C2231 C 0.93525 0.29388 0.91559 0.0
C2232 C 0.9304 0.30423 0.93142 0.0
C2233 C 0.92164 0.31874 0.92826 0.0
C2234 C 0.91773 0.32293 0.90928 0.0
C2235 C 0.84503 0.31197 0.82025 0.0
C2236 C 0.83664 0.32338 0.83225 0.0
C2237 C 0.86311 0.31056 0.82527 0.0
C2238 C 0.87341 0.32032 0.84259 0.0
C2239 C 0.86467 0.33105 0.85481 0.0
C2240 C 0.84689 0.33268 0.84968 0.0
C2241 C 0.89317 0.31993 0.848 0.0
C2242 C 0.89961 0.31683 0.86699 0.0
C2243 C 0.90591 0.32333 0.83496 0.0
C2244 C 0.90089 0.32835 0.81533 0.0
C2245 C 0.89261 0.34351 0.81324 0.0
C2246 C 0.88797 0.34825 0.79466 0.0
C2247 C 0.89171 0.33803 0.77807 0.0
C2248 C 0.90012 0.32308 0.78004 0.0
C2249 C 0.90475 0.31825 0.79859 0.0
H2250 H 0.88813 0.34174 0.7637 0.0
H2251 H 0.93339 0.30099 0.94612 0.0
H2252 H 0.54509 0.23222 0.69625 0.0
H2253 H 0.54433 0.20338 0.67544 0.0
H2254 H 0.50001 0.21386 0.63776 0.0
H2255 H 0.50109 0.24302 0.6581 0.0
H2256 H 0.49753 0.17624 0.65042 0.0
H2257 H 0.53389 0.22053 0.61943 0.0
H2258 H 0.55868 0.24509 0.61713 0.0
H2259 H 0.59555 0.21216 0.63765 0.0
H2260 H 0.57095 0.18746 0.64026 0.0
H2261 H 0.495 0.10686 0.57157 0.0
H2262 H 0.49459 0.13549 0.59201 0.0
H2263 H 0.54915 0.13776 0.61513 0.0
H2264 H 0.54988 0.11007 0.59336 0.0
H2265 H 0.54587 0.16921 0.61052 0.0
H2266 H 0.51007 0.12398 0.64049 0.0
H2267 H 0.48558 0.09855 0.64104 0.0
H2268 H 0.44812 0.13189 0.62322 0.0
H2269 H 0.47239 0.15743 0.62229 0.0
C2270 C 0.53513 0.22832 0.68359 0.0
C2271 C 0.52315 0.23985 0.67879 0.0
C2272 C 0.53474 0.21188 0.6717 0.0
C2273 C 0.52211 0.2065 0.65507 0.0
C2274 C 0.50984 0.21777 0.65054 0.0
C2275 C 0.51051 0.23442 0.66213 0.0
C2276 C 0.52197 0.18931 0.64219 0.0
C2277 C 0.50801 0.17467 0.64156 0.0
C2278 C 0.53583 0.18717 0.631 0.0
C2279 C 0.55058 0.20229 0.63033 0.0
C2280 C 0.54728 0.21865 0.62375 0.0
C2281 C 0.56129 0.23255 0.6223 0.0
C2282 C 0.57868 0.23022 0.62732 0.0
C2283 C 0.58208 0.21397 0.63382 0.0
C2284 C 0.56811 0.20002 0.63529 0.0
C2285 C 0.50693 0.11372 0.58084 0.0
C2286 C 0.52253 0.10653 0.58076 0.0
C2287 C 0.50664 0.12991 0.59277 0.0
C2288 C 0.52172 0.1387 0.6056 0.0
C2289 C 0.53732 0.13139 0.60541 0.0
C2290 C 0.53778 0.11559 0.59294 0.0
C2291 C 0.52151 0.15576 0.61879 0.0
C2292 C 0.53542 0.17051 0.6195 0.0
C2293 C 0.50769 0.15783 0.63024 0.0
C2294 C 0.49307 0.14259 0.6312 0.0
C2295 C 0.49661 0.12586 0.63662 0.0
C2296 C 0.48277 0.11142 0.63699 0.0
C2297 C 0.46531 0.11359 0.63212 0.0
C2298 C 0.46165 0.13022 0.62696 0.0
C2299 C 0.47545 0.14469 0.62654 0.0
H2300 H 0.45461 0.1024 0.63239 0.0
H2301 H 0.58952 0.24097 0.62611 0.0
H2302 H 0.6053 0.81277 0.40169 0.0
H2303 H 0.63515 0.8118 0.39398 0.0
H2304 H 0.62389 0.83733 0.34232 0.0
H2305 H 0.59357 0.83736 0.34959 0.0
H2306 H 0.64206 0.81545 0.3319 0.0
H2307 H 0.65486 0.85739 0.39226 0.0
H2308 H 0.65557 0.86779 0.42738 0.0
H2309 H 0.68022 0.82293 0.44231 0.0
H2310 H 0.67953 0.8122 0.40731 0.0
H2311 H 0.72996 0.83262 0.30811 0.0
H2312 H 0.70108 0.83439 0.31825 0.0
H2313 H 0.71473 0.80854 0.36902 0.0
H2314 H 0.74419 0.8077 0.3593 0.0
H2315 H 0.69563 0.8298 0.38073 0.0
H2316 H 0.68227 0.7871 0.32196 0.0
H2317 H 0.68159 0.77539 0.2872 0.0
H2318 H 0.65776 0.82006 0.26995 0.0
H2319 H 0.65839 0.83207 0.3046 0.0
C2320 C 0.60908 0.8182 0.38862 0.0
C2321 C 0.59658 0.82506 0.37628 0.0
C2322 C 0.62653 0.81788 0.38429 0.0
C2323 C 0.63263 0.82484 0.36761 0.0
C2324 C 0.62008 0.83177 0.35531 0.0
C2325 C 0.6025 0.83182 0.35949 0.0
C2326 C 0.65144 0.82411 0.36235 0.0
C2327 C 0.6537 0.81899 0.34271 0.0
C2328 C 0.66716 0.82778 0.37614 0.0
C2329 C 0.66693 0.83387 0.39715 0.0
C2330 C 0.66025 0.84964 0.40303 0.0
C2331 C 0.66071 0.85562 0.42292 0.0
C2332 C 0.66788 0.84599 0.43706 0.0
C2333 C 0.67463 0.83036 0.43135 0.0
C2334 C 0.67421 0.82433 0.4115 0.0
C2335 C 0.72695 0.82733 0.3215 0.0
C2336 C 0.73981 0.81999 0.33272 0.0
C2337 C 0.71005 0.8281 0.32726 0.0
C2338 C 0.70483 0.82111 0.34431 0.0
C2339 C 0.71783 0.81403 0.35575 0.0
C2340 C 0.73491 0.81351 0.35012 0.0
C2341 C 0.68617 0.82148 0.35023 0.0
C2342 C 0.68396 0.8264 0.36995 0.0
C2343 C 0.67042 0.81746 0.3366 0.0
C2344 C 0.67056 0.81057 0.31583 0.0
C2345 C 0.67704 0.7945 0.31074 0.0
C2346 C 0.67661 0.78778 0.29106 0.0
C2347 C 0.66968 0.797 0.27637 0.0
C2348 C 0.66315 0.81295 0.28133 0.0
C2349 C 0.66352 0.8197 0.30097 0.0
H2350 H 0.66933 0.79176 0.26115 0.0
H2351 H 0.66826 0.85068 0.45244 0.0
H2352 H 0.05279 0.30744 0.51141 0.0
H2353 H 0.03691 0.27706 0.51427 0.0
H2354 H 0.05737 0.25493 0.46327 0.0
H2355 H 0.07309 0.28521 0.46014 0.0
H2356 H 0.02179 0.2395 0.46475 0.0
H2357 H 0.07867 0.25185 0.5037 0.0
H2358 H 0.10138 0.27299 0.52668 0.0
H2359 H 0.06644 0.27161 0.57063 0.0
H2360 H 0.04335 0.25074 0.5477 0.0
H2361 H 0.03421 0.15062 0.49505 0.0
H2362 H 0.03669 0.18012 0.48225 0.0
H2363 H 1.00318 0.19807 0.52323 0.0
H2364 H 1.00027 0.16866 0.53564 0.0
H2365 H 0.04264 0.21588 0.52575 0.0
H2366 H 0.98671 0.19785 0.4843 0.0
H2367 H 0.96573 0.17794 0.45847 0.0
H2368 H 1.00162 0.18914 0.41658 0.0
H2369 H 0.02302 0.2088 0.44228 0.0
C2370 C 0.05413 0.29604 0.50104 0.0
C2371 C 0.06452 0.29851 0.48592 0.0
C2372 C 0.04477 0.27885 0.50241 0.0
C2373 C 0.04596 0.26394 0.48886 0.0
C2374 C 0.05619 0.26639 0.47366 0.0
C2375 C 0.06548 0.28357 0.47223 0.0
C2376 C 0.03877 0.24543 0.49229 0.0
C2377 C 0.02628 0.23422 0.47802 0.0
C2378 C 0.04492 0.23876 0.50953 0.0
C2379 C 0.05929 0.24977 0.52401 0.0
C2380 C 0.07587 0.25599 0.51831 0.0
C2381 C 0.08877 0.26799 0.53128 0.0
C2382 C 0.08535 0.27365 0.5501 0.0
C2383 C 0.06907 0.2672 0.55604 0.0
C2384 C 0.05607 0.25526 0.54307 0.0
C2385 C 0.02682 0.16064 0.50068 0.0
C2386 C 0.01701 0.15745 0.51621 0.0
C2387 C 0.02821 0.17736 0.4934 0.0
C2388 C 0.02003 0.19103 0.50186 0.0
C2389 C 1.00934 0.18747 0.51645 0.0
C2390 C 1.00767 0.17069 0.52345 0.0
C2391 C 0.02539 0.20988 0.49833 0.0
C2392 C 0.03785 0.22115 0.51257 0.0
C2393 C 0.01952 0.21632 0.48082 0.0
C2394 C 1.00659 0.20462 0.46531 0.0
C2395 C 0.99025 0.19589 0.46965 0.0
C2396 C 0.97825 0.18468 0.45501 0.0
C2397 C 0.98237 0.18222 0.43591 0.0
C2398 C 0.99847 0.19102 0.4314 0.0
C2399 C 1.01054 0.2022 0.446 0.0
H2400 H 0.97306 0.17355 0.4246 0.0
H2401 H 0.09532 0.28304 0.5601 0.0
H2402 H 0.55012 0.2823 0.21163 0.0
H2403 H 0.58038 0.2946 0.22625 0.0
H2404 H 0.59871 0.28332 0.17046 0.0
H2405 H 0.56834 0.27117 0.1555 0.0
H2406 H 0.617 0.27186 0.2051 0.0
H2407 H 0.59878 0.32421 0.18098 0.0
H2408 H 0.57865 0.34601 0.17553 0.0
H2409 H 0.58192 0.36078 0.23755 0.0
H2410 H 0.60191 0.33889 0.24337 0.0
H2411 H 0.70124 0.31628 0.23664 0.0
H2412 H 0.67312 0.31768 0.21763 0.0
H2413 H 0.64803 0.31739 0.27011 0.0
H2414 H 0.67608 0.31553 0.28916 0.0
H2415 H 0.634 0.33692 0.23365 0.0
H2416 H 0.64641 0.2807 0.25774 0.0
H2417 H 0.66261 0.25575 0.26387 0.0
H2418 H 0.66701 0.24571 0.20266 0.0
H2419 H 0.65124 0.27097 0.19626 0.0
C2420 C 0.56062 0.28213 0.20255 0.0
C2421 C 0.55703 0.27598 0.18248 0.0
C2422 C 0.57776 0.28938 0.21083 0.0
C2423 C 0.59138 0.29028 0.19915 0.0
C2424 C 0.58809 0.28298 0.17942 0.0
C2425 C 0.57088 0.27592 0.17103 0.0
C2426 C 0.60923 0.29816 0.20804 0.0
C2427 C 0.62096 0.28616 0.21093 0.0
C2428 C 0.61382 0.31669 0.21602 0.0
C2429 C 0.60176 0.32983 0.21261 0.0
C2430 C 0.59509 0.332 0.19346 0.0
C2431 C 0.58374 0.3444 0.1903 0.0
C2432 C 0.57899 0.35476 0.20618 0.0
C2433 C 0.58561 0.35275 0.22525 0.0
C2434 C 0.59698 0.34037 0.22849 0.0
C2435 C 0.68988 0.31743 0.2442 0.0
C2436 C 0.69042 0.31526 0.26409 0.0
C2437 C 0.67394 0.31827 0.23339 0.0
C2438 C 0.65871 0.3172 0.24258 0.0
C2439 C 0.65983 0.31818 0.26297 0.0
C2440 C 0.67578 0.31715 0.27379 0.0
C2441 C 0.64172 0.31055 0.23075 0.0
C2442 C 0.63018 0.32273 0.22742 0.0
C2443 C 0.63712 0.29205 0.22251 0.0
C2444 C 0.64818 0.27815 0.22663 0.0
C2445 C 0.65133 0.27358 0.24569 0.0
C2446 C 0.66029 0.25926 0.24919 0.0
C2447 C 0.66597 0.24925 0.23369 0.0
C2448 C 0.66276 0.25359 0.21468 0.0
C2449 C 0.65389 0.26795 0.21113 0.0
H2450 H 0.67273 0.23804 0.2364 0.0
H2451 H 0.57021 0.36436 0.2037 0.0
H2452 H 0.59587 0.91127 0.97926 0.0
H2453 H 0.58261 0.93855 0.97691 0.0
H2454 H 0.53689 0.91288 1.00029 0.0
H2455 H 0.54995 0.88579 1.00298 0.0
H2456 H 0.53137 0.94146 0.97252 0.0
H2457 H 0.56282 0.92883 0.03409 0.0
H2458 H 0.5878 0.91894 0.0527 0.0
H2459 H 0.62403 0.96029 0.03235 0.0
H2460 H 0.59918 0.97008 0.01322 0.0
H2461 H 0.50053 0.99785 0.04213 0.0
H2462 H 0.51202 0.97309 0.02481 0.0
H2463 H 0.5608 0.00993 0.02337 0.0
H2464 H 0.54968 0.03368 0.04238 0.0
H2465 H 0.56621 0.97913 0.03171 0.0
H2466 H 0.52954 0.99807 0.98008 0.0
H2467 H 0.50251 1.00636 0.96386 0.0
H2468 H 0.47351 0.95334 0.96824 0.0
H2469 H 0.50037 0.94472 0.98445 0.0
C2470 C 0.58308 0.91157 0.98409 0.0
C2471 C 0.57434 0.89683 0.9922 0.0
C2472 C 0.57527 0.92676 0.98198 0.0
C2473 C 0.55878 0.92739 0.98818 0.0
C2474 C 0.54951 0.91233 0.99511 0.0
C2475 C 0.55736 0.89724 0.99743 0.0
C2476 C 0.55432 0.94502 0.99412 0.0
C2477 C 0.539 0.94999 0.98523 0.0
C2478 C 0.56434 0.9558 0.01075 0.0
C2479 C 0.57928 0.94993 0.02202 0.0
C2480 C 0.57615 0.93563 0.03342 0.0
C2481 C 0.59025 0.93006 0.04406 0.0
C2482 C 0.60751 0.93893 0.04364 0.0
C2483 C 0.61067 0.95338 0.03257 0.0
C2484 C 0.59659 0.95891 0.02179 0.0
C2485 C 0.51404 1.00025 0.03898 0.0
C2486 C 0.52428 0.01777 0.04281 0.0
C2487 C 0.52028 0.98642 0.02844 0.0
C2488 C 0.5367 0.99022 0.02173 0.0
C2489 C 0.54776 1.00704 0.02783 0.0
C2490 C 0.54167 0.02053 0.03897 0.0
C2491 C 0.54321 0.97599 0.01023 0.0
C2492 C 0.5589 0.97138 0.01833 0.0
C2493 C 0.53326 0.96563 0.99314 0.0
C2494 C 0.51698 0.97077 0.98354 0.0
C2495 C 0.51738 0.98821 0.97767 0.0
C2496 C 0.50209 0.99295 0.96843 0.0
C2497 C 0.4863 0.98039 0.96504 0.0
C2498 C 0.48576 0.96305 0.97084 0.0
C2499 C 0.50104 0.9582 0.97998 0.0
H2500 H 0.47448 0.98408 0.9579 0.0
H2501 H 0.61842 0.93466 0.05197 0.0
H2502 H 0.97469 0.75108 0.69565 0.0
H2503 H 0.94984 0.74299 0.7134 0.0
H2504 H 0.91759 0.76926 0.67447 0.0
H2505 H 0.94268 0.7775 0.65653 0.0
H2506 H 0.93154 0.78731 0.71387 0.0
H2507 H 0.90156 0.72778 0.68029 0.0
H2508 H 0.90593 0.69735 0.66664 0.0
H2509 H 0.92633 0.68725 0.7238 0.0
H2510 H 0.92227 0.71776 0.73776 0.0
H2511 H 0.85278 0.79328 0.74444 0.0
H2512 H 0.87429 0.7811 0.72612 0.0
H2513 H 0.89761 0.76285 0.77821 0.0
H2514 H 0.87616 0.77537 0.79689 0.0
H2515 H 0.89258 0.73754 0.73803 0.0
H2516 H 0.92021 0.79568 0.77228 0.0
H2517 H 0.92533 0.82825 0.78544 0.0
H2518 H 0.91677 0.84256 0.72727 0.0
H2519 H 0.91116 0.81011 0.7138 0.0
C2520 C 0.96214 0.75477 0.69067 0.0
C2521 C 0.96046 0.76567 0.6756 0.0
C2522 C 0.94793 0.74971 0.70045 0.0
C2523 C 0.93218 0.75575 0.6952 0.0
C2524 C 0.92982 0.76452 0.67846 0.0
C2525 C 0.94408 0.76949 0.66854 0.0
C2526 C 0.92117 0.75858 0.71039 0.0
C2527 C 0.92264 0.77655 0.71891 0.0
C2528 C 0.91125 0.74415 0.71791 0.0
C2529 C 0.91141 0.72497 0.71011 0.0
C2530 C 0.90674 0.71896 0.68999 0.0
C2531 C 0.90928 0.70175 0.68218 0.0
C2532 C 0.91637 0.69035 0.69436 0.0
C2533 C 0.92075 0.69607 0.71441 0.0
C2534 C 0.91826 0.71329 0.7223 0.0
C2535 C 0.86247 0.78668 0.752 0.0
C2536 C 0.86313 0.78557 0.77211 0.0
C2537 C 0.87456 0.77957 0.74152 0.0
C2538 C 0.88742 0.77125 0.75099 0.0
C2539 C 0.88762 0.7692 0.77081 0.0
C2540 C 0.87548 0.77638 0.78138 0.0
C2541 C 0.90153 0.76667 0.7402 0.0
C2542 C 0.90128 0.74836 0.7329 0.0
C2543 C 0.913 0.78087 0.73384 0.0
C2544 C 0.91497 0.80036 0.74206 0.0
C2545 C 0.91902 0.80572 0.76233 0.0
C2546 C 0.92211 0.82419 0.76983 0.0
C2547 C 0.9213 0.83746 0.75721 0.0
C2548 C 0.91732 0.83228 0.73706 0.0
C2549 C 0.91414 0.81384 0.72949 0.0
H2550 H 0.92382 0.85175 0.76305 0.0
H2551 H 0.9185 0.67711 0.68825 0.0
H2552 H 0.13348 0.07339 0.86884 0.0
H2553 H 0.11896 0.07594 0.89855 0.0
H2554 H 0.1307 0.02392 0.91107 0.0
H2555 H 0.14602 0.02173 0.88175 0.0
H2556 H 0.09482 0.02776 0.91715 0.0
H2557 H 0.15288 0.05914 0.93872 0.0
H2558 H 0.18058 0.08107 0.94049 0.0
H2559 H 0.15235 0.12559 0.94742 0.0
H2560 H 0.1244 0.10391 0.94535 0.0
H2561 H 0.067 0.04138 0.01565 0.0
H2562 H 0.08132 0.03339 0.98652 0.0
H2563 H 0.08521 0.08867 0.97344 0.0
H2564 H 0.07138 0.09656 1.00222 0.0
H2565 H 0.11482 0.08027 0.96885 0.0
H2566 H 0.05589 0.04733 0.94589 0.0
H2567 H 0.02926 0.02445 0.94651 0.0
H2568 H 0.06019 0.98187 0.94414 0.0
H2569 H 0.08706 1.00454 0.9438 0.0
C2570 C 0.13304 0.06243 0.87785 0.0
C2571 C 0.14111 0.04734 0.87253 0.0
C2572 C 0.12467 0.06393 0.89506 0.0
C2573 C 0.12346 0.05016 0.90753 0.0
C2574 C 0.13121 0.03486 0.90203 0.0
C2575 C 0.1401 0.03363 0.88512 0.0
C2576 C 0.11435 0.05197 0.92615 0.0
C2577 C 0.09939 0.03919 0.92851 0.0
C2578 C 0.11989 0.06679 0.94138 0.0
C2579 C 0.13649 0.07987 0.94156 0.0
C2580 C 0.15252 0.0736 0.94027 0.0
C2581 C 0.16828 0.08599 0.94142 0.0
C2582 C 0.16822 0.10471 0.94399 0.0
C2583 C 0.15237 0.11108 0.94536 0.0
C2584 C 0.13656 0.09874 0.94419 0.0
C2585 C 0.07047 0.05171 0.00628 0.0
C2586 C 0.06764 0.06967 0.01151 0.0
C2587 C 0.07886 0.04715 0.98948 0.0
C2588 C 0.08466 0.06034 0.97718 0.0
C2589 C 0.08126 0.07803 0.98228 0.0
C2590 C 0.07306 0.08254 0.99891 0.0
C2591 C 0.09479 0.0565 0.95961 0.0
C2592 C 0.11011 0.06889 0.95747 0.0
C2593 C 0.08961 0.04126 0.94472 0.0
C2594 C 0.07351 0.02766 0.94506 0.0
C2595 C 0.05703 0.03311 0.94568 0.0
C2596 C 0.04189 0.02017 0.94595 0.0
C2597 C 0.04304 1.00173 0.94543 0.0
C2598 C 0.05933 0.99617 0.94459 0.0
C2599 C 0.07451 1.00905 0.94436 0.0
H2600 H 0.0313 0.99173 0.94561 0.0
H2601 H 0.18045 0.11429 0.94498 0.0
H2602 H 0.74558 0.36795 0.60157 0.0
H2603 H 0.75538 0.35732 0.63237 0.0
H2604 H 0.73952 0.40309 0.66455 0.0
H2605 H 0.73056 0.41424 0.63369 0.0
H2606 H 0.76798 0.39826 0.68362 0.0
H2607 H 0.71492 0.35744 0.65875 0.0
H2608 H 0.69368 0.33623 0.6342 0.0
H2609 H 0.73081 0.2997 0.63019 0.0
H2610 H 0.75235 0.32081 0.65456 0.0
H2611 H 0.77035 0.36003 0.77282 0.0
H2612 H 0.76183 0.37179 0.74279 0.0
H2613 H 0.78081 0.32859 0.70981 0.0
H2614 H 0.7885 0.31584 0.74025 0.0
H2615 H 0.75072 0.33314 0.69196 0.0
H2616 H 0.80344 0.37717 0.72096 0.0
H2617 H 0.82019 0.39834 0.74902 0.0
H2618 H 0.77857 0.42974 0.74872 0.0
H2619 H 0.76149 0.40869 0.72079 0.0
C2620 C 0.74399 0.37564 0.61519 0.0
C2621 C 0.73702 0.3918 0.61508 0.0
C2622 C 0.7496 0.36954 0.6329 0.0
C2623 C 0.74794 0.37912 0.65105 0.0
C2624 C 0.74099 0.39532 0.65092 0.0
C2625 C 0.73569 0.40162 0.6332 0.0
C2626 C 0.75336 0.37214 0.66999 0.0
C2627 C 0.76408 0.38404 0.68542 0.0
C2628 C 0.74829 0.35362 0.67275 0.0
C2629 C 0.73529 0.34076 0.65834 0.0
C2630 C 0.71858 0.34492 0.65256 0.0
C2631 C 0.70649 0.33292 0.63869 0.0
C2632 C 0.71091 0.31665 0.63061 0.0
C2633 C 0.72741 0.31232 0.63645 0.0
C2634 C 0.73956 0.32427 0.65031 0.0
C2635 C 0.77301 0.35301 0.75929 0.0
C2636 C 0.78045 0.33701 0.75915 0.0
C2637 C 0.76817 0.35993 0.74197 0.0
C2638 C 0.77113 0.35154 0.72386 0.0
C2639 C 0.77855 0.33554 0.72357 0.0
C2640 C 0.78306 0.32828 0.741 0.0
C2641 C 0.76577 0.35906 0.7053 0.0
C2642 C 0.75486 0.3473 0.69002 0.0
C2643 C 0.77023 0.37782 0.70302 0.0
C2644 C 0.78114 0.39127 0.71882 0.0
C2645 C 0.79788 0.38862 0.72684 0.0
C2646 C 0.80739 0.40055 0.74278 0.0
C2647 C 0.80037 0.41526 0.75076 0.0
C2648 C 0.78395 0.41827 0.74259 0.0
C2649 C 0.77438 0.40639 0.72666 0.0
H2650 H 0.8077 0.42441 0.76316 0.0
H2651 H 0.70154 0.30739 0.61984 0.0
H2652 H 0.4721 0.13234 0.35842 0.0
H2653 H 0.48451 0.12381 0.38964 0.0
H2654 H 0.45153 0.0707 0.37603 0.0
H2655 H 0.43851 0.07959 0.34582 0.0
H2656 H 0.45073 0.07805 0.41044 0.0
H2657 H 0.50071 0.08185 0.37609 0.0
H2658 H 0.52366 0.09537 0.35736 0.0
H2659 H 0.54276 0.138 0.405 0.0
H2660 H 0.51979 0.12484 0.42394 0.0
H2661 H 0.49222 0.0349 0.48391 0.0
H2662 H 0.4841 0.0448 0.45229 0.0
H2663 H 0.50851 0.09996 0.47509 0.0
H2664 H 0.51711 0.08989 0.50695 0.0
H2665 H 0.5142 0.09215 0.43685 0.0
H2666 H 0.46195 0.08399 0.47068 0.0
H2667 H 0.44025 0.06583 0.4876 0.0
H2668 H 0.4268 0.02541 0.43707 0.0
H2669 H 0.44856 0.04323 0.41994 0.0
C2670 C 0.4675 0.11888 0.36215 0.0
C2671 C 0.45411 0.1068 0.34953 0.0
C2672 C 0.47476 0.11385 0.38004 0.0
C2673 C 0.46925 0.09638 0.38559 0.0
C2674 C 0.4561 0.08431 0.37266 0.0
C2675 C 0.44861 0.08945 0.35515 0.0
C2676 C 0.47648 0.09069 0.40494 0.0
C2677 C 0.46469 0.08103 0.41589 0.0
C2678 C 0.49468 0.09444 0.41272 0.0
C2679 C 0.5084 0.10249 0.40133 0.0
C2680 C 0.50971 0.0942 0.3825 0.0
C2681 C 0.52274 0.10177 0.37187 0.0
C2682 C 0.53462 0.11757 0.37996 0.0
C2683 C 0.53352 0.12579 0.39873 0.0
C2684 C 0.52051 0.11827 0.40943 0.0
C2685 C 0.496 0.04916 0.48227 0.0
C2686 C 0.50519 0.06159 0.49823 0.0
C2687 C 0.49123 0.05487 0.46406 0.0
C2688 C 0.49519 0.07331 0.46112 0.0
C2689 C 0.50507 0.08568 0.4768 0.0
C2690 C 0.50999 0.07992 0.49511 0.0
C2691 C 0.48843 0.0796 0.44204 0.0
C2692 C 0.50028 0.08931 0.43123 0.0
C2693 C 0.47035 0.07532 0.43396 0.0
C2694 C 0.45693 0.0649 0.44408 0.0
C2695 C 0.45438 0.07121 0.46321 0.0
C2696 C 0.44208 0.06098 0.47283 0.0
C2697 C 0.43217 0.04447 0.46343 0.0
C2698 C 0.43448 0.0382 0.44434 0.0
C2699 C 0.44677 0.04838 0.43466 0.0
H2700 H 0.42268 0.03655 0.47092 0.0
H2701 H 0.54471 0.12341 0.3717 0.0
H2702 H 0.80331 0.69891 0.0398 0.0
H2703 H 0.81132 0.71714 0.07206 0.0
H2704 H 0.77006 0.68256 0.09447 0.0
H2705 H 0.7622 0.66413 0.06251 0.0
H2706 H 0.76901 0.72185 0.09636 0.0
H2707 H 0.8065 0.67881 0.11275 0.0
H2708 H 0.83006 0.66097 0.10768 0.0
H2709 H 0.8675 0.71042 0.11013 0.0
H2710 H 0.84409 0.72855 0.11504 0.0
H2711 H 0.77354 0.74592 0.19532 0.0
H2712 H 0.77482 0.72901 0.16376 0.0
H2713 H 0.82128 0.76677 0.15641 0.0
H2714 H 0.82021 0.78383 0.1885 0.0
H2715 H 0.82257 0.72939 0.14499 0.0
H2716 H 0.78444 0.77238 0.13192 0.0
H2717 H 0.76005 0.78932 0.13596 0.0
H2718 H 0.72292 0.73904 0.12669 0.0
H2719 H 0.74708 0.7218 0.12272 0.0
C2720 C 0.79614 0.69512 0.05172 0.0
C2721 C 0.78203 0.68036 0.04877 0.0
C2722 C 0.8008 0.70539 0.07005 0.0
C2723 C 0.79124 0.70104 0.0854 0.0
C2724 C 0.77757 0.68594 0.08267 0.0
C2725 C 0.77309 0.67552 0.06447 0.0
C2726 C 0.79396 0.71349 0.10358 0.0
C2727 C 0.78064 0.72346 0.1071 0.0
C2728 C 0.80945 0.71585 0.11701 0.0
C2729 C 0.82352 0.70502 0.11402 0.0
C2730 C 0.81973 0.68587 0.11201 0.0
C2731 C 0.83306 0.67571 0.10923 0.0
C2732 C 0.85026 0.68455 0.10852 0.0
C2733 C 0.85417 0.70358 0.11065 0.0
C2734 C 0.84088 0.71381 0.11346 0.0
C2735 C 0.7843 0.75038 0.18724 0.0
C2736 C 0.79682 0.76611 0.19427 0.0
C2737 C 0.78488 0.74086 0.16914 0.0
C2738 C 0.79792 0.74695 0.15775 0.0
C2739 C 0.81103 0.76209 0.16506 0.0
C2740 C 0.81041 0.77175 0.18325 0.0
C2741 C 0.79735 0.73742 0.13806 0.0
C2742 C 0.81107 0.72804 0.13413 0.0
C2743 C 0.78213 0.73549 0.1242 0.0
C2744 C 0.76761 0.7458 0.12716 0.0
C2745 C 0.7711 0.76493 0.13094 0.0
C2746 C 0.7573 0.77459 0.13315 0.0
C2747 C 0.73995 0.76526 0.13162 0.0
C2748 C 0.73636 0.74625 0.12788 0.0
C2749 C 0.7501 0.73654 0.1256 0.0
H2750 H 0.72929 0.77276 0.1333 0.0
H2751 H 0.86056 0.67666 0.10636 0.0
H2752 H 0.15953 0.05894 0.75226 0.0
H2753 H 0.14328 0.05764 0.71968 0.0
H2754 H 0.09902 0.02286 0.73651 0.0
H2755 H 0.11538 0.02412 0.76938 0.0
H2756 H 0.10532 0.01188 0.69716 0.0
H2757 H 0.09796 0.06807 0.73508 0.0
H2758 H 0.11 0.09692 0.7564 0.0
H2759 H 0.14095 0.11529 0.71233 0.0
H2760 H 0.1292 0.08646 0.69082 0.0
H2761 H 0.04386 0.02163 0.61514 0.0
H2762 H 0.05968 0.01949 0.64729 0.0
H2763 H 0.09779 0.06678 0.64131 0.0
H2764 H 0.08124 0.06945 0.60984 0.0
H2765 H 0.09465 0.07058 0.67574 0.0
H2766 H 0.10436 0.01778 0.63744 0.0
H2767 H 0.09781 0.98863 0.61561 0.0
H2768 H 0.06835 0.96353 0.65748 0.0
H2769 H 0.07449 0.99262 0.67947 0.0
C2770 C 0.14634 0.05096 0.74914 0.0
C2771 C 0.13884 0.0418 0.7638 0.0
C2772 C 0.13698 0.05022 0.73034 0.0
C2773 C 0.11967 0.0403 0.72533 0.0
C2774 C 0.11228 0.03067 0.73974 0.0
C2775 C 0.12165 0.03149 0.75869 0.0
C2776 C 0.10919 0.04085 0.70551 0.0
C2777 C 0.10273 0.02469 0.69261 0.0
C2778 C 0.1063 0.05751 0.69886 0.0
C2779 C 0.11275 0.07512 0.7114 0.0
C2780 C 0.10733 0.07828 0.72995 0.0
C2781 C 0.11411 0.09461 0.74207 0.0
C2782 C 0.12624 0.10792 0.73573 0.0
C2783 C 0.13154 0.10497 0.71721 0.0
C2784 C 0.12479 0.08866 0.70503 0.0
C2785 C 0.0556 0.03158 0.62076 0.0
C2786 C 0.0612 0.04576 0.60988 0.0
C2787 C 0.06486 0.03026 0.63918 0.0
C2788 C 0.08041 0.04275 0.64713 0.0
C2789 C 0.08595 0.05688 0.63602 0.0
C2790 C 0.07647 0.05841 0.61784 0.0
C2791 C 0.09059 0.04154 0.66704 0.0
C2792 C 0.09706 0.05764 0.68007 0.0
C2793 C 0.09397 0.02483 0.67346 0.0
C2794 C 0.08979 1.00743 0.66007 0.0
C2795 C 0.09634 1.0061 0.64193 0.0
C2796 C 0.09273 0.98959 0.62954 0.0
C2797 C 0.08274 0.97425 0.63521 0.0
C2798 C 0.07614 0.97543 0.65316 0.0
C2799 C 0.07968 0.99193 0.66559 0.0
H2800 H 0.08024 0.96142 0.62577 0.0
H2801 H 0.13152 0.12053 0.74516 0.0
H2802 H 0.76066 0.41419 0.50616 0.0
H2803 H 0.76984 0.40173 0.4759 0.0
H2804 H 0.72506 0.35794 0.46823 0.0
H2805 H 0.71644 0.36992 0.49953 0.0
H2806 H 0.75022 0.34407 0.45671 0.0
H2807 H 0.73035 0.39904 0.44075 0.0
H2808 H 0.72958 0.43196 0.44566 0.0
H2809 H 0.78471 0.44412 0.4398 0.0
H2810 H 0.78585 0.41126 0.43507 0.0
H2811 H 0.75643 0.31818 0.35453 0.0
H2812 H 0.74635 0.33128 0.38456 0.0
H2813 H 0.79778 0.36436 0.40186 0.0
H2814 H 0.80806 0.35073 0.37239 0.0
H2815 H 0.76894 0.38404 0.40751 0.0
H2816 H 0.78911 0.33014 0.42417 0.0
H2817 H 0.79087 0.29745 0.42006 0.0
H2818 H 0.73566 0.28384 0.42506 0.0
H2819 H 0.73352 0.31648 0.42886 0.0
C2820 C 0.75262 0.40195 0.49803 0.0
C2821 C 0.7376 0.39326 0.50535 0.0
C2822 C 0.75785 0.39485 0.48043 0.0
C2823 C 0.74796 0.37906 0.46899 0.0
C2824 C 0.73299 0.37021 0.47641 0.0
C2825 C 0.72795 0.37713 0.49435 0.0
C2826 C 0.75346 0.37164 0.44973 0.0
C2827 C 0.75392 0.35288 0.44588 0.0
C2828 C 0.75899 0.38293 0.43544 0.0
C2829 C 0.7582 0.40268 0.43767 0.0
C2830 C 0.74231 0.40873 0.44054 0.0
C2831 C 0.74181 0.42738 0.44331 0.0
C2832 C 0.75709 0.44012 0.44308 0.0
C2833 C 0.77288 0.43423 0.43998 0.0
C2834 C 0.77345 0.4156 0.43721 0.0
C2835 C 0.76562 0.32814 0.36481 0.0
C2836 C 0.78317 0.33309 0.36114 0.0
C2837 C 0.75983 0.33571 0.382 0.0
C2838 C 0.77125 0.3489 0.39573 0.0
C2839 C 0.78863 0.35426 0.3917 0.0
C2840 C 0.79455 0.3463 0.37485 0.0
C2841 C 0.76532 0.35654 0.41454 0.0
C2842 C 0.76495 0.3753 0.41831 0.0
C2843 C 0.75988 0.34532 0.42875 0.0
C2844 C 0.7611 0.32572 0.42654 0.0
C2845 C 0.77731 0.32016 0.42419 0.0
C2846 C 0.77838 0.30165 0.42195 0.0
C2847 C 0.76337 0.28857 0.42223 0.0
C2848 C 0.74727 0.29399 0.4248 0.0
C2849 C 0.74611 0.31249 0.42699 0.0
H2850 H 0.76423 0.27424 0.42051 0.0
H2851 H 0.75669 0.45455 0.44528 0.0
H2852 H 0.43721 0.1225 0.22384 0.0
H2853 H 0.44671 0.11284 0.19246 0.0
H2854 H 0.4796 0.07971 0.22125 0.0
H2855 H 0.47099 0.0903 0.25263 0.0
H2856 H 0.49728 0.09333 0.19914 0.0
H2857 H 0.43815 0.06298 0.18664 0.0
H2858 H 0.40563 0.05623 0.18203 0.0
H2859 H 0.40418 0.09234 0.13807 0.0
H2860 H 0.43667 0.09953 0.1426 0.0
H2861 H 0.52085 0.05732 0.10745 0.0
H2862 H 0.50837 0.05989 0.13834 0.0
H2863 H 0.47844 0.09931 0.11732 0.0
H2864 H 0.48986 0.09556 0.08592 0.0
H2865 H 0.45875 0.07867 0.13564 0.0
H2866 H 0.52229 0.10683 0.15284 0.0
H2867 H 0.55405 0.10491 0.15653 0.0
H2868 H 0.54475 0.06258 0.19316 0.0
H2869 H 0.513 0.06393 0.18923 0.0
C2870 C 0.44666 0.11333 0.22347 0.0
C2871 C 0.45361 0.10746 0.24086 0.0
C2872 C 0.45186 0.10751 0.20539 0.0
C2873 C 0.46381 0.09527 0.20412 0.0
C2874 C 0.47052 0.08925 0.22155 0.0
C2875 C 0.46563 0.09538 0.23963 0.0
C2876 C 0.47046 0.08983 0.18513 0.0
C2877 C 0.48864 0.08985 0.18537 0.0
C2878 C 0.45948 0.08517 0.16685 0.0
C2879 C 0.43991 0.08202 0.1652 0.0
C2880 C 0.43091 0.06975 0.17625 0.0
C2881 C 0.41246 0.06577 0.17357 0.0
C2882 C 0.40284 0.0739 0.15982 0.0
C2883 C 0.41164 0.0861 0.14877 0.0
C2884 C 0.43007 0.09014 0.1514 0.0
C2885 C 0.5117 0.06663 0.10953 0.0
C2886 C 0.5065 0.07643 0.09437 0.0
C2887 C 0.5046 0.06819 0.12729 0.0
C2888 C 0.49274 0.08022 0.13064 0.0
C2889 C 0.48757 0.08996 0.11535 0.0
C2890 C 0.49419 0.08792 0.09738 0.0
C2891 C 0.48548 0.08276 0.14979 0.0
C2892 C 0.4672 0.08216 0.14954 0.0
C2893 C 0.49619 0.08596 0.16822 0.0
C2894 C 0.51529 0.08529 0.17043 0.0
C2895 C 0.52705 0.09699 0.16145 0.0
C2896 C 0.54502 0.09599 0.1636 0.0
C2897 C 0.55139 0.08356 0.17497 0.0
C2898 C 0.53981 0.07212 0.18426 0.0
C2899 C 0.52183 0.07297 0.18203 0.0
H2900 H 0.5653 0.08284 0.17665 0.0
H2901 H 0.38857 0.0707 0.15768 0.0
H2902 H 0.77708 0.6609 0.92896 0.0
H2903 H 0.77912 0.6798 0.90219 0.0
H2904 H 0.75386 0.71892 0.93358 0.0
H2905 H 0.75185 0.70034 0.96024 0.0
H2906 H 0.73926 0.70687 0.8938 0.0
H2907 H 0.79581 0.72969 0.93484 0.0
H2908 H 0.82457 0.72602 0.95159 0.0
H2909 H 0.83912 0.70475 0.8969 0.0
H2910 H 0.81036 0.70819 0.87985 0.0
H2911 H 0.74537 0.78144 0.84312 0.0
H2912 H 0.75132 0.7658 0.87187 0.0
H2913 H 0.78399 0.73473 0.84044 0.0
H2914 H 0.77838 0.75051 0.8121 0.0
H2915 H 0.79575 0.7405 0.87849 0.0
H2916 H 0.74083 0.71857 0.83682 0.0
H2917 H 0.71151 0.71912 0.81917 0.0
H2918 H 0.69307 0.73541 0.87336 0.0
H2919 H 0.72234 0.73516 0.89129 0.0
C2920 C 0.77187 0.67348 0.93 0.0
C2921 C 0.76425 0.67924 0.94649 0.0
C2922 C 0.77317 0.68424 0.91487 0.0
C2923 C 0.76672 0.70065 0.9162 0.0
C2924 C 0.75891 0.70624 0.9325 0.0
C2925 C 0.75776 0.69565 0.94763 0.0
C2926 C 0.76754 0.71204 0.90046 0.0
C2927 C 0.75156 0.7144 0.89051 0.0
C2928 C 0.78369 0.72116 0.89592 0.0
C2929 C 0.8009 0.719 0.90614 0.0
C2930 C 0.80509 0.72408 0.92643 0.0
C2931 C 0.82141 0.7221 0.93596 0.0
C2932 C 0.83365 0.71511 0.92533 0.0
C2933 C 0.82961 0.71014 0.90512 0.0
C2934 C 0.81333 0.71213 0.89552 0.0
C2935 C 0.75453 0.77195 0.84286 0.0
C2936 C 0.76136 0.76689 0.82568 0.0
C2937 C 0.75775 0.76292 0.85908 0.0
C2938 C 0.76772 0.74888 0.85791 0.0
C2939 C 0.77625 0.7455 0.8415 0.0
C2940 C 0.77303 0.75448 0.82539 0.0
C2941 C 0.76735 0.73603 0.87238 0.0
C2942 C 0.78341 0.7331 0.88181 0.0
C2943 C 0.75122 0.72613 0.87627 0.0
C2944 C 0.73386 0.72713 0.86536 0.0
C2945 C 0.7306 0.72253 0.84493 0.0
C2946 C 0.71396 0.72271 0.83489 0.0
C2947 C 0.70045 0.72737 0.84512 0.0
C2948 C 0.70355 0.73187 0.86543 0.0
C2949 C 0.72016 0.73171 0.87554 0.0
H2950 H 0.68757 0.72744 0.83733 0.0
H2951 H 0.84627 0.71358 0.93274 0.0
H2952 H 0.90371 0.19883 0.06542 0.0
H2953 H 0.92888 0.18286 0.06504 0.0
H2954 H 0.89471 0.13505 0.03334 0.0
H2955 H 0.86949 0.15071 0.03454 0.0
H2956 H 0.91448 0.12429 0.0594 0.0
H2957 H 0.92852 0.16753 0.01299 0.0
H2958 H 0.93548 0.19795 1.00228 0.0
H2959 H 0.97884 0.21306 0.04848 0.0
H2960 H 0.97206 0.18281 0.05955 0.0
H2961 H 0.98259 0.07409 0.03745 0.0
H2962 H 0.9575 0.09039 0.0357 0.0
H2963 H 0.99169 0.13945 0.06452 0.0
H2964 H 0.01659 0.12373 0.0653 0.0
H2965 H 0.97196 0.14974 0.03956 0.0
H2966 H 0.95891 0.1097 0.08765 0.0
H2967 H 0.95316 0.08053 0.10125 0.0
H2968 H 0.90947 0.06107 0.05611 0.0
H2969 H 0.91505 0.09009 0.0422 0.0
C2970 C 0.90158 0.18492 0.05834 0.0
C2971 C 0.8845 0.17606 0.05011 0.0
C2972 C 0.91608 0.17579 0.05795 0.0
C2973 C 0.91398 0.15767 0.04889 0.0
C2974 C 0.89689 0.14895 0.04048 0.0
C2975 C 0.88239 0.15796 0.04115 0.0
C2976 C 0.92919 0.14738 0.04888 0.0
C2977 C 0.92694 0.12982 0.05473 0.0
C2978 C 0.94588 0.15465 0.04365 0.0
C2979 C 0.94966 0.17297 0.03721 0.0
C2980 C 0.93944 0.1774 0.02096 0.0
C2981 C 0.94338 0.1946 0.0148 0.0
C2982 C 0.95756 0.20744 0.02472 0.0
C2983 C 0.96785 0.20312 0.04082 0.0
C2984 C 0.96397 0.18595 0.04703 0.0
C2985 C 0.98476 0.0884 0.0432 0.0
C2986 C 1.00179 0.0975 0.05132 0.0
C2987 C 0.97032 0.09772 0.04243 0.0
C2988 C 0.97242 0.11627 0.05023 0.0
C2989 C 0.98946 0.12527 0.05825 0.0
C2990 C 1.00384 0.11613 0.05868 0.0
C2991 C 0.9572 0.12658 0.04995 0.0
C2992 C 0.95947 0.14417 0.04413 0.0
C2993 C 0.94067 0.11953 0.05565 0.0
C2994 C 0.93752 0.10197 0.06377 0.0
C2995 C 0.94818 0.09913 0.08054 0.0
C2996 C 0.94492 0.08265 0.08833 0.0
C2997 C 0.93099 0.06893 0.07951 0.0
C2998 C 0.92027 0.07169 0.06291 0.0
C2999 C 0.92346 0.08816 0.05508 0.0
H3000 H 0.92847 0.05618 0.08557 0.0
H3001 H 0.96061 0.22073 0.0199 0.0
H3002 H 0.34679 0.51499 0.09507 0.0
H3003 H 0.37439 0.52382 0.08128 0.0
H3004 H 0.39488 0.47916 0.10429 0.0
H3005 H 0.3676 0.47034 0.11803 0.0
H3006 H 0.4162 0.5132 0.11537 0.0
H3007 H 0.38448 0.47573 0.05752 0.0
H3008 H 0.36116 0.46557 0.02948 0.0
H3009 H 0.37334 0.5173 0.00827 0.0
H3010 H 0.39661 0.52786 0.03631 0.0
H3011 H 0.49185 0.49945 0.0717 0.0
H3012 H 0.46137 0.4953 0.07925 0.0
H3013 H 0.4561 0.54776 0.06157 0.0
H3014 H 0.4869 0.55227 0.05464 0.0
H3015 H 0.42626 0.51396 0.04604 0.0
H3016 H 0.45818 0.5509 0.10459 0.0
H3017 H 0.48213 0.55964 0.13219 0.0
H3018 H 0.46907 0.5071 0.15144 0.0
H3019 H 0.44514 0.49802 0.12383 0.0
C3020 C 0.35733 0.50728 0.09743 0.0
C3021 C 0.35526 0.49229 0.10809 0.0
C3022 C 0.3729 0.5121 0.08922 0.0
C3023 C 0.38657 0.50204 0.09167 0.0
C3024 C 0.38444 0.48706 0.1022 0.0
C3025 C 0.36894 0.48219 0.11027 0.0
C3026 C 0.40396 0.50817 0.08542 0.0
C3027 C 0.41835 0.51329 0.10018 0.0
C3028 C 0.40666 0.50875 0.06561 0.0
C3029 C 0.39211 0.50271 0.04923 0.0
C3030 C 0.382 0.48506 0.04707 0.0
C3031 C 0.36885 0.47919 0.03111 0.0
C3032 C 0.36572 0.49081 0.01715 0.0
C3033 C 0.37574 0.50833 0.01913 0.0
C3034 C 0.38891 0.51426 0.03505 0.0
C3035 C 0.4842 0.51012 0.06953 0.0
C3036 C 0.4917 0.52623 0.06283 0.0
C3037 C 0.46682 0.50771 0.07374 0.0
C3038 C 0.45652 0.52118 0.07083 0.0
C3039 C 0.46387 0.53721 0.06383 0.0
C3040 C 0.48145 0.53983 0.06009 0.0
C3041 C 0.43836 0.5186 0.07605 0.0
C3042 C 0.42392 0.51415 0.06119 0.0
C3043 C 0.43545 0.5185 0.09575 0.0
C3044 C 0.45005 0.52373 0.11206 0.0
C3045 C 0.46057 0.54115 0.11459 0.0
C3046 C 0.47409 0.54619 0.13027 0.0
C3047 C 0.47716 0.53391 0.14353 0.0
C3048 C 0.4667 0.51658 0.14114 0.0
C3049 C 0.45315 0.51149 0.1255 0.0
H3050 H 0.48762 0.53784 0.15568 0.0
H3051 H 0.35558 0.48622 1.00477 0.0
H3052 H 0.36671 0.62656 0.76498 0.0
H3053 H 0.35598 0.65578 0.76699 0.0
H3054 H 0.3822 0.6699 0.82598 0.0
H3055 H 0.39295 0.64079 0.8239 0.0
H3056 H 0.35363 0.68181 0.82727 0.0
H3057 H 0.39501 0.69248 0.78346 0.0
H3058 H 0.4113 0.69018 0.75498 0.0
H3059 H 0.36444 0.69243 0.71668 0.0
H3060 H 0.34779 0.69455 0.74491 0.0
H3061 H 0.34229 0.77764 0.83254 0.0
H3062 H 0.35516 0.74958 0.82983 0.0
H3063 H 0.31744 0.72747 0.77926 0.0
H3064 H 0.30404 0.75506 0.78256 0.0
H3065 H 0.35278 0.7208 0.77398 0.0
H3066 H 0.31244 0.71055 0.82171 0.0
H3067 H 0.30032 0.71812 0.85237 0.0
H3068 H 0.35093 0.71965 0.88538 0.0
H3069 H 0.36339 0.71224 0.85487 0.0
C3070 C 0.37026 0.63581 0.77845 0.0
C3071 C 0.38079 0.63066 0.79429 0.0
C3072 C 0.36414 0.6529 0.77958 0.0
C3073 C 0.36805 0.66589 0.79668 0.0
C3074 C 0.37858 0.66068 0.81249 0.0
C3075 C 0.38486 0.64372 0.81127 0.0
C3076 C 0.36082 0.68427 0.79842 0.0
C3077 C 0.35375 0.69023 0.81551 0.0
C3078 C 0.36056 0.6961 0.78349 0.0
C3079 C 0.37005 0.69331 0.7663 0.0
C3080 C 0.38807 0.69211 0.76893 0.0
C3081 C 0.39741 0.69096 0.75284 0.0
C3082 C 0.38889 0.69106 0.73402 0.0
C3083 C 0.371 0.69227 0.73125 0.0
C3084 C 0.3616 0.69343 0.7473 0.0
C3085 C 0.33659 0.76681 0.82088 0.0
C3086 C 0.32177 0.76897 0.80798 0.0
C3087 C 0.34405 0.75053 0.81929 0.0
C3088 C 0.3375 0.73576 0.8043 0.0
C3089 C 0.32302 0.73819 0.79108 0.0
C3090 C 0.3152 0.75417 0.79307 0.0
C3091 C 0.34541 0.7179 0.80255 0.0
C3092 C 0.35261 0.71215 0.78555 0.0
C3093 C 0.34628 0.70653 0.81773 0.0
C3094 C 0.33886 0.711 0.83603 0.0
C3095 C 0.321 0.71263 0.83551 0.0
C3096 C 0.31407 0.71686 0.85285 0.0
C3097 C 0.32486 0.7194 0.87081 0.0
C3098 C 0.3426 0.71769 0.87146 0.0
C3099 C 0.34959 0.71345 0.85415 0.0
H3100 H 0.31946 0.72266 0.88422 0.0
H3101 H 0.39617 0.69028 0.7216 0.0
H3102 H 0.29328 0.65277 0.51703 0.0
H3103 H 0.26195 0.63813 0.50991 0.0
H3104 H 0.24827 0.68025 0.54968 0.0
H3105 H 0.27911 0.69491 0.55659 0.0
H3106 H 0.23819 0.64358 0.55772 0.0
H3107 H 0.2353 0.68101 0.50583 0.0
H3108 H 0.24197 0.69312 0.4753 0.0
H3109 H 0.22575 0.63959 0.44336 0.0
H3110 H 0.21921 0.62709 0.47377 0.0
H3111 H 0.14727 0.6315 0.55498 0.0
H3112 H 0.17738 0.64468 0.55129 0.0
H3113 H 0.17795 0.60178 0.50484 0.0
H3114 H 0.14734 0.58872 0.50799 0.0
H3115 H 0.19532 0.63541 0.49742 0.0
H3116 H 0.1973 0.5986 0.55021 0.0
H3117 H 0.18946 0.58778 0.581 0.0
H3118 H 0.2071 0.64177 0.61145 0.0
H3119 H 0.21491 0.65293 0.5808 0.0
C3120 C 0.28353 0.65889 0.52414 0.0
C3121 C 0.28867 0.67482 0.53759 0.0
C3122 C 0.26566 0.65066 0.5199 0.0
C3123 C 0.25281 0.65818 0.52923 0.0
C3124 C 0.25795 0.67429 0.54225 0.0
C3125 C 0.27562 0.68258 0.54627 0.0
C3126 C 0.23439 0.64833 0.52762 0.0
C3127 C 0.22881 0.64187 0.54453 0.0
C3128 C 0.2223 0.64572 0.51027 0.0
C3129 C 0.22709 0.65305 0.49217 0.0
C3130 C 0.23347 0.67175 0.49238 0.0
C3131 C 0.23713 0.67871 0.47506 0.0
C3132 C 0.23438 0.66712 0.45742 0.0
C3133 C 0.22795 0.64854 0.45705 0.0
C3134 C 0.22428 0.64151 0.47432 0.0
C3135 C 0.15358 0.62503 0.54366 0.0
C3136 C 0.14484 0.60897 0.53185 0.0
C3137 C 0.17091 0.6325 0.54171 0.0
C3138 C 0.18006 0.62402 0.52806 0.0
C3139 C 0.17119 0.60846 0.51559 0.0
C3140 C 0.15376 0.60095 0.51752 0.0
C3141 C 0.1991 0.63105 0.52768 0.0
C3142 C 0.20481 0.63689 0.51048 0.0
C3143 C 0.21142 0.63325 0.5448 0.0
C3144 C 0.20657 0.6266 0.5632 0.0
C3145 C 0.19939 0.60818 0.56345 0.0
C3146 C 0.19498 0.60198 0.58088 0.0
C3147 C 0.19775 0.61408 0.59816 0.0
C3148 C 0.20496 0.63241 0.59806 0.0
C3149 C 0.2094 0.63867 0.58067 0.0
H3150 H 0.19434 0.60925 0.61165 0.0
H3151 H 0.23714 0.67255 0.44402 0.0
H3152 H 0.67959 0.96803 0.83091 0.0
H3153 H 0.69526 0.94224 0.83155 0.0
H3154 H 0.66317 0.91622 0.77782 0.0
H3155 H 0.64639 0.94116 0.77848 0.0
H3156 H 0.66653 0.89215 0.79738 0.0
H3157 H 0.71084 0.94083 0.78411 0.0
H3158 H 0.72896 0.97161 0.79122 0.0
H3159 H 0.75178 0.95838 0.84601 0.0
H3160 H 0.73365 0.92757 0.83931 0.0
H3161 H 0.71654 0.82684 0.76663 0.0
H3162 H 0.70306 0.85392 0.76998 0.0
H3163 H 0.73342 0.87122 0.82684 0.0
H3164 H 0.74791 0.84454 0.82292 0.0
H3165 H 0.73173 0.89987 0.80912 0.0
H3166 H 0.68475 0.84855 0.81741 0.0
H3167 H 0.66409 0.81956 0.8066 0.0
H3168 H 0.64593 0.84007 0.75392 0.0
H3169 H 0.66655 0.86901 0.76431 0.0
C3170 C 0.67589 0.95669 0.81934 0.0
C3171 C 0.66186 0.95651 0.8046 0.0
C3172 C 0.68501 0.94203 0.81954 0.0
C3173 C 0.68088 0.92733 0.80443 0.0
C3174 C 0.66675 0.92728 0.78971 0.0
C3175 C 0.65714 0.94155 0.79 0.0
C3176 C 0.69069 0.91166 0.80407 0.0
C3177 C 0.68082 0.89401 0.79966 0.0
C3178 C 0.70937 0.91374 0.80759 0.0
C3179 C 0.72081 0.93196 0.81127 0.0
C3180 C 0.71973 0.9445 0.79767 0.0
C3181 C 0.72998 0.96195 0.80164 0.0
C3182 C 0.74148 0.96696 0.81907 0.0
C3183 C 0.74285 0.95448 0.83252 0.0
C3184 C 0.73262 0.93701 0.82863 0.0
C3185 C 0.72025 0.83628 0.77996 0.0
C3186 C 0.73305 0.83327 0.79469 0.0
C3187 C 0.71243 0.85181 0.78193 0.0
C3188 C 0.71666 0.86445 0.799 0.0
C3189 C 0.72969 0.86164 0.81362 0.0
C3190 C 0.73788 0.84628 0.81144 0.0
C3191 C 0.70746 0.88049 0.80151 0.0
C3192 C 0.71745 0.89815 0.80671 0.0
C3193 C 0.68886 0.87859 0.79793 0.0
C3194 C 0.67715 0.86085 0.79161 0.0
C3195 C 0.67642 0.84677 0.80348 0.0
C3196 C 0.66468 0.83039 0.79743 0.0
C3197 C 0.65365 0.82808 0.77961 0.0
C3198 C 0.65444 0.84196 0.76772 0.0
C3199 C 0.66611 0.85831 0.77368 0.0
H3200 H 0.6444 0.81564 0.77485 0.0
H3201 H 0.74936 0.9805 0.82215 0.0
H3202 H 0.74008 0.96364 0.61811 0.0
H3203 H 0.71166 0.96778 0.6016 0.0
H3204 H 0.73904 1.00351 0.56554 0.0
H3205 H 0.76725 1.00056 0.58326 0.0
H3206 H 0.71494 0.01768 0.57573 0.0
H3207 H 0.71525 0.95567 0.5495 0.0
H3208 H 0.71636 0.92293 0.54918 0.0
H3209 H 0.67136 0.91608 0.58039 0.0
H3210 H 0.67009 0.94877 0.5811 0.0
H3211 H 0.63744 0.02786 0.52032 0.0
H3212 H 0.66438 0.01529 0.52622 0.0
H3213 H 0.64291 0.98716 0.57171 0.0
H3214 H 0.61557 0.99909 0.56534 0.0
H3215 H 0.6641 0.9678 0.55272 0.0
H3216 H 0.6666 0.03043 0.58167 0.0
H3217 H 0.66558 0.06315 0.58176 0.0
H3218 H 0.70631 0.06818 0.54442 0.0
H3219 H 0.70736 0.03543 0.54387 0.0
C3220 C 0.73988 0.97273 0.60698 0.0
C3221 C 0.75568 0.98225 0.60229 0.0
C3222 C 0.72369 0.97473 0.5972 0.0
C3223 C 0.72312 0.98563 0.58195 0.0
C3224 C 0.73905 0.99506 0.57727 0.0
C3225 C 0.75516 0.99359 0.58754 0.0
C3226 C 0.70602 0.98858 0.57197 0.0
C3227 C 0.70404 1.00663 0.57025 0.0
C3228 C 0.69149 0.97428 0.56529 0.0
C3229 C 0.69269 0.95474 0.56551 0.0
C3230 C 0.70572 0.94723 0.55649 0.0
C3231 C 0.70634 0.92866 0.55619 0.0
C3232 C 0.69396 0.91745 0.56479 0.0
C3233 C 0.68095 0.92477 0.57375 0.0
C3234 C 0.68027 0.94332 0.57409 0.0
C3235 C 0.63817 0.01848 0.5311 0.0
C3236 C 0.62452 0.01474 0.54264 0.0
C3237 C 0.65365 0.01143 0.53456 0.0
C3238 C 0.65578 1.00071 0.54974 0.0
C3239 C 0.64157 0.99558 0.56006 0.0
C3240 C 0.62604 1.00254 0.55653 0.0
C3241 C 0.67335 0.99675 0.55654 0.0
C3242 C 0.6753 0.97863 0.5578 0.0
C3243 C 0.68798 0.01091 0.56269 0.0
C3244 C 0.68687 0.03044 0.5625 0.0
C3245 C 0.67517 0.03847 0.57328 0.0
C3246 C 0.67462 0.05703 0.57346 0.0
C3247 C 0.68583 0.06772 0.56305 0.0
C3248 C 0.69759 0.05988 0.55242 0.0
C3249 C 0.69815 0.04132 0.55215 0.0
H3250 H 0.68544 0.08211 0.56328 0.0
H3251 H 0.69444 0.90307 0.56449 0.0
H3252 H 0.39928 0.5166 0.81253 0.0
H3253 H 0.38687 0.48506 0.81543 0.0
H3254 H 0.34193 0.48799 0.7741 0.0
H3255 H 0.35393 0.52016 0.77237 0.0
H3256 H 0.32863 0.46727 0.79478 0.0
H3257 H 0.3832 0.4612 0.76896 0.0
H3258 H 0.41542 0.4668 0.76842 0.0
H3259 H 0.42325 0.44775 0.82441 0.0
H3260 H 0.3911 0.44217 0.82535 0.0
H3261 H 0.29361 0.3702 0.78592 0.0
H3262 H 0.3064 0.4014 0.78112 0.0
H3263 H 0.35193 0.39953 0.82206 0.0
H3264 H 0.33972 0.36813 0.82566 0.0
H3265 H 0.36534 0.41951 0.80078 0.0
H3266 H 0.31145 0.42708 0.82745 0.0
H3267 H 0.27927 0.42133 0.82834 0.0
H3268 H 0.2707 0.43778 0.77111 0.0
H3269 H 0.30281 0.44347 0.76984 0.0
C3270 C 0.38672 0.51065 0.80396 0.0
C3271 C 0.37785 0.52156 0.79215 0.0
C3272 C 0.37957 0.49209 0.80542 0.0
C3273 C 0.3633 0.4829 0.7946 0.0
C3274 C 0.35442 0.49392 0.78281 0.0
C3275 C 0.3614 0.51267 0.78171 0.0
C3276 C 0.35532 0.46244 0.79597 0.0
C3277 C 0.33688 0.45696 0.79575 0.0
C3278 C 0.36541 0.44812 0.79789 0.0
C3279 C 0.38474 0.45143 0.79729 0.0
C3280 C 0.3918 0.45828 0.78119 0.0
C3281 C 0.41005 0.46144 0.78081 0.0
C3282 C 0.42137 0.45768 0.79639 0.0
C3283 C 0.41447 0.45068 0.81236 0.0
C3284 C 0.39623 0.4475 0.81281 0.0
C3285 C 0.30627 0.37641 0.79408 0.0
C3286 C 0.31523 0.36606 0.80648 0.0
C3287 C 0.31374 0.39472 0.79147 0.0
C3288 C 0.33036 0.4041 0.80159 0.0
C3289 C 0.33923 0.39354 0.81384 0.0
C3290 C 0.332 0.3752 0.81607 0.0
C3291 C 0.33862 0.42439 0.79956 0.0
C3292 C 0.35711 0.42983 0.79973 0.0
C3293 C 0.32865 0.43873 0.79764 0.0
C3294 C 0.30945 0.43552 0.79849 0.0
C3295 C 0.30267 0.42941 0.81505 0.0
C3296 C 0.28446 0.42616 0.81562 0.0
C3297 C 0.27295 0.42914 0.79977 0.0
C3298 C 0.27963 0.43545 0.78335 0.0
C3299 C 0.29782 0.4387 0.78271 0.0
H3300 H 0.25886 0.42659 0.80022 0.0
H3301 H 0.43549 0.46015 0.79608 0.0
H3302 H 0.18934 0.54588 0.32855 0.0
H3303 H 0.20581 0.57722 0.33553 0.0
H3304 H 0.15892 0.59746 0.31529 0.0
H3305 H 0.14242 0.5663 0.30842 0.0
H3306 H 0.18673 0.60914 0.29651 0.0
H3307 H 0.17502 0.60711 0.36243 0.0
H3308 H 0.17422 0.59561 0.39439 0.0
H3309 H 0.23066 0.60103 0.40204 0.0
H3310 H 0.23179 0.61242 0.37002 0.0
H3311 H 0.21768 0.70346 0.31587 0.0
H3312 H 0.20135 0.67405 0.32129 0.0
H3313 H 0.2501 0.65404 0.33217 0.0
H3314 H 0.26659 0.68314 0.32606 0.0
H3315 H 0.22192 0.64253 0.35766 0.0
H3316 H 0.23264 0.64258 0.29019 0.0
H3317 H 0.23272 0.65465 0.25848 0.0
H3318 H 0.17671 0.65263 0.25429 0.0
H3319 H 0.17636 0.64077 0.28613 0.0
C3320 C 0.18254 0.55704 0.32572 0.0
C3321 C 0.16467 0.55364 0.31762 0.0
C3322 C 0.19191 0.57494 0.32992 0.0
C3323 C 0.18358 0.58969 0.32598 0.0
C3324 C 0.1656 0.58629 0.31848 0.0
C3325 C 0.15621 0.56847 0.31446 0.0
C3326 C 0.19396 0.60837 0.32726 0.0
C3327 C 0.19418 0.61651 0.30999 0.0
C3328 C 0.2041 0.6178 0.34472 0.0
C3329 C 0.20347 0.61042 0.36371 0.0
C3330 C 0.18725 0.60564 0.37081 0.0
C3331 C 0.18674 0.59921 0.38897 0.0
C3332 C 0.20237 0.59754 0.40021 0.0
C3333 C 0.21855 0.60231 0.3933 0.0
C3334 C 0.21914 0.60878 0.37516 0.0
C3335 C 0.225 0.69286 0.31945 0.0
C3336 C 0.24349 0.69567 0.32013 0.0
C3337 C 0.21563 0.67612 0.32277 0.0
C3338 C 0.22452 0.66185 0.32704 0.0
C3339 C 0.243 0.66492 0.32903 0.0
C3340 C 0.2524 0.68162 0.32552 0.0
C3341 C 0.2144 0.64322 0.32695 0.0
C3342 C 0.21436 0.63509 0.34429 0.0
C3343 C 0.20431 0.63368 0.30959 0.0
C3344 C 0.20452 0.64104 0.29063 0.0
C3345 C 0.22039 0.64492 0.28261 0.0
C3346 C 0.22047 0.65167 0.26459 0.0
C3347 C 0.20474 0.65447 0.25441 0.0
C3348 C 0.18889 0.6505 0.26222 0.0
C3349 C 0.18874 0.64376 0.28024 0.0
H3350 H 0.20483 0.65966 0.24044 0.0
H3351 H 0.20196 0.59261 0.41429 0.0
H3352 H 0.56866 0.78384 0.42859 0.0
H3353 H 0.57081 0.76435 0.45458 0.0
H3354 H 0.51689 0.76679 0.46332 0.0
H3355 H 0.51521 0.7873 0.43801 0.0
H3356 H 0.53579 0.76927 0.49736 0.0
H3357 H 0.52956 0.72803 0.43808 0.0
H3358 H 0.53673 0.7171 0.40561 0.0
H3359 H 0.58933 0.71466 0.43085 0.0
H3360 H 0.58254 0.7258 0.46342 0.0
H3361 H 0.53143 0.68662 0.54681 0.0
H3362 H 0.52623 0.71081 0.52677 0.0
H3363 H 0.58157 0.7218 0.52061 0.0
H3364 H 0.58691 0.698 0.54074 0.0
H3365 H 0.55908 0.71187 0.48541 0.0
H3366 H 0.56503 0.75285 0.54491 0.0
H3367 H 0.55833 0.7654 0.57699 0.0
H3368 H 0.50598 0.76851 0.55156 0.0
H3369 H 0.51225 0.75569 0.51935 0.0
C3370 C 0.5572 0.77989 0.43585 0.0
C3371 C 0.54161 0.7865 0.43102 0.0
C3372 C 0.55842 0.7688 0.45072 0.0
C3373 C 0.54386 0.76367 0.46066 0.0
C3374 C 0.52825 0.77041 0.45582 0.0
C3375 C 0.5272 0.7819 0.44123 0.0
C3376 C 0.54507 0.75131 0.47604 0.0
C3377 C 0.54058 0.75654 0.49467 0.0
C3378 C 0.55156 0.73482 0.47268 0.0
C3379 C 0.55556 0.72783 0.45315 0.0
C3380 C 0.54267 0.72522 0.43668 0.0
C3381 C 0.54667 0.71899 0.41826 0.0
C3382 C 0.56348 0.71521 0.41616 0.0
C3383 C 0.57632 0.71759 0.43249 0.0
C3384 C 0.57239 0.72384 0.45094 0.0
C3385 C 0.54256 0.69451 0.54159 0.0
C3386 C 0.55956 0.69015 0.54509 0.0
C3387 C 0.53956 0.70836 0.53018 0.0
C3388 C 0.55351 0.71806 0.52215 0.0
C3389 C 0.5706 0.71443 0.5266 0.0
C3390 C 0.57361 0.7007 0.53797 0.0
C3391 C 0.55017 0.72997 0.50684 0.0
C3392 C 0.55414 0.72452 0.48811 0.0
C3393 C 0.54309 0.74611 0.51018 0.0
C3394 C 0.53903 0.75298 0.52975 0.0
C3395 C 0.55198 0.75588 0.5462 0.0
C3396 C 0.54829 0.76315 0.5644 0.0
C3397 C 0.53172 0.76767 0.56633 0.0
C3398 C 0.51879 0.76493 0.55006 0.0
C3399 C 0.52241 0.75766 0.53183 0.0
H3400 H 0.52891 0.77336 0.58042 0.0
H3401 H 0.56656 0.7104 0.40189 0.0
H3402 H 0.5776 0.30659 0.76724 0.0
H3403 H 0.60918 0.31172 0.78006 0.0
H3404 H 0.62138 0.29462 0.72259 0.0
H3405 H 0.59003 0.2897 0.70977 0.0
H3406 H 0.63971 0.27921 0.74861 0.0
H3407 H 0.63201 0.33934 0.74177 0.0
H3408 H 0.61854 0.36692 0.74516 0.0
H3409 H 0.63053 0.37173 0.80764 0.0
H3410 H 0.64394 0.34404 0.80463 0.0
H3411 H 0.73191 0.30379 0.76664 0.0
H3412 H 0.70151 0.3057 0.75466 0.0
H3413 H 0.69116 0.31833 0.81387 0.0
H3414 H 0.72203 0.31664 0.82598 0.0
H3415 H 0.67199 0.33693 0.78704 0.0
H3416 H 0.68021 0.27449 0.79096 0.0
H3417 H 0.69488 0.2481 0.78408 0.0
H3418 H 0.68261 0.24928 0.72236 0.0
H3419 H 0.66805 0.27581 0.72889 0.0
C3420 C 0.587 0.30389 0.75734 0.0
C3421 C 0.58109 0.29763 0.73744 0.0
C3422 C 0.60516 0.30697 0.76467 0.0
C3423 C 0.61798 0.30369 0.75238 0.0
C3424 C 0.612 0.29729 0.73254 0.0
C3425 C 0.59394 0.29447 0.72518 0.0
C3426 C 0.63745 0.30639 0.76019 0.0
C3427 C 0.6467 0.29193 0.75686 0.0
C3428 C 0.64694 0.32292 0.77103 0.0
C3429 C 0.6388 0.33949 0.773 0.0
C3430 C 0.63163 0.34618 0.75625 0.0
C3431 C 0.62404 0.36186 0.75809 0.0
C3432 C 0.62363 0.37104 0.7766 0.0
C3433 C 0.63084 0.36458 0.79331 0.0
C3434 C 0.63846 0.34891 0.79155 0.0
C3435 C 0.72335 0.30751 0.77716 0.0
C3436 C 0.72962 0.31022 0.79732 0.0
C3437 C 0.70579 0.30843 0.77025 0.0
C3438 C 0.69362 0.31176 0.78324 0.0
C3439 C 0.70009 0.31565 0.8034 0.0
C3440 C 0.71786 0.31482 0.81037 0.0
C3441 C 0.67409 0.3096 0.77573 0.0
C3442 C 0.66489 0.32418 0.77897 0.0
C3443 C 0.66467 0.2933 0.76437 0.0
C3444 C 0.67315 0.27719 0.76042 0.0
C3445 C 0.68072 0.26916 0.77593 0.0
C3446 C 0.689 0.25418 0.77209 0.0
C3447 C 0.6897 0.24703 0.75279 0.0
C3448 C 0.68206 0.25483 0.73729 0.0
C3449 C 0.67377 0.26982 0.74105 0.0
H3450 H 0.69613 0.23545 0.74985 0.0
H3451 H 0.61776 0.38319 0.77801 0.0
H3452 H 0.02046 0.37937 0.90866 0.0
H3453 H 1.01439 0.40367 0.93192 0.0
H3454 H 0.06394 0.40387 0.96738 0.0
H3455 H 0.06926 0.3785 0.94482 0.0
H3456 H 0.04147 0.40658 0.99047 0.0
H3457 H 0.05549 0.43833 0.93622 0.0
H3458 H 0.05338 0.44432 0.90183 0.0
H3459 H 0.99907 0.44952 0.90251 0.0
H3460 H 1.00079 0.4433 0.93682 0.0
H3461 H 0.05112 0.4971 0.03939 0.0
H3462 H 0.053 0.46846 0.01996 0.0
H3463 H 0.99769 0.46149 0.99797 0.0
H3464 H 0.99566 0.49008 0.01766 0.0
H3465 H 0.02108 0.46154 0.96903 0.0
H3466 H 1.00927 0.43164 0.02559 0.0
H3467 H 1.01441 0.42988 0.06102 0.0
H3468 H 0.06844 0.42543 0.05676 0.0
H3469 H 0.06365 0.42729 0.0213 0.0
C3470 C 0.03021 0.38493 0.9212 0.0
C3471 C 0.04546 0.37739 0.92482 0.0
C3472 C 0.02674 0.3988 0.93454 0.0
C3473 C 0.03884 0.4059 0.95133 0.0
C3474 C 0.05437 0.39865 0.9546 0.0
C3475 C 0.05753 0.38434 0.9416 0.0
C3476 C 0.03513 0.42059 0.96564 0.0
C3477 C 0.03717 0.41864 0.98571 0.0
C3478 C 0.02925 0.43631 0.9596 0.0
C3479 C 0.02822 0.44015 0.93901 0.0
C3480 C 0.04307 0.44063 0.92899 0.0
C3481 C 0.04194 0.44408 0.90952 0.0
C3482 C 0.02609 0.44724 0.89997 0.0
C3483 C 1.01133 0.44703 0.9099 0.0
C3484 C 1.01238 0.44356 0.92936 0.0
C3485 C 0.03929 0.48925 0.03073 0.0
C3486 C 0.02329 0.49578 0.02984 0.0
C3487 C 0.04036 0.47289 0.01973 0.0
C3488 C 0.02548 0.46296 0.00755 0.0
C3489 C 1.00927 0.46901 0.00735 0.0
C3490 C 1.00813 0.48525 0.01863 0.0
C3491 C 0.02743 0.44741 0.99354 0.0
C3492 C 0.02515 0.4493 0.9736 0.0
C3493 C 0.03346 0.43193 0.99974 0.0
C3494 C 0.0361 0.42961 0.02079 0.0
C3495 C 0.02224 0.43023 0.0322 0.0
C3496 C 0.02509 0.42924 0.05229 0.0
C3497 C 0.04174 0.42755 0.06113 0.0
C3498 C 0.05554 0.4267 0.04987 0.0
C3499 C 0.05274 0.42765 0.02976 0.0
H3500 H 0.04396 0.4269 0.07671 0.0
H3501 H 0.02524 0.44991 0.8849 0.0
H3502 H 0.96192 0.77645 0.20564 0.0
H3503 H 0.93311 0.7768 0.21676 0.0
H3504 H 0.95864 0.8054 0.27247 0.0
H3505 H 0.98758 0.80432 0.26158 0.0
H3506 H 0.93302 0.78245 0.27956 0.0
H3507 H 0.93473 0.82479 0.23094 0.0
H3508 H 0.9371 0.83353 0.1979 0.0
H3509 H 0.89264 0.79194 0.17422 0.0
H3510 H 0.89015 0.78279 0.20706 0.0
H3511 H 0.85791 0.80935 0.31665 0.0
H3512 H 0.88575 0.80668 0.30437 0.0
H3513 H 0.85753 0.78361 0.24774 0.0
H3514 H 0.82956 0.78747 0.25983 0.0
H3515 H 0.88407 0.80225 0.23998 0.0
H3516 H 0.88139 0.75906 0.28586 0.0
H3517 H 0.87927 0.74642 0.3171 0.0
H3518 H 0.92484 0.78514 0.34415 0.0
H3519 H 0.92711 0.79815 0.31316 0.0
C3520 C 0.96147 0.78284 0.22029 0.0
C3521 C 0.9773 0.79041 0.23263 0.0
C3522 C 0.9448 0.78321 0.22664 0.0
C3523 C 0.94324 0.79155 0.24545 0.0
C3524 C 0.95912 0.79893 0.25786 0.0
C3525 C 0.97581 0.79834 0.25159 0.0
C3526 C 0.92531 0.79221 0.25246 0.0
C3527 C 0.92246 0.78711 0.27097 0.0
C3528 C 0.91088 0.79738 0.24112 0.0
C3529 C 0.91236 0.80301 0.22144 0.0
C3530 C 0.92553 0.81745 0.21867 0.0
C3531 C 0.92689 0.82248 0.19998 0.0
C3532 C 0.91506 0.81327 0.18397 0.0
C3533 C 0.90181 0.79904 0.18662 0.0
C3534 C 0.90041 0.79394 0.20527 0.0
C3535 C 0.85752 0.80356 0.30158 0.0
C3536 C 0.84122 0.79853 0.28937 0.0
C3537 C 0.87365 0.80184 0.29452 0.0
C3538 C 0.87425 0.79444 0.27505 0.0
C3539 C 0.85788 0.78934 0.26282 0.0
C3540 C 0.84171 0.79146 0.26979 0.0
C3541 C 0.89179 0.79276 0.26735 0.0
C3542 C 0.89459 0.79764 0.24868 0.0
C3543 C 0.90609 0.78701 0.27837 0.0
C3544 C 0.90427 0.77972 0.29724 0.0
C3545 C 0.89082 0.76502 0.29854 0.0
C3546 C 0.88963 0.75775 0.31619 0.0
C3547 C 0.90187 0.76501 0.33261 0.0
C3548 C 0.91533 0.77956 0.33143 0.0
C3549 C 0.91658 0.78688 0.31383 0.0
H3550 H 0.90096 0.75932 0.34624 0.0
H3551 H 0.91614 0.81718 0.16951 0.0
H3552 H 0.53882 0.33199 0.16412 0.0
H3553 H 0.55356 0.35914 0.15243 0.0
H3554 H 0.52141 0.34373 0.09623 0.0
H3555 H 0.50692 0.31599 0.10767 0.0
H3556 H 0.55646 0.35558 0.09384 0.0
H3557 H 0.5097 0.37367 0.12742 0.0
H3558 H 0.49339 0.37389 0.156 0.0
H3559 H 0.53967 0.40388 0.1924 0.0
H3560 H 0.55635 0.40358 0.16405 0.0
H3561 H 0.54319 0.43065 0.0505 0.0
H3562 H 0.54249 0.40394 0.06748 0.0
H3563 H 0.57991 0.43504 0.11482 0.0
H3564 H 0.58026 0.46233 0.09785 0.0
H3565 H 0.54992 0.41598 0.12635 0.0
H3566 H 0.59366 0.40149 0.08516 0.0
H3567 H 0.60637 0.39772 0.0542 0.0
H3568 H 0.56022 0.35918 0.02842 0.0
H3569 H 0.5472 0.3628 0.05912 0.0
C3570 C 0.53478 0.33451 0.14933 0.0
C3571 C 0.5216 0.32232 0.13677 0.0
C3572 C 0.54329 0.34984 0.14269 0.0
C3573 C 0.53836 0.35324 0.12366 0.0
C3574 C 0.52528 0.34105 0.11099 0.0
C3575 C 0.51695 0.32547 0.11753 0.0
C3576 C 0.54628 0.37006 0.11724 0.0
C3577 C 0.55515 0.36885 0.10087 0.0
C3578 C 0.54464 0.38709 0.12692 0.0
C3579 C 0.5343 0.38855 0.14365 0.0
C3580 C 0.51639 0.38035 0.14152 0.0
C3581 C 0.50709 0.38044 0.15767 0.0
C3582 C 0.5155 0.38887 0.17601 0.0
C3583 C 0.53318 0.39736 0.17818 0.0
C3584 C 0.54256 0.39727 0.16206 0.0
C3585 C 0.55134 0.43174 0.06447 0.0
C3586 C 0.56179 0.44831 0.07299 0.0
C3587 C 0.55113 0.41649 0.07399 0.0
C3588 C 0.56158 0.41755 0.09201 0.0
C3589 C 0.57211 0.43407 0.10065 0.0
C3590 C 0.5723 0.44949 0.09106 0.0
C3591 C 0.55974 0.40159 0.10238 0.0
C3592 C 0.5519 0.40284 0.11965 0.0
C3593 C 0.56172 0.38448 0.09305 0.0
C3594 C 0.5695 0.38242 0.07448 0.0
C3595 C 0.5862 0.39229 0.07286 0.0
C3596 C 0.59347 0.39014 0.05535 0.0
C3597 C 0.58412 0.37821 0.03936 0.0
C3598 C 0.56748 0.36838 0.04082 0.0
C3599 C 0.56018 0.37043 0.05829 0.0
H3600 H 0.58977 0.37657 0.02583 0.0
H3601 H 0.50831 0.38885 0.18853 0.0
H3602 H 1.01557 0.37124 0.45591 0.0
H3603 H 0.98863 0.3697 0.43299 0.0
H3604 H 0.98716 0.31218 0.41709 0.0
H3605 H 1.0139 0.31366 0.43976 0.0
H3606 H 0.99207 0.33464 0.38636 0.0
H3607 H 0.95484 0.32201 0.43663 0.0
H3608 H 0.94663 0.32893 0.46959 0.0
H3609 H 0.93607 0.38087 0.45567 0.0
H3610 H 0.94444 0.37432 0.42265 0.0
H3611 H 0.90086 0.30968 0.33196 0.0
H3612 H 0.9275 0.30994 0.35482 0.0
H3613 H 0.94347 0.36738 0.35207 0.0
H3614 H 0.91757 0.36688 0.32843 0.0
H3615 H 0.93143 0.34619 0.39188 0.0
H3616 H 0.97127 0.35988 0.3428 0.0
H3617 H 0.97921 0.35283 0.30975 0.0
H3618 H 0.98547 0.29916 0.32207 0.0
H3619 H 0.97696 0.30575 0.35503 0.0
C3620 C 1.00897 0.35817 0.44815 0.0
C3621 C 0.01672 0.34259 0.44915 0.0
C3622 C 0.99375 0.35732 0.43504 0.0
C3623 C 0.98634 0.34089 0.42321 0.0
C3624 C 0.99295 0.32497 0.426 0.0
C3625 C 1.0081 0.32582 0.43895 0.0
C3626 C 0.97345 0.34066 0.40607 0.0
C3627 C 0.97878 0.33707 0.38755 0.0
C3628 C 0.95635 0.34416 0.40783 0.0
C3629 C 0.95036 0.34772 0.42723 0.0
C3630 C 0.95079 0.33492 0.44061 0.0
C3631 C 0.94612 0.33877 0.4593 0.0
C3632 C 0.94086 0.35535 0.46474 0.0
C3633 C 0.94014 0.36804 0.45143 0.0
C3634 C 0.94481 0.36424 0.4327 0.0
C3635 C 0.91078 0.32196 0.33517 0.0
C3636 C 0.90754 0.33822 0.32843 0.0
C3637 C 0.92571 0.3222 0.34845 0.0
C3638 C 0.93714 0.33873 0.35506 0.0
C3639 C 0.93478 0.35452 0.34685 0.0
C3640 C 0.9202 0.35416 0.33318 0.0
C3641 C 0.95009 0.34005 0.37232 0.0
C3642 C 0.94477 0.34386 0.3908 0.0
C3643 C 0.96725 0.3369 0.37058 0.0
C3644 C 0.9732 0.33319 0.35121 0.0
C3645 C 0.97412 0.3465 0.33837 0.0
C3646 C 0.97874 0.3426 0.31966 0.0
C3647 C 0.98277 0.32552 0.31377 0.0
C3648 C 0.98228 0.31236 0.32663 0.0
C3649 C 0.97753 0.31616 0.34531 0.0
H3650 H 0.98633 0.32251 0.29928 0.0
H3651 H 0.93733 0.35835 0.47925 0.0
H3652 H 0.98786 0.70899 0.65191 0.0
H3653 H 0.99361 0.67914 0.63828 0.0
H3654 H 0.02098 0.70495 0.59479 0.0
H3655 H 1.01469 0.73419 0.60754 0.0
H3656 H 0.98086 0.67635 0.59058 0.0
H3657 H 0.0485 0.69475 0.60841 0.0
H3658 H 0.07243 0.70243 0.63614 0.0
H3659 H 0.05339 0.65276 0.65861 0.0
H3660 H 0.02908 0.64501 0.63121 0.0
H3661 H 0.03834 0.63371 0.52104 0.0
H3662 H 0.02986 0.65808 0.54235 0.0
H3663 H 0.98819 0.61908 0.55843 0.0
H3664 H 0.99638 0.59561 0.53727 0.0
H3665 H 0.03359 0.64768 0.58339 0.0
H3666 H 0.96196 0.63503 0.56465 0.0
H3667 H 0.94078 0.62965 0.53437 0.0
H3668 H 0.97175 0.67348 0.5115 0.0
H3669 H 0.99327 0.67877 0.54149 0.0
C3670 C 0.99505 0.70803 0.63941 0.0
C3671 C 1.00023 0.72332 0.63004 0.0
C3672 C 0.99873 0.69131 0.63214 0.0
C3673 C 1.00803 0.69031 0.61608 0.0
C3674 C 1.01419 0.70585 0.60763 0.0
C3675 C 1.01006 0.72229 0.6144 0.0
C3676 C 1.00664 0.67332 0.60394 0.0
C3677 C 0.99204 0.66944 0.58935 0.0
C3678 C 0.02165 0.66531 0.60225 0.0
C3679 C 0.03696 0.66934 0.61784 0.0
C3680 C 0.04941 0.68548 0.61927 0.0
C3681 C 0.06301 0.68987 0.63495 0.0
C3682 C 0.06441 0.6781 0.64914 0.0
C3683 C 0.05227 0.66187 0.64762 0.0
C3684 C 0.03857 0.65749 0.63204 0.0
C3685 C 0.02645 0.63082 0.52787 0.0
C3686 C 0.01829 0.61283 0.52833 0.0
C3687 C 0.02194 0.64455 0.54032 0.0
C3688 C 1.0089 0.63992 0.5522 0.0
C3689 C 0.99827 0.62273 0.54918 0.0
C3690 C 1.00268 0.60927 0.53658 0.0
C3691 C 1.00816 0.65164 0.56981 0.0
C3692 C 0.02216 0.65406 0.58511 0.0
C3693 C 0.99295 0.65903 0.57197 0.0
C3694 C 0.97894 0.65747 0.55532 0.0
C3695 C 0.96401 0.64371 0.55329 0.0
C3696 C 0.95208 0.64055 0.53611 0.0
C3697 C 0.95487 0.65128 0.52106 0.0
C3698 C 0.96957 0.66523 0.52318 0.0
C3699 C 0.98163 0.66829 0.54023 0.0
H3700 H 0.94568 0.64873 0.50772 0.0
H3701 H 0.0749 0.68156 0.66131 0.0
H3702 H 0.61297 0.82352 0.93462 0.0
H3703 H 0.62438 0.81313 0.90494 0.0
H3704 H 0.60205 0.85332 0.87489 0.0
H3705 H 0.58979 0.86324 0.90454 0.0
H3706 H 0.59429 0.81957 0.85418 0.0
H3707 H 0.64628 0.85915 0.88675 0.0
H3708 H 0.66621 0.87141 0.91716 0.0
H3709 H 0.68031 0.81878 0.92132 0.0
H3710 H 0.66028 0.80613 0.89107 0.0
H3711 H 0.63646 0.78452 0.77376 0.0
H3712 H 0.62251 0.80134 0.79792 0.0
H3713 H 0.65105 0.77903 0.84398 0.0
H3714 H 0.66682 0.76463 0.82018 0.0
H3715 H 0.65651 0.81168 0.85379 0.0
H3716 H 0.60104 0.77102 0.82474 0.0
H3717 H 0.57591 0.75752 0.79954 0.0
H3718 H 0.56532 0.81088 0.79154 0.0
H3719 H 0.59054 0.8247 0.81639 0.0
C3720 C 0.61087 0.83043 0.92184 0.0
C3721 C 0.60069 0.84422 0.92175 0.0
C3722 C 0.61734 0.82448 0.9049 0.0
C3723 C 0.61424 0.83268 0.88788 0.0
C3724 C 0.60458 0.84692 0.88796 0.0
C3725 C 0.59775 0.85263 0.90484 0.0
C3726 C 0.62048 0.82552 0.86987 0.0
C3727 C 0.60795 0.81806 0.85375 0.0
C3728 C 0.63824 0.82366 0.86967 0.0
C3729 C 0.65186 0.83171 0.88653 0.0
C3730 C 0.65378 0.85023 0.89402 0.0
C3731 C 0.66502 0.85723 0.9113 0.0
C3732 C 0.67454 0.84589 0.92114 0.0
C3733 C 0.67298 0.82757 0.91362 0.0
C3734 C 0.66174 0.82049 0.89636 0.0
C3735 C 0.63977 0.78336 0.7891 0.0
C3736 C 0.65333 0.77402 0.79511 0.0
C3737 C 0.63147 0.79264 0.80292 0.0
C3738 C 0.63589 0.79182 0.82297 0.0
C3739 C 0.64774 0.78041 0.82868 0.0
C3740 C 0.65659 0.77187 0.81497 0.0
C3741 C 0.63001 0.80415 0.83823 0.0
C3742 C 0.64281 0.81311 0.85381 0.0
C3743 C 0.61238 0.80728 0.83791 0.0
C3744 C 0.59789 0.79889 0.82218 0.0
C3745 C 0.59353 0.77987 0.81737 0.0
C3746 C 0.57923 0.77217 0.8032 0.0
C3747 C 0.56909 0.78334 0.79388 0.0
C3748 C 0.57324 0.80224 0.79868 0.0
C3749 C 0.58755 0.81001 0.81277 0.0
H3750 H 0.55797 0.77734 0.78299 0.0
H3751 H 0.68311 0.85129 0.93462 0.0
H3752 H 0.4604 0.59704 0.76396 0.0
H3753 H 0.48013 0.59824 0.73865 0.0
H3754 H 0.43645 0.5726 0.69529 0.0
H3755 H 0.41686 0.57091 0.72073 0.0
H3756 H 0.46188 0.55774 0.68723 0.0
H3757 H 0.45951 0.62143 0.70128 0.0
H3758 H 0.46265 0.65133 0.72124 0.0
H3759 H 0.51768 0.65108 0.73766 0.0
H3760 H 0.51483 0.62109 0.71796 0.0
H3761 H 0.49774 0.56893 0.60122 0.0
H3762 H 0.48202 0.57576 0.62882 0.0
H3763 H 0.53137 0.59046 0.66678 0.0
H3764 H 0.54739 0.58426 0.63847 0.0
H3765 H 0.50561 0.61168 0.6791 0.0
H3766 H 0.50767 0.54808 0.66489 0.0
H3767 H 0.50487 0.51961 0.64248 0.0
H3768 H 0.45011 0.52089 0.62559 0.0
H3769 H 0.45265 0.5495 0.64774 0.0
C3770 C 0.45492 0.59171 0.74901 0.0
C3771 C 0.43684 0.58383 0.74463 0.0
C3772 C 0.4663 0.59255 0.73435 0.0
C3773 C 0.46008 0.58573 0.71456 0.0
C3774 C 0.44195 0.57799 0.71021 0.0
C3775 C 0.4306 0.57705 0.72489 0.0
C3776 C 0.47233 0.58575 0.6986 0.0
C3777 C 0.47121 0.56973 0.6855 0.0
C3778 C 0.48523 0.60103 0.69616 0.0
C3779 C 0.4869 0.61889 0.70833 0.0
C3780 C 0.47224 0.62766 0.7093 0.0
C3781 C 0.47398 0.64465 0.72053 0.0
C3782 C 0.49034 0.65307 0.73076 0.0
C3783 C 0.505 0.64453 0.72976 0.0
C3784 C 0.50334 0.62754 0.71856 0.0
C3785 C 0.50541 0.57438 0.61522 0.0
C3786 C 0.52396 0.57645 0.61723 0.0
C3787 C 0.4963 0.57804 0.63125 0.0
C3788 C 0.50523 0.58335 0.65032 0.0
C3789 C 0.52392 0.58639 0.65239 0.0
C3790 C 0.53316 0.58293 0.63608 0.0
C3791 C 0.49475 0.58381 0.66777 0.0
C3792 C 0.49626 0.59978 0.68105 0.0
C3793 C 0.48215 0.56855 0.6705 0.0
C3794 C 0.48035 0.55092 0.65792 0.0
C3795 C 0.49503 0.54226 0.6564 0.0
C3796 C 0.4935 0.52613 0.64372 0.0
C3797 C 0.47732 0.51845 0.63261 0.0
C3798 C 0.46262 0.52684 0.63423 0.0
C3799 C 0.46408 0.54299 0.64687 0.0
H3800 H 0.47618 0.50599 0.62275 0.0
H3801 H 0.49166 0.66623 0.73942 0.0
H3802 H 0.85612 0.23092 0.98832 0.0
H3803 H 0.84445 0.24397 0.9595 0.0
H3804 H 0.79321 0.23807 0.97934 0.0
H3805 H 0.80494 0.22537 0.00815 0.0
H3806 H 0.7907 0.22881 0.93916 0.0
H3807 H 0.8204 0.27857 0.98846 0.0
H3808 H 0.84557 0.29639 0.01116 0.0
H3809 H 0.87599 0.30275 0.96343 0.0
H3810 H 0.85107 0.28477 0.9405 0.0
H3811 H 0.75575 0.2893 0.87734 0.0
H3812 H 0.76428 0.27491 0.90653 0.0
H3813 H 0.81867 0.28535 0.89583 0.0
H3814 H 0.81025 0.30008 0.86751 0.0
H3815 H 0.81796 0.292 0.93221 0.0
H3816 H 0.78961 0.24351 0.88222 0.0
H3817 H 0.76498 0.22668 0.85819 0.0
H3818 H 0.73333 0.21705 0.90433 0.0
H3819 H 0.75764 0.23422 0.92862 0.0
C3820 C 0.8424 0.23243 0.98642 0.0
C3821 C 0.83148 0.22757 1.00054 0.0
C3822 C 0.83571 0.23982 0.97 0.0
C3823 C 0.81796 0.24217 0.96736 0.0
C3824 C 0.80692 0.23648 0.98108 0.0
C3825 C 0.81366 0.22941 0.99759 0.0
C3826 C 0.81114 0.25165 0.95111 0.0
C3827 C 0.79656 0.24267 0.93767 0.0
C3828 C 0.8189 0.26963 0.94898 0.0
C3829 C 0.83396 0.28016 0.96283 0.0
C3830 C 0.83252 0.28362 0.98285 0.0
C3831 C 0.84673 0.29378 0.99575 0.0
C3832 C 0.86239 0.30065 0.98875 0.0
C3833 C 0.86387 0.29739 0.96884 0.0
C3834 C 0.84972 0.28722 0.95589 0.0
C3835 C 0.76952 0.28881 0.88165 0.0
C3836 C 0.78244 0.29585 0.87048 0.0
C3837 C 0.77438 0.28042 0.8981 0.0
C3838 C 0.79212 0.27879 0.90326 0.0
C3839 C 0.80494 0.28641 0.89226 0.0
C3840 C 0.80014 0.29484 0.87609 0.0
C3841 C 0.79775 0.26912 0.91987 0.0
C3842 C 0.81207 0.2781 0.93354 0.0
C3843 C 0.78994 0.25104 0.92184 0.0
C3844 C 0.77542 0.24035 0.90726 0.0
C3845 C 0.77737 0.23791 0.88725 0.0
C3846 C 0.76346 0.22829 0.87357 0.0
C3847 C 0.7476 0.22076 0.87972 0.0
C3848 C 0.74563 0.22286 0.89958 0.0
C3849 C 0.75947 0.23256 0.91331 0.0
H3850 H 0.73686 0.21329 0.86911 0.0
H3851 H 0.87336 0.30855 0.99875 0.0
H3852 H 0.08177 0.49083 0.25758 0.0
H3853 H 0.06507 0.4973 0.22763 0.0
H3854 H 0.11308 0.52573 0.21106 0.0
H3855 H 0.12976 0.51917 0.24072 0.0
H3856 H 0.08589 0.54539 0.20817 0.0
H3857 H 0.09419 0.48338 0.18869 0.0
H3858 H 0.09102 0.4508 0.1929 0.0
H3859 H 0.03469 0.44643 0.18741 0.0
H3860 H 0.03756 0.47907 0.18342 0.0
H3861 H 0.07111 0.56025 0.11153 0.0
H3862 H 0.08037 0.55044 0.14256 0.0
H3863 H 0.02991 0.51529 0.13945 0.0
H3864 H 0.02087 0.52444 0.10717 0.0
H3865 H 0.05304 0.49851 0.15514 0.0
H3866 H 0.04338 0.5589 0.17241 0.0
H3867 H 0.04514 0.59198 0.17169 0.0
H3868 H 0.10156 0.60012 0.1847 0.0
H3869 H 0.10016 0.56711 0.18535 0.0
C3870 C 0.08877 0.49831 0.24744 0.0
C3871 C 0.10715 0.50438 0.2515 0.0
C3872 C 0.0792 0.50199 0.23029 0.0
C3873 C 0.08778 0.51197 0.21694 0.0
C3874 C 0.10611 0.51799 0.22105 0.0
C3875 C 0.11568 0.51414 0.23799 0.0
C3876 C 0.07785 0.51669 0.19892 0.0
C3877 C 0.07884 0.53513 0.19649 0.0
C3878 C 0.06785 0.50339 0.18406 0.0
C3879 C 0.0661 0.48368 0.18588 0.0
C3880 C 0.08113 0.47548 0.18846 0.0
C3881 C 0.07939 0.45701 0.1908 0.0
C3882 C 0.06266 0.44656 0.19045 0.0
C3883 C 0.04764 0.45455 0.18768 0.0
C3884 C 0.04932 0.47302 0.18535 0.0
C3885 C 0.06185 0.55045 0.11734 0.0
C3886 C 0.04514 0.54329 0.10677 0.0
C3887 C 0.06715 0.54493 0.13538 0.0
C3888 C 0.05573 0.53253 0.14404 0.0
C3889 C 0.03903 0.52503 0.13338 0.0
C3890 C 0.03382 0.53028 0.1149 0.0
C3891 C 0.06171 0.52738 0.16388 0.0
C3892 C 0.05991 0.50886 0.16679 0.0
C3893 C 0.07074 0.54066 0.17948 0.0
C3894 C 0.07165 0.56051 0.17877 0.0
C3895 C 0.05617 0.56773 0.17496 0.0
C3896 C 0.0571 0.58648 0.17461 0.0
C3897 C 0.07345 0.59814 0.17811 0.0
C3898 C 0.08891 0.59108 0.18199 0.0
C3899 C 0.08804 0.57236 0.18239 0.0
H3900 H 0.07415 0.61264 0.17783 0.0
H3901 H 0.06134 0.43227 0.19229 0.0
H3902 H 0.77938 0.91493 0.5693 0.0
H3903 H 0.77483 0.89624 0.53765 0.0
H3904 H 0.80402 0.94028 0.51281 0.0
H3905 H 0.80849 0.95937 0.54469 0.0
H3906 H 0.77034 0.91713 0.489 0.0
H3907 H 0.82724 0.91387 0.52322 0.0
H3908 H 0.84685 0.91181 0.55313 0.0
H3909 H 0.81644 0.85974 0.5585 0.0
H3910 H 0.79647 0.86163 0.52879 0.0
H3911 H 0.7873 0.85562 0.41119 0.0
H3912 H 0.78456 0.87961 0.43648 0.0
H3913 H 0.77531 0.83972 0.47656 0.0
H3914 H 0.7796 0.8158 0.45138 0.0
H3915 H 0.80117 0.86418 0.49134 0.0
H3916 H 0.74331 0.8675 0.4589 0.0
H3917 H 0.72165 0.8701 0.43091 0.0
H3918 H 0.75197 0.92151 0.42311 0.0
H3919 H 0.77387 0.91914 0.45095 0.0
C3920 C 0.78468 0.92069 0.55707 0.0
C3921 C 0.79456 0.93834 0.55932 0.0
C3922 C 0.78197 0.91011 0.53907 0.0
C3923 C 0.7893 0.91698 0.52325 0.0
C3924 C 0.79833 0.93495 0.52506 0.0
C3925 C 0.80094 0.94569 0.54315 0.0
C3926 C 0.78889 0.90442 0.50565 0.0
C3927 C 0.77727 0.90567 0.48917 0.0
C3928 C 0.79778 0.8895 0.50646 0.0
C3929 C 0.81031 0.88793 0.5238 0.0
C3930 C 0.8247 0.902 0.53081 0.0
C3931 C 0.83588 0.90087 0.54773 0.0
C3932 C 0.83288 0.88566 0.55772 0.0
C3933 C 0.81876 0.87151 0.55074 0.0
C3934 C 0.80752 0.87259 0.53383 0.0
C3935 C 0.78404 0.85198 0.42524 0.0
C3936 C 0.78359 0.83411 0.42963 0.0
C3937 C 0.78235 0.86564 0.43962 0.0
C3938 C 0.77958 0.86144 0.45835 0.0
C3939 C 0.77747 0.84319 0.46214 0.0
C3940 C 0.77974 0.82955 0.44785 0.0
C3941 C 0.78188 0.87624 0.47461 0.0
C3942 C 0.79416 0.87556 0.49088 0.0
C3943 C 0.77349 0.89161 0.47357 0.0
C3944 C 0.76028 0.89307 0.45691 0.0
C3945 C 0.7454 0.8793 0.45113 0.0
C3946 C 0.73307 0.88075 0.43532 0.0
C3947 C 0.73545 0.89594 0.42521 0.0
C3948 C 0.75014 0.90975 0.43095 0.0
C3949 C 0.76249 0.90838 0.44677 0.0
H3950 H 0.7259 0.89702 0.41296 0.0
H3951 H 0.84151 0.88484 0.57086 0.0
H3952 H 0.45691 0.57125 0.83121 0.0
H3953 H 0.47404 0.5667 0.86167 0.0
H3954 H 0.43299 0.58124 0.89414 0.0
H3955 H 0.41573 0.58562 0.86368 0.0
H3956 H 0.46557 0.59767 0.91237 0.0
H3957 H 0.43768 0.53706 0.88473 0.0
H3958 H 0.42998 0.51099 0.85862 0.0
H3959 H 0.48481 0.50772 0.85891 0.0
H3960 H 0.49286 0.53397 0.88486 0.0
H3961 H 0.49142 0.57177 1.0044 0.0
H3962 H 0.47544 0.57442 0.97276 0.0
H3963 H 0.51356 0.54974 0.94338 0.0
H3964 H 0.52885 0.54586 0.97521 0.0
H3965 H 0.48403 0.53863 0.92212 0.0
H3966 H 0.51166 0.599 0.95118 0.0
H3967 H 0.51862 0.62528 0.97691 0.0
H3968 H 0.46384 0.62982 0.97294 0.0
H3969 H 0.45646 0.60314 0.94757 0.0
C3970 C 0.45153 0.57356 0.84484 0.0
C3971 C 0.43486 0.5788 0.84491 0.0
C3972 C 0.46133 0.57083 0.8623 0.0
C3973 C 0.45481 0.57339 0.88036 0.0
C3974 C 0.43837 0.57907 0.88049 0.0
C3975 C 0.42847 0.58158 0.86301 0.0
C3976 C 0.46508 0.57034 0.89914 0.0
C3977 C 0.46942 0.58468 0.91455 0.0
C3978 C 0.47066 0.55358 0.90196 0.0
C3979 C 0.46588 0.53759 0.88662 0.0
C3980 C 0.44811 0.53086 0.87915 0.0
C3981 C 0.44368 0.51604 0.86439 0.0
C3982 C 0.4569 0.50773 0.85708 0.0
C3983 C 0.47458 0.51418 0.86457 0.0
C3984 C 0.47909 0.52903 0.87932 0.0
C3985 C 0.49646 0.56694 0.99122 0.0
C3986 C 0.51161 0.55882 0.9925 0.0
C3987 C 0.48733 0.56856 0.97297 0.0
C3988 C 0.49343 0.56287 0.95529 0.0
C3989 C 0.50845 0.55444 0.95656 0.0
C3990 C 0.5173 0.55231 0.97487 0.0
C3991 C 0.48432 0.56596 0.9357 0.0
C3992 C 0.48028 0.55167 0.92002 0.0
C3993 C 0.479 0.58282 0.93254 0.0
C3994 C 0.4835 0.59902 0.94757 0.0
C3995 C 0.50109 0.60555 0.95587 0.0
C3996 C 0.50509 0.62052 0.97042 0.0
C3997 C 0.49167 0.62927 0.97653 0.0
C3998 C 0.47421 0.62303 0.96817 0.0
C3999 C 0.4701 0.60797 0.95374 0.0
H4000 H 0.49469 0.64091 0.98769 0.0
H4001 H 0.45344 0.49626 0.84564 0.0
H4002 H 0.86357 0.24149 0.11585 0.0
H4003 H 0.85809 0.25825 0.14654 0.0
H4004 H 0.80208 0.24103 0.12997 0.0
H4005 H 0.80753 0.22365 0.09992 0.0
H4006 H 0.81454 0.28055 0.14387 0.0
H4007 H 0.818 0.22065 0.16138 0.0
H4008 H 0.83235 0.19391 0.16458 0.0
H4009 H 0.87577 0.2273 0.20268 0.0
H4010 H 0.86182 0.25434 0.1994 0.0
H4011 H 0.77769 0.30528 0.22976 0.0
H4012 H 0.78628 0.29113 0.19988 0.0
H4013 H 0.83802 0.29111 0.23015 0.0
H4014 H 0.82897 0.30437 0.26055 0.0
H4015 H 0.82983 0.26126 0.20887 0.0
H4016 H 0.827 0.32124 0.19224 0.0
H4017 H 0.81443 0.34884 0.18729 0.0
H4018 H 0.77192 0.31691 0.14669 0.0
H4019 H 0.78413 0.2891 0.15154 0.0
C4020 C 0.85012 0.24126 0.11884 0.0
C4021 C 0.83599 0.23113 0.10556 0.0
C4022 C 0.84698 0.25082 0.13637 0.0
C4023 C 0.82964 0.25091 0.14065 0.0
C4024 C 0.81556 0.24116 0.1271 0.0
C4025 C 0.8187 0.23116 0.10996 0.0
C4026 C 0.82604 0.26107 0.15919 0.0
C4027 C 0.81775 0.27628 0.1581 0.0
C4028 C 0.83064 0.25583 0.17783 0.0
C4029 C 0.83898 0.23957 0.17994 0.0
C4030 C 0.8307 0.22234 0.17027 0.0
C4031 C 0.83874 0.20712 0.17213 0.0
C4032 C 0.85499 0.20891 0.18378 0.0
C4033 C 0.8632 0.22594 0.19363 0.0
C4034 C 0.85523 0.24122 0.19178 0.0
C4035 C 0.79099 0.3025 0.23007 0.0
C4036 C 0.80264 0.30613 0.24767 0.0
C4037 C 0.79599 0.29445 0.21278 0.0
C4038 C 0.81303 0.29022 0.21227 0.0
C4039 C 0.8248 0.29415 0.22985 0.0
C4040 C 0.81967 0.3019 0.24728 0.0
C4041 C 0.81819 0.28101 0.19377 0.0
C4042 C 0.82673 0.26583 0.19478 0.0
C4043 C 0.814 0.28643 0.175 0.0
C4044 C 0.80639 0.30307 0.17242 0.0
C4045 C 0.81488 0.32008 0.1824 0.0
C4046 C 0.80784 0.33577 0.17957 0.0
C4047 C 0.79236 0.33462 0.16673 0.0
C4048 C 0.78389 0.31778 0.15666 0.0
C4049 C 0.79088 0.30206 0.15943 0.0
H4050 H 0.78695 0.34679 0.16454 0.0
H4051 H 0.86119 0.19711 0.18521 0.0
H4052 H 0.13525 0.53258 0.3673 0.0
H4053 H 0.12057 0.5449 0.39366 0.0
H4054 H 0.07726 0.4995 0.37889 0.0
H4055 H 0.09142 0.48787 0.35149 0.0
H4056 H 0.06452 0.52838 0.3832 0.0
H4057 H 0.11271 0.5077 0.42231 0.0
H4058 H 0.14345 0.50701 0.43564 0.0
H4059 H 0.15211 0.56461 0.45422 0.0
H4060 H 0.12155 0.56569 0.44077 0.0
H4061 H 0.0239 0.53122 0.4699 0.0
H4062 H 0.03849 0.52486 0.44091 0.0
H4063 H 0.07504 0.57568 0.4571 0.0
H4064 H 0.06086 0.58175 0.48621 0.0
H4065 H 0.09192 0.54824 0.45178 0.0
H4066 H 0.0462 0.57049 0.41587 0.0
H4067 H 1.01518 0.57337 0.40687 0.0
H4068 H 1.00247 0.5165 0.38447 0.0
H4069 H 0.03341 0.51325 0.39351 0.0
C4070 C 0.12272 0.52507 0.3699 0.0
C4071 C 0.11445 0.50923 0.35745 0.0
C4072 C 0.11437 0.53209 0.38506 0.0
C4073 C 0.09788 0.52304 0.38851 0.0
C4074 C 0.08995 0.50679 0.3765 0.0
C4075 C 0.09806 0.50007 0.36094 0.0
C4076 C 0.08825 0.53098 0.40367 0.0
C4077 C 0.07052 0.53248 0.39824 0.0
C4078 C 0.09626 0.53741 0.42311 0.0
C4079 C 0.11491 0.5368 0.43025 0.0
C4080 C 0.12125 0.52025 0.42897 0.0
C4081 C 0.13863 0.51979 0.43662 0.0
C4082 C 0.14975 0.53576 0.44569 0.0
C4083 C 0.14353 0.55225 0.44712 0.0
C4084 C 0.12619 0.5528 0.43947 0.0
C4085 C 0.03477 0.54116 0.46691 0.0
C4086 C 0.04147 0.55681 0.48018 0.0
C4087 C 0.04306 0.53758 0.45042 0.0
C4088 C 0.05785 0.54983 0.44697 0.0
C4089 C 0.06375 0.56603 0.45963 0.0
C4090 C 0.05565 0.56946 0.47618 0.0
C4091 C 0.06826 0.54487 0.43136 0.0
C4092 C 0.08608 0.54417 0.43666 0.0
C4093 C 0.06051 0.53957 0.41182 0.0
C4094 C 0.04211 0.54162 0.40539 0.0
C4095 C 0.03679 0.5586 0.409 0.0
C4096 C 0.01922 0.5603 0.40392 0.0
C4097 C 1.00686 0.54512 0.39511 0.0
C4098 C 1.01207 0.52825 0.39126 0.0
C4099 C 0.02964 0.52648 0.3963 0.0
H4100 H 0.99324 0.54644 0.39127 0.0
H4101 H 0.16317 0.53535 0.45168 0.0
H4102 H 0.77006 0.94045 0.65567 0.0
H4103 H 0.75794 0.91237 0.66815 0.0
H4104 H 0.80976 0.89778 0.67448 0.0
H4105 H 0.82155 0.92526 0.66074 0.0
H4106 H 0.78701 0.86979 0.65755 0.0
H4107 H 0.78753 0.91561 0.71358 0.0
H4108 H 0.7788 0.94342 0.72894 0.0
H4109 H 0.72419 0.91858 0.71529 0.0
H4110 H 0.73258 0.89075 0.6995 0.0
H4111 H 0.79036 0.81132 0.72847 0.0
H4112 H 0.79122 0.8328 0.70465 0.0
H4113 H 0.73631 0.83559 0.7078 0.0
H4114 H 0.73599 0.81492 0.7329 0.0
H4115 H 0.75375 0.86757 0.71458 0.0
H4116 H 0.75309 0.81997 0.66321 0.0
H4117 H 0.76172 0.79171 0.64892 0.0
H4118 H 0.81552 0.81899 0.65389 0.0
H4119 H 0.80727 0.84737 0.6684 0.0
C4120 C 0.77892 0.93152 0.6604 0.0
C4121 C 0.79682 0.93517 0.65781 0.0
C4122 C 0.77197 0.91539 0.66734 0.0
C4123 C 0.78295 0.90298 0.67242 0.0
C4124 C 0.801 0.90709 0.67059 0.0
C4125 C 0.80782 0.92292 0.66311 0.0
C4126 C 0.7758 0.8855 0.67925 0.0
C4127 C 0.77977 0.8693 0.67006 0.0
C4128 C 0.76562 0.88469 0.69497 0.0
C4129 C 0.76068 0.90118 0.70517 0.0
C4130 C 0.77366 0.9161 0.7138 0.0
C4131 C 0.76877 0.93188 0.72255 0.0
C4132 C 0.75095 0.93279 0.72303 0.0
C4133 C 0.73798 0.91788 0.71486 0.0
C4134 C 0.7428 0.9021 0.706 0.0
C4135 C 0.77823 0.81571 0.72319 0.0
C4136 C 0.76304 0.8113 0.73207 0.0
C4137 C 0.77869 0.82808 0.70958 0.0
C4138 C 0.76376 0.83578 0.70419 0.0
C4139 C 0.74798 0.82984 0.71167 0.0
C4140 C 0.74768 0.81778 0.7257 0.0
C4141 C 0.76563 0.85193 0.69341 0.0
C4142 C 0.7606 0.8679 0.70177 0.0
C4143 C 0.77472 0.85251 0.67684 0.0
C4144 C 0.77953 0.83583 0.66684 0.0
C4145 C 0.76675 0.81997 0.66117 0.0
C4146 C 0.77158 0.80391 0.65308 0.0
C4147 C 0.78916 0.80356 0.65049 0.0
C4148 C 0.80191 0.8193 0.65584 0.0
C4149 C 0.79714 0.8354 0.66392 0.0
H4150 H 0.79289 0.79108 0.64434 0.0
H4151 H 0.74719 0.94502 0.72978 0.0
H4152 H 0.66759 0.42765 0.56291 0.0
H4153 H 0.64716 0.44898 0.56878 0.0
H4154 H 0.69081 0.49404 0.57829 0.0
H4155 H 0.7111 0.47297 0.57264 0.0
H4156 H 0.66847 0.49908 0.60448 0.0
H4157 H 0.66305 0.48321 0.53428 0.0
H4158 H 0.65764 0.46135 0.50412 0.0
H4159 H 0.60561 0.44111 0.51699 0.0
H4160 H 0.61081 0.46268 0.54737 0.0
H4161 H 0.61404 0.5695 0.58568 0.0
H4162 H 0.63702 0.55016 0.5853 0.0
H4163 H 0.59728 0.50245 0.5839 0.0
H4164 H 0.57479 0.52122 0.58514 0.0
H4165 H 0.6185 0.49987 0.5535 0.0
H4166 H 0.6226 0.51433 0.62255 0.0
H4167 H 0.62711 0.53389 0.65419 0.0
H4168 H 0.6802 0.55479 0.64527 0.0
H4169 H 0.67587 0.53563 0.61329 0.0
C4170 C 0.67279 0.4421 0.56619 0.0
C4171 C 0.69099 0.44854 0.56698 0.0
C4172 C 0.66111 0.45433 0.56957 0.0
C4173 C 0.66735 0.47328 0.57379 0.0
C4174 C 0.68556 0.47959 0.57505 0.0
C4175 C 0.69717 0.46745 0.57162 0.0
C4176 C 0.65502 0.48667 0.57618 0.0
C4177 C 0.6577 0.49941 0.59319 0.0
C4178 C 0.6407 0.48702 0.5617 0.0
C4179 C 0.63736 0.47446 0.54315 0.0
C4180 C 0.65047 0.47406 0.53069 0.0
C4181 C 0.64745 0.46172 0.51357 0.0
C4182 C 0.6313 0.44983 0.50866 0.0
C4183 C 0.61812 0.45032 0.52082 0.0
C4184 C 0.62109 0.46261 0.53798 0.0
C4185 C 0.6103 0.55497 0.58585 0.0
C4186 C 0.59242 0.54708 0.58534 0.0
C4187 C 0.62343 0.54388 0.58546 0.0
C4188 C 0.61885 0.52475 0.58425 0.0
C4189 C 0.60119 0.51708 0.58459 0.0
C4190 C 0.58828 0.52801 0.58539 0.0
C4191 C 0.63196 0.5123 0.58176 0.0
C4192 C 0.6294 0.49971 0.5647 0.0
C4193 C 0.64622 0.51198 0.59629 0.0
C4194 C 0.6488 0.52379 0.61533 0.0
C4195 C 0.63514 0.52332 0.62715 0.0
C4196 C 0.63769 0.53428 0.6452 0.0
C4197 C 0.6539 0.54564 0.6517 0.0
C4198 C 0.66762 0.54604 0.64017 0.0
C4199 C 0.66512 0.53514 0.62207 0.0
H4200 H 0.65587 0.55408 0.6657 0.0
H4201 H 0.629 0.44026 0.49542 0.0
H4202 H 0.20788 0.11262 0.46928 0.0
H4203 H 0.1787 0.09753 0.47558 0.0
H4204 H 0.18927 0.12389 0.53515 0.0
H4205 H 0.21791 0.13933 0.52886 0.0
H4206 H 0.17789 0.08366 0.52842 0.0
H4207 H 0.16416 0.14079 0.51301 0.0
H4208 H 0.16385 0.16595 0.49291 0.0
H4209 H 0.13222 0.12923 0.4456 0.0
H4210 H 0.13264 0.10373 0.46535 0.0
H4211 H 0.099 0.08089 0.57029 0.0
H4212 H 0.12744 0.08651 0.55809 0.0
H4213 H 0.10236 0.06519 0.4996 0.0
H4214 H 0.07366 0.05967 0.51181 0.0
H4215 H 0.12102 0.09963 0.50197 0.0
H4216 H 0.13303 0.04269 0.52337 0.0
H4217 H 0.13534 0.02024 0.54666 0.0
H4218 H 0.1712 0.0605 0.58716 0.0
H4219 H 0.16904 0.08319 0.56416 0.0
C4220 C 0.20383 0.11516 0.48363 0.0
C4221 C 0.2149 0.12702 0.4986 0.0
C4222 C 0.1873 0.10665 0.48718 0.0
C4223 C 0.18211 0.10971 0.50579 0.0
C4224 C 0.19322 0.12148 0.52073 0.0
C4225 C 0.20946 0.13028 0.51708 0.0
C4226 C 0.16519 0.10035 0.51005 0.0
C4227 C 0.16539 0.08702 0.52265 0.0
C4228 C 0.14915 0.10498 0.50239 0.0
C4229 C 0.14867 0.12028 0.49053 0.0
C4230 C 0.15732 0.13802 0.49824 0.0
C4231 C 0.15709 0.15236 0.48693 0.0
C4232 C 0.14809 0.14917 0.46795 0.0
C4233 C 0.13924 0.13166 0.46029 0.0
C4234 C 0.13947 0.11725 0.47153 0.0
C4235 C 0.09961 0.07709 0.55489 0.0
C4236 C 0.08423 0.07017 0.54189 0.0
C4237 C 0.11587 0.08013 0.54797 0.0
C4238 C 0.11695 0.07618 0.52797 0.0
C4239 C 0.10171 0.06826 0.5151 0.0
C4240 C 0.0854 0.06512 0.52206 0.0
C4241 C 0.13354 0.08264 0.52038 0.0
C4242 C 0.13339 0.09572 0.50729 0.0
C4243 C 0.14973 0.07818 0.5281 0.0
C4244 C 0.15079 0.06464 0.54208 0.0
C4245 C 0.1413 0.04678 0.5373 0.0
C4246 C 0.14263 0.034 0.55043 0.0
C4247 C 0.15339 0.03895 0.56839 0.0
C4248 C 0.16288 0.05668 0.57325 0.0
C4249 C 0.16164 0.06948 0.56015 0.0
H4250 H 0.15441 0.02903 0.57852 0.0
H4251 H 0.14792 0.16029 0.45921 0.0
H4252 H 0.18149 0.98703 0.78661 0.0
H4253 H 0.19597 0.96055 0.78233 0.0
H4254 H 0.22405 0.97549 0.84055 0.0
H4255 H 0.21053 1.00284 0.84408 0.0
H4256 H 0.24552 0.9633 0.82346 0.0
H4257 H 0.18307 0.92954 0.81682 0.0
H4258 H 0.15221 0.92249 0.80065 0.0
H4259 H 0.17052 0.91588 0.74451 0.0
H4260 H 0.20127 0.92219 0.76039 0.0
H4261 H 0.28289 0.88216 0.82905 0.0
H4262 H 0.26751 0.90792 0.83189 0.0
H4263 H 0.23575 0.88705 0.77655 0.0
H4264 H 0.25014 0.86019 0.77488 0.0
H4265 H 0.21579 0.9025 0.7907 0.0
H4266 H 0.27636 0.93173 0.79456 0.0
H4267 H 0.30809 0.94069 0.80685 0.0
H4268 H 0.29554 0.95985 0.86331 0.0
H4269 H 0.2638 0.95074 0.85146 0.0
C4270 C 0.19074 0.98474 0.7986 0.0
C4271 C 0.19467 0.99755 0.81573 0.0
C4272 C 0.19898 0.96908 0.79626 0.0
C4273 C 0.21121 0.96491 0.81121 0.0
C4274 C 0.21493 0.97773 0.82844 0.0
C4275 C 0.20703 0.99363 0.83057 0.0
C4276 C 0.22076 0.94811 0.80891 0.0
C4277 C 0.23873 0.94995 0.81661 0.0
C4278 C 0.2129 0.93041 0.79906 0.0
C4279 C 0.19439 0.92645 0.78975 0.0
C4280 C 0.18043 0.9265 0.80104 0.0
C4281 C 0.16296 0.92251 0.79193 0.0
C4282 C 0.15936 0.91862 0.77157 0.0
C4283 C 0.17323 0.91863 0.76028 0.0
C4284 C 0.19067 0.92229 0.76932 0.0
C4285 C 0.27271 0.88303 0.81734 0.0
C4286 C 0.26817 0.86879 0.80158 0.0
C4287 C 0.26382 0.89823 0.81884 0.0
C4288 C 0.25032 0.90067 0.80423 0.0
C4289 C 0.24585 0.8863 0.78838 0.0
C4290 C 0.25432 0.8707 0.78725 0.0
C4291 C 0.24065 0.91752 0.80568 0.0
C4292 C 0.22266 0.91573 0.79778 0.0
C4293 C 0.24865 0.93546 0.81493 0.0
C4294 C 0.26773 0.94032 0.82219 0.0
C4295 C 0.28039 0.93768 0.80964 0.0
C4296 C 0.29837 0.94281 0.81653 0.0
C4297 C 0.30383 0.95077 0.83587 0.0
C4298 C 0.29132 0.95365 0.84835 0.0
C4299 C 0.27334 0.94849 0.84156 0.0
H4300 H 0.31775 0.95477 0.84116 0.0
H4301 H 0.14585 0.91564 0.76454 0.0
H4302 H 0.27016 0.97195 0.06943 0.0
H4303 H 0.29873 0.98968 0.0659 0.0
H4304 H 0.32263 0.94181 0.06923 0.0
H4305 H 0.29404 0.9239 0.07276 0.0
H4306 H 0.34265 0.97343 0.09108 0.0
H4307 H 0.31336 0.95272 0.0263 0.0
H4308 H 0.2888 0.94756 0.99936 0.0
H4309 H 0.29082 1.0053 1.00137 0.0
H4310 H 0.31526 0.01081 0.02852 0.0
H4311 H 0.41898 1.00166 0.04586 0.0
H4312 H 0.392 0.98611 0.05633 0.0
H4313 H 0.36808 0.03368 0.05047 0.0
H4314 H 0.39498 0.04922 0.0397 0.0
H4315 H 0.34797 1.00231 0.03036 0.0
H4316 H 0.37804 0.02232 0.09582 0.0
H4317 H 0.40248 0.02623 0.1228 0.0
H4318 H 0.39934 0.96819 0.11846 0.0
H4319 H 0.37494 0.96396 0.0914 0.0
C4320 C 0.28155 0.96527 0.06974 0.0
C4321 C 0.27996 0.94658 0.07129 0.0
C4322 C 0.29778 0.97537 0.06759 0.0
C4323 C 0.31257 0.9669 0.06704 0.0
C4324 C 0.31124 0.94847 0.06957 0.0
C4325 C 0.29497 0.93831 0.07161 0.0
C4326 C 0.32935 0.97726 0.06329 0.0
C4327 C 0.34393 0.97961 0.07773 0.0
C4328 C 0.33074 0.98542 0.04595 0.0
C4329 C 0.31602 0.98217 0.02961 0.0
C4330 C 0.30847 0.96432 0.02113 0.0
C4331 C 0.29459 0.96133 1.00578 0.0
C4332 C 0.28822 0.97609 0.99869 0.0
C4333 C 0.29575 0.99388 0.0069 0.0
C4334 C 0.30963 0.99694 0.02225 0.0
C4335 C 0.408 1.00882 0.04697 0.0
C4336 C 0.40891 0.02652 0.04182 0.0
C4337 C 0.3927 1.00002 0.05312 0.0
C4338 C 0.37815 1.00883 0.05421 0.0
C4339 C 0.37925 0.02674 0.04973 0.0
C4340 C 0.39458 0.03559 0.04368 0.0
C4341 C 0.3613 0.99874 0.0583 0.0
C4342 C 0.34669 0.99629 0.04379 0.0
C4343 C 0.35994 0.99032 0.07547 0.0
C4344 C 0.3748 0.99285 0.09149 0.0
C4345 C 0.38268 0.01041 0.10051 0.0
C4346 C 0.39648 0.01268 0.11586 0.0
C4347 C 0.40249 0.99747 0.1223 0.0
C4348 C 0.39469 0.97996 0.11345 0.0
C4349 C 0.38085 0.97762 0.09814 0.0
H4350 H 0.41317 0.99925 0.13418 0.0
H4351 H 0.27748 0.97375 0.98681 0.0
H4352 H 0.87291 0.62913 0.77583 0.0
H4353 H 0.85071 0.64817 0.77013 0.0
H4354 H 0.89111 0.69622 0.78298 0.0
H4355 H 0.91355 0.67702 0.78918 0.0
H4356 H 0.8643 0.70228 0.80028 0.0
H4357 H 0.86865 0.67904 0.73442 0.0
H4358 H 0.86892 0.65565 0.70666 0.0
H4359 H 0.81595 0.63101 0.71223 0.0
H4360 H 0.81542 0.65418 0.74015 0.0
H4361 H 0.81448 0.76552 0.76567 0.0
H4362 H 0.83505 0.74407 0.76692 0.0
H4363 H 0.79161 0.69977 0.7654 0.0
H4364 H 0.77082 0.7215 0.76432 0.0
H4365 H 0.81868 0.69077 0.74213 0.0
H4366 H 0.81453 0.71615 0.80735 0.0
H4367 H 0.81528 0.74004 0.83491 0.0
H4368 H 0.86936 0.76113 0.83021 0.0
H4369 H 0.86881 0.73776 0.80219 0.0
C4370 C 0.87719 0.64377 0.77742 0.0
C4371 C 0.89516 0.65147 0.78305 0.0
C4372 C 0.86438 0.65471 0.77395 0.0
C4373 C 0.86903 0.67379 0.77576 0.0
C4374 C 0.88701 0.68157 0.78138 0.0
C4375 C 0.8999 0.67057 0.78492 0.0
C4376 C 0.85508 0.68554 0.77276 0.0
C4377 C 0.85456 0.69989 0.78736 0.0
C4378 C 0.8418 0.68224 0.75624 0.0
C4379 C 0.84206 0.66824 0.73951 0.0
C4380 C 0.85711 0.66855 0.72982 0.0
C4381 C 0.8573 0.65536 0.71403 0.0
C4382 C 0.84248 0.64182 0.70772 0.0
C4383 C 0.82742 0.64149 0.71715 0.0
C4384 C 0.82716 0.65467 0.73294 0.0
C4385 C 0.80925 0.75118 0.76539 0.0
C4386 C 0.79098 0.7453 0.76492 0.0
C4387 C 0.82107 0.73889 0.76615 0.0
C4388 C 0.81506 0.72023 0.76657 0.0
C4389 C 0.79668 0.71406 0.76509 0.0
C4390 C 0.78476 0.72648 0.76433 0.0
C4391 C 0.82819 0.70765 0.76953 0.0
C4392 C 0.82848 0.69313 0.755 0.0
C4393 C 0.8414 0.71087 0.78603 0.0
C4394 C 0.84157 0.72529 0.80251 0.0
C4395 C 0.82651 0.72604 0.81198 0.0
C4396 C 0.8269 0.73948 0.82771 0.0
C4397 C 0.84234 0.7521 0.83428 0.0
C4398 C 0.85743 0.75131 0.82515 0.0
C4399 C 0.85705 0.73802 0.80927 0.0
H4400 H 0.8426 0.76249 0.84646 0.0
H4401 H 0.84265 0.63162 0.6955 0.0
H4402 H 0.82598 0.64503 0.99238 0.0
H4403 H 0.85229 0.63978 0.0123 0.0
H4404 H 0.81963 0.60513 0.04483 0.0
H4405 H 0.79322 0.61025 0.02496 0.0
H4406 H 0.84873 0.63121 0.06832 0.0
H4407 H 0.83526 0.58493 0.01272 0.0
H4408 H 0.82726 0.57489 0.97739 0.0
H4409 H 0.87642 0.60499 0.96619 0.0
H4410 H 0.8845 0.61566 1.00146 0.0
H4411 H 0.90823 0.57025 0.09592 0.0
H4412 H 0.88454 0.58747 0.08823 0.0
H4413 H 0.91826 0.62091 0.0556 0.0
H4414 H 0.94181 0.60367 0.06312 0.0
H4415 H 0.88877 0.59773 0.03363 0.0
H4416 H 0.9034 0.64106 0.09132 0.0
H4417 H 0.90981 0.65144 0.12669 0.0
H4418 H 0.85786 0.62571 0.13475 0.0
H4419 H 0.85123 0.61482 0.09946 0.0
C4420 C 0.82445 0.63604 1.00355 0.0
C4421 C 0.80767 0.62773 0.00693 0.0
C4422 C 0.8394 0.63333 0.01508 0.0
C4423 C 0.8377 0.62228 0.03006 0.0
C4424 C 0.82102 0.61388 0.03343 0.0
C4425 C 0.80605 0.61646 0.02179 0.0
C4426 C 0.8535 0.61797 0.04079 0.0
C4427 C 0.8575 0.62377 0.06092 0.0
C4428 C 0.86478 0.60845 0.03082 0.0
C4429 C 0.86041 0.60124 0.00972 0.0
C4430 C 0.84432 0.5895 1.00272 0.0
C4431 C 0.83976 0.58372 0.9827 0.0
C4432 C 0.8513 0.58934 0.96954 0.0
C4433 C 0.86748 0.60068 0.9764 0.0
C4434 C 0.87205 0.60661 0.99641 0.0
C4435 C 0.91074 0.58181 0.08786 0.0
C4436 C 0.92655 0.58562 0.07984 0.0
C4437 C 0.89731 0.59163 0.08354 0.0
C4438 C 0.89976 0.60532 0.07131 0.0
C4439 C 0.91625 0.61038 0.0651 0.0
C4440 C 0.9296 0.60054 0.06932 0.0
C4441 C 0.88434 0.61114 0.06133 0.0
C4442 C 0.88022 0.60537 0.04117 0.0
C4443 C 0.87292 0.62042 0.07144 0.0
C4444 C 0.87689 0.62691 0.09272 0.0
C4445 C 0.8934 0.6374 0.10064 0.0
C4446 C 0.89707 0.64342 0.12069 0.0
C4447 C 0.88427 0.63919 0.13297 0.0
C4448 C 0.86777 0.62896 0.12522 0.0
C4449 C 0.86405 0.62286 0.10519 0.0
H4450 H 0.88713 0.64387 0.14849 0.0
H4451 H 0.84774 0.58487 0.95404 0.0
H4452 H 0.21596 0.09555 0.80211 0.0
H4453 H 0.22996 0.12702 0.80061 0.0
H4454 H 0.19938 0.14608 0.84419 0.0
H4455 H 0.18466 0.11459 0.84481 0.0
H4456 H 0.20197 0.17084 0.82309 0.0
H4457 H 0.2485 0.14464 0.85177 0.0
H4458 H 0.26651 0.12053 0.85413 0.0
H4459 H 0.28438 0.13023 0.79913 0.0
H4460 H 0.26632 0.15433 0.79636 0.0
H4461 H 0.25029 0.26244 0.83538 0.0
H4462 H 0.2382 0.23132 0.84032 0.0
H4463 H 0.26869 0.21052 0.7976 0.0
H4464 H 0.28204 0.24199 0.79407 0.0
H4465 H 0.2661 0.18643 0.81968 0.0
H4466 H 0.21658 0.21439 0.79357 0.0
H4467 H 0.19707 0.23733 0.7948 0.0
H4468 H 0.18448 0.22392 0.85086 0.0
H4469 H 0.20404 0.20106 0.85005 0.0
C4470 C 0.21225 0.10637 0.81153 0.0
C4471 C 0.19914 0.10204 0.82377 0.0
C4472 C 0.22047 0.12468 0.8108 0.0
C4473 C 0.21644 0.1397 0.82266 0.0
C4474 C 0.20318 0.13531 0.83479 0.0
C4475 C 0.19472 0.11701 0.83526 0.0
C4476 C 0.22577 0.15969 0.82231 0.0
C4477 C 0.21605 0.17409 0.82255 0.0
C4478 C 0.24426 0.1648 0.82167 0.0
C4479 C 0.25603 0.15124 0.82382 0.0
C4480 C 0.25633 0.14168 0.84022 0.0
C4481 C 0.2665 0.12799 0.84161 0.0
C4482 C 0.27657 0.12384 0.82678 0.0
C4483 C 0.27659 0.13349 0.81061 0.0
C4484 C 0.26643 0.1472 0.80914 0.0
C4485 C 0.2547 0.25129 0.82719 0.0
C4486 C 0.26743 0.25522 0.8144 0.0
C4487 C 0.24736 0.23312 0.82971 0.0
C4488 C 0.25151 0.21764 0.81874 0.0
C4489 C 0.2647 0.22162 0.80632 0.0
C4490 C 0.27252 0.23989 0.80429 0.0
C4491 C 0.24224 0.19771 0.82003 0.0
C4492 C 0.252 0.18324 0.82008 0.0
C4493 C 0.22381 0.19261 0.82155 0.0
C4494 C 0.21188 0.20615 0.82181 0.0
C4495 C 0.20967 0.21638 0.80616 0.0
C4496 C 0.19862 0.22937 0.8068 0.0
C4497 C 0.18958 0.23212 0.82292 0.0
C4498 C 0.19151 0.22181 0.8384 0.0
C4499 C 0.20256 0.20883 0.83785 0.0
H4500 H 0.18105 0.2422 0.82339 0.0
H4501 H 0.28435 0.11316 0.82782 0.0
H4502 H 0.37533 0.07212 0.27753 0.0
H4503 H 0.35717 0.04269 0.27956 0.0
H4504 H 0.40417 0.01981 0.29233 0.0
H4505 H 0.42244 0.04917 0.28968 0.0
H4506 H 0.37818 0.99602 0.26815 0.0
H4507 H 0.38402 0.03321 0.33003 0.0
H4508 H 0.38384 0.06208 0.35066 0.0
H4509 H 0.32906 0.05919 0.32971 0.0
H4510 H 0.32895 0.03031 0.30887 0.0
H4511 H 0.34007 0.92336 0.31638 0.0
H4512 H 0.35761 0.95012 0.30645 0.0
H4513 H 0.31051 0.9729 0.2942 0.0
H4514 H 0.29287 0.94622 0.30452 0.0
H4515 H 0.33671 0.99678 0.3178 0.0
H4516 H 0.33343 0.96267 0.25165 0.0
H4517 H 0.33598 0.93666 0.22776 0.0
H4518 H 0.38698 0.93418 0.2576 0.0
H4519 H 0.38503 0.96073 0.28112 0.0
C4520 C 0.38174 0.06069 0.28041 0.0
C4521 C 0.40017 0.06277 0.28357 0.0
C4522 C 0.37141 0.04398 0.28166 0.0
C4523 C 0.37941 0.02931 0.28652 0.0
C4524 C 0.39784 0.03107 0.28863 0.0
C4525 C 0.40821 0.04775 0.28707 0.0
C4526 C 0.36846 0.01249 0.29042 0.0
C4527 C 0.36926 0.99611 0.27916 0.0
C4528 C 0.35674 0.01279 0.30464 0.0
C4529 C 0.35648 0.02964 0.31787 0.0
C4530 C 0.37193 0.03873 0.32985 0.0
C4531 C 0.37189 0.05509 0.34157 0.0
C4532 C 0.35645 0.06247 0.34148 0.0
C4533 C 0.341 0.05343 0.32978 0.0
C4534 C 0.34096 0.03703 0.31807 0.0
C4535 C 0.33345 0.93406 0.31151 0.0
C4536 C 0.31516 0.93286 0.31142 0.0
C4537 C 0.34345 0.9492 0.30559 0.0
C4538 C 0.33531 0.96336 0.2994 0.0
C4539 C 0.31698 0.96202 0.29883 0.0
C4540 C 0.30694 0.94681 0.30468 0.0
C4541 C 0.34621 0.98022 0.29529 0.0
C4542 C 0.34554 0.99667 0.30672 0.0
C4543 C 0.35822 0.97998 0.2814 0.0
C4544 C 0.35896 0.9634 0.26823 0.0
C4545 C 0.3451 0.95644 0.25318 0.0
C4546 C 0.34651 0.94174 0.23962 0.0
C4547 C 0.36153 0.93363 0.24129 0.0
C4548 C 0.37531 0.9404 0.25637 0.0
C4549 C 0.37414 0.95538 0.2697 0.0
H4550 H 0.36252 0.92215 0.23086 0.0
H4551 H 0.35647 0.07519 0.35048 0.0
H4552 H 0.55209 0.35194 0.7008 0.0
H4553 H 0.55763 0.37723 0.68157 0.0
H4554 H 0.5192 0.34762 0.63441 0.0
H4555 H 0.51432 0.32181 0.6533 0.0
H4556 H 0.54582 0.36458 0.61973 0.0
H4557 H 0.5106 0.38328 0.66935 0.0
H4558 H 0.50429 0.38921 0.70332 0.0
H4559 H 0.55259 0.42794 0.71762 0.0
H4560 H 0.55928 0.42208 0.68379 0.0
H4561 H 0.5246 0.43728 0.56942 0.0
H4562 H 0.52697 0.41097 0.58683 0.0
H4563 H 0.56232 0.44567 0.63349 0.0
H4564 H 0.55896 0.47222 0.6165 0.0
H4565 H 0.54027 0.42629 0.64909 0.0
H4566 H 0.57474 0.4097 0.599 0.0
H4567 H 0.58231 0.40283 0.56571 0.0
H4568 H 0.53695 0.36012 0.55234 0.0
H4569 H 0.52902 0.36683 0.58547 0.0
C4570 C 0.54478 0.35084 0.68635 0.0
C4571 C 0.53257 0.335 0.67867 0.0
C4572 C 0.54793 0.36535 0.67536 0.0
C4573 C 0.53854 0.36461 0.65666 0.0
C4574 C 0.52657 0.34862 0.64882 0.0
C4575 C 0.52369 0.33391 0.65966 0.0
C4576 C 0.54086 0.38062 0.64548 0.0
C4577 C 0.54443 0.37806 0.62606 0.0
C4578 C 0.53969 0.39838 0.65389 0.0
C4579 C 0.53549 0.40215 0.6741 0.0
C4580 C 0.5199 0.39301 0.67977 0.0
C4581 C 0.51626 0.39636 0.69899 0.0
C4582 C 0.52805 0.40892 0.71262 0.0
C4583 C 0.54348 0.41821 0.70705 0.0
C4584 C 0.54719 0.4149 0.68785 0.0
C4585 C 0.53306 0.4392 0.58328 0.0
C4586 C 0.54153 0.45676 0.59166 0.0
C4587 C 0.53457 0.4241 0.59318 0.0
C4588 C 0.54504 0.42609 0.61147 0.0
C4589 C 0.5541 0.44364 0.61947 0.0
C4590 C 0.55221 0.45883 0.60977 0.0
C4591 C 0.54505 0.41035 0.62308 0.0
C4592 C 0.54188 0.41292 0.64267 0.0
C4593 C 0.54668 0.39263 0.6148 0.0
C4594 C 0.55121 0.38888 0.59469 0.0
C4595 C 0.56629 0.39896 0.58891 0.0
C4596 C 0.57067 0.39506 0.57007 0.0
C4597 C 0.5601 0.38108 0.5569 0.0
C4598 C 0.54513 0.37096 0.56254 0.0
C4599 C 0.5407 0.37479 0.58135 0.0
H4600 H 0.56353 0.37806 0.54235 0.0
H4601 H 0.52522 0.41147 0.7275 0.0
H4602 H 0.48886 0.8174 0.34262 0.0
H4603 H 0.45708 0.81645 0.33356 0.0
H4604 H 0.4504 0.82489 0.3945 0.0
H4605 H 0.48198 0.82559 0.4035 0.0
H4606 H 0.42255 0.80265 0.37835 0.0
H4607 H 0.4484 0.85954 0.36229 0.0
H4608 H 0.4684 0.88191 0.34782 0.0
H4609 H 0.4472 0.85507 0.29024 0.0
H4610 H 0.42716 0.83243 0.30441 0.0
H4611 H 0.33706 0.8291 0.36116 0.0
H4612 H 0.36804 0.82717 0.3702 0.0
H4613 H 0.37277 0.81145 0.30973 0.0
H4614 H 0.3414 0.81337 0.30064 0.0
H4615 H 0.40128 0.83734 0.32635 0.0
H4616 H 0.37399 0.78039 0.3462 0.0
H4617 H 0.3523 0.76267 0.36349 0.0
H4618 H 0.37554 0.79473 0.41797 0.0
H4619 H 0.39732 0.81272 0.40096 0.0
C4620 C 0.48068 0.81901 0.35413 0.0
C4621 C 0.4884 0.82155 0.37387 0.0
C4622 C 0.46229 0.8186 0.34893 0.0
C4623 C 0.45075 0.82078 0.3632 0.0
C4624 C 0.4585 0.82309 0.38292 0.0
C4625 C 0.47683 0.82355 0.38811 0.0
C4626 C 0.43087 0.82072 0.35764 0.0
C4627 C 0.41809 0.81039 0.36704 0.0
C4628 C 0.42431 0.83078 0.34301 0.0
C4629 C 0.43644 0.84417 0.33441 0.0
C4630 C 0.44811 0.85832 0.34655 0.0
C4631 C 0.45942 0.87107 0.3384 0.0
C4632 C 0.45911 0.86988 0.31812 0.0
C4633 C 0.44745 0.85595 0.30595 0.0
C4634 C 0.4361 0.84317 0.31403 0.0
C4635 C 0.3445 0.82473 0.34974 0.0
C4636 C 0.33627 0.82093 0.33014 0.0
C4637 C 0.36245 0.82367 0.35499 0.0
C4638 C 0.37327 0.81897 0.34085 0.0
C4639 C 0.36505 0.81502 0.32118 0.0
C4640 C 0.34689 0.81586 0.31593 0.0
C4641 C 0.39305 0.81885 0.34656 0.0
C4642 C 0.4058 0.82936 0.33741 0.0
C4643 C 0.39956 0.80939 0.36181 0.0
C4644 C 0.3872 0.79796 0.37228 0.0
C4645 C 0.37449 0.78363 0.36187 0.0
C4646 C 0.36218 0.77356 0.37161 0.0
C4647 C 0.36251 0.77762 0.39179 0.0
C4648 C 0.3753 0.79161 0.40233 0.0
C4649 C 0.38767 0.80172 0.39265 0.0
H4650 H 0.3528 0.76996 0.39921 0.0
H4651 H 0.46787 0.87977 0.31184 0.0
H4652 H 1.00623 0.74484 0.15362 0.0
H4653 H 1.00566 0.71593 0.13337 0.0
H4654 H 0.03473 0.69698 0.18142 0.0
H4655 H 0.03526 0.72595 0.20186 0.0
H4656 H 0.04924 0.69179 0.14781 0.0
H4657 H 0.99187 0.68013 0.16733 0.0
H4658 H 0.96157 0.68402 0.17197 0.0
H4659 H 0.94773 0.68049 0.10984 0.0
H4660 H 0.97807 0.67706 0.10481 0.0
H4661 H 0.04031 0.59982 0.10417 0.0
H4662 H 0.03984 0.62796 0.1254 0.0
H4663 H 1.00935 0.64694 0.07835 0.0
H4664 H 1.00971 0.6185 0.05713 0.0
H4665 H 0.99549 0.65162 0.112 0.0
H4666 H 0.05336 0.66485 0.09271 0.0
H4667 H 0.08283 0.65817 0.08796 0.0
H4668 H 0.09498 0.65721 0.14973 0.0
H4669 H 0.06545 0.6636 0.15482 0.0
C4670 C 1.01233 0.73445 0.15998 0.0
C4671 C 0.02079 0.7377 0.17938 0.0
C4672 C 1.01193 0.71788 0.14838 0.0
C4673 C 0.02007 0.7042 0.15586 0.0
C4674 C 0.02833 0.70731 0.17532 0.0
C4675 C 0.02857 0.72384 0.18702 0.0
C4676 C 0.02082 0.68714 0.14302 0.0
C4677 C 0.03745 0.6829 0.14019 0.0
C4678 C 1.00546 0.6757 0.13266 0.0
C4679 C 0.98739 0.6786 0.13572 0.0
C4680 C 0.98248 0.68051 0.15466 0.0
C4681 C 0.96526 0.68257 0.15736 0.0
C4682 C 0.95275 0.68257 0.14121 0.0
C4683 C 0.95745 0.68056 0.12234 0.0
C4684 C 0.97467 0.67859 0.11956 0.0
C4685 C 0.03386 0.61022 0.09829 0.0
C4686 C 0.02539 0.60732 0.07898 0.0
C4687 C 0.03355 0.62626 0.11041 0.0
C4688 C 0.02474 0.63972 0.10344 0.0
C4689 C 0.01633 0.63682 0.08402 0.0
C4690 C 0.01669 0.62073 0.07185 0.0
C4691 C 0.02386 0.6565 0.11663 0.0
C4692 C 1.00724 0.66063 0.11956 0.0
C4693 C 0.03918 0.66785 0.12706 0.0
C4694 C 0.05714 0.66457 0.12412 0.0
C4695 C 0.06229 0.66314 0.10527 0.0
C4696 C 0.079 0.6594 0.10252 0.0
C4697 C 0.09075 0.65723 0.11853 0.0
C4698 C 0.08585 0.65888 0.13734 0.0
C4699 C 0.06913 0.66258 0.14017 0.0
H4700 H 0.10367 0.6543 0.11637 0.0
H4701 H 0.9394 0.68406 0.14332 0.0
H4702 H 0.08777 0.30593 0.84757 0.0
H4703 H 0.11775 0.30473 0.83982 0.0
H4704 H 0.13913 0.34399 0.89025 0.0
H4705 H 0.1092 0.34575 0.89744 0.0
H4706 H 0.15957 0.35194 0.8663 0.0
H4707 H 0.1419 0.29472 0.88606 0.0
H4708 H 0.12276 0.26541 0.88782 0.0
H4709 H 0.12583 0.24841 0.82737 0.0
H4710 H 0.1449 0.27772 0.82521 0.0
H4711 H 0.24861 0.33227 0.86014 0.0
H4712 H 0.21951 0.33367 0.87096 0.0
H4713 H 0.19401 0.30825 0.8141 0.0
H4714 H 0.2229 0.30738 0.80313 0.0
H4715 H 0.17688 0.29315 0.84401 0.0
H4716 H 0.19715 0.35455 0.82848 0.0
H4717 H 0.21828 0.38354 0.83259 0.0
H4718 H 0.21288 0.39152 0.89372 0.0
H4719 H 0.19187 0.36247 0.89 0.0
C4720 C 0.09881 0.31439 0.85699 0.0
C4721 C 0.09567 0.32601 0.87314 0.0
C4722 C 0.11622 0.31357 0.85266 0.0
C4723 C 0.13138 0.32402 0.8645 0.0
C4724 C 0.12814 0.33571 0.88058 0.0
C4725 C 0.11077 0.33669 0.88476 0.0
C4726 C 0.15034 0.32294 0.8601 0.0
C4727 C 0.16321 0.33895 0.86166 0.0
C4728 C 0.15595 0.30621 0.85424 0.0
C4729 C 0.14467 0.28848 0.85541 0.0
C4730 C 0.13841 0.28476 0.87311 0.0
C4731 C 0.1276 0.26815 0.87419 0.0
C4732 C 0.12303 0.25508 0.8577 0.0
C4733 C 0.12936 0.25857 0.84012 0.0
C4734 C 0.14021 0.27517 0.83896 0.0
C4735 C 0.23683 0.32707 0.84986 0.0
C4736 C 0.23844 0.31994 0.83055 0.0
C4737 C 0.22003 0.32788 0.8561 0.0
C4738 C 0.20409 0.32117 0.84345 0.0
C4739 C 0.20576 0.31363 0.82436 0.0
C4740 C 0.22249 0.31325 0.818 0.0
C4741 C 0.18578 0.32214 0.84972 0.0
C4742 C 0.1731 0.30609 0.8486 0.0
C4743 C 0.18062 0.33875 0.85682 0.0
C4744 C 0.19305 0.35629 0.85898 0.0
C4745 C 0.20055 0.36245 0.84281 0.0
C4746 C 0.21249 0.37889 0.84507 0.0
C4747 C 0.21694 0.38935 0.86341 0.0
C4748 C 0.20943 0.3834 0.87952 0.0
C4749 C 0.19749 0.36696 0.87734 0.0
H4750 H 0.2262 0.40207 0.86513 0.0
H4751 H 0.11463 0.24224 0.85855 0.0
H4752 H 0.559 0.80627 0.00859 0.0
H4753 H 0.5453 0.77613 0.01502 0.0
H4754 H 0.54839 0.75412 0.9556 0.0
H4755 H 0.56141 0.78442 0.94886 0.0
H4756 H 0.5173 0.74016 0.96803 0.0
H4757 H 0.57986 0.7502 0.9904 0.0
H4758 H 0.6069 0.76934 0.00856 0.0
H4759 H 0.58427 0.76677 0.0622 0.0
H4760 H 0.55697 0.74782 0.04427 0.0
H4761 H 0.53703 0.65049 0.9964 0.0
H4762 H 0.53917 0.67951 0.98273 0.0
H4763 H 0.50738 0.69903 0.02479 0.0
H4764 H 0.50435 0.66997 0.03778 0.0
H4765 H 0.55062 0.71409 0.02017 0.0
H4766 H 0.48747 0.70177 0.99554 0.0
H4767 H 0.46089 0.68396 0.97529 0.0
H4768 H 0.48543 0.69117 0.92345 0.0
H4769 H 0.51247 0.70845 0.94352 0.0
C4770 C 0.55696 0.79491 0.99703 0.0
C4771 C 0.56157 0.79733 0.97842 0.0
C4772 C 0.54893 0.77788 1.00061 0.0
C4773 C 0.54602 0.76308 0.98576 0.0
C4774 C 0.5505 0.76551 0.96712 0.0
C4775 C 0.55818 0.78263 0.96342 0.0
C4776 C 0.53992 0.74471 0.99021 0.0
C4777 C 0.52455 0.73434 0.97935 0.0
C4778 C 0.54954 0.7374 1.00497 0.0
C4779 C 0.56639 0.74763 0.016 0.0
C4780 C 0.58069 0.75367 1.00608 0.0
C4781 C 0.59603 0.76453 0.01632 0.0
C4782 C 0.5973 0.76928 0.03652 0.0
C4783 C 0.58327 0.76306 0.04655 0.0
C4784 C 0.56787 0.75223 0.03636 0.0
C4785 C 0.52992 0.66072 1.00214 0.0
C4786 C 0.52022 0.65793 0.01784 0.0
C4787 C 0.53108 0.67715 0.9943 0.0
C4788 C 0.52295 0.69097 1.00247 0.0
C4789 C 0.51308 0.68813 0.01788 0.0
C4790 C 0.51148 0.6716 0.02532 0.0
C4791 C 0.52795 0.70948 0.99802 0.0
C4792 C 0.54327 0.71988 0.0089 0.0
C4793 C 0.51837 0.71665 0.98312 0.0
C4794 C 0.50221 0.70597 0.97112 0.0
C4795 C 0.48742 0.69915 0.9799 0.0
C4796 C 0.47221 0.68924 0.96843 0.0
C4797 C 0.47151 0.68631 0.94811 0.0
C4798 C 0.48602 0.69333 0.93921 0.0
C4799 C 0.50132 0.70314 0.95064 0.0
H4800 H 0.4597 0.6787 0.93924 0.0
H4801 H 0.60915 0.77776 0.04441 0.0
H4802 H 0.06542 0.76492 0.65967 0.0
H4803 H 0.09571 0.7733 0.67633 0.0
H4804 H 0.07656 0.79714 0.72744 0.0
H4805 H 0.04642 0.78883 0.71113 0.0
H4806 H 0.10325 0.82024 0.71196 0.0
H4807 H 0.08789 0.7596 0.72948 0.0
H4808 H 0.07608 0.72695 0.71975 0.0
H4809 H 0.11974 0.72185 0.68773 0.0
H4810 H 0.13155 0.75467 0.69679 0.0
H4811 H 0.17965 0.82927 0.78559 0.0
H4812 H 0.14994 0.82469 0.76712 0.0
H4813 H 0.16926 0.79997 0.71662 0.0
H4814 H 0.19853 0.80441 0.73464 0.0
H4815 H 0.14239 0.77722 0.7313 0.0
H4816 H 0.15767 0.83755 0.71353 0.0
H4817 H 0.16644 0.87097 0.71763 0.0
H4818 H 0.12194 0.87666 0.74808 0.0
H4819 H 0.11311 0.84324 0.74456 0.0
C4820 C 0.06771 0.77168 0.67458 0.0
C4821 C 0.05379 0.77645 0.68418 0.0
C4822 C 0.08489 0.77648 0.68394 0.0
C4823 C 0.08802 0.78594 0.70285 0.0
C4824 C 0.07411 0.78997 0.71271 0.0
C4825 C 0.05701 0.78511 0.70346 0.0
C4826 C 0.10588 0.79213 0.71246 0.0
C4827 C 0.11184 0.81094 0.71646 0.0
C4828 C 0.11678 0.7797 0.71774 0.0
C4829 C 0.11054 0.75967 0.71367 0.0
C4830 C 0.09497 0.75155 0.72032 0.0
C4831 C 0.08824 0.73301 0.71488 0.0
C4832 C 0.09713 0.72234 0.70307 0.0
C4833 C 0.11285 0.73016 0.69684 0.0
C4834 C 0.11957 0.74874 0.70212 0.0
C4835 C 0.17755 0.82348 0.77035 0.0
C4836 C 0.19119 0.81718 0.76148 0.0
C4837 C 0.16073 0.82083 0.75991 0.0
C4838 C 0.15768 0.81178 0.74077 0.0
C4839 C 0.17158 0.80691 0.73145 0.0
C4840 C 0.18829 0.80969 0.7417 0.0
C4841 C 0.13982 0.8055 0.731 0.0
C4842 C 0.13382 0.78659 0.72696 0.0
C4843 C 0.12883 0.81785 0.72571 0.0
C4844 C 0.13483 0.83787 0.72896 0.0
C4845 C 0.14994 0.84589 0.72144 0.0
C4846 C 0.15488 0.86484 0.72359 0.0
C4847 C 0.14471 0.87589 0.73305 0.0
C4848 C 0.12978 0.86805 0.74073 0.0
C4849 C 0.12482 0.84912 0.73869 0.0
H4850 H 0.14824 0.89053 0.73424 0.0
H4851 H 0.09185 0.70801 0.69878 0.0
H4852 H 0.05083 0.38843 0.46835 0.0
H4853 H 0.03904 0.41633 0.47362 0.0
H4854 H 0.08968 0.44379 0.50404 0.0
H4855 H 0.10131 0.41514 0.49958 0.0
H4856 H 0.06315 0.4422 0.52597 0.0
H4857 H 0.07016 0.45336 0.45928 0.0
H4858 H 0.06504 0.44466 0.42357 0.0
H4859 H 1.00934 0.44207 0.42393 0.0
H4860 H 1.014 0.45019 0.45971 0.0
H4861 H 0.04993 0.52808 0.55309 0.0
H4862 H 0.05929 0.50289 0.53428 0.0
H4863 H 1.00492 0.47883 0.5141 0.0
H4864 H 0.99543 0.50456 0.53225 0.0
H4865 H 0.02989 0.47816 0.48403 0.0
H4866 H 0.02029 0.46188 0.54729 0.0
H4867 H 0.02224 0.47078 0.58281 0.0
H4868 H 0.07881 0.47974 0.58769 0.0
H4869 H 0.07718 0.47148 0.55206 0.0
C4870 C 0.05942 0.40045 0.47617 0.0
C4871 C 0.07667 0.3998 0.48432 0.0
C4872 C 0.05281 0.41644 0.47868 0.0
C4873 C 0.06359 0.43203 0.48899 0.0
C4874 C 0.08131 0.43174 0.4959 0.0
C4875 C 0.08786 0.41552 0.49366 0.0
C4876 C 0.05536 0.44705 0.49636 0.0
C4877 C 0.05617 0.45024 0.51672 0.0
C4878 C 0.04511 0.45645 0.4841 0.0
C4879 C 0.04245 0.45224 0.46236 0.0
C4880 C 0.05679 0.45079 0.45183 0.0
C4881 C 0.05396 0.44595 0.43153 0.0
C4882 C 0.03688 0.44277 0.4215 0.0
C4883 C 0.02258 0.4445 0.43172 0.0
C4884 C 0.02531 0.44922 0.45203 0.0
C4885 C 0.03999 0.51705 0.54524 0.0
C4886 C 0.02205 0.518 0.54429 0.0
C4887 C 0.04532 0.50311 0.534 0.0
C4888 C 0.03271 0.48945 0.52256 0.0
C4889 C 1.01471 0.48962 0.52256 0.0
C4890 C 1.00935 0.50384 0.53356 0.0
C4891 C 0.03864 0.47359 0.5134 0.0
C4892 C 0.03701 0.47001 0.49297 0.0
C4893 C 0.0476 0.46313 0.52537 0.0
C4894 C 0.04862 0.46609 0.54702 0.0
C4895 C 0.03314 0.46569 0.55595 0.0
C4896 C 0.03419 0.47072 0.57608 0.0
C4897 C 0.05064 0.47583 0.5875 0.0
C4898 C 0.06608 0.47577 0.57882 0.0
C4899 C 0.0651 0.47091 0.55866 0.0
H4900 H 0.05144 0.47982 0.60308 0.0
H4901 H 0.03473 0.439 0.4058 0.0
H4902 H 0.47028 0.29637 0.20197 0.0
H4903 H 0.44783 0.28627 0.2223 0.0
H4904 H 0.42965 0.23717 0.18165 0.0
H4905 H 0.45178 0.24768 0.1608 0.0
H4906 H 0.40432 0.2559 0.1917 0.0
H4907 H 0.44939 0.23153 0.22642 0.0
H4908 H 0.4806 0.23271 0.23918 0.0
H4909 H 0.47996 0.28118 0.27789 0.0
H4910 H 0.44879 0.28038 0.26531 0.0
H4911 H 0.34491 0.26115 0.26228 0.0
H4912 H 0.36528 0.24769 0.24259 0.0
H4913 H 0.40666 0.29319 0.26534 0.0
H4914 H 0.38642 0.30669 0.28488 0.0
H4915 H 0.41847 0.26053 0.26378 0.0
H4916 H 0.38597 0.2944 0.22391 0.0
H4917 H 0.36273 0.30575 0.20406 0.0
H4918 H 0.34668 0.25291 0.17052 0.0
H4919 H 0.36962 0.24113 0.19049 0.0
C4920 C 0.4612 0.28364 0.19728 0.0
C4921 C 0.46234 0.27282 0.17999 0.0
C4922 C 0.44882 0.27763 0.20905 0.0
C4923 C 0.43785 0.26057 0.20379 0.0
C4924 C 0.43847 0.2501 0.18604 0.0
C4925 C 0.45069 0.25629 0.17403 0.0
C4926 C 0.42409 0.25537 0.21576 0.0
C4927 C 0.40702 0.25592 0.20741 0.0
C4928 C 0.42826 0.25605 0.23616 0.0
C4929 C 0.44659 0.25572 0.24509 0.0
C4930 C 0.45583 0.24233 0.2378 0.0
C4931 C 0.47356 0.24298 0.24495 0.0
C4932 C 0.48223 0.25696 0.2594 0.0
C4933 C 0.47318 0.27027 0.26681 0.0
C4934 C 0.45543 0.26966 0.25976 0.0
C4935 C 0.35846 0.268 0.26324 0.0
C4936 C 0.36435 0.28475 0.27505 0.0
C4937 C 0.36991 0.2604 0.25204 0.0
C4938 C 0.38727 0.26944 0.25271 0.0
C4939 C 0.39328 0.28597 0.26489 0.0
C4940 C 0.38179 0.29368 0.2759 0.0
C4941 C 0.39892 0.26242 0.2397 0.0
C4942 C 0.41535 0.25925 0.248 0.0
C4943 C 0.39459 0.26051 0.21914 0.0
C4944 C 0.37908 0.26669 0.20922 0.0
C4945 C 0.37708 0.28502 0.21279 0.0
C4946 C 0.36408 0.29159 0.20136 0.0
C4947 C 0.35312 0.28001 0.18616 0.0
C4948 C 0.35506 0.26181 0.18243 0.0
C4949 C 0.36798 0.25516 0.19388 0.0
H4950 H 0.34321 0.28519 0.17716 0.0
H4951 H 0.49599 0.25752 0.2648 0.0
H4952 H 0.65503 0.57526 0.38386 0.0
H4953 H 0.63902 0.57835 0.41203 0.0
H4954 H 0.61226 0.52264 0.39702 0.0
H4955 H 0.62706 0.52033 0.36751 0.0
H4956 H 0.59039 0.53569 0.41245 0.0
H4957 H 0.65101 0.54507 0.4407 0.0
H4958 H 0.68264 0.55871 0.44689 0.0
H4959 H 0.66955 0.61123 0.4633 0.0
H4960 H 0.63786 0.59795 0.45701 0.0
H4961 H 0.5604 0.54161 0.51085 0.0
H4962 H 0.57451 0.53331 0.48154 0.0
H4963 H 0.59356 0.59014 0.47897 0.0
H4964 H 0.57969 0.59831 0.50749 0.0
H4965 H 0.61971 0.57287 0.47419 0.0
H4966 H 0.55823 0.56144 0.44567 0.0
H4967 H 0.52724 0.54587 0.44204 0.0
H4968 H 0.54331 0.49422 0.42902 0.0
H4969 H 0.57444 0.50947 0.43286 0.0
C4970 C 0.64578 0.56359 0.38653 0.0
C4971 C 0.64265 0.54748 0.37315 0.0
C4972 C 0.63664 0.56525 0.40311 0.0
C4973 C 0.62452 0.55056 0.40791 0.0
C4974 C 0.62138 0.53441 0.39438 0.0
C4975 C 0.63003 0.533 0.37731 0.0
C4976 C 0.61496 0.5522 0.42644 0.0
C4977 C 0.59713 0.54364 0.42593 0.0
C4978 C 0.62303 0.56251 0.44469 0.0
C4979 C 0.64207 0.57054 0.44819 0.0
C4980 C 0.65489 0.55954 0.44549 0.0
C4981 C 0.67282 0.56721 0.44904 0.0
C4982 C 0.6781 0.58583 0.45543 0.0
C4983 C 0.66545 0.59682 0.45832 0.0
C4984 C 0.64751 0.58923 0.45478 0.0
C4985 C 0.56733 0.55234 0.50385 0.0
C4986 C 0.56862 0.57075 0.51189 0.0
C4987 C 0.57554 0.54758 0.48695 0.0
C4988 C 0.58541 0.56103 0.47755 0.0
C4989 C 0.58634 0.57927 0.48555 0.0
C4990 C 0.57816 0.58397 0.5021 0.0
C4991 C 0.59527 0.55678 0.45991 0.0
C4992 C 0.61315 0.56484 0.46065 0.0
C4993 C 0.58737 0.54571 0.44216 0.0
C4994 C 0.56867 0.53658 0.43976 0.0
C4995 C 0.55517 0.54675 0.44218 0.0
C4996 C 0.53758 0.53798 0.44007 0.0
C4997 C 0.53331 0.51906 0.43536 0.0
C4998 C 0.54663 0.50887 0.4327 0.0
C4999 C 0.56425 0.51757 0.43484 0.0
H5000 H 0.51968 0.5123 0.43371 0.0
H5001 H 0.69199 0.59173 0.45818 0.0
H5002 H 0.23423 0.86426 0.10283 0.0
H5003 H 0.24281 0.85282 0.13362 0.0
H5004 H 0.25051 0.9073 0.16418 0.0
H5005 H 0.24242 0.91881 0.13338 0.0
H5006 H 0.27593 0.89283 0.17807 0.0
H5007 H 0.21439 0.87365 0.16889 0.0
H5008 H 0.1847 0.85978 0.15229 0.0
H5009 H 0.20044 0.80739 0.14548 0.0
H5010 H 0.23032 0.821 0.16186 0.0
H5011 H 0.28066 0.86352 0.2723 0.0
H5012 H 0.27124 0.87541 0.24248 0.0
H5013 H 0.27029 0.82326 0.2091 0.0
H5014 H 0.27898 0.81081 0.23935 0.0
H5015 H 0.24115 0.83772 0.19787 0.0
H5016 H 0.305 0.86169 0.20899 0.0
H5017 H 0.33027 0.87695 0.23321 0.0
H5018 H 0.30525 0.92361 0.24256 0.0
H5019 H 0.27985 0.90864 0.21834 0.0
C5020 C 0.2376 0.87377 0.11613 0.0
C5021 C 0.23752 0.89244 0.11557 0.0
C5022 C 0.24248 0.86721 0.13382 0.0
C5023 C 0.2472 0.87911 0.15148 0.0
C5024 C 0.24701 0.89776 0.1509 0.0
C5025 C 0.24224 0.90432 0.13322 0.0
C5026 C 0.25255 0.87212 0.17038 0.0
C5027 C 0.2682 0.88083 0.18234 0.0
C5028 C 0.24251 0.85663 0.17647 0.0
C5029 C 0.22465 0.84838 0.16639 0.0
C5030 C 0.21157 0.8592 0.16368 0.0
C5031 C 0.1947 0.85139 0.15436 0.0
C5032 C 0.1907 0.83273 0.14778 0.0
C5033 C 0.20357 0.82185 0.15056 0.0
C5034 C 0.22047 0.8296 0.15988 0.0
C5035 C 0.27869 0.8545 0.25866 0.0
C5036 C 0.28082 0.83615 0.25835 0.0
C5037 C 0.27331 0.86142 0.24149 0.0
C5038 C 0.27033 0.85041 0.22334 0.0
C5039 C 0.2726 0.83212 0.22287 0.0
C5040 C 0.27779 0.82505 0.24017 0.0
C5041 C 0.26472 0.85798 0.20497 0.0
C5042 C 0.24895 0.84951 0.19329 0.0
C5043 C 0.27429 0.87406 0.19955 0.0
C5044 C 0.29056 0.88405 0.21187 0.0
C5045 C 0.30503 0.87532 0.216 0.0
C5046 C 0.31932 0.88387 0.22979 0.0
C5047 C 0.31929 0.90116 0.23951 0.0
C5048 C 0.30521 0.91019 0.23505 0.0
C5049 C 0.29093 0.90173 0.22118 0.0
H5050 H 0.33016 0.90754 0.25053 0.0
H5051 H 0.17762 0.8267 0.14057 0.0
H5052 H 0.97949 0.59976 0.83766 0.0
H5053 H 0.99083 0.5897 0.86846 0.0
H5054 H 0.94563 0.60295 0.89416 0.0
H5055 H 0.93441 0.6131 0.86359 0.0
H5056 H 0.97366 0.61498 0.91947 0.0
H5057 H 0.95199 0.5573 0.87908 0.0
H5058 H 0.95004 0.53379 0.85081 0.0
H5059 H 1.00508 0.53193 0.86449 0.0
H5060 H 1.0074 0.55557 0.89274 0.0
H5061 H 0.9715 0.5683 1.00226 0.0
H5062 H 0.9656 0.5762 0.96916 0.0
H5063 H 0.01823 0.57021 0.95872 0.0
H5064 H 0.02437 0.56254 0.99232 0.0
H5065 H 0.99035 0.55447 0.92516 0.0
H5066 H 1.01256 0.6114 0.96464 0.0
H5067 H 1.01506 0.63386 0.99396 0.0
H5068 H 0.96009 0.6367 0.98166 0.0
H5069 H 0.95725 0.61412 0.95233 0.0
C5070 C 0.97203 0.60069 0.84993 0.0
C5071 C 0.95608 0.60755 0.84804 0.0
C5072 C 0.97846 0.5947 0.86758 0.0
C5073 C 0.96912 0.59532 0.88394 0.0
C5074 C 0.95325 0.60227 0.88201 0.0
C5075 C 0.94682 0.60818 0.86441 0.0
C5076 C 0.97595 0.5895 0.90328 0.0
C5077 C 0.97711 0.60164 0.92053 0.0
C5078 C 0.98122 0.57234 0.90511 0.0
C5079 C 0.97991 0.55839 0.88789 0.0
C5080 C 0.96372 0.55202 0.87594 0.0
C5081 C 0.96254 0.53863 0.85995 0.0
C5082 C 0.97744 0.53141 0.85582 0.0
C5083 C 0.99355 0.53756 0.86769 0.0
C5084 C 0.99481 0.55094 0.8837 0.0
C5085 C 0.98191 0.56869 0.99302 0.0
C5086 C 0.99849 0.56493 1.00023 0.0
C5087 C 0.97847 0.57317 0.97394 0.0
C5088 C 0.99139 0.57385 0.96114 0.0
C5089 C 1.00793 0.56976 0.96811 0.0
C5090 C 1.0115 0.56553 0.98745 0.0
C5091 C 0.98758 0.57985 0.94112 0.0
C5092 C 0.98701 0.56783 0.92389 0.0
C5093 C 0.98299 0.59716 0.93913 0.0
C5094 C 0.98467 0.61104 0.9564 0.0
C5095 C 1.001 0.61679 0.96824 0.0
C5096 C 1.00248 0.62954 0.98484 0.0
C5097 C 0.98773 0.63668 0.98969 0.0
C5098 C 0.9715 0.63115 0.97788 0.0
C5099 C 0.96995 0.61842 0.96124 0.0
H5100 H 0.98889 0.64652 1.00258 0.0
H5101 H 0.97649 0.52102 0.84346 0.0
H5102 H 0.28424 0.1588 0.56375 0.0
H5103 H 0.29248 0.17702 0.59586 0.0
H5104 H 0.28063 0.22465 0.57086 0.0
H5105 H 0.27264 0.20664 0.53873 0.0
H5106 H 0.31179 0.23169 0.59393 0.0
H5107 H 0.25261 0.20257 0.59642 0.0
H5108 H 0.22793 0.17678 0.59391 0.0
H5109 H 0.25551 0.15483 0.64041 0.0
H5110 H 0.28055 0.18031 0.64294 0.0
H5111 H 0.29735 0.28903 0.67588 0.0
H5112 H 0.29957 0.27067 0.64549 0.0
H5113 H 0.31073 0.22668 0.67759 0.0
H5114 H 0.30785 0.24494 0.70816 0.0
H5115 H 0.28252 0.21633 0.65155 0.0
H5116 H 0.34091 0.24988 0.6504 0.0
H5117 H 0.36335 0.27758 0.65211 0.0
H5118 H 0.33445 0.29364 0.60232 0.0
H5119 H 0.31165 0.26623 0.60054 0.0
C5120 C 0.28338 0.17315 0.56516 0.0
C5121 C 0.27786 0.18139 0.54887 0.0
C5122 C 0.28804 0.18349 0.58344 0.0
C5123 C 0.28708 0.20209 0.58559 0.0
C5124 C 0.28151 0.2103 0.56935 0.0
C5125 C 0.27691 0.20001 0.55109 0.0
C5126 C 0.29201 0.21311 0.60477 0.0
C5127 C 0.30539 0.22844 0.60658 0.0
C5128 C 0.2837 0.20856 0.62113 0.0
C5129 C 0.26859 0.19324 0.61968 0.0
C5130 C 0.25352 0.19215 0.60597 0.0
C5131 C 0.23944 0.1776 0.60456 0.0
C5132 C 0.24018 0.16414 0.61694 0.0
C5133 C 0.25498 0.16524 0.63079 0.0
C5134 C 0.26912 0.17973 0.63221 0.0
C5135 C 0.30096 0.27572 0.67651 0.0
C5136 C 0.30228 0.26825 0.69418 0.0
C5137 C 0.30227 0.26524 0.65914 0.0
C5138 C 0.30534 0.24733 0.65933 0.0
C5139 C 0.3083 0.24047 0.67722 0.0
C5140 C 0.30668 0.25085 0.69459 0.0
C5141 C 0.30247 0.23497 0.64088 0.0
C5142 C 0.28928 0.21941 0.6391 0.0
C5143 C 0.31068 0.23958 0.62443 0.0
C5144 C 0.32453 0.25598 0.62538 0.0
C5145 C 0.33928 0.25935 0.63988 0.0
C5146 C 0.35207 0.27502 0.64086 0.0
C5147 C 0.35033 0.28736 0.62733 0.0
C5148 C 0.3358 0.28406 0.61278 0.0
C5149 C 0.32294 0.26845 0.61177 0.0
H5150 H 0.36026 0.29947 0.62811 0.0
H5151 H 0.22927 0.15288 0.61583 0.0
H5152 H 0.6616 0.54416 0.24818 0.0
H5153 H 0.64531 0.54276 0.2156 0.0
H5154 H 0.59643 0.53809 0.24037 0.0
H5155 H 0.61278 0.5392 0.27316 0.0
H5156 H 0.59161 0.51631 0.20472 0.0
H5157 H 0.61806 0.57956 0.22741 0.0
H5158 H 0.64333 0.60397 0.24042 0.0
H5159 H 0.66913 0.59112 0.19035 0.0
H5160 H 0.64411 0.56646 0.17717 0.0
H5161 H 0.5395 0.54768 0.12603 0.0
H5162 H 0.5557 0.54497 0.15793 0.0
H5163 H 0.60307 0.54343 0.13113 0.0
H5164 H 0.58677 0.54533 0.09917 0.0
H5165 H 0.60899 0.56744 0.16695 0.0
H5166 H 0.5853 0.50652 0.1429 0.0
H5167 H 0.56248 0.4804 0.12793 0.0
H5168 H 0.53444 0.48612 0.17763 0.0
H5169 H 0.55695 0.51256 0.19276 0.0
C5170 C 0.64737 0.54281 0.24681 0.0
C5171 C 0.63867 0.54206 0.26362 0.0
C5172 C 0.63798 0.54204 0.228 0.0
C5173 C 0.61946 0.54067 0.22516 0.0
C5174 C 0.61065 0.53927 0.24185 0.0
C5175 C 0.62008 0.54002 0.26074 0.0
C5176 C 0.60957 0.54157 0.20508 0.0
C5177 C 0.59528 0.52769 0.1967 0.0
C5178 C 0.61454 0.55591 0.1938 0.0
C5179 C 0.62927 0.57112 0.20138 0.0
C5180 C 0.62914 0.58193 0.2192 0.0
C5181 C 0.64343 0.59579 0.22661 0.0
C5182 C 0.65784 0.59908 0.21623 0.0
C5183 C 0.65796 0.58856 0.19837 0.0
C5184 C 0.64373 0.57465 0.19092 0.0
C5185 C 0.55335 0.5467 0.12691 0.0
C5186 C 0.56173 0.54663 0.10987 0.0
C5187 C 0.56265 0.54512 0.14522 0.0
C5188 C 0.58076 0.54398 0.14721 0.0
C5189 C 0.58919 0.54427 0.13023 0.0
C5190 C 0.57978 0.54528 0.11185 0.0
C5191 C 0.59084 0.54247 0.16687 0.0
C5192 C 0.60521 0.55616 0.17508 0.0
C5193 C 0.58621 0.52775 0.1777 0.0
C5194 C 0.5727 0.51171 0.16887 0.0
C5195 C 0.57417 0.50235 0.15057 0.0
C5196 C 0.56131 0.48746 0.14206 0.0
C5197 C 0.54698 0.48165 0.15179 0.0
C5198 C 0.54553 0.49068 0.17009 0.0
C5199 C 0.55835 0.50563 0.17865 0.0
H5200 H 0.53703 0.47012 0.14519 0.0
H5201 H 0.66891 0.60979 0.22202 0.0
H5202 H 0.21693 0.86788 1.00093 0.0
H5203 H 0.22505 0.85565 0.96953 0.0
H5204 H 0.26901 0.9002 0.97527 0.0
H5205 H 0.26039 0.91281 1.00578 0.0
H5206 H 0.25775 0.89534 0.94029 0.0
H5207 H 0.27182 0.8524 0.98293 0.0
H5208 H 0.26664 0.83032 0.00651 0.0
H5209 H 0.22623 0.79662 0.96469 0.0
H5210 H 0.23105 0.81861 0.94093 0.0
H5211 H 0.30888 0.85188 0.87391 0.0
H5212 H 0.29742 0.86505 0.90279 0.0
H5213 H 0.24696 0.8304 0.88413 0.0
H5214 H 0.25823 0.81771 0.8547 0.0
H5215 H 0.26049 0.8299 0.92453 0.0
H5216 H 0.24885 0.87465 0.88177 0.0
H5217 H 0.2552 0.89816 0.86008 0.0
H5218 H 0.29507 0.92923 0.90442 0.0
H5219 H 0.28878 0.90594 0.92651 0.0
C5220 C 0.22827 0.87507 0.99543 0.0
C5221 C 0.23793 0.89137 1.00602 0.0
C5222 C 0.23308 0.86797 0.97746 0.0
C5223 C 0.24796 0.87669 0.9698 0.0
C5224 C 0.25747 0.89303 0.98046 0.0
C5225 C 0.25251 0.90026 0.99812 0.0
C5226 C 0.25368 0.86913 0.95079 0.0
C5227 C 0.25855 0.88104 0.93712 0.0
C5228 C 0.25463 0.85042 0.94602 0.0
C5229 C 0.25166 0.83722 0.96025 0.0
C5230 C 0.26175 0.84034 0.97882 0.0
C5231 C 0.25889 0.82783 0.99221 0.0
C5232 C 0.24608 0.8121 0.98712 0.0
C5233 C 0.23613 0.80882 0.96862 0.0
C5234 C 0.23893 0.82129 0.95518 0.0
C5235 C 0.29534 0.847 0.87596 0.0
C5236 C 0.28459 0.83345 0.8621 0.0
C5237 C 0.28873 0.85469 0.89246 0.0
C5238 C 0.27126 0.84879 0.89587 0.0
C5239 C 0.26048 0.83525 0.882 0.0
C5240 C 0.26695 0.82793 0.86517 0.0
C5241 C 0.26459 0.85613 0.91427 0.0
C5242 C 0.25964 0.84418 0.92781 0.0
C5243 C 0.26407 0.87488 0.91919 0.0
C5244 C 0.26854 0.88841 0.90564 0.0
C5245 C 0.25915 0.88636 0.88678 0.0
C5246 C 0.26268 0.8997 0.87445 0.0
C5247 C 0.27567 0.91509 0.88078 0.0
C5248 C 0.28508 0.91725 0.89951 0.0
C5249 C 0.28149 0.90401 0.91196 0.0
H5250 H 0.27839 0.92537 0.87122 0.0
H5251 H 0.24389 0.80243 0.9975 0.0
H5252 H 0.97454 0.62858 0.74461 0.0
H5253 H 0.98612 0.62104 0.71373 0.0
H5254 H 0.94169 0.57734 0.69619 0.0
H5255 H 0.93029 0.58463 0.72687 0.0
H5256 H 0.96902 0.56512 0.68718 0.0
H5257 H 0.94564 0.61727 0.67533 0.0
H5258 H 0.9393 0.64853 0.67833 0.0
H5259 H 0.99372 0.66985 0.67538 0.0
H5260 H 1.00046 0.63873 0.67273 0.0
H5261 H 0.98145 0.5585 0.58401 0.0
H5262 H 0.97033 0.56231 0.61573 0.0
H5263 H 0.02009 0.5956 0.64093 0.0
H5264 H 0.03145 0.59133 0.60936 0.0
H5265 H 0.98927 0.61181 0.64527 0.0
H5266 H 1.00959 0.55482 0.65513 0.0
H5267 H 1.01049 0.52225 0.64629 0.0
H5268 H 0.95448 0.5089 0.64646 0.0
H5269 H 0.95323 0.5414 0.65518 0.0
C5270 C 0.96721 0.61745 0.73411 0.0
C5271 C 0.95147 0.60727 0.7383 0.0
C5272 C 0.97381 0.61315 0.71639 0.0
C5273 C 0.96479 0.5986 0.70242 0.0
C5274 C 0.94903 0.58853 0.70662 0.0
C5275 C 0.94246 0.59282 0.72423 0.0
C5276 C 0.97187 0.59366 0.68363 0.0
C5277 C 0.97331 0.57538 0.678 0.0
C5278 C 0.97734 0.60683 0.6713 0.0
C5279 C 0.97362 0.62566 0.6742 0.0
C5280 C 0.95633 0.62864 0.6757 0.0
C5281 C 0.95264 0.64633 0.67724 0.0
C5282 C 0.96611 0.66117 0.67714 0.0
C5283 C 0.98331 0.65835 0.67555 0.0
C5284 C 0.98708 0.64068 0.67406 0.0
C5285 C 0.99006 0.56651 0.59638 0.0
C5286 C 1.00726 0.57481 0.59418 0.0
C5287 C 0.98374 0.56855 0.61453 0.0
C5288 C 0.99437 0.57922 0.63077 0.0
C5289 C 1.01167 0.58723 0.62866 0.0
C5290 C 0.01815 0.58481 0.61062 0.0
C5291 C 0.98693 0.58357 0.64931 0.0
C5292 C 0.98521 0.6017 0.65471 0.0
C5293 C 0.98053 0.57013 0.6609 0.0
C5294 C 0.9813 0.55058 0.65564 0.0
C5295 C 0.99745 0.54496 0.65313 0.0
C5296 C 0.99802 0.5265 0.6482 0.0
C5297 C 0.98255 0.51352 0.64577 0.0
C5298 C 0.96646 0.51897 0.64834 0.0
C5299 C 0.96582 0.5374 0.65332 0.0
H5300 H 0.98302 0.49925 0.64194 0.0
H5301 H 0.96321 0.67486 0.67821 0.0
H5302 H 0.27468 0.20693 0.46729 0.0
H5303 H 0.27642 0.22567 0.44085 0.0
H5304 H 0.25484 0.17832 0.39888 0.0
H5305 H 0.25341 0.15921 0.42541 0.0
H5306 H 0.28433 0.19823 0.38948 0.0
H5307 H 0.22949 0.20861 0.40954 0.0
H5308 H 0.21063 0.21582 0.43463 0.0
H5309 H 0.2425 0.269 0.45017 0.0
H5310 H 0.26174 0.26199 0.42534 0.0
H5311 H 0.25401 0.23131 0.30613 0.0
H5312 H 0.26167 0.21832 0.3352 0.0
H5313 H 0.27673 0.27213 0.36782 0.0
H5314 H 0.26759 0.2855 0.33817 0.0
H5315 H 0.25522 0.25214 0.38529 0.0
H5316 H 0.309 0.23794 0.3587 0.0
H5317 H 0.32689 0.22456 0.33547 0.0
H5318 H 0.29202 0.17301 0.32984 0.0
H5319 H 0.27397 0.18599 0.3528 0.0
C5320 C 0.27017 0.20051 0.45244 0.0
C5321 C 0.26388 0.18168 0.44825 0.0
C5322 C 0.27112 0.21124 0.43744 0.0
C5323 C 0.26556 0.20332 0.41814 0.0
C5324 C 0.25912 0.18454 0.41384 0.0
C5325 C 0.25829 0.17371 0.42889 0.0
C5326 C 0.26731 0.2146 0.40235 0.0
C5327 C 0.27791 0.20998 0.38835 0.0
C5328 C 0.25924 0.23008 0.40153 0.0
C5329 C 0.24712 0.23474 0.41568 0.0
C5330 C 0.23249 0.22184 0.41833 0.0
C5331 C 0.22174 0.22588 0.43251 0.0
C5332 C 0.22539 0.24285 0.44401 0.0
C5333 C 0.2397 0.25586 0.44124 0.0
C5334 C 0.25052 0.25188 0.42709 0.0
C5335 C 0.25911 0.24053 0.31939 0.0
C5336 C 0.25987 0.2594 0.32007 0.0
C5337 C 0.26397 0.23302 0.33601 0.0
C5338 C 0.27034 0.24421 0.35363 0.0
C5339 C 0.27205 0.26327 0.35423 0.0
C5340 C 0.26678 0.27088 0.33744 0.0
C5341 C 0.27204 0.23557 0.37167 0.0
C5342 C 0.26206 0.2407 0.38642 0.0
C5343 C 0.28016 0.22 0.37275 0.0
C5344 C 0.29022 0.21294 0.35754 0.0
C5345 C 0.30506 0.22384 0.35231 0.0
C5346 C 0.31526 0.21628 0.33925 0.0
C5347 C 0.31062 0.19791 0.33137 0.0
C5348 C 0.29563 0.18717 0.33608 0.0
C5349 C 0.28546 0.19461 0.34911 0.0
H5350 H 0.31862 0.19181 0.32172 0.0
H5351 H 0.2171 0.24593 0.45505 0.0
H5352 H 0.38159 0.66382 0.57844 0.0
H5353 H 0.40691 0.64798 0.57763 0.0
H5354 H 0.41893 0.67049 0.52505 0.0
H5355 H 0.39396 0.68685 0.52619 0.0
H5356 H 0.41933 0.63225 0.52293 0.0
H5357 H 0.44528 0.68712 0.56332 0.0
H5358 H 0.44796 0.71202 0.59031 0.0
H5359 H 0.45081 0.67395 0.63211 0.0
H5360 H 0.44791 0.64874 0.60531 0.0
H5361 H 0.50594 0.60745 0.52398 0.0
H5362 H 0.48152 0.62481 0.52351 0.0
H5363 H 0.46672 0.60372 0.57589 0.0
H5364 H 0.49063 0.5859 0.57586 0.0
H5365 H 0.46851 0.64245 0.57741 0.0
H5366 H 0.44162 0.58735 0.53524 0.0
H5367 H 0.43977 0.56356 0.50728 0.0
H5368 H 0.43989 0.60391 0.46775 0.0
H5369 H 0.44198 0.628 0.49554 0.0
C5370 C 0.38967 0.66547 0.56676 0.0
C5371 C 0.38575 0.67668 0.55243 0.0
C5372 C 0.40419 0.65642 0.56632 0.0
C5373 C 0.41494 0.65799 0.55128 0.0
C5374 C 0.41091 0.66901 0.53682 0.0
C5375 C 0.39665 0.67844 0.53753 0.0
C5376 C 0.43023 0.648 0.55065 0.0
C5377 C 0.43018 0.63468 0.53474 0.0
C5378 C 0.44441 0.65095 0.56607 0.0
C5379 C 0.44616 0.666 0.58229 0.0
C5380 C 0.4463 0.68402 0.57826 0.0
C5381 C 0.44791 0.6982 0.59352 0.0
C5382 C 0.4495 0.69456 0.61291 0.0
C5383 C 0.44955 0.67673 0.61707 0.0
C5384 C 0.44794 0.66249 0.60185 0.0
C5385 C 0.49719 0.60619 0.53509 0.0
C5386 C 0.49988 0.59486 0.54962 0.0
C5387 C 0.48331 0.61624 0.53493 0.0
C5388 C 0.47216 0.61564 0.54968 0.0
C5389 C 0.47502 0.60445 0.56432 0.0
C5390 C 0.48858 0.59407 0.56416 0.0
C5391 C 0.45748 0.62653 0.54979 0.0
C5392 C 0.45766 0.64003 0.56561 0.0
C5393 C 0.44351 0.62391 0.53418 0.0
C5394 C 0.44212 0.60948 0.51746 0.0
C5395 C 0.44139 0.59117 0.52059 0.0
C5396 C 0.44027 0.57763 0.50478 0.0
C5397 C 0.43976 0.58223 0.48575 0.0
C5398 C 0.44031 0.60037 0.4825 0.0
C5399 C 0.44144 0.61397 0.49827 0.0
H5400 H 0.4389 0.57172 0.47353 0.0
H5401 H 0.45074 0.70556 0.62471 0.0
H5402 H 0.86775 0.97362 0.62178 0.0
H5403 H 0.89538 0.98312 0.60881 0.0
H5404 H 0.87179 0.022 0.57805 0.0
H5405 H 0.84395 0.01255 0.59113 0.0
H5406 H 0.89431 1.00038 0.55582 0.0
H5407 H 0.89547 0.03885 0.61616 0.0
H5408 H 0.89107 0.0442 0.65081 0.0
H5409 H 0.93042 0.01218 0.66636 0.0
H5410 H 0.93476 1.00627 0.6317 0.0
H5411 H 0.98257 0.04764 0.54506 0.0
H5412 H 0.95166 0.04214 0.55172 0.0
H5413 H 0.96373 1.00188 0.58871 0.0
H5414 H 0.99428 1.00684 0.58145 0.0
H5415 H 0.94543 0.02787 0.6056 0.0
H5416 H 0.94403 0.98863 0.54573 0.0
H5417 H 0.94738 0.98096 0.51108 0.0
H5418 H 0.90824 0.01272 0.49405 0.0
H5419 H 0.90499 0.02103 0.52868 0.0
C5420 C 0.86849 0.98435 0.61245 0.0
C5421 C 0.85385 0.99269 0.60789 0.0
C5422 C 0.8842 0.9896 0.60486 0.0
C5423 C 0.8856 1.00324 0.59247 0.0
C5424 C 0.87093 0.01141 0.58755 0.0
C5425 C 0.85519 1.00626 0.59533 0.0
C5426 C 0.90296 0.00993 0.5863 0.0
C5427 C 0.90547 1.00676 0.56656 0.0
C5428 C 0.91747 0.01797 0.60041 0.0
C5429 C 0.91537 0.02205 0.62134 0.0
C5430 C 0.90312 0.03288 0.62696 0.0
C5431 C 0.90062 0.03599 0.64659 0.0
C5432 C 0.91045 0.02853 0.66078 0.0
C5433 C 0.92282 0.01796 0.65535 0.0
C5434 C 0.92531 0.01473 0.63572 0.0
C5435 C 0.97856 0.03777 0.55476 0.0
C5436 C 0.99068 0.02774 0.56297 0.0
C5437 C 0.96094 0.03453 0.55839 0.0
C5438 C 0.95543 0.02153 0.57062 0.0
C5439 C 0.96772 0.0119 0.57917 0.0
C5440 C 0.98513 0.01476 0.57511 0.0
C5441 C 0.93702 0.01811 0.57513 0.0
C5442 C 0.93429 0.02188 0.59468 0.0
C5443 C 0.92241 0.01061 0.56076 0.0
C5444 C 0.92453 1.00578 0.5399 0.0
C5445 C 0.93635 0.99427 0.53466 0.0
C5446 C 0.93819 0.98975 0.51499 0.0
C5447 C 0.9281 0.99643 0.50038 0.0
C5448 C 0.91612 1.00762 0.5054 0.0
C5449 C 0.9143 0.01227 0.52506 0.0
H5450 H 0.92951 0.99287 0.48516 0.0
H5451 H 0.90849 0.03095 0.67598 0.0
H5452 H 0.90658 0.14827 0.30163 0.0
H5453 H 0.89579 0.17724 0.30376 0.0
H5454 H 0.84236 0.14813 0.29016 0.0
H5455 H 0.85333 0.11914 0.28705 0.0
H5456 H 0.84104 0.17567 0.27415 0.0
H5457 H 0.87068 0.17623 0.34104 0.0
H5458 H 0.89592 0.17752 0.36656 0.0
H5459 H 0.92321 0.22515 0.3464 0.0
H5460 H 0.89828 0.22399 0.32064 0.0
H5461 H 0.79611 0.24928 0.30157 0.0
H5462 H 0.80944 0.22185 0.2985 0.0
H5463 H 0.86118 0.25507 0.30993 0.0
H5464 H 0.84775 0.28266 0.31318 0.0
H5465 H 0.86498 0.22703 0.32614 0.0
H5466 H 0.84055 0.22931 0.26185 0.0
H5467 H 0.81884 0.23141 0.23375 0.0
H5468 H 0.78639 0.1823 0.24463 0.0
H5469 H 0.80784 0.18 0.27293 0.0
C5470 C 0.89247 0.14787 0.2991 0.0
C5471 C 0.88104 0.13074 0.29418 0.0
C5472 C 0.88613 0.16482 0.30061 0.0
C5473 C 0.86786 0.16579 0.29776 0.0
C5474 C 0.85647 0.14859 0.29265 0.0
C5475 C 0.86284 0.13165 0.29089 0.0
C5476 C 0.86054 0.18421 0.29946 0.0
C5477 C 0.84621 0.18659 0.28592 0.0
C5478 C 0.86747 0.19975 0.31381 0.0
C5479 C 0.88271 0.19985 0.32876 0.0
C5480 C 0.88215 0.18683 0.34192 0.0
C5481 C 0.89639 0.18758 0.35646 0.0
C5482 C 0.91118 0.20137 0.35806 0.0
C5483 C 0.91178 0.21443 0.34511 0.0
C5484 C 0.89762 0.21372 0.33054 0.0
C5485 C 0.81036 0.25094 0.30354 0.0
C5486 C 0.82058 0.26873 0.30778 0.0
C5487 C 0.81814 0.23494 0.30154 0.0
C5488 C 0.83668 0.23564 0.30359 0.0
C5489 C 0.84693 0.25345 0.30814 0.0
C5490 C 0.83913 0.26951 0.31003 0.0
C5491 C 0.84514 0.21805 0.30132 0.0
C5492 C 0.8597 0.21594 0.31458 0.0
C5493 C 0.8389 0.20304 0.2863 0.0
C5494 C 0.82569 0.20461 0.26968 0.0
C5495 C 0.82869 0.21906 0.25839 0.0
C5496 C 0.81645 0.22027 0.24239 0.0
C5497 C 0.80121 0.20704 0.23746 0.0
C5498 C 0.79818 0.19257 0.2485 0.0
C5499 C 0.81038 0.1913 0.26452 0.0
H5500 H 0.79177 0.20796 0.22504 0.0
H5501 H 0.92214 0.20196 0.36937 0.0
H5502 H 0.79282 0.14871 0.04798 0.0
H5503 H 0.76169 0.13399 0.04224 0.0
H5504 H 0.74737 0.1826 0.02176 0.0
H5505 H 0.77829 0.19737 0.02762 0.0
H5506 H 0.7264 0.17106 0.04694 0.0
H5507 H 0.7451 0.14407 0.98936 0.0
H5508 H 0.76414 0.12806 0.97008 0.0
H5509 H 0.75242 0.0812 1.00008 0.0
H5510 H 0.7334 0.09701 0.01967 0.0
H5511 H 0.6364 0.13047 0.02208 0.0
H5512 H 0.66622 0.14443 0.01717 0.0
H5513 H 0.68664 0.09885 0.03809 0.0
H5514 H 0.65699 0.08477 0.04273 0.0
H5515 H 0.7039 0.11008 0.00924 0.0
H5516 H 0.68657 0.13935 0.06844 0.0
H5517 H 0.66726 0.15607 0.08656 0.0
H5518 H 0.67651 0.1999 0.05178 0.0
H5519 H 0.6957 0.1833 0.03327 0.0
C5520 C 0.78303 0.15619 0.04214 0.0
C5521 C 0.78802 0.1742 0.03832 0.0
C5522 C 0.76525 0.14774 0.03875 0.0
C5523 C 0.75215 0.15714 0.03142 0.0
C5524 C 0.75719 0.17506 0.02742 0.0
C5525 C 0.7749 0.18347 0.03076 0.0
C5526 C 0.73313 0.14867 0.02885 0.0
C5527 C 0.72145 0.15786 0.03841 0.0
C5528 C 0.72661 0.1314 0.01788 0.0
C5529 C 0.73793 0.12177 1.00608 0.0
C5530 C 0.74667 0.13039 0.99193 0.0
C5531 C 0.75743 0.12134 0.98092 0.0
C5532 C 0.75952 0.10364 0.98388 0.0
C5533 C 0.75079 0.09492 0.99781 0.0
C5534 C 0.73999 0.1039 0.00884 0.0
C5535 C 0.64724 0.12338 0.0255 0.0
C5536 C 0.64432 0.10659 0.03301 0.0
C5537 C 0.66428 0.13135 0.02266 0.0
C5538 C 0.67878 0.12287 0.02764 0.0
C5539 C 0.67573 0.10569 0.03416 0.0
C5540 C 0.65871 0.09765 0.03681 0.0
C5541 C 0.69726 0.13235 0.02759 0.0
C5542 C 0.70884 0.12336 0.01759 0.0
C5543 C 0.70369 0.14992 0.03801 0.0
C5544 C 0.69242 0.16002 0.04937 0.0
C5545 C 0.68442 0.15251 0.06461 0.0
C5546 C 0.6735 0.16197 0.07494 0.0
C5547 C 0.67063 0.17902 0.07029 0.0
C5548 C 0.67873 0.18668 0.05534 0.0
C5549 C 0.68963 0.17726 0.04494 0.0
H5550 H 0.66216 0.18631 0.0783 0.0
H5551 H 0.76787 0.09666 0.97536 0.0
H5552 H 0.13743 0.43423 0.29225 0.0
H5553 H 0.15273 0.40809 0.29155 0.0
H5554 H 0.20098 0.44357 0.31822 0.0
H5555 H 0.18598 0.46976 0.31768 0.0
H5556 H 0.20909 0.42236 0.29188 0.0
H5557 H 0.17123 0.41141 0.34178 0.0
H5558 H 0.14225 0.40722 0.35377 0.0
H5559 H 0.1247 0.35886 0.31272 0.0
H5560 H 0.15328 0.36318 0.29986 0.0
H5561 H 0.2559 0.35017 0.31243 0.0
H5562 H 0.24097 0.37653 0.31588 0.0
H5563 H 0.19316 0.34384 0.28433 0.0
H5564 H 0.20796 0.31753 0.28112 0.0
H5565 H 0.18557 0.36377 0.31446 0.0
H5566 H 0.22202 0.37568 0.26326 0.0
H5567 H 0.25014 0.38046 0.24938 0.0
H5568 H 0.2702 0.42637 0.29309 0.0
H5569 H 0.2423 0.42172 0.3074 0.0
C5570 C 0.1513 0.4364 0.29796 0.0
C5571 C 0.16052 0.45407 0.3049 0.0
C5572 C 0.16005 0.4214 0.29773 0.0
C5573 C 0.17808 0.42364 0.30512 0.0
C5574 C 0.18714 0.44132 0.31235 0.0
C5575 C 0.17853 0.45634 0.31209 0.0
C5576 C 0.18776 0.40784 0.30468 0.0
C5577 C 0.204 0.40968 0.29714 0.0
C5578 C 0.1811 0.39097 0.31106 0.0
C5579 C 0.16429 0.38786 0.31957 0.0
C5580 C 0.16114 0.39997 0.33519 0.0
C5581 C 0.14476 0.39761 0.34208 0.0
C5582 C 0.13156 0.38294 0.3338 0.0
C5583 C 0.13485 0.37036 0.31892 0.0
C5584 C 0.15112 0.3728 0.31177 0.0
C5585 C 0.24213 0.34854 0.30647 0.0
C5586 C 0.23306 0.33166 0.29657 0.0
C5587 C 0.23366 0.36371 0.30825 0.0
C5588 C 0.21595 0.36233 0.30014 0.0
C5589 C 0.20682 0.34536 0.29066 0.0
C5590 C 0.21529 0.33027 0.28882 0.0
C5591 C 0.20674 0.37836 0.30162 0.0
C5592 C 0.19064 0.37655 0.30936 0.0
C5593 C 0.21351 0.39523 0.29543 0.0
C5594 C 0.23018 0.39814 0.28661 0.0
C5595 C 0.23248 0.3867 0.27001 0.0
C5596 C 0.24837 0.3894 0.26205 0.0
C5597 C 0.262 0.40359 0.27048 0.0
C5598 C 0.25967 0.4153 0.28667 0.0
C5599 C 0.24382 0.41264 0.29471 0.0
H5600 H 0.27439 0.40548 0.26453 0.0
H5601 H 0.1188 0.38127 0.33896 0.0
H5602 H 0.2584 0.46851 0.07047 0.0
H5603 H 0.2296 0.47325 0.05613 0.0
H5604 H 0.22126 0.49962 0.11189 0.0
H5605 H 0.25055 0.49504 0.12643 0.0
H5606 H 0.19247 0.46939 0.09009 0.0
H5607 H 0.23156 0.52544 0.08069 0.0
H5608 H 0.25794 0.54111 0.06852 0.0
H5609 H 0.23827 0.51513 0.01024 0.0
H5610 H 0.21189 0.49906 0.02213 0.0
H5611 H 0.12438 0.51714 0.07761 0.0
H5612 H 0.15054 0.50379 0.08408 0.0
H5613 H 0.15621 0.49873 0.02258 0.0
H5614 H 0.13058 0.51353 0.01621 0.0
H5615 H 0.18605 0.51289 0.04172 0.0
H5616 H 0.1462 0.46006 0.04727 0.0
H5617 H 0.11961 0.44196 0.05661 0.0
H5618 H 0.13998 0.45703 0.11734 0.0
H5619 H 0.1666 0.47541 0.1084 0.0
C5620 C 0.25046 0.47544 0.07966 0.0
C5621 C 0.25654 0.48146 0.09951 0.0
C5622 C 0.23407 0.47808 0.07145 0.0
C5623 C 0.22341 0.48668 0.08301 0.0
C5624 C 0.22944 0.4929 0.10285 0.0
C5625 C 0.24611 0.49048 0.11107 0.0
C5626 C 0.20599 0.48922 0.07417 0.0
C5627 C 0.19095 0.47903 0.07969 0.0
C5628 C 0.20424 0.50079 0.05955 0.0
C5629 C 0.21983 0.51093 0.05233 0.0
C5630 C 0.23291 0.52298 0.0653 0.0
C5631 C 0.24785 0.53194 0.05845 0.0
C5632 C 0.2498 0.52909 0.03863 0.0
C5633 C 0.23675 0.51732 0.02559 0.0
C5634 C 0.2218 0.5083 0.03238 0.0
C5635 C 0.13113 0.51314 0.06542 0.0
C5636 C 0.12562 0.5167 0.04646 0.0
C5637 C 0.14595 0.50518 0.06908 0.0
C5638 C 0.15526 0.50002 0.05378 0.0
C5639 C 0.1492 0.50258 0.03461 0.0
C5640 C 0.13448 0.51088 0.03096 0.0
C5641 C 0.17225 0.49381 0.05845 0.0
C5642 C 0.18735 0.50305 0.05194 0.0
C5643 C 0.17403 0.48085 0.07164 0.0
C5644 C 0.1584 0.46917 0.07715 0.0
C5645 C 0.14501 0.45954 0.06263 0.0
C5646 C 0.12992 0.44923 0.06785 0.0
C5647 C 0.1281 0.44837 0.08756 0.0
C5648 C 0.14142 0.4577 0.10208 0.0
C5649 C 0.15654 0.46801 0.09694 0.0
H5650 H 0.11637 0.44046 0.09158 0.0
H5651 H 0.26139 0.53601 0.03336 0.0
H5652 H 0.88514 0.01024 0.26579 0.0
H5653 H 0.8739 0.97822 0.26863 0.0
H5654 H 0.85319 0.9947 0.32148 0.0
H5655 H 0.86499 0.02674 0.31893 0.0
H5656 H 0.86342 0.96461 0.32737 0.0
H5657 H 0.82794 0.97714 0.26949 0.0
H5658 H 0.82394 0.98665 0.23654 0.0
H5659 H 0.85062 0.94451 0.21427 0.0
H5660 H 0.85499 0.93492 0.24715 0.0
H5661 H 0.80484 0.87931 0.33201 0.0
H5662 H 0.81784 0.91094 0.32859 0.0
H5663 H 0.84107 0.89153 0.27868 0.0
H5664 H 0.82857 0.85994 0.28257 0.0
H5665 H 0.83063 0.92237 0.27049 0.0
H5666 H 0.86621 0.9086 0.32368 0.0
H5667 H 0.87537 0.89867 0.35538 0.0
H5668 H 0.85413 0.94164 0.38521 0.0
H5669 H 0.84457 0.95167 0.35362 0.0
C5670 C 0.87806 1.00721 0.27799 0.0
C5671 C 0.87593 0.02175 0.29189 0.0
C5672 C 0.87139 0.98852 0.2796 0.0
C5673 C 0.86191 0.98313 0.29508 0.0
C5674 C 0.86011 0.99771 0.30916 0.0
C5675 C 0.86688 0.01639 0.30761 0.0
C5676 C 0.85403 0.96275 0.29673 0.0
C5677 C 0.85592 0.95566 0.31488 0.0
C5678 C 0.84485 0.9499 0.28059 0.0
C5679 C 0.84188 0.95541 0.26079 0.0
C5680 C 0.83298 0.96994 0.25757 0.0
C5681 C 0.83067 0.97535 0.23892 0.0
C5682 C 0.83705 0.96621 0.22333 0.0
C5683 C 0.8457 0.95159 0.22636 0.0
C5684 C 0.84809 0.94616 0.24499 0.0
C5685 C 0.81249 0.88168 0.32009 0.0
C5686 C 0.8151 0.86653 0.30736 0.0
C5687 C 0.82022 0.90006 0.31821 0.0
C5688 C 0.83082 0.90444 0.3033 0.0
C5689 C 0.8331 0.88926 0.29035 0.0
C5690 C 0.82576 0.87089 0.29256 0.0
C5691 C 0.83944 0.92448 0.30129 0.0
C5692 C 0.83785 0.93142 0.28306 0.0
C5693 C 0.84931 0.93704 0.31723 0.0
C5694 C 0.85439 0.9307 0.33624 0.0
C5695 C 0.86324 0.91577 0.33697 0.0
C5696 C 0.86857 0.91016 0.35493 0.0
C5697 C 0.86526 0.91947 0.3723 0.0
C5698 C 0.85662 0.9344 0.37174 0.0
C5699 C 0.85123 0.94005 0.3538 0.0
H5700 H 0.86945 0.91514 0.3862 0.0
H5701 H 0.83526 0.97043 0.20891 0.0
H5702 H 0.64677 0.06602 0.79824 0.0
H5703 H 0.66381 0.09693 0.80425 0.0
H5704 H 0.70179 0.07973 0.84532 0.0
H5705 H 0.68468 0.04863 0.83943 0.0
H5706 H 0.69418 0.11687 0.85571 0.0
H5707 H 0.71158 0.07913 0.80323 0.0
H5708 H 0.70447 0.05683 0.77344 0.0
H5709 H 0.6806 0.09528 0.74276 0.0
H5710 H 0.68724 0.11769 0.77253 0.0
H5711 H 0.76183 0.19281 0.84265 0.0
H5712 H 0.74543 0.16319 0.84777 0.0
H5713 H 0.70671 0.16558 0.79883 0.0
H5714 H 0.7232 0.19459 0.7932 0.0
H5715 H 0.71747 0.13429 0.79525 0.0
H5716 H 0.69986 0.17222 0.84764 0.0
H5717 H 0.70394 0.19339 0.87817 0.0
H5718 H 0.72667 0.15473 0.90962 0.0
H5719 H 0.72314 0.13348 0.87918 0.0
C5720 C 0.65863 0.06884 0.80873 0.0
C5721 C 0.66462 0.05486 0.81805 0.0
C5722 C 0.66827 0.08653 0.81225 0.0
C5723 C 0.68411 0.09054 0.82511 0.0
C5724 C 0.68959 0.07688 0.83537 0.0
C5725 C 0.67993 0.05911 0.8318 0.0
C5726 C 0.69597 0.10821 0.82553 0.0
C5727 C 0.69956 0.1207 0.84265 0.0
C5728 C 0.70282 0.11307 0.80841 0.0
C5729 C 0.69984 0.10006 0.79014 0.0
C5730 C 0.7048 0.08283 0.79014 0.0
C5731 C 0.70082 0.07015 0.77327 0.0
C5732 C 0.69207 0.07463 0.75622 0.0
C5733 C 0.68738 0.09184 0.75598 0.0
C5734 C 0.69126 0.10454 0.77285 0.0
C5735 C 0.74981 0.18702 0.833 0.0
C5736 C 0.74389 0.19613 0.81746 0.0
C5737 C 0.74035 0.17016 0.83607 0.0
C5738 C 0.7248 0.16214 0.82369 0.0
C5739 C 0.71867 0.17146 0.80857 0.0
C5740 C 0.72807 0.1882 0.80547 0.0
C5741 C 0.71537 0.14352 0.82532 0.0
C5742 C 0.71233 0.13063 0.80849 0.0
C5743 C 0.7091 0.13841 0.84277 0.0
C5744 C 0.7115 0.15136 0.86101 0.0
C5745 C 0.70597 0.16833 0.86099 0.0
C5746 C 0.70814 0.18033 0.8783 0.0
C5747 C 0.71561 0.17544 0.8958 0.0
C5748 C 0.72094 0.15853 0.89603 0.0
C5749 C 0.71888 0.14652 0.87874 0.0
H5750 H 0.71721 0.18471 0.90921 0.0
H5751 H 0.68894 0.06478 0.74319 0.0
loop_
_geom_bond_atom_site_label_1
_geom_bond_atom_site_label_2
_geom_bond_distance
_geom_bond_site_symmetry_2
_ccdc_geom_bond_type
In0 O1 2.294 . S
In0 O2 2.326 . S
In0 O6 2.266 . S
In0 O7 2.326 . S
In0 O8 2.266 . S
In0 O9 2.326 . S
In0 O11 2.294 . S
In0 O12 2.326 . S
O1 In0 2.294 . S
O1 C10 1.240 . S
O2 In0 2.326 . S
O2 C10 1.252 . S
C3 O6 1.252 . S
C3 O7 1.260 . S
C4 O11 1.240 . S
C4 O12 1.252 . S
C5 O8 1.252 . S
C5 O9 1.260 . S
O6 In0 2.266 . S
O6 C3 1.252 . S
O7 In0 2.326 . S
O7 C3 1.260 . S
O8 In0 2.266 . S
O8 C5 1.252 . S
O9 In0 2.326 . S
O9 C5 1.260 . S
C10 O1 1.240 . S
C10 O2 1.252 . S
O11 In0 2.294 . S
O11 C4 1.240 . S
O12 In0 2.326 . S
O12 C4 1.252 . S
In13 O14 2.294 . S
In13 O15 2.326 . S
In13 O19 2.266 1_455 S
In13 O20 2.326 1_455 S
In13 O21 2.266 1_455 S
In13 O22 2.326 1_455 S
In13 O24 2.294 . S
In13 O25 2.326 . S
O14 In13 2.294 . S
O14 C23 1.240 . S
O15 In13 2.326 . S
O15 C23 1.252 . S
C16 O19 1.252 . S
C16 O20 1.260 . S
C17 O24 1.240 . S
C17 O25 1.252 . S
C18 O21 1.252 . S
C18 O22 1.260 . S
O19 In13 2.266 1_655 S
O19 C16 1.252 . S
O20 In13 2.326 1_655 S
O20 C16 1.260 . S
O21 In13 2.266 1_655 S
O21 C18 1.252 . S
O22 In13 2.326 1_655 S
O22 C18 1.260 . S
C23 O14 1.240 . S
C23 O15 1.252 . S
O24 In13 2.294 . S
O24 C17 1.240 . S
O25 In13 2.326 . S
O25 C17 1.252 . S
In26 O27 2.294 . S
In26 O28 2.326 . S
In26 O32 2.266 . S
In26 O33 2.326 . S
In26 O34 2.266 . S
In26 O35 2.326 . S
In26 O37 2.294 . S
In26 O38 2.326 . S
O27 In26 2.294 . S
O27 C36 1.240 . S
O28 In26 2.326 . S
O28 C36 1.252 . S
C29 O32 1.252 . S
C29 O33 1.260 . S
C30 O37 1.240 . S
C30 O38 1.252 . S
C31 O34 1.252 . S
C31 O35 1.260 . S
O32 In26 2.266 . S
O32 C29 1.252 . S
O33 In26 2.326 . S
O33 C29 1.260 . S
O34 In26 2.266 . S
O34 C31 1.252 . S
O35 In26 2.326 . S
O35 C31 1.260 . S
C36 O27 1.240 . S
C36 O28 1.252 . S
O37 In26 2.294 . S
O37 C30 1.240 . S
O38 In26 2.326 . S
O38 C30 1.252 . S
In39 O40 2.294 . S
In39 O41 2.326 . S
In39 O45 2.266 . S
In39 O46 2.326 . S
In39 O47 2.266 . S
In39 O48 2.326 . S
In39 O50 2.294 . S
In39 O51 2.326 . S
O40 In39 2.294 . S
O40 C49 1.240 . S
O41 In39 2.326 . S
O41 C49 1.252 . S
C42 O45 1.252 . S
C42 O46 1.260 . S
C43 O50 1.240 . S
C43 O51 1.252 . S
C44 O47 1.252 . S
C44 O48 1.260 . S
O45 In39 2.266 . S
O45 C42 1.252 . S
O46 In39 2.326 . S
O46 C42 1.260 . S
O47 In39 2.266 . S
O47 C44 1.252 . S
O48 In39 2.326 . S
O48 C44 1.260 . S
C49 O40 1.240 . S
C49 O41 1.252 . S
O50 In39 2.294 . S
O50 C43 1.240 . S
O51 In39 2.326 . S
O51 C43 1.252 . S
In52 O53 2.294 . S
In52 O54 2.326 . S
In52 O58 2.266 . S
In52 O59 2.326 . S
In52 O60 2.266 . S
In52 O61 2.326 . S
In52 O63 2.294 1_455 S
In52 O64 2.326 1_455 S
O53 In52 2.294 . S
O53 C62 1.240 . S
O54 In52 2.326 . S
O54 C62 1.252 . S
C55 O58 1.252 . S
C55 O59 1.260 . S
C56 O63 1.240 . S
C56 O64 1.252 . S
C57 O60 1.252 . S
C57 O61 1.260 . S
O58 In52 2.266 . S
O58 C55 1.252 . S
O59 In52 2.326 . S
O59 C55 1.260 . S
O60 In52 2.266 . S
O60 C57 1.252 . S
O61 In52 2.326 . S
O61 C57 1.260 . S
C62 O53 1.240 . S
C62 O54 1.252 . S
O63 In52 2.294 1_655 S
O63 C56 1.240 . S
O64 In52 2.326 1_655 S
O64 C56 1.252 . S
In65 O66 2.294 . S
In65 O67 2.326 . S
In65 O71 2.266 . S
In65 O72 2.326 . S
In65 O73 2.266 . S
In65 O74 2.326 . S
In65 O76 2.294 . S
In65 O77 2.326 . S
O66 In65 2.294 . S
O66 C75 1.240 . S
O67 In65 2.326 . S
O67 C75 1.252 . S
C68 O71 1.252 . S
C68 O72 1.260 . S
C69 O76 1.240 . S
C69 O77 1.252 . S
C70 O73 1.252 . S
C70 O74 1.260 . S
O71 In65 2.266 . S
O71 C68 1.252 . S
O72 In65 2.326 . S
O72 C68 1.260 . S
O73 In65 2.266 . S
O73 C70 1.252 . S
O74 In65 2.326 . S
O74 C70 1.260 . S
C75 O66 1.240 . S
C75 O67 1.252 . S
O76 In65 2.294 . S
O76 C69 1.240 . S
O77 In65 2.326 . S
O77 C69 1.252 . S
In78 O79 2.294 . S
In78 O80 2.326 . S
In78 O84 2.266 . S
In78 O85 2.326 . S
In78 O86 2.266 . S
In78 O87 2.326 . S
In78 O89 2.294 . S
In78 O90 2.326 . S
O79 In78 2.294 . S
O79 C88 1.240 . S
O80 In78 2.326 . S
O80 C88 1.252 . S
C81 O84 1.252 . S
C81 O85 1.260 . S
C82 O89 1.240 . S
C82 O90 1.252 . S
C83 O86 1.252 . S
C83 O87 1.260 . S
O84 In78 2.266 . S
O84 C81 1.252 . S
O85 In78 2.326 . S
O85 C81 1.260 . S
O86 In78 2.266 . S
O86 C83 1.252 . S
O87 In78 2.326 . S
O87 C83 1.260 . S
C88 O79 1.240 . S
C88 O80 1.252 . S
O89 In78 2.294 . S
O89 C82 1.240 . S
O90 In78 2.326 . S
O90 C82 1.252 . S
In91 O92 2.294 . S
In91 O93 2.326 . S
In91 O97 2.266 . S
In91 O98 2.326 . S
In91 O99 2.266 . S
In91 O100 2.326 1_455 S
In91 O102 2.294 . S
In91 O103 2.326 . S
O92 In91 2.294 . S
O92 C101 1.240 . S
O93 In91 2.326 . S
O93 C101 1.252 . S
C94 O97 1.252 . S
C94 O98 1.260 . S
C95 O102 1.240 . S
C95 O103 1.252 . S
C96 O99 1.252 1_655 S
C96 O100 1.260 . S
O97 In91 2.266 . S
O97 C94 1.252 . S
O98 In91 2.326 . S
O98 C94 1.260 . S
O99 In91 2.266 . S
O99 C96 1.252 1_455 S
O100 In91 2.326 1_655 S
O100 C96 1.260 . S
C101 O92 1.240 . S
C101 O93 1.252 . S
O102 In91 2.294 . S
O102 C95 1.240 . S
O103 In91 2.326 . S
O103 C95 1.252 . S
In104 O105 2.294 . S
In104 O106 2.326 . S
In104 O110 2.266 . S
In104 O111 2.326 . S
In104 O112 2.266 . S
In104 O113 2.326 . S
In104 O115 2.294 . S
In104 O116 2.326 . S
O105 In104 2.294 . S
O105 C114 1.240 . S
O106 In104 2.326 . S
O106 C114 1.252 . S
C107 O110 1.252 . S
C107 O111 1.260 . S
C108 O115 1.240 . S
C108 O116 1.252 . S
C109 O112 1.252 . S
C109 O113 1.260 . S
O110 In104 2.266 . S
O110 C107 1.252 . S
O111 In104 2.326 . S
O111 C107 1.260 . S
O112 In104 2.266 . S
O112 C109 1.252 . S
O113 In104 2.326 . S
O113 C109 1.260 . S
C114 O105 1.240 . S
C114 O106 1.252 . S
O115 In104 2.294 . S
O115 C108 1.240 . S
O116 In104 2.326 . S
O116 C108 1.252 . S
In117 O118 2.294 . S
In117 O119 2.326 . S
In117 O123 2.266 . S
In117 O124 2.326 . S
In117 O125 2.266 . S
In117 O126 2.326 . S
In117 O128 2.294 . S
In117 O129 2.326 . S
O118 In117 2.294 . S
O118 C127 1.240 . S
O119 In117 2.326 . S
O119 C127 1.252 . S
C120 O123 1.252 . S
C120 O124 1.260 . S
C121 O128 1.240 . S
C121 O129 1.252 . S
C122 O125 1.252 . S
C122 O126 1.260 . S
O123 In117 2.266 . S
O123 C120 1.252 . S
O124 In117 2.326 . S
O124 C120 1.260 . S
O125 In117 2.266 . S
O125 C122 1.252 . S
O126 In117 2.326 . S
O126 C122 1.260 . S
C127 O118 1.240 . S
C127 O119 1.252 . S
O128 In117 2.294 . S
O128 C121 1.240 . S
O129 In117 2.326 . S
O129 C121 1.252 . S
In130 O131 2.294 . S
In130 O132 2.326 . S
In130 O136 2.266 . S
In130 O137 2.326 . S
In130 O138 2.266 . S
In130 O139 2.326 . S
In130 O141 2.294 . S
In130 O142 2.326 1_545 S
O131 In130 2.294 . S
O131 C140 1.240 . S
O132 In130 2.326 . S
O132 C140 1.252 . S
C133 O136 1.252 . S
C133 O137 1.260 . S
C134 O141 1.192 1_565 S
C134 O142 1.242 . S
C135 O138 1.252 . S
C135 O139 1.260 . S
O136 In130 2.266 . S
O136 C133 1.252 . S
O137 In130 2.326 . S
O137 C133 1.260 . S
O138 In130 2.266 . S
O138 C135 1.252 . S
O139 In130 2.326 . S
O139 C135 1.260 . S
C140 O131 1.240 . S
C140 O132 1.252 . S
O141 In130 2.294 . S
O141 C134 1.192 1_545 S
O142 In130 2.326 1_565 S
O142 C134 1.242 . S
In143 O144 2.294 . S
In143 O145 2.326 . S
In143 O149 2.266 . S
In143 O150 2.326 . S
In143 O151 2.266 . S
In143 O152 2.326 . S
In143 O154 2.294 . S
In143 O155 2.326 . S
O144 In143 2.294 . S
O144 C153 1.240 . S
O145 In143 2.326 . S
O145 C153 1.252 . S
C146 O149 1.252 . S
C146 O150 1.260 . S
C147 O154 1.240 . S
C147 O155 1.252 . S
C148 O151 1.252 . S
C148 O152 1.260 . S
O149 In143 2.266 . S
O149 C146 1.252 . S
O150 In143 2.326 . S
O150 C146 1.260 . S
O151 In143 2.266 . S
O151 C148 1.252 . S
O152 In143 2.326 . S
O152 C148 1.260 . S
C153 O144 1.240 . S
C153 O145 1.252 . S
O154 In143 2.294 . S
O154 C147 1.240 . S
O155 In143 2.326 . S
O155 C147 1.252 . S
In156 O157 2.294 . S
In156 O158 2.326 . S
In156 O162 2.266 . S
In156 O163 2.326 . S
In156 O164 2.266 . S
In156 O165 2.326 . S
In156 O167 2.294 . S
In156 O168 2.326 . S
O157 In156 2.294 . S
O157 C166 1.240 . S
O158 In156 2.326 . S
O158 C166 1.252 . S
C159 O162 1.252 . S
C159 O163 1.260 . S
C160 O167 1.240 . S
C160 O168 1.252 . S
C161 O164 1.252 . S
C161 O165 1.260 . S
O162 In156 2.266 . S
O162 C159 1.252 . S
O163 In156 2.326 . S
O163 C159 1.260 . S
O164 In156 2.266 . S
O164 C161 1.252 . S
O165 In156 2.326 . S
O165 C161 1.260 . S
C166 O157 1.240 . S
C166 O158 1.252 . S
O167 In156 2.294 . S
O167 C160 1.240 . S
O168 In156 2.326 . S
O168 C160 1.252 . S
In169 O170 2.294 . S
In169 O171 2.326 . S
In169 O175 2.266 . S
In169 O176 2.326 . S
In169 O177 2.266 . S
In169 O178 2.360 . S
In169 O180 2.294 . S
In169 O181 2.326 . S
O170 In169 2.294 . S
O170 C179 1.240 . S
O171 In169 2.326 . S
O171 C179 1.252 . S
C172 O175 1.252 . S
C172 O176 1.260 . S
C173 O180 1.240 . S
C173 O181 1.252 . S
C174 O177 1.252 1_556 S
C174 O178 1.255 1_556 S
O175 In169 2.266 . S
O175 C172 1.252 . S
O176 In169 2.326 . S
O176 C172 1.260 . S
O177 In169 2.266 . S
O177 C174 1.252 1_554 S
O178 In169 2.360 . S
O178 C174 1.255 1_554 S
C179 O170 1.240 . S
C179 O171 1.252 . S
O180 In169 2.294 . S
O180 C173 1.240 . S
O181 In169 2.326 . S
O181 C173 1.252 . S
In182 O183 2.294 . S
In182 O184 2.326 . S
In182 O188 2.266 . S
In182 O189 2.326 . S
In182 O190 2.266 . S
In182 O191 2.326 . S
In182 O193 2.294 . S
In182 O194 2.326 . S
O183 In182 2.294 . S
O183 C192 1.240 . S
O184 In182 2.326 . S
O184 C192 1.252 . S
C185 O188 1.252 . S
C185 O189 1.260 . S
C186 O193 1.240 . S
C186 O194 1.252 . S
C187 O190 1.252 . S
C187 O191 1.260 . S
O188 In182 2.266 . S
O188 C185 1.252 . S
O189 In182 2.326 . S
O189 C185 1.260 . S
O190 In182 2.266 . S
O190 C187 1.252 . S
O191 In182 2.326 . S
O191 C187 1.260 . S
C192 O183 1.240 . S
C192 O184 1.252 . S
O193 In182 2.294 . S
O193 C186 1.240 . S
O194 In182 2.326 . S
O194 C186 1.252 . S
In195 O196 2.294 . S
In195 O197 2.326 . S
In195 O201 2.266 . S
In195 O202 2.326 . S
In195 O203 2.266 . S
In195 O204 2.326 . S
In195 O206 2.294 . S
In195 O207 2.326 . S
O196 In195 2.294 . S
O196 C205 1.240 . S
O197 In195 2.326 . S
O197 C205 1.252 . S
C198 O201 1.252 . S
C198 O202 1.260 . S
C199 O206 1.240 . S
C199 O207 1.252 . S
C200 O203 1.252 . S
C200 O204 1.260 . S
O201 In195 2.266 . S
O201 C198 1.252 . S
O202 In195 2.326 . S
O202 C198 1.260 . S
O203 In195 2.266 . S
O203 C200 1.252 . S
O204 In195 2.326 . S
O204 C200 1.260 . S
C205 O196 1.240 . S
C205 O197 1.252 . S
O206 In195 2.294 . S
O206 C199 1.240 . S
O207 In195 2.326 . S
O207 C199 1.252 . S
In208 O209 2.294 . S
In208 O210 2.326 . S
In208 O214 2.266 . S
In208 O215 2.326 . S
In208 O216 2.266 . S
In208 O217 2.326 . S
In208 O219 2.294 . S
In208 O220 2.326 . S
O209 In208 2.294 . S
O209 C218 1.240 . S
O210 In208 2.326 . S
O210 C218 1.252 . S
C211 O214 1.252 . S
C211 O215 1.260 . S
C212 O219 1.240 . S
C212 O220 1.252 . S
C213 O216 1.252 . S
C213 O217 1.260 . S
O214 In208 2.266 . S
O214 C211 1.252 . S
O215 In208 2.326 . S
O215 C211 1.260 . S
O216 In208 2.266 . S
O216 C213 1.252 . S
O217 In208 2.326 . S
O217 C213 1.260 . S
C218 O209 1.240 . S
C218 O210 1.252 . S
O219 In208 2.294 . S
O219 C212 1.240 . S
O220 In208 2.326 . S
O220 C212 1.252 . S
In221 O222 2.294 . S
In221 O223 2.326 . S
In221 O227 2.266 . S
In221 O228 2.326 . S
In221 O229 2.266 . S
In221 O230 2.326 . S
In221 O232 2.294 . S
In221 O233 2.326 . S
O222 In221 2.294 . S
O222 C231 1.240 . S
O223 In221 2.326 . S
O223 C231 1.252 . S
C224 O227 1.252 . S
C224 O228 1.260 . S
C225 O232 1.240 . S
C225 O233 1.252 . S
C226 O229 1.252 . S
C226 O230 1.260 . S
O227 In221 2.266 . S
O227 C224 1.252 . S
O228 In221 2.326 . S
O228 C224 1.260 . S
O229 In221 2.266 . S
O229 C226 1.252 . S
O230 In221 2.326 . S
O230 C226 1.260 . S
C231 O222 1.240 . S
C231 O223 1.252 . S
O232 In221 2.294 . S
O232 C225 1.240 . S
O233 In221 2.326 . S
O233 C225 1.252 . S
In234 O235 2.294 . S
In234 O236 2.326 . S
In234 O240 2.266 . S
In234 O241 2.326 . S
In234 O242 2.266 . S
In234 O243 2.326 . S
In234 O245 2.294 . S
In234 O246 2.326 . S
O235 In234 2.294 . S
O235 C244 1.240 . S
O236 In234 2.326 . S
O236 C244 1.252 . S
C237 O240 1.252 . S
C237 O241 1.260 . S
C238 O245 1.240 . S
C238 O246 1.252 . S
C239 O242 1.252 . S
C239 O243 1.260 . S
O240 In234 2.266 . S
O240 C237 1.252 . S
O241 In234 2.326 . S
O241 C237 1.260 . S
O242 In234 2.266 . S
O242 C239 1.252 . S
O243 In234 2.326 . S
O243 C239 1.260 . S
C244 O235 1.240 . S
C244 O236 1.252 . S
O245 In234 2.294 . S
O245 C238 1.240 . S
O246 In234 2.326 . S
O246 C238 1.252 . S
In247 O248 2.246 1_545 S
In247 O249 2.260 1_545 S
In247 O253 2.305 . S
In247 O254 2.393 . S
In247 O255 2.278 . S
In247 O256 2.325 . S
In247 O258 2.295 1_545 S
In247 O259 2.325 1_545 S
O248 In247 2.246 1_565 S
O248 C257 1.240 . S
O249 In247 2.260 1_565 S
O249 C257 1.252 . S
C250 O253 1.252 . S
C250 O254 1.260 . S
C251 O258 1.240 . S
C251 O259 1.252 . S
C252 O255 1.252 . S
C252 O256 1.260 . S
O253 In247 2.305 . S
O253 C250 1.252 . S
O254 In247 2.393 . S
O254 C250 1.260 . S
O255 In247 2.278 . S
O255 C252 1.252 . S
O256 In247 2.325 . S
O256 C252 1.260 . S
C257 O248 1.240 . S
C257 O249 1.252 . S
O258 In247 2.295 1_565 S
O258 C251 1.240 . S
O259 In247 2.325 1_565 S
O259 C251 1.252 . S
In260 O261 2.294 . S
In260 O262 2.326 . S
In260 O266 2.266 1_554 S
In260 O267 2.326 1_554 S
In260 O268 2.264 1_554 S
In260 O269 2.322 1_554 S
In260 O271 2.296 . S
In260 O272 2.330 . S
O261 In260 2.294 . S
O261 C270 1.240 . S
O262 In260 2.326 . S
O262 C270 1.252 . S
C263 O266 1.252 . S
C263 O267 1.260 . S
C264 O271 1.240 . S
C264 O272 1.252 . S
C265 O268 1.252 . S
C265 O269 1.260 . S
O266 In260 2.266 1_556 S
O266 C263 1.252 . S
O267 In260 2.326 1_556 S
O267 C263 1.260 . S
O268 In260 2.264 1_556 S
O268 C265 1.252 . S
O269 In260 2.322 1_556 S
O269 C265 1.260 . S
C270 O261 1.240 . S
C270 O262 1.252 . S
O271 In260 2.296 . S
O271 C264 1.240 . S
O272 In260 2.330 . S
O272 C264 1.252 . S
In273 O274 2.294 . S
In273 O275 2.326 . S
In273 O279 2.266 . S
In273 O280 2.326 . S
In273 O281 2.266 . S
In273 O282 2.326 . S
In273 O284 2.294 . S
In273 O285 2.326 . S
O274 In273 2.294 . S
O274 C283 1.240 . S
O275 In273 2.326 . S
O275 C283 1.252 . S
C276 O279 1.252 . S
C276 O280 1.260 . S
C277 O284 1.240 . S
C277 O285 1.252 . S
C278 O281 1.252 . S
C278 O282 1.260 . S
O279 In273 2.266 . S
O279 C276 1.252 . S
O280 In273 2.326 . S
O280 C276 1.260 . S
O281 In273 2.266 . S
O281 C278 1.252 . S
O282 In273 2.326 . S
O282 C278 1.260 . S
C283 O274 1.240 . S
C283 O275 1.252 . S
O284 In273 2.294 . S
O284 C277 1.240 . S
O285 In273 2.326 . S
O285 C277 1.252 . S
In286 O287 2.294 . S
In286 O288 2.326 . S
In286 O292 2.266 . S
In286 O293 2.326 . S
In286 O294 2.266 . S
In286 O295 2.326 . S
In286 O297 2.294 . S
In286 O298 2.326 . S
O287 In286 2.294 . S
O287 C296 1.240 . S
O288 In286 2.326 . S
O288 C296 1.252 . S
C289 O292 1.252 . S
C289 O293 1.260 . S
C290 O297 1.240 . S
C290 O298 1.252 . S
C291 O294 1.252 . S
C291 O295 1.260 . S
O292 In286 2.266 . S
O292 C289 1.252 . S
O293 In286 2.326 . S
O293 C289 1.260 . S
O294 In286 2.266 . S
O294 C291 1.252 . S
O295 In286 2.326 . S
O295 C291 1.260 . S
C296 O287 1.240 . S
C296 O288 1.252 . S
O297 In286 2.294 . S
O297 C290 1.240 . S
O298 In286 2.326 . S
O298 C290 1.252 . S
In299 O300 2.294 . S
In299 O301 2.326 . S
In299 O305 2.266 . S
In299 O306 2.326 . S
In299 O307 2.266 . S
In299 O308 2.326 . S
In299 O310 2.294 . S
In299 O311 2.326 . S
O300 In299 2.294 . S
O300 C309 1.240 . S
O301 In299 2.326 . S
O301 C309 1.252 . S
C302 O305 1.252 . S
C302 O306 1.260 . S
C303 O310 1.240 . S
C303 O311 1.252 . S
C304 O307 1.252 . S
C304 O308 1.260 . S
O305 In299 2.266 . S
O305 C302 1.252 . S
O306 In299 2.326 . S
O306 C302 1.260 . S
O307 In299 2.266 . S
O307 C304 1.252 . S
O308 In299 2.326 . S
O308 C304 1.260 . S
C309 O300 1.240 . S
C309 O301 1.252 . S
O310 In299 2.294 . S
O310 C303 1.240 . S
O311 In299 2.326 . S
O311 C303 1.252 . S
Nd312 C314 2.836 . S
Nd312 O332 2.500 . S
Nd312 O333 2.492 . S
Nd312 O334 2.487 . S
Nd312 O335 2.682 . S
Nd312 O336 2.410 . S
Nd312 O341 2.414 . S
Nd312 O343 2.424 . S
Nd313 C323 2.836 . S
Nd313 O335 2.414 . S
Nd313 O337 2.424 . S
Nd313 O338 2.500 . S
Nd313 O339 2.492 . S
Nd313 O340 2.487 . S
Nd313 O341 2.682 . S
Nd313 O342 2.410 . S
C314 Nd312 2.836 . S
C314 C315 1.498 . S
C314 O332 1.258 . S
C314 O333 1.239 . S
C315 C314 1.498 . S
C315 C316 1.366 . S
C315 C320 1.407 . S
C316 C315 1.366 . S
C316 C317 1.392 . S
C316 H344 0.930 . S
C317 C316 1.392 . S
C317 C318 1.398 . S
C317 H345 0.929 . S
C318 C317 1.398 . S
C318 C319 1.352 . S
C319 C318 1.352 . S
C319 C320 1.384 . S
C319 H346 0.930 . S
C320 C315 1.407 . S
C320 C319 1.384 . S
C320 H347 0.929 . S
C321 O334 1.241 . S
C321 O335 1.273 . S
C322 O336 1.251 . S
C322 O337 1.268 . S
C323 Nd313 2.836 . S
C323 C324 1.498 1_545 S
C323 O338 1.258 . S
C323 O339 1.239 . S
C324 C323 1.498 1_565 S
C324 C325 1.366 . S
C324 C329 1.407 . S
C325 C324 1.366 . S
C325 C326 1.392 . S
C325 H348 0.930 . S
C326 C325 1.392 . S
C326 C327 1.398 . S
C326 H349 0.929 . S
C327 C326 1.398 . S
C327 C328 1.352 . S
C328 C327 1.352 . S
C328 C329 1.384 . S
C328 H350 0.930 . S
C329 C324 1.407 . S
C329 C328 1.384 . S
C329 H351 0.929 . S
C330 O340 1.241 . S
C330 O341 1.273 . S
C331 O342 1.251 . S
C331 O343 1.268 . S
O332 Nd312 2.500 . S
O332 C314 1.258 . S
O333 Nd312 2.492 . S
O333 C314 1.239 . S
O334 Nd312 2.487 . S
O334 C321 1.241 . S
O335 Nd312 2.682 . S
O335 Nd313 2.414 . S
O335 C321 1.273 . S
O336 Nd312 2.410 . S
O336 C322 1.251 . S
O337 Nd313 2.424 . S
O337 C322 1.268 . S
O338 Nd313 2.500 . S
O338 C323 1.258 . S
O339 Nd313 2.492 . S
O339 C323 1.239 . S
O340 Nd313 2.487 . S
O340 C330 1.241 . S
O341 Nd312 2.414 . S
O341 Nd313 2.682 . S
O341 C330 1.273 . S
O342 Nd313 2.410 . S
O342 C331 1.251 . S
O343 Nd312 2.424 . S
O343 C331 1.268 . S
H344 C316 0.930 . S
H345 C317 0.929 . S
H346 C319 0.930 . S
H347 C320 0.929 . S
H348 C325 0.930 . S
H349 C326 0.929 . S
H350 C328 0.930 . S
H351 C329 0.929 . S
Nd352 C354 2.836 . S
Nd352 O372 2.500 . S
Nd352 O373 2.492 . S
Nd352 O374 2.487 . S
Nd352 O375 2.682 . S
Nd352 O376 2.410 . S
Nd352 O381 2.414 . S
Nd352 O383 2.424 . S
Nd353 C363 2.836 . S
Nd353 O375 2.414 . S
Nd353 O377 2.424 . S
Nd353 O378 2.500 . S
Nd353 O379 2.492 . S
Nd353 O380 2.487 . S
Nd353 O381 2.682 . S
Nd353 O382 2.410 . S
C354 Nd352 2.836 . S
C354 C355 1.498 . S
C354 O372 1.258 . S
C354 O373 1.239 . S
C355 C354 1.498 . S
C355 C356 1.366 . S
C355 C360 1.407 . S
C356 C355 1.366 . S
C356 C357 1.392 . S
C356 H384 0.930 . S
C357 C356 1.392 . S
C357 C358 1.398 . S
C357 H385 0.929 . S
C358 C357 1.398 . S
C358 C359 1.352 . S
C359 C358 1.352 . S
C359 C360 1.384 . S
C359 H386 0.930 . S
C360 C355 1.407 . S
C360 C359 1.384 . S
C360 H387 0.929 . S
C361 O374 1.241 . S
C361 O375 1.273 . S
C362 O376 1.251 . S
C362 O377 1.268 . S
C363 Nd353 2.836 . S
C363 C364 1.498 . S
C363 O378 1.258 . S
C363 O379 1.239 . S
C364 C363 1.498 . S
C364 C365 1.366 . S
C364 C369 1.407 . S
C365 C364 1.366 . S
C365 C366 1.392 . S
C365 H388 0.930 . S
C366 C365 1.392 . S
C366 C367 1.398 . S
C366 H389 0.929 . S
C367 C366 1.398 . S
C367 C368 1.352 . S
C368 C367 1.352 . S
C368 C369 1.384 . S
C368 H390 0.930 . S
C369 C364 1.407 . S
C369 C368 1.384 . S
C369 H391 0.929 . S
C370 O380 1.241 . S
C370 O381 1.273 . S
C371 O382 1.251 . S
C371 O383 1.268 . S
O372 Nd352 2.500 . S
O372 C354 1.258 . S
O373 Nd352 2.492 . S
O373 C354 1.239 . S
O374 Nd352 2.487 . S
O374 C361 1.241 . S
O375 Nd352 2.682 . S
O375 Nd353 2.414 . S
O375 C361 1.273 . S
O376 Nd352 2.410 . S
O376 C362 1.251 . S
O377 Nd353 2.424 . S
O377 C362 1.268 . S
O378 Nd353 2.500 . S
O378 C363 1.258 . S
O379 Nd353 2.492 . S
O379 C363 1.239 . S
O380 Nd353 2.487 . S
O380 C370 1.241 . S
O381 Nd352 2.414 . S
O381 Nd353 2.682 . S
O381 C370 1.273 . S
O382 Nd353 2.410 . S
O382 C371 1.251 . S
O383 Nd352 2.424 . S
O383 C371 1.268 . S
H384 C356 0.930 . S
H385 C357 0.929 . S
H386 C359 0.930 . S
H387 C360 0.929 . S
H388 C365 0.930 . S
H389 C366 0.929 . S
H390 C368 0.930 . S
H391 C369 0.929 . S
Nd392 C394 2.836 . S
Nd392 O412 2.500 . S
Nd392 O413 2.492 . S
Nd392 O414 2.487 . S
Nd392 O415 2.682 . S
Nd392 O416 2.410 . S
Nd392 O421 2.414 . S
Nd392 O423 2.424 . S
Nd393 C403 2.836 . S
Nd393 O415 2.414 . S
Nd393 O417 2.424 . S
Nd393 O418 2.500 . S
Nd393 O419 2.492 . S
Nd393 O420 2.487 . S
Nd393 O421 2.682 . S
Nd393 O422 2.410 . S
C394 Nd392 2.836 . S
C394 C395 1.498 . S
C394 O412 1.258 . S
C394 O413 1.239 . S
C395 C394 1.498 . S
C395 C396 1.366 . S
C395 C400 1.407 . S
C396 C395 1.366 . S
C396 C397 1.392 . S
C396 H424 0.930 . S
C397 C396 1.392 . S
C397 C398 1.398 . S
C397 H425 0.929 . S
C398 C397 1.398 . S
C398 C399 1.352 . S
C399 C398 1.352 . S
C399 C400 1.384 . S
C399 H426 0.930 . S
C400 C395 1.407 . S
C400 C399 1.384 . S
C400 H427 0.929 . S
C401 O414 1.241 . S
C401 O415 1.273 . S
C402 O416 1.251 . S
C402 O417 1.268 . S
C403 Nd393 2.836 . S
C403 C404 1.498 . S
C403 O418 1.258 . S
C403 O419 1.239 . S
C404 C403 1.498 . S
C404 C405 1.366 . S
C404 C409 1.407 . S
C405 C404 1.366 . S
C405 C406 1.392 . S
C405 H428 0.930 . S
C406 C405 1.392 . S
C406 C407 1.398 . S
C406 H429 0.929 . S
C407 C406 1.398 . S
C407 C408 1.352 . S
C408 C407 1.352 . S
C408 C409 1.384 . S
C408 H430 0.930 . S
C409 C404 1.407 . S
C409 C408 1.384 . S
C409 H431 0.929 . S
C410 O420 1.241 . S
C410 O421 1.273 . S
C411 O422 1.251 . S
C411 O423 1.268 . S
O412 Nd392 2.500 . S
O412 C394 1.258 . S
O413 Nd392 2.492 . S
O413 C394 1.239 . S
O414 Nd392 2.487 . S
O414 C401 1.241 . S
O415 Nd392 2.682 . S
O415 Nd393 2.414 . S
O415 C401 1.273 . S
O416 Nd392 2.410 . S
O416 C402 1.251 . S
O417 Nd393 2.424 . S
O417 C402 1.268 . S
O418 Nd393 2.500 . S
O418 C403 1.258 . S
O419 Nd393 2.492 . S
O419 C403 1.239 . S
O420 Nd393 2.487 . S
O420 C410 1.241 . S
O421 Nd392 2.414 . S
O421 Nd393 2.682 . S
O421 C410 1.273 . S
O422 Nd393 2.410 . S
O422 C411 1.251 . S
O423 Nd392 2.424 . S
O423 C411 1.268 . S
H424 C396 0.930 . S
H425 C397 0.929 . S
H426 C399 0.930 . S
H427 C400 0.929 . S
H428 C405 0.930 . S
H429 C406 0.929 . S
H430 C408 0.930 . S
H431 C409 0.929 . S
Nd432 C434 2.836 . S
Nd432 O452 2.500 . S
Nd432 O453 2.492 . S
Nd432 O454 2.487 . S
Nd432 O455 2.682 . S
Nd432 O456 2.410 . S
Nd432 O461 2.414 . S
Nd432 O463 2.424 . S
Nd433 C443 2.836 . S
Nd433 O455 2.414 . S
Nd433 O457 2.424 . S
Nd433 O458 2.500 . S
Nd433 O459 2.492 . S
Nd433 O460 2.487 . S
Nd433 O461 2.682 . S
Nd433 O462 2.410 . S
C434 Nd432 2.836 . S
C434 C435 1.498 . S
C434 O452 1.258 . S
C434 O453 1.239 . S
C435 C434 1.498 . S
C435 C436 1.366 . S
C435 C440 1.407 . S
C436 C435 1.366 . S
C436 C437 1.392 . S
C436 H464 0.930 . S
C437 C436 1.392 . S
C437 C438 1.398 . S
C437 H465 0.929 . S
C438 C437 1.398 . S
C438 C439 1.352 . S
C439 C438 1.352 . S
C439 C440 1.384 . S
C439 H466 0.930 . S
C440 C435 1.407 . S
C440 C439 1.384 . S
C440 H467 0.929 . S
C441 O454 1.241 . S
C441 O455 1.273 . S
C442 O456 1.251 . S
C442 O457 1.268 . S
C443 Nd433 2.836 . S
C443 C444 1.498 . S
C443 O458 1.258 . S
C443 O459 1.239 . S
C444 C443 1.498 . S
C444 C445 1.366 . S
C444 C449 1.407 . S
C445 C444 1.366 . S
C445 C446 1.392 . S
C445 H468 0.930 . S
C446 C445 1.392 . S
C446 C447 1.398 . S
C446 H469 0.929 . S
C447 C446 1.398 . S
C447 C448 1.352 . S
C448 C447 1.352 . S
C448 C449 1.384 . S
C448 H470 0.930 . S
C449 C444 1.407 . S
C449 C448 1.384 . S
C449 H471 0.929 . S
C450 O460 1.241 . S
C450 O461 1.273 . S
C451 O462 1.251 . S
C451 O463 1.268 . S
O452 Nd432 2.500 . S
O452 C434 1.258 . S
O453 Nd432 2.492 . S
O453 C434 1.239 . S
O454 Nd432 2.487 . S
O454 C441 1.241 . S
O455 Nd432 2.682 . S
O455 Nd433 2.414 . S
O455 C441 1.273 . S
O456 Nd432 2.410 . S
O456 C442 1.251 . S
O457 Nd433 2.424 . S
O457 C442 1.268 . S
O458 Nd433 2.500 . S
O458 C443 1.258 . S
O459 Nd433 2.492 . S
O459 C443 1.239 . S
O460 Nd433 2.487 . S
O460 C450 1.241 . S
O461 Nd432 2.414 . S
O461 Nd433 2.682 . S
O461 C450 1.273 . S
O462 Nd433 2.410 . S
O462 C451 1.251 . S
O463 Nd432 2.424 . S
O463 C451 1.268 . S
H464 C436 0.930 . S
H465 C437 0.929 . S
H466 C439 0.930 . S
H467 C440 0.929 . S
H468 C445 0.930 . S
H469 C446 0.929 . S
H470 C448 0.930 . S
H471 C449 0.929 . S
Nd472 C474 2.836 . S
Nd472 O492 2.500 . S
Nd472 O493 2.492 . S
Nd472 O494 2.487 . S
Nd472 O495 2.682 . S
Nd472 O496 2.410 . S
Nd472 O501 2.414 . S
Nd472 O503 2.424 . S
Nd473 C483 2.836 1_545 S
Nd473 O495 2.414 . S
Nd473 O497 2.424 . S
Nd473 O498 2.500 1_545 S
Nd473 O499 2.492 1_545 S
Nd473 O500 2.487 1_455 S
Nd473 O501 2.682 . S
Nd473 O502 2.410 . S
C474 Nd472 2.836 . S
C474 C475 1.498 . S
C474 O492 1.258 . S
C474 O493 1.239 . S
C475 C474 1.498 . S
C475 C476 1.366 1_455 S
C475 C480 1.407 . S
C476 C475 1.366 1_655 S
C476 C477 1.392 . S
C476 H504 0.930 . S
C477 C476 1.392 . S
C477 C478 1.398 1_655 S
C477 H505 0.929 . S
C478 C477 1.398 1_455 S
C478 C479 1.352 . S
C479 C478 1.352 . S
C479 C480 1.384 . S
C479 H506 0.930 . S
C480 C475 1.407 . S
C480 C479 1.384 . S
C480 H507 0.929 . S
C481 O494 1.241 . S
C481 O495 1.273 . S
C482 O496 1.251 . S
C482 O497 1.268 . S
C483 Nd473 2.836 1_565 S
C483 C484 1.498 . S
C483 O498 1.258 . S
C483 O499 1.239 . S
C484 C483 1.498 . S
C484 C485 1.366 . S
C484 C489 1.407 . S
C485 C484 1.366 . S
C485 C486 1.392 . S
C485 H508 0.930 . S
C486 C485 1.392 . S
C486 C487 1.398 . S
C486 H509 0.929 . S
C487 C486 1.398 . S
C487 C488 1.352 . S
C488 C487 1.352 . S
C488 C489 1.384 . S
C488 H510 0.930 . S
C489 C484 1.407 . S
C489 C488 1.384 . S
C489 H511 0.929 . S
C490 O500 1.241 . S
C490 O501 1.273 1_655 S
C491 O502 1.251 . S
C491 O503 1.268 . S
O492 Nd472 2.500 . S
O492 C474 1.258 . S
O493 Nd472 2.492 . S
O493 C474 1.239 . S
O494 Nd472 2.487 . S
O494 C481 1.241 . S
O495 Nd472 2.682 . S
O495 Nd473 2.414 . S
O495 C481 1.273 . S
O496 Nd472 2.410 . S
O496 C482 1.251 . S
O497 Nd473 2.424 . S
O497 C482 1.268 . S
O498 Nd473 2.500 1_565 S
O498 C483 1.258 . S
O499 Nd473 2.492 1_565 S
O499 C483 1.239 . S
O500 Nd473 2.487 1_655 S
O500 C490 1.241 . S
O501 Nd472 2.414 . S
O501 Nd473 2.682 . S
O501 C490 1.273 1_455 S
O502 Nd473 2.410 . S
O502 C491 1.251 . S
O503 Nd472 2.424 . S
O503 C491 1.268 . S
H504 C476 0.930 . S
H505 C477 0.929 . S
H506 C479 0.930 . S
H507 C480 0.929 . S
H508 C485 0.930 . S
H509 C486 0.929 . S
H510 C488 0.930 . S
H511 C489 0.929 . S
Nd512 C514 2.836 . S
Nd512 O532 2.500 . S
Nd512 O533 2.492 . S
Nd512 O534 2.487 . S
Nd512 O535 2.682 . S
Nd512 O536 2.410 . S
Nd512 O541 2.414 . S
Nd512 O543 2.424 . S
Nd513 C523 2.836 . S
Nd513 O535 2.414 . S
Nd513 O537 2.424 . S
Nd513 O538 2.500 . S
Nd513 O539 2.492 . S
Nd513 O540 2.487 . S
Nd513 O541 2.682 . S
Nd513 O542 2.410 . S
C514 Nd512 2.836 . S
C514 C515 1.498 . S
C514 O532 1.258 . S
C514 O533 1.239 . S
C515 C514 1.498 . S
C515 C516 1.366 . S
C515 C520 1.407 . S
C516 C515 1.366 . S
C516 C517 1.392 . S
C516 H544 0.930 . S
C517 C516 1.392 . S
C517 C518 1.398 . S
C517 H545 0.929 . S
C518 C517 1.398 . S
C518 C519 1.352 . S
C519 C518 1.352 . S
C519 C520 1.384 . S
C519 H546 0.930 . S
C520 C515 1.407 . S
C520 C519 1.384 . S
C520 H547 0.929 . S
C521 O534 1.241 . S
C521 O535 1.273 . S
C522 O536 1.251 . S
C522 O537 1.268 . S
C523 Nd513 2.836 . S
C523 C524 1.498 . S
C523 O538 1.258 . S
C523 O539 1.239 . S
C524 C523 1.498 . S
C524 C525 1.366 . S
C524 C529 1.407 . S
C525 C524 1.366 . S
C525 C526 1.392 . S
C525 H548 0.930 . S
C526 C525 1.392 . S
C526 C527 1.398 . S
C526 H549 0.929 . S
C527 C526 1.398 . S
C527 C528 1.352 . S
C528 C527 1.352 . S
C528 C529 1.384 . S
C528 H550 0.930 . S
C529 C524 1.407 . S
C529 C528 1.384 . S
C529 H551 0.929 . S
C530 O540 1.241 . S
C530 O541 1.273 . S
C531 O542 1.251 . S
C531 O543 1.268 . S
O532 Nd512 2.500 . S
O532 C514 1.258 . S
O533 Nd512 2.492 . S
O533 C514 1.239 . S
O534 Nd512 2.487 . S
O534 C521 1.241 . S
O535 Nd512 2.682 . S
O535 Nd513 2.414 . S
O535 C521 1.273 . S
O536 Nd512 2.410 . S
O536 C522 1.251 . S
O537 Nd513 2.424 . S
O537 C522 1.268 . S
O538 Nd513 2.500 . S
O538 C523 1.258 . S
O539 Nd513 2.492 . S
O539 C523 1.239 . S
O540 Nd513 2.487 . S
O540 C530 1.241 . S
O541 Nd512 2.414 . S
O541 Nd513 2.682 . S
O541 C530 1.273 . S
O542 Nd513 2.410 . S
O542 C531 1.251 . S
O543 Nd512 2.424 . S
O543 C531 1.268 . S
H544 C516 0.930 . S
H545 C517 0.929 . S
H546 C519 0.930 . S
H547 C520 0.929 . S
H548 C525 0.930 . S
H549 C526 0.929 . S
H550 C528 0.930 . S
H551 C529 0.929 . S
Nd552 C554 2.836 . S
Nd552 O572 2.500 . S
Nd552 O573 2.492 . S
Nd552 O574 2.487 . S
Nd552 O575 2.682 . S
Nd552 O576 2.410 . S
Nd552 O581 2.414 . S
Nd552 O583 2.424 1_554 S
Nd553 C563 2.836 . S
Nd553 O575 2.414 . S
Nd553 O577 2.424 . S
Nd553 O578 2.500 . S
Nd553 O579 2.492 . S
Nd553 O580 2.487 . S
Nd553 O581 2.682 . S
Nd553 O582 2.410 . S
C554 Nd552 2.836 . S
C554 C555 1.498 . S
C554 O572 1.258 . S
C554 O573 1.239 . S
C555 C554 1.498 . S
C555 C556 1.366 . S
C555 C560 1.407 . S
C556 C555 1.366 . S
C556 C557 1.392 . S
C556 H584 0.930 . S
C557 C556 1.392 . S
C557 C558 1.398 . S
C557 H585 0.929 . S
C558 C557 1.398 . S
C558 C559 1.352 . S
C559 C558 1.352 . S
C559 C560 1.384 . S
C559 H586 0.930 . S
C560 C555 1.407 . S
C560 C559 1.384 . S
C560 H587 0.929 . S
C561 O574 1.241 . S
C561 O575 1.273 . S
C562 O576 1.251 . S
C562 O577 1.268 . S
C563 Nd553 2.836 . S
C563 C564 1.498 . S
C563 O578 1.258 . S
C563 O579 1.239 . S
C564 C563 1.498 . S
C564 C565 1.366 . S
C564 C569 1.407 . S
C565 C564 1.366 . S
C565 C566 1.392 . S
C565 H588 0.930 . S
C566 C565 1.392 . S
C566 C567 1.398 . S
C566 H589 0.929 . S
C567 C566 1.398 . S
C567 C568 1.352 . S
C568 C567 1.352 . S
C568 C569 1.384 . S
C568 H590 0.930 . S
C569 C564 1.407 . S
C569 C568 1.384 . S
C569 H591 0.929 . S
C570 O580 1.241 . S
C570 O581 1.273 . S
C571 O582 1.251 1_556 S
C571 O583 1.268 . S
O572 Nd552 2.500 . S
O572 C554 1.258 . S
O573 Nd552 2.492 . S
O573 C554 1.239 . S
O574 Nd552 2.487 . S
O574 C561 1.241 . S
O575 Nd552 2.682 . S
O575 Nd553 2.414 . S
O575 C561 1.273 . S
O576 Nd552 2.410 . S
O576 C562 1.251 . S
O577 Nd553 2.424 . S
O577 C562 1.268 . S
O578 Nd553 2.500 . S
O578 C563 1.258 . S
O579 Nd553 2.492 . S
O579 C563 1.239 . S
O580 Nd553 2.487 . S
O580 C570 1.241 . S
O581 Nd552 2.414 . S
O581 Nd553 2.682 . S
O581 C570 1.273 . S
O582 Nd553 2.410 . S
O582 C571 1.251 1_554 S
O583 Nd552 2.424 1_556 S
O583 C571 1.268 . S
H584 C556 0.930 . S
H585 C557 0.929 . S
H586 C559 0.930 . S
H587 C560 0.929 . S
H588 C565 0.930 . S
H589 C566 0.929 . S
H590 C568 0.930 . S
H591 C569 0.929 . S
Nd592 C594 2.836 . S
Nd592 O612 2.500 . S
Nd592 O613 2.492 . S
Nd592 O614 2.487 . S
Nd592 O615 2.682 . S
Nd592 O616 2.410 . S
Nd592 O621 2.414 . S
Nd592 O623 2.424 . S
Nd593 C603 2.836 . S
Nd593 O615 2.414 . S
Nd593 O617 2.424 . S
Nd593 O618 2.500 . S
Nd593 O619 2.492 . S
Nd593 O620 2.487 . S
Nd593 O621 2.682 . S
Nd593 O622 2.410 . S
C594 Nd592 2.836 . S
C594 C595 1.498 . S
C594 O612 1.258 . S
C594 O613 1.239 . S
C595 C594 1.498 . S
C595 C596 1.366 . S
C595 C600 1.407 . S
C596 C595 1.366 . S
C596 C597 1.392 . S
C596 H624 0.930 . S
C597 C596 1.392 . S
C597 C598 1.398 . S
C597 H625 0.929 . S
C598 C597 1.398 . S
C598 C599 1.352 . S
C599 C598 1.352 . S
C599 C600 1.384 . S
C599 H626 0.930 . S
C600 C595 1.407 . S
C600 C599 1.384 . S
C600 H627 0.929 . S
C601 O614 1.241 . S
C601 O615 1.273 . S
C602 O616 1.251 . S
C602 O617 1.268 . S
C603 Nd593 2.836 . S
C603 C604 1.498 . S
C603 O618 1.258 . S
C603 O619 1.239 . S
C604 C603 1.498 . S
C604 C605 1.366 . S
C604 C609 1.407 . S
C605 C604 1.366 . S
C605 C606 1.392 . S
C605 H628 0.930 . S
C606 C605 1.392 . S
C606 C607 1.398 . S
C606 H629 0.929 . S
C607 C606 1.398 . S
C607 C608 1.352 . S
C608 C607 1.352 . S
C608 C609 1.384 . S
C608 H630 0.930 . S
C609 C604 1.407 . S
C609 C608 1.384 . S
C609 H631 0.929 . S
C610 O620 1.241 . S
C610 O621 1.273 . S
C611 O622 1.251 . S
C611 O623 1.268 . S
O612 Nd592 2.500 . S
O612 C594 1.258 . S
O613 Nd592 2.492 . S
O613 C594 1.239 . S
O614 Nd592 2.487 . S
O614 C601 1.241 . S
O615 Nd592 2.682 . S
O615 Nd593 2.414 . S
O615 C601 1.273 . S
O616 Nd592 2.410 . S
O616 C602 1.251 . S
O617 Nd593 2.424 . S
O617 C602 1.268 . S
O618 Nd593 2.500 . S
O618 C603 1.258 . S
O619 Nd593 2.492 . S
O619 C603 1.239 . S
O620 Nd593 2.487 . S
O620 C610 1.241 . S
O621 Nd592 2.414 . S
O621 Nd593 2.682 . S
O621 C610 1.273 . S
O622 Nd593 2.410 . S
O622 C611 1.251 . S
O623 Nd592 2.424 . S
O623 C611 1.268 . S
H624 C596 0.930 . S
H625 C597 0.929 . S
H626 C599 0.930 . S
H627 C600 0.929 . S
H628 C605 0.930 . S
H629 C606 0.929 . S
H630 C608 0.930 . S
H631 C609 0.929 . S
Nd632 C634 2.836 . S
Nd632 O652 2.500 . S
Nd632 O653 2.492 . S
Nd632 O654 2.487 . S
Nd632 O655 2.682 . S
Nd632 O656 2.410 . S
Nd632 O661 2.414 . S
Nd632 O663 2.424 . S
Nd633 C643 2.836 . S
Nd633 O655 2.414 . S
Nd633 O657 2.424 . S
Nd633 O658 2.500 . S
Nd633 O659 2.492 . S
Nd633 O660 2.487 . S
Nd633 O661 2.682 . S
Nd633 O662 2.410 . S
C634 Nd632 2.836 . S
C634 C635 1.498 . S
C634 O652 1.258 . S
C634 O653 1.239 . S
C635 C634 1.498 . S
C635 C636 1.366 . S
C635 C640 1.407 . S
C636 C635 1.366 . S
C636 C637 1.392 . S
C636 H664 0.930 . S
C637 C636 1.392 . S
C637 C638 1.398 . S
C637 H665 0.929 . S
C638 C637 1.398 . S
C638 C639 1.352 . S
C639 C638 1.352 . S
C639 C640 1.384 . S
C639 H666 0.930 . S
C640 C635 1.407 . S
C640 C639 1.384 . S
C640 H667 0.929 . S
C641 O654 1.241 . S
C641 O655 1.273 . S
C642 O656 1.251 . S
C642 O657 1.268 . S
C643 Nd633 2.836 . S
C643 C644 1.498 . S
C643 O658 1.258 . S
C643 O659 1.239 . S
C644 C643 1.498 . S
C644 C645 1.366 . S
C644 C649 1.407 . S
C645 C644 1.366 . S
C645 C646 1.392 . S
C645 H668 0.930 . S
C646 C645 1.392 . S
C646 C647 1.398 . S
C646 H669 0.929 . S
C647 C646 1.398 . S
C647 C648 1.352 . S
C648 C647 1.352 . S
C648 C649 1.384 . S
C648 H670 0.930 . S
C649 C644 1.407 . S
C649 C648 1.384 . S
C649 H671 0.929 . S
C650 O660 1.241 . S
C650 O661 1.273 . S
C651 O662 1.251 . S
C651 O663 1.268 . S
O652 Nd632 2.500 . S
O652 C634 1.258 . S
O653 Nd632 2.492 . S
O653 C634 1.239 . S
O654 Nd632 2.487 . S
O654 C641 1.241 . S
O655 Nd632 2.682 . S
O655 Nd633 2.414 . S
O655 C641 1.273 . S
O656 Nd632 2.410 . S
O656 C642 1.251 . S
O657 Nd633 2.424 . S
O657 C642 1.268 . S
O658 Nd633 2.500 . S
O658 C643 1.258 . S
O659 Nd633 2.492 . S
O659 C643 1.239 . S
O660 Nd633 2.487 . S
O660 C650 1.241 . S
O661 Nd632 2.414 . S
O661 Nd633 2.682 . S
O661 C650 1.273 . S
O662 Nd633 2.410 . S
O662 C651 1.251 . S
O663 Nd632 2.424 . S
O663 C651 1.268 . S
H664 C636 0.930 . S
H665 C637 0.929 . S
H666 C639 0.930 . S
H667 C640 0.929 . S
H668 C645 0.930 . S
H669 C646 0.929 . S
H670 C648 0.930 . S
H671 C649 0.929 . S
Nd672 C674 2.836 . S
Nd672 O692 2.500 . S
Nd672 O693 2.492 . S
Nd672 O694 2.487 . S
Nd672 O695 2.682 . S
Nd672 O696 2.410 . S
Nd672 O701 2.414 . S
Nd672 O703 2.424 . S
Nd673 C683 2.836 . S
Nd673 O695 2.414 . S
Nd673 O697 2.424 . S
Nd673 O698 2.500 . S
Nd673 O699 2.492 . S
Nd673 O700 2.487 . S
Nd673 O701 2.682 . S
Nd673 O702 2.410 . S
C674 Nd672 2.836 . S
C674 C675 1.498 . S
C674 O692 1.258 . S
C674 O693 1.239 . S
C675 C674 1.498 . S
C675 C676 1.366 . S
C675 C680 1.407 . S
C676 C675 1.366 . S
C676 C677 1.392 . S
C676 H704 0.930 . S
C677 C676 1.392 . S
C677 C678 1.398 . S
C677 H705 0.929 . S
C678 C677 1.398 . S
C678 C679 1.352 . S
C679 C678 1.352 . S
C679 C680 1.384 . S
C679 H706 0.930 . S
C680 C675 1.407 . S
C680 C679 1.384 . S
C680 H707 0.929 . S
C681 O694 1.241 . S
C681 O695 1.273 . S
C682 O696 1.251 . S
C682 O697 1.268 . S
C683 Nd673 2.836 . S
C683 C684 1.498 . S
C683 O698 1.258 . S
C683 O699 1.239 . S
C684 C683 1.498 . S
C684 C685 1.366 . S
C684 C689 1.407 . S
C685 C684 1.366 . S
C685 C686 1.392 . S
C685 H708 0.930 . S
C686 C685 1.392 . S
C686 C687 1.398 . S
C686 H709 0.929 . S
C687 C686 1.398 . S
C687 C688 1.352 . S
C688 C687 1.352 . S
C688 C689 1.384 . S
C688 H710 0.930 . S
C689 C684 1.407 . S
C689 C688 1.384 . S
C689 H711 0.929 . S
C690 O700 1.241 . S
C690 O701 1.273 . S
C691 O702 1.251 . S
C691 O703 1.268 . S
O692 Nd672 2.500 . S
O692 C674 1.258 . S
O693 Nd672 2.492 . S
O693 C674 1.239 . S
O694 Nd672 2.487 . S
O694 C681 1.241 . S
O695 Nd672 2.682 . S
O695 Nd673 2.414 . S
O695 C681 1.273 . S
O696 Nd672 2.410 . S
O696 C682 1.251 . S
O697 Nd673 2.424 . S
O697 C682 1.268 . S
O698 Nd673 2.500 . S
O698 C683 1.258 . S
O699 Nd673 2.492 . S
O699 C683 1.239 . S
O700 Nd673 2.487 . S
O700 C690 1.241 . S
O701 Nd672 2.414 . S
O701 Nd673 2.682 . S
O701 C690 1.273 . S
O702 Nd673 2.410 . S
O702 C691 1.251 . S
O703 Nd672 2.424 . S
O703 C691 1.268 . S
H704 C676 0.930 . S
H705 C677 0.929 . S
H706 C679 0.930 . S
H707 C680 0.929 . S
H708 C685 0.930 . S
H709 C686 0.929 . S
H710 C688 0.930 . S
H711 C689 0.929 . S
Nd712 C714 2.836 . S
Nd712 O732 2.500 . S
Nd712 O733 2.492 . S
Nd712 O734 2.487 . S
Nd712 O735 2.682 1_655 S
Nd712 O736 2.410 . S
Nd712 O741 2.416 1_655 S
Nd712 O743 2.424 1_655 S
Nd713 C723 2.836 . S
Nd713 O735 2.414 . S
Nd713 O737 2.424 . S
Nd713 O738 2.500 . S
Nd713 O739 2.492 . S
Nd713 O740 2.487 . S
Nd713 O741 2.675 . S
Nd713 O742 2.410 . S
C714 Nd712 2.836 . S
C714 C715 1.498 . S
C714 O732 1.258 . S
C714 O733 1.239 . S
C715 C714 1.498 . S
C715 C716 1.366 . S
C715 C720 1.407 . S
C716 C715 1.366 . S
C716 C717 1.392 . S
C716 H744 0.930 . S
C717 C716 1.392 . S
C717 C718 1.398 . S
C717 H745 0.929 . S
C718 C717 1.398 . S
C718 C719 1.352 . S
C719 C718 1.352 . S
C719 C720 1.384 . S
C719 H746 0.930 . S
C720 C715 1.407 . S
C720 C719 1.384 . S
C720 H747 0.929 . S
C721 O734 1.241 1_455 S
C721 O735 1.273 . S
C722 O736 1.251 . S
C722 O737 1.268 1_655 S
C723 Nd713 2.836 . S
C723 C724 1.498 . S
C723 O738 1.258 . S
C723 O739 1.239 . S
C724 C723 1.498 . S
C724 C725 1.366 . S
C724 C729 1.407 . S
C725 C724 1.366 . S
C725 C726 1.392 . S
C725 H748 0.930 . S
C726 C725 1.392 . S
C726 C727 1.398 . S
C726 H749 0.929 . S
C727 C726 1.398 . S
C727 C728 1.352 . S
C728 C727 1.352 . S
C728 C729 1.384 . S
C728 H750 0.930 . S
C729 C724 1.407 . S
C729 C728 1.384 . S
C729 H751 0.929 . S
C730 O740 1.241 . S
C730 O741 1.272 . S
C731 O742 1.251 . S
C731 O743 1.268 . S
O732 Nd712 2.500 . S
O732 C714 1.258 . S
O733 Nd712 2.492 . S
O733 C714 1.239 . S
O734 Nd712 2.487 . S
O734 C721 1.241 1_655 S
O735 Nd712 2.682 1_455 S
O735 Nd713 2.414 . S
O735 C721 1.273 . S
O736 Nd712 2.410 . S
O736 C722 1.251 . S
O737 Nd713 2.424 . S
O737 C722 1.268 1_455 S
O738 Nd713 2.500 . S
O738 C723 1.258 . S
O739 Nd713 2.492 . S
O739 C723 1.239 . S
O740 Nd713 2.487 . S
O740 C730 1.241 . S
O741 Nd712 2.416 1_455 S
O741 Nd713 2.675 . S
O741 C730 1.272 . S
O742 Nd713 2.410 . S
O742 C731 1.251 . S
O743 Nd712 2.424 1_455 S
O743 C731 1.268 . S
H744 C716 0.930 . S
H745 C717 0.929 . S
H746 C719 0.930 . S
H747 C720 0.929 . S
H748 C725 0.930 . S
H749 C726 0.929 . S
H750 C728 0.930 . S
H751 C729 0.929 . S
Nd752 C754 2.836 . S
Nd752 O772 2.500 . S
Nd752 O773 2.492 . S
Nd752 O774 2.487 . S
Nd752 O775 2.682 . S
Nd752 O776 2.410 . S
Nd752 O781 2.414 . S
Nd752 O783 2.424 . S
Nd753 C763 2.836 . S
Nd753 O775 2.414 . S
Nd753 O777 2.424 . S
Nd753 O778 2.500 . S
Nd753 O779 2.492 . S
Nd753 O780 2.487 . S
Nd753 O781 2.682 . S
Nd753 O782 2.410 . S
C754 Nd752 2.836 . S
C754 C755 1.498 . S
C754 O772 1.258 . S
C754 O773 1.239 . S
C755 C754 1.498 . S
C755 C756 1.366 . S
C755 C760 1.407 . S
C756 C755 1.366 . S
C756 C757 1.392 . S
C756 H784 0.930 . S
C757 C756 1.392 . S
C757 C758 1.398 . S
C757 H785 0.929 . S
C758 C757 1.398 . S
C758 C759 1.352 . S
C759 C758 1.352 . S
C759 C760 1.384 . S
C759 H786 0.930 . S
C760 C755 1.407 . S
C760 C759 1.384 . S
C760 H787 0.929 . S
C761 O774 1.241 . S
C761 O775 1.273 . S
C762 O776 1.251 . S
C762 O777 1.268 . S
C763 Nd753 2.836 . S
C763 C764 1.498 . S
C763 O778 1.258 . S
C763 O779 1.239 . S
C764 C763 1.498 . S
C764 C765 1.366 . S
C764 C769 1.407 . S
C765 C764 1.366 . S
C765 C766 1.392 . S
C765 H788 0.930 . S
C766 C765 1.392 . S
C766 C767 1.398 . S
C766 H789 0.929 . S
C767 C766 1.398 . S
C767 C768 1.352 . S
C768 C767 1.352 . S
C768 C769 1.384 . S
C768 H790 0.930 . S
C769 C764 1.407 . S
C769 C768 1.384 . S
C769 H791 0.929 . S
C770 O780 1.241 . S
C770 O781 1.273 . S
C771 O782 1.251 . S
C771 O783 1.268 . S
O772 Nd752 2.500 . S
O772 C754 1.258 . S
O773 Nd752 2.492 . S
O773 C754 1.239 . S
O774 Nd752 2.487 . S
O774 C761 1.241 . S
O775 Nd752 2.682 . S
O775 Nd753 2.414 . S
O775 C761 1.273 . S
O776 Nd752 2.410 . S
O776 C762 1.251 . S
O777 Nd753 2.424 . S
O777 C762 1.268 . S
O778 Nd753 2.500 . S
O778 C763 1.258 . S
O779 Nd753 2.492 . S
O779 C763 1.239 . S
O780 Nd753 2.487 . S
O780 C770 1.241 . S
O781 Nd752 2.414 . S
O781 Nd753 2.682 . S
O781 C770 1.273 . S
O782 Nd753 2.410 . S
O782 C771 1.251 . S
O783 Nd752 2.424 . S
O783 C771 1.268 . S
H784 C756 0.930 . S
H785 C757 0.929 . S
H786 C759 0.930 . S
H787 C760 0.929 . S
H788 C765 0.930 . S
H789 C766 0.929 . S
H790 C768 0.930 . S
H791 C769 0.929 . S
Nd792 C794 2.836 . S
Nd792 O812 2.500 . S
Nd792 O813 2.492 . S
Nd792 O814 2.487 . S
Nd792 O815 2.682 . S
Nd792 O816 2.410 . S
Nd792 O821 2.414 . S
Nd792 O823 2.424 . S
Nd793 C803 2.836 . S
Nd793 O815 2.414 . S
Nd793 O817 2.424 . S
Nd793 O818 2.500 . S
Nd793 O819 2.492 . S
Nd793 O820 2.487 . S
Nd793 O821 2.682 . S
Nd793 O822 2.410 . S
C794 Nd792 2.836 . S
C794 C795 1.498 . S
C794 O812 1.258 . S
C794 O813 1.239 . S
C795 C794 1.498 . S
C795 C796 1.366 . S
C795 C800 1.407 . S
C796 C795 1.366 . S
C796 C797 1.392 . S
C796 H824 0.930 . S
C797 C796 1.392 . S
C797 C798 1.398 . S
C797 H825 0.929 . S
C798 C797 1.398 . S
C798 C799 1.352 . S
C799 C798 1.352 . S
C799 C800 1.384 . S
C799 H826 0.930 . S
C800 C795 1.407 . S
C800 C799 1.384 . S
C800 H827 0.929 . S
C801 O814 1.241 . S
C801 O815 1.273 . S
C802 O816 1.251 . S
C802 O817 1.268 . S
C803 Nd793 2.836 . S
C803 C804 1.498 . S
C803 O818 1.258 . S
C803 O819 1.239 . S
C804 C803 1.498 . S
C804 C805 1.366 . S
C804 C809 1.407 . S
C805 C804 1.366 . S
C805 C806 1.392 . S
C805 H828 0.930 . S
C806 C805 1.392 . S
C806 C807 1.398 . S
C806 H829 0.929 . S
C807 C806 1.398 . S
C807 C808 1.352 . S
C808 C807 1.352 . S
C808 C809 1.384 . S
C808 H830 0.930 . S
C809 C804 1.407 . S
C809 C808 1.384 . S
C809 H831 0.929 . S
C810 O820 1.241 . S
C810 O821 1.273 . S
C811 O822 1.251 . S
C811 O823 1.268 . S
O812 Nd792 2.500 . S
O812 C794 1.258 . S
O813 Nd792 2.492 . S
O813 C794 1.239 . S
O814 Nd792 2.487 . S
O814 C801 1.241 . S
O815 Nd792 2.682 . S
O815 Nd793 2.414 . S
O815 C801 1.273 . S
O816 Nd792 2.410 . S
O816 C802 1.251 . S
O817 Nd793 2.424 . S
O817 C802 1.268 . S
O818 Nd793 2.500 . S
O818 C803 1.258 . S
O819 Nd793 2.492 . S
O819 C803 1.239 . S
O820 Nd793 2.487 . S
O820 C810 1.241 . S
O821 Nd792 2.414 . S
O821 Nd793 2.682 . S
O821 C810 1.273 . S
O822 Nd793 2.410 . S
O822 C811 1.251 . S
O823 Nd792 2.424 . S
O823 C811 1.268 . S
H824 C796 0.930 . S
H825 C797 0.929 . S
H826 C799 0.930 . S
H827 C800 0.929 . S
H828 C805 0.930 . S
H829 C806 0.929 . S
H830 C808 0.930 . S
H831 C809 0.929 . S
Nd832 C834 2.836 . S
Nd832 O852 2.500 . S
Nd832 O853 2.492 . S
Nd832 O854 2.487 . S
Nd832 O855 2.682 . S
Nd832 O856 2.410 . S
Nd832 O861 2.414 . S
Nd832 O863 2.424 . S
Nd833 C843 2.836 . S
Nd833 O855 2.414 . S
Nd833 O857 2.424 . S
Nd833 O858 2.500 . S
Nd833 O859 2.492 . S
Nd833 O860 2.487 . S
Nd833 O861 2.682 . S
Nd833 O862 2.410 . S
C834 Nd832 2.836 . S
C834 C835 1.498 . S
C834 O852 1.258 . S
C834 O853 1.239 . S
C835 C834 1.498 . S
C835 C836 1.366 . S
C835 C840 1.407 . S
C836 C835 1.366 . S
C836 C837 1.392 . S
C836 H864 0.930 . S
C837 C836 1.392 . S
C837 C838 1.398 . S
C837 H865 0.929 . S
C838 C837 1.398 . S
C838 C839 1.352 . S
C839 C838 1.352 . S
C839 C840 1.384 . S
C839 H866 0.930 . S
C840 C835 1.407 . S
C840 C839 1.384 . S
C840 H867 0.929 . S
C841 O854 1.241 . S
C841 O855 1.273 . S
C842 O856 1.251 . S
C842 O857 1.268 . S
C843 Nd833 2.836 . S
C843 C844 1.498 . S
C843 O858 1.258 . S
C843 O859 1.239 . S
C844 C843 1.498 . S
C844 C845 1.366 . S
C844 C849 1.407 . S
C845 C844 1.366 . S
C845 C846 1.392 . S
C845 H868 0.930 . S
C846 C845 1.392 . S
C846 C847 1.398 . S
C846 H869 0.929 . S
C847 C846 1.398 . S
C847 C848 1.352 . S
C848 C847 1.352 . S
C848 C849 1.384 . S
C848 H870 0.930 . S
C849 C844 1.407 . S
C849 C848 1.384 . S
C849 H871 0.929 . S
C850 O860 1.241 . S
C850 O861 1.273 . S
C851 O862 1.251 . S
C851 O863 1.268 . S
O852 Nd832 2.500 . S
O852 C834 1.258 . S
O853 Nd832 2.492 . S
O853 C834 1.239 . S
O854 Nd832 2.487 . S
O854 C841 1.241 . S
O855 Nd832 2.682 . S
O855 Nd833 2.414 . S
O855 C841 1.273 . S
O856 Nd832 2.410 . S
O856 C842 1.251 . S
O857 Nd833 2.424 . S
O857 C842 1.268 . S
O858 Nd833 2.500 . S
O858 C843 1.258 . S
O859 Nd833 2.492 . S
O859 C843 1.239 . S
O860 Nd833 2.487 . S
O860 C850 1.241 . S
O861 Nd832 2.414 . S
O861 Nd833 2.682 . S
O861 C850 1.273 . S
O862 Nd833 2.410 . S
O862 C851 1.251 . S
O863 Nd832 2.424 . S
O863 C851 1.268 . S
H864 C836 0.930 . S
H865 C837 0.929 . S
H866 C839 0.930 . S
H867 C840 0.929 . S
H868 C845 0.930 . S
H869 C846 0.929 . S
H870 C848 0.930 . S
H871 C849 0.929 . S
Nd872 C874 2.836 . S
Nd872 O892 2.500 . S
Nd872 O893 2.492 . S
Nd872 O894 2.487 . S
Nd872 O895 2.682 . S
Nd872 O896 2.410 . S
Nd872 O901 2.414 . S
Nd872 O903 2.424 . S
Nd873 C883 2.836 . S
Nd873 O895 2.414 . S
Nd873 O897 2.424 . S
Nd873 O898 2.500 . S
Nd873 O899 2.492 . S
Nd873 O900 2.487 . S
Nd873 O901 2.682 . S
Nd873 O902 2.410 . S
C874 Nd872 2.836 . S
C874 C875 1.498 . S
C874 O892 1.258 . S
C874 O893 1.239 . S
C875 C874 1.498 . S
C875 C876 1.366 . S
C875 C880 1.407 . S
C876 C875 1.366 . S
C876 C877 1.392 . S
C876 H904 0.930 . S
C877 C876 1.392 . S
C877 C878 1.398 . S
C877 H905 0.929 . S
C878 C877 1.398 . S
C878 C879 1.352 . S
C879 C878 1.352 . S
C879 C880 1.384 . S
C879 H906 0.930 . S
C880 C875 1.407 . S
C880 C879 1.384 . S
C880 H907 0.929 . S
C881 O894 1.241 . S
C881 O895 1.273 . S
C882 O896 1.251 . S
C882 O897 1.268 . S
C883 Nd873 2.836 . S
C883 C884 1.498 . S
C883 O898 1.258 . S
C883 O899 1.239 . S
C884 C883 1.498 . S
C884 C885 1.366 . S
C884 C889 1.407 . S
C885 C884 1.366 . S
C885 C886 1.392 . S
C885 H908 0.930 . S
C886 C885 1.392 . S
C886 C887 1.398 . S
C886 H909 0.929 . S
C887 C886 1.398 . S
C887 C888 1.352 . S
C888 C887 1.352 . S
C888 C889 1.384 . S
C888 H910 0.930 . S
C889 C884 1.407 . S
C889 C888 1.384 . S
C889 H911 0.929 . S
C890 O900 1.241 . S
C890 O901 1.273 . S
C891 O902 1.251 . S
C891 O903 1.268 . S
O892 Nd872 2.500 . S
O892 C874 1.258 . S
O893 Nd872 2.492 . S
O893 C874 1.239 . S
O894 Nd872 2.487 . S
O894 C881 1.241 . S
O895 Nd872 2.682 . S
O895 Nd873 2.414 . S
O895 C881 1.273 . S
O896 Nd872 2.410 . S
O896 C882 1.251 . S
O897 Nd873 2.424 . S
O897 C882 1.268 . S
O898 Nd873 2.500 . S
O898 C883 1.258 . S
O899 Nd873 2.492 . S
O899 C883 1.239 . S
O900 Nd873 2.487 . S
O900 C890 1.241 . S
O901 Nd872 2.414 . S
O901 Nd873 2.682 . S
O901 C890 1.273 . S
O902 Nd873 2.410 . S
O902 C891 1.251 . S
O903 Nd872 2.424 . S
O903 C891 1.268 . S
H904 C876 0.930 . S
H905 C877 0.929 . S
H906 C879 0.930 . S
H907 C880 0.929 . S
H908 C885 0.930 . S
H909 C886 0.929 . S
H910 C888 0.930 . S
H911 C889 0.929 . S
Nd912 C914 2.836 . S
Nd912 O932 2.500 . S
Nd912 O933 2.492 . S
Nd912 O934 2.487 . S
Nd912 O935 2.682 . S
Nd912 O936 2.410 . S
Nd912 O941 2.414 . S
Nd912 O943 2.424 . S
Nd913 C923 2.836 . S
Nd913 O935 2.414 1_655 S
Nd913 O937 2.424 . S
Nd913 O938 2.500 . S
Nd913 O939 2.492 . S
Nd913 O940 2.487 . S
Nd913 O941 2.682 1_655 S
Nd913 O942 2.410 . S
C914 Nd912 2.836 . S
C914 C915 1.498 . S
C914 O932 1.258 . S
C914 O933 1.239 . S
C915 C914 1.498 . S
C915 C916 1.366 . S
C915 C920 1.407 . S
C916 C915 1.366 . S
C916 C917 1.392 . S
C916 H944 0.930 . S
C917 C916 1.392 . S
C917 C918 1.398 . S
C917 H945 0.929 1_554 S
C918 C917 1.398 . S
C918 C919 1.352 . S
C919 C918 1.352 . S
C919 C920 1.384 . S
C919 H946 0.930 . S
C920 C915 1.407 . S
C920 C919 1.384 . S
C920 H947 0.929 . S
C921 O934 1.241 . S
C921 O935 1.273 . S
C922 O936 1.251 . S
C922 O937 1.268 1_455 S
C923 Nd913 2.836 . S
C923 C924 1.498 . S
C923 O938 1.258 . S
C923 O939 1.239 . S
C924 C923 1.498 . S
C924 C925 1.366 . S
C924 C929 1.407 . S
C925 C924 1.366 . S
C925 C926 1.392 . S
C925 H948 0.930 . S
C926 C925 1.392 . S
C926 C927 1.398 . S
C926 H949 0.929 . S
C927 C926 1.398 . S
C927 C928 1.352 . S
C928 C927 1.352 . S
C928 C929 1.384 . S
C928 H950 0.930 . S
C929 C924 1.407 . S
C929 C928 1.384 . S
C929 H951 0.929 . S
C930 O940 1.241 . S
C930 O941 1.273 1_655 S
C931 O942 1.251 1_455 S
C931 O943 1.268 . S
O932 Nd912 2.500 . S
O932 C914 1.258 . S
O933 Nd912 2.492 . S
O933 C914 1.239 . S
O934 Nd912 2.487 . S
O934 C921 1.241 . S
O935 Nd912 2.682 . S
O935 Nd913 2.414 1_455 S
O935 C921 1.273 . S
O936 Nd912 2.410 . S
O936 C922 1.251 . S
O937 Nd913 2.424 . S
O937 C922 1.268 1_655 S
O938 Nd913 2.500 . S
O938 C923 1.258 . S
O939 Nd913 2.492 . S
O939 C923 1.239 . S
O940 Nd913 2.487 . S
O940 C930 1.241 . S
O941 Nd912 2.414 . S
O941 Nd913 2.682 1_455 S
O941 C930 1.273 1_455 S
O942 Nd913 2.410 . S
O942 C931 1.251 1_655 S
O943 Nd912 2.424 . S
O943 C931 1.268 . S
H944 C916 0.930 . S
H945 C917 0.929 1_556 S
H946 C919 0.930 . S
H947 C920 0.929 . S
H948 C925 0.930 . S
H949 C926 0.929 . S
H950 C928 0.930 . S
H951 C929 0.929 . S
H952 C970 0.951 . S
H953 C972 0.951 . S
H954 C974 0.950 . S
H955 C975 0.950 . S
H956 C977 0.950 . S
H957 C980 0.950 . S
H958 C981 0.950 . S
H959 C983 0.950 . S
H960 C984 0.950 . S
H961 C985 0.951 . S
H962 C987 0.951 . S
H963 C989 0.950 . S
H964 C990 0.950 . S
H965 C992 0.950 1_554 S
H966 C995 0.950 . S
H967 C996 0.950 . S
H968 C998 0.950 . S
H969 C999 0.950 . S
C970 H952 0.951 . S
C970 C971 1.366 . S
C970 C972 1.388 . S
C971 C970 1.366 . S
C971 C975 1.385 . S
C972 H953 0.951 . S
C972 C970 1.388 . S
C972 C973 1.366 . S
C973 C972 1.366 . S
C973 C974 1.414 . S
C973 C976 1.499 . S
C974 H954 0.950 . S
C974 C973 1.414 . S
C974 C975 1.374 . S
C975 H955 0.950 . S
C975 C971 1.385 . S
C975 C974 1.374 . S
C976 C973 1.499 . S
C976 C977 1.373 . S
C976 C978 1.389 . S
C977 H956 0.950 . S
C977 C976 1.373 . S
C977 C993 1.377 . S
C978 C976 1.389 . S
C978 C979 1.524 . S
C978 C992 1.377 . S
C979 C978 1.524 . S
C979 C980 1.397 . S
C979 C984 1.363 1_455 S
C980 H957 0.950 . S
C980 C979 1.397 . S
C980 C981 1.334 1_455 S
C981 H958 0.950 . S
C981 C980 1.334 1_655 S
C981 C982 1.287 . S
C982 C981 1.287 . S
C982 C983 1.524 . S
C982 H1001 0.913 . S
C983 H959 0.950 . S
C983 C982 1.524 . S
C983 C984 1.415 . S
C984 H960 0.950 . S
C984 C979 1.363 1_655 S
C984 C983 1.415 . S
C985 H961 0.951 . S
C985 C986 1.366 . S
C985 C987 1.388 . S
C986 C985 1.366 . S
C986 C990 1.385 . S
C987 H962 0.951 . S
C987 C985 1.388 . S
C987 C988 1.366 . S
C988 C987 1.366 . S
C988 C989 1.414 . S
C988 C991 1.464 1_554 S
C989 H963 0.950 . S
C989 C988 1.414 . S
C989 C990 1.374 . S
C990 H964 0.950 . S
C990 C986 1.385 . S
C990 C989 1.374 . S
C991 C988 1.464 1_556 S
C991 C992 1.376 . S
C991 C993 1.421 . S
C992 H965 0.950 1_556 S
C992 C978 1.377 . S
C992 C991 1.376 . S
C993 C977 1.377 . S
C993 C991 1.421 . S
C993 C994 1.524 . S
C994 C993 1.524 . S
C994 C995 1.397 . S
C994 C999 1.363 . S
C995 H966 0.950 . S
C995 C994 1.397 . S
C995 C996 1.334 . S
C996 H967 0.950 . S
C996 C995 1.334 . S
C996 C997 1.287 . S
C997 C996 1.287 . S
C997 C998 1.524 . S
C997 H1000 0.999 . S
C998 H968 0.950 . S
C998 C997 1.524 . S
C998 C999 1.415 . S
C999 H969 0.950 . S
C999 C994 1.363 . S
C999 C998 1.415 . S
H1000 C997 0.999 . S
H1001 C982 0.913 . S
H1002 C1020 0.951 . S
H1003 C1022 0.951 . S
H1004 C1024 0.950 . S
H1005 C1025 0.950 . S
H1006 C1027 0.950 . S
H1007 C1030 0.950 . S
H1008 C1031 0.950 . S
H1009 C1033 0.950 . S
H1010 C1034 0.950 . S
H1011 C1035 0.951 . S
H1012 C1037 0.951 . S
H1013 C1039 0.950 . S
H1014 C1040 0.950 . S
H1015 C1042 0.950 . S
H1016 C1045 0.950 . S
H1017 C1046 0.950 . S
H1018 C1048 0.950 . S
H1019 C1049 0.950 . S
C1020 H1002 0.951 . S
C1020 C1021 1.366 . S
C1020 C1022 1.388 . S
C1021 C1020 1.366 . S
C1021 C1025 1.385 . S
C1022 H1003 0.951 . S
C1022 C1020 1.388 . S
C1022 C1023 1.366 . S
C1023 C1022 1.366 . S
C1023 C1024 1.414 . S
C1023 C1026 1.499 . S
C1024 H1004 0.950 . S
C1024 C1023 1.414 . S
C1024 C1025 1.374 . S
C1025 H1005 0.950 . S
C1025 C1021 1.385 . S
C1025 C1024 1.374 . S
C1026 C1023 1.499 . S
C1026 C1027 1.373 . S
C1026 C1028 1.389 . S
C1027 H1006 0.950 . S
C1027 C1026 1.373 . S
C1027 C1043 1.377 . S
C1028 C1026 1.389 . S
C1028 C1029 1.524 . S
C1028 C1042 1.377 . S
C1029 C1028 1.524 . S
C1029 C1030 1.397 . S
C1029 C1034 1.363 . S
C1030 H1007 0.950 . S
C1030 C1029 1.397 . S
C1030 C1031 1.334 . S
C1031 H1008 0.950 . S
C1031 C1030 1.334 . S
C1031 C1032 1.287 . S
C1032 C1031 1.287 . S
C1032 C1033 1.524 . S
C1032 H1051 0.913 . S
C1033 H1009 0.950 . S
C1033 C1032 1.524 . S
C1033 C1034 1.415 . S
C1034 H1010 0.950 . S
C1034 C1029 1.363 . S
C1034 C1033 1.415 . S
C1035 H1011 0.951 . S
C1035 C1036 1.366 . S
C1035 C1037 1.388 . S
C1036 C1035 1.366 . S
C1036 C1040 1.385 . S
C1037 H1012 0.951 . S
C1037 C1035 1.388 . S
C1037 C1038 1.366 . S
C1038 C1037 1.366 . S
C1038 C1039 1.414 . S
C1038 C1041 1.499 . S
C1039 H1013 0.950 . S
C1039 C1038 1.414 . S
C1039 C1040 1.374 . S
C1040 H1014 0.950 . S
C1040 C1036 1.385 . S
C1040 C1039 1.374 . S
C1041 C1038 1.499 . S
C1041 C1042 1.373 . S
C1041 C1043 1.389 . S
C1042 H1015 0.950 . S
C1042 C1028 1.377 . S
C1042 C1041 1.373 . S
C1043 C1027 1.377 . S
C1043 C1041 1.389 . S
C1043 C1044 1.524 . S
C1044 C1043 1.524 . S
C1044 C1045 1.397 . S
C1044 C1049 1.363 . S
C1045 H1016 0.950 . S
C1045 C1044 1.397 . S
C1045 C1046 1.334 . S
C1046 H1017 0.950 . S
C1046 C1045 1.334 . S
C1046 C1047 1.287 . S
C1047 C1046 1.287 . S
C1047 C1048 1.524 . S
C1047 H1050 0.999 . S
C1048 H1018 0.950 . S
C1048 C1047 1.524 . S
C1048 C1049 1.415 . S
C1049 H1019 0.950 . S
C1049 C1044 1.363 . S
C1049 C1048 1.415 . S
H1050 C1047 0.999 . S
H1051 C1032 0.913 . S
H1052 C1070 0.951 . S
H1053 C1072 0.951 . S
H1054 C1074 0.950 . S
H1055 C1075 0.950 . S
H1056 C1077 0.950 . S
H1057 C1080 0.950 . S
H1058 C1081 0.950 . S
H1059 C1083 0.950 . S
H1060 C1084 0.950 . S
H1061 C1085 0.951 . S
H1062 C1087 0.951 . S
H1063 C1089 0.950 . S
H1064 C1090 0.950 . S
H1065 C1092 0.950 . S
H1066 C1095 0.950 . S
H1067 C1096 0.950 . S
H1068 C1098 0.950 . S
H1069 C1099 0.950 . S
C1070 H1052 0.951 . S
C1070 C1071 1.366 . S
C1070 C1072 1.388 . S
C1071 C1070 1.366 . S
C1071 C1075 1.385 . S
C1072 H1053 0.951 . S
C1072 C1070 1.388 . S
C1072 C1073 1.366 . S
C1073 C1072 1.366 . S
C1073 C1074 1.414 . S
C1073 C1076 1.499 . S
C1074 H1054 0.950 . S
C1074 C1073 1.414 . S
C1074 C1075 1.374 . S
C1075 H1055 0.950 . S
C1075 C1071 1.385 . S
C1075 C1074 1.374 . S
C1076 C1073 1.499 . S
C1076 C1077 1.373 . S
C1076 C1078 1.389 . S
C1077 H1056 0.950 . S
C1077 C1076 1.373 . S
C1077 C1093 1.377 . S
C1078 C1076 1.389 . S
C1078 C1079 1.524 . S
C1078 C1092 1.377 . S
C1079 C1078 1.524 . S
C1079 C1080 1.397 . S
C1079 C1084 1.363 . S
C1080 H1057 0.950 . S
C1080 C1079 1.397 . S
C1080 C1081 1.334 . S
C1081 H1058 0.950 . S
C1081 C1080 1.334 . S
C1081 C1082 1.287 . S
C1082 C1081 1.287 . S
C1082 C1083 1.524 . S
C1082 H1101 0.913 . S
C1083 H1059 0.950 . S
C1083 C1082 1.524 . S
C1083 C1084 1.415 . S
C1084 H1060 0.950 . S
C1084 C1079 1.363 . S
C1084 C1083 1.415 . S
C1085 H1061 0.951 . S
C1085 C1086 1.366 . S
C1085 C1087 1.388 . S
C1086 C1085 1.366 . S
C1086 C1090 1.385 . S
C1087 H1062 0.951 . S
C1087 C1085 1.388 . S
C1087 C1088 1.366 . S
C1088 C1087 1.366 . S
C1088 C1089 1.414 . S
C1088 C1091 1.499 . S
C1089 H1063 0.950 . S
C1089 C1088 1.414 . S
C1089 C1090 1.374 . S
C1090 H1064 0.950 . S
C1090 C1086 1.385 . S
C1090 C1089 1.374 . S
C1091 C1088 1.499 . S
C1091 C1092 1.373 . S
C1091 C1093 1.389 . S
C1092 H1065 0.950 . S
C1092 C1078 1.377 . S
C1092 C1091 1.373 . S
C1093 C1077 1.377 . S
C1093 C1091 1.389 . S
C1093 C1094 1.524 . S
C1094 C1093 1.524 . S
C1094 C1095 1.397 . S
C1094 C1099 1.363 . S
C1095 H1066 0.950 . S
C1095 C1094 1.397 . S
C1095 C1096 1.334 . S
C1096 H1067 0.950 . S
C1096 C1095 1.334 . S
C1096 C1097 1.287 . S
C1097 C1096 1.287 . S
C1097 C1098 1.524 . S
C1097 H1100 0.999 . S
C1098 H1068 0.950 . S
C1098 C1097 1.524 . S
C1098 C1099 1.415 . S
C1099 H1069 0.950 . S
C1099 C1094 1.363 . S
C1099 C1098 1.415 . S
H1100 C1097 0.999 . S
H1101 C1082 0.913 . S
H1102 C1120 0.951 . S
H1103 C1122 0.951 . S
H1104 C1124 0.950 . S
H1105 C1125 0.950 . S
H1106 C1127 0.950 . S
H1107 C1130 0.950 . S
H1108 C1131 0.950 . S
H1109 C1133 0.950 . S
H1110 C1134 0.950 . S
H1111 C1135 0.951 . S
H1112 C1137 0.951 . S
H1113 C1139 0.950 . S
H1114 C1140 0.950 . S
H1115 C1142 0.950 . S
H1116 C1145 0.950 . S
H1117 C1146 0.950 . S
H1118 C1148 0.950 . S
H1119 C1149 0.950 . S
C1120 H1102 0.951 . S
C1120 C1121 1.366 . S
C1120 C1122 1.388 . S
C1121 C1120 1.366 . S
C1121 C1125 1.385 . S
C1122 H1103 0.951 . S
C1122 C1120 1.388 . S
C1122 C1123 1.366 . S
C1123 C1122 1.366 . S
C1123 C1124 1.414 . S
C1123 C1126 1.499 . S
C1124 H1104 0.950 . S
C1124 C1123 1.414 . S
C1124 C1125 1.374 . S
C1125 H1105 0.950 . S
C1125 C1121 1.385 . S
C1125 C1124 1.374 . S
C1126 C1123 1.499 . S
C1126 C1127 1.373 . S
C1126 C1128 1.389 . S
C1127 H1106 0.950 . S
C1127 C1126 1.373 . S
C1127 C1143 1.377 . S
C1128 C1126 1.389 . S
C1128 C1129 1.524 . S
C1128 C1142 1.377 . S
C1129 C1128 1.524 . S
C1129 C1130 1.397 . S
C1129 C1134 1.363 . S
C1130 H1107 0.950 . S
C1130 C1129 1.397 . S
C1130 C1131 1.334 . S
C1131 H1108 0.950 . S
C1131 C1130 1.334 . S
C1131 C1132 1.287 . S
C1132 C1131 1.287 . S
C1132 C1133 1.524 . S
C1132 H1151 0.913 . S
C1133 H1109 0.950 . S
C1133 C1132 1.524 . S
C1133 C1134 1.415 . S
C1134 H1110 0.950 . S
C1134 C1129 1.363 . S
C1134 C1133 1.415 . S
C1135 H1111 0.951 . S
C1135 C1136 1.366 . S
C1135 C1137 1.388 . S
C1136 C1135 1.366 . S
C1136 C1140 1.385 . S
C1137 H1112 0.951 . S
C1137 C1135 1.388 . S
C1137 C1138 1.366 . S
C1138 C1137 1.366 . S
C1138 C1139 1.414 . S
C1138 C1141 1.499 . S
C1139 H1113 0.950 . S
C1139 C1138 1.414 . S
C1139 C1140 1.374 . S
C1140 H1114 0.950 . S
C1140 C1136 1.385 . S
C1140 C1139 1.374 . S
C1141 C1138 1.499 . S
C1141 C1142 1.373 . S
C1141 C1143 1.389 . S
C1142 H1115 0.950 . S
C1142 C1128 1.377 . S
C1142 C1141 1.373 . S
C1143 C1127 1.377 . S
C1143 C1141 1.389 . S
C1143 C1144 1.524 . S
C1144 C1143 1.524 . S
C1144 C1145 1.397 . S
C1144 C1149 1.363 . S
C1145 H1116 0.950 . S
C1145 C1144 1.397 . S
C1145 C1146 1.334 . S
C1146 H1117 0.950 . S
C1146 C1145 1.334 . S
C1146 C1147 1.287 . S
C1147 C1146 1.287 . S
C1147 C1148 1.524 . S
C1147 H1150 0.999 . S
C1148 H1118 0.950 . S
C1148 C1147 1.524 . S
C1148 C1149 1.415 . S
C1149 H1119 0.950 . S
C1149 C1144 1.363 . S
C1149 C1148 1.415 . S
H1150 C1147 0.999 . S
H1151 C1132 0.913 . S
H1152 C1170 0.916 1_655 S
H1153 C1172 0.941 1_655 S
H1154 C1174 0.950 . S
H1155 C1175 0.950 . S
H1156 C1177 0.950 . S
H1157 C1180 0.950 . S
H1158 C1181 0.950 . S
H1159 C1183 0.950 . S
H1160 C1184 0.950 . S
H1161 C1185 0.951 . S
H1162 C1187 0.951 . S
H1163 C1189 0.950 . S
H1164 C1190 0.950 . S
H1165 C1192 0.950 . S
H1166 C1195 0.950 . S
H1167 C1196 0.950 . S
H1168 C1198 0.950 . S
H1169 C1199 0.950 . S
C1170 H1152 0.916 1_455 S
C1170 C1171 1.394 . S
C1170 C1172 1.395 . S
C1171 C1170 1.394 . S
C1171 C1175 1.385 . S
C1172 H1153 0.941 1_455 S
C1172 C1170 1.395 . S
C1172 C1173 1.366 . S
C1173 C1172 1.366 . S
C1173 C1174 1.414 . S
C1173 C1176 1.499 . S
C1174 H1154 0.950 . S
C1174 C1173 1.414 . S
C1174 C1175 1.374 . S
C1175 H1155 0.950 . S
C1175 C1171 1.385 . S
C1175 C1174 1.374 . S
C1176 C1173 1.499 . S
C1176 C1177 1.373 . S
C1176 C1178 1.389 . S
C1177 H1156 0.950 . S
C1177 C1176 1.373 . S
C1177 C1193 1.377 . S
C1178 C1176 1.389 . S
C1178 C1179 1.524 1_455 S
C1178 C1192 1.377 . S
C1179 C1178 1.524 1_655 S
C1179 C1180 1.397 . S
C1179 C1184 1.363 . S
C1180 H1157 0.950 . S
C1180 C1179 1.397 . S
C1180 C1181 1.334 . S
C1181 H1158 0.950 . S
C1181 C1180 1.334 . S
C1181 C1182 1.287 . S
C1182 C1181 1.287 . S
C1182 C1183 1.524 . S
C1182 H1201 0.913 . S
C1183 H1159 0.950 . S
C1183 C1182 1.524 . S
C1183 C1184 1.415 . S
C1184 H1160 0.950 . S
C1184 C1179 1.363 . S
C1184 C1183 1.415 . S
C1185 H1161 0.951 . S
C1185 C1186 1.366 . S
C1185 C1187 1.388 . S
C1186 C1185 1.366 . S
C1186 C1190 1.385 . S
C1187 H1162 0.951 . S
C1187 C1185 1.388 . S
C1187 C1188 1.366 . S
C1188 C1187 1.366 . S
C1188 C1189 1.414 . S
C1188 C1191 1.499 . S
C1189 H1163 0.950 . S
C1189 C1188 1.414 . S
C1189 C1190 1.374 . S
C1190 H1164 0.950 . S
C1190 C1186 1.385 . S
C1190 C1189 1.374 . S
C1191 C1188 1.499 . S
C1191 C1192 1.373 . S
C1191 C1193 1.389 . S
C1192 H1165 0.950 . S
C1192 C1178 1.377 . S
C1192 C1191 1.373 . S
C1193 C1177 1.377 . S
C1193 C1191 1.389 . S
C1193 C1194 1.524 . S
C1194 C1193 1.524 . S
C1194 C1195 1.397 . S
C1194 C1199 1.363 . S
C1195 H1166 0.950 . S
C1195 C1194 1.397 . S
C1195 C1196 1.334 . S
C1196 H1167 0.950 . S
C1196 C1195 1.334 . S
C1196 C1197 1.287 . S
C1197 C1196 1.287 . S
C1197 C1198 1.524 . S
C1197 H1200 0.999 . S
C1198 H1168 0.950 . S
C1198 C1197 1.524 . S
C1198 C1199 1.415 . S
C1199 H1169 0.950 . S
C1199 C1194 1.363 . S
C1199 C1198 1.415 . S
H1200 C1197 0.999 . S
H1201 C1182 0.913 . S
H1202 C1220 0.951 . S
H1203 C1222 0.951 . S
H1204 C1224 0.950 . S
H1205 C1225 0.950 . S
H1206 C1227 0.950 . S
H1207 C1230 0.950 . S
H1208 C1231 0.950 . S
H1209 C1233 0.950 . S
H1210 C1234 0.950 . S
H1211 C1235 0.951 . S
H1212 C1237 0.951 . S
H1213 C1239 0.950 . S
H1214 C1240 0.950 . S
H1215 C1242 0.950 . S
H1216 C1245 0.950 . S
H1217 C1246 0.950 . S
H1218 C1248 0.950 . S
H1219 C1249 0.950 . S
C1220 H1202 0.951 . S
C1220 C1221 1.366 . S
C1220 C1222 1.388 . S
C1221 C1220 1.366 . S
C1221 C1225 1.385 . S
C1222 H1203 0.951 . S
C1222 C1220 1.388 . S
C1222 C1223 1.366 . S
C1223 C1222 1.366 . S
C1223 C1224 1.414 . S
C1223 C1226 1.499 . S
C1224 H1204 0.950 . S
C1224 C1223 1.414 . S
C1224 C1225 1.374 . S
C1225 H1205 0.950 . S
C1225 C1221 1.385 . S
C1225 C1224 1.374 . S
C1226 C1223 1.499 . S
C1226 C1227 1.373 . S
C1226 C1228 1.389 . S
C1227 H1206 0.950 . S
C1227 C1226 1.373 . S
C1227 C1243 1.377 . S
C1228 C1226 1.389 . S
C1228 C1229 1.524 . S
C1228 C1242 1.377 . S
C1229 C1228 1.524 . S
C1229 C1230 1.397 . S
C1229 C1234 1.363 . S
C1230 H1207 0.950 . S
C1230 C1229 1.397 . S
C1230 C1231 1.334 . S
C1231 H1208 0.950 . S
C1231 C1230 1.334 . S
C1231 C1232 1.287 . S
C1232 C1231 1.287 . S
C1232 C1233 1.524 . S
C1232 H1251 0.913 . S
C1233 H1209 0.950 . S
C1233 C1232 1.524 . S
C1233 C1234 1.415 . S
C1234 H1210 0.950 . S
C1234 C1229 1.363 . S
C1234 C1233 1.415 . S
C1235 H1211 0.951 . S
C1235 C1236 1.366 . S
C1235 C1237 1.388 . S
C1236 C1235 1.366 . S
C1236 C1240 1.385 . S
C1237 H1212 0.951 . S
C1237 C1235 1.388 . S
C1237 C1238 1.366 . S
C1238 C1237 1.366 . S
C1238 C1239 1.414 . S
C1238 C1241 1.499 . S
C1239 H1213 0.950 . S
C1239 C1238 1.414 . S
C1239 C1240 1.374 . S
C1240 H1214 0.950 . S
C1240 C1236 1.385 . S
C1240 C1239 1.374 . S
C1241 C1238 1.499 . S
C1241 C1242 1.373 . S
C1241 C1243 1.389 . S
C1242 H1215 0.950 . S
C1242 C1228 1.377 . S
C1242 C1241 1.373 . S
C1243 C1227 1.377 . S
C1243 C1241 1.389 . S
C1243 C1244 1.524 . S
C1244 C1243 1.524 . S
C1244 C1245 1.397 . S
C1244 C1249 1.363 . S
C1245 H1216 0.950 . S
C1245 C1244 1.397 . S
C1245 C1246 1.334 . S
C1246 H1217 0.950 . S
C1246 C1245 1.334 . S
C1246 C1247 1.287 . S
C1247 C1246 1.287 . S
C1247 C1248 1.524 . S
C1247 H1250 0.999 . S
C1248 H1218 0.950 . S
C1248 C1247 1.524 . S
C1248 C1249 1.415 . S
C1249 H1219 0.950 . S
C1249 C1244 1.363 . S
C1249 C1248 1.415 . S
H1250 C1247 0.999 . S
H1251 C1232 0.913 . S
H1252 C1270 0.951 . S
H1253 C1272 0.951 . S
H1254 C1274 0.950 . S
H1255 C1275 0.950 . S
H1256 C1277 0.950 . S
H1257 C1280 0.950 . S
H1258 C1281 0.950 . S
H1259 C1283 0.950 . S
H1260 C1284 0.950 . S
H1261 C1285 0.951 . S
H1262 C1287 0.951 . S
H1263 C1289 0.950 . S
H1264 C1290 0.950 . S
H1265 C1292 0.950 . S
H1266 C1295 0.950 . S
H1267 C1296 0.950 . S
H1268 C1298 0.950 . S
H1269 C1299 0.950 . S
C1270 H1252 0.951 . S
C1270 C1271 1.366 . S
C1270 C1272 1.388 . S
C1271 C1270 1.366 . S
C1271 C1275 1.385 . S
C1272 H1253 0.951 . S
C1272 C1270 1.388 . S
C1272 C1273 1.366 . S
C1273 C1272 1.366 . S
C1273 C1274 1.414 . S
C1273 C1276 1.499 . S
C1274 H1254 0.950 . S
C1274 C1273 1.414 . S
C1274 C1275 1.374 . S
C1275 H1255 0.950 . S
C1275 C1271 1.385 . S
C1275 C1274 1.374 . S
C1276 C1273 1.499 . S
C1276 C1277 1.373 . S
C1276 C1278 1.389 . S
C1277 H1256 0.950 . S
C1277 C1276 1.373 . S
C1277 C1293 1.377 . S
C1278 C1276 1.389 . S
C1278 C1279 1.524 . S
C1278 C1292 1.377 . S
C1279 C1278 1.524 . S
C1279 C1280 1.397 . S
C1279 C1284 1.363 . S
C1280 H1257 0.950 . S
C1280 C1279 1.397 . S
C1280 C1281 1.334 . S
C1281 H1258 0.950 . S
C1281 C1280 1.334 . S
C1281 C1282 1.287 . S
C1282 C1281 1.287 . S
C1282 C1283 1.524 . S
C1282 H1301 0.913 . S
C1283 H1259 0.950 . S
C1283 C1282 1.524 . S
C1283 C1284 1.415 . S
C1284 H1260 0.950 . S
C1284 C1279 1.363 . S
C1284 C1283 1.415 . S
C1285 H1261 0.951 . S
C1285 C1286 1.366 . S
C1285 C1287 1.388 . S
C1286 C1285 1.366 . S
C1286 C1290 1.385 . S
C1287 H1262 0.951 . S
C1287 C1285 1.388 . S
C1287 C1288 1.366 . S
C1288 C1287 1.366 . S
C1288 C1289 1.414 . S
C1288 C1291 1.499 . S
C1289 H1263 0.950 . S
C1289 C1288 1.414 . S
C1289 C1290 1.374 . S
C1290 H1264 0.950 . S
C1290 C1286 1.385 . S
C1290 C1289 1.374 . S
C1291 C1288 1.499 . S
C1291 C1292 1.373 . S
C1291 C1293 1.389 . S
C1292 H1265 0.950 . S
C1292 C1278 1.377 . S
C1292 C1291 1.373 . S
C1293 C1277 1.377 . S
C1293 C1291 1.389 . S
C1293 C1294 1.524 . S
C1294 C1293 1.524 . S
C1294 C1295 1.397 . S
C1294 C1299 1.363 . S
C1295 H1266 0.950 . S
C1295 C1294 1.397 . S
C1295 C1296 1.334 . S
C1296 H1267 0.950 . S
C1296 C1295 1.334 . S
C1296 C1297 1.287 . S
C1297 C1296 1.287 . S
C1297 C1298 1.524 . S
C1297 H1300 0.999 . S
C1298 H1268 0.950 . S
C1298 C1297 1.524 . S
C1298 C1299 1.415 . S
C1299 H1269 0.950 . S
C1299 C1294 1.363 . S
C1299 C1298 1.415 . S
H1300 C1297 0.999 . S
H1301 C1282 0.913 . S
H1302 C1320 0.951 . S
H1303 C1322 0.951 . S
H1304 C1324 0.950 . S
H1305 C1325 0.950 . S
H1306 C1327 0.950 . S
H1307 C1330 0.950 . S
H1308 C1331 0.950 . S
H1309 C1333 0.950 . S
H1310 C1334 0.950 . S
H1311 C1335 0.951 . S
H1312 C1337 0.951 . S
H1313 C1339 0.950 . S
H1314 C1340 0.950 . S
H1315 C1342 0.950 . S
H1316 C1345 0.950 . S
H1317 C1346 0.950 . S
H1318 C1348 0.950 . S
H1319 C1349 0.950 . S
C1320 H1302 0.951 . S
C1320 C1321 1.366 . S
C1320 C1322 1.388 . S
C1321 C1320 1.366 . S
C1321 C1325 1.385 . S
C1322 H1303 0.951 . S
C1322 C1320 1.388 . S
C1322 C1323 1.366 . S
C1323 C1322 1.366 . S
C1323 C1324 1.414 . S
C1323 C1326 1.499 . S
C1324 H1304 0.950 . S
C1324 C1323 1.414 . S
C1324 C1325 1.374 . S
C1325 H1305 0.950 . S
C1325 C1321 1.385 . S
C1325 C1324 1.374 . S
C1326 C1323 1.499 . S
C1326 C1327 1.373 . S
C1326 C1328 1.389 . S
C1327 H1306 0.950 . S
C1327 C1326 1.373 . S
C1327 C1343 1.377 . S
C1328 C1326 1.389 . S
C1328 C1329 1.524 . S
C1328 C1342 1.377 . S
C1329 C1328 1.524 . S
C1329 C1330 1.397 . S
C1329 C1334 1.363 . S
C1330 H1307 0.950 . S
C1330 C1329 1.397 . S
C1330 C1331 1.334 . S
C1331 H1308 0.950 . S
C1331 C1330 1.334 . S
C1331 C1332 1.287 . S
C1332 C1331 1.287 . S
C1332 C1333 1.524 . S
C1332 H1351 0.913 . S
C1333 H1309 0.950 . S
C1333 C1332 1.524 . S
C1333 C1334 1.415 . S
C1334 H1310 0.950 . S
C1334 C1329 1.363 . S
C1334 C1333 1.415 . S
C1335 H1311 0.951 . S
C1335 C1336 1.366 . S
C1335 C1337 1.388 . S
C1336 C1335 1.366 . S
C1336 C1340 1.385 . S
C1337 H1312 0.951 . S
C1337 C1335 1.388 . S
C1337 C1338 1.366 . S
C1338 C1337 1.366 . S
C1338 C1339 1.414 . S
C1338 C1341 1.499 . S
C1339 H1313 0.950 . S
C1339 C1338 1.414 . S
C1339 C1340 1.374 . S
C1340 H1314 0.950 . S
C1340 C1336 1.385 . S
C1340 C1339 1.374 . S
C1341 C1338 1.499 . S
C1341 C1342 1.373 . S
C1341 C1343 1.389 . S
C1342 H1315 0.950 . S
C1342 C1328 1.377 . S
C1342 C1341 1.373 . S
C1343 C1327 1.377 . S
C1343 C1341 1.389 . S
C1343 C1344 1.524 . S
C1344 C1343 1.524 . S
C1344 C1345 1.397 . S
C1344 C1349 1.363 . S
C1345 H1316 0.950 . S
C1345 C1344 1.397 . S
C1345 C1346 1.334 . S
C1346 H1317 0.950 . S
C1346 C1345 1.334 . S
C1346 C1347 1.287 . S
C1347 C1346 1.287 . S
C1347 C1348 1.524 . S
C1347 H1350 0.999 . S
C1348 H1318 0.950 . S
C1348 C1347 1.524 . S
C1348 C1349 1.415 . S
C1349 H1319 0.950 . S
C1349 C1344 1.363 . S
C1349 C1348 1.415 . S
H1350 C1347 0.999 . S
H1351 C1332 0.913 . S
H1352 C1370 0.951 . S
H1353 C1372 0.951 . S
H1354 C1374 0.950 . S
H1355 C1375 0.950 . S
H1356 C1377 0.950 . S
H1357 C1380 0.950 . S
H1358 C1381 0.950 . S
H1359 C1383 0.950 . S
H1360 C1384 0.950 . S
H1361 C1385 0.951 . S
H1362 C1387 0.951 . S
H1363 C1389 0.950 . S
H1364 C1390 0.950 . S
H1365 C1392 0.950 . S
H1366 C1395 0.950 1_655 S
H1367 C1396 0.950 . S
H1368 C1398 0.950 . S
H1369 C1399 0.950 . S
C1370 H1352 0.951 . S
C1370 C1371 1.366 . S
C1370 C1372 1.388 . S
C1371 C1370 1.366 . S
C1371 C1375 1.385 . S
C1372 H1353 0.951 . S
C1372 C1370 1.388 . S
C1372 C1373 1.366 . S
C1373 C1372 1.366 . S
C1373 C1374 1.414 . S
C1373 C1376 1.499 . S
C1374 H1354 0.950 . S
C1374 C1373 1.414 . S
C1374 C1375 1.374 . S
C1375 H1355 0.950 . S
C1375 C1371 1.385 . S
C1375 C1374 1.374 . S
C1376 C1373 1.499 . S
C1376 C1377 1.373 . S
C1376 C1378 1.389 . S
C1377 H1356 0.950 . S
C1377 C1376 1.373 . S
C1377 C1393 1.377 . S
C1378 C1376 1.389 . S
C1378 C1379 1.524 . S
C1378 C1392 1.377 . S
C1379 C1378 1.524 . S
C1379 C1380 1.397 . S
C1379 C1384 1.363 . S
C1380 H1357 0.950 . S
C1380 C1379 1.397 . S
C1380 C1381 1.334 . S
C1381 H1358 0.950 . S
C1381 C1380 1.334 . S
C1381 C1382 1.287 . S
C1382 C1381 1.287 . S
C1382 C1383 1.524 . S
C1382 H1401 0.913 . S
C1383 H1359 0.950 . S
C1383 C1382 1.524 . S
C1383 C1384 1.415 . S
C1384 H1360 0.950 . S
C1384 C1379 1.363 . S
C1384 C1383 1.415 . S
C1385 H1361 0.951 . S
C1385 C1386 1.366 . S
C1385 C1387 1.388 . S
C1386 C1385 1.366 . S
C1386 C1390 1.385 1_455 S
C1387 H1362 0.951 . S
C1387 C1385 1.388 . S
C1387 C1388 1.366 1_455 S
C1388 C1387 1.366 1_655 S
C1388 C1389 1.414 . S
C1388 C1391 1.499 . S
C1389 H1363 0.950 . S
C1389 C1388 1.414 . S
C1389 C1390 1.374 . S
C1390 H1364 0.950 . S
C1390 C1386 1.385 1_655 S
C1390 C1389 1.374 . S
C1391 C1388 1.499 . S
C1391 C1392 1.373 . S
C1391 C1393 1.389 . S
C1392 H1365 0.950 . S
C1392 C1378 1.377 . S
C1392 C1391 1.373 . S
C1393 C1377 1.377 . S
C1393 C1391 1.389 . S
C1393 C1394 1.524 1_655 S
C1394 C1393 1.524 1_455 S
C1394 C1395 1.397 . S
C1394 C1399 1.363 . S
C1395 H1366 0.950 1_455 S
C1395 C1394 1.397 . S
C1395 C1396 1.334 . S
C1396 H1367 0.950 . S
C1396 C1395 1.334 . S
C1396 C1397 1.287 . S
C1397 C1396 1.287 . S
C1397 C1398 1.524 . S
C1397 H1400 0.999 . S
C1398 H1368 0.950 . S
C1398 C1397 1.524 . S
C1398 C1399 1.415 . S
C1399 H1369 0.950 . S
C1399 C1394 1.363 . S
C1399 C1398 1.415 . S
H1400 C1397 0.999 . S
H1401 C1382 0.913 . S
H1402 C1420 0.951 . S
H1403 C1422 0.951 . S
H1404 C1424 0.950 . S
H1405 C1425 0.950 . S
H1406 C1427 0.950 . S
H1407 C1430 0.950 . S
H1408 C1431 0.950 . S
H1409 C1433 0.950 . S
H1410 C1434 0.950 . S
H1411 C1435 0.951 . S
H1412 C1437 0.951 . S
H1413 C1439 0.950 . S
H1414 C1440 0.950 . S
H1415 C1442 0.950 . S
H1416 C1445 0.950 . S
H1417 C1446 0.950 . S
H1418 C1448 0.950 . S
H1419 C1449 0.950 . S
C1420 H1402 0.951 . S
C1420 C1421 1.366 . S
C1420 C1422 1.388 . S
C1421 C1420 1.366 . S
C1421 C1425 1.385 . S
C1422 H1403 0.951 . S
C1422 C1420 1.388 . S
C1422 C1423 1.366 . S
C1423 C1422 1.366 . S
C1423 C1424 1.414 . S
C1423 C1426 1.499 . S
C1424 H1404 0.950 . S
C1424 C1423 1.414 . S
C1424 C1425 1.374 . S
C1425 H1405 0.950 . S
C1425 C1421 1.385 . S
C1425 C1424 1.374 . S
C1426 C1423 1.499 . S
C1426 C1427 1.373 . S
C1426 C1428 1.389 . S
C1427 H1406 0.950 . S
C1427 C1426 1.373 . S
C1427 C1443 1.377 . S
C1428 C1426 1.389 . S
C1428 C1429 1.524 . S
C1428 C1442 1.377 . S
C1429 C1428 1.524 . S
C1429 C1430 1.397 . S
C1429 C1434 1.363 . S
C1430 H1407 0.950 . S
C1430 C1429 1.397 . S
C1430 C1431 1.334 . S
C1431 H1408 0.950 . S
C1431 C1430 1.334 . S
C1431 C1432 1.287 . S
C1432 C1431 1.287 . S
C1432 C1433 1.524 . S
C1432 H1451 0.913 . S
C1433 H1409 0.950 . S
C1433 C1432 1.524 . S
C1433 C1434 1.415 . S
C1434 H1410 0.950 . S
C1434 C1429 1.363 . S
C1434 C1433 1.415 . S
C1435 H1411 0.951 . S
C1435 C1436 1.366 . S
C1435 C1437 1.388 . S
C1436 C1435 1.366 . S
C1436 C1440 1.385 . S
C1437 H1412 0.951 . S
C1437 C1435 1.388 . S
C1437 C1438 1.366 . S
C1438 C1437 1.366 . S
C1438 C1439 1.414 . S
C1438 C1441 1.499 . S
C1439 H1413 0.950 . S
C1439 C1438 1.414 . S
C1439 C1440 1.374 . S
C1440 H1414 0.950 . S
C1440 C1436 1.385 . S
C1440 C1439 1.374 . S
C1441 C1438 1.499 . S
C1441 C1442 1.373 . S
C1441 C1443 1.389 . S
C1442 H1415 0.950 . S
C1442 C1428 1.377 . S
C1442 C1441 1.373 . S
C1443 C1427 1.377 . S
C1443 C1441 1.389 . S
C1443 C1444 1.524 . S
C1444 C1443 1.524 . S
C1444 C1445 1.397 . S
C1444 C1449 1.363 . S
C1445 H1416 0.950 . S
C1445 C1444 1.397 . S
C1445 C1446 1.334 . S
C1446 H1417 0.950 . S
C1446 C1445 1.334 . S
C1446 C1447 1.287 . S
C1447 C1446 1.287 . S
C1447 C1448 1.524 . S
C1447 H1450 0.999 . S
C1448 H1418 0.950 . S
C1448 C1447 1.524 . S
C1448 C1449 1.415 . S
C1449 H1419 0.950 . S
C1449 C1444 1.363 . S
C1449 C1448 1.415 . S
H1450 C1447 0.999 . S
H1451 C1432 0.913 . S
H1452 C1470 0.951 . S
H1453 C1472 0.951 . S
H1454 C1474 0.950 . S
H1455 C1475 0.950 . S
H1456 C1477 0.950 1_565 S
H1457 C1480 0.950 . S
H1458 C1481 0.950 . S
H1459 C1483 0.950 . S
H1460 C1484 0.950 . S
H1461 C1485 0.951 . S
H1462 C1487 0.951 . S
H1463 C1489 0.950 . S
H1464 C1490 0.950 . S
H1465 C1492 0.950 . S
H1466 C1495 0.950 . S
H1467 C1496 0.950 . S
H1468 C1498 0.950 . S
H1469 C1499 0.950 1_545 S
C1470 H1452 0.951 . S
C1470 C1471 1.366 . S
C1470 C1472 1.388 . S
C1471 C1470 1.366 . S
C1471 C1475 1.385 1_565 S
C1472 H1453 0.951 . S
C1472 C1470 1.388 . S
C1472 C1473 1.366 1_565 S
C1473 C1472 1.366 1_545 S
C1473 C1474 1.414 . S
C1473 C1476 1.499 . S
C1474 H1454 0.950 . S
C1474 C1473 1.414 . S
C1474 C1475 1.374 . S
C1475 H1455 0.950 . S
C1475 C1471 1.385 1_545 S
C1475 C1474 1.374 . S
C1476 C1473 1.499 . S
C1476 C1477 1.373 . S
C1476 C1478 1.389 . S
C1477 H1456 0.950 1_545 S
C1477 C1476 1.373 . S
C1477 C1493 1.377 . S
C1478 C1476 1.389 . S
C1478 C1479 1.524 . S
C1478 C1492 1.377 . S
C1479 C1478 1.524 . S
C1479 C1480 1.397 . S
C1479 C1484 1.363 . S
C1480 H1457 0.950 . S
C1480 C1479 1.397 . S
C1480 C1481 1.334 . S
C1481 H1458 0.950 . S
C1481 C1480 1.334 . S
C1481 C1482 1.287 . S
C1482 C1481 1.287 . S
C1482 C1483 1.524 . S
C1482 H1501 0.913 . S
C1483 H1459 0.950 . S
C1483 C1482 1.524 . S
C1483 C1484 1.415 . S
C1484 H1460 0.950 . S
C1484 C1479 1.363 . S
C1484 C1483 1.415 . S
C1485 H1461 0.951 . S
C1485 C1486 1.366 . S
C1485 C1487 1.388 . S
C1486 C1485 1.366 . S
C1486 C1490 1.385 . S
C1487 H1462 0.951 . S
C1487 C1485 1.388 . S
C1487 C1488 1.366 . S
C1488 C1487 1.366 . S
C1488 C1489 1.414 . S
C1488 C1491 1.499 . S
C1489 H1463 0.950 . S
C1489 C1488 1.414 . S
C1489 C1490 1.374 . S
C1490 H1464 0.950 . S
C1490 C1486 1.385 . S
C1490 C1489 1.374 . S
C1491 C1488 1.499 . S
C1491 C1492 1.373 . S
C1491 C1493 1.389 . S
C1492 H1465 0.950 . S
C1492 C1478 1.377 . S
C1492 C1491 1.373 . S
C1493 C1477 1.377 . S
C1493 C1491 1.389 . S
C1493 C1494 1.524 1_545 S
C1494 C1493 1.524 1_565 S
C1494 C1495 1.397 . S
C1494 C1499 1.363 . S
C1495 H1466 0.950 . S
C1495 C1494 1.397 . S
C1495 C1496 1.334 . S
C1496 H1467 0.950 . S
C1496 C1495 1.334 . S
C1496 C1497 1.287 . S
C1497 C1496 1.287 . S
C1497 C1498 1.524 . S
C1497 H1500 0.999 . S
C1498 H1468 0.950 . S
C1498 C1497 1.524 . S
C1498 C1499 1.415 . S
C1499 H1469 0.950 1_565 S
C1499 C1494 1.363 . S
C1499 C1498 1.415 . S
H1500 C1497 0.999 . S
H1501 C1482 0.913 . S
H1502 C1520 0.951 . S
H1503 C1522 0.951 . S
H1504 C1524 0.950 . S
H1505 C1525 0.950 . S
H1506 C1527 0.950 . S
H1507 C1530 0.950 . S
H1508 C1531 0.950 . S
H1509 C1533 0.950 . S
H1510 C1534 0.950 . S
H1511 C1535 0.951 . S
H1512 C1537 0.951 . S
H1513 C1539 0.950 . S
H1514 C1540 0.950 . S
H1515 C1542 0.950 . S
H1516 C1545 0.950 . S
H1517 C1546 0.950 . S
H1518 C1548 0.950 . S
H1519 C1549 0.950 . S
C1520 H1502 0.951 . S
C1520 C1521 1.366 . S
C1520 C1522 1.388 . S
C1521 C1520 1.366 . S
C1521 C1525 1.385 . S
C1522 H1503 0.951 . S
C1522 C1520 1.388 . S
C1522 C1523 1.366 . S
C1523 C1522 1.366 . S
C1523 C1524 1.414 . S
C1523 C1526 1.499 . S
C1524 H1504 0.950 . S
C1524 C1523 1.414 . S
C1524 C1525 1.374 . S
C1525 H1505 0.950 . S
C1525 C1521 1.385 . S
C1525 C1524 1.374 . S
C1526 C1523 1.499 . S
C1526 C1527 1.373 1_554 S
C1526 C1528 1.389 . S
C1527 H1506 0.950 . S
C1527 C1526 1.373 1_556 S
C1527 C1543 1.377 . S
C1528 C1526 1.389 . S
C1528 C1529 1.524 . S
C1528 C1542 1.377 1_554 S
C1529 C1528 1.524 . S
C1529 C1530 1.397 . S
C1529 C1534 1.363 . S
C1530 H1507 0.950 . S
C1530 C1529 1.397 . S
C1530 C1531 1.334 . S
C1531 H1508 0.950 . S
C1531 C1530 1.334 . S
C1531 C1532 1.287 . S
C1532 C1531 1.287 . S
C1532 C1533 1.524 . S
C1532 H1551 0.913 . S
C1533 H1509 0.950 . S
C1533 C1532 1.524 . S
C1533 C1534 1.415 . S
C1534 H1510 0.950 . S
C1534 C1529 1.363 . S
C1534 C1533 1.415 . S
C1535 H1511 0.951 . S
C1535 C1536 1.366 . S
C1535 C1537 1.388 . S
C1536 C1535 1.366 . S
C1536 C1540 1.385 . S
C1537 H1512 0.951 . S
C1537 C1535 1.388 . S
C1537 C1538 1.366 . S
C1538 C1537 1.366 . S
C1538 C1539 1.414 . S
C1538 C1541 1.499 . S
C1539 H1513 0.950 . S
C1539 C1538 1.414 . S
C1539 C1540 1.374 . S
C1540 H1514 0.950 . S
C1540 C1536 1.385 . S
C1540 C1539 1.374 . S
C1541 C1538 1.499 . S
C1541 C1542 1.373 . S
C1541 C1543 1.389 . S
C1542 H1515 0.950 . S
C1542 C1528 1.377 1_556 S
C1542 C1541 1.373 . S
C1543 C1527 1.377 . S
C1543 C1541 1.389 . S
C1543 C1544 1.524 . S
C1544 C1543 1.524 . S
C1544 C1545 1.397 . S
C1544 C1549 1.363 . S
C1545 H1516 0.950 . S
C1545 C1544 1.397 . S
C1545 C1546 1.334 . S
C1546 H1517 0.950 . S
C1546 C1545 1.334 . S
C1546 C1547 1.287 . S
C1547 C1546 1.287 . S
C1547 C1548 1.524 . S
C1547 H1550 0.999 . S
C1548 H1518 0.950 . S
C1548 C1547 1.524 . S
C1548 C1549 1.415 . S
C1549 H1519 0.950 . S
C1549 C1544 1.363 . S
C1549 C1548 1.415 . S
H1550 C1547 0.999 . S
H1551 C1532 0.913 . S
H1552 C1570 0.951 . S
H1553 C1572 0.951 . S
H1554 C1574 0.950 . S
H1555 C1575 0.950 . S
H1556 C1577 0.950 . S
H1557 C1580 0.950 . S
H1558 C1581 0.950 . S
H1559 C1583 0.994 . S
H1560 C1584 0.950 . S
H1561 C1585 0.951 . S
H1562 C1587 0.951 . S
H1563 C1589 0.950 . S
H1564 C1590 0.950 . S
H1565 C1592 0.950 . S
H1566 C1595 0.915 1_455 S
H1567 C1596 0.950 . S
H1568 C1598 0.950 . S
H1569 C1599 0.950 . S
C1570 H1552 0.951 . S
C1570 C1571 1.366 . S
C1570 C1572 1.388 . S
C1571 C1570 1.366 . S
C1571 C1575 1.385 . S
C1572 H1553 0.951 . S
C1572 C1570 1.388 . S
C1572 C1573 1.366 . S
C1573 C1572 1.366 . S
C1573 C1574 1.414 . S
C1573 C1576 1.499 . S
C1574 H1554 0.950 . S
C1574 C1573 1.414 . S
C1574 C1575 1.374 . S
C1575 H1555 0.950 . S
C1575 C1571 1.385 . S
C1575 C1574 1.374 . S
C1576 C1573 1.499 . S
C1576 C1577 1.373 . S
C1576 C1578 1.389 . S
C1577 H1556 0.950 . S
C1577 C1576 1.373 . S
C1577 C1593 1.377 . S
C1578 C1576 1.389 . S
C1578 C1579 1.524 . S
C1578 C1592 1.377 . S
C1579 C1578 1.524 . S
C1579 C1580 1.397 . S
C1579 C1584 1.363 . S
C1580 H1557 0.950 . S
C1580 C1579 1.397 . S
C1580 C1581 1.334 . S
C1581 H1558 0.950 . S
C1581 C1580 1.334 . S
C1581 C1582 1.291 1_545 S
C1582 C1581 1.291 1_565 S
C1582 C1583 1.511 . S
C1582 H1601 0.910 . S
C1583 H1559 0.994 . S
C1583 C1582 1.511 . S
C1583 C1584 1.378 1_565 S
C1584 H1560 0.950 . S
C1584 C1579 1.363 . S
C1584 C1583 1.378 1_545 S
C1585 H1561 0.951 . S
C1585 C1586 1.351 1_655 S
C1585 C1587 1.388 . S
C1586 C1585 1.351 1_455 S
C1586 C1590 1.391 . S
C1587 H1562 0.951 . S
C1587 C1585 1.388 . S
C1587 C1588 1.366 . S
C1588 C1587 1.366 . S
C1588 C1589 1.414 . S
C1588 C1591 1.499 . S
C1589 H1563 0.950 . S
C1589 C1588 1.414 . S
C1589 C1590 1.374 1_655 S
C1590 H1564 0.950 . S
C1590 C1586 1.391 . S
C1590 C1589 1.374 1_455 S
C1591 C1588 1.499 . S
C1591 C1592 1.373 . S
C1591 C1593 1.389 . S
C1592 H1565 0.950 . S
C1592 C1578 1.377 . S
C1592 C1591 1.373 . S
C1593 C1577 1.377 . S
C1593 C1591 1.389 . S
C1593 C1594 1.524 . S
C1594 C1593 1.524 . S
C1594 C1595 1.457 . S
C1594 C1599 1.363 . S
C1595 H1566 0.915 1_655 S
C1595 C1594 1.457 . S
C1595 C1596 1.310 1_655 S
C1596 H1567 0.950 . S
C1596 C1595 1.310 1_455 S
C1596 C1597 1.287 . S
C1597 C1596 1.287 . S
C1597 C1598 1.524 1_455 S
C1597 H1600 0.999 . S
C1598 H1568 0.950 . S
C1598 C1597 1.524 1_655 S
C1598 C1599 1.415 . S
C1599 H1569 0.950 . S
C1599 C1594 1.363 . S
C1599 C1598 1.415 . S
H1600 C1597 0.999 . S
H1601 C1582 0.910 . S
H1602 C1620 0.951 . S
H1603 C1622 0.951 . S
H1604 C1624 0.950 . S
H1605 C1625 0.950 . S
H1606 C1627 0.950 . S
H1607 C1630 0.950 . S
H1608 C1631 0.950 . S
H1609 C1633 0.950 . S
H1610 C1634 0.950 . S
H1611 C1635 0.951 . S
H1612 C1637 0.951 . S
H1613 C1639 0.950 . S
H1614 C1640 0.950 . S
H1615 C1642 0.950 . S
H1616 C1645 0.950 . S
H1617 C1646 0.950 . S
H1618 C1648 0.950 . S
H1619 C1649 0.950 . S
C1620 H1602 0.951 . S
C1620 C1621 1.366 . S
C1620 C1622 1.388 . S
C1621 C1620 1.366 . S
C1621 C1625 1.385 . S
C1622 H1603 0.951 . S
C1622 C1620 1.388 . S
C1622 C1623 1.366 . S
C1623 C1622 1.366 . S
C1623 C1624 1.414 . S
C1623 C1626 1.499 . S
C1624 H1604 0.950 . S
C1624 C1623 1.414 . S
C1624 C1625 1.374 . S
C1625 H1605 0.950 . S
C1625 C1621 1.385 . S
C1625 C1624 1.374 . S
C1626 C1623 1.499 . S
C1626 C1627 1.373 . S
C1626 C1628 1.389 . S
C1627 H1606 0.950 . S
C1627 C1626 1.373 . S
C1627 C1643 1.377 . S
C1628 C1626 1.389 . S
C1628 C1629 1.524 . S
C1628 C1642 1.377 . S
C1629 C1628 1.524 . S
C1629 C1630 1.397 . S
C1629 C1634 1.363 . S
C1630 H1607 0.950 . S
C1630 C1629 1.397 . S
C1630 C1631 1.334 . S
C1631 H1608 0.950 . S
C1631 C1630 1.334 . S
C1631 C1632 1.287 . S
C1632 C1631 1.287 . S
C1632 C1633 1.524 . S
C1632 H1651 0.913 . S
C1633 H1609 0.950 . S
C1633 C1632 1.524 . S
C1633 C1634 1.415 . S
C1634 H1610 0.950 . S
C1634 C1629 1.363 . S
C1634 C1633 1.415 . S
C1635 H1611 0.951 . S
C1635 C1636 1.366 . S
C1635 C1637 1.388 . S
C1636 C1635 1.366 . S
C1636 C1640 1.385 . S
C1637 H1612 0.951 . S
C1637 C1635 1.388 . S
C1637 C1638 1.366 . S
C1638 C1637 1.366 . S
C1638 C1639 1.414 . S
C1638 C1641 1.499 . S
C1639 H1613 0.950 . S
C1639 C1638 1.414 . S
C1639 C1640 1.374 . S
C1640 H1614 0.950 . S
C1640 C1636 1.385 . S
C1640 C1639 1.374 . S
C1641 C1638 1.499 . S
C1641 C1642 1.373 . S
C1641 C1643 1.389 . S
C1642 H1615 0.950 . S
C1642 C1628 1.377 . S
C1642 C1641 1.373 . S
C1643 C1627 1.377 . S
C1643 C1641 1.389 . S
C1643 C1644 1.524 . S
C1644 C1643 1.524 . S
C1644 C1645 1.397 . S
C1644 C1649 1.363 . S
C1645 H1616 0.950 . S
C1645 C1644 1.397 . S
C1645 C1646 1.334 . S
C1646 H1617 0.950 . S
C1646 C1645 1.334 . S
C1646 C1647 1.287 . S
C1647 C1646 1.287 . S
C1647 C1648 1.524 . S
C1647 H1650 0.999 . S
C1648 H1618 0.950 . S
C1648 C1647 1.524 . S
C1648 C1649 1.415 . S
C1649 H1619 0.950 . S
C1649 C1644 1.363 . S
C1649 C1648 1.415 . S
H1650 C1647 0.999 . S
H1651 C1632 0.913 . S
H1652 C1670 0.951 . S
H1653 C1672 0.951 . S
H1654 C1674 0.950 . S
H1655 C1675 0.950 . S
H1656 C1677 0.950 . S
H1657 C1680 0.950 . S
H1658 C1681 0.950 . S
H1659 C1683 0.950 . S
H1660 C1684 0.950 1_545 S
H1661 C1685 0.951 . S
H1662 C1687 0.951 . S
H1663 C1689 0.950 . S
H1664 C1690 0.950 . S
H1665 C1692 0.950 . S
H1666 C1695 0.950 . S
H1667 C1696 0.950 . S
H1668 C1698 0.950 . S
H1669 C1699 0.950 . S
C1670 H1652 0.951 . S
C1670 C1671 1.366 . S
C1670 C1672 1.388 . S
C1671 C1670 1.366 . S
C1671 C1675 1.385 . S
C1672 H1653 0.951 . S
C1672 C1670 1.388 . S
C1672 C1673 1.366 . S
C1673 C1672 1.366 . S
C1673 C1674 1.414 . S
C1673 C1676 1.499 . S
C1674 H1654 0.950 . S
C1674 C1673 1.414 . S
C1674 C1675 1.374 . S
C1675 H1655 0.950 . S
C1675 C1671 1.385 . S
C1675 C1674 1.374 . S
C1676 C1673 1.499 . S
C1676 C1677 1.373 . S
C1676 C1678 1.389 . S
C1677 H1656 0.950 . S
C1677 C1676 1.373 . S
C1677 C1693 1.377 . S
C1678 C1676 1.389 . S
C1678 C1679 1.543 . S
C1678 C1692 1.377 . S
C1679 C1678 1.543 . S
C1679 C1680 1.385 1_545 S
C1679 C1684 1.356 1_545 S
C1680 H1657 0.950 . S
C1680 C1679 1.385 1_565 S
C1680 C1681 1.334 . S
C1681 H1658 0.950 . S
C1681 C1680 1.334 . S
C1681 C1682 1.287 . S
C1682 C1681 1.287 . S
C1682 C1683 1.524 . S
C1682 H1701 0.913 . S
C1683 H1659 0.950 . S
C1683 C1682 1.524 . S
C1683 C1684 1.415 . S
C1684 H1660 0.950 1_565 S
C1684 C1679 1.356 1_565 S
C1684 C1683 1.415 . S
C1685 H1661 0.951 . S
C1685 C1686 1.366 . S
C1685 C1687 1.388 . S
C1686 C1685 1.366 . S
C1686 C1690 1.385 . S
C1687 H1662 0.951 . S
C1687 C1685 1.388 . S
C1687 C1688 1.366 . S
C1688 C1687 1.366 . S
C1688 C1689 1.414 . S
C1688 C1691 1.499 . S
C1689 H1663 0.950 . S
C1689 C1688 1.414 . S
C1689 C1690 1.374 . S
C1690 H1664 0.950 . S
C1690 C1686 1.385 . S
C1690 C1689 1.374 . S
C1691 C1688 1.499 . S
C1691 C1692 1.373 . S
C1691 C1693 1.389 . S
C1692 H1665 0.950 . S
C1692 C1678 1.377 . S
C1692 C1691 1.373 . S
C1693 C1677 1.377 . S
C1693 C1691 1.389 . S
C1693 C1694 1.524 . S
C1694 C1693 1.524 . S
C1694 C1695 1.397 . S
C1694 C1699 1.363 . S
C1695 H1666 0.950 . S
C1695 C1694 1.397 . S
C1695 C1696 1.334 . S
C1696 H1667 0.950 . S
C1696 C1695 1.334 . S
C1696 C1697 1.287 . S
C1697 C1696 1.287 . S
C1697 C1698 1.524 . S
C1697 H1700 0.999 . S
C1698 H1668 0.950 . S
C1698 C1697 1.524 . S
C1698 C1699 1.415 . S
C1699 H1669 0.950 . S
C1699 C1694 1.363 . S
C1699 C1698 1.415 . S
H1700 C1697 0.999 . S
H1701 C1682 0.913 . S
H1702 C1720 0.951 . S
H1703 C1722 0.951 . S
H1704 C1724 0.950 . S
H1705 C1725 0.950 . S
H1706 C1727 0.950 . S
H1707 C1730 0.950 . S
H1708 C1731 0.950 . S
H1709 C1733 0.950 . S
H1710 C1734 0.950 . S
H1711 C1735 0.951 . S
H1712 C1737 0.951 . S
H1713 C1739 0.950 . S
H1714 C1740 0.950 . S
H1715 C1742 0.950 . S
H1716 C1745 0.950 . S
H1717 C1746 0.950 . S
H1718 C1748 0.950 . S
H1719 C1749 0.950 . S
C1720 H1702 0.951 . S
C1720 C1721 1.366 . S
C1720 C1722 1.388 . S
C1721 C1720 1.366 . S
C1721 C1725 1.385 . S
C1722 H1703 0.951 . S
C1722 C1720 1.388 . S
C1722 C1723 1.366 . S
C1723 C1722 1.366 . S
C1723 C1724 1.414 . S
C1723 C1726 1.499 . S
C1724 H1704 0.950 . S
C1724 C1723 1.414 . S
C1724 C1725 1.374 . S
C1725 H1705 0.950 . S
C1725 C1721 1.385 . S
C1725 C1724 1.374 . S
C1726 C1723 1.499 . S
C1726 C1727 1.373 . S
C1726 C1728 1.389 . S
C1727 H1706 0.950 . S
C1727 C1726 1.373 . S
C1727 C1743 1.377 . S
C1728 C1726 1.389 . S
C1728 C1729 1.524 . S
C1728 C1742 1.377 . S
C1729 C1728 1.524 . S
C1729 C1730 1.397 . S
C1729 C1734 1.363 . S
C1730 H1707 0.950 . S
C1730 C1729 1.397 . S
C1730 C1731 1.334 . S
C1731 H1708 0.950 . S
C1731 C1730 1.334 . S
C1731 C1732 1.287 . S
C1732 C1731 1.287 . S
C1732 C1733 1.524 . S
C1732 H1751 0.913 . S
C1733 H1709 0.950 . S
C1733 C1732 1.524 . S
C1733 C1734 1.415 . S
C1734 H1710 0.950 . S
C1734 C1729 1.363 . S
C1734 C1733 1.415 . S
C1735 H1711 0.951 . S
C1735 C1736 1.366 . S
C1735 C1737 1.388 . S
C1736 C1735 1.366 . S
C1736 C1740 1.385 . S
C1737 H1712 0.951 . S
C1737 C1735 1.388 . S
C1737 C1738 1.366 . S
C1738 C1737 1.366 . S
C1738 C1739 1.414 . S
C1738 C1741 1.499 . S
C1739 H1713 0.950 . S
C1739 C1738 1.414 . S
C1739 C1740 1.374 . S
C1740 H1714 0.950 . S
C1740 C1736 1.385 . S
C1740 C1739 1.374 . S
C1741 C1738 1.499 . S
C1741 C1742 1.373 . S
C1741 C1743 1.389 . S
C1742 H1715 0.950 . S
C1742 C1728 1.377 . S
C1742 C1741 1.373 . S
C1743 C1727 1.377 . S
C1743 C1741 1.389 . S
C1743 C1744 1.524 . S
C1744 C1743 1.524 . S
C1744 C1745 1.397 . S
C1744 C1749 1.363 . S
C1745 H1716 0.950 . S
C1745 C1744 1.397 . S
C1745 C1746 1.334 . S
C1746 H1717 0.950 . S
C1746 C1745 1.334 . S
C1746 C1747 1.287 . S
C1747 C1746 1.287 . S
C1747 C1748 1.524 . S
C1747 H1750 0.999 . S
C1748 H1718 0.950 . S
C1748 C1747 1.524 . S
C1748 C1749 1.415 . S
C1749 H1719 0.950 . S
C1749 C1744 1.363 . S
C1749 C1748 1.415 . S
H1750 C1747 0.999 . S
H1751 C1732 0.913 . S
H1752 C1770 0.951 . S
H1753 C1772 0.951 . S
H1754 C1774 0.950 . S
H1755 C1775 0.950 . S
H1756 C1777 0.950 . S
H1757 C1780 0.950 . S
H1758 C1781 0.968 . S
H1759 C1783 0.950 . S
H1760 C1784 0.950 . S
H1761 C1785 0.951 . S
H1762 C1787 0.929 1_565 S
H1763 C1789 0.950 . S
H1764 C1790 0.950 . S
H1765 C1792 0.950 . S
H1766 C1795 0.950 . S
H1767 C1796 0.950 . S
H1768 C1798 0.950 . S
H1769 C1799 0.950 . S
C1770 H1752 0.951 . S
C1770 C1771 1.366 . S
C1770 C1772 1.388 . S
C1771 C1770 1.366 . S
C1771 C1775 1.385 . S
C1772 H1753 0.951 . S
C1772 C1770 1.388 . S
C1772 C1773 1.366 . S
C1773 C1772 1.366 . S
C1773 C1774 1.414 . S
C1773 C1776 1.499 . S
C1774 H1754 0.950 . S
C1774 C1773 1.414 . S
C1774 C1775 1.374 . S
C1775 H1755 0.950 . S
C1775 C1771 1.385 . S
C1775 C1774 1.374 . S
C1776 C1773 1.499 . S
C1776 C1777 1.373 . S
C1776 C1778 1.389 . S
C1777 H1756 0.950 . S
C1777 C1776 1.373 . S
C1777 C1793 1.377 . S
C1778 C1776 1.389 . S
C1778 C1779 1.524 1_565 S
C1778 C1792 1.377 1_565 S
C1779 C1778 1.524 1_545 S
C1779 C1780 1.397 1_545 S
C1779 C1784 1.363 . S
C1780 H1757 0.950 . S
C1780 C1779 1.397 1_565 S
C1780 C1781 1.334 1_565 S
C1781 H1758 0.968 . S
C1781 C1780 1.334 1_545 S
C1781 C1782 1.287 . S
C1782 C1781 1.287 . S
C1782 C1783 1.524 . S
C1782 H1801 0.913 . S
C1783 H1759 0.950 . S
C1783 C1782 1.524 . S
C1783 C1784 1.415 . S
C1784 H1760 0.950 . S
C1784 C1779 1.363 . S
C1784 C1783 1.415 . S
C1785 H1761 0.951 . S
C1785 C1786 1.366 . S
C1785 C1787 1.388 . S
C1786 C1785 1.366 . S
C1786 C1790 1.385 . S
C1787 H1762 0.929 1_545 S
C1787 C1785 1.388 . S
C1787 C1788 1.366 . S
C1788 C1787 1.366 . S
C1788 C1789 1.414 . S
C1788 C1791 1.499 1_545 S
C1789 H1763 0.950 . S
C1789 C1788 1.414 . S
C1789 C1790 1.374 . S
C1790 H1764 0.950 . S
C1790 C1786 1.385 . S
C1790 C1789 1.374 . S
C1791 C1788 1.499 1_565 S
C1791 C1792 1.373 1_565 S
C1791 C1793 1.389 . S
C1792 H1765 0.950 . S
C1792 C1778 1.377 1_545 S
C1792 C1791 1.373 1_545 S
C1793 C1777 1.377 . S
C1793 C1791 1.389 . S
C1793 C1794 1.524 . S
C1794 C1793 1.524 . S
C1794 C1795 1.397 . S
C1794 C1799 1.363 . S
C1795 H1766 0.950 . S
C1795 C1794 1.397 . S
C1795 C1796 1.334 . S
C1796 H1767 0.950 . S
C1796 C1795 1.334 . S
C1796 C1797 1.287 . S
C1797 C1796 1.287 . S
C1797 C1798 1.524 . S
C1797 H1800 0.999 . S
C1798 H1768 0.950 . S
C1798 C1797 1.524 . S
C1798 C1799 1.415 . S
C1799 H1769 0.950 . S
C1799 C1794 1.363 . S
C1799 C1798 1.415 . S
H1800 C1797 0.999 . S
H1801 C1782 0.913 . S
H1802 C1820 0.951 . S
H1803 C1822 0.951 . S
H1804 C1824 0.950 . S
H1805 C1825 0.950 . S
H1806 C1827 0.950 . S
H1807 C1830 0.950 . S
H1808 C1831 0.950 . S
H1809 C1833 0.950 . S
H1810 C1834 0.950 . S
H1811 C1835 0.951 . S
H1812 C1837 0.951 1_556 S
H1813 C1839 0.950 . S
H1814 C1840 0.950 . S
H1815 C1842 0.950 . S
H1816 C1845 0.950 1_554 S
H1817 C1846 0.950 . S
H1818 C1848 0.950 . S
H1819 C1849 0.950 . S
C1820 H1802 0.951 . S
C1820 C1821 1.366 1_554 S
C1820 C1822 1.388 . S
C1821 C1820 1.366 1_556 S
C1821 C1825 1.385 . S
C1822 H1803 0.951 . S
C1822 C1820 1.388 . S
C1822 C1823 1.366 . S
C1823 C1822 1.366 . S
C1823 C1824 1.414 1_554 S
C1823 C1826 1.499 . S
C1824 H1804 0.950 . S
C1824 C1823 1.414 1_556 S
C1824 C1825 1.374 . S
C1825 H1805 0.950 . S
C1825 C1821 1.385 . S
C1825 C1824 1.374 . S
C1826 C1823 1.499 . S
C1826 C1827 1.373 1_554 S
C1826 C1828 1.389 . S
C1827 H1806 0.950 . S
C1827 C1826 1.373 1_556 S
C1827 C1843 1.393 . S
C1828 C1826 1.389 . S
C1828 C1829 1.524 . S
C1828 C1842 1.377 . S
C1829 C1828 1.524 . S
C1829 C1830 1.397 . S
C1829 C1834 1.363 . S
C1830 H1807 0.950 . S
C1830 C1829 1.397 . S
C1830 C1831 1.334 . S
C1831 H1808 0.950 . S
C1831 C1830 1.334 . S
C1831 C1832 1.287 . S
C1832 C1831 1.287 . S
C1832 C1833 1.524 . S
C1832 H1851 0.913 . S
C1833 H1809 0.950 . S
C1833 C1832 1.524 . S
C1833 C1834 1.415 . S
C1834 H1810 0.950 . S
C1834 C1829 1.363 . S
C1834 C1833 1.415 . S
C1835 H1811 0.951 . S
C1835 C1836 1.366 . S
C1835 C1837 1.388 . S
C1836 C1835 1.366 . S
C1836 C1840 1.385 . S
C1837 H1812 0.951 1_554 S
C1837 C1835 1.388 . S
C1837 C1838 1.366 . S
C1838 C1837 1.366 . S
C1838 C1839 1.414 . S
C1838 C1841 1.499 . S
C1839 H1813 0.950 . S
C1839 C1838 1.414 . S
C1839 C1840 1.374 . S
C1840 H1814 0.950 . S
C1840 C1836 1.385 . S
C1840 C1839 1.374 . S
C1841 C1838 1.499 . S
C1841 C1842 1.373 . S
C1841 C1843 1.352 1_554 S
C1842 H1815 0.950 . S
C1842 C1828 1.377 . S
C1842 C1841 1.373 . S
C1843 C1827 1.393 . S
C1843 C1841 1.352 1_556 S
C1843 C1844 1.548 . S
C1844 C1843 1.548 . S
C1844 C1845 1.397 . S
C1844 C1849 1.363 . S
C1845 H1816 0.950 1_556 S
C1845 C1844 1.397 . S
C1845 C1846 1.334 . S
C1846 H1817 0.950 . S
C1846 C1845 1.334 . S
C1846 C1847 1.287 . S
C1847 C1846 1.287 . S
C1847 C1848 1.524 . S
C1847 H1850 0.999 . S
C1848 H1818 0.950 . S
C1848 C1847 1.524 . S
C1848 C1849 1.415 . S
C1849 H1819 0.950 . S
C1849 C1844 1.363 . S
C1849 C1848 1.415 . S
H1850 C1847 0.999 . S
H1851 C1832 0.913 . S
H1852 C1870 0.951 . S
H1853 C1872 0.951 . S
H1854 C1874 0.950 . S
H1855 C1875 0.950 . S
H1856 C1877 0.950 . S
H1857 C1880 0.950 . S
H1858 C1881 0.950 . S
H1859 C1883 0.950 . S
H1860 C1884 0.950 . S
H1861 C1885 0.951 . S
H1862 C1887 0.951 . S
H1863 C1889 0.950 . S
H1864 C1890 0.950 . S
H1865 C1892 0.950 . S
H1866 C1895 0.950 . S
H1867 C1896 0.950 . S
H1868 C1898 0.950 . S
H1869 C1899 0.950 . S
C1870 H1852 0.951 . S
C1870 C1871 1.366 . S
C1870 C1872 1.388 . S
C1871 C1870 1.366 . S
C1871 C1875 1.385 . S
C1872 H1853 0.951 . S
C1872 C1870 1.388 . S
C1872 C1873 1.366 . S
C1873 C1872 1.366 . S
C1873 C1874 1.414 . S
C1873 C1876 1.499 . S
C1874 H1854 0.950 . S
C1874 C1873 1.414 . S
C1874 C1875 1.374 . S
C1875 H1855 0.950 . S
C1875 C1871 1.385 . S
C1875 C1874 1.374 . S
C1876 C1873 1.499 . S
C1876 C1877 1.373 . S
C1876 C1878 1.389 . S
C1877 H1856 0.950 . S
C1877 C1876 1.373 . S
C1877 C1893 1.377 . S
C1878 C1876 1.389 . S
C1878 C1879 1.524 . S
C1878 C1892 1.377 . S
C1879 C1878 1.524 . S
C1879 C1880 1.397 . S
C1879 C1884 1.363 . S
C1880 H1857 0.950 . S
C1880 C1879 1.397 . S
C1880 C1881 1.334 . S
C1881 H1858 0.950 . S
C1881 C1880 1.334 . S
C1881 C1882 1.287 . S
C1882 C1881 1.287 . S
C1882 C1883 1.524 . S
C1882 H1901 0.913 . S
C1883 H1859 0.950 . S
C1883 C1882 1.524 . S
C1883 C1884 1.415 . S
C1884 H1860 0.950 . S
C1884 C1879 1.363 . S
C1884 C1883 1.415 . S
C1885 H1861 0.951 . S
C1885 C1886 1.366 . S
C1885 C1887 1.388 . S
C1886 C1885 1.366 . S
C1886 C1890 1.385 . S
C1887 H1862 0.951 . S
C1887 C1885 1.388 . S
C1887 C1888 1.366 . S
C1888 C1887 1.366 . S
C1888 C1889 1.414 . S
C1888 C1891 1.499 . S
C1889 H1863 0.950 . S
C1889 C1888 1.414 . S
C1889 C1890 1.374 . S
C1890 H1864 0.950 . S
C1890 C1886 1.385 . S
C1890 C1889 1.374 . S
C1891 C1888 1.499 . S
C1891 C1892 1.373 . S
C1891 C1893 1.389 . S
C1892 H1865 0.950 . S
C1892 C1878 1.377 . S
C1892 C1891 1.373 . S
C1893 C1877 1.377 . S
C1893 C1891 1.389 . S
C1893 C1894 1.524 . S
C1894 C1893 1.524 . S
C1894 C1895 1.397 . S
C1894 C1899 1.363 . S
C1895 H1866 0.950 . S
C1895 C1894 1.397 . S
C1895 C1896 1.334 . S
C1896 H1867 0.950 . S
C1896 C1895 1.334 . S
C1896 C1897 1.287 . S
C1897 C1896 1.287 . S
C1897 C1898 1.524 . S
C1897 H1900 0.999 . S
C1898 H1868 0.950 . S
C1898 C1897 1.524 . S
C1898 C1899 1.415 . S
C1899 H1869 0.950 . S
C1899 C1894 1.363 . S
C1899 C1898 1.415 . S
H1900 C1897 0.999 . S
H1901 C1882 0.913 . S
H1902 C1920 0.951 . S
H1903 C1922 0.951 . S
H1904 C1924 0.950 . S
H1905 C1925 0.950 . S
H1906 C1927 0.950 . S
H1907 C1930 0.950 . S
H1908 C1931 0.950 . S
H1909 C1933 0.950 . S
H1910 C1934 0.950 . S
H1911 C1935 0.951 . S
H1912 C1937 0.951 . S
H1913 C1939 0.950 . S
H1914 C1940 0.950 . S
H1915 C1942 0.950 . S
H1916 C1945 0.950 . S
H1917 C1946 0.950 . S
H1918 C1948 0.950 . S
H1919 C1949 0.950 . S
C1920 H1902 0.951 . S
C1920 C1921 1.366 . S
C1920 C1922 1.388 . S
C1921 C1920 1.366 . S
C1921 C1925 1.385 . S
C1922 H1903 0.951 . S
C1922 C1920 1.388 . S
C1922 C1923 1.366 . S
C1923 C1922 1.366 . S
C1923 C1924 1.414 . S
C1923 C1926 1.499 . S
C1924 H1904 0.950 . S
C1924 C1923 1.414 . S
C1924 C1925 1.374 . S
C1925 H1905 0.950 . S
C1925 C1921 1.385 . S
C1925 C1924 1.374 . S
C1926 C1923 1.499 . S
C1926 C1927 1.373 . S
C1926 C1928 1.389 . S
C1927 H1906 0.950 . S
C1927 C1926 1.373 . S
C1927 C1943 1.377 . S
C1928 C1926 1.389 . S
C1928 C1929 1.524 . S
C1928 C1942 1.377 . S
C1929 C1928 1.524 . S
C1929 C1930 1.397 . S
C1929 C1934 1.363 . S
C1930 H1907 0.950 . S
C1930 C1929 1.397 . S
C1930 C1931 1.334 . S
C1931 H1908 0.950 . S
C1931 C1930 1.334 . S
C1931 C1932 1.287 . S
C1932 C1931 1.287 . S
C1932 C1933 1.524 . S
C1932 H1951 0.913 . S
C1933 H1909 0.950 . S
C1933 C1932 1.524 . S
C1933 C1934 1.415 . S
C1934 H1910 0.950 . S
C1934 C1929 1.363 . S
C1934 C1933 1.415 . S
C1935 H1911 0.951 . S
C1935 C1936 1.366 . S
C1935 C1937 1.388 . S
C1936 C1935 1.366 . S
C1936 C1940 1.385 . S
C1937 H1912 0.951 . S
C1937 C1935 1.388 . S
C1937 C1938 1.366 . S
C1938 C1937 1.366 . S
C1938 C1939 1.414 . S
C1938 C1941 1.499 . S
C1939 H1913 0.950 . S
C1939 C1938 1.414 . S
C1939 C1940 1.374 . S
C1940 H1914 0.950 . S
C1940 C1936 1.385 . S
C1940 C1939 1.374 . S
C1941 C1938 1.499 . S
C1941 C1942 1.373 . S
C1941 C1943 1.389 . S
C1942 H1915 0.950 . S
C1942 C1928 1.377 . S
C1942 C1941 1.373 . S
C1943 C1927 1.377 . S
C1943 C1941 1.389 . S
C1943 C1944 1.524 . S
C1944 C1943 1.524 . S
C1944 C1945 1.397 . S
C1944 C1949 1.363 . S
C1945 H1916 0.950 . S
C1945 C1944 1.397 . S
C1945 C1946 1.334 . S
C1946 H1917 0.950 . S
C1946 C1945 1.334 . S
C1946 C1947 1.287 . S
C1947 C1946 1.287 . S
C1947 C1948 1.524 . S
C1947 H1950 0.999 . S
C1948 H1918 0.950 . S
C1948 C1947 1.524 . S
C1948 C1949 1.415 . S
C1949 H1919 0.950 . S
C1949 C1944 1.363 . S
C1949 C1948 1.415 . S
H1950 C1947 0.999 . S
H1951 C1932 0.913 . S
H1952 C1970 0.951 . S
H1953 C1972 0.951 . S
H1954 C1974 0.950 . S
H1955 C1975 0.950 . S
H1956 C1977 0.950 . S
H1957 C1980 0.950 . S
H1958 C1981 0.950 . S
H1959 C1983 0.950 . S
H1960 C1984 0.950 . S
H1961 C1985 0.951 . S
H1962 C1987 0.951 . S
H1963 C1989 0.950 . S
H1964 C1990 0.950 . S
H1965 C1992 0.950 . S
H1966 C1995 0.950 . S
H1967 C1996 0.950 . S
H1968 C1998 0.950 . S
H1969 C1999 0.950 . S
C1970 H1952 0.951 . S
C1970 C1971 1.366 . S
C1970 C1972 1.388 . S
C1971 C1970 1.366 . S
C1971 C1975 1.385 . S
C1972 H1953 0.951 . S
C1972 C1970 1.388 . S
C1972 C1973 1.366 . S
C1973 C1972 1.366 . S
C1973 C1974 1.414 . S
C1973 C1976 1.499 . S
C1974 H1954 0.950 . S
C1974 C1973 1.414 . S
C1974 C1975 1.374 . S
C1975 H1955 0.950 . S
C1975 C1971 1.385 . S
C1975 C1974 1.374 . S
C1976 C1973 1.499 . S
C1976 C1977 1.373 . S
C1976 C1978 1.389 . S
C1977 H1956 0.950 . S
C1977 C1976 1.373 . S
C1977 C1993 1.377 . S
C1978 C1976 1.389 . S
C1978 C1979 1.524 . S
C1978 C1992 1.377 . S
C1979 C1978 1.524 . S
C1979 C1980 1.397 . S
C1979 C1984 1.363 . S
C1980 H1957 0.950 . S
C1980 C1979 1.397 . S
C1980 C1981 1.334 . S
C1981 H1958 0.950 . S
C1981 C1980 1.334 . S
C1981 C1982 1.287 . S
C1982 C1981 1.287 . S
C1982 C1983 1.524 . S
C1982 H2001 0.913 . S
C1983 H1959 0.950 . S
C1983 C1982 1.524 . S
C1983 C1984 1.415 . S
C1984 H1960 0.950 . S
C1984 C1979 1.363 . S
C1984 C1983 1.415 . S
C1985 H1961 0.951 . S
C1985 C1986 1.366 . S
C1985 C1987 1.388 . S
C1986 C1985 1.366 . S
C1986 C1990 1.385 . S
C1987 H1962 0.951 . S
C1987 C1985 1.388 . S
C1987 C1988 1.366 . S
C1988 C1987 1.366 . S
C1988 C1989 1.414 . S
C1988 C1991 1.499 . S
C1989 H1963 0.950 . S
C1989 C1988 1.414 . S
C1989 C1990 1.374 . S
C1990 H1964 0.950 . S
C1990 C1986 1.385 . S
C1990 C1989 1.374 . S
C1991 C1988 1.499 . S
C1991 C1992 1.373 . S
C1991 C1993 1.389 . S
C1992 H1965 0.950 . S
C1992 C1978 1.377 . S
C1992 C1991 1.373 . S
C1993 C1977 1.377 . S
C1993 C1991 1.389 . S
C1993 C1994 1.524 . S
C1994 C1993 1.524 . S
C1994 C1995 1.397 . S
C1994 C1999 1.363 . S
C1995 H1966 0.950 . S
C1995 C1994 1.397 . S
C1995 C1996 1.334 . S
C1996 H1967 0.950 . S
C1996 C1995 1.334 . S
C1996 C1997 1.287 . S
C1997 C1996 1.287 . S
C1997 C1998 1.524 . S
C1997 H2000 0.999 . S
C1998 H1968 0.950 . S
C1998 C1997 1.524 . S
C1998 C1999 1.415 . S
C1999 H1969 0.950 . S
C1999 C1994 1.363 . S
C1999 C1998 1.415 . S
H2000 C1997 0.999 . S
H2001 C1982 0.913 . S
H2002 C2020 0.951 . S
H2003 C2022 0.951 . S
H2004 C2024 0.950 . S
H2005 C2025 0.950 . S
H2006 C2027 0.950 . S
H2007 C2030 0.950 . S
H2008 C2031 0.950 . S
H2009 C2033 0.950 . S
H2010 C2034 0.950 . S
H2011 C2035 0.951 . S
H2012 C2037 0.951 . S
H2013 C2039 0.950 . S
H2014 C2040 0.950 . S
H2015 C2042 0.950 . S
H2016 C2045 0.950 . S
H2017 C2046 0.950 . S
H2018 C2048 0.950 . S
H2019 C2049 0.950 . S
C2020 H2002 0.951 . S
C2020 C2021 1.366 . S
C2020 C2022 1.388 . S
C2021 C2020 1.366 . S
C2021 C2025 1.385 . S
C2022 H2003 0.951 . S
C2022 C2020 1.388 . S
C2022 C2023 1.366 . S
C2023 C2022 1.366 . S
C2023 C2024 1.414 . S
C2023 C2026 1.499 . S
C2024 H2004 0.950 . S
C2024 C2023 1.414 . S
C2024 C2025 1.374 . S
C2025 H2005 0.950 . S
C2025 C2021 1.385 . S
C2025 C2024 1.374 . S
C2026 C2023 1.499 . S
C2026 C2027 1.373 . S
C2026 C2028 1.389 . S
C2027 H2006 0.950 . S
C2027 C2026 1.373 . S
C2027 C2043 1.377 . S
C2028 C2026 1.389 . S
C2028 C2029 1.524 . S
C2028 C2042 1.377 . S
C2029 C2028 1.524 . S
C2029 C2030 1.397 . S
C2029 C2034 1.363 . S
C2030 H2007 0.950 . S
C2030 C2029 1.397 . S
C2030 C2031 1.334 . S
C2031 H2008 0.950 . S
C2031 C2030 1.334 . S
C2031 C2032 1.287 . S
C2032 C2031 1.287 . S
C2032 C2033 1.524 . S
C2032 H2051 0.913 . S
C2033 H2009 0.950 . S
C2033 C2032 1.524 . S
C2033 C2034 1.415 . S
C2034 H2010 0.950 . S
C2034 C2029 1.363 . S
C2034 C2033 1.415 . S
C2035 H2011 0.951 . S
C2035 C2036 1.366 . S
C2035 C2037 1.388 . S
C2036 C2035 1.366 . S
C2036 C2040 1.385 . S
C2037 H2012 0.951 . S
C2037 C2035 1.388 . S
C2037 C2038 1.366 . S
C2038 C2037 1.366 . S
C2038 C2039 1.414 . S
C2038 C2041 1.499 . S
C2039 H2013 0.950 . S
C2039 C2038 1.414 . S
C2039 C2040 1.374 . S
C2040 H2014 0.950 . S
C2040 C2036 1.385 . S
C2040 C2039 1.374 . S
C2041 C2038 1.499 . S
C2041 C2042 1.373 . S
C2041 C2043 1.389 . S
C2042 H2015 0.950 . S
C2042 C2028 1.377 . S
C2042 C2041 1.373 . S
C2043 C2027 1.377 . S
C2043 C2041 1.389 . S
C2043 C2044 1.524 . S
C2044 C2043 1.524 . S
C2044 C2045 1.397 . S
C2044 C2049 1.363 . S
C2045 H2016 0.950 . S
C2045 C2044 1.397 . S
C2045 C2046 1.334 . S
C2046 H2017 0.950 . S
C2046 C2045 1.334 . S
C2046 C2047 1.287 . S
C2047 C2046 1.287 . S
C2047 C2048 1.524 . S
C2047 H2050 0.999 . S
C2048 H2018 0.950 . S
C2048 C2047 1.524 . S
C2048 C2049 1.415 . S
C2049 H2019 0.950 . S
C2049 C2044 1.363 . S
C2049 C2048 1.415 . S
H2050 C2047 0.999 . S
H2051 C2032 0.913 . S
H2052 C2070 0.951 . S
H2053 C2072 0.951 . S
H2054 C2074 0.950 . S
H2055 C2075 0.950 . S
H2056 C2077 0.950 . S
H2057 C2080 0.950 . S
H2058 C2081 0.950 . S
H2059 C2083 0.950 . S
H2060 C2084 0.950 . S
H2061 C2085 0.951 . S
H2062 C2087 0.951 . S
H2063 C2089 0.950 . S
H2064 C2090 0.950 . S
H2065 C2092 0.950 . S
H2066 C2095 0.950 . S
H2067 C2096 0.950 . S
H2068 C2098 0.950 . S
H2069 C2099 0.950 . S
C2070 H2052 0.951 . S
C2070 C2071 1.366 . S
C2070 C2072 1.388 . S
C2071 C2070 1.366 . S
C2071 C2075 1.385 . S
C2072 H2053 0.951 . S
C2072 C2070 1.388 . S
C2072 C2073 1.366 . S
C2073 C2072 1.366 . S
C2073 C2074 1.414 . S
C2073 C2076 1.499 . S
C2074 H2054 0.950 . S
C2074 C2073 1.414 . S
C2074 C2075 1.374 . S
C2075 H2055 0.950 . S
C2075 C2071 1.385 . S
C2075 C2074 1.374 . S
C2076 C2073 1.499 . S
C2076 C2077 1.373 . S
C2076 C2078 1.389 . S
C2077 H2056 0.950 . S
C2077 C2076 1.373 . S
C2077 C2093 1.377 . S
C2078 C2076 1.389 . S
C2078 C2079 1.524 . S
C2078 C2092 1.377 . S
C2079 C2078 1.524 . S
C2079 C2080 1.397 . S
C2079 C2084 1.363 . S
C2080 H2057 0.950 . S
C2080 C2079 1.397 . S
C2080 C2081 1.334 . S
C2081 H2058 0.950 . S
C2081 C2080 1.334 . S
C2081 C2082 1.287 . S
C2082 C2081 1.287 . S
C2082 C2083 1.524 . S
C2082 H2101 0.913 . S
C2083 H2059 0.950 . S
C2083 C2082 1.524 . S
C2083 C2084 1.415 . S
C2084 H2060 0.950 . S
C2084 C2079 1.363 . S
C2084 C2083 1.415 . S
C2085 H2061 0.951 . S
C2085 C2086 1.366 . S
C2085 C2087 1.388 . S
C2086 C2085 1.366 . S
C2086 C2090 1.385 . S
C2087 H2062 0.951 . S
C2087 C2085 1.388 . S
C2087 C2088 1.366 . S
C2088 C2087 1.366 . S
C2088 C2089 1.414 . S
C2088 C2091 1.499 . S
C2089 H2063 0.950 . S
C2089 C2088 1.414 . S
C2089 C2090 1.374 . S
C2090 H2064 0.950 . S
C2090 C2086 1.385 . S
C2090 C2089 1.374 . S
C2091 C2088 1.499 . S
C2091 C2092 1.373 . S
C2091 C2093 1.389 . S
C2092 H2065 0.950 . S
C2092 C2078 1.377 . S
C2092 C2091 1.373 . S
C2093 C2077 1.377 . S
C2093 C2091 1.389 . S
C2093 C2094 1.524 . S
C2094 C2093 1.524 . S
C2094 C2095 1.397 . S
C2094 C2099 1.363 . S
C2095 H2066 0.950 . S
C2095 C2094 1.397 . S
C2095 C2096 1.334 . S
C2096 H2067 0.950 . S
C2096 C2095 1.334 . S
C2096 C2097 1.287 . S
C2097 C2096 1.287 . S
C2097 C2098 1.524 . S
C2097 H2100 0.999 . S
C2098 H2068 0.950 . S
C2098 C2097 1.524 . S
C2098 C2099 1.415 . S
C2099 H2069 0.950 . S
C2099 C2094 1.363 . S
C2099 C2098 1.415 . S
H2100 C2097 0.999 . S
H2101 C2082 0.913 . S
H2102 C2120 0.951 . S
H2103 C2122 0.951 . S
H2104 C2124 0.950 . S
H2105 C2125 0.950 . S
H2106 C2127 0.950 . S
H2107 C2130 0.950 . S
H2108 C2131 0.950 . S
H2109 C2133 0.950 . S
H2110 C2134 0.950 . S
H2111 C2135 0.951 . S
H2112 C2137 0.951 . S
H2113 C2139 0.950 . S
H2114 C2140 0.950 . S
H2115 C2142 0.950 . S
H2116 C2145 0.950 . S
H2117 C2146 0.950 . S
H2118 C2148 0.950 . S
H2119 C2149 0.950 . S
C2120 H2102 0.951 . S
C2120 C2121 1.366 . S
C2120 C2122 1.388 . S
C2121 C2120 1.366 . S
C2121 C2125 1.385 . S
C2122 H2103 0.951 . S
C2122 C2120 1.388 . S
C2122 C2123 1.366 . S
C2123 C2122 1.366 . S
C2123 C2124 1.414 . S
C2123 C2126 1.499 . S
C2124 H2104 0.950 . S
C2124 C2123 1.414 . S
C2124 C2125 1.374 . S
C2125 H2105 0.950 . S
C2125 C2121 1.385 . S
C2125 C2124 1.374 . S
C2126 C2123 1.499 . S
C2126 C2127 1.373 . S
C2126 C2128 1.389 . S
C2127 H2106 0.950 . S
C2127 C2126 1.373 . S
C2127 C2143 1.377 . S
C2128 C2126 1.389 . S
C2128 C2129 1.524 . S
C2128 C2142 1.377 . S
C2129 C2128 1.524 . S
C2129 C2130 1.397 . S
C2129 C2134 1.363 . S
C2130 H2107 0.950 . S
C2130 C2129 1.397 . S
C2130 C2131 1.334 . S
C2131 H2108 0.950 . S
C2131 C2130 1.334 . S
C2131 C2132 1.287 . S
C2132 C2131 1.287 . S
C2132 C2133 1.524 . S
C2132 H2151 0.913 . S
C2133 H2109 0.950 . S
C2133 C2132 1.524 . S
C2133 C2134 1.415 . S
C2134 H2110 0.950 . S
C2134 C2129 1.363 . S
C2134 C2133 1.415 . S
C2135 H2111 0.951 . S
C2135 C2136 1.366 . S
C2135 C2137 1.388 . S
C2136 C2135 1.366 . S
C2136 C2140 1.385 . S
C2137 H2112 0.951 . S
C2137 C2135 1.388 . S
C2137 C2138 1.366 . S
C2138 C2137 1.366 . S
C2138 C2139 1.414 . S
C2138 C2141 1.499 . S
C2139 H2113 0.950 . S
C2139 C2138 1.414 . S
C2139 C2140 1.374 . S
C2140 H2114 0.950 . S
C2140 C2136 1.385 . S
C2140 C2139 1.374 . S
C2141 C2138 1.499 . S
C2141 C2142 1.373 . S
C2141 C2143 1.389 . S
C2142 H2115 0.950 . S
C2142 C2128 1.377 . S
C2142 C2141 1.373 . S
C2143 C2127 1.377 . S
C2143 C2141 1.389 . S
C2143 C2144 1.524 . S
C2144 C2143 1.524 . S
C2144 C2145 1.397 . S
C2144 C2149 1.363 . S
C2145 H2116 0.950 . S
C2145 C2144 1.397 . S
C2145 C2146 1.334 . S
C2146 H2117 0.950 . S
C2146 C2145 1.334 . S
C2146 C2147 1.287 . S
C2147 C2146 1.287 . S
C2147 C2148 1.524 . S
C2147 H2150 0.999 . S
C2148 H2118 0.950 . S
C2148 C2147 1.524 . S
C2148 C2149 1.415 . S
C2149 H2119 0.950 . S
C2149 C2144 1.363 . S
C2149 C2148 1.415 . S
H2150 C2147 0.999 . S
H2151 C2132 0.913 . S
H2152 C2170 0.951 . S
H2153 C2172 0.951 . S
H2154 C2174 0.950 . S
H2155 C2175 0.950 . S
H2156 C2177 0.950 . S
H2157 C2180 0.950 . S
H2158 C2181 0.950 . S
H2159 C2183 0.950 . S
H2160 C2184 0.950 . S
H2161 C2185 0.951 . S
H2162 C2187 0.951 . S
H2163 C2189 0.950 . S
H2164 C2190 0.950 . S
H2165 C2192 0.950 . S
H2166 C2195 0.950 . S
H2167 C2196 0.950 . S
H2168 C2198 0.950 . S
H2169 C2199 0.950 . S
C2170 H2152 0.951 . S
C2170 C2171 1.366 . S
C2170 C2172 1.388 . S
C2171 C2170 1.366 . S
C2171 C2175 1.385 . S
C2172 H2153 0.951 . S
C2172 C2170 1.388 . S
C2172 C2173 1.366 . S
C2173 C2172 1.366 . S
C2173 C2174 1.414 . S
C2173 C2176 1.499 . S
C2174 H2154 0.950 . S
C2174 C2173 1.414 . S
C2174 C2175 1.374 . S
C2175 H2155 0.950 . S
C2175 C2171 1.385 . S
C2175 C2174 1.374 . S
C2176 C2173 1.499 . S
C2176 C2177 1.373 . S
C2176 C2178 1.389 . S
C2177 H2156 0.950 . S
C2177 C2176 1.373 . S
C2177 C2193 1.377 . S
C2178 C2176 1.389 . S
C2178 C2179 1.524 1_455 S
C2178 C2192 1.377 . S
C2179 C2178 1.524 1_655 S
C2179 C2180 1.397 . S
C2179 C2184 1.363 . S
C2180 H2157 0.950 . S
C2180 C2179 1.397 . S
C2180 C2181 1.334 . S
C2181 H2158 0.950 . S
C2181 C2180 1.334 . S
C2181 C2182 1.287 . S
C2182 C2181 1.287 . S
C2182 C2183 1.524 . S
C2182 H2201 0.913 . S
C2183 H2159 0.950 . S
C2183 C2182 1.524 . S
C2183 C2184 1.415 . S
C2184 H2160 0.950 . S
C2184 C2179 1.363 . S
C2184 C2183 1.415 . S
C2185 H2161 0.951 . S
C2185 C2186 1.366 . S
C2185 C2187 1.388 . S
C2186 C2185 1.366 . S
C2186 C2190 1.385 . S
C2187 H2162 0.951 . S
C2187 C2185 1.388 . S
C2187 C2188 1.366 . S
C2188 C2187 1.366 . S
C2188 C2189 1.414 . S
C2188 C2191 1.499 . S
C2189 H2163 0.950 . S
C2189 C2188 1.414 . S
C2189 C2190 1.374 . S
C2190 H2164 0.950 . S
C2190 C2186 1.385 . S
C2190 C2189 1.374 . S
C2191 C2188 1.499 . S
C2191 C2192 1.373 . S
C2191 C2193 1.389 . S
C2192 H2165 0.950 . S
C2192 C2178 1.377 . S
C2192 C2191 1.373 . S
C2193 C2177 1.377 . S
C2193 C2191 1.389 . S
C2193 C2194 1.524 . S
C2194 C2193 1.524 . S
C2194 C2195 1.397 . S
C2194 C2199 1.363 . S
C2195 H2166 0.950 . S
C2195 C2194 1.397 . S
C2195 C2196 1.334 . S
C2196 H2167 0.950 . S
C2196 C2195 1.334 . S
C2196 C2197 1.287 . S
C2197 C2196 1.287 . S
C2197 C2198 1.524 . S
C2197 H2200 0.999 . S
C2198 H2168 0.950 . S
C2198 C2197 1.524 . S
C2198 C2199 1.415 . S
C2199 H2169 0.950 . S
C2199 C2194 1.363 . S
C2199 C2198 1.415 . S
H2200 C2197 0.999 . S
H2201 C2182 0.913 . S
H2202 C2220 0.951 . S
H2203 C2222 0.951 . S
H2204 C2224 0.950 . S
H2205 C2225 0.950 . S
H2206 C2227 0.950 . S
H2207 C2230 0.950 . S
H2208 C2231 0.950 . S
H2209 C2233 0.950 . S
H2210 C2234 0.950 . S
H2211 C2235 0.951 . S
H2212 C2237 0.951 . S
H2213 C2239 0.950 . S
H2214 C2240 0.950 . S
H2215 C2242 0.950 . S
H2216 C2245 0.950 . S
H2217 C2246 0.950 . S
H2218 C2248 0.950 . S
H2219 C2249 0.950 . S
C2220 H2202 0.951 . S
C2220 C2221 1.366 . S
C2220 C2222 1.388 . S
C2221 C2220 1.366 . S
C2221 C2225 1.385 . S
C2222 H2203 0.951 . S
C2222 C2220 1.388 . S
C2222 C2223 1.366 . S
C2223 C2222 1.366 . S
C2223 C2224 1.414 . S
C2223 C2226 1.499 . S
C2224 H2204 0.950 . S
C2224 C2223 1.414 . S
C2224 C2225 1.374 . S
C2225 H2205 0.950 . S
C2225 C2221 1.385 . S
C2225 C2224 1.374 . S
C2226 C2223 1.499 . S
C2226 C2227 1.373 . S
C2226 C2228 1.389 . S
C2227 H2206 0.950 . S
C2227 C2226 1.373 . S
C2227 C2243 1.377 . S
C2228 C2226 1.389 . S
C2228 C2229 1.524 . S
C2228 C2242 1.377 . S
C2229 C2228 1.524 . S
C2229 C2230 1.397 . S
C2229 C2234 1.363 . S
C2230 H2207 0.950 . S
C2230 C2229 1.397 . S
C2230 C2231 1.334 . S
C2231 H2208 0.950 . S
C2231 C2230 1.334 . S
C2231 C2232 1.287 . S
C2232 C2231 1.287 . S
C2232 C2233 1.524 . S
C2232 H2251 0.913 . S
C2233 H2209 0.950 . S
C2233 C2232 1.524 . S
C2233 C2234 1.415 . S
C2234 H2210 0.950 . S
C2234 C2229 1.363 . S
C2234 C2233 1.415 . S
C2235 H2211 0.951 . S
C2235 C2236 1.366 . S
C2235 C2237 1.388 . S
C2236 C2235 1.366 . S
C2236 C2240 1.385 . S
C2237 H2212 0.951 . S
C2237 C2235 1.388 . S
C2237 C2238 1.366 . S
C2238 C2237 1.366 . S
C2238 C2239 1.414 . S
C2238 C2241 1.499 . S
C2239 H2213 0.950 . S
C2239 C2238 1.414 . S
C2239 C2240 1.374 . S
C2240 H2214 0.950 . S
C2240 C2236 1.385 . S
C2240 C2239 1.374 . S
C2241 C2238 1.499 . S
C2241 C2242 1.373 . S
C2241 C2243 1.389 . S
C2242 H2215 0.950 . S
C2242 C2228 1.377 . S
C2242 C2241 1.373 . S
C2243 C2227 1.377 . S
C2243 C2241 1.389 . S
C2243 C2244 1.524 . S
C2244 C2243 1.524 . S
C2244 C2245 1.397 . S
C2244 C2249 1.363 . S
C2245 H2216 0.950 . S
C2245 C2244 1.397 . S
C2245 C2246 1.334 . S
C2246 H2217 0.950 . S
C2246 C2245 1.334 . S
C2246 C2247 1.287 . S
C2247 C2246 1.287 . S
C2247 C2248 1.524 . S
C2247 H2250 0.999 . S
C2248 H2218 0.950 . S
C2248 C2247 1.524 . S
C2248 C2249 1.415 . S
C2249 H2219 0.950 . S
C2249 C2244 1.363 . S
C2249 C2248 1.415 . S
H2250 C2247 0.999 . S
H2251 C2232 0.913 . S
H2252 C2270 0.951 . S
H2253 C2272 0.951 . S
H2254 C2274 0.950 . S
H2255 C2275 0.950 . S
H2256 C2277 0.950 . S
H2257 C2280 0.950 . S
H2258 C2281 0.950 . S
H2259 C2283 0.950 . S
H2260 C2284 0.950 . S
H2261 C2285 0.951 . S
H2262 C2287 0.951 . S
H2263 C2289 0.950 . S
H2264 C2290 0.950 . S
H2265 C2292 0.950 . S
H2266 C2295 0.950 . S
H2267 C2296 0.950 . S
H2268 C2298 0.950 . S
H2269 C2299 0.950 . S
C2270 H2252 0.951 . S
C2270 C2271 1.366 . S
C2270 C2272 1.388 . S
C2271 C2270 1.366 . S
C2271 C2275 1.385 . S
C2272 H2253 0.951 . S
C2272 C2270 1.388 . S
C2272 C2273 1.366 . S
C2273 C2272 1.366 . S
C2273 C2274 1.414 . S
C2273 C2276 1.499 . S
C2274 H2254 0.950 . S
C2274 C2273 1.414 . S
C2274 C2275 1.374 . S
C2275 H2255 0.950 . S
C2275 C2271 1.385 . S
C2275 C2274 1.374 . S
C2276 C2273 1.499 . S
C2276 C2277 1.373 . S
C2276 C2278 1.389 . S
C2277 H2256 0.950 . S
C2277 C2276 1.373 . S
C2277 C2293 1.377 . S
C2278 C2276 1.389 . S
C2278 C2279 1.524 . S
C2278 C2292 1.377 . S
C2279 C2278 1.524 . S
C2279 C2280 1.397 . S
C2279 C2284 1.363 . S
C2280 H2257 0.950 . S
C2280 C2279 1.397 . S
C2280 C2281 1.334 . S
C2281 H2258 0.950 . S
C2281 C2280 1.334 . S
C2281 C2282 1.287 . S
C2282 C2281 1.287 . S
C2282 C2283 1.524 . S
C2282 H2301 0.913 . S
C2283 H2259 0.950 . S
C2283 C2282 1.524 . S
C2283 C2284 1.415 . S
C2284 H2260 0.950 . S
C2284 C2279 1.363 . S
C2284 C2283 1.415 . S
C2285 H2261 0.951 . S
C2285 C2286 1.366 . S
C2285 C2287 1.388 . S
C2286 C2285 1.366 . S
C2286 C2290 1.385 . S
C2287 H2262 0.951 . S
C2287 C2285 1.388 . S
C2287 C2288 1.366 . S
C2288 C2287 1.366 . S
C2288 C2289 1.414 . S
C2288 C2291 1.499 . S
C2289 H2263 0.950 . S
C2289 C2288 1.414 . S
C2289 C2290 1.374 . S
C2290 H2264 0.950 . S
C2290 C2286 1.385 . S
C2290 C2289 1.374 . S
C2291 C2288 1.499 . S
C2291 C2292 1.373 . S
C2291 C2293 1.389 . S
C2292 H2265 0.950 . S
C2292 C2278 1.377 . S
C2292 C2291 1.373 . S
C2293 C2277 1.377 . S
C2293 C2291 1.389 . S
C2293 C2294 1.524 . S
C2294 C2293 1.524 . S
C2294 C2295 1.397 . S
C2294 C2299 1.363 . S
C2295 H2266 0.950 . S
C2295 C2294 1.397 . S
C2295 C2296 1.334 . S
C2296 H2267 0.950 . S
C2296 C2295 1.334 . S
C2296 C2297 1.287 . S
C2297 C2296 1.287 . S
C2297 C2298 1.524 . S
C2297 H2300 0.999 . S
C2298 H2268 0.950 . S
C2298 C2297 1.524 . S
C2298 C2299 1.415 . S
C2299 H2269 0.950 . S
C2299 C2294 1.363 . S
C2299 C2298 1.415 . S
H2300 C2297 0.999 . S
H2301 C2282 0.913 . S
H2302 C2320 0.951 . S
H2303 C2322 0.951 . S
H2304 C2324 0.950 . S
H2305 C2325 0.950 . S
H2306 C2327 0.950 . S
H2307 C2330 0.950 . S
H2308 C2331 0.950 . S
H2309 C2333 0.950 . S
H2310 C2334 0.950 . S
H2311 C2335 0.951 . S
H2312 C2337 0.951 . S
H2313 C2339 0.950 . S
H2314 C2340 0.950 . S
H2315 C2342 0.950 . S
H2316 C2345 0.950 . S
H2317 C2346 0.950 . S
H2318 C2348 0.950 . S
H2319 C2349 0.950 . S
C2320 H2302 0.951 . S
C2320 C2321 1.366 . S
C2320 C2322 1.388 . S
C2321 C2320 1.366 . S
C2321 C2325 1.385 . S
C2322 H2303 0.951 . S
C2322 C2320 1.388 . S
C2322 C2323 1.366 . S
C2323 C2322 1.366 . S
C2323 C2324 1.414 . S
C2323 C2326 1.499 . S
C2324 H2304 0.950 . S
C2324 C2323 1.414 . S
C2324 C2325 1.374 . S
C2325 H2305 0.950 . S
C2325 C2321 1.385 . S
C2325 C2324 1.374 . S
C2326 C2323 1.499 . S
C2326 C2327 1.373 . S
C2326 C2328 1.389 . S
C2327 H2306 0.950 . S
C2327 C2326 1.373 . S
C2327 C2343 1.377 . S
C2328 C2326 1.389 . S
C2328 C2329 1.524 . S
C2328 C2342 1.377 . S
C2329 C2328 1.524 . S
C2329 C2330 1.397 . S
C2329 C2334 1.363 . S
C2330 H2307 0.950 . S
C2330 C2329 1.397 . S
C2330 C2331 1.334 . S
C2331 H2308 0.950 . S
C2331 C2330 1.334 . S
C2331 C2332 1.287 . S
C2332 C2331 1.287 . S
C2332 C2333 1.524 . S
C2332 H2351 0.913 . S
C2333 H2309 0.950 . S
C2333 C2332 1.524 . S
C2333 C2334 1.415 . S
C2334 H2310 0.950 . S
C2334 C2329 1.363 . S
C2334 C2333 1.415 . S
C2335 H2311 0.951 . S
C2335 C2336 1.366 . S
C2335 C2337 1.388 . S
C2336 C2335 1.366 . S
C2336 C2340 1.385 . S
C2337 H2312 0.951 . S
C2337 C2335 1.388 . S
C2337 C2338 1.366 . S
C2338 C2337 1.366 . S
C2338 C2339 1.414 . S
C2338 C2341 1.499 . S
C2339 H2313 0.950 . S
C2339 C2338 1.414 . S
C2339 C2340 1.374 . S
C2340 H2314 0.950 . S
C2340 C2336 1.385 . S
C2340 C2339 1.374 . S
C2341 C2338 1.499 . S
C2341 C2342 1.373 . S
C2341 C2343 1.389 . S
C2342 H2315 0.950 . S
C2342 C2328 1.377 . S
C2342 C2341 1.373 . S
C2343 C2327 1.377 . S
C2343 C2341 1.389 . S
C2343 C2344 1.524 . S
C2344 C2343 1.524 . S
C2344 C2345 1.397 . S
C2344 C2349 1.363 . S
C2345 H2316 0.950 . S
C2345 C2344 1.397 . S
C2345 C2346 1.334 . S
C2346 H2317 0.950 . S
C2346 C2345 1.334 . S
C2346 C2347 1.287 . S
C2347 C2346 1.287 . S
C2347 C2348 1.524 . S
C2347 H2350 0.999 . S
C2348 H2318 0.950 . S
C2348 C2347 1.524 . S
C2348 C2349 1.415 . S
C2349 H2319 0.950 . S
C2349 C2344 1.363 . S
C2349 C2348 1.415 . S
H2350 C2347 0.999 . S
H2351 C2332 0.913 . S
H2352 C2370 0.951 . S
H2353 C2372 0.951 . S
H2354 C2374 0.950 . S
H2355 C2375 0.950 . S
H2356 C2377 0.950 . S
H2357 C2380 0.950 . S
H2358 C2381 0.950 . S
H2359 C2383 0.950 . S
H2360 C2384 0.950 . S
H2361 C2385 0.951 . S
H2362 C2387 0.951 . S
H2363 C2389 0.950 . S
H2364 C2390 0.940 1_655 S
H2365 C2392 0.950 . S
H2366 C2395 0.950 . S
H2367 C2396 0.950 . S
H2368 C2398 0.950 . S
H2369 C2399 0.950 1_455 S
C2370 H2352 0.951 . S
C2370 C2371 1.366 . S
C2370 C2372 1.388 . S
C2371 C2370 1.366 . S
C2371 C2375 1.385 . S
C2372 H2353 0.951 . S
C2372 C2370 1.388 . S
C2372 C2373 1.366 . S
C2373 C2372 1.366 . S
C2373 C2374 1.414 . S
C2373 C2376 1.499 . S
C2374 H2354 0.950 . S
C2374 C2373 1.414 . S
C2374 C2375 1.374 . S
C2375 H2355 0.950 . S
C2375 C2371 1.385 . S
C2375 C2374 1.374 . S
C2376 C2373 1.499 . S
C2376 C2377 1.373 . S
C2376 C2378 1.389 . S
C2377 H2356 0.950 . S
C2377 C2376 1.373 . S
C2377 C2393 1.377 . S
C2378 C2376 1.389 . S
C2378 C2379 1.524 . S
C2378 C2392 1.377 . S
C2379 C2378 1.524 . S
C2379 C2380 1.397 . S
C2379 C2384 1.363 . S
C2380 H2357 0.950 . S
C2380 C2379 1.397 . S
C2380 C2381 1.334 . S
C2381 H2358 0.950 . S
C2381 C2380 1.334 . S
C2381 C2382 1.287 . S
C2382 C2381 1.287 . S
C2382 C2383 1.524 . S
C2382 H2401 0.913 . S
C2383 H2359 0.950 . S
C2383 C2382 1.524 . S
C2383 C2384 1.415 . S
C2384 H2360 0.950 . S
C2384 C2379 1.363 . S
C2384 C2383 1.415 . S
C2385 H2361 0.951 . S
C2385 C2386 1.366 . S
C2385 C2387 1.388 . S
C2386 C2385 1.366 . S
C2386 C2390 1.393 . S
C2387 H2362 0.951 . S
C2387 C2385 1.388 . S
C2387 C2388 1.366 . S
C2388 C2387 1.366 . S
C2388 C2389 1.414 . S
C2388 C2391 1.499 . S
C2389 H2363 0.950 . S
C2389 C2388 1.414 . S
C2389 C2390 1.376 . S
C2390 H2364 0.940 1_455 S
C2390 C2386 1.393 . S
C2390 C2389 1.376 . S
C2391 C2388 1.499 . S
C2391 C2392 1.373 . S
C2391 C2393 1.389 . S
C2392 H2365 0.950 . S
C2392 C2378 1.377 . S
C2392 C2391 1.373 . S
C2393 C2377 1.377 . S
C2393 C2391 1.389 . S
C2393 C2394 1.524 1_455 S
C2394 C2393 1.524 1_655 S
C2394 C2395 1.397 . S
C2394 C2399 1.363 . S
C2395 H2366 0.950 . S
C2395 C2394 1.397 . S
C2395 C2396 1.334 . S
C2396 H2367 0.950 . S
C2396 C2395 1.334 . S
C2396 C2397 1.287 . S
C2397 C2396 1.287 . S
C2397 C2398 1.524 . S
C2397 H2400 0.999 . S
C2398 H2368 0.950 . S
C2398 C2397 1.524 . S
C2398 C2399 1.415 . S
C2399 H2369 0.950 1_655 S
C2399 C2394 1.363 . S
C2399 C2398 1.415 . S
H2400 C2397 0.999 . S
H2401 C2382 0.913 . S
H2402 C2420 0.951 . S
H2403 C2422 0.951 . S
H2404 C2424 0.950 . S
H2405 C2425 0.950 . S
H2406 C2427 0.950 . S
H2407 C2430 0.950 . S
H2408 C2431 0.950 . S
H2409 C2433 0.950 . S
H2410 C2434 0.950 . S
H2411 C2435 0.951 . S
H2412 C2437 0.951 . S
H2413 C2439 0.950 . S
H2414 C2440 0.950 . S
H2415 C2442 0.950 . S
H2416 C2445 0.950 . S
H2417 C2446 0.950 . S
H2418 C2448 0.950 . S
H2419 C2449 0.950 . S
C2420 H2402 0.951 . S
C2420 C2421 1.366 . S
C2420 C2422 1.388 . S
C2421 C2420 1.366 . S
C2421 C2425 1.385 . S
C2422 H2403 0.951 . S
C2422 C2420 1.388 . S
C2422 C2423 1.366 . S
C2423 C2422 1.366 . S
C2423 C2424 1.414 . S
C2423 C2426 1.499 . S
C2424 H2404 0.950 . S
C2424 C2423 1.414 . S
C2424 C2425 1.374 . S
C2425 H2405 0.950 . S
C2425 C2421 1.385 . S
C2425 C2424 1.374 . S
C2426 C2423 1.499 . S
C2426 C2427 1.373 . S
C2426 C2428 1.389 . S
C2427 H2406 0.950 . S
C2427 C2426 1.373 . S
C2427 C2443 1.377 . S
C2428 C2426 1.389 . S
C2428 C2429 1.524 . S
C2428 C2442 1.377 . S
C2429 C2428 1.524 . S
C2429 C2430 1.397 . S
C2429 C2434 1.363 . S
C2430 H2407 0.950 . S
C2430 C2429 1.397 . S
C2430 C2431 1.334 . S
C2431 H2408 0.950 . S
C2431 C2430 1.334 . S
C2431 C2432 1.287 . S
C2432 C2431 1.287 . S
C2432 C2433 1.524 . S
C2432 H2451 0.913 . S
C2433 H2409 0.950 . S
C2433 C2432 1.524 . S
C2433 C2434 1.415 . S
C2434 H2410 0.950 . S
C2434 C2429 1.363 . S
C2434 C2433 1.415 . S
C2435 H2411 0.951 . S
C2435 C2436 1.366 . S
C2435 C2437 1.388 . S
C2436 C2435 1.366 . S
C2436 C2440 1.385 . S
C2437 H2412 0.951 . S
C2437 C2435 1.388 . S
C2437 C2438 1.366 . S
C2438 C2437 1.366 . S
C2438 C2439 1.414 . S
C2438 C2441 1.499 . S
C2439 H2413 0.950 . S
C2439 C2438 1.414 . S
C2439 C2440 1.374 . S
C2440 H2414 0.950 . S
C2440 C2436 1.385 . S
C2440 C2439 1.374 . S
C2441 C2438 1.499 . S
C2441 C2442 1.373 . S
C2441 C2443 1.389 . S
C2442 H2415 0.950 . S
C2442 C2428 1.377 . S
C2442 C2441 1.373 . S
C2443 C2427 1.377 . S
C2443 C2441 1.389 . S
C2443 C2444 1.524 . S
C2444 C2443 1.524 . S
C2444 C2445 1.397 . S
C2444 C2449 1.363 . S
C2445 H2416 0.950 . S
C2445 C2444 1.397 . S
C2445 C2446 1.334 . S
C2446 H2417 0.950 . S
C2446 C2445 1.334 . S
C2446 C2447 1.287 . S
C2447 C2446 1.287 . S
C2447 C2448 1.524 . S
C2447 H2450 0.999 . S
C2448 H2418 0.950 . S
C2448 C2447 1.524 . S
C2448 C2449 1.415 . S
C2449 H2419 0.950 . S
C2449 C2444 1.363 . S
C2449 C2448 1.415 . S
H2450 C2447 0.999 . S
H2451 C2432 0.913 . S
H2452 C2470 0.951 . S
H2453 C2472 0.951 . S
H2454 C2474 0.950 . S
H2455 C2475 0.950 . S
H2456 C2477 0.950 . S
H2457 C2480 0.950 . S
H2458 C2481 0.950 . S
H2459 C2483 0.950 . S
H2460 C2484 0.950 . S
H2461 C2485 0.951 . S
H2462 C2487 0.951 . S
H2463 C2489 0.942 1_565 S
H2464 C2490 0.950 . S
H2465 C2492 0.950 . S
H2466 C2495 0.950 . S
H2467 C2496 0.950 . S
H2468 C2498 0.950 . S
H2469 C2499 0.950 . S
C2470 H2452 0.951 . S
C2470 C2471 1.366 . S
C2470 C2472 1.388 . S
C2471 C2470 1.366 . S
C2471 C2475 1.385 . S
C2472 H2453 0.951 . S
C2472 C2470 1.388 . S
C2472 C2473 1.366 . S
C2473 C2472 1.366 . S
C2473 C2474 1.414 . S
C2473 C2476 1.499 . S
C2474 H2454 0.950 . S
C2474 C2473 1.414 . S
C2474 C2475 1.374 . S
C2475 H2455 0.950 . S
C2475 C2471 1.385 . S
C2475 C2474 1.374 . S
C2476 C2473 1.499 . S
C2476 C2477 1.373 . S
C2476 C2478 1.389 1_556 S
C2477 H2456 0.950 . S
C2477 C2476 1.373 . S
C2477 C2493 1.377 . S
C2478 C2476 1.389 1_554 S
C2478 C2479 1.524 . S
C2478 C2492 1.377 . S
C2479 C2478 1.524 . S
C2479 C2480 1.397 . S
C2479 C2484 1.363 . S
C2480 H2457 0.950 . S
C2480 C2479 1.397 . S
C2480 C2481 1.334 . S
C2481 H2458 0.950 . S
C2481 C2480 1.334 . S
C2481 C2482 1.287 . S
C2482 C2481 1.287 . S
C2482 C2483 1.524 . S
C2482 H2501 0.913 . S
C2483 H2459 0.950 . S
C2483 C2482 1.524 . S
C2483 C2484 1.415 . S
C2484 H2460 0.950 . S
C2484 C2479 1.363 . S
C2484 C2483 1.415 . S
C2485 H2461 0.951 . S
C2485 C2486 1.366 . S
C2485 C2487 1.388 1_545 S
C2486 C2485 1.366 . S
C2486 C2490 1.385 . S
C2487 H2462 0.951 . S
C2487 C2485 1.388 1_565 S
C2487 C2488 1.366 . S
C2488 C2487 1.366 . S
C2488 C2489 1.412 1_565 S
C2488 C2491 1.497 . S
C2489 H2463 0.942 1_545 S
C2489 C2488 1.412 1_545 S
C2489 C2490 1.376 . S
C2490 H2464 0.950 . S
C2490 C2486 1.385 . S
C2490 C2489 1.376 . S
C2491 C2488 1.497 . S
C2491 C2492 1.371 . S
C2491 C2493 1.392 1_554 S
C2492 H2465 0.950 . S
C2492 C2478 1.377 . S
C2492 C2491 1.371 . S
C2493 C2477 1.377 . S
C2493 C2491 1.392 1_556 S
C2493 C2494 1.524 . S
C2494 C2493 1.524 . S
C2494 C2495 1.397 . S
C2494 C2499 1.363 . S
C2495 H2466 0.950 . S
C2495 C2494 1.397 . S
C2495 C2496 1.334 . S
C2496 H2467 0.950 . S
C2496 C2495 1.334 . S
C2496 C2497 1.287 . S
C2497 C2496 1.287 . S
C2497 C2498 1.524 . S
C2497 H2500 0.999 . S
C2498 H2468 0.950 . S
C2498 C2497 1.524 . S
C2498 C2499 1.415 . S
C2499 H2469 0.950 . S
C2499 C2494 1.363 . S
C2499 C2498 1.415 . S
H2500 C2497 0.999 . S
H2501 C2482 0.913 . S
H2502 C2520 0.951 . S
H2503 C2522 0.951 . S
H2504 C2524 0.950 . S
H2505 C2525 0.950 . S
H2506 C2527 0.950 . S
H2507 C2530 0.950 . S
H2508 C2531 0.950 . S
H2509 C2533 0.950 . S
H2510 C2534 0.950 . S
H2511 C2535 0.951 . S
H2512 C2537 0.951 . S
H2513 C2539 0.950 . S
H2514 C2540 0.950 . S
H2515 C2542 0.950 . S
H2516 C2545 0.950 . S
H2517 C2546 0.950 . S
H2518 C2548 0.950 . S
H2519 C2549 0.950 . S
C2520 H2502 0.951 . S
C2520 C2521 1.366 . S
C2520 C2522 1.388 . S
C2521 C2520 1.366 . S
C2521 C2525 1.385 . S
C2522 H2503 0.951 . S
C2522 C2520 1.388 . S
C2522 C2523 1.366 . S
C2523 C2522 1.366 . S
C2523 C2524 1.414 . S
C2523 C2526 1.499 . S
C2524 H2504 0.950 . S
C2524 C2523 1.414 . S
C2524 C2525 1.374 . S
C2525 H2505 0.950 . S
C2525 C2521 1.385 . S
C2525 C2524 1.374 . S
C2526 C2523 1.499 . S
C2526 C2527 1.373 . S
C2526 C2528 1.389 . S
C2527 H2506 0.950 . S
C2527 C2526 1.373 . S
C2527 C2543 1.377 . S
C2528 C2526 1.389 . S
C2528 C2529 1.524 . S
C2528 C2542 1.377 . S
C2529 C2528 1.524 . S
C2529 C2530 1.397 . S
C2529 C2534 1.363 . S
C2530 H2507 0.950 . S
C2530 C2529 1.397 . S
C2530 C2531 1.334 . S
C2531 H2508 0.950 . S
C2531 C2530 1.334 . S
C2531 C2532 1.287 . S
C2532 C2531 1.287 . S
C2532 C2533 1.524 . S
C2532 H2551 0.913 . S
C2533 H2509 0.950 . S
C2533 C2532 1.524 . S
C2533 C2534 1.415 . S
C2534 H2510 0.950 . S
C2534 C2529 1.363 . S
C2534 C2533 1.415 . S
C2535 H2511 0.951 . S
C2535 C2536 1.366 . S
C2535 C2537 1.388 . S
C2536 C2535 1.366 . S
C2536 C2540 1.385 . S
C2537 H2512 0.951 . S
C2537 C2535 1.388 . S
C2537 C2538 1.366 . S
C2538 C2537 1.366 . S
C2538 C2539 1.414 . S
C2538 C2541 1.499 . S
C2539 H2513 0.950 . S
C2539 C2538 1.414 . S
C2539 C2540 1.374 . S
C2540 H2514 0.950 . S
C2540 C2536 1.385 . S
C2540 C2539 1.374 . S
C2541 C2538 1.499 . S
C2541 C2542 1.373 . S
C2541 C2543 1.389 . S
C2542 H2515 0.950 . S
C2542 C2528 1.377 . S
C2542 C2541 1.373 . S
C2543 C2527 1.377 . S
C2543 C2541 1.389 . S
C2543 C2544 1.524 . S
C2544 C2543 1.524 . S
C2544 C2545 1.397 . S
C2544 C2549 1.363 . S
C2545 H2516 0.950 . S
C2545 C2544 1.397 . S
C2545 C2546 1.334 . S
C2546 H2517 0.950 . S
C2546 C2545 1.334 . S
C2546 C2547 1.287 . S
C2547 C2546 1.287 . S
C2547 C2548 1.524 . S
C2547 H2550 0.999 . S
C2548 H2518 0.950 . S
C2548 C2547 1.524 . S
C2548 C2549 1.415 . S
C2549 H2519 0.950 . S
C2549 C2544 1.363 . S
C2549 C2548 1.415 . S
H2550 C2547 0.999 . S
H2551 C2532 0.913 . S
H2552 C2570 0.951 . S
H2553 C2572 0.951 . S
H2554 C2574 0.950 . S
H2555 C2575 0.950 . S
H2556 C2577 0.950 . S
H2557 C2580 0.950 . S
H2558 C2581 0.950 . S
H2559 C2583 0.950 . S
H2560 C2584 0.950 . S
H2561 C2585 0.964 . S
H2562 C2587 0.951 . S
H2563 C2589 0.950 . S
H2564 C2590 0.948 1_554 S
H2565 C2592 0.950 . S
H2566 C2595 0.950 . S
H2567 C2596 0.950 . S
H2568 C2598 0.950 . S
H2569 C2599 0.946 1_565 S
C2570 H2552 0.951 . S
C2570 C2571 1.366 . S
C2570 C2572 1.388 . S
C2571 C2570 1.366 . S
C2571 C2575 1.385 . S
C2572 H2553 0.951 . S
C2572 C2570 1.388 . S
C2572 C2573 1.366 . S
C2573 C2572 1.366 . S
C2573 C2574 1.414 . S
C2573 C2576 1.499 . S
C2574 H2554 0.950 . S
C2574 C2573 1.414 . S
C2574 C2575 1.374 . S
C2575 H2555 0.950 . S
C2575 C2571 1.385 . S
C2575 C2574 1.374 . S
C2576 C2573 1.499 . S
C2576 C2577 1.373 . S
C2576 C2578 1.389 . S
C2577 H2556 0.950 . S
C2577 C2576 1.373 . S
C2577 C2593 1.377 . S
C2578 C2576 1.389 . S
C2578 C2579 1.524 . S
C2578 C2592 1.377 . S
C2579 C2578 1.524 . S
C2579 C2580 1.397 . S
C2579 C2584 1.363 . S
C2580 H2557 0.950 . S
C2580 C2579 1.397 . S
C2580 C2581 1.334 . S
C2581 H2558 0.950 . S
C2581 C2580 1.334 . S
C2581 C2582 1.287 . S
C2582 C2581 1.287 . S
C2582 C2583 1.524 . S
C2582 H2601 0.913 . S
C2583 H2559 0.950 . S
C2583 C2582 1.524 . S
C2583 C2584 1.415 . S
C2584 H2560 0.950 . S
C2584 C2579 1.363 . S
C2584 C2583 1.415 . S
C2585 H2561 0.964 . S
C2585 C2586 1.371 . S
C2585 C2587 1.370 1_554 S
C2586 C2585 1.371 . S
C2586 C2590 1.385 1_554 S
C2587 H2562 0.951 . S
C2587 C2585 1.370 1_556 S
C2587 C2588 1.366 . S
C2588 C2587 1.366 . S
C2588 C2589 1.414 . S
C2588 C2591 1.499 . S
C2589 H2563 0.950 . S
C2589 C2588 1.414 . S
C2589 C2590 1.374 . S
C2590 H2564 0.948 1_556 S
C2590 C2586 1.385 1_556 S
C2590 C2589 1.374 . S
C2591 C2588 1.499 . S
C2591 C2592 1.373 . S
C2591 C2593 1.389 . S
C2592 H2565 0.950 . S
C2592 C2578 1.377 . S
C2592 C2591 1.373 . S
C2593 C2577 1.377 . S
C2593 C2591 1.389 . S
C2593 C2594 1.524 . S
C2594 C2593 1.524 . S
C2594 C2595 1.397 . S
C2594 C2599 1.371 . S
C2595 H2566 0.950 . S
C2595 C2594 1.397 . S
C2595 C2596 1.334 . S
C2596 H2567 0.950 . S
C2596 C2595 1.334 . S
C2596 C2597 1.287 1_545 S
C2597 C2596 1.287 1_565 S
C2597 C2598 1.524 . S
C2597 H2600 0.999 . S
C2598 H2568 0.950 . S
C2598 C2597 1.524 . S
C2598 C2599 1.410 1_565 S
C2599 H2569 0.946 1_545 S
C2599 C2594 1.371 . S
C2599 C2598 1.410 1_545 S
H2600 C2597 0.999 . S
H2601 C2582 0.913 . S
H2602 C2620 0.951 . S
H2603 C2622 0.951 . S
H2604 C2624 0.950 . S
H2605 C2625 0.950 . S
H2606 C2627 0.950 . S
H2607 C2630 0.950 . S
H2608 C2631 0.950 . S
H2609 C2633 0.950 . S
H2610 C2634 0.950 . S
H2611 C2635 0.951 . S
H2612 C2637 0.951 . S
H2613 C2639 0.950 . S
H2614 C2640 0.950 . S
H2615 C2642 0.950 . S
H2616 C2645 0.950 . S
H2617 C2646 0.950 . S
H2618 C2648 0.950 . S
H2619 C2649 0.950 . S
C2620 H2602 0.951 . S
C2620 C2621 1.366 . S
C2620 C2622 1.388 . S
C2621 C2620 1.366 . S
C2621 C2625 1.385 . S
C2622 H2603 0.951 . S
C2622 C2620 1.388 . S
C2622 C2623 1.366 . S
C2623 C2622 1.366 . S
C2623 C2624 1.414 . S
C2623 C2626 1.499 . S
C2624 H2604 0.950 . S
C2624 C2623 1.414 . S
C2624 C2625 1.374 . S
C2625 H2605 0.950 . S
C2625 C2621 1.385 . S
C2625 C2624 1.374 . S
C2626 C2623 1.499 . S
C2626 C2627 1.373 . S
C2626 C2628 1.389 . S
C2627 H2606 0.950 . S
C2627 C2626 1.373 . S
C2627 C2643 1.377 . S
C2628 C2626 1.389 . S
C2628 C2629 1.524 . S
C2628 C2642 1.377 . S
C2629 C2628 1.524 . S
C2629 C2630 1.397 . S
C2629 C2634 1.363 . S
C2630 H2607 0.950 . S
C2630 C2629 1.397 . S
C2630 C2631 1.334 . S
C2631 H2608 0.950 . S
C2631 C2630 1.334 . S
C2631 C2632 1.287 . S
C2632 C2631 1.287 . S
C2632 C2633 1.524 . S
C2632 H2651 0.913 . S
C2633 H2609 0.950 . S
C2633 C2632 1.524 . S
C2633 C2634 1.415 . S
C2634 H2610 0.950 . S
C2634 C2629 1.363 . S
C2634 C2633 1.415 . S
C2635 H2611 0.951 . S
C2635 C2636 1.366 . S
C2635 C2637 1.388 . S
C2636 C2635 1.366 . S
C2636 C2640 1.385 . S
C2637 H2612 0.951 . S
C2637 C2635 1.388 . S
C2637 C2638 1.366 . S
C2638 C2637 1.366 . S
C2638 C2639 1.414 . S
C2638 C2641 1.499 . S
C2639 H2613 0.950 . S
C2639 C2638 1.414 . S
C2639 C2640 1.374 . S
C2640 H2614 0.950 . S
C2640 C2636 1.385 . S
C2640 C2639 1.374 . S
C2641 C2638 1.499 . S
C2641 C2642 1.373 . S
C2641 C2643 1.389 . S
C2642 H2615 0.950 . S
C2642 C2628 1.377 . S
C2642 C2641 1.373 . S
C2643 C2627 1.377 . S
C2643 C2641 1.389 . S
C2643 C2644 1.524 . S
C2644 C2643 1.524 . S
C2644 C2645 1.397 . S
C2644 C2649 1.363 . S
C2645 H2616 0.950 . S
C2645 C2644 1.397 . S
C2645 C2646 1.334 . S
C2646 H2617 0.950 . S
C2646 C2645 1.334 . S
C2646 C2647 1.287 . S
C2647 C2646 1.287 . S
C2647 C2648 1.524 . S
C2647 H2650 0.999 . S
C2648 H2618 0.950 . S
C2648 C2647 1.524 . S
C2648 C2649 1.415 . S
C2649 H2619 0.950 . S
C2649 C2644 1.363 . S
C2649 C2648 1.415 . S
H2650 C2647 0.999 . S
H2651 C2632 0.913 . S
H2652 C2670 0.951 . S
H2653 C2672 0.951 . S
H2654 C2674 0.950 . S
H2655 C2675 0.950 . S
H2656 C2677 0.950 . S
H2657 C2680 0.950 . S
H2658 C2681 0.950 . S
H2659 C2683 0.950 . S
H2660 C2684 0.950 . S
H2661 C2685 0.951 . S
H2662 C2687 0.951 . S
H2663 C2689 0.950 . S
H2664 C2690 0.950 . S
H2665 C2692 0.950 . S
H2666 C2695 0.950 . S
H2667 C2696 0.950 . S
H2668 C2698 0.950 . S
H2669 C2699 0.950 . S
C2670 H2652 0.951 . S
C2670 C2671 1.366 . S
C2670 C2672 1.388 . S
C2671 C2670 1.366 . S
C2671 C2675 1.385 . S
C2672 H2653 0.951 . S
C2672 C2670 1.388 . S
C2672 C2673 1.366 . S
C2673 C2672 1.366 . S
C2673 C2674 1.414 . S
C2673 C2676 1.499 . S
C2674 H2654 0.950 . S
C2674 C2673 1.414 . S
C2674 C2675 1.374 . S
C2675 H2655 0.950 . S
C2675 C2671 1.385 . S
C2675 C2674 1.374 . S
C2676 C2673 1.499 . S
C2676 C2677 1.373 . S
C2676 C2678 1.389 . S
C2677 H2656 0.950 . S
C2677 C2676 1.373 . S
C2677 C2693 1.377 . S
C2678 C2676 1.389 . S
C2678 C2679 1.524 . S
C2678 C2692 1.377 . S
C2679 C2678 1.524 . S
C2679 C2680 1.397 . S
C2679 C2684 1.363 . S
C2680 H2657 0.950 . S
C2680 C2679 1.397 . S
C2680 C2681 1.334 . S
C2681 H2658 0.950 . S
C2681 C2680 1.334 . S
C2681 C2682 1.287 . S
C2682 C2681 1.287 . S
C2682 C2683 1.524 . S
C2682 H2701 0.913 . S
C2683 H2659 0.950 . S
C2683 C2682 1.524 . S
C2683 C2684 1.415 . S
C2684 H2660 0.950 . S
C2684 C2679 1.363 . S
C2684 C2683 1.415 . S
C2685 H2661 0.951 . S
C2685 C2686 1.366 . S
C2685 C2687 1.388 . S
C2686 C2685 1.366 . S
C2686 C2690 1.385 . S
C2687 H2662 0.951 . S
C2687 C2685 1.388 . S
C2687 C2688 1.366 . S
C2688 C2687 1.366 . S
C2688 C2689 1.414 . S
C2688 C2691 1.499 . S
C2689 H2663 0.950 . S
C2689 C2688 1.414 . S
C2689 C2690 1.374 . S
C2690 H2664 0.950 . S
C2690 C2686 1.385 . S
C2690 C2689 1.374 . S
C2691 C2688 1.499 . S
C2691 C2692 1.373 . S
C2691 C2693 1.389 . S
C2692 H2665 0.950 . S
C2692 C2678 1.377 . S
C2692 C2691 1.373 . S
C2693 C2677 1.377 . S
C2693 C2691 1.389 . S
C2693 C2694 1.524 . S
C2694 C2693 1.524 . S
C2694 C2695 1.397 . S
C2694 C2699 1.363 . S
C2695 H2666 0.950 . S
C2695 C2694 1.397 . S
C2695 C2696 1.334 . S
C2696 H2667 0.950 . S
C2696 C2695 1.334 . S
C2696 C2697 1.287 . S
C2697 C2696 1.287 . S
C2697 C2698 1.524 . S
C2697 H2700 0.999 . S
C2698 H2668 0.950 . S
C2698 C2697 1.524 . S
C2698 C2699 1.415 . S
C2699 H2669 0.950 . S
C2699 C2694 1.363 . S
C2699 C2698 1.415 . S
H2700 C2697 0.999 . S
H2701 C2682 0.913 . S
H2702 C2720 0.951 . S
H2703 C2722 0.951 . S
H2704 C2724 0.950 . S
H2705 C2725 0.950 . S
H2706 C2727 0.950 . S
H2707 C2730 0.950 . S
H2708 C2731 0.950 . S
H2709 C2733 0.950 . S
H2710 C2734 0.950 . S
H2711 C2735 0.951 . S
H2712 C2737 0.951 . S
H2713 C2739 0.950 . S
H2714 C2740 0.950 . S
H2715 C2742 0.950 . S
H2716 C2745 0.950 . S
H2717 C2746 0.950 . S
H2718 C2748 0.950 . S
H2719 C2749 0.950 . S
C2720 H2702 0.951 . S
C2720 C2721 1.366 . S
C2720 C2722 1.388 . S
C2721 C2720 1.366 . S
C2721 C2725 1.385 . S
C2722 H2703 0.951 . S
C2722 C2720 1.388 . S
C2722 C2723 1.366 . S
C2723 C2722 1.366 . S
C2723 C2724 1.414 . S
C2723 C2726 1.499 . S
C2724 H2704 0.950 . S
C2724 C2723 1.414 . S
C2724 C2725 1.374 . S
C2725 H2705 0.950 . S
C2725 C2721 1.385 . S
C2725 C2724 1.374 . S
C2726 C2723 1.499 . S
C2726 C2727 1.373 . S
C2726 C2728 1.389 . S
C2727 H2706 0.950 . S
C2727 C2726 1.373 . S
C2727 C2743 1.377 . S
C2728 C2726 1.389 . S
C2728 C2729 1.524 . S
C2728 C2742 1.377 . S
C2729 C2728 1.524 . S
C2729 C2730 1.397 . S
C2729 C2734 1.363 . S
C2730 H2707 0.950 . S
C2730 C2729 1.397 . S
C2730 C2731 1.334 . S
C2731 H2708 0.950 . S
C2731 C2730 1.334 . S
C2731 C2732 1.287 . S
C2732 C2731 1.287 . S
C2732 C2733 1.524 . S
C2732 H2751 0.913 . S
C2733 H2709 0.950 . S
C2733 C2732 1.524 . S
C2733 C2734 1.415 . S
C2734 H2710 0.950 . S
C2734 C2729 1.363 . S
C2734 C2733 1.415 . S
C2735 H2711 0.951 . S
C2735 C2736 1.366 . S
C2735 C2737 1.388 . S
C2736 C2735 1.366 . S
C2736 C2740 1.385 . S
C2737 H2712 0.951 . S
C2737 C2735 1.388 . S
C2737 C2738 1.366 . S
C2738 C2737 1.366 . S
C2738 C2739 1.414 . S
C2738 C2741 1.499 . S
C2739 H2713 0.950 . S
C2739 C2738 1.414 . S
C2739 C2740 1.374 . S
C2740 H2714 0.950 . S
C2740 C2736 1.385 . S
C2740 C2739 1.374 . S
C2741 C2738 1.499 . S
C2741 C2742 1.373 . S
C2741 C2743 1.389 . S
C2742 H2715 0.950 . S
C2742 C2728 1.377 . S
C2742 C2741 1.373 . S
C2743 C2727 1.377 . S
C2743 C2741 1.389 . S
C2743 C2744 1.524 . S
C2744 C2743 1.524 . S
C2744 C2745 1.397 . S
C2744 C2749 1.363 . S
C2745 H2716 0.950 . S
C2745 C2744 1.397 . S
C2745 C2746 1.334 . S
C2746 H2717 0.950 . S
C2746 C2745 1.334 . S
C2746 C2747 1.287 . S
C2747 C2746 1.287 . S
C2747 C2748 1.524 . S
C2747 H2750 0.999 . S
C2748 H2718 0.950 . S
C2748 C2747 1.524 . S
C2748 C2749 1.415 . S
C2749 H2719 0.950 . S
C2749 C2744 1.363 . S
C2749 C2748 1.415 . S
H2750 C2747 0.999 . S
H2751 C2732 0.913 . S
H2752 C2770 0.951 . S
H2753 C2772 0.951 . S
H2754 C2774 0.950 . S
H2755 C2775 0.950 . S
H2756 C2777 0.962 . S
H2757 C2780 0.950 . S
H2758 C2781 0.950 . S
H2759 C2783 0.950 . S
H2760 C2784 0.950 . S
H2761 C2785 0.951 . S
H2762 C2787 0.951 . S
H2763 C2789 0.950 . S
H2764 C2790 0.950 . S
H2765 C2792 0.950 . S
H2766 C2795 0.950 1_545 S
H2767 C2796 0.950 . S
H2768 C2798 0.950 . S
H2769 C2799 0.950 . S
C2770 H2752 0.951 . S
C2770 C2771 1.366 . S
C2770 C2772 1.388 . S
C2771 C2770 1.366 . S
C2771 C2775 1.385 . S
C2772 H2753 0.951 . S
C2772 C2770 1.388 . S
C2772 C2773 1.366 . S
C2773 C2772 1.366 . S
C2773 C2774 1.414 . S
C2773 C2776 1.499 . S
C2774 H2754 0.950 . S
C2774 C2773 1.414 . S
C2774 C2775 1.374 . S
C2775 H2755 0.950 . S
C2775 C2771 1.385 . S
C2775 C2774 1.374 . S
C2776 C2773 1.499 . S
C2776 C2777 1.373 . S
C2776 C2778 1.389 . S
C2777 H2756 0.962 . S
C2777 C2776 1.373 . S
C2777 C2793 1.377 . S
C2778 C2776 1.389 . S
C2778 C2779 1.524 . S
C2778 C2792 1.377 . S
C2779 C2778 1.524 . S
C2779 C2780 1.397 . S
C2779 C2784 1.363 . S
C2780 H2757 0.950 . S
C2780 C2779 1.397 . S
C2780 C2781 1.334 . S
C2781 H2758 0.950 . S
C2781 C2780 1.334 . S
C2781 C2782 1.287 . S
C2782 C2781 1.287 . S
C2782 C2783 1.524 . S
C2782 H2801 0.913 . S
C2783 H2759 0.950 . S
C2783 C2782 1.524 . S
C2783 C2784 1.415 . S
C2784 H2760 0.950 . S
C2784 C2779 1.363 . S
C2784 C2783 1.415 . S
C2785 H2761 0.951 . S
C2785 C2786 1.366 . S
C2785 C2787 1.388 . S
C2786 C2785 1.366 . S
C2786 C2790 1.385 . S
C2787 H2762 0.951 . S
C2787 C2785 1.388 . S
C2787 C2788 1.366 . S
C2788 C2787 1.366 . S
C2788 C2789 1.414 . S
C2788 C2791 1.499 . S
C2789 H2763 0.950 . S
C2789 C2788 1.414 . S
C2789 C2790 1.374 . S
C2790 H2764 0.950 . S
C2790 C2786 1.385 . S
C2790 C2789 1.374 . S
C2791 C2788 1.499 . S
C2791 C2792 1.373 . S
C2791 C2793 1.389 . S
C2792 H2765 0.950 . S
C2792 C2778 1.377 . S
C2792 C2791 1.373 . S
C2793 C2777 1.377 . S
C2793 C2791 1.389 . S
C2793 C2794 1.524 1_545 S
C2794 C2793 1.524 1_565 S
C2794 C2795 1.397 . S
C2794 C2799 1.363 . S
C2795 H2766 0.950 1_565 S
C2795 C2794 1.397 . S
C2795 C2796 1.334 . S
C2796 H2767 0.950 . S
C2796 C2795 1.334 . S
C2796 C2797 1.287 . S
C2797 C2796 1.287 . S
C2797 C2798 1.524 . S
C2797 H2800 0.999 . S
C2798 H2768 0.950 . S
C2798 C2797 1.524 . S
C2798 C2799 1.415 . S
C2799 H2769 0.950 . S
C2799 C2794 1.363 . S
C2799 C2798 1.415 . S
H2800 C2797 0.999 . S
H2801 C2782 0.913 . S
H2802 C2820 0.951 . S
H2803 C2822 0.951 . S
H2804 C2824 0.950 . S
H2805 C2825 0.950 . S
H2806 C2827 0.950 . S
H2807 C2830 0.950 . S
H2808 C2831 0.950 . S
H2809 C2833 0.950 . S
H2810 C2834 0.950 . S
H2811 C2835 0.951 . S
H2812 C2837 0.951 . S
H2813 C2839 0.950 . S
H2814 C2840 0.950 . S
H2815 C2842 0.950 . S
H2816 C2845 0.950 . S
H2817 C2846 0.950 . S
H2818 C2848 0.950 . S
H2819 C2849 0.950 . S
C2820 H2802 0.951 . S
C2820 C2821 1.366 . S
C2820 C2822 1.388 . S
C2821 C2820 1.366 . S
C2821 C2825 1.385 . S
C2822 H2803 0.951 . S
C2822 C2820 1.388 . S
C2822 C2823 1.366 . S
C2823 C2822 1.366 . S
C2823 C2824 1.414 . S
C2823 C2826 1.499 . S
C2824 H2804 0.950 . S
C2824 C2823 1.414 . S
C2824 C2825 1.374 . S
C2825 H2805 0.950 . S
C2825 C2821 1.385 . S
C2825 C2824 1.374 . S
C2826 C2823 1.499 . S
C2826 C2827 1.373 . S
C2826 C2828 1.389 . S
C2827 H2806 0.950 . S
C2827 C2826 1.373 . S
C2827 C2843 1.377 . S
C2828 C2826 1.389 . S
C2828 C2829 1.524 . S
C2828 C2842 1.377 . S
C2829 C2828 1.524 . S
C2829 C2830 1.397 . S
C2829 C2834 1.363 . S
C2830 H2807 0.950 . S
C2830 C2829 1.397 . S
C2830 C2831 1.334 . S
C2831 H2808 0.950 . S
C2831 C2830 1.334 . S
C2831 C2832 1.287 . S
C2832 C2831 1.287 . S
C2832 C2833 1.524 . S
C2832 H2851 0.913 . S
C2833 H2809 0.950 . S
C2833 C2832 1.524 . S
C2833 C2834 1.415 . S
C2834 H2810 0.950 . S
C2834 C2829 1.363 . S
C2834 C2833 1.415 . S
C2835 H2811 0.951 . S
C2835 C2836 1.366 . S
C2835 C2837 1.388 . S
C2836 C2835 1.366 . S
C2836 C2840 1.385 . S
C2837 H2812 0.951 . S
C2837 C2835 1.388 . S
C2837 C2838 1.366 . S
C2838 C2837 1.366 . S
C2838 C2839 1.414 . S
C2838 C2841 1.499 . S
C2839 H2813 0.950 . S
C2839 C2838 1.414 . S
C2839 C2840 1.374 . S
C2840 H2814 0.950 . S
C2840 C2836 1.385 . S
C2840 C2839 1.374 . S
C2841 C2838 1.499 . S
C2841 C2842 1.373 . S
C2841 C2843 1.389 . S
C2842 H2815 0.950 . S
C2842 C2828 1.377 . S
C2842 C2841 1.373 . S
C2843 C2827 1.377 . S
C2843 C2841 1.389 . S
C2843 C2844 1.524 . S
C2844 C2843 1.524 . S
C2844 C2845 1.397 . S
C2844 C2849 1.363 . S
C2845 H2816 0.950 . S
C2845 C2844 1.397 . S
C2845 C2846 1.334 . S
C2846 H2817 0.950 . S
C2846 C2845 1.334 . S
C2846 C2847 1.287 . S
C2847 C2846 1.287 . S
C2847 C2848 1.524 . S
C2847 H2850 0.999 . S
C2848 H2818 0.950 . S
C2848 C2847 1.524 . S
C2848 C2849 1.415 . S
C2849 H2819 0.950 . S
C2849 C2844 1.363 . S
C2849 C2848 1.415 . S
H2850 C2847 0.999 . S
H2851 C2832 0.913 . S
H2852 C2870 0.951 . S
H2853 C2872 0.951 . S
H2854 C2874 0.950 . S
H2855 C2875 0.950 . S
H2856 C2877 0.950 . S
H2857 C2880 0.950 . S
H2858 C2881 0.950 . S
H2859 C2883 0.950 . S
H2860 C2884 0.950 . S
H2861 C2885 0.951 . S
H2862 C2887 0.951 . S
H2863 C2889 0.950 . S
H2864 C2890 0.950 . S
H2865 C2892 0.950 . S
H2866 C2895 0.950 . S
H2867 C2896 0.950 . S
H2868 C2898 0.950 . S
H2869 C2899 0.950 . S
C2870 H2852 0.951 . S
C2870 C2871 1.366 . S
C2870 C2872 1.388 . S
C2871 C2870 1.366 . S
C2871 C2875 1.385 . S
C2872 H2853 0.951 . S
C2872 C2870 1.388 . S
C2872 C2873 1.366 . S
C2873 C2872 1.366 . S
C2873 C2874 1.414 . S
C2873 C2876 1.499 . S
C2874 H2854 0.950 . S
C2874 C2873 1.414 . S
C2874 C2875 1.374 . S
C2875 H2855 0.950 . S
C2875 C2871 1.385 . S
C2875 C2874 1.374 . S
C2876 C2873 1.499 . S
C2876 C2877 1.373 . S
C2876 C2878 1.389 . S
C2877 H2856 0.950 . S
C2877 C2876 1.373 . S
C2877 C2893 1.377 . S
C2878 C2876 1.389 . S
C2878 C2879 1.524 . S
C2878 C2892 1.377 . S
C2879 C2878 1.524 . S
C2879 C2880 1.397 . S
C2879 C2884 1.363 . S
C2880 H2857 0.950 . S
C2880 C2879 1.397 . S
C2880 C2881 1.334 . S
C2881 H2858 0.950 . S
C2881 C2880 1.334 . S
C2881 C2882 1.287 . S
C2882 C2881 1.287 . S
C2882 C2883 1.524 . S
C2882 H2901 0.913 . S
C2883 H2859 0.950 . S
C2883 C2882 1.524 . S
C2883 C2884 1.415 . S
C2884 H2860 0.950 . S
C2884 C2879 1.363 . S
C2884 C2883 1.415 . S
C2885 H2861 0.951 . S
C2885 C2886 1.366 . S
C2885 C2887 1.388 . S
C2886 C2885 1.366 . S
C2886 C2890 1.385 . S
C2887 H2862 0.951 . S
C2887 C2885 1.388 . S
C2887 C2888 1.366 . S
C2888 C2887 1.366 . S
C2888 C2889 1.414 . S
C2888 C2891 1.499 . S
C2889 H2863 0.950 . S
C2889 C2888 1.414 . S
C2889 C2890 1.374 . S
C2890 H2864 0.950 . S
C2890 C2886 1.385 . S
C2890 C2889 1.374 . S
C2891 C2888 1.499 . S
C2891 C2892 1.373 . S
C2891 C2893 1.389 . S
C2892 H2865 0.950 . S
C2892 C2878 1.377 . S
C2892 C2891 1.373 . S
C2893 C2877 1.377 . S
C2893 C2891 1.389 . S
C2893 C2894 1.524 . S
C2894 C2893 1.524 . S
C2894 C2895 1.397 . S
C2894 C2899 1.363 . S
C2895 H2866 0.950 . S
C2895 C2894 1.397 . S
C2895 C2896 1.334 . S
C2896 H2867 0.950 . S
C2896 C2895 1.334 . S
C2896 C2897 1.287 . S
C2897 C2896 1.287 . S
C2897 C2898 1.524 . S
C2897 H2900 0.999 . S
C2898 H2868 0.950 . S
C2898 C2897 1.524 . S
C2898 C2899 1.415 . S
C2899 H2869 0.950 . S
C2899 C2894 1.363 . S
C2899 C2898 1.415 . S
H2900 C2897 0.999 . S
H2901 C2882 0.913 . S
H2902 C2920 0.951 . S
H2903 C2922 0.951 . S
H2904 C2924 0.950 . S
H2905 C2925 0.950 . S
H2906 C2927 0.950 . S
H2907 C2930 0.950 . S
H2908 C2931 0.950 . S
H2909 C2933 0.950 . S
H2910 C2934 0.950 . S
H2911 C2935 0.951 . S
H2912 C2937 0.951 . S
H2913 C2939 0.950 . S
H2914 C2940 0.950 . S
H2915 C2942 0.950 . S
H2916 C2945 0.950 . S
H2917 C2946 0.950 . S
H2918 C2948 0.950 . S
H2919 C2949 0.950 . S
C2920 H2902 0.951 . S
C2920 C2921 1.366 . S
C2920 C2922 1.388 . S
C2921 C2920 1.366 . S
C2921 C2925 1.385 . S
C2922 H2903 0.951 . S
C2922 C2920 1.388 . S
C2922 C2923 1.366 . S
C2923 C2922 1.366 . S
C2923 C2924 1.414 . S
C2923 C2926 1.499 . S
C2924 H2904 0.950 . S
C2924 C2923 1.414 . S
C2924 C2925 1.374 . S
C2925 H2905 0.950 . S
C2925 C2921 1.385 . S
C2925 C2924 1.374 . S
C2926 C2923 1.499 . S
C2926 C2927 1.373 . S
C2926 C2928 1.389 . S
C2927 H2906 0.950 . S
C2927 C2926 1.373 . S
C2927 C2943 1.377 . S
C2928 C2926 1.389 . S
C2928 C2929 1.524 . S
C2928 C2942 1.377 . S
C2929 C2928 1.524 . S
C2929 C2930 1.397 . S
C2929 C2934 1.363 . S
C2930 H2907 0.950 . S
C2930 C2929 1.397 . S
C2930 C2931 1.334 . S
C2931 H2908 0.950 . S
C2931 C2930 1.334 . S
C2931 C2932 1.287 . S
C2932 C2931 1.287 . S
C2932 C2933 1.524 . S
C2932 H2951 0.913 . S
C2933 H2909 0.950 . S
C2933 C2932 1.524 . S
C2933 C2934 1.415 . S
C2934 H2910 0.950 . S
C2934 C2929 1.363 . S
C2934 C2933 1.415 . S
C2935 H2911 0.951 . S
C2935 C2936 1.366 . S
C2935 C2937 1.388 . S
C2936 C2935 1.366 . S
C2936 C2940 1.385 . S
C2937 H2912 0.951 . S
C2937 C2935 1.388 . S
C2937 C2938 1.366 . S
C2938 C2937 1.366 . S
C2938 C2939 1.414 . S
C2938 C2941 1.499 . S
C2939 H2913 0.950 . S
C2939 C2938 1.414 . S
C2939 C2940 1.374 . S
C2940 H2914 0.950 . S
C2940 C2936 1.385 . S
C2940 C2939 1.374 . S
C2941 C2938 1.499 . S
C2941 C2942 1.373 . S
C2941 C2943 1.389 . S
C2942 H2915 0.950 . S
C2942 C2928 1.377 . S
C2942 C2941 1.373 . S
C2943 C2927 1.377 . S
C2943 C2941 1.389 . S
C2943 C2944 1.524 . S
C2944 C2943 1.524 . S
C2944 C2945 1.397 . S
C2944 C2949 1.363 . S
C2945 H2916 0.950 . S
C2945 C2944 1.397 . S
C2945 C2946 1.334 . S
C2946 H2917 0.950 . S
C2946 C2945 1.334 . S
C2946 C2947 1.287 . S
C2947 C2946 1.287 . S
C2947 C2948 1.524 . S
C2947 H2950 0.999 . S
C2948 H2918 0.950 . S
C2948 C2947 1.524 . S
C2948 C2949 1.415 . S
C2949 H2919 0.950 . S
C2949 C2944 1.363 . S
C2949 C2948 1.415 . S
H2950 C2947 0.999 . S
H2951 C2932 0.913 . S
H2952 C2970 0.951 . S
H2953 C2972 0.951 . S
H2954 C2974 0.950 . S
H2955 C2975 0.950 . S
H2956 C2977 0.950 . S
H2957 C2980 0.950 . S
H2958 C2981 0.950 1_556 S
H2959 C2983 0.950 . S
H2960 C2984 0.950 . S
H2961 C2985 0.951 . S
H2962 C2987 0.951 . S
H2963 C2989 0.950 . S
H2964 C2990 0.950 . S
H2965 C2992 0.950 . S
H2966 C2995 0.950 . S
H2967 C2996 0.950 . S
H2968 C2998 0.950 . S
H2969 C2999 0.950 . S
C2970 H2952 0.951 . S
C2970 C2971 1.366 . S
C2970 C2972 1.388 . S
C2971 C2970 1.366 . S
C2971 C2975 1.385 . S
C2972 H2953 0.951 . S
C2972 C2970 1.388 . S
C2972 C2973 1.366 . S
C2973 C2972 1.366 . S
C2973 C2974 1.414 . S
C2973 C2976 1.499 . S
C2974 H2954 0.950 . S
C2974 C2973 1.414 . S
C2974 C2975 1.374 . S
C2975 H2955 0.950 . S
C2975 C2971 1.385 . S
C2975 C2974 1.374 . S
C2976 C2973 1.499 . S
C2976 C2977 1.373 . S
C2976 C2978 1.389 . S
C2977 H2956 0.950 . S
C2977 C2976 1.373 . S
C2977 C2993 1.377 . S
C2978 C2976 1.389 . S
C2978 C2979 1.524 . S
C2978 C2992 1.377 . S
C2979 C2978 1.524 . S
C2979 C2980 1.397 . S
C2979 C2984 1.363 . S
C2980 H2957 0.950 . S
C2980 C2979 1.397 . S
C2980 C2981 1.334 . S
C2981 H2958 0.950 1_554 S
C2981 C2980 1.334 . S
C2981 C2982 1.287 . S
C2982 C2981 1.287 . S
C2982 C2983 1.524 . S
C2982 H3001 0.913 . S
C2983 H2959 0.950 . S
C2983 C2982 1.524 . S
C2983 C2984 1.415 . S
C2984 H2960 0.950 . S
C2984 C2979 1.363 . S
C2984 C2983 1.415 . S
C2985 H2961 0.951 . S
C2985 C2986 1.366 . S
C2985 C2987 1.388 . S
C2986 C2985 1.366 . S
C2986 C2990 1.385 . S
C2987 H2962 0.951 . S
C2987 C2985 1.388 . S
C2987 C2988 1.366 . S
C2988 C2987 1.366 . S
C2988 C2989 1.414 . S
C2988 C2991 1.499 . S
C2989 H2963 0.950 . S
C2989 C2988 1.414 . S
C2989 C2990 1.374 . S
C2990 H2964 0.950 . S
C2990 C2986 1.385 . S
C2990 C2989 1.374 . S
C2991 C2988 1.499 . S
C2991 C2992 1.373 . S
C2991 C2993 1.389 . S
C2992 H2965 0.950 . S
C2992 C2978 1.377 . S
C2992 C2991 1.373 . S
C2993 C2977 1.377 . S
C2993 C2991 1.389 . S
C2993 C2994 1.524 . S
C2994 C2993 1.524 . S
C2994 C2995 1.397 . S
C2994 C2999 1.363 . S
C2995 H2966 0.950 . S
C2995 C2994 1.397 . S
C2995 C2996 1.334 . S
C2996 H2967 0.950 . S
C2996 C2995 1.334 . S
C2996 C2997 1.287 . S
C2997 C2996 1.287 . S
C2997 C2998 1.524 . S
C2997 H3000 0.999 . S
C2998 H2968 0.950 . S
C2998 C2997 1.524 . S
C2998 C2999 1.415 . S
C2999 H2969 0.950 . S
C2999 C2994 1.363 . S
C2999 C2998 1.415 . S
H3000 C2997 0.999 . S
H3001 C2982 0.913 . S
H3002 C3020 0.951 . S
H3003 C3022 0.951 . S
H3004 C3024 0.950 . S
H3005 C3025 0.950 . S
H3006 C3027 0.950 . S
H3007 C3030 0.950 . S
H3008 C3031 0.950 . S
H3009 C3033 0.946 . S
H3010 C3034 0.950 . S
H3011 C3035 0.951 . S
H3012 C3037 0.951 . S
H3013 C3039 0.950 . S
H3014 C3040 0.950 . S
H3015 C3042 0.950 . S
H3016 C3045 0.950 . S
H3017 C3046 0.950 . S
H3018 C3048 0.950 . S
H3019 C3049 0.950 . S
C3020 H3002 0.951 . S
C3020 C3021 1.366 . S
C3020 C3022 1.388 . S
C3021 C3020 1.366 . S
C3021 C3025 1.385 . S
C3022 H3003 0.951 . S
C3022 C3020 1.388 . S
C3022 C3023 1.366 . S
C3023 C3022 1.366 . S
C3023 C3024 1.414 . S
C3023 C3026 1.499 . S
C3024 H3004 0.950 . S
C3024 C3023 1.414 . S
C3024 C3025 1.374 . S
C3025 H3005 0.950 . S
C3025 C3021 1.385 . S
C3025 C3024 1.374 . S
C3026 C3023 1.499 . S
C3026 C3027 1.373 . S
C3026 C3028 1.389 . S
C3027 H3006 0.950 . S
C3027 C3026 1.373 . S
C3027 C3043 1.377 . S
C3028 C3026 1.389 . S
C3028 C3029 1.524 . S
C3028 C3042 1.377 . S
C3029 C3028 1.524 . S
C3029 C3030 1.397 . S
C3029 C3034 1.363 . S
C3030 H3007 0.950 . S
C3030 C3029 1.397 . S
C3030 C3031 1.334 . S
C3031 H3008 0.950 . S
C3031 C3030 1.334 . S
C3031 C3032 1.287 . S
C3032 C3031 1.287 . S
C3032 C3033 1.524 . S
C3032 H3051 0.913 1_554 S
C3033 H3009 0.946 . S
C3033 C3032 1.524 . S
C3033 C3034 1.415 . S
C3034 H3010 0.950 . S
C3034 C3029 1.363 . S
C3034 C3033 1.415 . S
C3035 H3011 0.951 . S
C3035 C3036 1.366 . S
C3035 C3037 1.388 . S
C3036 C3035 1.366 . S
C3036 C3040 1.385 . S
C3037 H3012 0.951 . S
C3037 C3035 1.388 . S
C3037 C3038 1.366 . S
C3038 C3037 1.366 . S
C3038 C3039 1.414 . S
C3038 C3041 1.499 . S
C3039 H3013 0.950 . S
C3039 C3038 1.414 . S
C3039 C3040 1.374 . S
C3040 H3014 0.950 . S
C3040 C3036 1.385 . S
C3040 C3039 1.374 . S
C3041 C3038 1.499 . S
C3041 C3042 1.373 . S
C3041 C3043 1.389 . S
C3042 H3015 0.950 . S
C3042 C3028 1.377 . S
C3042 C3041 1.373 . S
C3043 C3027 1.377 . S
C3043 C3041 1.389 . S
C3043 C3044 1.524 . S
C3044 C3043 1.524 . S
C3044 C3045 1.397 . S
C3044 C3049 1.363 . S
C3045 H3016 0.950 . S
C3045 C3044 1.397 . S
C3045 C3046 1.334 . S
C3046 H3017 0.950 . S
C3046 C3045 1.334 . S
C3046 C3047 1.287 . S
C3047 C3046 1.287 . S
C3047 C3048 1.524 . S
C3047 H3050 0.999 . S
C3048 H3018 0.950 . S
C3048 C3047 1.524 . S
C3048 C3049 1.415 . S
C3049 H3019 0.950 . S
C3049 C3044 1.363 . S
C3049 C3048 1.415 . S
H3050 C3047 0.999 . S
H3051 C3032 0.913 1_556 S
H3052 C3070 0.951 . S
H3053 C3072 0.951 . S
H3054 C3074 0.950 . S
H3055 C3075 0.950 . S
H3056 C3077 0.950 . S
H3057 C3080 0.950 . S
H3058 C3081 0.950 . S
H3059 C3083 0.950 . S
H3060 C3084 0.950 . S
H3061 C3085 0.951 . S
H3062 C3087 0.951 . S
H3063 C3089 0.950 . S
H3064 C3090 0.950 . S
H3065 C3092 0.950 . S
H3066 C3095 0.950 . S
H3067 C3096 0.950 . S
H3068 C3098 0.950 . S
H3069 C3099 0.950 . S
C3070 H3052 0.951 . S
C3070 C3071 1.366 . S
C3070 C3072 1.388 . S
C3071 C3070 1.366 . S
C3071 C3075 1.385 . S
C3072 H3053 0.951 . S
C3072 C3070 1.388 . S
C3072 C3073 1.366 . S
C3073 C3072 1.366 . S
C3073 C3074 1.414 . S
C3073 C3076 1.499 . S
C3074 H3054 0.950 . S
C3074 C3073 1.414 . S
C3074 C3075 1.374 . S
C3075 H3055 0.950 . S
C3075 C3071 1.385 . S
C3075 C3074 1.374 . S
C3076 C3073 1.499 . S
C3076 C3077 1.373 . S
C3076 C3078 1.389 . S
C3077 H3056 0.950 . S
C3077 C3076 1.373 . S
C3077 C3093 1.377 . S
C3078 C3076 1.389 . S
C3078 C3079 1.524 . S
C3078 C3092 1.377 . S
C3079 C3078 1.524 . S
C3079 C3080 1.397 . S
C3079 C3084 1.363 . S
C3080 H3057 0.950 . S
C3080 C3079 1.397 . S
C3080 C3081 1.334 . S
C3081 H3058 0.950 . S
C3081 C3080 1.334 . S
C3081 C3082 1.287 . S
C3082 C3081 1.287 . S
C3082 C3083 1.524 . S
C3082 H3101 0.913 . S
C3083 H3059 0.950 . S
C3083 C3082 1.524 . S
C3083 C3084 1.415 . S
C3084 H3060 0.950 . S
C3084 C3079 1.363 . S
C3084 C3083 1.415 . S
C3085 H3061 0.951 . S
C3085 C3086 1.366 . S
C3085 C3087 1.388 . S
C3086 C3085 1.366 . S
C3086 C3090 1.385 . S
C3087 H3062 0.951 . S
C3087 C3085 1.388 . S
C3087 C3088 1.366 . S
C3088 C3087 1.366 . S
C3088 C3089 1.414 . S
C3088 C3091 1.499 . S
C3089 H3063 0.950 . S
C3089 C3088 1.414 . S
C3089 C3090 1.374 . S
C3090 H3064 0.950 . S
C3090 C3086 1.385 . S
C3090 C3089 1.374 . S
C3091 C3088 1.499 . S
C3091 C3092 1.373 . S
C3091 C3093 1.389 . S
C3092 H3065 0.950 . S
C3092 C3078 1.377 . S
C3092 C3091 1.373 . S
C3093 C3077 1.377 . S
C3093 C3091 1.389 . S
C3093 C3094 1.524 . S
C3094 C3093 1.524 . S
C3094 C3095 1.397 . S
C3094 C3099 1.363 . S
C3095 H3066 0.950 . S
C3095 C3094 1.397 . S
C3095 C3096 1.334 . S
C3096 H3067 0.950 . S
C3096 C3095 1.334 . S
C3096 C3097 1.287 . S
C3097 C3096 1.287 . S
C3097 C3098 1.524 . S
C3097 H3100 0.999 . S
C3098 H3068 0.950 . S
C3098 C3097 1.524 . S
C3098 C3099 1.415 . S
C3099 H3069 0.950 . S
C3099 C3094 1.363 . S
C3099 C3098 1.415 . S
H3100 C3097 0.999 . S
H3101 C3082 0.913 . S
H3102 C3120 0.951 . S
H3103 C3122 0.951 . S
H3104 C3124 0.950 . S
H3105 C3125 0.950 . S
H3106 C3127 0.950 . S
H3107 C3130 0.950 . S
H3108 C3131 0.950 . S
H3109 C3133 0.950 . S
H3110 C3134 0.950 . S
H3111 C3135 0.951 . S
H3112 C3137 0.951 . S
H3113 C3139 0.950 . S
H3114 C3140 0.950 . S
H3115 C3142 0.950 . S
H3116 C3145 0.950 . S
H3117 C3146 0.950 . S
H3118 C3148 0.950 . S
H3119 C3149 0.950 . S
C3120 H3102 0.951 . S
C3120 C3121 1.366 . S
C3120 C3122 1.388 . S
C3121 C3120 1.366 . S
C3121 C3125 1.385 . S
C3122 H3103 0.951 . S
C3122 C3120 1.388 . S
C3122 C3123 1.366 . S
C3123 C3122 1.366 . S
C3123 C3124 1.414 . S
C3123 C3126 1.499 . S
C3124 H3104 0.950 . S
C3124 C3123 1.414 . S
C3124 C3125 1.374 . S
C3125 H3105 0.950 . S
C3125 C3121 1.385 . S
C3125 C3124 1.374 . S
C3126 C3123 1.499 . S
C3126 C3127 1.373 . S
C3126 C3128 1.389 . S
C3127 H3106 0.950 . S
C3127 C3126 1.373 . S
C3127 C3143 1.377 . S
C3128 C3126 1.389 . S
C3128 C3129 1.524 . S
C3128 C3142 1.377 . S
C3129 C3128 1.524 . S
C3129 C3130 1.397 . S
C3129 C3134 1.363 . S
C3130 H3107 0.950 . S
C3130 C3129 1.397 . S
C3130 C3131 1.334 . S
C3131 H3108 0.950 . S
C3131 C3130 1.334 . S
C3131 C3132 1.287 . S
C3132 C3131 1.287 . S
C3132 C3133 1.524 . S
C3132 H3151 0.913 . S
C3133 H3109 0.950 . S
C3133 C3132 1.524 . S
C3133 C3134 1.415 . S
C3134 H3110 0.950 . S
C3134 C3129 1.363 . S
C3134 C3133 1.415 . S
C3135 H3111 0.951 . S
C3135 C3136 1.366 . S
C3135 C3137 1.388 . S
C3136 C3135 1.366 . S
C3136 C3140 1.385 . S
C3137 H3112 0.951 . S
C3137 C3135 1.388 . S
C3137 C3138 1.366 . S
C3138 C3137 1.366 . S
C3138 C3139 1.414 . S
C3138 C3141 1.499 . S
C3139 H3113 0.950 . S
C3139 C3138 1.414 . S
C3139 C3140 1.374 . S
C3140 H3114 0.950 . S
C3140 C3136 1.385 . S
C3140 C3139 1.374 . S
C3141 C3138 1.499 . S
C3141 C3142 1.373 . S
C3141 C3143 1.389 . S
C3142 H3115 0.950 . S
C3142 C3128 1.377 . S
C3142 C3141 1.373 . S
C3143 C3127 1.377 . S
C3143 C3141 1.389 . S
C3143 C3144 1.524 . S
C3144 C3143 1.524 . S
C3144 C3145 1.397 . S
C3144 C3149 1.363 . S
C3145 H3116 0.950 . S
C3145 C3144 1.397 . S
C3145 C3146 1.334 . S
C3146 H3117 0.950 . S
C3146 C3145 1.334 . S
C3146 C3147 1.287 . S
C3147 C3146 1.287 . S
C3147 C3148 1.524 . S
C3147 H3150 0.999 . S
C3148 H3118 0.950 . S
C3148 C3147 1.524 . S
C3148 C3149 1.415 . S
C3149 H3119 0.950 . S
C3149 C3144 1.363 . S
C3149 C3148 1.415 . S
H3150 C3147 0.999 . S
H3151 C3132 0.913 . S
H3152 C3170 0.951 . S
H3153 C3172 0.951 . S
H3154 C3174 0.950 . S
H3155 C3175 0.950 . S
H3156 C3177 0.950 . S
H3157 C3180 0.950 . S
H3158 C3181 0.950 . S
H3159 C3183 0.950 . S
H3160 C3184 0.950 . S
H3161 C3185 0.951 . S
H3162 C3187 0.951 . S
H3163 C3189 0.950 . S
H3164 C3190 0.950 . S
H3165 C3192 0.950 . S
H3166 C3195 0.950 . S
H3167 C3196 0.950 . S
H3168 C3198 0.950 . S
H3169 C3199 0.950 . S
C3170 H3152 0.951 . S
C3170 C3171 1.366 . S
C3170 C3172 1.388 . S
C3171 C3170 1.366 . S
C3171 C3175 1.385 . S
C3172 H3153 0.951 . S
C3172 C3170 1.388 . S
C3172 C3173 1.366 . S
C3173 C3172 1.366 . S
C3173 C3174 1.414 . S
C3173 C3176 1.499 . S
C3174 H3154 0.950 . S
C3174 C3173 1.414 . S
C3174 C3175 1.374 . S
C3175 H3155 0.950 . S
C3175 C3171 1.385 . S
C3175 C3174 1.374 . S
C3176 C3173 1.499 . S
C3176 C3177 1.373 . S
C3176 C3178 1.389 . S
C3177 H3156 0.950 . S
C3177 C3176 1.373 . S
C3177 C3193 1.377 . S
C3178 C3176 1.389 . S
C3178 C3179 1.524 . S
C3178 C3192 1.377 . S
C3179 C3178 1.524 . S
C3179 C3180 1.397 . S
C3179 C3184 1.363 . S
C3180 H3157 0.950 . S
C3180 C3179 1.397 . S
C3180 C3181 1.334 . S
C3181 H3158 0.950 . S
C3181 C3180 1.334 . S
C3181 C3182 1.287 . S
C3182 C3181 1.287 . S
C3182 C3183 1.524 . S
C3182 H3201 0.913 . S
C3183 H3159 0.950 . S
C3183 C3182 1.524 . S
C3183 C3184 1.415 . S
C3184 H3160 0.950 . S
C3184 C3179 1.363 . S
C3184 C3183 1.415 . S
C3185 H3161 0.951 . S
C3185 C3186 1.366 . S
C3185 C3187 1.388 . S
C3186 C3185 1.366 . S
C3186 C3190 1.385 . S
C3187 H3162 0.951 . S
C3187 C3185 1.388 . S
C3187 C3188 1.366 . S
C3188 C3187 1.366 . S
C3188 C3189 1.414 . S
C3188 C3191 1.499 . S
C3189 H3163 0.950 . S
C3189 C3188 1.414 . S
C3189 C3190 1.374 . S
C3190 H3164 0.950 . S
C3190 C3186 1.385 . S
C3190 C3189 1.374 . S
C3191 C3188 1.499 . S
C3191 C3192 1.373 . S
C3191 C3193 1.389 . S
C3192 H3165 0.950 . S
C3192 C3178 1.377 . S
C3192 C3191 1.373 . S
C3193 C3177 1.377 . S
C3193 C3191 1.389 . S
C3193 C3194 1.524 . S
C3194 C3193 1.524 . S
C3194 C3195 1.397 . S
C3194 C3199 1.363 . S
C3195 H3166 0.950 . S
C3195 C3194 1.397 . S
C3195 C3196 1.334 . S
C3196 H3167 0.950 . S
C3196 C3195 1.334 . S
C3196 C3197 1.287 . S
C3197 C3196 1.287 . S
C3197 C3198 1.524 . S
C3197 H3200 0.999 . S
C3198 H3168 0.950 . S
C3198 C3197 1.524 . S
C3198 C3199 1.415 . S
C3199 H3169 0.950 . S
C3199 C3194 1.363 . S
C3199 C3198 1.415 . S
H3200 C3197 0.999 . S
H3201 C3182 0.913 . S
H3202 C3220 0.951 . S
H3203 C3222 0.951 . S
H3204 C3224 0.950 . S
H3205 C3225 0.950 . S
H3206 C3227 0.950 1_545 S
H3207 C3230 0.950 . S
H3208 C3231 0.950 . S
H3209 C3233 0.950 . S
H3210 C3234 0.950 . S
H3211 C3235 0.951 . S
H3212 C3237 0.966 . S
H3213 C3239 0.950 . S
H3214 C3240 0.950 . S
H3215 C3242 0.950 . S
H3216 C3245 0.950 . S
H3217 C3246 0.950 . S
H3218 C3248 0.950 . S
H3219 C3249 0.950 . S
C3220 H3202 0.951 . S
C3220 C3221 1.366 . S
C3220 C3222 1.388 . S
C3221 C3220 1.366 . S
C3221 C3225 1.385 . S
C3222 H3203 0.951 . S
C3222 C3220 1.388 . S
C3222 C3223 1.366 . S
C3223 C3222 1.366 . S
C3223 C3224 1.414 . S
C3223 C3226 1.499 . S
C3224 H3204 0.950 . S
C3224 C3223 1.414 . S
C3224 C3225 1.374 . S
C3225 H3205 0.950 . S
C3225 C3221 1.385 . S
C3225 C3224 1.374 . S
C3226 C3223 1.499 . S
C3226 C3227 1.373 . S
C3226 C3228 1.389 . S
C3227 H3206 0.950 1_565 S
C3227 C3226 1.373 . S
C3227 C3243 1.409 . S
C3228 C3226 1.389 . S
C3228 C3229 1.524 . S
C3228 C3242 1.377 . S
C3229 C3228 1.524 . S
C3229 C3230 1.397 . S
C3229 C3234 1.363 . S
C3230 H3207 0.950 . S
C3230 C3229 1.397 . S
C3230 C3231 1.334 . S
C3231 H3208 0.950 . S
C3231 C3230 1.334 . S
C3231 C3232 1.287 . S
C3232 C3231 1.287 . S
C3232 C3233 1.524 . S
C3232 H3251 0.913 . S
C3233 H3209 0.950 . S
C3233 C3232 1.524 . S
C3233 C3234 1.415 . S
C3234 H3210 0.950 . S
C3234 C3229 1.363 . S
C3234 C3233 1.415 . S
C3235 H3211 0.951 . S
C3235 C3236 1.357 1_545 S
C3235 C3237 1.416 . S
C3236 C3235 1.357 1_565 S
C3236 C3240 1.418 . S
C3237 H3212 0.966 . S
C3237 C3235 1.416 . S
C3237 C3238 1.326 1_545 S
C3238 C3237 1.326 1_565 S
C3238 C3239 1.414 . S
C3238 C3241 1.499 . S
C3239 H3213 0.950 . S
C3239 C3238 1.414 . S
C3239 C3240 1.374 . S
C3240 H3214 0.950 . S
C3240 C3236 1.418 . S
C3240 C3239 1.374 . S
C3241 C3238 1.499 . S
C3241 C3242 1.373 . S
C3241 C3243 1.424 . S
C3242 H3215 0.950 . S
C3242 C3228 1.377 . S
C3242 C3241 1.373 . S
C3243 C3227 1.409 . S
C3243 C3241 1.424 . S
C3243 C3244 1.458 1_565 S
C3244 C3243 1.458 1_545 S
C3244 C3245 1.397 . S
C3244 C3249 1.363 . S
C3245 H3216 0.950 . S
C3245 C3244 1.397 . S
C3245 C3246 1.334 . S
C3246 H3217 0.950 . S
C3246 C3245 1.334 . S
C3246 C3247 1.287 . S
C3247 C3246 1.287 . S
C3247 C3248 1.524 . S
C3247 H3250 0.999 . S
C3248 H3218 0.950 . S
C3248 C3247 1.524 . S
C3248 C3249 1.415 . S
C3249 H3219 0.950 . S
C3249 C3244 1.363 . S
C3249 C3248 1.415 . S
H3250 C3247 0.999 . S
H3251 C3232 0.913 . S
H3252 C3270 0.951 . S
H3253 C3272 0.951 . S
H3254 C3274 0.950 . S
H3255 C3275 0.950 . S
H3256 C3277 0.950 . S
H3257 C3280 0.950 . S
H3258 C3281 0.950 . S
H3259 C3283 0.950 . S
H3260 C3284 0.950 . S
H3261 C3285 0.951 . S
H3262 C3287 0.951 . S
H3263 C3289 0.950 . S
H3264 C3290 0.950 . S
H3265 C3292 0.950 . S
H3266 C3295 0.950 . S
H3267 C3296 0.950 . S
H3268 C3298 0.950 . S
H3269 C3299 0.950 . S
C3270 H3252 0.951 . S
C3270 C3271 1.366 . S
C3270 C3272 1.388 . S
C3271 C3270 1.366 . S
C3271 C3275 1.385 . S
C3272 H3253 0.951 . S
C3272 C3270 1.388 . S
C3272 C3273 1.366 . S
C3273 C3272 1.366 . S
C3273 C3274 1.414 . S
C3273 C3276 1.499 . S
C3274 H3254 0.950 . S
C3274 C3273 1.414 . S
C3274 C3275 1.374 . S
C3275 H3255 0.950 . S
C3275 C3271 1.385 . S
C3275 C3274 1.374 . S
C3276 C3273 1.499 . S
C3276 C3277 1.373 . S
C3276 C3278 1.389 . S
C3277 H3256 0.950 . S
C3277 C3276 1.373 . S
C3277 C3293 1.377 . S
C3278 C3276 1.389 . S
C3278 C3279 1.524 . S
C3278 C3292 1.377 . S
C3279 C3278 1.524 . S
C3279 C3280 1.397 . S
C3279 C3284 1.363 . S
C3280 H3257 0.950 . S
C3280 C3279 1.397 . S
C3280 C3281 1.334 . S
C3281 H3258 0.950 . S
C3281 C3280 1.334 . S
C3281 C3282 1.287 . S
C3282 C3281 1.287 . S
C3282 C3283 1.524 . S
C3282 H3301 0.913 . S
C3283 H3259 0.950 . S
C3283 C3282 1.524 . S
C3283 C3284 1.415 . S
C3284 H3260 0.950 . S
C3284 C3279 1.363 . S
C3284 C3283 1.415 . S
C3285 H3261 0.951 . S
C3285 C3286 1.366 . S
C3285 C3287 1.388 . S
C3286 C3285 1.366 . S
C3286 C3290 1.385 . S
C3287 H3262 0.951 . S
C3287 C3285 1.388 . S
C3287 C3288 1.366 . S
C3288 C3287 1.366 . S
C3288 C3289 1.414 . S
C3288 C3291 1.499 . S
C3289 H3263 0.950 . S
C3289 C3288 1.414 . S
C3289 C3290 1.374 . S
C3290 H3264 0.950 . S
C3290 C3286 1.385 . S
C3290 C3289 1.374 . S
C3291 C3288 1.499 . S
C3291 C3292 1.373 . S
C3291 C3293 1.389 . S
C3292 H3265 0.950 . S
C3292 C3278 1.377 . S
C3292 C3291 1.373 . S
C3293 C3277 1.377 . S
C3293 C3291 1.389 . S
C3293 C3294 1.524 . S
C3294 C3293 1.524 . S
C3294 C3295 1.397 . S
C3294 C3299 1.363 . S
C3295 H3266 0.950 . S
C3295 C3294 1.397 . S
C3295 C3296 1.334 . S
C3296 H3267 0.950 . S
C3296 C3295 1.334 . S
C3296 C3297 1.287 . S
C3297 C3296 1.287 . S
C3297 C3298 1.524 . S
C3297 H3300 0.999 . S
C3298 H3268 0.950 . S
C3298 C3297 1.524 . S
C3298 C3299 1.415 . S
C3299 H3269 0.950 . S
C3299 C3294 1.363 . S
C3299 C3298 1.415 . S
H3300 C3297 0.999 . S
H3301 C3282 0.913 . S
H3302 C3320 0.951 . S
H3303 C3322 0.951 . S
H3304 C3324 0.950 . S
H3305 C3325 0.950 . S
H3306 C3327 0.950 . S
H3307 C3330 0.950 . S
H3308 C3331 0.950 . S
H3309 C3333 0.950 . S
H3310 C3334 0.950 . S
H3311 C3335 0.951 . S
H3312 C3337 0.951 . S
H3313 C3339 0.950 . S
H3314 C3340 0.950 . S
H3315 C3342 0.950 . S
H3316 C3345 0.950 . S
H3317 C3346 0.950 . S
H3318 C3348 0.950 . S
H3319 C3349 0.950 . S
C3320 H3302 0.951 . S
C3320 C3321 1.366 . S
C3320 C3322 1.388 . S
C3321 C3320 1.366 . S
C3321 C3325 1.385 . S
C3322 H3303 0.951 . S
C3322 C3320 1.388 . S
C3322 C3323 1.366 . S
C3323 C3322 1.366 . S
C3323 C3324 1.414 . S
C3323 C3326 1.499 . S
C3324 H3304 0.950 . S
C3324 C3323 1.414 . S
C3324 C3325 1.374 . S
C3325 H3305 0.950 . S
C3325 C3321 1.385 . S
C3325 C3324 1.374 . S
C3326 C3323 1.499 . S
C3326 C3327 1.373 . S
C3326 C3328 1.389 . S
C3327 H3306 0.950 . S
C3327 C3326 1.373 . S
C3327 C3343 1.377 . S
C3328 C3326 1.389 . S
C3328 C3329 1.524 . S
C3328 C3342 1.377 . S
C3329 C3328 1.524 . S
C3329 C3330 1.397 . S
C3329 C3334 1.363 . S
C3330 H3307 0.950 . S
C3330 C3329 1.397 . S
C3330 C3331 1.334 . S
C3331 H3308 0.950 . S
C3331 C3330 1.334 . S
C3331 C3332 1.287 . S
C3332 C3331 1.287 . S
C3332 C3333 1.524 . S
C3332 H3351 0.913 . S
C3333 H3309 0.950 . S
C3333 C3332 1.524 . S
C3333 C3334 1.415 . S
C3334 H3310 0.950 . S
C3334 C3329 1.363 . S
C3334 C3333 1.415 . S
C3335 H3311 0.951 . S
C3335 C3336 1.366 . S
C3335 C3337 1.388 . S
C3336 C3335 1.366 . S
C3336 C3340 1.385 . S
C3337 H3312 0.951 . S
C3337 C3335 1.388 . S
C3337 C3338 1.366 . S
C3338 C3337 1.366 . S
C3338 C3339 1.414 . S
C3338 C3341 1.499 . S
C3339 H3313 0.950 . S
C3339 C3338 1.414 . S
C3339 C3340 1.374 . S
C3340 H3314 0.950 . S
C3340 C3336 1.385 . S
C3340 C3339 1.374 . S
C3341 C3338 1.499 . S
C3341 C3342 1.373 . S
C3341 C3343 1.389 . S
C3342 H3315 0.950 . S
C3342 C3328 1.377 . S
C3342 C3341 1.373 . S
C3343 C3327 1.377 . S
C3343 C3341 1.389 . S
C3343 C3344 1.524 . S
C3344 C3343 1.524 . S
C3344 C3345 1.397 . S
C3344 C3349 1.363 . S
C3345 H3316 0.950 . S
C3345 C3344 1.397 . S
C3345 C3346 1.334 . S
C3346 H3317 0.950 . S
C3346 C3345 1.334 . S
C3346 C3347 1.287 . S
C3347 C3346 1.287 . S
C3347 C3348 1.524 . S
C3347 H3350 0.999 . S
C3348 H3318 0.950 . S
C3348 C3347 1.524 . S
C3348 C3349 1.415 . S
C3349 H3319 0.950 . S
C3349 C3344 1.363 . S
C3349 C3348 1.415 . S
H3350 C3347 0.999 . S
H3351 C3332 0.913 . S
H3352 C3370 0.951 . S
H3353 C3372 0.951 . S
H3354 C3374 0.950 . S
H3355 C3375 0.950 . S
H3356 C3377 0.950 . S
H3357 C3380 0.950 . S
H3358 C3381 0.950 . S
H3359 C3383 0.950 . S
H3360 C3384 0.950 . S
H3361 C3385 0.951 . S
H3362 C3387 0.951 . S
H3363 C3389 0.950 . S
H3364 C3390 0.950 . S
H3365 C3392 0.950 . S
H3366 C3395 0.950 . S
H3367 C3396 0.950 . S
H3368 C3398 0.950 . S
H3369 C3399 0.950 . S
C3370 H3352 0.951 . S
C3370 C3371 1.366 . S
C3370 C3372 1.388 . S
C3371 C3370 1.366 . S
C3371 C3375 1.385 . S
C3372 H3353 0.951 . S
C3372 C3370 1.388 . S
C3372 C3373 1.366 . S
C3373 C3372 1.366 . S
C3373 C3374 1.414 . S
C3373 C3376 1.499 . S
C3374 H3354 0.950 . S
C3374 C3373 1.414 . S
C3374 C3375 1.374 . S
C3375 H3355 0.950 . S
C3375 C3371 1.385 . S
C3375 C3374 1.374 . S
C3376 C3373 1.499 . S
C3376 C3377 1.373 . S
C3376 C3378 1.389 . S
C3377 H3356 0.950 . S
C3377 C3376 1.373 . S
C3377 C3393 1.377 . S
C3378 C3376 1.389 . S
C3378 C3379 1.524 . S
C3378 C3392 1.377 . S
C3379 C3378 1.524 . S
C3379 C3380 1.397 . S
C3379 C3384 1.363 . S
C3380 H3357 0.950 . S
C3380 C3379 1.397 . S
C3380 C3381 1.334 . S
C3381 H3358 0.950 . S
C3381 C3380 1.334 . S
C3381 C3382 1.287 . S
C3382 C3381 1.287 . S
C3382 C3383 1.524 . S
C3382 H3401 0.913 . S
C3383 H3359 0.950 . S
C3383 C3382 1.524 . S
C3383 C3384 1.415 . S
C3384 H3360 0.950 . S
C3384 C3379 1.363 . S
C3384 C3383 1.415 . S
C3385 H3361 0.951 . S
C3385 C3386 1.366 . S
C3385 C3387 1.388 . S
C3386 C3385 1.366 . S
C3386 C3390 1.385 . S
C3387 H3362 0.951 . S
C3387 C3385 1.388 . S
C3387 C3388 1.366 . S
C3388 C3387 1.366 . S
C3388 C3389 1.414 . S
C3388 C3391 1.499 . S
C3389 H3363 0.950 . S
C3389 C3388 1.414 . S
C3389 C3390 1.374 . S
C3390 H3364 0.950 . S
C3390 C3386 1.385 . S
C3390 C3389 1.374 . S
C3391 C3388 1.499 . S
C3391 C3392 1.373 . S
C3391 C3393 1.389 . S
C3392 H3365 0.950 . S
C3392 C3378 1.377 . S
C3392 C3391 1.373 . S
C3393 C3377 1.377 . S
C3393 C3391 1.389 . S
C3393 C3394 1.524 . S
C3394 C3393 1.524 . S
C3394 C3395 1.397 . S
C3394 C3399 1.363 . S
C3395 H3366 0.950 . S
C3395 C3394 1.397 . S
C3395 C3396 1.334 . S
C3396 H3367 0.950 . S
C3396 C3395 1.334 . S
C3396 C3397 1.287 . S
C3397 C3396 1.287 . S
C3397 C3398 1.524 . S
C3397 H3400 0.999 . S
C3398 H3368 0.950 . S
C3398 C3397 1.524 . S
C3398 C3399 1.415 . S
C3399 H3369 0.950 . S
C3399 C3394 1.363 . S
C3399 C3398 1.415 . S
H3400 C3397 0.999 . S
H3401 C3382 0.913 . S
H3402 C3420 0.951 . S
H3403 C3422 0.951 . S
H3404 C3424 0.950 . S
H3405 C3425 0.950 . S
H3406 C3427 0.950 . S
H3407 C3430 0.950 . S
H3408 C3431 0.950 . S
H3409 C3433 0.950 . S
H3410 C3434 0.950 . S
H3411 C3435 0.951 . S
H3412 C3437 0.951 . S
H3413 C3439 0.950 . S
H3414 C3440 0.950 . S
H3415 C3442 0.950 . S
H3416 C3445 0.950 . S
H3417 C3446 0.950 . S
H3418 C3448 0.950 . S
H3419 C3449 0.950 . S
C3420 H3402 0.951 . S
C3420 C3421 1.366 . S
C3420 C3422 1.388 . S
C3421 C3420 1.366 . S
C3421 C3425 1.385 . S
C3422 H3403 0.951 . S
C3422 C3420 1.388 . S
C3422 C3423 1.366 . S
C3423 C3422 1.366 . S
C3423 C3424 1.414 . S
C3423 C3426 1.499 . S
C3424 H3404 0.950 . S
C3424 C3423 1.414 . S
C3424 C3425 1.374 . S
C3425 H3405 0.950 . S
C3425 C3421 1.385 . S
C3425 C3424 1.374 . S
C3426 C3423 1.499 . S
C3426 C3427 1.373 . S
C3426 C3428 1.389 . S
C3427 H3406 0.950 . S
C3427 C3426 1.373 . S
C3427 C3443 1.377 . S
C3428 C3426 1.389 . S
C3428 C3429 1.524 . S
C3428 C3442 1.377 . S
C3429 C3428 1.524 . S
C3429 C3430 1.397 . S
C3429 C3434 1.363 . S
C3430 H3407 0.950 . S
C3430 C3429 1.397 . S
C3430 C3431 1.334 . S
C3431 H3408 0.950 . S
C3431 C3430 1.334 . S
C3431 C3432 1.287 . S
C3432 C3431 1.287 . S
C3432 C3433 1.524 . S
C3432 H3451 0.913 . S
C3433 H3409 0.950 . S
C3433 C3432 1.524 . S
C3433 C3434 1.415 . S
C3434 H3410 0.950 . S
C3434 C3429 1.363 . S
C3434 C3433 1.415 . S
C3435 H3411 0.951 . S
C3435 C3436 1.366 . S
C3435 C3437 1.388 . S
C3436 C3435 1.366 . S
C3436 C3440 1.385 . S
C3437 H3412 0.951 . S
C3437 C3435 1.388 . S
C3437 C3438 1.366 . S
C3438 C3437 1.366 . S
C3438 C3439 1.414 . S
C3438 C3441 1.499 . S
C3439 H3413 0.950 . S
C3439 C3438 1.414 . S
C3439 C3440 1.374 . S
C3440 H3414 0.950 . S
C3440 C3436 1.385 . S
C3440 C3439 1.374 . S
C3441 C3438 1.499 . S
C3441 C3442 1.373 . S
C3441 C3443 1.389 . S
C3442 H3415 0.950 . S
C3442 C3428 1.377 . S
C3442 C3441 1.373 . S
C3443 C3427 1.377 . S
C3443 C3441 1.389 . S
C3443 C3444 1.524 . S
C3444 C3443 1.524 . S
C3444 C3445 1.397 . S
C3444 C3449 1.363 . S
C3445 H3416 0.950 . S
C3445 C3444 1.397 . S
C3445 C3446 1.334 . S
C3446 H3417 0.950 . S
C3446 C3445 1.334 . S
C3446 C3447 1.287 . S
C3447 C3446 1.287 . S
C3447 C3448 1.524 . S
C3447 H3450 0.999 . S
C3448 H3418 0.950 . S
C3448 C3447 1.524 . S
C3448 C3449 1.415 . S
C3449 H3419 0.950 . S
C3449 C3444 1.363 . S
C3449 C3448 1.415 . S
H3450 C3447 0.999 . S
H3451 C3432 0.913 . S
H3452 C3470 0.948 1_655 S
H3453 C3472 0.951 1_655 S
H3454 C3474 0.950 . S
H3455 C3475 0.950 . S
H3456 C3477 0.950 . S
H3457 C3480 0.950 . S
H3458 C3481 0.950 . S
H3459 C3483 0.950 . S
H3460 C3484 0.950 . S
H3461 C3485 0.951 . S
H3462 C3487 0.951 . S
H3463 C3489 0.950 1_556 S
H3464 C3490 0.950 . S
H3465 C3492 0.950 . S
H3466 C3495 0.950 1_655 S
H3467 C3496 0.983 . S
H3468 C3498 0.950 . S
H3469 C3499 0.950 . S
C3470 H3452 0.948 1_455 S
C3470 C3471 1.366 . S
C3470 C3472 1.388 . S
C3471 C3470 1.366 . S
C3471 C3475 1.385 . S
C3472 H3453 0.951 1_455 S
C3472 C3470 1.388 . S
C3472 C3473 1.366 . S
C3473 C3472 1.366 . S
C3473 C3474 1.414 . S
C3473 C3476 1.499 . S
C3474 H3454 0.950 . S
C3474 C3473 1.414 . S
C3474 C3475 1.374 . S
C3475 H3455 0.950 . S
C3475 C3471 1.385 . S
C3475 C3474 1.374 . S
C3476 C3473 1.499 . S
C3476 C3477 1.373 . S
C3476 C3478 1.389 . S
C3477 H3456 0.950 . S
C3477 C3476 1.373 . S
C3477 C3493 1.377 . S
C3478 C3476 1.389 . S
C3478 C3479 1.524 . S
C3478 C3492 1.377 . S
C3479 C3478 1.524 . S
C3479 C3480 1.397 . S
C3479 C3484 1.363 1_455 S
C3480 H3457 0.950 . S
C3480 C3479 1.397 . S
C3480 C3481 1.334 . S
C3481 H3458 0.950 . S
C3481 C3480 1.334 . S
C3481 C3482 1.287 . S
C3482 C3481 1.287 . S
C3482 C3483 1.524 1_455 S
C3482 H3501 0.913 . S
C3483 H3459 0.950 . S
C3483 C3482 1.524 1_655 S
C3483 C3484 1.415 . S
C3484 H3460 0.950 . S
C3484 C3479 1.363 1_655 S
C3484 C3483 1.415 . S
C3485 H3461 0.951 . S
C3485 C3486 1.366 . S
C3485 C3487 1.388 . S
C3486 C3485 1.366 . S
C3486 C3490 1.385 1_455 S
C3487 H3462 0.951 . S
C3487 C3485 1.388 . S
C3487 C3488 1.366 . S
C3488 C3487 1.366 . S
C3488 C3489 1.414 1_455 S
C3488 C3491 1.499 1_554 S
C3489 H3463 0.950 1_554 S
C3489 C3488 1.414 1_655 S
C3489 C3490 1.374 . S
C3490 H3464 0.950 . S
C3490 C3486 1.385 1_655 S
C3490 C3489 1.374 . S
C3491 C3488 1.499 1_556 S
C3491 C3492 1.373 . S
C3491 C3493 1.389 . S
C3492 H3465 0.950 . S
C3492 C3478 1.377 . S
C3492 C3491 1.373 . S
C3493 C3477 1.377 . S
C3493 C3491 1.389 . S
C3493 C3494 1.524 1_556 S
C3494 C3493 1.524 1_554 S
C3494 C3495 1.397 . S
C3494 C3499 1.363 . S
C3495 H3466 0.950 1_455 S
C3495 C3494 1.397 . S
C3495 C3496 1.334 . S
C3496 H3467 0.983 . S
C3496 C3495 1.334 . S
C3496 C3497 1.287 . S
C3497 C3496 1.287 . S
C3497 C3498 1.524 . S
C3497 H3500 0.999 . S
C3498 H3468 0.950 . S
C3498 C3497 1.524 . S
C3498 C3499 1.415 . S
C3499 H3469 0.950 . S
C3499 C3494 1.363 . S
C3499 C3498 1.415 . S
H3500 C3497 0.999 . S
H3501 C3482 0.913 . S
H3502 C3520 0.951 . S
H3503 C3522 0.951 . S
H3504 C3524 0.950 . S
H3505 C3525 0.950 . S
H3506 C3527 0.950 . S
H3507 C3530 0.950 . S
H3508 C3531 0.950 . S
H3509 C3533 0.950 . S
H3510 C3534 0.950 . S
H3511 C3535 0.951 . S
H3512 C3537 0.951 . S
H3513 C3539 0.950 . S
H3514 C3540 0.950 . S
H3515 C3542 0.950 . S
H3516 C3545 0.950 . S
H3517 C3546 0.950 . S
H3518 C3548 0.950 . S
H3519 C3549 0.950 . S
C3520 H3502 0.951 . S
C3520 C3521 1.366 . S
C3520 C3522 1.388 . S
C3521 C3520 1.366 . S
C3521 C3525 1.385 . S
C3522 H3503 0.951 . S
C3522 C3520 1.388 . S
C3522 C3523 1.366 . S
C3523 C3522 1.366 . S
C3523 C3524 1.414 . S
C3523 C3526 1.499 . S
C3524 H3504 0.950 . S
C3524 C3523 1.414 . S
C3524 C3525 1.374 . S
C3525 H3505 0.950 . S
C3525 C3521 1.385 . S
C3525 C3524 1.374 . S
C3526 C3523 1.499 . S
C3526 C3527 1.373 . S
C3526 C3528 1.389 . S
C3527 H3506 0.950 . S
C3527 C3526 1.373 . S
C3527 C3543 1.377 . S
C3528 C3526 1.389 . S
C3528 C3529 1.524 . S
C3528 C3542 1.377 . S
C3529 C3528 1.524 . S
C3529 C3530 1.397 . S
C3529 C3534 1.363 . S
C3530 H3507 0.950 . S
C3530 C3529 1.397 . S
C3530 C3531 1.334 . S
C3531 H3508 0.950 . S
C3531 C3530 1.334 . S
C3531 C3532 1.287 . S
C3532 C3531 1.287 . S
C3532 C3533 1.524 . S
C3532 H3551 0.913 . S
C3533 H3509 0.950 . S
C3533 C3532 1.524 . S
C3533 C3534 1.415 . S
C3534 H3510 0.950 . S
C3534 C3529 1.363 . S
C3534 C3533 1.415 . S
C3535 H3511 0.951 . S
C3535 C3536 1.366 . S
C3535 C3537 1.388 . S
C3536 C3535 1.366 . S
C3536 C3540 1.385 . S
C3537 H3512 0.951 . S
C3537 C3535 1.388 . S
C3537 C3538 1.366 . S
C3538 C3537 1.366 . S
C3538 C3539 1.414 . S
C3538 C3541 1.499 . S
C3539 H3513 0.950 . S
C3539 C3538 1.414 . S
C3539 C3540 1.374 . S
C3540 H3514 0.950 . S
C3540 C3536 1.385 . S
C3540 C3539 1.374 . S
C3541 C3538 1.499 . S
C3541 C3542 1.373 . S
C3541 C3543 1.389 . S
C3542 H3515 0.950 . S
C3542 C3528 1.377 . S
C3542 C3541 1.373 . S
C3543 C3527 1.377 . S
C3543 C3541 1.389 . S
C3543 C3544 1.524 . S
C3544 C3543 1.524 . S
C3544 C3545 1.397 . S
C3544 C3549 1.363 . S
C3545 H3516 0.950 . S
C3545 C3544 1.397 . S
C3545 C3546 1.334 . S
C3546 H3517 0.950 . S
C3546 C3545 1.334 . S
C3546 C3547 1.287 . S
C3547 C3546 1.287 . S
C3547 C3548 1.524 . S
C3547 H3550 0.999 . S
C3548 H3518 0.950 . S
C3548 C3547 1.524 . S
C3548 C3549 1.415 . S
C3549 H3519 0.950 . S
C3549 C3544 1.363 . S
C3549 C3548 1.415 . S
H3550 C3547 0.999 . S
H3551 C3532 0.913 . S
H3552 C3570 0.951 . S
H3553 C3572 0.951 . S
H3554 C3574 0.950 . S
H3555 C3575 0.950 . S
H3556 C3577 0.950 . S
H3557 C3580 0.950 . S
H3558 C3581 0.950 . S
H3559 C3583 0.950 . S
H3560 C3584 0.950 . S
H3561 C3585 0.951 . S
H3562 C3587 0.951 . S
H3563 C3589 0.950 . S
H3564 C3590 0.950 . S
H3565 C3592 0.950 . S
H3566 C3595 0.950 . S
H3567 C3596 0.950 . S
H3568 C3598 0.950 . S
H3569 C3599 0.950 . S
C3570 H3552 0.951 . S
C3570 C3571 1.366 . S
C3570 C3572 1.388 . S
C3571 C3570 1.366 . S
C3571 C3575 1.385 . S
C3572 H3553 0.951 . S
C3572 C3570 1.388 . S
C3572 C3573 1.366 . S
C3573 C3572 1.366 . S
C3573 C3574 1.414 . S
C3573 C3576 1.499 . S
C3574 H3554 0.950 . S
C3574 C3573 1.414 . S
C3574 C3575 1.374 . S
C3575 H3555 0.950 . S
C3575 C3571 1.385 . S
C3575 C3574 1.374 . S
C3576 C3573 1.499 . S
C3576 C3577 1.373 . S
C3576 C3578 1.389 . S
C3577 H3556 0.950 . S
C3577 C3576 1.373 . S
C3577 C3593 1.377 . S
C3578 C3576 1.389 . S
C3578 C3579 1.524 . S
C3578 C3592 1.377 . S
C3579 C3578 1.524 . S
C3579 C3580 1.397 . S
C3579 C3584 1.363 . S
C3580 H3557 0.950 . S
C3580 C3579 1.397 . S
C3580 C3581 1.334 . S
C3581 H3558 0.950 . S
C3581 C3580 1.334 . S
C3581 C3582 1.287 . S
C3582 C3581 1.287 . S
C3582 C3583 1.524 . S
C3582 H3601 0.913 . S
C3583 H3559 0.950 . S
C3583 C3582 1.524 . S
C3583 C3584 1.415 . S
C3584 H3560 0.950 . S
C3584 C3579 1.363 . S
C3584 C3583 1.415 . S
C3585 H3561 0.951 . S
C3585 C3586 1.366 . S
C3585 C3587 1.388 . S
C3586 C3585 1.366 . S
C3586 C3590 1.385 . S
C3587 H3562 0.951 . S
C3587 C3585 1.388 . S
C3587 C3588 1.366 . S
C3588 C3587 1.366 . S
C3588 C3589 1.414 . S
C3588 C3591 1.499 . S
C3589 H3563 0.950 . S
C3589 C3588 1.414 . S
C3589 C3590 1.374 . S
C3590 H3564 0.950 . S
C3590 C3586 1.385 . S
C3590 C3589 1.374 . S
C3591 C3588 1.499 . S
C3591 C3592 1.373 . S
C3591 C3593 1.389 . S
C3592 H3565 0.950 . S
C3592 C3578 1.377 . S
C3592 C3591 1.373 . S
C3593 C3577 1.377 . S
C3593 C3591 1.389 . S
C3593 C3594 1.524 . S
C3594 C3593 1.524 . S
C3594 C3595 1.397 . S
C3594 C3599 1.363 . S
C3595 H3566 0.950 . S
C3595 C3594 1.397 . S
C3595 C3596 1.334 . S
C3596 H3567 0.950 . S
C3596 C3595 1.334 . S
C3596 C3597 1.287 . S
C3597 C3596 1.287 . S
C3597 C3598 1.524 . S
C3597 H3600 0.999 . S
C3598 H3568 0.950 . S
C3598 C3597 1.524 . S
C3598 C3599 1.415 . S
C3599 H3569 0.950 . S
C3599 C3594 1.363 . S
C3599 C3598 1.415 . S
H3600 C3597 0.999 . S
H3601 C3582 0.913 . S
H3602 C3620 0.951 . S
H3603 C3622 0.951 . S
H3604 C3624 0.950 . S
H3605 C3625 0.964 . S
H3606 C3627 0.950 . S
H3607 C3630 0.950 . S
H3608 C3631 0.950 . S
H3609 C3633 0.950 . S
H3610 C3634 0.950 . S
H3611 C3635 0.951 . S
H3612 C3637 0.951 . S
H3613 C3639 0.950 . S
H3614 C3640 0.950 . S
H3615 C3642 0.950 . S
H3616 C3645 0.950 . S
H3617 C3646 0.950 . S
H3618 C3648 0.950 . S
H3619 C3649 0.950 . S
C3620 H3602 0.951 . S
C3620 C3621 1.366 1_655 S
C3620 C3622 1.388 . S
C3621 C3620 1.366 1_455 S
C3621 C3625 1.385 . S
C3622 H3603 0.951 . S
C3622 C3620 1.388 . S
C3622 C3623 1.366 . S
C3623 C3622 1.366 . S
C3623 C3624 1.414 . S
C3623 C3626 1.499 . S
C3624 H3604 0.950 . S
C3624 C3623 1.414 . S
C3624 C3625 1.359 1_655 S
C3625 H3605 0.964 . S
C3625 C3621 1.385 . S
C3625 C3624 1.359 1_455 S
C3626 C3623 1.499 . S
C3626 C3627 1.373 . S
C3626 C3628 1.389 . S
C3627 H3606 0.950 . S
C3627 C3626 1.373 . S
C3627 C3643 1.377 . S
C3628 C3626 1.389 . S
C3628 C3629 1.524 . S
C3628 C3642 1.377 . S
C3629 C3628 1.524 . S
C3629 C3630 1.397 . S
C3629 C3634 1.363 . S
C3630 H3607 0.950 . S
C3630 C3629 1.397 . S
C3630 C3631 1.334 . S
C3631 H3608 0.950 . S
C3631 C3630 1.334 . S
C3631 C3632 1.287 . S
C3632 C3631 1.287 . S
C3632 C3633 1.524 . S
C3632 H3651 0.913 . S
C3633 H3609 0.950 . S
C3633 C3632 1.524 . S
C3633 C3634 1.415 . S
C3634 H3610 0.950 . S
C3634 C3629 1.363 . S
C3634 C3633 1.415 . S
C3635 H3611 0.951 . S
C3635 C3636 1.366 . S
C3635 C3637 1.388 . S
C3636 C3635 1.366 . S
C3636 C3640 1.385 . S
C3637 H3612 0.951 . S
C3637 C3635 1.388 . S
C3637 C3638 1.366 . S
C3638 C3637 1.366 . S
C3638 C3639 1.414 . S
C3638 C3641 1.499 . S
C3639 H3613 0.950 . S
C3639 C3638 1.414 . S
C3639 C3640 1.374 . S
C3640 H3614 0.950 . S
C3640 C3636 1.385 . S
C3640 C3639 1.374 . S
C3641 C3638 1.499 . S
C3641 C3642 1.373 . S
C3641 C3643 1.389 . S
C3642 H3615 0.950 . S
C3642 C3628 1.377 . S
C3642 C3641 1.373 . S
C3643 C3627 1.377 . S
C3643 C3641 1.389 . S
C3643 C3644 1.524 . S
C3644 C3643 1.524 . S
C3644 C3645 1.397 . S
C3644 C3649 1.363 . S
C3645 H3616 0.950 . S
C3645 C3644 1.397 . S
C3645 C3646 1.334 . S
C3646 H3617 0.950 . S
C3646 C3645 1.334 . S
C3646 C3647 1.287 . S
C3647 C3646 1.287 . S
C3647 C3648 1.524 . S
C3647 H3650 0.999 . S
C3648 H3618 0.950 . S
C3648 C3647 1.524 . S
C3648 C3649 1.415 . S
C3649 H3619 0.950 . S
C3649 C3644 1.363 . S
C3649 C3648 1.415 . S
H3650 C3647 0.999 . S
H3651 C3632 0.913 . S
H3652 C3670 0.951 . S
H3653 C3672 0.951 . S
H3654 C3674 0.950 . S
H3655 C3675 0.950 . S
H3656 C3677 0.950 . S
H3657 C3680 0.950 . S
H3658 C3681 0.950 . S
H3659 C3683 0.950 . S
H3660 C3684 0.950 . S
H3661 C3685 0.951 . S
H3662 C3687 0.954 . S
H3663 C3689 0.950 . S
H3664 C3690 0.947 . S
H3665 C3692 0.950 . S
H3666 C3695 0.950 . S
H3667 C3696 0.950 . S
H3668 C3698 0.950 . S
H3669 C3699 0.950 . S
C3670 H3652 0.951 . S
C3670 C3671 1.366 . S
C3670 C3672 1.388 . S
C3671 C3670 1.366 . S
C3671 C3675 1.385 . S
C3672 H3653 0.951 . S
C3672 C3670 1.388 . S
C3672 C3673 1.366 . S
C3673 C3672 1.366 . S
C3673 C3674 1.414 . S
C3673 C3676 1.499 . S
C3674 H3654 0.950 . S
C3674 C3673 1.414 . S
C3674 C3675 1.374 . S
C3675 H3655 0.950 . S
C3675 C3671 1.385 . S
C3675 C3674 1.374 . S
C3676 C3673 1.499 . S
C3676 C3677 1.373 . S
C3676 C3678 1.389 1_655 S
C3677 H3656 0.950 . S
C3677 C3676 1.373 . S
C3677 C3693 1.377 . S
C3678 C3676 1.389 1_455 S
C3678 C3679 1.524 . S
C3678 C3692 1.377 . S
C3679 C3678 1.524 . S
C3679 C3680 1.397 . S
C3679 C3684 1.363 . S
C3680 H3657 0.950 . S
C3680 C3679 1.397 . S
C3680 C3681 1.334 . S
C3681 H3658 0.950 . S
C3681 C3680 1.334 . S
C3681 C3682 1.287 . S
C3682 C3681 1.287 . S
C3682 C3683 1.524 . S
C3682 H3701 0.913 . S
C3683 H3659 0.950 . S
C3683 C3682 1.524 . S
C3683 C3684 1.415 . S
C3684 H3660 0.950 . S
C3684 C3679 1.363 . S
C3684 C3683 1.415 . S
C3685 H3661 0.951 . S
C3685 C3686 1.366 . S
C3685 C3687 1.387 . S
C3686 C3685 1.366 . S
C3686 C3690 1.373 1_455 S
C3687 H3662 0.954 . S
C3687 C3685 1.387 . S
C3687 C3688 1.366 1_455 S
C3688 C3687 1.366 1_655 S
C3688 C3689 1.414 . S
C3688 C3691 1.499 . S
C3689 H3663 0.950 . S
C3689 C3688 1.414 . S
C3689 C3690 1.393 . S
C3690 H3664 0.947 . S
C3690 C3686 1.373 1_655 S
C3690 C3689 1.393 . S
C3691 C3688 1.499 . S
C3691 C3692 1.373 1_655 S
C3691 C3693 1.389 . S
C3692 H3665 0.950 . S
C3692 C3678 1.377 . S
C3692 C3691 1.373 1_455 S
C3693 C3677 1.377 . S
C3693 C3691 1.389 . S
C3693 C3694 1.524 . S
C3694 C3693 1.524 . S
C3694 C3695 1.397 . S
C3694 C3699 1.363 . S
C3695 H3666 0.950 . S
C3695 C3694 1.397 . S
C3695 C3696 1.334 . S
C3696 H3667 0.950 . S
C3696 C3695 1.334 . S
C3696 C3697 1.287 . S
C3697 C3696 1.287 . S
C3697 C3698 1.524 . S
C3697 H3700 0.999 . S
C3698 H3668 0.950 . S
C3698 C3697 1.524 . S
C3698 C3699 1.415 . S
C3699 H3669 0.950 . S
C3699 C3694 1.363 . S
C3699 C3698 1.415 . S
H3700 C3697 0.999 . S
H3701 C3682 0.913 . S
H3702 C3720 0.951 . S
H3703 C3722 0.951 . S
H3704 C3724 0.950 . S
H3705 C3725 0.950 . S
H3706 C3727 0.950 . S
H3707 C3730 0.950 . S
H3708 C3731 0.950 . S
H3709 C3733 0.950 . S
H3710 C3734 0.950 . S
H3711 C3735 0.951 . S
H3712 C3737 0.951 . S
H3713 C3739 0.950 . S
H3714 C3740 0.950 . S
H3715 C3742 0.950 . S
H3716 C3745 0.950 . S
H3717 C3746 0.950 . S
H3718 C3748 0.950 . S
H3719 C3749 0.950 . S
C3720 H3702 0.951 . S
C3720 C3721 1.366 . S
C3720 C3722 1.388 . S
C3721 C3720 1.366 . S
C3721 C3725 1.385 . S
C3722 H3703 0.951 . S
C3722 C3720 1.388 . S
C3722 C3723 1.366 . S
C3723 C3722 1.366 . S
C3723 C3724 1.414 . S
C3723 C3726 1.499 . S
C3724 H3704 0.950 . S
C3724 C3723 1.414 . S
C3724 C3725 1.374 . S
C3725 H3705 0.950 . S
C3725 C3721 1.385 . S
C3725 C3724 1.374 . S
C3726 C3723 1.499 . S
C3726 C3727 1.373 . S
C3726 C3728 1.389 . S
C3727 H3706 0.950 . S
C3727 C3726 1.373 . S
C3727 C3743 1.377 . S
C3728 C3726 1.389 . S
C3728 C3729 1.524 . S
C3728 C3742 1.377 . S
C3729 C3728 1.524 . S
C3729 C3730 1.397 . S
C3729 C3734 1.363 . S
C3730 H3707 0.950 . S
C3730 C3729 1.397 . S
C3730 C3731 1.334 . S
C3731 H3708 0.950 . S
C3731 C3730 1.334 . S
C3731 C3732 1.287 . S
C3732 C3731 1.287 . S
C3732 C3733 1.524 . S
C3732 H3751 0.913 . S
C3733 H3709 0.950 . S
C3733 C3732 1.524 . S
C3733 C3734 1.415 . S
C3734 H3710 0.950 . S
C3734 C3729 1.363 . S
C3734 C3733 1.415 . S
C3735 H3711 0.951 . S
C3735 C3736 1.366 . S
C3735 C3737 1.388 . S
C3736 C3735 1.366 . S
C3736 C3740 1.385 . S
C3737 H3712 0.951 . S
C3737 C3735 1.388 . S
C3737 C3738 1.366 . S
C3738 C3737 1.366 . S
C3738 C3739 1.414 . S
C3738 C3741 1.499 . S
C3739 H3713 0.950 . S
C3739 C3738 1.414 . S
C3739 C3740 1.374 . S
C3740 H3714 0.950 . S
C3740 C3736 1.385 . S
C3740 C3739 1.374 . S
C3741 C3738 1.499 . S
C3741 C3742 1.373 . S
C3741 C3743 1.389 . S
C3742 H3715 0.950 . S
C3742 C3728 1.377 . S
C3742 C3741 1.373 . S
C3743 C3727 1.377 . S
C3743 C3741 1.389 . S
C3743 C3744 1.524 . S
C3744 C3743 1.524 . S
C3744 C3745 1.397 . S
C3744 C3749 1.363 . S
C3745 H3716 0.950 . S
C3745 C3744 1.397 . S
C3745 C3746 1.334 . S
C3746 H3717 0.950 . S
C3746 C3745 1.334 . S
C3746 C3747 1.287 . S
C3747 C3746 1.287 . S
C3747 C3748 1.524 . S
C3747 H3750 0.999 . S
C3748 H3718 0.950 . S
C3748 C3747 1.524 . S
C3748 C3749 1.415 . S
C3749 H3719 0.950 . S
C3749 C3744 1.363 . S
C3749 C3748 1.415 . S
H3750 C3747 0.999 . S
H3751 C3732 0.913 . S
H3752 C3770 0.951 . S
H3753 C3772 0.951 . S
H3754 C3774 0.950 . S
H3755 C3775 0.950 . S
H3756 C3777 0.950 . S
H3757 C3780 0.950 . S
H3758 C3781 0.950 . S
H3759 C3783 0.950 . S
H3760 C3784 0.950 . S
H3761 C3785 0.951 . S
H3762 C3787 0.951 . S
H3763 C3789 0.950 . S
H3764 C3790 0.950 . S
H3765 C3792 0.950 . S
H3766 C3795 0.950 . S
H3767 C3796 0.950 . S
H3768 C3798 0.950 . S
H3769 C3799 0.950 . S
C3770 H3752 0.951 . S
C3770 C3771 1.366 . S
C3770 C3772 1.388 . S
C3771 C3770 1.366 . S
C3771 C3775 1.385 . S
C3772 H3753 0.951 . S
C3772 C3770 1.388 . S
C3772 C3773 1.366 . S
C3773 C3772 1.366 . S
C3773 C3774 1.414 . S
C3773 C3776 1.499 . S
C3774 H3754 0.950 . S
C3774 C3773 1.414 . S
C3774 C3775 1.374 . S
C3775 H3755 0.950 . S
C3775 C3771 1.385 . S
C3775 C3774 1.374 . S
C3776 C3773 1.499 . S
C3776 C3777 1.373 . S
C3776 C3778 1.389 . S
C3777 H3756 0.950 . S
C3777 C3776 1.373 . S
C3777 C3793 1.377 . S
C3778 C3776 1.389 . S
C3778 C3779 1.524 . S
C3778 C3792 1.377 . S
C3779 C3778 1.524 . S
C3779 C3780 1.397 . S
C3779 C3784 1.363 . S
C3780 H3757 0.950 . S
C3780 C3779 1.397 . S
C3780 C3781 1.334 . S
C3781 H3758 0.950 . S
C3781 C3780 1.334 . S
C3781 C3782 1.287 . S
C3782 C3781 1.287 . S
C3782 C3783 1.524 . S
C3782 H3801 0.913 . S
C3783 H3759 0.950 . S
C3783 C3782 1.524 . S
C3783 C3784 1.415 . S
C3784 H3760 0.950 . S
C3784 C3779 1.363 . S
C3784 C3783 1.415 . S
C3785 H3761 0.951 . S
C3785 C3786 1.366 . S
C3785 C3787 1.388 . S
C3786 C3785 1.366 . S
C3786 C3790 1.385 . S
C3787 H3762 0.951 . S
C3787 C3785 1.388 . S
C3787 C3788 1.366 . S
C3788 C3787 1.366 . S
C3788 C3789 1.414 . S
C3788 C3791 1.499 . S
C3789 H3763 0.950 . S
C3789 C3788 1.414 . S
C3789 C3790 1.374 . S
C3790 H3764 0.950 . S
C3790 C3786 1.385 . S
C3790 C3789 1.374 . S
C3791 C3788 1.499 . S
C3791 C3792 1.373 . S
C3791 C3793 1.389 . S
C3792 H3765 0.950 . S
C3792 C3778 1.377 . S
C3792 C3791 1.373 . S
C3793 C3777 1.377 . S
C3793 C3791 1.389 . S
C3793 C3794 1.524 . S
C3794 C3793 1.524 . S
C3794 C3795 1.397 . S
C3794 C3799 1.363 . S
C3795 H3766 0.950 . S
C3795 C3794 1.397 . S
C3795 C3796 1.334 . S
C3796 H3767 0.950 . S
C3796 C3795 1.334 . S
C3796 C3797 1.287 . S
C3797 C3796 1.287 . S
C3797 C3798 1.524 . S
C3797 H3800 0.999 . S
C3798 H3768 0.950 . S
C3798 C3797 1.524 . S
C3798 C3799 1.415 . S
C3799 H3769 0.950 . S
C3799 C3794 1.363 . S
C3799 C3798 1.415 . S
H3800 C3797 0.999 . S
H3801 C3782 0.913 . S
H3802 C3820 0.951 . S
H3803 C3822 0.951 . S
H3804 C3824 0.950 . S
H3805 C3825 0.950 . S
H3806 C3827 0.950 . S
H3807 C3830 0.950 . S
H3808 C3831 0.950 . S
H3809 C3833 0.950 . S
H3810 C3834 0.950 . S
H3811 C3835 0.951 . S
H3812 C3837 0.951 . S
H3813 C3839 0.950 . S
H3814 C3840 0.950 . S
H3815 C3842 0.950 . S
H3816 C3845 0.950 . S
H3817 C3846 0.950 . S
H3818 C3848 0.950 . S
H3819 C3849 0.950 . S
C3820 H3802 0.951 . S
C3820 C3821 1.366 . S
C3820 C3822 1.388 . S
C3821 C3820 1.366 . S
C3821 C3825 1.385 . S
C3822 H3803 0.951 . S
C3822 C3820 1.388 . S
C3822 C3823 1.366 . S
C3823 C3822 1.366 . S
C3823 C3824 1.414 . S
C3823 C3826 1.499 . S
C3824 H3804 0.950 . S
C3824 C3823 1.414 . S
C3824 C3825 1.374 . S
C3825 H3805 0.950 . S
C3825 C3821 1.385 . S
C3825 C3824 1.374 . S
C3826 C3823 1.499 . S
C3826 C3827 1.373 . S
C3826 C3828 1.389 . S
C3827 H3806 0.950 . S
C3827 C3826 1.373 . S
C3827 C3843 1.377 . S
C3828 C3826 1.389 . S
C3828 C3829 1.524 . S
C3828 C3842 1.377 . S
C3829 C3828 1.524 . S
C3829 C3830 1.397 . S
C3829 C3834 1.363 . S
C3830 H3807 0.950 . S
C3830 C3829 1.397 . S
C3830 C3831 1.334 . S
C3831 H3808 0.950 . S
C3831 C3830 1.334 . S
C3831 C3832 1.287 . S
C3832 C3831 1.287 . S
C3832 C3833 1.524 . S
C3832 H3851 0.913 . S
C3833 H3809 0.950 . S
C3833 C3832 1.524 . S
C3833 C3834 1.415 . S
C3834 H3810 0.950 . S
C3834 C3829 1.363 . S
C3834 C3833 1.415 . S
C3835 H3811 0.951 . S
C3835 C3836 1.366 . S
C3835 C3837 1.388 . S
C3836 C3835 1.366 . S
C3836 C3840 1.385 . S
C3837 H3812 0.951 . S
C3837 C3835 1.388 . S
C3837 C3838 1.366 . S
C3838 C3837 1.366 . S
C3838 C3839 1.414 . S
C3838 C3841 1.499 . S
C3839 H3813 0.950 . S
C3839 C3838 1.414 . S
C3839 C3840 1.374 . S
C3840 H3814 0.950 . S
C3840 C3836 1.385 . S
C3840 C3839 1.374 . S
C3841 C3838 1.499 . S
C3841 C3842 1.373 . S
C3841 C3843 1.389 . S
C3842 H3815 0.950 . S
C3842 C3828 1.377 . S
C3842 C3841 1.373 . S
C3843 C3827 1.377 . S
C3843 C3841 1.389 . S
C3843 C3844 1.524 . S
C3844 C3843 1.524 . S
C3844 C3845 1.397 . S
C3844 C3849 1.363 . S
C3845 H3816 0.950 . S
C3845 C3844 1.397 . S
C3845 C3846 1.334 . S
C3846 H3817 0.950 . S
C3846 C3845 1.334 . S
C3846 C3847 1.287 . S
C3847 C3846 1.287 . S
C3847 C3848 1.524 . S
C3847 H3850 0.999 . S
C3848 H3818 0.950 . S
C3848 C3847 1.524 . S
C3848 C3849 1.415 . S
C3849 H3819 0.950 . S
C3849 C3844 1.363 . S
C3849 C3848 1.415 . S
H3850 C3847 0.999 . S
H3851 C3832 0.913 . S
H3852 C3870 0.951 . S
H3853 C3872 0.951 . S
H3854 C3874 0.950 . S
H3855 C3875 0.950 . S
H3856 C3877 0.950 . S
H3857 C3880 0.950 . S
H3858 C3881 0.950 . S
H3859 C3883 0.950 . S
H3860 C3884 0.950 . S
H3861 C3885 0.951 . S
H3862 C3887 0.951 . S
H3863 C3889 0.950 . S
H3864 C3890 0.950 1_655 S
H3865 C3892 0.950 . S
H3866 C3895 0.950 . S
H3867 C3896 0.950 . S
H3868 C3898 0.950 . S
H3869 C3899 0.950 . S
C3870 H3852 0.951 . S
C3870 C3871 1.366 . S
C3870 C3872 1.388 . S
C3871 C3870 1.366 . S
C3871 C3875 1.385 . S
C3872 H3853 0.951 . S
C3872 C3870 1.388 . S
C3872 C3873 1.366 . S
C3873 C3872 1.366 . S
C3873 C3874 1.414 . S
C3873 C3876 1.499 . S
C3874 H3854 0.950 . S
C3874 C3873 1.414 . S
C3874 C3875 1.374 . S
C3875 H3855 0.950 . S
C3875 C3871 1.385 . S
C3875 C3874 1.374 . S
C3876 C3873 1.499 . S
C3876 C3877 1.373 . S
C3876 C3878 1.389 . S
C3877 H3856 0.950 . S
C3877 C3876 1.373 . S
C3877 C3893 1.377 . S
C3878 C3876 1.389 . S
C3878 C3879 1.524 . S
C3878 C3892 1.377 . S
C3879 C3878 1.524 . S
C3879 C3880 1.397 . S
C3879 C3884 1.363 . S
C3880 H3857 0.950 . S
C3880 C3879 1.397 . S
C3880 C3881 1.334 . S
C3881 H3858 0.950 . S
C3881 C3880 1.334 . S
C3881 C3882 1.287 . S
C3882 C3881 1.287 . S
C3882 C3883 1.524 . S
C3882 H3901 0.913 . S
C3883 H3859 0.950 . S
C3883 C3882 1.524 . S
C3883 C3884 1.415 . S
C3884 H3860 0.950 . S
C3884 C3879 1.363 . S
C3884 C3883 1.415 . S
C3885 H3861 0.951 . S
C3885 C3886 1.366 . S
C3885 C3887 1.388 . S
C3886 C3885 1.366 . S
C3886 C3890 1.385 . S
C3887 H3862 0.951 . S
C3887 C3885 1.388 . S
C3887 C3888 1.366 . S
C3888 C3887 1.366 . S
C3888 C3889 1.414 . S
C3888 C3891 1.499 . S
C3889 H3863 0.950 . S
C3889 C3888 1.414 . S
C3889 C3890 1.374 . S
C3890 H3864 0.950 1_455 S
C3890 C3886 1.385 . S
C3890 C3889 1.374 . S
C3891 C3888 1.499 . S
C3891 C3892 1.373 . S
C3891 C3893 1.389 . S
C3892 H3865 0.950 . S
C3892 C3878 1.377 . S
C3892 C3891 1.373 . S
C3893 C3877 1.377 . S
C3893 C3891 1.389 . S
C3893 C3894 1.524 . S
C3894 C3893 1.524 . S
C3894 C3895 1.397 . S
C3894 C3899 1.363 . S
C3895 H3866 0.950 . S
C3895 C3894 1.397 . S
C3895 C3896 1.334 . S
C3896 H3867 0.950 . S
C3896 C3895 1.334 . S
C3896 C3897 1.287 . S
C3897 C3896 1.287 . S
C3897 C3898 1.524 . S
C3897 H3900 0.999 . S
C3898 H3868 0.950 . S
C3898 C3897 1.524 . S
C3898 C3899 1.415 . S
C3899 H3869 0.950 . S
C3899 C3894 1.363 . S
C3899 C3898 1.415 . S
H3900 C3897 0.999 . S
H3901 C3882 0.913 . S
H3902 C3920 0.951 . S
H3903 C3922 0.951 . S
H3904 C3924 0.950 . S
H3905 C3925 0.950 . S
H3906 C3927 0.950 . S
H3907 C3930 0.950 . S
H3908 C3931 0.950 . S
H3909 C3933 0.950 . S
H3910 C3934 0.950 . S
H3911 C3935 0.951 . S
H3912 C3937 0.951 . S
H3913 C3939 0.950 . S
H3914 C3940 0.950 . S
H3915 C3942 0.950 . S
H3916 C3945 0.950 . S
H3917 C3946 0.950 . S
H3918 C3948 0.950 . S
H3919 C3949 0.950 . S
C3920 H3902 0.951 . S
C3920 C3921 1.366 . S
C3920 C3922 1.388 . S
C3921 C3920 1.366 . S
C3921 C3925 1.385 . S
C3922 H3903 0.951 . S
C3922 C3920 1.388 . S
C3922 C3923 1.366 . S
C3923 C3922 1.366 . S
C3923 C3924 1.414 . S
C3923 C3926 1.499 . S
C3924 H3904 0.950 . S
C3924 C3923 1.414 . S
C3924 C3925 1.374 . S
C3925 H3905 0.950 . S
C3925 C3921 1.385 . S
C3925 C3924 1.374 . S
C3926 C3923 1.499 . S
C3926 C3927 1.373 . S
C3926 C3928 1.389 . S
C3927 H3906 0.950 . S
C3927 C3926 1.373 . S
C3927 C3943 1.377 . S
C3928 C3926 1.389 . S
C3928 C3929 1.524 . S
C3928 C3942 1.377 . S
C3929 C3928 1.524 . S
C3929 C3930 1.397 . S
C3929 C3934 1.363 . S
C3930 H3907 0.950 . S
C3930 C3929 1.397 . S
C3930 C3931 1.334 . S
C3931 H3908 0.950 . S
C3931 C3930 1.334 . S
C3931 C3932 1.287 . S
C3932 C3931 1.287 . S
C3932 C3933 1.524 . S
C3932 H3951 0.913 . S
C3933 H3909 0.950 . S
C3933 C3932 1.524 . S
C3933 C3934 1.415 . S
C3934 H3910 0.950 . S
C3934 C3929 1.363 . S
C3934 C3933 1.415 . S
C3935 H3911 0.951 . S
C3935 C3936 1.366 . S
C3935 C3937 1.388 . S
C3936 C3935 1.366 . S
C3936 C3940 1.385 . S
C3937 H3912 0.951 . S
C3937 C3935 1.388 . S
C3937 C3938 1.366 . S
C3938 C3937 1.366 . S
C3938 C3939 1.414 . S
C3938 C3941 1.499 . S
C3939 H3913 0.950 . S
C3939 C3938 1.414 . S
C3939 C3940 1.374 . S
C3940 H3914 0.950 . S
C3940 C3936 1.385 . S
C3940 C3939 1.374 . S
C3941 C3938 1.499 . S
C3941 C3942 1.373 . S
C3941 C3943 1.389 . S
C3942 H3915 0.950 . S
C3942 C3928 1.377 . S
C3942 C3941 1.373 . S
C3943 C3927 1.377 . S
C3943 C3941 1.389 . S
C3943 C3944 1.524 . S
C3944 C3943 1.524 . S
C3944 C3945 1.397 . S
C3944 C3949 1.363 . S
C3945 H3916 0.950 . S
C3945 C3944 1.397 . S
C3945 C3946 1.334 . S
C3946 H3917 0.950 . S
C3946 C3945 1.334 . S
C3946 C3947 1.287 . S
C3947 C3946 1.287 . S
C3947 C3948 1.524 . S
C3947 H3950 0.999 . S
C3948 H3918 0.950 . S
C3948 C3947 1.524 . S
C3948 C3949 1.415 . S
C3949 H3919 0.950 . S
C3949 C3944 1.363 . S
C3949 C3948 1.415 . S
H3950 C3947 0.999 . S
H3951 C3932 0.913 . S
H3952 C3970 0.951 . S
H3953 C3972 0.951 . S
H3954 C3974 0.950 . S
H3955 C3975 0.950 . S
H3956 C3977 0.950 . S
H3957 C3980 0.950 . S
H3958 C3981 0.950 . S
H3959 C3983 0.950 . S
H3960 C3984 0.950 . S
H3961 C3985 0.951 . S
H3962 C3987 0.951 . S
H3963 C3989 0.950 . S
H3964 C3990 0.950 . S
H3965 C3992 0.950 . S
H3966 C3995 0.950 . S
H3967 C3996 0.950 . S
H3968 C3998 0.950 . S
H3969 C3999 0.950 . S
C3970 H3952 0.951 . S
C3970 C3971 1.366 . S
C3970 C3972 1.388 . S
C3971 C3970 1.366 . S
C3971 C3975 1.385 . S
C3972 H3953 0.951 . S
C3972 C3970 1.388 . S
C3972 C3973 1.366 . S
C3973 C3972 1.366 . S
C3973 C3974 1.414 . S
C3973 C3976 1.499 . S
C3974 H3954 0.950 . S
C3974 C3973 1.414 . S
C3974 C3975 1.374 . S
C3975 H3955 0.950 . S
C3975 C3971 1.385 . S
C3975 C3974 1.374 . S
C3976 C3973 1.499 . S
C3976 C3977 1.373 . S
C3976 C3978 1.389 . S
C3977 H3956 0.950 . S
C3977 C3976 1.373 . S
C3977 C3993 1.377 . S
C3978 C3976 1.389 . S
C3978 C3979 1.524 . S
C3978 C3992 1.377 . S
C3979 C3978 1.524 . S
C3979 C3980 1.397 . S
C3979 C3984 1.363 . S
C3980 H3957 0.950 . S
C3980 C3979 1.397 . S
C3980 C3981 1.334 . S
C3981 H3958 0.950 . S
C3981 C3980 1.334 . S
C3981 C3982 1.287 . S
C3982 C3981 1.287 . S
C3982 C3983 1.524 . S
C3982 H4001 0.913 . S
C3983 H3959 0.950 . S
C3983 C3982 1.524 . S
C3983 C3984 1.415 . S
C3984 H3960 0.950 . S
C3984 C3979 1.363 . S
C3984 C3983 1.415 . S
C3985 H3961 0.951 . S
C3985 C3986 1.366 . S
C3985 C3987 1.388 . S
C3986 C3985 1.366 . S
C3986 C3990 1.385 . S
C3987 H3962 0.951 . S
C3987 C3985 1.388 . S
C3987 C3988 1.366 . S
C3988 C3987 1.366 . S
C3988 C3989 1.414 . S
C3988 C3991 1.499 . S
C3989 H3963 0.950 . S
C3989 C3988 1.414 . S
C3989 C3990 1.374 . S
C3990 H3964 0.950 . S
C3990 C3986 1.385 . S
C3990 C3989 1.374 . S
C3991 C3988 1.499 . S
C3991 C3992 1.373 . S
C3991 C3993 1.389 . S
C3992 H3965 0.950 . S
C3992 C3978 1.377 . S
C3992 C3991 1.373 . S
C3993 C3977 1.377 . S
C3993 C3991 1.389 . S
C3993 C3994 1.524 . S
C3994 C3993 1.524 . S
C3994 C3995 1.397 . S
C3994 C3999 1.363 . S
C3995 H3966 0.950 . S
C3995 C3994 1.397 . S
C3995 C3996 1.334 . S
C3996 H3967 0.950 . S
C3996 C3995 1.334 . S
C3996 C3997 1.287 . S
C3997 C3996 1.287 . S
C3997 C3998 1.524 . S
C3997 H4000 0.999 . S
C3998 H3968 0.950 . S
C3998 C3997 1.524 . S
C3998 C3999 1.415 . S
C3999 H3969 0.950 . S
C3999 C3994 1.363 . S
C3999 C3998 1.415 . S
H4000 C3997 0.999 . S
H4001 C3982 0.913 . S
H4002 C4020 0.951 . S
H4003 C4022 0.951 . S
H4004 C4024 0.950 . S
H4005 C4025 0.950 . S
H4006 C4027 0.950 . S
H4007 C4030 0.950 . S
H4008 C4031 0.950 . S
H4009 C4033 0.950 . S
H4010 C4034 0.950 . S
H4011 C4035 0.951 . S
H4012 C4037 0.951 . S
H4013 C4039 0.950 . S
H4014 C4040 0.950 . S
H4015 C4042 0.950 . S
H4016 C4045 0.950 . S
H4017 C4046 0.950 . S
H4018 C4048 0.950 . S
H4019 C4049 0.950 . S
C4020 H4002 0.951 . S
C4020 C4021 1.366 . S
C4020 C4022 1.388 . S
C4021 C4020 1.366 . S
C4021 C4025 1.385 . S
C4022 H4003 0.951 . S
C4022 C4020 1.388 . S
C4022 C4023 1.366 . S
C4023 C4022 1.366 . S
C4023 C4024 1.414 . S
C4023 C4026 1.499 . S
C4024 H4004 0.950 . S
C4024 C4023 1.414 . S
C4024 C4025 1.374 . S
C4025 H4005 0.950 . S
C4025 C4021 1.385 . S
C4025 C4024 1.374 . S
C4026 C4023 1.499 . S
C4026 C4027 1.373 . S
C4026 C4028 1.389 . S
C4027 H4006 0.950 . S
C4027 C4026 1.373 . S
C4027 C4043 1.377 . S
C4028 C4026 1.389 . S
C4028 C4029 1.524 . S
C4028 C4042 1.377 . S
C4029 C4028 1.524 . S
C4029 C4030 1.397 . S
C4029 C4034 1.363 . S
C4030 H4007 0.950 . S
C4030 C4029 1.397 . S
C4030 C4031 1.334 . S
C4031 H4008 0.950 . S
C4031 C4030 1.334 . S
C4031 C4032 1.287 . S
C4032 C4031 1.287 . S
C4032 C4033 1.524 . S
C4032 H4051 0.913 . S
C4033 H4009 0.950 . S
C4033 C4032 1.524 . S
C4033 C4034 1.415 . S
C4034 H4010 0.950 . S
C4034 C4029 1.363 . S
C4034 C4033 1.415 . S
C4035 H4011 0.951 . S
C4035 C4036 1.366 . S
C4035 C4037 1.388 . S
C4036 C4035 1.366 . S
C4036 C4040 1.385 . S
C4037 H4012 0.951 . S
C4037 C4035 1.388 . S
C4037 C4038 1.366 . S
C4038 C4037 1.366 . S
C4038 C4039 1.414 . S
C4038 C4041 1.499 . S
C4039 H4013 0.950 . S
C4039 C4038 1.414 . S
C4039 C4040 1.374 . S
C4040 H4014 0.950 . S
C4040 C4036 1.385 . S
C4040 C4039 1.374 . S
C4041 C4038 1.499 . S
C4041 C4042 1.373 . S
C4041 C4043 1.389 . S
C4042 H4015 0.950 . S
C4042 C4028 1.377 . S
C4042 C4041 1.373 . S
C4043 C4027 1.377 . S
C4043 C4041 1.389 . S
C4043 C4044 1.524 . S
C4044 C4043 1.524 . S
C4044 C4045 1.397 . S
C4044 C4049 1.363 . S
C4045 H4016 0.950 . S
C4045 C4044 1.397 . S
C4045 C4046 1.334 . S
C4046 H4017 0.950 . S
C4046 C4045 1.334 . S
C4046 C4047 1.287 . S
C4047 C4046 1.287 . S
C4047 C4048 1.524 . S
C4047 H4050 0.999 . S
C4048 H4018 0.950 . S
C4048 C4047 1.524 . S
C4048 C4049 1.415 . S
C4049 H4019 0.950 . S
C4049 C4044 1.363 . S
C4049 C4048 1.415 . S
H4050 C4047 0.999 . S
H4051 C4032 0.913 . S
H4052 C4070 0.951 . S
H4053 C4072 0.951 . S
H4054 C4074 0.950 . S
H4055 C4075 0.950 . S
H4056 C4077 0.950 . S
H4057 C4080 0.950 . S
H4058 C4081 0.950 . S
H4059 C4083 0.950 . S
H4060 C4084 0.950 . S
H4061 C4085 0.951 . S
H4062 C4087 0.951 . S
H4063 C4089 0.950 . S
H4064 C4090 0.950 . S
H4065 C4092 0.950 . S
H4066 C4095 0.950 . S
H4067 C4096 0.950 . S
H4068 C4098 0.950 . S
H4069 C4099 0.950 . S
C4070 H4052 0.951 . S
C4070 C4071 1.366 . S
C4070 C4072 1.388 . S
C4071 C4070 1.366 . S
C4071 C4075 1.385 . S
C4072 H4053 0.951 . S
C4072 C4070 1.388 . S
C4072 C4073 1.366 . S
C4073 C4072 1.366 . S
C4073 C4074 1.414 . S
C4073 C4076 1.499 . S
C4074 H4054 0.950 . S
C4074 C4073 1.414 . S
C4074 C4075 1.374 . S
C4075 H4055 0.950 . S
C4075 C4071 1.385 . S
C4075 C4074 1.374 . S
C4076 C4073 1.499 . S
C4076 C4077 1.373 . S
C4076 C4078 1.389 . S
C4077 H4056 0.950 . S
C4077 C4076 1.373 . S
C4077 C4093 1.377 . S
C4078 C4076 1.389 . S
C4078 C4079 1.524 . S
C4078 C4092 1.377 . S
C4079 C4078 1.524 . S
C4079 C4080 1.397 . S
C4079 C4084 1.363 . S
C4080 H4057 0.950 . S
C4080 C4079 1.397 . S
C4080 C4081 1.334 . S
C4081 H4058 0.950 . S
C4081 C4080 1.334 . S
C4081 C4082 1.287 . S
C4082 C4081 1.287 . S
C4082 C4083 1.524 . S
C4082 H4101 0.913 . S
C4083 H4059 0.950 . S
C4083 C4082 1.524 . S
C4083 C4084 1.415 . S
C4084 H4060 0.950 . S
C4084 C4079 1.363 . S
C4084 C4083 1.415 . S
C4085 H4061 0.951 . S
C4085 C4086 1.366 . S
C4085 C4087 1.388 . S
C4086 C4085 1.366 . S
C4086 C4090 1.385 . S
C4087 H4062 0.951 . S
C4087 C4085 1.388 . S
C4087 C4088 1.366 . S
C4088 C4087 1.366 . S
C4088 C4089 1.414 . S
C4088 C4091 1.499 . S
C4089 H4063 0.950 . S
C4089 C4088 1.414 . S
C4089 C4090 1.374 . S
C4090 H4064 0.950 . S
C4090 C4086 1.385 . S
C4090 C4089 1.374 . S
C4091 C4088 1.499 . S
C4091 C4092 1.373 . S
C4091 C4093 1.389 . S
C4092 H4065 0.950 . S
C4092 C4078 1.377 . S
C4092 C4091 1.373 . S
C4093 C4077 1.377 . S
C4093 C4091 1.389 . S
C4093 C4094 1.524 . S
C4094 C4093 1.524 . S
C4094 C4095 1.397 . S
C4094 C4099 1.363 . S
C4095 H4066 0.950 . S
C4095 C4094 1.397 . S
C4095 C4096 1.334 . S
C4096 H4067 0.950 . S
C4096 C4095 1.334 . S
C4096 C4097 1.287 1_455 S
C4097 C4096 1.287 1_655 S
C4097 C4098 1.524 . S
C4097 H4100 0.999 . S
C4098 H4068 0.950 . S
C4098 C4097 1.524 . S
C4098 C4099 1.415 1_655 S
C4099 H4069 0.950 . S
C4099 C4094 1.363 . S
C4099 C4098 1.415 1_455 S
H4100 C4097 0.999 . S
H4101 C4082 0.913 . S
H4102 C4120 0.951 . S
H4103 C4122 0.951 . S
H4104 C4124 0.950 . S
H4105 C4125 0.950 . S
H4106 C4127 0.950 . S
H4107 C4130 0.950 . S
H4108 C4131 0.950 . S
H4109 C4133 0.950 . S
H4110 C4134 0.950 . S
H4111 C4135 0.951 . S
H4112 C4137 0.951 . S
H4113 C4139 0.950 . S
H4114 C4140 0.950 . S
H4115 C4142 0.950 . S
H4116 C4145 0.950 . S
H4117 C4146 0.950 . S
H4118 C4148 0.950 . S
H4119 C4149 0.950 . S
C4120 H4102 0.951 . S
C4120 C4121 1.366 . S
C4120 C4122 1.388 . S
C4121 C4120 1.366 . S
C4121 C4125 1.385 . S
C4122 H4103 0.951 . S
C4122 C4120 1.388 . S
C4122 C4123 1.366 . S
C4123 C4122 1.366 . S
C4123 C4124 1.414 . S
C4123 C4126 1.499 . S
C4124 H4104 0.950 . S
C4124 C4123 1.414 . S
C4124 C4125 1.374 . S
C4125 H4105 0.950 . S
C4125 C4121 1.385 . S
C4125 C4124 1.374 . S
C4126 C4123 1.499 . S
C4126 C4127 1.373 . S
C4126 C4128 1.389 . S
C4127 H4106 0.950 . S
C4127 C4126 1.373 . S
C4127 C4143 1.377 . S
C4128 C4126 1.389 . S
C4128 C4129 1.524 . S
C4128 C4142 1.377 . S
C4129 C4128 1.524 . S
C4129 C4130 1.397 . S
C4129 C4134 1.363 . S
C4130 H4107 0.950 . S
C4130 C4129 1.397 . S
C4130 C4131 1.334 . S
C4131 H4108 0.950 . S
C4131 C4130 1.334 . S
C4131 C4132 1.287 . S
C4132 C4131 1.287 . S
C4132 C4133 1.524 . S
C4132 H4151 0.913 . S
C4133 H4109 0.950 . S
C4133 C4132 1.524 . S
C4133 C4134 1.415 . S
C4134 H4110 0.950 . S
C4134 C4129 1.363 . S
C4134 C4133 1.415 . S
C4135 H4111 0.951 . S
C4135 C4136 1.366 . S
C4135 C4137 1.388 . S
C4136 C4135 1.366 . S
C4136 C4140 1.385 . S
C4137 H4112 0.951 . S
C4137 C4135 1.388 . S
C4137 C4138 1.366 . S
C4138 C4137 1.366 . S
C4138 C4139 1.414 . S
C4138 C4141 1.499 . S
C4139 H4113 0.950 . S
C4139 C4138 1.414 . S
C4139 C4140 1.374 . S
C4140 H4114 0.950 . S
C4140 C4136 1.385 . S
C4140 C4139 1.374 . S
C4141 C4138 1.499 . S
C4141 C4142 1.373 . S
C4141 C4143 1.389 . S
C4142 H4115 0.950 . S
C4142 C4128 1.377 . S
C4142 C4141 1.373 . S
C4143 C4127 1.377 . S
C4143 C4141 1.389 . S
C4143 C4144 1.524 . S
C4144 C4143 1.524 . S
C4144 C4145 1.397 . S
C4144 C4149 1.363 . S
C4145 H4116 0.950 . S
C4145 C4144 1.397 . S
C4145 C4146 1.334 . S
C4146 H4117 0.950 . S
C4146 C4145 1.334 . S
C4146 C4147 1.287 . S
C4147 C4146 1.287 . S
C4147 C4148 1.524 . S
C4147 H4150 0.999 . S
C4148 H4118 0.950 . S
C4148 C4147 1.524 . S
C4148 C4149 1.415 . S
C4149 H4119 0.950 . S
C4149 C4144 1.363 . S
C4149 C4148 1.415 . S
H4150 C4147 0.999 . S
H4151 C4132 0.913 . S
H4152 C4170 0.951 . S
H4153 C4172 0.951 . S
H4154 C4174 0.950 . S
H4155 C4175 0.950 . S
H4156 C4177 0.950 . S
H4157 C4180 0.950 . S
H4158 C4181 0.950 . S
H4159 C4183 0.950 . S
H4160 C4184 0.950 . S
H4161 C4185 0.951 . S
H4162 C4187 0.951 . S
H4163 C4189 0.950 . S
H4164 C4190 0.950 . S
H4165 C4192 0.950 . S
H4166 C4195 0.950 . S
H4167 C4196 0.950 . S
H4168 C4198 0.950 . S
H4169 C4199 0.950 . S
C4170 H4152 0.951 . S
C4170 C4171 1.366 . S
C4170 C4172 1.388 . S
C4171 C4170 1.366 . S
C4171 C4175 1.385 . S
C4172 H4153 0.951 . S
C4172 C4170 1.388 . S
C4172 C4173 1.366 . S
C4173 C4172 1.366 . S
C4173 C4174 1.414 . S
C4173 C4176 1.499 . S
C4174 H4154 0.950 . S
C4174 C4173 1.414 . S
C4174 C4175 1.374 . S
C4175 H4155 0.950 . S
C4175 C4171 1.385 . S
C4175 C4174 1.374 . S
C4176 C4173 1.499 . S
C4176 C4177 1.373 . S
C4176 C4178 1.389 . S
C4177 H4156 0.950 . S
C4177 C4176 1.373 . S
C4177 C4193 1.377 . S
C4178 C4176 1.389 . S
C4178 C4179 1.524 . S
C4178 C4192 1.377 . S
C4179 C4178 1.524 . S
C4179 C4180 1.397 . S
C4179 C4184 1.363 . S
C4180 H4157 0.950 . S
C4180 C4179 1.397 . S
C4180 C4181 1.334 . S
C4181 H4158 0.950 . S
C4181 C4180 1.334 . S
C4181 C4182 1.287 . S
C4182 C4181 1.287 . S
C4182 C4183 1.524 . S
C4182 H4201 0.913 . S
C4183 H4159 0.950 . S
C4183 C4182 1.524 . S
C4183 C4184 1.415 . S
C4184 H4160 0.950 . S
C4184 C4179 1.363 . S
C4184 C4183 1.415 . S
C4185 H4161 0.951 . S
C4185 C4186 1.366 . S
C4185 C4187 1.388 . S
C4186 C4185 1.366 . S
C4186 C4190 1.385 . S
C4187 H4162 0.951 . S
C4187 C4185 1.388 . S
C4187 C4188 1.366 . S
C4188 C4187 1.366 . S
C4188 C4189 1.414 . S
C4188 C4191 1.499 . S
C4189 H4163 0.950 . S
C4189 C4188 1.414 . S
C4189 C4190 1.374 . S
C4190 H4164 0.950 . S
C4190 C4186 1.385 . S
C4190 C4189 1.374 . S
C4191 C4188 1.499 . S
C4191 C4192 1.373 . S
C4191 C4193 1.389 . S
C4192 H4165 0.950 . S
C4192 C4178 1.377 . S
C4192 C4191 1.373 . S
C4193 C4177 1.377 . S
C4193 C4191 1.389 . S
C4193 C4194 1.524 . S
C4194 C4193 1.524 . S
C4194 C4195 1.397 . S
C4194 C4199 1.363 . S
C4195 H4166 0.950 . S
C4195 C4194 1.397 . S
C4195 C4196 1.334 . S
C4196 H4167 0.950 . S
C4196 C4195 1.334 . S
C4196 C4197 1.287 . S
C4197 C4196 1.287 . S
C4197 C4198 1.524 . S
C4197 H4200 0.999 . S
C4198 H4168 0.950 . S
C4198 C4197 1.524 . S
C4198 C4199 1.415 . S
C4199 H4169 0.950 . S
C4199 C4194 1.363 . S
C4199 C4198 1.415 . S
H4200 C4197 0.999 . S
H4201 C4182 0.913 . S
H4202 C4220 0.951 . S
H4203 C4222 0.951 . S
H4204 C4224 0.950 . S
H4205 C4225 0.950 . S
H4206 C4227 0.950 . S
H4207 C4230 0.950 . S
H4208 C4231 0.950 . S
H4209 C4233 0.950 . S
H4210 C4234 0.950 . S
H4211 C4235 0.951 . S
H4212 C4237 0.951 . S
H4213 C4239 0.950 . S
H4214 C4240 0.950 . S
H4215 C4242 0.950 . S
H4216 C4245 0.950 . S
H4217 C4246 0.950 . S
H4218 C4248 0.950 . S
H4219 C4249 0.950 . S
C4220 H4202 0.951 . S
C4220 C4221 1.366 . S
C4220 C4222 1.388 . S
C4221 C4220 1.366 . S
C4221 C4225 1.385 . S
C4222 H4203 0.951 . S
C4222 C4220 1.388 . S
C4222 C4223 1.366 . S
C4223 C4222 1.366 . S
C4223 C4224 1.414 . S
C4223 C4226 1.499 . S
C4224 H4204 0.950 . S
C4224 C4223 1.414 . S
C4224 C4225 1.374 . S
C4225 H4205 0.950 . S
C4225 C4221 1.385 . S
C4225 C4224 1.374 . S
C4226 C4223 1.499 . S
C4226 C4227 1.373 . S
C4226 C4228 1.389 . S
C4227 H4206 0.950 . S
C4227 C4226 1.373 . S
C4227 C4243 1.377 . S
C4228 C4226 1.389 . S
C4228 C4229 1.524 . S
C4228 C4242 1.377 . S
C4229 C4228 1.524 . S
C4229 C4230 1.397 . S
C4229 C4234 1.363 . S
C4230 H4207 0.950 . S
C4230 C4229 1.397 . S
C4230 C4231 1.334 . S
C4231 H4208 0.950 . S
C4231 C4230 1.334 . S
C4231 C4232 1.287 . S
C4232 C4231 1.287 . S
C4232 C4233 1.524 . S
C4232 H4251 0.913 . S
C4233 H4209 0.950 . S
C4233 C4232 1.524 . S
C4233 C4234 1.415 . S
C4234 H4210 0.950 . S
C4234 C4229 1.363 . S
C4234 C4233 1.415 . S
C4235 H4211 0.951 . S
C4235 C4236 1.366 . S
C4235 C4237 1.388 . S
C4236 C4235 1.366 . S
C4236 C4240 1.385 . S
C4237 H4212 0.951 . S
C4237 C4235 1.388 . S
C4237 C4238 1.366 . S
C4238 C4237 1.366 . S
C4238 C4239 1.414 . S
C4238 C4241 1.499 . S
C4239 H4213 0.950 . S
C4239 C4238 1.414 . S
C4239 C4240 1.374 . S
C4240 H4214 0.950 . S
C4240 C4236 1.385 . S
C4240 C4239 1.374 . S
C4241 C4238 1.499 . S
C4241 C4242 1.373 . S
C4241 C4243 1.389 . S
C4242 H4215 0.950 . S
C4242 C4228 1.377 . S
C4242 C4241 1.373 . S
C4243 C4227 1.377 . S
C4243 C4241 1.389 . S
C4243 C4244 1.524 . S
C4244 C4243 1.524 . S
C4244 C4245 1.397 . S
C4244 C4249 1.363 . S
C4245 H4216 0.950 . S
C4245 C4244 1.397 . S
C4245 C4246 1.334 . S
C4246 H4217 0.950 . S
C4246 C4245 1.334 . S
C4246 C4247 1.287 . S
C4247 C4246 1.287 . S
C4247 C4248 1.524 . S
C4247 H4250 0.999 . S
C4248 H4218 0.950 . S
C4248 C4247 1.524 . S
C4248 C4249 1.415 . S
C4249 H4219 0.950 . S
C4249 C4244 1.363 . S
C4249 C4248 1.415 . S
H4250 C4247 0.999 . S
H4251 C4232 0.913 . S
H4252 C4270 0.951 . S
H4253 C4272 0.951 . S
H4254 C4274 0.950 . S
H4255 C4275 0.950 . S
H4256 C4277 0.950 . S
H4257 C4280 0.950 . S
H4258 C4281 0.950 . S
H4259 C4283 0.950 . S
H4260 C4284 0.950 . S
H4261 C4285 0.951 . S
H4262 C4287 0.951 . S
H4263 C4289 0.950 . S
H4264 C4290 0.950 . S
H4265 C4292 0.950 . S
H4266 C4295 0.950 . S
H4267 C4296 0.950 . S
H4268 C4298 0.950 . S
H4269 C4299 0.950 . S
C4270 H4252 0.951 . S
C4270 C4271 1.366 . S
C4270 C4272 1.388 . S
C4271 C4270 1.366 . S
C4271 C4275 1.385 . S
C4272 H4253 0.951 . S
C4272 C4270 1.388 . S
C4272 C4273 1.366 . S
C4273 C4272 1.366 . S
C4273 C4274 1.414 . S
C4273 C4276 1.499 . S
C4274 H4254 0.950 . S
C4274 C4273 1.414 . S
C4274 C4275 1.374 . S
C4275 H4255 0.950 . S
C4275 C4271 1.385 . S
C4275 C4274 1.374 . S
C4276 C4273 1.499 . S
C4276 C4277 1.373 . S
C4276 C4278 1.389 . S
C4277 H4256 0.950 . S
C4277 C4276 1.373 . S
C4277 C4293 1.377 . S
C4278 C4276 1.389 . S
C4278 C4279 1.524 . S
C4278 C4292 1.377 . S
C4279 C4278 1.524 . S
C4279 C4280 1.397 . S
C4279 C4284 1.363 . S
C4280 H4257 0.950 . S
C4280 C4279 1.397 . S
C4280 C4281 1.334 . S
C4281 H4258 0.950 . S
C4281 C4280 1.334 . S
C4281 C4282 1.287 . S
C4282 C4281 1.287 . S
C4282 C4283 1.524 . S
C4282 H4301 0.913 . S
C4283 H4259 0.950 . S
C4283 C4282 1.524 . S
C4283 C4284 1.415 . S
C4284 H4260 0.950 . S
C4284 C4279 1.363 . S
C4284 C4283 1.415 . S
C4285 H4261 0.951 . S
C4285 C4286 1.366 . S
C4285 C4287 1.388 . S
C4286 C4285 1.366 . S
C4286 C4290 1.385 . S
C4287 H4262 0.951 . S
C4287 C4285 1.388 . S
C4287 C4288 1.366 . S
C4288 C4287 1.366 . S
C4288 C4289 1.414 . S
C4288 C4291 1.499 . S
C4289 H4263 0.950 . S
C4289 C4288 1.414 . S
C4289 C4290 1.374 . S
C4290 H4264 0.950 . S
C4290 C4286 1.385 . S
C4290 C4289 1.374 . S
C4291 C4288 1.499 . S
C4291 C4292 1.373 . S
C4291 C4293 1.389 . S
C4292 H4265 0.950 . S
C4292 C4278 1.377 . S
C4292 C4291 1.373 . S
C4293 C4277 1.377 . S
C4293 C4291 1.389 . S
C4293 C4294 1.524 . S
C4294 C4293 1.524 . S
C4294 C4295 1.397 . S
C4294 C4299 1.363 . S
C4295 H4266 0.950 . S
C4295 C4294 1.397 . S
C4295 C4296 1.334 . S
C4296 H4267 0.950 . S
C4296 C4295 1.334 . S
C4296 C4297 1.287 . S
C4297 C4296 1.287 . S
C4297 C4298 1.524 . S
C4297 H4300 0.999 . S
C4298 H4268 0.950 . S
C4298 C4297 1.524 . S
C4298 C4299 1.415 . S
C4299 H4269 0.950 . S
C4299 C4294 1.363 . S
C4299 C4298 1.415 . S
H4300 C4297 0.999 . S
H4301 C4282 0.913 . S
H4302 C4320 0.951 . S
H4303 C4322 0.951 . S
H4304 C4324 0.950 . S
H4305 C4325 0.950 . S
H4306 C4327 0.950 . S
H4307 C4330 0.950 . S
H4308 C4331 0.950 . S
H4309 C4333 0.950 1_556 S
H4310 C4334 0.950 . S
H4311 C4335 0.962 . S
H4312 C4337 0.951 . S
H4313 C4339 0.950 . S
H4314 C4340 0.950 . S
H4315 C4342 0.950 . S
H4316 C4345 0.950 1_545 S
H4317 C4346 0.950 . S
H4318 C4348 0.950 . S
H4319 C4349 0.950 . S
C4320 H4302 0.951 . S
C4320 C4321 1.366 . S
C4320 C4322 1.388 . S
C4321 C4320 1.366 . S
C4321 C4325 1.385 . S
C4322 H4303 0.951 . S
C4322 C4320 1.388 . S
C4322 C4323 1.366 . S
C4323 C4322 1.366 . S
C4323 C4324 1.414 . S
C4323 C4326 1.499 . S
C4324 H4304 0.950 . S
C4324 C4323 1.414 . S
C4324 C4325 1.374 . S
C4325 H4305 0.950 . S
C4325 C4321 1.385 . S
C4325 C4324 1.374 . S
C4326 C4323 1.499 . S
C4326 C4327 1.373 . S
C4326 C4328 1.389 . S
C4327 H4306 0.950 . S
C4327 C4326 1.373 . S
C4327 C4343 1.377 . S
C4328 C4326 1.389 . S
C4328 C4329 1.524 . S
C4328 C4342 1.377 . S
C4329 C4328 1.524 . S
C4329 C4330 1.397 . S
C4329 C4334 1.363 . S
C4330 H4307 0.950 . S
C4330 C4329 1.397 . S
C4330 C4331 1.334 1_554 S
C4331 H4308 0.950 . S
C4331 C4330 1.334 1_556 S
C4331 C4332 1.287 . S
C4332 C4331 1.287 . S
C4332 C4333 1.524 1_556 S
C4332 H4351 0.913 . S
C4333 H4309 0.950 1_554 S
C4333 C4332 1.524 1_554 S
C4333 C4334 1.415 . S
C4334 H4310 0.950 . S
C4334 C4329 1.363 . S
C4334 C4333 1.415 . S
C4335 H4311 0.962 . S
C4335 C4336 1.366 . S
C4335 C4337 1.388 1_545 S
C4336 C4335 1.366 . S
C4336 C4340 1.385 . S
C4337 H4312 0.951 . S
C4337 C4335 1.388 1_565 S
C4337 C4338 1.377 . S
C4338 C4337 1.377 . S
C4338 C4339 1.391 1_565 S
C4338 C4341 1.509 . S
C4339 H4313 0.950 . S
C4339 C4338 1.391 1_545 S
C4339 C4340 1.374 . S
C4340 H4314 0.950 . S
C4340 C4336 1.385 . S
C4340 C4339 1.374 . S
C4341 C4338 1.509 . S
C4341 C4342 1.373 . S
C4341 C4343 1.389 . S
C4342 H4315 0.950 . S
C4342 C4328 1.377 . S
C4342 C4341 1.373 . S
C4343 C4327 1.377 . S
C4343 C4341 1.389 . S
C4343 C4344 1.524 . S
C4344 C4343 1.524 . S
C4344 C4345 1.397 . S
C4344 C4349 1.363 . S
C4345 H4316 0.950 1_565 S
C4345 C4344 1.397 . S
C4345 C4346 1.334 1_565 S
C4346 H4317 0.950 . S
C4346 C4345 1.334 1_545 S
C4346 C4347 1.287 1_545 S
C4347 C4346 1.287 1_565 S
C4347 C4348 1.524 . S
C4347 H4350 0.999 . S
C4348 H4318 0.950 . S
C4348 C4347 1.524 . S
C4348 C4349 1.415 . S
C4349 H4319 0.950 . S
C4349 C4344 1.363 . S
C4349 C4348 1.415 . S
H4350 C4347 0.999 . S
H4351 C4332 0.913 . S
H4352 C4370 0.951 . S
H4353 C4372 0.951 . S
H4354 C4374 0.950 . S
H4355 C4375 0.950 . S
H4356 C4377 0.950 . S
H4357 C4380 0.950 . S
H4358 C4381 0.950 . S
H4359 C4383 0.950 . S
H4360 C4384 0.950 . S
H4361 C4385 0.951 . S
H4362 C4387 0.951 . S
H4363 C4389 0.950 . S
H4364 C4390 0.950 . S
H4365 C4392 0.950 . S
H4366 C4395 0.950 . S
H4367 C4396 0.950 . S
H4368 C4398 0.950 . S
H4369 C4399 0.950 . S
C4370 H4352 0.951 . S
C4370 C4371 1.366 . S
C4370 C4372 1.388 . S
C4371 C4370 1.366 . S
C4371 C4375 1.385 . S
C4372 H4353 0.951 . S
C4372 C4370 1.388 . S
C4372 C4373 1.366 . S
C4373 C4372 1.366 . S
C4373 C4374 1.414 . S
C4373 C4376 1.499 . S
C4374 H4354 0.950 . S
C4374 C4373 1.414 . S
C4374 C4375 1.374 . S
C4375 H4355 0.950 . S
C4375 C4371 1.385 . S
C4375 C4374 1.374 . S
C4376 C4373 1.499 . S
C4376 C4377 1.373 . S
C4376 C4378 1.389 . S
C4377 H4356 0.950 . S
C4377 C4376 1.373 . S
C4377 C4393 1.377 . S
C4378 C4376 1.389 . S
C4378 C4379 1.524 . S
C4378 C4392 1.377 . S
C4379 C4378 1.524 . S
C4379 C4380 1.397 . S
C4379 C4384 1.363 . S
C4380 H4357 0.950 . S
C4380 C4379 1.397 . S
C4380 C4381 1.334 . S
C4381 H4358 0.950 . S
C4381 C4380 1.334 . S
C4381 C4382 1.287 . S
C4382 C4381 1.287 . S
C4382 C4383 1.524 . S
C4382 H4401 0.913 . S
C4383 H4359 0.950 . S
C4383 C4382 1.524 . S
C4383 C4384 1.415 . S
C4384 H4360 0.950 . S
C4384 C4379 1.363 . S
C4384 C4383 1.415 . S
C4385 H4361 0.951 . S
C4385 C4386 1.366 . S
C4385 C4387 1.388 . S
C4386 C4385 1.366 . S
C4386 C4390 1.385 . S
C4387 H4362 0.951 . S
C4387 C4385 1.388 . S
C4387 C4388 1.366 . S
C4388 C4387 1.366 . S
C4388 C4389 1.414 . S
C4388 C4391 1.499 . S
C4389 H4363 0.950 . S
C4389 C4388 1.414 . S
C4389 C4390 1.374 . S
C4390 H4364 0.950 . S
C4390 C4386 1.385 . S
C4390 C4389 1.374 . S
C4391 C4388 1.499 . S
C4391 C4392 1.373 . S
C4391 C4393 1.389 . S
C4392 H4365 0.950 . S
C4392 C4378 1.377 . S
C4392 C4391 1.373 . S
C4393 C4377 1.377 . S
C4393 C4391 1.389 . S
C4393 C4394 1.524 . S
C4394 C4393 1.524 . S
C4394 C4395 1.397 . S
C4394 C4399 1.363 . S
C4395 H4366 0.950 . S
C4395 C4394 1.397 . S
C4395 C4396 1.334 . S
C4396 H4367 0.950 . S
C4396 C4395 1.334 . S
C4396 C4397 1.287 . S
C4397 C4396 1.287 . S
C4397 C4398 1.524 . S
C4397 H4400 0.999 . S
C4398 H4368 0.950 . S
C4398 C4397 1.524 . S
C4398 C4399 1.415 . S
C4399 H4369 0.950 . S
C4399 C4394 1.363 . S
C4399 C4398 1.415 . S
H4400 C4397 0.999 . S
H4401 C4382 0.913 . S
H4402 C4420 0.935 1_556 S
H4403 C4422 0.951 . S
H4404 C4424 0.950 . S
H4405 C4425 0.950 . S
H4406 C4427 0.950 . S
H4407 C4430 0.950 1_554 S
H4408 C4431 0.950 . S
H4409 C4433 0.950 . S
H4410 C4434 0.950 . S
H4411 C4435 0.951 . S
H4412 C4437 0.951 . S
H4413 C4439 0.950 . S
H4414 C4440 0.950 . S
H4415 C4442 0.950 . S
H4416 C4445 0.950 . S
H4417 C4446 0.950 . S
H4418 C4448 0.950 . S
H4419 C4449 0.950 . S
C4420 H4402 0.935 1_554 S
C4420 C4421 1.374 . S
C4420 C4422 1.395 . S
C4421 C4420 1.374 . S
C4421 C4425 1.385 . S
C4422 H4403 0.951 . S
C4422 C4420 1.395 . S
C4422 C4423 1.366 . S
C4423 C4422 1.366 . S
C4423 C4424 1.414 . S
C4423 C4426 1.499 . S
C4424 H4404 0.950 . S
C4424 C4423 1.414 . S
C4424 C4425 1.374 . S
C4425 H4405 0.950 . S
C4425 C4421 1.385 . S
C4425 C4424 1.374 . S
C4426 C4423 1.499 . S
C4426 C4427 1.373 . S
C4426 C4428 1.389 . S
C4427 H4406 0.950 . S
C4427 C4426 1.373 . S
C4427 C4443 1.377 . S
C4428 C4426 1.389 . S
C4428 C4429 1.524 . S
C4428 C4442 1.377 . S
C4429 C4428 1.524 . S
C4429 C4430 1.397 1_554 S
C4429 C4434 1.363 1_554 S
C4430 H4407 0.950 1_556 S
C4430 C4429 1.397 1_556 S
C4430 C4431 1.334 . S
C4431 H4408 0.950 . S
C4431 C4430 1.334 . S
C4431 C4432 1.287 . S
C4432 C4431 1.287 . S
C4432 C4433 1.524 . S
C4432 H4451 0.913 . S
C4433 H4409 0.950 . S
C4433 C4432 1.524 . S
C4433 C4434 1.415 . S
C4434 H4410 0.950 . S
C4434 C4429 1.363 1_556 S
C4434 C4433 1.415 . S
C4435 H4411 0.951 . S
C4435 C4436 1.366 . S
C4435 C4437 1.388 . S
C4436 C4435 1.366 . S
C4436 C4440 1.385 . S
C4437 H4412 0.951 . S
C4437 C4435 1.388 . S
C4437 C4438 1.366 . S
C4438 C4437 1.366 . S
C4438 C4439 1.414 . S
C4438 C4441 1.499 . S
C4439 H4413 0.950 . S
C4439 C4438 1.414 . S
C4439 C4440 1.374 . S
C4440 H4414 0.950 . S
C4440 C4436 1.385 . S
C4440 C4439 1.374 . S
C4441 C4438 1.499 . S
C4441 C4442 1.373 . S
C4441 C4443 1.389 . S
C4442 H4415 0.950 . S
C4442 C4428 1.377 . S
C4442 C4441 1.373 . S
C4443 C4427 1.377 . S
C4443 C4441 1.389 . S
C4443 C4444 1.524 . S
C4444 C4443 1.524 . S
C4444 C4445 1.397 . S
C4444 C4449 1.363 . S
C4445 H4416 0.950 . S
C4445 C4444 1.397 . S
C4445 C4446 1.334 . S
C4446 H4417 0.950 . S
C4446 C4445 1.334 . S
C4446 C4447 1.287 . S
C4447 C4446 1.287 . S
C4447 C4448 1.524 . S
C4447 H4450 0.999 . S
C4448 H4418 0.950 . S
C4448 C4447 1.524 . S
C4448 C4449 1.415 . S
C4449 H4419 0.950 . S
C4449 C4444 1.363 . S
C4449 C4448 1.415 . S
H4450 C4447 0.999 . S
H4451 C4432 0.913 . S
H4452 C4470 0.951 . S
H4453 C4472 0.951 . S
H4454 C4474 0.950 . S
H4455 C4475 0.950 . S
H4456 C4477 0.950 . S
H4457 C4480 0.950 . S
H4458 C4481 0.950 . S
H4459 C4483 0.950 . S
H4460 C4484 0.950 . S
H4461 C4485 0.951 . S
H4462 C4487 0.951 . S
H4463 C4489 0.950 . S
H4464 C4490 0.950 . S
H4465 C4492 0.950 . S
H4466 C4495 0.950 . S
H4467 C4496 0.950 . S
H4468 C4498 0.950 . S
H4469 C4499 0.950 . S
C4470 H4452 0.951 . S
C4470 C4471 1.366 . S
C4470 C4472 1.388 . S
C4471 C4470 1.366 . S
C4471 C4475 1.385 . S
C4472 H4453 0.951 . S
C4472 C4470 1.388 . S
C4472 C4473 1.366 . S
C4473 C4472 1.366 . S
C4473 C4474 1.414 . S
C4473 C4476 1.499 . S
C4474 H4454 0.950 . S
C4474 C4473 1.414 . S
C4474 C4475 1.374 . S
C4475 H4455 0.950 . S
C4475 C4471 1.385 . S
C4475 C4474 1.374 . S
C4476 C4473 1.499 . S
C4476 C4477 1.373 . S
C4476 C4478 1.389 . S
C4477 H4456 0.950 . S
C4477 C4476 1.373 . S
C4477 C4493 1.377 . S
C4478 C4476 1.389 . S
C4478 C4479 1.524 . S
C4478 C4492 1.377 . S
C4479 C4478 1.524 . S
C4479 C4480 1.397 . S
C4479 C4484 1.363 . S
C4480 H4457 0.950 . S
C4480 C4479 1.397 . S
C4480 C4481 1.334 . S
C4481 H4458 0.950 . S
C4481 C4480 1.334 . S
C4481 C4482 1.287 . S
C4482 C4481 1.287 . S
C4482 C4483 1.524 . S
C4482 H4501 0.913 . S
C4483 H4459 0.950 . S
C4483 C4482 1.524 . S
C4483 C4484 1.415 . S
C4484 H4460 0.950 . S
C4484 C4479 1.363 . S
C4484 C4483 1.415 . S
C4485 H4461 0.951 . S
C4485 C4486 1.366 . S
C4485 C4487 1.388 . S
C4486 C4485 1.366 . S
C4486 C4490 1.385 . S
C4487 H4462 0.951 . S
C4487 C4485 1.388 . S
C4487 C4488 1.366 . S
C4488 C4487 1.366 . S
C4488 C4489 1.414 . S
C4488 C4491 1.499 . S
C4489 H4463 0.950 . S
C4489 C4488 1.414 . S
C4489 C4490 1.374 . S
C4490 H4464 0.950 . S
C4490 C4486 1.385 . S
C4490 C4489 1.374 . S
C4491 C4488 1.499 . S
C4491 C4492 1.373 . S
C4491 C4493 1.389 . S
C4492 H4465 0.950 . S
C4492 C4478 1.377 . S
C4492 C4491 1.373 . S
C4493 C4477 1.377 . S
C4493 C4491 1.389 . S
C4493 C4494 1.524 . S
C4494 C4493 1.524 . S
C4494 C4495 1.397 . S
C4494 C4499 1.363 . S
C4495 H4466 0.950 . S
C4495 C4494 1.397 . S
C4495 C4496 1.334 . S
C4496 H4467 0.950 . S
C4496 C4495 1.334 . S
C4496 C4497 1.287 . S
C4497 C4496 1.287 . S
C4497 C4498 1.524 . S
C4497 H4500 0.999 . S
C4498 H4468 0.950 . S
C4498 C4497 1.524 . S
C4498 C4499 1.415 . S
C4499 H4469 0.950 . S
C4499 C4494 1.363 . S
C4499 C4498 1.415 . S
H4500 C4497 0.999 . S
H4501 C4482 0.913 . S
H4502 C4520 0.951 . S
H4503 C4522 0.951 . S
H4504 C4524 0.950 . S
H4505 C4525 0.950 . S
H4506 C4527 0.950 . S
H4507 C4530 0.950 . S
H4508 C4531 0.950 . S
H4509 C4533 0.950 . S
H4510 C4534 0.950 . S
H4511 C4535 0.951 . S
H4512 C4537 0.951 . S
H4513 C4539 0.950 . S
H4514 C4540 0.950 . S
H4515 C4542 0.950 . S
H4516 C4545 0.950 . S
H4517 C4546 0.950 . S
H4518 C4548 0.950 . S
H4519 C4549 0.950 . S
C4520 H4502 0.951 . S
C4520 C4521 1.366 . S
C4520 C4522 1.388 . S
C4521 C4520 1.366 . S
C4521 C4525 1.385 . S
C4522 H4503 0.951 . S
C4522 C4520 1.388 . S
C4522 C4523 1.366 . S
C4523 C4522 1.366 . S
C4523 C4524 1.414 . S
C4523 C4526 1.499 . S
C4524 H4504 0.950 . S
C4524 C4523 1.414 . S
C4524 C4525 1.374 . S
C4525 H4505 0.950 . S
C4525 C4521 1.385 . S
C4525 C4524 1.374 . S
C4526 C4523 1.499 . S
C4526 C4527 1.373 1_545 S
C4526 C4528 1.389 . S
C4527 H4506 0.950 . S
C4527 C4526 1.373 1_565 S
C4527 C4543 1.377 . S
C4528 C4526 1.389 . S
C4528 C4529 1.524 . S
C4528 C4542 1.377 1_545 S
C4529 C4528 1.524 . S
C4529 C4530 1.397 . S
C4529 C4534 1.363 . S
C4530 H4507 0.950 . S
C4530 C4529 1.397 . S
C4530 C4531 1.334 . S
C4531 H4508 0.950 . S
C4531 C4530 1.334 . S
C4531 C4532 1.287 . S
C4532 C4531 1.287 . S
C4532 C4533 1.524 . S
C4532 H4551 0.913 . S
C4533 H4509 0.950 . S
C4533 C4532 1.524 . S
C4533 C4534 1.415 . S
C4534 H4510 0.950 . S
C4534 C4529 1.363 . S
C4534 C4533 1.415 . S
C4535 H4511 0.951 . S
C4535 C4536 1.366 . S
C4535 C4537 1.388 . S
C4536 C4535 1.366 . S
C4536 C4540 1.385 . S
C4537 H4512 0.951 . S
C4537 C4535 1.388 . S
C4537 C4538 1.366 . S
C4538 C4537 1.366 . S
C4538 C4539 1.414 . S
C4538 C4541 1.499 . S
C4539 H4513 0.950 . S
C4539 C4538 1.414 . S
C4539 C4540 1.374 . S
C4540 H4514 0.950 . S
C4540 C4536 1.385 . S
C4540 C4539 1.374 . S
C4541 C4538 1.499 . S
C4541 C4542 1.373 . S
C4541 C4543 1.389 . S
C4542 H4515 0.950 . S
C4542 C4528 1.377 1_565 S
C4542 C4541 1.373 . S
C4543 C4527 1.377 . S
C4543 C4541 1.389 . S
C4543 C4544 1.524 . S
C4544 C4543 1.524 . S
C4544 C4545 1.397 . S
C4544 C4549 1.363 . S
C4545 H4516 0.950 . S
C4545 C4544 1.397 . S
C4545 C4546 1.334 . S
C4546 H4517 0.950 . S
C4546 C4545 1.334 . S
C4546 C4547 1.287 . S
C4547 C4546 1.287 . S
C4547 C4548 1.524 . S
C4547 H4550 0.999 . S
C4548 H4518 0.950 . S
C4548 C4547 1.524 . S
C4548 C4549 1.415 . S
C4549 H4519 0.950 . S
C4549 C4544 1.363 . S
C4549 C4548 1.415 . S
H4550 C4547 0.999 . S
H4551 C4532 0.913 . S
H4552 C4570 0.951 . S
H4553 C4572 0.951 . S
H4554 C4574 0.950 . S
H4555 C4575 0.950 . S
H4556 C4577 0.950 . S
H4557 C4580 0.950 . S
H4558 C4581 0.950 . S
H4559 C4583 0.950 . S
H4560 C4584 0.950 . S
H4561 C4585 0.951 . S
H4562 C4587 0.951 . S
H4563 C4589 0.950 . S
H4564 C4590 0.950 . S
H4565 C4592 0.950 . S
H4566 C4595 0.950 . S
H4567 C4596 0.950 . S
H4568 C4598 0.950 . S
H4569 C4599 0.950 . S
C4570 H4552 0.951 . S
C4570 C4571 1.366 . S
C4570 C4572 1.388 . S
C4571 C4570 1.366 . S
C4571 C4575 1.385 . S
C4572 H4553 0.951 . S
C4572 C4570 1.388 . S
C4572 C4573 1.366 . S
C4573 C4572 1.366 . S
C4573 C4574 1.414 . S
C4573 C4576 1.499 . S
C4574 H4554 0.950 . S
C4574 C4573 1.414 . S
C4574 C4575 1.374 . S
C4575 H4555 0.950 . S
C4575 C4571 1.385 . S
C4575 C4574 1.374 . S
C4576 C4573 1.499 . S
C4576 C4577 1.373 . S
C4576 C4578 1.389 . S
C4577 H4556 0.950 . S
C4577 C4576 1.373 . S
C4577 C4593 1.377 . S
C4578 C4576 1.389 . S
C4578 C4579 1.524 . S
C4578 C4592 1.377 . S
C4579 C4578 1.524 . S
C4579 C4580 1.397 . S
C4579 C4584 1.363 . S
C4580 H4557 0.950 . S
C4580 C4579 1.397 . S
C4580 C4581 1.334 . S
C4581 H4558 0.950 . S
C4581 C4580 1.334 . S
C4581 C4582 1.287 . S
C4582 C4581 1.287 . S
C4582 C4583 1.524 . S
C4582 H4601 0.913 . S
C4583 H4559 0.950 . S
C4583 C4582 1.524 . S
C4583 C4584 1.415 . S
C4584 H4560 0.950 . S
C4584 C4579 1.363 . S
C4584 C4583 1.415 . S
C4585 H4561 0.951 . S
C4585 C4586 1.366 . S
C4585 C4587 1.388 . S
C4586 C4585 1.366 . S
C4586 C4590 1.385 . S
C4587 H4562 0.951 . S
C4587 C4585 1.388 . S
C4587 C4588 1.366 . S
C4588 C4587 1.366 . S
C4588 C4589 1.414 . S
C4588 C4591 1.499 . S
C4589 H4563 0.950 . S
C4589 C4588 1.414 . S
C4589 C4590 1.374 . S
C4590 H4564 0.950 . S
C4590 C4586 1.385 . S
C4590 C4589 1.374 . S
C4591 C4588 1.499 . S
C4591 C4592 1.373 . S
C4591 C4593 1.389 . S
C4592 H4565 0.950 . S
C4592 C4578 1.377 . S
C4592 C4591 1.373 . S
C4593 C4577 1.377 . S
C4593 C4591 1.389 . S
C4593 C4594 1.524 . S
C4594 C4593 1.524 . S
C4594 C4595 1.397 . S
C4594 C4599 1.363 . S
C4595 H4566 0.950 . S
C4595 C4594 1.397 . S
C4595 C4596 1.334 . S
C4596 H4567 0.950 . S
C4596 C4595 1.334 . S
C4596 C4597 1.287 . S
C4597 C4596 1.287 . S
C4597 C4598 1.524 . S
C4597 H4600 0.999 . S
C4598 H4568 0.950 . S
C4598 C4597 1.524 . S
C4598 C4599 1.415 . S
C4599 H4569 0.950 . S
C4599 C4594 1.363 . S
C4599 C4598 1.415 . S
H4600 C4597 0.999 . S
H4601 C4582 0.913 . S
H4602 C4620 0.951 . S
H4603 C4622 0.951 . S
H4604 C4624 0.950 . S
H4605 C4625 0.950 . S
H4606 C4627 0.950 . S
H4607 C4630 0.950 . S
H4608 C4631 0.950 . S
H4609 C4633 0.950 . S
H4610 C4634 0.950 . S
H4611 C4635 0.951 . S
H4612 C4637 0.951 . S
H4613 C4639 0.950 . S
H4614 C4640 0.950 . S
H4615 C4642 0.950 . S
H4616 C4645 0.950 . S
H4617 C4646 0.950 . S
H4618 C4648 0.950 . S
H4619 C4649 0.950 . S
C4620 H4602 0.951 . S
C4620 C4621 1.366 . S
C4620 C4622 1.388 . S
C4621 C4620 1.366 . S
C4621 C4625 1.385 . S
C4622 H4603 0.951 . S
C4622 C4620 1.388 . S
C4622 C4623 1.366 . S
C4623 C4622 1.366 . S
C4623 C4624 1.414 . S
C4623 C4626 1.499 . S
C4624 H4604 0.950 . S
C4624 C4623 1.414 . S
C4624 C4625 1.374 . S
C4625 H4605 0.950 . S
C4625 C4621 1.385 . S
C4625 C4624 1.374 . S
C4626 C4623 1.499 . S
C4626 C4627 1.373 . S
C4626 C4628 1.389 . S
C4627 H4606 0.950 . S
C4627 C4626 1.373 . S
C4627 C4643 1.377 . S
C4628 C4626 1.389 . S
C4628 C4629 1.524 . S
C4628 C4642 1.377 . S
C4629 C4628 1.524 . S
C4629 C4630 1.397 . S
C4629 C4634 1.363 . S
C4630 H4607 0.950 . S
C4630 C4629 1.397 . S
C4630 C4631 1.334 . S
C4631 H4608 0.950 . S
C4631 C4630 1.334 . S
C4631 C4632 1.287 . S
C4632 C4631 1.287 . S
C4632 C4633 1.524 . S
C4632 H4651 0.913 . S
C4633 H4609 0.950 . S
C4633 C4632 1.524 . S
C4633 C4634 1.415 . S
C4634 H4610 0.950 . S
C4634 C4629 1.363 . S
C4634 C4633 1.415 . S
C4635 H4611 0.951 . S
C4635 C4636 1.366 . S
C4635 C4637 1.388 . S
C4636 C4635 1.366 . S
C4636 C4640 1.385 . S
C4637 H4612 0.951 . S
C4637 C4635 1.388 . S
C4637 C4638 1.366 . S
C4638 C4637 1.366 . S
C4638 C4639 1.414 . S
C4638 C4641 1.499 . S
C4639 H4613 0.950 . S
C4639 C4638 1.414 . S
C4639 C4640 1.374 . S
C4640 H4614 0.950 . S
C4640 C4636 1.385 . S
C4640 C4639 1.374 . S
C4641 C4638 1.499 . S
C4641 C4642 1.373 . S
C4641 C4643 1.389 . S
C4642 H4615 0.950 . S
C4642 C4628 1.377 . S
C4642 C4641 1.373 . S
C4643 C4627 1.377 . S
C4643 C4641 1.389 . S
C4643 C4644 1.524 . S
C4644 C4643 1.524 . S
C4644 C4645 1.397 . S
C4644 C4649 1.363 . S
C4645 H4616 0.950 . S
C4645 C4644 1.397 . S
C4645 C4646 1.334 . S
C4646 H4617 0.950 . S
C4646 C4645 1.334 . S
C4646 C4647 1.287 . S
C4647 C4646 1.287 . S
C4647 C4648 1.524 . S
C4647 H4650 0.999 . S
C4648 H4618 0.950 . S
C4648 C4647 1.524 . S
C4648 C4649 1.415 . S
C4649 H4619 0.950 . S
C4649 C4644 1.363 . S
C4649 C4648 1.415 . S
H4650 C4647 0.999 . S
H4651 C4632 0.913 . S
H4652 C4670 0.951 . S
H4653 C4672 0.951 . S
H4654 C4674 0.950 . S
H4655 C4675 0.950 . S
H4656 C4677 0.950 . S
H4657 C4680 0.950 . S
H4658 C4681 0.950 . S
H4659 C4683 0.950 . S
H4660 C4684 0.950 . S
H4661 C4685 0.951 . S
H4662 C4687 0.951 . S
H4663 C4689 0.950 . S
H4664 C4690 0.950 . S
H4665 C4692 0.950 . S
H4666 C4695 0.950 . S
H4667 C4696 0.950 . S
H4668 C4698 0.950 . S
H4669 C4699 0.950 . S
C4670 H4652 0.951 . S
C4670 C4671 1.366 1_655 S
C4670 C4672 1.388 . S
C4671 C4670 1.366 1_455 S
C4671 C4675 1.385 . S
C4672 H4653 0.951 . S
C4672 C4670 1.388 . S
C4672 C4673 1.366 1_655 S
C4673 C4672 1.366 1_455 S
C4673 C4674 1.414 . S
C4673 C4676 1.499 . S
C4674 H4654 0.950 . S
C4674 C4673 1.414 . S
C4674 C4675 1.374 . S
C4675 H4655 0.950 . S
C4675 C4671 1.385 . S
C4675 C4674 1.374 . S
C4676 C4673 1.499 . S
C4676 C4677 1.373 . S
C4676 C4678 1.389 1_455 S
C4677 H4656 0.950 . S
C4677 C4676 1.373 . S
C4677 C4693 1.377 . S
C4678 C4676 1.389 1_655 S
C4678 C4679 1.524 . S
C4678 C4692 1.377 . S
C4679 C4678 1.524 . S
C4679 C4680 1.397 . S
C4679 C4684 1.363 . S
C4680 H4657 0.950 . S
C4680 C4679 1.397 . S
C4680 C4681 1.334 . S
C4681 H4658 0.950 . S
C4681 C4680 1.334 . S
C4681 C4682 1.287 . S
C4682 C4681 1.287 . S
C4682 C4683 1.524 . S
C4682 H4701 0.913 . S
C4683 H4659 0.950 . S
C4683 C4682 1.524 . S
C4683 C4684 1.415 . S
C4684 H4660 0.950 . S
C4684 C4679 1.363 . S
C4684 C4683 1.415 . S
C4685 H4661 0.951 . S
C4685 C4686 1.366 . S
C4685 C4687 1.388 . S
C4686 C4685 1.366 . S
C4686 C4690 1.385 1_455 S
C4687 H4662 0.951 . S
C4687 C4685 1.388 . S
C4687 C4688 1.366 . S
C4688 C4687 1.366 . S
C4688 C4689 1.414 1_455 S
C4688 C4691 1.499 . S
C4689 H4663 0.950 . S
C4689 C4688 1.414 1_655 S
C4689 C4690 1.374 . S
C4690 H4664 0.950 . S
C4690 C4686 1.385 1_655 S
C4690 C4689 1.374 . S
C4691 C4688 1.499 . S
C4691 C4692 1.373 1_455 S
C4691 C4693 1.389 . S
C4692 H4665 0.950 . S
C4692 C4678 1.377 . S
C4692 C4691 1.373 1_655 S
C4693 C4677 1.377 . S
C4693 C4691 1.389 . S
C4693 C4694 1.524 . S
C4694 C4693 1.524 . S
C4694 C4695 1.397 . S
C4694 C4699 1.363 . S
C4695 H4666 0.950 . S
C4695 C4694 1.397 . S
C4695 C4696 1.334 . S
C4696 H4667 0.950 . S
C4696 C4695 1.334 . S
C4696 C4697 1.287 . S
C4697 C4696 1.287 . S
C4697 C4698 1.524 . S
C4697 H4700 0.999 . S
C4698 H4668 0.950 . S
C4698 C4697 1.524 . S
C4698 C4699 1.415 . S
C4699 H4669 0.950 . S
C4699 C4694 1.363 . S
C4699 C4698 1.415 . S
H4700 C4697 0.999 . S
H4701 C4682 0.913 . S
H4702 C4720 0.951 . S
H4703 C4722 0.951 . S
H4704 C4724 0.950 . S
H4705 C4725 0.950 . S
H4706 C4727 0.950 . S
H4707 C4730 0.950 . S
H4708 C4731 0.950 . S
H4709 C4733 0.950 . S
H4710 C4734 0.950 . S
H4711 C4735 0.951 . S
H4712 C4737 0.951 . S
H4713 C4739 0.950 . S
H4714 C4740 0.950 . S
H4715 C4742 0.950 . S
H4716 C4745 0.950 . S
H4717 C4746 0.950 . S
H4718 C4748 0.950 . S
H4719 C4749 0.950 . S
C4720 H4702 0.951 . S
C4720 C4721 1.366 . S
C4720 C4722 1.388 . S
C4721 C4720 1.366 . S
C4721 C4725 1.385 . S
C4722 H4703 0.951 . S
C4722 C4720 1.388 . S
C4722 C4723 1.366 . S
C4723 C4722 1.366 . S
C4723 C4724 1.414 . S
C4723 C4726 1.499 . S
C4724 H4704 0.950 . S
C4724 C4723 1.414 . S
C4724 C4725 1.374 . S
C4725 H4705 0.950 . S
C4725 C4721 1.385 . S
C4725 C4724 1.374 . S
C4726 C4723 1.499 . S
C4726 C4727 1.373 . S
C4726 C4728 1.389 . S
C4727 H4706 0.950 . S
C4727 C4726 1.373 . S
C4727 C4743 1.377 . S
C4728 C4726 1.389 . S
C4728 C4729 1.524 . S
C4728 C4742 1.377 . S
C4729 C4728 1.524 . S
C4729 C4730 1.397 . S
C4729 C4734 1.363 . S
C4730 H4707 0.950 . S
C4730 C4729 1.397 . S
C4730 C4731 1.334 . S
C4731 H4708 0.950 . S
C4731 C4730 1.334 . S
C4731 C4732 1.287 . S
C4732 C4731 1.287 . S
C4732 C4733 1.524 . S
C4732 H4751 0.913 . S
C4733 H4709 0.950 . S
C4733 C4732 1.524 . S
C4733 C4734 1.415 . S
C4734 H4710 0.950 . S
C4734 C4729 1.363 . S
C4734 C4733 1.415 . S
C4735 H4711 0.951 . S
C4735 C4736 1.366 . S
C4735 C4737 1.388 . S
C4736 C4735 1.366 . S
C4736 C4740 1.385 . S
C4737 H4712 0.951 . S
C4737 C4735 1.388 . S
C4737 C4738 1.366 . S
C4738 C4737 1.366 . S
C4738 C4739 1.414 . S
C4738 C4741 1.499 . S
C4739 H4713 0.950 . S
C4739 C4738 1.414 . S
C4739 C4740 1.374 . S
C4740 H4714 0.950 . S
C4740 C4736 1.385 . S
C4740 C4739 1.374 . S
C4741 C4738 1.499 . S
C4741 C4742 1.373 . S
C4741 C4743 1.389 . S
C4742 H4715 0.950 . S
C4742 C4728 1.377 . S
C4742 C4741 1.373 . S
C4743 C4727 1.377 . S
C4743 C4741 1.389 . S
C4743 C4744 1.524 . S
C4744 C4743 1.524 . S
C4744 C4745 1.397 . S
C4744 C4749 1.363 . S
C4745 H4716 0.950 . S
C4745 C4744 1.397 . S
C4745 C4746 1.334 . S
C4746 H4717 0.950 . S
C4746 C4745 1.334 . S
C4746 C4747 1.287 . S
C4747 C4746 1.287 . S
C4747 C4748 1.524 . S
C4747 H4750 0.999 . S
C4748 H4718 0.950 . S
C4748 C4747 1.524 . S
C4748 C4749 1.415 . S
C4749 H4719 0.950 . S
C4749 C4744 1.363 . S
C4749 C4748 1.415 . S
H4750 C4747 0.999 . S
H4751 C4732 0.913 . S
H4752 C4770 0.951 . S
H4753 C4772 0.951 1_554 S
H4754 C4774 0.950 . S
H4755 C4775 0.950 . S
H4756 C4777 0.950 . S
H4757 C4780 0.950 . S
H4758 C4781 0.946 1_556 S
H4759 C4783 0.950 . S
H4760 C4784 0.950 . S
H4761 C4785 0.951 . S
H4762 C4787 0.951 . S
H4763 C4789 0.950 . S
H4764 C4790 0.950 . S
H4765 C4792 0.942 1_554 S
H4766 C4795 0.950 . S
H4767 C4796 0.950 . S
H4768 C4798 0.950 . S
H4769 C4799 0.950 . S
C4770 H4752 0.951 . S
C4770 C4771 1.366 . S
C4770 C4772 1.388 . S
C4771 C4770 1.366 . S
C4771 C4775 1.385 . S
C4772 H4753 0.951 1_556 S
C4772 C4770 1.388 . S
C4772 C4773 1.366 . S
C4773 C4772 1.366 . S
C4773 C4774 1.414 . S
C4773 C4776 1.499 . S
C4774 H4754 0.950 . S
C4774 C4773 1.414 . S
C4774 C4775 1.374 . S
C4775 H4755 0.950 . S
C4775 C4771 1.385 . S
C4775 C4774 1.374 . S
C4776 C4773 1.499 . S
C4776 C4777 1.373 . S
C4776 C4778 1.389 . S
C4777 H4756 0.950 . S
C4777 C4776 1.373 . S
C4777 C4793 1.377 . S
C4778 C4776 1.389 . S
C4778 C4779 1.524 1_556 S
C4778 C4792 1.381 . S
C4779 C4778 1.524 1_554 S
C4779 C4780 1.397 1_554 S
C4779 C4784 1.363 . S
C4780 H4757 0.950 . S
C4780 C4779 1.397 1_556 S
C4780 C4781 1.334 1_556 S
C4781 H4758 0.946 1_554 S
C4781 C4780 1.334 1_554 S
C4781 C4782 1.287 . S
C4782 C4781 1.287 . S
C4782 C4783 1.524 . S
C4782 H4801 0.913 . S
C4783 H4759 0.950 . S
C4783 C4782 1.524 . S
C4783 C4784 1.415 . S
C4784 H4760 0.950 . S
C4784 C4779 1.363 . S
C4784 C4783 1.415 . S
C4785 H4761 0.951 . S
C4785 C4786 1.352 1_556 S
C4785 C4787 1.388 . S
C4786 C4785 1.352 1_554 S
C4786 C4790 1.394 . S
C4787 H4762 0.951 . S
C4787 C4785 1.388 . S
C4787 C4788 1.366 . S
C4788 C4787 1.366 . S
C4788 C4789 1.414 1_556 S
C4788 C4791 1.499 . S
C4789 H4763 0.950 . S
C4789 C4788 1.414 1_554 S
C4789 C4790 1.374 . S
C4790 H4764 0.950 . S
C4790 C4786 1.394 . S
C4790 C4789 1.374 . S
C4791 C4788 1.499 . S
C4791 C4792 1.378 . S
C4791 C4793 1.389 . S
C4792 H4765 0.942 1_556 S
C4792 C4778 1.381 . S
C4792 C4791 1.378 . S
C4793 C4777 1.377 . S
C4793 C4791 1.389 . S
C4793 C4794 1.524 . S
C4794 C4793 1.524 . S
C4794 C4795 1.397 . S
C4794 C4799 1.363 . S
C4795 H4766 0.950 . S
C4795 C4794 1.397 . S
C4795 C4796 1.334 . S
C4796 H4767 0.950 . S
C4796 C4795 1.334 . S
C4796 C4797 1.287 . S
C4797 C4796 1.287 . S
C4797 C4798 1.524 . S
C4797 H4800 0.999 . S
C4798 H4768 0.950 . S
C4798 C4797 1.524 . S
C4798 C4799 1.415 . S
C4799 H4769 0.950 . S
C4799 C4794 1.363 . S
C4799 C4798 1.415 . S
H4800 C4797 0.999 . S
H4801 C4782 0.913 . S
H4802 C4820 0.951 . S
H4803 C4822 0.951 . S
H4804 C4824 0.950 . S
H4805 C4825 0.950 . S
H4806 C4827 0.950 . S
H4807 C4830 0.950 . S
H4808 C4831 0.950 . S
H4809 C4833 0.950 . S
H4810 C4834 0.950 . S
H4811 C4835 0.951 . S
H4812 C4837 0.951 . S
H4813 C4839 0.950 . S
H4814 C4840 0.950 . S
H4815 C4842 0.950 . S
H4816 C4845 0.950 . S
H4817 C4846 0.950 . S
H4818 C4848 0.950 . S
H4819 C4849 0.950 . S
C4820 H4802 0.951 . S
C4820 C4821 1.366 . S
C4820 C4822 1.388 . S
C4821 C4820 1.366 . S
C4821 C4825 1.385 . S
C4822 H4803 0.951 . S
C4822 C4820 1.388 . S
C4822 C4823 1.366 . S
C4823 C4822 1.366 . S
C4823 C4824 1.414 . S
C4823 C4826 1.499 . S
C4824 H4804 0.950 . S
C4824 C4823 1.414 . S
C4824 C4825 1.374 . S
C4825 H4805 0.950 . S
C4825 C4821 1.385 . S
C4825 C4824 1.374 . S
C4826 C4823 1.499 . S
C4826 C4827 1.373 . S
C4826 C4828 1.389 . S
C4827 H4806 0.950 . S
C4827 C4826 1.373 . S
C4827 C4843 1.377 . S
C4828 C4826 1.389 . S
C4828 C4829 1.524 . S
C4828 C4842 1.377 . S
C4829 C4828 1.524 . S
C4829 C4830 1.397 . S
C4829 C4834 1.363 . S
C4830 H4807 0.950 . S
C4830 C4829 1.397 . S
C4830 C4831 1.334 . S
C4831 H4808 0.950 . S
C4831 C4830 1.334 . S
C4831 C4832 1.287 . S
C4832 C4831 1.287 . S
C4832 C4833 1.524 . S
C4832 H4851 0.913 . S
C4833 H4809 0.950 . S
C4833 C4832 1.524 . S
C4833 C4834 1.415 . S
C4834 H4810 0.950 . S
C4834 C4829 1.363 . S
C4834 C4833 1.415 . S
C4835 H4811 0.951 . S
C4835 C4836 1.366 . S
C4835 C4837 1.388 . S
C4836 C4835 1.366 . S
C4836 C4840 1.385 . S
C4837 H4812 0.951 . S
C4837 C4835 1.388 . S
C4837 C4838 1.366 . S
C4838 C4837 1.366 . S
C4838 C4839 1.414 . S
C4838 C4841 1.499 . S
C4839 H4813 0.950 . S
C4839 C4838 1.414 . S
C4839 C4840 1.374 . S
C4840 H4814 0.950 . S
C4840 C4836 1.385 . S
C4840 C4839 1.374 . S
C4841 C4838 1.499 . S
C4841 C4842 1.373 . S
C4841 C4843 1.389 . S
C4842 H4815 0.950 . S
C4842 C4828 1.377 . S
C4842 C4841 1.373 . S
C4843 C4827 1.377 . S
C4843 C4841 1.389 . S
C4843 C4844 1.524 . S
C4844 C4843 1.524 . S
C4844 C4845 1.397 . S
C4844 C4849 1.363 . S
C4845 H4816 0.950 . S
C4845 C4844 1.397 . S
C4845 C4846 1.334 . S
C4846 H4817 0.950 . S
C4846 C4845 1.334 . S
C4846 C4847 1.287 . S
C4847 C4846 1.287 . S
C4847 C4848 1.524 . S
C4847 H4850 0.999 . S
C4848 H4818 0.950 . S
C4848 C4847 1.524 . S
C4848 C4849 1.415 . S
C4849 H4819 0.950 . S
C4849 C4844 1.363 . S
C4849 C4848 1.415 . S
H4850 C4847 0.999 . S
H4851 C4832 0.913 . S
H4852 C4870 0.951 . S
H4853 C4872 0.951 . S
H4854 C4874 0.950 . S
H4855 C4875 0.950 . S
H4856 C4877 0.950 . S
H4857 C4880 0.950 . S
H4858 C4881 0.950 . S
H4859 C4883 0.950 1_655 S
H4860 C4884 0.950 1_655 S
H4861 C4885 0.951 . S
H4862 C4887 0.951 . S
H4863 C4889 0.950 1_655 S
H4864 C4890 0.941 1_655 S
H4865 C4892 0.950 . S
H4866 C4895 0.950 . S
H4867 C4896 0.950 . S
H4868 C4898 0.950 . S
H4869 C4899 0.950 . S
C4870 H4852 0.951 . S
C4870 C4871 1.366 . S
C4870 C4872 1.388 . S
C4871 C4870 1.366 . S
C4871 C4875 1.385 . S
C4872 H4853 0.951 . S
C4872 C4870 1.388 . S
C4872 C4873 1.366 . S
C4873 C4872 1.366 . S
C4873 C4874 1.414 . S
C4873 C4876 1.499 . S
C4874 H4854 0.950 . S
C4874 C4873 1.414 . S
C4874 C4875 1.374 . S
C4875 H4855 0.950 . S
C4875 C4871 1.385 . S
C4875 C4874 1.374 . S
C4876 C4873 1.499 . S
C4876 C4877 1.373 . S
C4876 C4878 1.389 . S
C4877 H4856 0.950 . S
C4877 C4876 1.373 . S
C4877 C4893 1.377 . S
C4878 C4876 1.389 . S
C4878 C4879 1.524 . S
C4878 C4892 1.377 . S
C4879 C4878 1.524 . S
C4879 C4880 1.397 . S
C4879 C4884 1.363 . S
C4880 H4857 0.950 . S
C4880 C4879 1.397 . S
C4880 C4881 1.334 . S
C4881 H4858 0.950 . S
C4881 C4880 1.334 . S
C4881 C4882 1.287 . S
C4882 C4881 1.287 . S
C4882 C4883 1.524 . S
C4882 H4901 0.913 . S
C4883 H4859 0.950 1_455 S
C4883 C4882 1.524 . S
C4883 C4884 1.415 . S
C4884 H4860 0.950 1_455 S
C4884 C4879 1.363 . S
C4884 C4883 1.415 . S
C4885 H4861 0.951 . S
C4885 C4886 1.366 . S
C4885 C4887 1.388 . S
C4886 C4885 1.366 . S
C4886 C4890 1.390 . S
C4887 H4862 0.951 . S
C4887 C4885 1.388 . S
C4887 C4888 1.366 . S
C4888 C4887 1.366 . S
C4888 C4889 1.414 . S
C4888 C4891 1.499 . S
C4889 H4863 0.950 1_455 S
C4889 C4888 1.414 . S
C4889 C4890 1.378 . S
C4890 H4864 0.941 1_455 S
C4890 C4886 1.390 . S
C4890 C4889 1.378 . S
C4891 C4888 1.499 . S
C4891 C4892 1.373 . S
C4891 C4893 1.389 . S
C4892 H4865 0.950 . S
C4892 C4878 1.377 . S
C4892 C4891 1.373 . S
C4893 C4877 1.377 . S
C4893 C4891 1.389 . S
C4893 C4894 1.524 . S
C4894 C4893 1.524 . S
C4894 C4895 1.397 . S
C4894 C4899 1.363 . S
C4895 H4866 0.950 . S
C4895 C4894 1.397 . S
C4895 C4896 1.334 . S
C4896 H4867 0.950 . S
C4896 C4895 1.334 . S
C4896 C4897 1.287 . S
C4897 C4896 1.287 . S
C4897 C4898 1.524 . S
C4897 H4900 0.999 . S
C4898 H4868 0.950 . S
C4898 C4897 1.524 . S
C4898 C4899 1.415 . S
C4899 H4869 0.950 . S
C4899 C4894 1.363 . S
C4899 C4898 1.415 . S
H4900 C4897 0.999 . S
H4901 C4882 0.913 . S
H4902 C4920 0.951 . S
H4903 C4922 0.951 . S
H4904 C4924 0.950 . S
H4905 C4925 0.950 . S
H4906 C4927 0.950 . S
H4907 C4930 0.950 . S
H4908 C4931 0.950 . S
H4909 C4933 0.950 . S
H4910 C4934 0.950 . S
H4911 C4935 0.951 . S
H4912 C4937 0.951 . S
H4913 C4939 0.950 . S
H4914 C4940 0.950 . S
H4915 C4942 0.950 . S
H4916 C4945 0.950 . S
H4917 C4946 0.950 . S
H4918 C4948 0.950 . S
H4919 C4949 0.950 . S
C4920 H4902 0.951 . S
C4920 C4921 1.366 . S
C4920 C4922 1.388 . S
C4921 C4920 1.366 . S
C4921 C4925 1.385 . S
C4922 H4903 0.951 . S
C4922 C4920 1.388 . S
C4922 C4923 1.366 . S
C4923 C4922 1.366 . S
C4923 C4924 1.414 . S
C4923 C4926 1.499 . S
C4924 H4904 0.950 . S
C4924 C4923 1.414 . S
C4924 C4925 1.374 . S
C4925 H4905 0.950 . S
C4925 C4921 1.385 . S
C4925 C4924 1.374 . S
C4926 C4923 1.499 . S
C4926 C4927 1.373 . S
C4926 C4928 1.389 . S
C4927 H4906 0.950 . S
C4927 C4926 1.373 . S
C4927 C4943 1.377 . S
C4928 C4926 1.389 . S
C4928 C4929 1.524 . S
C4928 C4942 1.377 . S
C4929 C4928 1.524 . S
C4929 C4930 1.397 . S
C4929 C4934 1.363 . S
C4930 H4907 0.950 . S
C4930 C4929 1.397 . S
C4930 C4931 1.334 . S
C4931 H4908 0.950 . S
C4931 C4930 1.334 . S
C4931 C4932 1.287 . S
C4932 C4931 1.287 . S
C4932 C4933 1.524 . S
C4932 H4951 0.913 . S
C4933 H4909 0.950 . S
C4933 C4932 1.524 . S
C4933 C4934 1.415 . S
C4934 H4910 0.950 . S
C4934 C4929 1.363 . S
C4934 C4933 1.415 . S
C4935 H4911 0.951 . S
C4935 C4936 1.366 . S
C4935 C4937 1.388 . S
C4936 C4935 1.366 . S
C4936 C4940 1.385 . S
C4937 H4912 0.951 . S
C4937 C4935 1.388 . S
C4937 C4938 1.366 . S
C4938 C4937 1.366 . S
C4938 C4939 1.414 . S
C4938 C4941 1.499 . S
C4939 H4913 0.950 . S
C4939 C4938 1.414 . S
C4939 C4940 1.374 . S
C4940 H4914 0.950 . S
C4940 C4936 1.385 . S
C4940 C4939 1.374 . S
C4941 C4938 1.499 . S
C4941 C4942 1.373 . S
C4941 C4943 1.389 . S
C4942 H4915 0.950 . S
C4942 C4928 1.377 . S
C4942 C4941 1.373 . S
C4943 C4927 1.377 . S
C4943 C4941 1.389 . S
C4943 C4944 1.524 . S
C4944 C4943 1.524 . S
C4944 C4945 1.397 . S
C4944 C4949 1.363 . S
C4945 H4916 0.950 . S
C4945 C4944 1.397 . S
C4945 C4946 1.334 . S
C4946 H4917 0.950 . S
C4946 C4945 1.334 . S
C4946 C4947 1.287 . S
C4947 C4946 1.287 . S
C4947 C4948 1.524 . S
C4947 H4950 0.999 . S
C4948 H4918 0.950 . S
C4948 C4947 1.524 . S
C4948 C4949 1.415 . S
C4949 H4919 0.950 . S
C4949 C4944 1.363 . S
C4949 C4948 1.415 . S
H4950 C4947 0.999 . S
H4951 C4932 0.913 . S
H4952 C4970 0.951 . S
H4953 C4972 0.951 . S
H4954 C4974 0.950 . S
H4955 C4975 0.950 . S
H4956 C4977 0.950 . S
H4957 C4980 0.950 . S
H4958 C4981 0.950 . S
H4959 C4983 0.950 . S
H4960 C4984 0.950 . S
H4961 C4985 0.951 . S
H4962 C4987 0.951 . S
H4963 C4989 0.950 . S
H4964 C4990 0.950 . S
H4965 C4992 0.950 . S
H4966 C4995 0.950 . S
H4967 C4996 0.950 . S
H4968 C4998 0.950 . S
H4969 C4999 0.950 . S
C4970 H4952 0.951 . S
C4970 C4971 1.366 . S
C4970 C4972 1.388 . S
C4971 C4970 1.366 . S
C4971 C4975 1.385 . S
C4972 H4953 0.951 . S
C4972 C4970 1.388 . S
C4972 C4973 1.366 . S
C4973 C4972 1.366 . S
C4973 C4974 1.414 . S
C4973 C4976 1.499 . S
C4974 H4954 0.950 . S
C4974 C4973 1.414 . S
C4974 C4975 1.374 . S
C4975 H4955 0.950 . S
C4975 C4971 1.385 . S
C4975 C4974 1.374 . S
C4976 C4973 1.499 . S
C4976 C4977 1.373 . S
C4976 C4978 1.389 . S
C4977 H4956 0.950 . S
C4977 C4976 1.373 . S
C4977 C4993 1.377 . S
C4978 C4976 1.389 . S
C4978 C4979 1.524 . S
C4978 C4992 1.377 . S
C4979 C4978 1.524 . S
C4979 C4980 1.397 . S
C4979 C4984 1.363 . S
C4980 H4957 0.950 . S
C4980 C4979 1.397 . S
C4980 C4981 1.334 . S
C4981 H4958 0.950 . S
C4981 C4980 1.334 . S
C4981 C4982 1.287 . S
C4982 C4981 1.287 . S
C4982 C4983 1.524 . S
C4982 H5001 0.913 . S
C4983 H4959 0.950 . S
C4983 C4982 1.524 . S
C4983 C4984 1.415 . S
C4984 H4960 0.950 . S
C4984 C4979 1.363 . S
C4984 C4983 1.415 . S
C4985 H4961 0.951 . S
C4985 C4986 1.366 . S
C4985 C4987 1.388 . S
C4986 C4985 1.366 . S
C4986 C4990 1.385 . S
C4987 H4962 0.951 . S
C4987 C4985 1.388 . S
C4987 C4988 1.366 . S
C4988 C4987 1.366 . S
C4988 C4989 1.414 . S
C4988 C4991 1.499 . S
C4989 H4963 0.950 . S
C4989 C4988 1.414 . S
C4989 C4990 1.374 . S
C4990 H4964 0.950 . S
C4990 C4986 1.385 . S
C4990 C4989 1.374 . S
C4991 C4988 1.499 . S
C4991 C4992 1.373 . S
C4991 C4993 1.389 . S
C4992 H4965 0.950 . S
C4992 C4978 1.377 . S
C4992 C4991 1.373 . S
C4993 C4977 1.377 . S
C4993 C4991 1.389 . S
C4993 C4994 1.524 . S
C4994 C4993 1.524 . S
C4994 C4995 1.397 . S
C4994 C4999 1.363 . S
C4995 H4966 0.950 . S
C4995 C4994 1.397 . S
C4995 C4996 1.334 . S
C4996 H4967 0.950 . S
C4996 C4995 1.334 . S
C4996 C4997 1.287 . S
C4997 C4996 1.287 . S
C4997 C4998 1.524 . S
C4997 H5000 0.999 . S
C4998 H4968 0.950 . S
C4998 C4997 1.524 . S
C4998 C4999 1.415 . S
C4999 H4969 0.950 . S
C4999 C4994 1.363 . S
C4999 C4998 1.415 . S
H5000 C4997 0.999 . S
H5001 C4982 0.913 . S
H5002 C5020 0.951 . S
H5003 C5022 0.951 . S
H5004 C5024 0.950 . S
H5005 C5025 0.950 . S
H5006 C5027 0.950 . S
H5007 C5030 0.950 . S
H5008 C5031 0.950 . S
H5009 C5033 0.950 . S
H5010 C5034 0.950 . S
H5011 C5035 0.951 . S
H5012 C5037 0.951 . S
H5013 C5039 0.950 . S
H5014 C5040 0.950 . S
H5015 C5042 0.950 . S
H5016 C5045 0.950 . S
H5017 C5046 0.950 . S
H5018 C5048 0.950 . S
H5019 C5049 0.950 . S
C5020 H5002 0.951 . S
C5020 C5021 1.366 . S
C5020 C5022 1.388 . S
C5021 C5020 1.366 . S
C5021 C5025 1.385 . S
C5022 H5003 0.951 . S
C5022 C5020 1.388 . S
C5022 C5023 1.366 . S
C5023 C5022 1.366 . S
C5023 C5024 1.414 . S
C5023 C5026 1.499 . S
C5024 H5004 0.950 . S
C5024 C5023 1.414 . S
C5024 C5025 1.374 . S
C5025 H5005 0.950 . S
C5025 C5021 1.385 . S
C5025 C5024 1.374 . S
C5026 C5023 1.499 . S
C5026 C5027 1.373 . S
C5026 C5028 1.389 . S
C5027 H5006 0.950 . S
C5027 C5026 1.373 . S
C5027 C5043 1.377 . S
C5028 C5026 1.389 . S
C5028 C5029 1.524 . S
C5028 C5042 1.377 . S
C5029 C5028 1.524 . S
C5029 C5030 1.397 . S
C5029 C5034 1.363 . S
C5030 H5007 0.950 . S
C5030 C5029 1.397 . S
C5030 C5031 1.334 . S
C5031 H5008 0.950 . S
C5031 C5030 1.334 . S
C5031 C5032 1.287 . S
C5032 C5031 1.287 . S
C5032 C5033 1.524 . S
C5032 H5051 0.913 . S
C5033 H5009 0.950 . S
C5033 C5032 1.524 . S
C5033 C5034 1.415 . S
C5034 H5010 0.950 . S
C5034 C5029 1.363 . S
C5034 C5033 1.415 . S
C5035 H5011 0.951 . S
C5035 C5036 1.366 . S
C5035 C5037 1.388 . S
C5036 C5035 1.366 . S
C5036 C5040 1.385 . S
C5037 H5012 0.951 . S
C5037 C5035 1.388 . S
C5037 C5038 1.366 . S
C5038 C5037 1.366 . S
C5038 C5039 1.414 . S
C5038 C5041 1.499 . S
C5039 H5013 0.950 . S
C5039 C5038 1.414 . S
C5039 C5040 1.374 . S
C5040 H5014 0.950 . S
C5040 C5036 1.385 . S
C5040 C5039 1.374 . S
C5041 C5038 1.499 . S
C5041 C5042 1.373 . S
C5041 C5043 1.389 . S
C5042 H5015 0.950 . S
C5042 C5028 1.377 . S
C5042 C5041 1.373 . S
C5043 C5027 1.377 . S
C5043 C5041 1.389 . S
C5043 C5044 1.524 . S
C5044 C5043 1.524 . S
C5044 C5045 1.397 . S
C5044 C5049 1.363 . S
C5045 H5016 0.950 . S
C5045 C5044 1.397 . S
C5045 C5046 1.334 . S
C5046 H5017 0.950 . S
C5046 C5045 1.334 . S
C5046 C5047 1.287 . S
C5047 C5046 1.287 . S
C5047 C5048 1.524 . S
C5047 H5050 0.999 . S
C5048 H5018 0.950 . S
C5048 C5047 1.524 . S
C5048 C5049 1.415 . S
C5049 H5019 0.950 . S
C5049 C5044 1.363 . S
C5049 C5048 1.415 . S
H5050 C5047 0.999 . S
H5051 C5032 0.913 . S
H5052 C5070 0.951 . S
H5053 C5072 0.951 . S
H5054 C5074 0.950 . S
H5055 C5075 0.950 . S
H5056 C5077 0.950 . S
H5057 C5080 0.950 . S
H5058 C5081 0.950 . S
H5059 C5083 0.950 . S
H5060 C5084 0.950 . S
H5061 C5085 0.951 . S
H5062 C5087 0.951 . S
H5063 C5089 0.950 1_455 S
H5064 C5090 0.950 . S
H5065 C5092 0.950 . S
H5066 C5095 0.950 . S
H5067 C5096 1.008 . S
H5068 C5098 0.950 . S
H5069 C5099 0.950 . S
C5070 H5052 0.951 . S
C5070 C5071 1.366 . S
C5070 C5072 1.388 . S
C5071 C5070 1.366 . S
C5071 C5075 1.385 . S
C5072 H5053 0.951 . S
C5072 C5070 1.388 . S
C5072 C5073 1.366 . S
C5073 C5072 1.366 . S
C5073 C5074 1.414 . S
C5073 C5076 1.499 . S
C5074 H5054 0.950 . S
C5074 C5073 1.414 . S
C5074 C5075 1.374 . S
C5075 H5055 0.950 . S
C5075 C5071 1.385 . S
C5075 C5074 1.374 . S
C5076 C5073 1.499 . S
C5076 C5077 1.373 . S
C5076 C5078 1.389 . S
C5077 H5056 0.950 . S
C5077 C5076 1.373 . S
C5077 C5093 1.377 . S
C5078 C5076 1.389 . S
C5078 C5079 1.524 . S
C5078 C5092 1.377 . S
C5079 C5078 1.524 . S
C5079 C5080 1.397 . S
C5079 C5084 1.363 . S
C5080 H5057 0.950 . S
C5080 C5079 1.397 . S
C5080 C5081 1.334 . S
C5081 H5058 0.950 . S
C5081 C5080 1.334 . S
C5081 C5082 1.287 . S
C5082 C5081 1.287 . S
C5082 C5083 1.524 . S
C5082 H5101 0.913 . S
C5083 H5059 0.950 . S
C5083 C5082 1.524 . S
C5083 C5084 1.415 . S
C5084 H5060 0.950 . S
C5084 C5079 1.363 . S
C5084 C5083 1.415 . S
C5085 H5061 0.951 . S
C5085 C5086 1.366 . S
C5085 C5087 1.388 . S
C5086 C5085 1.366 . S
C5086 C5090 1.385 1_655 S
C5087 H5062 0.951 . S
C5087 C5085 1.388 . S
C5087 C5088 1.366 . S
C5088 C5087 1.366 . S
C5088 C5089 1.414 . S
C5088 C5091 1.499 . S
C5089 H5063 0.950 1_655 S
C5089 C5088 1.414 . S
C5089 C5090 1.374 1_655 S
C5090 H5064 0.950 . S
C5090 C5086 1.385 1_455 S
C5090 C5089 1.374 1_455 S
C5091 C5088 1.499 . S
C5091 C5092 1.373 . S
C5091 C5093 1.389 . S
C5092 H5065 0.950 . S
C5092 C5078 1.377 . S
C5092 C5091 1.373 . S
C5093 C5077 1.377 . S
C5093 C5091 1.389 . S
C5093 C5094 1.524 . S
C5094 C5093 1.524 . S
C5094 C5095 1.397 . S
C5094 C5099 1.363 . S
C5095 H5066 0.950 . S
C5095 C5094 1.397 . S
C5095 C5096 1.334 . S
C5096 H5067 1.008 . S
C5096 C5095 1.334 . S
C5096 C5097 1.287 . S
C5097 C5096 1.287 . S
C5097 C5098 1.524 . S
C5097 H5100 0.999 . S
C5098 H5068 0.950 . S
C5098 C5097 1.524 . S
C5098 C5099 1.415 . S
C5099 H5069 0.950 . S
C5099 C5094 1.363 . S
C5099 C5098 1.415 . S
H5100 C5097 0.999 . S
H5101 C5082 0.913 . S
H5102 C5120 0.951 . S
H5103 C5122 0.951 . S
H5104 C5124 0.950 . S
H5105 C5125 0.950 . S
H5106 C5127 0.950 . S
H5107 C5130 0.950 . S
H5108 C5131 0.950 . S
H5109 C5133 0.950 . S
H5110 C5134 0.950 . S
H5111 C5135 0.951 . S
H5112 C5137 0.951 . S
H5113 C5139 0.950 . S
H5114 C5140 0.950 . S
H5115 C5142 0.950 . S
H5116 C5145 0.950 . S
H5117 C5146 0.950 . S
H5118 C5148 0.950 . S
H5119 C5149 0.950 . S
C5120 H5102 0.951 . S
C5120 C5121 1.366 . S
C5120 C5122 1.388 . S
C5121 C5120 1.366 . S
C5121 C5125 1.385 . S
C5122 H5103 0.951 . S
C5122 C5120 1.388 . S
C5122 C5123 1.366 . S
C5123 C5122 1.366 . S
C5123 C5124 1.414 . S
C5123 C5126 1.499 . S
C5124 H5104 0.950 . S
C5124 C5123 1.414 . S
C5124 C5125 1.374 . S
C5125 H5105 0.950 . S
C5125 C5121 1.385 . S
C5125 C5124 1.374 . S
C5126 C5123 1.499 . S
C5126 C5127 1.373 . S
C5126 C5128 1.389 . S
C5127 H5106 0.950 . S
C5127 C5126 1.373 . S
C5127 C5143 1.377 . S
C5128 C5126 1.389 . S
C5128 C5129 1.524 . S
C5128 C5142 1.377 . S
C5129 C5128 1.524 . S
C5129 C5130 1.397 . S
C5129 C5134 1.363 . S
C5130 H5107 0.950 . S
C5130 C5129 1.397 . S
C5130 C5131 1.334 . S
C5131 H5108 0.950 . S
C5131 C5130 1.334 . S
C5131 C5132 1.287 . S
C5132 C5131 1.287 . S
C5132 C5133 1.524 . S
C5132 H5151 0.913 . S
C5133 H5109 0.950 . S
C5133 C5132 1.524 . S
C5133 C5134 1.415 . S
C5134 H5110 0.950 . S
C5134 C5129 1.363 . S
C5134 C5133 1.415 . S
C5135 H5111 0.951 . S
C5135 C5136 1.366 . S
C5135 C5137 1.388 . S
C5136 C5135 1.366 . S
C5136 C5140 1.385 . S
C5137 H5112 0.951 . S
C5137 C5135 1.388 . S
C5137 C5138 1.366 . S
C5138 C5137 1.366 . S
C5138 C5139 1.414 . S
C5138 C5141 1.499 . S
C5139 H5113 0.950 . S
C5139 C5138 1.414 . S
C5139 C5140 1.374 . S
C5140 H5114 0.950 . S
C5140 C5136 1.385 . S
C5140 C5139 1.374 . S
C5141 C5138 1.499 . S
C5141 C5142 1.373 . S
C5141 C5143 1.389 . S
C5142 H5115 0.950 . S
C5142 C5128 1.377 . S
C5142 C5141 1.373 . S
C5143 C5127 1.377 . S
C5143 C5141 1.389 . S
C5143 C5144 1.524 . S
C5144 C5143 1.524 . S
C5144 C5145 1.397 . S
C5144 C5149 1.363 . S
C5145 H5116 0.950 . S
C5145 C5144 1.397 . S
C5145 C5146 1.334 . S
C5146 H5117 0.950 . S
C5146 C5145 1.334 . S
C5146 C5147 1.287 . S
C5147 C5146 1.287 . S
C5147 C5148 1.524 . S
C5147 H5150 0.999 . S
C5148 H5118 0.950 . S
C5148 C5147 1.524 . S
C5148 C5149 1.415 . S
C5149 H5119 0.950 . S
C5149 C5144 1.363 . S
C5149 C5148 1.415 . S
H5150 C5147 0.999 . S
H5151 C5132 0.913 . S
H5152 C5170 0.951 . S
H5153 C5172 0.951 . S
H5154 C5174 0.950 . S
H5155 C5175 0.950 . S
H5156 C5177 0.950 . S
H5157 C5180 0.950 . S
H5158 C5181 0.950 . S
H5159 C5183 0.950 . S
H5160 C5184 0.950 . S
H5161 C5185 0.951 . S
H5162 C5187 0.951 . S
H5163 C5189 0.950 . S
H5164 C5190 0.950 . S
H5165 C5192 0.950 . S
H5166 C5195 0.950 . S
H5167 C5196 0.950 . S
H5168 C5198 0.950 . S
H5169 C5199 0.950 . S
C5170 H5152 0.951 . S
C5170 C5171 1.366 . S
C5170 C5172 1.388 . S
C5171 C5170 1.366 . S
C5171 C5175 1.385 . S
C5172 H5153 0.951 . S
C5172 C5170 1.388 . S
C5172 C5173 1.366 . S
C5173 C5172 1.366 . S
C5173 C5174 1.414 . S
C5173 C5176 1.499 . S
C5174 H5154 0.950 . S
C5174 C5173 1.414 . S
C5174 C5175 1.374 . S
C5175 H5155 0.950 . S
C5175 C5171 1.385 . S
C5175 C5174 1.374 . S
C5176 C5173 1.499 . S
C5176 C5177 1.373 . S
C5176 C5178 1.389 . S
C5177 H5156 0.950 . S
C5177 C5176 1.373 . S
C5177 C5193 1.377 . S
C5178 C5176 1.389 . S
C5178 C5179 1.524 . S
C5178 C5192 1.377 . S
C5179 C5178 1.524 . S
C5179 C5180 1.397 . S
C5179 C5184 1.363 . S
C5180 H5157 0.950 . S
C5180 C5179 1.397 . S
C5180 C5181 1.334 . S
C5181 H5158 0.950 . S
C5181 C5180 1.334 . S
C5181 C5182 1.287 . S
C5182 C5181 1.287 . S
C5182 C5183 1.524 . S
C5182 H5201 0.913 . S
C5183 H5159 0.950 . S
C5183 C5182 1.524 . S
C5183 C5184 1.415 . S
C5184 H5160 0.950 . S
C5184 C5179 1.363 . S
C5184 C5183 1.415 . S
C5185 H5161 0.951 . S
C5185 C5186 1.366 . S
C5185 C5187 1.388 . S
C5186 C5185 1.366 . S
C5186 C5190 1.385 . S
C5187 H5162 0.951 . S
C5187 C5185 1.388 . S
C5187 C5188 1.366 . S
C5188 C5187 1.366 . S
C5188 C5189 1.414 . S
C5188 C5191 1.499 . S
C5189 H5163 0.950 . S
C5189 C5188 1.414 . S
C5189 C5190 1.374 . S
C5190 H5164 0.950 . S
C5190 C5186 1.385 . S
C5190 C5189 1.374 . S
C5191 C5188 1.499 . S
C5191 C5192 1.373 . S
C5191 C5193 1.389 . S
C5192 H5165 0.950 . S
C5192 C5178 1.377 . S
C5192 C5191 1.373 . S
C5193 C5177 1.377 . S
C5193 C5191 1.389 . S
C5193 C5194 1.524 . S
C5194 C5193 1.524 . S
C5194 C5195 1.397 . S
C5194 C5199 1.363 . S
C5195 H5166 0.950 . S
C5195 C5194 1.397 . S
C5195 C5196 1.334 . S
C5196 H5167 0.950 . S
C5196 C5195 1.334 . S
C5196 C5197 1.287 . S
C5197 C5196 1.287 . S
C5197 C5198 1.524 . S
C5197 H5200 0.999 . S
C5198 H5168 0.950 . S
C5198 C5197 1.524 . S
C5198 C5199 1.415 . S
C5199 H5169 0.950 . S
C5199 C5194 1.363 . S
C5199 C5198 1.415 . S
H5200 C5197 0.999 . S
H5201 C5182 0.913 . S
H5202 C5220 0.951 . S
H5203 C5222 0.951 . S
H5204 C5224 0.950 . S
H5205 C5225 0.950 1_554 S
H5206 C5227 0.950 . S
H5207 C5230 0.950 . S
H5208 C5231 0.950 . S
H5209 C5233 0.950 . S
H5210 C5234 0.950 . S
H5211 C5235 0.951 . S
H5212 C5237 0.951 . S
H5213 C5239 0.950 . S
H5214 C5240 0.950 . S
H5215 C5242 0.950 . S
H5216 C5245 0.950 . S
H5217 C5246 0.950 . S
H5218 C5248 0.950 . S
H5219 C5249 0.950 . S
C5220 H5202 0.951 . S
C5220 C5221 1.384 . S
C5220 C5222 1.388 . S
C5221 C5220 1.384 . S
C5221 C5225 1.402 . S
C5222 H5203 0.951 . S
C5222 C5220 1.388 . S
C5222 C5223 1.366 . S
C5223 C5222 1.366 . S
C5223 C5224 1.414 . S
C5223 C5226 1.499 . S
C5224 H5204 0.950 . S
C5224 C5223 1.414 . S
C5224 C5225 1.374 . S
C5225 H5205 0.950 1_556 S
C5225 C5221 1.402 . S
C5225 C5224 1.374 . S
C5226 C5223 1.499 . S
C5226 C5227 1.373 . S
C5226 C5228 1.389 . S
C5227 H5206 0.950 . S
C5227 C5226 1.373 . S
C5227 C5243 1.377 . S
C5228 C5226 1.389 . S
C5228 C5229 1.524 . S
C5228 C5242 1.377 . S
C5229 C5228 1.524 . S
C5229 C5230 1.397 . S
C5229 C5234 1.363 . S
C5230 H5207 0.950 . S
C5230 C5229 1.397 . S
C5230 C5231 1.334 . S
C5231 H5208 0.950 . S
C5231 C5230 1.334 . S
C5231 C5232 1.287 . S
C5232 C5231 1.287 . S
C5232 C5233 1.524 . S
C5232 H5251 0.913 . S
C5233 H5209 0.950 . S
C5233 C5232 1.524 . S
C5233 C5234 1.415 . S
C5234 H5210 0.950 . S
C5234 C5229 1.363 . S
C5234 C5233 1.415 . S
C5235 H5211 0.951 . S
C5235 C5236 1.366 . S
C5235 C5237 1.388 . S
C5236 C5235 1.366 . S
C5236 C5240 1.385 . S
C5237 H5212 0.951 . S
C5237 C5235 1.388 . S
C5237 C5238 1.366 . S
C5238 C5237 1.366 . S
C5238 C5239 1.414 . S
C5238 C5241 1.499 . S
C5239 H5213 0.950 . S
C5239 C5238 1.414 . S
C5239 C5240 1.374 . S
C5240 H5214 0.950 . S
C5240 C5236 1.385 . S
C5240 C5239 1.374 . S
C5241 C5238 1.499 . S
C5241 C5242 1.373 . S
C5241 C5243 1.389 . S
C5242 H5215 0.950 . S
C5242 C5228 1.377 . S
C5242 C5241 1.373 . S
C5243 C5227 1.377 . S
C5243 C5241 1.389 . S
C5243 C5244 1.524 . S
C5244 C5243 1.524 . S
C5244 C5245 1.397 . S
C5244 C5249 1.363 . S
C5245 H5216 0.950 . S
C5245 C5244 1.397 . S
C5245 C5246 1.334 . S
C5246 H5217 0.950 . S
C5246 C5245 1.334 . S
C5246 C5247 1.287 . S
C5247 C5246 1.287 . S
C5247 C5248 1.524 . S
C5247 H5250 0.999 . S
C5248 H5218 0.950 . S
C5248 C5247 1.524 . S
C5248 C5249 1.415 . S
C5249 H5219 0.950 . S
C5249 C5244 1.363 . S
C5249 C5248 1.415 . S
H5250 C5247 0.999 . S
H5251 C5232 0.913 . S
H5252 C5270 0.951 . S
H5253 C5272 0.951 . S
H5254 C5274 0.950 . S
H5255 C5275 0.950 . S
H5256 C5277 0.950 . S
H5257 C5280 0.950 . S
H5258 C5281 0.950 . S
H5259 C5283 0.950 . S
H5260 C5284 0.950 . S
H5261 C5285 0.951 . S
H5262 C5287 0.951 . S
H5263 C5289 0.950 . S
H5264 C5290 0.950 1_455 S
H5265 C5292 0.950 . S
H5266 C5295 0.950 . S
H5267 C5296 0.950 . S
H5268 C5298 0.950 . S
H5269 C5299 0.950 . S
C5270 H5252 0.951 . S
C5270 C5271 1.366 . S
C5270 C5272 1.388 . S
C5271 C5270 1.366 . S
C5271 C5275 1.385 . S
C5272 H5253 0.951 . S
C5272 C5270 1.388 . S
C5272 C5273 1.366 . S
C5273 C5272 1.366 . S
C5273 C5274 1.414 . S
C5273 C5276 1.499 . S
C5274 H5254 0.950 . S
C5274 C5273 1.414 . S
C5274 C5275 1.374 . S
C5275 H5255 0.950 . S
C5275 C5271 1.385 . S
C5275 C5274 1.374 . S
C5276 C5273 1.499 . S
C5276 C5277 1.373 . S
C5276 C5278 1.389 . S
C5277 H5256 0.950 . S
C5277 C5276 1.373 . S
C5277 C5293 1.377 . S
C5278 C5276 1.389 . S
C5278 C5279 1.524 . S
C5278 C5292 1.377 . S
C5279 C5278 1.524 . S
C5279 C5280 1.397 . S
C5279 C5284 1.363 . S
C5280 H5257 0.950 . S
C5280 C5279 1.397 . S
C5280 C5281 1.334 . S
C5281 H5258 0.950 . S
C5281 C5280 1.334 . S
C5281 C5282 1.287 . S
C5282 C5281 1.287 . S
C5282 C5283 1.524 . S
C5282 H5301 0.913 . S
C5283 H5259 0.950 . S
C5283 C5282 1.524 . S
C5283 C5284 1.415 . S
C5284 H5260 0.950 . S
C5284 C5279 1.363 . S
C5284 C5283 1.415 . S
C5285 H5261 0.951 . S
C5285 C5286 1.366 . S
C5285 C5287 1.388 . S
C5286 C5285 1.366 . S
C5286 C5290 1.385 . S
C5287 H5262 0.951 . S
C5287 C5285 1.388 . S
C5287 C5288 1.366 . S
C5288 C5287 1.366 . S
C5288 C5289 1.414 . S
C5288 C5291 1.499 . S
C5289 H5263 0.950 . S
C5289 C5288 1.414 . S
C5289 C5290 1.374 . S
C5290 H5264 0.950 1_655 S
C5290 C5286 1.385 . S
C5290 C5289 1.374 . S
C5291 C5288 1.499 . S
C5291 C5292 1.373 . S
C5291 C5293 1.389 . S
C5292 H5265 0.950 . S
C5292 C5278 1.377 . S
C5292 C5291 1.373 . S
C5293 C5277 1.377 . S
C5293 C5291 1.389 . S
C5293 C5294 1.524 . S
C5294 C5293 1.524 . S
C5294 C5295 1.397 . S
C5294 C5299 1.363 . S
C5295 H5266 0.950 . S
C5295 C5294 1.397 . S
C5295 C5296 1.334 . S
C5296 H5267 0.950 . S
C5296 C5295 1.334 . S
C5296 C5297 1.287 . S
C5297 C5296 1.287 . S
C5297 C5298 1.524 . S
C5297 H5300 0.999 . S
C5298 H5268 0.950 . S
C5298 C5297 1.524 . S
C5298 C5299 1.415 . S
C5299 H5269 0.950 . S
C5299 C5294 1.363 . S
C5299 C5298 1.415 . S
H5300 C5297 0.999 . S
H5301 C5282 0.913 . S
H5302 C5320 0.951 . S
H5303 C5322 0.951 . S
H5304 C5324 0.950 . S
H5305 C5325 0.950 . S
H5306 C5327 0.950 . S
H5307 C5330 0.950 . S
H5308 C5331 0.950 . S
H5309 C5333 0.950 . S
H5310 C5334 0.950 . S
H5311 C5335 0.951 . S
H5312 C5337 0.951 . S
H5313 C5339 0.950 . S
H5314 C5340 0.950 . S
H5315 C5342 0.950 . S
H5316 C5345 0.950 . S
H5317 C5346 0.950 . S
H5318 C5348 0.950 . S
H5319 C5349 0.950 . S
C5320 H5302 0.951 . S
C5320 C5321 1.366 . S
C5320 C5322 1.388 . S
C5321 C5320 1.366 . S
C5321 C5325 1.385 . S
C5322 H5303 0.951 . S
C5322 C5320 1.388 . S
C5322 C5323 1.366 . S
C5323 C5322 1.366 . S
C5323 C5324 1.414 . S
C5323 C5326 1.499 . S
C5324 H5304 0.950 . S
C5324 C5323 1.414 . S
C5324 C5325 1.374 . S
C5325 H5305 0.950 . S
C5325 C5321 1.385 . S
C5325 C5324 1.374 . S
C5326 C5323 1.499 . S
C5326 C5327 1.373 . S
C5326 C5328 1.389 . S
C5327 H5306 0.950 . S
C5327 C5326 1.373 . S
C5327 C5343 1.377 . S
C5328 C5326 1.389 . S
C5328 C5329 1.524 . S
C5328 C5342 1.377 . S
C5329 C5328 1.524 . S
C5329 C5330 1.397 . S
C5329 C5334 1.363 . S
C5330 H5307 0.950 . S
C5330 C5329 1.397 . S
C5330 C5331 1.334 . S
C5331 H5308 0.950 . S
C5331 C5330 1.334 . S
C5331 C5332 1.287 . S
C5332 C5331 1.287 . S
C5332 C5333 1.524 . S
C5332 H5351 0.913 . S
C5333 H5309 0.950 . S
C5333 C5332 1.524 . S
C5333 C5334 1.415 . S
C5334 H5310 0.950 . S
C5334 C5329 1.363 . S
C5334 C5333 1.415 . S
C5335 H5311 0.951 . S
C5335 C5336 1.366 . S
C5335 C5337 1.388 . S
C5336 C5335 1.366 . S
C5336 C5340 1.385 . S
C5337 H5312 0.951 . S
C5337 C5335 1.388 . S
C5337 C5338 1.366 . S
C5338 C5337 1.366 . S
C5338 C5339 1.414 . S
C5338 C5341 1.499 . S
C5339 H5313 0.950 . S
C5339 C5338 1.414 . S
C5339 C5340 1.374 . S
C5340 H5314 0.950 . S
C5340 C5336 1.385 . S
C5340 C5339 1.374 . S
C5341 C5338 1.499 . S
C5341 C5342 1.373 . S
C5341 C5343 1.389 . S
C5342 H5315 0.950 . S
C5342 C5328 1.377 . S
C5342 C5341 1.373 . S
C5343 C5327 1.377 . S
C5343 C5341 1.389 . S
C5343 C5344 1.524 . S
C5344 C5343 1.524 . S
C5344 C5345 1.397 . S
C5344 C5349 1.363 . S
C5345 H5316 0.950 . S
C5345 C5344 1.397 . S
C5345 C5346 1.334 . S
C5346 H5317 0.950 . S
C5346 C5345 1.334 . S
C5346 C5347 1.287 . S
C5347 C5346 1.287 . S
C5347 C5348 1.524 . S
C5347 H5350 0.999 . S
C5348 H5318 0.950 . S
C5348 C5347 1.524 . S
C5348 C5349 1.415 . S
C5349 H5319 0.950 . S
C5349 C5344 1.363 . S
C5349 C5348 1.415 . S
H5350 C5347 0.999 . S
H5351 C5332 0.913 . S
H5352 C5370 0.951 . S
H5353 C5372 0.951 . S
H5354 C5374 0.950 . S
H5355 C5375 0.950 . S
H5356 C5377 0.950 . S
H5357 C5380 0.950 . S
H5358 C5381 0.950 . S
H5359 C5383 0.950 . S
H5360 C5384 0.950 . S
H5361 C5385 0.951 . S
H5362 C5387 0.951 . S
H5363 C5389 0.950 . S
H5364 C5390 0.950 . S
H5365 C5392 0.950 . S
H5366 C5395 0.950 . S
H5367 C5396 0.950 . S
H5368 C5398 0.950 . S
H5369 C5399 0.950 . S
C5370 H5352 0.951 . S
C5370 C5371 1.366 . S
C5370 C5372 1.388 . S
C5371 C5370 1.366 . S
C5371 C5375 1.385 . S
C5372 H5353 0.951 . S
C5372 C5370 1.388 . S
C5372 C5373 1.366 . S
C5373 C5372 1.366 . S
C5373 C5374 1.414 . S
C5373 C5376 1.499 . S
C5374 H5354 0.950 . S
C5374 C5373 1.414 . S
C5374 C5375 1.374 . S
C5375 H5355 0.950 . S
C5375 C5371 1.385 . S
C5375 C5374 1.374 . S
C5376 C5373 1.499 . S
C5376 C5377 1.373 . S
C5376 C5378 1.389 . S
C5377 H5356 0.950 . S
C5377 C5376 1.373 . S
C5377 C5393 1.377 . S
C5378 C5376 1.389 . S
C5378 C5379 1.524 . S
C5378 C5392 1.377 . S
C5379 C5378 1.524 . S
C5379 C5380 1.397 . S
C5379 C5384 1.363 . S
C5380 H5357 0.950 . S
C5380 C5379 1.397 . S
C5380 C5381 1.334 . S
C5381 H5358 0.950 . S
C5381 C5380 1.334 . S
C5381 C5382 1.287 . S
C5382 C5381 1.287 . S
C5382 C5383 1.524 . S
C5382 H5401 0.913 . S
C5383 H5359 0.950 . S
C5383 C5382 1.524 . S
C5383 C5384 1.415 . S
C5384 H5360 0.950 . S
C5384 C5379 1.363 . S
C5384 C5383 1.415 . S
C5385 H5361 0.951 . S
C5385 C5386 1.366 . S
C5385 C5387 1.388 . S
C5386 C5385 1.366 . S
C5386 C5390 1.385 . S
C5387 H5362 0.951 . S
C5387 C5385 1.388 . S
C5387 C5388 1.366 . S
C5388 C5387 1.366 . S
C5388 C5389 1.414 . S
C5388 C5391 1.499 . S
C5389 H5363 0.950 . S
C5389 C5388 1.414 . S
C5389 C5390 1.374 . S
C5390 H5364 0.950 . S
C5390 C5386 1.385 . S
C5390 C5389 1.374 . S
C5391 C5388 1.499 . S
C5391 C5392 1.373 . S
C5391 C5393 1.389 . S
C5392 H5365 0.950 . S
C5392 C5378 1.377 . S
C5392 C5391 1.373 . S
C5393 C5377 1.377 . S
C5393 C5391 1.389 . S
C5393 C5394 1.524 . S
C5394 C5393 1.524 . S
C5394 C5395 1.397 . S
C5394 C5399 1.363 . S
C5395 H5366 0.950 . S
C5395 C5394 1.397 . S
C5395 C5396 1.334 . S
C5396 H5367 0.950 . S
C5396 C5395 1.334 . S
C5396 C5397 1.287 . S
C5397 C5396 1.287 . S
C5397 C5398 1.524 . S
C5397 H5400 0.999 . S
C5398 H5368 0.950 . S
C5398 C5397 1.524 . S
C5398 C5399 1.415 . S
C5399 H5369 0.950 . S
C5399 C5394 1.363 . S
C5399 C5398 1.415 . S
H5400 C5397 0.999 . S
H5401 C5382 0.913 . S
H5402 C5420 0.951 . S
H5403 C5422 0.951 . S
H5404 C5424 0.973 . S
H5405 C5425 0.950 . S
H5406 C5427 0.950 . S
H5407 C5430 0.950 . S
H5408 C5431 0.950 . S
H5409 C5433 0.950 . S
H5410 C5434 0.950 1_565 S
H5411 C5435 0.951 . S
H5412 C5437 0.951 . S
H5413 C5439 0.950 . S
H5414 C5440 0.950 . S
H5415 C5442 0.950 . S
H5416 C5445 0.950 . S
H5417 C5446 0.950 . S
H5418 C5448 0.950 . S
H5419 C5449 0.923 1_545 S
C5420 H5402 0.951 . S
C5420 C5421 1.366 . S
C5420 C5422 1.388 . S
C5421 C5420 1.366 . S
C5421 C5425 1.385 . S
C5422 H5403 0.951 . S
C5422 C5420 1.388 . S
C5422 C5423 1.366 . S
C5423 C5422 1.366 . S
C5423 C5424 1.414 . S
C5423 C5426 1.499 . S
C5424 H5404 0.973 . S
C5424 C5423 1.414 . S
C5424 C5425 1.374 . S
C5425 H5405 0.950 . S
C5425 C5421 1.385 . S
C5425 C5424 1.374 . S
C5426 C5423 1.499 . S
C5426 C5427 1.373 . S
C5426 C5428 1.389 1_565 S
C5427 H5406 0.950 . S
C5427 C5426 1.373 . S
C5427 C5443 1.377 . S
C5428 C5426 1.389 1_545 S
C5428 C5429 1.524 . S
C5428 C5442 1.377 . S
C5429 C5428 1.524 . S
C5429 C5430 1.397 . S
C5429 C5434 1.363 . S
C5430 H5407 0.950 . S
C5430 C5429 1.397 . S
C5430 C5431 1.334 . S
C5431 H5408 0.950 . S
C5431 C5430 1.334 . S
C5431 C5432 1.287 . S
C5432 C5431 1.287 . S
C5432 C5433 1.524 . S
C5432 H5451 0.913 . S
C5433 H5409 0.950 . S
C5433 C5432 1.524 . S
C5433 C5434 1.415 . S
C5434 H5410 0.950 1_545 S
C5434 C5429 1.363 . S
C5434 C5433 1.415 . S
C5435 H5411 0.951 . S
C5435 C5436 1.366 . S
C5435 C5437 1.388 . S
C5436 C5435 1.366 . S
C5436 C5440 1.385 . S
C5437 H5412 0.951 . S
C5437 C5435 1.388 . S
C5437 C5438 1.366 . S
C5438 C5437 1.366 . S
C5438 C5439 1.414 . S
C5438 C5441 1.499 . S
C5439 H5413 0.950 . S
C5439 C5438 1.414 . S
C5439 C5440 1.374 . S
C5440 H5414 0.950 . S
C5440 C5436 1.385 . S
C5440 C5439 1.374 . S
C5441 C5438 1.499 . S
C5441 C5442 1.373 . S
C5441 C5443 1.389 1_545 S
C5442 H5415 0.950 . S
C5442 C5428 1.377 . S
C5442 C5441 1.373 . S
C5443 C5427 1.377 . S
C5443 C5441 1.389 1_565 S
C5443 C5444 1.524 . S
C5444 C5443 1.524 . S
C5444 C5445 1.397 . S
C5444 C5449 1.385 . S
C5445 H5416 0.950 . S
C5445 C5444 1.397 . S
C5445 C5446 1.334 . S
C5446 H5417 0.950 . S
C5446 C5445 1.334 . S
C5446 C5447 1.287 . S
C5447 C5446 1.287 . S
C5447 C5448 1.524 . S
C5447 H5450 0.999 . S
C5448 H5418 0.950 . S
C5448 C5447 1.524 . S
C5448 C5449 1.422 . S
C5449 H5419 0.923 1_565 S
C5449 C5444 1.385 . S
C5449 C5448 1.422 . S
H5450 C5447 0.999 . S
H5451 C5432 0.913 . S
H5452 C5470 0.951 . S
H5453 C5472 0.951 . S
H5454 C5474 0.950 . S
H5455 C5475 0.950 . S
H5456 C5477 0.950 . S
H5457 C5480 0.950 . S
H5458 C5481 0.950 . S
H5459 C5483 0.950 . S
H5460 C5484 0.950 . S
H5461 C5485 0.951 . S
H5462 C5487 0.951 . S
H5463 C5489 0.950 . S
H5464 C5490 0.950 . S
H5465 C5492 0.950 . S
H5466 C5495 0.950 . S
H5467 C5496 0.950 . S
H5468 C5498 0.950 . S
H5469 C5499 0.950 . S
C5470 H5452 0.951 . S
C5470 C5471 1.366 . S
C5470 C5472 1.388 . S
C5471 C5470 1.366 . S
C5471 C5475 1.385 . S
C5472 H5453 0.951 . S
C5472 C5470 1.388 . S
C5472 C5473 1.366 . S
C5473 C5472 1.366 . S
C5473 C5474 1.414 . S
C5473 C5476 1.499 . S
C5474 H5454 0.950 . S
C5474 C5473 1.414 . S
C5474 C5475 1.374 . S
C5475 H5455 0.950 . S
C5475 C5471 1.385 . S
C5475 C5474 1.374 . S
C5476 C5473 1.499 . S
C5476 C5477 1.373 . S
C5476 C5478 1.389 . S
C5477 H5456 0.950 . S
C5477 C5476 1.373 . S
C5477 C5493 1.377 . S
C5478 C5476 1.389 . S
C5478 C5479 1.524 . S
C5478 C5492 1.377 . S
C5479 C5478 1.524 . S
C5479 C5480 1.397 . S
C5479 C5484 1.363 . S
C5480 H5457 0.950 . S
C5480 C5479 1.397 . S
C5480 C5481 1.334 . S
C5481 H5458 0.950 . S
C5481 C5480 1.334 . S
C5481 C5482 1.287 . S
C5482 C5481 1.287 . S
C5482 C5483 1.524 . S
C5482 H5501 0.913 . S
C5483 H5459 0.950 . S
C5483 C5482 1.524 . S
C5483 C5484 1.415 . S
C5484 H5460 0.950 . S
C5484 C5479 1.363 . S
C5484 C5483 1.415 . S
C5485 H5461 0.951 . S
C5485 C5486 1.366 . S
C5485 C5487 1.388 . S
C5486 C5485 1.366 . S
C5486 C5490 1.385 . S
C5487 H5462 0.951 . S
C5487 C5485 1.388 . S
C5487 C5488 1.366 . S
C5488 C5487 1.366 . S
C5488 C5489 1.414 . S
C5488 C5491 1.499 . S
C5489 H5463 0.950 . S
C5489 C5488 1.414 . S
C5489 C5490 1.374 . S
C5490 H5464 0.950 . S
C5490 C5486 1.385 . S
C5490 C5489 1.374 . S
C5491 C5488 1.499 . S
C5491 C5492 1.373 . S
C5491 C5493 1.389 . S
C5492 H5465 0.950 . S
C5492 C5478 1.377 . S
C5492 C5491 1.373 . S
C5493 C5477 1.377 . S
C5493 C5491 1.389 . S
C5493 C5494 1.524 . S
C5494 C5493 1.524 . S
C5494 C5495 1.397 . S
C5494 C5499 1.363 . S
C5495 H5466 0.950 . S
C5495 C5494 1.397 . S
C5495 C5496 1.334 . S
C5496 H5467 0.950 . S
C5496 C5495 1.334 . S
C5496 C5497 1.287 . S
C5497 C5496 1.287 . S
C5497 C5498 1.524 . S
C5497 H5500 0.999 . S
C5498 H5468 0.950 . S
C5498 C5497 1.524 . S
C5498 C5499 1.415 . S
C5499 H5469 0.950 . S
C5499 C5494 1.363 . S
C5499 C5498 1.415 . S
H5500 C5497 0.999 . S
H5501 C5482 0.913 . S
H5502 C5520 0.951 . S
H5503 C5522 0.951 . S
H5504 C5524 0.950 . S
H5505 C5525 0.950 . S
H5506 C5527 0.950 . S
H5507 C5530 0.950 . S
H5508 C5531 0.950 . S
H5509 C5533 0.950 . S
H5510 C5534 0.950 . S
H5511 C5535 0.951 . S
H5512 C5537 0.951 . S
H5513 C5539 0.950 . S
H5514 C5540 0.950 . S
H5515 C5542 0.950 . S
H5516 C5545 0.950 . S
H5517 C5546 0.950 . S
H5518 C5548 0.950 . S
H5519 C5549 0.950 . S
C5520 H5502 0.951 . S
C5520 C5521 1.366 . S
C5520 C5522 1.388 . S
C5521 C5520 1.366 . S
C5521 C5525 1.385 . S
C5522 H5503 0.951 . S
C5522 C5520 1.388 . S
C5522 C5523 1.366 . S
C5523 C5522 1.366 . S
C5523 C5524 1.414 . S
C5523 C5526 1.499 . S
C5524 H5504 0.950 . S
C5524 C5523 1.414 . S
C5524 C5525 1.374 . S
C5525 H5505 0.950 . S
C5525 C5521 1.385 . S
C5525 C5524 1.374 . S
C5526 C5523 1.499 . S
C5526 C5527 1.373 . S
C5526 C5528 1.389 . S
C5527 H5506 0.950 . S
C5527 C5526 1.373 . S
C5527 C5543 1.377 . S
C5528 C5526 1.389 . S
C5528 C5529 1.524 . S
C5528 C5542 1.377 . S
C5529 C5528 1.524 . S
C5529 C5530 1.397 1_554 S
C5529 C5534 1.363 . S
C5530 H5507 0.950 . S
C5530 C5529 1.397 1_556 S
C5530 C5531 1.334 . S
C5531 H5508 0.950 . S
C5531 C5530 1.334 . S
C5531 C5532 1.287 . S
C5532 C5531 1.287 . S
C5532 C5533 1.524 . S
C5532 H5551 0.913 . S
C5533 H5509 0.950 . S
C5533 C5532 1.524 . S
C5533 C5534 1.415 1_556 S
C5534 H5510 0.950 . S
C5534 C5529 1.363 . S
C5534 C5533 1.415 1_554 S
C5535 H5511 0.951 . S
C5535 C5536 1.366 . S
C5535 C5537 1.388 . S
C5536 C5535 1.366 . S
C5536 C5540 1.385 . S
C5537 H5512 0.951 . S
C5537 C5535 1.388 . S
C5537 C5538 1.366 . S
C5538 C5537 1.366 . S
C5538 C5539 1.414 . S
C5538 C5541 1.499 . S
C5539 H5513 0.950 . S
C5539 C5538 1.414 . S
C5539 C5540 1.374 . S
C5540 H5514 0.950 . S
C5540 C5536 1.385 . S
C5540 C5539 1.374 . S
C5541 C5538 1.499 . S
C5541 C5542 1.373 . S
C5541 C5543 1.389 . S
C5542 H5515 0.950 . S
C5542 C5528 1.377 . S
C5542 C5541 1.373 . S
C5543 C5527 1.377 . S
C5543 C5541 1.389 . S
C5543 C5544 1.524 . S
C5544 C5543 1.524 . S
C5544 C5545 1.397 . S
C5544 C5549 1.363 . S
C5545 H5516 0.950 . S
C5545 C5544 1.397 . S
C5545 C5546 1.334 . S
C5546 H5517 0.950 . S
C5546 C5545 1.334 . S
C5546 C5547 1.287 . S
C5547 C5546 1.287 . S
C5547 C5548 1.524 . S
C5547 H5550 0.999 . S
C5548 H5518 0.950 . S
C5548 C5547 1.524 . S
C5548 C5549 1.415 . S
C5549 H5519 0.950 . S
C5549 C5544 1.363 . S
C5549 C5548 1.415 . S
H5550 C5547 0.999 . S
H5551 C5532 0.913 . S
H5552 C5570 0.951 . S
H5553 C5572 0.951 . S
H5554 C5574 0.950 . S
H5555 C5575 0.950 . S
H5556 C5577 0.950 . S
H5557 C5580 0.950 . S
H5558 C5581 0.950 . S
H5559 C5583 0.950 . S
H5560 C5584 0.950 . S
H5561 C5585 0.951 . S
H5562 C5587 0.951 . S
H5563 C5589 0.950 . S
H5564 C5590 0.950 . S
H5565 C5592 0.950 . S
H5566 C5595 0.950 . S
H5567 C5596 0.950 . S
H5568 C5598 0.950 . S
H5569 C5599 0.950 . S
C5570 H5552 0.951 . S
C5570 C5571 1.366 . S
C5570 C5572 1.388 . S
C5571 C5570 1.366 . S
C5571 C5575 1.385 . S
C5572 H5553 0.951 . S
C5572 C5570 1.388 . S
C5572 C5573 1.366 . S
C5573 C5572 1.366 . S
C5573 C5574 1.414 . S
C5573 C5576 1.499 . S
C5574 H5554 0.950 . S
C5574 C5573 1.414 . S
C5574 C5575 1.374 . S
C5575 H5555 0.950 . S
C5575 C5571 1.385 . S
C5575 C5574 1.374 . S
C5576 C5573 1.499 . S
C5576 C5577 1.373 . S
C5576 C5578 1.389 . S
C5577 H5556 0.950 . S
C5577 C5576 1.373 . S
C5577 C5593 1.377 . S
C5578 C5576 1.389 . S
C5578 C5579 1.524 . S
C5578 C5592 1.377 . S
C5579 C5578 1.524 . S
C5579 C5580 1.397 . S
C5579 C5584 1.363 . S
C5580 H5557 0.950 . S
C5580 C5579 1.397 . S
C5580 C5581 1.334 . S
C5581 H5558 0.950 . S
C5581 C5580 1.334 . S
C5581 C5582 1.287 . S
C5582 C5581 1.287 . S
C5582 C5583 1.524 . S
C5582 H5601 0.913 . S
C5583 H5559 0.950 . S
C5583 C5582 1.524 . S
C5583 C5584 1.415 . S
C5584 H5560 0.950 . S
C5584 C5579 1.363 . S
C5584 C5583 1.415 . S
C5585 H5561 0.951 . S
C5585 C5586 1.366 . S
C5585 C5587 1.388 . S
C5586 C5585 1.366 . S
C5586 C5590 1.385 . S
C5587 H5562 0.951 . S
C5587 C5585 1.388 . S
C5587 C5588 1.366 . S
C5588 C5587 1.366 . S
C5588 C5589 1.414 . S
C5588 C5591 1.499 . S
C5589 H5563 0.950 . S
C5589 C5588 1.414 . S
C5589 C5590 1.374 . S
C5590 H5564 0.950 . S
C5590 C5586 1.385 . S
C5590 C5589 1.374 . S
C5591 C5588 1.499 . S
C5591 C5592 1.373 . S
C5591 C5593 1.389 . S
C5592 H5565 0.950 . S
C5592 C5578 1.377 . S
C5592 C5591 1.373 . S
C5593 C5577 1.377 . S
C5593 C5591 1.389 . S
C5593 C5594 1.524 . S
C5594 C5593 1.524 . S
C5594 C5595 1.397 . S
C5594 C5599 1.363 . S
C5595 H5566 0.950 . S
C5595 C5594 1.397 . S
C5595 C5596 1.334 . S
C5596 H5567 0.950 . S
C5596 C5595 1.334 . S
C5596 C5597 1.287 . S
C5597 C5596 1.287 . S
C5597 C5598 1.524 . S
C5597 H5600 0.999 . S
C5598 H5568 0.950 . S
C5598 C5597 1.524 . S
C5598 C5599 1.415 . S
C5599 H5569 0.950 . S
C5599 C5594 1.363 . S
C5599 C5598 1.415 . S
H5600 C5597 0.999 . S
H5601 C5582 0.913 . S
H5602 C5620 0.951 . S
H5603 C5622 0.951 . S
H5604 C5624 0.950 . S
H5605 C5625 0.950 . S
H5606 C5627 0.950 . S
H5607 C5630 0.950 . S
H5608 C5631 0.950 . S
H5609 C5633 0.950 . S
H5610 C5634 0.950 . S
H5611 C5635 0.951 . S
H5612 C5637 0.951 . S
H5613 C5639 0.950 . S
H5614 C5640 0.909 1_556 S
H5615 C5642 0.950 . S
H5616 C5645 0.950 . S
H5617 C5646 0.950 . S
H5618 C5648 0.950 . S
H5619 C5649 0.950 . S
C5620 H5602 0.951 . S
C5620 C5621 1.366 . S
C5620 C5622 1.388 . S
C5621 C5620 1.366 . S
C5621 C5625 1.385 . S
C5622 H5603 0.951 . S
C5622 C5620 1.388 . S
C5622 C5623 1.366 . S
C5623 C5622 1.366 . S
C5623 C5624 1.414 . S
C5623 C5626 1.499 . S
C5624 H5604 0.950 . S
C5624 C5623 1.414 . S
C5624 C5625 1.374 . S
C5625 H5605 0.950 . S
C5625 C5621 1.385 . S
C5625 C5624 1.374 . S
C5626 C5623 1.499 . S
C5626 C5627 1.373 . S
C5626 C5628 1.389 . S
C5627 H5606 0.950 . S
C5627 C5626 1.373 . S
C5627 C5643 1.377 . S
C5628 C5626 1.389 . S
C5628 C5629 1.524 . S
C5628 C5642 1.377 . S
C5629 C5628 1.524 . S
C5629 C5630 1.397 . S
C5629 C5634 1.363 . S
C5630 H5607 0.950 . S
C5630 C5629 1.397 . S
C5630 C5631 1.334 . S
C5631 H5608 0.950 . S
C5631 C5630 1.334 . S
C5631 C5632 1.287 . S
C5632 C5631 1.287 . S
C5632 C5633 1.524 . S
C5632 H5651 0.913 . S
C5633 H5609 0.950 . S
C5633 C5632 1.524 . S
C5633 C5634 1.415 . S
C5634 H5610 0.950 . S
C5634 C5629 1.363 . S
C5634 C5633 1.415 . S
C5635 H5611 0.951 . S
C5635 C5636 1.366 . S
C5635 C5637 1.388 . S
C5636 C5635 1.366 . S
C5636 C5640 1.385 . S
C5637 H5612 0.951 . S
C5637 C5635 1.388 . S
C5637 C5638 1.366 . S
C5638 C5637 1.366 . S
C5638 C5639 1.414 . S
C5638 C5641 1.499 . S
C5639 H5613 0.950 . S
C5639 C5638 1.414 . S
C5639 C5640 1.374 . S
C5640 H5614 0.909 1_554 S
C5640 C5636 1.385 . S
C5640 C5639 1.374 . S
C5641 C5638 1.499 . S
C5641 C5642 1.373 . S
C5641 C5643 1.389 . S
C5642 H5615 0.950 . S
C5642 C5628 1.377 . S
C5642 C5641 1.373 . S
C5643 C5627 1.377 . S
C5643 C5641 1.389 . S
C5643 C5644 1.524 . S
C5644 C5643 1.524 . S
C5644 C5645 1.397 . S
C5644 C5649 1.363 . S
C5645 H5616 0.950 . S
C5645 C5644 1.397 . S
C5645 C5646 1.334 . S
C5646 H5617 0.950 . S
C5646 C5645 1.334 . S
C5646 C5647 1.287 . S
C5647 C5646 1.287 . S
C5647 C5648 1.524 . S
C5647 H5650 0.999 . S
C5648 H5618 0.950 . S
C5648 C5647 1.524 . S
C5648 C5649 1.415 . S
C5649 H5619 0.950 . S
C5649 C5644 1.363 . S
C5649 C5648 1.415 . S
H5650 C5647 0.999 . S
H5651 C5632 0.913 . S
H5652 C5670 0.951 . S
H5653 C5672 0.951 . S
H5654 C5674 0.950 . S
H5655 C5675 0.950 . S
H5656 C5677 0.950 . S
H5657 C5680 0.950 . S
H5658 C5681 0.950 . S
H5659 C5683 0.950 . S
H5660 C5684 0.950 . S
H5661 C5685 0.951 . S
H5662 C5687 0.951 . S
H5663 C5689 0.950 . S
H5664 C5690 0.950 . S
H5665 C5692 0.950 . S
H5666 C5695 0.950 . S
H5667 C5696 0.950 . S
H5668 C5698 0.950 . S
H5669 C5699 0.950 . S
C5670 H5652 0.951 . S
C5670 C5671 1.366 1_565 S
C5670 C5672 1.388 . S
C5671 C5670 1.366 1_545 S
C5671 C5675 1.385 . S
C5672 H5653 0.951 . S
C5672 C5670 1.388 . S
C5672 C5673 1.366 . S
C5673 C5672 1.366 . S
C5673 C5674 1.414 . S
C5673 C5676 1.499 . S
C5674 H5654 0.950 . S
C5674 C5673 1.414 . S
C5674 C5675 1.374 1_565 S
C5675 H5655 0.950 . S
C5675 C5671 1.385 . S
C5675 C5674 1.374 1_545 S
C5676 C5673 1.499 . S
C5676 C5677 1.373 . S
C5676 C5678 1.389 . S
C5677 H5656 0.950 . S
C5677 C5676 1.373 . S
C5677 C5693 1.377 . S
C5678 C5676 1.389 . S
C5678 C5679 1.524 . S
C5678 C5692 1.377 . S
C5679 C5678 1.524 . S
C5679 C5680 1.397 . S
C5679 C5684 1.363 . S
C5680 H5657 0.950 . S
C5680 C5679 1.397 . S
C5680 C5681 1.334 . S
C5681 H5658 0.950 . S
C5681 C5680 1.334 . S
C5681 C5682 1.287 . S
C5682 C5681 1.287 . S
C5682 C5683 1.524 . S
C5682 H5701 0.913 . S
C5683 H5659 0.950 . S
C5683 C5682 1.524 . S
C5683 C5684 1.415 . S
C5684 H5660 0.950 . S
C5684 C5679 1.363 . S
C5684 C5683 1.415 . S
C5685 H5661 0.951 . S
C5685 C5686 1.366 . S
C5685 C5687 1.388 . S
C5686 C5685 1.366 . S
C5686 C5690 1.385 . S
C5687 H5662 0.951 . S
C5687 C5685 1.388 . S
C5687 C5688 1.366 . S
C5688 C5687 1.366 . S
C5688 C5689 1.414 . S
C5688 C5691 1.499 . S
C5689 H5663 0.950 . S
C5689 C5688 1.414 . S
C5689 C5690 1.374 . S
C5690 H5664 0.950 . S
C5690 C5686 1.385 . S
C5690 C5689 1.374 . S
C5691 C5688 1.499 . S
C5691 C5692 1.373 . S
C5691 C5693 1.389 . S
C5692 H5665 0.950 . S
C5692 C5678 1.377 . S
C5692 C5691 1.373 . S
C5693 C5677 1.377 . S
C5693 C5691 1.389 . S
C5693 C5694 1.524 . S
C5694 C5693 1.524 . S
C5694 C5695 1.397 . S
C5694 C5699 1.363 . S
C5695 H5666 0.950 . S
C5695 C5694 1.397 . S
C5695 C5696 1.334 . S
C5696 H5667 0.950 . S
C5696 C5695 1.334 . S
C5696 C5697 1.287 . S
C5697 C5696 1.287 . S
C5697 C5698 1.524 . S
C5697 H5700 0.999 . S
C5698 H5668 0.950 . S
C5698 C5697 1.524 . S
C5698 C5699 1.415 . S
C5699 H5669 0.950 . S
C5699 C5694 1.363 . S
C5699 C5698 1.415 . S
H5700 C5697 0.999 . S
H5701 C5682 0.913 . S
H5702 C5720 0.951 . S
H5703 C5722 0.951 . S
H5704 C5724 0.950 . S
H5705 C5725 0.950 . S
H5706 C5727 0.950 . S
H5707 C5730 0.950 . S
H5708 C5731 0.950 . S
H5709 C5733 0.950 . S
H5710 C5734 0.950 . S
H5711 C5735 0.951 . S
H5712 C5737 0.951 . S
H5713 C5739 0.950 . S
H5714 C5740 0.950 . S
H5715 C5742 0.950 . S
H5716 C5745 0.950 . S
H5717 C5746 0.950 . S
H5718 C5748 0.950 . S
H5719 C5749 0.950 . S
C5720 H5702 0.951 . S
C5720 C5721 1.366 . S
C5720 C5722 1.388 . S
C5721 C5720 1.366 . S
C5721 C5725 1.385 . S
C5722 H5703 0.951 . S
C5722 C5720 1.388 . S
C5722 C5723 1.366 . S
C5723 C5722 1.366 . S
C5723 C5724 1.414 . S
C5723 C5726 1.499 . S
C5724 H5704 0.950 . S
C5724 C5723 1.414 . S
C5724 C5725 1.374 . S
C5725 H5705 0.950 . S
C5725 C5721 1.385 . S
C5725 C5724 1.374 . S
C5726 C5723 1.499 . S
C5726 C5727 1.373 . S
C5726 C5728 1.389 . S
C5727 H5706 0.950 . S
C5727 C5726 1.373 . S
C5727 C5743 1.377 . S
C5728 C5726 1.389 . S
C5728 C5729 1.524 . S
C5728 C5742 1.377 . S
C5729 C5728 1.524 . S
C5729 C5730 1.397 . S
C5729 C5734 1.363 . S
C5730 H5707 0.950 . S
C5730 C5729 1.397 . S
C5730 C5731 1.334 . S
C5731 H5708 0.950 . S
C5731 C5730 1.334 . S
C5731 C5732 1.287 . S
C5732 C5731 1.287 . S
C5732 C5733 1.524 . S
C5732 H5751 0.913 . S
C5733 H5709 0.950 . S
C5733 C5732 1.524 . S
C5733 C5734 1.415 . S
C5734 H5710 0.950 . S
C5734 C5729 1.363 . S
C5734 C5733 1.415 . S
C5735 H5711 0.951 . S
C5735 C5736 1.366 . S
C5735 C5737 1.388 . S
C5736 C5735 1.366 . S
C5736 C5740 1.385 . S
C5737 H5712 0.951 . S
C5737 C5735 1.388 . S
C5737 C5738 1.366 . S
C5738 C5737 1.366 . S
C5738 C5739 1.414 . S
C5738 C5741 1.499 . S
C5739 H5713 0.950 . S
C5739 C5738 1.414 . S
C5739 C5740 1.374 . S
C5740 H5714 0.950 . S
C5740 C5736 1.385 . S
C5740 C5739 1.374 . S
C5741 C5738 1.499 . S
C5741 C5742 1.373 . S
C5741 C5743 1.389 . S
C5742 H5715 0.950 . S
C5742 C5728 1.377 . S
C5742 C5741 1.373 . S
C5743 C5727 1.377 . S
C5743 C5741 1.389 . S
C5743 C5744 1.524 . S
C5744 C5743 1.524 . S
C5744 C5745 1.397 . S
C5744 C5749 1.363 . S
C5745 H5716 0.950 . S
C5745 C5744 1.397 . S
C5745 C5746 1.334 . S
C5746 H5717 0.950 . S
C5746 C5745 1.334 . S
C5746 C5747 1.287 . S
C5747 C5746 1.287 . S
C5747 C5748 1.524 . S
C5747 H5750 0.999 . S
C5748 H5718 0.950 . S
C5748 C5747 1.524 . S
C5748 C5749 1.415 . S
C5749 H5719 0.950 . S
C5749 C5744 1.363 . S
C5749 C5748 1.415 . S
H5750 C5747 0.999 . S
H5751 C5732 0.913 . S
C971 C101 1.211 . S
C986 C318 1.169 . S
C1021 C57 1.929 . S
C1036 C370 1.776 . S
C1071 C70 1.088 . S
C1086 C402 1.096 1_565 S
C1136 C451 2.434 . S
C1121 C82 2.431 . S
C1171 C23 0.846 . S
C1186 C487 0.835 . S
C1236 C518 0.483 . S
C1221 C29 0.381 . S
C1286 C570 0.546 . S
C1271 C49 0.344 . S
C1321 C10 1.231 . S
C1336 C598 1.173 . S
C1386 C330 1.783 . S
C1371 C218 1.937 . S
C1421 C226 1.383 . S
C1436 C371 1.390 . S
C1486 C401 1.764 . S
C1471 C251 1.928 . S
C1536 C438 0.426 . S
C1521 C159 0.305 . S
C1571 C211 1.682 . S
C1586 C482 1.702 . S
C1636 C530 1.950 . S
C1621 C225 2.035 . S
C1686 C571 1.290 . S
C1671 C252 1.286 . S
C1736 C610 1.600 . S
C1721 C166 1.774 . S
C1786 C331 2.202 . S
C1771 C147 2.187 . S
C1821 C263 1.487 . S
C1836 C641 1.387 . S
C1886 C691 2.307 . S
C1871 C309 2.298 . S
C1936 C718 0.870 . S
C1921 C291 0.876 . S
C1971 C108 2.518 . S
C1986 C611 2.520 . S
C2021 C121 0.912 . S
C2036 C407 0.886 . S
C2071 C302 2.426 . S
C2086 C770 2.305 . S
C2136 C798 0.851 . S
C2121 C276 0.863 . S
C2186 C327 1.219 . S
C2171 C55 1.251 . S
C2236 C801 2.017 . S
C2221 C96 2.140 . S
C2271 C88 1.527 . S
C2286 C411 1.529 . S
C2321 C75 2.918 . S
C2336 C762 2.911 . S
C2386 C478 1.045 . S
C2371 C4 1.066 . S
C2421 C44 0.193 . S
C2436 C687 0.329 . S
C2486 C561 0.581 . S
C2471 C31 0.551 . S
C2536 C847 0.788 . S
C2521 C18 0.791 . S
C2586 C321 2.056 . S
C2571 C133 2.182 . S
C2636 C802 1.776 . S
C2621 C296 1.763 . S
C2671 C107 2.328 . S
C2686 C410 2.194 . S
C2721 C264 0.385 . S
C2736 C767 0.445 . S
C2771 C140 2.090 . S
C2786 C491 2.098 . S
C2836 C681 2.149 . S
C2821 C289 2.201 . S
C2871 C114 1.723 . S
C2886 C562 1.730 . S
C2921 C265 1.711 . S
C2936 C841 1.619 . S
C2971 C179 2.516 . S
C2986 C322 2.521 1_655 S
C3021 C161 2.060 . S
C3036 C650 1.964 . S
C3071 C244 2.798 . S
C3086 C522 2.795 . S
C3121 C224 1.250 . S
C3136 C727 1.236 . S
C3186 C842 2.629 . S
C3171 C257 2.620 . S
C3221 C199 1.138 . S
C3236 C398 1.071 1_565 S
C3286 C441 2.611 . S
C3271 C237 2.729 . S
C3336 C367 1.123 . S
C3321 C185 1.151 . S
C3371 C69 1.211 . S
C3386 C878 1.169 . S
C3436 C810 1.775 . S
C3421 C83 1.929 . S
C3471 C94 1.089 . S
C3486 C922 1.098 . S
C3521 C56 2.431 . S
C3536 C771 2.434 . S
C3571 C42 0.860 . S
C3586 C647 0.847 . S
C3636 C678 0.480 . S
C3621 C3 0.378 . S
C3686 C730 0.544 . S
C3671 C16 0.361 . S
C3736 C838 1.176 . S
C3721 C36 1.235 . S
C3786 C890 1.784 . S
C3771 C238 1.937 . S
C3821 C174 1.382 . S
C3836 C811 1.389 . S
C3886 C921 1.764 . S
C3871 C186 1.928 . S
C3936 C758 0.424 . S
C3921 C198 0.304 . S
C3986 C642 1.694 1_556 S
C3971 C239 1.684 . S
C4021 C173 2.033 . S
C4036 C690 1.949 . S
C4086 C731 1.292 . S
C4071 C187 1.288 . S
C4121 C205 1.775 . S
C4136 C850 1.601 . S
C4186 C891 2.199 . S
C4171 C290 2.184 . S
C4221 C122 1.489 . S
C4236 C481 1.390 . S
C4286 C531 2.315 . S
C4271 C134 2.363 . S
C4336 C558 0.868 . S
C4321 C148 0.874 . S
C4386 C851 2.516 . S
C4371 C283 2.513 . S
C4421 C270 0.908 . S
C4436 C927 0.884 . S
C4486 C450 2.303 . S
C4471 C135 2.424 . S
C4536 C358 0.851 . S
C4521 C109 0.863 . S
C4571 C81 1.251 . S
C4586 C887 1.219 . S
C4636 C361 2.015 . S
C4621 C68 2.138 . S
C4671 C62 1.527 . S
C4686 C931 1.530 . S
C4721 C95 2.917 . S
C4736 C442 2.911 . S
C4771 C30 1.065 . S
C4786 C638 1.050 . S
C4836 C527 0.322 . S
C4821 C17 0.193 . S
C4871 C5 0.553 . S
C4886 C721 0.580 . S
C4921 C43 0.785 . S
C4936 C607 0.783 . S
C4986 C881 2.055 . S
C4971 C304 2.181 . S
C5021 C153 1.761 . S
C5036 C362 1.773 . S
C5086 C930 2.193 1_556 S
C5071 C278 2.329 . S
C5121 C127 0.383 . S
C5136 C447 0.448 . S
C5171 C303 2.082 . S
C5186 C651 2.090 . S
C5236 C521 2.146 . S
C5221 C146 2.162 1_556 S
C5271 C277 1.717 . S
C5286 C722 1.723 . S
C5336 C601 1.609 . S
C5321 C120 1.708 . S
C5386 C882 2.520 . S
C5371 C231 2.516 . S
C5436 C490 1.963 . S
C5421 C200 2.058 . S
C5471 C212 2.803 . S
C5486 C682 2.799 . S
C5536 C567 1.237 . S
C5521 C172 1.251 . S
C5571 C192 2.617 . S
C5586 C602 2.626 . S
C5621 C160 1.139 . S
C5636 C918 1.098 . S
C5686 C761 2.613 . S
C5671 C213 2.731 . S
C5736 C807 1.125 . S
C5721 C250 1.154 . S
