# Generated by pormake.
# Topology gar, (4,6)-cn, num edge types: 1
# Building blocks:
#     Node 0, Type 0, BuildingBlock: GALJAG_clean_sbu_0, # of connection points: 4
#     Node 1, Type 0, BuildingBlock: GALJAG_clean_sbu_0, # of connection points: 4
#     Node 2, Type 0, BuildingBlock: GALJAG_clean_sbu_0, # of connection points: 4
#     Node 3, Type 0, BuildingBlock: GALJAG_clean_sbu_0, # of connection points: 4
#     Node 4, Type 0, BuildingBlock: GALJAG_clean_sbu_0, # of connection points: 4
#     Node 5, Type 0, BuildingBlock: GALJAG_clean_sbu_0, # of connection points: 4
#     Node 6, Type 0, BuildingBlock: GALJAG_clean_sbu_0, # of connection points: 4
#     Node 7, Type 0, BuildingBlock: GALJAG_clean_sbu_0, # of connection points: 4
#     Node 8, Type 0, BuildingBlock: GALJAG_clean_sbu_0, # of connection points: 4
#     Node 9, Type 0, BuildingBlock: GALJAG_clean_sbu_0, # of connection points: 4
#     Node 10, Type 0, BuildingBlock: GALJAG_clean_sbu_0, # of connection points: 4
#     Node 11, Type 0, BuildingBlock: GALJAG_clean_sbu_0, # of connection points: 4
#     Node 12, Type 0, BuildingBlock: GALJAG_clean_sbu_0, # of connection points: 4
#     Node 13, Type 0, BuildingBlock: GALJAG_clean_sbu_0, # of connection points: 4
#     Node 14, Type 0, BuildingBlock: GALJAG_clean_sbu_0, # of connection points: 4
#     Node 15, Type 0, BuildingBlock: GALJAG_clean_sbu_0, # of connection points: 4
#     Node 16, Type 0, BuildingBlock: GALJAG_clean_sbu_0, # of connection points: 4
#     Node 17, Type 0, BuildingBlock: GALJAG_clean_sbu_0, # of connection points: 4
#     Node 18, Type 0, BuildingBlock: GALJAG_clean_sbu_0, # of connection points: 4
#     Node 19, Type 0, BuildingBlock: GALJAG_clean_sbu_0, # of connection points: 4
#     Node 20, Type 0, BuildingBlock: GALJAG_clean_sbu_0, # of connection points: 4
#     Node 21, Type 0, BuildingBlock: GALJAG_clean_sbu_0, # of connection points: 4
#     Node 22, Type 0, BuildingBlock: GALJAG_clean_sbu_0, # of connection points: 4
#     Node 23, Type 0, BuildingBlock: GALJAG_clean_sbu_0, # of connection points: 4
#     Node 24, Type 1, BuildingBlock: BETDEL_clean_sbu_0, # of connection points: 6
#     Node 25, Type 1, BuildingBlock: BETDEL_clean_sbu_0, # of connection points: 6
#     Node 26, Type 1, BuildingBlock: BETDEL_clean_sbu_0, # of connection points: 6
#     Node 27, Type 1, BuildingBlock: BETDEL_clean_sbu_0, # of connection points: 6
#     Node 28, Type 1, BuildingBlock: BETDEL_clean_sbu_0, # of connection points: 6
#     Node 29, Type 1, BuildingBlock: BETDEL_clean_sbu_0, # of connection points: 6
#     Node 30, Type 1, BuildingBlock: BETDEL_clean_sbu_0, # of connection points: 6
#     Node 31, Type 1, BuildingBlock: BETDEL_clean_sbu_0, # of connection points: 6
#     Node 32, Type 1, BuildingBlock: BETDEL_clean_sbu_0, # of connection points: 6
#     Node 33, Type 1, BuildingBlock: BETDEL_clean_sbu_0, # of connection points: 6
#     Node 34, Type 1, BuildingBlock: BETDEL_clean_sbu_0, # of connection points: 6
#     Node 35, Type 1, BuildingBlock: BETDEL_clean_sbu_0, # of connection points: 6
#     Node 36, Type 1, BuildingBlock: BETDEL_clean_sbu_0, # of connection points: 6
#     Node 37, Type 1, BuildingBlock: BETDEL_clean_sbu_0, # of connection points: 6
#     Node 38, Type 1, BuildingBlock: BETDEL_clean_sbu_0, # of connection points: 6
#     Node 39, Type 1, BuildingBlock: BETDEL_clean_sbu_0, # of connection points: 6
#     Edge 40, Type (0, 1), BuildingBlock: OJICUG_clean_linker_0, # of connection points: 2
#     Edge 41, Type (0, 1), BuildingBlock: OJICUG_clean_linker_0, # of connection points: 2
#     Edge 42, Type (0, 1), BuildingBlock: OJICUG_clean_linker_0, # of connection points: 2
#     Edge 43, Type (0, 1), BuildingBlock: OJICUG_clean_linker_0, # of connection points: 2
#     Edge 44, Type (0, 1), BuildingBlock: OJICUG_clean_linker_0, # of connection points: 2
#     Edge 45, Type (0, 1), BuildingBlock: OJICUG_clean_linker_0, # of connection points: 2
#     Edge 46, Type (0, 1), BuildingBlock: OJICUG_clean_linker_0, # of connection points: 2
#     Edge 47, Type (0, 1), BuildingBlock: OJICUG_clean_linker_0, # of connection points: 2
#     Edge 48, Type (0, 1), BuildingBlock: OJICUG_clean_linker_0, # of connection points: 2
#     Edge 49, Type (0, 1), BuildingBlock: OJICUG_clean_linker_0, # of connection points: 2
#     Edge 50, Type (0, 1), BuildingBlock: OJICUG_clean_linker_0, # of connection points: 2
#     Edge 51, Type (0, 1), BuildingBlock: OJICUG_clean_linker_0, # of connection points: 2
#     Edge 52, Type (0, 1), BuildingBlock: OJICUG_clean_linker_0, # of connection points: 2
#     Edge 53, Type (0, 1), BuildingBlock: OJICUG_clean_linker_0, # of connection points: 2
#     Edge 54, Type (0, 1), BuildingBlock: OJICUG_clean_linker_0, # of connection points: 2
#     Edge 55, Type (0, 1), BuildingBlock: OJICUG_clean_linker_0, # of connection points: 2
#     Edge 56, Type (0, 1), BuildingBlock: OJICUG_clean_linker_0, # of connection points: 2
#     Edge 57, Type (0, 1), BuildingBlock: OJICUG_clean_linker_0, # of connection points: 2
#     Edge 58, Type (0, 1), BuildingBlock: OJICUG_clean_linker_0, # of connection points: 2
#     Edge 59, Type (0, 1), BuildingBlock: OJICUG_clean_linker_0, # of connection points: 2
#     Edge 60, Type (0, 1), BuildingBlock: OJICUG_clean_linker_0, # of connection points: 2
#     Edge 61, Type (0, 1), BuildingBlock: OJICUG_clean_linker_0, # of connection points: 2
#     Edge 62, Type (0, 1), BuildingBlock: OJICUG_clean_linker_0, # of connection points: 2
#     Edge 63, Type (0, 1), BuildingBlock: OJICUG_clean_linker_0, # of connection points: 2
#     Edge 64, Type (0, 1), BuildingBlock: OJICUG_clean_linker_0, # of connection points: 2
#     Edge 65, Type (0, 1), BuildingBlock: OJICUG_clean_linker_0, # of connection points: 2
#     Edge 66, Type (0, 1), BuildingBlock: OJICUG_clean_linker_0, # of connection points: 2
#     Edge 67, Type (0, 1), BuildingBlock: OJICUG_clean_linker_0, # of connection points: 2
#     Edge 68, Type (0, 1), BuildingBlock: OJICUG_clean_linker_0, # of connection points: 2
#     Edge 69, Type (0, 1), BuildingBlock: OJICUG_clean_linker_0, # of connection points: 2
#     Edge 70, Type (0, 1), BuildingBlock: OJICUG_clean_linker_0, # of connection points: 2
#     Edge 71, Type (0, 1), BuildingBlock: OJICUG_clean_linker_0, # of connection points: 2
#     Edge 72, Type (0, 1), BuildingBlock: OJICUG_clean_linker_0, # of connection points: 2
#     Edge 73, Type (0, 1), BuildingBlock: OJICUG_clean_linker_0, # of connection points: 2
#     Edge 74, Type (0, 1), BuildingBlock: OJICUG_clean_linker_0, # of connection points: 2
#     Edge 75, Type (0, 1), BuildingBlock: OJICUG_clean_linker_0, # of connection points: 2
#     Edge 76, Type (0, 1), BuildingBlock: OJICUG_clean_linker_0, # of connection points: 2
#     Edge 77, Type (0, 1), BuildingBlock: OJICUG_clean_linker_0, # of connection points: 2
#     Edge 78, Type (0, 1), BuildingBlock: OJICUG_clean_linker_0, # of connection points: 2
#     Edge 79, Type (0, 1), BuildingBlock: OJICUG_clean_linker_0, # of connection points: 2
#     Edge 80, Type (0, 1), BuildingBlock: OJICUG_clean_linker_0, # of connection points: 2
#     Edge 81, Type (0, 1), BuildingBlock: OJICUG_clean_linker_0, # of connection points: 2
#     Edge 82, Type (0, 1), BuildingBlock: OJICUG_clean_linker_0, # of connection points: 2
#     Edge 83, Type (0, 1), BuildingBlock: OJICUG_clean_linker_0, # of connection points: 2
#     Edge 84, Type (0, 1), BuildingBlock: OJICUG_clean_linker_0, # of connection points: 2
#     Edge 85, Type (0, 1), BuildingBlock: OJICUG_clean_linker_0, # of connection points: 2
#     Edge 86, Type (0, 1), BuildingBlock: OJICUG_clean_linker_0, # of connection points: 2
#     Edge 87, Type (0, 1), BuildingBlock: OJICUG_clean_linker_0, # of connection points: 2
#     Edge 88, Type (0, 1), BuildingBlock: OJICUG_clean_linker_0, # of connection points: 2
#     Edge 89, Type (0, 1), BuildingBlock: OJICUG_clean_linker_0, # of connection points: 2
#     Edge 90, Type (0, 1), BuildingBlock: OJICUG_clean_linker_0, # of connection points: 2
#     Edge 91, Type (0, 1), BuildingBlock: OJICUG_clean_linker_0, # of connection points: 2
#     Edge 92, Type (0, 1), BuildingBlock: OJICUG_clean_linker_0, # of connection points: 2
#     Edge 93, Type (0, 1), BuildingBlock: OJICUG_clean_linker_0, # of connection points: 2
#     Edge 94, Type (0, 1), BuildingBlock: OJICUG_clean_linker_0, # of connection points: 2
#     Edge 95, Type (0, 1), BuildingBlock: OJICUG_clean_linker_0, # of connection points: 2
#     Edge 96, Type (0, 1), BuildingBlock: OJICUG_clean_linker_0, # of connection points: 2
#     Edge 97, Type (0, 1), BuildingBlock: OJICUG_clean_linker_0, # of connection points: 2
#     Edge 98, Type (0, 1), BuildingBlock: OJICUG_clean_linker_0, # of connection points: 2
#     Edge 99, Type (0, 1), BuildingBlock: OJICUG_clean_linker_0, # of connection points: 2
#     Edge 100, Type (0, 1), BuildingBlock: OJICUG_clean_linker_0, # of connection points: 2
#     Edge 101, Type (0, 1), BuildingBlock: OJICUG_clean_linker_0, # of connection points: 2
#     Edge 102, Type (0, 1), BuildingBlock: OJICUG_clean_linker_0, # of connection points: 2
#     Edge 103, Type (0, 1), BuildingBlock: OJICUG_clean_linker_0, # of connection points: 2
#     Edge 104, Type (0, 1), BuildingBlock: OJICUG_clean_linker_0, # of connection points: 2
#     Edge 105, Type (0, 1), BuildingBlock: OJICUG_clean_linker_0, # of connection points: 2
#     Edge 106, Type (0, 1), BuildingBlock: OJICUG_clean_linker_0, # of connection points: 2
#     Edge 107, Type (0, 1), BuildingBlock: OJICUG_clean_linker_0, # of connection points: 2
#     Edge 108, Type (0, 1), BuildingBlock: OJICUG_clean_linker_0, # of connection points: 2
#     Edge 109, Type (0, 1), BuildingBlock: OJICUG_clean_linker_0, # of connection points: 2
#     Edge 110, Type (0, 1), BuildingBlock: OJICUG_clean_linker_0, # of connection points: 2
#     Edge 111, Type (0, 1), BuildingBlock: OJICUG_clean_linker_0, # of connection points: 2
#     Edge 112, Type (0, 1), BuildingBlock: OJICUG_clean_linker_0, # of connection points: 2
#     Edge 113, Type (0, 1), BuildingBlock: OJICUG_clean_linker_0, # of connection points: 2
#     Edge 114, Type (0, 1), BuildingBlock: OJICUG_clean_linker_0, # of connection points: 2
#     Edge 115, Type (0, 1), BuildingBlock: OJICUG_clean_linker_0, # of connection points: 2
#     Edge 116, Type (0, 1), BuildingBlock: OJICUG_clean_linker_0, # of connection points: 2
#     Edge 117, Type (0, 1), BuildingBlock: OJICUG_clean_linker_0, # of connection points: 2
#     Edge 118, Type (0, 1), BuildingBlock: OJICUG_clean_linker_0, # of connection points: 2
#     Edge 119, Type (0, 1), BuildingBlock: OJICUG_clean_linker_0, # of connection points: 2
#     Edge 120, Type (0, 1), BuildingBlock: OJICUG_clean_linker_0, # of connection points: 2
#     Edge 121, Type (0, 1), BuildingBlock: OJICUG_clean_linker_0, # of connection points: 2
#     Edge 122, Type (0, 1), BuildingBlock: OJICUG_clean_linker_0, # of connection points: 2
#     Edge 123, Type (0, 1), BuildingBlock: OJICUG_clean_linker_0, # of connection points: 2
#     Edge 124, Type (0, 1), BuildingBlock: OJICUG_clean_linker_0, # of connection points: 2
#     Edge 125, Type (0, 1), BuildingBlock: OJICUG_clean_linker_0, # of connection points: 2
#     Edge 126, Type (0, 1), BuildingBlock: OJICUG_clean_linker_0, # of connection points: 2
#     Edge 127, Type (0, 1), BuildingBlock: OJICUG_clean_linker_0, # of connection points: 2
#     Edge 128, Type (0, 1), BuildingBlock: OJICUG_clean_linker_0, # of connection points: 2
#     Edge 129, Type (0, 1), BuildingBlock: OJICUG_clean_linker_0, # of connection points: 2
#     Edge 130, Type (0, 1), BuildingBlock: OJICUG_clean_linker_0, # of connection points: 2
#     Edge 131, Type (0, 1), BuildingBlock: OJICUG_clean_linker_0, # of connection points: 2
#     Edge 132, Type (0, 1), BuildingBlock: OJICUG_clean_linker_0, # of connection points: 2
#     Edge 133, Type (0, 1), BuildingBlock: OJICUG_clean_linker_0, # of connection points: 2
#     Edge 134, Type (0, 1), BuildingBlock: OJICUG_clean_linker_0, # of connection points: 2
#     Edge 135, Type (0, 1), BuildingBlock: OJICUG_clean_linker_0, # of connection points: 2
# Relax obj value: 0.170
# Max RMSD: 0.279
# Mean RMSD: 0.168
data_MOF--net-gar--node1-GALJAG_clean_sbu_0--node2-BETDEL_clean_sbu_0--edge1-OJICUG_clean_linker_0
_symmetry_space_group_name_H-M    P1
_symmetry_Int_Tables_number       1
_symmetry_cell_setting            triclinic
loop_
_symmetry_equiv_pos_as_xyz
'x, y, z'
_cell_length_a     41.543501
_cell_length_b     38.921897
_cell_length_c     40.307615
_cell_angle_alpha  95.279556
_cell_angle_beta   92.021801
_cell_angle_gamma 100.32501
loop_
_atom_site_label
_atom_site_type_symbol
_atom_site_fract_x
_atom_site_fract_y
_atom_site_fract_z
_atom_type_partial_charge
In0 In 0.05094 0.27747 0.40582 0.0
O1 O 0.07383 0.25011 0.36181 0.0
O2 O 0.10168 0.29656 0.38729 0.0
C3 C 0.99341 0.28672 0.37803 0.0
C4 C 0.04225 0.21901 0.43874 0.0
C5 C 0.06184 0.33829 0.44589 0.0
O6 O 0.0187 0.28695 0.36156 0.0
O7 O 0.99689 0.28051 0.40793 0.0
O8 O 0.06012 0.30882 0.45712 0.0
O9 O 0.05942 0.33706 0.41454 0.0
C10 C 0.0999 0.27264 0.36366 0.0
O11 O 0.06544 0.24459 0.44662 0.0
O12 O 0.02434 0.22255 0.4138 0.0
In13 In 0.00403 0.76713 0.63193 0.0
O14 O 0.99038 0.79864 0.5896 0.0
O15 O 0.02978 0.82235 0.62391 0.0
C16 C 0.99519 0.70517 0.59385 0.0
C17 C 0.06146 0.75938 0.66098 0.0
C18 C 0.95353 0.77201 0.67203 0.0
O19 O 0.99627 0.73402 0.58153 0.0
O20 O 0.99709 0.70755 0.62527 0.0
O21 O 0.95244 0.74824 0.64838 0.0
O22 O 0.97982 0.79426 0.67508 0.0
C23 C 0.01269 0.82494 0.59805 0.0
O24 O 0.03588 0.75896 0.67703 0.0
O25 O 0.05832 0.76521 0.63093 0.0
In26 In 0.54627 0.77548 0.90701 0.0
O27 O 0.56969 0.75108 0.86191 0.0
O28 O 0.59899 0.79246 0.89359 0.0
C29 C 0.48986 0.78552 0.87696 0.0
C30 C 0.54147 0.71661 0.93856 0.0
C31 C 0.55335 0.83488 0.94849 0.0
O32 O 0.51688 0.79111 0.86328 0.0
O33 O 0.49114 0.77334 0.90473 0.0
O34 O 0.54215 0.80512 0.95759 0.0
O35 O 0.56242 0.83448 0.91897 0.0
C36 C 0.59718 0.77106 0.86783 0.0
O37 O 0.56204 0.74407 0.94818 0.0
O38 O 0.5242 0.71869 0.91266 0.0
In39 In 0.50515 0.26371 0.12975 0.0
O40 O 0.51013 0.23649 0.07818 0.0
O41 O 0.48781 0.20524 0.1145 0.0
C42 C 0.51089 0.32289 0.0986 0.0
C43 C 0.45551 0.26897 0.17078 0.0
C44 C 0.56137 0.2525 0.15937 0.0
O45 O 0.48971 0.29589 0.08899 0.0
O46 O 0.52789 0.32036 0.12456 0.0
O47 O 0.5605 0.26842 0.13368 0.0
O48 O 0.53387 0.24335 0.17129 0.0
C49 C 0.49783 0.20627 0.08539 0.0
O50 O 0.45297 0.24689 0.14545 0.0
O51 O 0.48294 0.2893 0.17518 0.0
In52 In 0.05231 0.79364 0.15353 0.0
O53 O 0.07686 0.75913 0.11709 0.0
O54 O 0.02548 0.74504 0.12183 0.0
C55 C 0.04552 0.84233 0.11095 0.0
C56 C 0.00463 0.78873 0.19802 0.0
C57 C 0.10645 0.79623 0.19379 0.0
O58 O 0.07297 0.83977 0.12396 0.0
O59 O 0.02179 0.82077 0.11968 0.0
O60 O 0.09513 0.82359 0.18918 0.0
O61 O 0.09022 0.76837 0.1788 0.0
C62 C 0.05073 0.7377 0.10842 0.0
O63 O 0.02174 0.81774 0.19274 0.0
O64 O 0.01225 0.76244 0.18168 0.0
In65 In 0.50468 0.75546 0.38402 0.0
O66 O 0.53724 0.72572 0.35232 0.0
O67 O 0.54415 0.78083 0.35075 0.0
C68 C 0.44557 0.74456 0.35045 0.0
C69 C 0.50886 0.70894 0.42927 0.0
C70 C 0.51037 0.81964 0.41826 0.0
O71 O 0.46998 0.73398 0.33807 0.0
O72 O 0.45053 0.75838 0.38014 0.0
O73 O 0.52147 0.79488 0.42989 0.0
O74 O 0.49775 0.81251 0.389 0.0
C75 C 0.55306 0.75242 0.34097 0.0
O76 O 0.48257 0.70914 0.41256 0.0
O77 O 0.53259 0.73217 0.42327 0.0
In78 In 0.5515 0.29162 0.65326 0.0
O79 O 0.57446 0.25711 0.61531 0.0
O80 O 0.52391 0.24174 0.62387 0.0
C81 C 0.54636 0.3402 0.61013 0.0
C82 C 0.50353 0.29 0.69749 0.0
C83 C 0.60598 0.29445 0.6933 0.0
O84 O 0.52259 0.31723 0.61649 0.0
O85 O 0.57305 0.33878 0.62547 0.0
O86 O 0.59369 0.3214 0.68978 0.0
O87 O 0.59058 0.26674 0.67732 0.0
C88 C 0.5484 0.23491 0.60861 0.0
O89 O 0.51272 0.26272 0.68495 0.0
O90 O 0.51918 0.31818 0.68855 0.0
In91 In 0.00578 0.25856 0.88396 0.0
O92 O 0.0355 0.23182 0.91907 0.0
O93 O 0.98451 0.21197 0.91264 0.0
C94 C 0.00929 0.32112 0.92048 0.0
C95 C 0.05469 0.2616 0.84093 0.0
C96 C 0.94708 0.2479 0.84939 0.0
O97 O 0.02069 0.29616 0.9314 0.0
O98 O 0.99723 0.31494 0.89096 0.0
O99 O 0.95149 0.26097 0.87935 0.0
O100 O 0.97187 0.23803 0.83715 0.0
C101 C 0.01161 0.2097 0.92668 0.0
O102 O 0.03672 0.23318 0.84639 0.0
O103 O 0.0476 0.28857 0.85664 0.0
In104 In 0.41855 0.04801 0.28415 0.0
O105 O 0.45293 0.08 0.25098 0.0
O106 O 0.4555 0.02604 0.253 0.0
C107 C 0.45419 0.05519 0.34176 0.0
C108 C 0.37061 0.08393 0.2738 0.0
C109 C 0.37785 0.98613 0.27978 0.0
O110 O 0.4378 0.02657 0.32854 0.0
O111 O 0.45282 0.0815 0.32592 0.0
O112 O 0.38158 0.00747 0.30571 0.0
O113 O 0.39504 0.99585 0.25591 0.0
C114 C 0.46622 0.05444 0.24102 0.0
O115 O 0.38245 0.06735 0.25038 0.0
O116 O 0.38458 0.08453 0.30224 0.0
In117 In 0.2716 0.15734 0.49793 0.0
O118 O 0.25367 0.19539 0.53746 0.0
O119 O 0.29772 0.17818 0.5493 0.0
C120 C 0.27727 0.19562 0.44359 0.0
C121 C 0.319 0.11706 0.49723 0.0
C122 C 0.21185 0.11452 0.49621 0.0
O123 O 0.25746 0.16707 0.44411 0.0
O124 O 0.29378 0.20558 0.47076 0.0
O125 O 0.23593 0.10503 0.48209 0.0
O126 O 0.21778 0.14547 0.51016 0.0
C127 C 0.27642 0.19565 0.55906 0.0
O128 O 0.29446 0.11162 0.51491 0.0
O129 O 0.31959 0.14265 0.48004 0.0
In130 In 0.15804 0.01544 0.7996 0.0
O131 O 0.11289 0.02138 0.76768 0.0
O132 O 0.15672 0.01729 0.74322 0.0
C133 C 0.12006 0.00691 0.8535 0.0
C134 C 0.19134 0.96107 0.79013 0.0
C135 C 0.19465 0.08094 0.80329 0.0
O136 O 0.14471 0.03096 0.85305 0.0
O137 O 0.11484 0.98633 0.82707 0.0
O138 O 0.20592 0.0554 0.81332 0.0
O139 O 0.16508 0.0736 0.79285 0.0
C140 C 0.12737 0.02161 0.74063 0.0
O141 O 0.20236 0.98851 0.80925 0.0
O142 O 0.16341 0.96071 0.77668 0.0
In143 In 0.25968 0.89335 0.00302 0.0
O144 O 0.23346 0.85635 0.03834 0.0
O145 O 0.28579 0.86788 0.04089 0.0
C146 C 0.24357 0.84717 0.94806 0.0
C147 C 0.2212 0.94208 0.01403 0.0
C148 C 0.32094 0.93005 1.00238 0.0
O149 O 0.25826 0.84016 0.97364 0.0
O150 O 0.23576 0.87713 0.95052 0.0
O151 O 0.30734 0.90989 0.97764 0.0
O152 O 0.30334 0.93237 0.02698 0.0
C153 C 0.26003 0.85127 0.05173 0.0
O154 O 0.23711 0.93946 0.98815 0.0
O155 O 0.22375 0.91935 0.03387 0.0
In156 In 0.28129 0.3936 0.03527 0.0
O157 O 0.2573 0.34489 0.06115 0.0
O158 O 0.29443 0.38168 0.08855 0.0
C159 C 0.27919 0.35432 0.97487 0.0
C160 C 0.23541 0.43592 0.03381 0.0
C161 C 0.34137 0.43605 0.0386 0.0
O162 O 0.2537 0.3615 0.98797 0.0
O163 O 0.30505 0.36553 0.99272 0.0
O164 O 0.31575 0.44786 0.04562 0.0
O165 O 0.33664 0.40334 0.03108 0.0
C166 C 0.27401 0.35351 0.08837 0.0
O167 O 0.24081 0.4198 0.05859 0.0
O168 O 0.25331 0.43103 0.0098 0.0
In169 In 0.78903 0.15334 0.03556 0.0
O170 O 0.81123 0.1119 0.00481 0.0
O171 O 0.8259 0.12238 0.05613 0.0
C172 C 0.72869 0.11431 0.02739 0.0
C173 C 0.79397 0.19535 0.09314 0.0
C174 C 0.79412 0.20208 0.99222 0.0
O175 O 0.74309 0.12835 0.00366 0.0
O176 O 0.74518 0.11901 0.05481 0.0
O177 O 0.76844 0.19282 0.00733 0.0
O178 O 0.81764 0.18704 0.99933 0.0
C179 C 0.82807 0.10457 0.02882 0.0
O180 O 0.81586 0.19944 0.07214 0.0
O181 O 0.77099 0.16971 0.08545 0.0
In182 In 0.13662 0.50185 0.24663 0.0
O183 O 0.16903 0.46411 0.22706 0.0
O184 O 0.17089 0.47874 0.27935 0.0
C185 C 0.17882 0.56282 0.25556 0.0
C186 C 0.10158 0.49793 0.18881 0.0
C187 C 0.08885 0.49725 0.28963 0.0
O188 O 0.16003 0.55224 0.27792 0.0
O189 O 0.17595 0.54281 0.22877 0.0
O190 O 0.10048 0.52526 0.27742 0.0
O191 O 0.10105 0.47088 0.27965 0.0
C192 C 0.1824 0.46264 0.25538 0.0
O193 O 0.10007 0.47153 0.20514 0.0
O194 O 0.12084 0.52504 0.20142 0.0
In195 In 0.77872 0.89261 0.53682 0.0
O196 O 0.75205 0.8455 0.56378 0.0
O197 O 0.79037 0.88086 0.59059 0.0
C198 C 0.77888 0.85864 0.47428 0.0
C199 C 0.73002 0.93111 0.53446 0.0
C200 C 0.83893 0.93441 0.53604 0.0
O201 O 0.79522 0.85136 0.4989 0.0
O202 O 0.76208 0.88198 0.48144 0.0
O203 O 0.81401 0.94629 0.54528 0.0
O204 O 0.8335 0.90187 0.52756 0.0
C205 C 0.76886 0.85371 0.59093 0.0
O206 O 0.75471 0.93995 0.55466 0.0
O207 O 0.72959 0.90277 0.51642 0.0
In208 In 0.89408 0.03221 0.23947 0.0
O209 O 0.93738 0.06207 0.21286 0.0
O210 O 0.90694 0.01855 0.18555 0.0
C211 C 0.92455 0.0233 0.29771 0.0
C212 C 0.86159 0.08704 0.24888 0.0
C213 C 0.85589 0.96758 0.23444 0.0
O214 O 0.93922 0.02517 0.27086 0.0
O215 O 0.8952 0.0275 0.29539 0.0
O216 O 0.8442 0.99526 0.23313 0.0
O217 O 0.88673 0.97243 0.2366 0.0
C218 C 0.93195 0.04235 0.18588 0.0
O219 O 0.85176 0.0611 0.22752 0.0
O220 O 0.88821 0.08585 0.26444 0.0
In221 In 0.29265 0.65236 0.53611 0.0
O222 O 0.32208 0.6135 0.55569 0.0
O223 O 0.32243 0.61986 0.50392 0.0
C224 C 0.23497 0.60838 0.5323 0.0
C225 C 0.30027 0.69957 0.59029 0.0
C226 C 0.29344 0.69888 0.49098 0.0
O227 O 0.24879 0.61905 0.50684 0.0
O228 O 0.25084 0.61903 0.55971 0.0
O229 O 0.31953 0.69072 0.50226 0.0
O230 O 0.26751 0.68328 0.50219 0.0
C231 C 0.33152 0.60399 0.52743 0.0
O232 O 0.27293 0.68588 0.57612 0.0
O233 O 0.3245 0.68863 0.57781 0.0
In234 In 0.39388 0.53417 0.73991 0.0
O235 O 0.34945 0.56084 0.73031 0.0
O236 O 0.38914 0.58945 0.76158 0.0
C237 C 0.35823 0.4683 0.73456 0.0
C238 C 0.43252 0.54369 0.68679 0.0
C239 C 0.4223 0.52606 0.79947 0.0
O240 O 0.38799 0.47576 0.74426 0.0
O241 O 0.34617 0.494 0.72609 0.0
O242 O 0.43723 0.52545 0.77272 0.0
O243 O 0.39373 0.53265 0.79646 0.0
C244 C 0.361 0.58885 0.74844 0.0
O245 O 0.43819 0.56309 0.71393 0.0
O246 O 0.40712 0.52043 0.68618 0.0
In247 In 0.63334 0.00424 0.74348 0.0
O248 O 0.67272 0.98518 0.77315 0.0
O249 O 0.66411 0.96594 0.72185 0.0
C250 C 0.67386 0.06621 0.75182 0.0
C251 C 0.5977 0.99944 0.68614 0.0
C252 C 0.58607 0.99478 0.78696 0.0
O253 O 0.6704 0.04663 0.72473 0.0
O254 O 0.65618 0.05485 0.77476 0.0
O255 O 0.5944 0.02316 0.77411 0.0
O256 O 0.60169 0.97085 0.77784 0.0
C257 C 0.68129 0.96721 0.74856 0.0
O258 O 0.59807 0.97278 0.70172 0.0
O259 O 0.61523 0.02743 0.6994 0.0
In260 In 0.77117 0.65781 0.99936 0.0
O261 O 0.82164 0.64644 0.98508 0.0
O262 O 0.79369 0.61084 0.01426 0.0
C263 C 0.71154 0.61441 0.99713 0.0
C264 C 0.7758 0.69573 0.06055 0.0
C265 C 0.77486 0.69725 0.94555 0.0
O266 O 0.73399 0.60853 0.97826 0.0
O267 O 0.71903 0.64209 0.01669 0.0
O268 O 0.75902 0.66634 0.94448 0.0
O269 O 0.78836 0.7088 0.9739 0.0
C270 C 0.82 0.61896 0.99976 0.0
O271 O 0.75252 0.6948 0.03931 0.0
O272 O 0.79754 0.67902 0.05041 0.0
In273 In 0.91856 0.55011 0.79064 0.0
O274 O 0.88613 0.57199 0.75492 0.0
O275 O 0.88385 0.58665 0.80681 0.0
C276 C 0.87759 0.48831 0.78419 0.0
C277 C 0.96811 0.55148 0.75007 0.0
C278 C 0.95247 0.55848 0.84933 0.0
O279 O 0.8812 0.50874 0.81074 0.0
O280 O 0.89497 0.49894 0.76078 0.0
O281 O 0.9327 0.53105 0.83843 0.0
O282 O 0.95496 0.58322 0.8308 0.0
C283 C 0.87241 0.58753 0.77755 0.0
O284 O 0.95644 0.57867 0.75841 0.0
O285 O 0.95489 0.52417 0.76252 0.0
In286 In 0.76567 0.40463 0.50809 0.0
O287 O 0.7382 0.36883 0.54371 0.0
O288 O 0.78832 0.36678 0.53668 0.0
C289 C 0.75656 0.36167 0.45101 0.0
C290 C 0.72809 0.45447 0.5165 0.0
C291 C 0.82562 0.44435 0.51362 0.0
O292 O 0.78314 0.38198 0.46003 0.0
O293 O 0.73365 0.36339 0.47055 0.0
O294 O 0.80866 0.43792 0.48645 0.0
O295 O 0.81175 0.43187 0.53836 0.0
C296 C 0.76274 0.3555 0.55115 0.0
O297 O 0.74123 0.44273 0.54061 0.0
O298 O 0.73324 0.44052 0.48817 0.0
In299 In 0.66008 0.51423 0.30141 0.0
O300 O 0.70342 0.48627 0.31274 0.0
O301 O 0.66482 0.45902 0.27944 0.0
C302 C 0.69647 0.57988 0.30528 0.0
C303 C 0.63013 0.51997 0.24194 0.0
C304 C 0.62169 0.50665 0.355 0.0
O305 O 0.70817 0.55414 0.31427 0.0
O306 O 0.66669 0.57258 0.29559 0.0
O307 O 0.61651 0.48585 0.32873 0.0
O308 O 0.64648 0.53052 0.35456 0.0
C309 C 0.69215 0.45867 0.29391 0.0
O310 O 0.61518 0.51899 0.2687 0.0
O311 O 0.65972 0.51654 0.245 0.0
Dy312 Dy 0.98978 0.013 0.00972 0.0
C313 C 0.12904 0.03447 0.03253 0.0
C314 C 0.92549 0.01813 0.01492 0.0
Dy315 Dy 0.06407 0.03865 0.031 0.0
O316 O 0.93849 0.00958 0.98706 0.0
O317 O 0.94724 0.02178 0.03936 0.0
O318 O 1.00282 0.98364 0.9624 0.0
O319 O 0.03419 0.02898 0.98476 0.0
C320 C 0.03152 0.004 0.962 0.0
C321 C 0.02184 0.04687 0.07853 0.0
O322 O 0.05574 0.08799 0.01049 0.0
O323 O 0.99885 0.07139 0.00535 0.0
O324 O 0.11151 0.03586 0.05856 0.0
O325 O 0.1115 0.03807 0.00626 0.0
O326 O 0.05003 0.06803 0.07794 0.0
O327 O 0.01981 0.02202 0.05578 0.0
O328 O 0.99868 0.96397 0.03015 0.0
O329 O 0.05547 0.97957 0.03053 0.0
C330 C 0.02613 0.09484 0.00359 0.0
C331 C 0.02843 0.95653 0.03443 0.0
Dy332 Dy 0.28113 0.77084 0.23307 0.0
C333 C 0.28419 0.77037 0.3751 0.0
C334 C 0.27076 0.77954 0.16777 0.0
Dy335 Dy 0.27456 0.77872 0.30956 0.0
O336 O 0.24869 0.77816 0.18979 0.0
O337 O 0.29854 0.77543 0.18129 0.0
O338 O 0.32369 0.74293 0.23935 0.0
O339 O 0.31481 0.78138 0.27648 0.0
C340 C 0.33201 0.75838 0.2693 0.0
C341 C 0.22381 0.79077 0.27282 0.0
O342 O 0.29999 0.83295 0.30421 0.0
O343 O 0.29284 0.82924 0.24633 0.0
O344 O 0.25723 0.77692 0.36179 0.0
O345 O 0.30556 0.76875 0.35271 0.0
O346 O 0.23216 0.80689 0.3025 0.0
O347 O 0.24105 0.76776 0.26627 0.0
O348 O 0.25706 0.71631 0.23805 0.0
O349 O 0.26202 0.72013 0.29615 0.0
C350 C 0.30178 0.84744 0.2757 0.0
C351 C 0.25447 0.70185 0.26652 0.0
Dy352 Dy 0.56508 0.02846 0.51148 0.0
C353 C 0.42821 0.04348 0.50314 0.0
C354 C 0.62543 0.00991 0.51885 0.0
Dy355 Dy 0.48739 0.02396 0.51502 0.0
O356 O 0.6097 0.01089 0.4906 0.0
O357 O 0.60882 0.02072 0.54322 0.0
O358 O 0.56367 0.05797 0.46565 0.0
O359 O 0.52303 0.02146 0.47754 0.0
C360 C 0.53289 0.04428 0.45839 0.0
C361 C 0.51935 0.0089 0.56865 0.0
O362 O 0.48839 0.9716 0.48795 0.0
O363 O 0.54244 0.97055 0.50511 0.0
O364 O 0.43392 0.02267 0.52536 0.0
O365 O 0.45444 0.05243 0.48705 0.0
O366 O 0.48833 0.99601 0.56198 0.0
O367 O 0.52932 0.03096 0.54888 0.0
O368 O 0.5659 0.08337 0.53424 0.0
O369 O 0.50922 0.08121 0.52812 0.0
C370 C 0.51333 0.9548 0.49121 0.0
C371 C 0.53959 0.09853 0.53611 0.0
Dy372 Dy 0.2412 0.27477 0.76409 0.0
C373 C 0.38063 0.28143 0.76069 0.0
C374 C 0.17579 0.26835 0.77476 0.0
Dy375 Dy 0.3149 0.27238 0.77091 0.0
O376 O 0.19549 0.29748 0.77113 0.0
O377 O 0.19166 0.24246 0.77159 0.0
O378 O 0.25184 0.32058 0.73383 0.0
O379 O 0.28607 0.31389 0.77141 0.0
C380 C 0.28092 0.33193 0.74792 0.0
C381 C 0.27501 0.2152 0.78713 0.0
O382 O 0.30973 0.29759 0.8223 0.0
O383 O 0.25281 0.28409 0.81985 0.0
O384 O 0.36262 0.2525 0.76792 0.0
O385 O 0.36286 0.3056 0.75985 0.0
O386 O 0.3042 0.22633 0.80111 0.0
O387 O 0.27005 0.23332 0.76367 0.0
O388 O 0.24609 0.25067 0.71217 0.0
O389 O 0.30315 0.26103 0.71531 0.0
C390 C 0.28131 0.29583 0.8368 0.0
C391 C 0.27458 0.25092 0.69807 0.0
Dy392 Dy 0.01777 0.00685 0.48214 0.0
C393 C 0.06852 0.0476 0.61562 0.0
C394 C 0.98408 0.99589 0.42162 0.0
Dy395 Dy 0.03534 0.03697 0.55476 0.0
O396 O 0.01446 0.99254 0.42642 0.0
O397 O 0.97194 0.00348 0.45001 0.0
O398 O 0.07071 0.00353 0.47418 0.0
O399 O 0.05895 0.04289 0.50789 0.0
C400 C 0.08226 0.02944 0.49669 0.0
C401 C 0.97087 0.01477 0.5396 0.0
O402 O 0.03796 0.08829 0.53276 0.0
O403 O 0.00969 0.06292 0.48329 0.0
O404 O 0.0382 0.05107 0.61054 0.0
O405 O 0.08089 0.04015 0.58733 0.0
O406 O 0.98231 0.04082 0.56199 0.0
O407 O 0.99421 1.00101 0.52898 0.0
O408 O 0.01562 0.95553 0.50403 0.0
O409 O 0.04363 0.98103 0.55357 0.0
C410 C 0.02277 0.09105 0.5038 0.0
C411 C 0.03078 0.95287 0.53302 0.0
Dy412 Dy 0.31175 0.79544 0.78015 0.0
C413 C 0.18413 0.73991 0.71975 0.0
C414 C 0.36879 0.8102 0.81842 0.0
Dy415 Dy 0.24271 0.75653 0.75539 0.0
O416 O 0.3652 0.81965 0.78857 0.0
O417 O 0.34084 0.79444 0.82779 0.0
O418 O 0.32385 0.80968 0.7286 0.0
O419 O 0.2907 0.76391 0.735 0.0
C420 C 0.30242 0.78379 0.71382 0.0
C421 C 0.25227 0.77024 0.82194 0.0
O422 O 0.26782 0.70982 0.75125 0.0
O423 O 0.31412 0.73811 0.7834 0.0
O424 O 0.18893 0.73291 0.75025 0.0
O425 O 0.21159 0.75445 0.70849 0.0
O426 O 0.23281 0.74251 0.8076 0.0
O427 O 0.26348 0.78913 0.7999 0.0
O428 O 0.28646 0.84209 0.78378 0.0
O429 O 0.24044 0.81381 0.75113 0.0
C430 C 0.29608 0.70917 0.76754 0.0
C431 C 0.25837 0.8428 0.76711 0.0
Dy432 Dy 0.52495 0.02372 0.05177 0.0
C433 C 0.52345 0.0012 0.90869 0.0
C434 C 0.52657 0.04301 0.1184 0.0
Dy435 Dy 0.52473 0.02034 0.97535 0.0
O436 O 0.52862 0.01196 0.10491 0.0
O437 O 0.52388 0.06372 0.0954 0.0
O438 O 0.52066 0.96534 0.04903 0.0
O439 O 0.54627 0.99365 0.01303 0.0
C440 C 0.53574 0.96346 0.02143 0.0
C441 C 0.51354 0.08038 0.00632 0.0
O442 O 0.47504 0.98931 0.98306 0.0
O443 O 0.47139 0.00719 0.03922 0.0
O444 O 0.51898 0.03145 0.92214 0.0
O445 O 0.52824 0.98122 0.93173 0.0
O446 O 0.52886 0.07903 0.97881 0.0
O447 O 0.50326 0.04997 0.0141 0.0
O448 O 0.57507 0.05363 0.04402 0.0
O449 O 0.57825 0.03798 0.98727 0.0
C450 C 0.45813 0.99088 0.0103 0.0
C451 C 0.59169 0.05307 0.01652 0.0
Dy452 Dy 0.28562 0.31122 0.27537 0.0
C453 C 0.27181 0.16458 0.25625 0.0
C454 C 0.27943 0.37898 0.27118 0.0
Dy455 Dy 0.26664 0.23287 0.25345 0.0
O456 O 0.28498 0.36585 0.29895 0.0
O457 O 0.27936 0.35554 0.24626 0.0
O458 O 0.31083 0.30102 0.32309 0.0
O459 O 0.27022 0.26511 0.30094 0.0
C460 C 0.29215 0.27033 0.32433 0.0
C461 C 0.26025 0.27425 0.20479 0.0
O462 O 0.21795 0.23894 0.27214 0.0
O463 O 0.23049 0.29985 0.27913 0.0
O464 O 0.26818 0.17894 0.22876 0.0
O465 O 0.27042 0.18713 0.28158 0.0
O466 O 0.24128 0.24373 0.2059 0.0
O467 O 0.28221 0.27892 0.22807 0.0
O468 O 0.33443 0.30485 0.25697 0.0
O469 O 0.32188 0.24392 0.25118 0.0
C470 C 0.20956 0.26981 0.28009 0.0
C471 C 0.34286 0.27384 0.24986 0.0
Dy472 Dy 0.51611 0.50328 0.98042 0.0
C473 C 0.57115 0.54599 0.11693 0.0
C474 C 0.47691 0.49278 0.92355 0.0
Dy475 Dy 0.53789 0.53639 0.05613 0.0
O476 O 0.50396 0.48052 0.92708 0.0
O477 O 0.47053 0.50869 0.95168 0.0
O478 O 0.56728 0.51366 0.96028 0.0
O479 O 0.55912 0.5296 0.00884 0.0
C480 C 0.58101 0.53036 0.98813 0.0
C481 C 0.47302 0.5168 0.04042 0.0
O482 O 0.54341 0.58576 0.03091 0.0
O483 O 0.51109 0.5601 0.98336 0.0
O484 O 0.54049 0.54817 0.11208 0.0
O485 O 0.58391 0.54037 0.08843 0.0
O486 O 0.48512 0.54222 0.0633 0.0
O487 O 0.49597 0.50261 0.02951 0.0
O488 O 0.51595 0.45308 0.00393 0.0
O489 O 0.54112 0.47902 0.0555 0.0
C490 C 0.52742 0.58801 1.00226 0.0
C491 C 0.5293 0.45098 0.03412 0.0
Dy492 Dy 0.81151 0.29198 0.28558 0.0
C493 C 0.68343 0.23453 0.2203 0.0
C494 C 0.87027 0.30659 0.32077 0.0
Dy495 Dy 0.73764 0.25034 0.26211 0.0
O496 O 0.86532 0.31523 0.29084 0.0
O497 O 0.84289 0.29134 0.33178 0.0
O498 O 0.82003 0.30292 0.23186 0.0
O499 O 0.78611 0.26007 0.24311 0.0
C500 C 0.79701 0.27699 0.21972 0.0
C501 C 0.74449 0.27225 0.32772 0.0
O502 O 0.76405 0.20424 0.26112 0.0
O503 O 0.81457 0.23447 0.28584 0.0
O504 O 0.68741 0.21899 0.24714 0.0
O505 O 0.70954 0.25728 0.21588 0.0
O506 O 0.71707 0.25424 0.31384 0.0
O507 O 0.76512 0.27458 0.30578 0.0
O508 O 0.78394 0.33651 0.29172 0.0
O509 O 0.73727 0.30811 0.25922 0.0
C510 C 0.7945 0.20493 0.27353 0.0
C511 C 0.75512 0.33662 0.27621 0.0
Dy512 Dy 0.03313 0.52012 0.56297 0.0
C513 C 0.03227 0.51007 0.41425 0.0
C514 C 0.03042 0.53381 0.62957 0.0
Dy515 Dy 0.02945 0.52296 0.48094 0.0
O516 O 0.02014 0.50342 0.61282 0.0
O517 O 0.04224 0.55713 0.60988 0.0
O518 O 0.04801 0.46631 0.56047 0.0
O519 O 0.04124 0.49031 0.51803 0.0
C520 C 0.04877 0.46319 0.52811 0.0
C521 C 0.0133 0.57976 0.51538 0.0
O522 O 0.97903 0.49604 0.49016 0.0
O523 O 0.97943 0.50835 0.5485 0.0
O524 O 0.04228 0.54032 0.4313 0.0
O525 O 0.02077 0.48632 0.43367 0.0
O526 O 0.0138 0.57619 0.48301 0.0
O527 O 0.0215 0.55309 0.52588 0.0
O528 O 0.08331 0.54738 0.55408 0.0
O529 O 0.08324 0.53564 0.49571 0.0
C530 C 0.96417 0.49696 0.51886 0.0
C531 C 0.09831 0.54701 0.52549 0.0
Dy532 Dy 0.73942 0.77233 0.26591 0.0
C533 C 0.88188 0.7765 0.26159 0.0
C534 C 0.67442 0.75505 0.27674 0.0
Dy535 Dy 0.81667 0.77097 0.27234 0.0
O536 O 0.6866 0.77573 0.25489 0.0
O537 O 0.69766 0.74316 0.29186 0.0
O538 O 0.74384 0.82879 0.25389 0.0
O539 O 0.78496 0.80731 0.26292 0.0
C540 C 0.77572 0.83481 0.25551 0.0
C541 C 0.77589 0.71506 0.29054 0.0
O542 O 0.8107 0.79865 0.32261 0.0
O543 O 0.7533 0.78835 0.32046 0.0
O544 O 0.86039 0.74758 0.25777 0.0
O545 O 0.86787 0.80251 0.27208 0.0
O546 O 0.80559 0.72556 0.30347 0.0
O547 O 0.77089 0.7331 0.26707 0.0
O548 O 0.74643 0.74899 0.21415 0.0
O549 O 0.80389 0.76129 0.21679 0.0
C550 C 0.78229 0.79971 0.33664 0.0
C551 C 0.77509 0.75042 0.19992 0.0
Dy552 Dy 0.78208 0.27303 0.73187 0.0
C553 C 0.78653 0.26886 0.87322 0.0
C554 C 0.77111 0.28291 0.66687 0.0
Dy555 Dy 0.77528 0.27929 0.80851 0.0
O556 O 0.7982 0.27573 0.67931 0.0
O557 O 0.75016 0.28415 0.68983 0.0
O558 O 0.82533 0.24601 0.73779 0.0
O559 O 0.81558 0.28337 0.77548 0.0
C560 C 0.83327 0.26093 0.768 0.0
C561 C 0.72402 0.29085 0.77213 0.0
O562 O 0.80126 0.33348 0.80392 0.0
O563 O 0.79388 0.33131 0.74616 0.0
O564 O 0.76233 0.28266 0.86242 0.0
O565 O 0.80405 0.26079 0.84878 0.0
O566 O 0.73165 0.30592 0.80232 0.0
O567 O 0.74199 0.2687 0.76508 0.0
O568 O 0.7574 0.21834 0.73604 0.0
O569 O 0.76082 0.22104 0.79415 0.0
C570 C 0.80276 0.34882 0.77586 0.0
C571 C 0.75371 0.20334 0.76421 0.0
Dy572 Dy 0.78333 0.81431 0.77626 0.0
C573 C 0.77117 0.66366 0.75317 0.0
C574 C 0.7717 0.87711 0.76134 0.0
Dy575 Dy 0.7646 0.73198 0.75466 0.0
O576 O 0.79212 0.87338 0.78566 0.0
O577 O 0.75834 0.84698 0.746 0.0
O578 O 0.79479 0.81188 0.83162 0.0
O579 O 0.77897 0.76673 0.79939 0.0
C580 C 0.78649 0.77765 0.82966 0.0
C581 C 0.75553 0.77424 0.70729 0.0
O582 O 0.71842 0.73887 0.77883 0.0
O583 O 0.72986 0.80019 0.78644 0.0
O584 O 0.77339 0.68181 0.72758 0.0
O585 O 0.76283 0.68233 0.77861 0.0
O586 O 0.73754 0.7431 0.70806 0.0
O587 O 0.77768 0.7791 0.73038 0.0
O588 O 0.83166 0.80679 0.75737 0.0
O589 O 0.81978 0.74529 0.75188 0.0
C590 C 0.71034 0.76953 0.78865 0.0
C591 C 0.8402 0.7757 0.75025 0.0
Dy592 Dy 0.49073 0.51206 0.51053 0.0
C593 C 0.63 0.53939 0.53092 0.0
C594 C 0.42533 0.51366 0.51098 0.0
Dy595 Dy 0.56444 0.53971 0.53205 0.0
O596 O 0.44179 0.51145 0.48422 0.0
O597 O 0.44429 0.51241 0.53687 0.0
O598 O 0.50497 0.48248 0.46402 0.0
O599 O 0.53492 0.52917 0.48555 0.0
C600 C 0.533 0.50387 0.46322 0.0
C601 C 0.522 0.54782 0.57927 0.0
O602 O 0.55448 0.58832 0.51162 0.0
O603 O 0.49776 0.57079 0.50883 0.0
O604 O 0.61402 0.54232 0.55794 0.0
O605 O 0.61039 0.53879 0.50511 0.0
O606 O 0.55002 0.56927 0.5786 0.0
O607 O 0.52031 0.52261 0.55693 0.0
O608 O 0.50059 0.46329 0.53073 0.0
O609 O 0.55736 0.481 0.53432 0.0
C610 C 0.5245 0.59464 0.50603 0.0
C611 C 0.53056 0.45702 0.53662 0.0
Dy612 Dy 0.06696 0.52935 0.01574 0.0
C613 C 0.93055 0.54694 0.00802 0.0
C614 C 0.12713 0.51096 0.02557 0.0
Dy615 Dy 0.98929 0.52592 0.01966 0.0
O616 O 0.11742 0.52386 0.99907 0.0
O617 O 0.1044 0.5094 0.04701 0.0
O618 O 0.06548 0.55733 0.96889 0.0
O619 O 0.02462 0.52209 0.98212 0.0
C620 C 0.03452 0.54414 0.96229 0.0
C621 C 0.02152 0.51178 0.07362 0.0
O622 O 0.98925 0.47296 0.99286 0.0
O623 O 0.04431 0.47162 0.00594 0.0
O624 O 0.93548 0.52465 0.02912 0.0
O625 O 0.95731 0.55658 0.993 0.0
O626 O 0.99041 0.49916 0.06728 0.0
O627 O 0.03157 0.53337 0.0534 0.0
O628 O 0.0681 0.58412 0.03908 0.0
O629 O 0.01183 0.58317 0.03096 0.0
C630 C 0.01431 0.456 0.99433 0.0
C631 C 0.04223 0.60003 0.03946 0.0
C632 C 0.98781 0.16066 0.95956 0.0
C633 C 0.01542 0.18272 0.94939 0.0
H634 H 0.96948 0.11639 0.98542 0.0
C635 C 0.04676 0.17801 0.96025 0.0
H636 H 0.96335 0.16386 0.9519 0.0
C637 C 0.05043 0.1506 0.97949 0.0
C638 C 0.02278 0.12749 0.98841 0.0
H639 H 0.06854 0.19478 0.95296 0.0
H640 H 0.07491 0.14676 0.98622 0.0
C641 C 0.99143 0.13349 0.97895 0.0
C642 C 0.15024 0.82403 0.23794 0.0
C643 C 0.13685 0.79612 0.21395 0.0
H644 H 0.18834 0.84403 0.27602 0.0
C645 C 0.15263 0.76714 0.20925 0.0
H646 H 0.13853 0.84667 0.24205 0.0
C647 C 0.18109 0.7659 0.2281 0.0
C648 C 0.19423 0.79337 0.25251 0.0
H649 H 0.14305 0.74532 0.19081 0.0
H650 H 0.19254 0.74307 0.22387 0.0
C651 C 0.1786 0.82248 0.25737 0.0
C652 C 0.53151 0.86433 0.46637 0.0
C653 C 0.51048 0.85362 0.43782 0.0
H654 H 0.54893 0.90497 0.50579 0.0
C655 C 0.48894 0.87539 0.42833 0.0
H656 H 0.54823 0.84792 0.47431 0.0
C657 C 0.48872 0.90753 0.44677 0.0
C658 C 0.51051 0.91884 0.47469 0.0
H659 H 0.47222 0.86759 0.40661 0.0
H660 H 0.47232 0.92407 0.4384 0.0
C661 C 0.5318 0.89686 0.48442 0.0
C662 C 0.45843 0.25672 0.72796 0.0
C663 C 0.47456 0.28877 0.71804 0.0
H664 H 0.41619 0.22941 0.7498 0.0
C665 C 0.4611 0.31908 0.72546 0.0
H666 H 0.46825 0.23294 0.72267 0.0
C667 C 0.43119 0.31699 0.74079 0.0
C668 C 0.41435 0.28463 0.74926 0.0
H669 H 0.47294 0.34416 0.71814 0.0
H670 H 0.42069 0.34049 0.74492 0.0
C671 C 0.42867 0.2547 0.74355 0.0
C672 C 0.0439 0.88463 0.59056 0.0
C673 C 0.01871 0.85637 0.57933 0.0
H674 H 0.0679 0.93678 0.58431 0.0
C675 C 0.99949 0.85875 0.55046 0.0
H676 H 0.05938 0.88355 0.6125 0.0
C677 C 0.00459 0.88937 0.53398 0.0
C678 C 0.02892 0.91821 0.54616 0.0
H679 H 0.98004 0.83727 0.54105 0.0
H680 H 0.98855 0.89099 0.51263 0.0
C681 C 0.0489 0.91514 0.57425 0.0
C682 C 0.43019 0.78694 0.87941 0.0
C683 C 0.45933 0.79389 0.86258 0.0
H684 H 0.37876 0.78741 0.87884 0.0
C685 C 0.45902 0.80944 0.83248 0.0
H686 H 0.42973 0.77531 0.90284 0.0
C687 C 0.4298 0.81676 0.81891 0.0
C688 C 0.40048 0.80857 0.83522 0.0
H689 H 0.48121 0.81544 0.81917 0.0
H690 H 0.42995 0.82761 0.7951 0.0
C691 C 0.40106 0.79417 0.86584 0.0
C692 C 0.51688 0.17626 0.03432 0.0
C693 C 0.49869 0.17431 0.06305 0.0
H694 H 0.53613 0.1478 0.99394 0.0
C695 C 0.4838 0.1413 0.07178 0.0
H696 H 0.52871 0.20138 0.02707 0.0
C697 C 0.48787 0.11074 0.05269 0.0
C698 C 0.5073 0.11267 0.02488 0.0
H699 H 0.46959 0.13903 0.09376 0.0
H700 H 0.47631 0.0856 0.0601 0.0
C701 C 0.52125 0.14565 0.01544 0.0
C702 C 0.12899 0.24099 0.32021 0.0
C703 C 0.126 0.272 0.33969 0.0
H704 H 0.15782 0.21582 0.28577 0.0
C705 C 0.14853 0.30284 0.33643 0.0
H706 H 0.11179 0.21689 0.32208 0.0
C707 C 0.17426 0.3025 0.31511 0.0
C708 C 0.17853 0.27112 0.29698 0.0
H709 H 0.14656 0.32726 0.35075 0.0
H710 H 0.19166 0.32666 0.31416 0.0
C711 C 0.15523 0.24046 0.29928 0.0
C712 C 0.97941 0.07424 0.15647 0.0
C713 C 0.95436 0.04485 0.1579 0.0
H714 H 0.02027 0.09826 0.12995 0.0
C715 C 0.95181 0.0166 0.13305 0.0
H716 H 0.98213 0.09634 0.17539 0.0
C717 C 0.97395 0.0174 0.1077 0.0
C718 C 0.99871 0.04686 0.10585 0.0
H719 H 0.93315 0.99336 0.13362 0.0
H720 H 0.97176 0.9946 0.08964 0.0
C721 C 1.00128 0.07532 0.13055 0.0
C722 C 0.26284 0.7323 0.4553 0.0
C723 C 0.29261 0.72269 0.46486 0.0
H724 H 0.23696 0.75583 0.41933 0.0
C725 C 0.32063 0.73358 0.44741 0.0
H726 H 0.24092 0.72452 0.46861 0.0
C727 C 0.3183 0.75145 0.41922 0.0
C728 C 0.28799 0.75882 0.40835 0.0
H729 H 0.3439 0.72672 0.45443 0.0
H730 H 0.33984 0.7579 0.405 0.0
C731 C 0.26057 0.75037 0.42727 0.0
C732 C 0.55011 0.97351 0.64588 0.0
C733 C 0.57822 0.99911 0.65502 0.0
H734 H 0.50854 0.95675 0.61099 0.0
C735 C 0.58695 0.02663 0.63515 0.0
H736 H 0.54288 0.95215 0.66107 0.0
C737 C 0.56773 0.02914 0.60704 0.0
C738 C 0.53921 0.00426 0.59812 0.0
H739 H 0.60855 0.04665 0.64156 0.0
H740 H 0.57498 0.05117 0.59267 0.0
C741 C 0.53045 0.97625 0.61756 0.0
C742 C 0.25021 0.32437 0.92108 0.0
C743 C 0.27947 0.33688 0.9404 0.0
H744 H 0.22775 0.30146 0.87363 0.0
C745 C 0.30938 0.33442 0.92578 0.0
H746 H 0.22677 0.32589 0.93151 0.0
C747 C 0.31005 0.32062 0.89244 0.0
C748 C 0.2808 0.30872 0.87284 0.0
H749 H 0.33243 0.34391 0.93989 0.0
H750 H 0.33356 0.31977 0.88193 0.0
C751 C 0.25084 0.31037 0.8878 0.0
C752 C 0.97165 0.00765 0.33019 0.0
C753 C 0.93972 0.01497 0.32902 0.0
H754 H 0.01066 0.99512 0.36049 0.0
C755 C 0.92184 0.01332 0.35795 0.0
H756 H 0.9859 0.0084 0.30818 0.0
C757 C 0.93587 0.00549 0.38767 0.0
C758 C 0.96804 0.99902 0.38908 0.0
H759 H 0.89707 0.01851 0.35778 0.0
H760 H 0.92177 0.00535 0.40977 0.0
C761 C 0.9857 0.99971 0.35999 0.0
C762 C 0.27489 0.73902 0.62913 0.0
C763 C 0.30285 0.72573 0.61958 0.0
H764 H 0.25353 0.76956 0.66615 0.0
C765 C 0.33226 0.73645 0.63906 0.0
H766 H 0.25199 0.73171 0.61431 0.0
C767 C 0.33296 0.75821 0.66885 0.0
C768 C 0.30434 0.76954 0.67923 0.0
H769 H 0.3542 0.72674 0.63215 0.0
H770 H 0.35523 0.76435 0.68474 0.0
C771 C 0.27567 0.76072 0.65872 0.0
C772 C 0.56049 0.9636 0.83349 0.0
C773 C 0.56296 0.99176 0.81374 0.0
H774 H 0.54522 0.94433 0.87958 0.0
C775 C 0.54643 0.01946 0.82247 0.0
H776 H 0.57276 0.94176 0.82709 0.0
C777 C 0.53058 0.02082 0.85229 0.0
C778 C 0.53116 0.99456 0.87376 0.0
H779 H 0.54753 0.04124 0.80737 0.0
H780 H 0.52003 0.04371 0.85964 0.0
C781 C 0.54466 0.96502 0.86343 0.0
C782 C 0.29252 0.34174 0.1456 0.0
C783 C 0.27 0.3329 0.11793 0.0
H784 H 0.30749 0.32995 0.19398 0.0
C785 C 0.24376 0.30463 0.11919 0.0
H786 H 0.31309 0.36321 0.14553 0.0
C787 C 0.24015 0.28583 0.1475 0.0
C788 C 0.26282 0.29471 0.17509 0.0
H789 H 0.22591 0.29713 0.09837 0.0
H790 H 0.21973 0.26422 0.1477 0.0
C791 C 0.28914 0.32277 0.17359 0.0
C792 C 0.19467 0.99033 0.99523 0.0
C793 C 0.20098 0.96937 0.0204 0.0
H794 H 0.16715 0.02816 0.97967 0.0
C795 C 0.1871 0.97413 0.0514 0.0
H796 H 0.20525 0.98746 0.97117 0.0
C797 C 0.16586 0.99801 0.0565 0.0
C798 C 0.15784 0.01722 0.03055 0.0
H799 H 0.19184 0.95862 0.0714 0.0
H800 H 0.15414 0.99974 0.08003 0.0
C801 C 0.17313 0.01389 1.00019 0.0
C802 C 0.66917 0.5646 0.96996 0.0
C803 C 0.67887 0.59127 0.99616 0.0
H804 H 0.63055 0.5245 0.94703 0.0
C805 C 0.6567 0.59621 0.02103 0.0
H806 H 0.68564 0.5601 0.95045 0.0
C807 C 0.62529 0.57541 0.01935 0.0
C808 C 0.61529 0.54956 0.99255 0.0
H809 H 0.66349 0.61646 0.04163 0.0
H810 H 0.60854 0.58039 0.03841 0.0
C811 C 0.63764 0.54417 0.96806 0.0
C812 C 0.73932 0.4279 0.30602 0.0
C813 C 0.70933 0.42831 0.2888 0.0
H814 H 0.77749 0.39888 0.31554 0.0
C815 C 0.69556 0.39911 0.26643 0.0
H816 H 0.75063 0.45002 0.32339 0.0
C817 C 0.71096 0.37001 0.26176 0.0
C818 C 0.74066 0.36915 0.27935 0.0
H819 H 0.67259 0.39855 0.25261 0.0
H820 H 0.69918 0.34793 0.24458 0.0
C821 C 0.7548 0.39864 0.30137 0.0
C822 C 0.87632 0.46791 0.48596 0.0
C823 C 0.86028 0.46125 0.51539 0.0
H824 H 0.92183 0.48414 0.46391 0.0
C825 C 0.87829 0.46784 0.54612 0.0
H826 H 0.86299 0.46295 0.4619 0.0
C827 C 0.91204 0.47997 0.54731 0.0
C828 C 0.92834 0.48542 0.51774 0.0
H829 H 0.86647 0.46287 0.56917 0.0
H830 H 0.92537 0.48427 0.57135 0.0
C831 C 0.91008 0.47976 0.4871 0.0
C832 C 0.32478 0.11072 0.29591 0.0
C833 C 0.34169 0.09997 0.26851 0.0
H834 H 0.2875 0.13818 0.31305 0.0
C835 C 0.33063 0.1045 0.23614 0.0
H836 H 0.33229 0.10667 0.32105 0.0
C837 C 0.30483 0.12243 0.23149 0.0
C838 C 0.28975 0.13575 0.2592 0.0
H839 H 0.34295 0.09578 0.21455 0.0
H840 H 0.29842 0.12813 0.20656 0.0
C841 C 0.29879 0.1282 0.29126 0.0
C842 C 0.37119 0.10234 0.47558 0.0
C843 C 0.34552 0.09602 0.49729 0.0
H844 H 0.41702 0.09028 0.46013 0.0
C845 C 0.34612 0.07029 0.51957 0.0
H846 H 0.37142 0.12182 0.45801 0.0
C847 C 0.37242 0.05215 0.52083 0.0
C848 C 0.39849 0.0593 0.49972 0.0
H849 H 0.32666 0.06475 0.53657 0.0
H850 H 0.37274 0.03322 0.53886 0.0
C851 C 0.39729 0.08416 0.47673 0.0
C852 C 0.74681 0.62582 0.32092 0.0
C853 C 0.71624 0.61523 0.30351 0.0
H854 H 0.78939 0.66628 0.33109 0.0
C855 C 0.70494 0.6383 0.2829 0.0
H856 H 0.7561 0.60856 0.33695 0.0
C857 C 0.7242 0.67084 0.27896 0.0
C858 C 0.7548 0.68148 0.29626 0.0
H859 H 0.6816 0.63076 0.2689 0.0
H860 H 0.71537 0.68734 0.26184 0.0
C861 C 0.76578 0.65884 0.31759 0.0
C862 C 0.84234 0.44054 0.81003 0.0
C863 C 0.85582 0.45397 0.78141 0.0
H864 H 0.81473 0.39657 0.83068 0.0
C865 C 0.84934 0.43377 0.75047 0.0
H866 H 0.84687 0.45573 0.83418 0.0
C867 C 0.83063 0.40006 0.74838 0.0
C868 C 0.8185 0.38592 0.7773 0.0
H869 H 0.85926 0.44372 0.728 0.0
H870 H 0.82682 0.38465 0.72432 0.0
C871 C 0.82397 0.40671 0.80803 0.0
C872 C 0.00951 0.87356 0.07805 0.0
C873 C 0.04112 0.86907 0.08819 0.0
H874 H 0.98055 0.90443 0.05272 0.0
C875 C 0.06836 0.8911 0.07726 0.0
H876 H 0.98801 0.85678 0.0859 0.0
C877 C 0.06411 0.91811 0.05788 0.0
C878 C 0.03249 0.92391 0.04922 0.0
H879 H 0.09301 0.88806 0.08436 0.0
H880 H 0.08577 0.93532 0.05091 0.0
C881 C 0.00522 0.90076 0.05884 0.0
C882 C 0.89692 0.27302 0.8396 0.0
C883 C 0.91683 0.24887 0.82926 0.0
H884 H 0.85617 0.29699 0.82758 0.0
C885 C 0.9089 0.22822 0.79858 0.0
H886 H 0.90273 0.28979 0.8628 0.0
C887 C 0.88138 0.2316 0.77876 0.0
C888 C 0.86183 0.25622 0.78899 0.0
H889 H 0.92402 0.20963 0.78988 0.0
H890 H 0.87568 0.21533 0.75528 0.0
C891 C 0.87013 0.27708 0.81943 0.0
C892 C 0.51653 0.18239 0.5748 0.0
C893 C 0.54699 0.20213 0.58664 0.0
H894 H 0.49037 0.13489 0.54902 0.0
C895 C 0.57562 0.18899 0.57927 0.0
H896 H 0.49409 0.19197 0.57989 0.0
C897 C 0.57358 0.15574 0.5618 0.0
C898 C 0.54289 0.13535 0.55107 0.0
H899 H 0.59946 0.20374 0.58819 0.0
H900 H 0.59591 0.14566 0.55756 0.0
C901 C 0.5145 0.14957 0.55703 0.0
C902 C 0.59368 0.77839 0.30145 0.0
C903 C 0.58164 0.75085 0.32047 0.0
H904 H 0.63226 0.80065 0.27154 0.0
C905 C 0.59858 0.72277 0.32175 0.0
H906 H 0.58101 0.80028 0.29998 0.0
C907 C 0.62813 0.72334 0.30609 0.0
C908 C 0.64078 0.7515 0.28812 0.0
H909 H 0.58988 0.70122 0.33627 0.0
H910 H 0.64162 0.7023 0.30891 0.0
C911 C 0.62283 0.77848 0.28503 0.0
C912 C 0.01035 0.15963 0.44634 0.0
C913 C 0.03604 0.18747 0.4573 0.0
H914 H 0.98561 0.10779 0.45285 0.0
C915 C 0.05546 0.1847 0.48591 0.0
H916 H 0.99472 0.16103 0.42461 0.0
C917 C 0.04998 0.15414 0.50245 0.0
C918 C 0.0251 0.12572 0.49057 0.0
H919 H 0.07528 0.20585 0.49513 0.0
H920 H 0.06614 0.15221 0.52362 0.0
C921 C 0.00501 0.12914 0.46269 0.0
C922 C 0.62192 0.25716 0.15942 0.0
C923 C 0.59221 0.24489 0.17368 0.0
H924 H 0.67408 0.26269 0.16274 0.0
C925 C 0.59248 0.2255 0.20142 0.0
H926 H 0.62249 0.27183 0.1378 0.0
C927 C 0.62217 0.21988 0.21551 0.0
C928 C 0.65192 0.23371 0.2021 0.0
H929 H 0.56986 0.2154 0.21267 0.0
H930 H 0.62194 0.20617 0.23773 0.0
C931 C 0.65146 0.25168 0.17352 0.0
C932 C 0.53426 0.86709 0.99815 0.0
C933 C 0.55211 0.86777 0.96919 0.0
H934 H 0.51474 0.89706 0.03716 0.0
C935 C 0.56613 0.90026 0.9586 0.0
H936 H 0.52308 0.84241 0.00681 0.0
C937 C 0.56154 0.9315 0.97613 0.0
C938 C 0.54244 0.93073 0.00418 0.0
H939 H 0.58007 0.90153 0.93639 0.0
H940 H 0.5725 0.95622 0.96741 0.0
C941 C 0.52935 0.89833 0.01542 0.0
C942 C 0.92273 0.80402 0.71355 0.0
C943 C 0.92633 0.7729 0.69461 0.0
H944 H 0.89257 0.82951 0.74622 0.0
C945 C 0.90326 0.74223 0.69692 0.0
H946 H 0.94031 0.82801 0.71235 0.0
C947 C 0.87652 0.74282 0.71683 0.0
C948 C 0.87177 0.77429 0.73445 0.0
H949 H 0.90564 0.71775 0.68295 0.0
H950 H 0.85882 0.71876 0.71711 0.0
C951 C 0.89549 0.80481 0.73303 0.0
C952 C 0.10224 0.03222 0.90764 0.0
C953 C 0.09808 0.00469 0.88187 0.0
H954 H 0.08401 0.05401 0.95219 0.0
C955 C 0.07198 0.97624 0.88291 0.0
H956 H 0.12182 0.0547 0.90749 0.0
C957 C 0.05049 0.97552 0.90914 0.0
C958 C 0.05456 0.00335 0.93466 0.0
H959 H 0.06804 0.95468 0.86334 0.0
H960 H 0.03054 0.95341 0.90928 0.0
C961 C 0.08062 0.0317 0.93346 0.0
C962 C 0.79148 0.31876 0.58521 0.0
C963 C 0.7628 0.33139 0.57723 0.0
H964 H 0.81646 0.29285 0.61995 0.0
C965 C 0.73542 0.32349 0.59643 0.0
H966 H 0.8129 0.32424 0.57064 0.0
C967 C 0.73749 0.30548 0.62459 0.0
C968 C 0.76694 0.29509 0.63386 0.0
H969 H 0.71295 0.33271 0.5907 0.0
H970 H 0.71657 0.30129 0.64002 0.0
C971 C 0.79352 0.3007 0.61333 0.0
C972 C 0.46347 0.02998 0.39404 0.0
C973 C 0.47333 0.05635 0.37321 0.0
H974 H 0.47462 0.00566 0.43682 0.0
C975 C 0.50251 0.08065 0.38137 0.0
H976 H 0.44098 0.01103 0.38843 0.0
C977 C 0.52228 0.07741 0.40949 0.0
C978 C 0.51262 0.05015 0.42962 0.0
H979 H 0.51059 0.10108 0.3654 0.0
H980 H 0.54515 0.09568 0.41516 0.0
C981 C 0.48283 0.02693 0.42184 0.0
C982 C 0.7475 0.72124 0.10867 0.0
C983 C 0.77614 0.71223 0.09545 0.0
H984 H 0.72446 0.73991 0.15191 0.0
C985 C 0.80455 0.717 0.11658 0.0
H986 H 0.72511 0.71767 0.09313 0.0
C987 C 0.80429 0.73008 0.15015 0.0
C988 C 0.77544 0.73822 0.16371 0.0
H989 H 0.82699 0.71025 0.10725 0.0
H990 H 0.82662 0.733 0.16566 0.0
C991 C 0.74707 0.73381 0.14245 0.0
C992 C 0.13012 0.02987 0.67996 0.0
C993 C 0.11225 0.0291 0.70892 0.0
H994 H 0.13042 0.03696 0.62794 0.0
C995 C 0.08045 0.03681 0.70744 0.0
H996 H 0.15478 0.02436 0.68034 0.0
C997 C 0.06659 0.04442 0.67738 0.0
C998 C 0.0843 0.0444 0.64833 0.0
H999 H 0.0662 0.03675 0.72943 0.0
H1000 H 0.04177 0.04942 0.67671 0.0
C1001 C 0.11628 0.03739 0.65 0.0
C1002 C 0.72446 0.31306 0.41141 0.0
C1003 C 0.75329 0.33764 0.42014 0.0
H1004 H 0.69927 0.27242 0.37515 0.0
C1005 C 0.77964 0.33916 0.39911 0.0
H1006 H 0.70384 0.31125 0.42728 0.0
C1007 C 0.77704 0.31705 0.3696 0.0
C1008 C 0.74819 0.2928 0.36056 0.0
H1009 H 0.8022 0.35785 0.40515 0.0
H1010 H 0.79732 0.31978 0.35345 0.0
C1011 C 0.72194 0.29074 0.38177 0.0
C1012 C 0.49304 0.08407 0.19421 0.0
C1013 C 0.48913 0.05592 0.21405 0.0
H1014 H 0.50867 0.10213 0.14775 0.0
C1015 C 0.50366 0.02676 0.20506 0.0
H1016 H 0.48227 0.10698 0.20079 0.0
C1017 C 0.51884 0.02409 0.17494 0.0
C1018 C 0.51958 0.0505 0.15342 0.0
H1019 H 0.50141 0.00493 0.2202 0.0
H1020 H 0.52781 1.00021 0.16746 0.0
C1021 C 0.50818 0.08134 0.16395 0.0
C1022 C 0.76212 0.7034 0.8848 0.0
C1023 C 0.77795 0.71775 0.91578 0.0
H1024 H 0.75171 0.71121 0.83378 0.0
C1025 C 0.79696 0.75174 0.91786 0.0
H1026 H 0.74709 0.67743 0.88224 0.0
C1027 C 0.8 0.77081 0.88979 0.0
C1028 C 0.78432 0.75638 0.8588 0.0
H1029 H 0.80948 0.76369 0.94124 0.0
H1030 H 0.81467 0.79698 0.89238 0.0
C1031 C 0.76516 0.72254 0.85676 0.0
C1032 C 0.8557 0.06339 0.99324 0.0
C1033 C 0.84937 0.07802 0.02506 0.0
H1034 H 0.88475 0.0321 0.9649 0.0
C1035 C 0.86464 0.06813 0.05333 0.0
H1036 H 0.84401 0.07035 0.97101 0.0
C1037 C 0.88737 0.04582 0.04983 0.0
C1038 C 0.89552 0.03323 0.01799 0.0
H1039 H 0.85991 0.07857 0.07816 0.0
H1040 H 0.89996 0.0401 0.0721 0.0
C1041 C 0.87873 0.04123 0.98972 0.0
C1042 C 0.38171 0.49267 0.05386 0.0
C1043 C 0.37431 0.45828 0.03789 0.0
H1044 H 0.41902 0.53839 0.06737 0.0
C1045 C 0.39899 0.44463 0.02103 0.0
H1046 H 0.36313 0.50393 0.06692 0.0
C1047 C 0.43048 0.46445 0.02067 0.0
C1048 C 0.4384 0.49828 0.0377 0.0
H1049 H 0.39403 0.4184 0.00815 0.0
H1050 H 0.44891 0.45274 0.0078 0.0
C1051 C 0.41361 0.51241 0.05402 0.0
C1052 C 0.31256 0.6182 0.73791 0.0
C1053 C 0.34315 0.61859 0.75428 0.0
H1054 H 0.27343 0.64624 0.72935 0.0
C1055 C 0.35684 0.64794 0.77648 0.0
H1056 H 0.30127 0.5959 0.72074 0.0
C1057 C 0.34085 0.67654 0.78164 0.0
C1058 C 0.31068 0.67675 0.76466 0.0
H1059 H 0.38022 0.64905 0.78971 0.0
H1060 H 0.35263 0.69886 0.79853 0.0
C1061 C 0.29651 0.64699 0.74301 0.0
C1062 C 0.18483 0.58266 0.55974 0.0
C1063 C 0.20121 0.5887 0.53042 0.0
H1064 H 0.1394 0.56485 0.58121 0.0
C1065 C 0.18412 0.57883 0.49936 0.0
H1066 H 0.19746 0.59003 0.58402 0.0
C1067 C 0.15078 0.56447 0.49767 0.0
C1068 C 0.13398 0.55989 0.52705 0.0
H1069 H 0.19625 0.58318 0.47635 0.0
H1070 H 0.13808 0.55789 0.47336 0.0
C1071 C 0.15149 0.56845 0.55808 0.0
C1072 C 0.72708 0.95035 0.78147 0.0
C1073 C 0.70941 0.94933 0.75085 0.0
H1074 H 0.76249 0.92847 0.80871 0.0
C1075 C 0.71832 0.9303 0.72251 0.0
H1076 H 0.72104 0.96543 0.80357 0.0
C1077 C 0.74229 0.90985 0.7254 0.0
C1078 C 0.75764 0.90815 0.75662 0.0
H1079 H 0.7056 0.92971 0.69847 0.0
H1080 H 0.74692 0.89314 0.70372 0.0
C1081 C 0.75121 0.92983 0.78433 0.0
C1082 C 0.68568 0.94926 0.50039 0.0
C1083 C 0.7043 0.95272 0.5307 0.0
H1084 H 0.64703 0.9654 0.47269 0.0
C1085 C 0.69792 0.97671 0.55684 0.0
H1086 H 0.69014 0.93119 0.4797 0.0
C1087 C 0.67263 0.99594 0.55301 0.0
C1088 C 0.654 0.99227 0.52264 0.0
H1089 H 0.71188 0.97994 0.58048 0.0
H1090 H 0.66749 0.01344 0.57384 0.0
C1091 C 0.66114 0.96909 0.49628 0.0
C1092 C 0.30876 0.42158 0.71804 0.0
C1093 C 0.33887 0.43282 0.73615 0.0
H1094 H 0.26706 0.38021 0.70696 0.0
C1095 C 0.35013 0.41027 0.75735 0.0
H1096 H 0.29953 0.43849 0.70159 0.0
C1097 C 0.33131 0.37749 0.76105 0.0
C1098 C 0.30127 0.36609 0.74292 0.0
H1099 H 0.37308 0.4184 0.77196 0.0
H1100 H 0.34006 0.36138 0.7786 0.0
C1101 C 0.29027 0.38828 0.72112 0.0
C1102 C 0.20543 0.61745 0.29042 0.0
C1103 C 0.20124 0.59681 0.25961 0.0
H1104 H 0.22624 0.66701 0.31698 0.0
C1105 C 0.21749 0.60959 0.23209 0.0
H1106 H 0.19336 0.60799 0.31209 0.0
C1107 C 0.23614 0.64329 0.23481 0.0
C1108 C 0.23909 0.66466 0.26518 0.0
H1109 H 0.21486 0.59406 0.20809 0.0
H1110 H 0.24745 0.65294 0.21283 0.0
C1111 C 0.22439 0.65111 0.29324 0.0
C1112 C 0.48496 0.65847 0.46045 0.0
C1113 C 0.51237 0.68241 0.45253 0.0
H1114 H 0.46715 0.61258 0.48433 0.0
C1115 C 0.54353 0.67964 0.46564 0.0
H1116 H 0.46062 0.66014 0.45096 0.0
C1117 C 0.54743 0.65222 0.48469 0.0
C1118 C 0.52018 0.62717 0.49126 0.0
H1119 H 0.56513 0.69786 0.46009 0.0
H1120 H 0.57192 0.64993 0.49313 0.0
C1121 C 0.48879 0.63128 0.47975 0.0
C1122 C 0.64894 0.32217 0.73828 0.0
C1123 C 0.63648 0.29473 0.71347 0.0
H1124 H 0.68647 0.34225 0.77691 0.0
C1125 C 0.65336 0.26669 0.70791 0.0
H1126 H 0.63638 0.34408 0.74306 0.0
C1127 C 0.68199 0.26595 0.72672 0.0
C1128 C 0.69421 0.29294 0.75192 0.0
H1129 H 0.6445 0.24526 0.68884 0.0
H1130 H 0.6943 0.24385 0.72179 0.0
C1131 C 0.67746 0.32109 0.75764 0.0
C1132 C 0.0307 0.365 0.96905 0.0
C1133 C 0.00927 0.35465 0.94076 0.0
H1134 H 0.0491 0.40547 0.00831 0.0
C1135 C 0.98775 0.37669 0.93183 0.0
H1136 H 0.04743 0.3484 0.97655 0.0
C1137 C 0.98811 0.40887 0.95045 0.0
C1138 C 0.01048 0.41991 0.97793 0.0
H1139 H 0.97076 0.36915 0.91029 0.0
H1140 H 0.97183 0.42572 0.94246 0.0
C1141 C 0.03157 0.39755 0.98725 0.0
C1142 C 0.96502 0.8159 0.23287 0.0
C1143 C 0.97575 0.78578 0.21879 0.0
H1144 H 0.92675 0.83658 0.25785 0.0
C1145 C 0.95694 0.75261 0.22218 0.0
H1146 H 0.97902 0.84182 0.23067 0.0
C1147 C 0.92716 0.74966 0.23768 0.0
C1148 C 0.91558 0.77979 0.25017 0.0
H1149 H 0.96458 0.7289 0.21172 0.0
H1150 H 0.9126 0.72377 0.23873 0.0
C1151 C 0.93515 0.81292 0.24845 0.0
C1152 C 0.49787 0.35682 0.05111 0.0
C1153 C 0.51648 0.35465 0.08045 0.0
H1154 H 0.48765 0.38894 0.01288 0.0
C1155 C 0.54117 0.38312 0.09231 0.0
H1156 H 0.47886 0.33512 0.0412 0.0
C1157 C 0.54641 0.41357 0.07603 0.0
C1158 C 0.52711 0.41641 0.04738 0.0
H1159 H 0.55623 0.38215 0.11459 0.0
H1160 H 0.56513 0.43532 0.08648 0.0
C1161 C 0.50317 0.38745 0.03467 0.0
C1162 C 0.96059 0.30546 0.33194 0.0
C1163 C 0.96241 0.29405 0.36392 0.0
H1164 H 0.92983 0.31932 0.29339 0.0
C1165 C 0.93431 0.28998 0.3826 0.0
H1166 H 0.98198 0.30918 0.31715 0.0
C1167 C 0.90463 0.29582 0.36907 0.0
C1168 C 0.90256 0.30616 0.33674 0.0
H1169 H 0.93505 0.2815 0.40743 0.0
H1170 H 0.88308 0.29129 0.38358 0.0
C1171 C 0.93089 0.31162 0.3185 0.0
C1172 C 0.99893 0.67158 0.53877 0.0
C1173 C 0.99577 0.6719 0.57334 0.0
H1174 H 0.00714 0.64199 0.49346 0.0
C1175 C 0.99616 0.6408 0.58848 0.0
H1176 H 0.9987 0.69511 0.52641 0.0
C1177 C 1.00095 0.61035 0.56954 0.0
C1178 C 0.00576 0.61065 0.53533 0.0
H1179 H 0.99353 0.64019 0.61507 0.0
H1180 H 1.0011 0.58674 0.58163 0.0
C1181 C 0.00387 0.64121 0.51994 0.0
C1182 C 0.65006 0.80011 0.84748 0.0
C1183 C 0.625 0.77053 0.84604 0.0
H1184 H 0.696 0.82323 0.83003 0.0
C1185 C 0.62711 0.74091 0.82404 0.0
H1186 H 0.64898 0.82341 0.86401 0.0
C1187 C 0.6545 0.74055 0.80467 0.0
C1188 C 0.67978 0.77013 0.80644 0.0
H1189 H 0.60805 0.71776 0.82245 0.0
H1190 H 0.65603 0.71707 0.78861 0.0
C1191 C 0.67692 0.80005 0.82772 0.0
C1192 C 0.45188 0.518 0.63372 0.0
C1193 C 0.45485 0.5461 0.65878 0.0
H1194 H 0.4715 0.49597 0.59013 0.0
C1195 C 0.48007 0.57531 0.65741 0.0
H1196 H 0.43305 0.49489 0.63425 0.0
C1197 C 0.50176 0.57634 0.63135 0.0
C1198 C 0.49884 0.54799 0.60649 0.0
H1199 H 0.48307 0.59731 0.67647 0.0
H1200 H 0.52094 0.59913 0.63082 0.0
C1201 C 0.47384 0.51874 0.60823 0.0
C1202 C 0.76767 0.24069 0.95815 0.0
C1203 C 0.79494 0.22532 0.96538 0.0
H1204 H 0.74378 0.26725 0.92304 0.0
C1205 C 0.82134 0.22909 0.94444 0.0
H1206 H 0.74708 0.23837 0.97408 0.0
C1207 C 0.81933 0.24543 0.91529 0.0
C1208 C 0.79103 0.25843 0.90684 0.0
H1209 H 0.84272 0.21769 0.94954 0.0
H1210 H 0.83927 0.24634 0.89858 0.0
C1211 C 0.76578 0.25728 0.92906 0.0
C1212 C 0.09086 0.52617 0.13829 0.0
C1213 C 0.08172 0.4986 0.15806 0.0
H1214 H 0.07878 0.5519 0.09656 0.0
C1215 C 0.05268 0.47419 0.14944 0.0
H1216 H 0.11313 0.54534 0.14429 0.0
C1217 C 0.03263 0.47812 0.12181 0.0
C1218 C 0.04178 0.50619 0.1025 0.0
H1219 H 0.04506 0.45285 0.16454 0.0
H1220 H 0.01007 0.45947 0.11565 0.0
C1221 C 0.07115 0.52991 0.11089 0.0
C1222 C 0.80648 0.82702 0.429 0.0
C1223 C 0.77987 0.84241 0.4395 0.0
H1224 H 0.82863 0.80214 0.38807 0.0
C1225 C 0.75449 0.84367 0.41593 0.0
H1226 H 0.82655 0.82592 0.44653 0.0
C1227 C 0.75542 0.82965 0.38281 0.0
C1228 C 0.78214 0.81467 0.37203 0.0
H1229 H 0.7337 0.85542 0.42314 0.0
H1230 H 0.73528 0.83104 0.36546 0.0
C1231 C 0.80779 0.81367 0.3955 0.0
C1232 C 0.46423 0.50152 0.83159 0.0
C1233 C 0.43585 0.5165 0.83108 0.0
H1234 H 0.499 0.48117 0.86124 0.0
C1235 C 0.41967 0.52078 0.86079 0.0
H1236 H 0.47698 0.49745 0.80899 0.0
C1237 C 0.43223 0.51138 0.89061 0.0
C1238 C 0.46097 0.4971 0.89126 0.0
H1239 H 0.39758 0.53192 0.86112 0.0
H1240 H 0.41984 0.51609 0.91334 0.0
C1241 C 0.47659 0.49174 0.86139 0.0
C1242 C 0.77014 0.20956 0.147 0.0
C1243 C 0.79428 0.21851 0.12426 0.0
H1244 H 0.75228 0.2211 0.19471 0.0
C1245 C 0.81791 0.24928 0.13172 0.0
H1246 H 0.75149 0.18613 0.14198 0.0
C1247 C 0.81788 0.27007 0.16209 0.0
C1248 C 0.79436 0.26008 0.18528 0.0
H1249 H 0.83663 0.25691 0.11442 0.0
H1250 H 0.83694 0.29297 0.16797 0.0
C1251 C 0.7703 0.22994 0.17714 0.0
C1252 C 0.05901 0.46777 0.33514 0.0
C1253 C 0.06665 0.49722 0.31721 0.0
H1254 H 0.04122 0.44867 0.38062 0.0
C1255 C 0.05692 0.52872 0.3288 0.0
H1256 H 0.06609 0.44312 0.32657 0.0
C1257 C 0.04312 0.5319 0.35958 0.0
C1258 C 0.03837 0.50351 0.37895 0.0
H1259 H 0.0621 0.55172 0.31528 0.0
H1260 H 0.03802 0.55722 0.36912 0.0
C1261 C 0.04473 0.47087 0.36593 0.0
C1262 C 0.7388 0.80443 0.62159 0.0
C1263 C 0.76431 0.83353 0.62079 0.0
H1264 H 0.71566 0.76308 0.64959 0.0
C1265 C 0.78598 0.84337 0.64907 0.0
H1266 H 0.72162 0.79614 0.60031 0.0
C1267 C 0.78267 0.82442 0.67707 0.0
C1268 C 0.75733 0.79524 0.67794 0.0
H1269 H 0.80591 0.86558 0.64946 0.0
H1270 H 0.80036 0.83247 0.69797 0.0
C1271 C 0.73531 0.78554 0.64988 0.0
C1272 C 0.69793 0.49208 0.55303 0.0
C1273 C 0.70718 0.48127 0.52107 0.0
H1274 H 0.66633 0.51997 0.58143 0.0
C1275 C 0.69484 0.49491 0.49324 0.0
H1276 H 0.70734 0.48222 0.57497 0.0
C1277 C 0.67185 0.51688 0.49702 0.0
C1278 C 0.6606 0.5254 0.52865 0.0
H1279 H 0.70189 0.48744 0.46836 0.0
H1280 H 0.66132 0.52532 0.47486 0.0
C1281 C 0.67473 0.51395 0.5568 0.0
C1282 C 0.15537 0.10267 0.51707 0.0
C1283 C 0.17935 0.09147 0.49715 0.0
H1284 H 0.1064 0.09157 0.53306 0.0
C1285 C 0.1718 0.05842 0.47848 0.0
H1286 H 0.16043 0.12782 0.532 0.0
C1287 C 0.14054 0.03753 0.479 0.0
C1288 C 0.11639 0.04924 0.49839 0.0
H1289 H 0.18983 0.04899 0.46302 0.0
H1290 H 0.13508 0.01259 0.46375 0.0
C1291 C 0.12438 0.08178 0.5178 0.0
C1292 C 0.1967 0.90331 0.75989 0.0
C1293 C 0.20969 0.93187 0.78331 0.0
H1294 H 0.20203 0.85351 0.73591 0.0
C1295 C 0.24019 0.93212 0.79979 0.0
H1296 H 0.17342 0.90236 0.74654 0.0
C1297 C 0.25683 0.90394 0.79361 0.0
C1298 C 0.24337 0.87493 0.77074 0.0
H1299 H 0.25096 0.95383 0.81787 0.0
H1300 H 0.27977 0.90449 0.80745 0.0
C1301 C 0.21329 0.8753 0.75366 0.0
C1302 C 0.37013 0.96667 0.03303 0.0
C1303 C 0.35553 0.94721 0.00359 0.0
H1304 H 0.41404 0.99553 0.05833 0.0
C1305 C 0.37471 0.94261 0.97612 0.0
H1306 H 0.3559 0.97052 0.05462 0.0
C1307 C 0.4081 0.95687 0.97822 0.0
C1308 C 0.42286 0.97588 0.00788 0.0
H1309 H 0.36403 0.92761 0.95315 0.0
H1310 H 0.42233 0.95269 0.95671 0.0
C1311 C 0.40349 0.98082 0.03518 0.0
C1312 C 0.83503 0.60859 0.73755 0.0
C1313 C 0.84365 0.60319 0.77041 0.0
H1314 H 0.80397 0.63142 0.70594 0.0
C1315 C 0.82402 0.61191 0.79631 0.0
H1316 H 0.84946 0.60139 0.71704 0.0
C1317 C 0.79747 0.62805 0.78982 0.0
C1318 C 0.79057 0.63628 0.75743 0.0
H1319 H 0.82967 0.60712 0.82174 0.0
H1320 H 0.7839 0.6364 0.81061 0.0
C1321 C 0.80869 0.62518 0.7311 0.0
C1322 C 0.8467 0.57128 0.0212 0.0
C1323 C 0.84717 0.59869 1.00059 0.0
H1324 H 0.87269 0.53328 0.03982 0.0
C1325 C 0.87443 0.60732 0.98128 0.0
H1326 H 0.82605 0.56396 0.03639 0.0
C1327 C 0.90084 0.58958 0.98302 0.0
C1328 C 0.90085 0.5629 0.0043 0.0
H1329 H 0.87557 0.62813 0.96504 0.0
H1330 H 0.92165 0.59738 0.96817 0.0
C1331 C 0.87335 0.55365 0.02314 0.0
C1332 C 0.24499 0.12687 0.81899 0.0
C1333 C 0.21477 0.11597 0.80096 0.0
H1334 H 0.28752 0.16738 0.82928 0.0
C1335 C 0.20423 0.13833 0.77909 0.0
H1336 H 0.25372 0.11011 0.83594 0.0
C1337 C 0.2238 0.17054 0.7747 0.0
C1338 C 0.25395 0.18157 0.79273 0.0
H1339 H 0.18122 0.13048 0.76453 0.0
H1340 H 0.21554 0.18649 0.75671 0.0
C1341 C 0.26427 0.15959 0.81516 0.0
C1342 C 0.34282 0.93952 0.30735 0.0
C1343 C 0.35594 0.95191 0.27815 0.0
H1344 H 0.31512 0.8966 0.32947 0.0
C1345 C 0.34879 0.93091 0.24771 0.0
H1346 H 0.34786 0.95535 0.33115 0.0
C1347 C 0.32972 0.89747 0.24667 0.0
C1348 C 0.31787 0.88436 0.27615 0.0
H1349 H 0.35841 0.94005 0.22481 0.0
H1350 H 0.32538 0.88145 0.22294 0.0
C1351 C 0.32408 0.90593 0.3064 0.0
C1352 C 0.51137 0.37117 0.57574 0.0
C1353 C 0.54264 0.36763 0.58793 0.0
H1354 H 0.48291 0.40197 0.54968 0.0
C1355 C 0.57006 0.39156 0.57999 0.0
H1356 H 0.48976 0.35299 0.58131 0.0
C1357 C 0.56619 0.41939 0.56154 0.0
C1358 C 0.53476 0.42414 0.55086 0.0
H1359 H 0.59448 0.38934 0.58877 0.0
H1360 H 0.58788 0.43797 0.55687 0.0
C1361 C 0.50745 0.39919 0.55749 0.0
C1362 C 0.39679 0.77159 0.33985 0.0
C1363 C 0.41531 0.74576 0.33051 0.0
H1364 H 0.35742 0.79713 0.32679 0.0
C1365 C 0.40614 0.72371 0.30082 0.0
H1366 H 0.40368 0.7895 0.36219 0.0
C1367 C 0.37868 0.7273 0.28102 0.0
C1368 C 0.3605 0.75353 0.29025 0.0
H1369 H 0.42022 0.70383 0.29288 0.0
H1370 H 0.37195 0.7099 0.25833 0.0
C1371 C 0.37014 0.77585 0.31963 0.0
C1372 C 0.01986 0.68608 0.07276 0.0
C1373 C 0.04991 0.70486 0.08681 0.0
H1374 H 0.99402 0.63889 0.04621 0.0
C1375 C 0.07836 0.69043 0.08242 0.0
H1376 H 0.9976 0.6967 0.07554 0.0
C1377 C 0.07637 0.65676 0.06588 0.0
C1378 C 0.04592 0.63725 0.05319 0.0
H1379 H 0.10188 0.70445 0.09311 0.0
H1380 H 0.09841 0.64563 0.06407 0.0
C1381 C 0.0179 0.65283 0.05594 0.0
C1382 C 0.1015 0.29543 0.81328 0.0
C1383 C 0.08339 0.26297 0.82005 0.0
H1384 H 0.14474 0.32245 0.793 0.0
C1385 C 0.09432 0.232 0.8087 0.0
H1386 H 0.09361 0.31972 0.82158 0.0
C1387 C 0.12373 0.23359 0.7925 0.0
C1388 C 0.14252 0.26615 0.78708 0.0
H1389 H 0.08086 0.20659 0.81353 0.0
H1390 H 0.13232 0.20942 0.78528 0.0
C1391 C 0.13071 0.29698 0.79682 0.0
C1392 C 0.55726 0.68242 0.98469 0.0
C1393 C 0.53722 0.68465 0.95638 0.0
H1394 H 0.56977 0.65014 0.02183 0.0
C1395 C 0.51264 0.65589 0.94504 0.0
H1396 H 0.57631 0.70431 0.99412 0.0
C1397 C 0.50872 0.62522 0.96096 0.0
C1398 C 0.52931 0.6224 0.98867 0.0
H1399 H 0.49658 0.65687 0.92352 0.0
H1400 H 0.48983 0.60341 0.95101 0.0
C1401 C 0.55334 0.65154 1.00073 0.0
C1402 C 0.09397 0.74154 0.70786 0.0
C1403 C 0.09237 0.75229 0.6756 0.0
H1404 H 0.12443 0.72824 0.74698 0.0
C1405 C 0.12053 0.75567 0.657 0.0
H1406 H 0.07252 0.73834 0.72259 0.0
C1407 C 0.15007 0.74978 0.67086 0.0
C1408 C 0.15193 0.74013 0.70347 0.0
H1409 H 0.11996 0.7636 0.63195 0.0
H1410 H 0.17168 0.75379 0.65639 0.0
C1411 C 0.12353 0.73538 0.72166 0.0
C1412 C 0.06431 0.40321 0.45362 0.0
C1413 C 0.06266 0.37116 0.46756 0.0
H1414 H 0.06234 0.45793 0.46234 0.0
C1415 C 0.05887 0.37035 0.50197 0.0
H1416 H 0.06753 0.40471 0.4272 0.0
C1417 C 0.0552 0.40065 0.52177 0.0
C1418 C 0.05528 0.43222 0.5075 0.0
H1419 H 0.05756 0.34605 0.51341 0.0
H1420 H 0.05131 0.39908 0.54806 0.0
C1421 C 0.06086 0.43355 0.47352 0.0
C1422 C 0.40463 0.23987 0.1951 0.0
C1423 C 0.42855 0.27003 0.19368 0.0
H1424 H 0.3597 0.21705 0.21483 0.0
C1425 C 0.42593 0.30087 0.21366 0.0
H1426 H 0.40623 0.2156 0.18029 0.0
C1427 C 0.3988 0.30197 0.23329 0.0
C1428 C 0.37428 0.27197 0.23389 0.0
H1429 H 0.44416 0.32447 0.21311 0.0
H1430 H 0.39659 0.3265 0.24726 0.0
C1431 C 0.37807 0.24068 0.21522 0.0
C1432 C 0.57455 0.47548 0.38517 0.0
C1433 C 0.59958 0.50475 0.38322 0.0
H1434 H 0.534 0.45196 0.41231 0.0
C1435 C 0.60259 0.53321 0.40791 0.0
H1436 H 0.57152 0.45319 0.36643 0.0
C1437 C 0.58086 0.53274 0.43362 0.0
C1438 C 0.55601 0.50347 0.43587 0.0
H1439 H 0.62131 0.55633 0.40695 0.0
H1440 H 0.58328 0.55571 0.45149 0.0
C1441 C 0.55304 0.47479 0.41137 0.0
C1442 C 0.23346 0.81658 0.09581 0.0
C1443 C 0.26146 0.8285 0.07867 0.0
H1444 H 0.21451 0.79113 0.13781 0.0
C1445 C 0.29163 0.82012 0.08864 0.0
H1446 H 0.20989 0.82252 0.08846 0.0
C1447 C 0.2942 0.80187 0.11647 0.0
C1448 C 0.26669 0.79201 0.13492 0.0
H1449 H 0.31354 0.82864 0.07557 0.0
H1450 H 0.31804 0.79712 0.1245 0.0
C1451 C 0.2361 0.79855 0.1239 0.0
C1452 C 1.00298 0.58174 0.8866 0.0
C1453 C 0.97243 0.5593 0.88023 0.0
H1454 H 0.04738 0.59437 0.91801 0.0
C1455 C 0.9622 0.53384 0.90189 0.0
H1456 H 0.01142 0.60139 0.86995 0.0
C1457 C 0.98256 0.5296 0.9285 0.0
C1458 C 0.01354 0.55098 0.9345 0.0
H1459 H 0.93874 0.51626 0.89767 0.0
H1460 H 0.97406 0.5089 0.94401 0.0
C1461 C 0.02358 0.57752 0.91371 0.0
C1462 C 0.30447 0.2161 0.61551 0.0
C1463 C 0.2765 0.21218 0.5939 0.0
H1464 H 0.3259 0.23158 0.6649 0.0
C1465 C 0.24797 0.22204 0.60657 0.0
H1466 H 0.3268 0.20866 0.60662 0.0
C1467 C 0.24721 0.23469 0.64029 0.0
C1468 C 0.27514 0.23832 0.66201 0.0
H1469 H 0.2259 0.21912 0.59063 0.0
H1470 H 0.2247 0.24153 0.64933 0.0
C1471 C 0.30389 0.22926 0.64901 0.0
C1472 C 0.58299 0.53408 0.20844 0.0
C1473 C 0.61508 0.52726 0.2101 0.0
H1474 H 0.54407 0.54604 0.17768 0.0
C1475 C 0.63319 0.52879 0.1813 0.0
H1476 H 0.56853 0.53342 0.23029 0.0
C1477 C 0.61928 0.53626 0.15131 0.0
C1478 C 0.58702 0.54248 0.14951 0.0
H1479 H 0.65807 0.52396 0.18184 0.0
H1480 H 0.63359 0.53648 0.12934 0.0
C1481 C 0.56909 0.54165 0.17842 0.0
C1482 C 0.23173 0.83738 0.88671 0.0
C1483 C 0.24049 0.82442 0.91639 0.0
H1484 H 0.22875 0.83001 0.83346 0.0
C1485 C 0.25007 0.79139 0.91493 0.0
H1486 H 0.22427 0.86269 0.88703 0.0
C1487 C 0.25247 0.77251 0.88409 0.0
C1488 C 0.24571 0.78674 0.85455 0.0
H1489 H 0.25696 0.7808 0.93751 0.0
H1490 H 0.26105 0.74777 0.88331 0.0
C1491 C 0.23452 0.8188 0.85608 0.0
C1492 C 1.00088 0.51777 0.7139 0.0
C1493 C 0.99179 0.55 0.72403 0.0
H1494 H 0.0208 0.48758 0.67554 0.0
C1495 C 1.00169 0.57894 0.70595 0.0
H1496 H 0.99397 0.49515 0.72763 0.0
C1497 C 0.01751 0.57464 0.67623 0.0
C1498 C 0.0232 0.54133 0.66441 0.0
H1499 H 0.99517 0.60415 0.71343 0.0
H1500 H 0.02269 0.5965 0.66123 0.0
C1501 C 0.01628 0.51341 0.68416 0.0
C1502 C 0.30723 0.24358 0.41166 0.0
C1503 C 0.28137 0.215 0.41323 0.0
H1504 H 0.3313 0.28312 0.38232 0.0
C1505 C 0.25961 0.20457 0.3851 0.0
H1506 H 0.32452 0.25226 0.4328 0.0
C1507 C 0.26337 0.22236 0.35636 0.0
C1508 C 0.28929 0.25081 0.35463 0.0
H1509 H 0.23939 0.18277 0.38538 0.0
H1510 H 0.24561 0.21402 0.33558 0.0
C1511 C 0.31121 0.26119 0.38267 0.0
C1512 C 0.36196 0.56019 0.5493 0.0
C1513 C 0.35189 0.57669 0.52224 0.0
H1514 H 0.3926 0.52611 0.56661 0.0
C1515 C 0.36218 0.56755 0.49028 0.0
H1516 H 0.35407 0.56635 0.57413 0.0
C1517 C 0.38396 0.54416 0.48589 0.0
C1518 C 0.3958 0.5296 0.5134 0.0
H1519 H 0.35446 0.57953 0.46887 0.0
H1520 H 0.39308 0.53926 0.46138 0.0
C1521 C 0.38372 0.53684 0.54492 0.0
C1522 C 0.89687 0.94258 0.51898 0.0
C1523 C 0.87201 0.95635 0.53541 0.0
H1524 H 0.94718 0.95048 0.50684 0.0
C1525 C 0.87943 0.9906 0.55169 0.0
H1526 H 0.89193 0.91639 0.50601 0.0
C1527 C 0.9114 0.01015 0.55246 0.0
C1528 C 0.93637 0.99594 0.53661 0.0
H1529 H 0.86076 0.00194 0.56451 0.0
H1530 H 0.9167 0.03609 0.56591 0.0
C1531 C 0.92857 0.9622 0.51937 0.0
C1532 C 0.81281 0.11619 0.23934 0.0
C1533 C 0.84316 0.11611 0.25602 0.0
H1534 H 0.77321 0.14397 0.23206 0.0
C1535 C 0.8558 0.14408 0.28017 0.0
H1536 H 0.80227 0.09488 0.22075 0.0
C1537 C 0.83913 0.17193 0.28681 0.0
C1538 C 0.80922 0.17266 0.26957 0.0
H1539 H 0.87893 0.14475 0.29372 0.0
H1540 H 0.85016 0.19334 0.30509 0.0
C1541 C 0.79598 0.14414 0.24608 0.0
C1542 C 0.6773 0.08898 0.05294 0.0
C1543 C 0.69423 0.09663 0.02422 0.0
H1544 H 0.63146 0.0696 0.07304 0.0
C1545 C 0.67742 0.08934 0.99284 0.0
H1546 H 0.68967 0.09453 0.07748 0.0
C1547 C 0.64406 0.07489 0.99026 0.0
C1548 C 0.62694 0.06796 0.01907 0.0
H1549 H 0.68995 0.0951 0.97033 0.0
H1550 H 0.63161 0.0697 0.96575 0.0
C1551 C 0.64391 0.07497 0.05041 0.0
C1552 C 0.22645 0.43349 0.23225 0.0
C1553 C 0.21054 0.44519 0.26002 0.0
H1554 H 0.26251 0.40461 0.2144 0.0
C1555 C 0.22209 0.44059 0.29221 0.0
H1556 H 0.21856 0.43749 0.20721 0.0
C1557 C 0.24748 0.42197 0.29638 0.0
C1558 C 0.26164 0.40794 0.26839 0.0
H1559 H 0.21058 0.45 0.31409 0.0
H1560 H 0.25433 0.41645 0.32126 0.0
C1561 C 0.25196 0.41521 0.23642 0.0
C1562 C 0.18951 0.4612 0.05979 0.0
C1563 C 0.20937 0.45762 0.03259 0.0
H1564 H 0.14822 0.48115 0.07898 0.0
C1565 C 0.20329 0.47393 0.00385 0.0
H1566 H 0.19355 0.44909 0.08234 0.0
C1567 C 0.17734 0.49246 1.00199 0.0
C1568 C 0.15689 0.49507 0.02882 0.0
H1569 H 0.21815 0.47175 0.98248 0.0
H1570 H 0.17273 0.5039 0.97919 0.0
C1571 C 0.16357 0.47967 0.05791 0.0
C1572 C 0.84977 0.90337 0.24116 0.0
C1573 C 0.83528 0.9328 0.23689 0.0
H1574 H 0.84218 0.84917 0.25012 0.0
C1575 C 0.80108 0.92923 0.23755 0.0
H1576 H 0.87609 0.90528 0.24078 0.0
C1577 C 0.78187 0.89718 0.24323 0.0
C1578 C 0.79644 0.86806 0.24844 0.0
H1579 H 0.78919 0.9514 0.23441 0.0
H1580 H 0.7556 0.89538 0.24411 0.0
C1581 C 0.83048 0.8713 0.24684 0.0
C1582 C 0.70196 0.11992 0.78704 0.0
C1583 C 0.69652 0.10001 0.75589 0.0
H1584 H 0.72502 0.16826 0.81432 0.0
C1585 C 0.71248 0.11293 0.72825 0.0
H1586 H 0.69016 0.11032 0.8088 0.0
C1587 C 0.73236 0.14599 0.73134 0.0
C1588 C 0.73679 0.1666 0.76218 0.0
H1589 H 0.70891 0.09793 0.70398 0.0
H1590 H 0.74353 0.15574 0.70934 0.0
C1591 C 0.7221 0.15294 0.79022 0.0
loop_
_geom_bond_atom_site_label_1
_geom_bond_atom_site_label_2
_geom_bond_distance
_geom_bond_site_symmetry_2
_ccdc_geom_bond_type
In0 O1 2.294 . S
In0 O2 2.326 . S
In0 O6 2.266 1_455 S
In0 O7 2.326 1_455 S
In0 O8 2.266 . S
In0 O9 2.326 . S
In0 O11 2.294 . S
In0 O12 2.326 . S
O1 In0 2.294 . S
O1 C10 1.240 . S
O2 In0 2.326 . S
O2 C10 1.252 . S
C3 O6 1.252 . S
C3 O7 1.260 . S
C4 O11 1.240 . S
C4 O12 1.252 . S
C5 O8 1.252 . S
C5 O9 1.260 . S
O6 In0 2.266 1_655 S
O6 C3 1.252 . S
O7 In0 2.326 1_655 S
O7 C3 1.260 . S
O8 In0 2.266 . S
O8 C5 1.252 . S
O9 In0 2.326 . S
O9 C5 1.260 . S
C10 O1 1.240 . S
C10 O2 1.252 . S
O11 In0 2.294 . S
O11 C4 1.240 . S
O12 In0 2.326 . S
O12 C4 1.252 . S
In13 O14 2.294 . S
In13 O15 2.326 . S
In13 O19 2.266 1_455 S
In13 O20 2.326 . S
In13 O21 2.266 1_455 S
In13 O22 2.326 1_455 S
In13 O24 2.294 . S
In13 O25 2.326 . S
O14 In13 2.294 . S
O14 C23 1.240 . S
O15 In13 2.326 . S
O15 C23 1.252 . S
C16 O19 1.252 . S
C16 O20 1.260 1_655 S
C17 O24 1.240 . S
C17 O25 1.252 . S
C18 O21 1.252 . S
C18 O22 1.260 . S
O19 In13 2.266 1_655 S
O19 C16 1.252 . S
O20 In13 2.326 . S
O20 C16 1.260 1_455 S
O21 In13 2.266 1_655 S
O21 C18 1.252 . S
O22 In13 2.326 1_655 S
O22 C18 1.260 . S
C23 O14 1.240 . S
C23 O15 1.252 . S
O24 In13 2.294 . S
O24 C17 1.240 . S
O25 In13 2.326 . S
O25 C17 1.252 . S
In26 O27 2.294 . S
In26 O28 2.326 . S
In26 O32 2.266 . S
In26 O33 2.326 . S
In26 O34 2.266 . S
In26 O35 2.326 . S
In26 O37 2.294 . S
In26 O38 2.326 . S
O27 In26 2.294 . S
O27 C36 1.240 . S
O28 In26 2.326 . S
O28 C36 1.252 . S
C29 O32 1.252 . S
C29 O33 1.260 . S
C30 O37 1.240 . S
C30 O38 1.252 . S
C31 O34 1.252 . S
C31 O35 1.260 . S
O32 In26 2.266 . S
O32 C29 1.252 . S
O33 In26 2.326 . S
O33 C29 1.260 . S
O34 In26 2.266 . S
O34 C31 1.252 . S
O35 In26 2.326 . S
O35 C31 1.260 . S
C36 O27 1.240 . S
C36 O28 1.252 . S
O37 In26 2.294 . S
O37 C30 1.240 . S
O38 In26 2.326 . S
O38 C30 1.252 . S
In39 O40 2.294 . S
In39 O41 2.326 . S
In39 O45 2.266 . S
In39 O46 2.326 . S
In39 O47 2.266 . S
In39 O48 2.326 . S
In39 O50 2.294 . S
In39 O51 2.326 . S
O40 In39 2.294 . S
O40 C49 1.240 . S
O41 In39 2.326 . S
O41 C49 1.252 . S
C42 O45 1.252 . S
C42 O46 1.260 . S
C43 O50 1.240 . S
C43 O51 1.252 . S
C44 O47 1.252 . S
C44 O48 1.260 . S
O45 In39 2.266 . S
O45 C42 1.252 . S
O46 In39 2.326 . S
O46 C42 1.260 . S
O47 In39 2.266 . S
O47 C44 1.252 . S
O48 In39 2.326 . S
O48 C44 1.260 . S
C49 O40 1.240 . S
C49 O41 1.252 . S
O50 In39 2.294 . S
O50 C43 1.240 . S
O51 In39 2.326 . S
O51 C43 1.252 . S
In52 O53 2.294 . S
In52 O54 2.326 . S
In52 O58 2.266 . S
In52 O59 2.326 . S
In52 O60 2.266 . S
In52 O61 2.326 . S
In52 O63 2.294 . S
In52 O64 2.326 1_455 S
O53 In52 2.294 . S
O53 C62 1.240 . S
O54 In52 2.326 . S
O54 C62 1.252 . S
C55 O58 1.252 . S
C55 O59 1.260 . S
C56 O63 1.240 1_655 S
C56 O64 1.252 . S
C57 O60 1.252 . S
C57 O61 1.260 . S
O58 In52 2.266 . S
O58 C55 1.252 . S
O59 In52 2.326 . S
O59 C55 1.260 . S
O60 In52 2.266 . S
O60 C57 1.252 . S
O61 In52 2.326 . S
O61 C57 1.260 . S
C62 O53 1.240 . S
C62 O54 1.252 . S
O63 In52 2.294 . S
O63 C56 1.240 1_455 S
O64 In52 2.326 1_655 S
O64 C56 1.252 . S
In65 O66 2.294 . S
In65 O67 2.326 . S
In65 O71 2.266 . S
In65 O72 2.326 . S
In65 O73 2.266 . S
In65 O74 2.326 . S
In65 O76 2.294 . S
In65 O77 2.326 . S
O66 In65 2.294 . S
O66 C75 1.240 . S
O67 In65 2.326 . S
O67 C75 1.252 . S
C68 O71 1.252 . S
C68 O72 1.260 . S
C69 O76 1.240 . S
C69 O77 1.252 . S
C70 O73 1.252 . S
C70 O74 1.260 . S
O71 In65 2.266 . S
O71 C68 1.252 . S
O72 In65 2.326 . S
O72 C68 1.260 . S
O73 In65 2.266 . S
O73 C70 1.252 . S
O74 In65 2.326 . S
O74 C70 1.260 . S
C75 O66 1.240 . S
C75 O67 1.252 . S
O76 In65 2.294 . S
O76 C69 1.240 . S
O77 In65 2.326 . S
O77 C69 1.252 . S
In78 O79 2.294 . S
In78 O80 2.326 . S
In78 O84 2.266 . S
In78 O85 2.326 . S
In78 O86 2.266 . S
In78 O87 2.326 . S
In78 O89 2.294 . S
In78 O90 2.326 . S
O79 In78 2.294 . S
O79 C88 1.240 . S
O80 In78 2.326 . S
O80 C88 1.252 . S
C81 O84 1.252 . S
C81 O85 1.260 . S
C82 O89 1.240 . S
C82 O90 1.252 . S
C83 O86 1.252 . S
C83 O87 1.260 . S
O84 In78 2.266 . S
O84 C81 1.252 . S
O85 In78 2.326 . S
O85 C81 1.260 . S
O86 In78 2.266 . S
O86 C83 1.252 . S
O87 In78 2.326 . S
O87 C83 1.260 . S
C88 O79 1.240 . S
C88 O80 1.252 . S
O89 In78 2.294 . S
O89 C82 1.240 . S
O90 In78 2.326 . S
O90 C82 1.252 . S
In91 O92 2.294 . S
In91 O93 2.326 . S
In91 O97 2.266 . S
In91 O98 2.326 . S
In91 O99 2.266 1_455 S
In91 O100 2.326 1_455 S
In91 O102 2.294 . S
In91 O103 2.326 . S
O92 In91 2.294 . S
O92 C101 1.240 . S
O93 In91 2.326 . S
O93 C101 1.252 . S
C94 O97 1.252 . S
C94 O98 1.260 . S
C95 O102 1.240 . S
C95 O103 1.252 . S
C96 O99 1.252 . S
C96 O100 1.260 . S
O97 In91 2.266 . S
O97 C94 1.252 . S
O98 In91 2.326 . S
O98 C94 1.260 . S
O99 In91 2.266 1_655 S
O99 C96 1.252 . S
O100 In91 2.326 1_655 S
O100 C96 1.260 . S
C101 O92 1.240 . S
C101 O93 1.252 . S
O102 In91 2.294 . S
O102 C95 1.240 . S
O103 In91 2.326 . S
O103 C95 1.252 . S
In104 O105 2.294 . S
In104 O106 2.326 . S
In104 O110 2.266 . S
In104 O111 2.326 . S
In104 O112 2.266 1_545 S
In104 O113 2.326 1_545 S
In104 O115 2.294 . S
In104 O116 2.326 . S
O105 In104 2.294 . S
O105 C114 1.240 . S
O106 In104 2.326 . S
O106 C114 1.252 . S
C107 O110 1.252 . S
C107 O111 1.260 . S
C108 O115 1.240 . S
C108 O116 1.252 . S
C109 O112 1.252 . S
C109 O113 1.260 . S
O110 In104 2.266 . S
O110 C107 1.252 . S
O111 In104 2.326 . S
O111 C107 1.260 . S
O112 In104 2.266 1_565 S
O112 C109 1.252 . S
O113 In104 2.326 1_565 S
O113 C109 1.260 . S
C114 O105 1.240 . S
C114 O106 1.252 . S
O115 In104 2.294 . S
O115 C108 1.240 . S
O116 In104 2.326 . S
O116 C108 1.252 . S
In117 O118 2.294 . S
In117 O119 2.326 . S
In117 O123 2.266 . S
In117 O124 2.326 . S
In117 O125 2.266 . S
In117 O126 2.326 . S
In117 O128 2.294 . S
In117 O129 2.326 . S
O118 In117 2.294 . S
O118 C127 1.240 . S
O119 In117 2.326 . S
O119 C127 1.252 . S
C120 O123 1.252 . S
C120 O124 1.260 . S
C121 O128 1.240 . S
C121 O129 1.252 . S
C122 O125 1.252 . S
C122 O126 1.260 . S
O123 In117 2.266 . S
O123 C120 1.252 . S
O124 In117 2.326 . S
O124 C120 1.260 . S
O125 In117 2.266 . S
O125 C122 1.252 . S
O126 In117 2.326 . S
O126 C122 1.260 . S
C127 O118 1.240 . S
C127 O119 1.252 . S
O128 In117 2.294 . S
O128 C121 1.240 . S
O129 In117 2.326 . S
O129 C121 1.252 . S
In130 O131 2.293 1_545 S
In130 O132 2.325 1_545 S
In130 O136 2.271 . S
In130 O137 2.326 . S
In130 O138 2.287 . S
In130 O139 2.360 . S
In130 O141 2.270 1_545 S
In130 O142 2.292 1_545 S
O131 In130 2.293 1_565 S
O131 C140 1.240 . S
O132 In130 2.325 1_565 S
O132 C140 1.252 . S
C133 O136 1.252 . S
C133 O137 1.260 . S
C134 O141 1.240 . S
C134 O142 1.252 . S
C135 O138 1.252 . S
C135 O139 1.260 . S
O136 In130 2.271 . S
O136 C133 1.252 . S
O137 In130 2.326 . S
O137 C133 1.260 . S
O138 In130 2.287 . S
O138 C135 1.252 . S
O139 In130 2.360 . S
O139 C135 1.260 . S
C140 O131 1.240 . S
C140 O132 1.252 . S
O141 In130 2.270 1_565 S
O141 C134 1.240 . S
O142 In130 2.292 1_565 S
O142 C134 1.252 . S
In143 O144 2.294 . S
In143 O145 2.326 . S
In143 O149 2.266 1_554 S
In143 O150 2.326 1_554 S
In143 O151 2.266 . S
In143 O152 2.326 . S
In143 O154 2.294 . S
In143 O155 2.326 . S
O144 In143 2.294 . S
O144 C153 1.240 . S
O145 In143 2.326 . S
O145 C153 1.252 . S
C146 O149 1.252 . S
C146 O150 1.260 . S
C147 O154 1.240 . S
C147 O155 1.252 . S
C148 O151 1.252 . S
C148 O152 1.260 . S
O149 In143 2.266 1_556 S
O149 C146 1.252 . S
O150 In143 2.326 1_556 S
O150 C146 1.260 . S
O151 In143 2.266 . S
O151 C148 1.252 . S
O152 In143 2.326 . S
O152 C148 1.260 . S
C153 O144 1.240 . S
C153 O145 1.252 . S
O154 In143 2.294 . S
O154 C147 1.240 . S
O155 In143 2.326 . S
O155 C147 1.252 . S
In156 O157 2.294 . S
In156 O158 2.326 . S
In156 O162 2.266 1_554 S
In156 O163 2.326 1_554 S
In156 O164 2.266 . S
In156 O165 2.326 . S
In156 O167 2.294 . S
In156 O168 2.326 . S
O157 In156 2.294 . S
O157 C166 1.240 . S
O158 In156 2.326 . S
O158 C166 1.252 . S
C159 O162 1.252 . S
C159 O163 1.260 . S
C160 O167 1.240 . S
C160 O168 1.252 . S
C161 O164 1.252 . S
C161 O165 1.260 . S
O162 In156 2.266 1_556 S
O162 C159 1.252 . S
O163 In156 2.326 1_556 S
O163 C159 1.260 . S
O164 In156 2.266 . S
O164 C161 1.252 . S
O165 In156 2.326 . S
O165 C161 1.260 . S
C166 O157 1.240 . S
C166 O158 1.252 . S
O167 In156 2.294 . S
O167 C160 1.240 . S
O168 In156 2.326 . S
O168 C160 1.252 . S
In169 O170 2.294 . S
In169 O171 2.326 . S
In169 O175 2.263 1_554 S
In169 O176 2.326 . S
In169 O177 2.266 1_554 S
In169 O178 2.326 1_554 S
In169 O180 2.294 . S
In169 O181 2.326 . S
O170 In169 2.294 . S
O170 C179 1.240 . S
O171 In169 2.326 . S
O171 C179 1.252 . S
C172 O175 1.252 1_554 S
C172 O176 1.262 . S
C173 O180 1.240 . S
C173 O181 1.252 . S
C174 O177 1.252 . S
C174 O178 1.260 . S
O175 In169 2.263 1_556 S
O175 C172 1.252 1_556 S
O176 In169 2.326 . S
O176 C172 1.262 . S
O177 In169 2.266 1_556 S
O177 C174 1.252 . S
O178 In169 2.326 1_556 S
O178 C174 1.260 . S
C179 O170 1.240 . S
C179 O171 1.252 . S
O180 In169 2.294 . S
O180 C173 1.240 . S
O181 In169 2.326 . S
O181 C173 1.252 . S
In182 O183 2.294 . S
In182 O184 2.326 . S
In182 O188 2.266 . S
In182 O189 2.326 . S
In182 O190 2.266 . S
In182 O191 2.326 . S
In182 O193 2.294 . S
In182 O194 2.326 . S
O183 In182 2.294 . S
O183 C192 1.240 . S
O184 In182 2.326 . S
O184 C192 1.252 . S
C185 O188 1.252 . S
C185 O189 1.260 . S
C186 O193 1.240 . S
C186 O194 1.252 . S
C187 O190 1.252 . S
C187 O191 1.260 . S
O188 In182 2.266 . S
O188 C185 1.252 . S
O189 In182 2.326 . S
O189 C185 1.260 . S
O190 In182 2.266 . S
O190 C187 1.252 . S
O191 In182 2.326 . S
O191 C187 1.260 . S
C192 O183 1.240 . S
C192 O184 1.252 . S
O193 In182 2.294 . S
O193 C186 1.240 . S
O194 In182 2.326 . S
O194 C186 1.252 . S
In195 O196 2.294 . S
In195 O197 2.326 . S
In195 O201 2.266 . S
In195 O202 2.326 . S
In195 O203 2.266 . S
In195 O204 2.326 . S
In195 O206 2.294 . S
In195 O207 2.326 . S
O196 In195 2.294 . S
O196 C205 1.240 . S
O197 In195 2.326 . S
O197 C205 1.252 . S
C198 O201 1.252 . S
C198 O202 1.260 . S
C199 O206 1.240 . S
C199 O207 1.252 . S
C200 O203 1.252 . S
C200 O204 1.260 . S
O201 In195 2.266 . S
O201 C198 1.252 . S
O202 In195 2.326 . S
O202 C198 1.260 . S
O203 In195 2.266 . S
O203 C200 1.252 . S
O204 In195 2.326 . S
O204 C200 1.260 . S
C205 O196 1.240 . S
C205 O197 1.252 . S
O206 In195 2.294 . S
O206 C199 1.240 . S
O207 In195 2.326 . S
O207 C199 1.252 . S
In208 O209 2.294 . S
In208 O210 2.326 . S
In208 O214 2.266 . S
In208 O215 2.326 . S
In208 O216 2.266 . S
In208 O217 2.326 1_545 S
In208 O219 2.294 . S
In208 O220 2.326 . S
O209 In208 2.294 . S
O209 C218 1.240 . S
O210 In208 2.326 . S
O210 C218 1.252 . S
C211 O214 1.252 . S
C211 O215 1.260 . S
C212 O219 1.240 . S
C212 O220 1.252 . S
C213 O216 1.252 1_565 S
C213 O217 1.260 . S
O214 In208 2.266 . S
O214 C211 1.252 . S
O215 In208 2.326 . S
O215 C211 1.260 . S
O216 In208 2.266 . S
O216 C213 1.252 1_545 S
O217 In208 2.326 1_565 S
O217 C213 1.260 . S
C218 O209 1.240 . S
C218 O210 1.252 . S
O219 In208 2.294 . S
O219 C212 1.240 . S
O220 In208 2.326 . S
O220 C212 1.252 . S
In221 O222 2.294 . S
In221 O223 2.326 . S
In221 O227 2.266 . S
In221 O228 2.326 . S
In221 O229 2.266 . S
In221 O230 2.326 . S
In221 O232 2.294 . S
In221 O233 2.326 . S
O222 In221 2.294 . S
O222 C231 1.240 . S
O223 In221 2.326 . S
O223 C231 1.252 . S
C224 O227 1.252 . S
C224 O228 1.260 . S
C225 O232 1.240 . S
C225 O233 1.252 . S
C226 O229 1.252 . S
C226 O230 1.260 . S
O227 In221 2.266 . S
O227 C224 1.252 . S
O228 In221 2.326 . S
O228 C224 1.260 . S
O229 In221 2.266 . S
O229 C226 1.252 . S
O230 In221 2.326 . S
O230 C226 1.260 . S
C231 O222 1.240 . S
C231 O223 1.252 . S
O232 In221 2.294 . S
O232 C225 1.240 . S
O233 In221 2.326 . S
O233 C225 1.252 . S
In234 O235 2.294 . S
In234 O236 2.326 . S
In234 O240 2.266 . S
In234 O241 2.326 . S
In234 O242 2.266 . S
In234 O243 2.326 . S
In234 O245 2.294 . S
In234 O246 2.326 . S
O235 In234 2.294 . S
O235 C244 1.240 . S
O236 In234 2.326 . S
O236 C244 1.252 . S
C237 O240 1.252 . S
C237 O241 1.260 . S
C238 O245 1.240 . S
C238 O246 1.252 . S
C239 O242 1.252 . S
C239 O243 1.260 . S
O240 In234 2.266 . S
O240 C237 1.252 . S
O241 In234 2.326 . S
O241 C237 1.260 . S
O242 In234 2.266 . S
O242 C239 1.252 . S
O243 In234 2.326 . S
O243 C239 1.260 . S
C244 O235 1.240 . S
C244 O236 1.252 . S
O245 In234 2.294 . S
O245 C238 1.240 . S
O246 In234 2.326 . S
O246 C238 1.252 . S
In247 O248 2.294 1_545 S
In247 O249 2.326 1_545 S
In247 O253 2.266 . S
In247 O254 2.326 . S
In247 O255 2.266 . S
In247 O256 2.326 . S
In247 O258 2.294 . S
In247 O259 2.326 . S
O248 In247 2.294 1_565 S
O248 C257 1.240 . S
O249 In247 2.326 1_565 S
O249 C257 1.252 . S
C250 O253 1.252 . S
C250 O254 1.260 . S
C251 O258 1.240 . S
C251 O259 1.252 . S
C252 O255 1.252 . S
C252 O256 1.260 . S
O253 In247 2.266 . S
O253 C250 1.252 . S
O254 In247 2.326 . S
O254 C250 1.260 . S
O255 In247 2.266 . S
O255 C252 1.252 . S
O256 In247 2.326 . S
O256 C252 1.260 . S
C257 O248 1.240 . S
C257 O249 1.252 . S
O258 In247 2.294 . S
O258 C251 1.240 . S
O259 In247 2.326 . S
O259 C251 1.252 . S
In260 O261 2.294 . S
In260 O262 2.326 . S
In260 O266 2.266 1_554 S
In260 O267 2.326 . S
In260 O268 2.266 1_554 S
In260 O269 2.326 1_554 S
In260 O271 2.294 . S
In260 O272 2.326 . S
O261 In260 2.294 . S
O261 C270 1.240 . S
O262 In260 2.326 . S
O262 C270 1.252 . S
C263 O266 1.252 . S
C263 O267 1.260 1_556 S
C264 O271 1.240 . S
C264 O272 1.252 . S
C265 O268 1.252 . S
C265 O269 1.260 . S
O266 In260 2.266 1_556 S
O266 C263 1.252 . S
O267 In260 2.326 . S
O267 C263 1.260 1_554 S
O268 In260 2.266 1_556 S
O268 C265 1.252 . S
O269 In260 2.326 1_556 S
O269 C265 1.260 . S
C270 O261 1.240 . S
C270 O262 1.252 . S
O271 In260 2.294 . S
O271 C264 1.240 . S
O272 In260 2.326 . S
O272 C264 1.252 . S
In273 O274 2.294 . S
In273 O275 2.326 . S
In273 O279 2.266 . S
In273 O280 2.326 . S
In273 O281 2.266 . S
In273 O282 2.326 . S
In273 O284 2.294 . S
In273 O285 2.326 . S
O274 In273 2.294 . S
O274 C283 1.240 . S
O275 In273 2.326 . S
O275 C283 1.252 . S
C276 O279 1.252 . S
C276 O280 1.260 . S
C277 O284 1.240 . S
C277 O285 1.252 . S
C278 O281 1.252 . S
C278 O282 1.260 . S
O279 In273 2.266 . S
O279 C276 1.252 . S
O280 In273 2.326 . S
O280 C276 1.260 . S
O281 In273 2.266 . S
O281 C278 1.252 . S
O282 In273 2.326 . S
O282 C278 1.260 . S
C283 O274 1.240 . S
C283 O275 1.252 . S
O284 In273 2.294 . S
O284 C277 1.240 . S
O285 In273 2.326 . S
O285 C277 1.252 . S
In286 O287 2.294 . S
In286 O288 2.326 . S
In286 O292 2.266 . S
In286 O293 2.326 . S
In286 O294 2.266 . S
In286 O295 2.326 . S
In286 O297 2.294 . S
In286 O298 2.326 . S
O287 In286 2.294 . S
O287 C296 1.240 . S
O288 In286 2.326 . S
O288 C296 1.252 . S
C289 O292 1.252 . S
C289 O293 1.260 . S
C290 O297 1.240 . S
C290 O298 1.252 . S
C291 O294 1.252 . S
C291 O295 1.260 . S
O292 In286 2.266 . S
O292 C289 1.252 . S
O293 In286 2.326 . S
O293 C289 1.260 . S
O294 In286 2.266 . S
O294 C291 1.252 . S
O295 In286 2.326 . S
O295 C291 1.260 . S
C296 O287 1.240 . S
C296 O288 1.252 . S
O297 In286 2.294 . S
O297 C290 1.240 . S
O298 In286 2.326 . S
O298 C290 1.252 . S
In299 O300 2.294 . S
In299 O301 2.326 . S
In299 O305 2.266 . S
In299 O306 2.326 . S
In299 O307 2.266 . S
In299 O308 2.326 . S
In299 O310 2.294 . S
In299 O311 2.326 . S
O300 In299 2.294 . S
O300 C309 1.240 . S
O301 In299 2.326 . S
O301 C309 1.252 . S
C302 O305 1.252 . S
C302 O306 1.260 . S
C303 O310 1.240 . S
C303 O311 1.252 . S
C304 O307 1.252 . S
C304 O308 1.260 . S
O305 In299 2.266 . S
O305 C302 1.252 . S
O306 In299 2.326 . S
O306 C302 1.260 . S
O307 In299 2.266 . S
O307 C304 1.252 . S
O308 In299 2.326 . S
O308 C304 1.260 . S
C309 O300 1.240 . S
C309 O301 1.252 . S
O310 In299 2.294 . S
O310 C303 1.240 . S
O311 In299 2.326 . S
O311 C303 1.252 . S
Dy312 O316 2.398 1_554 S
Dy312 O317 2.491 . S
Dy312 O318 2.403 1_654 S
Dy312 O319 2.664 1_654 S
Dy312 O323 2.326 1_654 S
Dy312 O327 2.310 1_655 S
Dy312 O328 2.351 1_645 S
C313 O324 1.185 . S
C313 O325 1.355 . S
C314 O316 1.185 . S
C314 O317 1.355 1_556 S
Dy315 O319 2.310 1_554 S
Dy315 O322 2.351 . S
Dy315 O324 2.398 . S
Dy315 O325 2.491 . S
Dy315 O326 2.403 . S
Dy315 O327 2.664 . S
Dy315 O329 2.326 1_545 S
O316 Dy312 2.398 1_556 S
O316 C314 1.185 . S
O317 Dy312 2.491 . S
O317 C314 1.355 1_554 S
O318 Dy312 2.403 1_456 S
O318 C320 1.254 . S
O319 Dy312 2.664 1_456 S
O319 Dy315 2.310 1_556 S
O319 C320 1.268 . S
C320 O318 1.254 . S
C320 O319 1.268 . S
C321 O326 1.254 . S
C321 O327 1.268 . S
O322 Dy315 2.351 . S
O322 C330 1.249 . S
O323 Dy312 2.326 1_456 S
O323 C330 1.267 1_556 S
O324 C313 1.185 . S
O324 Dy315 2.398 . S
O325 C313 1.355 . S
O325 Dy315 2.491 . S
O326 Dy315 2.403 . S
O326 C321 1.254 . S
O327 Dy312 2.310 1_455 S
O327 Dy315 2.664 . S
O327 C321 1.268 . S
O328 Dy312 2.351 1_465 S
O328 C331 1.249 . S
O329 Dy315 2.326 1_565 S
O329 C331 1.267 . S
C330 O322 1.249 . S
C330 O323 1.267 1_554 S
C331 O328 1.249 . S
C331 O329 1.267 . S
Dy332 O336 2.398 . S
Dy332 O337 2.491 . S
Dy332 O338 2.403 . S
Dy332 O339 2.664 . S
Dy332 O343 2.326 . S
Dy332 O347 2.310 . S
Dy332 O348 2.351 . S
C333 O344 1.185 . S
C333 O345 1.355 . S
C334 O336 1.185 . S
C334 O337 1.355 . S
Dy335 O339 2.310 . S
Dy335 O342 2.351 . S
Dy335 O344 2.398 . S
Dy335 O345 2.491 . S
Dy335 O346 2.403 . S
Dy335 O347 2.664 . S
Dy335 O349 2.326 . S
O336 Dy332 2.398 . S
O336 C334 1.185 . S
O337 Dy332 2.491 . S
O337 C334 1.355 . S
O338 Dy332 2.403 . S
O338 C340 1.254 . S
O339 Dy332 2.664 . S
O339 Dy335 2.310 . S
O339 C340 1.268 . S
C340 O338 1.254 . S
C340 O339 1.268 . S
C341 O346 1.254 . S
C341 O347 1.268 . S
O342 Dy335 2.351 . S
O342 C350 1.249 . S
O343 Dy332 2.326 . S
O343 C350 1.267 . S
O344 C333 1.185 . S
O344 Dy335 2.398 . S
O345 C333 1.355 . S
O345 Dy335 2.491 . S
O346 Dy335 2.403 . S
O346 C341 1.254 . S
O347 Dy332 2.310 . S
O347 Dy335 2.664 . S
O347 C341 1.268 . S
O348 Dy332 2.351 . S
O348 C351 1.249 . S
O349 Dy335 2.326 . S
O349 C351 1.267 . S
C350 O342 1.249 . S
C350 O343 1.267 . S
C351 O348 1.249 . S
C351 O349 1.267 . S
Dy352 O356 2.398 1_545 S
Dy352 O357 2.491 1_545 S
Dy352 O358 2.403 . S
Dy352 O359 2.664 . S
Dy352 O363 2.326 1_545 S
Dy352 O367 2.310 . S
Dy352 O368 2.351 . S
C353 O364 1.185 . S
C353 O365 1.355 . S
C354 O356 1.185 . S
C354 O357 1.355 . S
Dy355 O359 2.310 . S
Dy355 O362 2.351 1_545 S
Dy355 O364 2.398 . S
Dy355 O365 2.491 . S
Dy355 O366 2.403 . S
Dy355 O367 2.664 . S
Dy355 O369 2.326 . S
O356 Dy352 2.398 1_565 S
O356 C354 1.185 . S
O357 Dy352 2.491 1_565 S
O357 C354 1.355 . S
O358 Dy352 2.403 . S
O358 C360 1.254 . S
O359 Dy352 2.664 . S
O359 Dy355 2.310 . S
O359 C360 1.268 . S
C360 O358 1.254 . S
C360 O359 1.268 . S
C361 O366 1.259 . S
C361 O367 1.270 . S
O362 Dy355 2.351 1_565 S
O362 C370 1.249 . S
O363 Dy352 2.326 1_565 S
O363 C370 1.267 . S
O364 C353 1.185 . S
O364 Dy355 2.398 . S
O365 C353 1.355 . S
O365 Dy355 2.491 . S
O366 Dy355 2.403 . S
O366 C361 1.259 . S
O367 Dy352 2.310 . S
O367 Dy355 2.664 . S
O367 C361 1.270 . S
O368 Dy352 2.351 . S
O368 C371 1.249 . S
O369 Dy355 2.326 . S
O369 C371 1.267 . S
C370 O362 1.249 . S
C370 O363 1.267 . S
C371 O368 1.249 . S
C371 O369 1.267 . S
Dy372 O376 2.398 . S
Dy372 O377 2.491 . S
Dy372 O378 2.403 . S
Dy372 O379 2.664 . S
Dy372 O383 2.326 . S
Dy372 O387 2.310 . S
Dy372 O388 2.351 . S
C373 O384 1.185 . S
C373 O385 1.355 . S
C374 O376 1.185 . S
C374 O377 1.355 . S
Dy375 O379 2.310 . S
Dy375 O382 2.351 . S
Dy375 O384 2.398 . S
Dy375 O385 2.491 . S
Dy375 O386 2.403 . S
Dy375 O387 2.664 . S
Dy375 O389 2.326 . S
O376 Dy372 2.398 . S
O376 C374 1.185 . S
O377 Dy372 2.491 . S
O377 C374 1.355 . S
O378 Dy372 2.403 . S
O378 C380 1.254 . S
O379 Dy372 2.664 . S
O379 Dy375 2.310 . S
O379 C380 1.268 . S
C380 O378 1.254 . S
C380 O379 1.268 . S
C381 O386 1.254 . S
C381 O387 1.268 . S
O382 Dy375 2.351 . S
O382 C390 1.249 . S
O383 Dy372 2.326 . S
O383 C390 1.267 . S
O384 C373 1.185 . S
O384 Dy375 2.398 . S
O385 C373 1.355 . S
O385 Dy375 2.491 . S
O386 Dy375 2.403 . S
O386 C381 1.254 . S
O387 Dy372 2.310 . S
O387 Dy375 2.664 . S
O387 C381 1.268 . S
O388 Dy372 2.351 . S
O388 C391 1.249 . S
O389 Dy375 2.326 . S
O389 C391 1.267 . S
C390 O382 1.249 . S
C390 O383 1.267 . S
C391 O388 1.249 . S
C391 O389 1.267 . S
Dy392 O396 2.398 1_565 S
Dy392 O397 2.491 1_465 S
Dy392 O398 2.403 1_565 S
Dy392 O399 2.664 1_565 S
Dy392 O403 2.326 1_565 S
Dy392 O407 2.309 1_455 S
Dy392 O408 2.351 . S
C393 O404 1.185 . S
C393 O405 1.355 . S
C394 O396 1.185 . S
C394 O397 1.355 1_455 S
Dy395 O399 2.310 . S
Dy395 O402 2.351 . S
Dy395 O404 2.398 . S
Dy395 O405 2.491 . S
Dy395 O406 2.403 1_455 S
Dy395 O407 2.665 1_445 S
Dy395 O409 2.326 1_545 S
O396 Dy392 2.398 1_545 S
O396 C394 1.185 . S
O397 Dy392 2.491 1_645 S
O397 C394 1.355 1_655 S
O398 Dy392 2.403 1_545 S
O398 C400 1.254 . S
O399 Dy392 2.664 1_545 S
O399 Dy395 2.310 . S
O399 C400 1.268 . S
C400 O398 1.254 . S
C400 O399 1.268 . S
C401 O406 1.254 1_565 S
C401 O407 1.268 . S
O402 Dy395 2.351 . S
O402 C410 1.249 . S
O403 Dy392 2.326 1_545 S
O403 C410 1.267 . S
O404 C393 1.185 . S
O404 Dy395 2.398 . S
O405 C393 1.355 . S
O405 Dy395 2.491 . S
O406 Dy395 2.403 1_655 S
O406 C401 1.254 1_545 S
O407 Dy392 2.309 1_655 S
O407 Dy395 2.665 1_665 S
O407 C401 1.268 . S
O408 Dy392 2.351 . S
O408 C411 1.249 . S
O409 Dy395 2.326 1_565 S
O409 C411 1.267 . S
C410 O402 1.249 . S
C410 O403 1.267 . S
C411 O408 1.249 . S
C411 O409 1.267 . S
Dy412 O416 2.398 . S
Dy412 O417 2.491 . S
Dy412 O418 2.403 . S
Dy412 O419 2.664 . S
Dy412 O423 2.326 . S
Dy412 O427 2.310 . S
Dy412 O428 2.351 . S
C413 O424 1.185 . S
C413 O425 1.355 . S
C414 O416 1.185 . S
C414 O417 1.355 . S
Dy415 O419 2.310 . S
Dy415 O422 2.351 . S
Dy415 O424 2.398 . S
Dy415 O425 2.491 . S
Dy415 O426 2.403 . S
Dy415 O427 2.664 . S
Dy415 O429 2.326 . S
O416 Dy412 2.398 . S
O416 C414 1.185 . S
O417 Dy412 2.491 . S
O417 C414 1.355 . S
O418 Dy412 2.403 . S
O418 C420 1.254 . S
O419 Dy412 2.664 . S
O419 Dy415 2.310 . S
O419 C420 1.268 . S
C420 O418 1.254 . S
C420 O419 1.268 . S
C421 O426 1.254 . S
C421 O427 1.268 . S
O422 Dy415 2.351 . S
O422 C430 1.249 . S
O423 Dy412 2.326 . S
O423 C430 1.267 . S
O424 C413 1.185 . S
O424 Dy415 2.398 . S
O425 C413 1.355 . S
O425 Dy415 2.491 . S
O426 Dy415 2.403 . S
O426 C421 1.254 . S
O427 Dy412 2.310 . S
O427 Dy415 2.664 . S
O427 C421 1.268 . S
O428 Dy412 2.351 . S
O428 C431 1.249 . S
O429 Dy415 2.326 . S
O429 C431 1.267 . S
C430 O422 1.249 . S
C430 O423 1.267 . S
C431 O428 1.249 . S
C431 O429 1.267 . S
Dy432 O436 2.398 1_545 S
Dy432 O437 2.491 . S
Dy432 O438 2.403 1_545 S
Dy432 O439 2.664 1_544 S
Dy432 O443 2.326 1_545 S
Dy432 O447 2.310 . S
Dy432 O448 2.351 . S
C433 O444 1.185 . S
C433 O445 1.355 . S
C434 O436 1.185 1_545 S
C434 O437 1.355 . S
Dy435 O439 2.310 1_545 S
Dy435 O442 2.351 . S
Dy435 O444 2.398 . S
Dy435 O445 2.491 . S
Dy435 O446 2.403 . S
Dy435 O447 2.664 1_556 S
Dy435 O449 2.326 . S
O436 Dy432 2.398 1_565 S
O436 C434 1.185 1_565 S
O437 Dy432 2.491 . S
O437 C434 1.355 . S
O438 Dy432 2.403 1_565 S
O438 C440 1.254 1_554 S
O439 Dy432 2.664 1_566 S
O439 Dy435 2.310 1_565 S
O439 C440 1.268 . S
C440 O438 1.254 1_556 S
C440 O439 1.268 . S
C441 O446 1.254 1_554 S
C441 O447 1.268 . S
O442 Dy435 2.351 . S
O442 C450 1.249 1_556 S
O443 Dy432 2.326 1_565 S
O443 C450 1.267 1_565 S
O444 C433 1.185 . S
O444 Dy435 2.398 . S
O445 C433 1.355 . S
O445 Dy435 2.491 . S
O446 Dy435 2.403 . S
O446 C441 1.254 1_556 S
O447 Dy432 2.310 . S
O447 Dy435 2.664 1_554 S
O447 C441 1.268 . S
O448 Dy432 2.351 . S
O448 C451 1.249 . S
O449 Dy435 2.326 . S
O449 C451 1.267 1_556 S
C450 O442 1.249 1_554 S
C450 O443 1.267 1_545 S
C451 O448 1.249 . S
C451 O449 1.267 1_554 S
Dy452 O456 2.398 . S
Dy452 O457 2.491 . S
Dy452 O458 2.403 . S
Dy452 O459 2.664 . S
Dy452 O463 2.326 . S
Dy452 O467 2.310 . S
Dy452 O468 2.351 . S
C453 O464 1.185 . S
C453 O465 1.355 . S
C454 O456 1.185 . S
C454 O457 1.355 . S
Dy455 O459 2.310 . S
Dy455 O462 2.351 . S
Dy455 O464 2.398 . S
Dy455 O465 2.491 . S
Dy455 O466 2.403 . S
Dy455 O467 2.664 . S
Dy455 O469 2.326 . S
O456 Dy452 2.398 . S
O456 C454 1.185 . S
O457 Dy452 2.491 . S
O457 C454 1.355 . S
O458 Dy452 2.403 . S
O458 C460 1.254 . S
O459 Dy452 2.664 . S
O459 Dy455 2.310 . S
O459 C460 1.268 . S
C460 O458 1.254 . S
C460 O459 1.268 . S
C461 O466 1.254 . S
C461 O467 1.268 . S
O462 Dy455 2.351 . S
O462 C470 1.249 . S
O463 Dy452 2.326 . S
O463 C470 1.267 . S
O464 C453 1.185 . S
O464 Dy455 2.398 . S
O465 C453 1.355 . S
O465 Dy455 2.491 . S
O466 Dy455 2.403 . S
O466 C461 1.254 . S
O467 Dy452 2.310 . S
O467 Dy455 2.664 . S
O467 C461 1.268 . S
O468 Dy452 2.351 . S
O468 C471 1.249 . S
O469 Dy455 2.326 . S
O469 C471 1.267 . S
C470 O462 1.249 . S
C470 O463 1.267 . S
C471 O468 1.249 . S
C471 O469 1.267 . S
Dy472 O476 2.398 . S
Dy472 O477 2.491 . S
Dy472 O478 2.403 . S
Dy472 O479 2.664 1_556 S
Dy472 O483 2.326 . S
Dy472 O487 2.310 . S
Dy472 O488 2.351 . S
C473 O484 1.185 . S
C473 O485 1.355 . S
C474 O476 1.185 . S
C474 O477 1.355 . S
Dy475 O479 2.310 . S
Dy475 O482 2.351 . S
Dy475 O484 2.398 . S
Dy475 O485 2.491 . S
Dy475 O486 2.403 . S
Dy475 O487 2.664 1_554 S
Dy475 O489 2.326 . S
O476 Dy472 2.398 . S
O476 C474 1.185 . S
O477 Dy472 2.491 . S
O477 C474 1.355 . S
O478 Dy472 2.403 . S
O478 C480 1.254 . S
O479 Dy472 2.664 1_554 S
O479 Dy475 2.310 . S
O479 C480 1.268 1_554 S
C480 O478 1.254 . S
C480 O479 1.268 1_556 S
C481 O486 1.254 . S
C481 O487 1.268 1_554 S
O482 Dy475 2.351 . S
O482 C490 1.249 1_554 S
O483 Dy472 2.326 . S
O483 C490 1.267 . S
O484 C473 1.185 . S
O484 Dy475 2.398 . S
O485 C473 1.355 . S
O485 Dy475 2.491 . S
O486 Dy475 2.403 . S
O486 C481 1.254 . S
O487 Dy472 2.310 . S
O487 Dy475 2.664 1_556 S
O487 C481 1.268 1_556 S
O488 Dy472 2.351 . S
O488 C491 1.249 1_556 S
O489 Dy475 2.326 . S
O489 C491 1.267 . S
C490 O482 1.249 1_556 S
C490 O483 1.267 . S
C491 O488 1.249 1_554 S
C491 O489 1.267 . S
Dy492 O496 2.398 . S
Dy492 O497 2.491 . S
Dy492 O498 2.403 . S
Dy492 O499 2.664 . S
Dy492 O503 2.326 . S
Dy492 O507 2.310 . S
Dy492 O508 2.351 . S
C493 O504 1.185 . S
C493 O505 1.355 . S
C494 O496 1.185 . S
C494 O497 1.355 . S
Dy495 O499 2.310 . S
Dy495 O502 2.351 . S
Dy495 O504 2.398 . S
Dy495 O505 2.491 . S
Dy495 O506 2.403 . S
Dy495 O507 2.664 . S
Dy495 O509 2.326 . S
O496 Dy492 2.398 . S
O496 C494 1.185 . S
O497 Dy492 2.491 . S
O497 C494 1.355 . S
O498 Dy492 2.403 . S
O498 C500 1.254 . S
O499 Dy492 2.664 . S
O499 Dy495 2.310 . S
O499 C500 1.268 . S
C500 O498 1.254 . S
C500 O499 1.268 . S
C501 O506 1.254 . S
C501 O507 1.268 . S
O502 Dy495 2.351 . S
O502 C510 1.249 . S
O503 Dy492 2.326 . S
O503 C510 1.267 . S
O504 C493 1.185 . S
O504 Dy495 2.398 . S
O505 C493 1.355 . S
O505 Dy495 2.491 . S
O506 Dy495 2.403 . S
O506 C501 1.254 . S
O507 Dy492 2.310 . S
O507 Dy495 2.664 . S
O507 C501 1.268 . S
O508 Dy492 2.351 . S
O508 C511 1.249 . S
O509 Dy495 2.326 . S
O509 C511 1.267 . S
C510 O502 1.249 . S
C510 O503 1.267 . S
C511 O508 1.249 . S
C511 O509 1.267 . S
Dy512 O516 2.398 1_455 S
Dy512 O517 2.491 1_455 S
Dy512 O518 2.403 . S
Dy512 O519 2.664 . S
Dy512 O523 2.326 1_455 S
Dy512 O527 2.310 . S
Dy512 O528 2.351 . S
C513 O524 1.185 . S
C513 O525 1.355 . S
C514 O516 1.185 . S
C514 O517 1.355 . S
Dy515 O519 2.310 . S
Dy515 O522 2.351 1_455 S
Dy515 O524 2.398 . S
Dy515 O525 2.491 . S
Dy515 O526 2.403 . S
Dy515 O527 2.664 . S
Dy515 O529 2.326 . S
O516 Dy512 2.398 1_655 S
O516 C514 1.185 . S
O517 Dy512 2.491 1_655 S
O517 C514 1.355 . S
O518 Dy512 2.403 . S
O518 C520 1.254 . S
O519 Dy512 2.664 . S
O519 Dy515 2.310 . S
O519 C520 1.268 . S
C520 O518 1.254 . S
C520 O519 1.268 . S
C521 O526 1.254 . S
C521 O527 1.268 . S
O522 Dy515 2.351 1_655 S
O522 C530 1.249 . S
O523 Dy512 2.326 1_655 S
O523 C530 1.267 . S
O524 C513 1.185 . S
O524 Dy515 2.398 . S
O525 C513 1.355 . S
O525 Dy515 2.491 . S
O526 Dy515 2.403 . S
O526 C521 1.254 . S
O527 Dy512 2.310 . S
O527 Dy515 2.664 . S
O527 C521 1.268 . S
O528 Dy512 2.351 . S
O528 C531 1.249 . S
O529 Dy515 2.326 . S
O529 C531 1.267 . S
C530 O522 1.249 . S
C530 O523 1.267 . S
C531 O528 1.249 . S
C531 O529 1.267 . S
Dy532 O536 2.398 . S
Dy532 O537 2.491 . S
Dy532 O538 2.403 . S
Dy532 O539 2.664 . S
Dy532 O543 2.326 . S
Dy532 O547 2.310 . S
Dy532 O548 2.351 . S
C533 O544 1.185 . S
C533 O545 1.355 . S
C534 O536 1.185 . S
C534 O537 1.355 . S
Dy535 O539 2.310 . S
Dy535 O542 2.351 . S
Dy535 O544 2.398 . S
Dy535 O545 2.491 . S
Dy535 O546 2.403 . S
Dy535 O547 2.664 . S
Dy535 O549 2.326 . S
O536 Dy532 2.398 . S
O536 C534 1.185 . S
O537 Dy532 2.491 . S
O537 C534 1.355 . S
O538 Dy532 2.403 . S
O538 C540 1.254 . S
O539 Dy532 2.664 . S
O539 Dy535 2.310 . S
O539 C540 1.268 . S
C540 O538 1.254 . S
C540 O539 1.268 . S
C541 O546 1.254 . S
C541 O547 1.268 . S
O542 Dy535 2.351 . S
O542 C550 1.249 . S
O543 Dy532 2.326 . S
O543 C550 1.267 . S
O544 C533 1.185 . S
O544 Dy535 2.398 . S
O545 C533 1.355 . S
O545 Dy535 2.491 . S
O546 Dy535 2.403 . S
O546 C541 1.254 . S
O547 Dy532 2.310 . S
O547 Dy535 2.664 . S
O547 C541 1.268 . S
O548 Dy532 2.351 . S
O548 C551 1.249 . S
O549 Dy535 2.326 . S
O549 C551 1.267 . S
C550 O542 1.249 . S
C550 O543 1.267 . S
C551 O548 1.249 . S
C551 O549 1.267 . S
Dy552 O556 2.398 . S
Dy552 O557 2.491 . S
Dy552 O558 2.403 . S
Dy552 O559 2.664 . S
Dy552 O563 2.326 . S
Dy552 O567 2.310 . S
Dy552 O568 2.351 . S
C553 O564 1.185 . S
C553 O565 1.355 . S
C554 O556 1.185 . S
C554 O557 1.355 . S
Dy555 O559 2.310 . S
Dy555 O562 2.351 . S
Dy555 O564 2.398 . S
Dy555 O565 2.491 . S
Dy555 O566 2.403 . S
Dy555 O567 2.664 . S
Dy555 O569 2.326 . S
O556 Dy552 2.398 . S
O556 C554 1.185 . S
O557 Dy552 2.491 . S
O557 C554 1.355 . S
O558 Dy552 2.403 . S
O558 C560 1.254 . S
O559 Dy552 2.664 . S
O559 Dy555 2.310 . S
O559 C560 1.268 . S
C560 O558 1.254 . S
C560 O559 1.268 . S
C561 O566 1.254 . S
C561 O567 1.268 . S
O562 Dy555 2.351 . S
O562 C570 1.249 . S
O563 Dy552 2.326 . S
O563 C570 1.267 . S
O564 C553 1.185 . S
O564 Dy555 2.398 . S
O565 C553 1.355 . S
O565 Dy555 2.491 . S
O566 Dy555 2.403 . S
O566 C561 1.254 . S
O567 Dy552 2.310 . S
O567 Dy555 2.664 . S
O567 C561 1.268 . S
O568 Dy552 2.351 . S
O568 C571 1.249 . S
O569 Dy555 2.326 . S
O569 C571 1.267 . S
C570 O562 1.249 . S
C570 O563 1.267 . S
C571 O568 1.249 . S
C571 O569 1.267 . S
Dy572 O576 2.398 . S
Dy572 O577 2.491 . S
Dy572 O578 2.403 . S
Dy572 O579 2.664 . S
Dy572 O583 2.326 . S
Dy572 O587 2.310 . S
Dy572 O588 2.351 . S
C573 O584 1.185 . S
C573 O585 1.355 . S
C574 O576 1.185 . S
C574 O577 1.355 . S
Dy575 O579 2.310 . S
Dy575 O582 2.351 . S
Dy575 O584 2.398 . S
Dy575 O585 2.491 . S
Dy575 O586 2.403 . S
Dy575 O587 2.664 . S
Dy575 O589 2.326 . S
O576 Dy572 2.398 . S
O576 C574 1.185 . S
O577 Dy572 2.491 . S
O577 C574 1.355 . S
O578 Dy572 2.403 . S
O578 C580 1.254 . S
O579 Dy572 2.664 . S
O579 Dy575 2.310 . S
O579 C580 1.268 . S
C580 O578 1.254 . S
C580 O579 1.268 . S
C581 O586 1.254 . S
C581 O587 1.268 . S
O582 Dy575 2.351 . S
O582 C590 1.249 . S
O583 Dy572 2.326 . S
O583 C590 1.267 . S
O584 C573 1.185 . S
O584 Dy575 2.398 . S
O585 C573 1.355 . S
O585 Dy575 2.491 . S
O586 Dy575 2.403 . S
O586 C581 1.254 . S
O587 Dy572 2.310 . S
O587 Dy575 2.664 . S
O587 C581 1.268 . S
O588 Dy572 2.351 . S
O588 C591 1.249 . S
O589 Dy575 2.326 . S
O589 C591 1.267 . S
C590 O582 1.249 . S
C590 O583 1.267 . S
C591 O588 1.249 . S
C591 O589 1.267 . S
Dy592 O596 2.398 . S
Dy592 O597 2.491 . S
Dy592 O598 2.403 . S
Dy592 O599 2.664 . S
Dy592 O603 2.326 . S
Dy592 O607 2.310 . S
Dy592 O608 2.351 . S
C593 O604 1.185 . S
C593 O605 1.355 . S
C594 O596 1.185 . S
C594 O597 1.355 . S
Dy595 O599 2.310 . S
Dy595 O602 2.351 . S
Dy595 O604 2.398 . S
Dy595 O605 2.491 . S
Dy595 O606 2.403 . S
Dy595 O607 2.664 . S
Dy595 O609 2.326 . S
O596 Dy592 2.398 . S
O596 C594 1.185 . S
O597 Dy592 2.491 . S
O597 C594 1.355 . S
O598 Dy592 2.403 . S
O598 C600 1.254 . S
O599 Dy592 2.664 . S
O599 Dy595 2.310 . S
O599 C600 1.268 . S
C600 O598 1.254 . S
C600 O599 1.268 . S
C601 O606 1.254 . S
C601 O607 1.268 . S
O602 Dy595 2.351 . S
O602 C610 1.249 . S
O603 Dy592 2.326 . S
O603 C610 1.267 . S
O604 C593 1.185 . S
O604 Dy595 2.398 . S
O605 C593 1.355 . S
O605 Dy595 2.491 . S
O606 Dy595 2.403 . S
O606 C601 1.254 . S
O607 Dy592 2.310 . S
O607 Dy595 2.664 . S
O607 C601 1.268 . S
O608 Dy592 2.351 . S
O608 C611 1.249 . S
O609 Dy595 2.326 . S
O609 C611 1.267 . S
C610 O602 1.249 . S
C610 O603 1.267 . S
C611 O608 1.249 . S
C611 O609 1.267 . S
Dy612 O616 2.398 1_554 S
Dy612 O617 2.491 . S
Dy612 O618 2.403 1_554 S
Dy612 O619 2.664 1_454 S
Dy612 O623 2.326 1_554 S
Dy612 O627 2.310 . S
Dy612 O628 2.351 . S
C613 O624 1.185 . S
C613 O625 1.355 . S
C614 O616 1.177 1_554 S
C614 O617 1.365 . S
Dy615 O619 2.310 1_554 S
Dy615 O622 2.351 . S
Dy615 O624 2.398 . S
Dy615 O625 2.491 . S
Dy615 O626 2.403 . S
Dy615 O627 2.664 1_655 S
Dy615 O629 2.326 . S
O616 Dy612 2.398 1_556 S
O616 C614 1.177 1_556 S
O617 Dy612 2.491 . S
O617 C614 1.365 . S
O618 Dy612 2.403 1_556 S
O618 C620 1.254 . S
O619 Dy612 2.664 1_656 S
O619 Dy615 2.310 1_556 S
O619 C620 1.268 1_655 S
C620 O618 1.254 . S
C620 O619 1.268 1_455 S
C621 O626 1.254 1_455 S
C621 O627 1.268 . S
O622 Dy615 2.351 . S
O622 C630 1.249 1_655 S
O623 Dy612 2.326 1_556 S
O623 C630 1.267 1_556 S
O624 C613 1.185 . S
O624 Dy615 2.398 . S
O625 C613 1.355 . S
O625 Dy615 2.491 . S
O626 Dy615 2.403 . S
O626 C621 1.254 1_655 S
O627 Dy612 2.310 . S
O627 Dy615 2.664 1_455 S
O627 C621 1.268 . S
O628 Dy612 2.351 . S
O628 C631 1.249 . S
O629 Dy615 2.326 . S
O629 C631 1.267 1_655 S
C630 O622 1.249 1_455 S
C630 O623 1.267 1_554 S
C631 O628 1.249 . S
C631 O629 1.267 1_455 S
C632 C633 1.387 . S
C632 H636 0.950 1_455 S
C632 C641 1.390 . S
C633 C632 1.387 . S
C633 C635 1.387 . S
H634 C641 0.950 . S
C635 C633 1.387 . S
C635 C637 1.390 1_556 S
C635 H639 0.950 . S
H636 C632 0.950 1_655 S
C637 C635 1.390 1_554 S
C637 C638 1.387 1_554 S
C637 H640 0.950 . S
C638 C637 1.387 1_556 S
C638 C641 1.387 . S
H639 C635 0.950 . S
H640 C637 0.950 . S
C641 C632 1.390 . S
C641 H634 0.950 . S
C641 C638 1.387 . S
C642 C643 1.387 . S
C642 H646 0.950 . S
C642 C651 1.390 . S
C643 C642 1.387 . S
C643 C645 1.387 . S
H644 C651 0.950 . S
C645 C643 1.387 . S
C645 C647 1.390 . S
C645 H649 0.950 . S
H646 C642 0.950 . S
C647 C645 1.390 . S
C647 C648 1.387 . S
C647 H650 0.950 . S
C648 C647 1.387 . S
C648 C651 1.387 . S
H649 C645 0.950 . S
H650 C647 0.950 . S
C651 C642 1.390 . S
C651 H644 0.950 . S
C651 C648 1.387 . S
C652 C653 1.387 . S
C652 H656 0.950 . S
C652 C661 1.390 . S
C653 C652 1.387 . S
C653 C655 1.387 . S
H654 C661 0.950 . S
C655 C653 1.387 . S
C655 C657 1.390 . S
C655 H659 0.950 . S
H656 C652 0.950 . S
C657 C655 1.390 . S
C657 C658 1.387 . S
C657 H660 0.950 . S
C658 C657 1.387 . S
C658 C661 1.387 . S
H659 C655 0.950 . S
H660 C657 0.950 . S
C661 C652 1.390 . S
C661 H654 0.950 . S
C661 C658 1.387 . S
C662 C663 1.387 . S
C662 H666 0.950 . S
C662 C671 1.390 . S
C663 C662 1.387 . S
C663 C665 1.387 . S
H664 C671 0.950 . S
C665 C663 1.387 . S
C665 C667 1.390 . S
C665 H669 0.950 . S
H666 C662 0.950 . S
C667 C665 1.390 . S
C667 C668 1.387 . S
C667 H670 0.950 . S
C668 C667 1.387 . S
C668 C671 1.387 . S
H669 C665 0.950 . S
H670 C667 0.950 . S
C671 C662 1.390 . S
C671 H664 0.950 . S
C671 C668 1.387 . S
C672 C673 1.387 . S
C672 H676 0.950 . S
C672 C681 1.390 . S
C673 C672 1.387 . S
C673 C675 1.387 . S
H674 C681 0.950 . S
C675 C673 1.387 . S
C675 C677 1.390 . S
C675 H679 0.950 1_455 S
H676 C672 0.950 . S
C677 C675 1.390 . S
C677 C678 1.387 . S
C677 H680 0.950 . S
C678 C677 1.387 . S
C678 C681 1.387 . S
H679 C675 0.950 1_655 S
H680 C677 0.950 . S
C681 C672 1.390 . S
C681 H674 0.950 . S
C681 C678 1.387 . S
C682 C683 1.387 . S
C682 H686 0.950 . S
C682 C691 1.390 . S
C683 C682 1.387 . S
C683 C685 1.387 . S
H684 C691 0.950 . S
C685 C683 1.387 . S
C685 C687 1.390 . S
C685 H689 0.950 . S
H686 C682 0.950 . S
C687 C685 1.390 . S
C687 C688 1.387 . S
C687 H690 0.950 . S
C688 C687 1.387 . S
C688 C691 1.387 . S
H689 C685 0.950 . S
H690 C687 0.950 . S
C691 C682 1.390 . S
C691 H684 0.950 . S
C691 C688 1.387 . S
C692 C693 1.387 . S
C692 H696 0.950 . S
C692 C701 1.390 . S
C693 C692 1.387 . S
C693 C695 1.387 . S
H694 C701 0.950 . S
C695 C693 1.387 . S
C695 C697 1.390 . S
C695 H699 0.950 . S
H696 C692 0.950 . S
C697 C695 1.390 . S
C697 C698 1.387 . S
C697 H700 0.950 . S
C698 C697 1.387 . S
C698 C701 1.387 . S
H699 C695 0.950 . S
H700 C697 0.950 . S
C701 C692 1.390 . S
C701 H694 0.950 . S
C701 C698 1.387 . S
C702 C703 1.387 . S
C702 H706 0.950 . S
C702 C711 1.390 . S
C703 C702 1.387 . S
C703 C705 1.387 . S
H704 C711 0.950 . S
C705 C703 1.387 . S
C705 C707 1.390 . S
C705 H709 0.950 . S
H706 C702 0.950 . S
C707 C705 1.390 . S
C707 C708 1.387 . S
C707 H710 0.950 . S
C708 C707 1.387 . S
C708 C711 1.387 . S
H709 C705 0.950 . S
H710 C707 0.950 . S
C711 C702 1.390 . S
C711 H704 0.950 . S
C711 C708 1.387 . S
C712 C713 1.387 . S
C712 H716 0.950 . S
C712 C721 1.390 . S
C713 C712 1.387 . S
C713 C715 1.387 . S
H714 C721 0.940 1_455 S
C715 C713 1.387 . S
C715 C717 1.390 . S
C715 H719 0.950 . S
H716 C712 0.950 . S
C717 C715 1.390 . S
C717 C718 1.390 . S
C717 H720 0.950 . S
C718 C717 1.390 . S
C718 C721 1.391 . S
H719 C715 0.950 . S
H720 C717 0.950 . S
C721 C712 1.390 . S
C721 H714 0.940 1_655 S
C721 C718 1.391 . S
C722 C723 1.387 . S
C722 H726 0.950 . S
C722 C731 1.390 . S
C723 C722 1.387 . S
C723 C725 1.387 . S
H724 C731 0.950 . S
C725 C723 1.387 . S
C725 C727 1.390 . S
C725 H729 0.950 . S
H726 C722 0.950 . S
C727 C725 1.390 . S
C727 C728 1.387 . S
C727 H730 0.950 . S
C728 C727 1.387 . S
C728 C731 1.387 . S
H729 C725 0.950 . S
H730 C727 0.950 . S
C731 C722 1.390 . S
C731 H724 0.950 . S
C731 C728 1.387 . S
C732 C733 1.387 1_565 S
C732 H736 0.950 . S
C732 C741 1.390 . S
C733 C732 1.387 1_545 S
C733 C735 1.387 . S
H734 C741 0.950 . S
C735 C733 1.387 . S
C735 C737 1.390 . S
C735 H739 0.950 . S
H736 C732 0.950 . S
C737 C735 1.390 . S
C737 C738 1.387 . S
C737 H740 0.950 . S
C738 C737 1.387 . S
C738 C741 1.387 1_545 S
H739 C735 0.950 . S
H740 C737 0.950 . S
C741 C732 1.390 . S
C741 H734 0.950 . S
C741 C738 1.387 1_565 S
C742 C743 1.387 . S
C742 H746 0.950 . S
C742 C751 1.390 . S
C743 C742 1.387 . S
C743 C745 1.387 . S
H744 C751 0.950 . S
C745 C743 1.387 . S
C745 C747 1.390 . S
C745 H749 0.950 . S
H746 C742 0.950 . S
C747 C745 1.390 . S
C747 C748 1.387 . S
C747 H750 0.950 . S
C748 C747 1.387 . S
C748 C751 1.387 . S
H749 C745 0.950 . S
H750 C747 0.950 . S
C751 C742 1.390 . S
C751 H744 0.950 . S
C751 C748 1.387 . S
C752 C753 1.387 . S
C752 H756 0.950 1_545 S
C752 C761 1.390 1_545 S
C753 C752 1.387 . S
C753 C755 1.387 . S
H754 C761 0.950 . S
C755 C753 1.387 . S
C755 C757 1.390 . S
C755 H759 0.950 . S
H756 C752 0.950 1_565 S
C757 C755 1.390 . S
C757 C758 1.387 . S
C757 H760 0.950 . S
C758 C757 1.387 . S
C758 C761 1.387 1_545 S
H759 C755 0.950 . S
H760 C757 0.950 . S
C761 C752 1.390 1_565 S
C761 H754 0.950 . S
C761 C758 1.387 1_565 S
C762 C763 1.387 . S
C762 H766 0.950 . S
C762 C771 1.390 . S
C763 C762 1.387 . S
C763 C765 1.387 . S
H764 C771 0.950 . S
C765 C763 1.387 . S
C765 C767 1.390 . S
C765 H769 0.950 . S
H766 C762 0.950 . S
C767 C765 1.390 . S
C767 C768 1.387 . S
C767 H770 0.950 . S
C768 C767 1.387 . S
C768 C771 1.387 . S
H769 C765 0.950 . S
H770 C767 0.950 . S
C771 C762 1.390 . S
C771 H764 0.950 . S
C771 C768 1.387 . S
C772 C773 1.387 . S
C772 H776 0.950 1_545 S
C772 C781 1.390 . S
C773 C772 1.387 . S
C773 C775 1.387 . S
H774 C781 0.950 . S
C775 C773 1.387 . S
C775 C777 1.390 . S
C775 H779 0.950 . S
H776 C772 0.950 1_565 S
C777 C775 1.390 . S
C777 C778 1.387 . S
C777 H780 0.950 . S
C778 C777 1.387 . S
C778 C781 1.387 . S
H779 C775 0.950 . S
H780 C777 0.950 . S
C781 C772 1.390 . S
C781 H774 0.950 . S
C781 C778 1.387 . S
C782 C783 1.387 . S
C782 H786 0.950 . S
C782 C791 1.390 . S
C783 C782 1.387 . S
C783 C785 1.387 . S
H784 C791 0.950 . S
C785 C783 1.387 . S
C785 C787 1.390 . S
C785 H789 0.950 . S
H786 C782 0.950 . S
C787 C785 1.390 . S
C787 C788 1.387 . S
C787 H790 0.950 . S
C788 C787 1.387 . S
C788 C791 1.387 . S
H789 C785 0.950 . S
H790 C787 0.950 . S
C791 C782 1.390 . S
C791 H784 0.950 . S
C791 C788 1.387 . S
C792 C793 1.387 . S
C792 H796 0.950 1_554 S
C792 C801 1.390 . S
C793 C792 1.387 . S
C793 C795 1.387 . S
H794 C801 0.950 1_545 S
C795 C793 1.387 . S
C795 C797 1.390 . S
C795 H799 0.950 . S
H796 C792 0.950 1_556 S
C797 C795 1.390 . S
C797 C798 1.387 . S
C797 H800 0.950 . S
C798 C797 1.387 . S
C798 C801 1.387 . S
H799 C795 0.950 . S
H800 C797 0.950 . S
C801 C792 1.390 . S
C801 H794 0.950 1_565 S
C801 C798 1.387 . S
C802 C803 1.387 . S
C802 H806 0.950 . S
C802 C811 1.390 . S
C803 C802 1.387 . S
C803 C805 1.387 1_556 S
H804 C811 0.950 . S
C805 C803 1.387 1_554 S
C805 C807 1.390 . S
C805 H809 0.950 . S
H806 C802 0.950 . S
C807 C805 1.390 . S
C807 C808 1.387 1_554 S
C807 H810 0.950 . S
C808 C807 1.387 1_556 S
C808 C811 1.387 . S
H809 C805 0.950 . S
H810 C807 0.950 . S
C811 C802 1.390 . S
C811 H804 0.950 . S
C811 C808 1.387 . S
C812 C813 1.387 . S
C812 H816 0.950 . S
C812 C821 1.390 . S
C813 C812 1.387 . S
C813 C815 1.387 . S
H814 C821 0.950 . S
C815 C813 1.387 . S
C815 C817 1.390 . S
C815 H819 0.950 . S
H816 C812 0.950 . S
C817 C815 1.390 . S
C817 C818 1.387 . S
C817 H820 0.950 . S
C818 C817 1.387 . S
C818 C821 1.387 . S
H819 C815 0.950 . S
H820 C817 0.950 . S
C821 C812 1.390 . S
C821 H814 0.950 . S
C821 C818 1.387 . S
C822 C823 1.387 . S
C822 H826 0.950 . S
C822 C831 1.390 . S
C823 C822 1.387 . S
C823 C825 1.387 . S
H824 C831 0.950 . S
C825 C823 1.387 . S
C825 C827 1.390 . S
C825 H829 0.950 . S
H826 C822 0.950 . S
C827 C825 1.390 . S
C827 C828 1.387 . S
C827 H830 0.950 . S
C828 C827 1.387 . S
C828 C831 1.387 . S
H829 C825 0.950 . S
H830 C827 0.950 . S
C831 C822 1.390 . S
C831 H824 0.950 . S
C831 C828 1.387 . S
C832 C833 1.387 . S
C832 H836 0.950 . S
C832 C841 1.390 . S
C833 C832 1.387 . S
C833 C835 1.387 . S
H834 C841 0.950 . S
C835 C833 1.387 . S
C835 C837 1.390 . S
C835 H839 0.950 . S
H836 C832 0.950 . S
C837 C835 1.390 . S
C837 C838 1.387 . S
C837 H840 0.950 . S
C838 C837 1.387 . S
C838 C841 1.387 . S
H839 C835 0.950 . S
H840 C837 0.950 . S
C841 C832 1.390 . S
C841 H834 0.950 . S
C841 C838 1.387 . S
C842 C843 1.387 . S
C842 H846 0.950 . S
C842 C851 1.390 . S
C843 C842 1.387 . S
C843 C845 1.387 . S
H844 C851 0.950 . S
C845 C843 1.387 . S
C845 C847 1.390 . S
C845 H849 0.950 . S
H846 C842 0.950 . S
C847 C845 1.390 . S
C847 C848 1.387 . S
C847 H850 0.950 . S
C848 C847 1.387 . S
C848 C851 1.387 . S
H849 C845 0.950 . S
H850 C847 0.950 . S
C851 C842 1.390 . S
C851 H844 0.950 . S
C851 C848 1.387 . S
C852 C853 1.387 . S
C852 H856 0.950 . S
C852 C861 1.390 . S
C853 C852 1.387 . S
C853 C855 1.387 . S
H854 C861 0.950 . S
C855 C853 1.387 . S
C855 C857 1.390 . S
C855 H859 0.950 . S
H856 C852 0.950 . S
C857 C855 1.390 . S
C857 C858 1.387 . S
C857 H860 0.950 . S
C858 C857 1.387 . S
C858 C861 1.387 . S
H859 C855 0.950 . S
H860 C857 0.950 . S
C861 C852 1.390 . S
C861 H854 0.950 . S
C861 C858 1.387 . S
C862 C863 1.387 . S
C862 H866 0.950 . S
C862 C871 1.390 . S
C863 C862 1.387 . S
C863 C865 1.387 . S
H864 C871 0.950 . S
C865 C863 1.387 . S
C865 C867 1.390 . S
C865 H869 0.950 . S
H866 C862 0.950 . S
C867 C865 1.390 . S
C867 C868 1.387 . S
C867 H870 0.950 . S
C868 C867 1.387 . S
C868 C871 1.387 . S
H869 C865 0.950 . S
H870 C867 0.950 . S
C871 C862 1.390 . S
C871 H864 0.950 . S
C871 C868 1.387 . S
C872 C873 1.387 . S
C872 H876 0.950 . S
C872 C881 1.390 . S
C873 C872 1.387 . S
C873 C875 1.387 . S
H874 C881 0.950 1_655 S
C875 C873 1.387 . S
C875 C877 1.390 . S
C875 H879 0.950 . S
H876 C872 0.950 . S
C877 C875 1.390 . S
C877 C878 1.387 . S
C877 H880 0.950 . S
C878 C877 1.387 . S
C878 C881 1.387 . S
H879 C875 0.950 . S
H880 C877 0.950 . S
C881 C872 1.390 . S
C881 H874 0.950 1_455 S
C881 C878 1.387 . S
C882 C883 1.387 . S
C882 H886 0.950 . S
C882 C891 1.390 . S
C883 C882 1.387 . S
C883 C885 1.387 . S
H884 C891 0.950 . S
C885 C883 1.387 . S
C885 C887 1.390 . S
C885 H889 0.950 . S
H886 C882 0.950 . S
C887 C885 1.390 . S
C887 C888 1.387 . S
C887 H890 0.950 . S
C888 C887 1.387 . S
C888 C891 1.387 . S
H889 C885 0.950 . S
H890 C887 0.950 . S
C891 C882 1.390 . S
C891 H884 0.950 . S
C891 C888 1.387 . S
C892 C893 1.387 . S
C892 H896 0.950 . S
C892 C901 1.390 . S
C893 C892 1.387 . S
C893 C895 1.387 . S
H894 C901 0.950 . S
C895 C893 1.387 . S
C895 C897 1.390 . S
C895 H899 0.950 . S
H896 C892 0.950 . S
C897 C895 1.390 . S
C897 C898 1.387 . S
C897 H900 0.950 . S
C898 C897 1.387 . S
C898 C901 1.387 . S
H899 C895 0.950 . S
H900 C897 0.950 . S
C901 C892 1.390 . S
C901 H894 0.950 . S
C901 C898 1.387 . S
C902 C903 1.387 . S
C902 H906 0.950 . S
C902 C911 1.390 . S
C903 C902 1.387 . S
C903 C905 1.387 . S
H904 C911 0.950 . S
C905 C903 1.387 . S
C905 C907 1.390 . S
C905 H909 0.950 . S
H906 C902 0.950 . S
C907 C905 1.390 . S
C907 C908 1.387 . S
C907 H910 0.950 . S
C908 C907 1.387 . S
C908 C911 1.387 . S
H909 C905 0.950 . S
H910 C907 0.950 . S
C911 C902 1.390 . S
C911 H904 0.950 . S
C911 C908 1.387 . S
C912 C913 1.385 . S
C912 H916 0.952 1_455 S
C912 C921 1.390 1_455 S
C913 C912 1.385 . S
C913 C915 1.387 . S
H914 C921 0.950 . S
C915 C913 1.387 . S
C915 C917 1.390 . S
C915 H919 0.950 . S
H916 C912 0.952 1_655 S
C917 C915 1.390 . S
C917 C918 1.387 . S
C917 H920 0.950 . S
C918 C917 1.387 . S
C918 C921 1.387 1_455 S
H919 C915 0.950 . S
H920 C917 0.950 . S
C921 C912 1.390 1_655 S
C921 H914 0.950 . S
C921 C918 1.387 1_655 S
C922 C923 1.387 . S
C922 H926 0.950 . S
C922 C931 1.390 . S
C923 C922 1.387 . S
C923 C925 1.387 . S
H924 C931 0.950 . S
C925 C923 1.387 . S
C925 C927 1.390 . S
C925 H929 0.950 . S
H926 C922 0.950 . S
C927 C925 1.390 . S
C927 C928 1.387 . S
C927 H930 0.950 . S
C928 C927 1.387 . S
C928 C931 1.387 . S
H929 C925 0.950 . S
H930 C927 0.950 . S
C931 C922 1.390 . S
C931 H924 0.950 . S
C931 C928 1.387 . S
C932 C933 1.387 . S
C932 H936 0.950 . S
C932 C941 1.390 . S
C933 C932 1.387 . S
C933 C935 1.387 . S
H934 C941 0.950 1_554 S
C935 C933 1.387 . S
C935 C937 1.390 . S
C935 H939 0.950 . S
H936 C932 0.950 . S
C937 C935 1.390 . S
C937 C938 1.387 . S
C937 H940 0.950 . S
C938 C937 1.387 . S
C938 C941 1.387 . S
H939 C935 0.950 . S
H940 C937 0.950 . S
C941 C932 1.390 . S
C941 H934 0.950 1_556 S
C941 C938 1.387 . S
C942 C943 1.387 . S
C942 H946 0.950 . S
C942 C951 1.390 . S
C943 C942 1.387 . S
C943 C945 1.387 . S
H944 C951 0.950 . S
C945 C943 1.387 . S
C945 C947 1.390 . S
C945 H949 0.950 . S
H946 C942 0.950 . S
C947 C945 1.390 . S
C947 C948 1.387 . S
C947 H950 0.950 . S
C948 C947 1.387 . S
C948 C951 1.387 . S
H949 C945 0.950 . S
H950 C947 0.950 . S
C951 C942 1.390 . S
C951 H944 0.950 . S
C951 C948 1.387 . S
C952 C953 1.387 . S
C952 H956 0.950 . S
C952 C961 1.390 . S
C953 C952 1.387 . S
C953 C955 1.387 1_545 S
H954 C961 0.950 . S
C955 C953 1.387 1_565 S
C955 C957 1.390 . S
C955 H959 0.950 . S
H956 C952 0.950 . S
C957 C955 1.390 . S
C957 C958 1.387 1_565 S
C957 H960 0.950 . S
C958 C957 1.387 1_545 S
C958 C961 1.387 . S
H959 C955 0.950 . S
H960 C957 0.950 . S
C961 C952 1.390 . S
C961 H954 0.950 . S
C961 C958 1.387 . S
C962 C963 1.387 . S
C962 H966 0.950 . S
C962 C971 1.390 . S
C963 C962 1.387 . S
C963 C965 1.387 . S
H964 C971 0.950 . S
C965 C963 1.387 . S
C965 C967 1.390 . S
C965 H969 0.950 . S
H966 C962 0.950 . S
C967 C965 1.390 . S
C967 C968 1.387 . S
C967 H970 0.950 . S
C968 C967 1.387 . S
C968 C971 1.387 . S
H969 C965 0.950 . S
H970 C967 0.950 . S
C971 C962 1.390 . S
C971 H964 0.950 . S
C971 C968 1.387 . S
C972 C973 1.387 1_565 S
C972 H976 0.950 . S
C972 C981 1.390 . S
C973 C972 1.387 1_545 S
C973 C975 1.387 . S
H974 C981 0.950 . S
C975 C973 1.387 . S
C975 C977 1.390 . S
C975 H979 0.950 . S
H976 C972 0.950 . S
C977 C975 1.390 . S
C977 C978 1.387 . S
C977 H980 0.950 . S
C978 C977 1.387 . S
C978 C981 1.387 1_545 S
H979 C975 0.950 . S
H980 C977 0.950 . S
C981 C972 1.390 . S
C981 H974 0.950 . S
C981 C978 1.387 1_565 S
C982 C983 1.387 . S
C982 H986 0.950 . S
C982 C991 1.390 . S
C983 C982 1.387 . S
C983 C985 1.387 . S
H984 C991 0.950 . S
C985 C983 1.387 . S
C985 C987 1.390 . S
C985 H989 0.950 . S
H986 C982 0.950 . S
C987 C985 1.390 . S
C987 C988 1.387 . S
C987 H990 0.950 . S
C988 C987 1.387 . S
C988 C991 1.387 . S
H989 C985 0.950 . S
H990 C987 0.950 . S
C991 C982 1.390 . S
C991 H984 0.950 . S
C991 C988 1.387 . S
C992 C993 1.387 . S
C992 H996 0.950 . S
C992 C1001 1.390 . S
C993 C992 1.387 . S
C993 C995 1.387 1_565 S
H994 C1001 0.950 . S
C995 C993 1.387 1_545 S
C995 C997 1.390 . S
C995 H999 0.950 . S
H996 C992 0.950 . S
C997 C995 1.390 . S
C997 C998 1.387 . S
C997 H1000 0.950 . S
C998 C997 1.387 . S
C998 C1001 1.387 1_545 S
H999 C995 0.950 . S
H1000 C997 0.950 . S
C1001 C992 1.390 . S
C1001 H994 0.950 . S
C1001 C998 1.387 1_565 S
C1002 C1003 1.387 . S
C1002 H1006 0.950 . S
C1002 C1011 1.390 . S
C1003 C1002 1.387 . S
C1003 C1005 1.387 . S
H1004 C1011 0.950 . S
C1005 C1003 1.387 . S
C1005 C1007 1.390 . S
C1005 H1009 0.950 . S
H1006 C1002 0.950 . S
C1007 C1005 1.390 . S
C1007 C1008 1.387 . S
C1007 H1010 0.950 . S
C1008 C1007 1.387 . S
C1008 C1011 1.387 . S
H1009 C1005 0.950 . S
H1010 C1007 0.950 . S
C1011 C1002 1.390 . S
C1011 H1004 0.950 . S
C1011 C1008 1.387 . S
C1012 C1013 1.387 . S
C1012 H1016 0.950 . S
C1012 C1021 1.390 . S
C1013 C1012 1.387 . S
C1013 C1015 1.387 . S
H1014 C1021 0.950 . S
C1015 C1013 1.387 . S
C1015 C1017 1.390 1_545 S
C1015 H1019 0.950 . S
H1016 C1012 0.950 . S
C1017 C1015 1.390 1_565 S
C1017 C1018 1.387 1_565 S
C1017 H1020 0.950 . S
C1018 C1017 1.387 1_545 S
C1018 C1021 1.387 . S
H1019 C1015 0.950 . S
H1020 C1017 0.950 . S
C1021 C1012 1.390 . S
C1021 H1014 0.950 . S
C1021 C1018 1.387 . S
C1022 C1023 1.387 . S
C1022 H1026 0.950 . S
C1022 C1031 1.390 . S
C1023 C1022 1.387 . S
C1023 C1025 1.387 . S
H1024 C1031 0.950 . S
C1025 C1023 1.387 . S
C1025 C1027 1.390 . S
C1025 H1029 0.950 . S
H1026 C1022 0.950 . S
C1027 C1025 1.390 . S
C1027 C1028 1.387 . S
C1027 H1030 0.950 . S
C1028 C1027 1.387 . S
C1028 C1031 1.387 . S
H1029 C1025 0.950 . S
H1030 C1027 0.950 . S
C1031 C1022 1.390 . S
C1031 H1024 0.950 . S
C1031 C1028 1.387 . S
C1032 C1033 1.387 1_556 S
C1032 H1036 0.950 . S
C1032 C1041 1.390 . S
C1033 C1032 1.387 1_554 S
C1033 C1035 1.387 . S
H1034 C1041 0.950 . S
C1035 C1033 1.387 . S
C1035 C1037 1.390 . S
C1035 H1039 0.950 . S
H1036 C1032 0.950 . S
C1037 C1035 1.390 . S
C1037 C1038 1.387 1_554 S
C1037 H1040 0.950 . S
C1038 C1037 1.387 1_556 S
C1038 C1041 1.387 . S
H1039 C1035 0.950 . S
H1040 C1037 0.950 . S
C1041 C1032 1.390 . S
C1041 H1034 0.950 . S
C1041 C1038 1.387 . S
C1042 C1043 1.387 . S
C1042 H1046 0.950 . S
C1042 C1051 1.390 . S
C1043 C1042 1.387 . S
C1043 C1045 1.387 1_554 S
H1044 C1051 0.950 . S
C1045 C1043 1.387 1_556 S
C1045 C1047 1.390 . S
C1045 H1049 0.950 . S
H1046 C1042 0.950 . S
C1047 C1045 1.390 . S
C1047 C1048 1.387 1_556 S
C1047 H1050 0.950 . S
C1048 C1047 1.387 1_554 S
C1048 C1051 1.387 . S
H1049 C1045 0.950 . S
H1050 C1047 0.950 . S
C1051 C1042 1.390 . S
C1051 H1044 0.950 . S
C1051 C1048 1.387 . S
C1052 C1053 1.387 . S
C1052 H1056 0.950 . S
C1052 C1061 1.390 . S
C1053 C1052 1.387 . S
C1053 C1055 1.387 . S
H1054 C1061 0.950 . S
C1055 C1053 1.387 . S
C1055 C1057 1.390 . S
C1055 H1059 0.950 . S
H1056 C1052 0.950 . S
C1057 C1055 1.390 . S
C1057 C1058 1.387 . S
C1057 H1060 0.950 . S
C1058 C1057 1.387 . S
C1058 C1061 1.387 . S
H1059 C1055 0.950 . S
H1060 C1057 0.950 . S
C1061 C1052 1.390 . S
C1061 H1054 0.950 . S
C1061 C1058 1.387 . S
C1062 C1063 1.387 . S
C1062 H1066 0.950 . S
C1062 C1071 1.390 . S
C1063 C1062 1.387 . S
C1063 C1065 1.387 . S
H1064 C1071 0.950 . S
C1065 C1063 1.387 . S
C1065 C1067 1.390 . S
C1065 H1069 0.950 . S
H1066 C1062 0.950 . S
C1067 C1065 1.390 . S
C1067 C1068 1.387 . S
C1067 H1070 0.950 . S
C1068 C1067 1.387 . S
C1068 C1071 1.387 . S
H1069 C1065 0.950 . S
H1070 C1067 0.950 . S
C1071 C1062 1.390 . S
C1071 H1064 0.950 . S
C1071 C1068 1.387 . S
C1072 C1073 1.387 . S
C1072 H1076 0.950 . S
C1072 C1081 1.390 . S
C1073 C1072 1.387 . S
C1073 C1075 1.387 . S
H1074 C1081 0.950 . S
C1075 C1073 1.387 . S
C1075 C1077 1.390 . S
C1075 H1079 0.950 . S
H1076 C1072 0.950 . S
C1077 C1075 1.390 . S
C1077 C1078 1.387 . S
C1077 H1080 0.950 . S
C1078 C1077 1.387 . S
C1078 C1081 1.387 . S
H1079 C1075 0.950 . S
H1080 C1077 0.950 . S
C1081 C1072 1.390 . S
C1081 H1074 0.950 . S
C1081 C1078 1.387 . S
C1082 C1083 1.387 . S
C1082 H1086 0.950 . S
C1082 C1091 1.390 . S
C1083 C1082 1.387 . S
C1083 C1085 1.387 . S
H1084 C1091 0.950 . S
C1085 C1083 1.387 . S
C1085 C1087 1.390 . S
C1085 H1089 0.950 . S
H1086 C1082 0.950 . S
C1087 C1085 1.390 . S
C1087 C1088 1.387 . S
C1087 H1090 0.950 . S
C1088 C1087 1.387 . S
C1088 C1091 1.387 . S
H1089 C1085 0.950 . S
H1090 C1087 0.950 . S
C1091 C1082 1.390 . S
C1091 H1084 0.950 . S
C1091 C1088 1.387 . S
C1092 C1093 1.387 . S
C1092 H1096 0.950 . S
C1092 C1101 1.390 . S
C1093 C1092 1.387 . S
C1093 C1095 1.387 . S
H1094 C1101 0.950 . S
C1095 C1093 1.387 . S
C1095 C1097 1.390 . S
C1095 H1099 0.950 . S
H1096 C1092 0.950 . S
C1097 C1095 1.390 . S
C1097 C1098 1.387 . S
C1097 H1100 0.950 . S
C1098 C1097 1.387 . S
C1098 C1101 1.387 . S
H1099 C1095 0.950 . S
H1100 C1097 0.950 . S
C1101 C1092 1.390 . S
C1101 H1094 0.950 . S
C1101 C1098 1.387 . S
C1102 C1103 1.387 . S
C1102 H1106 0.950 . S
C1102 C1111 1.390 . S
C1103 C1102 1.387 . S
C1103 C1105 1.387 . S
H1104 C1111 0.950 . S
C1105 C1103 1.387 . S
C1105 C1107 1.390 . S
C1105 H1109 0.950 . S
H1106 C1102 0.950 . S
C1107 C1105 1.390 . S
C1107 C1108 1.387 . S
C1107 H1110 0.950 . S
C1108 C1107 1.387 . S
C1108 C1111 1.387 . S
H1109 C1105 0.950 . S
H1110 C1107 0.950 . S
C1111 C1102 1.390 . S
C1111 H1104 0.950 . S
C1111 C1108 1.387 . S
C1112 C1113 1.387 . S
C1112 H1116 0.950 . S
C1112 C1121 1.390 . S
C1113 C1112 1.387 . S
C1113 C1115 1.387 . S
H1114 C1121 0.950 . S
C1115 C1113 1.387 . S
C1115 C1117 1.390 . S
C1115 H1119 0.950 . S
H1116 C1112 0.950 . S
C1117 C1115 1.390 . S
C1117 C1118 1.387 . S
C1117 H1120 0.950 . S
C1118 C1117 1.387 . S
C1118 C1121 1.387 . S
H1119 C1115 0.950 . S
H1120 C1117 0.950 . S
C1121 C1112 1.390 . S
C1121 H1114 0.950 . S
C1121 C1118 1.387 . S
C1122 C1123 1.387 . S
C1122 H1126 0.950 . S
C1122 C1131 1.390 . S
C1123 C1122 1.387 . S
C1123 C1125 1.387 . S
H1124 C1131 0.950 . S
C1125 C1123 1.387 . S
C1125 C1127 1.390 . S
C1125 H1129 0.950 . S
H1126 C1122 0.950 . S
C1127 C1125 1.390 . S
C1127 C1128 1.387 . S
C1127 H1130 0.950 . S
C1128 C1127 1.387 . S
C1128 C1131 1.387 . S
H1129 C1125 0.950 . S
H1130 C1127 0.950 . S
C1131 C1122 1.390 . S
C1131 H1124 0.950 . S
C1131 C1128 1.387 . S
C1132 C1133 1.387 . S
C1132 H1136 0.950 . S
C1132 C1141 1.390 1_556 S
C1133 C1132 1.387 . S
C1133 C1135 1.387 1_455 S
H1134 C1141 0.950 . S
C1135 C1133 1.387 1_655 S
C1135 C1137 1.390 . S
C1135 H1139 0.950 . S
H1136 C1132 0.950 . S
C1137 C1135 1.390 . S
C1137 C1138 1.406 1_655 S
C1137 H1140 0.950 . S
C1138 C1137 1.406 1_455 S
C1138 C1141 1.382 1_556 S
H1139 C1135 0.950 . S
H1140 C1137 0.950 . S
C1141 C1132 1.390 1_554 S
C1141 H1134 0.950 . S
C1141 C1138 1.382 1_554 S
C1142 C1143 1.387 . S
C1142 H1146 0.950 . S
C1142 C1151 1.390 . S
C1143 C1142 1.387 . S
C1143 C1145 1.387 . S
H1144 C1151 0.950 . S
C1145 C1143 1.387 . S
C1145 C1147 1.390 . S
C1145 H1149 0.950 . S
H1146 C1142 0.950 . S
C1147 C1145 1.390 . S
C1147 C1148 1.387 . S
C1147 H1150 0.950 . S
C1148 C1147 1.387 . S
C1148 C1151 1.387 . S
H1149 C1145 0.950 . S
H1150 C1147 0.950 . S
C1151 C1142 1.390 . S
C1151 H1144 0.950 . S
C1151 C1148 1.387 . S
C1152 C1153 1.387 . S
C1152 H1156 0.950 . S
C1152 C1161 1.390 . S
C1153 C1152 1.387 . S
C1153 C1155 1.387 . S
H1154 C1161 0.950 . S
C1155 C1153 1.387 . S
C1155 C1157 1.390 . S
C1155 H1159 0.950 . S
H1156 C1152 0.950 . S
C1157 C1155 1.390 . S
C1157 C1158 1.387 . S
C1157 H1160 0.950 . S
C1158 C1157 1.387 . S
C1158 C1161 1.387 . S
H1159 C1155 0.950 . S
H1160 C1157 0.950 . S
C1161 C1152 1.390 . S
C1161 H1154 0.950 . S
C1161 C1158 1.387 . S
C1162 C1163 1.387 . S
C1162 H1166 0.950 . S
C1162 C1171 1.390 . S
C1163 C1162 1.387 . S
C1163 C1165 1.387 . S
H1164 C1171 0.950 . S
C1165 C1163 1.387 . S
C1165 C1167 1.390 . S
C1165 H1169 0.950 . S
H1166 C1162 0.950 . S
C1167 C1165 1.390 . S
C1167 C1168 1.387 . S
C1167 H1170 0.950 . S
C1168 C1167 1.387 . S
C1168 C1171 1.387 . S
H1169 C1165 0.950 . S
H1170 C1167 0.950 . S
C1171 C1162 1.390 . S
C1171 H1164 0.950 . S
C1171 C1168 1.387 . S
C1172 C1173 1.387 1_455 S
C1172 H1176 0.950 . S
C1172 C1181 1.390 . S
C1173 C1172 1.387 1_655 S
C1173 C1175 1.387 . S
H1174 C1181 0.950 . S
C1175 C1173 1.387 . S
C1175 C1177 1.390 . S
C1175 H1179 0.950 . S
H1176 C1172 0.950 . S
C1177 C1175 1.390 . S
C1177 C1178 1.387 1_655 S
C1177 H1180 0.950 . S
C1178 C1177 1.387 1_455 S
C1178 C1181 1.387 . S
H1179 C1175 0.950 . S
H1180 C1177 0.950 . S
C1181 C1172 1.390 . S
C1181 H1174 0.950 . S
C1181 C1178 1.387 . S
C1182 C1183 1.387 . S
C1182 H1186 0.950 . S
C1182 C1191 1.390 . S
C1183 C1182 1.387 . S
C1183 C1185 1.387 . S
H1184 C1191 0.950 . S
C1185 C1183 1.387 . S
C1185 C1187 1.390 . S
C1185 H1189 0.950 . S
H1186 C1182 0.950 . S
C1187 C1185 1.390 . S
C1187 C1188 1.387 . S
C1187 H1190 0.950 . S
C1188 C1187 1.387 . S
C1188 C1191 1.387 . S
H1189 C1185 0.950 . S
H1190 C1187 0.950 . S
C1191 C1182 1.390 . S
C1191 H1184 0.950 . S
C1191 C1188 1.387 . S
C1192 C1193 1.387 . S
C1192 H1196 0.950 . S
C1192 C1201 1.390 . S
C1193 C1192 1.387 . S
C1193 C1195 1.387 . S
H1194 C1201 0.950 . S
C1195 C1193 1.387 . S
C1195 C1197 1.390 . S
C1195 H1199 0.950 . S
H1196 C1192 0.950 . S
C1197 C1195 1.390 . S
C1197 C1198 1.387 . S
C1197 H1200 0.950 . S
C1198 C1197 1.387 . S
C1198 C1201 1.387 . S
H1199 C1195 0.950 . S
H1200 C1197 0.950 . S
C1201 C1192 1.390 . S
C1201 H1194 0.950 . S
C1201 C1198 1.387 . S
C1202 C1203 1.387 . S
C1202 H1206 0.950 . S
C1202 C1211 1.390 . S
C1203 C1202 1.387 . S
C1203 C1205 1.387 . S
H1204 C1211 0.950 . S
C1205 C1203 1.387 . S
C1205 C1207 1.390 . S
C1205 H1209 0.950 . S
H1206 C1202 0.950 . S
C1207 C1205 1.390 . S
C1207 C1208 1.387 . S
C1207 H1210 0.950 . S
C1208 C1207 1.387 . S
C1208 C1211 1.387 . S
H1209 C1205 0.950 . S
H1210 C1207 0.950 . S
C1211 C1202 1.390 . S
C1211 H1204 0.950 . S
C1211 C1208 1.387 . S
C1212 C1213 1.387 . S
C1212 H1216 0.950 . S
C1212 C1221 1.390 . S
C1213 C1212 1.387 . S
C1213 C1215 1.387 . S
H1214 C1221 0.950 . S
C1215 C1213 1.387 . S
C1215 C1217 1.390 . S
C1215 H1219 0.950 . S
H1216 C1212 0.950 . S
C1217 C1215 1.390 . S
C1217 C1218 1.387 . S
C1217 H1220 0.950 . S
C1218 C1217 1.387 . S
C1218 C1221 1.387 . S
H1219 C1215 0.950 . S
H1220 C1217 0.950 . S
C1221 C1212 1.390 . S
C1221 H1214 0.950 . S
C1221 C1218 1.387 . S
C1222 C1223 1.387 . S
C1222 H1226 0.950 . S
C1222 C1231 1.390 . S
C1223 C1222 1.387 . S
C1223 C1225 1.387 . S
H1224 C1231 0.950 . S
C1225 C1223 1.387 . S
C1225 C1227 1.390 . S
C1225 H1229 0.950 . S
H1226 C1222 0.950 . S
C1227 C1225 1.390 . S
C1227 C1228 1.387 . S
C1227 H1230 0.950 . S
C1228 C1227 1.387 . S
C1228 C1231 1.387 . S
H1229 C1225 0.950 . S
H1230 C1227 0.950 . S
C1231 C1222 1.390 . S
C1231 H1224 0.950 . S
C1231 C1228 1.387 . S
C1232 C1233 1.387 . S
C1232 H1236 0.950 . S
C1232 C1241 1.390 . S
C1233 C1232 1.387 . S
C1233 C1235 1.387 . S
H1234 C1241 0.950 . S
C1235 C1233 1.387 . S
C1235 C1237 1.390 . S
C1235 H1239 0.950 . S
H1236 C1232 0.950 . S
C1237 C1235 1.390 . S
C1237 C1238 1.387 . S
C1237 H1240 0.950 . S
C1238 C1237 1.387 . S
C1238 C1241 1.387 . S
H1239 C1235 0.950 . S
H1240 C1237 0.950 . S
C1241 C1232 1.390 . S
C1241 H1234 0.950 . S
C1241 C1238 1.387 . S
C1242 C1243 1.387 . S
C1242 H1246 0.950 . S
C1242 C1251 1.390 . S
C1243 C1242 1.387 . S
C1243 C1245 1.387 . S
H1244 C1251 0.950 . S
C1245 C1243 1.387 . S
C1245 C1247 1.390 . S
C1245 H1249 0.950 . S
H1246 C1242 0.950 . S
C1247 C1245 1.390 . S
C1247 C1248 1.387 . S
C1247 H1250 0.950 . S
C1248 C1247 1.387 . S
C1248 C1251 1.387 . S
H1249 C1245 0.950 . S
H1250 C1247 0.950 . S
C1251 C1242 1.390 . S
C1251 H1244 0.950 . S
C1251 C1248 1.387 . S
C1252 C1253 1.387 . S
C1252 H1256 0.950 . S
C1252 C1261 1.390 . S
C1253 C1252 1.387 . S
C1253 C1255 1.387 . S
H1254 C1261 0.950 . S
C1255 C1253 1.387 . S
C1255 C1257 1.390 . S
C1255 H1259 0.950 . S
H1256 C1252 0.950 . S
C1257 C1255 1.390 . S
C1257 C1258 1.387 . S
C1257 H1260 0.950 . S
C1258 C1257 1.387 . S
C1258 C1261 1.387 . S
H1259 C1255 0.950 . S
H1260 C1257 0.950 . S
C1261 C1252 1.390 . S
C1261 H1254 0.950 . S
C1261 C1258 1.387 . S
C1262 C1263 1.387 . S
C1262 H1266 0.950 . S
C1262 C1271 1.390 . S
C1263 C1262 1.387 . S
C1263 C1265 1.387 . S
H1264 C1271 0.950 . S
C1265 C1263 1.387 . S
C1265 C1267 1.390 . S
C1265 H1269 0.950 . S
H1266 C1262 0.950 . S
C1267 C1265 1.390 . S
C1267 C1268 1.387 . S
C1267 H1270 0.950 . S
C1268 C1267 1.387 . S
C1268 C1271 1.387 . S
H1269 C1265 0.950 . S
H1270 C1267 0.950 . S
C1271 C1262 1.390 . S
C1271 H1264 0.950 . S
C1271 C1268 1.387 . S
C1272 C1273 1.387 . S
C1272 H1276 0.950 . S
C1272 C1281 1.390 . S
C1273 C1272 1.387 . S
C1273 C1275 1.387 . S
H1274 C1281 0.950 . S
C1275 C1273 1.387 . S
C1275 C1277 1.390 . S
C1275 H1279 0.950 . S
H1276 C1272 0.950 . S
C1277 C1275 1.390 . S
C1277 C1278 1.387 . S
C1277 H1280 0.950 . S
C1278 C1277 1.387 . S
C1278 C1281 1.387 . S
H1279 C1275 0.950 . S
H1280 C1277 0.950 . S
C1281 C1272 1.390 . S
C1281 H1274 0.950 . S
C1281 C1278 1.387 . S
C1282 C1283 1.387 . S
C1282 H1286 0.950 . S
C1282 C1291 1.390 . S
C1283 C1282 1.387 . S
C1283 C1285 1.387 . S
H1284 C1291 0.950 . S
C1285 C1283 1.387 . S
C1285 C1287 1.390 . S
C1285 H1289 0.950 . S
H1286 C1282 0.950 . S
C1287 C1285 1.390 . S
C1287 C1288 1.387 . S
C1287 H1290 0.950 . S
C1288 C1287 1.387 . S
C1288 C1291 1.387 . S
H1289 C1285 0.950 . S
H1290 C1287 0.950 . S
C1291 C1282 1.390 . S
C1291 H1284 0.950 . S
C1291 C1288 1.387 . S
C1292 C1293 1.387 . S
C1292 H1296 0.950 . S
C1292 C1301 1.390 . S
C1293 C1292 1.387 . S
C1293 C1295 1.387 . S
H1294 C1301 0.950 . S
C1295 C1293 1.387 . S
C1295 C1297 1.390 . S
C1295 H1299 0.950 . S
H1296 C1292 0.950 . S
C1297 C1295 1.390 . S
C1297 C1298 1.387 . S
C1297 H1300 0.950 . S
C1298 C1297 1.387 . S
C1298 C1301 1.387 . S
H1299 C1295 0.950 . S
H1300 C1297 0.950 . S
C1301 C1292 1.390 . S
C1301 H1294 0.950 . S
C1301 C1298 1.387 . S
C1302 C1303 1.387 . S
C1302 H1306 0.950 . S
C1302 C1311 1.390 . S
C1303 C1302 1.387 . S
C1303 C1305 1.387 1_554 S
H1304 C1311 0.950 . S
C1305 C1303 1.387 1_556 S
C1305 C1307 1.390 . S
C1305 H1309 0.950 . S
H1306 C1302 0.950 . S
C1307 C1305 1.390 . S
C1307 C1308 1.388 1_556 S
C1307 H1310 0.950 1_565 S
C1308 C1307 1.388 1_554 S
C1308 C1311 1.395 . S
H1309 C1305 0.950 . S
H1310 C1307 0.950 1_545 S
C1311 C1302 1.390 . S
C1311 H1304 0.950 . S
C1311 C1308 1.395 . S
C1312 C1313 1.387 . S
C1312 H1316 0.950 . S
C1312 C1321 1.390 . S
C1313 C1312 1.387 . S
C1313 C1315 1.387 . S
H1314 C1321 0.950 . S
C1315 C1313 1.387 . S
C1315 C1317 1.390 . S
C1315 H1319 0.950 . S
H1316 C1312 0.950 . S
C1317 C1315 1.390 . S
C1317 C1318 1.387 . S
C1317 H1320 0.950 . S
C1318 C1317 1.387 . S
C1318 C1321 1.387 . S
H1319 C1315 0.950 . S
H1320 C1317 0.950 . S
C1321 C1312 1.390 . S
C1321 H1314 0.950 . S
C1321 C1318 1.387 . S
C1322 C1323 1.387 . S
C1322 H1326 0.950 . S
C1322 C1331 1.390 . S
C1323 C1322 1.387 . S
C1323 C1325 1.387 . S
H1324 C1331 0.950 . S
C1325 C1323 1.387 . S
C1325 C1327 1.390 . S
C1325 H1329 0.950 1_554 S
H1326 C1322 0.950 . S
C1327 C1325 1.390 . S
C1327 C1328 1.387 . S
C1327 H1330 0.950 1_554 S
C1328 C1327 1.387 . S
C1328 C1331 1.387 . S
H1329 C1325 0.950 1_556 S
H1330 C1327 0.950 1_556 S
C1331 C1322 1.390 . S
C1331 H1324 0.950 . S
C1331 C1328 1.387 . S
C1332 C1333 1.387 . S
C1332 H1336 0.950 . S
C1332 C1341 1.390 . S
C1333 C1332 1.387 . S
C1333 C1335 1.387 . S
H1334 C1341 0.950 . S
C1335 C1333 1.387 . S
C1335 C1337 1.390 . S
C1335 H1339 0.950 . S
H1336 C1332 0.950 . S
C1337 C1335 1.390 . S
C1337 C1338 1.387 . S
C1337 H1340 0.950 . S
C1338 C1337 1.387 . S
C1338 C1341 1.387 . S
H1339 C1335 0.950 . S
H1340 C1337 0.950 . S
C1341 C1332 1.390 . S
C1341 H1334 0.950 . S
C1341 C1338 1.387 . S
C1342 C1343 1.387 . S
C1342 H1346 0.950 . S
C1342 C1351 1.390 . S
C1343 C1342 1.387 . S
C1343 C1345 1.387 . S
H1344 C1351 0.950 . S
C1345 C1343 1.387 . S
C1345 C1347 1.390 . S
C1345 H1349 0.950 . S
H1346 C1342 0.950 . S
C1347 C1345 1.390 . S
C1347 C1348 1.387 . S
C1347 H1350 0.950 . S
C1348 C1347 1.387 . S
C1348 C1351 1.387 . S
H1349 C1345 0.950 . S
H1350 C1347 0.950 . S
C1351 C1342 1.390 . S
C1351 H1344 0.950 . S
C1351 C1348 1.387 . S
C1352 C1353 1.387 . S
C1352 H1356 0.950 . S
C1352 C1361 1.390 . S
C1353 C1352 1.387 . S
C1353 C1355 1.387 . S
H1354 C1361 0.950 . S
C1355 C1353 1.387 . S
C1355 C1357 1.390 . S
C1355 H1359 0.950 . S
H1356 C1352 0.950 . S
C1357 C1355 1.390 . S
C1357 C1358 1.387 . S
C1357 H1360 0.950 . S
C1358 C1357 1.387 . S
C1358 C1361 1.387 . S
H1359 C1355 0.950 . S
H1360 C1357 0.950 . S
C1361 C1352 1.390 . S
C1361 H1354 0.950 . S
C1361 C1358 1.387 . S
C1362 C1363 1.387 . S
C1362 H1366 0.950 . S
C1362 C1371 1.390 . S
C1363 C1362 1.387 . S
C1363 C1365 1.387 . S
H1364 C1371 0.950 . S
C1365 C1363 1.387 . S
C1365 C1367 1.390 . S
C1365 H1369 0.950 . S
H1366 C1362 0.950 . S
C1367 C1365 1.390 . S
C1367 C1368 1.387 . S
C1367 H1370 0.950 . S
C1368 C1367 1.387 . S
C1368 C1371 1.387 . S
H1369 C1365 0.950 . S
H1370 C1367 0.950 . S
C1371 C1362 1.390 . S
C1371 H1364 0.950 . S
C1371 C1368 1.387 . S
C1372 C1373 1.387 1_655 S
C1372 H1376 0.950 . S
C1372 C1381 1.390 . S
C1373 C1372 1.387 1_455 S
C1373 C1375 1.387 . S
H1374 C1381 0.950 . S
C1375 C1373 1.387 . S
C1375 C1377 1.390 . S
C1375 H1379 0.950 . S
H1376 C1372 0.950 . S
C1377 C1375 1.390 . S
C1377 C1378 1.387 . S
C1377 H1380 0.950 . S
C1378 C1377 1.387 . S
C1378 C1381 1.387 1_455 S
H1379 C1375 0.950 . S
H1380 C1377 0.950 . S
C1381 C1372 1.390 . S
C1381 H1374 0.950 . S
C1381 C1378 1.387 1_655 S
C1382 C1383 1.387 . S
C1382 H1386 0.950 . S
C1382 C1391 1.390 . S
C1383 C1382 1.387 . S
C1383 C1385 1.387 . S
H1384 C1391 0.950 . S
C1385 C1383 1.387 . S
C1385 C1387 1.390 . S
C1385 H1389 0.950 . S
H1386 C1382 0.950 . S
C1387 C1385 1.390 . S
C1387 C1388 1.387 . S
C1387 H1390 0.950 . S
C1388 C1387 1.387 . S
C1388 C1391 1.387 . S
H1389 C1385 0.950 . S
H1390 C1387 0.950 . S
C1391 C1382 1.390 . S
C1391 H1384 0.950 . S
C1391 C1388 1.387 . S
C1392 C1393 1.387 . S
C1392 H1396 0.950 . S
C1392 C1401 1.390 . S
C1393 C1392 1.387 . S
C1393 C1395 1.387 . S
H1394 C1401 0.950 . S
C1395 C1393 1.387 . S
C1395 C1397 1.390 . S
C1395 H1399 0.950 . S
H1396 C1392 0.950 . S
C1397 C1395 1.390 . S
C1397 C1398 1.387 . S
C1397 H1400 0.950 . S
C1398 C1397 1.387 . S
C1398 C1401 1.387 . S
H1399 C1395 0.950 . S
H1400 C1397 0.950 . S
C1401 C1392 1.390 . S
C1401 H1394 0.950 . S
C1401 C1398 1.387 . S
C1402 C1403 1.387 . S
C1402 H1406 0.950 . S
C1402 C1411 1.390 . S
C1403 C1402 1.387 . S
C1403 C1405 1.387 . S
H1404 C1411 0.950 . S
C1405 C1403 1.387 . S
C1405 C1407 1.390 . S
C1405 H1409 0.950 . S
H1406 C1402 0.950 . S
C1407 C1405 1.390 . S
C1407 C1408 1.387 . S
C1407 H1410 0.950 . S
C1408 C1407 1.387 . S
C1408 C1411 1.387 . S
H1409 C1405 0.950 . S
H1410 C1407 0.950 . S
C1411 C1402 1.390 . S
C1411 H1404 0.950 . S
C1411 C1408 1.387 . S
C1412 C1413 1.387 . S
C1412 H1416 0.950 1_455 S
C1412 C1421 1.390 . S
C1413 C1412 1.387 . S
C1413 C1415 1.387 . S
H1414 C1421 0.950 1_655 S
C1415 C1413 1.387 . S
C1415 C1417 1.390 . S
C1415 H1419 0.950 . S
H1416 C1412 0.950 1_655 S
C1417 C1415 1.390 . S
C1417 C1418 1.387 . S
C1417 H1420 0.950 . S
C1418 C1417 1.387 . S
C1418 C1421 1.387 . S
H1419 C1415 0.950 . S
H1420 C1417 0.950 . S
C1421 C1412 1.390 . S
C1421 H1414 0.950 1_455 S
C1421 C1418 1.387 . S
C1422 C1423 1.387 . S
C1422 H1426 0.950 . S
C1422 C1431 1.390 . S
C1423 C1422 1.387 . S
C1423 C1425 1.387 . S
H1424 C1431 0.950 . S
C1425 C1423 1.387 . S
C1425 C1427 1.390 . S
C1425 H1429 0.950 . S
H1426 C1422 0.950 . S
C1427 C1425 1.390 . S
C1427 C1428 1.387 . S
C1427 H1430 0.950 . S
C1428 C1427 1.387 . S
C1428 C1431 1.387 . S
H1429 C1425 0.950 . S
H1430 C1427 0.950 . S
C1431 C1422 1.390 . S
C1431 H1424 0.950 . S
C1431 C1428 1.387 . S
C1432 C1433 1.387 . S
C1432 H1436 0.950 . S
C1432 C1441 1.390 . S
C1433 C1432 1.387 . S
C1433 C1435 1.387 . S
H1434 C1441 0.950 . S
C1435 C1433 1.387 . S
C1435 C1437 1.390 . S
C1435 H1439 0.950 . S
H1436 C1432 0.950 . S
C1437 C1435 1.390 . S
C1437 C1438 1.387 . S
C1437 H1440 0.950 . S
C1438 C1437 1.387 . S
C1438 C1441 1.387 . S
H1439 C1435 0.950 . S
H1440 C1437 0.950 . S
C1441 C1432 1.390 . S
C1441 H1434 0.950 . S
C1441 C1438 1.387 . S
C1442 C1443 1.387 . S
C1442 H1446 0.950 . S
C1442 C1451 1.390 . S
C1443 C1442 1.387 . S
C1443 C1445 1.387 . S
H1444 C1451 0.950 . S
C1445 C1443 1.387 . S
C1445 C1447 1.390 . S
C1445 H1449 0.950 . S
H1446 C1442 0.950 . S
C1447 C1445 1.390 . S
C1447 C1448 1.387 . S
C1447 H1450 0.950 . S
C1448 C1447 1.387 . S
C1448 C1451 1.387 . S
H1449 C1445 0.950 . S
H1450 C1447 0.950 . S
C1451 C1442 1.390 . S
C1451 H1444 0.950 . S
C1451 C1448 1.387 . S
C1452 C1453 1.387 . S
C1452 H1456 0.950 . S
C1452 C1461 1.390 . S
C1453 C1452 1.387 . S
C1453 C1455 1.387 . S
H1454 C1461 0.950 . S
C1455 C1453 1.387 . S
C1455 C1457 1.390 . S
C1455 H1459 0.950 . S
H1456 C1452 0.950 . S
C1457 C1455 1.390 . S
C1457 C1458 1.387 . S
C1457 H1460 0.950 . S
C1458 C1457 1.387 . S
C1458 C1461 1.387 . S
H1459 C1455 0.950 . S
H1460 C1457 0.950 . S
C1461 C1452 1.390 . S
C1461 H1454 0.950 . S
C1461 C1458 1.387 . S
C1462 C1463 1.387 . S
C1462 H1466 0.950 . S
C1462 C1471 1.390 . S
C1463 C1462 1.387 . S
C1463 C1465 1.387 . S
H1464 C1471 0.950 . S
C1465 C1463 1.387 . S
C1465 C1467 1.390 . S
C1465 H1469 0.950 . S
H1466 C1462 0.950 . S
C1467 C1465 1.390 . S
C1467 C1468 1.387 . S
C1467 H1470 0.950 . S
C1468 C1467 1.387 . S
C1468 C1471 1.387 . S
H1469 C1465 0.950 . S
H1470 C1467 0.950 . S
C1471 C1462 1.390 . S
C1471 H1464 0.950 . S
C1471 C1468 1.387 . S
C1472 C1473 1.387 . S
C1472 H1476 0.950 . S
C1472 C1481 1.390 . S
C1473 C1472 1.387 . S
C1473 C1475 1.387 . S
H1474 C1481 0.950 . S
C1475 C1473 1.387 . S
C1475 C1477 1.390 . S
C1475 H1479 0.950 . S
H1476 C1472 0.950 . S
C1477 C1475 1.390 . S
C1477 C1478 1.387 . S
C1477 H1480 0.950 . S
C1478 C1477 1.387 . S
C1478 C1481 1.387 . S
H1479 C1475 0.950 . S
H1480 C1477 0.950 . S
C1481 C1472 1.390 . S
C1481 H1474 0.950 . S
C1481 C1478 1.387 . S
C1482 C1483 1.387 . S
C1482 H1486 0.950 . S
C1482 C1491 1.390 . S
C1483 C1482 1.387 . S
C1483 C1485 1.387 . S
H1484 C1491 0.950 . S
C1485 C1483 1.387 . S
C1485 C1487 1.390 . S
C1485 H1489 0.950 . S
H1486 C1482 0.950 . S
C1487 C1485 1.390 . S
C1487 C1488 1.387 . S
C1487 H1490 0.950 . S
C1488 C1487 1.387 . S
C1488 C1491 1.387 . S
H1489 C1485 0.950 . S
H1490 C1487 0.950 . S
C1491 C1482 1.390 . S
C1491 H1484 0.950 . S
C1491 C1488 1.387 . S
C1492 C1493 1.387 . S
C1492 H1496 0.950 . S
C1492 C1501 1.390 . S
C1493 C1492 1.387 . S
C1493 C1495 1.387 . S
H1494 C1501 0.950 . S
C1495 C1493 1.387 . S
C1495 C1497 1.390 . S
C1495 H1499 0.950 . S
H1496 C1492 0.950 . S
C1497 C1495 1.390 . S
C1497 C1498 1.387 . S
C1497 H1500 0.950 . S
C1498 C1497 1.387 . S
C1498 C1501 1.387 . S
H1499 C1495 0.950 . S
H1500 C1497 0.950 . S
C1501 C1492 1.390 . S
C1501 H1494 0.950 . S
C1501 C1498 1.387 . S
C1502 C1503 1.387 . S
C1502 H1506 0.950 . S
C1502 C1511 1.390 . S
C1503 C1502 1.387 . S
C1503 C1505 1.387 . S
H1504 C1511 0.950 . S
C1505 C1503 1.387 . S
C1505 C1507 1.390 . S
C1505 H1509 0.950 . S
H1506 C1502 0.950 . S
C1507 C1505 1.390 . S
C1507 C1508 1.387 . S
C1507 H1510 0.950 . S
C1508 C1507 1.387 . S
C1508 C1511 1.387 . S
H1509 C1505 0.950 . S
H1510 C1507 0.950 . S
C1511 C1502 1.390 . S
C1511 H1504 0.950 . S
C1511 C1508 1.387 . S
C1512 C1513 1.387 . S
C1512 H1516 0.950 . S
C1512 C1521 1.390 . S
C1513 C1512 1.387 . S
C1513 C1515 1.387 . S
H1514 C1521 0.950 . S
C1515 C1513 1.387 . S
C1515 C1517 1.390 . S
C1515 H1519 0.950 . S
H1516 C1512 0.950 . S
C1517 C1515 1.390 . S
C1517 C1518 1.387 . S
C1517 H1520 0.950 . S
C1518 C1517 1.387 . S
C1518 C1521 1.387 . S
H1519 C1515 0.950 . S
H1520 C1517 0.950 . S
C1521 C1512 1.390 . S
C1521 H1514 0.950 . S
C1521 C1518 1.387 . S
C1522 C1523 1.387 . S
C1522 H1526 0.950 . S
C1522 C1531 1.390 . S
C1523 C1522 1.387 . S
C1523 C1525 1.387 . S
H1524 C1531 0.950 . S
C1525 C1523 1.387 . S
C1525 C1527 1.390 . S
C1525 H1529 0.950 . S
H1526 C1522 0.950 . S
C1527 C1525 1.390 . S
C1527 C1528 1.387 . S
C1527 H1530 0.950 . S
C1528 C1527 1.387 . S
C1528 C1531 1.387 . S
H1529 C1525 0.950 . S
H1530 C1527 0.950 . S
C1531 C1522 1.390 . S
C1531 H1524 0.950 . S
C1531 C1528 1.387 . S
C1532 C1533 1.387 . S
C1532 H1536 0.950 . S
C1532 C1541 1.390 . S
C1533 C1532 1.387 . S
C1533 C1535 1.387 . S
H1534 C1541 0.950 . S
C1535 C1533 1.387 . S
C1535 C1537 1.390 . S
C1535 H1539 0.950 . S
H1536 C1532 0.950 . S
C1537 C1535 1.390 . S
C1537 C1538 1.387 . S
C1537 H1540 0.950 . S
C1538 C1537 1.387 . S
C1538 C1541 1.387 . S
H1539 C1535 0.950 . S
H1540 C1537 0.950 . S
C1541 C1532 1.390 . S
C1541 H1534 0.950 . S
C1541 C1538 1.387 . S
C1542 C1543 1.387 1_554 S
C1542 H1546 0.950 . S
C1542 C1551 1.390 . S
C1543 C1542 1.387 1_556 S
C1543 C1545 1.387 . S
H1544 C1551 0.950 . S
C1545 C1543 1.387 . S
C1545 C1547 1.390 . S
C1545 H1549 0.950 . S
H1546 C1542 0.950 . S
C1547 C1545 1.390 . S
C1547 C1548 1.387 1_556 S
C1547 H1550 0.950 . S
C1548 C1547 1.387 1_554 S
C1548 C1551 1.388 . S
H1549 C1545 0.950 . S
H1550 C1547 0.950 . S
C1551 C1542 1.390 . S
C1551 H1544 0.950 . S
C1551 C1548 1.388 . S
C1552 C1553 1.387 . S
C1552 H1556 0.950 . S
C1552 C1561 1.390 . S
C1553 C1552 1.387 . S
C1553 C1555 1.387 . S
H1554 C1561 0.950 . S
C1555 C1553 1.387 . S
C1555 C1557 1.390 . S
C1555 H1559 0.950 . S
H1556 C1552 0.950 . S
C1557 C1555 1.390 . S
C1557 C1558 1.387 . S
C1557 H1560 0.950 . S
C1558 C1557 1.387 . S
C1558 C1561 1.387 . S
H1559 C1555 0.950 . S
H1560 C1557 0.950 . S
C1561 C1552 1.390 . S
C1561 H1554 0.950 . S
C1561 C1558 1.387 . S
C1562 C1563 1.387 . S
C1562 H1566 0.950 . S
C1562 C1571 1.390 . S
C1563 C1562 1.387 . S
C1563 C1565 1.387 1_554 S
H1564 C1571 0.950 . S
C1565 C1563 1.387 1_556 S
C1565 C1567 1.390 . S
C1565 H1569 0.950 . S
H1566 C1562 0.950 . S
C1567 C1565 1.390 . S
C1567 C1568 1.387 1_556 S
C1567 H1570 0.950 . S
C1568 C1567 1.387 1_554 S
C1568 C1571 1.387 . S
H1569 C1565 0.950 . S
H1570 C1567 0.950 . S
C1571 C1562 1.390 . S
C1571 H1564 0.950 . S
C1571 C1568 1.387 . S
C1572 C1573 1.387 . S
C1572 H1576 0.950 . S
C1572 C1581 1.390 . S
C1573 C1572 1.387 . S
C1573 C1575 1.387 . S
H1574 C1581 0.950 . S
C1575 C1573 1.387 . S
C1575 C1577 1.390 . S
C1575 H1579 0.950 . S
H1576 C1572 0.950 . S
C1577 C1575 1.390 . S
C1577 C1578 1.387 . S
C1577 H1580 0.950 . S
C1578 C1577 1.387 . S
C1578 C1581 1.387 . S
H1579 C1575 0.950 . S
H1580 C1577 0.950 . S
C1581 C1572 1.390 . S
C1581 H1574 0.950 . S
C1581 C1578 1.387 . S
C1582 C1583 1.387 . S
C1582 H1586 0.950 . S
C1582 C1591 1.390 . S
C1583 C1582 1.387 . S
C1583 C1585 1.387 . S
H1584 C1591 0.950 . S
C1585 C1583 1.387 . S
C1585 C1587 1.390 . S
C1585 H1589 0.950 . S
H1586 C1582 0.950 . S
C1587 C1585 1.390 . S
C1587 C1588 1.387 . S
C1587 H1590 0.950 . S
C1588 C1587 1.387 . S
C1588 C1591 1.387 . S
H1589 C1585 0.950 . S
H1590 C1587 0.950 . S
C1591 C1582 1.390 . S
C1591 H1584 0.950 . S
C1591 C1588 1.387 . S
C633 C101 1.640 . S
C638 C330 1.562 1_556 S
C643 C57 1.703 . S
C648 C341 1.750 . S
C653 C70 1.176 . S
C658 C370 1.103 . S
C668 C373 1.475 . S
C663 C82 1.473 . S
C673 C23 1.680 . S
C678 C411 1.600 . S
C688 C414 1.236 . S
C683 C29 1.232 . S
C698 C441 1.553 . S
C693 C49 1.516 . S
C703 C10 1.757 . S
C708 C470 1.640 . S
C718 C321 1.684 1_655 S
C713 C218 1.650 . S
C723 C226 1.178 . S
C728 C333 1.161 . S
C738 C361 1.592 . S
C733 C251 1.574 . S
C748 C390 1.177 . S
C743 C159 1.214 . S
C753 C211 1.240 . S
C758 C394 1.257 1_655 S
C768 C420 1.641 . S
C763 C225 1.651 . S
C778 C433 0.957 . S
C773 C252 0.963 . S
C788 C461 1.657 . S
C783 C166 1.655 . S
C798 C313 1.588 1_565 S
C793 C147 1.612 . S
C803 C263 1.752 . S
C808 C480 1.737 . S
C818 C511 1.647 . S
C813 C309 1.737 . S
C828 C530 1.002 . S
C823 C291 1.039 . S
C833 C108 1.518 . S
C838 C453 1.528 . S
C843 C121 1.614 . S
C848 C353 1.625 . S
C853 C302 1.569 . S
C858 C541 1.592 . S
C868 C570 1.064 . S
C863 C276 1.136 . S
C878 C331 1.710 . S
C873 C55 1.750 . S
C888 C560 1.792 . S
C883 C96 1.786 . S
C893 C88 1.343 . S
C898 C371 1.300 . S
C903 C75 1.583 . S
C908 C534 1.567 . S
C918 C410 1.709 . S
C913 C4 1.788 . S
C923 C44 1.284 . S
C928 C493 1.304 . S
C938 C440 1.674 . S
C933 C31 1.679 . S
C948 C591 1.734 . S
C943 C18 1.815 . S
C958 C320 1.735 . S
C953 C133 1.732 . S
C968 C554 1.188 . S
C963 C296 1.216 . S
C973 C107 1.674 . S
C978 C360 1.662 . S
C983 C264 1.467 . S
C988 C551 1.454 . S
C993 C140 1.311 . S
C998 C393 1.340 . S
C1008 C501 1.687 . S
C1003 C289 1.710 . S
C1013 C114 1.093 . S
C1018 C434 1.068 . S
C1023 C265 1.793 . S
C1028 C580 1.775 . S
C1033 C179 1.639 . S
C1038 C314 1.605 . S
C1043 C161 1.826 . S
C1048 C481 1.798 . S
C1053 C244 1.802 . S
C1058 C430 1.722 . S
C1063 C224 1.264 . S
C1068 C531 1.244 . S
C1078 C574 1.515 . S
C1073 C257 1.527 . S
C1083 C199 1.657 . S
C1088 C354 1.648 . S
C1098 C380 1.704 . S
C1093 C237 1.716 . S
C1108 C351 1.183 . S
C1103 C185 1.222 . S
C1113 C69 1.639 . S
C1118 C610 1.561 . S
C1128 C561 1.750 . S
C1123 C83 1.702 . S
C1133 C94 1.177 . S
C1138 C630 1.099 1_556 S
C1143 C56 1.471 . S
C1148 C533 1.475 . S
C1153 C42 1.690 . S
C1158 C491 1.604 . S
C1168 C494 1.234 . S
C1163 C3 1.230 . S
C1178 C521 1.562 . S
C1173 C16 1.523 . S
C1188 C590 1.636 . S
C1183 C36 1.755 . S
C1198 C601 1.689 . S
C1193 C238 1.647 . S
C1203 C174 1.174 . S
C1208 C553 1.156 . S
C1218 C621 1.595 . S
C1213 C186 1.572 . S
C1228 C550 1.179 . S
C1223 C198 1.214 . S
C1238 C474 1.259 . S
C1233 C239 1.242 . S
C1243 C173 1.651 . S
C1248 C500 1.641 . S
C1258 C513 0.960 . S
C1253 C187 0.966 . S
C1263 C205 1.656 . S
C1268 C581 1.657 . S
C1278 C593 1.587 . S
C1273 C290 1.612 . S
C1283 C122 1.750 . S
C1288 C400 1.736 . S
C1298 C431 1.651 . S
C1293 C134 1.739 . S
C1308 C450 0.994 1_565 S
C1303 C148 1.036 . S
C1318 C573 1.527 . S
C1313 C283 1.518 . S
C1323 C270 1.615 . S
C1328 C613 1.624 . S
C1338 C381 1.592 . S
C1333 C135 1.568 . S
C1348 C350 1.063 . S
C1343 C109 1.136 . S
C1353 C81 1.750 . S
C1358 C611 1.710 . S
C1368 C340 1.791 . S
C1363 C68 1.785 . S
C1373 C62 1.343 . S
C1378 C631 1.300 . S
C1383 C95 1.582 . S
C1388 C374 1.566 . S
C1393 C30 1.788 . S
C1398 C490 1.710 . S
C1408 C413 1.296 . S
C1403 C17 1.281 . S
C1413 C5 1.681 . S
C1418 C520 1.675 . S
C1423 C43 1.809 . S
C1428 C471 1.729 . S
C1438 C600 1.736 . S
C1433 C304 1.731 . S
C1443 C153 1.216 . S
C1448 C334 1.187 . S
C1458 C620 1.664 1_655 S
C1453 C278 1.674 . S
C1463 C127 1.465 . S
C1468 C391 1.455 . S
C1473 C303 1.308 . S
C1478 C473 1.335 . S
C1488 C421 1.686 . S
C1483 C146 1.710 . S
C1493 C277 1.091 . S
C1498 C514 1.068 . S
C1508 C460 1.775 . S
C1503 C120 1.792 . S
C1518 C594 1.605 . S
C1513 C231 1.640 . S
C1528 C401 1.798 . S
C1523 C200 1.826 . S
C1533 C212 1.803 . S
C1538 C510 1.722 . S
C1548 C451 1.243 . S
C1543 C172 1.264 1_556 S
C1553 C192 1.527 . S
C1558 C454 1.513 . S
C1563 C160 1.659 . S
C1568 C614 1.650 . S
C1578 C540 1.705 . S
C1573 C213 1.717 . S
C1588 C571 1.184 . S
C1583 C250 1.223 . S
