# Generated by pormake.
# Topology ant, (3,6)-cn, num edge types: 1
# Building blocks:
#     Node 0, Type 0, BuildingBlock: OLANEW_clean_sbu_2, # of connection points: 3
#     Node 1, Type 0, BuildingBlock: OLANEW_clean_sbu_2, # of connection points: 3
#     Node 2, Type 0, BuildingBlock: OLANEW_clean_sbu_2, # of connection points: 3
#     Node 3, Type 0, BuildingBlock: OLANEW_clean_sbu_2, # of connection points: 3
#     Node 4, Type 0, BuildingBlock: OLANEW_clean_sbu_2, # of connection points: 3
#     Node 5, Type 0, BuildingBlock: OLANEW_clean_sbu_2, # of connection points: 3
#     Node 6, Type 0, BuildingBlock: OLANEW_clean_sbu_2, # of connection points: 3
#     Node 7, Type 0, BuildingBlock: OLANEW_clean_sbu_2, # of connection points: 3
#     Node 8, Type 1, BuildingBlock: MIDCAF_clean_sbu_0, # of connection points: 6
#     Node 9, Type 1, BuildingBlock: MIDCAF_clean_sbu_0, # of connection points: 6
#     Node 10, Type 1, BuildingBlock: MIDCAF_clean_sbu_0, # of connection points: 6
#     Node 11, Type 1, BuildingBlock: MIDCAF_clean_sbu_0, # of connection points: 6
#     Edge 12, Type (0, 1), BuildingBlock: OJICUG_clean_linker_0, # of connection points: 2
#     Edge 13, Type (0, 1), BuildingBlock: OJICUG_clean_linker_0, # of connection points: 2
#     Edge 14, Type (0, 1), BuildingBlock: OJICUG_clean_linker_0, # of connection points: 2
#     Edge 15, Type (0, 1), BuildingBlock: OJICUG_clean_linker_0, # of connection points: 2
#     Edge 16, Type (0, 1), BuildingBlock: OJICUG_clean_linker_0, # of connection points: 2
#     Edge 17, Type (0, 1), BuildingBlock: OJICUG_clean_linker_0, # of connection points: 2
#     Edge 18, Type (0, 1), BuildingBlock: OJICUG_clean_linker_0, # of connection points: 2
#     Edge 19, Type (0, 1), BuildingBlock: OJICUG_clean_linker_0, # of connection points: 2
#     Edge 20, Type (0, 1), BuildingBlock: OJICUG_clean_linker_0, # of connection points: 2
#     Edge 21, Type (0, 1), BuildingBlock: OJICUG_clean_linker_0, # of connection points: 2
#     Edge 22, Type (0, 1), BuildingBlock: OJICUG_clean_linker_0, # of connection points: 2
#     Edge 23, Type (0, 1), BuildingBlock: OJICUG_clean_linker_0, # of connection points: 2
#     Edge 24, Type (0, 1), BuildingBlock: OJICUG_clean_linker_0, # of connection points: 2
#     Edge 25, Type (0, 1), BuildingBlock: OJICUG_clean_linker_0, # of connection points: 2
#     Edge 26, Type (0, 1), BuildingBlock: OJICUG_clean_linker_0, # of connection points: 2
#     Edge 27, Type (0, 1), BuildingBlock: OJICUG_clean_linker_0, # of connection points: 2
#     Edge 28, Type (0, 1), BuildingBlock: OJICUG_clean_linker_0, # of connection points: 2
#     Edge 29, Type (0, 1), BuildingBlock: OJICUG_clean_linker_0, # of connection points: 2
#     Edge 30, Type (0, 1), BuildingBlock: OJICUG_clean_linker_0, # of connection points: 2
#     Edge 31, Type (0, 1), BuildingBlock: OJICUG_clean_linker_0, # of connection points: 2
#     Edge 32, Type (0, 1), BuildingBlock: OJICUG_clean_linker_0, # of connection points: 2
#     Edge 33, Type (0, 1), BuildingBlock: OJICUG_clean_linker_0, # of connection points: 2
#     Edge 34, Type (0, 1), BuildingBlock: OJICUG_clean_linker_0, # of connection points: 2
#     Edge 35, Type (0, 1), BuildingBlock: OJICUG_clean_linker_0, # of connection points: 2
# Relax obj value: 0.058
# Max RMSD: 0.136
# Mean RMSD: 0.091
data_MOF--net-ant--node1-OLANEW_clean_sbu_2--node2-MIDCAF_clean_sbu_0--edge1-OJICUG_clean_linker_0
_symmetry_space_group_name_H-M    P1
_symmetry_Int_Tables_number       1
_symmetry_cell_setting            triclinic
loop_
_symmetry_equiv_pos_as_xyz
'x, y, z'
_cell_length_a     23.418708
_cell_length_b     23.410299
_cell_length_c     53.266812
_cell_angle_alpha  93.00284
_cell_angle_beta   93.829352
_cell_angle_gamma 89.792081
loop_
_atom_site_label
_atom_site_type_symbol
_atom_site_fract_x
_atom_site_fract_y
_atom_site_fract_z
_atom_type_partial_charge
O0 O 0.23921 0.15153 0.04281 0.0
Cd1 Cd 0.3127 0.16537 0.07775 0.0
O2 O 0.29396 0.19517 0.01798 0.0
Cd3 Cd 0.31067 0.263 0.04715 0.0
O4 O 0.27322 0.34301 0.06209 0.0
C5 C 0.25957 0.38457 0.04833 0.0
O6 O 0.2709 0.38141 0.02448 0.0
C7 C 0.25275 0.16143 0.02074 0.0
C8 C 0.33724 0.0561 0.09453 0.0
O9 O 0.30238 0.08952 0.10569 0.0
O10 O 0.36282 0.0754 0.07621 0.0
O11 O 0.07688 0.79685 0.28013 0.0
Cd12 Cd 0.09092 0.83847 0.32314 0.0
O13 O 0.04497 0.87408 0.26199 0.0
Cd14 Cd 0.01167 0.90382 0.29748 0.0
O15 O 0.93653 0.89569 0.31908 0.0
C16 C 0.90454 0.85265 0.31306 0.0
O17 O 0.91936 0.81596 0.29512 0.0
C18 C 0.06407 0.82329 0.26029 0.0
C19 C 0.20602 0.81681 0.33738 0.0
O20 O 0.16664 0.78042 0.34041 0.0
O21 O 0.1909 0.86502 0.3287 0.0
O22 O 0.73573 0.65501 0.52761 0.0
Cd23 Cd 0.8037 0.66627 0.5647 0.0
O24 O 0.78932 0.70873 0.50613 0.0
Cd25 Cd 0.80706 0.766 0.53925 0.0
O26 O 0.77327 0.84305 0.55835 0.0
C27 C 0.75342 0.88473 0.54597 0.0
O28 O 0.75547 0.88257 0.52135 0.0
C29 C 0.74941 0.6723 0.50661 0.0
C30 C 0.80267 0.56534 0.59048 0.0
O31 O 0.77153 0.6084 0.59652 0.0
O32 O 0.83616 0.57052 0.57267 0.0
O33 O 0.58897 0.26554 0.78902 0.0
Cd34 Cd 0.5979 0.31718 0.83011 0.0
O35 O 0.55098 0.33977 0.77062 0.0
Cd36 Cd 0.51121 0.36586 0.80505 0.0
O37 O 0.43565 0.35691 0.8262 0.0
C38 C 0.40486 0.31265 0.82098 0.0
O39 O 0.42087 0.27447 0.80388 0.0
C40 C 0.57541 0.29131 0.76907 0.0
C41 C 0.71431 0.30874 0.84471 0.0
O42 O 0.67754 0.27682 0.85396 0.0
O43 O 0.6959 0.34659 0.82965 0.0
O44 O 0.95803 0.7861 0.00649 0.0
Cd45 Cd 0.90103 0.86124 0.98682 0.0
O46 O 0.91792 0.72136 0.97986 0.0
Cd47 Cd 0.90722 0.63791 0.96045 0.0
O48 O 0.91587 0.56713 0.93305 0.0
C49 C 0.88498 0.52242 0.93038 0.0
O50 O 0.84259 0.51657 0.94499 0.0
C51 C 0.95388 0.73431 -0.00183 0.0
C52 C 0.96501 0.93 0.95761 0.0
O53 O 0.95823 0.94417 0.9808 0.0
O54 O 0.94216 0.88315 0.94839 0.0
O55 O 0.78079 0.89104 0.24149 0.0
Cd56 Cd 0.8105 0.94259 0.20586 0.0
O57 O 0.7314 0.84228 0.21151 0.0
Cd58 Cd 0.66157 0.78752 0.1957 0.0
O59 O 0.58104 0.75482 0.17796 0.0
C60 C 0.54527 0.79067 0.16904 0.0
O61 O 0.55863 0.84526 0.17067 0.0
C62 C 0.74433 0.85216 0.23489 0.0
C63 C 0.90242 0.89579 0.18143 0.0
O64 O 0.9092 0.93964 0.19677 0.0
O65 O 0.85259 0.87318 0.17807 0.0
O66 O 0.50527 0.295 0.48165 0.0
Cd67 Cd 0.43791 0.35676 0.45924 0.0
O68 O 0.44502 0.22343 0.47679 0.0
Cd69 Cd 0.41698 0.13477 0.47474 0.0
O70 O 0.41629 0.06831 0.44465 0.0
C71 C 0.38311 0.02598 0.43918 0.0
O72 O 0.34152 0.01552 0.45366 0.0
C73 C 0.49383 0.24296 0.48482 0.0
C74 C 0.49424 0.43813 0.4335 0.0
O75 O 0.47997 0.44914 0.45606 0.0
O76 O 0.48208 0.38857 0.4232 0.0
O77 O 0.2253 0.31832 0.7298 0.0
Cd78 Cd 0.24318 0.35359 0.68875 0.0
O79 O 0.18206 0.24218 0.71164 0.0
Cd80 Cd 0.16696 0.27534 0.67414 0.0
O81 O 0.08991 0.27076 0.64846 0.0
C82 C 0.04979 0.30738 0.64988 0.0
O83 O 0.05784 0.35319 0.66502 0.0
C84 C 0.20243 0.26964 0.73144 0.0
C85 C 0.34868 0.31584 0.67257 0.0
O86 O 0.34438 0.36283 0.68579 0.0
O87 O 0.30305 0.28648 0.66706 0.0
Zn88 Zn 0.21806 0.65152 0.14502 0.0
Zn89 Zn 0.15697 0.80148 0.08252 0.0
Zn90 Zn 0.18918 0.72689 0.11353 0.0
C91 C 0.13223 0.69894 0.05712 0.0
C92 C 0.26446 0.83463 0.09579 0.0
O93 O 0.14222 0.7389 0.14846 0.0
O94 O 0.17321 0.67247 0.17398 0.0
C95 C 0.18929 0.5887 0.10149 0.0
O96 O 0.15087 0.68061 0.07857 0.0
O97 O 0.13466 0.75148 0.0533 0.0
O98 O 0.22484 0.84685 0.07986 0.0
O99 O 0.25896 0.79201 0.10992 0.0
O100 O 0.19762 0.58195 0.12477 0.0
O101 O 0.1854 0.63976 0.09339 0.0
O102 O 0.27976 0.74524 0.12407 0.0
O103 O 0.30071 0.67224 0.14778 0.0
C104 C 0.31631 0.71643 0.13745 0.0
O105 O 0.11554 0.77014 0.12907 0.0
O106 O 0.09402 0.83674 0.10204 0.0
C107 C 0.14243 0.71571 0.1699 0.0
C108 C 0.08404 0.81213 0.12183 0.0
Zn109 Zn 0.5364 0.67658 0.32937 0.0
Zn110 Zn 0.6182 0.8293 0.39812 0.0
Zn111 Zn 0.57371 0.75448 0.3662 0.0
C112 C 0.51128 0.8695 0.38635 0.0
C113 C 0.69544 0.82084 0.36245 0.0
O114 O 0.5725 0.66861 0.38128 0.0
O115 O 0.55442 0.60705 0.34882 0.0
C116 C 0.44404 0.7506 0.34426 0.0
O117 O 0.50736 0.81894 0.37563 0.0
O118 O 0.5587 0.88791 0.396 0.0
O119 O 0.69156 0.84533 0.3839 0.0
O120 O 0.65418 0.7888 0.3526 0.0
O121 O 0.45562 0.70615 0.33099 0.0
O122 O 0.48369 0.77721 0.35808 0.0
O123 O 0.61902 0.76545 0.33177 0.0
O124 O 0.58462 0.70249 0.3022 0.0
C125 C 0.61699 0.74446 0.30885 0.0
O126 O 0.60425 0.70756 0.39902 0.0
O127 O 0.62175 0.77924 0.42713 0.0
C128 C 0.5644 0.6169 0.37228 0.0
C129 C 0.61884 0.72619 0.42165 0.0
Zn130 Zn 0.63333 0.28541 0.59596 0.0
Zn131 Zn 0.73765 0.15324 0.6456 0.0
Zn132 Zn 0.68623 0.222 0.61774 0.0
C133 C 0.82019 0.22849 0.62996 0.0
C134 C 0.69622 0.08717 0.60431 0.0
O135 O 0.6081 0.24781 0.6375 0.0
O136 O 0.55354 0.26668 0.60366 0.0
C137 C 0.71928 0.35032 0.61397 0.0
O138 O 0.77484 0.25476 0.62183 0.0
O139 O 0.81601 0.18094 0.63986 0.0
O140 O 0.71301 0.08199 0.62708 0.0
O141 O 0.68599 0.13738 0.59624 0.0
O142 O 0.6658 0.35714 0.61216 0.0
O143 O 0.73978 0.2991 0.61275 0.0
O144 O 0.65294 0.18034 0.58121 0.0
O145 O 0.65905 0.2606 0.56226 0.0
C146 C 0.65042 0.20736 0.56073 0.0
O147 O 0.64813 0.22495 0.6547 0.0
O148 O 0.70553 0.17171 0.67844 0.0
C149 C 0.55832 0.25843 0.62689 0.0
C150 C 0.66334 0.20513 0.67628 0.0
Zn151 Zn 0.02694 0.14332 0.84409 0.0
Zn152 Zn 0.12235 0.29849 0.90871 0.0
Zn153 Zn 0.07537 0.22094 0.87849 0.0
C154 C 0.12057 0.19893 0.93483 0.0
C155 C 0.01911 0.3431 0.89552 0.0
O156 O 0.12167 0.21979 0.84345 0.0
O157 O 0.08249 0.15107 0.81787 0.0
C158 C 0.04807 0.08911 0.88982 0.0
O159 O 0.10383 0.17766 0.91282 0.0
O160 O 0.1264 0.25227 0.93877 0.0
O161 O 0.06608 0.3599 0.90621 0.0
O162 O 0.01392 0.29196 0.8855 0.0
O163 O 0.0305 0.07845 0.8671 0.0
O164 O 0.06749 0.1392 0.89697 0.0
O165 O 0.98722 0.24936 0.86982 0.0
O166 O 0.95262 0.18648 0.84014 0.0
C167 C 0.94622 0.23079 0.85427 0.0
O168 O 0.15616 0.24924 0.86299 0.0
O169 O 0.19428 0.30975 0.89265 0.0
C170 C 0.11849 0.19108 0.82205 0.0
C171 C 0.19751 0.28245 0.87176 0.0
C172 C 0.20596 0.43355 0.08217 0.0
C173 C 0.23225 0.43639 0.05939 0.0
H174 H 0.16887 0.47948 0.11264 0.0
C175 C 0.23417 0.48941 0.04809 0.0
H176 H 0.20247 0.39323 0.09105 0.0
C177 C 0.21486 0.53946 0.06059 0.0
C178 C 0.19301 0.53693 0.08445 0.0
H179 H 0.25357 0.49276 0.03033 0.0
H180 H 0.22088 0.5803 0.05247 0.0
C181 C 0.18619 0.48306 0.09442 0.0
C182 C 0.81826 0.79424 0.32046 0.0
C183 C 0.85089 0.84437 0.32559 0.0
H184 H 0.744 0.74692 0.3285 0.0
C185 C 0.83159 0.88662 0.34272 0.0
H186 H 0.83205 0.76074 0.30743 0.0
C187 C 0.78075 0.87901 0.35441 0.0
C188 C 0.74805 0.82905 0.34923 0.0
H189 H 0.85563 0.92573 0.34707 0.0
H190 H 0.76692 0.91245 0.36748 0.0
C191 C 0.76759 0.78645 0.33235 0.0
C192 C 0.75618 0.50537 0.62061 0.0
C193 C 0.79458 0.50953 0.60165 0.0
H194 H 0.70318 0.45039 0.63985 0.0
C195 C 0.81819 0.45897 0.59115 0.0
H196 H 0.73789 0.54335 0.62939 0.0
C197 C 0.79863 0.40533 0.59745 0.0
C198 C 0.75516 0.40188 0.6142 0.0
H199 H 0.84834 0.46079 0.57666 0.0
H200 H 0.81343 0.36716 0.58747 0.0
C201 C 0.73652 0.45208 0.62674 0.0
C202 C 0.81274 0.30489 0.82952 0.0
C203 C 0.7762 0.29766 0.84901 0.0
H204 H 0.89569 0.28803 0.81584 0.0
C205 C 0.79816 0.27373 0.8713 0.0
H206 H 0.79677 0.32274 0.81205 0.0
C207 C 0.85511 0.25537 0.87366 0.0
C208 C 0.89029 0.25934 0.85353 0.0
H209 H 0.77085 0.26772 0.88658 0.0
H210 H 0.87078 0.23531 0.89066 0.0
C211 C 0.86913 0.28497 0.83161 0.0
C212 C 0.89176 0.4171 0.91985 0.0
C213 C 0.90501 0.47365 0.91462 0.0
H214 H 0.91839 0.32924 0.91706 0.0
C215 C 0.94606 0.48324 0.89725 0.0
H216 H 0.86 0.40845 0.93303 0.0
C217 C 0.97898 0.43813 0.88816 0.0
C218 C 0.97084 0.3828 0.89603 0.0
H219 H 0.95637 0.52625 0.89246 0.0
H220 H 0.01443 0.44737 0.87692 0.0
C221 C 0.92478 0.3717 0.91058 0.0
C222 C 0.95538 0.81497 0.16103 0.0
C223 C 0.94996 0.87381 0.16696 0.0
H224 H 0.00359 0.74908 0.14241 0.0
C225 C 0.98896 0.91205 0.15804 0.0
H226 H 0.9258 0.78472 0.16777 0.0
C227 C 0.03186 0.89195 0.14286 0.0
C228 C 0.03763 0.83314 0.13713 0.0
H229 H 0.98534 0.95765 0.16226 0.0
H230 H 0.06114 0.92224 0.13593 0.0
C231 C 0.99958 0.79467 0.14655 0.0
C232 C 0.52615 0.53897 0.42924 0.0
C233 C 0.52084 0.48239 0.4192 0.0
H234 H 0.54327 0.6259 0.42217 0.0
C235 C 0.53737 0.46943 0.39466 0.0
H236 H 0.51379 0.55041 0.44808 0.0
C237 C 0.55555 0.51274 0.37994 0.0
C238 C 0.55752 0.56993 0.38943 0.0
H239 H 0.53423 0.42616 0.38645 0.0
H240 H 0.56559 0.50175 0.36072 0.0
C241 C 0.54396 0.58229 0.41446 0.0
C242 C 0.98009 0.23627 0.62915 0.0
C243 C 0.99133 0.29205 0.63927 0.0
H244 H 0.91655 0.17272 0.61825 0.0
C245 C 0.94503 0.32987 0.64225 0.0
H246 H 0.01455 0.20607 0.6264 0.0
C247 C 0.88854 0.31074 0.63716 0.0
C248 C 0.87772 0.25344 0.62929 0.0
H249 H 0.95224 0.37323 0.64988 0.0
H250 H 0.85357 0.33941 0.64123 0.0
C251 C 0.92391 0.21706 0.62447 0.0
C252 C 0.45336 0.33146 0.66838 0.0
C253 C 0.40426 0.29738 0.66308 0.0
H254 H 0.54043 0.3461 0.66049 0.0
C255 C 0.40815 0.24733 0.64746 0.0
H256 H 0.45178 0.37052 0.68015 0.0
C257 C 0.45948 0.23289 0.63667 0.0
C258 C 0.50791 0.26774 0.64159 0.0
H259 H 0.3711 0.22025 0.64293 0.0
H260 H 0.46092 0.19543 0.62388 0.0
C261 C 0.50451 0.31701 0.65753 0.0
C262 C 0.47475 0.71314 0.1556 0.0
C263 C 0.48803 0.77168 0.15853 0.0
H264 H 0.41 0.64991 0.14617 0.0
C265 C 0.4452 0.81191 0.15253 0.0
H266 H 0.5068 0.68103 0.15997 0.0
C267 C 0.38969 0.79394 0.14473 0.0
C268 C 0.37612 0.73559 0.14245 0.0
H269 H 0.45389 0.85737 0.15477 0.0
H270 H 0.35679 0.82568 0.14192 0.0
C271 C 0.41935 0.69531 0.14767 0.0
C272 C 0.33087 0.3485 0.84963 0.0
C273 C 0.3513 0.30467 0.83361 0.0
H274 H 0.26585 0.37591 0.87384 0.0
C275 C 0.32002 0.25335 0.82977 0.0
H276 H 0.35377 0.38859 0.85294 0.0
C277 C 0.26966 0.2459 0.84197 0.0
C278 C 0.24924 0.28996 0.85786 0.0
H279 H 0.33476 0.21865 0.81758 0.0
H280 H 0.24723 0.20547 0.83926 0.0
C281 C 0.28045 0.34121 0.8616 0.0
C282 C 0.28295 0.74363 0.34285 0.0
C283 C 0.26721 0.80144 0.34171 0.0
H284 H 0.35119 0.68264 0.34423 0.0
C285 C 0.31055 0.84323 0.34283 0.0
H286 H 0.25075 0.71034 0.34194 0.0
C287 C 0.36843 0.82721 0.34451 0.0
C288 C 0.38375 0.76918 0.34461 0.0
H289 H 0.29974 0.88814 0.34195 0.0
H290 H 0.40104 0.85992 0.34468 0.0
C291 C 0.34048 0.72769 0.34401 0.0
C292 C 0.72358 0.98843 0.54781 0.0
C293 C 0.72973 0.9357 0.55932 0.0
H294 H 0.70715 0.07862 0.55299 0.0
C295 C 0.71513 0.93242 0.5843 0.0
H296 H 0.73394 0.99213 0.52844 0.0
C297 C 0.69876 0.98132 0.59805 0.0
C298 C 0.69731 0.03506 0.58733 0.0
H299 H 0.71811 0.89229 0.59356 0.0
H300 H 0.69036 0.97747 0.61765 0.0
C301 C 0.70765 0.03788 0.56174 0.0
C302 C 0.31539 0.97514 0.12117 0.0
C303 C 0.33989 0.99463 0.09981 0.0
H304 H 0.27464 0.9053 0.13722 0.0
C305 C 0.35593 0.95425 0.08108 0.0
H306 H 0.30314 0.00513 0.13605 0.0
C307 C 0.33945 0.897 0.08179 0.0
C308 C 0.30794 0.87924 0.10148 0.0
H309 H 0.37518 0.96783 0.06445 0.0
H310 H 0.34523 0.86836 0.06551 0.0
C311 C 0.29982 0.91772 0.12205 0.0
C312 C 0.43351 0.00293 0.40047 0.0
C313 C 0.39865 0.98456 0.41894 0.0
H314 H 0.49621 0.97888 0.37455 0.0
C315 C 0.38849 0.92572 0.42042 0.0
H316 H 0.44107 0.04808 0.39852 0.0
C317 C 0.41971 0.88592 0.40628 0.0
C318 C 0.46099 0.90502 0.39072 0.0
H319 H 0.36137 0.91047 0.43434 0.0
H320 H 0.41665 0.84093 0.40986 0.0
C321 C 0.4646 0.9634 0.38652 0.0
C322 C 0.01011 0.02426 0.95018 0.0
C323 C 0.99508 0.96821 0.9415 0.0
H324 H 0.03786 0.10672 0.94055 0.0
C325 C 0.00506 0.95045 0.91656 0.0
H326 H 0.00291 0.03935 0.96928 0.0
C327 C 0.02633 0.98884 0.90024 0.0
C328 C 0.03799 0.04595 0.90845 0.0
H329 H 0.99444 0.90742 0.90932 0.0
H330 H 0.03119 0.97442 0.88084 0.0
C331 C 0.03101 0.0628 0.93378 0.0
C332 C 0.15458 0.15809 0.00016 0.0
C333 C 0.21328 0.1471 -0.00131 0.0
H334 H 0.07719 0.18321 0.97987 0.0
C335 C 0.2351 0.13626 0.975 0.0
H336 H 0.13688 0.16692 0.01824 0.0
C337 C 0.20027 0.14337 0.95306 0.0
C338 C 0.14398 0.1631 0.95472 0.0
H339 H 0.28027 0.12769 0.97347 0.0
H340 H 0.21957 0.14103 0.9351 0.0
C341 C 0.12029 0.16709 0.97823 0.0
C342 C 0.08534 0.8284 0.21502 0.0
C343 C 0.07505 0.79558 0.23558 0.0
H344 H 0.11705 0.8288 0.17829 0.0
C345 C 0.08023 0.73581 0.23305 0.0
H346 H 0.08195 0.8746 0.21651 0.0
C347 C 0.09841 0.70955 0.21089 0.0
C348 C 0.11227 0.74254 0.1909 0.0
H349 H 0.07198 0.7094 0.24851 0.0
H350 H 0.104 0.66354 0.20982 0.0
C351 C 0.10466 0.80211 0.19298 0.0
C352 C 0.73406 0.65828 0.46011 0.0
C353 C 0.71108 0.66276 0.4838 0.0
H354 H 0.71997 0.67215 0.42076 0.0
C355 C 0.65219 0.67269 0.48524 0.0
H356 H 0.77944 0.65085 0.45863 0.0
C357 C 0.61866 0.6865 0.46372 0.0
C358 C 0.6433 0.68823 0.4405 0.0
H359 H 0.63366 0.67683 0.50335 0.0
H360 H 0.57518 0.70126 0.46566 0.0
C361 C 0.7 0.6701 0.43847 0.0
C362 C 0.5896 0.30049 0.72334 0.0
C363 C 0.5919 0.26686 0.74448 0.0
H364 H 0.613 0.30773 0.68551 0.0
C365 C 0.614 0.21104 0.74235 0.0
H366 H 0.5734 0.34388 0.72444 0.0
C367 C 0.63516 0.19002 0.71978 0.0
C368 C 0.6346 0.22442 0.69896 0.0
H369 H 0.61623 0.18401 0.75828 0.0
H370 H 0.6532 0.14734 0.71881 0.0
C371 C 0.61135 0.27959 0.70089 0.0
C372 C 0.04814 0.68655 -0.00158 0.0
C373 C 0.9947 0.69246 0.00869 0.0
H374 H 0.1383 0.67789 0.00666 0.0
C375 C 0.98849 0.67442 0.03306 0.0
H376 H 0.05395 0.70045 0.97967 0.0
C377 C 0.0368 0.65961 0.04831 0.0
C378 C 0.09172 0.66617 0.0397 0.0
H379 H 0.94763 0.67882 0.04139 0.0
H380 H 0.03172 0.65444 0.06814 0.0
C381 C 0.09649 0.67277 0.01383 0.0
C382 C 0.70056 0.85388 0.2763 0.0
C383 C 0.71367 0.82341 0.25404 0.0
H384 H 0.6575 0.85371 0.31041 0.0
C385 C 0.69559 0.76631 0.24999 0.0
H386 H 0.71353 0.89811 0.2798 0.0
C387 C 0.66459 0.74029 0.26787 0.0
C388 C 0.65099 0.77101 0.29007 0.0
H389 H 0.70593 0.74157 0.23316 0.0
H390 H 0.65141 0.69613 0.26435 0.0
C391 C 0.66869 0.8283 0.29389 0.0
C392 C 0.52179 0.17737 0.51913 0.0
C393 C 0.53694 0.20823 0.49866 0.0
H394 H 0.54932 0.14953 0.55572 0.0
C395 C 0.59509 0.21801 0.49557 0.0
H396 H 0.47719 0.16924 0.52189 0.0
C397 C 0.63641 0.20567 0.51462 0.0
C398 C 0.61989 0.18471 0.53726 0.0
H399 H 0.60793 0.2411 0.47976 0.0
H400 H 0.67973 0.22075 0.51323 0.0
C401 C 0.56332 0.16547 0.53841 0.0
C402 C 0.17871 0.18956 0.7581 0.0
C403 C 0.19273 0.24743 0.75629 0.0
H404 H 0.14566 0.12604 0.78067 0.0
C405 C 0.18982 0.28494 0.77764 0.0
H406 H 0.18095 0.15952 0.74202 0.0
C407 C 0.16863 0.26591 0.79969 0.0
C408 C 0.15138 0.20873 0.80098 0.0
H409 H 0.20007 0.32985 0.77678 0.0
H410 H 0.16265 0.2968 0.81513 0.0
C411 C 0.15846 0.17038 0.78024 0.0
loop_
_geom_bond_atom_site_label_1
_geom_bond_atom_site_label_2
_geom_bond_distance
_geom_bond_site_symmetry_2
_ccdc_geom_bond_type
O0 Cd1 2.300 . S
O0 C7 1.275 . S
Cd1 O0 2.300 . S
Cd1 O9 2.381 . S
Cd1 O10 2.378 . S
O2 Cd3 2.385 . S
O2 C7 1.255 . S
Cd3 O2 2.385 . S
Cd3 O4 2.317 . S
O4 Cd3 2.317 . S
O4 C5 1.232 . S
C5 O4 1.232 . S
C5 O6 1.218 . S
O6 C5 1.218 . S
C7 O0 1.275 . S
C7 O2 1.255 . S
C8 O9 1.258 . S
C8 O10 1.256 . S
O9 Cd1 2.381 . S
O9 C8 1.258 . S
O10 Cd1 2.378 . S
O10 C8 1.256 . S
O11 Cd12 2.300 . S
O11 C18 1.275 . S
Cd12 O11 2.300 . S
Cd12 O20 2.381 . S
Cd12 O21 2.378 . S
O13 Cd14 2.385 . S
O13 C18 1.255 . S
Cd14 O13 2.385 . S
Cd14 O15 2.317 . S
O15 Cd14 2.317 . S
O15 C16 1.232 1_455 S
C16 O15 1.232 1_655 S
C16 O17 1.218 . S
O17 C16 1.218 . S
C18 O11 1.275 . S
C18 O13 1.255 . S
C19 O20 1.258 . S
C19 O21 1.256 . S
O20 Cd12 2.381 . S
O20 C19 1.258 . S
O21 Cd12 2.378 . S
O21 C19 1.256 . S
O22 Cd23 2.300 . S
O22 C29 1.275 . S
Cd23 O22 2.300 . S
Cd23 O31 2.381 . S
Cd23 O32 2.378 . S
O24 Cd25 2.385 . S
O24 C29 1.255 . S
Cd25 O24 2.385 . S
Cd25 O26 2.317 . S
O26 Cd25 2.317 . S
O26 C27 1.232 . S
C27 O26 1.232 . S
C27 O28 1.218 . S
O28 C27 1.218 . S
C29 O22 1.275 . S
C29 O24 1.255 . S
C30 O31 1.258 . S
C30 O32 1.256 . S
O31 Cd23 2.381 . S
O31 C30 1.258 . S
O32 Cd23 2.378 . S
O32 C30 1.256 . S
O33 Cd34 2.300 . S
O33 C40 1.275 . S
Cd34 O33 2.300 . S
Cd34 O42 2.381 . S
Cd34 O43 2.378 . S
O35 Cd36 2.385 . S
O35 C40 1.255 . S
Cd36 O35 2.385 . S
Cd36 O37 2.317 . S
O37 Cd36 2.317 . S
O37 C38 1.232 . S
C38 O37 1.232 . S
C38 O39 1.218 . S
O39 C38 1.218 . S
C40 O33 1.275 . S
C40 O35 1.255 . S
C41 O42 1.258 . S
C41 O43 1.256 . S
O42 Cd34 2.381 . S
O42 C41 1.258 . S
O43 Cd34 2.378 . S
O43 C41 1.256 . S
O44 Cd45 2.300 . S
O44 C51 1.275 . S
Cd45 O44 2.300 . S
Cd45 O53 2.381 . S
Cd45 O54 2.378 . S
O46 Cd47 2.385 . S
O46 C51 1.255 . S
Cd47 O46 2.385 . S
Cd47 O48 2.317 . S
O48 Cd47 2.317 . S
O48 C49 1.232 . S
C49 O48 1.232 . S
C49 O50 1.218 . S
O50 C49 1.218 . S
C51 O44 1.275 . S
C51 O46 1.255 . S
C52 O53 1.258 . S
C52 O54 1.256 . S
O53 Cd45 2.381 . S
O53 C52 1.258 . S
O54 Cd45 2.378 . S
O54 C52 1.256 . S
O55 Cd56 2.300 . S
O55 C62 1.275 . S
Cd56 O55 2.300 . S
Cd56 O64 2.381 . S
Cd56 O65 2.378 . S
O57 Cd58 2.385 . S
O57 C62 1.255 . S
Cd58 O57 2.385 . S
Cd58 O59 2.317 . S
O59 Cd58 2.317 . S
O59 C60 1.232 . S
C60 O59 1.232 . S
C60 O61 1.218 . S
O61 C60 1.218 . S
C62 O55 1.275 . S
C62 O57 1.255 . S
C63 O64 1.258 . S
C63 O65 1.256 . S
O64 Cd56 2.381 . S
O64 C63 1.258 . S
O65 Cd56 2.378 . S
O65 C63 1.256 . S
O66 Cd67 2.300 . S
O66 C73 1.275 . S
Cd67 O66 2.300 . S
Cd67 O75 2.381 . S
Cd67 O76 2.378 . S
O68 Cd69 2.385 . S
O68 C73 1.255 . S
Cd69 O68 2.385 . S
Cd69 O70 2.317 . S
O70 Cd69 2.317 . S
O70 C71 1.232 . S
C71 O70 1.232 . S
C71 O72 1.218 . S
O72 C71 1.218 . S
C73 O66 1.275 . S
C73 O68 1.255 . S
C74 O75 1.258 . S
C74 O76 1.256 . S
O75 Cd67 2.381 . S
O75 C74 1.258 . S
O76 Cd67 2.378 . S
O76 C74 1.256 . S
O77 Cd78 2.300 . S
O77 C84 1.275 . S
Cd78 O77 2.300 . S
Cd78 O86 2.381 . S
Cd78 O87 2.378 . S
O79 Cd80 2.385 . S
O79 C84 1.255 . S
Cd80 O79 2.385 . S
Cd80 O81 2.317 . S
O81 Cd80 2.317 . S
O81 C82 1.232 1_455 S
C82 O81 1.232 1_655 S
C82 O83 1.218 . S
O83 C82 1.218 . S
C84 O77 1.275 . S
C84 O79 1.255 . S
C85 O86 1.258 . S
C85 O87 1.256 . S
O86 Cd78 2.381 . S
O86 C85 1.258 . S
O87 Cd78 2.378 . S
O87 C85 1.256 . S
Zn88 O94 1.920 . S
Zn88 O100 1.898 . S
Zn88 O103 1.905 . S
Zn89 O97 1.905 . S
Zn89 O98 1.898 . S
Zn89 O106 1.920 1_455 S
Zn90 O93 2.080 . S
Zn90 O96 2.114 . S
Zn90 O99 2.120 . S
Zn90 O101 2.120 . S
Zn90 O102 2.114 . S
Zn90 O105 2.080 . S
C91 O96 1.166 . S
C91 O97 1.182 . S
C92 O98 1.167 . S
C92 O99 1.299 . S
O93 Zn90 2.080 . S
O93 C107 1.305 . S
O94 Zn88 1.920 . S
O94 C107 1.234 . S
C95 O100 1.167 . S
C95 O101 1.299 . S
O96 Zn90 2.114 . S
O96 C91 1.166 . S
O97 Zn89 1.905 . S
O97 C91 1.182 . S
O98 Zn89 1.898 . S
O98 C92 1.167 . S
O99 Zn90 2.120 . S
O99 C92 1.299 . S
O100 Zn88 1.898 . S
O100 C95 1.167 . S
O101 Zn90 2.120 . S
O101 C95 1.299 . S
O102 Zn90 2.114 . S
O102 C104 1.166 . S
O103 Zn88 1.905 . S
O103 C104 1.182 . S
C104 O102 1.166 . S
C104 O103 1.182 . S
O105 Zn90 2.080 . S
O105 C108 1.305 1_455 S
O106 Zn89 1.920 1_655 S
O106 C108 1.234 . S
C107 O93 1.305 . S
C107 O94 1.234 . S
C108 O105 1.305 1_655 S
C108 O106 1.234 . S
Zn109 O115 1.920 . S
Zn109 O121 1.898 . S
Zn109 O124 1.905 . S
Zn110 O118 1.905 . S
Zn110 O119 1.898 . S
Zn110 O127 1.920 . S
Zn111 O114 2.080 . S
Zn111 O117 2.114 . S
Zn111 O120 2.120 . S
Zn111 O122 2.120 . S
Zn111 O123 2.114 . S
Zn111 O126 2.080 . S
C112 O117 1.166 . S
C112 O118 1.182 . S
C113 O119 1.167 . S
C113 O120 1.299 . S
O114 Zn111 2.080 . S
O114 C128 1.305 . S
O115 Zn109 1.920 . S
O115 C128 1.234 . S
C116 O121 1.167 . S
C116 O122 1.299 . S
O117 Zn111 2.114 . S
O117 C112 1.166 . S
O118 Zn110 1.905 . S
O118 C112 1.182 . S
O119 Zn110 1.898 . S
O119 C113 1.167 . S
O120 Zn111 2.120 . S
O120 C113 1.299 . S
O121 Zn109 1.898 . S
O121 C116 1.167 . S
O122 Zn111 2.120 . S
O122 C116 1.299 . S
O123 Zn111 2.114 . S
O123 C125 1.166 . S
O124 Zn109 1.905 . S
O124 C125 1.182 . S
C125 O123 1.166 . S
C125 O124 1.182 . S
O126 Zn111 2.080 . S
O126 C129 1.305 . S
O127 Zn110 1.920 . S
O127 C129 1.234 . S
C128 O114 1.305 . S
C128 O115 1.234 . S
C129 O126 1.305 . S
C129 O127 1.234 . S
Zn130 O136 1.920 . S
Zn130 O142 1.898 . S
Zn130 O145 1.905 . S
Zn131 O139 1.905 . S
Zn131 O140 1.898 . S
Zn131 O148 1.920 . S
Zn132 O135 2.080 . S
Zn132 O138 2.114 . S
Zn132 O141 2.120 . S
Zn132 O143 2.120 . S
Zn132 O144 2.114 . S
Zn132 O147 2.080 . S
C133 O138 1.166 . S
C133 O139 1.182 . S
C134 O140 1.167 . S
C134 O141 1.299 . S
O135 Zn132 2.080 . S
O135 C149 1.305 . S
O136 Zn130 1.920 . S
O136 C149 1.234 . S
C137 O142 1.167 . S
C137 O143 1.299 . S
O138 Zn132 2.114 . S
O138 C133 1.166 . S
O139 Zn131 1.905 . S
O139 C133 1.182 . S
O140 Zn131 1.898 . S
O140 C134 1.167 . S
O141 Zn132 2.120 . S
O141 C134 1.299 . S
O142 Zn130 1.898 . S
O142 C137 1.167 . S
O143 Zn132 2.120 . S
O143 C137 1.299 . S
O144 Zn132 2.114 . S
O144 C146 1.166 . S
O145 Zn130 1.905 . S
O145 C146 1.182 . S
C146 O144 1.166 . S
C146 O145 1.182 . S
O147 Zn132 2.080 . S
O147 C150 1.305 . S
O148 Zn131 1.920 . S
O148 C150 1.234 . S
C149 O135 1.305 . S
C149 O136 1.234 . S
C150 O147 1.305 . S
C150 O148 1.234 . S
Zn151 O157 1.920 . S
Zn151 O163 1.898 . S
Zn151 O166 1.905 1_455 S
Zn152 O160 1.905 . S
Zn152 O161 1.898 . S
Zn152 O169 1.920 . S
Zn153 O156 2.080 . S
Zn153 O159 2.114 . S
Zn153 O162 2.120 . S
Zn153 O164 2.120 . S
Zn153 O165 2.114 . S
Zn153 O168 2.080 . S
C154 O159 1.166 . S
C154 O160 1.182 . S
C155 O161 1.167 . S
C155 O162 1.299 . S
O156 Zn153 2.080 . S
O156 C170 1.305 . S
O157 Zn151 1.920 . S
O157 C170 1.234 . S
C158 O163 1.167 . S
C158 O164 1.299 . S
O159 Zn153 2.114 . S
O159 C154 1.166 . S
O160 Zn152 1.905 . S
O160 C154 1.182 . S
O161 Zn152 1.898 . S
O161 C155 1.167 . S
O162 Zn153 2.120 . S
O162 C155 1.299 . S
O163 Zn151 1.898 . S
O163 C158 1.167 . S
O164 Zn153 2.120 . S
O164 C158 1.299 . S
O165 Zn153 2.114 . S
O165 C167 1.166 1_455 S
O166 Zn151 1.905 1_655 S
O166 C167 1.182 . S
C167 O165 1.166 1_655 S
C167 O166 1.182 . S
O168 Zn153 2.080 . S
O168 C171 1.305 . S
O169 Zn152 1.920 . S
O169 C171 1.234 . S
C170 O156 1.305 . S
C170 O157 1.234 . S
C171 O168 1.305 . S
C171 O169 1.234 . S
C172 C173 1.387 . S
C172 H176 0.950 . S
C172 C181 1.390 . S
C173 C172 1.387 . S
C173 C175 1.387 . S
H174 C181 0.950 . S
C175 C173 1.387 . S
C175 C177 1.390 . S
C175 H179 0.950 . S
H176 C172 0.950 . S
C177 C175 1.390 . S
C177 C178 1.387 . S
C177 H180 0.950 . S
C178 C177 1.387 . S
C178 C181 1.387 . S
H179 C175 0.950 . S
H180 C177 0.950 . S
C181 C172 1.390 . S
C181 H174 0.950 . S
C181 C178 1.387 . S
C182 C183 1.387 . S
C182 H186 0.950 . S
C182 C191 1.390 . S
C183 C182 1.387 . S
C183 C185 1.387 . S
H184 C191 0.950 . S
C185 C183 1.387 . S
C185 C187 1.390 . S
C185 H189 0.950 . S
H186 C182 0.950 . S
C187 C185 1.390 . S
C187 C188 1.387 . S
C187 H190 0.950 . S
C188 C187 1.387 . S
C188 C191 1.387 . S
H189 C185 0.950 . S
H190 C187 0.950 . S
C191 C182 1.390 . S
C191 H184 0.950 . S
C191 C188 1.387 . S
C192 C193 1.387 . S
C192 H196 0.950 . S
C192 C201 1.390 . S
C193 C192 1.387 . S
C193 C195 1.387 . S
H194 C201 0.950 . S
C195 C193 1.387 . S
C195 C197 1.390 . S
C195 H199 0.950 . S
H196 C192 0.950 . S
C197 C195 1.390 . S
C197 C198 1.387 . S
C197 H200 0.950 . S
C198 C197 1.387 . S
C198 C201 1.387 . S
H199 C195 0.950 . S
H200 C197 0.950 . S
C201 C192 1.390 . S
C201 H194 0.950 . S
C201 C198 1.387 . S
C202 C203 1.387 . S
C202 H206 0.950 . S
C202 C211 1.390 . S
C203 C202 1.387 . S
C203 C205 1.387 . S
H204 C211 0.950 . S
C205 C203 1.387 . S
C205 C207 1.390 . S
C205 H209 0.950 . S
H206 C202 0.950 . S
C207 C205 1.390 . S
C207 C208 1.387 . S
C207 H210 0.950 . S
C208 C207 1.387 . S
C208 C211 1.387 . S
H209 C205 0.950 . S
H210 C207 0.950 . S
C211 C202 1.390 . S
C211 H204 0.950 . S
C211 C208 1.387 . S
C212 C213 1.387 . S
C212 H216 0.950 . S
C212 C221 1.390 . S
C213 C212 1.387 . S
C213 C215 1.387 . S
H214 C221 0.950 . S
C215 C213 1.387 . S
C215 C217 1.390 . S
C215 H219 0.950 . S
H216 C212 0.950 . S
C217 C215 1.390 . S
C217 C218 1.387 . S
C217 H220 0.950 . S
C218 C217 1.387 . S
C218 C221 1.387 . S
H219 C215 0.950 . S
H220 C217 0.950 . S
C221 C212 1.390 . S
C221 H214 0.950 . S
C221 C218 1.387 . S
C222 C223 1.387 . S
C222 H226 0.950 . S
C222 C231 1.390 . S
C223 C222 1.387 . S
C223 C225 1.387 . S
H224 C231 0.950 . S
C225 C223 1.387 . S
C225 C227 1.390 . S
C225 H229 0.950 . S
H226 C222 0.950 . S
C227 C225 1.390 . S
C227 C228 1.387 . S
C227 H230 0.950 . S
C228 C227 1.387 . S
C228 C231 1.387 . S
H229 C225 0.950 . S
H230 C227 0.950 . S
C231 C222 1.390 . S
C231 H224 0.950 . S
C231 C228 1.387 . S
C232 C233 1.387 . S
C232 H236 0.950 . S
C232 C241 1.390 . S
C233 C232 1.387 . S
C233 C235 1.387 . S
H234 C241 0.950 . S
C235 C233 1.387 . S
C235 C237 1.390 . S
C235 H239 0.950 . S
H236 C232 0.950 . S
C237 C235 1.390 . S
C237 C238 1.387 . S
C237 H240 0.950 . S
C238 C237 1.387 . S
C238 C241 1.387 . S
H239 C235 0.950 . S
H240 C237 0.950 . S
C241 C232 1.390 . S
C241 H234 0.950 . S
C241 C238 1.387 . S
C242 C243 1.387 . S
C242 H246 0.950 . S
C242 C251 1.390 . S
C243 C242 1.387 . S
C243 C245 1.387 . S
H244 C251 0.950 . S
C245 C243 1.387 . S
C245 C247 1.390 . S
C245 H249 0.950 . S
H246 C242 0.950 . S
C247 C245 1.390 . S
C247 C248 1.387 . S
C247 H250 0.950 . S
C248 C247 1.387 . S
C248 C251 1.387 . S
H249 C245 0.950 . S
H250 C247 0.950 . S
C251 C242 1.390 . S
C251 H244 0.950 . S
C251 C248 1.387 . S
C252 C253 1.387 . S
C252 H256 0.950 . S
C252 C261 1.390 . S
C253 C252 1.387 . S
C253 C255 1.387 . S
H254 C261 0.950 . S
C255 C253 1.387 . S
C255 C257 1.390 . S
C255 H259 0.950 . S
H256 C252 0.950 . S
C257 C255 1.390 . S
C257 C258 1.387 . S
C257 H260 0.950 . S
C258 C257 1.387 . S
C258 C261 1.387 . S
H259 C255 0.950 . S
H260 C257 0.950 . S
C261 C252 1.390 . S
C261 H254 0.950 . S
C261 C258 1.387 . S
C262 C263 1.387 . S
C262 H266 0.950 . S
C262 C271 1.390 . S
C263 C262 1.387 . S
C263 C265 1.387 . S
H264 C271 0.950 . S
C265 C263 1.387 . S
C265 C267 1.390 . S
C265 H269 0.950 . S
H266 C262 0.950 . S
C267 C265 1.390 . S
C267 C268 1.387 . S
C267 H270 0.950 . S
C268 C267 1.387 . S
C268 C271 1.387 . S
H269 C265 0.950 . S
H270 C267 0.950 . S
C271 C262 1.390 . S
C271 H264 0.950 . S
C271 C268 1.387 . S
C272 C273 1.387 . S
C272 H276 0.950 . S
C272 C281 1.390 . S
C273 C272 1.387 . S
C273 C275 1.387 . S
H274 C281 0.950 . S
C275 C273 1.387 . S
C275 C277 1.390 . S
C275 H279 0.950 . S
H276 C272 0.950 . S
C277 C275 1.390 . S
C277 C278 1.387 . S
C277 H280 0.950 . S
C278 C277 1.387 . S
C278 C281 1.387 . S
H279 C275 0.950 . S
H280 C277 0.950 . S
C281 C272 1.390 . S
C281 H274 0.950 . S
C281 C278 1.387 . S
C282 C283 1.387 . S
C282 H286 0.950 . S
C282 C291 1.390 . S
C283 C282 1.387 . S
C283 C285 1.387 . S
H284 C291 0.950 . S
C285 C283 1.387 . S
C285 C287 1.390 . S
C285 H289 0.950 . S
H286 C282 0.950 . S
C287 C285 1.390 . S
C287 C288 1.387 . S
C287 H290 0.950 . S
C288 C287 1.387 . S
C288 C291 1.387 . S
H289 C285 0.950 . S
H290 C287 0.950 . S
C291 C282 1.390 . S
C291 H284 0.950 . S
C291 C288 1.387 . S
C292 C293 1.387 . S
C292 H296 0.950 . S
C292 C301 1.390 1_565 S
C293 C292 1.387 . S
C293 C295 1.387 . S
H294 C301 0.950 . S
C295 C293 1.387 . S
C295 C297 1.386 1_565 S
C295 H299 0.950 . S
H296 C292 0.950 . S
C297 C295 1.386 1_545 S
C297 C298 1.390 . S
C297 H300 0.951 . S
C298 C297 1.390 . S
C298 C301 1.387 . S
H299 C295 0.950 . S
H300 C297 0.951 . S
C301 C292 1.390 1_545 S
C301 H294 0.950 . S
C301 C298 1.387 . S
C302 C303 1.387 1_565 S
C302 H306 0.950 1_565 S
C302 C311 1.390 . S
C303 C302 1.387 1_545 S
C303 C305 1.387 1_545 S
H304 C311 0.950 . S
C305 C303 1.387 1_565 S
C305 C307 1.390 . S
C305 H309 0.950 1_565 S
H306 C302 0.950 1_545 S
C307 C305 1.390 . S
C307 C308 1.387 . S
C307 H310 0.950 . S
C308 C307 1.387 . S
C308 C311 1.387 . S
H309 C305 0.950 1_545 S
H310 C307 0.950 . S
C311 C302 1.390 . S
C311 H304 0.950 . S
C311 C308 1.387 . S
C312 C313 1.387 . S
C312 H316 0.950 . S
C312 C321 1.390 1_545 S
C313 C312 1.387 . S
C313 C315 1.387 . S
H314 C321 0.950 . S
C315 C313 1.387 . S
C315 C317 1.390 1_545 S
C315 H319 0.950 . S
H316 C312 0.950 . S
C317 C315 1.390 1_565 S
C317 C318 1.387 . S
C317 H320 0.950 . S
C318 C317 1.387 . S
C318 C321 1.387 . S
H319 C315 0.950 . S
H320 C317 0.950 . S
C321 C312 1.390 1_565 S
C321 H314 0.950 . S
C321 C318 1.387 . S
C322 C323 1.384 1_545 S
C322 H326 0.948 1_545 S
C322 C331 1.396 . S
C323 C322 1.384 1_565 S
C323 C325 1.387 . S
H324 C331 0.950 . S
C325 C323 1.387 . S
C325 C327 1.390 1_565 S
C325 H329 0.950 . S
H326 C322 0.948 1_565 S
C327 C325 1.390 1_545 S
C327 C328 1.387 . S
C327 H330 0.950 . S
C328 C327 1.387 . S
C328 C331 1.387 . S
H329 C325 0.950 . S
H330 C327 0.950 . S
C331 C322 1.396 . S
C331 H324 0.950 . S
C331 C328 1.387 . S
C332 C333 1.387 1_556 S
C332 H336 0.950 1_556 S
C332 C341 1.390 . S
C333 C332 1.387 1_554 S
C333 C335 1.387 1_554 S
H334 C341 0.950 . S
C335 C333 1.387 1_556 S
C335 C337 1.390 . S
C335 H339 0.950 1_556 S
H336 C332 0.950 1_554 S
C337 C335 1.390 . S
C337 C338 1.387 . S
C337 H340 0.950 . S
C338 C337 1.387 . S
C338 C341 1.387 . S
H339 C335 0.950 1_554 S
H340 C337 0.950 . S
C341 C332 1.390 . S
C341 H334 0.950 . S
C341 C338 1.387 . S
C342 C343 1.387 . S
C342 H346 0.950 . S
C342 C351 1.390 . S
C343 C342 1.387 . S
C343 C345 1.387 . S
H344 C351 0.950 . S
C345 C343 1.387 . S
C345 C347 1.390 . S
C345 H349 0.950 . S
H346 C342 0.950 . S
C347 C345 1.390 . S
C347 C348 1.387 . S
C347 H350 0.950 . S
C348 C347 1.387 . S
C348 C351 1.387 . S
H349 C345 0.950 . S
H350 C347 0.950 . S
C351 C342 1.390 . S
C351 H344 0.950 . S
C351 C348 1.387 . S
C352 C353 1.387 . S
C352 H356 0.950 . S
C352 C361 1.390 . S
C353 C352 1.387 . S
C353 C355 1.387 . S
H354 C361 0.950 . S
C355 C353 1.387 . S
C355 C357 1.390 . S
C355 H359 0.950 . S
H356 C352 0.950 . S
C357 C355 1.390 . S
C357 C358 1.387 . S
C357 H360 0.950 . S
C358 C357 1.387 . S
C358 C361 1.387 . S
H359 C355 0.950 . S
H360 C357 0.950 . S
C361 C352 1.390 . S
C361 H354 0.950 . S
C361 C358 1.387 . S
C362 C363 1.387 . S
C362 H366 0.950 . S
C362 C371 1.390 . S
C363 C362 1.387 . S
C363 C365 1.387 . S
H364 C371 0.950 . S
C365 C363 1.387 . S
C365 C367 1.390 . S
C365 H369 0.950 . S
H366 C362 0.950 . S
C367 C365 1.390 . S
C367 C368 1.387 . S
C367 H370 0.950 . S
C368 C367 1.387 . S
C368 C371 1.387 . S
H369 C365 0.950 . S
H370 C367 0.950 . S
C371 C362 1.390 . S
C371 H364 0.950 . S
C371 C368 1.387 . S
C372 C373 1.387 1_554 S
C372 H376 0.950 . S
C372 C381 1.390 . S
C373 C372 1.387 1_556 S
C373 C375 1.375 1_556 S
H374 C381 0.950 . S
C375 C373 1.375 1_554 S
C375 C377 1.426 . S
C375 H379 0.927 1_554 S
H376 C372 0.950 . S
C377 C375 1.426 . S
C377 C378 1.387 . S
C377 H380 0.950 . S
C378 C377 1.387 . S
C378 C381 1.387 . S
H379 C375 0.927 1_556 S
H380 C377 0.950 . S
C381 C372 1.390 . S
C381 H374 0.950 . S
C381 C378 1.387 . S
C382 C383 1.387 . S
C382 H386 0.950 . S
C382 C391 1.390 . S
C383 C382 1.387 . S
C383 C385 1.387 . S
H384 C391 0.950 . S
C385 C383 1.387 . S
C385 C387 1.390 . S
C385 H389 0.950 . S
H386 C382 0.950 . S
C387 C385 1.390 . S
C387 C388 1.387 . S
C387 H390 0.950 . S
C388 C387 1.387 . S
C388 C391 1.387 . S
H389 C385 0.950 . S
H390 C387 0.950 . S
C391 C382 1.390 . S
C391 H384 0.950 . S
C391 C388 1.387 . S
C392 C393 1.387 . S
C392 H396 0.950 . S
C392 C401 1.390 . S
C393 C392 1.387 . S
C393 C395 1.387 . S
H394 C401 0.950 . S
C395 C393 1.387 . S
C395 C397 1.390 . S
C395 H399 0.950 . S
H396 C392 0.950 . S
C397 C395 1.390 . S
C397 C398 1.387 . S
C397 H400 0.950 . S
C398 C397 1.387 . S
C398 C401 1.387 . S
H399 C395 0.950 . S
H400 C397 0.950 . S
C401 C392 1.390 . S
C401 H394 0.950 . S
C401 C398 1.387 . S
C402 C403 1.387 . S
C402 H406 0.950 . S
C402 C411 1.390 . S
C403 C402 1.387 . S
C403 C405 1.387 . S
H404 C411 0.950 . S
C405 C403 1.387 . S
C405 C407 1.390 . S
C405 H409 0.950 . S
H406 C402 0.950 . S
C407 C405 1.390 . S
C407 C408 1.387 . S
C407 H410 0.950 . S
C408 C407 1.387 . S
C408 C411 1.387 . S
H409 C405 0.950 . S
H410 C407 0.950 . S
C411 C402 1.390 . S
C411 H404 0.950 . S
C411 C408 1.387 . S
C178 C95 1.430 . S
C173 C5 1.480 . S
C188 C113 1.484 . S
C183 C16 1.397 . S
C193 C30 1.469 . S
C198 C137 1.372 . S
C208 C167 1.275 . S
C203 C41 1.369 . S
C218 C155 1.347 . S
C213 C49 1.129 . S
C223 C63 1.341 . S
C228 C108 1.254 . S
C233 C74 1.578 . S
C238 C128 1.474 . S
C243 C82 1.372 . S
C248 C133 1.437 . S
C253 C85 1.337 . S
C258 C149 1.251 . S
C263 C60 1.380 . S
C268 C104 1.435 . S
C278 C171 1.505 . S
C273 C38 1.398 . S
C288 C116 1.262 . S
C283 C19 1.365 . S
C293 C27 1.470 . S
C298 C134 1.428 . S
C303 C8 1.474 . S
C308 C92 1.378 . S
C318 C112 1.343 . S
C313 C71 1.140 . S
C328 C158 1.465 . S
C323 C52 1.577 . S
C338 C154 1.339 . S
C333 C7 1.477 . S
C348 C107 1.499 . S
C343 C18 1.514 . S
C353 C29 1.461 . S
C358 C129 1.321 . S
C363 C40 1.525 . S
C368 C150 1.510 . S
C378 C91 1.316 . S
C373 C51 1.484 . S
C383 C62 1.433 . S
C388 C125 1.410 . S
C398 C146 1.333 . S
C393 C73 1.504 . S
C408 C170 1.392 . S
C403 C84 1.417 . S
