# Generated by pormake.
# Topology ocu, (6,8)-cn, num edge types: 1
# Building blocks:
#     Node 0, Type 0, BuildingBlock: CUKXOW_clean_sbu_0, # of connection points: 6
#     Node 1, Type 0, BuildingBlock: CUKXOW_clean_sbu_0, # of connection points: 6
#     Node 2, Type 0, BuildingBlock: CUKXOW_clean_sbu_0, # of connection points: 6
#     Node 3, Type 0, BuildingBlock: CUKXOW_clean_sbu_0, # of connection points: 6
#     Node 4, Type 0, BuildingBlock: CUKXOW_clean_sbu_0, # of connection points: 6
#     Node 5, Type 0, BuildingBlock: CUKXOW_clean_sbu_0, # of connection points: 6
#     Node 6, Type 0, BuildingBlock: CUKXOW_clean_sbu_0, # of connection points: 6
#     Node 7, Type 0, BuildingBlock: CUKXOW_clean_sbu_0, # of connection points: 6
#     Node 8, Type 1, BuildingBlock: AJUNOK_clean_sbu_0, # of connection points: 8
#     Node 9, Type 1, BuildingBlock: AJUNOK_clean_sbu_0, # of connection points: 8
#     Node 10, Type 1, BuildingBlock: AJUNOK_clean_sbu_0, # of connection points: 8
#     Node 11, Type 1, BuildingBlock: AJUNOK_clean_sbu_0, # of connection points: 8
#     Node 12, Type 1, BuildingBlock: AJUNOK_clean_sbu_0, # of connection points: 8
#     Node 13, Type 1, BuildingBlock: AJUNOK_clean_sbu_0, # of connection points: 8
#     Edge 14, Type (0, 1), None
#     Edge 15, Type (0, 1), None
#     Edge 16, Type (0, 1), None
#     Edge 17, Type (0, 1), None
#     Edge 18, Type (0, 1), None
#     Edge 19, Type (0, 1), None
#     Edge 20, Type (0, 1), None
#     Edge 21, Type (0, 1), None
#     Edge 22, Type (0, 1), None
#     Edge 23, Type (0, 1), None
#     Edge 24, Type (0, 1), None
#     Edge 25, Type (0, 1), None
#     Edge 26, Type (0, 1), None
#     Edge 27, Type (0, 1), None
#     Edge 28, Type (0, 1), None
#     Edge 29, Type (0, 1), None
#     Edge 30, Type (0, 1), None
#     Edge 31, Type (0, 1), None
#     Edge 32, Type (0, 1), None
#     Edge 33, Type (0, 1), None
#     Edge 34, Type (0, 1), None
#     Edge 35, Type (0, 1), None
#     Edge 36, Type (0, 1), None
#     Edge 37, Type (0, 1), None
#     Edge 38, Type (0, 1), None
#     Edge 39, Type (0, 1), None
#     Edge 40, Type (0, 1), None
#     Edge 41, Type (0, 1), None
#     Edge 42, Type (0, 1), None
#     Edge 43, Type (0, 1), None
#     Edge 44, Type (0, 1), None
#     Edge 45, Type (0, 1), None
#     Edge 46, Type (0, 1), None
#     Edge 47, Type (0, 1), None
#     Edge 48, Type (0, 1), None
#     Edge 49, Type (0, 1), None
#     Edge 50, Type (0, 1), None
#     Edge 51, Type (0, 1), None
#     Edge 52, Type (0, 1), None
#     Edge 53, Type (0, 1), None
#     Edge 54, Type (0, 1), None
#     Edge 55, Type (0, 1), None
#     Edge 56, Type (0, 1), None
#     Edge 57, Type (0, 1), None
#     Edge 58, Type (0, 1), None
#     Edge 59, Type (0, 1), None
#     Edge 60, Type (0, 1), None
#     Edge 61, Type (0, 1), None
# Relax obj value: 0.153
# Max RMSD: 0.238
# Mean RMSD: 0.177
data_MOF--net-ocu--node1-CUKXOW_clean_sbu_0--node2-AJUNOK_clean_sbu_0--edge1-none
_symmetry_space_group_name_H-M    P1
_symmetry_Int_Tables_number       1
_symmetry_cell_setting            triclinic
loop_
_symmetry_equiv_pos_as_xyz
'x, y, z'
_cell_length_a     21.147287
_cell_length_b     22.277863
_cell_length_c     19.313417
_cell_angle_alpha  105.9225
_cell_angle_beta   105.47985
_cell_angle_gamma 102.88764
loop_
_atom_site_label
_atom_site_type_symbol
_atom_site_fract_x
_atom_site_fract_y
_atom_site_fract_z
_atom_type_partial_charge
Tb0 Tb 0.22706 0.17168 0.15223 0.0
C1 C 0.33148 0.30766 0.1685 0.0
Tb2 Tb 0.27941 0.29443 0.30516 0.0
O3 O 0.13333 0.1888 0.08954 0.0
O4 O 0.19671 0.25223 0.19853 0.0
O5 O 0.30534 0.24258 0.13259 0.0
C6 C 0.27321 0.40051 0.40564 0.0
O7 O 0.32442 0.33862 0.23409 0.0
C8 C 0.36274 0.22195 0.31424 0.0
C9 C 0.17494 0.15848 0.28888 0.0
O10 O 0.28954 0.39849 0.3451 0.0
O11 O 0.26568 0.34295 0.4114 0.0
O12 O 0.37327 0.2774 0.36774 0.0
O13 O 0.3097 0.21384 0.2589 0.0
O14 O 0.20119 0.22354 0.32487 0.0
O15 O 0.18191 0.12752 0.22323 0.0
C16 C 0.23322 0.06555 0.0518 0.0
O17 O 0.21693 0.06763 0.11237 0.0
O18 O 0.24074 0.12309 0.04599 0.0
C19 C 0.14382 0.24423 0.14306 0.0
Tb20 Tb 0.74601 0.23602 0.30292 0.0
C21 C 0.63668 0.12151 0.14742 0.0
Tb22 Tb 0.76047 0.23007 0.15441 0.0
O23 O 0.71184 0.32296 0.31338 0.0
O24 O 0.68836 0.25211 0.20581 0.0
O25 O 0.66524 0.14321 0.22317 0.0
C26 C 0.78594 0.28506 0.05433 0.0
O27 O 0.66104 0.15234 0.1057 0.0
C28 C 0.82068 0.15787 0.21816 0.0
C29 C 0.86972 0.34463 0.30992 0.0
O30 O 0.80127 0.23366 0.06322 0.0
O31 O 0.74869 0.29927 0.09573 0.0
O32 O 0.79435 0.14292 0.14419 0.0
O33 O 0.81807 0.21405 0.25145 0.0
O34 O 0.84107 0.32299 0.23418 0.0
O35 O 0.84544 0.31372 0.35163 0.0
C36 C 0.72081 0.18076 0.4029 0.0
O37 O 0.75758 0.16637 0.36096 0.0
O38 O 0.70577 0.23243 0.39453 0.0
C39 C 0.6856 0.30816 0.23943 0.0
Tb40 Tb 0.74955 0.75635 0.15941 0.0
C41 C 0.65037 0.61847 0.13436 0.0
Tb42 Tb 0.75697 0.70976 0.29813 0.0
O43 O 0.81945 0.71198 0.11479 0.0
O44 O 0.79977 0.69894 0.20954 0.0
O45 O 0.65974 0.66837 0.10973 0.0
C46 C 0.8036 0.66515 0.409 0.0
O47 O 0.6875 0.62127 0.20307 0.0
C48 C 0.67555 0.7839 0.29385 0.0
C49 C 0.85618 0.84764 0.32315 0.0
O50 O 0.74522 0.63589 0.35161 0.0
O51 O 0.83414 0.71986 0.40346 0.0
O52 O 0.687 0.75407 0.34268 0.0
O53 O 0.70681 0.76723 0.24804 0.0
O54 O 0.84678 0.79776 0.34782 0.0
O55 O 0.81906 0.84483 0.25444 0.0
C56 C 0.70293 0.801 0.04857 0.0
O57 O 0.76133 0.83024 0.10595 0.0
O58 O 0.67237 0.74629 0.05411 0.0
C59 C 0.83092 0.68217 0.16364 0.0
Tb60 Tb 0.25839 0.74405 0.15829 0.0
C61 C 0.36801 0.84298 0.32283 0.0
Tb62 Tb 0.24816 0.72214 0.29925 0.0
O63 O 0.17178 0.78458 0.14455 0.0
O64 O 0.23526 0.79572 0.25294 0.0
O65 O 0.3501 0.82041 0.24728 0.0
C66 C 0.17048 0.69662 0.38169 0.0
O67 O 0.33123 0.81595 0.3586 0.0
C68 C 0.32611 0.6622 0.23981 0.0
C69 C 0.13851 0.62322 0.13469 0.0
O70 O 0.23301 0.69307 0.39411 0.0
O71 O 0.15421 0.71798 0.32584 0.0
O72 O 0.33499 0.6818 0.31284 0.0
O73 O 0.27123 0.67052 0.2047 0.0
O74 O 0.15643 0.64579 0.21024 0.0
O75 O 0.1753 0.65026 0.09894 0.0
C76 C 0.3361 0.76947 0.07583 0.0
O77 O 0.27352 0.77291 0.0633 0.0
O78 O 0.3524 0.74828 0.13183 0.0
C79 C 0.18055 0.80417 0.21754 0.0
Tb80 Tb 0.24602 0.73601 0.80292 0.0
C81 C 0.13668 0.6215 0.64742 0.0
Tb82 Tb 0.26048 0.73007 0.65441 0.0
O83 O 0.21185 0.82295 0.81338 0.0
O84 O 0.18837 0.7521 0.70581 0.0
O85 O 0.16525 0.6432 0.72317 0.0
C86 C 0.28595 0.78505 0.55433 0.0
O87 O 0.16105 0.65234 0.6057 0.0
C88 C 0.32069 0.65786 0.71816 0.0
C89 C 0.36973 0.84462 0.80992 0.0
O90 O 0.30128 0.73365 0.56322 0.0
O91 O 0.2487 0.79927 0.59574 0.0
O92 O 0.29436 0.64291 0.64419 0.0
O93 O 0.31808 0.71404 0.75145 0.0
O94 O 0.34108 0.82298 0.73418 0.0
O95 O 0.34545 0.81371 0.85163 0.0
C96 C 0.22082 0.68075 0.9029 0.0
O97 O 0.25759 0.66636 0.86096 0.0
O98 O 0.20578 0.73242 0.89454 0.0
C99 C 0.18561 0.80815 0.73943 0.0
Tb100 Tb 0.24955 0.25635 0.65941 0.0
C101 C 0.15037 0.11847 0.63436 0.0
Tb102 Tb 0.25698 0.20976 0.79812 0.0
O103 O 0.31946 0.21197 0.61479 0.0
O104 O 0.29978 0.19893 0.70954 0.0
O105 O 0.15974 0.16836 0.60972 0.0
C106 C 0.30361 0.16514 0.909 0.0
O107 O 0.1875 0.12127 0.70306 0.0
C108 C 0.17555 0.28389 0.79385 0.0
C109 C 0.35618 0.34764 0.82315 0.0
O110 O 0.24522 0.13588 0.8516 0.0
O111 O 0.33415 0.21986 0.90346 0.0
O112 O 0.187 0.25406 0.84268 0.0
O113 O 0.20681 0.26723 0.74804 0.0
O114 O 0.34678 0.29776 0.84782 0.0
O115 O 0.31906 0.34483 0.75444 0.0
C116 C 0.20293 0.301 0.54856 0.0
O117 O 0.26133 0.33023 0.60595 0.0
O118 O 0.17237 0.24629 0.5541 0.0
C119 C 0.33093 0.18217 0.66364 0.0
Tb120 Tb 0.7584 0.24405 0.65829 0.0
C121 C 0.86802 0.34298 0.82283 0.0
Tb122 Tb 0.74817 0.22213 0.79925 0.0
O123 O 0.67179 0.28457 0.64455 0.0
O124 O 0.73527 0.29572 0.75294 0.0
O125 O 0.85011 0.3204 0.74729 0.0
C126 C 0.67049 0.19661 0.88169 0.0
O127 O 0.83124 0.31594 0.85861 0.0
C128 C 0.82612 0.16219 0.73981 0.0
C129 C 0.63853 0.12322 0.63469 0.0
O130 O 0.73303 0.19306 0.89411 0.0
O131 O 0.65422 0.21797 0.82584 0.0
O132 O 0.83501 0.1818 0.81284 0.0
O133 O 0.77125 0.17051 0.7047 0.0
O134 O 0.65644 0.14578 0.71024 0.0
O135 O 0.67532 0.15025 0.59894 0.0
C136 C 0.83612 0.26946 0.57583 0.0
O137 O 0.77353 0.27291 0.5633 0.0
O138 O 0.85241 0.24827 0.63183 0.0
C139 C 0.68056 0.30416 0.71754 0.0
Tb140 Tb 0.72707 0.67168 0.65223 0.0
C141 C 0.83149 0.80765 0.6685 0.0
Tb142 Tb 0.77942 0.79443 0.80516 0.0
O143 O 0.63334 0.6888 0.58953 0.0
O144 O 0.69672 0.75222 0.69852 0.0
O145 O 0.80534 0.74257 0.63258 0.0
C146 C 0.77322 0.9005 0.90564 0.0
O147 O 0.82443 0.83861 0.73409 0.0
C148 C 0.86275 0.72194 0.81424 0.0
C149 C 0.67494 0.65847 0.78888 0.0
O150 O 0.78955 0.89848 0.84511 0.0
O151 O 0.76569 0.84294 0.9114 0.0
O152 O 0.87328 0.7774 0.86774 0.0
O153 O 0.8097 0.71383 0.75889 0.0
O154 O 0.7012 0.72353 0.82487 0.0
O155 O 0.68191 0.62751 0.72323 0.0
C156 C 0.73323 0.56554 0.55181 0.0
O157 O 0.71693 0.56762 0.61237 0.0
O158 O 0.74075 0.62308 0.54599 0.0
C159 C 0.64383 0.74422 0.64305 0.0
Cd160 Cd 0.95652 0.93562 0.58249 0.0
Cd161 Cd 0.04995 0.03054 0.37497 0.0
C162 C 0.08625 0.92685 0.71045 0.0
N163 N 0.04871 0.89837 0.63385 0.0
C164 C 0.10386 0.81486 0.62249 0.0
C165 C 0.14146 0.84184 0.70193 0.0
C166 C 0.13333 0.89946 0.74573 0.0
C167 C 0.05731 0.84386 0.58951 0.0
H168 H 0.07766 0.96948 0.7448 0.0
H169 H 0.02602 0.82135 0.52906 0.0
C170 C 0.91554 0.90646 0.36961 0.0
C171 C 0.92003 0.03921 0.24727 0.0
C172 C 0.87288 0.06656 0.212 0.0
C173 C 0.86489 0.12427 0.25574 0.0
C174 C 0.90266 0.15141 0.33514 0.0
C175 C 0.94927 0.12246 0.36811 0.0
N176 N 0.95774 0.06784 0.32381 0.0
H177 H 0.92852 -0.0035 0.21295 0.0
H178 H 0.98069 0.14507 0.42852 0.0
C179 C 0.0621 0.90731 0.2466 0.0
N180 N 0.09136 0.94254 0.32352 0.0
C181 C 0.17483 0.88481 0.33471 0.0
C182 C 0.1472 0.84953 0.25492 0.0
C183 C 0.08937 0.86064 0.21104 0.0
C184 C 0.14631 0.93153 0.36787 0.0
H185 H 0.01872 0.91699 0.2122 0.0
H186 H 0.16929 0.96029 0.42872 0.0
C187 C 0.09101 0.05964 0.58788 0.0
C188 C 0.87201 0.84876 0.63595 0.0
N189 N 0.91509 0.02364 0.63376 0.0
C190 C 0.94454 0.05907 0.71062 0.0
C191 C 0.91733 0.10581 0.74617 0.0
C192 C 0.85937 0.11678 0.70234 0.0
C193 C 0.83153 0.08128 0.6226 0.0
C194 C 0.85999 0.0345 0.58945 0.0
C195 C 0.13441 0.11739 0.32144 0.0
O196 O 0.93893 0.92562 0.4431 0.0
O197 O 0.94507 0.93708 0.3339 0.0
O198 O 0.06761 0.04052 0.51439 0.0
O199 O 0.06147 0.02901 0.62358 0.0
O200 O 0.87013 0.82885 0.56652 0.0
O201 O 0.91007 0.90742 0.67734 0.0
O202 O 0.13644 0.13725 0.39094 0.0
O203 O 0.09619 0.05879 0.28 0.0
H204 H 0.98802 0.0495 0.74498 0.0
H205 H 0.83686 0.00559 0.52866 0.0
H206 H 0.10873 0.7706 0.58659 0.0
H207 H 0.16138 0.92195 0.80708 0.0
H208 H 0.84469 0.04394 0.15069 0.0
H209 H 0.89788 0.19574 0.37098 0.0
H210 H 0.2194 0.87787 0.3709 0.0
H211 H 0.06626 0.83451 0.14951 0.0
H212 H 0.94061 0.13211 0.80765 0.0
H213 H 0.78684 0.0881 0.58647 0.0
Cd214 Cd 0.46847 0.92449 0.04392 0.0
Cd215 Cd 0.53801 0.0416 0.91347 0.0
C216 C 0.62527 0.9294 0.06382 0.0
N217 N 0.55853 0.89226 0.02015 0.0
C218 C 0.59387 0.80228 0.96463 0.0
C219 C 0.66163 0.83726 0.01637 0.0
C220 C 0.67838 0.90354 0.06042 0.0
C221 C 0.54232 0.83125 0.96773 0.0
H222 H 0.63802 0.97661 0.10688 0.0
H223 H 0.48875 0.80319 0.93362 0.0
C224 C 0.42969 0.90511 0.84749 0.0
C225 C 0.38125 0.03677 0.89372 0.0
C226 C 0.32816 0.06264 0.89717 0.0
C227 C 0.34493 0.12892 0.94124 0.0
C228 C 0.41271 0.16389 -0.00706 0.0
C229 C 0.46425 0.13491 -0.01022 0.0
N230 N 0.44801 0.0739 0.93734 0.0
H231 H 0.36848 -0.01045 0.85064 0.0
H232 H 0.51782 0.16297 0.02385 0.0
C233 C 0.6029 0.92611 0.87445 0.0
N234 N 0.62057 -0.01036 0.92093 0.0
C235 C 0.74015 -0.00261 0.96534 0.0
C236 C 0.72228 0.93202 0.91781 0.0
C237 C 0.65308 0.89594 0.87301 0.0
C238 C 0.68745 0.02537 0.96668 0.0
H239 H 0.55048 0.89883 0.8369 0.0
H240 H 0.70028 0.07606 0.00236 0.0
C241 C 0.57673 0.061 0.10987 0.0
C242 C 0.3882 0.81383 0.06132 0.0
N243 N 0.3859 0.97643 0.03652 0.0
C244 C 0.40355 0.03995 0.08304 0.0
C245 C 0.35336 0.07011 0.08449 0.0
C246 C 0.28416 0.03403 0.03966 0.0
C247 C 0.26631 0.96866 -0.0079 0.0
C248 C 0.31902 0.9407 -0.00925 0.0
C249 C 0.61835 0.15225 0.89614 0.0
O250 O 0.45884 0.9294 0.91969 0.0
O251 O 0.45104 0.93855 0.80954 0.0
O252 O 0.54759 0.03669 0.03767 0.0
O253 O 0.5554 0.02757 0.14784 0.0
O254 O 0.37593 0.82071 -0.00312 0.0
O255 O 0.44068 0.85619 0.11702 0.0
O256 O 0.63056 0.14535 0.96056 0.0
O257 O 0.56588 0.10991 0.84041 0.0
H258 H 0.45596 0.06723 0.1206 0.0
H259 H 0.3062 0.89002 0.95504 0.0
H260 H 0.57953 0.75075 0.92982 0.0
H261 H 0.73013 0.93196 0.10114 0.0
H262 H 0.2764 0.03421 0.8565 0.0
H263 H 0.42707 0.21542 0.02774 0.0
H264 H 0.7936 0.02636 -0.0004 0.0
H265 H 0.63824 0.84527 0.83496 0.0
H266 H 0.36819 0.12076 0.12257 0.0
H267 H 0.21286 0.93969 0.95783 0.0
Cd268 Cd 0.95403 0.43559 0.0656 0.0
Cd269 Cd 0.05251 0.53057 0.89181 0.0
C270 C 0.08894 0.39887 0.164 0.0
N271 N 0.03023 0.37561 0.10055 0.0
C272 C 0.04366 0.26853 0.06729 0.0
C273 C 0.10431 0.29064 0.13204 0.0
C274 C 0.12735 0.35704 0.18042 0.0
C275 C 0.00754 0.31176 0.05259 0.0
H276 H 0.10602 0.44967 0.20199 0.0
H277 H 0.96061 0.29415 0.0029 0.0
C278 C 0.9261 0.40397 0.86364 0.0
C279 C 0.91756 0.56728 0.79348 0.0
C280 C 0.87914 0.6091 0.77704 0.0
C281 C 0.90236 0.67559 0.82517 0.0
C282 C 0.96322 0.69782 0.88968 0.0
C283 C 0.99935 0.6546 0.90442 0.0
N284 N 0.97645 0.59064 0.85673 0.0
H285 H 0.9003 0.5164 0.7557 0.0
H286 H 0.04642 0.67229 0.95394 0.0
C287 C 0.11427 0.43071 0.78084 0.0
N288 N 0.09136 0.44152 0.84154 0.0
C289 C 0.11595 0.34771 0.86433 0.0
C290 C 0.14184 0.33592 0.80374 0.0
C291 C 0.14023 0.37775 0.76087 0.0
C292 C 0.09177 0.40102 0.88273 0.0
H293 H 0.11402 0.46386 0.74909 0.0
H294 H 0.07432 0.41099 0.93122 0.0
C295 C 0.08042 0.56224 0.09385 0.0
C296 C 0.84022 0.33876 0.05647 0.0
N297 N 0.91512 0.52454 0.11598 0.0
C298 C 0.89223 0.53537 0.1767 0.0
C299 C 0.86625 0.58831 0.19664 0.0
C300 C 0.86457 0.6301 0.15372 0.0
C301 C 0.89043 0.61829 0.09311 0.0
C302 C 0.91465 0.56499 0.07474 0.0
C303 C 0.16653 0.62709 0.9008 0.0
O304 O 0.95073 0.43027 0.93635 0.0
O305 O 0.95274 0.43215 0.82439 0.0
O306 O 0.05584 0.53594 0.02113 0.0
O307 O 0.05376 0.53403 0.13308 0.0
O308 O 0.83792 0.35675 -0.00069 0.0
O309 O 0.89286 0.36877 0.11771 0.0
O310 O 0.16847 0.60963 0.95827 0.0
O311 O 0.11409 0.59677 0.8394 0.0
H312 H 0.89252 0.50224 0.20848 0.0
H313 H 0.93208 0.55501 0.02624 0.0
H314 H 0.02419 0.21799 0.02777 0.0
H315 H 0.17483 0.37659 0.22951 0.0
H316 H 0.8315 0.58946 0.72814 0.0
H317 H 0.98284 0.74843 0.92901 0.0
H318 H 0.11637 0.31714 0.89936 0.0
H319 H 0.1603 0.37073 0.71421 0.0
H320 H 0.84622 0.59536 0.24334 0.0
H321 H 0.88997 0.64883 0.05804 0.0
Cd322 Cd 0.45651 0.43563 0.08249 0.0
Cd323 Cd 0.54996 0.53053 0.87497 0.0
C324 C 0.58624 0.42686 0.21045 0.0
N325 N 0.5487 0.39838 0.13385 0.0
C326 C 0.60385 0.31487 0.12249 0.0
C327 C 0.64145 0.34185 0.20194 0.0
C328 C 0.63333 0.39946 0.24573 0.0
C329 C 0.5573 0.34387 0.08952 0.0
H330 H 0.57765 0.46949 0.2448 0.0
H331 H 0.52601 0.32136 0.02906 0.0
C332 C 0.41554 0.40646 0.86961 0.0
C333 C 0.42004 0.5392 0.74727 0.0
C334 C 0.37289 0.56655 0.712 0.0
C335 C 0.3649 0.62426 0.75574 0.0
C336 C 0.40268 0.6514 0.83513 0.0
C337 C 0.44928 0.62245 0.86811 0.0
N338 N 0.45775 0.56783 0.82381 0.0
H339 H 0.42852 0.49649 0.71295 0.0
H340 H 0.48071 0.64506 0.92852 0.0
C341 C 0.56211 0.4073 0.7466 0.0
N342 N 0.59137 0.44253 0.82352 0.0
C343 C 0.67484 0.3848 0.83471 0.0
C344 C 0.64721 0.34952 0.75492 0.0
C345 C 0.58939 0.36063 0.71104 0.0
C346 C 0.64632 0.43152 0.86787 0.0
H347 H 0.51873 0.41698 0.7122 0.0
H348 H 0.6693 0.46028 0.92872 0.0
C349 C 0.59101 0.55964 0.08788 0.0
C350 C 0.372 0.34876 0.13595 0.0
N351 N 0.41507 0.52365 0.13376 0.0
C352 C 0.44453 0.55908 0.21062 0.0
C353 C 0.41732 0.60581 0.24617 0.0
C354 C 0.35936 0.61678 0.20234 0.0
C355 C 0.33151 0.58129 0.1226 0.0
C356 C 0.35998 0.53451 0.08945 0.0
C357 C 0.63441 0.61738 0.82144 0.0
O358 O 0.43893 0.42562 0.9431 0.0
O359 O 0.44507 0.43708 0.8339 0.0
O360 O 0.56761 0.54052 0.01439 0.0
O361 O 0.56147 0.52902 0.12358 0.0
O362 O 0.37012 0.32886 0.06652 0.0
O363 O 0.41006 0.40743 0.17734 0.0
O364 O 0.63645 0.63724 0.89094 0.0
O365 O 0.5962 0.55878 0.78 0.0
H366 H 0.48801 0.54951 0.24498 0.0
H367 H 0.33685 0.50559 0.02865 0.0
H368 H 0.60872 0.27061 0.08659 0.0
H369 H 0.66137 0.42195 0.30708 0.0
H370 H 0.3447 0.54394 0.65069 0.0
H371 H 0.39789 0.69573 0.87098 0.0
H372 H 0.71941 0.37787 0.8709 0.0
H373 H 0.56627 0.3345 0.64951 0.0
H374 H 0.4406 0.63211 0.30765 0.0
H375 H 0.28683 0.58811 0.08647 0.0
Cd376 Cd 0.96848 0.42448 0.54392 0.0
Cd377 Cd 0.038 0.54161 0.41347 0.0
C378 C 0.12528 0.42939 0.5638 0.0
N379 N 0.05854 0.39226 0.52014 0.0
C380 C 0.09388 0.30227 0.46462 0.0
C381 C 0.16164 0.33725 0.51636 0.0
C382 C 0.17839 0.40353 0.56041 0.0
C383 C 0.04233 0.33124 0.46772 0.0
H384 H 0.13803 0.47661 0.60686 0.0
H385 H 0.98876 0.30319 0.43361 0.0
C386 C 0.92969 0.40512 0.34749 0.0
C387 C 0.88124 0.53677 0.39374 0.0
C388 C 0.82815 0.56264 0.39719 0.0
C389 C 0.84492 0.62892 0.44125 0.0
C390 C 0.9127 0.6639 0.49295 0.0
C391 C 0.96424 0.63491 0.48979 0.0
N392 N 0.948 0.5739 0.43735 0.0
H393 H 0.86847 0.48956 0.35066 0.0
H394 H 0.01781 0.66298 0.52386 0.0
C395 C 0.10289 0.42613 0.37444 0.0
N396 N 0.12056 0.48966 0.42092 0.0
C397 C 0.24014 0.4974 0.46533 0.0
C398 C 0.22228 0.43203 0.4178 0.0
C399 C 0.15307 0.39595 0.373 0.0
C400 C 0.18744 0.52538 0.46667 0.0
H401 H 0.05047 0.39884 0.33689 0.0
H402 H 0.20027 0.57608 0.50235 0.0
C403 C 0.07673 0.561 0.60987 0.0
C404 C 0.88821 0.31382 0.56131 0.0
N405 N 0.8859 0.47642 0.53652 0.0
C406 C 0.90356 0.53994 0.58304 0.0
C407 C 0.85336 0.5701 0.5845 0.0
C408 C 0.78417 0.53401 0.53967 0.0
C409 C 0.76631 0.46865 0.49211 0.0
C410 C 0.81903 0.44069 0.49076 0.0
C411 C 0.11834 0.65226 0.39614 0.0
O412 O 0.95884 0.4294 0.41969 0.0
O413 O 0.95102 0.43856 0.30954 0.0
O414 O 0.04759 0.53669 0.53767 0.0
O415 O 0.05541 0.52756 0.64783 0.0
O416 O 0.87595 0.32069 0.49687 0.0
O417 O 0.94069 0.35618 0.61702 0.0
O418 O 0.13055 0.64537 0.46057 0.0
O419 O 0.06587 0.60992 0.34041 0.0
H420 H 0.95597 0.56722 0.62061 0.0
H421 H 0.80621 0.39 0.45505 0.0
H422 H 0.07954 0.25075 0.42982 0.0
H423 H 0.23014 0.43196 0.60112 0.0
H424 H 0.77639 0.53421 0.35652 0.0
H425 H 0.92706 0.71542 0.52774 0.0
H426 H 0.29359 0.52638 0.49959 0.0
H427 H 0.13823 0.34528 0.33495 0.0
H428 H 0.8682 0.62075 0.62258 0.0
H429 H 0.71287 0.43968 0.45784 0.0
Cd430 Cd 0.45404 0.93558 0.5656 0.0
Cd431 Cd 0.55251 0.03057 0.39181 0.0
C432 C 0.58894 0.89886 0.664 0.0
N433 N 0.53024 0.87561 0.60054 0.0
C434 C 0.54368 0.76853 0.56727 0.0
C435 C 0.60432 0.79064 0.63203 0.0
C436 C 0.62735 0.85704 0.68042 0.0
C437 C 0.50756 0.81175 0.55257 0.0
H438 H 0.60601 0.94966 0.702 0.0
H439 H 0.46063 0.79415 0.50289 0.0
C440 C 0.42609 0.90397 0.36364 0.0
C441 C 0.41755 0.06729 0.29348 0.0
C442 C 0.37914 0.10911 0.27703 0.0
C443 C 0.40234 0.17559 0.32518 0.0
C444 C 0.4632 0.19782 0.3897 0.0
C445 C 0.49933 0.1546 0.40443 0.0
N446 N 0.47644 0.09064 0.35673 0.0
H447 H 0.40031 0.01641 0.25568 0.0
H448 H 0.5464 0.17229 0.45396 0.0
C449 C 0.61427 0.93071 0.28084 0.0
N450 N 0.59135 0.94153 0.34154 0.0
C451 C 0.61594 0.84771 0.36433 0.0
C452 C 0.64184 0.83592 0.30374 0.0
C453 C 0.64022 0.87775 0.26087 0.0
C454 C 0.59176 0.90103 0.38273 0.0
H455 H 0.61402 0.96387 0.24909 0.0
H456 H 0.57431 0.911 0.43121 0.0
C457 C 0.58043 0.06223 0.59385 0.0
C458 C 0.34023 0.83876 0.55648 0.0
N459 N 0.41513 0.02453 0.61598 0.0
C460 C 0.39223 0.03536 0.6767 0.0
C461 C 0.36626 0.08831 0.69664 0.0
C462 C 0.36458 0.1301 0.65372 0.0
C463 C 0.39043 0.11828 0.59311 0.0
C464 C 0.41465 0.06499 0.57474 0.0
C465 C 0.66651 0.1271 0.4008 0.0
O466 O 0.45073 0.93027 0.43635 0.0
O467 O 0.45273 0.93216 0.32438 0.0
O468 O 0.55584 0.03594 0.52113 0.0
O469 O 0.55377 0.03403 0.63308 0.0
O470 O 0.33793 0.85675 0.49931 0.0
O471 O 0.39287 0.86877 0.61772 0.0
O472 O 0.66846 0.10963 0.45826 0.0
O473 O 0.61407 0.09678 0.3394 0.0
H474 H 0.39253 0.00224 0.70848 0.0
H475 H 0.43209 0.05501 0.52624 0.0
H476 H 0.52421 0.71799 0.52775 0.0
H477 H 0.67483 0.87658 0.72952 0.0
H478 H 0.33151 0.08947 0.22813 0.0
H479 H 0.48281 0.24843 0.42904 0.0
H480 H 0.61636 0.81714 0.39936 0.0
H481 H 0.66029 0.87074 0.21421 0.0
H482 H 0.34623 0.09535 0.74334 0.0
H483 H 0.38998 0.14882 0.55804 0.0
loop_
_geom_bond_atom_site_label_1
_geom_bond_atom_site_label_2
_geom_bond_distance
_geom_bond_site_symmetry_2
_ccdc_geom_bond_type
Tb0 O3 2.453 . S
Tb0 O4 2.596 . S
Tb0 O5 2.374 . S
Tb0 O13 2.343 . S
Tb0 O15 2.353 . S
Tb0 O17 2.427 . S
Tb0 O18 2.513 . S
C1 O5 1.251 . S
C1 O7 1.263 . S
Tb2 O4 2.343 . S
Tb2 O7 2.353 . S
Tb2 O10 2.427 . S
Tb2 O11 2.513 . S
Tb2 O12 2.453 . S
Tb2 O13 2.596 . S
Tb2 O14 2.374 . S
O3 Tb0 2.453 . S
O3 C19 1.245 . S
O4 Tb0 2.596 . S
O4 Tb2 2.343 . S
O4 C19 1.259 . S
O5 Tb0 2.374 . S
O5 C1 1.251 . S
C6 O10 1.275 . S
C6 O11 1.246 . S
O7 C1 1.263 . S
O7 Tb2 2.353 . S
C8 O12 1.245 . S
C8 O13 1.259 . S
C9 O14 1.250 . S
C9 O15 1.263 . S
O10 Tb2 2.427 . S
O10 C6 1.275 . S
O11 Tb2 2.513 . S
O11 C6 1.246 . S
O12 Tb2 2.453 . S
O12 C8 1.245 . S
O13 Tb0 2.343 . S
O13 Tb2 2.596 . S
O13 C8 1.259 . S
O14 Tb2 2.374 . S
O14 C9 1.250 . S
O15 Tb0 2.353 . S
O15 C9 1.263 . S
C16 O17 1.275 . S
C16 O18 1.246 . S
O17 Tb0 2.427 . S
O17 C16 1.275 . S
O18 Tb0 2.513 . S
O18 C16 1.246 . S
C19 O3 1.245 . S
C19 O4 1.259 . S
Tb20 O23 2.453 . S
Tb20 O24 2.596 . S
Tb20 O25 2.374 . S
Tb20 O33 2.343 . S
Tb20 O35 2.353 . S
Tb20 O37 2.427 . S
Tb20 O38 2.513 . S
C21 O25 1.251 . S
C21 O27 1.263 . S
Tb22 O24 2.343 . S
Tb22 O27 2.353 . S
Tb22 O30 2.427 . S
Tb22 O31 2.513 . S
Tb22 O32 2.453 . S
Tb22 O33 2.596 . S
Tb22 O34 2.374 . S
O23 Tb20 2.453 . S
O23 C39 1.245 . S
O24 Tb20 2.596 . S
O24 Tb22 2.343 . S
O24 C39 1.259 . S
O25 Tb20 2.374 . S
O25 C21 1.251 . S
C26 O30 1.275 . S
C26 O31 1.246 . S
O27 C21 1.263 . S
O27 Tb22 2.353 . S
C28 O32 1.245 . S
C28 O33 1.259 . S
C29 O34 1.250 . S
C29 O35 1.263 . S
O30 Tb22 2.427 . S
O30 C26 1.275 . S
O31 Tb22 2.513 . S
O31 C26 1.246 . S
O32 Tb22 2.453 . S
O32 C28 1.245 . S
O33 Tb20 2.343 . S
O33 Tb22 2.596 . S
O33 C28 1.259 . S
O34 Tb22 2.374 . S
O34 C29 1.250 . S
O35 Tb20 2.353 . S
O35 C29 1.263 . S
C36 O37 1.275 . S
C36 O38 1.246 . S
O37 Tb20 2.427 . S
O37 C36 1.275 . S
O38 Tb20 2.513 . S
O38 C36 1.246 . S
C39 O23 1.245 . S
C39 O24 1.259 . S
Tb40 O43 2.453 . S
Tb40 O44 2.596 . S
Tb40 O45 2.374 . S
Tb40 O53 2.343 . S
Tb40 O55 2.353 . S
Tb40 O57 2.427 . S
Tb40 O58 2.513 . S
C41 O45 1.251 . S
C41 O47 1.263 . S
Tb42 O44 2.343 . S
Tb42 O47 2.353 . S
Tb42 O50 2.427 . S
Tb42 O51 2.513 . S
Tb42 O52 2.453 . S
Tb42 O53 2.596 . S
Tb42 O54 2.374 . S
O43 Tb40 2.453 . S
O43 C59 1.245 . S
O44 Tb40 2.596 . S
O44 Tb42 2.343 . S
O44 C59 1.259 . S
O45 Tb40 2.374 . S
O45 C41 1.251 . S
C46 O50 1.275 . S
C46 O51 1.246 . S
O47 C41 1.263 . S
O47 Tb42 2.353 . S
C48 O52 1.245 . S
C48 O53 1.259 . S
C49 O54 1.250 . S
C49 O55 1.263 . S
O50 Tb42 2.427 . S
O50 C46 1.275 . S
O51 Tb42 2.513 . S
O51 C46 1.246 . S
O52 Tb42 2.453 . S
O52 C48 1.245 . S
O53 Tb40 2.343 . S
O53 Tb42 2.596 . S
O53 C48 1.259 . S
O54 Tb42 2.374 . S
O54 C49 1.250 . S
O55 Tb40 2.353 . S
O55 C49 1.263 . S
C56 O57 1.275 . S
C56 O58 1.246 . S
O57 Tb40 2.427 . S
O57 C56 1.275 . S
O58 Tb40 2.513 . S
O58 C56 1.246 . S
C59 O43 1.245 . S
C59 O44 1.259 . S
Tb60 O63 2.453 . S
Tb60 O64 2.596 . S
Tb60 O65 2.374 . S
Tb60 O73 2.343 . S
Tb60 O75 2.353 . S
Tb60 O77 2.427 . S
Tb60 O78 2.513 . S
C61 O65 1.251 . S
C61 O67 1.263 . S
Tb62 O64 2.343 . S
Tb62 O67 2.353 . S
Tb62 O70 2.427 . S
Tb62 O71 2.513 . S
Tb62 O72 2.453 . S
Tb62 O73 2.596 . S
Tb62 O74 2.374 . S
O63 Tb60 2.453 . S
O63 C79 1.245 . S
O64 Tb60 2.596 . S
O64 Tb62 2.343 . S
O64 C79 1.259 . S
O65 Tb60 2.374 . S
O65 C61 1.251 . S
C66 O70 1.275 . S
C66 O71 1.246 . S
O67 C61 1.263 . S
O67 Tb62 2.353 . S
C68 O72 1.245 . S
C68 O73 1.259 . S
C69 O74 1.250 . S
C69 O75 1.263 . S
O70 Tb62 2.427 . S
O70 C66 1.275 . S
O71 Tb62 2.513 . S
O71 C66 1.246 . S
O72 Tb62 2.453 . S
O72 C68 1.245 . S
O73 Tb60 2.343 . S
O73 Tb62 2.596 . S
O73 C68 1.259 . S
O74 Tb62 2.374 . S
O74 C69 1.250 . S
O75 Tb60 2.353 . S
O75 C69 1.263 . S
C76 O77 1.275 . S
C76 O78 1.246 . S
O77 Tb60 2.427 . S
O77 C76 1.275 . S
O78 Tb60 2.513 . S
O78 C76 1.246 . S
C79 O63 1.245 . S
C79 O64 1.259 . S
Tb80 O83 2.453 . S
Tb80 O84 2.596 . S
Tb80 O85 2.374 . S
Tb80 O93 2.343 . S
Tb80 O95 2.353 . S
Tb80 O97 2.427 . S
Tb80 O98 2.513 . S
C81 O85 1.251 . S
C81 O87 1.263 . S
Tb82 O84 2.343 . S
Tb82 O87 2.353 . S
Tb82 O90 2.427 . S
Tb82 O91 2.513 . S
Tb82 O92 2.453 . S
Tb82 O93 2.596 . S
Tb82 O94 2.374 . S
O83 Tb80 2.453 . S
O83 C99 1.245 . S
O84 Tb80 2.596 . S
O84 Tb82 2.343 . S
O84 C99 1.259 . S
O85 Tb80 2.374 . S
O85 C81 1.251 . S
C86 O90 1.275 . S
C86 O91 1.246 . S
O87 C81 1.263 . S
O87 Tb82 2.353 . S
C88 O92 1.245 . S
C88 O93 1.259 . S
C89 O94 1.250 . S
C89 O95 1.263 . S
O90 Tb82 2.427 . S
O90 C86 1.275 . S
O91 Tb82 2.513 . S
O91 C86 1.246 . S
O92 Tb82 2.453 . S
O92 C88 1.245 . S
O93 Tb80 2.343 . S
O93 Tb82 2.596 . S
O93 C88 1.259 . S
O94 Tb82 2.374 . S
O94 C89 1.250 . S
O95 Tb80 2.353 . S
O95 C89 1.263 . S
C96 O97 1.275 . S
C96 O98 1.246 . S
O97 Tb80 2.427 . S
O97 C96 1.275 . S
O98 Tb80 2.513 . S
O98 C96 1.246 . S
C99 O83 1.245 . S
C99 O84 1.259 . S
Tb100 O103 2.453 . S
Tb100 O104 2.596 . S
Tb100 O105 2.374 . S
Tb100 O113 2.343 . S
Tb100 O115 2.353 . S
Tb100 O117 2.427 . S
Tb100 O118 2.513 . S
C101 O105 1.251 . S
C101 O107 1.263 . S
Tb102 O104 2.343 . S
Tb102 O107 2.353 . S
Tb102 O110 2.427 . S
Tb102 O111 2.513 . S
Tb102 O112 2.453 . S
Tb102 O113 2.596 . S
Tb102 O114 2.374 . S
O103 Tb100 2.453 . S
O103 C119 1.245 . S
O104 Tb100 2.596 . S
O104 Tb102 2.343 . S
O104 C119 1.259 . S
O105 Tb100 2.374 . S
O105 C101 1.251 . S
C106 O110 1.275 . S
C106 O111 1.246 . S
O107 C101 1.263 . S
O107 Tb102 2.353 . S
C108 O112 1.245 . S
C108 O113 1.259 . S
C109 O114 1.250 . S
C109 O115 1.263 . S
O110 Tb102 2.427 . S
O110 C106 1.275 . S
O111 Tb102 2.513 . S
O111 C106 1.246 . S
O112 Tb102 2.453 . S
O112 C108 1.245 . S
O113 Tb100 2.343 . S
O113 Tb102 2.596 . S
O113 C108 1.259 . S
O114 Tb102 2.374 . S
O114 C109 1.250 . S
O115 Tb100 2.353 . S
O115 C109 1.263 . S
C116 O117 1.275 . S
C116 O118 1.246 . S
O117 Tb100 2.427 . S
O117 C116 1.275 . S
O118 Tb100 2.513 . S
O118 C116 1.246 . S
C119 O103 1.245 . S
C119 O104 1.259 . S
Tb120 O123 2.453 . S
Tb120 O124 2.596 . S
Tb120 O125 2.374 . S
Tb120 O133 2.343 . S
Tb120 O135 2.353 . S
Tb120 O137 2.427 . S
Tb120 O138 2.513 . S
C121 O125 1.251 . S
C121 O127 1.263 . S
Tb122 O124 2.343 . S
Tb122 O127 2.353 . S
Tb122 O130 2.427 . S
Tb122 O131 2.513 . S
Tb122 O132 2.453 . S
Tb122 O133 2.596 . S
Tb122 O134 2.374 . S
O123 Tb120 2.453 . S
O123 C139 1.245 . S
O124 Tb120 2.596 . S
O124 Tb122 2.343 . S
O124 C139 1.259 . S
O125 Tb120 2.374 . S
O125 C121 1.251 . S
C126 O130 1.275 . S
C126 O131 1.246 . S
O127 C121 1.263 . S
O127 Tb122 2.353 . S
C128 O132 1.245 . S
C128 O133 1.259 . S
C129 O134 1.250 . S
C129 O135 1.263 . S
O130 Tb122 2.427 . S
O130 C126 1.275 . S
O131 Tb122 2.513 . S
O131 C126 1.246 . S
O132 Tb122 2.453 . S
O132 C128 1.245 . S
O133 Tb120 2.343 . S
O133 Tb122 2.596 . S
O133 C128 1.259 . S
O134 Tb122 2.374 . S
O134 C129 1.250 . S
O135 Tb120 2.353 . S
O135 C129 1.263 . S
C136 O137 1.275 . S
C136 O138 1.246 . S
O137 Tb120 2.427 . S
O137 C136 1.275 . S
O138 Tb120 2.513 . S
O138 C136 1.246 . S
C139 O123 1.245 . S
C139 O124 1.259 . S
Tb140 O143 2.453 . S
Tb140 O144 2.596 . S
Tb140 O145 2.374 . S
Tb140 O153 2.343 . S
Tb140 O155 2.353 . S
Tb140 O157 2.427 . S
Tb140 O158 2.513 . S
C141 O145 1.251 . S
C141 O147 1.263 . S
Tb142 O144 2.343 . S
Tb142 O147 2.353 . S
Tb142 O150 2.427 . S
Tb142 O151 2.513 . S
Tb142 O152 2.453 . S
Tb142 O153 2.596 . S
Tb142 O154 2.374 . S
O143 Tb140 2.453 . S
O143 C159 1.245 . S
O144 Tb140 2.596 . S
O144 Tb142 2.343 . S
O144 C159 1.259 . S
O145 Tb140 2.374 . S
O145 C141 1.251 . S
C146 O150 1.275 . S
C146 O151 1.246 . S
O147 C141 1.263 . S
O147 Tb142 2.353 . S
C148 O152 1.245 . S
C148 O153 1.259 . S
C149 O154 1.250 . S
C149 O155 1.263 . S
O150 Tb142 2.427 . S
O150 C146 1.275 . S
O151 Tb142 2.513 . S
O151 C146 1.246 . S
O152 Tb142 2.453 . S
O152 C148 1.245 . S
O153 Tb140 2.343 . S
O153 Tb142 2.596 . S
O153 C148 1.259 . S
O154 Tb142 2.374 . S
O154 C149 1.250 . S
O155 Tb140 2.353 . S
O155 C149 1.263 . S
C156 O157 1.275 . S
C156 O158 1.246 . S
O157 Tb140 2.427 . S
O157 C156 1.275 . S
O158 Tb140 2.513 . S
O158 C156 1.246 . S
C159 O143 1.245 . S
C159 O144 1.259 . S
Cd160 N163 2.334 1_655 S
Cd160 N189 2.304 1_565 S
Cd160 O196 2.268 . S
Cd160 O199 2.273 1_665 S
Cd160 O200 2.417 . S
Cd160 O201 2.330 . S
Cd161 N176 2.304 1_455 S
Cd161 N180 2.334 1_545 S
Cd161 O197 2.273 1_445 S
Cd161 O198 2.268 . S
Cd161 O202 2.417 . S
Cd161 O203 2.330 . S
C162 N163 1.332 . S
C162 C166 1.381 . S
C162 H168 0.931 . S
N163 Cd160 2.334 1_455 S
N163 C162 1.332 . S
N163 C167 1.328 . S
C164 C165 1.396 . S
C164 C167 1.378 . S
C164 H206 0.931 . S
C165 C164 1.396 . S
C165 C166 1.382 . S
C166 C162 1.381 . S
C166 C165 1.382 . S
C166 H207 0.930 . S
C167 N163 1.328 . S
C167 C164 1.378 . S
C167 H169 0.930 1_455 S
H168 C162 0.931 . S
H169 C167 0.930 1_655 S
C170 O196 1.238 . S
C170 O197 1.253 . S
C171 C172 1.379 . S
C171 N176 1.337 . S
C171 H177 0.929 . S
C172 C171 1.379 . S
C172 C173 1.380 . S
C172 H208 0.929 . S
C173 C172 1.380 . S
C173 C174 1.399 . S
C174 C173 1.399 . S
C174 C175 1.376 . S
C174 H209 0.931 . S
C175 C174 1.376 . S
C175 N176 1.338 . S
C175 H178 0.930 1_655 S
N176 Cd161 2.304 1_655 S
N176 C171 1.337 . S
N176 C175 1.338 . S
H177 C171 0.929 . S
H178 C175 0.930 1_455 S
C179 N180 1.332 . S
C179 C183 1.381 . S
C179 H185 0.931 . S
N180 Cd161 2.334 1_565 S
N180 C179 1.332 . S
N180 C184 1.328 . S
C181 C182 1.396 . S
C181 C184 1.378 . S
C181 H210 0.931 . S
C182 C181 1.396 . S
C182 C183 1.382 . S
C183 C179 1.381 . S
C183 C182 1.382 . S
C183 H211 0.930 . S
C184 N180 1.328 . S
C184 C181 1.378 . S
C184 H186 0.930 1_565 S
H185 C179 0.931 . S
H186 C184 0.930 1_545 S
C187 O198 1.238 . S
C187 O199 1.253 . S
C188 O200 1.239 . S
C188 O201 1.230 . S
N189 Cd160 2.304 1_545 S
N189 C190 1.337 . S
N189 C194 1.338 . S
C190 N189 1.337 . S
C190 C191 1.379 . S
C190 H204 0.929 . S
C191 C190 1.379 . S
C191 C192 1.380 . S
C191 H212 0.929 . S
C192 C191 1.380 . S
C192 C193 1.399 . S
C193 C192 1.399 . S
C193 C194 1.376 . S
C193 H213 0.931 . S
C194 N189 1.338 . S
C194 C193 1.376 . S
C194 H205 0.930 1_545 S
C195 O202 1.239 . S
C195 O203 1.230 . S
O196 Cd160 2.268 . S
O196 C170 1.238 . S
O197 Cd161 2.273 1_665 S
O197 C170 1.253 . S
O198 Cd161 2.268 . S
O198 C187 1.238 . S
O199 Cd160 2.273 1_445 S
O199 C187 1.253 . S
O200 Cd160 2.417 . S
O200 C188 1.239 . S
O201 Cd160 2.330 . S
O201 C188 1.230 . S
O202 Cd161 2.417 . S
O202 C195 1.239 . S
O203 Cd161 2.330 . S
O203 C195 1.230 . S
H204 C190 0.929 . S
H205 C194 0.930 1_565 S
H206 C164 0.931 . S
H207 C166 0.930 . S
H208 C172 0.929 . S
H209 C174 0.931 . S
H210 C181 0.931 . S
H211 C183 0.930 . S
H212 C191 0.929 . S
H213 C193 0.931 . S
Cd214 N217 2.334 . S
Cd214 N243 2.304 1_565 S
Cd214 O250 2.268 1_554 S
Cd214 O253 2.273 1_565 S
Cd214 O254 2.417 . S
Cd214 O255 2.330 . S
Cd215 N230 2.304 . S
Cd215 N234 2.334 1_545 S
Cd215 O251 2.273 1_545 S
Cd215 O252 2.268 1_556 S
Cd215 O256 2.417 . S
Cd215 O257 2.330 . S
C216 N217 1.332 . S
C216 C220 1.381 . S
C216 H222 0.931 . S
N217 Cd214 2.334 . S
N217 C216 1.332 . S
N217 C221 1.328 . S
C218 C219 1.396 . S
C218 C221 1.378 . S
C218 H260 0.931 1_554 S
C219 C218 1.396 . S
C219 C220 1.382 . S
C220 C216 1.381 . S
C220 C219 1.382 . S
C220 H261 0.930 . S
C221 N217 1.328 . S
C221 C218 1.378 . S
C221 H223 0.930 1_554 S
H222 C216 0.931 . S
H223 C221 0.930 1_556 S
C224 O250 1.238 . S
C224 O251 1.253 . S
C225 C226 1.379 . S
C225 N230 1.337 . S
C225 H231 0.929 . S
C226 C225 1.379 . S
C226 C227 1.380 . S
C226 H262 0.929 . S
C227 C226 1.380 . S
C227 C228 1.399 . S
C228 C227 1.399 . S
C228 C229 1.376 . S
C228 H263 0.931 1_556 S
C229 C228 1.376 . S
C229 N230 1.338 . S
C229 H232 0.930 1_556 S
N230 Cd215 2.304 . S
N230 C225 1.337 . S
N230 C229 1.338 . S
H231 C225 0.929 . S
H232 C229 0.930 1_554 S
C233 N234 1.332 . S
C233 C237 1.381 . S
C233 H239 0.931 . S
N234 Cd215 2.334 1_565 S
N234 C233 1.332 . S
N234 C238 1.328 . S
C235 C236 1.396 . S
C235 C238 1.378 . S
C235 H264 0.931 1_556 S
C236 C235 1.396 . S
C236 C237 1.382 . S
C237 C233 1.381 . S
C237 C236 1.382 . S
C237 H265 0.930 . S
C238 N234 1.328 . S
C238 C235 1.378 . S
C238 H240 0.930 1_566 S
H239 C233 0.931 . S
H240 C238 0.930 1_544 S
C241 O252 1.238 . S
C241 O253 1.253 . S
C242 O254 1.239 . S
C242 O255 1.230 . S
N243 Cd214 2.304 1_545 S
N243 C244 1.337 . S
N243 C248 1.338 . S
C244 N243 1.337 . S
C244 C245 1.379 . S
C244 H258 0.929 . S
C245 C244 1.379 . S
C245 C246 1.380 . S
C245 H266 0.929 . S
C246 C245 1.380 . S
C246 C247 1.399 . S
C247 C246 1.399 . S
C247 C248 1.376 . S
C247 H267 0.931 1_554 S
C248 N243 1.338 . S
C248 C247 1.376 . S
C248 H259 0.930 1_544 S
C249 O256 1.239 . S
C249 O257 1.230 . S
O250 Cd214 2.268 1_556 S
O250 C224 1.238 . S
O251 Cd215 2.273 1_565 S
O251 C224 1.253 . S
O252 Cd215 2.268 1_554 S
O252 C241 1.238 . S
O253 Cd214 2.273 1_545 S
O253 C241 1.253 . S
O254 Cd214 2.417 . S
O254 C242 1.239 . S
O255 Cd214 2.330 . S
O255 C242 1.230 . S
O256 Cd215 2.417 . S
O256 C249 1.239 . S
O257 Cd215 2.330 . S
O257 C249 1.230 . S
H258 C244 0.929 . S
H259 C248 0.930 1_566 S
H260 C218 0.931 1_556 S
H261 C220 0.930 . S
H262 C226 0.929 . S
H263 C228 0.931 1_554 S
H264 C235 0.931 1_554 S
H265 C237 0.930 . S
H266 C245 0.929 . S
H267 C247 0.931 1_556 S
Cd268 N271 2.334 1_655 S
Cd268 N297 2.304 . S
Cd268 O304 2.268 1_554 S
Cd268 O307 2.273 1_655 S
Cd268 O308 2.417 . S
Cd268 O309 2.330 . S
Cd269 N284 2.304 1_455 S
Cd269 N288 2.334 . S
Cd269 O305 2.273 1_455 S
Cd269 O306 2.268 1_556 S
Cd269 O310 2.417 . S
Cd269 O311 2.330 . S
C270 N271 1.332 . S
C270 C274 1.381 . S
C270 H276 0.931 . S
N271 Cd268 2.334 1_455 S
N271 C270 1.332 . S
N271 C275 1.328 . S
C272 C273 1.396 . S
C272 C275 1.378 . S
C272 H314 0.931 1_554 S
C273 C272 1.396 . S
C273 C274 1.382 . S
C274 C270 1.381 . S
C274 C273 1.382 . S
C274 H315 0.930 . S
C275 N271 1.328 . S
C275 C272 1.378 . S
C275 H277 0.930 1_454 S
H276 C270 0.931 . S
H277 C275 0.930 1_656 S
C278 O304 1.238 . S
C278 O305 1.253 . S
C279 C280 1.379 . S
C279 N284 1.337 . S
C279 H285 0.929 . S
C280 C279 1.379 . S
C280 C281 1.380 . S
C280 H316 0.929 . S
C281 C280 1.380 . S
C281 C282 1.399 . S
C282 C281 1.399 . S
C282 C283 1.376 . S
C282 H317 0.931 1_556 S
C283 C282 1.376 . S
C283 N284 1.338 . S
C283 H286 0.930 1_656 S
N284 Cd269 2.304 1_655 S
N284 C279 1.337 . S
N284 C283 1.338 . S
H285 C279 0.929 . S
H286 C283 0.930 1_454 S
C287 N288 1.332 . S
C287 C291 1.381 . S
C287 H293 0.931 . S
N288 Cd269 2.334 . S
N288 C287 1.332 . S
N288 C292 1.328 . S
C289 C290 1.396 . S
C289 C292 1.378 . S
C289 H318 0.931 1_556 S
C290 C289 1.396 . S
C290 C291 1.382 . S
C291 C287 1.381 . S
C291 C290 1.382 . S
C291 H319 0.930 . S
C292 N288 1.328 . S
C292 C289 1.378 . S
C292 H294 0.930 1_556 S
H293 C287 0.931 . S
H294 C292 0.930 1_554 S
C295 O306 1.238 . S
C295 O307 1.253 . S
C296 O308 1.239 . S
C296 O309 1.230 . S
N297 Cd268 2.304 . S
N297 C298 1.337 . S
N297 C302 1.338 . S
C298 N297 1.337 . S
C298 C299 1.379 . S
C298 H312 0.929 . S
C299 C298 1.379 . S
C299 C300 1.380 . S
C299 H320 0.929 . S
C300 C299 1.380 . S
C300 C301 1.399 . S
C301 C300 1.399 . S
C301 C302 1.376 . S
C301 H321 0.931 1_554 S
C302 N297 1.338 . S
C302 C301 1.376 . S
C302 H313 0.930 1_554 S
C303 O310 1.239 . S
C303 O311 1.230 . S
O304 Cd268 2.268 1_556 S
O304 C278 1.238 . S
O305 Cd269 2.273 1_655 S
O305 C278 1.253 . S
O306 Cd269 2.268 1_554 S
O306 C295 1.238 . S
O307 Cd268 2.273 1_455 S
O307 C295 1.253 . S
O308 Cd268 2.417 . S
O308 C296 1.239 . S
O309 Cd268 2.330 . S
O309 C296 1.230 . S
O310 Cd269 2.417 . S
O310 C303 1.239 . S
O311 Cd269 2.330 . S
O311 C303 1.230 . S
H312 C298 0.929 . S
H313 C302 0.930 1_556 S
H314 C272 0.931 1_556 S
H315 C274 0.930 . S
H316 C280 0.929 . S
H317 C282 0.931 1_554 S
H318 C289 0.931 1_554 S
H319 C291 0.930 . S
H320 C299 0.929 . S
H321 C301 0.931 1_556 S
Cd322 N325 2.334 . S
Cd322 N351 2.304 . S
Cd322 O358 2.268 1_554 S
Cd322 O361 2.273 . S
Cd322 O362 2.417 . S
Cd322 O363 2.330 . S
Cd323 N338 2.304 . S
Cd323 N342 2.334 . S
Cd323 O359 2.273 . S
Cd323 O360 2.268 1_556 S
Cd323 O364 2.417 . S
Cd323 O365 2.330 . S
C324 N325 1.332 . S
C324 C328 1.381 . S
C324 H330 0.931 . S
N325 Cd322 2.334 . S
N325 C324 1.332 . S
N325 C329 1.328 . S
C326 C327 1.396 . S
C326 C329 1.378 . S
C326 H368 0.931 1_554 S
C327 C326 1.396 . S
C327 C328 1.382 . S
C328 C324 1.381 . S
C328 C327 1.382 . S
C328 H369 0.930 . S
C329 N325 1.328 . S
C329 C326 1.378 . S
C329 H331 0.930 1_554 S
H330 C324 0.931 . S
H331 C329 0.930 1_556 S
C332 O358 1.238 . S
C332 O359 1.253 . S
C333 C334 1.379 . S
C333 N338 1.337 . S
C333 H339 0.929 . S
C334 C333 1.379 . S
C334 C335 1.380 . S
C334 H370 0.929 . S
C335 C334 1.380 . S
C335 C336 1.399 . S
C336 C335 1.399 . S
C336 C337 1.376 . S
C336 H371 0.931 1_556 S
C337 C336 1.376 . S
C337 N338 1.338 . S
C337 H340 0.930 1_556 S
N338 Cd323 2.304 . S
N338 C333 1.337 . S
N338 C337 1.338 . S
H339 C333 0.929 . S
H340 C337 0.930 1_554 S
C341 N342 1.332 . S
C341 C345 1.381 . S
C341 H347 0.931 . S
N342 Cd323 2.334 . S
N342 C341 1.332 . S
N342 C346 1.328 . S
C343 C344 1.396 . S
C343 C346 1.378 . S
C343 H372 0.931 1_556 S
C344 C343 1.396 . S
C344 C345 1.382 . S
C345 C341 1.381 . S
C345 C344 1.382 . S
C345 H373 0.930 . S
C346 N342 1.328 . S
C346 C343 1.378 . S
C346 H348 0.930 1_556 S
H347 C341 0.931 . S
H348 C346 0.930 1_554 S
C349 O360 1.238 . S
C349 O361 1.253 . S
C350 O362 1.239 . S
C350 O363 1.230 . S
N351 Cd322 2.304 . S
N351 C352 1.337 . S
N351 C356 1.338 . S
C352 N351 1.337 . S
C352 C353 1.379 . S
C352 H366 0.929 . S
C353 C352 1.379 . S
C353 C354 1.380 . S
C353 H374 0.929 . S
C354 C353 1.380 . S
C354 C355 1.399 . S
C355 C354 1.399 . S
C355 C356 1.376 . S
C355 H375 0.931 1_554 S
C356 N351 1.338 . S
C356 C355 1.376 . S
C356 H367 0.930 1_554 S
C357 O364 1.239 . S
C357 O365 1.230 . S
O358 Cd322 2.268 1_556 S
O358 C332 1.238 . S
O359 Cd323 2.273 . S
O359 C332 1.253 . S
O360 Cd323 2.268 1_554 S
O360 C349 1.238 . S
O361 Cd322 2.273 . S
O361 C349 1.253 . S
O362 Cd322 2.417 . S
O362 C350 1.239 . S
O363 Cd322 2.330 . S
O363 C350 1.230 . S
O364 Cd323 2.417 . S
O364 C357 1.239 . S
O365 Cd323 2.330 . S
O365 C357 1.230 . S
H366 C352 0.929 . S
H367 C356 0.930 1_556 S
H368 C326 0.931 1_556 S
H369 C328 0.930 . S
H370 C334 0.929 . S
H371 C336 0.931 1_554 S
H372 C343 0.931 1_554 S
H373 C345 0.930 . S
H374 C353 0.929 . S
H375 C355 0.931 1_556 S
Cd376 N379 2.334 1_655 S
Cd376 N405 2.304 . S
Cd376 O412 2.268 . S
Cd376 O415 2.273 1_655 S
Cd376 O416 2.417 . S
Cd376 O417 2.330 . S
Cd377 N392 2.304 1_455 S
Cd377 N396 2.334 . S
Cd377 O413 2.273 1_455 S
Cd377 O414 2.268 . S
Cd377 O418 2.417 . S
Cd377 O419 2.330 . S
C378 N379 1.332 . S
C378 C382 1.381 . S
C378 H384 0.931 . S
N379 Cd376 2.334 1_455 S
N379 C378 1.332 . S
N379 C383 1.328 . S
C380 C381 1.396 . S
C380 C383 1.378 . S
C380 H422 0.931 . S
C381 C380 1.396 . S
C381 C382 1.382 . S
C382 C378 1.381 . S
C382 C381 1.382 . S
C382 H423 0.930 . S
C383 N379 1.328 . S
C383 C380 1.378 . S
C383 H385 0.930 1_455 S
H384 C378 0.931 . S
H385 C383 0.930 1_655 S
C386 O412 1.238 . S
C386 O413 1.253 . S
C387 C388 1.379 . S
C387 N392 1.337 . S
C387 H393 0.929 . S
C388 C387 1.379 . S
C388 C389 1.380 . S
C388 H424 0.929 . S
C389 C388 1.380 . S
C389 C390 1.399 . S
C390 C389 1.399 . S
C390 C391 1.376 . S
C390 H425 0.931 . S
C391 C390 1.376 . S
C391 N392 1.338 . S
C391 H394 0.930 1_655 S
N392 Cd377 2.304 1_655 S
N392 C387 1.337 . S
N392 C391 1.338 . S
H393 C387 0.929 . S
H394 C391 0.930 1_455 S
C395 N396 1.332 . S
C395 C399 1.381 . S
C395 H401 0.931 . S
N396 Cd377 2.334 . S
N396 C395 1.332 . S
N396 C400 1.328 . S
C397 C398 1.396 . S
C397 C400 1.378 . S
C397 H426 0.931 . S
C398 C397 1.396 . S
C398 C399 1.382 . S
C399 C395 1.381 . S
C399 C398 1.382 . S
C399 H427 0.930 . S
C400 N396 1.328 . S
C400 C397 1.378 . S
C400 H402 0.930 . S
H401 C395 0.931 . S
H402 C400 0.930 . S
C403 O414 1.238 . S
C403 O415 1.253 . S
C404 O416 1.239 . S
C404 O417 1.230 . S
N405 Cd376 2.304 . S
N405 C406 1.337 . S
N405 C410 1.338 . S
C406 N405 1.337 . S
C406 C407 1.379 . S
C406 H420 0.929 . S
C407 C406 1.379 . S
C407 C408 1.380 . S
C407 H428 0.929 . S
C408 C407 1.380 . S
C408 C409 1.399 . S
C409 C408 1.399 . S
C409 C410 1.376 . S
C409 H429 0.931 . S
C410 N405 1.338 . S
C410 C409 1.376 . S
C410 H421 0.930 . S
C411 O418 1.239 . S
C411 O419 1.230 . S
O412 Cd376 2.268 . S
O412 C386 1.238 . S
O413 Cd377 2.273 1_655 S
O413 C386 1.253 . S
O414 Cd377 2.268 . S
O414 C403 1.238 . S
O415 Cd376 2.273 1_455 S
O415 C403 1.253 . S
O416 Cd376 2.417 . S
O416 C404 1.239 . S
O417 Cd376 2.330 . S
O417 C404 1.230 . S
O418 Cd377 2.417 . S
O418 C411 1.239 . S
O419 Cd377 2.330 . S
O419 C411 1.230 . S
H420 C406 0.929 . S
H421 C410 0.930 . S
H422 C380 0.931 . S
H423 C382 0.930 . S
H424 C388 0.929 . S
H425 C390 0.931 . S
H426 C397 0.931 . S
H427 C399 0.930 . S
H428 C407 0.929 . S
H429 C409 0.931 . S
Cd430 N433 2.334 . S
Cd430 N459 2.304 1_565 S
Cd430 O466 2.268 . S
Cd430 O469 2.273 1_565 S
Cd430 O470 2.417 . S
Cd430 O471 2.330 . S
Cd431 N446 2.304 . S
Cd431 N450 2.334 1_545 S
Cd431 O467 2.273 1_545 S
Cd431 O468 2.268 . S
Cd431 O472 2.417 . S
Cd431 O473 2.330 . S
C432 N433 1.332 . S
C432 C436 1.381 . S
C432 H438 0.931 . S
N433 Cd430 2.334 . S
N433 C432 1.332 . S
N433 C437 1.328 . S
C434 C435 1.396 . S
C434 C437 1.378 . S
C434 H476 0.931 . S
C435 C434 1.396 . S
C435 C436 1.382 . S
C436 C432 1.381 . S
C436 C435 1.382 . S
C436 H477 0.930 . S
C437 N433 1.328 . S
C437 C434 1.378 . S
C437 H439 0.930 . S
H438 C432 0.931 . S
H439 C437 0.930 . S
C440 O466 1.238 . S
C440 O467 1.253 . S
C441 C442 1.379 . S
C441 N446 1.337 . S
C441 H447 0.929 . S
C442 C441 1.379 . S
C442 C443 1.380 . S
C442 H478 0.929 . S
C443 C442 1.380 . S
C443 C444 1.399 . S
C444 C443 1.399 . S
C444 C445 1.376 . S
C444 H479 0.931 . S
C445 C444 1.376 . S
C445 N446 1.338 . S
C445 H448 0.930 . S
N446 Cd431 2.304 . S
N446 C441 1.337 . S
N446 C445 1.338 . S
H447 C441 0.929 . S
H448 C445 0.930 . S
C449 N450 1.332 . S
C449 C453 1.381 . S
C449 H455 0.931 . S
N450 Cd431 2.334 1_565 S
N450 C449 1.332 . S
N450 C454 1.328 . S
C451 C452 1.396 . S
C451 C454 1.378 . S
C451 H480 0.931 . S
C452 C451 1.396 . S
C452 C453 1.382 . S
C453 C449 1.381 . S
C453 C452 1.382 . S
C453 H481 0.930 . S
C454 N450 1.328 . S
C454 C451 1.378 . S
C454 H456 0.930 1_565 S
H455 C449 0.931 . S
H456 C454 0.930 1_545 S
C457 O468 1.238 . S
C457 O469 1.253 . S
C458 O470 1.239 . S
C458 O471 1.230 . S
N459 Cd430 2.304 1_545 S
N459 C460 1.337 . S
N459 C464 1.338 . S
C460 N459 1.337 . S
C460 C461 1.379 . S
C460 H474 0.929 . S
C461 C460 1.379 . S
C461 C462 1.380 . S
C461 H482 0.929 . S
C462 C461 1.380 . S
C462 C463 1.399 . S
C463 C462 1.399 . S
C463 C464 1.376 . S
C463 H483 0.931 . S
C464 N459 1.338 . S
C464 C463 1.376 . S
C464 H475 0.930 1_545 S
C465 O472 1.239 . S
C465 O473 1.230 . S
O466 Cd430 2.268 . S
O466 C440 1.238 . S
O467 Cd431 2.273 1_565 S
O467 C440 1.253 . S
O468 Cd431 2.268 . S
O468 C457 1.238 . S
O469 Cd430 2.273 1_545 S
O469 C457 1.253 . S
O470 Cd430 2.417 . S
O470 C458 1.239 . S
O471 Cd430 2.330 . S
O471 C458 1.230 . S
O472 Cd431 2.417 . S
O472 C465 1.239 . S
O473 Cd431 2.330 . S
O473 C465 1.230 . S
H474 C460 0.929 . S
H475 C464 0.930 1_565 S
H476 C434 0.931 . S
H477 C436 0.930 . S
H478 C442 0.929 . S
H479 C444 0.931 . S
H480 C451 0.931 . S
H481 C453 0.930 . S
H482 C461 0.929 . S
H483 C463 0.931 . S
C195 C9 2.028 . S
C173 C28 2.541 . S
C170 C49 0.796 . S
C79 C182 2.577 . S
C99 C165 2.522 . S
C187 C101 0.797 . S
C128 C192 2.604 . S
C141 C188 2.030 . S
C246 C16 1.331 . S
C26 C296 1.781 . S
C219 C56 1.218 . S
C295 C69 1.188 . S
C89 C224 1.211 . S
C290 C108 2.481 . S
C126 C249 1.868 . S
C148 C281 2.516 . S
C19 C273 2.524 . S
C96 C303 1.789 . S
C227 C106 1.280 . S
C278 C121 1.200 . S
C146 C236 1.348 . S
C59 C300 2.520 . S
C242 C76 1.867 . S
C21 C241 1.217 . S
C149 C357 2.028 . S
C88 C335 2.541 . S
C332 C109 0.795 . S
C344 C139 2.577 . S
C39 C327 2.522 . S
C349 C41 0.797 . S
C68 C354 2.604 . S
C1 C350 2.029 . S
C156 C408 1.331 . S
C458 C86 1.781 . S
C116 C381 1.218 . S
C129 C457 1.188 . S
C386 C29 1.211 . S
C48 C452 2.481 . S
C411 C66 1.868 . S
C443 C8 2.516 . S
C435 C159 2.524 . S
C36 C465 1.790 . S
C46 C389 1.280 . S
C440 C61 1.200 . S
C6 C398 1.348 . S
C119 C462 2.520 . S
C404 C136 1.867 . S
C403 C81 1.217 . S
