# Generated by pormake.
# Topology cml, (3,6)-cn, num edge types: 1
# Building blocks:
#     Node 0, Type 0, BuildingBlock: OLANEW_clean_sbu_2, # of connection points: 3
#     Node 1, Type 0, BuildingBlock: OLANEW_clean_sbu_2, # of connection points: 3
#     Node 2, Type 0, BuildingBlock: OLANEW_clean_sbu_2, # of connection points: 3
#     Node 3, Type 0, BuildingBlock: OLANEW_clean_sbu_2, # of connection points: 3
#     Node 4, Type 0, BuildingBlock: OLANEW_clean_sbu_2, # of connection points: 3
#     Node 5, Type 0, BuildingBlock: OLANEW_clean_sbu_2, # of connection points: 3
#     Node 6, Type 0, BuildingBlock: OLANEW_clean_sbu_2, # of connection points: 3
#     Node 7, Type 0, BuildingBlock: OLANEW_clean_sbu_2, # of connection points: 3
#     Node 8, Type 1, BuildingBlock: IZENUY_clean_sbu_0, # of connection points: 6
#     Node 9, Type 1, BuildingBlock: IZENUY_clean_sbu_0, # of connection points: 6
#     Node 10, Type 1, BuildingBlock: IZENUY_clean_sbu_0, # of connection points: 6
#     Node 11, Type 1, BuildingBlock: IZENUY_clean_sbu_0, # of connection points: 6
#     Edge 12, Type (0, 1), BuildingBlock: KIFKEQ_clean_linker_1, # of connection points: 2
#     Edge 13, Type (0, 1), BuildingBlock: KIFKEQ_clean_linker_1, # of connection points: 2
#     Edge 14, Type (0, 1), BuildingBlock: KIFKEQ_clean_linker_1, # of connection points: 2
#     Edge 15, Type (0, 1), BuildingBlock: KIFKEQ_clean_linker_1, # of connection points: 2
#     Edge 16, Type (0, 1), BuildingBlock: KIFKEQ_clean_linker_1, # of connection points: 2
#     Edge 17, Type (0, 1), BuildingBlock: KIFKEQ_clean_linker_1, # of connection points: 2
#     Edge 18, Type (0, 1), BuildingBlock: KIFKEQ_clean_linker_1, # of connection points: 2
#     Edge 19, Type (0, 1), BuildingBlock: KIFKEQ_clean_linker_1, # of connection points: 2
#     Edge 20, Type (0, 1), BuildingBlock: KIFKEQ_clean_linker_1, # of connection points: 2
#     Edge 21, Type (0, 1), BuildingBlock: KIFKEQ_clean_linker_1, # of connection points: 2
#     Edge 22, Type (0, 1), BuildingBlock: KIFKEQ_clean_linker_1, # of connection points: 2
#     Edge 23, Type (0, 1), BuildingBlock: KIFKEQ_clean_linker_1, # of connection points: 2
#     Edge 24, Type (0, 1), BuildingBlock: KIFKEQ_clean_linker_1, # of connection points: 2
#     Edge 25, Type (0, 1), BuildingBlock: KIFKEQ_clean_linker_1, # of connection points: 2
#     Edge 26, Type (0, 1), BuildingBlock: KIFKEQ_clean_linker_1, # of connection points: 2
#     Edge 27, Type (0, 1), BuildingBlock: KIFKEQ_clean_linker_1, # of connection points: 2
#     Edge 28, Type (0, 1), BuildingBlock: KIFKEQ_clean_linker_1, # of connection points: 2
#     Edge 29, Type (0, 1), BuildingBlock: KIFKEQ_clean_linker_1, # of connection points: 2
#     Edge 30, Type (0, 1), BuildingBlock: KIFKEQ_clean_linker_1, # of connection points: 2
#     Edge 31, Type (0, 1), BuildingBlock: KIFKEQ_clean_linker_1, # of connection points: 2
#     Edge 32, Type (0, 1), BuildingBlock: KIFKEQ_clean_linker_1, # of connection points: 2
#     Edge 33, Type (0, 1), BuildingBlock: KIFKEQ_clean_linker_1, # of connection points: 2
#     Edge 34, Type (0, 1), BuildingBlock: KIFKEQ_clean_linker_1, # of connection points: 2
#     Edge 35, Type (0, 1), BuildingBlock: KIFKEQ_clean_linker_1, # of connection points: 2
# Relax obj value: 0.016
# Max RMSD: 0.077
# Mean RMSD: 0.062
data_MOF--net-cml--node1-OLANEW_clean_sbu_2--node2-IZENUY_clean_sbu_0--edge1-KIFKEQ_clean_linker_1
_symmetry_space_group_name_H-M    P1
_symmetry_Int_Tables_number       1
_symmetry_cell_setting            triclinic
loop_
_symmetry_equiv_pos_as_xyz
'x, y, z'
_cell_length_a     39.944083
_cell_length_b     43.816576
_cell_length_c     40.19472
_cell_angle_alpha  88.383782
_cell_angle_beta   87.685309
_cell_angle_gamma 88.732124
loop_
_atom_site_label
_atom_site_type_symbol
_atom_site_fract_x
_atom_site_fract_y
_atom_site_fract_z
_atom_type_partial_charge
O0 O 0.29906 0.43297 0.96218 0.0
Cd1 Cd 0.26783 0.39317 0.99471 0.0
O2 O 0.34606 0.41872 0.98563 0.0
Cd3 Cd 0.32735 0.38308 0.02033 0.0
O4 O 0.3375 0.36016 0.06811 0.0
C5 C 0.32967 0.37431 0.09457 0.0
O6 O 0.31322 0.40053 0.0921 0.0
C7 C 0.33038 0.43619 0.96548 0.0
C8 C 0.22478 0.35424 0.96283 0.0
O9 O 0.21459 0.38052 0.97282 0.0
O10 O 0.25567 0.34682 0.96662 0.0
O11 O 0.73806 0.64438 0.56235 0.0
Cd12 Cd 0.77698 0.62336 0.51985 0.0
O13 O 0.69379 0.62725 0.53853 0.0
Cd14 Cd 0.71917 0.6015 0.49885 0.0
O15 O 0.71035 0.56092 0.47026 0.0
C16 C 0.69763 0.53871 0.48703 0.0
O17 O 0.69327 0.54118 0.51944 0.0
C18 C 0.70646 0.64185 0.56168 0.0
C19 C 0.81824 0.66729 0.48904 0.0
O20 O 0.82475 0.65543 0.51762 0.0
O21 O 0.79202 0.65856 0.47492 0.0
O22 O 0.71608 0.42924 0.95024 0.0
Cd23 Cd 0.73314 0.38389 0.9832 0.0
O24 O 0.70815 0.45492 0.99627 0.0
Cd25 Cd 0.72365 0.41873 0.03108 0.0
O26 O 0.71569 0.39248 0.07749 0.0
C27 C 0.69213 0.37342 0.07903 0.0
O28 O 0.67578 0.36865 0.052 0.0
C29 C 0.70693 0.45366 0.96476 0.0
C30 C 0.78469 0.34703 0.95625 0.0
O31 O 0.7541 0.34304 0.94921 0.0
O32 O 0.79099 0.36903 0.97527 0.0
O33 O 0.31763 0.58021 0.4538 0.0
Cd34 Cd 0.29993 0.626 0.48434 0.0
O35 O 0.29925 0.54787 0.49288 0.0
Cd36 Cd 0.28469 0.58314 0.52812 0.0
O37 O 0.29846 0.60328 0.57452 0.0
C38 C 0.32461 0.61932 0.57344 0.0
O39 O 0.33996 0.62486 0.54444 0.0
C40 C 0.31361 0.55286 0.4645 0.0
C41 C 0.24965 0.66303 0.45681 0.0
O42 O 0.28026 0.66507 0.44629 0.0
O43 O 0.24264 0.64292 0.47968 0.0
O44 O 0.77346 0.95106 0.93788 0.0
Cd45 Cd 0.73077 0.91729 0.96478 0.0
O46 O 0.80156 0.93652 0.98115 0.0
Cd47 Cd 0.84021 0.9354 0.01819 0.0
O48 O 0.86798 0.92349 0.06261 0.0
C49 C 0.85211 0.92261 0.09067 0.0
O50 O 0.81996 0.92972 0.09199 0.0
C51 C 0.79953 0.95312 0.95479 0.0
C52 C 0.69904 0.87138 0.93112 0.0
O53 O 0.6876 0.89897 0.93088 0.0
O54 O 0.72657 0.86576 0.94571 0.0
O55 O 0.1965 0.15949 0.55983 0.0
Cd56 Cd 0.21125 0.14709 0.50215 0.0
O57 O 0.22563 0.12092 0.5809 0.0
Cd58 Cd 0.23688 0.10048 0.53264 0.0
O59 O 0.22654 0.06432 0.49834 0.0
C60 C 0.21282 0.06969 0.47074 0.0
O61 O 0.20692 0.09813 0.46111 0.0
C62 C 0.20705 0.14458 0.58506 0.0
C63 C 0.26648 0.17873 0.47587 0.0
O64 O 0.23675 0.1902 0.47444 0.0
O65 O 0.27012 0.1523 0.48992 0.0
O66 O 0.2296 0.9299 0.97163 0.0
Cd67 Cd 0.25902 0.8887 0.00187 0.0
O68 O 0.24514 0.96407 0.00668 0.0
Cd69 Cd 0.26373 0.92982 0.04224 0.0
O70 O 0.24636 0.90333 0.08612 0.0
C71 C 0.21772 0.89175 0.08353 0.0
O72 O 0.20321 0.89454 0.0548 0.0
C73 C 0.23033 0.95757 0.98043 0.0
C74 C 0.29723 0.84852 0.96234 0.0
O75 O 0.26736 0.84194 0.97254 0.0
O76 O 0.30872 0.87431 0.97024 0.0
O77 O 0.81707 0.08338 0.48246 0.0
Cd78 Cd 0.78933 0.12486 0.51379 0.0
O79 O 0.80571 0.04798 0.52096 0.0
Cd80 Cd 0.78907 0.08087 0.55824 0.0
O81 O 0.80481 0.10181 0.6036 0.0
C82 C 0.83102 0.11777 0.60101 0.0
O83 O 0.84512 0.1227 0.57129 0.0
C84 C 0.81813 0.05552 0.49235 0.0
C85 C 0.73821 0.15671 0.48079 0.0
O86 O 0.76894 0.16418 0.4763 0.0
O87 O 0.73167 0.13382 0.50037 0.0
Fe88 Fe 0.02716 0.82853 0.32803 0.0
Fe89 Fe 0.02947 0.86024 0.39513 0.0
O90 O 0.02777 0.86237 0.3511 0.0
Fe91 Fe 0.02649 0.89841 0.33016 0.0
O92 O 0.98663 0.89058 0.31273 0.0
O93 O 1.00096 0.84502 0.29504 0.0
O94 O 0.98867 0.81649 0.34979 0.0
C95 C 0.98541 0.81292 0.381 0.0
C96 C 0.06909 0.86272 0.28766 0.0
O97 O 0.00552 0.82502 0.40004 0.0
C98 C 0.0723 0.90925 0.3767 0.0
O99 O 0.05351 0.80599 0.35658 0.0
O100 O 0.06892 0.83897 0.39303 0.0
O101 O 0.04979 0.88558 0.29268 0.0
O102 O 0.06556 0.83834 0.30475 0.0
C103 C 0.9839 0.90722 0.38707 0.0
O104 O 0.05393 0.89505 0.39814 0.0
O105 O 0.06631 0.9087 0.34618 0.0
C106 C 0.07352 0.81411 0.37822 0.0
O107 O 0.98996 0.8813 0.40024 0.0
O108 O 0.00272 0.91781 0.36363 0.0
C109 C 0.98187 0.86851 0.29421 0.0
Fe110 Fe 0.01714 0.15517 0.89728 0.0
Fe111 Fe 0.02284 0.11986 0.83245 0.0
O112 O 0.01901 0.15496 0.85316 0.0
Fe113 Fe 0.01687 0.18972 0.82961 0.0
O114 O 0.03872 0.21211 0.85979 0.0
O115 O 0.05433 0.17842 0.898 0.0
O116 O 0.04521 0.12146 0.90232 0.0
C117 C 0.06637 0.10912 0.88214 0.0
C118 C 0.96979 0.20149 0.87907 0.0
O119 O 0.06235 0.11081 0.85119 0.0
C120 C 0.97708 0.14989 0.79413 0.0
O121 O 0.97967 0.1319 0.89955 0.0
O122 O 0.99942 0.09767 0.86467 0.0
O123 O 0.97619 0.1994 0.84826 0.0
O124 O 0.98898 0.18898 0.90009 0.0
C125 C 0.06485 0.15885 0.79293 0.0
O126 O 0.98347 0.12676 0.81237 0.0
O127 O 0.99452 0.17365 0.7952 0.0
C128 C 0.97793 0.106 0.88674 0.0
O129 O 0.04712 0.1353 0.79637 0.0
O130 O 0.0575 0.18244 0.80917 0.0
C131 C 0.05781 0.20397 0.88303 0.0
Fe132 Fe 0.51364 0.30365 0.33015 0.0
Fe133 Fe 0.51181 0.33967 0.39475 0.0
O134 O 0.51413 0.33894 0.35069 0.0
Fe135 Fe 0.51698 0.37356 0.32715 0.0
O136 O 0.49375 0.3601 0.2922 0.0
O137 O 0.47594 0.31481 0.30857 0.0
O138 O 0.48617 0.28471 0.362 0.0
C139 C 0.46606 0.29596 0.38384 0.0
C140 C 0.56137 0.33801 0.29147 0.0
O141 O 0.47173 0.32125 0.39641 0.0
C142 C 0.55839 0.38346 0.38131 0.0
O143 O 0.55132 0.29026 0.35019 0.0
O144 O 0.53485 0.30317 0.4008 0.0
O145 O 0.55685 0.3618 0.30813 0.0
O146 O 0.54096 0.31625 0.29462 0.0
C147 C 0.47046 0.39009 0.37526 0.0
O148 O 0.55183 0.35835 0.39597 0.0
O149 O 0.54064 0.39352 0.35785 0.0
C150 C 0.55478 0.2887 0.38125 0.0
O151 O 0.48817 0.37625 0.39668 0.0
O152 O 0.47725 0.38746 0.34458 0.0
C153 C 0.47307 0.33876 0.29062 0.0
Fe154 Fe 0.51098 0.65545 0.87069 0.0
Fe155 Fe 0.51366 0.62018 0.80556 0.0
O156 O 0.51061 0.6553 0.82654 0.0
Fe157 Fe 0.50704 0.69007 0.80302 0.0
O158 O 0.53018 0.71272 0.83156 0.0
O159 O 0.54735 0.67998 0.86995 0.0
O160 O 0.54054 0.62285 0.87394 0.0
C161 C 0.56041 0.61038 0.85267 0.0
C162 C 0.462 0.70122 0.85482 0.0
O163 O 0.55439 0.61122 0.82206 0.0
C164 C 0.46556 0.64991 0.76992 0.0
O165 O 0.47446 0.63089 0.87519 0.0
O166 O 0.49268 0.59756 0.83874 0.0
O167 O 0.46734 0.69999 0.82374 0.0
O168 O 0.48172 0.68816 0.87493 0.0
C169 C 0.5527 0.65954 0.76332 0.0
O170 O 0.47298 0.62678 0.7878 0.0
O171 O 0.4829 0.67376 0.77016 0.0
C172 C 0.47267 0.60501 0.86238 0.0
O173 O 0.53541 0.63589 0.76818 0.0
O174 O 0.54672 0.68287 0.78041 0.0
C175 C 0.5499 0.70534 0.85441 0.0
H176 H 0.15902 0.36456 0.94837 0.0
H177 H 0.23689 0.29458 0.94637 0.0
H178 H 0.11935 0.32816 0.92888 0.0
H179 H 0.19721 0.25821 0.92659 0.0
H180 H 0.10622 0.19422 0.92917 0.0
H181 H 0.14699 0.23046 0.94723 0.0
H182 H 0.1074 0.29923 0.87961 0.0
H183 H 0.06655 0.26328 0.86179 0.0
C184 C 0.16778 0.34148 0.94351 0.0
C185 C 0.2012 0.33256 0.94892 0.0
C186 C 0.14503 0.3206 0.93222 0.0
C187 C 0.15502 0.29018 0.92623 0.0
C188 C 0.18854 0.28133 0.93134 0.0
C189 C 0.21137 0.30228 0.94242 0.0
C190 C 0.10617 0.21708 0.91817 0.0
C191 C 0.08292 0.22579 0.8941 0.0
C192 C 0.12972 0.23781 0.92837 0.0
C193 C 0.13048 0.26782 0.91492 0.0
C194 C 0.10729 0.27645 0.89081 0.0
C195 C 0.08393 0.25572 0.88047 0.0
H196 H 0.8602 0.70513 0.51884 0.0
H197 H 0.82703 0.68063 0.42249 0.0
H198 H 0.89852 0.74155 0.4924 0.0
H199 H 0.86703 0.7156 0.39557 0.0
H200 H 0.92456 0.79904 0.35694 0.0
H201 H 0.88236 0.76554 0.38296 0.0
H202 H 0.94886 0.74416 0.46315 0.0
H203 H 0.98961 0.77897 0.43823 0.0
C204 C 0.86137 0.70739 0.49191 0.0
C205 C 0.84075 0.68999 0.47272 0.0
C206 C 0.8836 0.72811 0.47663 0.0
C207 C 0.88646 0.73139 0.44166 0.0
C208 C 0.86539 0.71414 0.42251 0.0
C209 C 0.84255 0.6939 0.43791 0.0
C210 C 0.92994 0.78715 0.38017 0.0
C211 C 0.96021 0.79177 0.39569 0.0
C212 C 0.90586 0.76778 0.39506 0.0
C213 C 0.91187 0.75213 0.42545 0.0
C214 C 0.94266 0.75638 0.44037 0.0
C215 C 0.96628 0.77619 0.42591 0.0
H216 H 0.77988 0.30047 0.91288 0.0
H217 H 0.85071 0.34604 0.97188 0.0
H218 H 0.82394 0.26454 0.89455 0.0
H219 H 0.89478 0.31025 0.95331 0.0
H220 H 0.95459 0.22025 0.94249 0.0
H221 H 0.90963 0.25531 0.96069 0.0
H222 H 0.87645 0.26377 0.85985 0.0
H223 H 0.92112 0.22853 0.84162 0.0
C224 C 0.80488 0.30295 0.92178 0.0
C225 C 0.81177 0.32614 0.94384 0.0
C226 C 0.83015 0.28241 0.9112 0.0
C227 C 0.86282 0.28448 0.92259 0.0
C228 C 0.86976 0.30781 0.94444 0.0
C229 C 0.84455 0.32846 0.95487 0.0
C230 C 0.93761 0.22944 0.92421 0.0
C231 C 0.94157 0.22164 0.89056 0.0
C232 C 0.912 0.24971 0.93462 0.0
C233 C 0.88959 0.26244 0.91168 0.0
C234 C 0.89315 0.25418 0.87818 0.0
C235 C 0.91887 0.23409 0.86772 0.0
H236 H 0.18848 0.67681 0.48594 0.0
H237 H 0.2518 0.69733 0.39887 0.0
H238 H 0.14652 0.71391 0.46638 0.0
H239 H 0.2094 0.734 0.37905 0.0
H240 H 0.10346 0.76822 0.34251 0.0
H241 H 0.1464 0.73135 0.36071 0.0
H242 H 0.14656 0.7739 0.4562 0.0
H243 H 0.10413 0.81116 0.43792 0.0
C244 C 0.1933 0.68901 0.46249 0.0
C245 C 0.22345 0.68416 0.44394 0.0
C246 C 0.16938 0.71036 0.45143 0.0
C247 C 0.17483 0.72685 0.42129 0.0
C248 C 0.20459 0.72151 0.40233 0.0
C249 C 0.22883 0.7006 0.41372 0.0
C250 C 0.11277 0.76977 0.36734 0.0
C251 C 0.10039 0.79256 0.38881 0.0
C252 C 0.13739 0.74876 0.37766 0.0
C253 C 0.14961 0.74974 0.40988 0.0
C254 C 0.13734 0.77254 0.43132 0.0
C255 C 0.11323 0.79395 0.42077 0.0
H256 H 0.63949 0.87626 0.90005 0.0
H257 H 0.71451 0.81 0.9309 0.0
H258 H 0.60538 0.83533 0.88119 0.0
H259 H 0.68057 0.76891 0.9113 0.0
H260 H 0.59067 0.70318 0.90829 0.0
H261 H 0.62843 0.74262 0.92526 0.0
H262 H 0.6031 0.79808 0.83897 0.0
H263 H 0.56511 0.75931 0.82251 0.0
C264 C 0.64895 0.85297 0.90241 0.0
C265 C 0.67981 0.84649 0.91696 0.0
C266 C 0.6294 0.82943 0.89146 0.0
C267 C 0.64016 0.79871 0.89468 0.0
C268 C 0.67129 0.79223 0.90879 0.0
C269 C 0.6909 0.81584 0.91975 0.0
C270 C 0.59328 0.72375 0.89291 0.0
C271 C 0.57449 0.72814 0.86424 0.0
C272 C 0.61507 0.74632 0.90253 0.0
C273 C 0.61863 0.77374 0.88366 0.0
C274 C 0.60052 0.77762 0.85452 0.0
C275 C 0.57878 0.75521 0.845 0.0
H276 H 0.26732 0.23689 0.44958 0.0
H277 H 0.33172 0.15859 0.46994 0.0
H278 H 0.31544 0.26475 0.42643 0.0
H279 H 0.37991 0.18663 0.44695 0.0
H280 H 0.45072 0.23682 0.37098 0.0
H281 H 0.40233 0.20819 0.39254 0.0
H282 H 0.36691 0.28672 0.4473 0.0
H283 H 0.41492 0.31542 0.42568 0.0
C284 C 0.29174 0.22562 0.44913 0.0
C285 C 0.29571 0.19555 0.46168 0.0
C286 C 0.31932 0.24164 0.436 0.0
C287 C 0.35146 0.2279 0.43493 0.0
C288 C 0.3554 0.19772 0.44716 0.0
C289 C 0.32783 0.18175 0.46051 0.0
C290 C 0.43259 0.24799 0.38758 0.0
C291 C 0.43676 0.27839 0.39665 0.0
C292 C 0.40498 0.23153 0.40006 0.0
C293 C 0.38082 0.24522 0.42159 0.0
C294 C 0.3849 0.27565 0.43047 0.0
C295 C 0.41257 0.29202 0.41823 0.0
H296 H 0.35384 0.86015 0.92418 0.0
H297 H 0.2887 0.78712 0.95769 0.0
H298 H 0.39091 0.82325 0.89566 0.0
H299 H 0.3262 0.7502 0.9296 0.0
H300 H 0.4312 0.69802 0.91662 0.0
H301 H 0.38848 0.73298 0.94006 0.0
H302 H 0.38837 0.78457 0.84702 0.0
H303 H 0.43071 0.74936 0.82325 0.0
C304 C 0.34734 0.83626 0.92527 0.0
C305 C 0.31841 0.82652 0.94321 0.0
C306 C 0.36846 0.8152 0.90883 0.0
C307 C 0.36139 0.78392 0.91052 0.0
C308 C 0.33225 0.77419 0.92806 0.0
C309 C 0.31077 0.79533 0.94398 0.0
C310 C 0.42183 0.71665 0.90106 0.0
C311 C 0.43439 0.72101 0.86814 0.0
C312 C 0.39728 0.73653 0.91443 0.0
C313 C 0.38526 0.76147 0.89534 0.0
C314 C 0.39738 0.76558 0.86227 0.0
C315 C 0.42147 0.74535 0.84867 0.0
H316 H 0.67054 0.15219 0.49268 0.0
H317 H 0.74434 0.20185 0.4326 0.0
H318 H 0.62594 0.18317 0.46793 0.0
H319 H 0.69968 0.2328 0.40792 0.0
H320 H 0.60743 0.26062 0.34768 0.0
H321 H 0.65135 0.22768 0.37076 0.0
H322 H 0.60612 0.23774 0.46932 0.0
H323 H 0.56216 0.27062 0.44637 0.0
C324 C 0.67726 0.16959 0.47407 0.0
C325 C 0.71103 0.17456 0.46466 0.0
C326 C 0.6517 0.18746 0.46005 0.0
C327 C 0.65928 0.21049 0.43604 0.0
C328 C 0.69301 0.21507 0.42615 0.0
C329 C 0.7186 0.19742 0.44042 0.0
C330 C 0.60675 0.25573 0.37426 0.0
C331 C 0.5812 0.26826 0.39515 0.0
C332 C 0.63204 0.23699 0.38749 0.0
C333 C 0.63219 0.23008 0.42185 0.0
C334 C 0.6065 0.24237 0.44269 0.0
C335 C 0.58141 0.26136 0.42953 0.0
H336 H 0.3976 0.43872 0.95285 0.0
H337 H 0.30567 0.49028 0.93843 0.0
H338 H 0.42963 0.48057 0.92774 0.0
H339 H 0.33818 0.53267 0.91325 0.0
H340 H 0.42022 0.61154 0.90906 0.0
H341 H 0.38332 0.5713 0.93219 0.0
H342 H 0.43569 0.50536 0.87039 0.0
H343 H 0.47206 0.54487 0.8474 0.0
C344 C 0.38416 0.45894 0.94412 0.0
C345 C 0.34902 0.46105 0.94751 0.0
C346 C 0.40257 0.48295 0.92968 0.0
C347 C 0.38645 0.50994 0.91856 0.0
C348 C 0.35128 0.5122 0.92181 0.0
C349 C 0.33269 0.48784 0.93588 0.0
C350 C 0.42374 0.58846 0.9004 0.0
C351 C 0.44934 0.5815 0.87654 0.0
C352 C 0.40248 0.5655 0.91346 0.0
C353 C 0.40676 0.53514 0.90321 0.0
C354 C 0.43197 0.52843 0.87905 0.0
C355 C 0.45282 0.55123 0.86582 0.0
H356 H 0.69894 0.52746 0.42017 0.0
H357 H 0.66507 0.49016 0.51604 0.0
H358 H 0.67061 0.48689 0.39272 0.0
H359 H 0.63609 0.4503 0.4887 0.0
H360 H 0.60066 0.37086 0.43237 0.0
H361 H 0.64008 0.40524 0.45601 0.0
H362 H 0.61323 0.47549 0.3837 0.0
H363 H 0.57469 0.44105 0.35959 0.0
C364 C 0.68574 0.51047 0.4354 0.0
C365 C 0.68401 0.51224 0.47029 0.0
C366 C 0.66932 0.48731 0.41966 0.0
C367 C 0.65076 0.46547 0.43846 0.0
C368 C 0.65039 0.46649 0.4734 0.0
C369 C 0.66686 0.48954 0.48911 0.0
C370 C 0.60344 0.39354 0.42132 0.0
C371 C 0.58423 0.40327 0.39429 0.0
C372 C 0.62595 0.4133 0.43495 0.0
C373 C 0.62973 0.44322 0.4219 0.0
C374 C 0.61135 0.45251 0.39415 0.0
C375 C 0.58897 0.43278 0.38048 0.0
H376 H 0.70759 0.46439 0.89688 0.0
H377 H 0.67127 0.50169 0.99023 0.0
H378 H 0.67819 0.50542 0.86677 0.0
H379 H 0.6406 0.54118 0.96065 0.0
H380 H 0.59875 0.62008 0.90544 0.0
H381 H 0.64054 0.58561 0.92933 0.0
H382 H 0.62453 0.52106 0.85228 0.0
H383 H 0.58453 0.55674 0.82728 0.0
C384 C 0.69346 0.48139 0.91095 0.0
C385 C 0.69181 0.47973 0.94594 0.0
C386 C 0.67634 0.50482 0.89371 0.0
C387 C 0.65677 0.52681 0.91111 0.0
C388 C 0.65589 0.52532 0.94615 0.0
C389 C 0.67338 0.50235 0.96326 0.0
C390 C 0.60468 0.59871 0.89339 0.0
C391 C 0.58828 0.59094 0.86472 0.0
C392 C 0.62842 0.57875 0.90721 0.0
C393 C 0.63559 0.55005 0.89328 0.0
C394 C 0.62011 0.54296 0.86366 0.0
C395 C 0.59697 0.56334 0.84935 0.0
H396 H 0.31158 0.49201 0.48147 0.0
H397 H 0.35277 0.55516 0.40688 0.0
H398 H 0.34585 0.45083 0.45761 0.0
H399 H 0.38739 0.51397 0.38336 0.0
H400 H 0.43159 0.42785 0.33642 0.0
H401 H 0.38895 0.46511 0.35477 0.0
H402 H 0.40603 0.43919 0.45726 0.0
H403 H 0.44828 0.40172 0.43903 0.0
C404 C 0.32754 0.49706 0.45967 0.0
C405 C 0.32965 0.52702 0.44632 0.0
C406 C 0.34738 0.47346 0.44616 0.0
C407 C 0.36975 0.47921 0.41894 0.0
C408 C 0.37034 0.50873 0.40427 0.0
C409 C 0.3505 0.53238 0.41782 0.0
C410 C 0.42614 0.42997 0.36288 0.0
C411 C 0.44358 0.4119 0.38627 0.0
C412 C 0.40175 0.45141 0.37336 0.0
C413 C 0.39407 0.45514 0.40745 0.0
C414 C 0.411 0.43662 0.43079 0.0
C415 C 0.43545 0.41529 0.42033 0.0
H416 H 0.86698 0.94803 0.96403 0.0
H417 H 0.79156 0.00855 0.92305 0.0
H418 H 0.90984 0.98565 0.94967 0.0
H419 H 0.83456 0.0462 0.90844 0.0
H420 H 0.91798 0.11767 0.92072 0.0
H421 H 0.87459 0.08092 0.93769 0.0
H422 H 0.93611 0.00791 0.89656 0.0
H423 H 0.97909 0.04432 0.87948 0.0
C424 C 0.8595 0.96949 0.95228 0.0
C425 C 0.82583 0.97545 0.94503 0.0
C426 C 0.8841 0.99094 0.94376 0.0
C427 C 0.87557 0.019 0.9281 0.0
C428 C 0.84186 0.02497 0.92085 0.0
C429 C 0.81732 1.0033 0.92893 0.0
C430 C 0.92228 0.09375 0.91552 0.0
C431 C 0.95203 0.08398 0.89875 0.0
C432 C 0.89736 0.07275 0.92502 0.0
C433 C 0.90194 0.0415 0.91847 0.0
C434 C 0.93192 0.03175 0.90223 0.0
C435 C 0.9565 0.05271 0.8923 0.0
H436 H 0.17623 0.07325 0.41463 0.0
H437 H 0.21818 0.00847 0.48544 0.0
H438 H 0.14677 0.03218 0.38954 0.0
H439 H 0.18918 0.96733 0.4599 0.0
H440 H 0.09156 0.91681 0.44032 0.0
H441 H 0.13046 0.95364 0.4597 0.0
H442 H 0.15125 0.98503 0.35827 0.0
H443 H 0.11177 0.94841 0.33877 0.0
C444 C 0.1797 0.05018 0.42445 0.0
C445 C 0.19921 0.04423 0.45232 0.0
C446 C 0.16292 0.02658 0.40994 0.0
C447 C 0.16533 0.99652 0.42297 0.0
C448 C 0.18633 0.99033 0.44968 0.0
C449 C 0.20309 0.01391 0.46419 0.0
C450 C 0.10459 0.93136 0.42206 0.0
C451 C 0.09824 0.92983 0.38801 0.0
C452 C 0.12714 0.95234 0.43318 0.0
C453 C 0.14393 0.97233 0.41054 0.0
C454 C 0.13841 0.97018 0.37637 0.0
C455 C 0.11588 0.9491 0.36521 0.0
H456 H 0.22382 0.01803 0.99506 0.0
H457 H 0.19324 0.95193 0.92507 0.0
H458 H 0.18721 0.05646 0.96965 0.0
H459 H 0.15632 0.9904 0.89992 0.0
H460 H 0.1117 0.07393 0.84644 0.0
H461 H 0.15477 0.03921 0.86783 0.0
H462 H 0.12612 0.06439 0.96829 0.0
H463 H 0.08328 0.09938 0.94699 0.0
C464 C 0.20958 0.01174 0.97402 0.0
C465 C 0.21133 0.98179 0.96225 0.0
C466 C 0.18841 0.03376 0.95962 0.0
C467 C 0.1686 0.02641 0.93301 0.0
C468 C 0.17143 0.99685 0.92026 0.0
C469 C 0.19253 0.97476 0.93475 0.0
C470 C 0.11469 0.07225 0.8731 0.0
C471 C 0.09383 0.08935 0.89502 0.0
C472 C 0.1393 0.05222 0.88533 0.0
C473 C 0.14381 0.04896 0.91974 0.0
C474 C 0.12354 0.06661 0.9416 0.0
C475 C 0.09881 0.08654 0.9294 0.0
H476 H 0.81687 0.99329 0.50004 0.0
H477 H 0.86317 0.06555 0.44048 0.0
H478 H 0.85346 0.95581 0.47234 0.0
H479 H 0.90076 0.02846 0.41393 0.0
H480 H 0.95227 0.95456 0.35531 0.0
H481 H 0.90819 0.98832 0.37739 0.0
H482 H 0.90959 0.93871 0.47191 0.0
H483 H 0.95264 0.90401 0.44907 0.0
C484 C 0.83472 1.00115 0.48085 0.0
C485 C 0.83714 0.03243 0.47252 0.0
C486 C 0.85597 0.97968 0.46518 0.0
C487 C 0.88048 0.98898 0.44108 0.0
C488 C 0.88199 0.02022 0.43197 0.0
C489 C 0.86044 0.04162 0.44731 0.0
C490 C 0.94304 0.9508 0.38078 0.0
C491 C 0.95615 0.92679 0.40056 0.0
C492 C 0.91782 0.97028 0.39354 0.0
C493 C 0.90538 0.96659 0.42662 0.0
C494 C 0.91809 0.9421 0.44619 0.0
C495 C 0.94299 0.92228 0.4332 0.0
H496 H 0.32091 0.40163 0.1546 0.0
H497 H 0.37023 0.32435 0.10759 0.0
H498 H 0.35083 0.39016 0.20521 0.0
H499 H 0.40041 0.31309 0.15832 0.0
H500 H 0.43691 0.29304 0.26428 0.0
H501 H 0.39676 0.29828 0.21971 0.0
H502 H 0.41108 0.39574 0.21544 0.0
H503 H 0.45074 0.39062 0.25956 0.0
C504 C 0.33774 0.38191 0.15518 0.0
C505 C 0.34354 0.36419 0.12683 0.0
C506 C 0.35497 0.37542 0.18418 0.0
C507 C 0.37833 0.351 0.18558 0.0
C508 C 0.38248 0.332 0.15805 0.0
C509 C 0.36529 0.33856 0.12893 0.0
C510 C 0.43118 0.31557 0.25398 0.0
C511 C 0.44719 0.34138 0.26527 0.0
C512 C 0.40833 0.31854 0.22842 0.0
C513 C 0.40069 0.34743 0.21416 0.0
C514 C 0.41605 0.37322 0.22618 0.0
C515 C 0.43905 0.37023 0.2513 0.0
H516 H 0.72427 0.66465 0.62144 0.0
H517 H 0.63822 0.64348 0.56509 0.0
H518 H 0.68726 0.67345 0.67053 0.0
H519 H 0.60168 0.65233 0.61384 0.0
H520 H 0.56173 0.6172 0.71554 0.0
H521 H 0.59888 0.61889 0.66646 0.0
H522 H 0.63588 0.70573 0.6952 0.0
H523 H 0.59808 0.70427 0.74505 0.0
C524 C 0.69749 0.66254 0.61927 0.0
C525 C 0.68426 0.65282 0.58949 0.0
C526 C 0.67634 0.66766 0.64736 0.0
C527 C 0.64173 0.66304 0.64607 0.0
C528 C 0.62837 0.65552 0.61566 0.0
C529 C 0.64935 0.6505 0.58771 0.0
C530 C 0.57769 0.63675 0.71165 0.0
C531 C 0.57672 0.66072 0.73423 0.0
C532 C 0.59886 0.63778 0.6833 0.0
C533 C 0.61988 0.66264 0.67678 0.0
C534 C 0.61977 0.68635 0.69964 0.0
C535 C 0.59813 0.68552 0.72806 0.0
H536 H 0.63797 0.33737 0.09169 0.0
H537 H 0.71786 0.38121 0.14031 0.0
H538 H 0.61186 0.32411 0.14564 0.0
H539 H 0.69209 0.3672 0.19449 0.0
H540 H 0.60574 0.38285 0.27384 0.0
H541 H 0.6426 0.38581 0.22439 0.0
H542 H 0.61355 0.29555 0.19776 0.0
H543 H 0.57586 0.29286 0.24698 0.0
C544 C 0.65039 0.34359 0.1139 0.0
C545 C 0.67972 0.36078 0.11167 0.0
C546 C 0.6355 0.33579 0.14492 0.0
C547 C 0.64967 0.34489 0.17444 0.0
C548 C 0.6802 0.36035 0.17222 0.0
C549 C 0.69506 0.36823 0.14116 0.0
C550 C 0.60749 0.36343 0.25772 0.0
C551 C 0.58738 0.33782 0.26412 0.0
C552 C 0.6289 0.36503 0.22943 0.0
C553 C 0.63085 0.34101 0.20691 0.0
C554 C 0.61219 0.31466 0.21431 0.0
C555 C 0.5907 0.31308 0.24261 0.0
H556 H 0.37884 0.65516 0.57929 0.0
H557 H 0.30597 0.60289 0.63776 0.0
H558 H 0.4088 0.66452 0.62936 0.0
H559 H 0.33587 0.61266 0.68812 0.0
H560 H 0.42847 0.60023 0.75569 0.0
H561 H 0.39027 0.59581 0.71029 0.0
H562 H 0.40525 0.69058 0.68233 0.0
H563 H 0.44375 0.69496 0.72725 0.0
C564 C 0.36891 0.64605 0.60291 0.0
C565 C 0.34014 0.62811 0.60449 0.0
C566 C 0.386 0.65156 0.63168 0.0
C567 C 0.37478 0.63922 0.66271 0.0
C568 C 0.34534 0.62217 0.6645 0.0
C569 C 0.32811 0.61676 0.63569 0.0
C570 C 0.42335 0.62021 0.74009 0.0
C571 C 0.43957 0.64782 0.74484 0.0
C572 C 0.40128 0.61773 0.71419 0.0
C573 C 0.39498 0.64279 0.69253 0.0
C574 C 0.41004 0.67073 0.69824 0.0
C575 C 0.43204 0.67323 0.72409 0.0
H576 H 0.82668 0.92279 0.15485 0.0
H577 H 0.9164 0.90072 0.09592 0.0
H578 H 0.85495 0.90692 0.2054 0.0
H579 H 0.94465 0.8851 0.14649 0.0
H580 H 0.97604 0.83333 0.2396 0.0
H581 H 0.9426 0.84466 0.19114 0.0
H582 H 0.90142 0.92537 0.23814 0.0
H583 H 0.93454 0.914 0.28674 0.0
C584 C 0.85241 0.91456 0.15266 0.0
C585 C 0.86931 0.91309 0.12135 0.0
C586 C 0.86861 0.90555 0.18164 0.0
C587 C 0.90197 0.89466 0.17991 0.0
C588 C 0.91878 0.89298 0.14858 0.0
C589 C 0.90267 0.90217 0.11963 0.0
C590 C 0.95945 0.85323 0.23987 0.0
C591 C 0.95817 0.87288 0.26697 0.0
C592 C 0.94052 0.85984 0.21197 0.0
C593 C 0.91968 0.88608 0.21068 0.0
C594 C 0.91713 0.90491 0.23844 0.0
C595 C 0.93623 0.89843 0.26624 0.0
H596 H 0.16318 0.19076 0.60296 0.0
H597 H 0.2218 0.11574 0.64409 0.0
H598 H 0.13427 0.19711 0.65697 0.0
H599 H 0.19316 0.12243 0.69815 0.0
H600 H 0.0962 0.20883 0.7641 0.0
H601 H 0.13714 0.20926 0.71704 0.0
H602 H 0.13495 0.1108 0.71537 0.0
H603 H 0.09456 0.11031 0.76216 0.0
C604 C 0.17049 0.17609 0.62368 0.0
C605 C 0.19442 0.1524 0.61902 0.0
C606 C 0.15401 0.17985 0.65471 0.0
C607 C 0.1611 0.15997 0.68169 0.0
C608 C 0.18675 0.13775 0.67764 0.0
C609 C 0.20325 0.13402 0.64667 0.0
C610 C 0.10485 0.18729 0.75393 0.0
C611 C 0.09189 0.15954 0.76664 0.0
C612 C 0.12817 0.18756 0.72693 0.0
C613 C 0.13928 0.16008 0.7125 0.0
C614 C 0.12727 0.13235 0.72616 0.0
C615 C 0.10383 0.13209 0.75281 0.0
H616 H 0.23904 0.88346 0.1474 0.0
H617 H 0.15281 0.87386 0.08717 0.0
H618 H 0.20418 0.87198 0.1976 0.0
H619 H 0.11831 0.86281 0.13719 0.0
H620 H 0.0661 0.90072 0.23334 0.0
H621 H 0.10367 0.90216 0.18425 0.0
H622 H 0.16349 0.82854 0.22609 0.0
H623 H 0.12523 0.8266 0.27563 0.0
C624 C 0.21288 0.87838 0.14479 0.0
C625 C 0.19859 0.88 0.11333 0.0
C626 C 0.19303 0.8717 0.17349 0.0
C627 C 0.15858 0.86688 0.17115 0.0
C628 C 0.14478 0.86676 0.1396 0.0
C629 C 0.1646 0.87304 0.11098 0.0
C630 C 0.08724 0.8848 0.23224 0.0
C631 C 0.09271 0.86352 0.25838 0.0
C632 C 0.1086 0.88552 0.204 0.0
C633 C 0.13624 0.8653 0.20137 0.0
C634 C 0.14224 0.8443 0.22762 0.0
C635 C 0.12038 0.84317 0.2558 0.0
H636 H 0.88728 0.15168 0.60354 0.0
H637 H 0.81352 0.10478 0.66648 0.0
H638 H 0.91929 0.16177 0.6521 0.0
H639 H 0.84539 0.11539 0.71528 0.0
H640 H 0.93736 0.10159 0.78191 0.0
H641 H 0.89874 0.09715 0.73701 0.0
H642 H 0.91994 0.18954 0.7036 0.0
H643 H 0.95906 0.19386 0.74813 0.0
C644 C 0.87759 0.14393 0.62781 0.0
C645 C 0.84797 0.1272 0.63107 0.0
C646 C 0.89589 0.14988 0.65572 0.0
C647 C 0.88502 0.13922 0.68757 0.0
C648 C 0.85469 0.12352 0.69102 0.0
C649 C 0.83631 0.11763 0.66307 0.0
C650 C 0.93365 0.12105 0.76514 0.0
C651 C 0.95165 0.14795 0.76843 0.0
C652 C 0.91129 0.11858 0.73953 0.0
C653 C 0.90636 0.14295 0.71661 0.0
C654 C 0.92354 0.17019 0.72054 0.0
C655 C 0.94588 0.17268 0.74617 0.0
loop_
_geom_bond_atom_site_label_1
_geom_bond_atom_site_label_2
_geom_bond_distance
_geom_bond_site_symmetry_2
_ccdc_geom_bond_type
O0 Cd1 2.300 . S
O0 C7 1.275 . S
Cd1 O0 2.300 . S
Cd1 O9 2.381 . S
Cd1 O10 2.378 . S
O2 Cd3 2.385 1_556 S
O2 C7 1.255 . S
Cd3 O2 2.385 1_554 S
Cd3 O4 2.317 . S
O4 Cd3 2.317 . S
O4 C5 1.232 . S
C5 O4 1.232 . S
C5 O6 1.218 . S
O6 C5 1.218 . S
C7 O0 1.275 . S
C7 O2 1.255 . S
C8 O9 1.258 . S
C8 O10 1.256 . S
O9 Cd1 2.381 . S
O9 C8 1.258 . S
O10 Cd1 2.378 . S
O10 C8 1.256 . S
O11 Cd12 2.300 . S
O11 C18 1.275 . S
Cd12 O11 2.300 . S
Cd12 O20 2.381 . S
Cd12 O21 2.378 . S
O13 Cd14 2.385 . S
O13 C18 1.255 . S
Cd14 O13 2.385 . S
Cd14 O15 2.317 . S
O15 Cd14 2.317 . S
O15 C16 1.232 . S
C16 O15 1.232 . S
C16 O17 1.218 . S
O17 C16 1.218 . S
C18 O11 1.275 . S
C18 O13 1.255 . S
C19 O20 1.258 . S
C19 O21 1.256 . S
O20 Cd12 2.381 . S
O20 C19 1.258 . S
O21 Cd12 2.378 . S
O21 C19 1.256 . S
O22 Cd23 2.300 . S
O22 C29 1.275 . S
Cd23 O22 2.300 . S
Cd23 O31 2.381 . S
Cd23 O32 2.378 . S
O24 Cd25 2.385 . S
O24 C29 1.255 1_554 S
Cd25 O24 2.385 . S
Cd25 O26 2.317 . S
O26 Cd25 2.317 . S
O26 C27 1.232 . S
C27 O26 1.232 . S
C27 O28 1.218 . S
O28 C27 1.218 . S
C29 O22 1.275 . S
C29 O24 1.255 1_556 S
C30 O31 1.258 . S
C30 O32 1.256 . S
O31 Cd23 2.381 . S
O31 C30 1.258 . S
O32 Cd23 2.378 . S
O32 C30 1.256 . S
O33 Cd34 2.300 . S
O33 C40 1.275 . S
Cd34 O33 2.300 . S
Cd34 O42 2.381 . S
Cd34 O43 2.378 . S
O35 Cd36 2.385 . S
O35 C40 1.255 . S
Cd36 O35 2.385 . S
Cd36 O37 2.317 . S
O37 Cd36 2.317 . S
O37 C38 1.232 . S
C38 O37 1.232 . S
C38 O39 1.218 . S
O39 C38 1.218 . S
C40 O33 1.275 . S
C40 O35 1.255 . S
C41 O42 1.258 . S
C41 O43 1.256 . S
O42 Cd34 2.381 . S
O42 C41 1.258 . S
O43 Cd34 2.378 . S
O43 C41 1.256 . S
O44 Cd45 2.300 . S
O44 C51 1.275 . S
Cd45 O44 2.300 . S
Cd45 O53 2.381 . S
Cd45 O54 2.378 . S
O46 Cd47 2.385 1_556 S
O46 C51 1.255 . S
Cd47 O46 2.385 1_554 S
Cd47 O48 2.317 . S
O48 Cd47 2.317 . S
O48 C49 1.232 . S
C49 O48 1.232 . S
C49 O50 1.218 . S
O50 C49 1.218 . S
C51 O44 1.275 . S
C51 O46 1.255 . S
C52 O53 1.258 . S
C52 O54 1.256 . S
O53 Cd45 2.381 . S
O53 C52 1.258 . S
O54 Cd45 2.378 . S
O54 C52 1.256 . S
O55 Cd56 2.300 . S
O55 C62 1.275 . S
Cd56 O55 2.300 . S
Cd56 O64 2.381 . S
Cd56 O65 2.378 . S
O57 Cd58 2.385 . S
O57 C62 1.255 . S
Cd58 O57 2.385 . S
Cd58 O59 2.317 . S
O59 Cd58 2.317 . S
O59 C60 1.232 . S
C60 O59 1.232 . S
C60 O61 1.218 . S
O61 C60 1.218 . S
C62 O55 1.275 . S
C62 O57 1.255 . S
C63 O64 1.258 . S
C63 O65 1.256 . S
O64 Cd56 2.381 . S
O64 C63 1.258 . S
O65 Cd56 2.378 . S
O65 C63 1.256 . S
O66 Cd67 2.300 . S
O66 C73 1.275 . S
Cd67 O66 2.300 . S
Cd67 O75 2.381 . S
Cd67 O76 2.378 . S
O68 Cd69 2.385 . S
O68 C73 1.255 1_554 S
Cd69 O68 2.385 . S
Cd69 O70 2.317 . S
O70 Cd69 2.317 . S
O70 C71 1.232 . S
C71 O70 1.232 . S
C71 O72 1.218 . S
O72 C71 1.218 . S
C73 O66 1.275 . S
C73 O68 1.255 1_556 S
C74 O75 1.258 . S
C74 O76 1.256 . S
O75 Cd67 2.381 . S
O75 C74 1.258 . S
O76 Cd67 2.378 . S
O76 C74 1.256 . S
O77 Cd78 2.300 . S
O77 C84 1.275 . S
Cd78 O77 2.300 . S
Cd78 O86 2.381 . S
Cd78 O87 2.378 . S
O79 Cd80 2.385 . S
O79 C84 1.255 . S
Cd80 O79 2.385 . S
Cd80 O81 2.317 . S
O81 Cd80 2.317 . S
O81 C82 1.232 . S
C82 O81 1.232 . S
C82 O83 1.218 . S
O83 C82 1.218 . S
C84 O77 1.275 . S
C84 O79 1.255 . S
C85 O86 1.258 . S
C85 O87 1.256 . S
O86 Cd78 2.381 . S
O86 C85 1.258 . S
O87 Cd78 2.378 . S
O87 C85 1.256 . S
Fe88 O90 1.918 . S
Fe88 O93 1.997 1_455 S
Fe88 O94 2.002 1_455 S
Fe88 O99 1.976 . S
Fe88 O102 1.996 . S
Fe89 O90 1.918 . S
Fe89 O97 1.997 1_455 S
Fe89 O100 1.996 . S
Fe89 O104 1.976 . S
Fe89 O107 2.002 1_455 S
O90 Fe88 1.918 . S
O90 Fe89 1.918 . S
O90 Fe91 1.918 . S
Fe91 O90 1.918 . S
Fe91 O92 2.002 1_455 S
Fe91 O101 1.976 . S
Fe91 O105 1.996 . S
Fe91 O108 1.997 1_455 S
O92 Fe91 2.002 1_655 S
O92 C109 1.295 . S
O93 Fe88 1.997 1_655 S
O93 C109 1.235 . S
O94 Fe88 2.002 1_655 S
O94 C95 1.295 . S
C95 O94 1.295 . S
C95 O97 1.235 . S
C96 O101 1.287 . S
C96 O102 1.255 . S
O97 Fe89 1.997 1_655 S
O97 C95 1.235 . S
C98 O104 1.287 . S
C98 O105 1.255 . S
O99 Fe88 1.976 . S
O99 C106 1.287 . S
O100 Fe89 1.996 . S
O100 C106 1.255 . S
O101 Fe91 1.976 . S
O101 C96 1.287 . S
O102 Fe88 1.996 . S
O102 C96 1.255 . S
C103 O107 1.295 . S
C103 O108 1.235 . S
O104 Fe89 1.976 . S
O104 C98 1.287 . S
O105 Fe91 1.996 . S
O105 C98 1.255 . S
C106 O99 1.287 . S
C106 O100 1.255 . S
O107 Fe89 2.002 1_655 S
O107 C103 1.295 . S
O108 Fe91 1.997 1_655 S
O108 C103 1.235 . S
C109 O92 1.295 . S
C109 O93 1.235 . S
Fe110 O112 1.918 . S
Fe110 O115 1.997 . S
Fe110 O116 2.002 . S
Fe110 O121 1.976 1_455 S
Fe110 O124 1.996 1_455 S
Fe111 O112 1.918 . S
Fe111 O119 1.997 . S
Fe111 O122 1.996 1_455 S
Fe111 O126 1.976 1_455 S
Fe111 O129 2.002 . S
O112 Fe110 1.918 . S
O112 Fe111 1.918 . S
O112 Fe113 1.918 . S
Fe113 O112 1.918 . S
Fe113 O114 2.002 . S
Fe113 O123 1.976 1_455 S
Fe113 O127 1.996 1_455 S
Fe113 O130 1.997 . S
O114 Fe113 2.002 . S
O114 C131 1.295 . S
O115 Fe110 1.997 . S
O115 C131 1.235 . S
O116 Fe110 2.002 . S
O116 C117 1.295 . S
C117 O116 1.295 . S
C117 O119 1.235 . S
C118 O123 1.287 . S
C118 O124 1.255 . S
O119 Fe111 1.997 . S
O119 C117 1.235 . S
C120 O126 1.287 . S
C120 O127 1.255 . S
O121 Fe110 1.976 1_655 S
O121 C128 1.287 . S
O122 Fe111 1.996 1_655 S
O122 C128 1.255 . S
O123 Fe113 1.976 1_655 S
O123 C118 1.287 . S
O124 Fe110 1.996 1_655 S
O124 C118 1.255 . S
C125 O129 1.295 . S
C125 O130 1.235 . S
O126 Fe111 1.976 1_655 S
O126 C120 1.287 . S
O127 Fe113 1.996 1_655 S
O127 C120 1.255 . S
C128 O121 1.287 . S
C128 O122 1.255 . S
O129 Fe111 2.002 . S
O129 C125 1.295 . S
O130 Fe113 1.997 . S
O130 C125 1.235 . S
C131 O114 1.295 . S
C131 O115 1.235 . S
Fe132 O134 1.918 . S
Fe132 O137 1.997 . S
Fe132 O138 2.002 . S
Fe132 O143 1.976 . S
Fe132 O146 1.996 . S
Fe133 O134 1.918 . S
Fe133 O141 1.997 . S
Fe133 O144 1.996 . S
Fe133 O148 1.976 . S
Fe133 O151 2.002 . S
O134 Fe132 1.918 . S
O134 Fe133 1.918 . S
O134 Fe135 1.918 . S
Fe135 O134 1.918 . S
Fe135 O136 2.002 . S
Fe135 O145 1.976 . S
Fe135 O149 1.996 . S
Fe135 O152 1.997 . S
O136 Fe135 2.002 . S
O136 C153 1.295 . S
O137 Fe132 1.997 . S
O137 C153 1.235 . S
O138 Fe132 2.002 . S
O138 C139 1.295 . S
C139 O138 1.295 . S
C139 O141 1.235 . S
C140 O145 1.287 . S
C140 O146 1.255 . S
O141 Fe133 1.997 . S
O141 C139 1.235 . S
C142 O148 1.287 . S
C142 O149 1.255 . S
O143 Fe132 1.976 . S
O143 C150 1.287 . S
O144 Fe133 1.996 . S
O144 C150 1.255 . S
O145 Fe135 1.976 . S
O145 C140 1.287 . S
O146 Fe132 1.996 . S
O146 C140 1.255 . S
C147 O151 1.295 . S
C147 O152 1.235 . S
O148 Fe133 1.976 . S
O148 C142 1.287 . S
O149 Fe135 1.996 . S
O149 C142 1.255 . S
C150 O143 1.287 . S
C150 O144 1.255 . S
O151 Fe133 2.002 . S
O151 C147 1.295 . S
O152 Fe135 1.997 . S
O152 C147 1.235 . S
C153 O136 1.295 . S
C153 O137 1.235 . S
Fe154 O156 1.918 . S
Fe154 O159 1.997 . S
Fe154 O160 2.002 . S
Fe154 O165 1.976 . S
Fe154 O168 1.996 . S
Fe155 O156 1.918 . S
Fe155 O163 1.997 . S
Fe155 O166 1.996 . S
Fe155 O170 1.976 . S
Fe155 O173 2.002 . S
O156 Fe154 1.918 . S
O156 Fe155 1.918 . S
O156 Fe157 1.918 . S
Fe157 O156 1.918 . S
Fe157 O158 2.002 . S
Fe157 O167 1.976 . S
Fe157 O171 1.996 . S
Fe157 O174 1.997 . S
O158 Fe157 2.002 . S
O158 C175 1.295 . S
O159 Fe154 1.997 . S
O159 C175 1.235 . S
O160 Fe154 2.002 . S
O160 C161 1.295 . S
C161 O160 1.295 . S
C161 O163 1.235 . S
C162 O167 1.287 . S
C162 O168 1.255 . S
O163 Fe155 1.997 . S
O163 C161 1.235 . S
C164 O170 1.287 . S
C164 O171 1.255 . S
O165 Fe154 1.976 . S
O165 C172 1.287 . S
O166 Fe155 1.996 . S
O166 C172 1.255 . S
O167 Fe157 1.976 . S
O167 C162 1.287 . S
O168 Fe154 1.996 . S
O168 C162 1.255 . S
C169 O173 1.295 . S
C169 O174 1.235 . S
O170 Fe155 1.976 . S
O170 C164 1.287 . S
O171 Fe157 1.996 . S
O171 C164 1.255 . S
C172 O165 1.287 . S
C172 O166 1.255 . S
O173 Fe155 2.002 . S
O173 C169 1.295 . S
O174 Fe157 1.997 . S
O174 C169 1.235 . S
C175 O158 1.295 . S
C175 O159 1.235 . S
H176 C184 0.950 . S
H177 C189 0.950 . S
H178 C186 0.950 . S
H179 C188 0.950 . S
H180 C190 0.950 . S
H181 C192 0.950 . S
H182 C194 0.950 . S
H183 C195 0.950 . S
C184 H176 0.950 . S
C184 C185 1.386 . S
C184 C186 1.391 . S
C185 C184 1.386 . S
C185 C189 1.393 . S
C186 H178 0.950 . S
C186 C184 1.391 . S
C186 C187 1.400 . S
C187 C186 1.400 . S
C187 C188 1.398 . S
C187 C193 1.491 . S
C188 H179 0.950 . S
C188 C187 1.398 . S
C188 C189 1.391 . S
C189 H177 0.950 . S
C189 C185 1.393 . S
C189 C188 1.391 . S
C190 H180 0.950 . S
C190 C191 1.386 . S
C190 C192 1.391 . S
C191 C190 1.386 . S
C191 C195 1.393 . S
C192 H181 0.950 . S
C192 C190 1.391 . S
C192 C193 1.400 . S
C193 C187 1.491 . S
C193 C192 1.400 . S
C193 C194 1.398 . S
C194 H182 0.950 . S
C194 C193 1.398 . S
C194 C195 1.391 . S
C195 H183 0.950 . S
C195 C191 1.393 . S
C195 C194 1.391 . S
H196 C204 0.950 . S
H197 C209 0.950 . S
H198 C206 0.950 . S
H199 C208 0.950 . S
H200 C210 0.950 . S
H201 C212 0.950 . S
H202 C214 0.950 . S
H203 C215 0.950 . S
C204 H196 0.950 . S
C204 C205 1.386 . S
C204 C206 1.391 . S
C205 C204 1.386 . S
C205 C209 1.393 . S
C206 H198 0.950 . S
C206 C204 1.391 . S
C206 C207 1.400 . S
C207 C206 1.400 . S
C207 C208 1.398 . S
C207 C213 1.491 . S
C208 H199 0.950 . S
C208 C207 1.398 . S
C208 C209 1.391 . S
C209 H197 0.950 . S
C209 C205 1.393 . S
C209 C208 1.391 . S
C210 H200 0.950 . S
C210 C211 1.386 . S
C210 C212 1.391 . S
C211 C210 1.386 . S
C211 C215 1.393 . S
C212 H201 0.950 . S
C212 C210 1.391 . S
C212 C213 1.400 . S
C213 C207 1.491 . S
C213 C212 1.400 . S
C213 C214 1.398 . S
C214 H202 0.950 . S
C214 C213 1.398 . S
C214 C215 1.391 . S
C215 H203 0.950 . S
C215 C211 1.393 . S
C215 C214 1.391 . S
H216 C224 0.950 . S
H217 C229 0.950 . S
H218 C226 0.950 . S
H219 C228 0.950 . S
H220 C230 0.950 . S
H221 C232 0.950 . S
H222 C234 0.950 . S
H223 C235 0.950 . S
C224 H216 0.950 . S
C224 C225 1.386 . S
C224 C226 1.391 . S
C225 C224 1.386 . S
C225 C229 1.393 . S
C226 H218 0.950 . S
C226 C224 1.391 . S
C226 C227 1.400 . S
C227 C226 1.400 . S
C227 C228 1.398 . S
C227 C233 1.491 . S
C228 H219 0.950 . S
C228 C227 1.398 . S
C228 C229 1.391 . S
C229 H217 0.950 . S
C229 C225 1.393 . S
C229 C228 1.391 . S
C230 H220 0.950 . S
C230 C231 1.386 . S
C230 C232 1.391 . S
C231 C230 1.386 . S
C231 C235 1.393 . S
C232 H221 0.950 . S
C232 C230 1.391 . S
C232 C233 1.400 . S
C233 C227 1.491 . S
C233 C232 1.400 . S
C233 C234 1.398 . S
C234 H222 0.950 . S
C234 C233 1.398 . S
C234 C235 1.391 . S
C235 H223 0.950 . S
C235 C231 1.393 . S
C235 C234 1.391 . S
H236 C244 0.950 . S
H237 C249 0.950 . S
H238 C246 0.950 . S
H239 C248 0.950 . S
H240 C250 0.950 . S
H241 C252 0.950 . S
H242 C254 0.950 . S
H243 C255 0.950 . S
C244 H236 0.950 . S
C244 C245 1.386 . S
C244 C246 1.391 . S
C245 C244 1.386 . S
C245 C249 1.393 . S
C246 H238 0.950 . S
C246 C244 1.391 . S
C246 C247 1.400 . S
C247 C246 1.400 . S
C247 C248 1.398 . S
C247 C253 1.491 . S
C248 H239 0.950 . S
C248 C247 1.398 . S
C248 C249 1.391 . S
C249 H237 0.950 . S
C249 C245 1.393 . S
C249 C248 1.391 . S
C250 H240 0.950 . S
C250 C251 1.386 . S
C250 C252 1.391 . S
C251 C250 1.386 . S
C251 C255 1.393 . S
C252 H241 0.950 . S
C252 C250 1.391 . S
C252 C253 1.400 . S
C253 C247 1.491 . S
C253 C252 1.400 . S
C253 C254 1.398 . S
C254 H242 0.950 . S
C254 C253 1.398 . S
C254 C255 1.391 . S
C255 H243 0.950 . S
C255 C251 1.393 . S
C255 C254 1.391 . S
H256 C264 0.950 . S
H257 C269 0.950 . S
H258 C266 0.950 . S
H259 C268 0.950 . S
H260 C270 0.950 . S
H261 C272 0.950 . S
H262 C274 0.950 . S
H263 C275 0.950 . S
C264 H256 0.950 . S
C264 C265 1.386 . S
C264 C266 1.391 . S
C265 C264 1.386 . S
C265 C269 1.393 . S
C266 H258 0.950 . S
C266 C264 1.391 . S
C266 C267 1.400 . S
C267 C266 1.400 . S
C267 C268 1.398 . S
C267 C273 1.491 . S
C268 H259 0.950 . S
C268 C267 1.398 . S
C268 C269 1.391 . S
C269 H257 0.950 . S
C269 C265 1.393 . S
C269 C268 1.391 . S
C270 H260 0.950 . S
C270 C271 1.386 . S
C270 C272 1.391 . S
C271 C270 1.386 . S
C271 C275 1.393 . S
C272 H261 0.950 . S
C272 C270 1.391 . S
C272 C273 1.400 . S
C273 C267 1.491 . S
C273 C272 1.400 . S
C273 C274 1.398 . S
C274 H262 0.950 . S
C274 C273 1.398 . S
C274 C275 1.391 . S
C275 H263 0.950 . S
C275 C271 1.393 . S
C275 C274 1.391 . S
H276 C284 0.950 . S
H277 C289 0.950 . S
H278 C286 0.950 . S
H279 C288 0.950 . S
H280 C290 0.950 . S
H281 C292 0.950 . S
H282 C294 0.950 . S
H283 C295 0.950 . S
C284 H276 0.950 . S
C284 C285 1.386 . S
C284 C286 1.391 . S
C285 C284 1.386 . S
C285 C289 1.393 . S
C286 H278 0.950 . S
C286 C284 1.391 . S
C286 C287 1.400 . S
C287 C286 1.400 . S
C287 C288 1.398 . S
C287 C293 1.491 . S
C288 H279 0.950 . S
C288 C287 1.398 . S
C288 C289 1.391 . S
C289 H277 0.950 . S
C289 C285 1.393 . S
C289 C288 1.391 . S
C290 H280 0.950 . S
C290 C291 1.386 . S
C290 C292 1.391 . S
C291 C290 1.386 . S
C291 C295 1.393 . S
C292 H281 0.950 . S
C292 C290 1.391 . S
C292 C293 1.400 . S
C293 C287 1.491 . S
C293 C292 1.400 . S
C293 C294 1.398 . S
C294 H282 0.950 . S
C294 C293 1.398 . S
C294 C295 1.391 . S
C295 H283 0.950 . S
C295 C291 1.393 . S
C295 C294 1.391 . S
H296 C304 0.950 . S
H297 C309 0.950 . S
H298 C306 0.950 . S
H299 C308 0.950 . S
H300 C310 0.950 . S
H301 C312 0.950 . S
H302 C314 0.950 . S
H303 C315 0.950 . S
C304 H296 0.950 . S
C304 C305 1.386 . S
C304 C306 1.391 . S
C305 C304 1.386 . S
C305 C309 1.393 . S
C306 H298 0.950 . S
C306 C304 1.391 . S
C306 C307 1.400 . S
C307 C306 1.400 . S
C307 C308 1.398 . S
C307 C313 1.491 . S
C308 H299 0.950 . S
C308 C307 1.398 . S
C308 C309 1.391 . S
C309 H297 0.950 . S
C309 C305 1.393 . S
C309 C308 1.391 . S
C310 H300 0.950 . S
C310 C311 1.386 . S
C310 C312 1.391 . S
C311 C310 1.386 . S
C311 C315 1.393 . S
C312 H301 0.950 . S
C312 C310 1.391 . S
C312 C313 1.400 . S
C313 C307 1.491 . S
C313 C312 1.400 . S
C313 C314 1.398 . S
C314 H302 0.950 . S
C314 C313 1.398 . S
C314 C315 1.391 . S
C315 H303 0.950 . S
C315 C311 1.393 . S
C315 C314 1.391 . S
H316 C324 0.950 . S
H317 C329 0.950 . S
H318 C326 0.950 . S
H319 C328 0.950 . S
H320 C330 0.950 . S
H321 C332 0.950 . S
H322 C334 0.950 . S
H323 C335 0.950 . S
C324 H316 0.950 . S
C324 C325 1.386 . S
C324 C326 1.391 . S
C325 C324 1.386 . S
C325 C329 1.393 . S
C326 H318 0.950 . S
C326 C324 1.391 . S
C326 C327 1.400 . S
C327 C326 1.400 . S
C327 C328 1.398 . S
C327 C333 1.491 . S
C328 H319 0.950 . S
C328 C327 1.398 . S
C328 C329 1.391 . S
C329 H317 0.950 . S
C329 C325 1.393 . S
C329 C328 1.391 . S
C330 H320 0.950 . S
C330 C331 1.386 . S
C330 C332 1.391 . S
C331 C330 1.386 . S
C331 C335 1.393 . S
C332 H321 0.950 . S
C332 C330 1.391 . S
C332 C333 1.400 . S
C333 C327 1.491 . S
C333 C332 1.400 . S
C333 C334 1.398 . S
C334 H322 0.950 . S
C334 C333 1.398 . S
C334 C335 1.391 . S
C335 H323 0.950 . S
C335 C331 1.393 . S
C335 C334 1.391 . S
H336 C344 0.950 . S
H337 C349 0.950 . S
H338 C346 0.950 . S
H339 C348 0.950 . S
H340 C350 0.950 . S
H341 C352 0.950 . S
H342 C354 0.950 . S
H343 C355 0.950 . S
C344 H336 0.950 . S
C344 C345 1.386 . S
C344 C346 1.391 . S
C345 C344 1.386 . S
C345 C349 1.393 . S
C346 H338 0.950 . S
C346 C344 1.391 . S
C346 C347 1.400 . S
C347 C346 1.400 . S
C347 C348 1.398 . S
C347 C353 1.491 . S
C348 H339 0.950 . S
C348 C347 1.398 . S
C348 C349 1.391 . S
C349 H337 0.950 . S
C349 C345 1.393 . S
C349 C348 1.391 . S
C350 H340 0.950 . S
C350 C351 1.386 . S
C350 C352 1.391 . S
C351 C350 1.386 . S
C351 C355 1.393 . S
C352 H341 0.950 . S
C352 C350 1.391 . S
C352 C353 1.400 . S
C353 C347 1.491 . S
C353 C352 1.400 . S
C353 C354 1.398 . S
C354 H342 0.950 . S
C354 C353 1.398 . S
C354 C355 1.391 . S
C355 H343 0.950 . S
C355 C351 1.393 . S
C355 C354 1.391 . S
H356 C364 0.950 . S
H357 C369 0.950 . S
H358 C366 0.950 . S
H359 C368 0.950 . S
H360 C370 0.950 . S
H361 C372 0.950 . S
H362 C374 0.950 . S
H363 C375 0.950 . S
C364 H356 0.950 . S
C364 C365 1.386 . S
C364 C366 1.391 . S
C365 C364 1.386 . S
C365 C369 1.393 . S
C366 H358 0.950 . S
C366 C364 1.391 . S
C366 C367 1.400 . S
C367 C366 1.400 . S
C367 C368 1.398 . S
C367 C373 1.491 . S
C368 H359 0.950 . S
C368 C367 1.398 . S
C368 C369 1.391 . S
C369 H357 0.950 . S
C369 C365 1.393 . S
C369 C368 1.391 . S
C370 H360 0.950 . S
C370 C371 1.386 . S
C370 C372 1.391 . S
C371 C370 1.386 . S
C371 C375 1.393 . S
C372 H361 0.950 . S
C372 C370 1.391 . S
C372 C373 1.400 . S
C373 C367 1.491 . S
C373 C372 1.400 . S
C373 C374 1.398 . S
C374 H362 0.950 . S
C374 C373 1.398 . S
C374 C375 1.391 . S
C375 H363 0.950 . S
C375 C371 1.393 . S
C375 C374 1.391 . S
H376 C384 0.950 . S
H377 C389 0.950 1_554 S
H378 C386 0.950 . S
H379 C388 0.950 . S
H380 C390 0.950 . S
H381 C392 0.950 . S
H382 C394 0.950 . S
H383 C395 0.950 . S
C384 H376 0.950 . S
C384 C385 1.386 . S
C384 C386 1.391 . S
C385 C384 1.386 . S
C385 C389 1.393 . S
C386 H378 0.950 . S
C386 C384 1.391 . S
C386 C387 1.400 . S
C387 C386 1.400 . S
C387 C388 1.398 . S
C387 C393 1.491 . S
C388 H379 0.950 . S
C388 C387 1.398 . S
C388 C389 1.391 . S
C389 H377 0.950 1_556 S
C389 C385 1.393 . S
C389 C388 1.391 . S
C390 H380 0.950 . S
C390 C391 1.386 . S
C390 C392 1.391 . S
C391 C390 1.386 . S
C391 C395 1.393 . S
C392 H381 0.950 . S
C392 C390 1.391 . S
C392 C393 1.400 . S
C393 C387 1.491 . S
C393 C392 1.400 . S
C393 C394 1.398 . S
C394 H382 0.950 . S
C394 C393 1.398 . S
C394 C395 1.391 . S
C395 H383 0.950 . S
C395 C391 1.393 . S
C395 C394 1.391 . S
H396 C404 0.950 . S
H397 C409 0.950 . S
H398 C406 0.950 . S
H399 C408 0.950 . S
H400 C410 0.950 . S
H401 C412 0.950 . S
H402 C414 0.950 . S
H403 C415 0.950 . S
C404 H396 0.950 . S
C404 C405 1.386 . S
C404 C406 1.391 . S
C405 C404 1.386 . S
C405 C409 1.393 . S
C406 H398 0.950 . S
C406 C404 1.391 . S
C406 C407 1.400 . S
C407 C406 1.400 . S
C407 C408 1.398 . S
C407 C413 1.491 . S
C408 H399 0.950 . S
C408 C407 1.398 . S
C408 C409 1.391 . S
C409 H397 0.950 . S
C409 C405 1.393 . S
C409 C408 1.391 . S
C410 H400 0.950 . S
C410 C411 1.386 . S
C410 C412 1.391 . S
C411 C410 1.386 . S
C411 C415 1.393 . S
C412 H401 0.950 . S
C412 C410 1.391 . S
C412 C413 1.400 . S
C413 C407 1.491 . S
C413 C412 1.400 . S
C413 C414 1.398 . S
C414 H402 0.950 . S
C414 C413 1.398 . S
C414 C415 1.391 . S
C415 H403 0.950 . S
C415 C411 1.393 . S
C415 C414 1.391 . S
H416 C424 0.950 . S
H417 C429 0.950 . S
H418 C426 0.950 . S
H419 C428 0.950 1_545 S
H420 C430 0.950 . S
H421 C432 0.950 . S
H422 C434 0.959 . S
H423 C435 0.950 . S
C424 H416 0.950 . S
C424 C425 1.386 . S
C424 C426 1.391 . S
C425 C424 1.386 . S
C425 C429 1.393 . S
C426 H418 0.950 . S
C426 C424 1.391 . S
C426 C427 1.400 . S
C427 C426 1.400 . S
C427 C428 1.398 . S
C427 C433 1.491 1_565 S
C428 H419 0.950 1_565 S
C428 C427 1.398 . S
C428 C429 1.391 . S
C429 H417 0.950 . S
C429 C425 1.393 . S
C429 C428 1.391 . S
C430 H420 0.950 . S
C430 C431 1.386 . S
C430 C432 1.391 . S
C431 C430 1.386 . S
C431 C435 1.393 . S
C432 H421 0.950 . S
C432 C430 1.391 . S
C432 C433 1.400 . S
C433 C427 1.491 1_545 S
C433 C432 1.400 . S
C433 C434 1.396 1_545 S
C434 H422 0.959 . S
C434 C433 1.396 1_565 S
C434 C435 1.385 1_565 S
C435 H423 0.950 . S
C435 C431 1.393 . S
C435 C434 1.385 1_545 S
H436 C444 0.950 . S
H437 C449 0.950 1_565 S
H438 C446 0.950 . S
H439 C448 0.950 . S
H440 C450 0.950 . S
H441 C452 0.950 . S
H442 C454 0.950 1_545 S
H443 C455 0.950 . S
C444 H436 0.950 . S
C444 C445 1.386 . S
C444 C446 1.391 . S
C445 C444 1.386 . S
C445 C449 1.393 . S
C446 H438 0.950 . S
C446 C444 1.391 . S
C446 C447 1.432 . S
C447 C446 1.432 . S
C447 C448 1.387 1_545 S
C447 C453 1.471 1_545 S
C448 H439 0.950 . S
C448 C447 1.387 1_565 S
C448 C449 1.391 1_565 S
C449 H437 0.950 1_545 S
C449 C445 1.393 . S
C449 C448 1.391 1_545 S
C450 H440 0.950 . S
C450 C451 1.386 . S
C450 C452 1.391 . S
C451 C450 1.386 . S
C451 C455 1.393 . S
C452 H441 0.950 . S
C452 C450 1.391 . S
C452 C453 1.400 . S
C453 C447 1.471 1_565 S
C453 C452 1.400 . S
C453 C454 1.398 . S
C454 H442 0.950 1_565 S
C454 C453 1.398 . S
C454 C455 1.391 . S
C455 H443 0.950 . S
C455 C451 1.393 . S
C455 C454 1.391 . S
H456 C464 0.950 . S
H457 C469 0.950 . S
H458 C466 0.974 . S
H459 C468 0.950 . S
H460 C470 0.950 . S
H461 C472 0.950 1_565 S
H462 C474 0.950 . S
H463 C475 0.950 . S
C464 H456 0.950 . S
C464 C465 1.386 . S
C464 C466 1.376 1_565 S
C465 C464 1.386 . S
C465 C469 1.393 . S
C466 H458 0.974 . S
C466 C464 1.376 1_545 S
C466 C467 1.392 1_545 S
C467 C466 1.392 1_565 S
C467 C468 1.398 . S
C467 C473 1.491 1_565 S
C468 H459 0.950 . S
C468 C467 1.398 . S
C468 C469 1.391 . S
C469 H457 0.950 . S
C469 C465 1.393 . S
C469 C468 1.391 . S
C470 H460 0.950 . S
C470 C471 1.386 . S
C470 C472 1.391 . S
C471 C470 1.386 . S
C471 C475 1.393 . S
C472 H461 0.950 1_545 S
C472 C470 1.391 . S
C472 C473 1.400 . S
C473 C467 1.491 1_545 S
C473 C472 1.400 . S
C473 C474 1.398 . S
C474 H462 0.950 . S
C474 C473 1.398 . S
C474 C475 1.391 . S
C475 H463 0.950 . S
C475 C471 1.393 . S
C475 C474 1.391 . S
H476 C484 0.950 . S
H477 C489 0.950 . S
H478 C486 0.950 1_565 S
H479 C488 0.950 . S
H480 C490 0.950 . S
H481 C492 0.950 1_545 S
H482 C494 0.950 . S
H483 C495 0.950 . S
C484 H476 0.950 . S
C484 C485 1.386 . S
C484 C486 1.391 . S
C485 C484 1.386 . S
C485 C489 1.393 . S
C486 H478 0.950 1_545 S
C486 C484 1.391 . S
C486 C487 1.400 . S
C487 C486 1.400 . S
C487 C488 1.398 . S
C487 C493 1.491 1_545 S
C488 H479 0.950 . S
C488 C487 1.398 . S
C488 C489 1.391 . S
C489 H477 0.950 . S
C489 C485 1.393 . S
C489 C488 1.391 . S
C490 H480 0.950 . S
C490 C491 1.386 . S
C490 C492 1.391 . S
C491 C490 1.386 . S
C491 C495 1.393 . S
C492 H481 0.950 1_565 S
C492 C490 1.391 . S
C492 C493 1.400 . S
C493 C487 1.491 1_565 S
C493 C492 1.400 . S
C493 C494 1.398 . S
C494 H482 0.950 . S
C494 C493 1.398 . S
C494 C495 1.391 . S
C495 H483 0.950 . S
C495 C491 1.393 . S
C495 C494 1.391 . S
H496 C504 0.950 . S
H497 C509 0.950 . S
H498 C506 0.950 . S
H499 C508 0.950 . S
H500 C510 0.950 . S
H501 C512 0.950 . S
H502 C514 0.950 . S
H503 C515 0.950 . S
C504 H496 0.950 . S
C504 C505 1.386 . S
C504 C506 1.391 . S
C505 C504 1.386 . S
C505 C509 1.393 . S
C506 H498 0.950 . S
C506 C504 1.391 . S
C506 C507 1.400 . S
C507 C506 1.400 . S
C507 C508 1.398 . S
C507 C513 1.491 . S
C508 H499 0.950 . S
C508 C507 1.398 . S
C508 C509 1.391 . S
C509 H497 0.950 . S
C509 C505 1.393 . S
C509 C508 1.391 . S
C510 H500 0.950 . S
C510 C511 1.386 . S
C510 C512 1.391 . S
C511 C510 1.386 . S
C511 C515 1.393 . S
C512 H501 0.950 . S
C512 C510 1.391 . S
C512 C513 1.400 . S
C513 C507 1.491 . S
C513 C512 1.400 . S
C513 C514 1.398 . S
C514 H502 0.950 . S
C514 C513 1.398 . S
C514 C515 1.391 . S
C515 H503 0.950 . S
C515 C511 1.393 . S
C515 C514 1.391 . S
H516 C524 0.950 . S
H517 C529 0.950 . S
H518 C526 0.950 . S
H519 C528 0.950 . S
H520 C530 0.950 . S
H521 C532 0.950 . S
H522 C534 0.950 . S
H523 C535 0.950 . S
C524 H516 0.950 . S
C524 C525 1.386 . S
C524 C526 1.391 . S
C525 C524 1.386 . S
C525 C529 1.393 . S
C526 H518 0.950 . S
C526 C524 1.391 . S
C526 C527 1.400 . S
C527 C526 1.400 . S
C527 C528 1.398 . S
C527 C533 1.491 . S
C528 H519 0.950 . S
C528 C527 1.398 . S
C528 C529 1.391 . S
C529 H517 0.950 . S
C529 C525 1.393 . S
C529 C528 1.391 . S
C530 H520 0.950 . S
C530 C531 1.386 . S
C530 C532 1.391 . S
C531 C530 1.386 . S
C531 C535 1.393 . S
C532 H521 0.950 . S
C532 C530 1.391 . S
C532 C533 1.400 . S
C533 C527 1.491 . S
C533 C532 1.400 . S
C533 C534 1.398 . S
C534 H522 0.950 . S
C534 C533 1.398 . S
C534 C535 1.391 . S
C535 H523 0.950 . S
C535 C531 1.393 . S
C535 C534 1.391 . S
H536 C544 0.950 . S
H537 C549 0.950 . S
H538 C546 0.950 . S
H539 C548 0.950 . S
H540 C550 0.950 . S
H541 C552 0.950 . S
H542 C554 0.950 . S
H543 C555 0.950 . S
C544 H536 0.950 . S
C544 C545 1.386 . S
C544 C546 1.391 . S
C545 C544 1.386 . S
C545 C549 1.393 . S
C546 H538 0.950 . S
C546 C544 1.391 . S
C546 C547 1.400 . S
C547 C546 1.400 . S
C547 C548 1.398 . S
C547 C553 1.491 . S
C548 H539 0.950 . S
C548 C547 1.398 . S
C548 C549 1.391 . S
C549 H537 0.950 . S
C549 C545 1.393 . S
C549 C548 1.391 . S
C550 H540 0.950 . S
C550 C551 1.386 . S
C550 C552 1.391 . S
C551 C550 1.386 . S
C551 C555 1.393 . S
C552 H541 0.950 . S
C552 C550 1.391 . S
C552 C553 1.400 . S
C553 C547 1.491 . S
C553 C552 1.400 . S
C553 C554 1.398 . S
C554 H542 0.950 . S
C554 C553 1.398 . S
C554 C555 1.391 . S
C555 H543 0.950 . S
C555 C551 1.393 . S
C555 C554 1.391 . S
H556 C564 0.950 . S
H557 C569 0.950 . S
H558 C566 0.950 . S
H559 C568 0.950 . S
H560 C570 0.950 . S
H561 C572 0.950 . S
H562 C574 0.950 . S
H563 C575 0.950 . S
C564 H556 0.950 . S
C564 C565 1.386 . S
C564 C566 1.391 . S
C565 C564 1.386 . S
C565 C569 1.393 . S
C566 H558 0.950 . S
C566 C564 1.391 . S
C566 C567 1.400 . S
C567 C566 1.400 . S
C567 C568 1.398 . S
C567 C573 1.491 . S
C568 H559 0.950 . S
C568 C567 1.398 . S
C568 C569 1.391 . S
C569 H557 0.950 . S
C569 C565 1.393 . S
C569 C568 1.391 . S
C570 H560 0.950 . S
C570 C571 1.386 . S
C570 C572 1.391 . S
C571 C570 1.386 . S
C571 C575 1.393 . S
C572 H561 0.950 . S
C572 C570 1.391 . S
C572 C573 1.400 . S
C573 C567 1.491 . S
C573 C572 1.400 . S
C573 C574 1.398 . S
C574 H562 0.950 . S
C574 C573 1.398 . S
C574 C575 1.391 . S
C575 H563 0.950 . S
C575 C571 1.393 . S
C575 C574 1.391 . S
H576 C584 0.950 . S
H577 C589 0.950 . S
H578 C586 0.950 . S
H579 C588 0.950 . S
H580 C590 0.950 . S
H581 C592 0.950 . S
H582 C594 0.950 . S
H583 C595 0.950 . S
C584 H576 0.950 . S
C584 C585 1.386 . S
C584 C586 1.391 . S
C585 C584 1.386 . S
C585 C589 1.393 . S
C586 H578 0.950 . S
C586 C584 1.391 . S
C586 C587 1.400 . S
C587 C586 1.400 . S
C587 C588 1.398 . S
C587 C593 1.491 . S
C588 H579 0.950 . S
C588 C587 1.398 . S
C588 C589 1.391 . S
C589 H577 0.950 . S
C589 C585 1.393 . S
C589 C588 1.391 . S
C590 H580 0.950 . S
C590 C591 1.386 . S
C590 C592 1.391 . S
C591 C590 1.386 . S
C591 C595 1.393 . S
C592 H581 0.950 . S
C592 C590 1.391 . S
C592 C593 1.400 . S
C593 C587 1.491 . S
C593 C592 1.400 . S
C593 C594 1.398 . S
C594 H582 0.950 . S
C594 C593 1.398 . S
C594 C595 1.391 . S
C595 H583 0.950 . S
C595 C591 1.393 . S
C595 C594 1.391 . S
H596 C604 0.950 . S
H597 C609 0.950 . S
H598 C606 0.950 . S
H599 C608 0.950 . S
H600 C610 0.950 . S
H601 C612 0.950 . S
H602 C614 0.950 . S
H603 C615 0.950 . S
C604 H596 0.950 . S
C604 C605 1.386 . S
C604 C606 1.391 . S
C605 C604 1.386 . S
C605 C609 1.393 . S
C606 H598 0.950 . S
C606 C604 1.391 . S
C606 C607 1.400 . S
C607 C606 1.400 . S
C607 C608 1.398 . S
C607 C613 1.491 . S
C608 H599 0.950 . S
C608 C607 1.398 . S
C608 C609 1.391 . S
C609 H597 0.950 . S
C609 C605 1.393 . S
C609 C608 1.391 . S
C610 H600 0.950 . S
C610 C611 1.386 . S
C610 C612 1.391 . S
C611 C610 1.386 . S
C611 C615 1.393 . S
C612 H601 0.950 . S
C612 C610 1.391 . S
C612 C613 1.400 . S
C613 C607 1.491 . S
C613 C612 1.400 . S
C613 C614 1.398 . S
C614 H602 0.950 . S
C614 C613 1.398 . S
C614 C615 1.391 . S
C615 H603 0.950 . S
C615 C611 1.393 . S
C615 C614 1.391 . S
H616 C624 0.950 . S
H617 C629 0.950 . S
H618 C626 0.950 . S
H619 C628 0.950 . S
H620 C630 0.950 . S
H621 C632 0.950 . S
H622 C634 0.950 . S
H623 C635 0.950 . S
C624 H616 0.950 . S
C624 C625 1.386 . S
C624 C626 1.391 . S
C625 C624 1.386 . S
C625 C629 1.393 . S
C626 H618 0.950 . S
C626 C624 1.391 . S
C626 C627 1.400 . S
C627 C626 1.400 . S
C627 C628 1.398 . S
C627 C633 1.491 . S
C628 H619 0.950 . S
C628 C627 1.398 . S
C628 C629 1.391 . S
C629 H617 0.950 . S
C629 C625 1.393 . S
C629 C628 1.391 . S
C630 H620 0.950 . S
C630 C631 1.386 . S
C630 C632 1.391 . S
C631 C630 1.386 . S
C631 C635 1.393 . S
C632 H621 0.950 . S
C632 C630 1.391 . S
C632 C633 1.400 . S
C633 C627 1.491 . S
C633 C632 1.400 . S
C633 C634 1.398 . S
C634 H622 0.950 . S
C634 C633 1.398 . S
C634 C635 1.391 . S
C635 H623 0.950 . S
C635 C631 1.393 . S
C635 C634 1.391 . S
H636 C644 0.950 . S
H637 C649 0.950 . S
H638 C646 0.950 . S
H639 C648 0.950 . S
H640 C650 0.950 . S
H641 C652 0.950 . S
H642 C654 0.950 . S
H643 C655 0.950 . S
C644 H636 0.950 . S
C644 C645 1.386 . S
C644 C646 1.391 . S
C645 C644 1.386 . S
C645 C649 1.393 . S
C646 H638 0.950 . S
C646 C644 1.391 . S
C646 C647 1.400 . S
C647 C646 1.400 . S
C647 C648 1.398 . S
C647 C653 1.491 . S
C648 H639 0.950 . S
C648 C647 1.398 . S
C648 C649 1.391 . S
C649 H637 0.950 . S
C649 C645 1.393 . S
C649 C648 1.391 . S
C650 H640 0.950 . S
C650 C651 1.386 . S
C650 C652 1.391 . S
C651 C650 1.386 . S
C651 C655 1.393 . S
C652 H641 0.950 . S
C652 C650 1.391 . S
C652 C653 1.400 . S
C653 C647 1.491 . S
C653 C652 1.400 . S
C653 C654 1.398 . S
C654 H642 0.950 . S
C654 C653 1.398 . S
C654 C655 1.391 . S
C655 H643 0.950 . S
C655 C651 1.393 . S
C655 C654 1.391 . S
C185 C8 1.694 . S
C191 C131 1.709 . S
C211 C95 1.425 . S
C205 C19 1.436 . S
C231 C118 1.546 . S
C225 C30 1.547 . S
C251 C106 1.545 . S
C245 C41 1.548 . S
C271 C175 1.713 . S
C265 C52 1.699 . S
C291 C139 1.426 . S
C285 C63 1.437 . S
C305 C74 1.546 . S
C311 C162 1.543 . S
C331 C150 1.544 . S
C325 C85 1.548 . S
C345 C7 1.633 . S
C351 C172 1.708 . S
C371 C142 1.338 . S
C365 C16 1.206 . S
C385 C29 1.594 . S
C391 C161 1.595 . S
C405 C40 1.527 . S
C411 C147 1.526 . S
C431 C128 1.708 . S
C425 C51 1.635 . S
C445 C60 1.224 . S
C451 C98 1.336 . S
C471 C117 1.584 . S
C465 C73 1.582 . S
C491 C103 1.529 . S
C485 C84 1.529 . S
C511 C153 1.512 . S
C505 C5 1.278 . S
C531 C169 1.506 . S
C525 C18 1.506 . S
C545 C27 1.367 . S
C551 C140 1.485 . S
C571 C164 1.463 . S
C565 C38 1.354 . S
C591 C109 1.508 . S
C585 C49 1.286 . S
C605 C62 1.498 . S
C611 C125 1.498 . S
C625 C71 1.342 . S
C631 C96 1.487 . S
C645 C82 1.345 . S
C651 C120 1.463 . S
