# Generated by pormake.
# Topology myd, (4,6)-cn, num edge types: 1
# Building blocks:
#     Node 0, Type 0, BuildingBlock: KOZSID_clean_sbu_0, # of connection points: 4
#     Node 1, Type 0, BuildingBlock: KOZSID_clean_sbu_0, # of connection points: 4
#     Node 2, Type 0, BuildingBlock: KOZSID_clean_sbu_0, # of connection points: 4
#     Node 3, Type 0, BuildingBlock: KOZSID_clean_sbu_0, # of connection points: 4
#     Node 4, Type 0, BuildingBlock: KOZSID_clean_sbu_0, # of connection points: 4
#     Node 5, Type 0, BuildingBlock: KOZSID_clean_sbu_0, # of connection points: 4
#     Node 6, Type 0, BuildingBlock: KOZSID_clean_sbu_0, # of connection points: 4
#     Node 7, Type 0, BuildingBlock: KOZSID_clean_sbu_0, # of connection points: 4
#     Node 8, Type 0, BuildingBlock: KOZSID_clean_sbu_0, # of connection points: 4
#     Node 9, Type 0, BuildingBlock: KOZSID_clean_sbu_0, # of connection points: 4
#     Node 10, Type 0, BuildingBlock: KOZSID_clean_sbu_0, # of connection points: 4
#     Node 11, Type 0, BuildingBlock: KOZSID_clean_sbu_0, # of connection points: 4
#     Node 12, Type 1, BuildingBlock: VOLQOD_clean_sbu_1, # of connection points: 6
#     Node 13, Type 1, BuildingBlock: VOLQOD_clean_sbu_1, # of connection points: 6
#     Node 14, Type 1, BuildingBlock: VOLQOD_clean_sbu_1, # of connection points: 6
#     Node 15, Type 1, BuildingBlock: VOLQOD_clean_sbu_1, # of connection points: 6
#     Node 16, Type 1, BuildingBlock: VOLQOD_clean_sbu_1, # of connection points: 6
#     Node 17, Type 1, BuildingBlock: VOLQOD_clean_sbu_1, # of connection points: 6
#     Node 18, Type 1, BuildingBlock: VOLQOD_clean_sbu_1, # of connection points: 6
#     Node 19, Type 1, BuildingBlock: VOLQOD_clean_sbu_1, # of connection points: 6
#     Edge 20, Type (0, 1), BuildingBlock: OJICUG_clean_linker_0, # of connection points: 2
#     Edge 21, Type (0, 1), BuildingBlock: OJICUG_clean_linker_0, # of connection points: 2
#     Edge 22, Type (0, 1), BuildingBlock: OJICUG_clean_linker_0, # of connection points: 2
#     Edge 23, Type (0, 1), BuildingBlock: OJICUG_clean_linker_0, # of connection points: 2
#     Edge 24, Type (0, 1), BuildingBlock: OJICUG_clean_linker_0, # of connection points: 2
#     Edge 25, Type (0, 1), BuildingBlock: OJICUG_clean_linker_0, # of connection points: 2
#     Edge 26, Type (0, 1), BuildingBlock: OJICUG_clean_linker_0, # of connection points: 2
#     Edge 27, Type (0, 1), BuildingBlock: OJICUG_clean_linker_0, # of connection points: 2
#     Edge 28, Type (0, 1), BuildingBlock: OJICUG_clean_linker_0, # of connection points: 2
#     Edge 29, Type (0, 1), BuildingBlock: OJICUG_clean_linker_0, # of connection points: 2
#     Edge 30, Type (0, 1), BuildingBlock: OJICUG_clean_linker_0, # of connection points: 2
#     Edge 31, Type (0, 1), BuildingBlock: OJICUG_clean_linker_0, # of connection points: 2
#     Edge 32, Type (0, 1), BuildingBlock: OJICUG_clean_linker_0, # of connection points: 2
#     Edge 33, Type (0, 1), BuildingBlock: OJICUG_clean_linker_0, # of connection points: 2
#     Edge 34, Type (0, 1), BuildingBlock: OJICUG_clean_linker_0, # of connection points: 2
#     Edge 35, Type (0, 1), BuildingBlock: OJICUG_clean_linker_0, # of connection points: 2
#     Edge 36, Type (0, 1), BuildingBlock: OJICUG_clean_linker_0, # of connection points: 2
#     Edge 37, Type (0, 1), BuildingBlock: OJICUG_clean_linker_0, # of connection points: 2
#     Edge 38, Type (0, 1), BuildingBlock: OJICUG_clean_linker_0, # of connection points: 2
#     Edge 39, Type (0, 1), BuildingBlock: OJICUG_clean_linker_0, # of connection points: 2
#     Edge 40, Type (0, 1), BuildingBlock: OJICUG_clean_linker_0, # of connection points: 2
#     Edge 41, Type (0, 1), BuildingBlock: OJICUG_clean_linker_0, # of connection points: 2
#     Edge 42, Type (0, 1), BuildingBlock: OJICUG_clean_linker_0, # of connection points: 2
#     Edge 43, Type (0, 1), BuildingBlock: OJICUG_clean_linker_0, # of connection points: 2
#     Edge 44, Type (0, 1), BuildingBlock: OJICUG_clean_linker_0, # of connection points: 2
#     Edge 45, Type (0, 1), BuildingBlock: OJICUG_clean_linker_0, # of connection points: 2
#     Edge 46, Type (0, 1), BuildingBlock: OJICUG_clean_linker_0, # of connection points: 2
#     Edge 47, Type (0, 1), BuildingBlock: OJICUG_clean_linker_0, # of connection points: 2
#     Edge 48, Type (0, 1), BuildingBlock: OJICUG_clean_linker_0, # of connection points: 2
#     Edge 49, Type (0, 1), BuildingBlock: OJICUG_clean_linker_0, # of connection points: 2
#     Edge 50, Type (0, 1), BuildingBlock: OJICUG_clean_linker_0, # of connection points: 2
#     Edge 51, Type (0, 1), BuildingBlock: OJICUG_clean_linker_0, # of connection points: 2
#     Edge 52, Type (0, 1), BuildingBlock: OJICUG_clean_linker_0, # of connection points: 2
#     Edge 53, Type (0, 1), BuildingBlock: OJICUG_clean_linker_0, # of connection points: 2
#     Edge 54, Type (0, 1), BuildingBlock: OJICUG_clean_linker_0, # of connection points: 2
#     Edge 55, Type (0, 1), BuildingBlock: OJICUG_clean_linker_0, # of connection points: 2
#     Edge 56, Type (0, 1), BuildingBlock: OJICUG_clean_linker_0, # of connection points: 2
#     Edge 57, Type (0, 1), BuildingBlock: OJICUG_clean_linker_0, # of connection points: 2
#     Edge 58, Type (0, 1), BuildingBlock: OJICUG_clean_linker_0, # of connection points: 2
#     Edge 59, Type (0, 1), BuildingBlock: OJICUG_clean_linker_0, # of connection points: 2
#     Edge 60, Type (0, 1), BuildingBlock: OJICUG_clean_linker_0, # of connection points: 2
#     Edge 61, Type (0, 1), BuildingBlock: OJICUG_clean_linker_0, # of connection points: 2
#     Edge 62, Type (0, 1), BuildingBlock: OJICUG_clean_linker_0, # of connection points: 2
#     Edge 63, Type (0, 1), BuildingBlock: OJICUG_clean_linker_0, # of connection points: 2
#     Edge 64, Type (0, 1), BuildingBlock: OJICUG_clean_linker_0, # of connection points: 2
#     Edge 65, Type (0, 1), BuildingBlock: OJICUG_clean_linker_0, # of connection points: 2
#     Edge 66, Type (0, 1), BuildingBlock: OJICUG_clean_linker_0, # of connection points: 2
#     Edge 67, Type (0, 1), BuildingBlock: OJICUG_clean_linker_0, # of connection points: 2
# Relax obj value: 0.178
# Max RMSD: 0.170
# Mean RMSD: 0.130
data_MOF--net-myd--node1-KOZSID_clean_sbu_0--node2-VOLQOD_clean_sbu_1--edge1-OJICUG_clean_linker_0
_symmetry_space_group_name_H-M    P1
_symmetry_Int_Tables_number       1
_symmetry_cell_setting            triclinic
loop_
_symmetry_equiv_pos_as_xyz
'x, y, z'
_cell_length_a     39.877258
_cell_length_b     39.928603
_cell_length_c     39.963082
_cell_angle_alpha  93.101892
_cell_angle_beta   90.638614
_cell_angle_gamma 93.746212
loop_
_atom_site_label
_atom_site_type_symbol
_atom_site_fract_x
_atom_site_fract_y
_atom_site_fract_z
_atom_type_partial_charge
C0 C 0.9699 0.29523 0.35691 0.0
C1 C 0.9371 0.30131 0.36513 0.0
C2 C 0.9169 0.27803 0.34668 0.0
C3 C 0.93845 0.25907 0.32838 0.0
N4 N 0.97121 0.26838 0.33479 0.0
Co5 Co 0.01113 0.25009 0.3119 0.0
N6 N 0.98196 0.22343 0.27745 0.0
C7 C 0.94799 0.22211 0.27533 0.0
C8 C 0.93501 0.20237 0.24851 0.0
C9 C 0.9623 0.19053 0.23247 0.0
C10 C 0.99048 0.2037 0.25055 0.0
N11 N 0.05119 0.23116 0.28985 0.0
C12 C 0.05315 0.20965 0.26262 0.0
C13 C 0.08614 0.20225 0.25635 0.0
C14 C 0.10564 0.21945 0.28061 0.0
C15 C 0.08361 0.23634 0.30022 0.0
N16 N 0.04026 0.27814 0.34536 0.0
C17 C 0.07407 0.27886 0.34848 0.0
C18 C 0.08735 0.3032 0.37123 0.0
C19 C 0.06051 0.31981 0.38255 0.0
C20 C 0.0323 0.30439 0.3661 0.0
N21 N 0.00867 0.21107 0.34151 0.0
C22 C 0.0079 0.14899 0.37245 0.0
C23 C 0.03619 0.17162 0.37504 0.0
C24 C 0.03603 0.20235 0.35949 0.0
C25 C 0.97934 0.15902 0.35649 0.0
C26 C 0.98008 0.19001 0.34189 0.0
N27 N 0.01322 0.28823 0.28205 0.0
C28 C 0.04436 0.32773 0.24828 0.0
C29 C 0.01445 0.34012 0.23704 0.0
C30 C 0.98418 0.32663 0.24918 0.0
C31 C 0.9841 0.30073 0.2711 0.0
C32 C 0.04321 0.30223 0.27119 0.0
H33 H 0.96 0.29083 0.27834 0.0
H34 H 0.06671 0.29385 0.27953 0.0
H35 H 0.05865 0.21808 0.3616 0.0
H36 H 0.95732 0.19565 0.33025 0.0
C37 C 0.92903 0.23835 0.29992 0.0
C38 C 0.9989 0.31712 0.36854 0.0
C39 C 0.02471 0.19594 0.24175 0.0
C40 C 0.09282 0.25888 0.32712 0.0
H41 H 0.92874 0.32157 0.38139 0.0
H42 H 0.88974 0.27691 0.34476 0.0
H43 H 0.90881 0.19689 0.24167 0.0
H44 H 0.96156 0.17376 0.21023 0.0
H45 H 0.09526 0.18627 0.23617 0.0
H46 H 0.13271 0.22001 0.28333 0.0
H47 H 0.11361 0.3094 0.37739 0.0
H48 H 0.06185 0.34167 0.39982 0.0
H49 H 0.05882 0.16502 0.38766 0.0
H50 H 0.95654 0.14265 0.35468 0.0
H51 H 0.0684 0.33759 0.2394 0.0
H52 H 0.96041 0.33511 0.24071 0.0
C53 C 0.97777 0.70443 0.11263 0.0
C54 C 0.94879 0.69568 0.09391 0.0
C55 C 0.92559 0.71789 0.10438 0.0
C56 C 0.94181 0.73877 0.12883 0.0
N57 N 0.97366 0.73102 0.13405 0.0
Co58 Co 0.00604 0.75256 0.16754 0.0
N59 N 0.96931 0.77074 0.19451 0.0
C60 C 0.93759 0.77392 0.18374 0.0
C61 C 0.91794 0.78804 0.20797 0.0
C62 C 0.93875 0.79454 0.23544 0.0
C63 C 0.97007 0.784 0.22638 0.0
N64 N 0.03891 0.77445 0.2005 0.0
C65 C 0.03389 0.78754 0.23175 0.0
C66 C 0.064 0.80114 0.2462 0.0
C67 C 0.0884 0.79693 0.22273 0.0
C68 C 0.07202 0.78095 0.19539 0.0
N69 N 0.04233 0.73397 0.14038 0.0
C70 C 0.07496 0.74471 0.14101 0.0
C71 C 0.09387 0.72519 0.1201 0.0
C72 C 0.07157 0.70069 0.10566 0.0
C73 C 0.04039 0.70685 0.11864 0.0
N74 N 0.00907 0.79363 0.1426 0.0
C75 C 0.02163 0.85429 0.11139 0.0
C76 C 0.02168 0.82343 0.09277 0.0
C77 C 0.01515 0.79323 0.10891 0.0
C78 C 0.0129 0.854 0.14511 0.0
C79 C 0.00712 0.82376 0.16015 0.0
N80 N 0.00323 0.71215 0.19343 0.0
C81 C 0.03003 0.67689 0.23125 0.0
C82 C 0.99874 0.6627 0.24069 0.0
C83 C 0.96989 0.67208 0.22418 0.0
C84 C 0.97266 0.69692 0.20073 0.0
C85 C 0.03175 0.70122 0.20734 0.0
H86 H 0.94993 0.70489 0.18967 0.0
H87 H 0.05614 0.71231 0.20129 0.0
H88 H 0.01618 0.76963 0.09453 0.0
H89 H 0.00239 0.82513 0.18654 0.0
C90 C 0.92628 0.7597 0.15239 0.0
C91 C 0.00899 0.68752 0.10976 0.0
C92 C 1.00077 0.79129 0.24674 0.0
C93 C 0.08747 0.76753 0.16673 0.0
H94 H 0.94478 0.67511 0.07523 0.0
H95 H 0.89944 0.71736 0.09669 0.0
H96 H 0.89155 0.7926 0.2061 0.0
H97 H 0.93194 0.80655 0.2591 0.0
H98 H 0.06782 0.81353 0.27084 0.0
H99 H 0.11498 0.804 0.22559 0.0
H100 H 0.12088 0.72716 0.11727 0.0
H101 H 0.07756 0.68049 0.08804 0.0
H102 H 0.02807 0.82258 0.06649 0.0
H103 H 0.01169 0.87719 0.16032 0.0
H104 H 0.053 0.66993 0.24296 0.0
H105 H 0.94519 0.6617 0.23067 0.0
C106 C 0.3705 0.96518 0.30115 0.0
C107 C 0.37874 0.93264 0.30631 0.0
C108 C 0.36661 0.91316 0.27913 0.0
C109 C 0.35179 0.93486 0.25895 0.0
N110 N 0.35444 0.96717 0.27126 0.0
Co111 Co 0.33409 0.00657 0.25169 0.0
N112 N 0.30921 0.97698 0.21617 0.0
C113 C 0.3106 0.94333 0.21105 0.0
C114 C 0.29057 0.92983 0.18495 0.0
C115 C 0.27544 0.95642 0.17267 0.0
C116 C 0.28715 0.98474 0.19206 0.0
N117 N 0.3139 0.04611 0.23215 0.0
C118 C 0.29196 0.04745 0.20611 0.0
C119 C 0.28468 0.08028 0.20071 0.0
C120 C 0.30269 0.10041 0.22405 0.0
C121 C 0.31985 0.07886 0.24235 0.0
N122 N 0.35839 0.036 0.28772 0.0
C123 C 0.35909 0.06989 0.29153 0.0
C124 C 0.37551 0.08285 0.32014 0.0
C125 C 0.38513 0.05557 0.33605 0.0
C126 C 0.37409 0.02743 0.31606 0.0
N127 N 0.37282 0.01238 0.22082 0.0
C128 C 0.41313 0.02314 0.16449 0.0
C129 C 0.40658 0.04974 0.18711 0.0
C130 C 0.38706 0.04373 0.21525 0.0
C131 C 0.40279 0.99065 0.17279 0.0
C132 C 0.38303 0.98587 0.20104 0.0
N133 N 0.29534 1.00073 0.28174 0.0
C134 C 0.25371 0.02394 0.31814 0.0
C135 C 0.24028 0.99172 0.32412 0.0
C136 C 0.25472 0.96415 0.30874 0.0
C137 C 0.28178 0.96918 0.28746 0.0
C138 C 0.28145 0.02786 0.29728 0.0
H139 H 0.29121 0.94719 0.27575 0.0
H140 H 0.29125 0.05297 0.29399 0.0
H141 H 0.38264 0.06509 0.23119 0.0
H142 H 0.3751 0.9606 0.20525 0.0
C143 C 0.3308 0.92509 0.23132 0.0
C144 C 0.37678 0.99305 0.32608 0.0
C145 C 0.27693 0.01845 0.18621 0.0
C146 C 0.34075 0.08845 0.26998 0.0
H147 H 0.39108 0.92376 0.32809 0.0
H148 H 0.36679 0.88611 0.27549 0.0
H149 H 0.28734 0.90375 0.17594 0.0
H150 H 0.25788 0.95519 0.15172 0.0
H151 H 0.2679 0.08881 0.18197 0.0
H152 H 0.30296 0.1275 0.22752 0.0
H153 H 0.3785 0.10891 0.32927 0.0
H154 H 0.39764 0.05631 0.36027 0.0
H155 H 0.41525 0.0753 0.18234 0.0
H156 H 0.40789 0.96914 0.15638 0.0
H157 H 0.24306 0.04591 0.32973 0.0
H158 H 0.24465 0.93878 0.31252 0.0
C159 C 0.62842 0.47296 0.21836 0.0
C160 C 0.61163 0.44328 0.20605 0.0
C161 C 0.62489 0.41803 0.22257 0.0
C162 C 0.64892 0.4338 0.24384 0.0
N163 N 0.65124 0.46763 0.24243 0.0
Co164 Co 0.68382 0.50068 0.2671 0.0
N165 N 0.70768 0.46354 0.28676 0.0
C166 C 0.69983 0.43009 0.28223 0.0
C167 C 0.7208 0.41083 0.2992 0.0
C168 C 0.74338 0.43329 0.31559 0.0
C169 C 0.73482 0.46507 0.30758 0.0
N170 N 0.7162 0.53395 0.29189 0.0
C171 C 0.74233 0.52874 0.31239 0.0
C172 C 0.75865 0.55889 0.32449 0.0
C173 C 0.74195 0.58401 0.31147 0.0
C174 C 0.71663 0.56792 0.29213 0.0
N175 N 0.66005 0.53775 0.24712 0.0
C176 C 0.6664 0.57126 0.25288 0.0
C177 C 0.64705 0.59021 0.2337 0.0
C178 C 0.62774 0.56742 0.2139 0.0
C179 C 0.6365 0.53591 0.22236 0.0
N180 N 0.65372 0.50178 0.30662 0.0
C181 C 0.62502 0.50286 0.37065 0.0
C182 C 0.63498 0.53266 0.35587 0.0
C183 C 0.64854 0.53158 0.32383 0.0
C184 C 0.6265 0.47267 0.35171 0.0
C185 C 0.6408 0.47272 0.31987 0.0
N186 N 0.71449 0.49945 0.22825 0.0
C187 C 0.75626 0.52747 0.19414 0.0
C188 C 0.76432 0.49683 0.17878 0.0
C189 C 0.74569 0.46771 0.18726 0.0
C190 C 0.72115 0.46956 0.21196 0.0
C191 C 0.73113 0.52826 0.21827 0.0
H192 H 0.70846 0.44639 0.21813 0.0
H193 H 0.72606 0.55239 0.22906 0.0
H194 H 0.65586 0.55516 0.3142 0.0
H195 H 0.64229 0.44881 0.30718 0.0
C196 C 0.67232 0.41753 0.2623 0.0
C197 C 0.62455 0.50509 0.20395 0.0
C198 C 0.75277 0.4959 0.32091 0.0
C199 C 0.69308 0.58403 0.27371 0.0
H200 H 0.59285 0.44023 0.18616 0.0
H201 H 0.61902 0.39128 0.21826 0.0
H202 H 0.71965 0.38371 0.29978 0.0
H203 H 0.76367 0.42704 0.33185 0.0
H204 H 0.78043 0.56245 0.34099 0.0
H205 H 0.74765 0.61081 0.31553 0.0
H206 H 0.6481 0.61732 0.23297 0.0
H207 H 0.61025 0.57325 0.19449 0.0
H208 H 0.63331 0.55673 0.36944 0.0
H209 H 0.61847 0.44901 0.36212 0.0
H210 H 0.76958 0.55076 0.18785 0.0
H211 H 0.751 0.44339 0.17596 0.0
C212 C 0.32862 0.39403 0.97582 0.0
C213 C 0.3387 0.40619 0.94546 0.0
C214 C 0.31858 0.38925 0.92134 0.0
C215 C 0.29742 0.36782 0.93834 0.0
N216 N 0.30244 0.37073 0.97191 0.0
Co217 Co 0.27941 0.34315 0.00628 0.0
N218 N 0.25752 0.31117 0.9709 0.0
C219 C 0.26094 0.31258 0.93734 0.0
C220 C 0.24395 0.28641 0.9194 0.0
C221 C 0.22903 0.267 0.94291 0.0
C222 C 0.23771 0.28259 0.97396 0.0
N223 N 0.25537 0.31655 0.04085 0.0
C224 C 0.23449 0.2884 0.03727 0.0
C225 C 0.22249 0.27856 0.06799 0.0
C226 C 0.2361 0.30143 0.09174 0.0
C227 C 0.25557 0.32382 0.07431 0.0
N228 N 0.30298 0.37393 0.04163 0.0
C229 C 0.29932 0.37331 0.07516 0.0
C230 C 0.32141 0.39532 0.09312 0.0
C231 C 0.34113 0.41015 0.06964 0.0
C232 C 0.32965 0.39634 0.0387 0.0
N233 N 0.24036 0.37209 0.00498 0.0
C234 C 0.17866 0.4029 0.00461 0.0
C235 C 0.19861 0.40419 0.03363 0.0
C236 C 0.22919 0.38872 0.03328 0.0
C237 C 0.19115 0.38828 0.97533 0.0
C238 C 0.22196 0.37371 0.97594 0.0
N239 N 0.31766 0.31401 0.00718 0.0
C240 C 0.35125 0.27575 0.03565 0.0
C241 C 0.36725 0.26706 0.00573 0.0
C242 C 0.35918 0.28343 0.97708 0.0
C243 C 0.33439 0.30641 0.97827 0.0
C244 C 0.32699 0.29963 0.03594 0.0
H245 H 0.32848 0.31694 0.95516 0.0
H246 H 0.31547 0.30558 0.05941 0.0
H247 H 0.24271 0.38979 0.05645 0.0
H248 H 0.22965 0.36313 0.95262 0.0
C249 C 0.27878 0.33982 0.92353 0.0
C250 C 0.34643 0.40294 0.00739 0.0
C251 C 0.22577 0.26985 0.00556 0.0
C252 C 0.27667 0.34996 0.08892 0.0
H253 H 0.35956 0.42412 0.94118 0.0
H254 H 0.32099 0.39042 0.89447 0.0
H255 H 0.24229 0.28214 0.89243 0.0
H256 H 0.21323 0.24417 0.93781 0.0
H257 H 0.20594 0.25685 0.07284 0.0
H258 H 0.23284 0.30128 0.11858 0.0
H259 H 0.32394 0.39898 0.12009 0.0
H260 H 0.36231 0.4281 0.07477 0.0
H261 H 0.18993 0.41562 0.05689 0.0
H262 H 0.17679 0.38743 0.95207 0.0
H263 H 0.35704 0.26382 0.05853 0.0
H264 H 0.37068 0.27725 0.95329 0.0
C265 C 0.20259 0.61018 0.47113 0.0
C266 C 0.19584 0.59358 0.44018 0.0
C267 C 0.21884 0.60673 0.41858 0.0
C268 C 0.23819 0.63044 0.4376 0.0
N269 N 0.2294 0.63262 0.47017 0.0
Co270 Co 0.24906 0.66464 0.50653 0.0
N271 N 0.27703 0.68968 0.47353 0.0
C272 C 0.27878 0.68252 0.44013 0.0
C273 C 0.29961 0.7048 0.42394 0.0
C274 C 0.31175 0.72769 0.44842 0.0
C275 C 0.29756 0.71793 0.47823 0.0
N276 N 0.26912 0.69622 0.54312 0.0
C277 C 0.29111 0.72332 0.54128 0.0
C278 C 0.29896 0.73836 0.57279 0.0
C279 C 0.2813 0.72004 0.59535 0.0
C280 C 0.26373 0.69498 0.57644 0.0
N281 N 0.22009 0.64011 0.53921 0.0
C282 C 0.21947 0.64579 0.57286 0.0
C283 C 0.19456 0.62695 0.58798 0.0
C284 C 0.17767 0.60886 0.56233 0.0
C285 C 0.19347 0.6177 0.53307 0.0
N286 N 0.28648 0.63454 0.51357 0.0
C287 C 0.348 0.60586 0.52605 0.0
C288 C 0.3261 0.61298 0.55205 0.0
C289 C 0.29549 0.62652 0.54524 0.0
C290 C 0.33724 0.61027 0.49333 0.0
C291 C 0.30656 0.62447 0.4877 0.0
N292 N 0.21255 0.6952 0.49975 0.0
C293 C 0.17593 0.73635 0.52264 0.0
C294 C 0.16568 0.7439 0.49056 0.0
C295 C 0.17809 0.72555 0.46313 0.0
C296 C 0.20155 0.70157 0.46824 0.0
C297 C 0.19882 0.71179 0.52666 0.0
H298 H 0.21107 0.68897 0.4464 0.0
H299 H 0.20558 0.70708 0.55178 0.0
H300 H 0.28022 0.63129 0.56628 0.0
H301 H 0.30034 0.62809 0.46228 0.0
C302 C 0.26067 0.6546 0.42473 0.0
C303 C 0.1809 0.60643 0.4998 0.0
C304 C 0.30461 0.73606 0.51036 0.0
C305 C 0.24026 0.67143 0.58896 0.0
H306 H 0.17537 0.57514 0.43367 0.0
H307 H 0.21988 0.60124 0.3918 0.0
H308 H 0.30526 0.70447 0.3975 0.0
H309 H 0.32914 0.74911 0.44479 0.0
H310 H 0.31546 0.76053 0.57883 0.0
H311 H 0.28079 0.72483 0.62225 0.0
H312 H 0.18833 0.62761 0.61428 0.0
H313 H 0.1555 0.59207 0.56472 0.0
H314 H 0.33296 0.60891 0.57776 0.0
H315 H 0.35319 0.6045 0.47231 0.0
H316 H 0.1665 0.74956 0.54461 0.0
H317 H 0.17076 0.73058 0.4378 0.0
C318 C 0.7953 0.85438 0.45522 0.0
C319 C 0.80163 0.86156 0.42227 0.0
C320 C 0.77917 0.84145 0.40289 0.0
C321 C 0.76044 0.82327 0.42509 0.0
N322 N 0.7692 0.83117 0.4575 0.0
Co323 Co 0.75072 0.80944 0.49806 0.0
N324 N 0.72396 0.774 0.46976 0.0
C325 C 0.7232 0.7704 0.43588 0.0
C326 C 0.70293 0.74335 0.42359 0.0
C327 C 0.69002 0.7288 0.45125 0.0
C328 C 0.70316 0.74792 0.47893 0.0
N329 N 0.73145 0.78865 0.53879 0.0
C330 C 0.70899 0.76201 0.54141 0.0
C331 C 0.70161 0.75655 0.57467 0.0
C332 C 0.71971 0.78083 0.59369 0.0
C333 C 0.73707 0.79961 0.57113 0.0
N334 N 0.77862 0.84401 0.52632 0.0
C335 C 0.7796 0.8479 0.56012 0.0
C336 C 0.80323 0.87203 0.57242 0.0
C337 C 0.81904 0.88361 0.54483 0.0
C338 C 0.80391 0.86583 0.51727 0.0
N339 N 0.71212 0.83891 0.4977 0.0
C340 C 0.65117 0.87113 0.49934 0.0
C341 C 0.67301 0.87372 0.52708 0.0
C342 C 0.70319 0.85748 0.52575 0.0
C343 C 0.66137 0.85428 0.47019 0.0
C344 C 0.69179 0.83897 0.46979 0.0
N345 N 0.78872 0.77958 0.49801 0.0
C346 C 0.82687 0.74558 0.52673 0.0
C347 C 0.83944 0.73351 0.49614 0.0
C348 C 0.82689 0.74556 0.46677 0.0
C349 C 0.80161 0.76802 0.46822 0.0
C350 C 0.80202 0.76899 0.52712 0.0
H351 H 0.79246 0.77506 0.4447 0.0
H352 H 0.79356 0.77786 0.55112 0.0
H353 H 0.71832 0.8595 0.548 0.0
H354 H 0.69762 0.82649 0.44673 0.0
C355 C 0.73986 0.79425 0.41636 0.0
C356 C 0.81637 0.86802 0.48335 0.0
C357 C 0.69424 0.74102 0.51334 0.0
C358 C 0.75983 0.82678 0.57962 0.0
H359 H 0.8215 0.87838 0.41324 0.0
H360 H 0.7783 0.83863 0.3758 0.0
H361 H 0.69759 0.73556 0.39761 0.0
H362 H 0.67247 0.70693 0.45109 0.0
H363 H 0.68494 0.73697 0.58428 0.0
H364 H 0.72033 0.78424 0.62075 0.0
H365 H 0.80929 0.87923 0.5984 0.0
H366 H 0.84017 0.90204 0.54509 0.0
H367 H 0.66614 0.88684 0.55018 0.0
H368 H 0.64553 0.85229 0.44787 0.0
H369 H 0.83606 0.73692 0.55014 0.0
H370 H 0.83556 0.73658 0.4425 0.0
C371 C 0.48435 0.82343 0.87781 0.0
C372 C 0.45338 0.83222 0.88961 0.0
C373 C 0.43044 0.80702 0.87852 0.0
C374 C 0.44866 0.78433 0.86072 0.0
N375 N 0.48199 0.79321 0.86041 0.0
Co376 Co 0.51753 0.7691 0.83553 0.0
N377 N 0.48316 0.73643 0.81259 0.0
C378 C 0.44944 0.73552 0.81654 0.0
C379 C 0.43229 0.71051 0.79716 0.0
C380 C 0.45644 0.69453 0.77975 0.0
C381 C 0.48708 0.71075 0.78956 0.0
N382 N 0.55327 0.74475 0.81125 0.0
C383 C 0.55066 0.7177 0.78914 0.0
C384 C 0.58204 0.70849 0.77866 0.0
C385 C 0.60527 0.73026 0.79493 0.0
C386 C 0.5869 0.75148 0.81427 0.0
N387 N 0.55176 0.80245 0.85767 0.0
C388 C 0.58552 0.80282 0.85484 0.0
C389 C 0.60235 0.83029 0.87079 0.0
C390 C 0.57782 0.84912 0.88389 0.0
C391 C 0.54737 0.83185 0.87521 0.0
N392 N 0.52118 0.73822 0.87289 0.0
C393 C 0.52656 0.68248 0.91235 0.0
C394 C 0.55505 0.7028 0.90499 0.0
C395 C 0.55177 0.7306 0.88546 0.0
C396 C 0.49525 0.69248 0.90281 0.0
C397 C 0.49314 0.72056 0.88385 0.0
N398 N 0.51357 0.79917 0.79801 0.0
C399 C 0.53787 0.82997 0.75266 0.0
C400 C 0.50618 0.83956 0.74323 0.0
C401 C 0.4785 0.82905 0.76182 0.0
C402 C 0.48265 0.80879 0.78859 0.0
C403 C 0.54107 0.81026 0.78039 0.0
H404 H 0.4603 0.80086 0.801 0.0
H405 H 0.56586 0.80402 0.78704 0.0
H406 H 0.57444 0.74455 0.87969 0.0
H407 H 0.4685 0.72636 0.87714 0.0
C408 C 0.43477 0.75788 0.83938 0.0
C409 C 0.51494 0.84545 0.88191 0.0
C410 C 0.51922 0.7003 0.77686 0.0
C411 C 0.60043 0.77872 0.83447 0.0
H412 H 0.44784 0.85513 0.9036 0.0
H413 H 0.40344 0.8064 0.8813 0.0
H414 H 0.40543 0.70442 0.79605 0.0
H415 H 0.45207 0.67313 0.76208 0.0
H416 H 0.58765 0.68826 0.76092 0.0
H417 H 0.63232 0.73078 0.79268 0.0
H418 H 0.62916 0.83667 0.87143 0.0
H419 H 0.58188 0.87339 0.89722 0.0
H420 H 0.57984 0.69613 0.91243 0.0
H421 H 0.47247 0.67781 0.90876 0.0
H422 H 0.55999 0.83776 0.73884 0.0
H423 H 0.45344 0.83559 0.75506 0.0
C424 C 0.54262 0.31232 0.64829 0.0
C425 C 0.57344 0.32342 0.63581 0.0
C426 C 0.59604 0.30128 0.64528 0.0
C427 C 0.57776 0.27795 0.66283 0.0
N428 N 0.54476 0.28357 0.66446 0.0
Co429 Co 0.50931 0.25728 0.68884 0.0
N430 N 0.54365 0.23144 0.71168 0.0
C431 C 0.57731 0.23429 0.7074 0.0
C432 C 0.59464 0.21434 0.7274 0.0
C433 C 0.57067 0.19806 0.74584 0.0
C434 C 0.53994 0.20901 0.73596 0.0
N435 N 0.47366 0.23009 0.71235 0.0
C436 C 0.47637 0.20658 0.73539 0.0
C437 C 0.44499 0.19343 0.74479 0.0
C438 C 0.42173 0.20902 0.72697 0.0
C439 C 0.44005 0.23081 0.70782 0.0
N440 N 0.47517 0.28464 0.66768 0.0
C441 C 0.44139 0.28089 0.67053 0.0
C442 C 0.42475 0.30568 0.65635 0.0
C443 C 0.44945 0.32715 0.64466 0.0
C444 C 0.4798 0.31395 0.65221 0.0
N445 N 0.50562 0.22299 0.65068 0.0
C446 C 0.49572 0.16429 0.60913 0.0
C447 C 0.46991 0.18581 0.614 0.0
C448 C 0.4755 0.21509 0.63432 0.0
C449 C 0.52765 0.17462 0.62164 0.0
C450 C 0.53208 0.20412 0.64201 0.0
N451 N 0.51285 0.29106 0.72645 0.0
C452 C 0.48656 0.32562 0.76842 0.0
C453 C 0.51772 0.34133 0.77799 0.0
C454 C 0.5464 0.33149 0.76148 0.0
C455 C 0.54345 0.30624 0.73607 0.0
C456 C 0.48468 0.30068 0.74264 0.0
H457 H 0.56618 0.29927 0.72454 0.0
H458 H 0.46027 0.28948 0.73609 0.0
H459 H 0.45452 0.22988 0.6374 0.0
H460 H 0.5568 0.21003 0.65154 0.0
C461 C 0.59169 0.25542 0.68383 0.0
C462 C 0.51249 0.331 0.64632 0.0
C463 C 0.50793 0.19679 0.74985 0.0
C464 C 0.42645 0.25505 0.68867 0.0
H465 H 0.57919 0.34602 0.62261 0.0
H466 H 0.62298 0.3034 0.64193 0.0
H467 H 0.6215 0.21189 0.72843 0.0
H468 H 0.57524 0.17999 0.76434 0.0
H469 H 0.43938 0.17497 0.76311 0.0
H470 H 0.39466 0.20575 0.72871 0.0
H471 H 0.39795 0.30861 0.6559 0.0
H472 H 0.44559 0.35041 0.63293 0.0
H473 H 0.44495 0.1791 0.60372 0.0
H474 H 0.54855 0.15886 0.61785 0.0
H475 H 0.46377 0.33254 0.78078 0.0
H476 H 0.57113 0.34254 0.76875 0.0
C477 C 0.88396 0.4683 0.80804 0.0
C478 C 0.89219 0.43645 0.81586 0.0
C479 C 0.8734 0.41426 0.79476 0.0
C480 C 0.85486 0.4338 0.77528 0.0
N481 N 0.86146 0.46704 0.7823 0.0
Co482 Co 0.83912 0.50451 0.76199 0.0
N483 N 0.80238 0.47301 0.74152 0.0
C484 C 0.79959 0.43921 0.74334 0.0
C485 C 0.77102 0.42432 0.72809 0.0
C486 C 0.75442 0.45021 0.71616 0.0
C487 C 0.77397 0.47954 0.72471 0.0
N488 N 0.81785 0.542 0.74037 0.0
C489 C 0.78906 0.54192 0.72195 0.0
C490 C 0.78427 0.57358 0.71067 0.0
C491 C 0.81112 0.59418 0.72209 0.0
C492 C 0.83071 0.57412 0.73971 0.0
N493 N 0.87421 0.53615 0.78502 0.0
C494 C 0.87873 0.56961 0.78171 0.0
C495 C 0.90182 0.58535 0.804 0.0
C496 C 0.91178 0.56057 0.82346 0.0
C497 C 0.89434 0.53103 0.81161 0.0
N498 N 0.86729 0.49877 0.72105 0.0
C499 C 0.89728 0.49604 0.65731 0.0
C500 C 0.9063 0.52222 0.68091 0.0
C501 C 0.89127 0.52301 0.71247 0.0
C502 C 0.87543 0.46988 0.66712 0.0
C503 C 0.86127 0.4715 0.69885 0.0
N504 N 0.81111 0.51006 0.80189 0.0
C505 C 0.78035 0.54494 0.8402 0.0
C506 C 0.76808 0.51663 0.85647 0.0
C507 C 0.77851 0.48523 0.84564 0.0
C508 C 0.79964 0.48247 0.81833 0.0
C509 C 0.80216 0.54116 0.81329 0.0
H510 H 0.80583 0.45767 0.81039 0.0
H511 H 0.81113 0.56348 0.80155 0.0
H512 H 0.89903 0.54397 0.72894 0.0
H513 H 0.84489 0.45051 0.70407 0.0
C514 C 0.82538 0.42226 0.75776 0.0
C515 C 0.89576 0.49897 0.82732 0.0
C516 C 0.76537 0.51275 0.71496 0.0
C517 C 0.85865 0.58561 0.75951 0.0
H518 H 0.90864 0.43001 0.83592 0.0
H519 H 0.8712 0.38717 0.79571 0.0
H520 H 0.76338 0.39778 0.72554 0.0
H521 H 0.73086 0.44775 0.70225 0.0
H522 H 0.76331 0.58119 0.69611 0.0
H523 H 0.81525 0.62089 0.71893 0.0
H524 H 0.90919 0.61193 0.80691 0.0
H525 H 0.92901 0.56411 0.84463 0.0
H526 H 0.92365 0.54285 0.67455 0.0
H527 H 0.86858 0.44848 0.65001 0.0
H528 H 0.77281 0.56973 0.84793 0.0
H529 H 0.76914 0.46259 0.85718 0.0
C530 C 0.15557 0.042 0.80361 0.0
C531 C 0.14912 0.07455 0.81425 0.0
C532 C 0.1627 0.09509 0.79097 0.0
C533 C 0.17651 0.07398 0.76747 0.0
N534 N 0.1718 0.04111 0.77396 0.0
Co535 Co 0.18979 0.00191 0.74808 0.0
N536 N 0.21746 0.03227 0.71908 0.0
C537 C 0.21875 0.0663 0.72035 0.0
C538 C 0.24035 0.08027 0.69774 0.0
C539 C 0.25381 0.05365 0.68113 0.0
C540 C 0.23961 0.0248 0.69461 0.0
N541 N 0.20736 0.96262 0.72184 0.0
C542 C 0.22972 0.96166 0.69645 0.0
C543 C 0.23455 0.92885 0.68515 0.0
C544 C 0.21444 0.90841 0.70383 0.0
C545 C 0.19857 0.92973 0.72548 0.0
N546 N 0.16308 0.97166 0.77789 0.0
C547 C 0.16016 0.93769 0.77559 0.0
C548 C 0.14298 0.92382 0.80153 0.0
C549 C 0.13528 0.9505 0.82218 0.0
C550 C 0.14811 0.97922 0.80745 0.0
N551 N 0.15153 1.00125 0.71556 0.0
C552 C 0.10979 0.99736 0.65835 0.0
C553 C 0.1125 0.96938 0.67737 0.0
C554 C 0.13325 0.97194 0.70594 0.0
C555 C 0.12494 0.02805 0.67046 0.0
C556 C 0.14504 0.02951 0.69925 0.0
N557 N 0.22778 0.00268 0.78008 0.0
C558 C 0.26547 0.97426 0.81489 0.0
C559 C 0.27963 0.00514 0.82801 0.0
C560 C 0.26794 0.03458 0.81652 0.0
C561 C 0.2425 0.0328 0.79242 0.0
C562 C 0.23932 0.9736 0.79122 0.0
H563 H 0.23514 0.05615 0.78414 0.0
H564 H 0.22872 0.94945 0.78228 0.0
H565 H 0.13519 0.94953 0.71878 0.0
H566 H 0.15617 0.05357 0.70668 0.0
C567 C 0.19905 0.08438 0.74284 0.0
C568 C 0.14786 0.01294 0.82349 0.0
C569 C 0.2476 0.99094 0.68286 0.0
C570 C 0.17698 0.91959 0.75085 0.0
H571 H 0.13716 0.08265 0.83721 0.0
H572 H 0.16431 0.1223 0.79225 0.0
H573 H 0.24563 0.10668 0.69374 0.0
H574 H 0.27188 0.05524 0.66118 0.0
H575 H 0.25118 0.92045 0.66568 0.0
H576 H 0.21215 0.8812 0.70226 0.0
H577 H 0.13825 0.89742 0.80587 0.0
H578 H 0.12288 0.94884 0.84602 0.0
H579 H 0.10061 0.94514 0.66902 0.0
H580 H 0.12261 0.05055 0.65684 0.0
H581 H 0.27432 0.95091 0.82304 0.0
H582 H 0.27898 0.05899 0.82553 0.0
C583 C 0.72375 0.13595 0.96345 0.0
C584 C 0.71322 0.12225 0.93217 0.0
C585 C 0.73354 0.13734 0.90934 0.0
C586 C 0.75519 0.15922 0.92802 0.0
N587 N 0.75038 0.15843 0.96141 0.0
Co588 Co 0.77467 0.18689 0.99794 0.0
N589 N 0.79971 0.2141 0.96445 0.0
C590 C 0.79758 0.20988 0.93064 0.0
C591 C 0.81778 0.2326 0.91431 0.0
C592 C 0.83373 0.25258 0.93916 0.0
C593 C 0.82223 0.24082 0.96931 0.0
N594 N 0.79932 0.21493 0.03465 0.0
C595 C 0.82235 0.24116 0.03279 0.0
C596 C 0.83353 0.25356 0.06441 0.0
C597 C 0.81717 0.23427 0.08702 0.0
C598 C 0.79695 0.21137 0.06807 0.0
N599 N 0.74892 0.16003 0.03133 0.0
C600 C 0.752 0.1629 0.06511 0.0
C601 C 0.72888 0.14279 0.08121 0.0
C602 C 0.7093 0.12675 0.05624 0.0
C603 C 0.72182 0.13801 0.02633 0.0
N604 N 0.81156 0.15533 0.99775 0.0
C605 C 0.87382 0.12591 0.99972 0.0
C606 C 0.85572 0.13153 0.0289 0.0
C607 C 0.82457 0.14545 0.02727 0.0
C608 C 0.85874 0.13185 0.96916 0.0
C609 C 0.82769 0.14636 0.96875 0.0
N610 N 0.73863 0.21901 0.9982 0.0
C611 C 0.70575 0.25915 0.02854 0.0
C612 C 0.69287 0.27004 0.99866 0.0
C613 C 0.70204 0.25382 0.96857 0.0
C614 C 0.72493 0.22865 0.96889 0.0
C615 C 0.72804 0.23351 0.02777 0.0
H616 H 0.73184 0.21781 0.94513 0.0
H617 H 0.7369 0.22622 0.0514 0.0
H618 H 0.8123 0.14926 0.05045 0.0
H619 H 0.81806 0.15135 0.94475 0.0
C620 C 0.77688 0.18396 0.91495 0.0
C621 C 0.7056 0.12952 0.99399 0.0
C622 C 0.83385 0.25554 0.00184 0.0
C623 C 0.77455 0.18709 0.08095 0.0
H624 H 0.69204 0.1044 0.92649 0.0
H625 H 0.73149 0.13419 0.88231 0.0
H626 H 0.82072 0.23429 0.88755 0.0
H627 H 0.85196 0.27332 0.93553 0.0
H628 H 0.85148 0.27455 0.07058 0.0
H629 H 0.81945 0.23687 0.11406 0.0
H630 H 0.7256 0.14125 0.10795 0.0
H631 H 0.68753 0.10972 0.05968 0.0
H632 H 0.86611 0.12626 0.05309 0.0
H633 H 0.8717 0.12722 0.94584 0.0
H634 H 0.69885 0.27058 0.05247 0.0
H635 H 0.69263 0.2614 0.94479 0.0
O636 O 0.13935 0.04866 0.10962 0.0
Zn637 Zn 0.09278 0.05499 0.09277 0.0
O638 O 0.09435 0.07134 0.04795 0.0
Zn639 Zn 0.07832 0.11638 0.04989 0.0
Zn640 Zn 0.14064 0.07228 0.03166 0.0
Zn641 Zn 0.06467 0.04175 0.01807 0.0
O642 O 0.03335 0.11638 0.0268 0.0
O643 O 0.02026 0.06303 0.01029 0.0
O644 O 0.07075 0.08657 0.12637 0.0
O645 O 0.06838 0.1321 0.09727 0.0
O646 O 0.11242 0.15012 0.03151 0.0
O647 O 0.15732 0.12038 0.02496 0.0
O648 O 0.14148 0.04908 0.98479 0.0
O649 O 0.07022 0.00865 0.09122 0.0
O650 O 0.08754 0.03443 0.97352 0.0
O651 O 0.05488 0.99622 0.03813 0.0
C652 C 0.16818 0.047 0.09649 0.0
C653 C 0.01243 0.09347 0.0143 0.0
C654 C 0.14332 0.14815 0.02421 0.0
C655 C 0.06427 0.11729 0.12449 0.0
C656 C 0.11812 0.03738 0.96437 0.0
C657 C 0.05804 0.98778 0.06829 0.0
O658 O 0.17277 0.05345 0.06578 0.0
O659 O 0.90938 0.48458 0.11028 0.0
Zn660 Zn 0.95732 0.47964 0.09602 0.0
O661 O 0.95871 0.45995 0.05034 0.0
Zn662 Zn 0.978 0.41636 0.05074 0.0
Zn663 Zn 0.91312 0.45515 0.03166 0.0
Zn664 Zn 0.98677 0.48853 0.02229 0.0
O665 O 0.02178 0.41614 0.02651 0.0
O666 O 0.03275 0.4698 0.01597 0.0
O667 O 0.97887 0.45081 0.12968 0.0
O668 O 0.98988 0.40568 0.09779 0.0
O669 O 0.94552 0.37916 0.03201 0.0
O670 O 0.89999 0.4065 0.02229 0.0
O671 O 0.91081 0.47544 0.98645 0.0
O672 O 0.97918 0.52653 0.09775 0.0
O673 O 0.96393 0.492 0.97659 0.0
O674 O 0.99399 0.53484 0.04516 0.0
C675 C 0.88091 0.48166 0.09524 0.0
C676 C 0.04173 0.43978 0.01688 0.0
C677 C 0.91491 0.37932 0.02263 0.0
C678 C 0.98986 0.42154 0.12629 0.0
C679 C 0.93328 0.48699 0.96687 0.0
C680 C 0.991 0.54563 0.07555 0.0
O681 O 0.87833 0.47211 0.06428 0.0
O682 O 0.10065 0.88526 0.46856 0.0
Zn683 Zn 0.0875 0.93196 0.45944 0.0
O684 O 0.04288 0.93095 0.43951 0.0
Zn685 Zn 0.04496 0.94711 0.39438 0.0
Zn686 Zn 0.02327 0.88505 0.43906 0.0
Zn687 Zn 0.01481 0.96007 0.4658 0.0
O688 O 0.02355 0.99134 0.39132 0.0
O689 O 0.01248 0.0052 0.44447 0.0
O690 O 0.12251 0.95158 0.4289 0.0
O691 O 0.09314 0.95797 0.38233 0.0
O692 O 0.02518 0.91169 0.36033 0.0
O693 O 0.01513 0.8682 0.39198 0.0
O694 O 0.97715 0.88341 0.45917 0.0
O695 O 0.08824 0.95794 0.50372 0.0
O696 O 0.96793 0.93739 0.46902 0.0
O697 O 0.03481 0.96883 0.51233 0.0
C698 C 0.08504 0.85635 0.46767 0.0
C699 C 0.01492 0.01272 0.41392 0.0
C700 C 0.01567 0.88091 0.36352 0.0
C701 C 0.12091 0.95972 0.39857 0.0
C702 C 0.95749 0.9064 0.46716 0.0
C703 C 0.06523 0.96882 0.52245 0.0
O704 O 0.05428 0.85229 0.45842 0.0
O705 O 0.98425 0.59965 0.38593 0.0
Zn706 Zn 0.9775 0.58768 0.4341 0.0
O707 O 0.95682 0.54205 0.43615 0.0
Zn708 Zn 0.91307 0.54386 0.45734 0.0
Zn709 Zn 0.95183 0.52158 0.39063 0.0
Zn710 Zn 0.9845 0.51437 0.46274 0.0
O711 O 0.91201 0.52148 0.50105 0.0
O712 O 0.96454 0.50791 0.5088 0.0
O713 O 0.94831 0.62274 0.4558 0.0
O714 O 0.90276 0.59164 0.46922 0.0
O715 O 0.87596 0.52344 0.42677 0.0
O716 O 0.90316 0.51159 0.37989 0.0
O717 O 0.97164 0.47617 0.38675 0.0
O718 O 0.02352 0.59017 0.45591 0.0
O719 O 0.98848 0.46824 0.43877 0.0
O720 O 0.0305 0.53796 0.47034 0.0
C721 C 0.98047 0.58365 0.35752 0.0
C722 C 0.93471 0.51049 0.51935 0.0
C723 C 0.87603 0.51251 0.39624 0.0
C724 C 0.91888 0.62013 0.46802 0.0
C725 C 0.98326 0.4574 0.40836 0.0
C726 C 0.04171 0.56837 0.46778 0.0
O727 O 0.96933 0.55291 0.35524 0.0
O728 O 0.38776 0.9652 0.60847 0.0
Zn729 Zn 0.43453 0.9601 0.59237 0.0
O730 O 0.43463 0.93928 0.54752 0.0
Zn731 Zn 0.45249 0.89523 0.54996 0.0
Zn732 Zn 0.3884 0.93629 0.52974 0.0
Zn733 Zn 0.4641 0.96589 0.51886 0.0
O734 O 0.49524 0.89174 0.52418 0.0
O735 O 0.50889 0.94466 0.51254 0.0
O736 O 0.45824 0.93414 0.62633 0.0
O737 O 0.46628 0.88651 0.59728 0.0
O738 O 0.41773 0.85903 0.53434 0.0
O739 O 0.37324 0.88739 0.52267 0.0
O740 O 0.38712 0.95579 0.48341 0.0
O741 O 0.45487 0.00669 0.59165 0.0
O742 O 0.44094 0.96995 0.47374 0.0
O743 O 0.47342 0.01276 0.53989 0.0
C744 C 0.35891 0.96478 0.59449 0.0
C745 C 0.51627 0.91414 0.5139 0.0
C746 C 0.38715 0.85975 0.52497 0.0
C747 C 0.46838 0.90453 0.62459 0.0
C748 C 0.41024 0.96636 0.4639 0.0
C749 C 0.46833 0.02468 0.56948 0.0
O750 O 0.35494 0.95646 0.56326 0.0
O751 O 0.616 0.53454 0.65422 0.0
Zn752 Zn 0.5679 0.5396 0.63856 0.0
O753 O 0.56687 0.55385 0.59239 0.0
Zn754 Zn 0.55031 0.59853 0.59108 0.0
Zn755 Zn 0.61228 0.5546 0.57507 0.0
Zn756 Zn 0.53754 0.52289 0.56362 0.0
O757 O 0.50422 0.5965 0.56967 0.0
O758 O 0.49268 0.5427 0.55409 0.0
O759 O 0.54805 0.5746 0.67092 0.0
O760 O 0.54339 0.61714 0.63784 0.0
O761 O 0.5826 0.63081 0.56759 0.0
O762 O 0.62755 0.60103 0.56287 0.0
O763 O 0.61338 0.52838 0.53102 0.0
O764 O 0.54489 0.49262 0.63995 0.0
O765 O 0.55988 0.51315 0.5189 0.0
O766 O 0.52924 0.47941 0.58692 0.0
C767 C 0.64406 0.53381 0.63926 0.0
C768 C 0.48399 0.5729 0.55732 0.0
C769 C 0.61313 0.62811 0.55919 0.0
C770 C 0.5414 0.605 0.66663 0.0
C771 C 0.59068 0.51579 0.51053 0.0
C772 C 0.53258 0.4714 0.61724 0.0
O773 O 0.64618 0.53945 0.60823 0.0
O774 O 0.63117 0.41603 0.9984 0.0
Zn775 Zn 0.61892 0.46422 0.99613 0.0
O776 O 0.57442 0.46674 0.9764 0.0
Zn777 Zn 0.57799 0.48684 0.93329 0.0
Zn778 Zn 0.55343 0.42134 0.97141 0.0
Zn779 Zn 0.54658 0.49453 0.00476 0.0
O780 O 0.55549 0.53012 0.93306 0.0
O781 O 0.54277 0.54095 0.98638 0.0
O782 O 0.65492 0.48755 0.96881 0.0
O783 O 0.62613 0.49885 0.92332 0.0
O784 O 0.55879 0.45556 0.89592 0.0
O785 O 0.54251 0.4106 0.92341 0.0
O786 O 0.50826 0.41808 0.99323 0.0
O787 O 0.61905 0.48355 0.04339 0.0
O788 O 0.49962 0.47143 0.00733 0.0
O789 O 0.56731 0.50008 0.05114 0.0
C790 C 0.61499 0.38754 0.99381 0.0
C791 C 0.54517 0.54979 0.95626 0.0
C792 C 0.5454 0.42579 0.89638 0.0
C793 C 0.6537 0.49894 0.93967 0.0
C794 C 0.48891 0.44059 0.00338 0.0
C795 C 0.59667 0.49549 0.06227 0.0
O796 O 0.58412 0.38537 0.98479 0.0
O797 O 0.50344 0.13031 0.89477 0.0
Zn798 Zn 0.49942 0.11713 0.94266 0.0
O799 O 0.47838 0.07187 0.94447 0.0
Zn800 Zn 0.43467 0.07516 0.96478 0.0
Zn801 Zn 0.47405 0.05124 0.89895 0.0
Zn802 Zn 0.50494 0.04382 0.97184 0.0
O803 O 0.43411 0.05697 0.01021 0.0
O804 O 0.48441 0.03775 0.01797 0.0
O805 O 0.47214 0.15243 0.96622 0.0
O806 O 0.42393 0.123 0.97378 0.0
O807 O 0.3981 0.05153 0.9358 0.0
O808 O 0.42561 0.03773 0.88953 0.0
O809 O 0.49567 0.00657 0.89507 0.0
O810 O 0.54614 0.11814 0.9621 0.0
O811 O 0.5082 0.99783 0.94812 0.0
O812 O 0.55158 0.06632 0.97853 0.0
C813 C 0.49911 0.11512 0.86603 0.0
C814 C 0.45541 0.04415 0.02875 0.0
C815 C 0.3986 0.03826 0.90613 0.0
C816 C 0.44159 0.15076 0.97542 0.0
C817 C 0.50511 0.98736 0.9174 0.0
C818 C 0.5638 0.09612 0.97432 0.0
O819 O 0.48916 0.08398 0.86325 0.0
C820 C 0.01799 0.10825 0.41703 0.0
C821 C 0.00851 0.11429 0.38404 0.0
H822 H 0.02642 0.07123 0.45274 0.0
C823 C 0.9996 0.08675 0.3616 0.0
H824 H 0.02485 0.12906 0.43483 0.0
C825 C 1.00094 0.05384 0.37159 0.0
C826 C 0.01051 0.04764 0.40451 0.0
H827 H 0.99235 0.0907 0.33597 0.0
H828 H 0.99472 0.03318 0.35341 0.0
C829 C 0.01857 0.07521 0.4273 0.0
C830 C 0.98661 0.37564 0.3552 0.0
C831 C 0.99487 0.35298 0.37911 0.0
H832 H 0.97692 0.42631 0.34546 0.0
C833 C 0.99976 0.36474 0.41267 0.0
H834 H 0.98275 0.36706 0.32916 0.0
C835 C 0.99676 0.39874 0.42212 0.0
C836 C 0.98851 0.42165 0.3982 0.0
H837 H 0.00593 0.34757 0.43155 0.0
H838 H 1.00049 0.40696 0.44824 0.0
C839 C 0.98347 0.40958 0.36459 0.0
C840 C 0.05466 0.90938 0.11711 0.0
C841 C 0.03289 0.88693 0.09758 0.0
H842 H 0.07918 0.95828 0.12341 0.0
C843 C 0.02077 0.89708 0.06679 0.0
H844 H 0.06516 0.90207 0.14054 0.0
C845 C 0.02914 0.92976 0.05663 0.0
C846 C 0.0496 0.95266 0.07724 0.0
H847 H 0.00399 0.88026 0.05122 0.0
H848 H 0.01897 0.93733 0.03318 0.0
C849 C 0.06268 0.94174 0.10725 0.0
C850 C 0.99715 0.62893 0.12577 0.0
C851 C 0.00797 0.65108 0.10154 0.0
H852 H 0.98378 0.57811 0.13675 0.0
C853 C 0.01529 0.63852 0.06924 0.0
H854 H 0.99132 0.63838 0.15083 0.0
C855 C 0.01088 0.60401 0.06096 0.0
C856 C 0.99906 0.58167 0.08494 0.0
H857 H 0.02343 0.65547 0.05022 0.0
H858 H 0.01589 0.59499 0.03558 0.0
C859 C 0.99287 0.5945 0.11763 0.0
C860 C 0.45145 0.01048 0.11609 0.0
C861 C 0.42651 0.02962 0.13077 0.0
H862 H 0.48076 1.00035 0.07223 0.0
C863 C 0.41206 0.05376 0.11194 0.0
H864 H 0.46293 0.99162 0.13007 0.0
C865 C 0.42169 0.05825 0.07901 0.0
C866 C 0.44637 0.03904 0.06406 0.0
H867 H 0.39241 0.06851 0.12232 0.0
H868 H 0.40963 0.07688 0.0652 0.0
C869 C 0.46163 0.01545 0.08309 0.0
C870 C 0.64327 0.49854 0.14525 0.0
C871 C 0.61768 0.50562 0.16772 0.0
H872 H 0.65683 0.49028 0.09415 0.0
C873 C 0.58568 0.51165 0.15564 0.0
H874 H 0.66815 0.49392 0.15439 0.0
C875 C 0.57903 0.50967 0.12115 0.0
C876 C 0.60436 0.50147 0.09844 0.0
H877 H 0.56574 0.51713 0.17288 0.0
H878 H 0.55386 0.51356 0.1124 0.0
C879 C 0.63671 0.49653 0.11088 0.0
C880 C 0.41847 0.99234 0.37374 0.0
C881 C 0.38542 0.98638 0.36143 0.0
H882 H 0.45223 0.99097 0.41563 0.0
C883 C 0.36047 0.97391 0.38283 0.0
H884 H 0.43812 0.00182 0.35757 0.0
C885 C 0.36838 0.96773 0.41614 0.0
C886 C 0.40151 0.97373 0.42872 0.0
H887 H 0.33481 0.96905 0.37375 0.0
H888 H 0.34852 0.95807 0.43194 0.0
C889 C 0.42644 0.98613 0.407 0.0
C890 C 0.63953 0.51883 0.43019 0.0
C891 C 0.61639 0.50343 0.40657 0.0
H892 H 0.64995 0.53396 0.48138 0.0
C893 C 0.58548 0.48942 0.41753 0.0
H894 H 0.66372 0.5294 0.42235 0.0
C895 C 0.57725 0.49231 0.45158 0.0
C896 C 0.60015 0.50862 0.47518 0.0
H897 H 0.56734 0.47727 0.39966 0.0
H898 H 0.55278 0.48241 0.45931 0.0
C899 C 0.63166 0.52115 0.46408 0.0
C900 C 0.11714 0.39118 0.99436 0.0
C901 C 0.1439 0.41391 0.00528 0.0
H902 H 0.0638 0.38163 0.98954 0.0
C903 C 0.13696 0.44627 0.01767 0.0
H904 H 0.12184 0.366 0.98488 0.0
C905 C 0.10368 0.45554 0.01955 0.0
C906 C 0.07686 0.43225 0.00991 0.0
H907 H 0.15722 0.46423 0.02614 0.0
H908 H 0.09886 0.48035 0.02997 0.0
C909 C 0.08397 0.40011 0.99701 0.0
C910 C 0.13149 0.56442 0.49919 0.0
C911 C 0.14477 0.59703 0.49402 0.0
H912 H 0.08827 0.52967 0.49504 0.0
C913 C 0.12408 0.62048 0.48126 0.0
H914 H 0.14734 0.546 0.5088 0.0
C915 C 0.09043 0.61135 0.47334 0.0
C916 C 0.07696 0.57846 0.47787 0.0
H917 H 0.13414 0.64575 0.47698 0.0
H918 H 0.07519 0.62994 0.46315 0.0
C919 C 0.0978 0.55517 0.49121 0.0
C920 C 0.87521 0.85362 0.47234 0.0
C921 C 0.85225 0.87829 0.47821 0.0
H922 H 0.92649 0.84306 0.46469 0.0
C923 C 0.8638 0.91226 0.48085 0.0
H924 H 0.86667 0.82724 0.47045 0.0
C925 C 0.89807 0.92148 0.47786 0.0
C926 C 0.92133 0.89681 0.47207 0.0
H927 H 0.84632 0.93159 0.4855 0.0
H928 H 0.90627 0.94792 0.47988 0.0
C929 C 0.90942 0.86276 0.4693 0.0
C930 C 0.3962 0.56835 0.5178 0.0
C931 C 0.38271 0.59672 0.53353 0.0
H932 H 0.43877 0.53806 0.5134 0.0
C933 C 0.40281 0.61712 0.55656 0.0
H934 H 0.38118 0.55225 0.49992 0.0
C935 C 0.4357 0.60949 0.56373 0.0
C936 C 0.44922 0.58088 0.54852 0.0
H937 H 0.39317 0.63932 0.56879 0.0
H938 H 0.45041 0.62585 0.58166 0.0
C939 C 0.42905 0.56024 0.52557 0.0
C940 C 0.51738 0.62037 0.90592 0.0
C941 C 0.52941 0.64889 0.92561 0.0
H942 H 0.51312 0.56666 0.90032 0.0
C943 C 0.54479 0.64475 0.95678 0.0
H944 H 0.5056 0.62297 0.88171 0.0
C945 C 0.54828 0.61238 0.9679 0.0
C946 C 0.53732 0.58388 0.9475 0.0
H947 H 0.55425 0.66647 0.97231 0.0
H948 H 0.56083 0.60962 0.99168 0.0
C949 C 0.52166 0.58822 0.91656 0.0
C950 C 0.50394 0.90377 0.86674 0.0
C951 C 0.51301 0.88189 0.89106 0.0
H952 H 0.49482 0.95429 0.85573 0.0
C953 C 0.52064 0.89482 0.92378 0.0
H954 H 0.49805 0.8942 0.84131 0.0
C955 C 0.51898 0.9292 0.93216 0.0
C956 C 0.50963 0.95134 0.90792 0.0
H957 H 0.52775 0.87825 0.94287 0.0
H958 H 0.5246 0.93831 0.95775 0.0
C959 C 0.50232 0.93816 0.87503 0.0
C960 C 0.52816 0.39099 0.66426 0.0
C961 C 0.51547 0.36724 0.63941 0.0
H962 H 0.54304 0.44263 0.67703 0.0
C963 C 0.50688 0.37794 0.60779 0.0
H964 H 0.535 0.3831 0.68881 0.0
C965 C 0.5114 0.41193 0.60092 0.0
C966 C 0.52468 0.4359 0.62557 0.0
H967 H 0.49723 0.35988 0.58826 0.0
H968 H 0.5051 0.41929 0.57605 0.0
C969 C 0.53261 0.42502 0.65748 0.0
C970 C 0.50727 0.11393 0.57154 0.0
C971 C 0.488 0.1293 0.59649 0.0
H972 H 0.51575 0.06828 0.54278 0.0
C973 C 0.46232 0.11027 0.61182 0.0
H974 H 0.52737 0.12822 0.55962 0.0
C975 C 0.45624 0.07634 0.60289 0.0
C976 C 0.47542 0.06072 0.57808 0.0
H977 H 0.44751 0.12144 0.63153 0.0
H978 H 0.43637 0.06232 0.61545 0.0
C979 C 0.50068 0.07983 0.56202 0.0
C980 C 0.88389 0.49148 0.59603 0.0
C981 C 0.90804 0.49714 0.62193 0.0
H982 H 0.87345 0.49117 0.54341 0.0
C983 C 0.9417 0.50502 0.61366 0.0
H984 H 0.8577 0.48567 0.60166 0.0
C985 C 0.95087 0.50766 0.58007 0.0
C986 C 0.92637 0.5032 0.55432 0.0
H987 H 0.96082 0.50939 0.63316 0.0
H988 H 0.97683 0.51452 0.57438 0.0
C989 C 0.89289 0.49472 0.56267 0.0
C990 C 0.11661 0.00319 0.5974 0.0
C991 C 0.09597 0.9936 0.62392 0.0
H992 H 0.12292 0.0026 0.54432 0.0
C993 C 0.06384 0.97816 0.61692 0.0
H994 H 0.14164 0.0148 0.60225 0.0
C995 C 0.05282 0.9718 0.58366 0.0
C996 C 0.07426 0.97994 0.5572 0.0
H997 H 0.04764 0.9705 0.63709 0.0
H998 H 0.02832 0.95905 0.57866 0.0
C999 C 0.10599 0.9961 0.56434 0.0
C1000 C 0.88114 0.48878 0.88673 0.0
C1001 C 0.9056 0.49756 0.86325 0.0
H1002 H 0.87048 0.47907 0.93775 0.0
C1003 C 0.93915 0.50391 0.87402 0.0
H1004 H 0.85512 0.48368 0.8789 0.0
C1005 C 0.94811 0.50142 0.90781 0.0
C1006 C 0.92368 0.4923 0.93145 0.0
H1007 H 0.95847 0.51035 0.8562 0.0
H1008 H 0.97428 0.50601 0.91524 0.0
C1009 C 0.89002 0.48626 0.92043 0.0
C1010 C 0.1076 0.01215 0.87142 0.0
C1011 C 0.14042 0.01785 0.85981 0.0
H1012 H 0.07486 0.01334 0.91347 0.0
C1013 C 0.16615 0.02908 0.88275 0.0
H1014 H 0.08735 0.00374 0.85405 0.0
C1015 C 0.15917 0.03463 0.91683 0.0
C1016 C 0.12621 0.02919 0.92864 0.0
H1017 H 0.19165 0.03375 0.87421 0.0
H1018 H 0.17953 0.04367 0.9338 0.0
C1019 C 0.10056 0.01765 0.90545 0.0
C1020 C 0.589 0.86108 0.49258 0.0
C1021 C 0.61687 0.88334 0.50123 0.0
H1022 H 0.53538 0.85343 0.48981 0.0
C1023 C 0.61152 0.91661 0.51199 0.0
H1024 H 0.59244 0.83524 0.48437 0.0
C1025 C 0.57876 0.92731 0.51432 0.0
C1026 C 0.55085 0.90463 0.50676 0.0
H1027 H 0.63263 0.93425 0.51867 0.0
H1028 H 0.57524 0.95289 0.52336 0.0
C1029 C 0.55636 0.87149 0.49566 0.0
C1030 C 0.65553 0.08866 0.99693 0.0
C1031 C 0.669 0.12122 0.99178 0.0
H1032 H 0.61138 0.0551 0.99572 0.0
C1033 C 0.6478 0.14583 0.98247 0.0
H1034 H 0.67176 0.06937 0.0039 0.0
C1035 C 0.61347 0.13787 0.97771 0.0
C1036 C 0.59975 0.10504 0.98206 0.0
H1037 H 0.65797 0.1711 0.97833 0.0
H1038 H 0.59782 0.15733 0.96998 0.0
C1039 C 0.62109 0.08061 0.9922 0.0
C1040 C 0.40584 0.38839 1.00061 0.0
C1041 C 0.38291 0.41286 0.00755 0.0
H1042 H 0.45728 0.37776 0.9945 0.0
C1043 C 0.39484 0.44632 0.01479 0.0
H1044 H 0.39701 0.3624 0.99514 0.0
C1045 C 0.4294 0.45529 0.01461 0.0
C1046 C 0.45257 0.43089 0.00713 0.0
H1047 H 0.37739 0.4655 0.02026 0.0
H1048 H 0.43787 0.48142 0.01965 0.0
C1049 C 0.44031 0.39726 1.00048 0.0
C1050 C 0.92094 0.08888 0.98466 0.0
C1051 C 0.90939 0.11746 0.0018 0.0
H1052 H 0.96277 0.05843 0.9754 0.0
C1053 C 0.93215 0.13864 0.02143 0.0
H1054 H 0.90379 0.07226 0.96927 0.0
C1055 C 0.96572 0.13128 0.02432 0.0
C1056 C 0.97734 0.10218 0.00813 0.0
H1057 H 0.92392 0.16102 0.03459 0.0
H1058 H 0.98236 0.14805 0.04011 0.0
C1059 C 0.9546 0.08104 0.98815 0.0
C1060 C 0.03929 0.14106 0.21391 0.0
C1061 C 0.0312 0.17451 0.21123 0.0
H1062 H 0.05612 0.09661 0.18864 0.0
C1063 C 0.0326 0.18859 0.1799 0.0
H1064 H 0.0386 0.12991 0.23803 0.0
C1065 C 0.04281 0.16979 0.15171 0.0
C1066 C 0.05187 0.13648 0.15431 0.0
H1067 H 0.02672 0.21446 0.17746 0.0
H1068 H 0.04413 0.18164 0.12798 0.0
C1069 C 0.04946 0.12215 0.18569 0.0
C1070 C 0.99459 0.39306 0.21499 0.0
C1071 C 0.01378 0.36485 0.21074 0.0
H1072 H 0.97247 0.4336 0.19171 0.0
C1073 C 0.02815 0.35778 0.17948 0.0
H1074 H 0.98322 0.39898 0.23891 0.0
C1075 C 0.02152 0.37717 0.15234 0.0
C1076 C 1.00084 0.40434 0.15609 0.0
H1077 H 0.04277 0.33601 0.17549 0.0
H1078 H 0.03167 0.37015 0.12811 0.0
C1079 C 0.98846 0.41284 0.188 0.0
C1080 C 0.99793 0.80165 0.30851 0.0
C1081 C 0.99942 0.81434 0.27666 0.0
H1082 H 0.00146 0.81298 0.36123 0.0
C1083 C 0.00323 0.84915 0.27319 0.0
H1084 H 0.99512 0.77479 0.31139 0.0
C1085 C 0.00726 0.87112 0.30149 0.0
C1086 C 0.00735 0.85848 0.3336 0.0
H1087 H 0.00453 0.85915 0.24853 0.0
H1088 H 0.01138 0.89781 0.29816 0.0
C1089 C 0.00167 0.82357 0.33684 0.0
C1090 C 0.9755 0.6106 0.26777 0.0
C1091 C 0.99604 0.64066 0.26956 0.0
H1092 H 0.95505 0.56853 0.29394 0.0
C1093 C 0.0128 0.65071 0.29994 0.0
H1094 H 0.96234 0.6022 0.24466 0.0
C1095 C 0.00831 0.63178 0.32819 0.0
C1096 C 0.98738 0.60198 0.32666 0.0
H1097 H 0.02852 0.67392 0.30222 0.0
H1098 H 0.02094 0.64076 0.35142 0.0
C1099 C 0.9715 0.59126 0.29593 0.0
C1100 C 0.25641 0.03476 0.12982 0.0
C1101 C 0.24938 0.02325 0.16178 0.0
H1102 H 0.23628 0.05117 0.0838 0.0
C1103 C 0.21589 0.01824 0.17145 0.0
H1104 H 0.2822 0.03892 0.12202 0.0
C1105 C 0.18975 0.02537 0.14991 0.0
C1106 C 0.19647 0.03764 0.11806 0.0
H1107 H 0.21 0.00948 0.19603 0.0
H1108 H 0.16419 0.02163 0.15851 0.0
C1109 C 0.23016 0.04177 0.10805 0.0
C1110 C 0.79062 0.47578 0.12521 0.0
C1111 C 0.79333 0.49497 0.1558 0.0
H1112 H 0.816 0.45711 0.08164 0.0
C1113 C 0.82459 0.51121 0.16527 0.0
H1114 H 0.7668 0.4631 0.11722 0.0
C1115 C 0.85277 0.50745 0.14522 0.0
C1116 C 0.85028 0.48783 0.11488 0.0
H1117 H 0.82754 0.52592 0.18883 0.0
H1118 H 0.87666 0.51962 0.15372 0.0
C1119 C 0.81874 0.47253 0.10478 0.0
C1120 C 0.21199 0.96657 0.37306 0.0
C1121 C 0.21056 0.98647 0.34526 0.0
H1122 H 0.18467 0.94301 0.41224 0.0
C1123 C 0.17996 0.99913 0.3362 0.0
H1124 H 0.23543 0.95656 0.38037 0.0
C1125 C 0.15084 0.99085 0.35389 0.0
C1126 C 0.15204 0.97036 0.38135 0.0
H1127 H 0.17836 0.01435 0.31466 0.0
H1128 H 0.12731 1.00017 0.34586 0.0
C1129 C 0.18303 0.95891 0.39124 0.0
C1130 C 0.783 0.50317 0.37599 0.0
C1131 C 0.7834 0.49431 0.3416 0.0
H1132 H 0.81228 0.51579 0.42058 0.0
C1133 C 0.81373 0.48786 0.32606 0.0
H1134 H 0.7596 0.50829 0.38818 0.0
C1135 C 0.84379 0.49212 0.34435 0.0
C1136 C 0.84389 0.5031 0.37844 0.0
H1137 H 0.81428 0.48107 0.29946 0.0
H1138 H 0.86703 0.48819 0.33138 0.0
C1139 C 0.81309 0.50753 0.39435 0.0
C1140 C 0.16934 0.23969 0.01127 0.0
C1141 C 0.20393 0.23834 0.00592 0.0
H1142 H 0.12295 0.21225 0.02121 0.0
C1143 C 0.2182 0.20717 0.0044 0.0
H1144 H 0.15802 0.26366 0.01272 0.0
C1145 C 0.19831 0.17773 0.00935 0.0
C1146 C 0.16378 0.179 0.01604 0.0
H1147 H 0.24493 0.20577 1.00051 0.0
H1148 H 0.21024 0.1541 0.00885 0.0
C1149 C 0.14942 0.21029 0.01627 0.0
C1150 C 0.11472 0.76768 0.46544 0.0
C1151 C 0.14375 0.77204 0.48589 0.0
H1152 H 0.07278 0.79078 0.44436 0.0
C1153 C 0.15233 0.80387 0.50152 0.0
H1154 H 0.10749 0.74337 0.45321 0.0
C1155 C 0.13286 0.83102 0.49611 0.0
C1156 C 0.10393 0.82683 0.4755 0.0
H1157 H 0.17469 0.80798 0.51724 0.0
H1158 H 0.14064 0.8554 0.50789 0.0
C1159 C 0.09476 0.79474 0.46061 0.0
C1160 C 0.89175 0.70954 0.47338 0.0
C1161 C 0.8634 0.70655 0.49391 0.0
H1162 H 0.93198 0.68474 0.44955 0.0
C1163 C 0.8556 0.67591 0.50859 0.0
H1164 H 0.89828 0.73294 0.46176 0.0
C1165 C 0.87448 0.64818 0.50115 0.0
C1166 C 0.90191 0.65067 0.47933 0.0
H1167 H 0.83373 0.67282 0.52424 0.0
H1168 H 0.86695 0.62447 0.51172 0.0
C1169 C 0.91103 0.68198 0.46642 0.0
C1170 C 0.31265 0.79789 0.50551 0.0
C1171 C 0.32634 0.76744 0.5118 0.0
H1172 H 0.32129 0.8512 0.50451 0.0
C1173 C 0.36038 0.76693 0.52054 0.0
H1174 H 0.28633 0.79848 0.49867 0.0
C1175 C 0.38048 0.79689 0.52387 0.0
C1176 C 0.36672 0.82777 0.51856 0.0
H1177 H 0.37117 0.74342 0.52537 0.0
H1178 H 0.40658 0.79588 0.53132 0.0
C1179 C 0.33268 0.82789 0.50886 0.0
C1180 C 0.51446 0.68215 0.71622 0.0
C1181 C 0.52031 0.6739 0.74927 0.0
H1182 H 0.51629 0.66683 0.6643 0.0
C1183 C 0.53073 0.64185 0.75546 0.0
H1184 H 0.50659 0.70683 0.71098 0.0
C1185 C 0.53647 0.61876 0.72875 0.0
C1186 C 0.53208 0.62753 0.69542 0.0
H1187 H 0.53559 0.63518 0.78091 0.0
H1188 H 0.5455 0.59461 0.73417 0.0
C1189 C 0.52027 0.65925 0.68958 0.0
C1190 C 0.48284 0.88796 0.71585 0.0
C1191 C 0.50101 0.85898 0.71333 0.0
H1192 H 0.45869 0.92539 0.68978 0.0
C1193 C 0.51064 0.84654 0.68162 0.0
H1194 H 0.47511 0.89796 0.7401 0.0
C1195 C 0.50073 0.86182 0.65274 0.0
C1196 C 0.48149 0.89015 0.65514 0.0
H1197 H 0.52439 0.82403 0.67908 0.0
H1198 H 0.50754 0.85102 0.6285 0.0
C1199 C 0.47346 0.9036 0.68706 0.0
C1200 C 0.54175 0.39547 0.80541 0.0
C1201 C 0.5209 0.36586 0.80686 0.0
H1202 H 0.56556 0.43825 0.83285 0.0
C1203 C 0.5054 0.35817 0.83706 0.0
H1204 H 0.55368 0.402 0.7822 0.0
C1205 C 0.51226 0.37866 0.86588 0.0
C1206 C 0.53455 0.40732 0.86493 0.0
H1207 H 0.48937 0.33537 0.83883 0.0
H1208 H 0.50097 0.37141 0.88917 0.0
C1209 C 0.54837 0.41623 0.83425 0.0
C1210 C 0.49685 0.14074 0.7754 0.0
C1211 C 0.50749 0.17501 0.7791 0.0
H1212 H 0.48596 0.09476 0.79982 0.0
C1213 C 0.51717 0.18888 0.81098 0.0
H1214 H 0.48946 0.1295 0.75093 0.0
C1215 C 0.51531 0.16916 0.8389 0.0
C1216 C 0.50376 0.13497 0.83561 0.0
H1217 H 0.52559 0.21522 0.81436 0.0
H1218 H 0.5224 0.18097 0.8632 0.0
C1219 C 0.49497 0.1209 0.80337 0.0
C1220 C 0.70277 0.51584 0.71107 0.0
C1221 C 0.73402 0.5165 0.69528 0.0
H1222 H 0.64981 0.52077 0.70586 0.0
C1223 C 0.73554 0.52175 0.66089 0.0
H1224 H 0.70112 0.51179 0.7376 0.0
C1225 C 0.70634 0.52696 0.64264 0.0
C1226 C 0.67492 0.52697 0.65843 0.0
H1227 H 0.75946 0.52226 0.64827 0.0
H1228 H 0.70849 0.53134 0.61622 0.0
C1229 C 0.6735 0.52104 0.69285 0.0
C1230 C 0.26958 0.97431 0.62565 0.0
C1231 C 0.27573 0.98618 0.65908 0.0
H1232 H 0.29095 0.95829 0.57875 0.0
C1233 C 0.30899 0.99246 0.67046 0.0
H1234 H 0.24401 0.96936 0.61639 0.0
C1235 C 0.33572 0.98617 0.64917 0.0
C1236 C 0.32989 0.97346 0.61583 0.0
H1237 H 0.31429 1.00166 0.69611 0.0
H1238 H 0.36106 0.99089 0.65913 0.0
C1239 C 0.29642 0.96804 0.60417 0.0
C1240 C 0.71202 0.53404 0.8747 0.0
C1241 C 0.74167 0.51865 0.882 0.0
H1242 H 0.66072 0.53986 0.88748 0.0
C1243 C 0.74367 0.5009 0.9113 0.0
H1244 H 0.70978 0.54767 0.85215 0.0
C1245 C 0.71565 0.49658 0.9317 0.0
C1246 C 0.68507 0.50948 0.92275 0.0
H1247 H 0.7664 0.48896 0.91749 0.0
H1248 H 0.71734 0.48125 0.95313 0.0
C1249 C 0.68388 0.52932 0.89479 0.0
C1250 C 0.3384 0.99393 0.84238 0.0
C1251 C 0.30816 0.0075 0.85177 0.0
H1252 H 0.39112 0.99327 0.85241 0.0
C1253 C 0.30695 0.02783 0.88144 0.0
H1254 H 0.33982 0.97839 0.81942 0.0
C1255 C 0.33613 0.03623 0.90043 0.0
C1256 C 0.36699 0.02488 0.8896 0.0
H1257 H 0.28373 0.03851 0.88902 0.0
H1258 H 0.33483 0.0532 0.9224 0.0
C1259 C 0.36769 0.00274 0.86106 0.0
C1260 C 0.63871 0.71548 0.53118 0.0
C1261 C 0.6717 0.71137 0.52058 0.0
H1262 H 0.59413 0.69234 0.55184 0.0
C1263 C 0.68466 0.67968 0.52099 0.0
H1264 H 0.62852 0.73998 0.53133 0.0
C1265 C 0.66531 0.65257 0.53292 0.0
C1266 C 0.63259 0.65668 0.54474 0.0
H1267 H 0.71021 0.67621 0.5132 0.0
H1268 H 0.67636 0.62853 0.5335 0.0
C1269 C 0.61924 0.68832 0.5431 0.0
C1270 C 0.68191 0.32925 0.01731 0.0
C1271 C 0.67156 0.29931 0.99888 0.0
H1272 H 0.67233 0.38051 0.03004 0.0
C1273 C 0.64147 0.29805 0.98004 0.0
H1274 H 0.70511 0.33106 0.03185 0.0
C1275 C 0.62231 0.32627 0.97943 0.0
C1276 C 0.63325 0.35656 0.99708 0.0
H1277 H 0.63282 0.27525 0.96571 0.0
H1278 H 0.59951 0.32469 0.96429 0.0
C1279 C 0.66317 0.35761 0.01617 0.0
C1280 C 0.41974 0.24168 0.9852 0.0
C1281 C 0.38954 0.23878 0.003 0.0
H1282 H 0.46029 0.21612 0.96289 0.0
C1283 C 0.37851 0.20736 0.01441 0.0
H1284 H 0.42881 0.26569 0.9762 0.0
C1285 C 0.39618 0.17901 0.0064 0.0
C1286 C 0.4255 0.18154 0.9872 0.0
H1287 H 0.35518 0.20433 0.02789 0.0
H1288 H 0.38629 0.15488 0.01445 0.0
C1289 C 0.43774 0.21336 0.97762 0.0
C1290 C 0.88977 0.28626 0.01269 0.0
C1291 C 0.85575 0.28681 0.00372 0.0
H1292 H 0.93549 0.31534 0.02564 0.0
C1293 C 0.84191 0.31741 0.99848 0.0
H1294 H 0.90069 0.26264 0.01675 0.0
C1295 C 0.86156 0.34744 0.00345 0.0
C1296 C 0.8954 0.34729 0.01386 0.0
H1297 H 0.81563 0.31808 0.99148 0.0
H1298 H 0.84993 0.37081 1.00003 0.0
C1299 C 0.90952 0.31633 0.01774 0.0
loop_
_geom_bond_atom_site_label_1
_geom_bond_atom_site_label_2
_geom_bond_distance
_geom_bond_site_symmetry_2
_ccdc_geom_bond_type
C0 C1 1.443 . S
C0 N4 1.376 . S
C0 C38 1.389 . S
C1 C0 1.443 . S
C1 C2 1.340 . S
C1 H41 0.951 . S
C2 C1 1.340 . S
C2 C3 1.439 . S
C2 H42 0.950 . S
C3 C2 1.439 . S
C3 N4 1.374 . S
C3 C37 1.395 . S
N4 C0 1.376 . S
N4 C3 1.374 . S
N4 Co5 2.008 1_655 S
Co5 N4 2.008 1_455 S
Co5 N6 1.995 1_455 S
Co5 N11 2.008 . S
Co5 N16 1.995 . S
Co5 N21 2.282 . S
Co5 N27 2.282 1_455 S
N6 Co5 1.995 1_655 S
N6 C7 1.376 . S
N6 C10 1.383 . S
C7 N6 1.376 . S
C7 C8 1.446 . S
C7 C37 1.391 . S
C8 C7 1.446 . S
C8 C9 1.339 . S
C8 H43 0.949 . S
C9 C8 1.339 . S
C9 C10 1.439 . S
C9 H44 0.950 . S
C10 N6 1.383 . S
C10 C9 1.439 . S
C10 C39 1.392 1_655 S
N11 Co5 2.008 . S
N11 C12 1.376 . S
N11 C15 1.374 . S
C12 N11 1.376 . S
C12 C13 1.443 . S
C12 C39 1.389 . S
C13 C12 1.443 . S
C13 C14 1.340 . S
C13 H45 0.951 . S
C14 C13 1.340 . S
C14 C15 1.439 . S
C14 H46 0.950 . S
C15 N11 1.374 . S
C15 C14 1.439 . S
C15 C40 1.395 . S
N16 Co5 1.995 . S
N16 C17 1.376 . S
N16 C20 1.383 . S
C17 N16 1.376 . S
C17 C18 1.446 . S
C17 C40 1.391 . S
C18 C17 1.446 . S
C18 C19 1.339 . S
C18 H47 0.949 . S
C19 C18 1.339 . S
C19 C20 1.439 . S
C19 H48 0.950 . S
C20 N16 1.383 . S
C20 C19 1.439 . S
C20 C38 1.392 1_455 S
N21 Co5 2.282 . S
N21 C24 1.332 . S
N21 C26 1.332 1_455 S
C22 C23 1.386 . S
C22 C25 1.388 1_455 S
C23 C22 1.386 . S
C23 C24 1.382 . S
C23 H49 0.950 . S
C24 N21 1.332 . S
C24 C23 1.382 . S
C24 H35 0.952 . S
C25 C22 1.388 1_655 S
C25 C26 1.382 . S
C25 H50 0.950 . S
C26 N21 1.332 1_655 S
C26 C25 1.382 . S
C26 H36 0.948 . S
N27 Co5 2.282 1_655 S
N27 C31 1.332 . S
N27 C32 1.332 1_655 S
C28 C29 1.388 1_455 S
C28 C32 1.382 . S
C28 H51 0.950 . S
C29 C28 1.388 1_655 S
C29 C30 1.386 . S
C30 C29 1.386 . S
C30 C31 1.382 . S
C30 H52 0.950 . S
C31 N27 1.332 . S
C31 C30 1.382 . S
C31 H33 0.952 . S
C32 N27 1.332 1_455 S
C32 C28 1.382 . S
C32 H34 0.948 . S
H33 C31 0.952 . S
H34 C32 0.948 . S
H35 C24 0.952 . S
H36 C26 0.948 . S
C37 C3 1.395 . S
C37 C7 1.391 . S
C38 C0 1.389 . S
C38 C20 1.392 1_655 S
C39 C10 1.392 1_455 S
C39 C12 1.389 . S
C40 C15 1.395 . S
C40 C17 1.391 . S
H41 C1 0.951 . S
H42 C2 0.950 . S
H43 C8 0.949 . S
H44 C9 0.950 . S
H45 C13 0.951 . S
H46 C14 0.950 . S
H47 C18 0.949 . S
H48 C19 0.950 . S
H49 C23 0.950 . S
H50 C25 0.950 . S
H51 C28 0.950 . S
H52 C30 0.950 . S
C53 C54 1.443 . S
C53 N57 1.376 . S
C53 C91 1.389 1_655 S
C54 C53 1.443 . S
C54 C55 1.340 . S
C54 H94 0.951 . S
C55 C54 1.340 . S
C55 C56 1.439 . S
C55 H95 0.950 . S
C56 C55 1.439 . S
C56 N57 1.374 . S
C56 C90 1.395 . S
N57 C53 1.376 . S
N57 C56 1.374 . S
N57 Co58 2.008 1_655 S
Co58 N57 2.008 1_455 S
Co58 N59 1.995 1_455 S
Co58 N64 2.008 . S
Co58 N69 1.995 . S
Co58 N74 2.282 . S
Co58 N80 2.282 . S
N59 Co58 1.995 1_655 S
N59 C60 1.376 . S
N59 C63 1.383 1_655 S
C60 N59 1.376 . S
C60 C61 1.446 . S
C60 C90 1.391 . S
C61 C60 1.446 . S
C61 C62 1.339 . S
C61 H96 0.949 . S
C62 C61 1.339 . S
C62 C63 1.439 1_655 S
C62 H97 0.950 . S
C63 N59 1.383 1_455 S
C63 C62 1.439 1_455 S
C63 C92 1.392 . S
N64 Co58 2.008 . S
N64 C65 1.376 . S
N64 C68 1.374 . S
C65 N64 1.376 . S
C65 C66 1.443 . S
C65 C92 1.389 . S
C66 C65 1.443 . S
C66 C67 1.340 . S
C66 H98 0.951 . S
C67 C66 1.340 . S
C67 C68 1.439 . S
C67 H99 0.950 . S
C68 N64 1.374 . S
C68 C67 1.439 . S
C68 C93 1.395 . S
N69 Co58 1.995 . S
N69 C70 1.376 . S
N69 C73 1.383 . S
C70 N69 1.376 . S
C70 C71 1.446 . S
C70 C93 1.391 . S
C71 C70 1.446 . S
C71 C72 1.339 . S
C71 H100 0.949 . S
C72 C71 1.339 . S
C72 C73 1.439 . S
C72 H101 0.950 . S
C73 N69 1.383 . S
C73 C72 1.439 . S
C73 C91 1.392 . S
N74 Co58 2.282 . S
N74 C77 1.332 . S
N74 C79 1.332 . S
C75 C76 1.386 . S
C75 C78 1.388 . S
C76 C75 1.386 . S
C76 C77 1.382 . S
C76 H102 0.950 . S
C77 N74 1.332 . S
C77 C76 1.382 . S
C77 H88 0.952 . S
C78 C75 1.388 . S
C78 C79 1.382 . S
C78 H103 0.950 1_455 S
C79 N74 1.332 . S
C79 C78 1.382 . S
C79 H89 0.948 1_455 S
N80 Co58 2.282 . S
N80 C84 1.332 1_455 S
N80 C85 1.332 . S
C81 C82 1.388 1_455 S
C81 C85 1.382 . S
C81 H104 0.950 . S
C82 C81 1.388 1_655 S
C82 C83 1.386 . S
C83 C82 1.386 . S
C83 C84 1.382 . S
C83 H105 0.950 . S
C84 N80 1.332 1_655 S
C84 C83 1.382 . S
C84 H86 0.952 . S
C85 N80 1.332 . S
C85 C81 1.382 . S
C85 H87 0.948 . S
H86 C84 0.952 . S
H87 C85 0.948 . S
H88 C77 0.952 . S
H89 C79 0.948 1_655 S
C90 C56 1.395 . S
C90 C60 1.391 . S
C91 C53 1.389 1_455 S
C91 C73 1.392 . S
C92 C63 1.392 . S
C92 C65 1.389 . S
C93 C68 1.395 . S
C93 C70 1.391 . S
H94 C54 0.951 . S
H95 C55 0.950 . S
H96 C61 0.949 . S
H97 C62 0.950 . S
H98 C66 0.951 . S
H99 C67 0.950 . S
H100 C71 0.949 . S
H101 C72 0.950 . S
H102 C76 0.950 . S
H103 C78 0.950 1_655 S
H104 C81 0.950 . S
H105 C83 0.950 . S
C106 C107 1.443 . S
C106 N110 1.376 . S
C106 C144 1.389 . S
C107 C106 1.443 . S
C107 C108 1.340 . S
C107 H147 0.951 . S
C108 C107 1.340 . S
C108 C109 1.439 . S
C108 H148 0.950 . S
C109 C108 1.439 . S
C109 N110 1.374 . S
C109 C143 1.395 . S
N110 C106 1.376 . S
N110 C109 1.374 . S
N110 Co111 2.008 1_565 S
Co111 N110 2.008 1_545 S
Co111 N112 1.995 1_545 S
Co111 N117 2.008 . S
Co111 N122 1.995 . S
Co111 N127 2.282 . S
Co111 N133 2.282 1_545 S
N112 Co111 1.995 1_565 S
N112 C113 1.376 . S
N112 C116 1.383 . S
C113 N112 1.376 . S
C113 C114 1.446 . S
C113 C143 1.391 . S
C114 C113 1.446 . S
C114 C115 1.339 . S
C114 H149 0.949 . S
C115 C114 1.339 . S
C115 C116 1.439 . S
C115 H150 0.950 . S
C116 N112 1.383 . S
C116 C115 1.439 . S
C116 C145 1.392 1_565 S
N117 Co111 2.008 . S
N117 C118 1.376 . S
N117 C121 1.374 . S
C118 N117 1.376 . S
C118 C119 1.443 . S
C118 C145 1.389 . S
C119 C118 1.443 . S
C119 C120 1.340 . S
C119 H151 0.951 . S
C120 C119 1.340 . S
C120 C121 1.439 . S
C120 H152 0.950 . S
C121 N117 1.374 . S
C121 C120 1.439 . S
C121 C146 1.395 . S
N122 Co111 1.995 . S
N122 C123 1.376 . S
N122 C126 1.383 . S
C123 N122 1.376 . S
C123 C124 1.446 . S
C123 C146 1.391 . S
C124 C123 1.446 . S
C124 C125 1.339 . S
C124 H153 0.949 . S
C125 C124 1.339 . S
C125 C126 1.439 . S
C125 H154 0.950 . S
C126 N122 1.383 . S
C126 C125 1.439 . S
C126 C144 1.392 1_545 S
N127 Co111 2.282 . S
N127 C130 1.332 . S
N127 C132 1.332 1_545 S
C128 C129 1.386 . S
C128 C131 1.388 . S
C129 C128 1.386 . S
C129 C130 1.382 . S
C129 H155 0.950 . S
C130 N127 1.332 . S
C130 C129 1.382 . S
C130 H141 0.952 . S
C131 C128 1.388 . S
C131 C132 1.382 1_545 S
C131 H156 0.950 1_545 S
C132 N127 1.332 1_565 S
C132 C131 1.382 1_565 S
C132 H142 0.948 . S
N133 Co111 2.282 1_565 S
N133 C137 1.332 . S
N133 C138 1.332 1_565 S
C134 C135 1.388 1_545 S
C134 C138 1.382 . S
C134 H157 0.950 . S
C135 C134 1.388 1_565 S
C135 C136 1.386 . S
C136 C135 1.386 . S
C136 C137 1.382 . S
C136 H158 0.950 . S
C137 N133 1.332 . S
C137 C136 1.382 . S
C137 H139 0.952 . S
C138 N133 1.332 1_545 S
C138 C134 1.382 . S
C138 H140 0.948 . S
H139 C137 0.952 . S
H140 C138 0.948 . S
H141 C130 0.952 . S
H142 C132 0.948 . S
C143 C109 1.395 . S
C143 C113 1.391 . S
C144 C106 1.389 . S
C144 C126 1.392 1_565 S
C145 C116 1.392 1_545 S
C145 C118 1.389 . S
C146 C121 1.395 . S
C146 C123 1.391 . S
H147 C107 0.951 . S
H148 C108 0.950 . S
H149 C114 0.949 . S
H150 C115 0.950 . S
H151 C119 0.951 . S
H152 C120 0.950 . S
H153 C124 0.949 . S
H154 C125 0.950 . S
H155 C129 0.950 . S
H156 C131 0.950 1_565 S
H157 C134 0.950 . S
H158 C136 0.950 . S
C159 C160 1.443 . S
C159 N163 1.376 . S
C159 C197 1.389 . S
C160 C159 1.443 . S
C160 C161 1.340 . S
C160 H200 0.951 . S
C161 C160 1.340 . S
C161 C162 1.439 . S
C161 H201 0.950 . S
C162 C161 1.439 . S
C162 N163 1.374 . S
C162 C196 1.395 . S
N163 C159 1.376 . S
N163 C162 1.374 . S
N163 Co164 2.008 . S
Co164 N163 2.008 . S
Co164 N165 1.995 . S
Co164 N170 2.008 . S
Co164 N175 1.995 . S
Co164 N180 2.282 . S
Co164 N186 2.282 . S
N165 Co164 1.995 . S
N165 C166 1.376 . S
N165 C169 1.383 . S
C166 N165 1.376 . S
C166 C167 1.446 . S
C166 C196 1.391 . S
C167 C166 1.446 . S
C167 C168 1.339 . S
C167 H202 0.949 . S
C168 C167 1.339 . S
C168 C169 1.439 . S
C168 H203 0.950 . S
C169 N165 1.383 . S
C169 C168 1.439 . S
C169 C198 1.392 . S
N170 Co164 2.008 . S
N170 C171 1.376 . S
N170 C174 1.374 . S
C171 N170 1.376 . S
C171 C172 1.443 . S
C171 C198 1.389 . S
C172 C171 1.443 . S
C172 C173 1.340 . S
C172 H204 0.951 . S
C173 C172 1.340 . S
C173 C174 1.439 . S
C173 H205 0.950 . S
C174 N170 1.374 . S
C174 C173 1.439 . S
C174 C199 1.395 . S
N175 Co164 1.995 . S
N175 C176 1.376 . S
N175 C179 1.383 . S
C176 N175 1.376 . S
C176 C177 1.446 . S
C176 C199 1.391 . S
C177 C176 1.446 . S
C177 C178 1.339 . S
C177 H206 0.949 . S
C178 C177 1.339 . S
C178 C179 1.439 . S
C178 H207 0.950 . S
C179 N175 1.383 . S
C179 C178 1.439 . S
C179 C197 1.392 . S
N180 Co164 2.282 . S
N180 C183 1.332 . S
N180 C185 1.332 . S
C181 C182 1.386 . S
C181 C184 1.388 . S
C182 C181 1.386 . S
C182 C183 1.382 . S
C182 H208 0.950 . S
C183 N180 1.332 . S
C183 C182 1.382 . S
C183 H194 0.952 . S
C184 C181 1.388 . S
C184 C185 1.382 . S
C184 H209 0.950 . S
C185 N180 1.332 . S
C185 C184 1.382 . S
C185 H195 0.948 . S
N186 Co164 2.282 . S
N186 C190 1.332 . S
N186 C191 1.332 . S
C187 C188 1.388 . S
C187 C191 1.382 . S
C187 H210 0.950 . S
C188 C187 1.388 . S
C188 C189 1.386 . S
C189 C188 1.386 . S
C189 C190 1.382 . S
C189 H211 0.950 . S
C190 N186 1.332 . S
C190 C189 1.382 . S
C190 H192 0.952 . S
C191 N186 1.332 . S
C191 C187 1.382 . S
C191 H193 0.948 . S
H192 C190 0.952 . S
H193 C191 0.948 . S
H194 C183 0.952 . S
H195 C185 0.948 . S
C196 C162 1.395 . S
C196 C166 1.391 . S
C197 C159 1.389 . S
C197 C179 1.392 . S
C198 C169 1.392 . S
C198 C171 1.389 . S
C199 C174 1.395 . S
C199 C176 1.391 . S
H200 C160 0.951 . S
H201 C161 0.950 . S
H202 C167 0.949 . S
H203 C168 0.950 . S
H204 C172 0.951 . S
H205 C173 0.950 . S
H206 C177 0.949 . S
H207 C178 0.950 . S
H208 C182 0.950 . S
H209 C184 0.950 . S
H210 C187 0.950 . S
H211 C189 0.950 . S
C212 C213 1.443 . S
C212 N216 1.376 . S
C212 C250 1.389 1_556 S
C213 C212 1.443 . S
C213 C214 1.340 . S
C213 H253 0.951 . S
C214 C213 1.340 . S
C214 C215 1.439 . S
C214 H254 0.950 . S
C215 C214 1.439 . S
C215 N216 1.374 . S
C215 C249 1.395 . S
N216 C212 1.376 . S
N216 C215 1.374 . S
N216 Co217 2.008 1_556 S
Co217 N216 2.008 1_554 S
Co217 N218 1.995 1_554 S
Co217 N223 2.008 . S
Co217 N228 1.995 . S
Co217 N233 2.282 . S
Co217 N239 2.282 . S
N218 Co217 1.995 1_556 S
N218 C219 1.376 . S
N218 C222 1.380 1_556 S
C219 N218 1.376 . S
C219 C220 1.446 . S
C219 C249 1.391 . S
C220 C219 1.446 . S
C220 C221 1.339 . S
C220 H255 0.949 . S
C221 C220 1.339 . S
C221 C222 1.432 1_556 S
C221 H256 0.950 . S
C222 N218 1.380 1_554 S
C222 C221 1.432 1_554 S
C222 C251 1.400 . S
N223 Co217 2.008 . S
N223 C224 1.376 . S
N223 C227 1.374 . S
C224 N223 1.376 . S
C224 C225 1.443 . S
C224 C251 1.389 . S
C225 C224 1.443 . S
C225 C226 1.340 . S
C225 H257 0.951 . S
C226 C225 1.340 . S
C226 C227 1.439 . S
C226 H258 0.950 . S
C227 N223 1.374 . S
C227 C226 1.439 . S
C227 C252 1.395 . S
N228 Co217 1.995 . S
N228 C229 1.376 . S
N228 C232 1.383 . S
C229 N228 1.376 . S
C229 C230 1.446 . S
C229 C252 1.391 . S
C230 C229 1.446 . S
C230 C231 1.339 . S
C230 H259 0.949 . S
C231 C230 1.339 . S
C231 C232 1.439 . S
C231 H260 0.950 . S
C232 N228 1.383 . S
C232 C231 1.439 . S
C232 C250 1.392 . S
N233 Co217 2.282 . S
N233 C236 1.332 . S
N233 C238 1.332 . S
C234 C235 1.386 . S
C234 C237 1.388 . S
C235 C234 1.386 . S
C235 C236 1.382 . S
C235 H261 0.950 . S
C236 N233 1.332 . S
C236 C235 1.382 . S
C236 H247 0.952 . S
C237 C234 1.388 . S
C237 C238 1.382 . S
C237 H262 0.950 1_554 S
C238 N233 1.332 . S
C238 C237 1.382 . S
C238 H248 0.948 1_554 S
N239 Co217 2.282 . S
N239 C243 1.332 1_554 S
N239 C244 1.332 . S
C240 C241 1.359 1_554 S
C240 C244 1.382 . S
C240 H263 0.950 . S
C241 C240 1.359 1_556 S
C241 C242 1.408 . S
C242 C241 1.408 . S
C242 C243 1.382 . S
C242 H264 0.950 . S
C243 N239 1.332 1_556 S
C243 C242 1.382 . S
C243 H245 0.952 . S
C244 N239 1.332 . S
C244 C240 1.382 . S
C244 H246 0.948 . S
H245 C243 0.952 . S
H246 C244 0.948 . S
H247 C236 0.952 . S
H248 C238 0.948 1_556 S
C249 C215 1.395 . S
C249 C219 1.391 . S
C250 C212 1.389 1_554 S
C250 C232 1.392 . S
C251 C222 1.400 . S
C251 C224 1.389 . S
C252 C227 1.395 . S
C252 C229 1.391 . S
H253 C213 0.951 . S
H254 C214 0.950 . S
H255 C220 0.949 . S
H256 C221 0.950 . S
H257 C225 0.951 . S
H258 C226 0.950 . S
H259 C230 0.949 . S
H260 C231 0.950 . S
H261 C235 0.950 . S
H262 C237 0.950 1_556 S
H263 C240 0.950 . S
H264 C242 0.950 . S
C265 C266 1.443 . S
C265 N269 1.376 . S
C265 C303 1.389 . S
C266 C265 1.443 . S
C266 C267 1.340 . S
C266 H306 0.951 . S
C267 C266 1.340 . S
C267 C268 1.439 . S
C267 H307 0.950 . S
C268 C267 1.439 . S
C268 N269 1.374 . S
C268 C302 1.395 . S
N269 C265 1.376 . S
N269 C268 1.374 . S
N269 Co270 2.008 . S
Co270 N269 2.008 . S
Co270 N271 1.995 . S
Co270 N276 2.008 . S
Co270 N281 1.995 . S
Co270 N286 2.282 . S
Co270 N292 2.282 . S
N271 Co270 1.995 . S
N271 C272 1.376 . S
N271 C275 1.383 . S
C272 N271 1.376 . S
C272 C273 1.446 . S
C272 C302 1.391 . S
C273 C272 1.446 . S
C273 C274 1.339 . S
C273 H308 0.949 . S
C274 C273 1.339 . S
C274 C275 1.439 . S
C274 H309 0.950 . S
C275 N271 1.383 . S
C275 C274 1.439 . S
C275 C304 1.392 . S
N276 Co270 2.008 . S
N276 C277 1.376 . S
N276 C280 1.374 . S
C277 N276 1.376 . S
C277 C278 1.443 . S
C277 C304 1.389 . S
C278 C277 1.443 . S
C278 C279 1.340 . S
C278 H310 0.951 . S
C279 C278 1.340 . S
C279 C280 1.439 . S
C279 H311 0.950 . S
C280 N276 1.374 . S
C280 C279 1.439 . S
C280 C305 1.395 . S
N281 Co270 1.995 . S
N281 C282 1.376 . S
N281 C285 1.383 . S
C282 N281 1.376 . S
C282 C283 1.446 . S
C282 C305 1.391 . S
C283 C282 1.446 . S
C283 C284 1.339 . S
C283 H312 0.949 . S
C284 C283 1.339 . S
C284 C285 1.439 . S
C284 H313 0.950 . S
C285 N281 1.383 . S
C285 C284 1.439 . S
C285 C303 1.392 . S
N286 Co270 2.282 . S
N286 C289 1.332 . S
N286 C291 1.332 . S
C287 C288 1.386 . S
C287 C290 1.388 . S
C288 C287 1.386 . S
C288 C289 1.382 . S
C288 H314 0.950 . S
C289 N286 1.332 . S
C289 C288 1.382 . S
C289 H300 0.952 . S
C290 C287 1.388 . S
C290 C291 1.382 . S
C290 H315 0.950 . S
C291 N286 1.332 . S
C291 C290 1.382 . S
C291 H301 0.948 . S
N292 Co270 2.282 . S
N292 C296 1.332 . S
N292 C297 1.332 . S
C293 C294 1.388 . S
C293 C297 1.382 . S
C293 H316 0.950 . S
C294 C293 1.388 . S
C294 C295 1.386 . S
C295 C294 1.386 . S
C295 C296 1.382 . S
C295 H317 0.950 . S
C296 N292 1.332 . S
C296 C295 1.382 . S
C296 H298 0.952 . S
C297 N292 1.332 . S
C297 C293 1.382 . S
C297 H299 0.948 . S
H298 C296 0.952 . S
H299 C297 0.948 . S
H300 C289 0.952 . S
H301 C291 0.948 . S
C302 C268 1.395 . S
C302 C272 1.391 . S
C303 C265 1.389 . S
C303 C285 1.392 . S
C304 C275 1.392 . S
C304 C277 1.389 . S
C305 C280 1.395 . S
C305 C282 1.391 . S
H306 C266 0.951 . S
H307 C267 0.950 . S
H308 C273 0.949 . S
H309 C274 0.950 . S
H310 C278 0.951 . S
H311 C279 0.950 . S
H312 C283 0.949 . S
H313 C284 0.950 . S
H314 C288 0.950 . S
H315 C290 0.950 . S
H316 C293 0.950 . S
H317 C295 0.950 . S
C318 C319 1.443 . S
C318 N322 1.376 . S
C318 C356 1.389 . S
C319 C318 1.443 . S
C319 C320 1.340 . S
C319 H359 0.951 . S
C320 C319 1.340 . S
C320 C321 1.439 . S
C320 H360 0.950 . S
C321 C320 1.439 . S
C321 N322 1.374 . S
C321 C355 1.395 . S
N322 C318 1.376 . S
N322 C321 1.374 . S
N322 Co323 2.008 . S
Co323 N322 2.008 . S
Co323 N324 1.995 . S
Co323 N329 2.008 . S
Co323 N334 1.995 . S
Co323 N339 2.282 . S
Co323 N345 2.282 . S
N324 Co323 1.995 . S
N324 C325 1.376 . S
N324 C328 1.383 . S
C325 N324 1.376 . S
C325 C326 1.446 . S
C325 C355 1.391 . S
C326 C325 1.446 . S
C326 C327 1.339 . S
C326 H361 0.949 . S
C327 C326 1.339 . S
C327 C328 1.439 . S
C327 H362 0.950 . S
C328 N324 1.383 . S
C328 C327 1.439 . S
C328 C357 1.392 . S
N329 Co323 2.008 . S
N329 C330 1.376 . S
N329 C333 1.374 . S
C330 N329 1.376 . S
C330 C331 1.443 . S
C330 C357 1.389 . S
C331 C330 1.443 . S
C331 C332 1.340 . S
C331 H363 0.951 . S
C332 C331 1.340 . S
C332 C333 1.439 . S
C332 H364 0.950 . S
C333 N329 1.374 . S
C333 C332 1.439 . S
C333 C358 1.395 . S
N334 Co323 1.995 . S
N334 C335 1.376 . S
N334 C338 1.383 . S
C335 N334 1.376 . S
C335 C336 1.446 . S
C335 C358 1.391 . S
C336 C335 1.446 . S
C336 C337 1.339 . S
C336 H365 0.949 . S
C337 C336 1.339 . S
C337 C338 1.439 . S
C337 H366 0.950 . S
C338 N334 1.383 . S
C338 C337 1.439 . S
C338 C356 1.392 . S
N339 Co323 2.282 . S
N339 C342 1.332 . S
N339 C344 1.332 . S
C340 C341 1.386 . S
C340 C343 1.388 . S
C341 C340 1.386 . S
C341 C342 1.382 . S
C341 H367 0.950 . S
C342 N339 1.332 . S
C342 C341 1.382 . S
C342 H353 0.952 . S
C343 C340 1.388 . S
C343 C344 1.382 . S
C343 H368 0.950 . S
C344 N339 1.332 . S
C344 C343 1.382 . S
C344 H354 0.948 . S
N345 Co323 2.282 . S
N345 C349 1.332 . S
N345 C350 1.332 . S
C346 C347 1.388 . S
C346 C350 1.382 . S
C346 H369 0.950 . S
C347 C346 1.388 . S
C347 C348 1.386 . S
C348 C347 1.386 . S
C348 C349 1.382 . S
C348 H370 0.950 . S
C349 N345 1.332 . S
C349 C348 1.382 . S
C349 H351 0.952 . S
C350 N345 1.332 . S
C350 C346 1.382 . S
C350 H352 0.948 . S
H351 C349 0.952 . S
H352 C350 0.948 . S
H353 C342 0.952 . S
H354 C344 0.948 . S
C355 C321 1.395 . S
C355 C325 1.391 . S
C356 C318 1.389 . S
C356 C338 1.392 . S
C357 C328 1.392 . S
C357 C330 1.389 . S
C358 C333 1.395 . S
C358 C335 1.391 . S
H359 C319 0.951 . S
H360 C320 0.950 . S
H361 C326 0.949 . S
H362 C327 0.950 . S
H363 C331 0.951 . S
H364 C332 0.950 . S
H365 C336 0.949 . S
H366 C337 0.950 . S
H367 C341 0.950 . S
H368 C343 0.950 . S
H369 C346 0.950 . S
H370 C348 0.950 . S
C371 C372 1.443 . S
C371 N375 1.376 . S
C371 C409 1.389 . S
C372 C371 1.443 . S
C372 C373 1.340 . S
C372 H412 0.951 . S
C373 C372 1.340 . S
C373 C374 1.439 . S
C373 H413 0.950 . S
C374 C373 1.439 . S
C374 N375 1.374 . S
C374 C408 1.395 . S
N375 C371 1.376 . S
N375 C374 1.374 . S
N375 Co376 2.008 . S
Co376 N375 2.008 . S
Co376 N377 1.995 . S
Co376 N382 2.008 . S
Co376 N387 1.995 . S
Co376 N392 2.282 . S
Co376 N398 2.282 . S
N377 Co376 1.995 . S
N377 C378 1.376 . S
N377 C381 1.383 . S
C378 N377 1.376 . S
C378 C379 1.446 . S
C378 C408 1.391 . S
C379 C378 1.446 . S
C379 C380 1.339 . S
C379 H414 0.949 . S
C380 C379 1.339 . S
C380 C381 1.439 . S
C380 H415 0.950 . S
C381 N377 1.383 . S
C381 C380 1.439 . S
C381 C410 1.392 . S
N382 Co376 2.008 . S
N382 C383 1.376 . S
N382 C386 1.374 . S
C383 N382 1.376 . S
C383 C384 1.443 . S
C383 C410 1.389 . S
C384 C383 1.443 . S
C384 C385 1.340 . S
C384 H416 0.951 . S
C385 C384 1.340 . S
C385 C386 1.439 . S
C385 H417 0.950 . S
C386 N382 1.374 . S
C386 C385 1.439 . S
C386 C411 1.395 . S
N387 Co376 1.995 . S
N387 C388 1.376 . S
N387 C391 1.383 . S
C388 N387 1.376 . S
C388 C389 1.446 . S
C388 C411 1.391 . S
C389 C388 1.446 . S
C389 C390 1.339 . S
C389 H418 0.949 . S
C390 C389 1.339 . S
C390 C391 1.439 . S
C390 H419 0.950 . S
C391 N387 1.383 . S
C391 C390 1.439 . S
C391 C409 1.392 . S
N392 Co376 2.282 . S
N392 C395 1.332 . S
N392 C397 1.332 . S
C393 C394 1.386 . S
C393 C396 1.388 . S
C394 C393 1.386 . S
C394 C395 1.382 . S
C394 H420 0.950 . S
C395 N392 1.332 . S
C395 C394 1.382 . S
C395 H406 0.952 . S
C396 C393 1.388 . S
C396 C397 1.382 . S
C396 H421 0.950 . S
C397 N392 1.332 . S
C397 C396 1.382 . S
C397 H407 0.948 . S
N398 Co376 2.282 . S
N398 C402 1.332 . S
N398 C403 1.332 . S
C399 C400 1.388 . S
C399 C403 1.382 . S
C399 H422 0.950 . S
C400 C399 1.388 . S
C400 C401 1.386 . S
C401 C400 1.386 . S
C401 C402 1.382 . S
C401 H423 0.950 . S
C402 N398 1.332 . S
C402 C401 1.382 . S
C402 H404 0.952 . S
C403 N398 1.332 . S
C403 C399 1.382 . S
C403 H405 0.948 . S
H404 C402 0.952 . S
H405 C403 0.948 . S
H406 C395 0.952 . S
H407 C397 0.948 . S
C408 C374 1.395 . S
C408 C378 1.391 . S
C409 C371 1.389 . S
C409 C391 1.392 . S
C410 C381 1.392 . S
C410 C383 1.389 . S
C411 C386 1.395 . S
C411 C388 1.391 . S
H412 C372 0.951 . S
H413 C373 0.950 . S
H414 C379 0.949 . S
H415 C380 0.950 . S
H416 C384 0.951 . S
H417 C385 0.950 . S
H418 C389 0.949 . S
H419 C390 0.950 . S
H420 C394 0.950 . S
H421 C396 0.950 . S
H422 C399 0.950 . S
H423 C401 0.950 . S
C424 C425 1.443 . S
C424 N428 1.376 . S
C424 C462 1.389 . S
C425 C424 1.443 . S
C425 C426 1.340 . S
C425 H465 0.951 . S
C426 C425 1.340 . S
C426 C427 1.439 . S
C426 H466 0.950 . S
C427 C426 1.439 . S
C427 N428 1.374 . S
C427 C461 1.395 . S
N428 C424 1.376 . S
N428 C427 1.374 . S
N428 Co429 2.008 . S
Co429 N428 2.008 . S
Co429 N430 1.995 . S
Co429 N435 2.008 . S
Co429 N440 1.995 . S
Co429 N445 2.282 . S
Co429 N451 2.282 . S
N430 Co429 1.995 . S
N430 C431 1.376 . S
N430 C434 1.383 . S
C431 N430 1.376 . S
C431 C432 1.446 . S
C431 C461 1.391 . S
C432 C431 1.446 . S
C432 C433 1.339 . S
C432 H467 0.949 . S
C433 C432 1.339 . S
C433 C434 1.439 . S
C433 H468 0.950 . S
C434 N430 1.383 . S
C434 C433 1.439 . S
C434 C463 1.392 . S
N435 Co429 2.008 . S
N435 C436 1.376 . S
N435 C439 1.374 . S
C436 N435 1.376 . S
C436 C437 1.443 . S
C436 C463 1.389 . S
C437 C436 1.443 . S
C437 C438 1.340 . S
C437 H469 0.951 . S
C438 C437 1.340 . S
C438 C439 1.439 . S
C438 H470 0.950 . S
C439 N435 1.374 . S
C439 C438 1.439 . S
C439 C464 1.395 . S
N440 Co429 1.995 . S
N440 C441 1.376 . S
N440 C444 1.383 . S
C441 N440 1.376 . S
C441 C442 1.446 . S
C441 C464 1.391 . S
C442 C441 1.446 . S
C442 C443 1.339 . S
C442 H471 0.949 . S
C443 C442 1.339 . S
C443 C444 1.439 . S
C443 H472 0.950 . S
C444 N440 1.383 . S
C444 C443 1.439 . S
C444 C462 1.392 . S
N445 Co429 2.282 . S
N445 C448 1.332 . S
N445 C450 1.332 . S
C446 C447 1.386 . S
C446 C449 1.388 . S
C447 C446 1.386 . S
C447 C448 1.382 . S
C447 H473 0.950 . S
C448 N445 1.332 . S
C448 C447 1.382 . S
C448 H459 0.952 . S
C449 C446 1.388 . S
C449 C450 1.382 . S
C449 H474 0.950 . S
C450 N445 1.332 . S
C450 C449 1.382 . S
C450 H460 0.948 . S
N451 Co429 2.282 . S
N451 C455 1.332 . S
N451 C456 1.332 . S
C452 C453 1.388 . S
C452 C456 1.382 . S
C452 H475 0.950 . S
C453 C452 1.388 . S
C453 C454 1.386 . S
C454 C453 1.386 . S
C454 C455 1.382 . S
C454 H476 0.950 . S
C455 N451 1.332 . S
C455 C454 1.382 . S
C455 H457 0.952 . S
C456 N451 1.332 . S
C456 C452 1.382 . S
C456 H458 0.948 . S
H457 C455 0.952 . S
H458 C456 0.948 . S
H459 C448 0.952 . S
H460 C450 0.948 . S
C461 C427 1.395 . S
C461 C431 1.391 . S
C462 C424 1.389 . S
C462 C444 1.392 . S
C463 C434 1.392 . S
C463 C436 1.389 . S
C464 C439 1.395 . S
C464 C441 1.391 . S
H465 C425 0.951 . S
H466 C426 0.950 . S
H467 C432 0.949 . S
H468 C433 0.950 . S
H469 C437 0.951 . S
H470 C438 0.950 . S
H471 C442 0.949 . S
H472 C443 0.950 . S
H473 C447 0.950 . S
H474 C449 0.950 . S
H475 C452 0.950 . S
H476 C454 0.950 . S
C477 C478 1.443 . S
C477 N481 1.376 . S
C477 C515 1.389 . S
C478 C477 1.443 . S
C478 C479 1.340 . S
C478 H518 0.951 . S
C479 C478 1.340 . S
C479 C480 1.439 . S
C479 H519 0.950 . S
C480 C479 1.439 . S
C480 N481 1.374 . S
C480 C514 1.395 . S
N481 C477 1.376 . S
N481 C480 1.374 . S
N481 Co482 2.008 . S
Co482 N481 2.008 . S
Co482 N483 1.995 . S
Co482 N488 2.008 . S
Co482 N493 1.995 . S
Co482 N498 2.282 . S
Co482 N504 2.282 . S
N483 Co482 1.995 . S
N483 C484 1.376 . S
N483 C487 1.383 . S
C484 N483 1.376 . S
C484 C485 1.446 . S
C484 C514 1.391 . S
C485 C484 1.446 . S
C485 C486 1.339 . S
C485 H520 0.949 . S
C486 C485 1.339 . S
C486 C487 1.439 . S
C486 H521 0.950 . S
C487 N483 1.383 . S
C487 C486 1.439 . S
C487 C516 1.392 . S
N488 Co482 2.008 . S
N488 C489 1.376 . S
N488 C492 1.374 . S
C489 N488 1.376 . S
C489 C490 1.443 . S
C489 C516 1.389 . S
C490 C489 1.443 . S
C490 C491 1.340 . S
C490 H522 0.951 . S
C491 C490 1.340 . S
C491 C492 1.439 . S
C491 H523 0.950 . S
C492 N488 1.374 . S
C492 C491 1.439 . S
C492 C517 1.395 . S
N493 Co482 1.995 . S
N493 C494 1.376 . S
N493 C497 1.383 . S
C494 N493 1.376 . S
C494 C495 1.446 . S
C494 C517 1.391 . S
C495 C494 1.446 . S
C495 C496 1.339 . S
C495 H524 0.949 . S
C496 C495 1.339 . S
C496 C497 1.439 . S
C496 H525 0.950 . S
C497 N493 1.383 . S
C497 C496 1.439 . S
C497 C515 1.392 . S
N498 Co482 2.282 . S
N498 C501 1.332 . S
N498 C503 1.332 . S
C499 C500 1.386 . S
C499 C502 1.388 . S
C500 C499 1.386 . S
C500 C501 1.382 . S
C500 H526 0.950 . S
C501 N498 1.332 . S
C501 C500 1.382 . S
C501 H512 0.952 . S
C502 C499 1.388 . S
C502 C503 1.382 . S
C502 H527 0.950 . S
C503 N498 1.332 . S
C503 C502 1.382 . S
C503 H513 0.948 . S
N504 Co482 2.282 . S
N504 C508 1.332 . S
N504 C509 1.332 . S
C505 C506 1.388 . S
C505 C509 1.382 . S
C505 H528 0.950 . S
C506 C505 1.388 . S
C506 C507 1.386 . S
C507 C506 1.386 . S
C507 C508 1.382 . S
C507 H529 0.950 . S
C508 N504 1.332 . S
C508 C507 1.382 . S
C508 H510 0.952 . S
C509 N504 1.332 . S
C509 C505 1.382 . S
C509 H511 0.948 . S
H510 C508 0.952 . S
H511 C509 0.948 . S
H512 C501 0.952 . S
H513 C503 0.948 . S
C514 C480 1.395 . S
C514 C484 1.391 . S
C515 C477 1.389 . S
C515 C497 1.392 . S
C516 C487 1.392 . S
C516 C489 1.389 . S
C517 C492 1.395 . S
C517 C494 1.391 . S
H518 C478 0.951 . S
H519 C479 0.950 . S
H520 C485 0.949 . S
H521 C486 0.950 . S
H522 C490 0.951 . S
H523 C491 0.950 . S
H524 C495 0.949 . S
H525 C496 0.950 . S
H526 C500 0.950 . S
H527 C502 0.950 . S
H528 C505 0.950 . S
H529 C507 0.950 . S
C530 C531 1.443 . S
C530 N534 1.376 . S
C530 C568 1.389 . S
C531 C530 1.443 . S
C531 C532 1.340 . S
C531 H571 0.951 . S
C532 C531 1.340 . S
C532 C533 1.439 . S
C532 H572 0.950 . S
C533 C532 1.439 . S
C533 N534 1.374 . S
C533 C567 1.395 . S
N534 C530 1.376 . S
N534 C533 1.374 . S
N534 Co535 2.008 . S
Co535 N534 2.008 . S
Co535 N536 1.995 . S
Co535 N541 2.008 1_545 S
Co535 N546 1.995 1_545 S
Co535 N551 2.282 . S
Co535 N557 2.282 . S
N536 Co535 1.995 . S
N536 C537 1.376 . S
N536 C540 1.383 . S
C537 N536 1.376 . S
C537 C538 1.446 . S
C537 C567 1.391 . S
C538 C537 1.446 . S
C538 C539 1.339 . S
C538 H573 0.949 . S
C539 C538 1.339 . S
C539 C540 1.439 . S
C539 H574 0.950 . S
C540 N536 1.383 . S
C540 C539 1.439 . S
C540 C569 1.392 1_545 S
N541 Co535 2.008 1_565 S
N541 C542 1.376 . S
N541 C545 1.374 . S
C542 N541 1.376 . S
C542 C543 1.443 . S
C542 C569 1.389 . S
C543 C542 1.443 . S
C543 C544 1.340 . S
C543 H575 0.951 . S
C544 C543 1.340 . S
C544 C545 1.439 . S
C544 H576 0.950 . S
C545 N541 1.374 . S
C545 C544 1.439 . S
C545 C570 1.395 . S
N546 Co535 1.995 1_565 S
N546 C547 1.376 . S
N546 C550 1.383 . S
C547 N546 1.376 . S
C547 C548 1.446 . S
C547 C570 1.391 . S
C548 C547 1.446 . S
C548 C549 1.339 . S
C548 H577 0.949 . S
C549 C548 1.339 . S
C549 C550 1.439 . S
C549 H578 0.950 . S
C550 N546 1.383 . S
C550 C549 1.439 . S
C550 C568 1.392 1_565 S
N551 Co535 2.282 . S
N551 C554 1.332 1_545 S
N551 C556 1.332 . S
C552 C553 1.386 . S
C552 C555 1.388 1_565 S
C553 C552 1.386 . S
C553 C554 1.382 . S
C553 H579 0.950 . S
C554 N551 1.332 1_565 S
C554 C553 1.382 . S
C554 H565 0.952 . S
C555 C552 1.388 1_545 S
C555 C556 1.382 . S
C555 H580 0.950 . S
C556 N551 1.332 . S
C556 C555 1.382 . S
C556 H566 0.948 . S
N557 Co535 2.282 . S
N557 C561 1.332 . S
N557 C562 1.332 . S
C558 C559 1.388 . S
C558 C562 1.382 . S
C558 H581 0.950 1_545 S
C559 C558 1.388 . S
C559 C560 1.386 . S
C560 C559 1.386 . S
C560 C561 1.382 . S
C560 H582 0.950 . S
C561 N557 1.332 . S
C561 C560 1.382 . S
C561 H563 0.952 . S
C562 N557 1.332 . S
C562 C558 1.382 . S
C562 H564 0.948 1_545 S
H563 C561 0.952 . S
H564 C562 0.948 1_565 S
H565 C554 0.952 . S
H566 C556 0.948 . S
C567 C533 1.395 . S
C567 C537 1.391 . S
C568 C530 1.389 . S
C568 C550 1.392 1_545 S
C569 C540 1.392 1_565 S
C569 C542 1.389 . S
C570 C545 1.395 . S
C570 C547 1.391 . S
H571 C531 0.951 . S
H572 C532 0.950 . S
H573 C538 0.949 . S
H574 C539 0.950 . S
H575 C543 0.951 . S
H576 C544 0.950 . S
H577 C548 0.949 . S
H578 C549 0.950 . S
H579 C553 0.950 . S
H580 C555 0.950 . S
H581 C558 0.950 1_565 S
H582 C560 0.950 . S
C583 C584 1.443 . S
C583 N587 1.376 . S
C583 C621 1.389 . S
C584 C583 1.443 . S
C584 C585 1.340 . S
C584 H624 0.951 . S
C585 C584 1.340 . S
C585 C586 1.439 . S
C585 H625 0.950 . S
C586 C585 1.439 . S
C586 N587 1.374 . S
C586 C620 1.395 . S
N587 C583 1.376 . S
N587 C586 1.374 . S
N587 Co588 2.008 1_556 S
Co588 N587 2.008 1_554 S
Co588 N589 1.995 1_554 S
Co588 N594 2.008 . S
Co588 N599 1.995 . S
Co588 N604 2.282 . S
Co588 N610 2.282 1_554 S
N589 Co588 1.995 1_556 S
N589 C590 1.376 . S
N589 C593 1.383 . S
C590 N589 1.376 . S
C590 C591 1.446 . S
C590 C620 1.391 . S
C591 C590 1.446 . S
C591 C592 1.339 . S
C591 H626 0.949 . S
C592 C591 1.339 . S
C592 C593 1.439 . S
C592 H627 0.950 . S
C593 N589 1.383 . S
C593 C592 1.439 . S
C593 C622 1.392 1_556 S
N594 Co588 2.008 . S
N594 C595 1.376 . S
N594 C598 1.374 . S
C595 N594 1.376 . S
C595 C596 1.443 . S
C595 C622 1.389 . S
C596 C595 1.443 . S
C596 C597 1.340 . S
C596 H628 0.951 . S
C597 C596 1.340 . S
C597 C598 1.439 . S
C597 H629 0.950 . S
C598 N594 1.374 . S
C598 C597 1.439 . S
C598 C623 1.395 . S
N599 Co588 1.995 . S
N599 C600 1.376 . S
N599 C603 1.383 . S
C600 N599 1.376 . S
C600 C601 1.446 . S
C600 C623 1.391 . S
C601 C600 1.446 . S
C601 C602 1.339 . S
C601 H630 0.949 . S
C602 C601 1.339 . S
C602 C603 1.439 . S
C602 H631 0.950 . S
C603 N599 1.383 . S
C603 C602 1.439 . S
C603 C621 1.392 1_554 S
N604 Co588 2.282 . S
N604 C607 1.332 . S
N604 C609 1.332 1_554 S
C605 C606 1.386 . S
C605 C608 1.388 1_554 S
C606 C605 1.386 . S
C606 C607 1.382 . S
C606 H632 0.950 . S
C607 N604 1.332 . S
C607 C606 1.382 . S
C607 H618 0.952 . S
C608 C605 1.388 1_556 S
C608 C609 1.382 . S
C608 H633 0.950 . S
C609 N604 1.332 1_556 S
C609 C608 1.382 . S
C609 H619 0.948 . S
N610 Co588 2.282 1_556 S
N610 C614 1.332 . S
N610 C615 1.332 1_556 S
C611 C612 1.388 1_554 S
C611 C615 1.382 . S
C611 H634 0.950 . S
C612 C611 1.388 1_556 S
C612 C613 1.386 . S
C613 C612 1.386 . S
C613 C614 1.382 . S
C613 H635 0.950 . S
C614 N610 1.332 . S
C614 C613 1.382 . S
C614 H616 0.952 . S
C615 N610 1.332 1_554 S
C615 C611 1.382 . S
C615 H617 0.948 . S
H616 C614 0.952 . S
H617 C615 0.948 . S
H618 C607 0.952 . S
H619 C609 0.948 . S
C620 C586 1.395 . S
C620 C590 1.391 . S
C621 C583 1.389 . S
C621 C603 1.392 1_556 S
C622 C593 1.392 1_554 S
C622 C595 1.389 . S
C623 C598 1.395 . S
C623 C600 1.391 . S
H624 C584 0.951 . S
H625 C585 0.950 . S
H626 C591 0.949 . S
H627 C592 0.950 . S
H628 C596 0.951 . S
H629 C597 0.950 . S
H630 C601 0.949 . S
H631 C602 0.950 . S
H632 C606 0.950 . S
H633 C608 0.950 . S
H634 C611 0.950 . S
H635 C613 0.950 . S
O636 Zn637 1.953 . S
O636 C652 1.225 . S
Zn637 O636 1.953 . S
Zn637 O638 1.949 . S
Zn637 O644 1.919 . S
Zn637 O649 1.924 . S
O638 Zn637 1.949 . S
O638 Zn639 1.923 . S
O638 Zn640 1.950 . S
O638 Zn641 1.945 . S
Zn639 O638 1.923 . S
Zn639 O642 1.933 . S
Zn639 O645 1.941 . S
Zn639 O646 1.965 . S
Zn640 O638 1.950 . S
Zn640 O647 1.938 . S
Zn640 O648 1.906 1_554 S
Zn640 O658 1.953 . S
Zn641 O638 1.945 . S
Zn641 O643 1.932 . S
Zn641 O650 1.977 1_554 S
Zn641 O651 1.910 1_545 S
O642 Zn639 1.933 . S
O642 C653 1.226 . S
O643 Zn641 1.932 . S
O643 C653 1.307 . S
O644 Zn637 1.919 . S
O644 C655 1.253 . S
O645 Zn639 1.941 . S
O645 C655 1.283 . S
O646 Zn639 1.965 . S
O646 C654 1.303 . S
O647 Zn640 1.938 . S
O647 C654 1.247 . S
O648 Zn640 1.906 1_556 S
O648 C656 1.304 . S
O649 Zn637 1.924 . S
O649 C657 1.311 1_545 S
O650 Zn641 1.977 1_556 S
O650 C656 1.272 . S
O651 Zn641 1.910 1_565 S
O651 C657 1.231 . S
C652 O636 1.225 . S
C652 O658 1.298 . S
C653 O642 1.226 . S
C653 O643 1.307 . S
C654 O646 1.303 . S
C654 O647 1.247 . S
C655 O644 1.253 . S
C655 O645 1.283 . S
C656 O648 1.304 . S
C656 O650 1.272 . S
C657 O649 1.311 1_565 S
C657 O651 1.231 . S
O658 Zn640 1.953 . S
O658 C652 1.298 . S
O659 Zn660 1.953 . S
O659 C675 1.225 . S
Zn660 O659 1.953 . S
Zn660 O661 1.949 . S
Zn660 O667 1.919 . S
Zn660 O672 1.924 . S
O661 Zn660 1.949 . S
O661 Zn662 1.923 . S
O661 Zn663 1.950 . S
O661 Zn664 1.945 . S
Zn662 O661 1.923 . S
Zn662 O665 1.933 1_655 S
Zn662 O668 1.941 . S
Zn662 O669 1.965 . S
Zn663 O661 1.950 . S
Zn663 O670 1.938 . S
Zn663 O671 1.906 1_554 S
Zn663 O681 1.953 . S
Zn664 O661 1.945 . S
Zn664 O666 1.932 1_655 S
Zn664 O673 1.977 1_554 S
Zn664 O674 1.910 . S
O665 Zn662 1.933 1_455 S
O665 C676 1.226 . S
O666 Zn664 1.932 1_455 S
O666 C676 1.307 . S
O667 Zn660 1.919 . S
O667 C678 1.253 . S
O668 Zn662 1.941 . S
O668 C678 1.283 . S
O669 Zn662 1.965 . S
O669 C677 1.303 . S
O670 Zn663 1.938 . S
O670 C677 1.247 . S
O671 Zn663 1.906 1_556 S
O671 C679 1.304 . S
O672 Zn660 1.924 . S
O672 C680 1.311 . S
O673 Zn664 1.977 1_556 S
O673 C679 1.272 . S
O674 Zn664 1.910 . S
O674 C680 1.231 . S
C675 O659 1.225 . S
C675 O681 1.298 . S
C676 O665 1.226 . S
C676 O666 1.307 . S
C677 O669 1.303 . S
C677 O670 1.247 . S
C678 O667 1.253 . S
C678 O668 1.283 . S
C679 O671 1.304 . S
C679 O673 1.272 . S
C680 O672 1.311 . S
C680 O674 1.231 . S
O681 Zn663 1.953 . S
O681 C675 1.298 . S
O682 Zn683 1.953 . S
O682 C698 1.225 . S
Zn683 O682 1.953 . S
Zn683 O684 1.949 . S
Zn683 O690 1.919 . S
Zn683 O695 1.924 . S
O684 Zn683 1.949 . S
O684 Zn685 1.923 . S
O684 Zn686 1.950 . S
O684 Zn687 1.945 . S
Zn685 O684 1.923 . S
Zn685 O688 1.933 . S
Zn685 O691 1.941 . S
Zn685 O692 1.965 . S
Zn686 O684 1.950 . S
Zn686 O693 1.938 . S
Zn686 O694 1.906 1_455 S
Zn686 O704 1.953 . S
Zn687 O684 1.945 . S
Zn687 O689 1.932 . S
Zn687 O696 1.977 1_455 S
Zn687 O697 1.910 . S
O688 Zn685 1.933 . S
O688 C699 1.226 1_565 S
O689 Zn687 1.932 . S
O689 C699 1.307 1_565 S
O690 Zn683 1.919 . S
O690 C701 1.253 . S
O691 Zn685 1.941 . S
O691 C701 1.283 . S
O692 Zn685 1.965 . S
O692 C700 1.303 . S
O693 Zn686 1.938 . S
O693 C700 1.247 . S
O694 Zn686 1.906 1_655 S
O694 C702 1.304 . S
O695 Zn683 1.924 . S
O695 C703 1.311 . S
O696 Zn687 1.977 1_655 S
O696 C702 1.272 . S
O697 Zn687 1.910 . S
O697 C703 1.231 . S
C698 O682 1.225 . S
C698 O704 1.298 . S
C699 O688 1.226 1_545 S
C699 O689 1.307 1_545 S
C700 O692 1.303 . S
C700 O693 1.247 . S
C701 O690 1.253 . S
C701 O691 1.283 . S
C702 O694 1.304 . S
C702 O696 1.272 . S
C703 O695 1.311 . S
C703 O697 1.231 . S
O704 Zn686 1.953 . S
O704 C698 1.298 . S
O705 Zn706 1.953 . S
O705 C721 1.225 . S
Zn706 O705 1.953 . S
Zn706 O707 1.949 . S
Zn706 O713 1.919 . S
Zn706 O718 1.924 1_655 S
O707 Zn706 1.949 . S
O707 Zn708 1.923 . S
O707 Zn709 1.950 . S
O707 Zn710 1.945 . S
Zn708 O707 1.923 . S
Zn708 O711 1.933 . S
Zn708 O714 1.941 . S
Zn708 O715 1.965 . S
Zn709 O707 1.950 . S
Zn709 O716 1.938 . S
Zn709 O717 1.906 . S
Zn709 O727 1.953 . S
Zn710 O707 1.945 . S
Zn710 O712 1.932 . S
Zn710 O719 1.977 . S
Zn710 O720 1.910 1_655 S
O711 Zn708 1.933 . S
O711 C722 1.226 . S
O712 Zn710 1.932 . S
O712 C722 1.307 . S
O713 Zn706 1.919 . S
O713 C724 1.253 . S
O714 Zn708 1.941 . S
O714 C724 1.283 . S
O715 Zn708 1.965 . S
O715 C723 1.303 . S
O716 Zn709 1.938 . S
O716 C723 1.247 . S
O717 Zn709 1.906 . S
O717 C725 1.304 . S
O718 Zn706 1.924 1_455 S
O718 C726 1.311 . S
O719 Zn710 1.977 . S
O719 C725 1.272 . S
O720 Zn710 1.910 1_455 S
O720 C726 1.231 . S
C721 O705 1.225 . S
C721 O727 1.298 . S
C722 O711 1.226 . S
C722 O712 1.307 . S
C723 O715 1.303 . S
C723 O716 1.247 . S
C724 O713 1.253 . S
C724 O714 1.283 . S
C725 O717 1.304 . S
C725 O719 1.272 . S
C726 O718 1.311 . S
C726 O720 1.231 . S
O727 Zn709 1.953 . S
O727 C721 1.298 . S
O728 Zn729 1.953 . S
O728 C744 1.225 . S
Zn729 O728 1.953 . S
Zn729 O730 1.949 . S
Zn729 O736 1.919 . S
Zn729 O741 1.924 . S
O730 Zn729 1.949 . S
O730 Zn731 1.923 . S
O730 Zn732 1.950 . S
O730 Zn733 1.945 . S
Zn731 O730 1.923 . S
Zn731 O734 1.933 . S
Zn731 O737 1.941 . S
Zn731 O738 1.965 . S
Zn732 O730 1.950 . S
Zn732 O739 1.938 . S
Zn732 O740 1.906 . S
Zn732 O750 1.953 . S
Zn733 O730 1.945 . S
Zn733 O735 1.932 . S
Zn733 O742 1.977 . S
Zn733 O743 1.910 1_565 S
O734 Zn731 1.933 . S
O734 C745 1.226 . S
O735 Zn733 1.932 . S
O735 C745 1.307 . S
O736 Zn729 1.919 . S
O736 C747 1.253 . S
O737 Zn731 1.941 . S
O737 C747 1.283 . S
O738 Zn731 1.965 . S
O738 C746 1.303 . S
O739 Zn732 1.938 . S
O739 C746 1.247 . S
O740 Zn732 1.906 . S
O740 C748 1.304 . S
O741 Zn729 1.924 . S
O741 C749 1.311 1_565 S
O742 Zn733 1.977 . S
O742 C748 1.272 . S
O743 Zn733 1.910 1_545 S
O743 C749 1.231 . S
C744 O728 1.225 . S
C744 O750 1.298 . S
C745 O734 1.226 . S
C745 O735 1.307 . S
C746 O738 1.303 . S
C746 O739 1.247 . S
C747 O736 1.253 . S
C747 O737 1.283 . S
C748 O740 1.304 . S
C748 O742 1.272 . S
C749 O741 1.311 1_545 S
C749 O743 1.231 . S
O750 Zn732 1.953 . S
O750 C744 1.298 . S
O751 Zn752 1.953 . S
O751 C767 1.225 . S
Zn752 O751 1.953 . S
Zn752 O753 1.949 . S
Zn752 O759 1.919 . S
Zn752 O764 1.924 . S
O753 Zn752 1.949 . S
O753 Zn754 1.923 . S
O753 Zn755 1.950 . S
O753 Zn756 1.945 . S
Zn754 O753 1.923 . S
Zn754 O757 1.933 . S
Zn754 O760 1.941 . S
Zn754 O761 1.965 . S
Zn755 O753 1.950 . S
Zn755 O762 1.938 . S
Zn755 O763 1.906 . S
Zn755 O773 1.953 . S
Zn756 O753 1.945 . S
Zn756 O758 1.932 . S
Zn756 O765 1.977 . S
Zn756 O766 1.910 . S
O757 Zn754 1.933 . S
O757 C768 1.226 . S
O758 Zn756 1.932 . S
O758 C768 1.307 . S
O759 Zn752 1.919 . S
O759 C770 1.253 . S
O760 Zn754 1.941 . S
O760 C770 1.283 . S
O761 Zn754 1.965 . S
O761 C769 1.303 . S
O762 Zn755 1.938 . S
O762 C769 1.247 . S
O763 Zn755 1.906 . S
O763 C771 1.304 . S
O764 Zn752 1.924 . S
O764 C772 1.311 . S
O765 Zn756 1.977 . S
O765 C771 1.272 . S
O766 Zn756 1.910 . S
O766 C772 1.231 . S
C767 O751 1.225 . S
C767 O773 1.298 . S
C768 O757 1.226 . S
C768 O758 1.307 . S
C769 O761 1.303 . S
C769 O762 1.247 . S
C770 O759 1.253 . S
C770 O760 1.283 . S
C771 O763 1.304 . S
C771 O765 1.272 . S
C772 O764 1.311 . S
C772 O766 1.231 . S
O773 Zn755 1.953 . S
O773 C767 1.298 . S
O774 Zn775 1.953 . S
O774 C790 1.225 . S
Zn775 O774 1.953 . S
Zn775 O776 1.949 . S
Zn775 O782 1.919 . S
Zn775 O787 1.924 1_556 S
O776 Zn775 1.949 . S
O776 Zn777 1.923 . S
O776 Zn778 1.950 . S
O776 Zn779 1.927 1_556 S
Zn777 O776 1.923 . S
Zn777 O780 1.933 . S
Zn777 O783 1.941 . S
Zn777 O784 1.965 . S
Zn778 O776 1.950 . S
Zn778 O785 1.938 . S
Zn778 O786 1.906 . S
Zn778 O796 1.953 . S
Zn779 O776 1.927 1_554 S
Zn779 O781 1.917 1_554 S
Zn779 O788 1.986 . S
Zn779 O789 1.935 . S
O780 Zn777 1.933 . S
O780 C791 1.226 . S
O781 Zn779 1.917 1_556 S
O781 C791 1.307 . S
O782 Zn775 1.919 . S
O782 C793 1.253 . S
O783 Zn777 1.941 . S
O783 C793 1.283 . S
O784 Zn777 1.965 . S
O784 C792 1.303 . S
O785 Zn778 1.938 . S
O785 C792 1.247 . S
O786 Zn778 1.906 . S
O786 C794 1.304 1_556 S
O787 Zn775 1.924 1_554 S
O787 C795 1.311 . S
O788 Zn779 1.986 . S
O788 C794 1.272 . S
O789 Zn779 1.935 . S
O789 C795 1.231 . S
C790 O774 1.225 . S
C790 O796 1.298 . S
C791 O780 1.226 . S
C791 O781 1.307 . S
C792 O784 1.303 . S
C792 O785 1.247 . S
C793 O782 1.253 . S
C793 O783 1.283 . S
C794 O786 1.304 1_554 S
C794 O788 1.272 . S
C795 O787 1.311 . S
C795 O789 1.231 . S
O796 Zn778 1.953 . S
O796 C790 1.298 . S
O797 Zn798 1.953 . S
O797 C813 1.225 . S
Zn798 O797 1.953 . S
Zn798 O799 1.949 . S
Zn798 O805 1.919 . S
Zn798 O810 1.924 . S
O799 Zn798 1.949 . S
O799 Zn800 1.923 . S
O799 Zn801 1.950 . S
O799 Zn802 1.945 . S
Zn800 O799 1.923 . S
Zn800 O803 1.933 . S
Zn800 O806 1.941 . S
Zn800 O807 1.965 . S
Zn801 O799 1.950 . S
Zn801 O808 1.938 . S
Zn801 O809 1.906 1_545 S
Zn801 O819 1.953 . S
Zn802 O799 1.945 . S
Zn802 O804 1.932 1_556 S
Zn802 O811 1.977 . S
Zn802 O812 1.910 . S
O803 Zn800 1.933 . S
O803 C814 1.226 1_556 S
O804 Zn802 1.932 1_554 S
O804 C814 1.307 . S
O805 Zn798 1.919 . S
O805 C816 1.253 . S
O806 Zn800 1.941 . S
O806 C816 1.283 . S
O807 Zn800 1.965 . S
O807 C815 1.303 . S
O808 Zn801 1.938 . S
O808 C815 1.247 . S
O809 Zn801 1.906 1_565 S
O809 C817 1.304 . S
O810 Zn798 1.924 . S
O810 C818 1.311 . S
O811 Zn802 1.977 . S
O811 C817 1.272 1_545 S
O812 Zn802 1.910 . S
O812 C818 1.231 . S
C813 O797 1.225 . S
C813 O819 1.298 . S
C814 O803 1.226 1_554 S
C814 O804 1.307 . S
C815 O807 1.303 . S
C815 O808 1.247 . S
C816 O805 1.253 . S
C816 O806 1.283 . S
C817 O809 1.304 . S
C817 O811 1.272 1_565 S
C818 O810 1.311 . S
C818 O812 1.231 . S
O819 Zn801 1.953 . S
O819 C813 1.298 . S
C820 C821 1.387 . S
C820 H824 0.950 . S
C820 C829 1.390 . S
C821 C820 1.387 . S
C821 C823 1.387 1_455 S
H822 C829 0.950 . S
C823 C821 1.387 1_655 S
C823 C825 1.390 . S
C823 H827 0.950 . S
H824 C820 0.950 . S
C825 C823 1.390 . S
C825 C826 1.387 1_655 S
C825 H828 0.950 . S
C826 C825 1.387 1_455 S
C826 C829 1.387 . S
H827 C823 0.950 . S
H828 C825 0.950 . S
C829 C820 1.390 . S
C829 H822 0.950 . S
C829 C826 1.387 . S
C830 C831 1.387 1_455 S
C830 H834 0.950 . S
C830 C839 1.390 . S
C831 C830 1.387 1_655 S
C831 C833 1.387 . S
H832 C839 0.950 . S
C833 C831 1.387 . S
C833 C835 1.390 . S
C833 H837 0.950 . S
H834 C830 0.950 . S
C835 C833 1.390 . S
C835 C836 1.387 . S
C835 H838 0.950 . S
C836 C835 1.387 . S
C836 C839 1.387 1_655 S
H837 C833 0.950 . S
H838 C835 0.950 . S
C839 C830 1.390 . S
C839 H832 0.950 . S
C839 C836 1.387 1_455 S
C840 C841 1.387 . S
C840 H844 0.950 . S
C840 C849 1.390 . S
C841 C840 1.387 . S
C841 C843 1.387 . S
H842 C849 0.950 . S
C843 C841 1.387 . S
C843 C845 1.390 . S
C843 H847 0.950 . S
H844 C840 0.950 . S
C845 C843 1.390 . S
C845 C846 1.387 . S
C845 H848 0.950 . S
C846 C845 1.387 . S
C846 C849 1.387 . S
H847 C843 0.950 . S
H848 C845 0.950 . S
C849 C840 1.390 . S
C849 H842 0.950 . S
C849 C846 1.387 . S
C850 C851 1.374 1_655 S
C850 H854 0.950 . S
C850 C859 1.390 . S
C851 C850 1.374 1_455 S
C851 C853 1.399 . S
H852 C859 0.950 . S
C853 C851 1.399 . S
C853 C855 1.390 . S
C853 H857 0.950 . S
H854 C850 0.950 . S
C855 C853 1.390 . S
C855 C856 1.387 1_455 S
C855 H858 0.950 . S
C856 C855 1.387 1_655 S
C856 C859 1.387 . S
H857 C853 0.950 . S
H858 C855 0.950 . S
C859 C850 1.390 . S
C859 H852 0.950 . S
C859 C856 1.387 . S
C860 C861 1.387 . S
C860 H864 0.950 1_545 S
C860 C869 1.389 1_545 S
C861 C860 1.387 . S
C861 C863 1.387 . S
H862 C869 0.973 . S
C863 C861 1.387 . S
C863 C865 1.390 . S
C863 H867 0.950 . S
H864 C860 0.950 1_565 S
C865 C863 1.390 . S
C865 C866 1.387 . S
C865 H868 0.950 . S
C866 C865 1.387 . S
C866 C869 1.366 1_545 S
H867 C863 0.950 . S
H868 C865 0.950 . S
C869 C860 1.389 1_565 S
C869 H862 0.973 . S
C869 C866 1.366 1_565 S
C870 C871 1.387 . S
C870 H874 0.950 . S
C870 C879 1.390 . S
C871 C870 1.387 . S
C871 C873 1.387 . S
H872 C879 0.950 . S
C873 C871 1.387 . S
C873 C875 1.390 . S
C873 H877 0.950 . S
H874 C870 0.950 . S
C875 C873 1.390 . S
C875 C876 1.387 . S
C875 H878 0.950 . S
C876 C875 1.387 . S
C876 C879 1.387 . S
H877 C873 0.950 . S
H878 C875 0.950 . S
C879 C870 1.390 . S
C879 H872 0.950 . S
C879 C876 1.387 . S
C880 C881 1.387 1_545 S
C880 H884 0.950 . S
C880 C889 1.390 . S
C881 C880 1.387 1_565 S
C881 C883 1.387 . S
H882 C889 0.950 . S
C883 C881 1.387 . S
C883 C885 1.390 . S
C883 H887 0.950 . S
H884 C880 0.950 . S
C885 C883 1.390 . S
C885 C886 1.387 . S
C885 H888 0.950 . S
C886 C885 1.387 . S
C886 C889 1.387 1_565 S
H887 C883 0.950 . S
H888 C885 0.950 . S
C889 C880 1.390 . S
C889 H882 0.950 . S
C889 C886 1.387 1_545 S
C890 C891 1.387 . S
C890 H894 0.950 . S
C890 C899 1.390 . S
C891 C890 1.387 . S
C891 C893 1.387 . S
H892 C899 0.950 . S
C893 C891 1.387 . S
C893 C895 1.390 . S
C893 H897 0.950 . S
H894 C890 0.950 . S
C895 C893 1.390 . S
C895 C896 1.387 . S
C895 H898 0.950 . S
C896 C895 1.387 . S
C896 C899 1.387 . S
H897 C893 0.950 . S
H898 C895 0.950 . S
C899 C890 1.390 . S
C899 H892 0.950 . S
C899 C896 1.387 . S
C900 C901 1.387 . S
C900 H904 0.950 1_554 S
C900 C909 1.390 1_554 S
C901 C900 1.387 . S
C901 C903 1.387 . S
H902 C909 0.950 . S
C903 C901 1.387 . S
C903 C905 1.390 . S
C903 H907 0.950 . S
H904 C900 0.950 1_556 S
C905 C903 1.390 . S
C905 C906 1.387 . S
C905 H908 0.950 . S
C906 C905 1.387 . S
C906 C909 1.387 1_554 S
H907 C903 0.950 . S
H908 C905 0.950 . S
C909 C900 1.390 1_556 S
C909 H902 0.950 . S
C909 C906 1.387 1_556 S
C910 C911 1.387 . S
C910 H914 0.950 . S
C910 C919 1.390 . S
C911 C910 1.387 . S
C911 C913 1.387 . S
H912 C919 0.950 . S
C913 C911 1.387 . S
C913 C915 1.390 . S
C913 H917 0.950 . S
H914 C910 0.950 . S
C915 C913 1.390 . S
C915 C916 1.387 . S
C915 H918 0.950 . S
C916 C915 1.387 . S
C916 C919 1.387 . S
H917 C913 0.950 . S
H918 C915 0.950 . S
C919 C910 1.390 . S
C919 H912 0.950 . S
C919 C916 1.387 . S
C920 C921 1.387 . S
C920 H924 0.950 . S
C920 C929 1.390 . S
C921 C920 1.387 . S
C921 C923 1.387 . S
H922 C929 0.950 . S
C923 C921 1.387 . S
C923 C925 1.390 . S
C923 H927 0.950 . S
H924 C920 0.950 . S
C925 C923 1.390 . S
C925 C926 1.387 . S
C925 H928 0.950 . S
C926 C925 1.387 . S
C926 C929 1.387 . S
H927 C923 0.950 . S
H928 C925 0.950 . S
C929 C920 1.390 . S
C929 H922 0.950 . S
C929 C926 1.387 . S
C930 C931 1.387 . S
C930 H934 0.950 . S
C930 C939 1.390 . S
C931 C930 1.387 . S
C931 C933 1.387 . S
H932 C939 0.950 . S
C933 C931 1.387 . S
C933 C935 1.390 . S
C933 H937 0.950 . S
H934 C930 0.950 . S
C935 C933 1.390 . S
C935 C936 1.387 . S
C935 H938 0.950 . S
C936 C935 1.387 . S
C936 C939 1.387 . S
H937 C933 0.950 . S
H938 C935 0.950 . S
C939 C930 1.390 . S
C939 H932 0.950 . S
C939 C936 1.387 . S
C940 C941 1.387 . S
C940 H944 0.950 . S
C940 C949 1.390 . S
C941 C940 1.387 . S
C941 C943 1.387 . S
H942 C949 0.950 . S
C943 C941 1.387 . S
C943 C945 1.390 . S
C943 H947 0.950 . S
H944 C940 0.950 . S
C945 C943 1.390 . S
C945 C946 1.387 . S
C945 H948 0.950 . S
C946 C945 1.387 . S
C946 C949 1.387 . S
H947 C943 0.950 . S
H948 C945 0.950 . S
C949 C940 1.390 . S
C949 H942 0.950 . S
C949 C946 1.387 . S
C950 C951 1.387 . S
C950 H954 0.950 . S
C950 C959 1.390 . S
C951 C950 1.387 . S
C951 C953 1.387 . S
H952 C959 0.950 . S
C953 C951 1.387 . S
C953 C955 1.390 . S
C953 H957 0.950 . S
H954 C950 0.950 . S
C955 C953 1.390 . S
C955 C956 1.387 . S
C955 H958 0.950 . S
C956 C955 1.387 . S
C956 C959 1.387 . S
H957 C953 0.950 . S
H958 C955 0.950 . S
C959 C950 1.390 . S
C959 H952 0.950 . S
C959 C956 1.387 . S
C960 C961 1.387 . S
C960 H964 0.950 . S
C960 C969 1.390 . S
C961 C960 1.387 . S
C961 C963 1.387 . S
H962 C969 0.950 . S
C963 C961 1.387 . S
C963 C965 1.390 . S
C963 H967 0.950 . S
H964 C960 0.950 . S
C965 C963 1.390 . S
C965 C966 1.387 . S
C965 H968 0.950 . S
C966 C965 1.387 . S
C966 C969 1.387 . S
H967 C963 0.950 . S
H968 C965 0.950 . S
C969 C960 1.390 . S
C969 H962 0.950 . S
C969 C966 1.387 . S
C970 C971 1.387 . S
C970 H974 0.950 . S
C970 C979 1.390 . S
C971 C970 1.387 . S
C971 C973 1.387 . S
H972 C979 0.950 . S
C973 C971 1.387 . S
C973 C975 1.390 . S
C973 H977 0.950 . S
H974 C970 0.950 . S
C975 C973 1.390 . S
C975 C976 1.387 . S
C975 H978 0.950 . S
C976 C975 1.387 . S
C976 C979 1.387 . S
H977 C973 0.950 . S
H978 C975 0.950 . S
C979 C970 1.390 . S
C979 H972 0.950 . S
C979 C976 1.387 . S
C980 C981 1.387 . S
C980 H984 0.950 . S
C980 C989 1.390 . S
C981 C980 1.387 . S
C981 C983 1.387 . S
H982 C989 0.950 . S
C983 C981 1.387 . S
C983 C985 1.390 . S
C983 H987 0.950 . S
H984 C980 0.950 . S
C985 C983 1.390 . S
C985 C986 1.387 . S
C985 H988 0.950 . S
C986 C985 1.387 . S
C986 C989 1.387 . S
H987 C983 0.950 . S
H988 C985 0.950 . S
C989 C980 1.390 . S
C989 H982 0.950 . S
C989 C986 1.387 . S
C990 C991 1.387 1_545 S
C990 H994 0.950 . S
C990 C999 1.390 1_545 S
C991 C990 1.387 1_565 S
C991 C993 1.387 . S
H992 C999 0.950 1_545 S
C993 C991 1.387 . S
C993 C995 1.390 . S
C993 H997 0.950 . S
H994 C990 0.950 . S
C995 C993 1.390 . S
C995 C996 1.387 . S
C995 H998 0.950 . S
C996 C995 1.387 . S
C996 C999 1.387 . S
H997 C993 0.950 . S
H998 C995 0.950 . S
C999 C990 1.390 1_565 S
C999 H992 0.950 1_565 S
C999 C996 1.387 . S
C1000 C1001 1.387 . S
C1000 H1004 0.950 . S
C1000 C1009 1.390 . S
C1001 C1000 1.387 . S
C1001 C1003 1.387 . S
H1002 C1009 0.950 . S
C1003 C1001 1.387 . S
C1003 C1005 1.390 . S
C1003 H1007 0.950 . S
H1004 C1000 0.950 . S
C1005 C1003 1.390 . S
C1005 C1006 1.387 . S
C1005 H1008 0.950 . S
C1006 C1005 1.387 . S
C1006 C1009 1.387 . S
H1007 C1003 0.950 . S
H1008 C1005 0.950 . S
C1009 C1000 1.390 . S
C1009 H1002 0.950 . S
C1009 C1006 1.387 . S
C1010 C1011 1.387 . S
C1010 H1014 0.950 1_545 S
C1010 C1019 1.390 . S
C1011 C1010 1.387 . S
C1011 C1013 1.387 . S
H1012 C1019 0.950 1_565 S
C1013 C1011 1.387 . S
C1013 C1015 1.390 . S
C1013 H1017 0.950 . S
H1014 C1010 0.950 1_565 S
C1015 C1013 1.390 . S
C1015 C1016 1.387 . S
C1015 H1018 0.950 . S
C1016 C1015 1.387 . S
C1016 C1019 1.387 . S
H1017 C1013 0.950 . S
H1018 C1015 0.950 . S
C1019 C1010 1.390 . S
C1019 H1012 0.950 1_545 S
C1019 C1016 1.387 . S
C1020 C1021 1.387 . S
C1020 H1024 0.950 . S
C1020 C1029 1.390 . S
C1021 C1020 1.387 . S
C1021 C1023 1.387 . S
H1022 C1029 0.950 . S
C1023 C1021 1.387 . S
C1023 C1025 1.390 . S
C1023 H1027 0.950 . S
H1024 C1020 0.950 . S
C1025 C1023 1.390 . S
C1025 C1026 1.387 . S
C1025 H1028 0.950 . S
C1026 C1025 1.387 . S
C1026 C1029 1.387 . S
H1027 C1023 0.950 . S
H1028 C1025 0.950 . S
C1029 C1020 1.390 . S
C1029 H1022 0.950 . S
C1029 C1026 1.387 . S
C1030 C1031 1.387 1_554 S
C1030 H1034 0.950 . S
C1030 C1039 1.390 1_554 S
C1031 C1030 1.387 1_556 S
C1031 C1033 1.387 . S
H1032 C1039 0.950 1_554 S
C1033 C1031 1.387 . S
C1033 C1035 1.390 . S
C1033 H1037 0.950 . S
H1034 C1030 0.950 . S
C1035 C1033 1.390 . S
C1035 C1036 1.387 . S
C1035 H1038 0.950 . S
C1036 C1035 1.387 . S
C1036 C1039 1.387 . S
H1037 C1033 0.950 . S
H1038 C1035 0.950 . S
C1039 C1030 1.390 1_556 S
C1039 H1032 0.950 1_556 S
C1039 C1036 1.387 . S
C1040 C1041 1.387 . S
C1040 H1044 0.950 . S
C1040 C1049 1.390 . S
C1041 C1040 1.387 . S
C1041 C1043 1.387 1_554 S
H1042 C1049 0.950 . S
C1043 C1041 1.387 1_556 S
C1043 C1045 1.390 . S
C1043 H1047 0.950 . S
H1044 C1040 0.950 . S
C1045 C1043 1.390 . S
C1045 C1046 1.387 1_556 S
C1045 H1048 0.950 . S
C1046 C1045 1.387 1_554 S
C1046 C1049 1.387 . S
H1047 C1043 0.950 . S
H1048 C1045 0.950 . S
C1049 C1040 1.390 . S
C1049 H1042 0.950 . S
C1049 C1046 1.387 . S
C1050 C1051 1.387 1_556 S
C1050 H1054 0.950 . S
C1050 C1059 1.390 . S
C1051 C1050 1.387 1_554 S
C1051 C1053 1.387 . S
H1052 C1059 0.950 . S
C1053 C1051 1.387 . S
C1053 C1055 1.390 . S
C1053 H1057 0.950 . S
H1054 C1050 0.950 . S
C1055 C1053 1.390 . S
C1055 C1056 1.387 . S
C1055 H1058 0.950 . S
C1056 C1055 1.387 . S
C1056 C1059 1.387 1_554 S
H1057 C1053 0.950 . S
H1058 C1055 0.950 . S
C1059 C1050 1.390 . S
C1059 H1052 0.950 . S
C1059 C1056 1.387 1_556 S
C1060 C1061 1.387 . S
C1060 H1064 0.950 1_455 S
C1060 C1069 1.390 . S
C1061 C1060 1.387 . S
C1061 C1063 1.387 . S
H1062 C1069 0.950 1_655 S
C1063 C1061 1.387 . S
C1063 C1065 1.390 . S
C1063 H1067 0.950 . S
H1064 C1060 0.950 1_655 S
C1065 C1063 1.390 . S
C1065 C1066 1.387 . S
C1065 H1068 0.950 . S
C1066 C1065 1.387 . S
C1066 C1069 1.387 . S
H1067 C1063 0.950 . S
H1068 C1065 0.950 . S
C1069 C1060 1.390 . S
C1069 H1062 0.950 1_455 S
C1069 C1066 1.387 . S
C1070 C1071 1.398 . S
C1070 H1074 0.942 1_655 S
C1070 C1079 1.388 1_655 S
C1071 C1070 1.398 . S
C1071 C1073 1.387 . S
H1072 C1079 0.950 . S
C1073 C1071 1.387 . S
C1073 C1075 1.390 . S
C1073 H1077 0.950 . S
H1074 C1070 0.942 1_455 S
C1075 C1073 1.390 . S
C1075 C1076 1.387 . S
C1075 H1078 0.950 . S
C1076 C1075 1.387 . S
C1076 C1079 1.387 1_655 S
H1077 C1073 0.950 . S
H1078 C1075 0.950 . S
C1079 C1070 1.388 1_455 S
C1079 H1072 0.950 . S
C1079 C1076 1.387 1_455 S
C1080 C1081 1.387 . S
C1080 H1084 0.950 1_455 S
C1080 C1089 1.390 . S
C1081 C1080 1.387 . S
C1081 C1083 1.387 . S
H1082 C1089 0.950 1_655 S
C1083 C1081 1.387 . S
C1083 C1085 1.390 . S
C1083 H1087 0.950 . S
H1084 C1080 0.950 1_655 S
C1085 C1083 1.390 . S
C1085 C1086 1.387 . S
C1085 H1088 0.950 . S
C1086 C1085 1.387 . S
C1086 C1089 1.387 . S
H1087 C1083 0.950 . S
H1088 C1085 0.950 . S
C1089 C1080 1.390 . S
C1089 H1082 0.950 1_455 S
C1089 C1086 1.387 . S
C1090 C1091 1.387 . S
C1090 H1094 0.950 . S
C1090 C1099 1.390 . S
C1091 C1090 1.387 . S
C1091 C1093 1.387 . S
H1092 C1099 0.950 . S
C1093 C1091 1.387 . S
C1093 C1095 1.390 . S
C1093 H1097 0.950 1_655 S
H1094 C1090 0.950 . S
C1095 C1093 1.390 . S
C1095 C1096 1.387 . S
C1095 H1098 0.950 1_655 S
C1096 C1095 1.387 . S
C1096 C1099 1.387 . S
H1097 C1093 0.950 1_455 S
H1098 C1095 0.950 1_455 S
C1099 C1090 1.390 . S
C1099 H1092 0.950 . S
C1099 C1096 1.387 . S
C1100 C1101 1.387 . S
C1100 H1104 0.950 1_545 S
C1100 C1109 1.390 . S
C1101 C1100 1.387 . S
C1101 C1103 1.387 . S
H1102 C1109 0.950 1_565 S
C1103 C1101 1.387 . S
C1103 C1105 1.390 . S
C1103 H1107 0.950 . S
H1104 C1100 0.950 1_565 S
C1105 C1103 1.390 . S
C1105 C1106 1.387 . S
C1105 H1108 0.950 . S
C1106 C1105 1.387 . S
C1106 C1109 1.387 . S
H1107 C1103 0.950 . S
H1108 C1105 0.950 . S
C1109 C1100 1.390 . S
C1109 H1102 0.950 1_545 S
C1109 C1106 1.387 . S
C1110 C1111 1.387 . S
C1110 H1114 0.950 . S
C1110 C1119 1.390 . S
C1111 C1110 1.387 . S
C1111 C1113 1.387 . S
H1112 C1119 0.950 . S
C1113 C1111 1.387 . S
C1113 C1115 1.390 . S
C1113 H1117 0.950 . S
H1114 C1110 0.950 . S
C1115 C1113 1.390 . S
C1115 C1116 1.387 . S
C1115 H1118 0.950 . S
C1116 C1115 1.387 . S
C1116 C1119 1.387 . S
H1117 C1113 0.950 . S
H1118 C1115 0.950 . S
C1119 C1110 1.390 . S
C1119 H1112 0.950 . S
C1119 C1116 1.387 . S
C1120 C1121 1.387 . S
C1120 H1124 0.950 . S
C1120 C1129 1.390 . S
C1121 C1120 1.387 . S
C1121 C1123 1.387 1_565 S
H1122 C1129 0.950 . S
C1123 C1121 1.387 1_545 S
C1123 C1125 1.390 . S
C1123 H1127 0.950 . S
H1124 C1120 0.950 . S
C1125 C1123 1.390 . S
C1125 C1126 1.387 1_545 S
C1125 H1128 0.950 . S
C1126 C1125 1.387 1_565 S
C1126 C1129 1.387 . S
H1127 C1123 0.950 . S
H1128 C1125 0.950 . S
C1129 C1120 1.390 . S
C1129 H1122 0.950 . S
C1129 C1126 1.387 . S
C1130 C1131 1.387 . S
C1130 H1134 0.950 . S
C1130 C1139 1.390 . S
C1131 C1130 1.387 . S
C1131 C1133 1.387 . S
H1132 C1139 0.950 . S
C1133 C1131 1.387 . S
C1133 C1135 1.390 . S
C1133 H1137 0.950 . S
H1134 C1130 0.950 . S
C1135 C1133 1.390 . S
C1135 C1136 1.387 . S
C1135 H1138 0.950 . S
C1136 C1135 1.387 . S
C1136 C1139 1.387 . S
H1137 C1133 0.950 . S
H1138 C1135 0.950 . S
C1139 C1130 1.390 . S
C1139 H1132 0.950 . S
C1139 C1136 1.387 . S
C1140 C1141 1.387 . S
C1140 H1144 0.950 . S
C1140 C1149 1.390 . S
C1141 C1140 1.387 . S
C1141 C1143 1.387 . S
H1142 C1149 0.950 . S
C1143 C1141 1.387 . S
C1143 C1145 1.390 . S
C1143 H1147 0.950 1_554 S
H1144 C1140 0.950 . S
C1145 C1143 1.390 . S
C1145 C1146 1.387 . S
C1145 H1148 0.950 1_554 S
C1146 C1145 1.387 . S
C1146 C1149 1.387 . S
H1147 C1143 0.950 1_556 S
H1148 C1145 0.950 1_556 S
C1149 C1140 1.390 . S
C1149 H1142 0.950 . S
C1149 C1146 1.387 . S
C1150 C1151 1.387 . S
C1150 H1154 0.950 . S
C1150 C1159 1.390 . S
C1151 C1150 1.387 . S
C1151 C1153 1.387 . S
H1152 C1159 0.950 . S
C1153 C1151 1.387 . S
C1153 C1155 1.390 . S
C1153 H1157 0.950 . S
H1154 C1150 0.950 . S
C1155 C1153 1.390 . S
C1155 C1156 1.387 . S
C1155 H1158 0.950 . S
C1156 C1155 1.387 . S
C1156 C1159 1.387 . S
H1157 C1153 0.950 . S
H1158 C1155 0.950 . S
C1159 C1150 1.390 . S
C1159 H1152 0.950 . S
C1159 C1156 1.387 . S
C1160 C1161 1.387 . S
C1160 H1164 0.950 . S
C1160 C1169 1.390 . S
C1161 C1160 1.387 . S
C1161 C1163 1.387 . S
H1162 C1169 0.950 . S
C1163 C1161 1.387 . S
C1163 C1165 1.390 . S
C1163 H1167 0.950 . S
H1164 C1160 0.950 . S
C1165 C1163 1.390 . S
C1165 C1166 1.387 . S
C1165 H1168 0.950 . S
C1166 C1165 1.387 . S
C1166 C1169 1.387 . S
H1167 C1163 0.950 . S
H1168 C1165 0.950 . S
C1169 C1160 1.390 . S
C1169 H1162 0.950 . S
C1169 C1166 1.387 . S
C1170 C1171 1.387 . S
C1170 H1174 0.950 . S
C1170 C1179 1.390 . S
C1171 C1170 1.387 . S
C1171 C1173 1.387 . S
H1172 C1179 0.950 . S
C1173 C1171 1.387 . S
C1173 C1175 1.390 . S
C1173 H1177 0.950 . S
H1174 C1170 0.950 . S
C1175 C1173 1.390 . S
C1175 C1176 1.387 . S
C1175 H1178 0.950 . S
C1176 C1175 1.387 . S
C1176 C1179 1.387 . S
H1177 C1173 0.950 . S
H1178 C1175 0.950 . S
C1179 C1170 1.390 . S
C1179 H1172 0.950 . S
C1179 C1176 1.387 . S
C1180 C1181 1.387 . S
C1180 H1184 0.950 . S
C1180 C1189 1.390 . S
C1181 C1180 1.387 . S
C1181 C1183 1.387 . S
H1182 C1189 0.950 . S
C1183 C1181 1.387 . S
C1183 C1185 1.390 . S
C1183 H1187 0.950 . S
H1184 C1180 0.950 . S
C1185 C1183 1.390 . S
C1185 C1186 1.387 . S
C1185 H1188 0.950 . S
C1186 C1185 1.387 . S
C1186 C1189 1.387 . S
H1187 C1183 0.950 . S
H1188 C1185 0.950 . S
C1189 C1180 1.390 . S
C1189 H1182 0.950 . S
C1189 C1186 1.387 . S
C1190 C1191 1.387 . S
C1190 H1194 0.950 . S
C1190 C1199 1.390 . S
C1191 C1190 1.387 . S
C1191 C1193 1.387 . S
H1192 C1199 0.950 . S
C1193 C1191 1.387 . S
C1193 C1195 1.390 . S
C1193 H1197 0.950 . S
H1194 C1190 0.950 . S
C1195 C1193 1.390 . S
C1195 C1196 1.387 . S
C1195 H1198 0.950 . S
C1196 C1195 1.387 . S
C1196 C1199 1.387 . S
H1197 C1193 0.950 . S
H1198 C1195 0.950 . S
C1199 C1190 1.390 . S
C1199 H1192 0.950 . S
C1199 C1196 1.387 . S
C1200 C1201 1.387 . S
C1200 H1204 0.950 . S
C1200 C1209 1.390 . S
C1201 C1200 1.387 . S
C1201 C1203 1.387 . S
H1202 C1209 0.950 . S
C1203 C1201 1.387 . S
C1203 C1205 1.390 . S
C1203 H1207 0.950 . S
H1204 C1200 0.950 . S
C1205 C1203 1.390 . S
C1205 C1206 1.387 . S
C1205 H1208 0.950 . S
C1206 C1205 1.387 . S
C1206 C1209 1.387 . S
H1207 C1203 0.950 . S
H1208 C1205 0.950 . S
C1209 C1200 1.390 . S
C1209 H1202 0.950 . S
C1209 C1206 1.387 . S
C1210 C1211 1.387 . S
C1210 H1214 0.950 . S
C1210 C1219 1.390 . S
C1211 C1210 1.387 . S
C1211 C1213 1.387 . S
H1212 C1219 0.950 . S
C1213 C1211 1.387 . S
C1213 C1215 1.390 . S
C1213 H1217 0.950 . S
H1214 C1210 0.950 . S
C1215 C1213 1.390 . S
C1215 C1216 1.387 . S
C1215 H1218 0.950 . S
C1216 C1215 1.387 . S
C1216 C1219 1.387 . S
H1217 C1213 0.950 . S
H1218 C1215 0.950 . S
C1219 C1210 1.390 . S
C1219 H1212 0.950 . S
C1219 C1216 1.387 . S
C1220 C1221 1.387 . S
C1220 H1224 0.950 . S
C1220 C1229 1.390 . S
C1221 C1220 1.387 . S
C1221 C1223 1.387 . S
H1222 C1229 0.950 . S
C1223 C1221 1.387 . S
C1223 C1225 1.390 . S
C1223 H1227 0.950 . S
H1224 C1220 0.950 . S
C1225 C1223 1.390 . S
C1225 C1226 1.387 . S
C1225 H1228 0.950 . S
C1226 C1225 1.387 . S
C1226 C1229 1.387 . S
H1227 C1223 0.950 . S
H1228 C1225 0.950 . S
C1229 C1220 1.390 . S
C1229 H1222 0.950 . S
C1229 C1226 1.387 . S
C1230 C1231 1.387 1_545 S
C1230 H1234 0.950 . S
C1230 C1239 1.390 . S
C1231 C1230 1.387 1_565 S
C1231 C1233 1.387 . S
H1232 C1239 0.950 . S
C1233 C1231 1.387 . S
C1233 C1235 1.390 . S
C1233 H1237 0.950 . S
H1234 C1230 0.950 . S
C1235 C1233 1.390 . S
C1235 C1236 1.387 . S
C1235 H1238 0.950 . S
C1236 C1235 1.387 . S
C1236 C1239 1.387 1_565 S
H1237 C1233 0.950 . S
H1238 C1235 0.950 . S
C1239 C1230 1.390 . S
C1239 H1232 0.950 . S
C1239 C1236 1.387 1_545 S
C1240 C1241 1.387 . S
C1240 H1244 0.950 . S
C1240 C1249 1.390 . S
C1241 C1240 1.387 . S
C1241 C1243 1.387 . S
H1242 C1249 0.950 . S
C1243 C1241 1.387 . S
C1243 C1245 1.390 . S
C1243 H1247 0.950 . S
H1244 C1240 0.950 . S
C1245 C1243 1.390 . S
C1245 C1246 1.387 . S
C1245 H1248 0.950 . S
C1246 C1245 1.387 . S
C1246 C1249 1.387 . S
H1247 C1243 0.950 . S
H1248 C1245 0.950 . S
C1249 C1240 1.390 . S
C1249 H1242 0.950 . S
C1249 C1246 1.387 . S
C1250 C1251 1.387 . S
C1250 H1254 0.950 . S
C1250 C1259 1.390 . S
C1251 C1250 1.387 . S
C1251 C1253 1.387 . S
H1252 C1259 0.950 . S
C1253 C1251 1.387 . S
C1253 C1255 1.390 . S
C1253 H1257 0.950 . S
H1254 C1250 0.950 . S
C1255 C1253 1.390 . S
C1255 C1256 1.387 . S
C1255 H1258 0.950 . S
C1256 C1255 1.387 . S
C1256 C1259 1.387 . S
H1257 C1253 0.950 . S
H1258 C1255 0.950 . S
C1259 C1250 1.390 . S
C1259 H1252 0.950 . S
C1259 C1256 1.387 . S
C1260 C1261 1.387 . S
C1260 H1264 0.950 . S
C1260 C1269 1.390 . S
C1261 C1260 1.387 . S
C1261 C1263 1.387 . S
H1262 C1269 0.950 . S
C1263 C1261 1.387 . S
C1263 C1265 1.390 . S
C1263 H1267 0.950 . S
H1264 C1260 0.950 . S
C1265 C1263 1.390 . S
C1265 C1266 1.387 . S
C1265 H1268 0.950 . S
C1266 C1265 1.387 . S
C1266 C1269 1.387 . S
H1267 C1263 0.950 . S
H1268 C1265 0.950 . S
C1269 C1260 1.390 . S
C1269 H1262 0.950 . S
C1269 C1266 1.387 . S
C1270 C1271 1.387 1_554 S
C1270 H1274 0.950 . S
C1270 C1279 1.390 . S
C1271 C1270 1.387 1_556 S
C1271 C1273 1.387 . S
H1272 C1279 0.950 . S
C1273 C1271 1.387 . S
C1273 C1275 1.390 . S
C1273 H1277 0.950 . S
H1274 C1270 0.950 . S
C1275 C1273 1.390 . S
C1275 C1276 1.387 . S
C1275 H1278 0.950 . S
C1276 C1275 1.387 . S
C1276 C1279 1.387 1_556 S
H1277 C1273 0.950 . S
H1278 C1275 0.950 . S
C1279 C1270 1.390 . S
C1279 H1272 0.950 . S
C1279 C1276 1.387 1_554 S
C1280 C1281 1.387 . S
C1280 H1284 0.950 . S
C1280 C1289 1.390 . S
C1281 C1280 1.387 . S
C1281 C1283 1.387 1_556 S
H1282 C1289 0.950 . S
C1283 C1281 1.387 1_554 S
C1283 C1285 1.390 . S
C1283 H1287 0.950 . S
H1284 C1280 0.950 . S
C1285 C1283 1.390 . S
C1285 C1286 1.387 1_554 S
C1285 H1288 0.950 . S
C1286 C1285 1.387 1_556 S
C1286 C1289 1.387 . S
H1287 C1283 0.950 . S
H1288 C1285 0.950 . S
C1289 C1280 1.390 . S
C1289 H1282 0.950 . S
C1289 C1286 1.387 . S
C1290 C1291 1.387 . S
C1290 H1294 0.950 . S
C1290 C1299 1.390 . S
C1291 C1290 1.387 . S
C1291 C1293 1.387 1_554 S
H1292 C1299 0.950 . S
C1293 C1291 1.387 1_556 S
C1293 C1295 1.390 . S
C1293 H1297 0.950 . S
H1294 C1290 0.950 . S
C1295 C1293 1.390 . S
C1295 C1296 1.387 1_556 S
C1295 H1298 0.950 . S
C1296 C1295 1.387 1_554 S
C1296 C1299 1.387 . S
H1297 C1293 0.950 . S
H1298 C1295 0.950 . S
C1299 C1290 1.390 . S
C1299 H1292 0.950 . S
C1299 C1296 1.387 . S
C821 C22 1.692 . S
C826 C699 1.696 . S
C836 C725 1.787 . S
C831 C38 1.806 . S
C846 C657 1.759 . S
C841 C75 1.717 . S
C851 C91 1.556 . S
C856 C680 1.577 . S
C861 C128 1.667 . S
C866 C814 1.687 . S
C871 C197 1.485 . S
C876 C795 1.513 . S
C886 C748 1.821 . S
C881 C144 1.832 . S
C891 C181 1.749 . S
C896 C771 1.769 . S
C906 C676 1.857 . S
C901 C234 1.871 . S
C916 C726 1.627 . S
C911 C303 1.602 . S
C921 C356 1.695 . S
C926 C702 1.671 . S
C931 C287 1.799 . S
C936 C768 1.820 . S
C946 C791 1.627 . S
C941 C393 1.620 . S
C956 C817 1.870 . S
C951 C409 1.861 . S
C961 C462 1.918 . S
C966 C772 1.951 . S
C976 C749 1.486 . S
C971 C446 1.463 . S
C981 C499 1.713 . S
C986 C722 1.707 . S
C991 C552 1.466 . S
C996 C703 1.504 . S
C1006 C679 1.683 . S
C1001 C515 1.720 . S
C1011 C568 1.987 . S
C1016 C656 1.998 . S
C1026 C745 1.926 . S
C1021 C340 1.924 . S
C1036 C818 1.512 . S
C1031 C621 1.495 . S
C1041 C250 1.626 . S
C1046 C794 1.599 . S
C1051 C605 1.765 . S
C1056 C653 1.764 1_655 S
C1066 C655 1.527 . S
C1061 C39 1.538 . S
C1071 C29 1.362 . S
C1076 C678 1.305 . S
C1086 C700 1.511 . S
C1081 C92 1.453 . S
C1096 C721 1.315 . S
C1091 C82 1.275 . S
C1101 C145 1.611 . S
C1106 C652 1.622 . S
C1111 C188 1.316 . S
C1116 C675 1.352 . S
C1126 C701 1.403 . S
C1121 C135 1.430 . S
C1131 C198 1.542 . S
C1136 C723 1.600 . S
C1141 C251 1.450 . S
C1146 C654 1.476 . S
C1156 C698 1.321 . S
C1151 C294 1.282 . S
C1161 C347 1.401 . S
C1166 C724 1.381 . S
C1171 C304 1.499 . S
C1176 C746 1.539 . S
C1186 C770 1.521 . S
C1181 C410 1.560 . S
C1191 C400 1.366 . S
C1196 C747 1.344 . S
C1201 C453 1.202 . S
C1206 C792 1.266 . S
C1211 C463 1.588 . S
C1216 C813 1.596 . S
C1221 C516 1.582 . S
C1226 C767 1.616 . S
C1236 C744 1.633 . S
C1231 C569 1.629 . S
C1241 C506 1.384 . S
C1246 C793 1.317 . S
C1256 C815 1.392 . S
C1251 C559 1.339 . S
C1266 C769 1.450 . S
C1261 C357 1.444 . S
C1276 C790 1.356 . S
C1271 C612 1.326 . S
C1286 C816 1.341 . S
C1281 C241 1.363 . S
C1291 C622 1.387 . S
C1296 C677 1.438 . S
