# Generated by pormake.
# Topology pth, (4,4)-cn, num edge types: 1
# Building blocks:
#     Node 0, Type 0, BuildingBlock: KUFVIS_clean_sbu_0, # of connection points: 4
#     Node 1, Type 0, BuildingBlock: KUFVIS_clean_sbu_0, # of connection points: 4
#     Node 2, Type 0, BuildingBlock: KUFVIS_clean_sbu_0, # of connection points: 4
#     Node 3, Type 1, BuildingBlock: KOZSID_clean_sbu_0, # of connection points: 4
#     Node 4, Type 1, BuildingBlock: KOZSID_clean_sbu_0, # of connection points: 4
#     Node 5, Type 1, BuildingBlock: KOZSID_clean_sbu_0, # of connection points: 4
#     Edge 6, Type (0, 1), BuildingBlock: MIFKUJ_clean_linker_0, # of connection points: 2
#     Edge 7, Type (0, 1), BuildingBlock: MIFKUJ_clean_linker_0, # of connection points: 2
#     Edge 8, Type (0, 1), BuildingBlock: MIFKUJ_clean_linker_0, # of connection points: 2
#     Edge 9, Type (0, 1), BuildingBlock: MIFKUJ_clean_linker_0, # of connection points: 2
#     Edge 10, Type (0, 1), BuildingBlock: MIFKUJ_clean_linker_0, # of connection points: 2
#     Edge 11, Type (0, 1), BuildingBlock: MIFKUJ_clean_linker_0, # of connection points: 2
#     Edge 12, Type (0, 1), BuildingBlock: MIFKUJ_clean_linker_0, # of connection points: 2
#     Edge 13, Type (0, 1), BuildingBlock: MIFKUJ_clean_linker_0, # of connection points: 2
#     Edge 14, Type (0, 1), BuildingBlock: MIFKUJ_clean_linker_0, # of connection points: 2
#     Edge 15, Type (0, 1), BuildingBlock: MIFKUJ_clean_linker_0, # of connection points: 2
#     Edge 16, Type (0, 1), BuildingBlock: MIFKUJ_clean_linker_0, # of connection points: 2
#     Edge 17, Type (0, 1), BuildingBlock: MIFKUJ_clean_linker_0, # of connection points: 2
# Relax obj value: 0.010
# Max RMSD: 0.082
# Mean RMSD: 0.051
data_MOF--net-pth--node1-KUFVIS_clean_sbu_0--node2-KOZSID_clean_sbu_0--edge1-MIFKUJ_clean_linker_0
_symmetry_space_group_name_H-M    P1
_symmetry_Int_Tables_number       1
_symmetry_cell_setting            triclinic
loop_
_symmetry_equiv_pos_as_xyz
'x, y, z'
_cell_length_a     33.401049
_cell_length_b     33.49326
_cell_length_c     77.448654
_cell_angle_alpha  88.213579
_cell_angle_beta   89.699692
_cell_angle_gamma 120.23249
loop_
_atom_site_label
_atom_site_type_symbol
_atom_site_fract_x
_atom_site_fract_y
_atom_site_fract_z
_atom_type_partial_charge
Mn0 Mn 0.07853 0.05365 0.04735 0.0
Mn1 Mn 0.01828 0.09251 0.02454 0.0
C2 C 0.03213 0.01123 0.02495 0.0
C3 C 0.08308 0.0093 0.07046 0.0
C4 C 0.12194 0.1317 0.01935 0.0
O5 O 0.07976 0.10271 0.06293 0.0
O6 O 0.03558 0.12275 0.04716 0.0
C7 C 0.93398 0.05296 0.04702 0.0
N8 N 0.95418 0.05728 0.03123 0.0
C9 C 0.88013 0.00846 0.01866 0.0
C10 C 0.8585 0.0037 0.03477 0.0
C11 C 0.88557 0.02594 0.04902 0.0
C12 C 0.92849 0.03582 0.01745 0.0
H13 H 0.95467 0.07 0.05801 0.0
C14 C 0.05911 0.12587 0.06061 0.0
O15 O 0.12017 0.04229 0.06271 0.0
O16 O 0.04377 0.00384 0.0654 0.0
N17 N 0.99896 0.06583 0.00246 0.0
C18 C 0.02534 0.07205 0.98804 0.0
C19 C 0.00363 0.05097 0.97275 0.0
C20 C 0.95507 0.0242 0.97239 0.0
C21 C 0.92864 0.01879 0.98733 0.0
C22 C 0.95219 0.04061 0.00219 0.0
H23 H 0.06267 0.0927 0.98823 0.0
O24 O 0.06568 0.00537 0.03016 0.0
O25 O 0.02658 0.04161 0.03303 0.0
O26 O 0.12579 0.10484 0.03046 0.0
O27 O 0.08354 0.13011 0.01643 0.0
C28 C 0.87988 0.99216 0.98811 0.0
C29 C 0.85565 0.98673 0.00379 0.0
H30 H 0.82118 0.98283 0.03637 0.0
H31 H 0.86915 0.02228 0.06151 0.0
H32 H 0.02428 0.05531 0.96128 0.0
H33 H 0.93845 0.00778 0.9606 0.0
H34 H 0.86071 0.97525 0.97678 0.0
H35 H 0.81821 0.96551 0.0043 0.0
Mn36 Mn 0.04262 0.06338 0.37814 0.0
Mn37 Mn 0.10212 0.16315 0.39891 0.0
C38 C 0.08801 0.06785 0.40144 0.0
C39 C 0.03899 0.01455 0.35641 0.0
C40 C 0.99818 0.09881 0.40369 0.0
O41 O 0.04261 0.11125 0.36097 0.0
O42 O 0.08668 0.17617 0.37539 0.0
C43 C 0.18808 0.20741 0.37726 0.0
N44 N 0.1666 0.19155 0.39302 0.0
C45 C 0.23931 0.21522 0.40673 0.0
C46 C 0.26224 0.23205 0.39065 0.0
C47 C 0.23649 0.22802 0.37585 0.0
C48 C 0.19102 0.19509 0.40734 0.0
H49 H 0.16838 0.20427 0.36585 0.0
C50 C 0.06337 0.15523 0.36218 0.0
O51 O 1.00157 0.01073 0.36328 0.0
O52 O 0.07808 0.04797 0.36156 0.0
N53 N 0.11941 0.15546 0.42176 0.0
C54 C 0.0918 0.13547 0.43613 0.0
C55 C 0.11206 0.13548 0.45197 0.0
C56 C 0.16045 0.15634 0.45291 0.0
C57 C 0.18817 0.17713 0.43799 0.0
C58 C 0.16604 0.17622 0.42258 0.0
H59 H 0.05458 0.11946 0.4355 0.0
O60 O 0.05457 0.02813 0.39684 0.0
O61 O 0.09372 0.10359 0.39229 0.0
O62 O 0.99475 0.0674 0.39381 0.0
O63 O 0.03642 0.13599 0.40612 0.0
C64 C 0.23683 0.19823 0.43776 0.0
C65 C 0.26238 0.21704 0.42213 0.0
H66 H 0.29956 0.24784 0.3895 0.0
H67 H 0.25393 0.24074 0.36339 0.0
H68 H 0.09042 0.1194 0.46343 0.0
H69 H 0.17595 0.156 0.46512 0.0
H70 H 0.25492 0.19963 0.4495 0.0
H71 H 0.29972 0.23247 0.42207 0.0
Mn72 Mn 0.08032 0.04903 0.71184 0.0
Mn73 Mn 0.04457 0.10785 0.73612 0.0
C74 C 0.12566 0.09332 0.73407 0.0
C75 C 0.12162 0.04596 0.6878 0.0
C76 C 0.00533 0.00416 0.74063 0.0
O77 O 0.02997 0.04962 0.69715 0.0
O78 O 0.0111 0.09192 0.71387 0.0
C79 C 0.0815 0.19316 0.71392 0.0
N80 N 0.07908 0.17216 0.72955 0.0
C81 C 0.13023 0.24526 0.74198 0.0
C82 C 0.133 0.2677 0.72605 0.0
C83 C 0.10859 0.24152 0.71196 0.0
C84 C 0.10241 0.19702 0.7432 0.0
H85 H 0.06295 0.17315 0.70304 0.0
C86 C 0.00676 0.06964 0.70016 0.0
O87 O 0.08891 0.00849 0.69549 0.0
O88 O 0.12862 0.08481 0.69357 0.0
N89 N 0.0743 0.12592 0.75788 0.0
C90 C 0.07048 0.09879 0.772 0.0
C91 C 0.09405 0.11956 0.78706 0.0
C92 C 0.12108 0.16794 0.78749 0.0
C93 C 0.12423 0.19515 0.77284 0.0
C94 C 0.09964 0.17254 0.75825 0.0
H95 H 0.04999 0.06159 0.77172 0.0
O96 O 0.13042 0.05993 0.72836 0.0
O97 O 0.09442 0.09977 0.72664 0.0
O98 O 0.03029 1.00079 0.72883 0.0
O99 O 0.00791 0.04238 0.74419 0.0
C100 C 0.15172 0.24376 0.77201 0.0
C101 C 0.15476 0.26879 0.75659 0.0
H102 H 0.15411 0.30496 0.72445 0.0
H103 H 0.11077 0.25857 0.6996 0.0
H104 H 0.09159 0.09831 0.79829 0.0
H105 H 0.13961 0.18381 0.79906 0.0
H106 H 0.17132 0.26216 0.78307 0.0
H107 H 0.17659 0.30609 0.75602 0.0
C108 C 0.09802 0.64235 0.18378 0.0
C109 C 0.14044 0.68213 0.18 0.0
C110 C 0.16995 0.68524 0.19271 0.0
C111 C 0.14424 0.64762 0.2036 0.0
N112 N 0.10043 0.6203 0.19844 0.0
Co113 Co 0.05133 0.56534 0.21183 0.0
N114 N 0.09751 0.56204 0.22706 0.0
C115 C 0.14173 0.59571 0.22891 0.0
C116 C 0.16606 0.58262 0.23961 0.0
C117 C 0.13517 0.53792 0.24489 0.0
C118 C 0.09337 0.52638 0.23723 0.0
N119 N 1.00255 0.51096 0.22541 0.0
C120 C 0.00623 0.48017 0.23608 0.0
C121 C 0.9633 0.44755 0.24316 0.0
C122 C 0.93169 0.45817 0.23653 0.0
C123 C 0.95699 0.49665 0.22589 0.0
N124 N 0.00482 0.56804 0.19658 0.0
C125 C 0.9586 0.54527 0.19954 0.0
C126 C 0.93476 0.55215 0.18655 0.0
C127 C 0.96803 0.58196 0.17483 0.0
C128 C 0.01061 0.59233 0.18149 0.0
N129 N 0.05688 0.52375 0.19595 0.0
C130 C 0.06418 0.46094 0.17474 0.0
C131 C 0.02081 0.45489 0.17942 0.0
C132 C 0.01793 0.48648 0.18999 0.0
C133 C 0.10388 0.49955 0.1808 0.0
C134 C 0.09949 0.53056 0.19127 0.0
N135 N 0.04572 0.60692 0.22781 0.0
C136 C 0.03873 0.67403 0.23248 0.0
C137 C 0.03905 0.66747 0.25039 0.0
C138 C 0.04269 0.62986 0.25681 0.0
C139 C 0.04545 0.59972 0.24532 0.0
C140 C 0.04245 0.64378 0.22148 0.0
H141 H 0.04745 0.57065 0.25063 0.0
H142 H 0.04288 0.65065 0.20783 0.0
H143 H 0.984 0.48024 0.19354 0.0
H144 H 0.13065 0.55981 0.19574 0.0
C145 C 0.16107 0.63517 0.21801 0.0
C146 C 0.05514 0.63067 0.17458 0.0
C147 C 0.04993 0.48238 0.24051 0.0
C148 C 0.93858 0.51423 0.21372 0.0
H149 H 0.14914 0.70756 0.16958 0.0
H150 H 0.20585 0.71191 0.1939 0.0
H151 H 0.20252 0.60232 0.2425 0.0
H152 H 0.14289 0.51637 0.25327 0.0
H153 H 0.95561 0.41898 0.25211 0.0
H154 H 0.89446 0.43877 0.23858 0.0
H155 H 0.89761 0.53698 0.1856 0.0
H156 H 0.96175 0.596 0.16305 0.0
H157 H 0.9891 0.42537 0.17524 0.0
H158 H 0.13818 0.50606 0.17735 0.0
H159 H 0.0365 0.70296 0.22697 0.0
H160 H 0.04278 0.62342 0.2706 0.0
C161 C 0.4692 0.00876 0.57097 0.0
C162 C 0.43494 0.96523 0.57701 0.0
C163 C 0.44092 0.93395 0.56817 0.0
C164 C 0.47841 0.96004 0.55732 0.0
N165 N 0.49726 0.00617 0.55887 0.0
Co166 Co 0.551 0.05661 0.54505 0.0
N167 N 0.55709 0.01057 0.53092 0.0
C168 C 0.53027 0.96395 0.53225 0.0
C169 C 0.54298 0.94134 0.52098 0.0
C170 C 0.58063 0.97546 0.51206 0.0
C171 C 0.58892 0.01711 0.51852 0.0
N172 N 0.60466 0.10705 0.53116 0.0
C173 C 0.63227 0.1045 0.51882 0.0
C174 C 0.66709 0.14815 0.5131 0.0
C175 C 0.66138 0.17933 0.52211 0.0
C176 C 0.62374 0.15317 0.53287 0.0
N177 N 0.5449 0.10262 0.55922 0.0
C178 C 0.57175 0.14923 0.55793 0.0
C179 C 0.55804 0.17183 0.56882 0.0
C180 C 0.51976 0.1377 0.57745 0.0
C181 C 0.51236 0.09605 0.57133 0.0
N182 N 0.59521 0.05518 0.56193 0.0
C183 C 0.66079 0.05368 0.58457 0.0
C184 C 0.66411 0.09536 0.57897 0.0
C185 C 0.63129 0.09531 0.56782 0.0
C186 C 0.62358 0.0127 0.57878 0.0
C187 C 0.59147 0.01422 0.56761 0.0
N188 N 0.50679 0.05809 0.52822 0.0
C189 C 0.47717 0.1008 0.51232 0.0
C190 C 0.43973 0.05994 0.5066 0.0
C191 C 0.43722 0.01821 0.51151 0.0
C192 C 0.47076 0.01807 0.52223 0.0
C193 C 0.51012 0.09912 0.52291 0.0
H194 H 0.46636 0.98508 0.52572 0.0
H195 H 0.53769 0.13149 0.52678 0.0
H196 H 0.63622 0.12828 0.56401 0.0
H197 H 0.56408 0.98177 0.56369 0.0
C198 C 0.49469 0.94237 0.54475 0.0
C199 C 0.47261 0.05139 0.57674 0.0
C200 C 0.62829 0.06173 0.51278 0.0
C201 C 0.60745 0.1708 0.54547 0.0
H202 H 0.40782 0.95698 0.58656 0.0
H203 H 0.41964 0.89664 0.56916 0.0
H204 H 0.5273 0.9044 0.51965 0.0
H205 H 0.60024 0.97024 0.50211 0.0
H206 H 0.69456 0.15673 0.50369 0.0
H207 H 0.68297 0.21662 0.52131 0.0
H208 H 0.57317 0.20878 0.56992 0.0
H209 H 0.49893 0.14296 0.58685 0.0
H210 H 0.69247 0.12818 0.58289 0.0
H211 H 0.61887 0.9794 0.58294 0.0
H212 H 0.48123 0.13411 0.50859 0.0
H213 H 0.40881 0.98556 0.50747 0.0
C214 C 0.66447 0.58466 0.854 0.0
C215 C 0.70008 0.57724 0.84892 0.0
C216 C 0.69463 0.53982 0.85843 0.0
C217 C 0.65643 0.52667 0.86885 0.0
N218 N 0.63674 0.55316 0.86648 0.0
Co219 Co 0.58268 0.54807 0.87996 0.0
N220 N 0.57703 0.49512 0.89483 0.0
C221 C 0.60418 0.4759 0.89403 0.0
C222 C 0.59116 0.43923 0.90551 0.0
C223 C 0.553 0.43427 0.91405 0.0
C224 C 0.54493 0.46831 0.90722 0.0
N225 N 0.5287 0.54307 0.89346 0.0
C226 C 0.50143 0.51196 0.9061 0.0
C227 C 0.46672 0.52014 0.91167 0.0
C228 C 0.47191 0.55744 0.90212 0.0
C229 C 0.50929 0.56985 0.89129 0.0
N230 N 0.58819 0.60089 0.86506 0.0
C231 C 0.56072 0.6198 0.8658 0.0
C232 C 0.57272 0.65545 0.85394 0.0
C233 C 0.61054 0.66013 0.84524 0.0
C234 C 0.61972 0.62715 0.85243 0.0
N235 N 0.53892 0.50314 0.8634 0.0
C236 C 0.47357 0.43641 0.84141 0.0
C237 C 0.47079 0.47513 0.84585 0.0
C238 C 0.50326 0.50751 0.85681 0.0
C239 C 0.51043 0.43238 0.84796 0.0
C240 C 0.54256 0.46597 0.85868 0.0
N241 N 0.62644 0.59305 0.89651 0.0
C242 C 0.65517 0.66418 0.91174 0.0
C243 C 0.69171 0.65992 0.91837 0.0
C244 C 0.69447 0.62111 0.91415 0.0
C245 C 0.66188 0.5885 0.90327 0.0
C246 C 0.62306 0.63052 0.90105 0.0
H247 H 0.66648 0.56023 0.90035 0.0
H248 H 0.59599 0.63579 0.89652 0.0
H249 H 0.4985 0.53561 0.85984 0.0
H250 H 0.56973 0.46077 0.86315 0.0
C251 C 0.64019 0.49163 0.88174 0.0
C252 C 0.65969 0.62326 0.84717 0.0
C253 C 0.50562 0.47291 0.91263 0.0
C254 C 0.5251 0.60451 0.87825 0.0
H255 H 0.72795 0.59738 0.83963 0.0
H256 H 0.71679 0.52488 0.85817 0.0
H257 H 0.60691 0.41799 0.90719 0.0
H258 H 0.53291 0.4081 0.92399 0.0
H259 H 0.43976 0.50053 0.92136 0.0
H260 H 0.45022 0.57286 0.90266 0.0
H261 H 0.55641 0.67612 0.85205 0.0
H262 H 0.62965 0.68548 0.83494 0.0
H263 H 0.44374 0.4808 0.84088 0.0
H264 H 0.51421 0.40297 0.84516 0.0
H265 H 0.65107 0.69324 0.91488 0.0
H266 H 0.7223 0.61636 0.9189 0.0
H267 H 0.11422 0.15494 0.08936 0.0
H268 H 0.12077 0.21221 0.10991 0.0
H269 H 0.01737 0.22795 0.08236 0.0
H270 H 0.01102 0.1718 0.06184 0.0
H271 H 0.08825 0.30995 0.0888 0.0
H272 H 0.99393 0.16684 0.12167 0.0
H273 H 0.97599 0.09216 0.13552 0.0
H274 H 0.0958 0.16143 0.16698 0.0
H275 H 0.1148 0.23651 0.15314 0.0
H276 H 0.01386 0.41956 0.14624 0.0
H277 H 0.01866 0.36342 0.12826 0.0
H278 H 0.12758 0.36974 0.15978 0.0
H279 H 0.12229 0.42541 0.17812 0.0
H280 H 0.06382 0.28026 0.15221 0.0
H281 H 0.15435 0.42415 0.12079 0.0
H282 H 0.17125 0.49865 0.1071 0.0
H283 H 0.05806 0.42765 0.07284 0.0
H284 H 0.04003 0.35272 0.08649 0.0
C285 C 0.09271 0.17042 0.08774 0.0
C286 C 0.06228 0.15874 0.07383 0.0
C287 C 0.09642 0.20313 0.09953 0.0
C288 C 0.06951 0.22449 0.09773 0.0
C289 C 0.03877 0.21233 0.084 0.0
C290 C 0.03515 0.17996 0.07225 0.0
C291 C 0.07352 0.26027 0.10975 0.0
C292 C 0.08251 0.30321 0.10265 0.0
C293 C 0.0675 0.25227 0.1279 0.0
C294 C 0.0561 0.2072 0.13622 0.0
C295 C 0.01667 0.1661 0.13144 0.0
C296 C 0.00627 0.12371 0.1393 0.0
C297 C 0.03483 0.12204 0.15208 0.0
C298 C 0.07377 0.16277 0.15705 0.0
C299 C 0.08436 0.20525 0.14921 0.0
C300 C 0.03865 0.40884 0.14945 0.0
C301 C 0.06776 0.42716 0.16363 0.0
C302 C 0.04161 0.37695 0.13906 0.0
C303 C 0.07383 0.36264 0.14253 0.0
C304 C 0.10258 0.38036 0.1568 0.0
C305 C 0.09978 0.4125 0.16718 0.0
C306 C 0.07732 0.32933 0.13116 0.0
C307 C 0.06995 0.28705 0.13837 0.0
C308 C 0.08474 0.33783 0.11308 0.0
C309 C 0.09562 0.38282 0.10476 0.0
C310 C 0.13284 0.42443 0.11042 0.0
C311 C 0.14266 0.46674 0.10265 0.0
C312 C 0.11569 0.46789 0.08913 0.0
C313 C 0.0789 0.42671 0.08332 0.0
C314 C 0.0689 0.3843 0.09106 0.0
H315 H 0.12335 0.50068 0.08313 0.0
H316 H 0.02671 0.08919 0.15816 0.0
H317 H 0.98664 0.1642 0.41947 0.0
H318 H 0.92115 0.15308 0.4372 0.0
H319 H 0.84977 0.00693 0.42825 0.0
H320 H 0.91512 0.01801 0.41 0.0
H321 H 0.7897 0.0368 0.42804 0.0
H322 H 0.90664 0.04925 0.4659 0.0
H323 H 0.98562 0.08395 0.47722 0.0
H324 H 0.98195 0.20626 0.48942 0.0
H325 H 0.90325 0.17266 0.47785 0.0
H326 H 0.68931 0.03308 0.52077 0.0
H327 H 0.74883 0.03353 0.5019 0.0
H328 H 0.71007 0.09525 0.46034 0.0
H329 H 0.64955 0.09324 0.4791 0.0
H330 H 0.82342 0.09869 0.48688 0.0
H331 H 0.72805 0.06223 0.42153 0.0
H332 H 0.64807 0.01967 0.41107 0.0
H333 H 0.6054 0.9295 0.45641 0.0
H334 H 0.68522 0.97101 0.46702 0.0
C335 C 0.95699 0.12963 0.42115 0.0
C336 C 0.95646 0.0919 0.41341 0.0
C337 C 0.91952 0.12332 0.43137 0.0
C338 C 0.88083 0.07902 0.43441 0.0
C339 C 0.87931 0.04144 0.42619 0.0
C340 C 0.91674 0.04781 0.41576 0.0
C341 C 0.8429 0.07215 0.44658 0.0
C342 C 0.79706 0.0503 0.4409 0.0
C343 C 0.85215 0.08854 0.46358 0.0
C344 C 0.89914 0.10855 0.47088 0.0
C345 C 0.92276 0.08365 0.47091 0.0
C346 C 0.96749 0.10313 0.47737 0.0
C347 C 0.98882 0.14731 0.48401 0.0
C348 C 0.96539 0.17205 0.48425 0.0
C349 C 0.92071 0.1528 0.47776 0.0
C350 C 0.69359 0.04657 0.50757 0.0
C351 C 0.66513 0.06324 0.50134 0.0
C352 C 0.72762 0.04697 0.49682 0.0
C353 C 0.73382 0.064 0.4796 0.0
C354 C 0.70555 0.08114 0.47344 0.0
C355 C 0.67126 0.08037 0.48417 0.0
C356 C 0.77027 0.0645 0.46819 0.0
C357 C 0.81592 0.0851 0.47403 0.0
C358 C 0.76057 0.04573 0.45155 0.0
C359 C 0.71257 0.02006 0.44514 0.0
C360 C 0.70165 0.03318 0.42923 0.0
C361 C 0.65633 0.00925 0.42328 0.0
C362 C 0.62165 0.97199 0.43309 0.0
C363 C 0.63226 0.95846 0.44885 0.0
C364 C 0.67753 0.98221 0.45484 0.0
H365 H 0.58658 0.95356 0.42847 0.0
H366 H 0.02346 0.16234 0.48899 0.0
H367 H 0.97124 0.91253 0.73353 0.0
H368 H 0.91436 0.84411 0.75075 0.0
H369 H 0.90722 0.93237 0.78849 0.0
H370 H 0.96317 1.00048 0.77143 0.0
H371 H 0.91549 0.85896 0.80318 0.0
H372 H 0.82398 0.88481 0.76063 0.0
H373 H 0.80274 0.89403 0.73093 0.0
H374 H 0.7779 0.75883 0.71958 0.0
H375 H 0.79966 0.74909 0.74916 0.0
H376 H 0.71544 0.71419 0.85378 0.0
H377 H 0.77502 0.77546 0.83485 0.0
H378 H 0.74755 0.67614 0.79579 0.0
H379 H 0.68587 0.61541 0.81443 0.0
H380 H 0.76045 0.75067 0.78059 0.0
H381 H 0.84611 0.72056 0.82279 0.0
H382 H 0.86857 0.7094 0.85203 0.0
H383 H 0.90757 0.84884 0.86347 0.0
H384 H 0.88471 0.86065 0.83437 0.0
C385 C 0.95766 0.91735 0.74552 0.0
C386 C 0.97181 0.96213 0.75103 0.0
C387 C 0.92507 0.87822 0.75532 0.0
C388 C 0.90645 0.88316 0.77089 0.0
C389 C 0.92116 0.92771 0.77655 0.0
C390 C 0.9531 0.96668 0.7667 0.0
C391 C 0.87113 0.84223 0.78131 0.0
C392 C 0.88146 0.8354 0.7983 0.0
C393 C 0.82727 0.81068 0.77477 0.0
C394 C 0.81397 0.81644 0.75703 0.0
C395 C 0.81438 0.85721 0.75175 0.0
C396 C 0.80217 0.8625 0.73495 0.0
C397 C 0.78912 0.82709 0.72336 0.0
C398 C 0.78811 0.78626 0.72856 0.0
C399 C 0.80035 0.78083 0.74534 0.0
C400 C 0.7222 0.70562 0.84113 0.0
C401 C 0.6966 0.6601 0.83562 0.0
C402 C 0.75652 0.74051 0.83036 0.0
C403 C 0.76684 0.73043 0.81398 0.0
C404 C 0.74066 0.68492 0.80837 0.0
C405 C 0.70568 0.65016 0.81905 0.0
C406 C 0.8044 0.76752 0.80267 0.0
C407 C 0.79458 0.77373 0.78549 0.0
C408 C 0.84906 0.79814 0.80897 0.0
C409 C 0.86337 0.79137 0.82643 0.0
C410 C 0.85923 0.74877 0.83157 0.0
C411 C 0.87205 0.74233 0.84812 0.0
C412 C 0.8894 0.77836 0.85961 0.0
C413 C 0.8941 0.82095 0.85456 0.0
C414 C 0.88127 0.82756 0.83803 0.0
H415 H 0.89928 0.7733 0.87242 0.0
H416 H 0.77967 0.83125 0.71036 0.0
H417 H 0.15128 0.98737 0.07401 0.0
H418 H 0.14808 0.92384 0.09183 0.0
H419 H 0.01514 0.8918 0.113 0.0
H420 H 0.01743 0.95429 0.09486 0.0
H421 H 0.0858 0.89351 0.13786 0.0
H422 H 0.00768 0.82852 0.0844 0.0
H423 H 0.00351 0.82535 0.05266 0.0
H424 H 0.12111 0.80595 0.05075 0.0
H425 H 0.12641 0.80979 0.08249 0.0
H426 H 0.01021 0.67875 0.17946 0.0
H427 H 0.01334 0.74101 0.16132 0.0
H428 H 0.10831 0.73138 0.12599 0.0
H429 H 0.1004 0.66484 0.14317 0.0
H430 H 0.06133 0.75424 0.10799 0.0
H431 H 0.14057 0.81618 0.16059 0.0
H432 H 0.14799 0.82003 0.19225 0.0
H433 H 0.03718 0.84948 0.19594 0.0
H434 H 0.02862 0.84513 0.16432 0.0
C435 C 0.12175 0.96731 0.08268 0.0
C436 C 0.08461 0.97585 0.08306 0.0
C437 C 0.11987 0.93089 0.09277 0.0
C438 C 0.08127 0.90301 0.10366 0.0
C439 C 0.04522 0.91292 0.10469 0.0
C440 C 0.0466 0.94862 0.09432 0.0
C441 C 0.07732 0.86213 0.11336 0.0
C442 C 0.08013 0.86287 0.1314 0.0
C443 C 0.07124 0.82276 0.10484 0.0
C444 C 0.06778 0.82 0.08579 0.0
C445 C 0.03292 0.82404 0.0772 0.0
C446 C 0.0303 0.82203 0.05921 0.0
C447 C 0.06212 0.81559 0.04968 0.0
C448 C 0.09653 0.81102 0.05814 0.0
C449 C 0.09935 0.81309 0.07613 0.0
C450 C 0.03073 0.68906 0.16756 0.0
C451 C 0.05502 0.66683 0.16271 0.0
C452 C 0.03335 0.72546 0.15734 0.0
C453 C 0.06263 0.74262 0.14255 0.0
C454 C 0.08581 0.71942 0.13739 0.0
C455 C 0.0815 0.68151 0.14724 0.0
C456 C 0.06961 0.78506 0.13274 0.0
C457 C 0.06743 0.78482 0.1146 0.0
C458 C 0.07728 0.82537 0.14117 0.0
C459 C 0.08374 0.83 0.1601 0.0
C460 C 0.11778 0.82346 0.16815 0.0
C461 C 0.12213 0.82565 0.18609 0.0
C462 C 0.09297 0.83484 0.19609 0.0
C463 C 0.05969 0.8423 0.18817 0.0
C464 C 0.05511 0.84003 0.17024 0.0
H465 H 0.09607 0.83613 0.20997 0.0
H466 H 0.06005 0.81404 0.03575 0.0
H467 H 0.17968 0.1073 0.39406 0.0
H468 H 0.23919 0.10587 0.41194 0.0
H469 H 0.13625 0.02917 0.45221 0.0
H470 H 0.07646 0.02967 0.43401 0.0
H471 H 0.27507 0.13863 0.44112 0.0
H472 H 0.16285 0.95681 0.47427 0.0
H473 H 0.09435 0.8816 0.46811 0.0
H474 H 0.12199 0.9118 0.41362 0.0
H475 H 0.19096 0.98687 0.41946 0.0
H476 H 0.39891 0.11252 0.51059 0.0
H477 H 0.33928 0.11413 0.49291 0.0
H478 H 0.33852 0.01126 0.46053 0.0
H479 H 0.39789 0.00919 0.47829 0.0
H480 H 0.25318 0.99113 0.46662 0.0
H481 H 0.3935 0.12774 0.448 0.0
H482 H 0.46573 0.2022 0.45106 0.0
H483 H 0.38809 0.26119 0.47147 0.0
H484 H 0.31544 0.18684 0.46879 0.0
C485 C 0.17002 0.09067 0.40683 0.0
C486 C 0.12391 0.06962 0.41291 0.0
C487 C 0.20396 0.08971 0.41702 0.0
C488 C 0.19233 0.06715 0.43342 0.0
C489 C 0.14609 0.04621 0.43952 0.0
C490 C 0.11201 0.04675 0.42921 0.0
C491 C 0.22858 0.06513 0.44395 0.0
C492 C 0.26999 0.10642 0.44682 0.0
C493 C 0.22288 0.02295 0.45097 0.0
C494 C 0.18176 0.97766 0.44732 0.0
C495 C 0.15438 0.94732 0.46098 0.0
C496 C 0.11547 0.90473 0.45754 0.0
C497 C 0.10374 0.89201 0.44048 0.0
C498 C 0.13101 0.92177 0.42682 0.0
C499 C 0.16998 0.96436 0.43019 0.0
C500 C 0.38633 0.0905 0.49962 0.0
C501 C 0.4034 0.06091 0.4958 0.0
C502 C 0.35216 0.09142 0.48952 0.0
C503 C 0.33468 0.06322 0.47523 0.0
C504 C 0.35132 0.03329 0.4715 0.0
C505 C 0.38527 0.03211 0.48167 0.0
C506 C 0.29909 0.06488 0.46417 0.0
C507 C 0.25789 0.02347 0.46113 0.0
C508 C 0.30539 0.10687 0.45668 0.0
C509 C 0.34908 0.15155 0.45838 0.0
C510 C 0.39187 0.15646 0.45329 0.0
C511 C 0.43288 0.19867 0.45493 0.0
C512 C 0.43152 0.23636 0.46151 0.0
C513 C 0.38911 0.23194 0.46642 0.0
C514 C 0.34801 0.18978 0.46484 0.0
H515 H 0.46331 0.26902 0.46276 0.0
H516 H 0.07358 0.85904 0.43785 0.0
H517 H 0.17547 0.18627 0.72847 0.0
H518 H 0.23464 0.24351 0.7468 0.0
H519 H 0.21963 0.13372 0.78186 0.0
H520 H 0.15835 0.07672 0.76392 0.0
H521 H 0.22667 0.19889 0.79999 0.0
H522 H 0.31457 0.19521 0.75178 0.0
H523 H 0.33572 0.19877 0.72097 0.0
H524 H 0.36232 0.33813 0.71586 0.0
H525 H 0.34076 0.33519 0.74659 0.0
H526 H 0.48608 0.38437 0.8174 0.0
H527 H 0.42775 0.32401 0.79997 0.0
H528 H 0.32305 0.34873 0.8214 0.0
H529 H 0.38032 0.40655 0.83985 0.0
H530 H 0.37743 0.32312 0.77541 0.0
H531 H 0.2171 0.25239 0.82198 0.0
H532 H 0.19925 0.24231 0.85331 0.0
H533 H 0.32463 0.24008 0.86289 0.0
H534 H 0.34291 0.24949 0.83162 0.0
C535 C 0.18431 0.17461 0.74028 0.0
C536 C 0.16121 0.12747 0.74523 0.0
C537 C 0.21873 0.20721 0.7506 0.0
C538 C 0.23205 0.19311 0.76573 0.0
C539 C 0.2098 0.14565 0.77037 0.0
C540 C 0.17495 0.11308 0.76012 0.0
C541 C 0.26878 0.22776 0.77678 0.0
C542 C 0.25965 0.226 0.7946 0.0
C543 C 0.31228 0.26279 0.76988 0.0
C544 C 0.32572 0.26484 0.75145 0.0
C545 C 0.3247 0.22652 0.74406 0.0
C546 C 0.33678 0.22844 0.72662 0.0
C547 C 0.35027 0.26862 0.71646 0.0
C548 C 0.35184 0.30702 0.72374 0.0
C549 C 0.33975 0.30527 0.74117 0.0
C550 C 0.45053 0.37647 0.81871 0.0
C551 C 0.43818 0.40044 0.83023 0.0
C552 C 0.41719 0.3422 0.80852 0.0
C553 C 0.37068 0.33117 0.80947 0.0
C554 C 0.35841 0.35573 0.82064 0.0
C555 C 0.39155 0.38949 0.83103 0.0
C556 C 0.33527 0.2944 0.79863 0.0
C557 C 0.34452 0.29593 0.78083 0.0
C558 C 0.29248 0.25827 0.80564 0.0
C559 C 0.28162 0.2522 0.82447 0.0
C560 C 0.24079 0.24962 0.83077 0.0
C561 C 0.23061 0.24403 0.84852 0.0
C562 C 0.26088 0.24074 0.86009 0.0
C563 C 0.30131 0.24284 0.85393 0.0
C564 C 0.31163 0.24835 0.83619 0.0
H565 H 0.25295 0.23646 0.87382 0.0
H566 H 0.35958 0.27002 0.70296 0.0
H567 H 0.97225 0.01309 0.67246 0.0
H568 H 0.91346 0.00747 0.65233 0.0
H569 H 0.90568 0.11528 0.6785 0.0
H570 H 0.96331 0.12035 0.69882 0.0
H571 H 0.82205 0.04831 0.67279 0.0
H572 H 0.96239 0.13331 0.63822 0.0
H573 H 0.03508 0.14701 0.62433 0.0
H574 H 0.95923 0.02367 0.59585 0.0
H575 H 0.88612 0.00892 0.60974 0.0
H576 H 0.70312 0.10898 0.61187 0.0
H577 H 0.76174 0.10914 0.6306 0.0
H578 H 0.75616 0.99668 0.60298 0.0
H579 H 0.69864 0.99742 0.58373 0.0
H580 H 0.84441 0.06078 0.60908 0.0
H581 H 0.70353 0.97807 0.64292 0.0
H582 H 0.63114 0.96555 0.65668 0.0
H583 H 0.70866 0.08588 0.68656 0.0
H584 H 0.78149 0.0995 0.6728 0.0
C585 C 0.95821 0.03577 0.67388 0.0
C586 C 0.97257 0.06709 0.68733 0.0
C587 C 0.92464 0.03263 0.66231 0.0
C588 C 0.90523 0.0612 0.66378 0.0
C589 C 0.91987 0.0927 0.6771 0.0
C590 C 0.95302 0.0956 0.68872 0.0
C591 C 0.86896 0.0579 0.65177 0.0
C592 C 0.82726 0.05159 0.65887 0.0
C593 C 0.87496 0.06085 0.63356 0.0
C594 C 0.91886 0.06975 0.62516 0.0
C595 C 0.96126 0.10892 0.6291 0.0
C596 C 1.00252 0.11691 0.62121 0.0
C597 C 1.00179 0.08616 0.60926 0.0
C598 C 0.95976 0.04742 0.60513 0.0
C599 C 0.91839 0.03925 0.613 0.0
C600 C 0.71457 0.08449 0.60964 0.0
C601 C 0.69594 0.05311 0.59626 0.0
C602 C 0.74783 0.08432 0.6205 0.0
C603 C 0.76302 0.05251 0.61838 0.0
C604 C 0.74488 0.02142 0.60494 0.0
C605 C 0.71162 0.0216 0.59405 0.0
C606 C 0.79793 0.05192 0.63014 0.0
C607 C 0.83923 0.05735 0.62301 0.0
C608 C 0.79167 0.04831 0.64834 0.0
C609 C 0.74793 0.04001 0.65672 0.0
C610 C 0.70511 0.00205 0.65234 0.0
C611 C 0.664 0.99472 0.66015 0.0
C612 C 0.66529 0.02496 0.67246 0.0
C613 C 0.70771 0.06251 0.67701 0.0
C614 C 0.74892 0.07002 0.66923 0.0
H615 H 0.63342 0.01924 0.67848 0.0
H616 H 0.03378 0.0924 0.60316 0.0
H617 H 0.93966 0.95917 0.03148 0.0
H618 H 0.88134 0.89859 0.01381 0.0
H619 H 0.98757 0.92449 0.9758 0.0
H620 H 0.04597 0.98457 0.99372 0.0
H621 H 0.84929 0.89711 0.98332 0.0
H622 H 0.96281 0.82507 0.95691 0.0
H623 H 0.02859 0.81624 0.96622 0.0
H624 H 0.99217 0.81767 0.01936 0.0
H625 H 0.92592 0.82591 0.01039 0.0
H626 H 0.73489 0.75398 0.91357 0.0
H627 H 0.79242 0.81303 0.93183 0.0
H628 H 0.78529 0.70631 0.9666 0.0
H629 H 0.72831 0.64712 0.94819 0.0
H630 H 0.87139 0.77092 0.96245 0.0
H631 H 0.73042 0.76889 0.97569 0.0
H632 H 0.65998 0.77285 0.96983 0.0
H633 H 0.74338 0.91127 0.94855 0.0
H634 H 0.81431 0.90787 0.95403 0.0
C635 C 0.95027 0.95226 0.01922 0.0
C636 C 0.99688 0.97725 0.01365 0.0
C637 C 0.91705 0.91754 0.00917 0.0
C638 C 0.92997 0.90665 0.99349 0.0
C639 C 0.97674 0.93174 0.98794 0.0
C640 C 0.01002 0.96622 0.99809 0.0
C641 C 0.89458 0.86886 0.98306 0.0
C642 C 0.85438 0.86983 0.97864 0.0
C643 C 0.90022 0.8321 0.97744 0.0
C644 C 0.9397 0.8266 0.98295 0.0
C645 C 0.96877 0.82334 0.97058 0.0
C646 C 0.00615 0.81847 0.97581 0.0
C647 C 0.01466 0.81657 0.99337 0.0
C648 C 0.98569 0.81935 0.00576 0.0
C649 C 0.94826 0.82418 1.00061 0.0
C650 C 0.74537 0.7431 0.92517 0.0
C651 C 0.72681 0.69584 0.92949 0.0
C652 C 0.77829 0.77691 0.93561 0.0
C653 C 0.79284 0.76425 0.95077 0.0
C654 C 0.77474 0.71705 0.95498 0.0
C655 C 0.74215 0.68321 0.94445 0.0
C656 C 0.82679 0.80015 0.96223 0.0
C657 C 0.86662 0.79866 0.96692 0.0
C658 C 0.82028 0.83587 0.96847 0.0
C659 C 0.77765 0.83792 0.9651 0.0
C660 C 0.73372 0.80002 0.96962 0.0
C661 C 0.6937 0.80219 0.96638 0.0
C662 C 0.69719 0.84223 0.95877 0.0
C663 C 0.74072 0.88024 0.95441 0.0
C664 C 0.78084 0.87821 0.95758 0.0
H665 H 0.66617 0.84385 0.95629 0.0
H666 H 0.04363 0.81284 0.99739 0.0
H667 H 0.96571 0.95125 0.33783 0.0
H668 H 0.96387 0.89208 0.31946 0.0
H669 H 0.10692 0.93906 0.33085 0.0
H670 H 0.1095 0.99952 0.3483 0.0
H671 H 0.09779 0.91984 0.29989 0.0
H672 H 0.00882 0.83677 0.35032 0.0
H673 H 0.94741 0.81039 0.37287 0.0
H674 H 0.84334 0.75164 0.33436 0.0
H675 H 0.90419 0.77822 0.31153 0.0
H676 H 0.0955 0.71231 0.27714 0.0
H677 H 0.09381 0.77072 0.29508 0.0
H678 H 0.97439 0.75483 0.26809 0.0
H679 H 0.97642 0.6971 0.24993 0.0
H680 H 0.97053 0.75669 0.30651 0.0
H681 H 0.06907 0.84175 0.25636 0.0
H682 H 0.13582 0.86523 0.23647 0.0
H683 H 0.22865 0.91626 0.27882 0.0
H684 H 0.16245 0.89256 0.29903 0.0
C685 C 0.99682 0.94913 0.33626 0.0
C686 C 0.03774 0.98011 0.3445 0.0
C687 C 0.99567 0.91497 0.32588 0.0
C688 C 0.03501 0.91021 0.32396 0.0
C689 C 0.07604 0.94175 0.33202 0.0
C690 C 0.07747 0.97641 0.34204 0.0
C691 C 0.03385 0.87267 0.3136 0.0
C692 C 0.07011 0.88415 0.30157 0.0
C693 C 0.99777 0.82582 0.31554 0.0
C694 C 0.96106 0.80997 0.3292 0.0
C695 C 0.97284 0.81857 0.34664 0.0
C696 C 0.93814 0.80352 0.35948 0.0
C697 C 0.8915 0.77948 0.35505 0.0
C698 C 0.87948 0.77035 0.33777 0.0
C699 C 0.91406 0.78538 0.32488 0.0
C700 C 0.06864 0.72098 0.27517 0.0
C701 C 0.03615 0.70026 0.26213 0.0
C702 C 0.06782 0.75443 0.28536 0.0
C703 C 0.03406 0.76719 0.28286 0.0
C704 C 1.0007 0.74547 0.27022 0.0
C705 C 1.00202 0.71268 0.25983 0.0
C706 C 0.03436 0.8042 0.29304 0.0
C707 C 0.99799 0.79251 0.30495 0.0
C708 C 0.07105 0.85056 0.29142 0.0
C709 C 0.11077 0.86495 0.27923 0.0
C710 C 0.10367 0.85759 0.26146 0.0
C711 C 0.1414 0.87101 0.25012 0.0
C712 C 0.18639 0.89206 0.25637 0.0
C713 C 0.19378 0.89988 0.27399 0.0
C714 C 0.15618 0.88651 0.28539 0.0
H715 H 0.21552 0.90242 0.24756 0.0
H716 H 0.86468 0.76783 0.365 0.0
H717 H 0.11476 0.97062 0.67184 0.0
H718 H 0.17078 0.96953 0.65156 0.0
H719 H 0.25588 0.11787 0.65354 0.0
H720 H 0.19949 0.11929 0.67324 0.0
H721 H 0.25835 0.09527 0.62227 0.0
H722 H 0.27812 0.04051 0.67792 0.0
H723 H 0.25333 0.98983 0.70428 0.0
H724 H 0.21449 0.87166 0.6736 0.0
H725 H 0.23855 0.92161 0.64703 0.0
H726 H 0.47272 0.0635 0.6114 0.0
H727 H 0.41049 0.0609 0.62937 0.0
H728 H 0.32515 0.0309 0.58454 0.0
H729 H 0.38765 0.03394 0.56661 0.0
H730 H 0.32311 0.99421 0.63713 0.0
H731 H 0.26088 0.08458 0.58807 0.0
H732 H 0.29284 0.1419 0.56365 0.0
H733 H 0.42893 0.20071 0.58461 0.0
H734 H 0.39769 0.1443 0.60928 0.0
C735 C 0.14512 0.00303 0.66776 0.0
C736 C 0.1527 0.045 0.67423 0.0
C737 C 0.17733 0.00236 0.65625 0.0
C738 C 0.21817 0.04355 0.65121 0.0
C739 C 0.22481 0.08558 0.65719 0.0
C740 C 0.19247 0.08632 0.66852 0.0
C741 C 0.25486 0.04309 0.64024 0.0
C742 C 0.27223 0.07292 0.62549 0.0
C743 C 0.27394 0.01474 0.64454 0.0
C744 C 0.25968 0.98471 0.66049 0.0
C745 C 0.26401 0.00367 0.67679 0.0
C746 C 0.25014 0.97509 0.69177 0.0
C747 C 0.23223 0.92754 0.69061 0.0
C748 C 0.2283 0.90849 0.67447 0.0
C749 C 0.24207 0.93691 0.65946 0.0
C750 C 0.44059 0.05639 0.60548 0.0
C751 C 0.43479 0.04926 0.5877 0.0
C752 C 0.40504 0.05469 0.61571 0.0
C753 C 0.3632 0.04607 0.6083 0.0
C754 C 0.35726 0.03818 0.59052 0.0
C755 C 0.39279 0.03981 0.58031 0.0
C756 C 0.32614 0.04601 0.61913 0.0
C757 C 0.30881 0.01616 0.63384 0.0
C758 C 0.30797 0.07522 0.61505 0.0
C759 C 0.32697 0.10983 0.60041 0.0
C760 C 0.29758 0.10986 0.58749 0.0
C761 C 0.31558 0.14219 0.57361 0.0
C762 C 0.36291 0.17481 0.57254 0.0
C763 C 0.39231 0.17532 0.58541 0.0
C764 C 0.37447 0.14315 0.59934 0.0
H765 H 0.37677 0.19976 0.56177 0.0
H766 H 0.2215 0.90546 0.70221 0.0
H767 H 0.12632 0.19237 0.99388 0.0
H768 H 0.19349 0.24871 0.97668 0.0
H769 H 0.27973 0.20743 0.00406 0.0
H770 H 0.21218 0.1501 0.02131 0.0
H771 H 0.27131 0.32268 0.98465 0.0
H772 H 0.36682 0.22055 0.97612 0.0
H773 H 0.3489 0.13961 0.97515 0.0
H774 H 0.21185 0.09821 0.95795 0.0
H775 H 0.22916 0.17894 0.95859 0.0
H776 H 0.49399 0.47593 0.94734 0.0
H777 H 0.43196 0.41682 0.96638 0.0
H778 H 0.3725 0.32993 0.92287 0.0
H779 H 0.43515 0.38879 0.90397 0.0
H780 H 0.3683 0.27864 0.95054 0.0
H781 H 0.32924 0.39584 0.93796 0.0
H782 H 0.34314 0.47549 0.93631 0.0
H783 H 0.35775 0.48363 0.99134 0.0
H784 H 0.34478 0.40427 0.99328 0.0
C785 C 0.15948 0.19507 0.99633 0.0
C786 C 0.16359 0.16641 0.00905 0.0
C787 C 0.19801 0.22758 0.98647 0.0
C788 C 0.24175 0.23232 0.98896 0.0
C789 C 0.24625 0.2041 1.00173 0.0
C790 C 0.20757 0.17139 0.01163 0.0
C791 C 0.28227 0.26678 0.97809 0.0
C792 C 0.29264 0.31301 0.97728 0.0
C793 C 0.30979 0.25428 0.9682 0.0
C794 C 0.29914 0.20569 0.96761 0.0
C795 C 0.33291 0.19417 0.97209 0.0
C796 C 0.32286 0.14834 0.9716 0.0
C797 C 0.27921 0.11377 0.96656 0.0
C798 C 0.24558 0.12498 0.96193 0.0
C799 C 0.25548 0.17076 0.96237 0.0
C800 C 0.46767 0.44404 0.94196 0.0
C801 C 0.46881 0.43673 0.92427 0.0
C802 C 0.43226 0.41037 0.95278 0.0
C803 C 0.39715 0.36904 0.94604 0.0
C804 C 0.39912 0.36142 0.92839 0.0
C805 C 0.43465 0.39502 0.91759 0.0
C806 C 0.35749 0.33451 0.95722 0.0
C807 C 0.34726 0.28834 0.95807 0.0
C808 C 0.32939 0.34682 0.96684 0.0
C809 C 0.33648 0.39428 0.96574 0.0
C810 C 0.33571 0.41472 0.9497 0.0
C811 C 0.34341 0.45981 0.94871 0.0
C812 C 0.35141 0.48464 0.96371 0.0
C813 C 0.35161 0.46437 0.97973 0.0
C814 C 0.34408 0.41934 0.98078 0.0
H815 H 0.35737 0.51955 0.96292 0.0
H816 H 0.27149 0.07831 0.9662 0.0
H817 H 0.09797 0.24861 0.36136 0.0
H818 H 0.08991 0.29655 0.33905 0.0
H819 H 0.01315 0.17736 0.3082 0.0
H820 H 0.02093 0.12837 0.33067 0.0
H821 H 0.08097 0.25819 0.28899 0.0
H822 H 0.9541 0.21466 0.3287 0.0
H823 H 0.91702 0.20334 0.35744 0.0
H824 H 0.99976 0.34887 0.36557 0.0
H825 H 0.03787 0.36098 0.33697 0.0
H826 H 0.02194 0.39356 0.23234 0.0
H827 H 0.01777 0.33127 0.25128 0.0
H828 H 0.07098 0.4253 0.29313 0.0
H829 H 0.07259 0.48641 0.27447 0.0
H830 H 0.00588 0.34761 0.30527 0.0
H831 H 0.1385 0.39091 0.26756 0.0
H832 H 0.17868 0.4039 0.23935 0.0
H833 H 0.0887 0.26144 0.22789 0.0
H834 H 0.0476 0.24775 0.25595 0.0
C835 C 0.07941 0.23224 0.34986 0.0
C836 C 0.05981 0.18429 0.34796 0.0
C837 C 0.07478 0.25988 0.33709 0.0
C838 C 0.05047 0.24053 0.32204 0.0
C839 C 0.03193 0.19299 0.31975 0.0
C840 C 0.03631 0.16504 0.33264 0.0
C841 C 0.044 0.27038 0.30903 0.0
C842 C 0.06381 0.27714 0.2924 0.0
C843 C 0.02234 0.29573 0.31359 0.0
C844 C 0.99906 0.28866 0.33072 0.0
C845 C 0.96461 0.24421 0.33666 0.0
C846 C 0.94338 0.23765 0.35292 0.0
C847 C 0.95608 0.27535 0.36333 0.0
C848 C 0.98996 0.3197 0.35749 0.0
C849 C 0.01135 0.32644 0.34124 0.0
C850 C 0.03287 0.4007 0.24558 0.0
C851 C 0.04882 0.44499 0.25185 0.0
C852 C 0.03072 0.36524 0.25638 0.0
C853 C 0.04503 0.37363 0.27361 0.0
C854 C 0.06003 0.4178 0.27991 0.0
C855 C 0.06146 0.45291 0.2692 0.0
C856 C 0.04409 0.3367 0.28527 0.0
C857 C 0.0227 0.32845 0.3017 0.0
C858 C 0.06468 0.31034 0.28054 0.0
C859 C 0.08967 0.31844 0.26376 0.0
C860 C 0.12711 0.36243 0.25897 0.0
C861 C 0.15007 0.36991 0.24302 0.0
C862 C 0.13616 0.33356 0.23181 0.0
C863 C 0.09938 0.28959 0.23657 0.0
C864 C 0.07626 0.28194 0.2525 0.0
H865 H 0.15395 0.33942 0.21946 0.0
H866 H 0.93961 0.2702 0.37593 0.0
loop_
_geom_bond_atom_site_label_1
_geom_bond_atom_site_label_2
_geom_bond_distance
_geom_bond_site_symmetry_2
_ccdc_geom_bond_type
Mn0 O5 2.095 . S
Mn0 O15 2.162 . S
Mn0 O16 2.297 1_545 S
Mn0 O24 2.385 1_545 S
Mn0 O25 2.209 . S
Mn0 O26 2.094 . S
Mn1 O6 2.121 . S
Mn1 N8 2.257 1_455 S
Mn1 N17 2.282 1_554 S
Mn1 O25 2.215 . S
Mn1 O27 2.117 . S
C2 O24 1.234 . S
C2 O25 1.283 1_565 S
C3 O15 1.281 1_565 S
C3 O16 1.236 . S
C4 O26 1.240 . S
C4 O27 1.264 . S
O5 Mn0 2.095 . S
O5 C14 1.250 . S
O6 Mn1 2.121 . S
O6 C14 1.258 . S
C7 N8 1.326 . S
C7 C11 1.460 . S
C7 H13 0.929 . S
N8 Mn1 2.257 1_655 S
N8 C7 1.326 . S
N8 C12 1.362 . S
C9 C10 1.258 . S
C9 C12 1.431 . S
C9 C29 1.449 1_554 S
C10 C9 1.258 . S
C10 C11 1.477 . S
C10 H30 0.931 . S
C11 C7 1.460 . S
C11 C10 1.477 . S
C11 H31 0.930 . S
C12 N8 1.362 . S
C12 C9 1.431 . S
C12 C22 1.476 1_554 S
H13 C7 0.929 . S
C14 O5 1.250 . S
C14 O6 1.258 . S
O15 Mn0 2.162 . S
O15 C3 1.281 1_545 S
O16 Mn0 2.297 1_565 S
O16 C3 1.236 . S
N17 Mn1 2.282 1_556 S
N17 C18 1.328 . S
N17 C22 1.318 1_455 S
C18 N17 1.328 . S
C18 C19 1.457 . S
C18 H23 0.929 . S
C19 C18 1.457 . S
C19 C20 1.291 1_455 S
C19 H32 0.931 . S
C20 C19 1.291 1_655 S
C20 C21 1.373 . S
C20 H33 0.929 . S
C21 C20 1.373 . S
C21 C22 1.396 . S
C21 C28 1.403 . S
C22 C12 1.476 1_556 S
C22 N17 1.318 1_655 S
C22 C21 1.396 . S
H23 C18 0.929 . S
O24 Mn0 2.385 1_565 S
O24 C2 1.234 . S
O25 Mn0 2.209 . S
O25 Mn1 2.215 . S
O25 C2 1.283 1_545 S
O26 Mn0 2.094 . S
O26 C4 1.240 . S
O27 Mn1 2.117 . S
O27 C4 1.264 . S
C28 C21 1.403 . S
C28 C29 1.399 . S
C28 H34 0.929 . S
C29 C9 1.449 1_556 S
C29 C28 1.399 . S
C29 H35 0.930 . S
H30 C10 0.931 . S
H31 C11 0.930 . S
H32 C19 0.931 . S
H33 C20 0.929 . S
H34 C28 0.929 . S
H35 C29 0.930 . S
Mn36 O41 2.095 . S
Mn36 O51 2.162 1_445 S
Mn36 O52 2.297 . S
Mn36 O60 2.385 . S
Mn36 O61 2.209 . S
Mn36 O62 2.094 1_455 S
Mn37 O42 2.121 . S
Mn37 N44 2.257 . S
Mn37 N53 2.282 . S
Mn37 O61 2.215 . S
Mn37 O63 2.117 . S
C38 O60 1.234 . S
C38 O61 1.283 . S
C39 O51 1.281 1_455 S
C39 O52 1.236 1_565 S
C40 O62 1.240 . S
C40 O63 1.264 1_655 S
O41 Mn36 2.095 . S
O41 C50 1.250 . S
O42 Mn37 2.121 . S
O42 C50 1.258 . S
C43 N44 1.326 . S
C43 C47 1.460 . S
C43 H49 0.929 . S
N44 Mn37 2.257 . S
N44 C43 1.326 . S
N44 C48 1.362 . S
C45 C46 1.258 . S
C45 C48 1.431 . S
C45 C65 1.449 . S
C46 C45 1.258 . S
C46 C47 1.477 . S
C46 H66 0.931 . S
C47 C43 1.460 . S
C47 C46 1.477 . S
C47 H67 0.930 . S
C48 N44 1.362 . S
C48 C45 1.431 . S
C48 C58 1.476 . S
H49 C43 0.929 . S
C50 O41 1.250 . S
C50 O42 1.258 . S
O51 Mn36 2.162 1_665 S
O51 C39 1.281 1_655 S
O52 Mn36 2.297 . S
O52 C39 1.236 1_545 S
N53 Mn37 2.282 . S
N53 C54 1.328 . S
N53 C58 1.318 . S
C54 N53 1.328 . S
C54 C55 1.457 . S
C54 H59 0.929 . S
C55 C54 1.457 . S
C55 C56 1.291 . S
C55 H68 0.931 . S
C56 C55 1.291 . S
C56 C57 1.373 . S
C56 H69 0.929 . S
C57 C56 1.373 . S
C57 C58 1.396 . S
C57 C64 1.403 . S
C58 C48 1.476 . S
C58 N53 1.318 . S
C58 C57 1.396 . S
H59 C54 0.929 . S
O60 Mn36 2.385 . S
O60 C38 1.234 . S
O61 Mn36 2.209 . S
O61 Mn37 2.215 . S
O61 C38 1.283 . S
O62 Mn36 2.094 1_655 S
O62 C40 1.240 . S
O63 Mn37 2.117 . S
O63 C40 1.264 1_455 S
C64 C57 1.403 . S
C64 C65 1.399 . S
C64 H70 0.929 . S
C65 C45 1.449 . S
C65 C64 1.399 . S
C65 H71 0.930 . S
H66 C46 0.931 . S
H67 C47 0.930 . S
H68 C55 0.931 . S
H69 C56 0.929 . S
H70 C64 0.929 . S
H71 C65 0.930 . S
Mn72 O77 2.095 . S
Mn72 O87 2.155 1_545 S
Mn72 O88 2.297 . S
Mn72 O96 2.385 . S
Mn72 O97 2.209 . S
Mn72 O98 2.094 1_545 S
Mn73 O78 2.115 1_455 S
Mn73 N80 2.257 . S
Mn73 N89 2.282 . S
Mn73 O97 2.215 . S
Mn73 O99 2.117 1_455 S
C74 O96 1.234 . S
C74 O97 1.283 . S
C75 O87 1.275 1_545 S
C75 O88 1.236 . S
C76 O98 1.240 1_655 S
C76 O99 1.264 1_565 S
O77 Mn72 2.095 . S
O77 C86 1.256 . S
O78 Mn73 2.115 1_655 S
O78 C86 1.246 1_655 S
C79 N80 1.326 . S
C79 C83 1.460 . S
C79 H85 0.929 . S
N80 Mn73 2.257 . S
N80 C79 1.326 . S
N80 C84 1.362 . S
C81 C82 1.258 . S
C81 C84 1.431 . S
C81 C101 1.449 . S
C82 C81 1.258 . S
C82 C83 1.477 . S
C82 H102 0.931 . S
C83 C79 1.460 . S
C83 C82 1.477 . S
C83 H103 0.930 . S
C84 N80 1.362 . S
C84 C81 1.431 . S
C84 C94 1.476 . S
H85 C79 0.929 . S
C86 O77 1.256 . S
C86 O78 1.246 1_455 S
O87 Mn72 2.155 1_565 S
O87 C75 1.275 1_565 S
O88 Mn72 2.297 . S
O88 C75 1.236 . S
N89 Mn73 2.282 . S
N89 C90 1.328 . S
N89 C94 1.318 . S
C90 N89 1.328 . S
C90 C91 1.457 . S
C90 H95 0.929 . S
C91 C90 1.457 . S
C91 C92 1.291 . S
C91 H104 0.931 . S
C92 C91 1.291 . S
C92 C93 1.373 . S
C92 H105 0.929 . S
C93 C92 1.373 . S
C93 C94 1.396 . S
C93 C100 1.403 . S
C94 C84 1.476 . S
C94 N89 1.318 . S
C94 C93 1.396 . S
H95 C90 0.929 . S
O96 Mn72 2.385 . S
O96 C74 1.234 . S
O97 Mn72 2.209 . S
O97 Mn73 2.215 . S
O97 C74 1.283 . S
O98 Mn72 2.094 1_565 S
O98 C76 1.240 1_455 S
O99 Mn73 2.117 1_655 S
O99 C76 1.264 1_545 S
C100 C93 1.403 . S
C100 C101 1.399 . S
C100 H106 0.929 . S
C101 C81 1.449 . S
C101 C100 1.399 . S
C101 H107 0.930 . S
H102 C82 0.931 . S
H103 C83 0.930 . S
H104 C91 0.931 . S
H105 C92 0.929 . S
H106 C100 0.929 . S
H107 C101 0.930 . S
C108 C109 1.443 . S
C108 N112 1.376 . S
C108 C146 1.389 . S
C109 C108 1.443 . S
C109 C110 1.340 . S
C109 H149 0.951 . S
C110 C109 1.340 . S
C110 C111 1.439 . S
C110 H150 0.950 . S
C111 C110 1.439 . S
C111 N112 1.374 . S
C111 C145 1.395 . S
N112 C108 1.376 . S
N112 C111 1.374 . S
N112 Co113 2.008 . S
Co113 N112 2.008 . S
Co113 N114 1.995 . S
Co113 N119 2.008 1_455 S
Co113 N124 1.995 1_455 S
Co113 N129 2.282 . S
Co113 N135 2.282 . S
N114 Co113 1.995 . S
N114 C115 1.376 . S
N114 C118 1.383 . S
C115 N114 1.376 . S
C115 C116 1.446 . S
C115 C145 1.391 . S
C116 C115 1.446 . S
C116 C117 1.339 . S
C116 H151 0.949 . S
C117 C116 1.339 . S
C117 C118 1.439 . S
C117 H152 0.950 . S
C118 N114 1.383 . S
C118 C117 1.439 . S
C118 C147 1.392 . S
N119 Co113 2.008 1_655 S
N119 C120 1.376 . S
N119 C123 1.374 . S
C120 N119 1.376 . S
C120 C121 1.443 . S
C120 C147 1.389 1_655 S
C121 C120 1.443 . S
C121 C122 1.340 . S
C121 H153 0.951 . S
C122 C121 1.340 . S
C122 C123 1.439 . S
C122 H154 0.950 . S
C123 N119 1.374 . S
C123 C122 1.439 . S
C123 C148 1.395 . S
N124 Co113 1.995 1_655 S
N124 C125 1.376 . S
N124 C128 1.383 1_655 S
C125 N124 1.376 . S
C125 C126 1.446 . S
C125 C148 1.391 . S
C126 C125 1.446 . S
C126 C127 1.339 . S
C126 H155 0.949 . S
C127 C126 1.339 . S
C127 C128 1.439 1_655 S
C127 H156 0.950 . S
C128 N124 1.383 1_455 S
C128 C127 1.439 1_455 S
C128 C146 1.392 . S
N129 Co113 2.282 . S
N129 C132 1.332 . S
N129 C134 1.332 . S
C130 C131 1.386 . S
C130 C133 1.388 . S
C131 C130 1.386 . S
C131 C132 1.382 . S
C131 H157 0.950 1_455 S
C132 N129 1.332 . S
C132 C131 1.382 . S
C132 H143 0.952 1_455 S
C133 C130 1.388 . S
C133 C134 1.382 . S
C133 H158 0.950 . S
C134 N129 1.332 . S
C134 C133 1.382 . S
C134 H144 0.948 . S
N135 Co113 2.282 . S
N135 C139 1.332 . S
N135 C140 1.332 . S
C136 C137 1.383 1_655 S
C136 C140 1.378 1_655 S
C136 H159 0.960 . S
C137 C136 1.383 1_455 S
C137 C138 1.386 . S
C138 C137 1.386 . S
C138 C139 1.382 . S
C138 H160 0.950 . S
C139 N135 1.332 . S
C139 C138 1.382 . S
C139 H141 0.952 . S
C140 N135 1.332 . S
C140 C136 1.378 1_455 S
C140 H142 0.948 1_455 S
H141 C139 0.952 . S
H142 C140 0.948 1_655 S
H143 C132 0.952 1_655 S
H144 C134 0.948 . S
C145 C111 1.395 . S
C145 C115 1.391 . S
C146 C108 1.389 . S
C146 C128 1.392 . S
C147 C118 1.392 . S
C147 C120 1.389 1_455 S
C148 C123 1.395 . S
C148 C125 1.391 . S
H149 C109 0.951 . S
H150 C110 0.950 . S
H151 C116 0.949 . S
H152 C117 0.950 . S
H153 C121 0.951 . S
H154 C122 0.950 . S
H155 C126 0.949 . S
H156 C127 0.950 . S
H157 C131 0.950 1_655 S
H158 C133 0.950 . S
H159 C136 0.960 . S
H160 C138 0.950 . S
C161 C162 1.443 . S
C161 N165 1.376 . S
C161 C199 1.389 . S
C162 C161 1.443 . S
C162 C163 1.340 1_545 S
C162 H202 0.951 1_545 S
C163 C162 1.340 1_565 S
C163 C164 1.439 . S
C163 H203 0.950 . S
C164 C163 1.439 . S
C164 N165 1.374 1_565 S
C164 C198 1.395 . S
N165 C161 1.376 . S
N165 C164 1.374 1_545 S
N165 Co166 2.008 . S
Co166 N165 2.008 . S
Co166 N167 1.995 . S
Co166 N172 2.008 . S
Co166 N177 1.995 . S
Co166 N182 2.282 . S
Co166 N188 2.282 . S
N167 Co166 1.995 . S
N167 C168 1.376 1_545 S
N167 C171 1.383 . S
C168 N167 1.376 1_565 S
C168 C169 1.446 . S
C168 C198 1.391 . S
C169 C168 1.446 . S
C169 C170 1.339 1_565 S
C169 H204 0.949 . S
C170 C169 1.339 1_545 S
C170 C171 1.439 . S
C170 H205 0.950 . S
C171 N167 1.383 . S
C171 C170 1.439 . S
C171 C200 1.392 . S
N172 Co166 2.008 . S
N172 C173 1.376 . S
N172 C176 1.374 . S
C173 N172 1.376 . S
C173 C174 1.443 . S
C173 C200 1.389 . S
C174 C173 1.443 . S
C174 C175 1.340 . S
C174 H206 0.951 . S
C175 C174 1.340 . S
C175 C176 1.439 . S
C175 H207 0.950 . S
C176 N172 1.374 . S
C176 C175 1.439 . S
C176 C201 1.395 . S
N177 Co166 1.995 . S
N177 C178 1.376 . S
N177 C181 1.383 . S
C178 N177 1.376 . S
C178 C179 1.446 . S
C178 C201 1.391 . S
C179 C178 1.446 . S
C179 C180 1.339 . S
C179 H208 0.949 . S
C180 C179 1.339 . S
C180 C181 1.439 . S
C180 H209 0.950 . S
C181 N177 1.383 . S
C181 C180 1.439 . S
C181 C199 1.392 . S
N182 Co166 2.282 . S
N182 C185 1.332 . S
N182 C187 1.332 . S
C183 C184 1.386 . S
C183 C186 1.388 . S
C184 C183 1.386 . S
C184 C185 1.382 . S
C184 H210 0.950 . S
C185 N182 1.332 . S
C185 C184 1.382 . S
C185 H196 0.952 . S
C186 C183 1.388 . S
C186 C187 1.382 . S
C186 H211 0.950 . S
C187 N182 1.332 . S
C187 C186 1.382 . S
C187 H197 0.948 . S
N188 Co166 2.282 . S
N188 C192 1.332 . S
N188 C193 1.332 . S
C189 C190 1.388 . S
C189 C193 1.382 . S
C189 H212 0.950 . S
C190 C189 1.388 . S
C190 C191 1.386 . S
C191 C190 1.386 . S
C191 C192 1.382 . S
C191 H213 0.950 . S
C192 N188 1.332 . S
C192 C191 1.382 . S
C192 H194 0.952 . S
C193 N188 1.332 . S
C193 C189 1.382 . S
C193 H195 0.948 . S
H194 C192 0.952 . S
H195 C193 0.948 . S
H196 C185 0.952 . S
H197 C187 0.948 . S
C198 C164 1.395 . S
C198 C168 1.391 . S
C199 C161 1.389 . S
C199 C181 1.392 . S
C200 C171 1.392 . S
C200 C173 1.389 . S
C201 C176 1.395 . S
C201 C178 1.391 . S
H202 C162 0.951 1_565 S
H203 C163 0.950 . S
H204 C169 0.949 . S
H205 C170 0.950 . S
H206 C174 0.951 . S
H207 C175 0.950 . S
H208 C179 0.949 . S
H209 C180 0.950 . S
H210 C184 0.950 . S
H211 C186 0.950 . S
H212 C189 0.950 . S
H213 C191 0.950 . S
C214 C215 1.443 . S
C214 N218 1.376 . S
C214 C252 1.389 . S
C215 C214 1.443 . S
C215 C216 1.340 . S
C215 H255 0.951 . S
C216 C215 1.340 . S
C216 C217 1.439 . S
C216 H256 0.950 . S
C217 C216 1.439 . S
C217 N218 1.374 . S
C217 C251 1.395 . S
N218 C214 1.376 . S
N218 C217 1.374 . S
N218 Co219 2.008 . S
Co219 N218 2.008 . S
Co219 N220 1.995 . S
Co219 N225 2.008 . S
Co219 N230 1.995 . S
Co219 N235 2.282 . S
Co219 N241 2.282 . S
N220 Co219 1.995 . S
N220 C221 1.376 . S
N220 C224 1.383 . S
C221 N220 1.376 . S
C221 C222 1.446 . S
C221 C251 1.391 . S
C222 C221 1.446 . S
C222 C223 1.339 . S
C222 H257 0.949 . S
C223 C222 1.339 . S
C223 C224 1.439 . S
C223 H258 0.950 . S
C224 N220 1.383 . S
C224 C223 1.439 . S
C224 C253 1.392 . S
N225 Co219 2.008 . S
N225 C226 1.376 . S
N225 C229 1.374 . S
C226 N225 1.376 . S
C226 C227 1.443 . S
C226 C253 1.389 . S
C227 C226 1.443 . S
C227 C228 1.340 . S
C227 H259 0.951 . S
C228 C227 1.340 . S
C228 C229 1.439 . S
C228 H260 0.950 . S
C229 N225 1.374 . S
C229 C228 1.439 . S
C229 C254 1.395 . S
N230 Co219 1.995 . S
N230 C231 1.376 . S
N230 C234 1.383 . S
C231 N230 1.376 . S
C231 C232 1.446 . S
C231 C254 1.391 . S
C232 C231 1.446 . S
C232 C233 1.339 . S
C232 H261 0.949 . S
C233 C232 1.339 . S
C233 C234 1.439 . S
C233 H262 0.950 . S
C234 N230 1.383 . S
C234 C233 1.439 . S
C234 C252 1.392 . S
N235 Co219 2.282 . S
N235 C238 1.332 . S
N235 C240 1.332 . S
C236 C237 1.386 . S
C236 C239 1.388 . S
C237 C236 1.386 . S
C237 C238 1.382 . S
C237 H263 0.950 . S
C238 N235 1.332 . S
C238 C237 1.382 . S
C238 H249 0.952 . S
C239 C236 1.388 . S
C239 C240 1.382 . S
C239 H264 0.950 . S
C240 N235 1.332 . S
C240 C239 1.382 . S
C240 H250 0.948 . S
N241 Co219 2.282 . S
N241 C245 1.332 . S
N241 C246 1.332 . S
C242 C243 1.388 . S
C242 C246 1.382 . S
C242 H265 0.950 . S
C243 C242 1.388 . S
C243 C244 1.386 . S
C244 C243 1.386 . S
C244 C245 1.382 . S
C244 H266 0.950 . S
C245 N241 1.332 . S
C245 C244 1.382 . S
C245 H247 0.952 . S
C246 N241 1.332 . S
C246 C242 1.382 . S
C246 H248 0.948 . S
H247 C245 0.952 . S
H248 C246 0.948 . S
H249 C238 0.952 . S
H250 C240 0.948 . S
C251 C217 1.395 . S
C251 C221 1.391 . S
C252 C214 1.389 . S
C252 C234 1.392 . S
C253 C224 1.392 . S
C253 C226 1.389 . S
C254 C229 1.395 . S
C254 C231 1.391 . S
H255 C215 0.951 . S
H256 C216 0.950 . S
H257 C222 0.949 . S
H258 C223 0.950 . S
H259 C227 0.951 . S
H260 C228 0.950 . S
H261 C232 0.949 . S
H262 C233 0.950 . S
H263 C237 0.950 . S
H264 C239 0.950 . S
H265 C242 0.950 . S
H266 C244 0.950 . S
H267 C285 0.951 . S
H268 C287 0.951 . S
H269 C289 0.950 . S
H270 C290 0.950 . S
H271 C292 0.950 . S
H272 C295 0.950 1_655 S
H273 C296 0.950 . S
H274 C298 0.950 . S
H275 C299 0.950 . S
H276 C300 0.951 . S
H277 C302 0.951 . S
H278 C304 0.950 . S
H279 C305 0.950 . S
H280 C307 0.950 . S
H281 C310 0.950 . S
H282 C311 0.950 . S
H283 C313 0.950 . S
H284 C314 0.950 . S
C285 H267 0.951 . S
C285 C286 1.366 . S
C285 C287 1.388 . S
C286 C285 1.366 . S
C286 C290 1.385 . S
C287 H268 0.951 . S
C287 C285 1.388 . S
C287 C288 1.366 . S
C288 C287 1.366 . S
C288 C289 1.414 . S
C288 C291 1.499 . S
C289 H269 0.950 . S
C289 C288 1.414 . S
C289 C290 1.374 . S
C290 H270 0.950 . S
C290 C286 1.385 . S
C290 C289 1.374 . S
C291 C288 1.499 . S
C291 C292 1.373 . S
C291 C293 1.389 . S
C292 H271 0.950 . S
C292 C291 1.373 . S
C292 C308 1.377 . S
C293 C291 1.389 . S
C293 C294 1.524 . S
C293 C307 1.377 . S
C294 C293 1.524 . S
C294 C295 1.397 . S
C294 C299 1.363 . S
C295 H272 0.950 1_455 S
C295 C294 1.397 . S
C295 C296 1.334 1_455 S
C296 H273 0.950 . S
C296 C295 1.334 1_655 S
C296 C297 1.287 1_655 S
C297 C296 1.287 1_455 S
C297 C298 1.524 . S
C297 H316 0.913 1_455 S
C298 H274 0.950 . S
C298 C297 1.524 . S
C298 C299 1.415 . S
C299 H275 0.950 . S
C299 C294 1.363 . S
C299 C298 1.415 . S
C300 H276 0.951 . S
C300 C301 1.366 . S
C300 C302 1.388 . S
C301 C300 1.366 . S
C301 C305 1.385 . S
C302 H277 0.951 . S
C302 C300 1.388 . S
C302 C303 1.366 . S
C303 C302 1.366 . S
C303 C304 1.414 . S
C303 C306 1.499 . S
C304 H278 0.950 . S
C304 C303 1.414 . S
C304 C305 1.374 . S
C305 H279 0.950 . S
C305 C301 1.385 . S
C305 C304 1.374 . S
C306 C303 1.499 . S
C306 C307 1.373 . S
C306 C308 1.389 . S
C307 H280 0.950 . S
C307 C293 1.377 . S
C307 C306 1.373 . S
C308 C292 1.377 . S
C308 C306 1.389 . S
C308 C309 1.524 . S
C309 C308 1.524 . S
C309 C310 1.397 . S
C309 C314 1.363 . S
C310 H281 0.950 . S
C310 C309 1.397 . S
C310 C311 1.334 . S
C311 H282 0.950 . S
C311 C310 1.334 . S
C311 C312 1.287 . S
C312 C311 1.287 . S
C312 C313 1.524 . S
C312 H315 0.999 . S
C313 H283 0.950 . S
C313 C312 1.524 . S
C313 C314 1.415 . S
C314 H284 0.950 . S
C314 C309 1.363 . S
C314 C313 1.415 . S
H315 C312 0.999 . S
H316 C297 0.913 1_655 S
H317 C335 0.951 . S
H318 C337 0.951 . S
H319 C339 0.950 1_565 S
H320 C340 0.950 1_565 S
H321 C342 0.950 . S
H322 C345 0.950 . S
H323 C346 0.950 . S
H324 C348 0.950 . S
H325 C349 0.950 . S
H326 C350 0.951 . S
H327 C352 0.951 . S
H328 C354 0.950 . S
H329 C355 0.950 . S
H330 C357 0.950 . S
H331 C360 0.950 . S
H332 C361 0.950 . S
H333 C363 0.950 . S
H334 C364 0.950 . S
C335 H317 0.951 . S
C335 C336 1.366 . S
C335 C337 1.388 . S
C336 C335 1.366 . S
C336 C340 1.385 . S
C337 H318 0.951 . S
C337 C335 1.388 . S
C337 C338 1.366 . S
C338 C337 1.366 . S
C338 C339 1.414 . S
C338 C341 1.499 . S
C339 H319 0.950 1_545 S
C339 C338 1.414 . S
C339 C340 1.374 . S
C340 H320 0.950 1_545 S
C340 C336 1.385 . S
C340 C339 1.374 . S
C341 C338 1.499 . S
C341 C342 1.373 . S
C341 C343 1.389 . S
C342 H321 0.950 . S
C342 C341 1.373 . S
C342 C358 1.377 . S
C343 C341 1.389 . S
C343 C344 1.524 . S
C343 C357 1.377 . S
C344 C343 1.524 . S
C344 C345 1.397 . S
C344 C349 1.363 . S
C345 H322 0.950 . S
C345 C344 1.397 . S
C345 C346 1.334 . S
C346 H323 0.950 . S
C346 C345 1.334 . S
C346 C347 1.287 . S
C347 C346 1.287 . S
C347 C348 1.524 . S
C347 H366 0.913 1_655 S
C348 H324 0.950 . S
C348 C347 1.524 . S
C348 C349 1.415 . S
C349 H325 0.950 . S
C349 C344 1.363 . S
C349 C348 1.415 . S
C350 H326 0.951 . S
C350 C351 1.366 . S
C350 C352 1.388 . S
C351 C350 1.366 . S
C351 C355 1.385 . S
C352 H327 0.951 . S
C352 C350 1.388 . S
C352 C353 1.366 . S
C353 C352 1.366 . S
C353 C354 1.414 . S
C353 C356 1.499 . S
C354 H328 0.950 . S
C354 C353 1.414 . S
C354 C355 1.374 . S
C355 H329 0.950 . S
C355 C351 1.385 . S
C355 C354 1.374 . S
C356 C353 1.499 . S
C356 C357 1.373 . S
C356 C358 1.389 . S
C357 H330 0.950 . S
C357 C343 1.377 . S
C357 C356 1.373 . S
C358 C342 1.377 . S
C358 C356 1.389 . S
C358 C359 1.524 . S
C359 C358 1.524 . S
C359 C360 1.397 . S
C359 C364 1.363 1_545 S
C360 H331 0.950 . S
C360 C359 1.397 . S
C360 C361 1.334 . S
C361 H332 0.950 . S
C361 C360 1.334 . S
C361 C362 1.287 1_545 S
C362 C361 1.287 1_565 S
C362 C363 1.524 . S
C362 H365 0.999 . S
C363 H333 0.950 . S
C363 C362 1.524 . S
C363 C364 1.415 . S
C364 H334 0.950 . S
C364 C359 1.363 1_565 S
C364 C363 1.415 . S
H365 C362 0.999 . S
H366 C347 0.913 1_455 S
H367 C385 0.951 . S
H368 C387 0.951 . S
H369 C389 0.950 . S
H370 C390 0.950 . S
H371 C392 0.950 . S
H372 C395 0.950 . S
H373 C396 0.950 . S
H374 C398 0.950 . S
H375 C399 0.950 . S
H376 C400 0.951 . S
H377 C402 0.951 . S
H378 C404 0.950 . S
H379 C405 0.950 . S
H380 C407 0.950 . S
H381 C410 0.950 . S
H382 C411 0.950 . S
H383 C413 0.950 . S
H384 C414 0.950 . S
C385 H367 0.951 . S
C385 C386 1.366 . S
C385 C387 1.388 . S
C386 C385 1.366 . S
C386 C390 1.385 . S
C387 H368 0.951 . S
C387 C385 1.388 . S
C387 C388 1.366 . S
C388 C387 1.366 . S
C388 C389 1.414 . S
C388 C391 1.499 . S
C389 H369 0.950 . S
C389 C388 1.414 . S
C389 C390 1.374 . S
C390 H370 0.950 . S
C390 C386 1.385 . S
C390 C389 1.374 . S
C391 C388 1.499 . S
C391 C392 1.373 . S
C391 C393 1.389 . S
C392 H371 0.950 . S
C392 C391 1.373 . S
C392 C408 1.377 . S
C393 C391 1.389 . S
C393 C394 1.524 . S
C393 C407 1.377 . S
C394 C393 1.524 . S
C394 C395 1.397 . S
C394 C399 1.363 . S
C395 H372 0.950 . S
C395 C394 1.397 . S
C395 C396 1.334 . S
C396 H373 0.950 . S
C396 C395 1.334 . S
C396 C397 1.287 . S
C397 C396 1.287 . S
C397 C398 1.524 . S
C397 H416 0.913 . S
C398 H374 0.950 . S
C398 C397 1.524 . S
C398 C399 1.415 . S
C399 H375 0.950 . S
C399 C394 1.363 . S
C399 C398 1.415 . S
C400 H376 0.951 . S
C400 C401 1.366 . S
C400 C402 1.388 . S
C401 C400 1.366 . S
C401 C405 1.385 . S
C402 H377 0.951 . S
C402 C400 1.388 . S
C402 C403 1.366 . S
C403 C402 1.366 . S
C403 C404 1.414 . S
C403 C406 1.499 . S
C404 H378 0.950 . S
C404 C403 1.414 . S
C404 C405 1.374 . S
C405 H379 0.950 . S
C405 C401 1.385 . S
C405 C404 1.374 . S
C406 C403 1.499 . S
C406 C407 1.373 . S
C406 C408 1.389 . S
C407 H380 0.950 . S
C407 C393 1.377 . S
C407 C406 1.373 . S
C408 C392 1.377 . S
C408 C406 1.389 . S
C408 C409 1.524 . S
C409 C408 1.524 . S
C409 C410 1.397 . S
C409 C414 1.363 . S
C410 H381 0.950 . S
C410 C409 1.397 . S
C410 C411 1.334 . S
C411 H382 0.950 . S
C411 C410 1.334 . S
C411 C412 1.287 . S
C412 C411 1.287 . S
C412 C413 1.524 . S
C412 H415 0.999 . S
C413 H383 0.950 . S
C413 C412 1.524 . S
C413 C414 1.415 . S
C414 H384 0.950 . S
C414 C409 1.363 . S
C414 C413 1.415 . S
H415 C412 0.999 . S
H416 C397 0.913 . S
H417 C435 0.951 . S
H418 C437 0.951 . S
H419 C439 0.950 . S
H420 C440 0.950 . S
H421 C442 0.950 . S
H422 C445 0.950 . S
H423 C446 0.950 . S
H424 C448 0.950 . S
H425 C449 0.950 . S
H426 C450 0.951 1_655 S
H427 C452 0.951 1_655 S
H428 C454 0.950 . S
H429 C455 0.950 . S
H430 C457 0.950 . S
H431 C460 0.950 . S
H432 C461 0.950 . S
H433 C463 0.950 . S
H434 C464 0.950 . S
C435 H417 0.951 . S
C435 C436 1.366 . S
C435 C437 1.388 . S
C436 C435 1.366 . S
C436 C440 1.385 . S
C437 H418 0.951 . S
C437 C435 1.388 . S
C437 C438 1.366 . S
C438 C437 1.366 . S
C438 C439 1.414 . S
C438 C441 1.499 . S
C439 H419 0.950 . S
C439 C438 1.414 . S
C439 C440 1.374 . S
C440 H420 0.950 . S
C440 C436 1.385 . S
C440 C439 1.374 . S
C441 C438 1.499 . S
C441 C442 1.373 . S
C441 C443 1.389 . S
C442 H421 0.950 . S
C442 C441 1.373 . S
C442 C458 1.377 . S
C443 C441 1.389 . S
C443 C444 1.524 . S
C443 C457 1.377 . S
C444 C443 1.524 . S
C444 C445 1.397 . S
C444 C449 1.363 . S
C445 H422 0.950 . S
C445 C444 1.397 . S
C445 C446 1.334 . S
C446 H423 0.950 . S
C446 C445 1.334 . S
C446 C447 1.287 . S
C447 C446 1.287 . S
C447 C448 1.524 . S
C447 H466 0.913 . S
C448 H424 0.950 . S
C448 C447 1.524 . S
C448 C449 1.415 . S
C449 H425 0.950 . S
C449 C444 1.363 . S
C449 C448 1.415 . S
C450 H426 0.951 1_455 S
C450 C451 1.366 . S
C450 C452 1.388 . S
C451 C450 1.366 . S
C451 C455 1.385 . S
C452 H427 0.951 1_455 S
C452 C450 1.388 . S
C452 C453 1.366 . S
C453 C452 1.366 . S
C453 C454 1.414 . S
C453 C456 1.499 . S
C454 H428 0.950 . S
C454 C453 1.414 . S
C454 C455 1.374 . S
C455 H429 0.950 . S
C455 C451 1.385 . S
C455 C454 1.374 . S
C456 C453 1.499 . S
C456 C457 1.373 . S
C456 C458 1.389 . S
C457 H430 0.950 . S
C457 C443 1.377 . S
C457 C456 1.373 . S
C458 C442 1.377 . S
C458 C456 1.389 . S
C458 C459 1.524 . S
C459 C458 1.524 . S
C459 C460 1.397 . S
C459 C464 1.363 1_455 S
C460 H431 0.950 . S
C460 C459 1.397 . S
C460 C461 1.334 . S
C461 H432 0.950 . S
C461 C460 1.334 . S
C461 C462 1.287 . S
C462 C461 1.287 . S
C462 C463 1.524 1_455 S
C462 H465 0.999 1_455 S
C463 H433 0.950 . S
C463 C462 1.524 1_655 S
C463 C464 1.415 . S
C464 H434 0.950 . S
C464 C459 1.363 1_655 S
C464 C463 1.415 . S
H465 C462 0.999 1_655 S
H466 C447 0.913 . S
H467 C485 0.951 . S
H468 C487 0.951 . S
H469 C489 0.950 . S
H470 C490 0.950 . S
H471 C492 0.950 . S
H472 C495 0.950 . S
H473 C496 0.950 . S
H474 C498 0.950 . S
H475 C499 0.950 . S
H476 C500 0.951 . S
H477 C502 0.951 . S
H478 C504 0.950 . S
H479 C505 0.950 . S
H480 C507 0.950 . S
H481 C510 0.950 . S
H482 C511 0.950 . S
H483 C513 0.950 . S
H484 C514 0.950 . S
C485 H467 0.951 . S
C485 C486 1.366 . S
C485 C487 1.388 . S
C486 C485 1.366 . S
C486 C490 1.385 . S
C487 H468 0.951 . S
C487 C485 1.388 . S
C487 C488 1.366 . S
C488 C487 1.366 . S
C488 C489 1.414 . S
C488 C491 1.499 . S
C489 H469 0.950 . S
C489 C488 1.414 . S
C489 C490 1.374 . S
C490 H470 0.950 . S
C490 C486 1.385 . S
C490 C489 1.374 . S
C491 C488 1.499 . S
C491 C492 1.373 . S
C491 C493 1.389 . S
C492 H471 0.950 . S
C492 C491 1.373 . S
C492 C508 1.377 . S
C493 C491 1.389 . S
C493 C494 1.524 1_545 S
C493 C507 1.377 . S
C494 C493 1.524 1_565 S
C494 C495 1.397 . S
C494 C499 1.363 . S
C495 H472 0.950 . S
C495 C494 1.397 . S
C495 C496 1.334 . S
C496 H473 0.950 . S
C496 C495 1.334 . S
C496 C497 1.287 . S
C497 C496 1.287 . S
C497 C498 1.524 . S
C497 H516 0.913 . S
C498 H474 0.950 . S
C498 C497 1.524 . S
C498 C499 1.415 . S
C499 H475 0.950 . S
C499 C494 1.363 . S
C499 C498 1.415 . S
C500 H476 0.951 . S
C500 C501 1.366 . S
C500 C502 1.388 . S
C501 C500 1.366 . S
C501 C505 1.385 . S
C502 H477 0.951 . S
C502 C500 1.388 . S
C502 C503 1.366 . S
C503 C502 1.366 . S
C503 C504 1.414 . S
C503 C506 1.499 . S
C504 H478 0.950 . S
C504 C503 1.414 . S
C504 C505 1.374 . S
C505 H479 0.950 . S
C505 C501 1.385 . S
C505 C504 1.374 . S
C506 C503 1.499 . S
C506 C507 1.373 . S
C506 C508 1.389 . S
C507 H480 0.950 . S
C507 C493 1.377 . S
C507 C506 1.373 . S
C508 C492 1.377 . S
C508 C506 1.389 . S
C508 C509 1.524 . S
C509 C508 1.524 . S
C509 C510 1.397 . S
C509 C514 1.363 . S
C510 H481 0.950 . S
C510 C509 1.397 . S
C510 C511 1.334 . S
C511 H482 0.950 . S
C511 C510 1.334 . S
C511 C512 1.287 . S
C512 C511 1.287 . S
C512 C513 1.524 . S
C512 H515 0.999 . S
C513 H483 0.950 . S
C513 C512 1.524 . S
C513 C514 1.415 . S
C514 H484 0.950 . S
C514 C509 1.363 . S
C514 C513 1.415 . S
H515 C512 0.999 . S
H516 C497 0.913 . S
H517 C535 0.951 . S
H518 C537 0.951 . S
H519 C539 0.950 . S
H520 C540 0.950 . S
H521 C542 0.950 . S
H522 C545 0.950 . S
H523 C546 0.950 . S
H524 C548 0.950 . S
H525 C549 0.950 . S
H526 C550 0.951 . S
H527 C552 0.951 . S
H528 C554 0.950 . S
H529 C555 0.950 . S
H530 C557 0.950 . S
H531 C560 0.950 . S
H532 C561 0.950 . S
H533 C563 0.950 . S
H534 C564 0.950 . S
C535 H517 0.951 . S
C535 C536 1.366 . S
C535 C537 1.388 . S
C536 C535 1.366 . S
C536 C540 1.385 . S
C537 H518 0.951 . S
C537 C535 1.388 . S
C537 C538 1.366 . S
C538 C537 1.366 . S
C538 C539 1.414 . S
C538 C541 1.499 . S
C539 H519 0.950 . S
C539 C538 1.414 . S
C539 C540 1.374 . S
C540 H520 0.950 . S
C540 C536 1.385 . S
C540 C539 1.374 . S
C541 C538 1.499 . S
C541 C542 1.373 . S
C541 C543 1.389 . S
C542 H521 0.950 . S
C542 C541 1.373 . S
C542 C558 1.377 . S
C543 C541 1.389 . S
C543 C544 1.524 . S
C543 C557 1.377 . S
C544 C543 1.524 . S
C544 C545 1.397 . S
C544 C549 1.363 . S
C545 H522 0.950 . S
C545 C544 1.397 . S
C545 C546 1.334 . S
C546 H523 0.950 . S
C546 C545 1.334 . S
C546 C547 1.287 . S
C547 C546 1.287 . S
C547 C548 1.524 . S
C547 H566 0.913 . S
C548 H524 0.950 . S
C548 C547 1.524 . S
C548 C549 1.415 . S
C549 H525 0.950 . S
C549 C544 1.363 . S
C549 C548 1.415 . S
C550 H526 0.951 . S
C550 C551 1.366 . S
C550 C552 1.388 . S
C551 C550 1.366 . S
C551 C555 1.385 . S
C552 H527 0.951 . S
C552 C550 1.388 . S
C552 C553 1.366 . S
C553 C552 1.366 . S
C553 C554 1.414 . S
C553 C556 1.499 . S
C554 H528 0.950 . S
C554 C553 1.414 . S
C554 C555 1.374 . S
C555 H529 0.950 . S
C555 C551 1.385 . S
C555 C554 1.374 . S
C556 C553 1.499 . S
C556 C557 1.373 . S
C556 C558 1.389 . S
C557 H530 0.950 . S
C557 C543 1.377 . S
C557 C556 1.373 . S
C558 C542 1.377 . S
C558 C556 1.389 . S
C558 C559 1.524 . S
C559 C558 1.524 . S
C559 C560 1.397 . S
C559 C564 1.363 . S
C560 H531 0.950 . S
C560 C559 1.397 . S
C560 C561 1.334 . S
C561 H532 0.950 . S
C561 C560 1.334 . S
C561 C562 1.287 . S
C562 C561 1.287 . S
C562 C563 1.524 . S
C562 H565 0.999 . S
C563 H533 0.950 . S
C563 C562 1.524 . S
C563 C564 1.415 . S
C564 H534 0.950 . S
C564 C559 1.363 . S
C564 C563 1.415 . S
H565 C562 0.999 . S
H566 C547 0.913 . S
H567 C585 0.951 1_565 S
H568 C587 0.963 . S
H569 C589 0.950 . S
H570 C590 0.950 . S
H571 C592 0.950 . S
H572 C595 0.950 . S
H573 C596 0.950 1_455 S
H574 C598 0.950 1_565 S
H575 C599 0.950 1_565 S
H576 C600 0.951 . S
H577 C602 0.951 . S
H578 C604 0.950 . S
H579 C605 0.950 . S
H580 C607 0.950 . S
H581 C610 0.950 . S
H582 C611 0.950 . S
H583 C613 0.950 . S
H584 C614 0.950 . S
C585 H567 0.951 1_545 S
C585 C586 1.366 . S
C585 C587 1.388 . S
C586 C585 1.366 . S
C586 C590 1.385 . S
C587 H568 0.963 . S
C587 C585 1.388 . S
C587 C588 1.366 . S
C588 C587 1.366 . S
C588 C589 1.414 . S
C588 C591 1.499 . S
C589 H569 0.950 . S
C589 C588 1.414 . S
C589 C590 1.374 . S
C590 H570 0.950 . S
C590 C586 1.385 . S
C590 C589 1.374 . S
C591 C588 1.499 . S
C591 C592 1.373 . S
C591 C593 1.389 . S
C592 H571 0.950 . S
C592 C591 1.373 . S
C592 C608 1.377 . S
C593 C591 1.389 . S
C593 C594 1.524 . S
C593 C607 1.377 . S
C594 C593 1.524 . S
C594 C595 1.397 . S
C594 C599 1.363 . S
C595 H572 0.950 . S
C595 C594 1.397 . S
C595 C596 1.334 . S
C596 H573 0.950 1_655 S
C596 C595 1.334 . S
C596 C597 1.287 . S
C597 C596 1.287 . S
C597 C598 1.524 . S
C597 H616 0.913 . S
C598 H574 0.950 1_545 S
C598 C597 1.524 . S
C598 C599 1.415 . S
C599 H575 0.950 1_545 S
C599 C594 1.363 . S
C599 C598 1.415 . S
C600 H576 0.951 . S
C600 C601 1.366 . S
C600 C602 1.388 . S
C601 C600 1.366 . S
C601 C605 1.385 . S
C602 H577 0.951 . S
C602 C600 1.388 . S
C602 C603 1.366 . S
C603 C602 1.366 . S
C603 C604 1.414 . S
C603 C606 1.499 . S
C604 H578 0.950 . S
C604 C603 1.414 . S
C604 C605 1.374 . S
C605 H579 0.950 . S
C605 C601 1.385 . S
C605 C604 1.374 . S
C606 C603 1.499 . S
C606 C607 1.373 . S
C606 C608 1.389 . S
C607 H580 0.950 . S
C607 C593 1.377 . S
C607 C606 1.373 . S
C608 C592 1.377 . S
C608 C606 1.389 . S
C608 C609 1.524 . S
C609 C608 1.524 . S
C609 C610 1.397 . S
C609 C614 1.363 . S
C610 H581 0.950 . S
C610 C609 1.397 . S
C610 C611 1.334 . S
C611 H582 0.950 . S
C611 C610 1.334 . S
C611 C612 1.287 . S
C612 C611 1.287 . S
C612 C613 1.524 . S
C612 H615 0.999 . S
C613 H583 0.950 . S
C613 C612 1.524 . S
C613 C614 1.415 . S
C614 H584 0.950 . S
C614 C609 1.363 . S
C614 C613 1.415 . S
H615 C612 0.999 . S
H616 C597 0.913 . S
H617 C635 0.951 . S
H618 C637 0.951 . S
H619 C639 0.950 . S
H620 C640 0.950 1_445 S
H621 C642 0.950 . S
H622 C645 0.950 . S
H623 C646 0.950 . S
H624 C648 0.960 . S
H625 C649 0.950 . S
H626 C650 0.951 . S
H627 C652 0.951 . S
H628 C654 0.950 . S
H629 C655 0.950 . S
H630 C657 0.950 . S
H631 C660 0.950 . S
H632 C661 0.950 . S
H633 C663 0.950 . S
H634 C664 0.950 . S
C635 H617 0.951 . S
C635 C636 1.366 . S
C635 C637 1.388 . S
C636 C635 1.366 . S
C636 C640 1.385 1_554 S
C637 H618 0.951 . S
C637 C635 1.388 . S
C637 C638 1.366 1_554 S
C638 C637 1.366 1_556 S
C638 C639 1.414 . S
C638 C641 1.499 . S
C639 H619 0.950 . S
C639 C638 1.414 . S
C639 C640 1.374 . S
C640 H620 0.950 1_665 S
C640 C636 1.385 1_556 S
C640 C639 1.374 . S
C641 C638 1.499 . S
C641 C642 1.373 . S
C641 C643 1.389 . S
C642 H621 0.950 . S
C642 C641 1.373 . S
C642 C658 1.377 . S
C643 C641 1.389 . S
C643 C644 1.524 . S
C643 C657 1.377 . S
C644 C643 1.524 . S
C644 C645 1.397 . S
C644 C649 1.363 . S
C645 H622 0.950 . S
C645 C644 1.397 . S
C645 C646 1.334 1_655 S
C646 H623 0.950 . S
C646 C645 1.334 1_455 S
C646 C647 1.286 1_455 S
C647 C646 1.286 1_655 S
C647 C648 1.523 . S
C647 H666 0.915 1_655 S
C648 H624 0.960 . S
C648 C647 1.523 . S
C648 C649 1.415 . S
C649 H625 0.950 . S
C649 C644 1.363 . S
C649 C648 1.415 . S
C650 H626 0.951 . S
C650 C651 1.366 . S
C650 C652 1.388 . S
C651 C650 1.366 . S
C651 C655 1.385 . S
C652 H627 0.951 . S
C652 C650 1.388 . S
C652 C653 1.366 . S
C653 C652 1.366 . S
C653 C654 1.414 . S
C653 C656 1.499 . S
C654 H628 0.950 . S
C654 C653 1.414 . S
C654 C655 1.374 . S
C655 H629 0.950 . S
C655 C651 1.385 . S
C655 C654 1.374 . S
C656 C653 1.499 . S
C656 C657 1.373 . S
C656 C658 1.389 . S
C657 H630 0.950 . S
C657 C643 1.377 . S
C657 C656 1.373 . S
C658 C642 1.377 . S
C658 C656 1.389 . S
C658 C659 1.524 . S
C659 C658 1.524 . S
C659 C660 1.397 . S
C659 C664 1.363 . S
C660 H631 0.950 . S
C660 C659 1.397 . S
C660 C661 1.334 . S
C661 H632 0.950 . S
C661 C660 1.334 . S
C661 C662 1.287 . S
C662 C661 1.287 . S
C662 C663 1.524 . S
C662 H665 0.999 . S
C663 H633 0.950 . S
C663 C662 1.524 . S
C663 C664 1.415 . S
C664 H634 0.950 . S
C664 C659 1.363 . S
C664 C663 1.415 . S
H665 C662 0.999 . S
H666 C647 0.915 1_455 S
H667 C685 0.951 . S
H668 C687 0.951 . S
H669 C689 0.950 . S
H670 C690 0.950 . S
H671 C692 0.950 . S
H672 C695 0.950 1_455 S
H673 C696 0.950 . S
H674 C698 0.950 . S
H675 C699 0.950 . S
H676 C700 0.951 . S
H677 C702 0.951 . S
H678 C704 0.950 . S
H679 C705 0.950 . S
H680 C707 0.950 1_655 S
H681 C710 0.950 . S
H682 C711 0.950 . S
H683 C713 0.950 . S
H684 C714 0.950 . S
C685 H667 0.951 . S
C685 C686 1.366 1_655 S
C685 C687 1.388 . S
C686 C685 1.366 1_455 S
C686 C690 1.385 . S
C687 H668 0.951 . S
C687 C685 1.388 . S
C687 C688 1.366 1_655 S
C688 C687 1.366 1_455 S
C688 C689 1.414 . S
C688 C691 1.499 . S
C689 H669 0.950 . S
C689 C688 1.414 . S
C689 C690 1.374 . S
C690 H670 0.950 . S
C690 C686 1.385 . S
C690 C689 1.374 . S
C691 C688 1.499 . S
C691 C692 1.373 . S
C691 C693 1.389 . S
C692 H671 0.950 . S
C692 C691 1.373 . S
C692 C708 1.377 . S
C693 C691 1.389 . S
C693 C694 1.524 1_455 S
C693 C707 1.377 . S
C694 C693 1.524 1_655 S
C694 C695 1.397 . S
C694 C699 1.363 . S
C695 H672 0.950 1_655 S
C695 C694 1.397 . S
C695 C696 1.334 . S
C696 H673 0.950 . S
C696 C695 1.334 . S
C696 C697 1.287 . S
C697 C696 1.287 . S
C697 C698 1.524 . S
C697 H716 0.913 . S
C698 H674 0.950 . S
C698 C697 1.524 . S
C698 C699 1.415 . S
C699 H675 0.950 . S
C699 C694 1.363 . S
C699 C698 1.415 . S
C700 H676 0.951 . S
C700 C701 1.366 . S
C700 C702 1.388 . S
C701 C700 1.366 . S
C701 C705 1.385 1_455 S
C702 H677 0.951 . S
C702 C700 1.388 . S
C702 C703 1.366 . S
C703 C702 1.366 . S
C703 C704 1.414 1_455 S
C703 C706 1.499 . S
C704 H678 0.950 . S
C704 C703 1.414 1_655 S
C704 C705 1.374 . S
C705 H679 0.950 . S
C705 C701 1.385 1_655 S
C705 C704 1.374 . S
C706 C703 1.499 . S
C706 C707 1.373 . S
C706 C708 1.389 . S
C707 H680 0.950 1_455 S
C707 C693 1.377 . S
C707 C706 1.373 . S
C708 C692 1.377 . S
C708 C706 1.389 . S
C708 C709 1.524 . S
C709 C708 1.524 . S
C709 C710 1.397 . S
C709 C714 1.363 . S
C710 H681 0.950 . S
C710 C709 1.397 . S
C710 C711 1.334 . S
C711 H682 0.950 . S
C711 C710 1.334 . S
C711 C712 1.287 . S
C712 C711 1.287 . S
C712 C713 1.524 . S
C712 H715 0.999 . S
C713 H683 0.950 . S
C713 C712 1.524 . S
C713 C714 1.415 . S
C714 H684 0.950 . S
C714 C709 1.363 . S
C714 C713 1.415 . S
H715 C712 0.999 . S
H716 C697 0.913 . S
H717 C735 0.951 1_565 S
H718 C737 0.951 1_565 S
H719 C739 0.950 . S
H720 C740 0.950 . S
H721 C742 0.950 . S
H722 C745 0.950 1_545 S
H723 C746 0.950 . S
H724 C748 0.950 . S
H725 C749 0.950 . S
H726 C750 0.951 . S
H727 C752 0.951 . S
H728 C754 0.950 . S
H729 C755 0.950 . S
H730 C757 0.950 . S
H731 C760 0.950 . S
H732 C761 0.950 . S
H733 C763 0.950 . S
H734 C764 0.950 . S
C735 H717 0.951 1_545 S
C735 C736 1.366 . S
C735 C737 1.388 . S
C736 C735 1.366 . S
C736 C740 1.385 . S
C737 H718 0.951 1_545 S
C737 C735 1.388 . S
C737 C738 1.366 . S
C738 C737 1.366 . S
C738 C739 1.414 . S
C738 C741 1.499 . S
C739 H719 0.950 . S
C739 C738 1.414 . S
C739 C740 1.374 . S
C740 H720 0.950 . S
C740 C736 1.385 . S
C740 C739 1.374 . S
C741 C738 1.499 . S
C741 C742 1.373 . S
C741 C743 1.389 . S
C742 H721 0.950 . S
C742 C741 1.373 . S
C742 C758 1.377 . S
C743 C741 1.389 . S
C743 C744 1.524 1_545 S
C743 C757 1.377 . S
C744 C743 1.524 1_565 S
C744 C745 1.397 . S
C744 C749 1.363 . S
C745 H722 0.950 1_565 S
C745 C744 1.397 . S
C745 C746 1.334 . S
C746 H723 0.950 . S
C746 C745 1.334 . S
C746 C747 1.287 . S
C747 C746 1.287 . S
C747 C748 1.524 . S
C747 H766 0.913 . S
C748 H724 0.950 . S
C748 C747 1.524 . S
C748 C749 1.415 . S
C749 H725 0.950 . S
C749 C744 1.363 . S
C749 C748 1.415 . S
C750 H726 0.951 . S
C750 C751 1.366 . S
C750 C752 1.388 . S
C751 C750 1.366 . S
C751 C755 1.385 . S
C752 H727 0.951 . S
C752 C750 1.388 . S
C752 C753 1.366 . S
C753 C752 1.366 . S
C753 C754 1.414 . S
C753 C756 1.499 . S
C754 H728 0.950 . S
C754 C753 1.414 . S
C754 C755 1.374 . S
C755 H729 0.950 . S
C755 C751 1.385 . S
C755 C754 1.374 . S
C756 C753 1.499 . S
C756 C757 1.373 . S
C756 C758 1.389 . S
C757 H730 0.950 . S
C757 C743 1.377 . S
C757 C756 1.373 . S
C758 C742 1.377 . S
C758 C756 1.389 . S
C758 C759 1.524 . S
C759 C758 1.524 . S
C759 C760 1.397 . S
C759 C764 1.363 . S
C760 H731 0.950 . S
C760 C759 1.397 . S
C760 C761 1.334 . S
C761 H732 0.950 . S
C761 C760 1.334 . S
C761 C762 1.287 . S
C762 C761 1.287 . S
C762 C763 1.524 . S
C762 H765 0.999 . S
C763 H733 0.950 . S
C763 C762 1.524 . S
C763 C764 1.415 . S
C764 H734 0.950 . S
C764 C759 1.363 . S
C764 C763 1.415 . S
H765 C762 0.999 . S
H766 C747 0.913 . S
H767 C785 0.951 . S
H768 C787 0.951 . S
H769 C789 0.950 . S
H770 C790 0.950 . S
H771 C792 0.950 . S
H772 C795 0.950 . S
H773 C796 0.950 . S
H774 C798 0.950 . S
H775 C799 0.950 . S
H776 C800 0.951 . S
H777 C802 0.951 . S
H778 C804 0.950 . S
H779 C805 0.950 . S
H780 C807 0.950 . S
H781 C810 0.950 . S
H782 C811 0.950 . S
H783 C813 0.950 . S
H784 C814 0.950 . S
C785 H767 0.951 . S
C785 C786 1.366 1_556 S
C785 C787 1.388 . S
C786 C785 1.366 1_554 S
C786 C790 1.385 . S
C787 H768 0.951 . S
C787 C785 1.388 . S
C787 C788 1.366 . S
C788 C787 1.366 . S
C788 C789 1.414 1_556 S
C788 C791 1.499 . S
C789 H769 0.950 . S
C789 C788 1.414 1_554 S
C789 C790 1.374 . S
C790 H770 0.950 . S
C790 C786 1.385 . S
C790 C789 1.374 . S
C791 C788 1.499 . S
C791 C792 1.373 . S
C791 C793 1.389 . S
C792 H771 0.950 . S
C792 C791 1.373 . S
C792 C808 1.377 . S
C793 C791 1.389 . S
C793 C794 1.524 . S
C793 C807 1.377 . S
C794 C793 1.524 . S
C794 C795 1.397 . S
C794 C799 1.363 . S
C795 H772 0.950 . S
C795 C794 1.397 . S
C795 C796 1.334 . S
C796 H773 0.950 . S
C796 C795 1.334 . S
C796 C797 1.287 . S
C797 C796 1.287 . S
C797 C798 1.524 . S
C797 H816 0.913 . S
C798 H774 0.950 . S
C798 C797 1.524 . S
C798 C799 1.415 . S
C799 H775 0.950 . S
C799 C794 1.363 . S
C799 C798 1.415 . S
C800 H776 0.951 . S
C800 C801 1.366 . S
C800 C802 1.388 . S
C801 C800 1.366 . S
C801 C805 1.385 . S
C802 H777 0.951 . S
C802 C800 1.388 . S
C802 C803 1.366 . S
C803 C802 1.366 . S
C803 C804 1.414 . S
C803 C806 1.499 . S
C804 H778 0.950 . S
C804 C803 1.414 . S
C804 C805 1.374 . S
C805 H779 0.950 . S
C805 C801 1.385 . S
C805 C804 1.374 . S
C806 C803 1.499 . S
C806 C807 1.373 . S
C806 C808 1.389 . S
C807 H780 0.950 . S
C807 C793 1.377 . S
C807 C806 1.373 . S
C808 C792 1.377 . S
C808 C806 1.389 . S
C808 C809 1.524 . S
C809 C808 1.524 . S
C809 C810 1.397 . S
C809 C814 1.363 . S
C810 H781 0.950 . S
C810 C809 1.397 . S
C810 C811 1.334 . S
C811 H782 0.950 . S
C811 C810 1.334 . S
C811 C812 1.287 . S
C812 C811 1.287 . S
C812 C813 1.524 . S
C812 H815 0.999 . S
C813 H783 0.950 . S
C813 C812 1.524 . S
C813 C814 1.415 . S
C814 H784 0.950 . S
C814 C809 1.363 . S
C814 C813 1.415 . S
H815 C812 0.999 . S
H816 C797 0.913 . S
H817 C835 0.951 . S
H818 C837 0.951 . S
H819 C839 0.950 1_655 S
H820 C840 0.950 1_655 S
H821 C842 0.950 . S
H822 C845 0.950 1_655 S
H823 C846 0.953 . S
H824 C848 0.950 . S
H825 C849 0.950 . S
H826 C850 0.951 1_655 S
H827 C852 0.951 1_655 S
H828 C854 0.950 . S
H829 C855 0.950 . S
H830 C857 0.950 . S
H831 C860 0.950 . S
H832 C861 0.950 . S
H833 C863 0.950 . S
H834 C864 0.950 . S
C835 H817 0.951 . S
C835 C836 1.366 . S
C835 C837 1.388 . S
C836 C835 1.366 . S
C836 C840 1.385 . S
C837 H818 0.951 . S
C837 C835 1.388 . S
C837 C838 1.366 . S
C838 C837 1.366 . S
C838 C839 1.414 . S
C838 C841 1.499 . S
C839 H819 0.950 1_455 S
C839 C838 1.414 . S
C839 C840 1.374 . S
C840 H820 0.950 1_455 S
C840 C836 1.385 . S
C840 C839 1.374 . S
C841 C838 1.499 . S
C841 C842 1.373 . S
C841 C843 1.389 . S
C842 H821 0.950 . S
C842 C841 1.373 . S
C842 C858 1.377 . S
C843 C841 1.389 . S
C843 C844 1.524 . S
C843 C857 1.377 . S
C844 C843 1.524 . S
C844 C845 1.397 . S
C844 C849 1.363 . S
C845 H822 0.950 1_455 S
C845 C844 1.397 . S
C845 C846 1.334 . S
C846 H823 0.953 . S
C846 C845 1.334 . S
C846 C847 1.287 . S
C847 C846 1.287 . S
C847 C848 1.524 . S
C847 H866 0.913 . S
C848 H824 0.950 . S
C848 C847 1.524 . S
C848 C849 1.415 . S
C849 H825 0.950 . S
C849 C844 1.363 . S
C849 C848 1.415 . S
C850 H826 0.951 1_455 S
C850 C851 1.366 . S
C850 C852 1.388 . S
C851 C850 1.366 . S
C851 C855 1.385 . S
C852 H827 0.951 1_455 S
C852 C850 1.388 . S
C852 C853 1.366 . S
C853 C852 1.366 . S
C853 C854 1.414 . S
C853 C856 1.499 . S
C854 H828 0.950 . S
C854 C853 1.414 . S
C854 C855 1.374 . S
C855 H829 0.950 . S
C855 C851 1.385 . S
C855 C854 1.374 . S
C856 C853 1.499 . S
C856 C857 1.373 . S
C856 C858 1.389 . S
C857 H830 0.950 . S
C857 C843 1.377 . S
C857 C856 1.373 . S
C858 C842 1.377 . S
C858 C856 1.389 . S
C858 C859 1.524 . S
C859 C858 1.524 . S
C859 C860 1.397 . S
C859 C864 1.363 1_455 S
C860 H831 0.950 . S
C860 C859 1.397 . S
C860 C861 1.334 . S
C861 H832 0.950 . S
C861 C860 1.334 . S
C861 C862 1.287 . S
C862 C861 1.287 . S
C862 C863 1.524 1_455 S
C862 H865 0.999 . S
C863 H833 0.950 . S
C863 C862 1.524 1_655 S
C863 C864 1.415 . S
C864 H834 0.950 . S
C864 C859 1.363 1_655 S
C864 C863 1.415 . S
H865 C862 0.999 . S
H866 C847 0.913 . S
C301 C130 1.474 . S
C286 C14 1.426 . S
C336 C40 1.487 . S
C351 C200 1.501 . S
C386 C76 1.461 . S
C401 C252 1.473 . S
C436 C3 1.459 . S
C451 C146 1.458 . S
C501 C190 1.499 . S
C486 C38 1.486 . S
C536 C74 1.452 . S
C551 C236 1.467 . S
C601 C183 1.452 . S
C586 C86 1.401 1_655 S
C636 C2 1.454 1_655 S
C651 C243 1.468 . S
C701 C137 1.455 . S
C686 C39 1.456 . S
C751 C199 1.459 . S
C736 C75 1.462 . S
C801 C253 1.476 . S
C786 C4 1.462 . S
C836 C50 1.423 . S
C851 C147 1.471 . S
