# Generated by pormake.
# Topology ocu, (6,8)-cn, num edge types: 1
# Building blocks:
#     Node 0, Type 0, BuildingBlock: MIFKUJ_clean_sbu_0, # of connection points: 6
#     Node 1, Type 0, BuildingBlock: MIFKUJ_clean_sbu_0, # of connection points: 6
#     Node 2, Type 0, BuildingBlock: MIFKUJ_clean_sbu_0, # of connection points: 6
#     Node 3, Type 0, BuildingBlock: MIFKUJ_clean_sbu_0, # of connection points: 6
#     Node 4, Type 0, BuildingBlock: MIFKUJ_clean_sbu_0, # of connection points: 6
#     Node 5, Type 0, BuildingBlock: MIFKUJ_clean_sbu_0, # of connection points: 6
#     Node 6, Type 0, BuildingBlock: MIFKUJ_clean_sbu_0, # of connection points: 6
#     Node 7, Type 0, BuildingBlock: MIFKUJ_clean_sbu_0, # of connection points: 6
#     Node 8, Type 1, BuildingBlock: TAGTUT_clean_sbu_1, # of connection points: 8
#     Node 9, Type 1, BuildingBlock: TAGTUT_clean_sbu_1, # of connection points: 8
#     Node 10, Type 1, BuildingBlock: TAGTUT_clean_sbu_1, # of connection points: 8
#     Node 11, Type 1, BuildingBlock: TAGTUT_clean_sbu_1, # of connection points: 8
#     Node 12, Type 1, BuildingBlock: TAGTUT_clean_sbu_1, # of connection points: 8
#     Node 13, Type 1, BuildingBlock: TAGTUT_clean_sbu_1, # of connection points: 8
#     Edge 14, Type (0, 1), BuildingBlock: KIFKEQ_clean_linker_1, # of connection points: 2
#     Edge 15, Type (0, 1), BuildingBlock: KIFKEQ_clean_linker_1, # of connection points: 2
#     Edge 16, Type (0, 1), BuildingBlock: KIFKEQ_clean_linker_1, # of connection points: 2
#     Edge 17, Type (0, 1), BuildingBlock: KIFKEQ_clean_linker_1, # of connection points: 2
#     Edge 18, Type (0, 1), BuildingBlock: KIFKEQ_clean_linker_1, # of connection points: 2
#     Edge 19, Type (0, 1), BuildingBlock: KIFKEQ_clean_linker_1, # of connection points: 2
#     Edge 20, Type (0, 1), BuildingBlock: KIFKEQ_clean_linker_1, # of connection points: 2
#     Edge 21, Type (0, 1), BuildingBlock: KIFKEQ_clean_linker_1, # of connection points: 2
#     Edge 22, Type (0, 1), BuildingBlock: KIFKEQ_clean_linker_1, # of connection points: 2
#     Edge 23, Type (0, 1), BuildingBlock: KIFKEQ_clean_linker_1, # of connection points: 2
#     Edge 24, Type (0, 1), BuildingBlock: KIFKEQ_clean_linker_1, # of connection points: 2
#     Edge 25, Type (0, 1), BuildingBlock: KIFKEQ_clean_linker_1, # of connection points: 2
#     Edge 26, Type (0, 1), BuildingBlock: KIFKEQ_clean_linker_1, # of connection points: 2
#     Edge 27, Type (0, 1), BuildingBlock: KIFKEQ_clean_linker_1, # of connection points: 2
#     Edge 28, Type (0, 1), BuildingBlock: KIFKEQ_clean_linker_1, # of connection points: 2
#     Edge 29, Type (0, 1), BuildingBlock: KIFKEQ_clean_linker_1, # of connection points: 2
#     Edge 30, Type (0, 1), BuildingBlock: KIFKEQ_clean_linker_1, # of connection points: 2
#     Edge 31, Type (0, 1), BuildingBlock: KIFKEQ_clean_linker_1, # of connection points: 2
#     Edge 32, Type (0, 1), BuildingBlock: KIFKEQ_clean_linker_1, # of connection points: 2
#     Edge 33, Type (0, 1), BuildingBlock: KIFKEQ_clean_linker_1, # of connection points: 2
#     Edge 34, Type (0, 1), BuildingBlock: KIFKEQ_clean_linker_1, # of connection points: 2
#     Edge 35, Type (0, 1), BuildingBlock: KIFKEQ_clean_linker_1, # of connection points: 2
#     Edge 36, Type (0, 1), BuildingBlock: KIFKEQ_clean_linker_1, # of connection points: 2
#     Edge 37, Type (0, 1), BuildingBlock: KIFKEQ_clean_linker_1, # of connection points: 2
#     Edge 38, Type (0, 1), BuildingBlock: KIFKEQ_clean_linker_1, # of connection points: 2
#     Edge 39, Type (0, 1), BuildingBlock: KIFKEQ_clean_linker_1, # of connection points: 2
#     Edge 40, Type (0, 1), BuildingBlock: KIFKEQ_clean_linker_1, # of connection points: 2
#     Edge 41, Type (0, 1), BuildingBlock: KIFKEQ_clean_linker_1, # of connection points: 2
#     Edge 42, Type (0, 1), BuildingBlock: KIFKEQ_clean_linker_1, # of connection points: 2
#     Edge 43, Type (0, 1), BuildingBlock: KIFKEQ_clean_linker_1, # of connection points: 2
#     Edge 44, Type (0, 1), BuildingBlock: KIFKEQ_clean_linker_1, # of connection points: 2
#     Edge 45, Type (0, 1), BuildingBlock: KIFKEQ_clean_linker_1, # of connection points: 2
#     Edge 46, Type (0, 1), BuildingBlock: KIFKEQ_clean_linker_1, # of connection points: 2
#     Edge 47, Type (0, 1), BuildingBlock: KIFKEQ_clean_linker_1, # of connection points: 2
#     Edge 48, Type (0, 1), BuildingBlock: KIFKEQ_clean_linker_1, # of connection points: 2
#     Edge 49, Type (0, 1), BuildingBlock: KIFKEQ_clean_linker_1, # of connection points: 2
#     Edge 50, Type (0, 1), BuildingBlock: KIFKEQ_clean_linker_1, # of connection points: 2
#     Edge 51, Type (0, 1), BuildingBlock: KIFKEQ_clean_linker_1, # of connection points: 2
#     Edge 52, Type (0, 1), BuildingBlock: KIFKEQ_clean_linker_1, # of connection points: 2
#     Edge 53, Type (0, 1), BuildingBlock: KIFKEQ_clean_linker_1, # of connection points: 2
#     Edge 54, Type (0, 1), BuildingBlock: KIFKEQ_clean_linker_1, # of connection points: 2
#     Edge 55, Type (0, 1), BuildingBlock: KIFKEQ_clean_linker_1, # of connection points: 2
#     Edge 56, Type (0, 1), BuildingBlock: KIFKEQ_clean_linker_1, # of connection points: 2
#     Edge 57, Type (0, 1), BuildingBlock: KIFKEQ_clean_linker_1, # of connection points: 2
#     Edge 58, Type (0, 1), BuildingBlock: KIFKEQ_clean_linker_1, # of connection points: 2
#     Edge 59, Type (0, 1), BuildingBlock: KIFKEQ_clean_linker_1, # of connection points: 2
#     Edge 60, Type (0, 1), BuildingBlock: KIFKEQ_clean_linker_1, # of connection points: 2
#     Edge 61, Type (0, 1), BuildingBlock: KIFKEQ_clean_linker_1, # of connection points: 2
# Relax obj value: 0.062
# Max RMSD: 0.225
# Mean RMSD: 0.125
data_MOF--net-ocu--node1-MIFKUJ_clean_sbu_0--node2-TAGTUT_clean_sbu_1--edge1-KIFKEQ_clean_linker_1
_symmetry_space_group_name_H-M    P1
_symmetry_Int_Tables_number       1
_symmetry_cell_setting            triclinic
loop_
_symmetry_equiv_pos_as_xyz
'x, y, z'
_cell_length_a     39.806977
_cell_length_b     39.709194
_cell_length_c     39.890936
_cell_angle_alpha  91.763483
_cell_angle_beta   95.541202
_cell_angle_gamma 108.48198
loop_
_atom_site_label
_atom_site_type_symbol
_atom_site_fract_x
_atom_site_fract_y
_atom_site_fract_z
_atom_type_partial_charge
Zn0 Zn 0.21751 0.2821 0.24979 0.0
Zn1 Zn 0.27246 0.21181 0.24101 0.0
C2 C 0.18908 0.30718 0.30066 0.0
O3 O 0.16427 0.27822 0.28724 0.0
C4 C 0.30568 0.18779 0.1943 0.0
O5 O 0.32911 0.21631 0.21015 0.0
O6 O 0.17814 0.28874 0.2177 0.0
O7 O 0.26316 0.30056 0.22513 0.0
O8 O 0.29098 0.26081 0.22036 0.0
C9 C 0.18127 0.29493 0.18691 0.0
O10 O 0.20906 0.29163 0.17358 0.0
O11 O 0.21891 0.31697 0.28861 0.0
C12 C 0.30056 0.17368 0.28492 0.0
O13 O 0.2687 0.15202 0.27367 0.0
O14 O 0.31021 0.20527 0.27537 0.0
O15 O 0.22607 0.1932 0.26436 0.0
O16 O 0.19824 0.2328 0.26977 0.0
O17 O 0.27419 0.17752 0.20292 0.0
C18 C 0.28841 0.29132 0.2145 0.0
C19 C 0.20069 0.20213 0.275 0.0
Zn20 Zn 0.76101 0.29053 0.21042 0.0
Zn21 Zn 0.73841 0.19953 0.26855 0.0
C22 C 0.7017 0.30275 0.17138 0.0
O23 O 0.70125 0.27312 0.15554 0.0
C24 C 0.80301 0.19211 0.30142 0.0
O25 O 0.80867 0.22571 0.31042 0.0
O26 O 0.81153 0.31916 0.20889 0.0
O27 O 0.75482 0.27389 0.25727 0.0
O28 O 0.7459 0.24258 0.30118 0.0
C29 C 0.82752 0.35183 0.21708 0.0
O30 O 0.80964 0.37193 0.22786 0.0
O31 O 0.72566 0.31642 0.19596 0.0
C32 C 0.67837 0.13472 0.26415 0.0
O33 O 0.70126 0.11883 0.2565 0.0
O34 O 0.68885 0.16821 0.26987 0.0
O35 O 0.74404 0.21584 0.22172 0.0
O36 O 0.75262 0.24718 0.1779 0.0
O37 O 0.77443 0.17483 0.28295 0.0
C38 C 0.7542 0.27293 0.28897 0.0
C39 C 0.74431 0.21682 0.19002 0.0
Zn40 Zn 0.79142 0.72746 0.23742 0.0
Zn41 Zn 0.69966 0.75808 0.2476 0.0
C42 C 0.84068 0.72068 0.29478 0.0
O43 O 0.85272 0.75562 0.29731 0.0
C44 C 0.64396 0.77468 0.20848 0.0
O45 O 0.62529 0.75456 0.23014 0.0
O46 O 0.80557 0.71255 0.19434 0.0
O47 O 0.73755 0.70885 0.23672 0.0
O48 O 0.68177 0.70432 0.23898 0.0
C49 C 0.80211 0.67959 0.19213 0.0
O50 O 0.78834 0.65961 0.21624 0.0
O51 O 0.81443 0.70459 0.27313 0.0
C52 C 0.69027 0.80765 0.29263 0.0
O53 O 0.70362 0.82737 0.2682 0.0
O54 O 0.68624 0.77459 0.29036 0.0
O55 O 0.75296 0.77394 0.24766 0.0
O56 O 0.80928 0.7812 0.24822 0.0
O57 O 0.67722 0.77935 0.21001 0.0
C58 C 0.70492 0.68993 0.23219 0.0
C59 C 0.78492 0.79373 0.25514 0.0
Zn60 Zn 0.21183 0.76255 0.25624 0.0
Zn61 Zn 0.27882 0.72034 0.23122 0.0
C62 C 0.15407 0.71378 0.28186 0.0
O63 O 0.13787 0.73231 0.26368 0.0
C64 C 0.33624 0.76921 0.20502 0.0
O65 O 0.3534 0.75239 0.22435 0.0
O66 O 0.19856 0.80366 0.2757 0.0
O67 O 0.26524 0.77238 0.26085 0.0
O68 O 0.29646 0.73922 0.27955 0.0
C69 C 0.2004 0.80291 0.30771 0.0
O70 O 0.21253 0.77922 0.32229 0.0
O71 O 0.18756 0.72087 0.28208 0.0
C72 C 0.28878 0.67606 0.18094 0.0
O73 O 0.27994 0.70066 0.16443 0.0
O74 O 0.29071 0.67774 0.21307 0.0
O75 O 0.22594 0.7124 0.22709 0.0
O76 O 0.1946 0.7451 0.20766 0.0
O77 O 0.30258 0.7606 0.20408 0.0
C78 C 0.28305 0.76376 0.28531 0.0
C79 C 0.20849 0.72088 0.20228 0.0
Zn80 Zn 0.24264 0.78749 0.70731 0.0
Zn81 Zn 0.25561 0.70863 0.77186 0.0
C82 C 0.17447 0.79519 0.68553 0.0
O83 O 0.16585 0.76057 0.67991 0.0
C84 C 0.29054 0.65706 0.79163 0.0
O85 O 0.25793 0.6383 0.79652 0.0
O86 O 0.28828 0.81306 0.69128 0.0
O87 O 0.25521 0.78424 0.75809 0.0
O88 O 0.26599 0.75368 0.80097 0.0
C89 C 0.30755 0.84287 0.7052 0.0
O90 O 0.29458 0.85934 0.7271 0.0
O91 O 0.2061 0.81287 0.69798 0.0
C92 C 0.18764 0.65035 0.77056 0.0
O93 O 0.19745 0.63311 0.74676 0.0
O94 O 0.209 0.6794 0.78426 0.0
O95 O 0.24784 0.72433 0.7264 0.0
O96 O 0.2265 0.74009 0.68029 0.0
O97 O 0.29607 0.6877 0.78025 0.0
C98 C 0.26302 0.78239 0.78959 0.0
C99 C 0.23197 0.71547 0.69697 0.0
Zn100 Zn 0.29184 0.22692 0.73826 0.0
Zn101 Zn 0.19942 0.26022 0.743 0.0
C102 C 0.33896 0.21384 0.79333 0.0
O103 O 0.35491 0.24833 0.79354 0.0
C104 C 0.14596 0.2811 0.70608 0.0
O105 O 0.12726 0.25853 0.72604 0.0
O106 O 0.3096 0.21601 0.69568 0.0
O107 O 0.23811 0.21217 0.73272 0.0
O108 O 0.18191 0.2075 0.72811 0.0
C109 C 0.3016 0.1829 0.68814 0.0
O110 O 0.28199 0.16005 0.70733 0.0
O111 O 0.3106 0.19948 0.77344 0.0
C112 C 0.1905 0.30394 0.79294 0.0
O113 O 0.20968 0.32627 0.7731 0.0
O114 O 0.18189 0.27072 0.78574 0.0
O115 O 0.25359 0.27705 0.74922 0.0
O116 O 0.30951 0.27983 0.75221 0.0
O117 O 0.17936 0.28636 0.70757 0.0
C118 C 0.20606 0.19395 0.72286 0.0
C119 C 0.28625 0.29473 0.75721 0.0
Zn120 Zn 0.71919 0.26517 0.75682 0.0
Zn121 Zn 0.7796 0.21998 0.74139 0.0
C122 C 0.66358 0.20829 0.77683 0.0
O123 O 0.64756 0.21423 0.74835 0.0
C124 C 0.83395 0.26934 0.71088 0.0
O125 O 0.85375 0.25483 0.72986 0.0
O126 O 0.69983 0.3051 0.76828 0.0
O127 O 0.77201 0.28107 0.76773 0.0
O128 O 0.79236 0.24045 0.78947 0.0
C129 C 0.69845 0.30961 0.7998 0.0
O130 O 0.70888 0.28913 0.82074 0.0
O131 O 0.69598 0.22627 0.78576 0.0
C132 C 0.79311 0.17451 0.6955 0.0
O133 O 0.77734 0.19352 0.6776 0.0
O134 O 0.79902 0.18076 0.72743 0.0
O135 O 0.72632 0.20217 0.7301 0.0
O136 O 0.70703 0.24414 0.70925 0.0
O137 O 0.80052 0.25931 0.71221 0.0
C138 C 0.7854 0.26942 0.79316 0.0
C139 C 0.71189 0.21413 0.70543 0.0
Zn140 Zn 0.71253 0.7616 0.73253 0.0
Zn141 Zn 0.77785 0.7267 0.75331 0.0
C142 C 0.68741 0.79214 0.78217 0.0
O143 O 0.66031 0.76581 0.76748 0.0
C144 C 0.79661 0.70149 0.69506 0.0
O145 O 0.82451 0.72858 0.7069 0.0
O146 O 0.67532 0.77493 0.70256 0.0
O147 O 0.75499 0.77565 0.70337 0.0
O148 O 0.80154 0.77789 0.73878 0.0
C149 C 0.68717 0.80723 0.69518 0.0
O150 O 0.7205 0.82575 0.7054 0.0
O151 O 0.7183 0.79647 0.77314 0.0
C152 C 0.80505 0.67935 0.78636 0.0
O153 O 0.77163 0.66056 0.77678 0.0
O154 O 0.81604 0.71194 0.77981 0.0
O155 O 0.73621 0.7118 0.78353 0.0
O156 O 0.68902 0.71175 0.74982 0.0
O157 O 0.76894 0.69383 0.71066 0.0
C158 C 0.78862 0.78729 0.71151 0.0
C159 C 0.70239 0.70167 0.7765 0.0
C160 C 0.91107 0.06528 0.53473 0.0
C161 C 0.9442 0.06725 0.43418 0.0
C162 C 0.93033 0.93034 0.44673 0.0
Mg163 Mg 0.98312 0.07352 0.50553 0.0
O164 O 0.96487 0.02407 0.5083 0.0
Mg165 Mg 0.91638 -0.00198 0.4838 0.0
Mg166 Mg 0.99231 -0.00559 0.49169 0.0
O167 O 0.01949 0.96428 0.47534 0.0
Mg168 Mg 0.00055 0.91517 0.47988 0.0
Mg169 Mg 0.06779 0.99008 0.50004 0.0
C170 C 0.05437 0.05867 0.5362 0.0
C171 C 0.0525 0.04131 0.44179 0.0
O172 O 0.89639 0.03527 0.51757 0.0
O173 O 0.94386 0.08383 0.53391 0.0
O174 O 0.92343 0.03767 0.44239 0.0
O175 O 0.97179 0.08533 0.4538 0.0
O176 O 0.03745 0.08095 0.52969 0.0
O177 O 0.04075 0.02541 0.5273 0.0
C178 C 0.93181 0.94494 0.54005 0.0
O179 O 0.96471 0.954 0.53363 0.0
O180 O 0.90992 0.95816 0.52434 0.0
O181 O 0.08758 0.9515 0.46832 0.0
O182 O 0.03979 0.90298 0.45294 0.0
O183 O 0.0602 0.95194 0.54273 0.0
C184 C 0.07273 0.921 0.45214 0.0
O185 O 0.01112 0.9049 0.53234 0.0
O186 O 0.94686 0.90798 0.45435 0.0
C187 C 0.03891 0.92303 0.5517 0.0
O188 O 0.94386 0.96365 0.45555 0.0
O189 O 0.02026 0.03458 0.4497 0.0
O190 O 0.07395 0.02741 0.45729 0.0
C191 C 0.42546 0.06606 0.04293 0.0
C192 C 0.45178 0.06881 0.94107 0.0
C193 C 0.43424 0.92964 0.95 0.0
Mg194 Mg 0.49497 0.07187 0.0104 0.0
O195 O 0.47651 0.02251 0.01194 0.0
Mg196 Mg 0.42666 -0.00117 0.98961 0.0
Mg197 Mg 0.50116 0.9913 0.99197 0.0
O198 O 0.52529 0.96013 0.97129 0.0
Mg199 Mg 0.50581 0.91061 0.97076 0.0
Mg200 Mg 0.57503 0.98309 -0.00646 0.0
C201 C 0.56769 0.05421 0.03229 0.0
C202 C 0.55409 0.03554 0.94081 0.0
O203 O 0.40945 0.03696 0.02482 0.0
O204 O 0.45872 0.08313 0.04249 0.0
O205 O 0.43118 0.03872 0.94841 0.0
O206 O 0.48013 0.08573 0.96028 0.0
O207 O 0.55045 0.07661 0.0282 0.0
O208 O 0.55299 0.02059 0.02492 0.0
C209 C 0.44769 0.94681 0.04292 0.0
O210 O 0.47845 0.95296 0.03248 0.0
O211 O 0.42492 0.96089 0.03038 0.0
O212 O 0.59184 0.94405 0.95814 0.0
O213 O 0.54241 0.8985 0.93966 0.0
O214 O 0.56809 0.94282 0.03489 0.0
C215 C 0.57588 0.91499 0.93986 0.0
O216 O 0.51868 0.89657 0.02083 0.0
O217 O 0.45051 0.90632 0.95262 0.0
C218 C 0.54611 0.913 0.04134 0.0
O219 O 0.44982 0.96267 0.95889 0.0
O220 O 0.52371 0.02939 0.95196 0.0
O221 O 0.57718 0.02129 0.95234 0.0
C222 C 0.92529 0.57564 0.03104 0.0
C223 C 0.94802 0.56252 0.92996 0.0
C224 C 0.93653 0.42776 0.96435 0.0
Mg225 Mg 0.99347 0.5786 -0.00139 0.0
O226 O 0.97754 0.5305 0.00732 0.0
Mg227 Mg 0.92774 0.50142 0.98909 0.0
Mg228 Mg 0.00265 0.49845 0.99119 0.0
O229 O 0.02745 0.46562 0.97562 0.0
Mg230 Mg 0.01139 0.41879 0.98854 0.0
Mg231 Mg 0.07724 0.49453 -0.00633 0.0
C232 C 0.06867 0.56901 0.02014 0.0
C233 C 0.04697 0.53173 0.9313 0.0
O234 O 0.91072 0.54358 0.01817 0.0
O235 O 0.95765 0.59392 0.02791 0.0
O236 O 0.92831 0.53391 0.94127 0.0
O237 O 0.97641 0.5825 0.94711 0.0
O238 O 0.05019 0.58992 0.01422 0.0
O239 O 0.05468 0.53505 0.01773 0.0
C240 C 0.95744 0.46162 0.04948 0.0
O241 O 0.98759 0.46962 0.03788 0.0
O242 O 0.93114 0.47032 0.03571 0.0
O243 O 0.0935 0.4509 0.96636 0.0
O244 O 0.04695 0.4 0.96181 0.0
O245 O 0.07772 0.46446 0.04267 0.0
C246 C 0.0788 0.41787 0.95657 0.0
O247 O 0.02763 0.41852 0.04097 0.0
O248 O 0.9549 0.40723 0.97242 0.0
C249 C 0.05743 0.43785 0.05626 0.0
O250 O 0.95055 0.46167 0.96443 0.0
O251 O 0.01786 0.52738 0.94426 0.0
O252 O 0.07243 0.52183 0.94516 0.0
C253 C 0.41016 0.56278 0.02949 0.0
C254 C 0.45238 0.56666 0.93217 0.0
C255 C 0.43855 0.42953 0.9452 0.0
Mg256 Mg 0.48478 0.57227 0.00611 0.0
O257 O 0.46653 0.52276 0.00791 0.0
Mg258 Mg 0.42014 0.49684 0.98009 0.0
Mg259 Mg 0.49588 0.49391 -0.00593 0.0
O260 O 0.52561 0.46561 0.97997 0.0
Mg261 Mg 0.50864 0.41618 0.98108 0.0
Mg262 Mg 0.57317 0.49221 0.00554 0.0
C263 C 0.55382 0.55756 0.04352 0.0
C264 C 0.55869 0.5452 0.94869 0.0
O265 O 0.39671 0.53352 0.01095 0.0
O266 O 0.44322 0.58136 0.03143 0.0
O267 O 0.43113 0.53654 0.93863 0.0
O268 O 0.4775 0.58532 0.95407 0.0
O269 O 0.53655 0.57913 0.03524 0.0
O270 O 0.5424 0.52463 0.03286 0.0
C271 C 0.43162 0.44479 0.03935 0.0
O272 O 0.46511 0.45294 0.03483 0.0
O273 O 0.41127 0.4581 0.02132 0.0
O274 O 0.59599 0.45695 0.97143 0.0
O275 O 0.54872 0.40902 0.95252 0.0
O276 O 0.56587 0.45137 0.04596 0.0
C277 C 0.58143 0.428 0.95257 0.0
O278 O 0.51917 0.40257 0.03236 0.0
O279 O 0.45603 0.40824 0.95372 0.0
C280 C 0.5458 0.42091 0.05296 0.0
O281 O 0.45007 0.46267 0.9552 0.0
O282 O 0.5253 0.53516 0.95345 0.0
O283 O 0.58032 0.53265 0.9657 0.0
C284 C 0.90797 0.57191 0.54587 0.0
C285 C 0.94531 0.5767 0.44823 0.0
C286 C 0.92389 0.43645 0.45263 0.0
Mg287 Mg 0.98092 0.57677 0.51997 0.0
O288 O 0.96068 0.52711 0.51921 0.0
Mg289 Mg 0.91266 0.50485 0.4931 0.0
Mg290 Mg 0.98689 0.498 0.49864 0.0
O291 O 0.01412 0.46961 0.47845 0.0
Mg292 Mg -0.00342 0.41996 0.47693 0.0
Mg293 Mg 0.06269 0.49329 0.50384 0.0
C294 C 0.05007 0.55717 0.54775 0.0
C295 C 0.04374 0.54979 0.45468 0.0
O296 O 0.89297 0.54239 0.52793 0.0
O297 O 0.94147 0.58873 0.54711 0.0
O298 O 0.9225 0.54719 0.45408 0.0
O299 O 0.97269 0.59215 0.4692 0.0
O300 O 0.03436 0.58083 0.54415 0.0
O301 O 0.03575 0.52494 0.53572 0.0
C302 C 0.93018 0.44935 0.54435 0.0
O303 O 0.96167 0.4567 0.53532 0.0
O304 O 0.90776 0.46411 0.5321 0.0
O305 O 0.08342 0.45898 0.46705 0.0
O306 O 0.03562 0.41246 0.44645 0.0
O307 O 0.05665 0.45024 0.54177 0.0
C308 C 0.06881 0.43056 0.44752 0.0
O309 O 0.00903 0.40285 0.52628 0.0
O310 O 0.94157 0.41443 0.45655 0.0
C311 C 0.03623 0.41933 0.54706 0.0
O312 O 0.93757 0.46974 0.46208 0.0
O313 O 0.01149 0.53977 0.46183 0.0
O314 O 0.06679 0.536 0.46715 0.0
C315 C 0.42003 0.07547 0.52459 0.0
C316 C 0.44395 0.05576 0.42514 0.0
C317 C 0.43062 0.92302 0.46336 0.0
Mg318 Mg 0.48839 0.07508 0.49398 0.0
O319 O 0.47175 0.0277 0.5053 0.0
Mg320 Mg 0.4221 -0.00125 0.48733 0.0
Mg321 Mg 0.49644 -0.00578 0.49121 0.0
O322 O 0.52164 0.96123 0.47706 0.0
Mg323 Mg 0.50562 0.91384 0.48782 0.0
Mg324 Mg 0.57135 0.99061 0.4952 0.0
C325 C 0.56246 0.06518 0.51965 0.0
C326 C 0.54176 0.02675 0.43166 0.0
O327 O 0.40553 0.04269 0.51386 0.0
O328 O 0.4522 0.09347 0.52047 0.0
O329 O 0.42339 0.02858 0.43787 0.0
O330 O 0.47293 0.07562 0.44151 0.0
O331 O 0.54461 0.08628 0.51188 0.0
O332 O 0.54814 0.03127 0.5177 0.0
C333 C 0.45146 0.96337 0.55145 0.0
O334 O 0.48074 0.96731 0.53895 0.0
O335 O 0.42597 0.9725 0.53655 0.0
O336 O 0.58883 0.94715 0.469 0.0
O337 O 0.54198 0.89668 0.4607 0.0
O338 O 0.57056 0.96069 0.54468 0.0
C339 C 0.57446 0.91456 0.4576 0.0
O340 O 0.52206 0.91257 0.53993 0.0
O341 O 0.44914 0.90247 0.47091 0.0
C342 C 0.55045 0.93286 0.55685 0.0
O343 O 0.44449 0.95704 0.46477 0.0
O344 O 0.51203 0.02101 0.44369 0.0
O345 O 0.56777 0.01815 0.4462 0.0
H346 H 0.13722 0.20613 0.29582 0.0
H347 H 0.20707 0.1425 0.30505 0.0
H348 H 0.09838 0.16779 0.33284 0.0
H349 H 0.16973 0.1054 0.34306 0.0
H350 H 0.08846 0.0247 0.39318 0.0
H351 H 0.12032 0.06155 0.35179 0.0
H352 H 0.0844 0.14755 0.38535 0.0
H353 H 0.05048 0.10903 0.42596 0.0
C354 C 0.14444 0.18398 0.30568 0.0
C355 C 0.17549 0.17757 0.29676 0.0
C356 C 0.1221 0.1619 0.32738 0.0
C357 C 0.13002 0.13262 0.3414 0.0
C358 C 0.16135 0.12659 0.33251 0.0
C359 C 0.18331 0.1483 0.31055 0.0
C360 C 0.08672 0.05129 0.39137 0.0
C361 C 0.06651 0.06354 0.41301 0.0
C362 C 0.10575 0.07298 0.36776 0.0
C363 C 0.10638 0.10855 0.36509 0.0
C364 C 0.08496 0.12052 0.38601 0.0
C365 C 0.06521 0.09832 0.40946 0.0
H366 H 0.80805 0.12813 0.2789 0.0
H367 H 0.85639 0.2161 0.353 0.0
H368 H 0.849 0.09803 0.30225 0.0
H369 H 0.89602 0.18562 0.37727 0.0
H370 H 0.88593 0.03692 0.38824 0.0
H371 H 0.85623 0.06764 0.3504 0.0
H372 H 0.94477 0.16485 0.3733 0.0
H373 H 0.97391 0.13427 0.41264 0.0
C374 C 0.82745 0.14103 0.30015 0.0
C375 C 0.82884 0.17438 0.31422 0.0
C376 C 0.8509 0.12377 0.31362 0.0
C377 C 0.87593 0.13925 0.34178 0.0
C378 C 0.87776 0.17307 0.35519 0.0
C379 C 0.8547 0.19048 0.34146 0.0
C380 C 0.89953 0.0647 0.38477 0.0
C381 C 0.93192 0.08336 0.40428 0.0
C382 C 0.88247 0.08237 0.36276 0.0
C383 C 0.89757 0.11908 0.35934 0.0
C384 C 0.93178 0.13683 0.37612 0.0
C385 C 0.94874 0.11919 0.39843 0.0
H386 H 0.7542 0.7981 0.31142 0.0
H387 H 0.83895 0.85661 0.25553 0.0
H388 H 0.77834 0.84075 0.35967 0.0
H389 H 0.86451 0.89866 0.30468 0.0
H390 H 0.88296 0.86341 0.43812 0.0
H391 H 0.83751 0.83917 0.39066 0.0
H392 H 0.85869 0.94381 0.35299 0.0
H393 H 0.9041 0.96845 0.40119 0.0
C394 C 0.77663 0.82142 0.30869 0.0
C395 C 0.79405 0.82469 0.27947 0.0
C396 C 0.7909 0.84549 0.33657 0.0
C397 C 0.82339 0.87281 0.33598 0.0
C398 C 0.83919 0.87806 0.30568 0.0
C399 C 0.82474 0.85393 0.27765 0.0
C400 C 0.87713 0.88147 0.42039 0.0
C401 C 0.89726 0.91771 0.42321 0.0
C402 C 0.85096 0.86764 0.39326 0.0
C403 C 0.8447 0.88965 0.36812 0.0
C404 C 0.86307 0.92634 0.37206 0.0
C405 C 0.88888 0.94038 0.3997 0.0
H406 H 0.1894 0.86651 0.2941 0.0
H407 H 0.17702 0.78757 0.36829 0.0
H408 H 0.16078 0.89937 0.32912 0.0
H409 H 0.14835 0.81972 0.40226 0.0
H410 H 0.05175 0.85574 0.41855 0.0
H411 H 0.08515 0.83155 0.38213 0.0
H412 H 0.17399 0.92885 0.39885 0.0
H413 H 0.1406 0.95363 0.43584 0.0
C414 C 0.18078 0.85637 0.31781 0.0
C415 C 0.18528 0.82452 0.32846 0.0
C416 C 0.16472 0.87517 0.33781 0.0
C417 C 0.15245 0.86178 0.36813 0.0
C418 C 0.15763 0.83042 0.37892 0.0
C419 C 0.1741 0.81213 0.35945 0.0
C420 C 0.07836 0.87217 0.41461 0.0
C421 C 0.09363 0.90652 0.43044 0.0
C422 C 0.09735 0.8583 0.39364 0.0
C423 C 0.1319 0.87848 0.38782 0.0
C424 C 0.14717 0.91305 0.40289 0.0
C425 C 0.12821 0.92696 0.42424 0.0
H426 H 0.17554 0.86223 0.70533 0.0
H427 H 0.11491 0.7695 0.64057 0.0
H428 H 0.13571 0.89391 0.68301 0.0
H429 H 0.07652 0.80146 0.61679 0.0
H430 H 0.00559 0.85903 0.57773 0.0
H431 H 0.03273 0.8284 0.61883 0.0
H432 H 0.12731 0.92102 0.63413 0.0
H433 H 0.09958 0.95194 0.59497 0.0
C434 C 0.15364 0.84861 0.68637 0.0
C435 C 0.14863 0.81354 0.67444 0.0
C436 C 0.13083 0.8668 0.6734 0.0
C437 C 0.10295 0.85059 0.64765 0.0
C438 C 0.09716 0.81488 0.6369 0.0
C439 C 0.11951 0.79653 0.65033 0.0
C440 C 0.03174 0.87316 0.59067 0.0
C441 C 0.05068 0.90763 0.58235 0.0
C442 C 0.04755 0.85545 0.614 0.0
C443 C 0.08278 0.87169 0.62922 0.0
C444 C 0.10021 0.90739 0.62319 0.0
C445 C 0.08427 0.92519 0.60033 0.0
H446 H 0.23634 0.19054 0.666 0.0
H447 H 0.15355 0.1304 0.72322 0.0
H448 H 0.21089 0.14853 0.61723 0.0
H449 H 0.12735 0.08862 0.67409 0.0
H450 H 0.10169 0.12575 0.54353 0.0
H451 H 0.1501 0.14967 0.58859 0.0
H452 H 0.13199 0.04465 0.62463 0.0
H453 H 0.08366 0.02037 0.57887 0.0
C454 C 0.21396 0.1671 0.66874 0.0
C455 C 0.19726 0.1632 0.69843 0.0
C456 C 0.19912 0.14332 0.6407 0.0
C457 C 0.16705 0.11555 0.64185 0.0
C458 C 0.15232 0.10959 0.67264 0.0
C459 C 0.16714 0.13354 0.70068 0.0
C460 C 0.10878 0.10756 0.56034 0.0
C461 C 0.08866 0.07133 0.55793 0.0
C462 C 0.13669 0.12119 0.58602 0.0
C463 C 0.14466 0.09897 0.61014 0.0
C464 C 0.12633 0.06227 0.60632 0.0
C465 C 0.09878 0.04845 0.5801 0.0
H466 H 0.85467 0.1588 0.71109 0.0
H467 H 0.76133 0.13425 0.63835 0.0
H468 H 0.88158 0.12713 0.67353 0.0
H469 H 0.78772 0.10224 0.60128 0.0
H470 H 0.84357 0.03093 0.55111 0.0
H471 H 0.81275 0.05038 0.59433 0.0
H472 H 0.90204 0.14685 0.61607 0.0
H473 H 0.9327 0.12792 0.57318 0.0
C474 C 0.83947 0.14562 0.68766 0.0
C475 C 0.80608 0.14904 0.67747 0.0
C476 C 0.8549 0.12778 0.66609 0.0
C477 C 0.8368 0.1126 0.63439 0.0
C478 C 0.80219 0.11356 0.62557 0.0
C479 C 0.78714 0.13194 0.64677 0.0
C480 C 0.85651 0.05639 0.56496 0.0
C481 C 0.89067 0.0778 0.55867 0.0
C482 C 0.83896 0.06736 0.58981 0.0
C483 C 0.8554 0.09974 0.60897 0.0
C484 C 0.88918 0.12132 0.60231 0.0
C485 C 0.90655 0.11057 0.57741 0.0
H486 H 0.76868 0.81823 0.65574 0.0
H487 H 0.86274 0.80934 0.7129 0.0
H488 H 0.8051 0.85421 0.61648 0.0
H489 H 0.89971 0.84452 0.67238 0.0
H490 H 0.95924 0.93624 0.60557 0.0
H491 H 0.92673 0.89871 0.64771 0.0
H492 H 0.83659 0.85433 0.57205 0.0
H493 H 0.86818 0.89256 0.53134 0.0
C494 C 0.79725 0.82369 0.65993 0.0
C495 C 0.81236 0.81044 0.68784 0.0
C496 C 0.81846 0.84429 0.6369 0.0
C497 C 0.85593 0.8523 0.64024 0.0
C498 C 0.87121 0.83944 0.66853 0.0
C499 C 0.84985 0.81897 0.6919 0.0
C500 C 0.93269 0.91802 0.59794 0.0
C501 C 0.91644 0.91774 0.56487 0.0
C502 C 0.91379 0.8964 0.62223 0.0
C503 C 0.87814 0.87362 0.61412 0.0
C504 C 0.86314 0.87213 0.58035 0.0
C505 C 0.88165 0.89389 0.55653 0.0
H506 H 0.27759 0.11695 0.17174 0.0
H507 H 0.36105 0.21467 0.15857 0.0
H508 H 0.30441 0.08452 0.13456 0.0
H509 H 0.38707 0.18291 0.12151 0.0
H510 H 0.45203 0.11476 0.09625 0.0
H511 H 0.41952 0.14124 0.13152 0.0
H512 H 0.32001 0.07736 0.0757 0.0
H513 H 0.35275 0.04989 0.0406 0.0
C514 C 0.30118 0.13152 0.16043 0.0
C515 C 0.31753 0.16819 0.16836 0.0
C516 C 0.31654 0.11303 0.13924 0.0
C517 C 0.34832 0.13106 0.12574 0.0
C518 C 0.36322 0.16804 0.13228 0.0
C519 C 0.34814 0.18629 0.15338 0.0
C520 C 0.42323 0.10625 0.09141 0.0
C521 C 0.40504 0.08059 0.06526 0.0
C522 C 0.40456 0.12152 0.1116 0.0
C523 C 0.36721 0.1119 0.10597 0.0
C524 C 0.34878 0.08529 0.08064 0.0
C525 C 0.36754 0.06971 0.06049 0.0
H526 H 0.87053 0.31665 0.1948 0.0
H527 H 0.86685 0.42242 0.21828 0.0
H528 H 0.91905 0.34135 0.1609 0.0
H529 H 0.91604 0.44696 0.18476 0.0
H530 H -0.00167 0.47757 0.10998 0.0
H531 H 0.98272 0.44891 0.16279 0.0
H532 H 0.89078 0.37116 0.10739 0.0
H533 H 0.90539 0.40056 0.05548 0.0
C534 C 0.88104 0.34529 0.19395 0.0
C535 C 0.8639 0.36758 0.20785 0.0
C536 C 0.90913 0.35934 0.17489 0.0
C537 C 0.92062 0.39579 0.16999 0.0
C538 C 0.90749 0.41868 0.18837 0.0
C539 C 0.87907 0.40459 0.20722 0.0
C540 C 0.9753 0.45385 0.1093 0.0
C541 C 0.95247 0.44133 0.07934 0.0
C542 C 0.96662 0.43749 0.13922 0.0
C543 C 0.93587 0.40787 0.13881 0.0
C544 C 0.91496 0.39369 0.10811 0.0
C545 C 0.92297 0.41062 0.07861 0.0
H546 H 0.57407 0.77209 0.20003 0.0
H547 H 0.67592 0.82168 0.16356 0.0
H548 H 0.54736 0.80714 0.16336 0.0
H549 H 0.64914 0.85624 0.12677 0.0
H550 H 0.60288 0.93872 0.08992 0.0
H551 H 0.62425 0.90536 0.13236 0.0
H552 H 0.53238 0.81291 0.10243 0.0
H553 H 0.51058 0.84635 0.06017 0.0
C554 C 0.59072 0.79029 0.18407 0.0
C555 C 0.62717 0.79418 0.1848 0.0
C556 C 0.57538 0.81031 0.16307 0.0
C557 C 0.59624 0.83476 0.14252 0.0
C558 C 0.63253 0.83818 0.14287 0.0
C559 C 0.64781 0.81811 0.16373 0.0
C560 C 0.58686 0.91147 0.0927 0.0
C561 C 0.55531 0.89505 0.07119 0.0
C562 C 0.59928 0.89229 0.11687 0.0
C563 C 0.58042 0.85629 0.12017 0.0
C564 C 0.54756 0.84059 0.10041 0.0
C565 C 0.53511 0.85978 0.07615 0.0
H566 H 0.18326 0.73735 0.14086 0.0
H567 H 0.21513 0.65578 0.19106 0.0
H568 H 0.16391 0.69867 0.08963 0.0
H569 H 0.2002 0.61877 0.13902 0.0
H570 H 0.10192 0.54497 0.07175 0.0
H571 H 0.14937 0.58247 0.11157 0.0
H572 H 0.16793 0.66695 0.04251 0.0
H573 H 0.1178 0.62972 0.00388 0.0
C574 C 0.18716 0.71156 0.14056 0.0
C575 C 0.20083 0.69969 0.16986 0.0
C576 C 0.17671 0.68944 0.11093 0.0
C577 C 0.18018 0.65511 0.10986 0.0
C578 C 0.19608 0.64442 0.13882 0.0
C579 C 0.20517 0.66594 0.16867 0.0
C580 C 0.11702 0.5711 0.06459 0.0
C581 C 0.10552 0.58512 0.03557 0.0
C582 C 0.14455 0.59289 0.0875 0.0
C583 C 0.16148 0.62876 0.08122 0.0
C584 C 0.15414 0.64024 0.04911 0.0
C585 C 0.12579 0.61881 0.02672 0.0
H586 H 0.23783 0.79105 0.84899 0.0
H587 H 0.3149 0.84411 0.78316 0.0
H588 H 0.26697 0.83795 0.89363 0.0
H589 H 0.34321 0.89128 0.82674 0.0
H590 H 0.40085 0.96602 0.90917 0.0
H591 H 0.34521 0.93974 0.87188 0.0
H592 H 0.32833 0.84053 0.91984 0.0
H593 H 0.38383 0.86642 0.95626 0.0
C594 C 0.25996 0.81364 0.8436 0.0
C595 C 0.27388 0.81448 0.81255 0.0
C596 C 0.27646 0.84049 0.86898 0.0
C597 C 0.30737 0.86822 0.86368 0.0
C598 C 0.31899 0.87075 0.8314 0.0
C599 C 0.30262 0.84383 0.80619 0.0
C600 C 0.38449 0.93901 0.91244 0.0
C601 C 0.39689 0.91781 0.93483 0.0
C602 C 0.35269 0.92405 0.89119 0.0
C603 C 0.33271 0.888 0.89269 0.0
C604 C 0.34301 0.86841 0.91814 0.0
C605 C 0.37503 0.88307 0.93877 0.0
H606 H 0.22467 0.36417 0.83236 0.0
H607 H 0.12757 0.27475 0.8181 0.0
H608 H 0.20139 0.39002 0.87726 0.0
H609 H 0.10296 0.30156 0.86118 0.0
H610 H 0.07193 0.34734 0.95226 0.0
H611 H 0.103 0.31792 0.91772 0.0
H612 H 0.15985 0.41946 0.88101 0.0
H613 H 0.1304 0.44879 0.91703 0.0
C614 C 0.19832 0.35009 0.83899 0.0
C615 C 0.17777 0.31764 0.82194 0.0
C616 C 0.18482 0.36498 0.86446 0.0
C617 C 0.15006 0.34817 0.8726 0.0
C618 C 0.13001 0.31504 0.85606 0.0
C619 C 0.14395 0.29971 0.83123 0.0
C620 C 0.0914 0.36328 0.93703 0.0
C621 C 0.09879 0.40026 0.9372 0.0
C622 C 0.10906 0.34646 0.9171 0.0
C623 C 0.13385 0.36623 0.89639 0.0
C624 C 0.14155 0.40338 0.89712 0.0
C625 C 0.12447 0.42024 0.91758 0.0
H626 H 0.60575 0.14964 0.75911 0.0
H627 H 0.67618 0.20977 0.84498 0.0
H628 H 0.57286 0.10668 0.79699 0.0
H629 H 0.64261 0.16741 0.88262 0.0
H630 H 0.54247 0.09903 0.93388 0.0
H631 H 0.56469 0.14177 0.89143 0.0
H632 H 0.60787 0.06771 0.8443 0.0
H633 H 0.58658 0.02549 0.88701 0.0
C634 C 0.6139 0.1538 0.78603 0.0
C635 C 0.64354 0.18271 0.79924 0.0
C636 C 0.59509 0.12944 0.80752 0.0
C637 C 0.6052 0.1344 0.8424 0.0
C638 C 0.63429 0.16362 0.8557 0.0
C639 C 0.65359 0.18747 0.83422 0.0
C640 C 0.55605 0.09176 0.914 0.0
C641 C 0.56306 0.05931 0.9135 0.0
C642 C 0.56875 0.11607 0.88997 0.0
C643 C 0.58766 0.10757 0.86489 0.0
C644 C 0.59303 0.07442 0.86341 0.0
C645 C 0.58111 0.05054 0.88781 0.0
H646 H 0.78597 0.61904 0.81976 0.0
H647 H 0.87806 0.70014 0.79134 0.0
H648 H 0.82423 0.58919 0.84769 0.0
H649 H 0.91677 0.6692 0.81797 0.0
H650 H 0.97161 0.63014 0.9096 0.0
H651 H 0.93934 0.6576 0.87081 0.0
H652 H 0.86112 0.55466 0.84147 0.0
H653 H 0.89245 0.5274 0.88218 0.0
C654 C 0.8145 0.63025 0.81916 0.0
C655 C 0.82905 0.66199 0.80353 0.0
C656 C 0.83652 0.61285 0.83484 0.0
C657 C 0.87374 0.62638 0.83481 0.0
C658 C 0.8883 0.6581 0.81883 0.0
C659 C 0.86617 0.67588 0.80356 0.0
C660 C 0.94793 0.61312 0.8944 0.0
C661 C 0.93413 0.57663 0.89962 0.0
C662 C 0.92939 0.62898 0.87191 0.0
C663 C 0.89697 0.6086 0.85356 0.0
C664 C 0.88529 0.57145 0.85612 0.0
C665 C 0.90348 0.55567 0.87916 0.0
H666 H 0.19041 0.32661 0.12728 0.0
H667 H 0.12112 0.3056 0.20658 0.0
H668 H 0.15887 0.36488 0.10251 0.0
H669 H 0.08947 0.34405 0.1815 0.0
H670 H 0.02273 0.38262 0.09279 0.0
H671 H 0.05088 0.34727 0.12739 0.0
H672 H 0.15398 0.4249 0.12125 0.0
H673 H 0.12614 0.4602 0.08647 0.0
C674 C 0.16818 0.32976 0.13921 0.0
C675 C 0.15846 0.31325 0.16904 0.0
C676 C 0.15041 0.35206 0.12525 0.0
C677 C 0.12233 0.35809 0.1406 0.0
C678 C 0.11127 0.34011 0.16938 0.0
C679 C 0.12931 0.31803 0.1836 0.0
C680 C 0.05131 0.39274 0.09964 0.0
C681 C 0.07228 0.42378 0.08608 0.0
C682 C 0.06739 0.37241 0.11942 0.0
C683 C 0.10466 0.38283 0.126 0.0
C684 C 0.12523 0.41581 0.11568 0.0
C685 C 0.10919 0.43624 0.09608 0.0
H686 H 0.13295 0.59014 0.74698 0.0
H687 H 0.16326 0.67822 0.82238 0.0
H688 H 0.08056 0.56105 0.77538 0.0
H689 H 0.11213 0.64897 0.85092 0.0
H690 H 0.03106 0.58992 0.90928 0.0
H691 H 0.04908 0.61983 0.85791 0.0
H692 H 0.08953 0.53534 0.8289 0.0
H693 H 0.07156 0.50605 0.87958 0.0
C694 C 0.12811 0.60352 0.76919 0.0
C695 C 0.15288 0.63561 0.78332 0.0
C696 C 0.09801 0.5871 0.7852 0.0
C697 C 0.0927 0.60242 0.81568 0.0
C698 C 0.11529 0.63649 0.82742 0.0
C699 C 0.14509 0.65297 0.81134 0.0
C700 C 0.04273 0.57743 0.89118 0.0
C701 C 0.05089 0.54639 0.89835 0.0
C702 C 0.05291 0.59436 0.86187 0.0
C703 C 0.07091 0.58003 0.83953 0.0
C704 C 0.0754 0.54694 0.84531 0.0
C705 C 0.06572 0.53043 0.87462 0.0
H706 H 0.32625 0.14223 0.78434 0.0
H707 H 0.39068 0.23515 0.84703 0.0
H708 H 0.35669 0.10613 0.81475 0.0
H709 H 0.42005 0.19882 0.87866 0.0
H710 H 0.48675 0.13283 0.91612 0.0
H711 H 0.4609 0.16697 0.87771 0.0
H712 H 0.36094 0.08065 0.86599 0.0
H713 H 0.3871 0.04619 0.90283 0.0
C714 C 0.34659 0.15486 0.80498 0.0
C715 C 0.35592 0.19153 0.81337 0.0
C716 C 0.36409 0.13412 0.82251 0.0
C717 C 0.39103 0.14941 0.84926 0.0
C718 C 0.40008 0.18613 0.85778 0.0
C719 C 0.38292 0.20696 0.8399 0.0
C720 C 0.4595 0.12088 0.90473 0.0
C721 C 0.43898 0.08687 0.9129 0.0
C722 C 0.44448 0.14064 0.88299 0.0
C723 C 0.40851 0.12698 0.86912 0.0
C724 C 0.38874 0.09213 0.87584 0.0
C725 C 0.40383 0.07229 0.89719 0.0
H726 H 0.81876 0.25639 0.85233 0.0
H727 H 0.77416 0.33226 0.80652 0.0
H728 H 0.84096 0.2966 0.90242 0.0
H729 H 0.79295 0.37074 0.85768 0.0
H730 H 0.88971 0.36846 0.98553 0.0
H731 H 0.83725 0.3291 0.95101 0.0
H732 H 0.84861 0.40897 0.87765 0.0
H733 H 0.89934 0.44856 0.91311 0.0
C734 C 0.81276 0.28115 0.85336 0.0
C735 C 0.79507 0.29125 0.82535 0.0
C736 C 0.82491 0.30406 0.88238 0.0
C737 C 0.81903 0.33728 0.88413 0.0
C738 C 0.79868 0.34585 0.85704 0.0
C739 C 0.78765 0.32355 0.82772 0.0
C740 C 0.87985 0.37796 0.96266 0.0
C741 C 0.89904 0.41081 0.95117 0.0
C742 C 0.85003 0.35538 0.94277 0.0
C743 C 0.83978 0.36505 0.91074 0.0
C744 C 0.85581 0.40022 0.90193 0.0
C745 C 0.88513 0.42308 0.92223 0.0
H746 H 0.63704 0.82244 0.7677 0.0
H747 H 0.71918 0.82062 0.84582 0.0
H748 H 0.61413 0.85642 0.80602 0.0
H749 H 0.69556 0.8544 0.88504 0.0
H750 H 0.64859 0.93643 0.93661 0.0
H751 H 0.681 0.91198 0.89826 0.0
H752 H 0.5816 0.83538 0.8548 0.0
H753 H 0.54946 0.85951 0.8924 0.0
C754 C 0.65052 0.82988 0.79308 0.0
C755 C 0.6796 0.81871 0.804 0.0
C756 C 0.63728 0.84915 0.81508 0.0
C757 C 0.65247 0.85735 0.8488 0.0
C758 C 0.68327 0.8484 0.85919 0.0
C759 C 0.69683 0.82918 0.83684 0.0
C760 C 0.63371 0.91438 0.91883 0.0
C761 C 0.59632 0.90013 0.91752 0.0
C762 C 0.65232 0.90032 0.897 0.0
C763 C 0.63384 0.87207 0.8732 0.0
C764 C 0.59662 0.85761 0.87236 0.0
C765 C 0.57816 0.87137 0.89417 0.0
H766 H 0.83564 0.71372 0.14027 0.0
H767 H 0.79734 0.61024 0.18063 0.0
H768 H 0.8622 0.68866 0.09728 0.0
H769 H 0.82424 0.5855 0.13801 0.0
H770 H 0.94782 0.64034 0.06637 0.0
H771 H 0.9139 0.6654 0.10154 0.0
H772 H 0.82115 0.57269 0.07588 0.0
H773 H 0.85506 0.54719 0.04087 0.0
C774 C 0.8326 0.68561 0.13976 0.0
C775 C 0.8148 0.66402 0.164 0.0
C776 C 0.84788 0.67135 0.11528 0.0
C777 C 0.84543 0.63527 0.11457 0.0
C778 C 0.82624 0.61335 0.13785 0.0
C779 C 0.81106 0.6276 0.16236 0.0
C780 C 0.92012 0.62538 0.06792 0.0
C781 C 0.9042 0.59168 0.05092 0.0
C782 C 0.90066 0.63987 0.0879 0.0
C783 C 0.86493 0.62099 0.09126 0.0
C784 C 0.84876 0.58764 0.07383 0.0
C785 C 0.8682 0.57312 0.05379 0.0
H786 H 0.30757 0.80468 0.15936 0.0
H787 H 0.40808 0.79438 0.20083 0.0
H788 H 0.33853 0.84841 0.12225 0.0
H789 H 0.43929 0.83908 0.16386 0.0
H790 H 0.46955 0.89012 0.06073 0.0
H791 H 0.44526 0.84748 0.10237 0.0
H792 H 0.37881 0.90939 0.12914 0.0
H793 H 0.40242 0.95114 0.08755 0.0
C794 C 0.33632 0.81197 0.16076 0.0
C795 C 0.35542 0.7963 0.18317 0.0
C796 C 0.35408 0.83714 0.13959 0.0
C797 C 0.39134 0.84738 0.14051 0.0
C798 C 0.41053 0.83151 0.16263 0.0
C799 C 0.39269 0.80616 0.18387 0.0
C800 C 0.45025 0.89476 0.07595 0.0
C801 C 0.43743 0.92347 0.07059 0.0
C802 C 0.43634 0.87046 0.09973 0.0
C803 C 0.40964 0.87485 0.11843 0.0
C804 C 0.39865 0.90485 0.11443 0.0
C805 C 0.41225 0.92878 0.09068 0.0
H806 H 0.69584 0.15354 0.20103 0.0
H807 H 0.76159 0.20722 0.12668 0.0
H808 H 0.66345 0.10543 0.15924 0.0
H809 H 0.72968 0.15878 0.0846 0.0
H810 H 0.61638 0.11685 0.02163 0.0
H811 H 0.66989 0.1487 0.05849 0.0
H812 H 0.65639 0.05644 0.11705 0.0
H813 H 0.60217 0.02438 0.0796 0.0
C814 C 0.70441 0.15421 0.17616 0.0
C815 C 0.73093 0.1842 0.16712 0.0
C816 C 0.68585 0.12659 0.15204 0.0
C817 C 0.69355 0.12846 0.11831 0.0
C818 C 0.72259 0.15684 0.11018 0.0
C819 C 0.74089 0.18458 0.13427 0.0
C820 C 0.6255 0.10295 0.04168 0.0
C821 C 0.6049 0.06844 0.04812 0.0
C822 C 0.6564 0.12113 0.06279 0.0
C823 C 0.66722 0.10537 0.09116 0.0
C824 C 0.64847 0.0695 0.09569 0.0
C825 C 0.61762 0.05105 0.07413 0.0
H826 H 0.62895 0.68371 0.77801 0.0
H827 H 0.72195 0.66677 0.82958 0.0
H828 H 0.59215 0.64858 0.81863 0.0
H829 H 0.68552 0.63082 0.86897 0.0
H830 H 0.62462 0.59409 0.95601 0.0
H831 H 0.65647 0.63165 0.91515 0.0
H832 H 0.56319 0.59399 0.84199 0.0
H833 H 0.53049 0.55691 0.88433 0.0
C834 C 0.64162 0.67229 0.79779 0.0
C835 C 0.6788 0.67858 0.8003 0.0
C836 C 0.62034 0.65185 0.82121 0.0
C837 C 0.63537 0.63677 0.848 0.0
C838 C 0.67247 0.6425 0.84976 0.0
C839 C 0.69365 0.66309 0.82668 0.0
C840 C 0.61052 0.59397 0.93135 0.0
C841 C 0.57478 0.57205 0.92377 0.0
C842 C 0.62917 0.6154 0.90742 0.0
C843 C 0.6133 0.61563 0.87428 0.0
C844 C 0.57683 0.59488 0.86698 0.0
C845 C 0.55783 0.57352 0.89138 0.0
H846 H 0.3626 0.69342 0.79802 0.0
H847 H 0.28627 0.59073 0.81036 0.0
H848 H 0.41077 0.6728 0.8228 0.0
H849 H 0.33372 0.57053 0.83544 0.0
H850 H 0.41832 0.53156 0.87252 0.0
H851 H 0.38572 0.55446 0.82899 0.0
H852 H 0.42949 0.65959 0.87919 0.0
H853 H 0.46313 0.63684 0.92193 0.0
C854 C 0.35615 0.66632 0.80553 0.0
C855 C 0.32053 0.64382 0.80252 0.0
C856 C 0.38373 0.65456 0.81986 0.0
C857 C 0.37625 0.62 0.8312 0.0
C858 C 0.34077 0.59711 0.82655 0.0
C859 C 0.31335 0.60885 0.81244 0.0
C860 C 0.42199 0.55982 0.87353 0.0
C861 C 0.44277 0.5823 0.90095 0.0
C862 C 0.40304 0.57291 0.84876 0.0
C863 C 0.404 0.60864 0.85118 0.0
C864 C 0.42798 0.63192 0.8765 0.0
C865 C 0.44736 0.61888 0.90108 0.0
H866 H 0.25891 0.30638 0.81394 0.0
H867 H 0.34064 0.35544 0.75089 0.0
H868 H 0.28838 0.35172 0.85916 0.0
H869 H 0.37101 0.40028 0.79688 0.0
H870 H 0.41861 0.36663 0.90826 0.0
H871 H 0.3748 0.34707 0.8594 0.0
H872 H 0.34464 0.44149 0.87147 0.0
H873 H 0.38981 0.46227 0.92103 0.0
C874 C 0.28169 0.32837 0.80887 0.0
C875 C 0.29712 0.32791 0.77875 0.0
C876 C 0.29868 0.35426 0.83486 0.0
C877 C 0.33167 0.37953 0.83126 0.0
C878 C 0.34516 0.38143 0.79987 0.0
C879 C 0.32804 0.35561 0.77376 0.0
C880 C 0.40253 0.38329 0.90116 0.0
C881 C 0.40782 0.4161 0.91878 0.0
C882 C 0.37761 0.37209 0.87293 0.0
C883 C 0.35692 0.39303 0.86174 0.0
C884 C 0.36077 0.42521 0.87969 0.0
C885 C 0.38634 0.43685 0.90805 0.0
H886 H 0.62897 0.29482 0.80633 0.0
H887 H 0.73061 0.37731 0.82646 0.0
H888 H 0.60225 0.32849 0.84108 0.0
H889 H 0.70377 0.41235 0.86049 0.0
H890 H 0.65252 0.43327 0.9569 0.0
H891 H 0.68185 0.40987 0.91474 0.0
H892 H 0.58384 0.37854 0.84726 0.0
H893 H 0.55458 0.4 0.88968 0.0
C894 C 0.64515 0.32098 0.81716 0.0
C895 C 0.68145 0.33401 0.81326 0.0
C896 C 0.62997 0.34036 0.83716 0.0
C897 C 0.65084 0.3733 0.85367 0.0
C898 C 0.68703 0.38696 0.84849 0.0
C899 C 0.70229 0.36728 0.82863 0.0
C900 C 0.63752 0.42149 0.93295 0.0
C901 C 0.60114 0.41756 0.92686 0.0
C902 C 0.65429 0.40834 0.90866 0.0
C903 C 0.63501 0.39169 0.87774 0.0
C904 C 0.59925 0.39011 0.8711 0.0
C905 C 0.58247 0.40249 0.89544 0.0
H906 H 0.68836 0.35963 0.20194 0.0
H907 H 0.65277 0.28326 0.11595 0.0
H908 H 0.64326 0.38678 0.18248 0.0
H909 H 0.60885 0.31068 0.09619 0.0
H910 H 0.52155 0.35111 0.0688 0.0
H911 H 0.55446 0.32118 0.10496 0.0
H912 H 0.63353 0.42257 0.1377 0.0
H913 H 0.60011 0.4525 0.10266 0.0
C914 C 0.67094 0.34864 0.17895 0.0
C915 C 0.6743 0.31939 0.16043 0.0
C916 C 0.64508 0.36416 0.1678 0.0
C917 C 0.62213 0.35081 0.13786 0.0
C918 C 0.62532 0.32121 0.11977 0.0
C919 C 0.65092 0.30569 0.13094 0.0
C920 C 0.54526 0.36714 0.0846 0.0
C921 C 0.55865 0.40412 0.08207 0.0
C922 C 0.56441 0.34993 0.10507 0.0
C923 C 0.59733 0.36933 0.12338 0.0
C924 C 0.60847 0.40666 0.12385 0.0
C925 C 0.58927 0.42387 0.10353 0.0
H926 H 0.64733 0.63173 0.23821 0.0
H927 H 0.73364 0.67378 0.17804 0.0
H928 H 0.61644 0.58697 0.19234 0.0
H929 H 0.70394 0.62824 0.13334 0.0
H930 H 0.59716 0.52092 0.07141 0.0
H931 H 0.64088 0.54013 0.12201 0.0
H932 H 0.62166 0.64097 0.12709 0.0
H933 H 0.57896 0.6227 0.07712 0.0
C934 C 0.66076 0.62993 0.21619 0.0
C935 C 0.6932 0.65587 0.21183 0.0
C936 C 0.6433 0.60412 0.19015 0.0
C937 C 0.65811 0.60419 0.15959 0.0
C938 C 0.69252 0.62716 0.15703 0.0
C939 C 0.70977 0.65309 0.18286 0.0
C940 C 0.60273 0.54738 0.08303 0.0
C941 C 0.5844 0.5702 0.07018 0.0
C942 C 0.62747 0.55813 0.11201 0.0
C943 C 0.63388 0.59169 0.12834 0.0
C944 C 0.61673 0.61483 0.11483 0.0
C945 C 0.59245 0.60436 0.08605 0.0
H946 H 0.33181 0.63754 0.20295 0.0
H947 H 0.26747 0.65366 0.11521 0.0
H948 H 0.35666 0.60211 0.16734 0.0
H949 H 0.29202 0.61832 0.07994 0.0
H950 H 0.33698 0.54017 0.02734 0.0
H951 H 0.3015 0.55842 0.06698 0.0
H952 H 0.39814 0.62784 0.12308 0.0
H953 H 0.4333 0.61019 0.08393 0.0
C954 C 0.32226 0.63267 0.17632 0.0
C955 C 0.29823 0.64877 0.16172 0.0
C956 C 0.33651 0.61255 0.15595 0.0
C957 C 0.3265 0.60789 0.12087 0.0
C958 C 0.30009 0.62136 0.10688 0.0
C959 C 0.28626 0.64181 0.12709 0.0
C960 C 0.35054 0.5593 0.04816 0.0
C961 C 0.38791 0.57399 0.05225 0.0
C962 C 0.33029 0.56956 0.07087 0.0
C963 C 0.34718 0.59409 0.09833 0.0
C964 C 0.38446 0.60832 0.10256 0.0
C965 C 0.40456 0.59857 0.07974 0.0
H966 H 0.34795 0.28298 0.18847 0.0
H967 H 0.28547 0.35404 0.18825 0.0
H968 H 0.38464 0.31896 0.14834 0.0
H969 H 0.32222 0.39008 0.14871 0.0
H970 H 0.36114 0.42208 0.04843 0.0
H971 H 0.33055 0.38692 0.09095 0.0
H972 H 0.42938 0.37579 0.13519 0.0
H973 H 0.46096 0.4118 0.09137 0.0
C974 C 0.3421 0.30642 0.18024 0.0
C975 C 0.31326 0.31517 0.19196 0.0
C976 C 0.36346 0.32731 0.15716 0.0
C977 C 0.35661 0.35761 0.14456 0.0
C978 C 0.32832 0.36677 0.15701 0.0
C979 C 0.30719 0.34608 0.18015 0.0
C980 C 0.37696 0.41246 0.06702 0.0
C981 C 0.41413 0.42057 0.066 0.0
C982 C 0.35905 0.39219 0.09195 0.0
C983 C 0.37712 0.37865 0.11743 0.0
C984 C 0.41423 0.38566 0.1162 0.0
C985 C 0.4325 0.40644 0.09098 0.0
H986 H 0.82715 0.72441 0.63917 0.0
H987 H 0.77625 0.62855 0.68734 0.0
H988 H 0.84831 0.69035 0.59923 0.0
H989 H 0.79842 0.59415 0.64766 0.0
H990 H 0.83658 0.54435 0.55536 0.0
H991 H 0.80184 0.57303 0.58697 0.0
H992 H 0.89595 0.66438 0.61219 0.0
H993 H 0.93017 0.63646 0.58096 0.0
C994 C 0.81974 0.6958 0.6406 0.0
C995 C 0.80023 0.67909 0.66633 0.0
C996 C 0.83211 0.67631 0.61793 0.0
C997 C 0.82583 0.63968 0.62081 0.0
C998 C 0.80371 0.62233 0.6448 0.0
C999 C 0.7909 0.64195 0.66742 0.0
C1000 C 0.84976 0.57059 0.56762 0.0
C1001 C 0.88621 0.58809 0.56538 0.0
C1002 C 0.82987 0.58694 0.58577 0.0
C1003 C 0.84598 0.62124 0.60162 0.0
C1004 C 0.88243 0.63833 0.59963 0.0
C1005 C 0.9022 0.62207 0.58185 0.0
H1006 H 0.35755 0.90537 0.73074 0.0
H1007 H 0.33945 0.81603 0.65875 0.0
H1008 H 0.41204 0.93684 0.70649 0.0
H1009 H 0.39272 0.84759 0.63414 0.0
H1010 H 0.47238 0.90965 0.57799 0.0
H1011 H 0.4552 0.88145 0.63018 0.0
H1012 H 0.40414 0.95987 0.65149 0.0
H1013 H 0.42171 0.98779 0.60016 0.0
C1014 C 0.36555 0.89223 0.71021 0.0
C1015 C 0.34353 0.85908 0.69552 0.0
C1016 C 0.39688 0.91002 0.69664 0.0
C1017 C 0.40609 0.89504 0.66795 0.0
C1018 C 0.38645 0.85994 0.65625 0.0
C1019 C 0.3554 0.8421 0.66994 0.0
C1020 C 0.45863 0.92138 0.5946 0.0
C1021 C 0.44737 0.95006 0.58496 0.0
C1022 C 0.44892 0.90541 0.62442 0.0
C1023 C 0.42803 0.91821 0.64472 0.0
C1024 C 0.42047 0.94944 0.63667 0.0
C1025 C 0.42985 0.96506 0.6069 0.0
H1026 H 0.07585 0.27723 0.69956 0.0
H1027 H 0.17626 0.33068 0.66215 0.0
H1028 H 0.04706 0.31159 0.66436 0.0
H1029 H 0.14727 0.36469 0.62659 0.0
H1030 H 0.09495 0.44519 0.5934 0.0
H1031 H 0.12011 0.41194 0.63299 0.0
H1032 H 0.0299 0.31763 0.60424 0.0
H1033 H 0.00434 0.35101 0.56458 0.0
C1034 C 0.09178 0.29617 0.68369 0.0
C1035 C 0.12842 0.30122 0.6837 0.0
C1036 C 0.0752 0.31578 0.66344 0.0
C1037 C 0.09487 0.34099 0.64281 0.0
C1038 C 0.13146 0.34587 0.64263 0.0
C1039 C 0.14805 0.3262 0.66283 0.0
C1040 C 0.08008 0.41749 0.59578 0.0
C1041 C 0.04775 0.40067 0.5754 0.0
C1042 C 0.09475 0.39836 0.61832 0.0
C1043 C 0.0774 0.36198 0.62126 0.0
C1044 C 0.04398 0.34564 0.6025 0.0
C1045 C 0.02931 0.36478 0.57976 0.0
H1046 H 0.68192 0.23097 0.64639 0.0
H1047 H 0.71242 0.14657 0.69288 0.0
H1048 H 0.65809 0.19274 0.59536 0.0
H1049 H 0.69202 0.10957 0.64097 0.0
H1050 H 0.59279 0.0397 0.57221 0.0
H1051 H 0.63939 0.07561 0.61378 0.0
H1052 H 0.66207 0.16217 0.54706 0.0
H1053 H 0.61281 0.12658 0.50655 0.0
C1054 C 0.68412 0.20447 0.64546 0.0
C1055 C 0.69875 0.19174 0.67373 0.0
C1056 C 0.67112 0.18263 0.61588 0.0
C1057 C 0.67307 0.14777 0.61372 0.0
C1058 C 0.68925 0.13582 0.64169 0.0
C1059 C 0.70116 0.1572 0.67152 0.0
C1060 C 0.60855 0.06597 0.56597 0.0
C1061 C 0.59858 0.08098 0.53691 0.0
C1062 C 0.63556 0.08678 0.58988 0.0
C1063 C 0.65358 0.12264 0.58458 0.0
C1064 C 0.64747 0.13535 0.55277 0.0
C1065 C 0.61964 0.11488 0.52934 0.0
H1066 H 0.80572 0.33453 0.27984 0.0
H1067 H 0.73326 0.28394 0.3504 0.0
H1068 H 0.8365 0.383 0.32188 0.0
H1069 H 0.76379 0.33256 0.39285 0.0
H1070 H 0.89274 0.46579 0.40231 0.0
H1071 H 0.84077 0.43333 0.36229 0.0
H1072 H 0.82257 0.34196 0.42256 0.0
H1073 H 0.87405 0.37414 0.46186 0.0
C1074 C 0.79534 0.33474 0.3038 0.0
C1075 C 0.76721 0.30559 0.31176 0.0
C1076 C 0.81301 0.36249 0.32808 0.0
C1077 C 0.8029 0.36152 0.36097 0.0
C1078 C 0.77261 0.33384 0.36794 0.0
C1079 C 0.75513 0.30601 0.34366 0.0
C1080 C 0.87667 0.43926 0.40753 0.0
C1081 C 0.8875 0.42222 0.43488 0.0
C1082 C 0.84713 0.42058 0.38452 0.0
C1083 C 0.82775 0.38484 0.38892 0.0
C1084 C 0.83659 0.36942 0.41835 0.0
C1085 C 0.86626 0.38781 0.44089 0.0
H1086 H 0.69316 0.87661 0.30312 0.0
H1087 H 0.66251 0.77483 0.34758 0.0
H1088 H 0.66937 0.9018 0.34792 0.0
H1089 H 0.63924 0.80037 0.39286 0.0
H1090 H 0.55382 0.84666 0.42899 0.0
H1091 H 0.58687 0.82077 0.39361 0.0
H1092 H 0.67655 0.91776 0.40893 0.0
H1093 H 0.64336 0.94408 0.44395 0.0
C1094 C 0.68183 0.85975 0.32274 0.0
C1095 C 0.67924 0.82363 0.32163 0.0
C1096 C 0.66846 0.87427 0.34855 0.0
C1097 C 0.65233 0.85297 0.37376 0.0
C1098 C 0.65115 0.81723 0.37347 0.0
C1099 C 0.66452 0.80268 0.34762 0.0
C1100 C 0.58071 0.8624 0.42515 0.0
C1101 C 0.59576 0.89761 0.43895 0.0
C1102 C 0.59975 0.84742 0.40509 0.0
C1103 C 0.6342 0.86734 0.39845 0.0
C1104 C 0.64985 0.902 0.41335 0.0
C1105 C 0.63083 0.91699 0.43345 0.0
H1106 H 0.08553 0.70135 0.29621 0.0
H1107 H 0.17878 0.6693 0.32012 0.0
H1108 H 0.05584 0.66408 0.33918 0.0
H1109 H 0.14884 0.63138 0.36204 0.0
H1110 H 0.10815 0.59991 0.45889 0.0
H1111 H 0.13215 0.64077 0.4166 0.0
H1112 H 0.0305 0.60295 0.35474 0.0
H1113 H 0.00596 0.5628 0.39826 0.0
C1114 C 0.09949 0.68598 0.3103 0.0
C1115 C 0.13461 0.68846 0.30505 0.0
C1116 C 0.08244 0.66461 0.33482 0.0
C1117 C 0.10023 0.64532 0.35438 0.0
C1118 C 0.13477 0.64671 0.34803 0.0
C1119 C 0.15184 0.66819 0.32378 0.0
C1120 C 0.09082 0.60068 0.43642 0.0
C1121 C 0.05551 0.57788 0.43135 0.0
C1122 C 0.1046 0.62385 0.4121 0.0
C1123 C 0.08355 0.62423 0.38187 0.0
C1124 C 0.04741 0.60308 0.37774 0.0
C1125 C 0.03337 0.58014 0.40252 0.0
H1126 H 0.28352 0.12214 0.32864 0.0
H1127 H 0.37294 0.19199 0.28503 0.0
H1128 H 0.32195 0.09202 0.35612 0.0
H1129 H 0.41163 0.16073 0.31144 0.0
H1130 H 0.47173 0.12084 0.40008 0.0
H1131 H 0.43924 0.15035 0.36362 0.0
H1132 H 0.35224 0.05155 0.34345 0.0
H1133 H 0.38404 0.02234 0.38157 0.0
C1134 C 0.31155 0.13102 0.32501 0.0
C1135 C 0.32534 0.15932 0.30481 0.0
C1136 C 0.33351 0.11341 0.34031 0.0
C1137 C 0.36975 0.12322 0.33526 0.0
C1138 C 0.38385 0.15241 0.31584 0.0
C1139 C 0.36182 0.17047 0.30088 0.0
C1140 C 0.44604 0.10506 0.38726 0.0
C1141 C 0.43001 0.06943 0.39458 0.0
C1142 C 0.42737 0.12211 0.36622 0.0
C1143 C 0.39256 0.10368 0.35155 0.0
C1144 C 0.37845 0.0669 0.3555 0.0
C1145 C 0.39688 0.04998 0.37699 0.0
H1146 H 0.61535 0.79317 0.69649 0.0
H1147 H 0.70717 0.86269 0.6559 0.0
H1148 H 0.5789 0.82756 0.67197 0.0
H1149 H 0.67093 0.89585 0.63008 0.0
H1150 H 0.61067 0.96591 0.60042 0.0
H1151 H 0.64112 0.93671 0.63992 0.0
H1152 H 0.55252 0.83902 0.6206 0.0
H1153 H 0.52137 0.86865 0.58304 0.0
C1154 C 0.62752 0.81545 0.68183 0.0
C1155 C 0.66396 0.82526 0.67792 0.0
C1156 C 0.60675 0.83528 0.66789 0.0
C1157 C 0.62198 0.86494 0.64936 0.0
C1158 C 0.65838 0.87404 0.64506 0.0
C1159 C 0.67913 0.85468 0.65943 0.0
C1160 C 0.59722 0.93854 0.60547 0.0
C1161 C 0.56402 0.91939 0.58779 0.0
C1162 C 0.61488 0.92159 0.62778 0.0
C1163 C 0.59995 0.88503 0.63246 0.0
C1164 C 0.56509 0.86707 0.61759 0.0
C1165 C 0.54719 0.88417 0.5958 0.0
H1166 H 0.62369 0.15948 0.27513 0.0
H1167 H 0.653 0.06357 0.27286 0.0
H1168 H 0.57401 0.13047 0.30649 0.0
H1169 H 0.60374 0.03485 0.30453 0.0
H1170 H 0.52346 0.99061 0.37103 0.0
H1171 H 0.54102 0.01401 0.31694 0.0
H1172 H 0.58716 0.11951 0.36635 0.0
H1173 H 0.56918 0.09591 0.4199 0.0
C1174 C 0.61885 0.13184 0.2804 0.0
C1175 C 0.64291 0.1141 0.27275 0.0
C1176 C 0.59036 0.11528 0.29823 0.0
C1177 C 0.58565 0.08084 0.30863 0.0
C1178 C 0.60673 0.06148 0.29686 0.0
C1179 C 0.63519 0.07803 0.27892 0.0
C1180 C 0.53639 0.01894 0.36974 0.0
C1181 C 0.54559 0.04171 0.39904 0.0
C1182 C 0.5463 0.03228 0.339 0.0
C1183 C 0.56558 0.06845 0.33751 0.0
C1184 C 0.5719 0.09159 0.36658 0.0
C1185 C 0.56205 0.07819 0.39727 0.0
H1186 H 0.88654 0.74205 0.35289 0.0
H1187 H 0.83805 0.6525 0.28046 0.0
H1188 H 0.91659 0.70668 0.38543 0.0
H1189 H 0.86922 0.61782 0.31182 0.0
H1190 H 0.88701 0.55374 0.40141 0.0
H1191 H 0.86508 0.58902 0.36213 0.0
H1192 H 0.96132 0.67809 0.38852 0.0
H1193 H 0.98286 0.64288 0.42927 0.0
C1194 C 0.88259 0.71493 0.34379 0.0
C1195 C 0.8595 0.69986 0.31448 0.0
C1196 C 0.90011 0.69476 0.3622 0.0
C1197 C 0.89528 0.65927 0.35135 0.0
C1198 C 0.87303 0.64474 0.32137 0.0
C1199 C 0.85513 0.66466 0.30335 0.0
C1200 C 0.90391 0.58064 0.39853 0.0
C1201 C 0.93646 0.59565 0.419 0.0
C1202 C 0.89133 0.60093 0.37574 0.0
C1203 C 0.91116 0.63667 0.37242 0.0
C1204 C 0.94497 0.65092 0.39105 0.0
C1205 C 0.9575 0.63061 0.41414 0.0
H1206 H 0.27486 0.82839 0.29704 0.0
H1207 H 0.31472 0.75057 0.34523 0.0
H1208 H 0.29451 0.8677 0.34778 0.0
H1209 H 0.33755 0.79124 0.39503 0.0
H1210 H 0.39727 0.94432 0.40963 0.0
H1211 H 0.34948 0.90493 0.37078 0.0
H1212 H 0.33249 0.82357 0.44292 0.0
H1213 H 0.38218 0.86268 0.48084 0.0
C1214 C 0.28748 0.81946 0.3187 0.0
C1215 C 0.29299 0.78619 0.31724 0.0
C1216 C 0.29909 0.84225 0.34776 0.0
C1217 C 0.31804 0.83306 0.37559 0.0
C1218 C 0.32251 0.79919 0.37447 0.0
C1219 C 0.30995 0.77595 0.34567 0.0
C1220 C 0.38237 0.91855 0.41768 0.0
C1221 C 0.39394 0.906 0.44761 0.0
C1222 C 0.3548 0.89575 0.39537 0.0
C1223 C 0.338 0.86033 0.40306 0.0
C1224 C 0.34591 0.85007 0.43553 0.0
C1225 C 0.37405 0.87257 0.45746 0.0
H1226 H 0.21467 0.37974 0.31578 0.0
H1227 H 0.14285 0.28172 0.34578 0.0
H1228 H 0.1893 0.41367 0.35304 0.0
H1229 H 0.11819 0.31514 0.3828 0.0
H1230 H 0.04508 0.37862 0.39673 0.0
H1231 H 0.07981 0.35232 0.36424 0.0
H1232 H 0.17719 0.42521 0.4159 0.0
H1233 H 0.14213 0.45223 0.44885 0.0
C1234 C 0.19423 0.36552 0.33098 0.0
C1235 C 0.18027 0.32818 0.32757 0.0
C1236 C 0.17972 0.38487 0.35219 0.0
C1237 C 0.15124 0.36697 0.37014 0.0
C1238 C 0.1395 0.32964 0.36861 0.0
C1239 C 0.15373 0.31051 0.34751 0.0
C1240 C 0.07387 0.3893 0.4013 0.0
C1241 C 0.09076 0.41719 0.42589 0.0
C1242 C 0.09378 0.3741 0.38266 0.0
C1243 C 0.13117 0.38623 0.38807 0.0
C1244 C 0.14837 0.41527 0.41139 0.0
C1245 C 0.12829 0.43063 0.43024 0.0
H1246 H 0.27014 0.12208 0.64863 0.0
H1247 H 0.36458 0.2144 0.66366 0.0
H1248 H 0.29546 0.09778 0.60431 0.0
H1249 H 0.39122 0.18924 0.62111 0.0
H1250 H 0.42535 0.14572 0.53004 0.0
H1251 H 0.39304 0.17343 0.56495 0.0
H1252 H 0.33843 0.07051 0.60037 0.0
H1253 H 0.36898 0.04293 0.56396 0.0
C1254 C 0.29638 0.1371 0.64235 0.0
C1255 C 0.31556 0.16994 0.65948 0.0
C1256 C 0.31107 0.12311 0.61718 0.0
C1257 C 0.34568 0.14122 0.60935 0.0
C1258 C 0.36434 0.1747 0.62597 0.0
C1259 C 0.34921 0.1891 0.65053 0.0
C1260 C 0.40608 0.12913 0.54506 0.0
C1261 C 0.39953 0.09224 0.54429 0.0
C1262 C 0.38772 0.14497 0.56524 0.0
C1263 C 0.36309 0.1243 0.58564 0.0
C1264 C 0.35647 0.08728 0.58448 0.0
C1265 C 0.37418 0.07141 0.56375 0.0
H1266 H 0.9047 0.30015 0.70389 0.0
H1267 H 0.799 0.29732 0.66333 0.0
H1268 H 0.93047 0.34438 0.66427 0.0
H1269 H 0.82454 0.34032 0.62337 0.0
H1270 H 0.87843 0.4454 0.58459 0.0
H1271 H 0.85765 0.40245 0.62597 0.0
H1272 H 0.93557 0.35226 0.60395 0.0
H1273 H 0.95725 0.39638 0.56297 0.0
C1274 C 0.88702 0.30888 0.68649 0.0
C1275 C 0.84988 0.29567 0.68697 0.0
C1276 C 0.90175 0.33396 0.6637 0.0
C1277 C 0.87952 0.34605 0.64104 0.0
C1278 C 0.84239 0.33213 0.64109 0.0
C1279 C 0.82774 0.30737 0.66391 0.0
C1280 C 0.89118 0.42523 0.58853 0.0
C1281 C 0.91916 0.42389 0.57026 0.0
C1282 C 0.87919 0.40055 0.61217 0.0
C1283 C 0.89456 0.37364 0.61774 0.0
C1284 C 0.92331 0.37283 0.60022 0.0
C1285 C 0.93564 0.39794 0.57671 0.0
H1286 H 0.16341 0.68107 0.70393 0.0
H1287 H 0.25483 0.66962 0.66101 0.0
H1288 H 0.12489 0.62807 0.67032 0.0
H1289 H 0.21586 0.61727 0.62586 0.0
H1290 H 0.11215 0.60734 0.53785 0.0
H1291 H 0.16387 0.63257 0.58008 0.0
H1292 H 0.11431 0.55591 0.64962 0.0
H1293 H 0.06329 0.5295 0.6066 0.0
C1294 C 0.17534 0.66617 0.68833 0.0
C1295 C 0.21193 0.67871 0.68533 0.0
C1296 C 0.15341 0.63587 0.66921 0.0
C1297 C 0.16758 0.61871 0.64567 0.0
C1298 C 0.20456 0.6299 0.6442 0.0
C1299 C 0.22672 0.6597 0.6642 0.0
C1300 C 0.11313 0.59505 0.56164 0.0
C1301 C 0.08406 0.56678 0.56928 0.0
C1302 C 0.1427 0.6092 0.58565 0.0
C1303 C 0.14292 0.596 0.61792 0.0
C1304 C 0.11482 0.56614 0.62474 0.0
C1305 C 0.08574 0.55123 0.60028 0.0
loop_
_geom_bond_atom_site_label_1
_geom_bond_atom_site_label_2
_geom_bond_distance
_geom_bond_site_symmetry_2
_ccdc_geom_bond_type
Zn0 O6 1.969 . S
Zn0 O7 1.965 . S
Zn0 O11 2.024 . S
Zn0 O16 1.969 . S
Zn1 O8 1.969 . S
Zn1 O14 1.969 . S
Zn1 O15 1.965 . S
Zn1 O17 2.024 . S
C2 O3 1.229 . S
C2 O11 1.058 . S
O3 C2 1.229 . S
C4 O5 1.229 . S
C4 O17 1.058 . S
O5 C4 1.229 . S
O6 Zn0 1.969 . S
O6 C9 1.267 . S
O7 Zn0 1.965 . S
O7 C18 1.260 . S
O8 Zn1 1.969 . S
O8 C18 1.258 . S
C9 O6 1.267 . S
C9 O10 1.228 . S
O10 C9 1.228 . S
O11 Zn0 2.024 . S
O11 C2 1.058 . S
C12 O13 1.228 . S
C12 O14 1.267 . S
O13 C12 1.228 . S
O14 Zn1 1.969 . S
O14 C12 1.267 . S
O15 Zn1 1.965 . S
O15 C19 1.260 . S
O16 Zn0 1.969 . S
O16 C19 1.258 . S
O17 Zn1 2.024 . S
O17 C4 1.058 . S
C18 O7 1.260 . S
C18 O8 1.258 . S
C19 O15 1.260 . S
C19 O16 1.258 . S
Zn20 O26 1.969 . S
Zn20 O27 1.965 . S
Zn20 O31 2.024 . S
Zn20 O36 1.969 . S
Zn21 O28 1.969 . S
Zn21 O34 1.969 . S
Zn21 O35 1.965 . S
Zn21 O37 2.024 . S
C22 O23 1.229 . S
C22 O31 1.058 . S
O23 C22 1.229 . S
C24 O25 1.229 . S
C24 O37 1.058 . S
O25 C24 1.229 . S
O26 Zn20 1.969 . S
O26 C29 1.267 . S
O27 Zn20 1.965 . S
O27 C38 1.260 . S
O28 Zn21 1.969 . S
O28 C38 1.258 . S
C29 O26 1.267 . S
C29 O30 1.228 . S
O30 C29 1.228 . S
O31 Zn20 2.024 . S
O31 C22 1.058 . S
C32 O33 1.228 . S
C32 O34 1.267 . S
O33 C32 1.228 . S
O34 Zn21 1.969 . S
O34 C32 1.267 . S
O35 Zn21 1.965 . S
O35 C39 1.260 . S
O36 Zn20 1.969 . S
O36 C39 1.258 . S
O37 Zn21 2.024 . S
O37 C24 1.058 . S
C38 O27 1.260 . S
C38 O28 1.258 . S
C39 O35 1.260 . S
C39 O36 1.258 . S
Zn40 O46 1.969 . S
Zn40 O47 1.965 . S
Zn40 O51 2.024 . S
Zn40 O56 1.969 . S
Zn41 O48 1.969 . S
Zn41 O54 1.969 . S
Zn41 O55 1.965 . S
Zn41 O57 2.024 . S
C42 O43 1.229 . S
C42 O51 1.058 . S
O43 C42 1.229 . S
C44 O45 1.229 . S
C44 O57 1.058 . S
O45 C44 1.229 . S
O46 Zn40 1.969 . S
O46 C49 1.267 . S
O47 Zn40 1.965 . S
O47 C58 1.260 . S
O48 Zn41 1.969 . S
O48 C58 1.258 . S
C49 O46 1.267 . S
C49 O50 1.228 . S
O50 C49 1.228 . S
O51 Zn40 2.024 . S
O51 C42 1.058 . S
C52 O53 1.228 . S
C52 O54 1.267 . S
O53 C52 1.228 . S
O54 Zn41 1.969 . S
O54 C52 1.267 . S
O55 Zn41 1.965 . S
O55 C59 1.260 . S
O56 Zn40 1.969 . S
O56 C59 1.258 . S
O57 Zn41 2.024 . S
O57 C44 1.058 . S
C58 O47 1.260 . S
C58 O48 1.258 . S
C59 O55 1.260 . S
C59 O56 1.258 . S
Zn60 O66 1.969 . S
Zn60 O67 1.965 . S
Zn60 O71 2.024 . S
Zn60 O76 1.969 . S
Zn61 O68 1.969 . S
Zn61 O74 1.969 . S
Zn61 O75 1.965 . S
Zn61 O77 2.024 . S
C62 O63 1.229 . S
C62 O71 1.058 . S
O63 C62 1.229 . S
C64 O65 1.229 . S
C64 O77 1.058 . S
O65 C64 1.229 . S
O66 Zn60 1.969 . S
O66 C69 1.267 . S
O67 Zn60 1.965 . S
O67 C78 1.260 . S
O68 Zn61 1.969 . S
O68 C78 1.258 . S
C69 O66 1.267 . S
C69 O70 1.228 . S
O70 C69 1.228 . S
O71 Zn60 2.024 . S
O71 C62 1.058 . S
C72 O73 1.228 . S
C72 O74 1.267 . S
O73 C72 1.228 . S
O74 Zn61 1.969 . S
O74 C72 1.267 . S
O75 Zn61 1.965 . S
O75 C79 1.260 . S
O76 Zn60 1.969 . S
O76 C79 1.258 . S
O77 Zn61 2.024 . S
O77 C64 1.058 . S
C78 O67 1.260 . S
C78 O68 1.258 . S
C79 O75 1.260 . S
C79 O76 1.258 . S
Zn80 O86 1.969 . S
Zn80 O87 1.965 . S
Zn80 O91 2.024 . S
Zn80 O96 1.969 . S
Zn81 O88 1.969 . S
Zn81 O94 1.969 . S
Zn81 O95 1.965 . S
Zn81 O97 2.024 . S
C82 O83 1.229 . S
C82 O91 1.058 . S
O83 C82 1.229 . S
C84 O85 1.229 . S
C84 O97 1.058 . S
O85 C84 1.229 . S
O86 Zn80 1.969 . S
O86 C89 1.267 . S
O87 Zn80 1.965 . S
O87 C98 1.260 . S
O88 Zn81 1.969 . S
O88 C98 1.258 . S
C89 O86 1.267 . S
C89 O90 1.228 . S
O90 C89 1.228 . S
O91 Zn80 2.024 . S
O91 C82 1.058 . S
C92 O93 1.228 . S
C92 O94 1.267 . S
O93 C92 1.228 . S
O94 Zn81 1.969 . S
O94 C92 1.267 . S
O95 Zn81 1.965 . S
O95 C99 1.260 . S
O96 Zn80 1.969 . S
O96 C99 1.258 . S
O97 Zn81 2.024 . S
O97 C84 1.058 . S
C98 O87 1.260 . S
C98 O88 1.258 . S
C99 O95 1.260 . S
C99 O96 1.258 . S
Zn100 O106 1.969 . S
Zn100 O107 1.965 . S
Zn100 O111 2.024 . S
Zn100 O116 1.969 . S
Zn101 O108 1.969 . S
Zn101 O114 1.969 . S
Zn101 O115 1.965 . S
Zn101 O117 2.024 . S
C102 O103 1.229 . S
C102 O111 1.058 . S
O103 C102 1.229 . S
C104 O105 1.229 . S
C104 O117 1.058 . S
O105 C104 1.229 . S
O106 Zn100 1.969 . S
O106 C109 1.267 . S
O107 Zn100 1.965 . S
O107 C118 1.260 . S
O108 Zn101 1.969 . S
O108 C118 1.258 . S
C109 O106 1.267 . S
C109 O110 1.228 . S
O110 C109 1.228 . S
O111 Zn100 2.024 . S
O111 C102 1.058 . S
C112 O113 1.228 . S
C112 O114 1.267 . S
O113 C112 1.228 . S
O114 Zn101 1.969 . S
O114 C112 1.267 . S
O115 Zn101 1.965 . S
O115 C119 1.260 . S
O116 Zn100 1.969 . S
O116 C119 1.258 . S
O117 Zn101 2.024 . S
O117 C104 1.058 . S
C118 O107 1.260 . S
C118 O108 1.258 . S
C119 O115 1.260 . S
C119 O116 1.258 . S
Zn120 O126 1.969 . S
Zn120 O127 1.965 . S
Zn120 O131 2.024 . S
Zn120 O136 1.969 . S
Zn121 O128 1.969 . S
Zn121 O134 1.969 . S
Zn121 O135 1.965 . S
Zn121 O137 2.024 . S
C122 O123 1.229 . S
C122 O131 1.058 . S
O123 C122 1.229 . S
C124 O125 1.229 . S
C124 O137 1.058 . S
O125 C124 1.229 . S
O126 Zn120 1.969 . S
O126 C129 1.267 . S
O127 Zn120 1.965 . S
O127 C138 1.260 . S
O128 Zn121 1.969 . S
O128 C138 1.258 . S
C129 O126 1.267 . S
C129 O130 1.228 . S
O130 C129 1.228 . S
O131 Zn120 2.024 . S
O131 C122 1.058 . S
C132 O133 1.228 . S
C132 O134 1.267 . S
O133 C132 1.228 . S
O134 Zn121 1.969 . S
O134 C132 1.267 . S
O135 Zn121 1.965 . S
O135 C139 1.260 . S
O136 Zn120 1.969 . S
O136 C139 1.258 . S
O137 Zn121 2.024 . S
O137 C124 1.058 . S
C138 O127 1.260 . S
C138 O128 1.258 . S
C139 O135 1.260 . S
C139 O136 1.258 . S
Zn140 O146 1.969 . S
Zn140 O147 1.965 . S
Zn140 O151 2.024 . S
Zn140 O156 1.969 . S
Zn141 O148 1.969 . S
Zn141 O154 1.969 . S
Zn141 O155 1.965 . S
Zn141 O157 2.024 . S
C142 O143 1.229 . S
C142 O151 1.058 . S
O143 C142 1.229 . S
C144 O145 1.229 . S
C144 O157 1.058 . S
O145 C144 1.229 . S
O146 Zn140 1.969 . S
O146 C149 1.267 . S
O147 Zn140 1.965 . S
O147 C158 1.260 . S
O148 Zn141 1.969 . S
O148 C158 1.258 . S
C149 O146 1.267 . S
C149 O150 1.228 . S
O150 C149 1.228 . S
O151 Zn140 2.024 . S
O151 C142 1.058 . S
C152 O153 1.228 . S
C152 O154 1.267 . S
O153 C152 1.228 . S
O154 Zn141 1.969 . S
O154 C152 1.267 . S
O155 Zn141 1.965 . S
O155 C159 1.260 . S
O156 Zn140 1.969 . S
O156 C159 1.258 . S
O157 Zn141 2.024 . S
O157 C144 1.058 . S
C158 O147 1.260 . S
C158 O148 1.258 . S
C159 O155 1.260 . S
C159 O156 1.258 . S
C160 O172 1.241 . S
C160 O173 1.280 . S
C161 O174 1.277 . S
C161 O175 1.245 . S
C162 O186 1.247 . S
C162 O188 1.289 . S
Mg163 O164 1.926 . S
Mg163 O173 1.984 . S
Mg163 O175 1.988 . S
Mg163 O176 2.061 1_655 S
O164 Mg163 1.926 . S
O164 Mg165 1.986 . S
O164 Mg166 1.917 1_655 S
Mg165 O164 1.986 . S
Mg165 O172 2.042 . S
Mg165 O174 2.041 . S
Mg165 O180 2.038 1_545 S
Mg165 O188 2.238 1_545 S
Mg166 O164 1.917 1_455 S
Mg166 O167 1.917 1_545 S
Mg166 O177 2.106 . S
Mg166 O179 2.079 1_445 S
Mg166 O188 2.106 1_445 S
Mg166 O189 2.079 . S
O167 Mg166 1.917 1_565 S
O167 Mg168 1.926 . S
O167 Mg169 1.986 . S
Mg168 O167 1.926 . S
Mg168 O182 1.984 . S
Mg168 O185 1.988 . S
Mg168 O186 2.061 1_455 S
Mg169 O167 1.986 . S
Mg169 O177 2.238 1_565 S
Mg169 O181 2.042 . S
Mg169 O183 2.041 . S
Mg169 O190 2.038 1_565 S
C170 O176 1.247 . S
C170 O177 1.289 . S
C171 O189 1.245 . S
C171 O190 1.274 . S
O172 C160 1.241 . S
O172 Mg165 2.042 . S
O173 C160 1.280 . S
O173 Mg163 1.984 . S
O174 C161 1.277 . S
O174 Mg165 2.041 . S
O175 C161 1.245 . S
O175 Mg163 1.988 . S
O176 Mg163 2.061 1_455 S
O176 C170 1.247 . S
O177 Mg166 2.106 . S
O177 Mg169 2.238 1_545 S
O177 C170 1.289 . S
C178 O179 1.245 . S
C178 O180 1.274 . S
O179 Mg166 2.079 1_665 S
O179 C178 1.245 . S
O180 Mg165 2.038 1_565 S
O180 C178 1.274 . S
O181 Mg169 2.042 . S
O181 C184 1.241 . S
O182 Mg168 1.984 . S
O182 C184 1.280 . S
O183 Mg169 2.041 . S
O183 C187 1.277 . S
C184 O181 1.241 . S
C184 O182 1.280 . S
O185 Mg168 1.988 . S
O185 C187 1.245 . S
O186 C162 1.247 . S
O186 Mg168 2.061 1_655 S
C187 O183 1.277 . S
C187 O185 1.245 . S
O188 C162 1.289 . S
O188 Mg165 2.238 1_565 S
O188 Mg166 2.106 1_665 S
O189 Mg166 2.079 . S
O189 C171 1.245 . S
O190 Mg169 2.038 1_545 S
O190 C171 1.274 . S
C191 O203 1.241 . S
C191 O204 1.280 . S
C192 O205 1.277 . S
C192 O206 1.245 . S
C193 O217 1.247 . S
C193 O219 1.289 . S
Mg194 O195 1.926 . S
Mg194 O204 1.984 . S
Mg194 O206 1.988 1_554 S
Mg194 O207 2.061 . S
O195 Mg194 1.926 . S
O195 Mg196 1.986 1_554 S
O195 Mg197 1.917 . S
Mg196 O195 1.986 1_556 S
Mg196 O203 2.042 1_556 S
Mg196 O205 2.041 . S
Mg196 O211 2.038 1_546 S
Mg196 O219 2.238 1_545 S
Mg197 O195 1.917 . S
Mg197 O198 1.917 1_544 S
Mg197 O208 2.107 . S
Mg197 O210 2.079 1_545 S
Mg197 O219 2.106 1_544 S
Mg197 O220 2.078 1_554 S
O198 Mg197 1.917 1_566 S
O198 Mg199 1.926 . S
O198 Mg200 1.986 1_556 S
Mg199 O198 1.926 . S
Mg199 O213 1.984 . S
Mg199 O216 1.988 1_556 S
Mg199 O217 2.061 . S
Mg200 O198 1.986 1_554 S
Mg200 O208 2.238 1_565 S
Mg200 O212 2.042 1_554 S
Mg200 O214 2.041 . S
Mg200 O221 2.038 1_564 S
C201 O207 1.247 . S
C201 O208 1.289 . S
C202 O220 1.245 . S
C202 O221 1.274 . S
O203 C191 1.241 . S
O203 Mg196 2.042 1_554 S
O204 C191 1.280 . S
O204 Mg194 1.984 . S
O205 C192 1.277 . S
O205 Mg196 2.041 . S
O206 C192 1.245 . S
O206 Mg194 1.988 1_556 S
O207 Mg194 2.061 . S
O207 C201 1.247 . S
O208 Mg197 2.107 . S
O208 Mg200 2.238 1_545 S
O208 C201 1.289 . S
C209 O210 1.245 . S
C209 O211 1.274 . S
O210 Mg197 2.079 1_565 S
O210 C209 1.245 . S
O211 Mg196 2.038 1_564 S
O211 C209 1.274 . S
O212 Mg200 2.042 1_556 S
O212 C215 1.241 . S
O213 Mg199 1.984 . S
O213 C215 1.280 . S
O214 Mg200 2.041 . S
O214 C218 1.277 . S
C215 O212 1.241 . S
C215 O213 1.280 . S
O216 Mg199 1.988 1_554 S
O216 C218 1.245 . S
O217 C193 1.247 . S
O217 Mg199 2.061 . S
C218 O214 1.277 . S
C218 O216 1.245 . S
O219 C193 1.289 . S
O219 Mg196 2.238 1_565 S
O219 Mg197 2.106 1_566 S
O220 Mg197 2.078 1_556 S
O220 C202 1.245 . S
O221 Mg200 2.038 1_546 S
O221 C202 1.274 . S
C222 O234 1.241 . S
C222 O235 1.280 . S
C223 O236 1.277 . S
C223 O237 1.245 . S
C224 O248 1.247 . S
C224 O250 1.289 . S
Mg225 O226 1.926 . S
Mg225 O235 1.984 . S
Mg225 O237 1.988 1_554 S
Mg225 O238 2.061 1_655 S
O226 Mg225 1.926 . S
O226 Mg227 1.986 1_554 S
O226 Mg228 1.917 1_655 S
Mg227 O226 1.986 1_556 S
Mg227 O234 2.042 1_556 S
Mg227 O236 2.041 . S
Mg227 O242 2.038 1_556 S
Mg227 O250 2.238 . S
Mg228 O226 1.917 1_455 S
Mg228 O229 1.917 1_554 S
Mg228 O239 2.107 . S
Mg228 O241 2.079 1_455 S
Mg228 O250 2.106 1_454 S
Mg228 O251 2.078 1_554 S
O229 Mg228 1.917 1_556 S
O229 Mg230 1.926 . S
O229 Mg231 1.986 1_556 S
Mg230 O229 1.926 . S
Mg230 O244 1.984 . S
Mg230 O247 1.988 1_556 S
Mg230 O248 2.061 1_455 S
Mg231 O229 1.986 1_554 S
Mg231 O239 2.238 . S
Mg231 O243 2.042 1_554 S
Mg231 O245 2.041 . S
Mg231 O252 2.038 1_554 S
C232 O238 1.247 . S
C232 O239 1.289 . S
C233 O251 1.245 . S
C233 O252 1.274 . S
O234 C222 1.241 . S
O234 Mg227 2.042 1_554 S
O235 C222 1.280 . S
O235 Mg225 1.984 . S
O236 C223 1.277 . S
O236 Mg227 2.041 . S
O237 C223 1.245 . S
O237 Mg225 1.988 1_556 S
O238 Mg225 2.061 1_455 S
O238 C232 1.247 . S
O239 Mg228 2.107 . S
O239 Mg231 2.238 . S
O239 C232 1.289 . S
C240 O241 1.245 . S
C240 O242 1.274 . S
O241 Mg228 2.079 1_655 S
O241 C240 1.245 . S
O242 Mg227 2.038 1_554 S
O242 C240 1.274 . S
O243 Mg231 2.042 1_556 S
O243 C246 1.241 . S
O244 Mg230 1.984 . S
O244 C246 1.280 . S
O245 Mg231 2.041 . S
O245 C249 1.277 . S
C246 O243 1.241 . S
C246 O244 1.280 . S
O247 Mg230 1.988 1_554 S
O247 C249 1.245 . S
O248 C224 1.247 . S
O248 Mg230 2.061 1_655 S
C249 O245 1.277 . S
C249 O247 1.245 . S
O250 C224 1.289 . S
O250 Mg227 2.238 . S
O250 Mg228 2.106 1_656 S
O251 Mg228 2.078 1_556 S
O251 C233 1.245 . S
O252 Mg231 2.038 1_556 S
O252 C233 1.274 . S
C253 O265 1.241 . S
C253 O266 1.280 . S
C254 O267 1.277 . S
C254 O268 1.245 . S
C255 O279 1.247 . S
C255 O281 1.289 . S
Mg256 O257 1.926 . S
Mg256 O266 1.984 . S
Mg256 O268 1.988 1_554 S
Mg256 O269 2.061 . S
O257 Mg256 1.926 . S
O257 Mg258 1.986 1_554 S
O257 Mg259 1.917 . S
Mg258 O257 1.986 1_556 S
Mg258 O265 2.042 1_556 S
Mg258 O267 2.041 . S
Mg258 O273 2.038 1_556 S
Mg258 O281 2.238 . S
Mg259 O257 1.917 . S
Mg259 O260 1.917 1_554 S
Mg259 O270 2.107 . S
Mg259 O272 2.079 . S
Mg259 O281 2.106 1_554 S
Mg259 O282 2.078 1_554 S
O260 Mg259 1.917 1_556 S
O260 Mg261 1.926 . S
O260 Mg262 1.986 1_556 S
Mg261 O260 1.926 . S
Mg261 O275 1.984 . S
Mg261 O278 1.988 1_556 S
Mg261 O279 2.061 . S
Mg262 O260 1.986 1_554 S
Mg262 O270 2.238 . S
Mg262 O274 2.042 1_554 S
Mg262 O276 2.041 . S
Mg262 O283 2.038 1_554 S
C263 O269 1.247 . S
C263 O270 1.289 . S
C264 O282 1.245 . S
C264 O283 1.274 . S
O265 C253 1.241 . S
O265 Mg258 2.042 1_554 S
O266 C253 1.280 . S
O266 Mg256 1.984 . S
O267 C254 1.277 . S
O267 Mg258 2.041 . S
O268 C254 1.245 . S
O268 Mg256 1.988 1_556 S
O269 Mg256 2.061 . S
O269 C263 1.247 . S
O270 Mg259 2.107 . S
O270 Mg262 2.238 . S
O270 C263 1.289 . S
C271 O272 1.245 . S
C271 O273 1.274 . S
O272 Mg259 2.079 . S
O272 C271 1.245 . S
O273 Mg258 2.038 1_554 S
O273 C271 1.274 . S
O274 Mg262 2.042 1_556 S
O274 C277 1.241 . S
O275 Mg261 1.984 . S
O275 C277 1.280 . S
O276 Mg262 2.041 . S
O276 C280 1.277 . S
C277 O274 1.241 . S
C277 O275 1.280 . S
O278 Mg261 1.988 1_554 S
O278 C280 1.245 . S
O279 C255 1.247 . S
O279 Mg261 2.061 . S
C280 O276 1.277 . S
C280 O278 1.245 . S
O281 C255 1.289 . S
O281 Mg258 2.238 . S
O281 Mg259 2.106 1_556 S
O282 Mg259 2.078 1_556 S
O282 C264 1.245 . S
O283 Mg262 2.038 1_556 S
O283 C264 1.274 . S
C284 O296 1.241 . S
C284 O297 1.280 . S
C285 O298 1.277 . S
C285 O299 1.245 . S
C286 O310 1.247 . S
C286 O312 1.289 . S
Mg287 O288 1.926 . S
Mg287 O297 1.984 . S
Mg287 O299 1.988 . S
Mg287 O300 2.061 1_655 S
O288 Mg287 1.926 . S
O288 Mg289 1.986 . S
O288 Mg290 1.917 1_655 S
Mg289 O288 1.986 . S
Mg289 O296 2.042 . S
Mg289 O298 2.041 . S
Mg289 O304 2.038 . S
Mg289 O312 2.238 . S
Mg290 O288 1.917 1_455 S
Mg290 O291 1.917 . S
Mg290 O301 2.106 . S
Mg290 O303 2.079 1_455 S
Mg290 O312 2.106 1_455 S
Mg290 O313 2.079 . S
O291 Mg290 1.917 . S
O291 Mg292 1.926 . S
O291 Mg293 1.986 . S
Mg292 O291 1.926 . S
Mg292 O306 1.984 . S
Mg292 O309 1.988 . S
Mg292 O310 2.061 1_455 S
Mg293 O291 1.986 . S
Mg293 O301 2.238 . S
Mg293 O305 2.042 . S
Mg293 O307 2.041 . S
Mg293 O314 2.038 . S
C294 O300 1.247 . S
C294 O301 1.289 . S
C295 O313 1.245 . S
C295 O314 1.274 . S
O296 C284 1.241 . S
O296 Mg289 2.042 . S
O297 C284 1.280 . S
O297 Mg287 1.984 . S
O298 C285 1.277 . S
O298 Mg289 2.041 . S
O299 C285 1.245 . S
O299 Mg287 1.988 . S
O300 Mg287 2.061 1_455 S
O300 C294 1.247 . S
O301 Mg290 2.106 . S
O301 Mg293 2.238 . S
O301 C294 1.289 . S
C302 O303 1.245 . S
C302 O304 1.274 . S
O303 Mg290 2.079 1_655 S
O303 C302 1.245 . S
O304 Mg289 2.038 . S
O304 C302 1.274 . S
O305 Mg293 2.042 . S
O305 C308 1.241 . S
O306 Mg292 1.984 . S
O306 C308 1.280 . S
O307 Mg293 2.041 . S
O307 C311 1.277 . S
C308 O305 1.241 . S
C308 O306 1.280 . S
O309 Mg292 1.988 . S
O309 C311 1.245 . S
O310 C286 1.247 . S
O310 Mg292 2.061 1_655 S
C311 O307 1.277 . S
C311 O309 1.245 . S
O312 C286 1.289 . S
O312 Mg289 2.238 . S
O312 Mg290 2.106 1_655 S
O313 Mg290 2.079 . S
O313 C295 1.245 . S
O314 Mg293 2.038 . S
O314 C295 1.274 . S
C315 O327 1.241 . S
C315 O328 1.280 . S
C316 O329 1.277 . S
C316 O330 1.245 . S
C317 O341 1.247 . S
C317 O343 1.289 . S
Mg318 O319 1.926 . S
Mg318 O328 1.984 . S
Mg318 O330 1.988 . S
Mg318 O331 2.061 . S
O319 Mg318 1.926 . S
O319 Mg320 1.986 . S
O319 Mg321 1.917 . S
Mg320 O319 1.986 . S
Mg320 O327 2.042 . S
Mg320 O329 2.041 . S
Mg320 O335 2.038 1_545 S
Mg320 O343 2.238 1_545 S
Mg321 O319 1.917 . S
Mg321 O322 1.917 1_545 S
Mg321 O332 2.106 . S
Mg321 O334 2.079 1_545 S
Mg321 O343 2.106 1_545 S
Mg321 O344 2.079 . S
O322 Mg321 1.917 1_565 S
O322 Mg323 1.926 . S
O322 Mg324 1.986 . S
Mg323 O322 1.926 . S
Mg323 O337 1.984 . S
Mg323 O340 1.988 . S
Mg323 O341 2.061 . S
Mg324 O322 1.986 . S
Mg324 O332 2.238 1_565 S
Mg324 O336 2.042 . S
Mg324 O338 2.041 . S
Mg324 O345 2.038 1_565 S
C325 O331 1.247 . S
C325 O332 1.289 . S
C326 O344 1.245 . S
C326 O345 1.274 . S
O327 C315 1.241 . S
O327 Mg320 2.042 . S
O328 C315 1.280 . S
O328 Mg318 1.984 . S
O329 C316 1.277 . S
O329 Mg320 2.041 . S
O330 C316 1.245 . S
O330 Mg318 1.988 . S
O331 Mg318 2.061 . S
O331 C325 1.247 . S
O332 Mg321 2.106 . S
O332 Mg324 2.238 1_545 S
O332 C325 1.289 . S
C333 O334 1.245 . S
C333 O335 1.274 . S
O334 Mg321 2.079 1_565 S
O334 C333 1.245 . S
O335 Mg320 2.038 1_565 S
O335 C333 1.274 . S
O336 Mg324 2.042 . S
O336 C339 1.241 . S
O337 Mg323 1.984 . S
O337 C339 1.280 . S
O338 Mg324 2.041 . S
O338 C342 1.277 . S
C339 O336 1.241 . S
C339 O337 1.280 . S
O340 Mg323 1.988 . S
O340 C342 1.245 . S
O341 C317 1.247 . S
O341 Mg323 2.061 . S
C342 O338 1.277 . S
C342 O340 1.245 . S
O343 C317 1.289 . S
O343 Mg320 2.238 1_565 S
O343 Mg321 2.106 1_565 S
O344 Mg321 2.079 . S
O344 C326 1.245 . S
O345 Mg324 2.038 1_545 S
O345 C326 1.274 . S
H346 C354 0.950 . S
H347 C359 0.950 . S
H348 C356 0.950 . S
H349 C358 0.950 . S
H350 C360 0.950 . S
H351 C362 0.950 . S
H352 C364 0.950 . S
H353 C365 0.950 . S
C354 H346 0.950 . S
C354 C355 1.386 . S
C354 C356 1.391 . S
C355 C354 1.386 . S
C355 C359 1.393 . S
C356 H348 0.950 . S
C356 C354 1.391 . S
C356 C357 1.400 . S
C357 C356 1.400 . S
C357 C358 1.398 . S
C357 C363 1.491 . S
C358 H349 0.950 . S
C358 C357 1.398 . S
C358 C359 1.391 . S
C359 H347 0.950 . S
C359 C355 1.393 . S
C359 C358 1.391 . S
C360 H350 0.950 . S
C360 C361 1.386 . S
C360 C362 1.391 . S
C361 C360 1.386 . S
C361 C365 1.393 . S
C362 H351 0.950 . S
C362 C360 1.391 . S
C362 C363 1.400 . S
C363 C357 1.491 . S
C363 C362 1.400 . S
C363 C364 1.398 . S
C364 H352 0.950 . S
C364 C363 1.398 . S
C364 C365 1.391 . S
C365 H353 0.950 . S
C365 C361 1.393 . S
C365 C364 1.391 . S
H366 C374 0.950 . S
H367 C379 0.950 . S
H368 C376 0.950 . S
H369 C378 0.950 . S
H370 C380 0.950 . S
H371 C382 0.950 . S
H372 C384 0.950 . S
H373 C385 0.950 . S
C374 H366 0.950 . S
C374 C375 1.386 . S
C374 C376 1.391 . S
C375 C374 1.386 . S
C375 C379 1.393 . S
C376 H368 0.950 . S
C376 C374 1.391 . S
C376 C377 1.400 . S
C377 C376 1.400 . S
C377 C378 1.398 . S
C377 C383 1.491 . S
C378 H369 0.950 . S
C378 C377 1.398 . S
C378 C379 1.391 . S
C379 H367 0.950 . S
C379 C375 1.393 . S
C379 C378 1.391 . S
C380 H370 0.950 . S
C380 C381 1.386 . S
C380 C382 1.391 . S
C381 C380 1.386 . S
C381 C385 1.393 . S
C382 H371 0.950 . S
C382 C380 1.391 . S
C382 C383 1.400 . S
C383 C377 1.491 . S
C383 C382 1.400 . S
C383 C384 1.398 . S
C384 H372 0.950 . S
C384 C383 1.398 . S
C384 C385 1.391 . S
C385 H373 0.950 . S
C385 C381 1.393 . S
C385 C384 1.391 . S
H386 C394 0.950 . S
H387 C399 0.950 . S
H388 C396 0.950 . S
H389 C398 0.950 . S
H390 C400 0.950 . S
H391 C402 0.950 . S
H392 C404 0.950 . S
H393 C405 0.950 . S
C394 H386 0.950 . S
C394 C395 1.386 . S
C394 C396 1.391 . S
C395 C394 1.386 . S
C395 C399 1.393 . S
C396 H388 0.950 . S
C396 C394 1.391 . S
C396 C397 1.400 . S
C397 C396 1.400 . S
C397 C398 1.398 . S
C397 C403 1.491 . S
C398 H389 0.950 . S
C398 C397 1.398 . S
C398 C399 1.391 . S
C399 H387 0.950 . S
C399 C395 1.393 . S
C399 C398 1.391 . S
C400 H390 0.950 . S
C400 C401 1.386 . S
C400 C402 1.391 . S
C401 C400 1.386 . S
C401 C405 1.393 . S
C402 H391 0.950 . S
C402 C400 1.391 . S
C402 C403 1.400 . S
C403 C397 1.491 . S
C403 C402 1.400 . S
C403 C404 1.398 . S
C404 H392 0.950 . S
C404 C403 1.398 . S
C404 C405 1.391 . S
C405 H393 0.950 . S
C405 C401 1.393 . S
C405 C404 1.391 . S
H406 C414 0.950 . S
H407 C419 0.950 . S
H408 C416 0.950 . S
H409 C418 0.950 . S
H410 C420 0.950 . S
H411 C422 0.950 . S
H412 C424 0.950 . S
H413 C425 0.950 . S
C414 H406 0.950 . S
C414 C415 1.386 . S
C414 C416 1.391 . S
C415 C414 1.386 . S
C415 C419 1.393 . S
C416 H408 0.950 . S
C416 C414 1.391 . S
C416 C417 1.400 . S
C417 C416 1.400 . S
C417 C418 1.398 . S
C417 C423 1.491 . S
C418 H409 0.950 . S
C418 C417 1.398 . S
C418 C419 1.391 . S
C419 H407 0.950 . S
C419 C415 1.393 . S
C419 C418 1.391 . S
C420 H410 0.950 . S
C420 C421 1.386 . S
C420 C422 1.391 . S
C421 C420 1.386 . S
C421 C425 1.393 . S
C422 H411 0.950 . S
C422 C420 1.391 . S
C422 C423 1.400 . S
C423 C417 1.491 . S
C423 C422 1.400 . S
C423 C424 1.398 . S
C424 H412 0.950 . S
C424 C423 1.398 . S
C424 C425 1.391 . S
C425 H413 0.950 . S
C425 C421 1.393 . S
C425 C424 1.391 . S
H426 C434 0.950 . S
H427 C439 0.950 . S
H428 C436 0.950 . S
H429 C438 0.950 . S
H430 C440 0.950 . S
H431 C442 0.950 . S
H432 C444 0.950 . S
H433 C445 0.950 . S
C434 H426 0.950 . S
C434 C435 1.386 . S
C434 C436 1.391 . S
C435 C434 1.386 . S
C435 C439 1.393 . S
C436 H428 0.950 . S
C436 C434 1.391 . S
C436 C437 1.400 . S
C437 C436 1.400 . S
C437 C438 1.398 . S
C437 C443 1.491 . S
C438 H429 0.950 . S
C438 C437 1.398 . S
C438 C439 1.391 . S
C439 H427 0.950 . S
C439 C435 1.393 . S
C439 C438 1.391 . S
C440 H430 0.950 . S
C440 C441 1.386 . S
C440 C442 1.391 . S
C441 C440 1.386 . S
C441 C445 1.393 . S
C442 H431 0.950 . S
C442 C440 1.391 . S
C442 C443 1.400 . S
C443 C437 1.491 . S
C443 C442 1.400 . S
C443 C444 1.398 . S
C444 H432 0.950 . S
C444 C443 1.398 . S
C444 C445 1.391 . S
C445 H433 0.950 . S
C445 C441 1.393 . S
C445 C444 1.391 . S
H446 C454 0.950 . S
H447 C459 0.950 . S
H448 C456 0.950 . S
H449 C458 0.950 . S
H450 C460 0.950 . S
H451 C462 0.950 . S
H452 C464 0.950 . S
H453 C465 0.950 . S
C454 H446 0.950 . S
C454 C455 1.386 . S
C454 C456 1.391 . S
C455 C454 1.386 . S
C455 C459 1.393 . S
C456 H448 0.950 . S
C456 C454 1.391 . S
C456 C457 1.400 . S
C457 C456 1.400 . S
C457 C458 1.398 . S
C457 C463 1.491 . S
C458 H449 0.950 . S
C458 C457 1.398 . S
C458 C459 1.391 . S
C459 H447 0.950 . S
C459 C455 1.393 . S
C459 C458 1.391 . S
C460 H450 0.950 . S
C460 C461 1.386 . S
C460 C462 1.391 . S
C461 C460 1.386 . S
C461 C465 1.393 . S
C462 H451 0.950 . S
C462 C460 1.391 . S
C462 C463 1.400 . S
C463 C457 1.491 . S
C463 C462 1.400 . S
C463 C464 1.398 . S
C464 H452 0.950 . S
C464 C463 1.398 . S
C464 C465 1.391 . S
C465 H453 0.950 . S
C465 C461 1.393 . S
C465 C464 1.391 . S
H466 C474 0.950 . S
H467 C479 0.950 . S
H468 C476 0.950 . S
H469 C478 0.950 . S
H470 C480 0.950 . S
H471 C482 0.950 . S
H472 C484 0.950 . S
H473 C485 0.950 . S
C474 H466 0.950 . S
C474 C475 1.386 . S
C474 C476 1.391 . S
C475 C474 1.386 . S
C475 C479 1.393 . S
C476 H468 0.950 . S
C476 C474 1.391 . S
C476 C477 1.400 . S
C477 C476 1.400 . S
C477 C478 1.398 . S
C477 C483 1.491 . S
C478 H469 0.950 . S
C478 C477 1.398 . S
C478 C479 1.391 . S
C479 H467 0.950 . S
C479 C475 1.393 . S
C479 C478 1.391 . S
C480 H470 0.950 . S
C480 C481 1.386 . S
C480 C482 1.391 . S
C481 C480 1.386 . S
C481 C485 1.393 . S
C482 H471 0.950 . S
C482 C480 1.391 . S
C482 C483 1.400 . S
C483 C477 1.491 . S
C483 C482 1.400 . S
C483 C484 1.398 . S
C484 H472 0.950 . S
C484 C483 1.398 . S
C484 C485 1.391 . S
C485 H473 0.950 . S
C485 C481 1.393 . S
C485 C484 1.391 . S
H486 C494 0.950 . S
H487 C499 0.950 . S
H488 C496 0.950 . S
H489 C498 0.950 . S
H490 C500 0.950 . S
H491 C502 0.950 . S
H492 C504 0.950 . S
H493 C505 0.950 . S
C494 H486 0.950 . S
C494 C495 1.386 . S
C494 C496 1.391 . S
C495 C494 1.386 . S
C495 C499 1.393 . S
C496 H488 0.950 . S
C496 C494 1.391 . S
C496 C497 1.400 . S
C497 C496 1.400 . S
C497 C498 1.398 . S
C497 C503 1.491 . S
C498 H489 0.950 . S
C498 C497 1.398 . S
C498 C499 1.391 . S
C499 H487 0.950 . S
C499 C495 1.393 . S
C499 C498 1.391 . S
C500 H490 0.950 . S
C500 C501 1.386 . S
C500 C502 1.391 . S
C501 C500 1.386 . S
C501 C505 1.393 . S
C502 H491 0.950 . S
C502 C500 1.391 . S
C502 C503 1.400 . S
C503 C497 1.491 . S
C503 C502 1.400 . S
C503 C504 1.398 . S
C504 H492 0.950 . S
C504 C503 1.398 . S
C504 C505 1.391 . S
C505 H493 0.950 . S
C505 C501 1.393 . S
C505 C504 1.391 . S
H506 C514 0.950 . S
H507 C519 0.950 . S
H508 C516 0.950 . S
H509 C518 0.950 . S
H510 C520 0.950 . S
H511 C522 0.950 . S
H512 C524 0.950 . S
H513 C525 0.950 . S
C514 H506 0.950 . S
C514 C515 1.386 . S
C514 C516 1.391 . S
C515 C514 1.386 . S
C515 C519 1.393 . S
C516 H508 0.950 . S
C516 C514 1.391 . S
C516 C517 1.400 . S
C517 C516 1.400 . S
C517 C518 1.398 . S
C517 C523 1.491 . S
C518 H509 0.950 . S
C518 C517 1.398 . S
C518 C519 1.391 . S
C519 H507 0.950 . S
C519 C515 1.393 . S
C519 C518 1.391 . S
C520 H510 0.950 . S
C520 C521 1.386 . S
C520 C522 1.391 . S
C521 C520 1.386 . S
C521 C525 1.393 . S
C522 H511 0.950 . S
C522 C520 1.391 . S
C522 C523 1.400 . S
C523 C517 1.491 . S
C523 C522 1.400 . S
C523 C524 1.398 . S
C524 H512 0.950 . S
C524 C523 1.398 . S
C524 C525 1.391 . S
C525 H513 0.950 . S
C525 C521 1.393 . S
C525 C524 1.391 . S
H526 C534 0.950 . S
H527 C539 0.950 . S
H528 C536 0.950 . S
H529 C538 0.950 . S
H530 C540 0.950 . S
H531 C542 0.950 . S
H532 C544 0.950 . S
H533 C545 0.950 . S
C534 H526 0.950 . S
C534 C535 1.386 . S
C534 C536 1.391 . S
C535 C534 1.386 . S
C535 C539 1.393 . S
C536 H528 0.950 . S
C536 C534 1.391 . S
C536 C537 1.400 . S
C537 C536 1.400 . S
C537 C538 1.398 . S
C537 C543 1.491 . S
C538 H529 0.950 . S
C538 C537 1.398 . S
C538 C539 1.391 . S
C539 H527 0.950 . S
C539 C535 1.393 . S
C539 C538 1.391 . S
C540 H530 0.950 . S
C540 C541 1.386 . S
C540 C542 1.391 . S
C541 C540 1.386 . S
C541 C545 1.393 . S
C542 H531 0.950 . S
C542 C540 1.391 . S
C542 C543 1.400 . S
C543 C537 1.491 . S
C543 C542 1.400 . S
C543 C544 1.398 . S
C544 H532 0.950 . S
C544 C543 1.398 . S
C544 C545 1.391 . S
C545 H533 0.950 . S
C545 C541 1.393 . S
C545 C544 1.391 . S
H546 C554 0.950 . S
H547 C559 0.950 . S
H548 C556 0.950 . S
H549 C558 0.950 . S
H550 C560 0.950 . S
H551 C562 0.950 . S
H552 C564 0.950 . S
H553 C565 0.950 . S
C554 H546 0.950 . S
C554 C555 1.386 . S
C554 C556 1.391 . S
C555 C554 1.386 . S
C555 C559 1.393 . S
C556 H548 0.950 . S
C556 C554 1.391 . S
C556 C557 1.400 . S
C557 C556 1.400 . S
C557 C558 1.398 . S
C557 C563 1.491 . S
C558 H549 0.950 . S
C558 C557 1.398 . S
C558 C559 1.391 . S
C559 H547 0.950 . S
C559 C555 1.393 . S
C559 C558 1.391 . S
C560 H550 0.950 . S
C560 C561 1.386 . S
C560 C562 1.391 . S
C561 C560 1.386 . S
C561 C565 1.393 . S
C562 H551 0.950 . S
C562 C560 1.391 . S
C562 C563 1.400 . S
C563 C557 1.491 . S
C563 C562 1.400 . S
C563 C564 1.398 . S
C564 H552 0.950 . S
C564 C563 1.398 . S
C564 C565 1.391 . S
C565 H553 0.950 . S
C565 C561 1.393 . S
C565 C564 1.391 . S
H566 C574 0.950 . S
H567 C579 0.950 . S
H568 C576 0.950 . S
H569 C578 0.950 . S
H570 C580 0.950 . S
H571 C582 0.950 . S
H572 C584 0.950 . S
H573 C585 0.950 . S
C574 H566 0.950 . S
C574 C575 1.386 . S
C574 C576 1.391 . S
C575 C574 1.386 . S
C575 C579 1.393 . S
C576 H568 0.950 . S
C576 C574 1.391 . S
C576 C577 1.400 . S
C577 C576 1.400 . S
C577 C578 1.398 . S
C577 C583 1.491 . S
C578 H569 0.950 . S
C578 C577 1.398 . S
C578 C579 1.391 . S
C579 H567 0.950 . S
C579 C575 1.393 . S
C579 C578 1.391 . S
C580 H570 0.950 . S
C580 C581 1.386 . S
C580 C582 1.391 . S
C581 C580 1.386 . S
C581 C585 1.393 . S
C582 H571 0.950 . S
C582 C580 1.391 . S
C582 C583 1.400 . S
C583 C577 1.491 . S
C583 C582 1.400 . S
C583 C584 1.398 . S
C584 H572 0.950 . S
C584 C583 1.398 . S
C584 C585 1.391 . S
C585 H573 0.950 . S
C585 C581 1.393 . S
C585 C584 1.391 . S
H586 C594 0.950 . S
H587 C599 0.950 . S
H588 C596 0.950 . S
H589 C598 0.950 . S
H590 C600 0.950 . S
H591 C602 0.950 . S
H592 C604 0.950 . S
H593 C605 0.950 . S
C594 H586 0.950 . S
C594 C595 1.386 . S
C594 C596 1.391 . S
C595 C594 1.386 . S
C595 C599 1.393 . S
C596 H588 0.950 . S
C596 C594 1.391 . S
C596 C597 1.400 . S
C597 C596 1.400 . S
C597 C598 1.398 . S
C597 C603 1.491 . S
C598 H589 0.950 . S
C598 C597 1.398 . S
C598 C599 1.391 . S
C599 H587 0.950 . S
C599 C595 1.393 . S
C599 C598 1.391 . S
C600 H590 0.950 . S
C600 C601 1.386 . S
C600 C602 1.391 . S
C601 C600 1.386 . S
C601 C605 1.393 . S
C602 H591 0.950 . S
C602 C600 1.391 . S
C602 C603 1.400 . S
C603 C597 1.491 . S
C603 C602 1.400 . S
C603 C604 1.398 . S
C604 H592 0.950 . S
C604 C603 1.398 . S
C604 C605 1.391 . S
C605 H593 0.950 . S
C605 C601 1.393 . S
C605 C604 1.391 . S
H606 C614 0.950 . S
H607 C619 0.950 . S
H608 C616 0.950 . S
H609 C618 0.950 . S
H610 C620 0.950 . S
H611 C622 0.950 . S
H612 C624 0.950 . S
H613 C625 0.950 . S
C614 H606 0.950 . S
C614 C615 1.386 . S
C614 C616 1.391 . S
C615 C614 1.386 . S
C615 C619 1.393 . S
C616 H608 0.950 . S
C616 C614 1.391 . S
C616 C617 1.400 . S
C617 C616 1.400 . S
C617 C618 1.398 . S
C617 C623 1.491 . S
C618 H609 0.950 . S
C618 C617 1.398 . S
C618 C619 1.391 . S
C619 H607 0.950 . S
C619 C615 1.393 . S
C619 C618 1.391 . S
C620 H610 0.950 . S
C620 C621 1.386 . S
C620 C622 1.391 . S
C621 C620 1.386 . S
C621 C625 1.393 . S
C622 H611 0.950 . S
C622 C620 1.391 . S
C622 C623 1.400 . S
C623 C617 1.491 . S
C623 C622 1.400 . S
C623 C624 1.398 . S
C624 H612 0.950 . S
C624 C623 1.398 . S
C624 C625 1.391 . S
C625 H613 0.950 . S
C625 C621 1.393 . S
C625 C624 1.391 . S
H626 C634 0.950 . S
H627 C639 0.950 . S
H628 C636 0.950 . S
H629 C638 0.950 . S
H630 C640 0.950 . S
H631 C642 0.950 . S
H632 C644 0.950 . S
H633 C645 0.950 . S
C634 H626 0.950 . S
C634 C635 1.386 . S
C634 C636 1.391 . S
C635 C634 1.386 . S
C635 C639 1.393 . S
C636 H628 0.950 . S
C636 C634 1.391 . S
C636 C637 1.400 . S
C637 C636 1.400 . S
C637 C638 1.398 . S
C637 C643 1.491 . S
C638 H629 0.950 . S
C638 C637 1.398 . S
C638 C639 1.391 . S
C639 H627 0.950 . S
C639 C635 1.393 . S
C639 C638 1.391 . S
C640 H630 0.950 . S
C640 C641 1.386 . S
C640 C642 1.391 . S
C641 C640 1.386 . S
C641 C645 1.393 . S
C642 H631 0.950 . S
C642 C640 1.391 . S
C642 C643 1.400 . S
C643 C637 1.491 . S
C643 C642 1.400 . S
C643 C644 1.398 . S
C644 H632 0.950 . S
C644 C643 1.398 . S
C644 C645 1.391 . S
C645 H633 0.950 . S
C645 C641 1.393 . S
C645 C644 1.391 . S
H646 C654 0.950 . S
H647 C659 0.950 . S
H648 C656 0.950 . S
H649 C658 0.950 . S
H650 C660 0.950 . S
H651 C662 0.950 . S
H652 C664 0.950 . S
H653 C665 0.950 . S
C654 H646 0.950 . S
C654 C655 1.386 . S
C654 C656 1.391 . S
C655 C654 1.386 . S
C655 C659 1.393 . S
C656 H648 0.950 . S
C656 C654 1.391 . S
C656 C657 1.400 . S
C657 C656 1.400 . S
C657 C658 1.398 . S
C657 C663 1.491 . S
C658 H649 0.950 . S
C658 C657 1.398 . S
C658 C659 1.391 . S
C659 H647 0.950 . S
C659 C655 1.393 . S
C659 C658 1.391 . S
C660 H650 0.950 . S
C660 C661 1.386 . S
C660 C662 1.391 . S
C661 C660 1.386 . S
C661 C665 1.393 . S
C662 H651 0.950 . S
C662 C660 1.391 . S
C662 C663 1.400 . S
C663 C657 1.491 . S
C663 C662 1.400 . S
C663 C664 1.398 . S
C664 H652 0.950 . S
C664 C663 1.398 . S
C664 C665 1.391 . S
C665 H653 0.950 . S
C665 C661 1.393 . S
C665 C664 1.391 . S
H666 C674 0.950 . S
H667 C679 0.950 . S
H668 C676 0.950 . S
H669 C678 0.950 . S
H670 C680 0.950 . S
H671 C682 0.950 . S
H672 C684 0.950 . S
H673 C685 0.950 . S
C674 H666 0.950 . S
C674 C675 1.386 . S
C674 C676 1.391 . S
C675 C674 1.386 . S
C675 C679 1.393 . S
C676 H668 0.950 . S
C676 C674 1.391 . S
C676 C677 1.400 . S
C677 C676 1.400 . S
C677 C678 1.398 . S
C677 C683 1.491 . S
C678 H669 0.950 . S
C678 C677 1.398 . S
C678 C679 1.391 . S
C679 H667 0.950 . S
C679 C675 1.393 . S
C679 C678 1.391 . S
C680 H670 0.950 . S
C680 C681 1.386 . S
C680 C682 1.391 . S
C681 C680 1.386 . S
C681 C685 1.393 . S
C682 H671 0.950 . S
C682 C680 1.391 . S
C682 C683 1.400 . S
C683 C677 1.491 . S
C683 C682 1.400 . S
C683 C684 1.398 . S
C684 H672 0.950 . S
C684 C683 1.398 . S
C684 C685 1.391 . S
C685 H673 0.950 . S
C685 C681 1.393 . S
C685 C684 1.391 . S
H686 C694 0.950 . S
H687 C699 0.950 . S
H688 C696 0.950 . S
H689 C698 0.950 . S
H690 C700 0.950 . S
H691 C702 0.950 . S
H692 C704 0.950 . S
H693 C705 0.950 . S
C694 H686 0.950 . S
C694 C695 1.386 . S
C694 C696 1.391 . S
C695 C694 1.386 . S
C695 C699 1.393 . S
C696 H688 0.950 . S
C696 C694 1.391 . S
C696 C697 1.400 . S
C697 C696 1.400 . S
C697 C698 1.398 . S
C697 C703 1.491 . S
C698 H689 0.950 . S
C698 C697 1.398 . S
C698 C699 1.391 . S
C699 H687 0.950 . S
C699 C695 1.393 . S
C699 C698 1.391 . S
C700 H690 0.950 . S
C700 C701 1.386 . S
C700 C702 1.391 . S
C701 C700 1.386 . S
C701 C705 1.393 . S
C702 H691 0.950 . S
C702 C700 1.391 . S
C702 C703 1.400 . S
C703 C697 1.491 . S
C703 C702 1.400 . S
C703 C704 1.398 . S
C704 H692 0.950 . S
C704 C703 1.398 . S
C704 C705 1.391 . S
C705 H693 0.950 . S
C705 C701 1.393 . S
C705 C704 1.391 . S
H706 C714 0.950 . S
H707 C719 0.950 . S
H708 C716 0.950 . S
H709 C718 0.950 . S
H710 C720 0.950 . S
H711 C722 0.950 . S
H712 C724 0.950 . S
H713 C725 0.950 . S
C714 H706 0.950 . S
C714 C715 1.386 . S
C714 C716 1.391 . S
C715 C714 1.386 . S
C715 C719 1.393 . S
C716 H708 0.950 . S
C716 C714 1.391 . S
C716 C717 1.400 . S
C717 C716 1.400 . S
C717 C718 1.398 . S
C717 C723 1.491 . S
C718 H709 0.950 . S
C718 C717 1.398 . S
C718 C719 1.391 . S
C719 H707 0.950 . S
C719 C715 1.393 . S
C719 C718 1.391 . S
C720 H710 0.950 . S
C720 C721 1.386 . S
C720 C722 1.391 . S
C721 C720 1.386 . S
C721 C725 1.393 . S
C722 H711 0.950 . S
C722 C720 1.391 . S
C722 C723 1.400 . S
C723 C717 1.491 . S
C723 C722 1.400 . S
C723 C724 1.398 . S
C724 H712 0.950 . S
C724 C723 1.398 . S
C724 C725 1.391 . S
C725 H713 0.950 . S
C725 C721 1.393 . S
C725 C724 1.391 . S
H726 C734 0.950 . S
H727 C739 0.950 . S
H728 C736 0.950 . S
H729 C738 0.950 . S
H730 C740 0.950 . S
H731 C742 0.950 . S
H732 C744 0.950 . S
H733 C745 0.950 . S
C734 H726 0.950 . S
C734 C735 1.386 . S
C734 C736 1.391 . S
C735 C734 1.386 . S
C735 C739 1.393 . S
C736 H728 0.950 . S
C736 C734 1.391 . S
C736 C737 1.400 . S
C737 C736 1.400 . S
C737 C738 1.398 . S
C737 C743 1.491 . S
C738 H729 0.950 . S
C738 C737 1.398 . S
C738 C739 1.391 . S
C739 H727 0.950 . S
C739 C735 1.393 . S
C739 C738 1.391 . S
C740 H730 0.950 . S
C740 C741 1.386 . S
C740 C742 1.391 . S
C741 C740 1.386 . S
C741 C745 1.393 . S
C742 H731 0.950 . S
C742 C740 1.391 . S
C742 C743 1.400 . S
C743 C737 1.491 . S
C743 C742 1.400 . S
C743 C744 1.398 . S
C744 H732 0.950 . S
C744 C743 1.398 . S
C744 C745 1.391 . S
C745 H733 0.950 . S
C745 C741 1.393 . S
C745 C744 1.391 . S
H746 C754 0.950 . S
H747 C759 0.950 . S
H748 C756 0.950 . S
H749 C758 0.950 . S
H750 C760 0.950 . S
H751 C762 0.950 . S
H752 C764 0.950 . S
H753 C765 0.950 . S
C754 H746 0.950 . S
C754 C755 1.386 . S
C754 C756 1.391 . S
C755 C754 1.386 . S
C755 C759 1.393 . S
C756 H748 0.950 . S
C756 C754 1.391 . S
C756 C757 1.400 . S
C757 C756 1.400 . S
C757 C758 1.398 . S
C757 C763 1.491 . S
C758 H749 0.950 . S
C758 C757 1.398 . S
C758 C759 1.391 . S
C759 H747 0.950 . S
C759 C755 1.393 . S
C759 C758 1.391 . S
C760 H750 0.950 . S
C760 C761 1.386 . S
C760 C762 1.391 . S
C761 C760 1.386 . S
C761 C765 1.393 . S
C762 H751 0.950 . S
C762 C760 1.391 . S
C762 C763 1.400 . S
C763 C757 1.491 . S
C763 C762 1.400 . S
C763 C764 1.398 . S
C764 H752 0.950 . S
C764 C763 1.398 . S
C764 C765 1.391 . S
C765 H753 0.950 . S
C765 C761 1.393 . S
C765 C764 1.391 . S
H766 C774 0.950 . S
H767 C779 0.950 . S
H768 C776 0.950 . S
H769 C778 0.950 . S
H770 C780 0.950 . S
H771 C782 0.950 . S
H772 C784 0.950 . S
H773 C785 0.950 . S
C774 H766 0.950 . S
C774 C775 1.386 . S
C774 C776 1.391 . S
C775 C774 1.386 . S
C775 C779 1.393 . S
C776 H768 0.950 . S
C776 C774 1.391 . S
C776 C777 1.400 . S
C777 C776 1.400 . S
C777 C778 1.398 . S
C777 C783 1.491 . S
C778 H769 0.950 . S
C778 C777 1.398 . S
C778 C779 1.391 . S
C779 H767 0.950 . S
C779 C775 1.393 . S
C779 C778 1.391 . S
C780 H770 0.950 . S
C780 C781 1.386 . S
C780 C782 1.391 . S
C781 C780 1.386 . S
C781 C785 1.393 . S
C782 H771 0.950 . S
C782 C780 1.391 . S
C782 C783 1.400 . S
C783 C777 1.491 . S
C783 C782 1.400 . S
C783 C784 1.398 . S
C784 H772 0.950 . S
C784 C783 1.398 . S
C784 C785 1.391 . S
C785 H773 0.950 . S
C785 C781 1.393 . S
C785 C784 1.391 . S
H786 C794 0.950 . S
H787 C799 0.950 . S
H788 C796 0.950 . S
H789 C798 0.950 . S
H790 C800 0.950 . S
H791 C802 0.950 . S
H792 C804 0.950 . S
H793 C805 0.950 . S
C794 H786 0.950 . S
C794 C795 1.386 . S
C794 C796 1.391 . S
C795 C794 1.386 . S
C795 C799 1.393 . S
C796 H788 0.950 . S
C796 C794 1.391 . S
C796 C797 1.400 . S
C797 C796 1.400 . S
C797 C798 1.398 . S
C797 C803 1.491 . S
C798 H789 0.950 . S
C798 C797 1.398 . S
C798 C799 1.391 . S
C799 H787 0.950 . S
C799 C795 1.393 . S
C799 C798 1.391 . S
C800 H790 0.950 . S
C800 C801 1.386 . S
C800 C802 1.391 . S
C801 C800 1.386 . S
C801 C805 1.393 . S
C802 H791 0.950 . S
C802 C800 1.391 . S
C802 C803 1.400 . S
C803 C797 1.491 . S
C803 C802 1.400 . S
C803 C804 1.398 . S
C804 H792 0.950 . S
C804 C803 1.398 . S
C804 C805 1.391 . S
C805 H793 0.950 . S
C805 C801 1.393 . S
C805 C804 1.391 . S
H806 C814 0.950 . S
H807 C819 0.950 . S
H808 C816 0.950 . S
H809 C818 0.950 . S
H810 C820 0.950 . S
H811 C822 0.950 . S
H812 C824 0.950 . S
H813 C825 0.950 . S
C814 H806 0.950 . S
C814 C815 1.386 . S
C814 C816 1.391 . S
C815 C814 1.386 . S
C815 C819 1.393 . S
C816 H808 0.950 . S
C816 C814 1.391 . S
C816 C817 1.400 . S
C817 C816 1.400 . S
C817 C818 1.398 . S
C817 C823 1.491 . S
C818 H809 0.950 . S
C818 C817 1.398 . S
C818 C819 1.391 . S
C819 H807 0.950 . S
C819 C815 1.393 . S
C819 C818 1.391 . S
C820 H810 0.950 . S
C820 C821 1.386 . S
C820 C822 1.391 . S
C821 C820 1.386 . S
C821 C825 1.393 . S
C822 H811 0.950 . S
C822 C820 1.391 . S
C822 C823 1.400 . S
C823 C817 1.491 . S
C823 C822 1.400 . S
C823 C824 1.398 . S
C824 H812 0.950 . S
C824 C823 1.398 . S
C824 C825 1.391 . S
C825 H813 0.950 . S
C825 C821 1.393 . S
C825 C824 1.391 . S
H826 C834 0.950 . S
H827 C839 0.950 . S
H828 C836 0.950 . S
H829 C838 0.950 . S
H830 C840 0.950 . S
H831 C842 0.950 . S
H832 C844 0.950 . S
H833 C845 0.950 . S
C834 H826 0.950 . S
C834 C835 1.386 . S
C834 C836 1.391 . S
C835 C834 1.386 . S
C835 C839 1.393 . S
C836 H828 0.950 . S
C836 C834 1.391 . S
C836 C837 1.400 . S
C837 C836 1.400 . S
C837 C838 1.398 . S
C837 C843 1.491 . S
C838 H829 0.950 . S
C838 C837 1.398 . S
C838 C839 1.391 . S
C839 H827 0.950 . S
C839 C835 1.393 . S
C839 C838 1.391 . S
C840 H830 0.950 . S
C840 C841 1.386 . S
C840 C842 1.391 . S
C841 C840 1.386 . S
C841 C845 1.393 . S
C842 H831 0.950 . S
C842 C840 1.391 . S
C842 C843 1.400 . S
C843 C837 1.491 . S
C843 C842 1.400 . S
C843 C844 1.398 . S
C844 H832 0.950 . S
C844 C843 1.398 . S
C844 C845 1.391 . S
C845 H833 0.950 . S
C845 C841 1.393 . S
C845 C844 1.391 . S
H846 C854 0.950 . S
H847 C859 0.950 . S
H848 C856 0.950 . S
H849 C858 0.950 . S
H850 C860 0.950 . S
H851 C862 0.950 . S
H852 C864 0.950 . S
H853 C865 0.950 . S
C854 H846 0.950 . S
C854 C855 1.386 . S
C854 C856 1.391 . S
C855 C854 1.386 . S
C855 C859 1.393 . S
C856 H848 0.950 . S
C856 C854 1.391 . S
C856 C857 1.400 . S
C857 C856 1.400 . S
C857 C858 1.398 . S
C857 C863 1.491 . S
C858 H849 0.950 . S
C858 C857 1.398 . S
C858 C859 1.391 . S
C859 H847 0.950 . S
C859 C855 1.393 . S
C859 C858 1.391 . S
C860 H850 0.950 . S
C860 C861 1.386 . S
C860 C862 1.391 . S
C861 C860 1.386 . S
C861 C865 1.393 . S
C862 H851 0.950 . S
C862 C860 1.391 . S
C862 C863 1.400 . S
C863 C857 1.491 . S
C863 C862 1.400 . S
C863 C864 1.398 . S
C864 H852 0.950 . S
C864 C863 1.398 . S
C864 C865 1.391 . S
C865 H853 0.950 . S
C865 C861 1.393 . S
C865 C864 1.391 . S
H866 C874 0.950 . S
H867 C879 0.950 . S
H868 C876 0.950 . S
H869 C878 0.950 . S
H870 C880 0.950 . S
H871 C882 0.950 . S
H872 C884 0.950 . S
H873 C885 0.950 . S
C874 H866 0.950 . S
C874 C875 1.386 . S
C874 C876 1.391 . S
C875 C874 1.386 . S
C875 C879 1.393 . S
C876 H868 0.950 . S
C876 C874 1.391 . S
C876 C877 1.400 . S
C877 C876 1.400 . S
C877 C878 1.398 . S
C877 C883 1.491 . S
C878 H869 0.950 . S
C878 C877 1.398 . S
C878 C879 1.391 . S
C879 H867 0.950 . S
C879 C875 1.393 . S
C879 C878 1.391 . S
C880 H870 0.950 . S
C880 C881 1.386 . S
C880 C882 1.391 . S
C881 C880 1.386 . S
C881 C885 1.393 . S
C882 H871 0.950 . S
C882 C880 1.391 . S
C882 C883 1.400 . S
C883 C877 1.491 . S
C883 C882 1.400 . S
C883 C884 1.398 . S
C884 H872 0.950 . S
C884 C883 1.398 . S
C884 C885 1.391 . S
C885 H873 0.950 . S
C885 C881 1.393 . S
C885 C884 1.391 . S
H886 C894 0.950 . S
H887 C899 0.950 . S
H888 C896 0.950 . S
H889 C898 0.950 . S
H890 C900 0.950 . S
H891 C902 0.950 . S
H892 C904 0.950 . S
H893 C905 0.950 . S
C894 H886 0.950 . S
C894 C895 1.386 . S
C894 C896 1.391 . S
C895 C894 1.386 . S
C895 C899 1.393 . S
C896 H888 0.950 . S
C896 C894 1.391 . S
C896 C897 1.400 . S
C897 C896 1.400 . S
C897 C898 1.398 . S
C897 C903 1.491 . S
C898 H889 0.950 . S
C898 C897 1.398 . S
C898 C899 1.391 . S
C899 H887 0.950 . S
C899 C895 1.393 . S
C899 C898 1.391 . S
C900 H890 0.950 . S
C900 C901 1.386 . S
C900 C902 1.391 . S
C901 C900 1.386 . S
C901 C905 1.393 . S
C902 H891 0.950 . S
C902 C900 1.391 . S
C902 C903 1.400 . S
C903 C897 1.491 . S
C903 C902 1.400 . S
C903 C904 1.398 . S
C904 H892 0.950 . S
C904 C903 1.398 . S
C904 C905 1.391 . S
C905 H893 0.950 . S
C905 C901 1.393 . S
C905 C904 1.391 . S
H906 C914 0.950 . S
H907 C919 0.950 . S
H908 C916 0.950 . S
H909 C918 0.950 . S
H910 C920 0.950 . S
H911 C922 0.950 . S
H912 C924 0.950 . S
H913 C925 0.950 . S
C914 H906 0.950 . S
C914 C915 1.386 . S
C914 C916 1.391 . S
C915 C914 1.386 . S
C915 C919 1.393 . S
C916 H908 0.950 . S
C916 C914 1.391 . S
C916 C917 1.400 . S
C917 C916 1.400 . S
C917 C918 1.398 . S
C917 C923 1.491 . S
C918 H909 0.950 . S
C918 C917 1.398 . S
C918 C919 1.391 . S
C919 H907 0.950 . S
C919 C915 1.393 . S
C919 C918 1.391 . S
C920 H910 0.950 . S
C920 C921 1.386 . S
C920 C922 1.391 . S
C921 C920 1.386 . S
C921 C925 1.393 . S
C922 H911 0.950 . S
C922 C920 1.391 . S
C922 C923 1.400 . S
C923 C917 1.491 . S
C923 C922 1.400 . S
C923 C924 1.398 . S
C924 H912 0.950 . S
C924 C923 1.398 . S
C924 C925 1.391 . S
C925 H913 0.950 . S
C925 C921 1.393 . S
C925 C924 1.391 . S
H926 C934 0.950 . S
H927 C939 0.950 . S
H928 C936 0.950 . S
H929 C938 0.950 . S
H930 C940 0.950 . S
H931 C942 0.950 . S
H932 C944 0.950 . S
H933 C945 0.950 . S
C934 H926 0.950 . S
C934 C935 1.386 . S
C934 C936 1.391 . S
C935 C934 1.386 . S
C935 C939 1.393 . S
C936 H928 0.950 . S
C936 C934 1.391 . S
C936 C937 1.400 . S
C937 C936 1.400 . S
C937 C938 1.398 . S
C937 C943 1.491 . S
C938 H929 0.950 . S
C938 C937 1.398 . S
C938 C939 1.391 . S
C939 H927 0.950 . S
C939 C935 1.393 . S
C939 C938 1.391 . S
C940 H930 0.950 . S
C940 C941 1.386 . S
C940 C942 1.391 . S
C941 C940 1.386 . S
C941 C945 1.393 . S
C942 H931 0.950 . S
C942 C940 1.391 . S
C942 C943 1.400 . S
C943 C937 1.491 . S
C943 C942 1.400 . S
C943 C944 1.398 . S
C944 H932 0.950 . S
C944 C943 1.398 . S
C944 C945 1.391 . S
C945 H933 0.950 . S
C945 C941 1.393 . S
C945 C944 1.391 . S
H946 C954 0.950 . S
H947 C959 0.950 . S
H948 C956 0.950 . S
H949 C958 0.950 . S
H950 C960 0.950 . S
H951 C962 0.950 . S
H952 C964 0.950 . S
H953 C965 0.950 . S
C954 H946 0.950 . S
C954 C955 1.386 . S
C954 C956 1.391 . S
C955 C954 1.386 . S
C955 C959 1.393 . S
C956 H948 0.950 . S
C956 C954 1.391 . S
C956 C957 1.400 . S
C957 C956 1.400 . S
C957 C958 1.398 . S
C957 C963 1.491 . S
C958 H949 0.950 . S
C958 C957 1.398 . S
C958 C959 1.391 . S
C959 H947 0.950 . S
C959 C955 1.393 . S
C959 C958 1.391 . S
C960 H950 0.950 . S
C960 C961 1.386 . S
C960 C962 1.391 . S
C961 C960 1.386 . S
C961 C965 1.393 . S
C962 H951 0.950 . S
C962 C960 1.391 . S
C962 C963 1.400 . S
C963 C957 1.491 . S
C963 C962 1.400 . S
C963 C964 1.398 . S
C964 H952 0.950 . S
C964 C963 1.398 . S
C964 C965 1.391 . S
C965 H953 0.950 . S
C965 C961 1.393 . S
C965 C964 1.391 . S
H966 C974 0.950 . S
H967 C979 0.950 . S
H968 C976 0.950 . S
H969 C978 0.950 . S
H970 C980 0.950 . S
H971 C982 0.950 . S
H972 C984 0.950 . S
H973 C985 0.950 . S
C974 H966 0.950 . S
C974 C975 1.386 . S
C974 C976 1.391 . S
C975 C974 1.386 . S
C975 C979 1.393 . S
C976 H968 0.950 . S
C976 C974 1.391 . S
C976 C977 1.400 . S
C977 C976 1.400 . S
C977 C978 1.398 . S
C977 C983 1.491 . S
C978 H969 0.950 . S
C978 C977 1.398 . S
C978 C979 1.391 . S
C979 H967 0.950 . S
C979 C975 1.393 . S
C979 C978 1.391 . S
C980 H970 0.950 . S
C980 C981 1.386 . S
C980 C982 1.391 . S
C981 C980 1.386 . S
C981 C985 1.393 . S
C982 H971 0.950 . S
C982 C980 1.391 . S
C982 C983 1.400 . S
C983 C977 1.491 . S
C983 C982 1.400 . S
C983 C984 1.398 . S
C984 H972 0.950 . S
C984 C983 1.398 . S
C984 C985 1.391 . S
C985 H973 0.950 . S
C985 C981 1.393 . S
C985 C984 1.391 . S
H986 C994 0.950 . S
H987 C999 0.950 . S
H988 C996 0.950 . S
H989 C998 0.950 . S
H990 C1000 0.950 . S
H991 C1002 0.950 . S
H992 C1004 0.950 . S
H993 C1005 0.950 . S
C994 H986 0.950 . S
C994 C995 1.386 . S
C994 C996 1.391 . S
C995 C994 1.386 . S
C995 C999 1.393 . S
C996 H988 0.950 . S
C996 C994 1.391 . S
C996 C997 1.400 . S
C997 C996 1.400 . S
C997 C998 1.398 . S
C997 C1003 1.491 . S
C998 H989 0.950 . S
C998 C997 1.398 . S
C998 C999 1.391 . S
C999 H987 0.950 . S
C999 C995 1.393 . S
C999 C998 1.391 . S
C1000 H990 0.950 . S
C1000 C1001 1.386 . S
C1000 C1002 1.391 . S
C1001 C1000 1.386 . S
C1001 C1005 1.393 . S
C1002 H991 0.950 . S
C1002 C1000 1.391 . S
C1002 C1003 1.400 . S
C1003 C997 1.491 . S
C1003 C1002 1.400 . S
C1003 C1004 1.398 . S
C1004 H992 0.950 . S
C1004 C1003 1.398 . S
C1004 C1005 1.391 . S
C1005 H993 0.950 . S
C1005 C1001 1.393 . S
C1005 C1004 1.391 . S
H1006 C1014 0.950 . S
H1007 C1019 0.950 . S
H1008 C1016 0.950 . S
H1009 C1018 0.950 . S
H1010 C1020 0.950 . S
H1011 C1022 0.950 . S
H1012 C1024 0.950 . S
H1013 C1025 0.950 . S
C1014 H1006 0.950 . S
C1014 C1015 1.386 . S
C1014 C1016 1.391 . S
C1015 C1014 1.386 . S
C1015 C1019 1.393 . S
C1016 H1008 0.950 . S
C1016 C1014 1.391 . S
C1016 C1017 1.400 . S
C1017 C1016 1.400 . S
C1017 C1018 1.398 . S
C1017 C1023 1.491 . S
C1018 H1009 0.950 . S
C1018 C1017 1.398 . S
C1018 C1019 1.391 . S
C1019 H1007 0.950 . S
C1019 C1015 1.393 . S
C1019 C1018 1.391 . S
C1020 H1010 0.950 . S
C1020 C1021 1.386 . S
C1020 C1022 1.391 . S
C1021 C1020 1.386 . S
C1021 C1025 1.393 . S
C1022 H1011 0.950 . S
C1022 C1020 1.391 . S
C1022 C1023 1.400 . S
C1023 C1017 1.491 . S
C1023 C1022 1.400 . S
C1023 C1024 1.398 . S
C1024 H1012 0.950 . S
C1024 C1023 1.398 . S
C1024 C1025 1.391 . S
C1025 H1013 0.950 . S
C1025 C1021 1.393 . S
C1025 C1024 1.391 . S
H1026 C1034 0.950 . S
H1027 C1039 0.950 . S
H1028 C1036 0.950 . S
H1029 C1038 0.950 . S
H1030 C1040 0.950 . S
H1031 C1042 0.950 . S
H1032 C1044 0.950 . S
H1033 C1045 0.950 . S
C1034 H1026 0.950 . S
C1034 C1035 1.386 . S
C1034 C1036 1.391 . S
C1035 C1034 1.386 . S
C1035 C1039 1.393 . S
C1036 H1028 0.950 . S
C1036 C1034 1.391 . S
C1036 C1037 1.400 . S
C1037 C1036 1.400 . S
C1037 C1038 1.398 . S
C1037 C1043 1.491 . S
C1038 H1029 0.950 . S
C1038 C1037 1.398 . S
C1038 C1039 1.391 . S
C1039 H1027 0.950 . S
C1039 C1035 1.393 . S
C1039 C1038 1.391 . S
C1040 H1030 0.950 . S
C1040 C1041 1.386 . S
C1040 C1042 1.391 . S
C1041 C1040 1.386 . S
C1041 C1045 1.393 . S
C1042 H1031 0.950 . S
C1042 C1040 1.391 . S
C1042 C1043 1.400 . S
C1043 C1037 1.491 . S
C1043 C1042 1.400 . S
C1043 C1044 1.398 . S
C1044 H1032 0.950 . S
C1044 C1043 1.398 . S
C1044 C1045 1.391 . S
C1045 H1033 0.950 . S
C1045 C1041 1.393 . S
C1045 C1044 1.391 . S
H1046 C1054 0.950 . S
H1047 C1059 0.950 . S
H1048 C1056 0.950 . S
H1049 C1058 0.950 . S
H1050 C1060 0.950 . S
H1051 C1062 0.950 . S
H1052 C1064 0.950 . S
H1053 C1065 0.950 . S
C1054 H1046 0.950 . S
C1054 C1055 1.386 . S
C1054 C1056 1.391 . S
C1055 C1054 1.386 . S
C1055 C1059 1.393 . S
C1056 H1048 0.950 . S
C1056 C1054 1.391 . S
C1056 C1057 1.400 . S
C1057 C1056 1.400 . S
C1057 C1058 1.398 . S
C1057 C1063 1.491 . S
C1058 H1049 0.950 . S
C1058 C1057 1.398 . S
C1058 C1059 1.391 . S
C1059 H1047 0.950 . S
C1059 C1055 1.393 . S
C1059 C1058 1.391 . S
C1060 H1050 0.950 . S
C1060 C1061 1.386 . S
C1060 C1062 1.391 . S
C1061 C1060 1.386 . S
C1061 C1065 1.393 . S
C1062 H1051 0.950 . S
C1062 C1060 1.391 . S
C1062 C1063 1.400 . S
C1063 C1057 1.491 . S
C1063 C1062 1.400 . S
C1063 C1064 1.398 . S
C1064 H1052 0.950 . S
C1064 C1063 1.398 . S
C1064 C1065 1.391 . S
C1065 H1053 0.950 . S
C1065 C1061 1.393 . S
C1065 C1064 1.391 . S
H1066 C1074 0.950 . S
H1067 C1079 0.950 . S
H1068 C1076 0.950 . S
H1069 C1078 0.950 . S
H1070 C1080 0.950 . S
H1071 C1082 0.950 . S
H1072 C1084 0.950 . S
H1073 C1085 0.950 . S
C1074 H1066 0.950 . S
C1074 C1075 1.386 . S
C1074 C1076 1.391 . S
C1075 C1074 1.386 . S
C1075 C1079 1.393 . S
C1076 H1068 0.950 . S
C1076 C1074 1.391 . S
C1076 C1077 1.400 . S
C1077 C1076 1.400 . S
C1077 C1078 1.398 . S
C1077 C1083 1.491 . S
C1078 H1069 0.950 . S
C1078 C1077 1.398 . S
C1078 C1079 1.391 . S
C1079 H1067 0.950 . S
C1079 C1075 1.393 . S
C1079 C1078 1.391 . S
C1080 H1070 0.950 . S
C1080 C1081 1.386 . S
C1080 C1082 1.391 . S
C1081 C1080 1.386 . S
C1081 C1085 1.393 . S
C1082 H1071 0.950 . S
C1082 C1080 1.391 . S
C1082 C1083 1.400 . S
C1083 C1077 1.491 . S
C1083 C1082 1.400 . S
C1083 C1084 1.398 . S
C1084 H1072 0.950 . S
C1084 C1083 1.398 . S
C1084 C1085 1.391 . S
C1085 H1073 0.950 . S
C1085 C1081 1.393 . S
C1085 C1084 1.391 . S
H1086 C1094 0.950 . S
H1087 C1099 0.950 . S
H1088 C1096 0.950 . S
H1089 C1098 0.950 . S
H1090 C1100 0.950 . S
H1091 C1102 0.950 . S
H1092 C1104 0.950 . S
H1093 C1105 0.950 . S
C1094 H1086 0.950 . S
C1094 C1095 1.386 . S
C1094 C1096 1.391 . S
C1095 C1094 1.386 . S
C1095 C1099 1.393 . S
C1096 H1088 0.950 . S
C1096 C1094 1.391 . S
C1096 C1097 1.400 . S
C1097 C1096 1.400 . S
C1097 C1098 1.398 . S
C1097 C1103 1.491 . S
C1098 H1089 0.950 . S
C1098 C1097 1.398 . S
C1098 C1099 1.391 . S
C1099 H1087 0.950 . S
C1099 C1095 1.393 . S
C1099 C1098 1.391 . S
C1100 H1090 0.950 . S
C1100 C1101 1.386 . S
C1100 C1102 1.391 . S
C1101 C1100 1.386 . S
C1101 C1105 1.393 . S
C1102 H1091 0.950 . S
C1102 C1100 1.391 . S
C1102 C1103 1.400 . S
C1103 C1097 1.491 . S
C1103 C1102 1.400 . S
C1103 C1104 1.398 . S
C1104 H1092 0.950 . S
C1104 C1103 1.398 . S
C1104 C1105 1.391 . S
C1105 H1093 0.950 . S
C1105 C1101 1.393 . S
C1105 C1104 1.391 . S
H1106 C1114 0.950 . S
H1107 C1119 0.950 . S
H1108 C1116 0.950 . S
H1109 C1118 0.950 . S
H1110 C1120 0.950 . S
H1111 C1122 0.950 . S
H1112 C1124 0.950 . S
H1113 C1125 0.950 . S
C1114 H1106 0.950 . S
C1114 C1115 1.386 . S
C1114 C1116 1.391 . S
C1115 C1114 1.386 . S
C1115 C1119 1.393 . S
C1116 H1108 0.950 . S
C1116 C1114 1.391 . S
C1116 C1117 1.400 . S
C1117 C1116 1.400 . S
C1117 C1118 1.398 . S
C1117 C1123 1.491 . S
C1118 H1109 0.950 . S
C1118 C1117 1.398 . S
C1118 C1119 1.391 . S
C1119 H1107 0.950 . S
C1119 C1115 1.393 . S
C1119 C1118 1.391 . S
C1120 H1110 0.950 . S
C1120 C1121 1.386 . S
C1120 C1122 1.391 . S
C1121 C1120 1.386 . S
C1121 C1125 1.393 . S
C1122 H1111 0.950 . S
C1122 C1120 1.391 . S
C1122 C1123 1.400 . S
C1123 C1117 1.491 . S
C1123 C1122 1.400 . S
C1123 C1124 1.398 . S
C1124 H1112 0.950 . S
C1124 C1123 1.398 . S
C1124 C1125 1.391 . S
C1125 H1113 0.950 . S
C1125 C1121 1.393 . S
C1125 C1124 1.391 . S
H1126 C1134 0.950 . S
H1127 C1139 0.950 . S
H1128 C1136 0.950 . S
H1129 C1138 0.950 . S
H1130 C1140 0.950 . S
H1131 C1142 0.950 . S
H1132 C1144 0.950 . S
H1133 C1145 0.950 . S
C1134 H1126 0.950 . S
C1134 C1135 1.386 . S
C1134 C1136 1.391 . S
C1135 C1134 1.386 . S
C1135 C1139 1.393 . S
C1136 H1128 0.950 . S
C1136 C1134 1.391 . S
C1136 C1137 1.400 . S
C1137 C1136 1.400 . S
C1137 C1138 1.398 . S
C1137 C1143 1.491 . S
C1138 H1129 0.950 . S
C1138 C1137 1.398 . S
C1138 C1139 1.391 . S
C1139 H1127 0.950 . S
C1139 C1135 1.393 . S
C1139 C1138 1.391 . S
C1140 H1130 0.950 . S
C1140 C1141 1.386 . S
C1140 C1142 1.391 . S
C1141 C1140 1.386 . S
C1141 C1145 1.393 . S
C1142 H1131 0.950 . S
C1142 C1140 1.391 . S
C1142 C1143 1.400 . S
C1143 C1137 1.491 . S
C1143 C1142 1.400 . S
C1143 C1144 1.398 . S
C1144 H1132 0.950 . S
C1144 C1143 1.398 . S
C1144 C1145 1.391 . S
C1145 H1133 0.950 . S
C1145 C1141 1.393 . S
C1145 C1144 1.391 . S
H1146 C1154 0.950 . S
H1147 C1159 0.950 . S
H1148 C1156 0.950 . S
H1149 C1158 0.950 . S
H1150 C1160 0.950 . S
H1151 C1162 0.950 . S
H1152 C1164 0.950 . S
H1153 C1165 0.950 . S
C1154 H1146 0.950 . S
C1154 C1155 1.386 . S
C1154 C1156 1.391 . S
C1155 C1154 1.386 . S
C1155 C1159 1.393 . S
C1156 H1148 0.950 . S
C1156 C1154 1.391 . S
C1156 C1157 1.400 . S
C1157 C1156 1.400 . S
C1157 C1158 1.398 . S
C1157 C1163 1.491 . S
C1158 H1149 0.950 . S
C1158 C1157 1.398 . S
C1158 C1159 1.391 . S
C1159 H1147 0.950 . S
C1159 C1155 1.393 . S
C1159 C1158 1.391 . S
C1160 H1150 0.950 . S
C1160 C1161 1.386 . S
C1160 C1162 1.391 . S
C1161 C1160 1.386 . S
C1161 C1165 1.393 . S
C1162 H1151 0.950 . S
C1162 C1160 1.391 . S
C1162 C1163 1.400 . S
C1163 C1157 1.491 . S
C1163 C1162 1.400 . S
C1163 C1164 1.398 . S
C1164 H1152 0.950 . S
C1164 C1163 1.398 . S
C1164 C1165 1.391 . S
C1165 H1153 0.950 . S
C1165 C1161 1.393 . S
C1165 C1164 1.391 . S
H1166 C1174 0.950 . S
H1167 C1179 0.950 . S
H1168 C1176 0.950 . S
H1169 C1178 0.950 . S
H1170 C1180 0.950 . S
H1171 C1182 0.950 . S
H1172 C1184 0.950 . S
H1173 C1185 0.950 . S
C1174 H1166 0.950 . S
C1174 C1175 1.386 . S
C1174 C1176 1.391 . S
C1175 C1174 1.386 . S
C1175 C1179 1.393 . S
C1176 H1168 0.950 . S
C1176 C1174 1.391 . S
C1176 C1177 1.400 . S
C1177 C1176 1.400 . S
C1177 C1178 1.398 . S
C1177 C1183 1.491 . S
C1178 H1169 0.950 . S
C1178 C1177 1.398 . S
C1178 C1179 1.391 . S
C1179 H1167 0.950 . S
C1179 C1175 1.393 . S
C1179 C1178 1.391 . S
C1180 H1170 0.950 . S
C1180 C1181 1.386 . S
C1180 C1182 1.391 . S
C1181 C1180 1.386 . S
C1181 C1185 1.393 . S
C1182 H1171 0.950 . S
C1182 C1180 1.391 . S
C1182 C1183 1.400 . S
C1183 C1177 1.491 . S
C1183 C1182 1.400 . S
C1183 C1184 1.398 . S
C1184 H1172 0.950 . S
C1184 C1183 1.398 . S
C1184 C1185 1.391 . S
C1185 H1173 0.950 . S
C1185 C1181 1.393 . S
C1185 C1184 1.391 . S
H1186 C1194 0.950 . S
H1187 C1199 0.950 . S
H1188 C1196 0.950 . S
H1189 C1198 0.950 . S
H1190 C1200 0.950 . S
H1191 C1202 0.950 . S
H1192 C1204 0.950 . S
H1193 C1205 0.950 . S
C1194 H1186 0.950 . S
C1194 C1195 1.386 . S
C1194 C1196 1.391 . S
C1195 C1194 1.386 . S
C1195 C1199 1.393 . S
C1196 H1188 0.950 . S
C1196 C1194 1.391 . S
C1196 C1197 1.400 . S
C1197 C1196 1.400 . S
C1197 C1198 1.398 . S
C1197 C1203 1.491 . S
C1198 H1189 0.950 . S
C1198 C1197 1.398 . S
C1198 C1199 1.391 . S
C1199 H1187 0.950 . S
C1199 C1195 1.393 . S
C1199 C1198 1.391 . S
C1200 H1190 0.950 . S
C1200 C1201 1.386 . S
C1200 C1202 1.391 . S
C1201 C1200 1.386 . S
C1201 C1205 1.393 . S
C1202 H1191 0.950 . S
C1202 C1200 1.391 . S
C1202 C1203 1.400 . S
C1203 C1197 1.491 . S
C1203 C1202 1.400 . S
C1203 C1204 1.398 . S
C1204 H1192 0.950 . S
C1204 C1203 1.398 . S
C1204 C1205 1.391 . S
C1205 H1193 0.950 . S
C1205 C1201 1.393 . S
C1205 C1204 1.391 . S
H1206 C1214 0.950 . S
H1207 C1219 0.950 . S
H1208 C1216 0.950 . S
H1209 C1218 0.950 . S
H1210 C1220 0.950 . S
H1211 C1222 0.950 . S
H1212 C1224 0.950 . S
H1213 C1225 0.950 . S
C1214 H1206 0.950 . S
C1214 C1215 1.386 . S
C1214 C1216 1.391 . S
C1215 C1214 1.386 . S
C1215 C1219 1.393 . S
C1216 H1208 0.950 . S
C1216 C1214 1.391 . S
C1216 C1217 1.400 . S
C1217 C1216 1.400 . S
C1217 C1218 1.398 . S
C1217 C1223 1.491 . S
C1218 H1209 0.950 . S
C1218 C1217 1.398 . S
C1218 C1219 1.391 . S
C1219 H1207 0.950 . S
C1219 C1215 1.393 . S
C1219 C1218 1.391 . S
C1220 H1210 0.950 . S
C1220 C1221 1.386 . S
C1220 C1222 1.391 . S
C1221 C1220 1.386 . S
C1221 C1225 1.393 . S
C1222 H1211 0.950 . S
C1222 C1220 1.391 . S
C1222 C1223 1.400 . S
C1223 C1217 1.491 . S
C1223 C1222 1.400 . S
C1223 C1224 1.398 . S
C1224 H1212 0.950 . S
C1224 C1223 1.398 . S
C1224 C1225 1.391 . S
C1225 H1213 0.950 . S
C1225 C1221 1.393 . S
C1225 C1224 1.391 . S
H1226 C1234 0.950 . S
H1227 C1239 0.950 . S
H1228 C1236 0.950 . S
H1229 C1238 0.950 . S
H1230 C1240 0.950 . S
H1231 C1242 0.950 . S
H1232 C1244 0.950 . S
H1233 C1245 0.950 . S
C1234 H1226 0.950 . S
C1234 C1235 1.386 . S
C1234 C1236 1.391 . S
C1235 C1234 1.386 . S
C1235 C1239 1.393 . S
C1236 H1228 0.950 . S
C1236 C1234 1.391 . S
C1236 C1237 1.400 . S
C1237 C1236 1.400 . S
C1237 C1238 1.398 . S
C1237 C1243 1.491 . S
C1238 H1229 0.950 . S
C1238 C1237 1.398 . S
C1238 C1239 1.391 . S
C1239 H1227 0.950 . S
C1239 C1235 1.393 . S
C1239 C1238 1.391 . S
C1240 H1230 0.950 . S
C1240 C1241 1.386 . S
C1240 C1242 1.391 . S
C1241 C1240 1.386 . S
C1241 C1245 1.393 . S
C1242 H1231 0.950 . S
C1242 C1240 1.391 . S
C1242 C1243 1.400 . S
C1243 C1237 1.491 . S
C1243 C1242 1.400 . S
C1243 C1244 1.398 . S
C1244 H1232 0.950 . S
C1244 C1243 1.398 . S
C1244 C1245 1.391 . S
C1245 H1233 0.950 . S
C1245 C1241 1.393 . S
C1245 C1244 1.391 . S
H1246 C1254 0.950 . S
H1247 C1259 0.950 . S
H1248 C1256 0.950 . S
H1249 C1258 0.950 . S
H1250 C1260 0.950 . S
H1251 C1262 0.950 . S
H1252 C1264 0.950 . S
H1253 C1265 0.950 . S
C1254 H1246 0.950 . S
C1254 C1255 1.386 . S
C1254 C1256 1.391 . S
C1255 C1254 1.386 . S
C1255 C1259 1.393 . S
C1256 H1248 0.950 . S
C1256 C1254 1.391 . S
C1256 C1257 1.400 . S
C1257 C1256 1.400 . S
C1257 C1258 1.398 . S
C1257 C1263 1.491 . S
C1258 H1249 0.950 . S
C1258 C1257 1.398 . S
C1258 C1259 1.391 . S
C1259 H1247 0.950 . S
C1259 C1255 1.393 . S
C1259 C1258 1.391 . S
C1260 H1250 0.950 . S
C1260 C1261 1.386 . S
C1260 C1262 1.391 . S
C1261 C1260 1.386 . S
C1261 C1265 1.393 . S
C1262 H1251 0.950 . S
C1262 C1260 1.391 . S
C1262 C1263 1.400 . S
C1263 C1257 1.491 . S
C1263 C1262 1.400 . S
C1263 C1264 1.398 . S
C1264 H1252 0.950 . S
C1264 C1263 1.398 . S
C1264 C1265 1.391 . S
C1265 H1253 0.950 . S
C1265 C1261 1.393 . S
C1265 C1264 1.391 . S
H1266 C1274 0.950 . S
H1267 C1279 0.950 . S
H1268 C1276 0.950 . S
H1269 C1278 0.950 . S
H1270 C1280 0.950 . S
H1271 C1282 0.950 . S
H1272 C1284 0.950 . S
H1273 C1285 0.950 . S
C1274 H1266 0.950 . S
C1274 C1275 1.386 . S
C1274 C1276 1.391 . S
C1275 C1274 1.386 . S
C1275 C1279 1.393 . S
C1276 H1268 0.950 . S
C1276 C1274 1.391 . S
C1276 C1277 1.400 . S
C1277 C1276 1.400 . S
C1277 C1278 1.398 . S
C1277 C1283 1.491 . S
C1278 H1269 0.950 . S
C1278 C1277 1.398 . S
C1278 C1279 1.391 . S
C1279 H1267 0.950 . S
C1279 C1275 1.393 . S
C1279 C1278 1.391 . S
C1280 H1270 0.950 . S
C1280 C1281 1.386 . S
C1280 C1282 1.391 . S
C1281 C1280 1.386 . S
C1281 C1285 1.393 . S
C1282 H1271 0.950 . S
C1282 C1280 1.391 . S
C1282 C1283 1.400 . S
C1283 C1277 1.491 . S
C1283 C1282 1.400 . S
C1283 C1284 1.398 . S
C1284 H1272 0.950 . S
C1284 C1283 1.398 . S
C1284 C1285 1.391 . S
C1285 H1273 0.950 . S
C1285 C1281 1.393 . S
C1285 C1284 1.391 . S
H1286 C1294 0.950 . S
H1287 C1299 0.950 . S
H1288 C1296 0.950 . S
H1289 C1298 0.950 . S
H1290 C1300 0.950 . S
H1291 C1302 0.950 . S
H1292 C1304 0.950 . S
H1293 C1305 0.950 . S
C1294 H1286 0.950 . S
C1294 C1295 1.386 . S
C1294 C1296 1.391 . S
C1295 C1294 1.386 . S
C1295 C1299 1.393 . S
C1296 H1288 0.950 . S
C1296 C1294 1.391 . S
C1296 C1297 1.400 . S
C1297 C1296 1.400 . S
C1297 C1298 1.398 . S
C1297 C1303 1.491 . S
C1298 H1289 0.950 . S
C1298 C1297 1.398 . S
C1298 C1299 1.391 . S
C1299 H1287 0.950 . S
C1299 C1295 1.393 . S
C1299 C1298 1.391 . S
C1300 H1290 0.950 . S
C1300 C1301 1.386 . S
C1300 C1302 1.391 . S
C1301 C1300 1.386 . S
C1301 C1305 1.393 . S
C1302 H1291 0.950 . S
C1302 C1300 1.391 . S
C1302 C1303 1.400 . S
C1303 C1297 1.491 . S
C1303 C1302 1.400 . S
C1303 C1304 1.398 . S
C1304 H1292 0.950 . S
C1304 C1303 1.398 . S
C1304 C1305 1.391 . S
C1305 H1293 0.950 . S
C1305 C1301 1.393 . S
C1305 C1304 1.391 . S
C361 C171 2.132 . S
C355 C19 2.133 . S
C381 C161 1.644 . S
C375 C24 1.588 . S
C401 C162 1.013 . S
C395 C59 0.982 . S
C415 C69 1.415 . S
C421 C184 1.398 . S
C435 C82 1.571 . S
C441 C187 1.656 . S
C461 C170 0.977 . S
C455 C118 1.013 . S
C475 C132 1.413 . S
C481 C160 1.402 . S
C495 C158 2.137 . S
C501 C178 2.140 . S
C521 C191 1.732 . S
C515 C4 1.625 . S
C535 C29 0.962 . S
C541 C240 0.982 . S
C561 C218 1.649 . S
C555 C44 1.572 . S
C581 C232 0.966 . S
C575 C79 0.993 . S
C595 C98 0.977 . S
C601 C193 1.000 . S
C621 C246 1.402 . S
C615 C112 1.384 . S
C635 C122 1.216 . S
C641 C202 1.241 . S
C655 C152 1.335 . S
C661 C223 1.376 . S
C675 C9 1.368 . S
C681 C249 1.391 . S
C695 C92 0.957 . S
C701 C233 0.976 . S
C721 C192 1.643 . S
C715 C102 1.554 . S
C741 C224 0.958 . S
C735 C138 0.983 . S
C755 C142 1.622 . S
C761 C215 1.731 . S
C775 C49 1.412 . S
C781 C222 1.425 . S
C801 C209 1.214 . S
C795 C64 1.206 . S
C815 C39 0.976 . S
C821 C201 1.003 . S
C835 C159 2.137 . S
C841 C264 2.138 . S
C855 C84 1.572 . S
C861 C254 1.655 . S
C881 C255 1.013 . S
C875 C119 0.980 . S
C901 C277 1.417 . S
C895 C129 1.388 . S
C915 C22 1.579 . S
C921 C280 1.650 . S
C941 C263 1.012 . S
C935 C58 0.981 . S
C955 C72 1.399 . S
C961 C253 1.404 . S
C975 C18 2.119 . S
C981 C271 2.139 . S
C995 C144 1.612 . S
C1001 C284 1.715 . S
C1021 C333 0.942 . S
C1015 C89 0.980 . S
C1035 C104 1.576 . S
C1041 C311 1.652 . S
C1055 C139 0.985 . S
C1061 C325 0.958 . S
C1081 C286 0.988 . S
C1075 C38 0.985 . S
C1095 C52 1.404 . S
C1101 C339 1.415 . S
C1121 C295 1.229 . S
C1115 C62 1.220 . S
C1141 C316 1.376 . S
C1135 C12 1.333 . S
C1161 C342 1.382 . S
C1155 C149 1.336 . S
C1175 C32 0.963 . S
C1181 C326 0.946 . S
C1195 C42 1.585 . S
C1201 C285 1.663 . S
C1221 C317 1.000 . S
C1215 C78 1.014 . S
C1235 C2 1.615 . S
C1241 C308 1.711 . S
C1255 C109 1.405 . S
C1261 C315 1.426 . S
C1281 C302 1.239 . S
C1275 C124 1.208 . S
C1301 C294 1.002 . S
C1295 C99 0.988 . S
