# Generated by pormake.
# Topology wbl, (4,4)-cn, num edge types: 1
# Building blocks:
#     Node 0, Type 0, BuildingBlock: MUDLON_clean_sbu_0, # of connection points: 4
#     Node 1, Type 0, BuildingBlock: MUDLON_clean_sbu_0, # of connection points: 4
#     Node 2, Type 0, BuildingBlock: MUDLON_clean_sbu_0, # of connection points: 4
#     Node 3, Type 0, BuildingBlock: MUDLON_clean_sbu_0, # of connection points: 4
#     Node 4, Type 0, BuildingBlock: MUDLON_clean_sbu_0, # of connection points: 4
#     Node 5, Type 0, BuildingBlock: MUDLON_clean_sbu_0, # of connection points: 4
#     Node 6, Type 0, BuildingBlock: MUDLON_clean_sbu_0, # of connection points: 4
#     Node 7, Type 0, BuildingBlock: MUDLON_clean_sbu_0, # of connection points: 4
#     Node 8, Type 1, BuildingBlock: KUFVIS_clean_sbu_0, # of connection points: 4
#     Node 9, Type 1, BuildingBlock: KUFVIS_clean_sbu_0, # of connection points: 4
#     Node 10, Type 1, BuildingBlock: KUFVIS_clean_sbu_0, # of connection points: 4
#     Node 11, Type 1, BuildingBlock: KUFVIS_clean_sbu_0, # of connection points: 4
#     Node 12, Type 1, BuildingBlock: KUFVIS_clean_sbu_0, # of connection points: 4
#     Node 13, Type 1, BuildingBlock: KUFVIS_clean_sbu_0, # of connection points: 4
#     Node 14, Type 1, BuildingBlock: KUFVIS_clean_sbu_0, # of connection points: 4
#     Node 15, Type 1, BuildingBlock: KUFVIS_clean_sbu_0, # of connection points: 4
#     Edge 16, Type (0, 1), BuildingBlock: CIFDUS_clean_linker_0, # of connection points: 2
#     Edge 17, Type (0, 1), BuildingBlock: CIFDUS_clean_linker_0, # of connection points: 2
#     Edge 18, Type (0, 1), BuildingBlock: CIFDUS_clean_linker_0, # of connection points: 2
#     Edge 19, Type (0, 1), BuildingBlock: CIFDUS_clean_linker_0, # of connection points: 2
#     Edge 20, Type (0, 1), BuildingBlock: CIFDUS_clean_linker_0, # of connection points: 2
#     Edge 21, Type (0, 1), BuildingBlock: CIFDUS_clean_linker_0, # of connection points: 2
#     Edge 22, Type (0, 1), BuildingBlock: CIFDUS_clean_linker_0, # of connection points: 2
#     Edge 23, Type (0, 1), BuildingBlock: CIFDUS_clean_linker_0, # of connection points: 2
#     Edge 24, Type (0, 1), BuildingBlock: CIFDUS_clean_linker_0, # of connection points: 2
#     Edge 25, Type (0, 1), BuildingBlock: CIFDUS_clean_linker_0, # of connection points: 2
#     Edge 26, Type (0, 1), BuildingBlock: CIFDUS_clean_linker_0, # of connection points: 2
#     Edge 27, Type (0, 1), BuildingBlock: CIFDUS_clean_linker_0, # of connection points: 2
#     Edge 28, Type (0, 1), BuildingBlock: CIFDUS_clean_linker_0, # of connection points: 2
#     Edge 29, Type (0, 1), BuildingBlock: CIFDUS_clean_linker_0, # of connection points: 2
#     Edge 30, Type (0, 1), BuildingBlock: CIFDUS_clean_linker_0, # of connection points: 2
#     Edge 31, Type (0, 1), BuildingBlock: CIFDUS_clean_linker_0, # of connection points: 2
#     Edge 32, Type (0, 1), BuildingBlock: CIFDUS_clean_linker_0, # of connection points: 2
#     Edge 33, Type (0, 1), BuildingBlock: CIFDUS_clean_linker_0, # of connection points: 2
#     Edge 34, Type (0, 1), BuildingBlock: CIFDUS_clean_linker_0, # of connection points: 2
#     Edge 35, Type (0, 1), BuildingBlock: CIFDUS_clean_linker_0, # of connection points: 2
#     Edge 36, Type (0, 1), BuildingBlock: CIFDUS_clean_linker_0, # of connection points: 2
#     Edge 37, Type (0, 1), BuildingBlock: CIFDUS_clean_linker_0, # of connection points: 2
#     Edge 38, Type (0, 1), BuildingBlock: CIFDUS_clean_linker_0, # of connection points: 2
#     Edge 39, Type (0, 1), BuildingBlock: CIFDUS_clean_linker_0, # of connection points: 2
#     Edge 40, Type (0, 1), BuildingBlock: CIFDUS_clean_linker_0, # of connection points: 2
#     Edge 41, Type (0, 1), BuildingBlock: CIFDUS_clean_linker_0, # of connection points: 2
#     Edge 42, Type (0, 1), BuildingBlock: CIFDUS_clean_linker_0, # of connection points: 2
#     Edge 43, Type (0, 1), BuildingBlock: CIFDUS_clean_linker_0, # of connection points: 2
#     Edge 44, Type (0, 1), BuildingBlock: CIFDUS_clean_linker_0, # of connection points: 2
#     Edge 45, Type (0, 1), BuildingBlock: CIFDUS_clean_linker_0, # of connection points: 2
#     Edge 46, Type (0, 1), BuildingBlock: CIFDUS_clean_linker_0, # of connection points: 2
#     Edge 47, Type (0, 1), BuildingBlock: CIFDUS_clean_linker_0, # of connection points: 2
# Relax obj value: 0.225
# Max RMSD: 0.215
# Mean RMSD: 0.172
data_MOF--net-wbl--node1-MUDLON_clean_sbu_0--node2-KUFVIS_clean_sbu_0--edge1-CIFDUS_clean_linker_0
_symmetry_space_group_name_H-M    P1
_symmetry_Int_Tables_number       1
_symmetry_cell_setting            triclinic
loop_
_symmetry_equiv_pos_as_xyz
'x, y, z'
_cell_length_a     30.744236
_cell_length_b     30.658903
_cell_length_c     65.68891
_cell_angle_alpha  89.987782
_cell_angle_beta   90.376565
_cell_angle_gamma 90.123163
loop_
_atom_site_label
_atom_site_type_symbol
_atom_site_fract_x
_atom_site_fract_y
_atom_site_fract_z
_atom_type_partial_charge
Mg0 Mg 0.01428 0.00961 0.34607 0.0
C1 C 0.04862 0.92991 0.36761 0.0
O2 O 0.08002 0.93164 0.3542 0.0
C3 C 0.95147 0.06248 0.3236 0.0
O4 O 0.98144 0.09035 0.32961 0.0
C5 C 0.07757 0.9842 0.31414 0.0
O6 O 0.04614 0.95572 0.31121 0.0
O7 O 0.07323 0.01284 0.32802 0.0
O8 O 0.01323 0.94972 0.36372 0.0
O9 O 0.00812 0.05464 0.37159 0.0
C10 C 0.97155 0.04637 0.37976 0.0
O11 O 0.94563 0.01843 0.37053 0.0
O12 O 0.95704 0.02221 0.32747 0.0
Mg13 Mg 0.0985 0.53143 0.59944 0.0
C14 C 0.19267 0.53752 0.62226 0.0
O15 O 0.21564 0.52449 0.60662 0.0
C16 C 0.06811 0.46698 0.56828 0.0
O17 O 0.04239 0.50029 0.56463 0.0
C18 C 0.13026 0.60889 0.57533 0.0
O19 O 0.16741 0.5901 0.57989 0.0
O20 O 0.09502 0.59079 0.58104 0.0
O21 O 0.15151 0.54019 0.62089 0.0
O22 O 0.04648 0.52645 0.62184 0.0
C23 C 0.03026 0.48927 0.62597 0.0
O24 O 0.03957 0.45607 0.61416 0.0
O25 O 0.09806 0.47131 0.58161 0.0
Mg26 Mg 0.62887 0.60754 0.853 0.0
C27 C 0.60341 0.68755 0.87563 0.0
O28 O 0.56707 0.67917 0.86573 0.0
C29 C 0.71822 0.60825 0.83268 0.0
O30 O 0.72433 0.6436 0.84365 0.0
C31 C 0.55064 0.57605 0.82925 0.0
O32 O 0.56813 0.53785 0.83311 0.0
O33 O 0.56916 0.61031 0.83584 0.0
O34 O 0.63752 0.66691 0.87063 0.0
O35 O 0.62707 0.55934 0.8771 0.0
C36 C 0.65893 0.56577 0.88915 0.0
O37 O 0.6874 0.59616 0.88451 0.0
O38 O 0.68177 0.58884 0.83337 0.0
Mg39 Mg 0.51586 0.13418 0.0993 0.0
C40 C 0.59311 0.14018 0.13003 0.0
O41 O 0.61716 0.1538 0.11486 0.0
C42 C 0.54726 0.05119 0.07848 0.0
O43 O 0.58182 0.05787 0.08995 0.0
C44 C 0.57302 0.18958 0.0736 0.0
O45 O 0.58891 0.1504 0.07054 0.0
O46 O 0.53926 0.19345 0.08458 0.0
O47 O 0.55471 0.12654 0.12663 0.0
O48 O 0.45326 0.13556 0.11456 0.0
C49 C 0.43239 0.09967 0.11542 0.0
O50 O 0.44109 0.06946 0.10188 0.0
O51 O 0.51628 0.07841 0.07901 0.0
Mg52 Mg 0.13199 0.54323 0.9365 0.0
C53 C 0.10495 0.59108 0.89823 0.0
O54 O 0.07148 0.56462 0.89991 0.0
C55 C 0.06555 0.51646 0.96863 0.0
O56 O 0.09632 0.48868 0.9736 0.0
C57 C 0.1882 0.5947 0.96382 0.0
O58 O 0.15295 0.61864 0.96209 0.0
O59 O 0.1889 0.55767 0.9551 0.0
O60 O 0.13268 0.59258 0.91267 0.0
O61 O 0.13601 0.4857 0.91736 0.0
C62 C 0.10968 0.45366 0.91758 0.0
O63 O 0.08413 0.44814 0.93329 0.0
O64 O 0.07204 0.5432 0.9541 0.0
Mg65 Mg 0.66344 0.65477 0.18961 0.0
C66 C 0.58804 0.65178 0.15641 0.0
O67 O 0.55959 0.64271 0.17062 0.0
C68 C 0.62835 0.56591 0.20319 0.0
O69 O 0.60381 0.57014 0.18689 0.0
C70 C 0.6061 0.71726 0.2112 0.0
O71 O 0.58044 0.6833 0.20883 0.0
O72 O 0.64547 0.71432 0.2055 0.0
O73 O 0.62794 0.65667 0.16101 0.0
O74 O 0.72996 0.65297 0.17863 0.0
C75 C 0.74674 0.61555 0.17579 0.0
O76 O 0.7468 0.58821 0.19117 0.0
O77 O 0.65437 0.59649 0.20803 0.0
Mg78 Mg 0.53891 0.13495 0.43257 0.0
C79 C 0.58115 0.2141 0.41435 0.0
O80 O 0.6139 0.19851 0.42498 0.0
C81 C 0.44504 0.13264 0.45023 0.0
O82 O 0.43702 0.16601 0.43825 0.0
C83 C 0.60205 0.1549 0.46512 0.0
O84 O 0.57285 0.18578 0.46726 0.0
O85 O 0.59649 0.12642 0.45125 0.0
O86 O 0.54335 0.1983 0.41729 0.0
O87 O 0.53243 0.09279 0.40605 0.0
C88 C 0.5026 0.10856 0.39473 0.0
O89 O 0.48185 0.14335 0.40106 0.0
O90 O 0.48335 0.11735 0.45123 0.0
Mg91 Mg 0.09434 0.03579 0.685 0.0
C92 C 0.14441 0.05111 0.64691 0.0
O93 O 0.11777 0.08455 0.64624 0.0
C94 C 0.06567 0.10704 0.71281 0.0
O95 O 0.03923 0.07574 0.71859 0.0
C96 C 0.13762 0.9899 0.71879 0.0
O97 O 0.16047 0.02606 0.71748 0.0
O98 O 0.10448 0.98526 0.70731 0.0
O99 O 0.14586 0.0282 0.66302 0.0
O100 O 0.0387 0.02783 0.665 0.0
C101 C 0.00912 0.05639 0.66287 0.0
O102 O 0.00447 0.08654 0.67685 0.0
O103 O 0.09342 0.0993 0.69902 0.0
Mn104 Mn 0.46674 0.75264 0.02214 0.0
Mn105 Mn 0.51587 0.65542 0.01762 0.0
C106 C 0.47646 0.70938 0.05055 0.0
C107 C 0.47686 0.82737 0.02702 0.0
C108 C 0.42143 0.67137 0.00542 0.0
O109 O 0.49301 0.75536 0.99387 0.0
O110 O 0.53112 0.6927 0.99382 0.0
C111 C 0.60379 0.69122 0.02466 0.0
N112 N 0.5729 0.6608 0.02902 0.0
C113 C 0.61568 0.63254 0.05681 0.0
C114 C 0.64827 0.66307 0.0524 0.0
C115 C 0.64199 0.69296 0.03645 0.0
C116 C 0.57783 0.63303 0.04484 0.0
H117 H 0.59882 0.71461 0.01258 0.0
C118 C 0.51948 0.72884 0.98567 0.0
O119 O 0.44103 0.81255 0.01888 0.0
O120 O 0.50623 0.79901 0.03176 0.0
N121 N 0.5049 0.61575 0.0395 0.0
C122 C 0.46745 0.59412 0.04406 0.0
C123 C 0.46697 0.56493 0.06054 0.0
C124 C 0.50494 0.55826 0.07213 0.0
C125 C 0.54315 0.5807 0.06708 0.0
C126 C 0.54194 0.60866 0.05022 0.0
H127 H 0.43813 0.59925 0.03525 0.0
O128 O 0.44851 0.74092 0.05082 0.0
O129 O 0.49837 0.70521 0.03385 0.0
O130 O 0.41948 0.71119 0.01129 0.0
O131 O 0.45614 0.64823 0.00641 0.0
C132 C 0.58195 0.57756 0.07853 0.0
C133 C 0.61808 0.60374 0.07349 0.0
H134 H 0.67781 0.66453 0.06146 0.0
H135 H 0.66664 0.71719 0.0332 0.0
H136 H 0.43731 0.54783 0.06439 0.0
H137 H 0.50422 0.53629 0.08504 0.0
H138 H 0.58383 0.55635 0.09169 0.0
H139 H 0.64693 0.6028 0.083 0.0
Mn140 Mn 0.3931 0.97473 0.26515 0.0
Mn141 Mn 0.4931 0.01821 0.26111 0.0
C142 C 0.43781 0.98073 0.29368 0.0
C143 C 0.31929 0.98766 0.27092 0.0
C144 C 0.47083 0.92568 0.24773 0.0
O145 O 0.39092 0.00417 0.23722 0.0
O146 O 0.45611 0.03805 0.23798 0.0
C147 C 0.46352 0.10766 0.26986 0.0
N148 N 0.49196 0.07454 0.27347 0.0
C149 C 0.5237 0.11294 0.30186 0.0
C150 C 0.49533 0.14783 0.29813 0.0
C151 C 0.46482 0.14496 0.2822 0.0
C152 C 0.52035 0.07624 0.28926 0.0
H153 H 0.43921 0.10506 0.25801 0.0
C154 C 0.41903 0.03022 0.22972 0.0
O155 O 0.33201 0.95205 0.26198 0.0
O156 O 0.34914 0.01562 0.27573 0.0
N157 N 0.53233 0.00267 0.28266 0.0
C158 C 0.55141 0.96343 0.28651 0.0
C159 C 0.58099 0.9596 0.30279 0.0
C160 C 0.59055 0.99608 0.31496 0.0
C161 C 0.57058 0.03614 0.31068 0.0
C162 C 0.5422 0.03827 0.29395 0.0
H163 H 0.54403 0.9352 0.27729 0.0
O164 O 0.40508 0.95406 0.29376 0.0
O165 O 0.44259 0.00285 0.27705 0.0
O166 O 0.43111 0.92597 0.25351 0.0
O167 O 0.49612 0.95894 0.24901 0.0
C168 C 0.57655 0.0736 0.3228 0.0
C169 C 0.5528 0.11183 0.31852 0.0
H170 H 0.49515 0.17608 0.30797 0.0
H171 H 0.44207 0.17128 0.27958 0.0
H172 H 0.59612 0.92851 0.30604 0.0
H173 H 0.61277 0.99279 0.32773 0.0
H174 H 0.59807 0.07284 0.33592 0.0
H175 H 0.556 0.13958 0.32858 0.0
Mn176 Mn 0.21441 0.91612 0.50064 0.0
Mn177 Mn 0.10581 0.91186 0.50663 0.0
C178 C 0.17039 0.89766 0.47319 0.0
C179 C 0.2747 0.9605 0.49404 0.0
C180 C 0.1674 0.84062 0.52145 0.0
O181 O 0.20523 0.94639 0.52777 0.0
O182 O 0.132 0.95001 0.52811 0.0
C183 C 0.0874 0.00365 0.49589 0.0
N184 N 0.07897 0.96039 0.49343 0.0
C185 C 0.02398 0.97522 0.46818 0.0
C186 C 0.03076 0.02001 0.4711 0.0
C187 C 0.06294 0.03431 0.48484 0.0
C188 C 0.04914 0.94625 0.47974 0.0
H189 H 0.1129 0.01452 0.50607 0.0
C190 C 0.16961 0.95922 0.53548 0.0
O191 O 0.2791 0.92343 0.50348 0.0
O192 O 0.23571 0.97127 0.48854 0.0
N193 N 0.07577 0.87689 0.48688 0.0
C194 C 0.07795 0.83301 0.48378 0.0
C195 C 0.05101 0.8136 0.46899 0.0
C196 C 0.0219 0.8394 0.45767 0.0
C197 C 0.02004 0.88445 0.46121 0.0
C198 C 0.04748 0.90193 0.47624 0.0
H199 H 0.10027 0.81303 0.49242 0.0
O200 O 0.2116 0.88876 0.473 0.0
O201 O 0.1566 0.91821 0.48921 0.0
O202 O 0.20258 0.85672 0.51424 0.0
O203 O 0.13053 0.85977 0.52015 0.0
C204 C 0.99294 0.91286 0.45003 0.0
C205 C 0.99486 0.95823 0.45353 0.0
H206 H 0.01254 0.04365 0.46236 0.0
H207 H 0.06908 0.06883 0.48678 0.0
H208 H 0.05274 0.77883 0.46629 0.0
H209 H 0.00148 0.82435 0.44614 0.0
H210 H 0.97136 0.90028 0.43831 0.0
H211 H 0.97493 0.97987 0.44438 0.0
Mn212 Mn 0.25507 0.69139 0.75708 0.0
Mn213 Mn 0.24713 0.58303 0.76145 0.0
C214 C 0.25658 0.64799 0.7281 0.0
C215 C 0.21771 0.757 0.75442 0.0
C216 C 0.32746 0.63521 0.77351 0.0
O217 O 0.23387 0.68193 0.78611 0.0
O218 O 0.21561 0.61049 0.78471 0.0
C219 C 0.15326 0.57595 0.75268 0.0
N220 N 0.19467 0.56288 0.74897 0.0
C221 C 0.17097 0.51733 0.7212 0.0
C222 C 0.12787 0.52857 0.72541 0.0
C223 C 0.11902 0.55873 0.74093 0.0
C224 C 0.20375 0.53569 0.73336 0.0
H225 H 0.14672 0.60009 0.76422 0.0
C226 C 0.21628 0.64783 0.79362 0.0
O227 O 0.2576 0.75594 0.76115 0.0
O228 O 0.19986 0.72012 0.74961 0.0
N229 N 0.27611 0.55324 0.73978 0.0
C230 C 0.31943 0.55165 0.73556 0.0
C231 C 0.33396 0.52648 0.71911 0.0
C232 C 0.30386 0.50321 0.70714 0.0
C233 C 0.25946 0.50534 0.71175 0.0
C234 C 0.24696 0.53043 0.72854 0.0
H235 H 0.34279 0.56953 0.74462 0.0
O236 O 0.27091 0.68778 0.72732 0.0
O237 O 0.24217 0.63597 0.74567 0.0
O238 O 0.31564 0.67168 0.76591 0.0
O239 O 0.30303 0.60135 0.7739 0.0
C240 C 0.22702 0.4848 0.6999 0.0
C241 C 0.18276 0.4909 0.70459 0.0
H242 H 0.10169 0.51559 0.7162 0.0
H243 H 0.08602 0.56915 0.7437 0.0
H244 H 0.36827 0.52521 0.71559 0.0
H245 H 0.31512 0.48437 0.69427 0.0
H246 H 0.23569 0.46536 0.68678 0.0
H247 H 0.15804 0.4763 0.69492 0.0
Mn248 Mn 0.91484 0.18379 0.52875 0.0
Mn249 Mn 0.91133 0.07359 0.53114 0.0
C250 C 0.9097 0.14867 0.55982 0.0
C251 C 0.95259 0.25017 0.52868 0.0
C252 C 0.83476 0.12821 0.51788 0.0
O253 O 0.93775 0.16593 0.50088 0.0
O254 O 0.93496 0.09258 0.50444 0.0
C255 C 0.0058 0.0569 0.53173 0.0
N256 N 0.96595 0.05136 0.54016 0.0
C257 C 0.99526 0.00507 0.56645 0.0
C258 C 0.03662 0.00973 0.55786 0.0
C259 C 0.04187 0.03629 0.54062 0.0
C260 C 0.96053 0.0268 0.55706 0.0
H261 H 0.00996 0.07719 0.51844 0.0
C262 C 0.94309 0.12721 0.49416 0.0
O263 O 0.91374 0.24659 0.521 0.0
O264 O 0.97024 0.21475 0.53568 0.0
N265 N 0.88892 0.05085 0.5561 0.0
C266 C 0.84801 0.05419 0.56377 0.0
C267 C 0.83786 0.03277 0.58204 0.0
C268 C 0.86971 0.00781 0.59209 0.0
C269 C 0.91149 0.00459 0.5838 0.0
C270 C 0.91967 0.02662 0.56555 0.0
H271 H 0.82344 0.07329 0.55607 0.0
O272 O 0.8967 0.1887 0.55787 0.0
O273 O 0.92479 0.13029 0.54352 0.0
O274 O 0.85313 0.16533 0.52001 0.0
O275 O 0.85353 0.09224 0.52194 0.0
C276 C 0.94562 0.98121 0.59315 0.0
C277 C 0.98746 0.98131 0.58443 0.0
H278 H 0.06468 0.99402 0.56467 0.0
H279 H 0.0736 0.04122 0.53423 0.0
H280 H 0.80557 0.03549 0.58837 0.0
H281 H 0.86183 0.99156 0.60624 0.0
H282 H 0.94029 0.96382 0.60727 0.0
H283 H 0.01372 0.96418 0.59204 0.0
Mn284 Mn 0.96023 0.41203 0.78081 0.0
Mn285 Mn 0.06795 0.41391 0.77404 0.0
C286 C 0.00626 0.4078 0.80888 0.0
C287 C 0.89727 0.45309 0.78503 0.0
C288 C 0.00999 0.3368 0.76312 0.0
O289 O 0.96784 0.43323 0.75155 0.0
O290 O 0.03999 0.44804 0.75159 0.0
C291 C 0.08478 0.50703 0.78209 0.0
N292 N 0.09397 0.46443 0.78584 0.0
C293 C 0.14577 0.4837 0.81195 0.0
C294 C 0.13809 0.52776 0.80782 0.0
C295 C 0.10664 0.53949 0.79322 0.0
C296 C 0.12264 0.45273 0.80057 0.0
H297 H 0.0602 0.51595 0.77104 0.0
C298 C 0.00191 0.44938 0.74341 0.0
O299 O 0.89533 0.41327 0.77823 0.0
O300 O 0.93553 0.46884 0.78885 0.0
N301 N 0.09787 0.38208 0.79496 0.0
C302 C 0.09578 0.33872 0.79945 0.0
C303 C 0.12131 0.32193 0.81541 0.0
C304 C 0.14873 0.34982 0.82659 0.0
C305 C 0.15034 0.39429 0.82172 0.0
C306 C 0.12454 0.40909 0.80548 0.0
H307 H 0.07471 0.31705 0.791 0.0
O308 O 0.96603 0.39542 0.8104 0.0
O309 O 0.01744 0.42211 0.79112 0.0
O310 O 0.97531 0.34997 0.77174 0.0
O311 O 0.04451 0.35992 0.76193 0.0
C312 C 0.17547 0.42473 0.83276 0.0
C313 C 0.17318 0.46945 0.82788 0.0
H314 H 0.15504 0.55256 0.81641 0.0
H315 H 0.09885 0.57338 0.79062 0.0
H316 H 0.11971 0.28758 0.81914 0.0
H317 H 0.16796 0.33684 0.83906 0.0
H318 H 0.19569 0.41426 0.8454 0.0
H319 H 0.19141 0.49276 0.83694 0.0
Mn320 Mn 0.76294 0.4611 0.02743 0.0
Mn321 Mn 0.66767 0.51381 0.03113 0.0
C322 C 0.72083 0.47386 0.99864 0.0
C323 C 0.83801 0.46739 0.02206 0.0
C324 C 0.6797 0.41936 0.04392 0.0
O325 O 0.76688 0.48943 0.05552 0.0
O326 O 0.70446 0.52815 0.05523 0.0
C327 C 0.70666 0.60037 0.02389 0.0
N328 N 0.67553 0.5702 0.01934 0.0
C329 C 0.65135 0.61179 0.99034 0.0
C330 C 0.68227 0.64395 0.99508 0.0
C331 C 0.7105 0.63787 0.01174 0.0
C332 C 0.64944 0.57483 0.00283 0.0
H333 H 0.72885 0.59544 0.03649 0.0
C334 C 0.74034 0.51628 0.0636 0.0
O335 O 0.82174 0.43275 0.03063 0.0
O336 O 0.81102 0.49817 0.01754 0.0
N337 N 0.62894 0.50291 0.00878 0.0
C338 C 0.60628 0.46585 0.0043 0.0
C339 C 0.57834 0.46517 0.98731 0.0
C340 C 0.5741 0.5025 0.97507 0.0
C341 C 0.59769 0.54027 0.98001 0.0
C342 C 0.62421 0.53938 0.99743 0.0
H343 H 0.60957 0.43697 0.01359 0.0
O344 O 0.75004 0.44346 0.99849 0.0
O345 O 0.71735 0.49459 0.01569 0.0
O346 O 0.71943 0.41553 0.03833 0.0
O347 O 0.6581 0.45496 0.04258 0.0
C348 C 0.59723 0.57813 0.96789 0.0
C349 C 0.62438 0.61365 0.97294 0.0
H350 H 0.68537 0.67287 0.98572 0.0
H351 H 0.73508 0.66209 0.01524 0.0
H352 H 0.5604 0.43582 0.98355 0.0
H353 H 0.5532 0.50158 0.96174 0.0
H354 H 0.57736 0.57966 0.95423 0.0
H355 H 0.62538 0.64154 0.96293 0.0
Mn356 Mn 0.69215 0.26751 0.26453 0.0
Mn357 Mn 0.6511 0.16581 0.26788 0.0
C358 C 0.68868 0.22357 0.23586 0.0
C359 C 0.67987 0.3417 0.25918 0.0
C360 C 0.74244 0.18982 0.28188 0.0
O361 O 0.66175 0.26844 0.29205 0.0
O362 O 0.63121 0.20156 0.29131 0.0
C363 C 0.56071 0.19314 0.25977 0.0
N364 N 0.59442 0.16572 0.25592 0.0
C365 C 0.55484 0.13109 0.22866 0.0
C366 C 0.51958 0.15873 0.23247 0.0
C367 C 0.5227 0.1902 0.24792 0.0
C368 C 0.59237 0.1364 0.24058 0.0
H369 H 0.56334 0.21788 0.27139 0.0
C370 C 0.63743 0.2389 0.29959 0.0
O371 O 0.71465 0.32824 0.26863 0.0
O372 O 0.65204 0.31224 0.25359 0.0
N373 N 0.6666 0.12727 0.2462 0.0
C374 C 0.70616 0.1098 0.24183 0.0
C375 C 0.7098 0.08006 0.22568 0.0
C376 C 0.67275 0.06845 0.21426 0.0
C377 C 0.63234 0.08668 0.21911 0.0
C378 C 0.63057 0.11563 0.23558 0.0
H379 H 0.73476 0.1187 0.25051 0.0
O380 O 0.71465 0.25689 0.23641 0.0
O381 O 0.66508 0.21759 0.25195 0.0
O382 O 0.74081 0.23 0.2767 0.0
O383 O 0.71042 0.16336 0.2798 0.0
C384 C 0.59404 0.0784 0.20783 0.0
C385 C 0.55532 0.10075 0.21255 0.0
H386 H 0.49075 0.15752 0.22302 0.0
H387 H 0.49596 0.21231 0.2506 0.0
H388 H 0.74113 0.06626 0.22197 0.0
H389 H 0.67581 0.04598 0.20163 0.0
H390 H 0.5944 0.05616 0.19503 0.0
H391 H 0.52662 0.09568 0.20318 0.0
H392 H 0.14344 0.04327 0.31192 0.0
H393 H 0.1044 0.91573 0.29081 0.0
H394 H 0.17463 0.90629 0.27425 0.0
H395 H 0.24932 0.93244 0.26764 0.0
H396 H 0.28709 0.06059 0.28861 0.0
H397 H 0.21536 0.07159 0.30306 0.0
C398 C 0.15019 0.01352 0.30359 0.0
C399 C 0.11886 0.98016 0.30279 0.0
C400 C 0.19059 0.0083 0.29405 0.0
C401 C 0.12797 0.94198 0.29173 0.0
C402 C 0.16821 0.93646 0.28227 0.0
C403 C 0.24161 0.96295 0.27513 0.0
C404 C 0.27374 0.9954 0.27717 0.0
C405 C 0.20008 0.96915 0.28357 0.0
C406 C 0.26316 0.03484 0.2869 0.0
C407 C 0.22209 0.04123 0.29525 0.0
H408 H 0.20002 0.6563 0.56242 0.0
H409 H 0.05966 0.65802 0.56438 0.0
H410 H 0.05913 0.72958 0.54806 0.0
H411 H 0.09819 0.79181 0.53367 0.0
H412 H 0.23857 0.79054 0.53144 0.0
H413 H 0.23926 0.71857 0.5475 0.0
C414 C 0.16925 0.6722 0.55923 0.0
C415 C 0.1299 0.65166 0.56468 0.0
C416 C 0.16916 0.71351 0.54988 0.0
C417 C 0.09042 0.67291 0.56039 0.0
C418 C 0.09009 0.71393 0.55108 0.0
C419 C 0.12909 0.77603 0.53672 0.0
C420 C 0.16834 0.79695 0.53138 0.0
C421 C 0.12925 0.7346 0.54586 0.0
C422 C 0.20786 0.77546 0.53536 0.0
C423 C 0.20828 0.73423 0.54455 0.0
H424 H 0.51113 0.65002 0.81612 0.0
H425 H 0.49755 0.50978 0.81647 0.0
H426 H 0.42785 0.51588 0.79865 0.0
H427 H 0.37 0.56099 0.78407 0.0
H428 H 0.38374 0.70126 0.78351 0.0
H429 H 0.45457 0.69502 0.80027 0.0
C430 C 0.493 0.62073 0.81228 0.0
C431 C 0.50935 0.5795 0.81776 0.0
C432 C 0.45306 0.62446 0.80203 0.0
C433 C 0.48563 0.54191 0.81249 0.0
C434 C 0.44577 0.54537 0.80233 0.0
C435 C 0.38843 0.59028 0.78758 0.0
C436 C 0.37137 0.63157 0.78267 0.0
C437 C 0.42904 0.58649 0.79721 0.0
C438 C 0.39603 0.66907 0.78712 0.0
C439 C 0.43649 0.66556 0.79675 0.0
H440 H 0.4752 0.02178 0.05819 0.0
H441 H 0.60861 0.98872 0.07218 0.0
H442 H 0.59918 0.91823 0.05554 0.0
H443 H 0.55197 0.86406 0.03965 0.0
H444 H 0.41774 0.89465 0.02655 0.0
H445 H 0.42881 0.96857 0.03995 0.0
C446 C 0.50237 0.99936 0.0574 0.0
C447 C 0.54251 0.01041 0.0666 0.0
C448 C 0.49654 0.95851 0.04804 0.0
C449 C 0.57733 0.98098 0.06539 0.0
C450 C 0.57197 0.94064 0.05588 0.0
C451 C 0.52511 0.88695 0.03952 0.0
C452 C 0.48394 0.87377 0.03229 0.0
C453 C 0.53152 0.92877 0.04756 0.0
C454 C 0.44971 0.90401 0.03204 0.0
C455 C 0.456 0.94615 0.03981 0.0
H456 H 0.26961 0.55924 0.966 0.0
H457 H 0.19509 0.67158 0.98438 0.0
H458 H 0.26026 0.70498 0.99887 0.0
H459 H 0.33875 0.70365 0.00541 0.0
H460 H 0.41364 0.59139 0.98714 0.0
H461 H 0.34809 0.55691 0.97356 0.0
C462 C 0.26755 0.59086 0.97332 0.0
C463 C 0.22745 0.61285 0.97401 0.0
C464 C 0.30533 0.61018 0.98153 0.0
C465 C 0.22547 0.65387 0.98355 0.0
C466 C 0.26279 0.67313 0.99182 0.0
C467 C 0.34087 0.67167 0.99843 0.0
C468 C 0.38132 0.65044 0.99722 0.0
C469 C 0.30298 0.65182 0.9907 0.0
C470 C 0.3831 0.60873 0.98828 0.0
C471 C 0.34556 0.58887 0.98049 0.0
H472 H 0.52179 0.73536 0.21984 0.0
H473 H 0.64967 0.79371 0.21887 0.0
H474 H 0.61892 0.86353 0.2295 0.0
H475 H 0.55575 0.90795 0.2389 0.0
H476 H 0.42792 0.84911 0.23976 0.0
H477 H 0.45878 0.77966 0.22913 0.0
C478 C 0.54307 0.76324 0.22204 0.0
C479 C 0.58805 0.75916 0.21861 0.0
C480 C 0.52515 0.80333 0.22798 0.0
C481 C 0.61498 0.79582 0.22144 0.0
C482 C 0.59739 0.83581 0.22747 0.0
C483 C 0.53448 0.88007 0.23667 0.0
C484 C 0.48943 0.88404 0.24015 0.0
C485 C 0.55248 0.83998 0.23069 0.0
C486 C 0.46264 0.84727 0.23723 0.0
C487 C 0.48028 0.8074 0.23118 0.0
H488 H 0.44992 0.05716 0.47216 0.0
H489 H 0.3586 0.15345 0.45021 0.0
H490 H 0.29824 0.10944 0.46281 0.0
H491 H 0.27119 0.04166 0.47788 0.0
H492 H 0.36184 0.94443 0.49934 0.0
H493 H 0.42279 0.99096 0.48912 0.0
C494 C 0.41686 0.06884 0.47031 0.0
C495 C 0.40889 0.10856 0.4601 0.0
C496 C 0.3822 0.04303 0.47734 0.0
C497 C 0.36578 0.12306 0.45793 0.0
C498 C 0.33119 0.09781 0.46507 0.0
C499 C 0.30428 0.03063 0.48043 0.0
C500 C 0.31195 0.9894 0.4892 0.0
C501 C 0.339 0.0574 0.47443 0.0
C502 C 0.35503 0.9759 0.49256 0.0
C503 C 0.38987 0.0025 0.48669 0.0
H504 H 0.09991 0.9105 0.7237 0.0
H505 H 0.21395 0.98518 0.74025 0.0
H506 H 0.24759 0.92004 0.75471 0.0
H507 H 0.24792 0.8402 0.75906 0.0
H508 H 0.134 0.76602 0.74174 0.0
H509 H 0.09711 0.83259 0.73134 0.0
C510 C 0.13187 0.91271 0.73073 0.0
C511 C 0.15461 0.95248 0.73059 0.0
C512 C 0.15132 0.87505 0.73872 0.0
C513 C 0.19581 0.95486 0.73999 0.0
C514 C 0.2152 0.91757 0.7482 0.0
C515 C 0.21482 0.83873 0.75329 0.0
C516 C 0.19403 0.79818 0.75091 0.0
C517 C 0.1938 0.87721 0.74708 0.0
C518 C 0.15099 0.79679 0.74353 0.0
C519 C 0.12979 0.83485 0.73755 0.0
H520 H 0.71745 0.53167 0.81172 0.0
H521 H 0.80125 0.63903 0.82881 0.0
H522 H 0.86333 0.60169 0.81382 0.0
H523 H 0.89471 0.53634 0.79853 0.0
H524 H 0.81186 0.42769 0.78243 0.0
H525 H 0.74823 0.46812 0.79422 0.0
C526 C 0.74918 0.54718 0.81199 0.0
C527 C 0.75473 0.58797 0.82157 0.0
C528 C 0.78488 0.52523 0.80362 0.0
C529 C 0.79606 0.60759 0.82167 0.0
C530 C 0.83161 0.58622 0.81313 0.0
C531 C 0.86269 0.52157 0.79739 0.0
C532 C 0.85805 0.47888 0.78978 0.0
C533 C 0.82653 0.54466 0.80448 0.0
C534 C 0.81631 0.46042 0.78829 0.0
C535 C 0.77998 0.48348 0.79509 0.0
H536 H 0.5536 0.27554 0.07956 0.0
H537 H 0.64689 0.19084 0.05083 0.0
H538 H 0.68908 0.25393 0.0399 0.0
H539 H 0.69985 0.3334 0.03843 0.0
H540 H 0.60576 0.41805 0.06663 0.0
H541 H 0.56403 0.35494 0.07787 0.0
C542 C 0.58303 0.27087 0.07082 0.0
C543 C 0.5969 0.22842 0.06604 0.0
C544 C 0.60733 0.30738 0.06457 0.0
C545 C 0.63527 0.22308 0.05473 0.0
C546 C 0.65959 0.25919 0.0485 0.0
C547 C 0.67044 0.33804 0.04719 0.0
C548 C 0.65618 0.38049 0.0517 0.0
C549 C 0.64608 0.30151 0.0534 0.0
C550 C 0.6176 0.3858 0.06287 0.0
C551 C 0.59358 0.34969 0.06931 0.0
H552 H 0.92998 0.14648 0.31573 0.0
H553 H 0.88033 0.01499 0.31122 0.0
H554 H 0.81104 0.04288 0.29817 0.0
H555 H 0.76432 0.10471 0.28865 0.0
H556 H 0.81473 0.23605 0.29333 0.0
H557 H 0.88393 0.20788 0.30587 0.0
C558 C 0.90414 0.12379 0.31181 0.0
C559 C 0.9104 0.07868 0.31445 0.0
C560 C 0.8644 0.14002 0.30449 0.0
C561 C 0.87645 0.04986 0.3093 0.0
C562 C 0.83677 0.0658 0.3019 0.0
C563 C 0.79033 0.12727 0.29248 0.0
C564 C 0.78408 0.17254 0.29007 0.0
C565 C 0.83028 0.11086 0.29958 0.0
C566 C 0.81843 0.2011 0.295 0.0
C567 C 0.85812 0.18503 0.30216 0.0
H568 H 0.0044 0.44731 0.54087 0.0
H569 H 0.10723 0.38848 0.57643 0.0
H570 H 0.08288 0.316 0.56576 0.0
H571 H 0.02816 0.26914 0.5489 0.0
H572 H 0.92424 0.32858 0.51427 0.0
H573 H 0.95346 0.40084 0.52189 0.0
C574 C 0.0219 0.41871 0.54611 0.0
C575 C 0.05741 0.42346 0.55959 0.0
C576 C 0.0073 0.3771 0.54018 0.0
C577 C 0.07974 0.38591 0.5661 0.0
C578 C 0.06571 0.34437 0.56006 0.0
C579 C 0.01227 0.29787 0.54277 0.0
C580 C 0.97385 0.29337 0.53114 0.0
C581 C 0.0289 0.33953 0.54749 0.0
C582 C 0.9537 0.33101 0.52334 0.0
C583 C 0.97034 0.37242 0.52773 0.0
H584 H 0.65913 0.0889 0.47134 0.0
H585 H 0.63599 0.22398 0.48601 0.0
H586 H 0.70549 0.22774 0.50416 0.0
H587 H 0.77444 0.19333 0.51465 0.0
H588 H 0.79566 0.05731 0.5008 0.0
H589 H 0.7254 0.05333 0.48374 0.0
C590 C 0.66925 0.11909 0.47858 0.0
C591 C 0.64268 0.15613 0.47721 0.0
C592 C 0.709 0.12094 0.48915 0.0
C593 C 0.6559 0.19493 0.48686 0.0
C594 C 0.69571 0.19718 0.4972 0.0
C595 C 0.76357 0.1628 0.50799 0.0
C596 C 0.79049 0.12584 0.50894 0.0
C597 C 0.72277 0.16049 0.49826 0.0
C598 C 0.77567 0.08635 0.50038 0.0
C599 C 0.73548 0.08398 0.49052 0.0
H600 H 0.99918 0.1395 0.73542 0.0
H601 H 0.12242 0.17454 0.7087 0.0
H602 H 0.11507 0.24866 0.72155 0.0
H603 H 0.07431 0.30308 0.74015 0.0
H604 H 0.95058 0.26992 0.76689 0.0
H605 H 0.95732 0.19532 0.75397 0.0
C606 C 0.02451 0.16332 0.73251 0.0
C607 C 0.06139 0.15148 0.72119 0.0
C608 C 0.01988 0.20614 0.73978 0.0
C609 C 0.09373 0.18279 0.71736 0.0
C610 C 0.08955 0.2252 0.72468 0.0
C611 C 0.04863 0.27971 0.74321 0.0
C612 C 0.01203 0.29216 0.75457 0.0
C613 C 0.05279 0.23717 0.73585 0.0
C614 C 0.97907 0.26131 0.75817 0.0
C615 C 0.983 0.21861 0.75085 0.0
H616 H 0.03412 0.45309 0.99396 0.0
H617 H 0.00066 0.57663 0.96647 0.0
H618 H 0.92885 0.5733 0.98189 0.0
H619 H 0.87454 0.53425 1.00161 0.0
H620 H 0.90509 0.40914 0.02813 0.0
H621 H 0.97935 0.41439 0.01482 0.0
C622 C 0.01123 0.47945 0.99148 0.0
C623 C 0.02283 0.51505 0.979 0.0
C624 C 0.96952 0.47703 1.00019 0.0
C625 C 0.99263 0.54877 0.97589 0.0
C626 C 0.95152 0.54693 0.98472 0.0
C627 C 0.89743 0.50815 0.00469 0.0
C628 C 0.88419 0.47128 0.01587 0.0
C629 C 0.93949 0.51103 0.99668 0.0
C630 C 0.91441 0.43788 0.0196 0.0
C631 C 0.95682 0.44084 0.01193 0.0
H632 H 0.68795 0.53851 0.23135 0.0
H633 H 0.56978 0.49943 0.20041 0.0
H634 H 0.57352 0.42795 0.21661 0.0
H635 H 0.61285 0.37496 0.23739 0.0
H636 H 0.73283 0.41188 0.26725 0.0
H637 H 0.72556 0.48607 0.25382 0.0
C638 C 0.66272 0.51454 0.22835 0.0
C639 C 0.62873 0.52426 0.21459 0.0
C640 C 0.66548 0.4731 0.23744 0.0
C641 C 0.59643 0.49275 0.21082 0.0
C642 C 0.59853 0.45183 0.22007 0.0
C643 C 0.63725 0.39929 0.24118 0.0
C644 C 0.67347 0.38783 0.25323 0.0
C645 C 0.63331 0.44142 0.23308 0.0
C646 C 0.70468 0.41984 0.25798 0.0
C647 C 0.7006 0.46221 0.25025 0.0
H648 H 0.08837 0.86132 0.38652 0.0
H649 H 0.04057 0.99161 0.39643 0.0
H650 H 0.07467 0.99346 0.42991 0.0
H651 H 0.12235 0.96006 0.45545 0.0
H652 H 0.16526 0.82767 0.44781 0.0
H653 H 0.12905 0.82422 0.4144 0.0
C654 C 0.08447 0.88947 0.39633 0.0
C655 C 0.06171 0.92611 0.38914 0.0
C656 C 0.10334 0.8899 0.41592 0.0
C657 C 0.05726 0.96275 0.40179 0.0
C658 C 0.07711 0.964 0.42088 0.0
C659 C 0.12222 0.92993 0.44681 0.0
C660 C 0.14476 0.89363 0.4543 0.0
C661 C 0.10058 0.92799 0.42801 0.0
C662 C 0.14704 0.85565 0.44244 0.0
C663 C 0.12641 0.85372 0.42339 0.0
H664 H 0.15191 0.5661 0.65583 0.0
H665 H 0.28034 0.54575 0.63148 0.0
H666 H 0.3125 0.5782 0.66232 0.0
H667 H 0.30315 0.61524 0.69597 0.0
H668 H 0.17337 0.63592 0.71841 0.0
H669 H 0.14257 0.60143 0.68821 0.0
C670 C 0.18703 0.5686 0.65711 0.0
C671 C 0.21362 0.55373 0.64123 0.0
C672 C 0.20498 0.58792 0.67448 0.0
C673 C 0.25905 0.557 0.64344 0.0
C674 C 0.27742 0.57578 0.66101 0.0
C675 C 0.26824 0.61193 0.69411 0.0
C676 C 0.24038 0.62691 0.70948 0.0
C677 C 0.25062 0.59188 0.67656 0.0
C678 C 0.19523 0.62347 0.70693 0.0
C679 C 0.17763 0.60398 0.68966 0.0
H680 H 0.53662 0.73457 0.89118 0.0
H681 H 0.66459 0.68601 0.90616 0.0
H682 H 0.65213 0.70111 0.94207 0.0
H683 H 0.59936 0.71447 0.96969 0.0
H684 H 0.47145 0.76232 0.95463 0.0
H685 H 0.48927 0.76114 0.91843 0.0
C686 C 0.56216 0.72815 0.90225 0.0
C687 C 0.60103 0.7082 0.896 0.0
C688 C 0.55432 0.73573 0.92298 0.0
C689 C 0.63412 0.70092 0.9105 0.0
C690 C 0.62683 0.70906 0.93114 0.0
C691 C 0.57577 0.72523 0.95843 0.0
C692 C 0.53391 0.73747 0.96467 0.0
C693 C 0.58619 0.7242 0.93763 0.0
C694 C 0.50385 0.75257 0.95012 0.0
C695 C 0.51392 0.75163 0.92942 0.0
H696 H 0.43129 0.14429 0.15135 0.0
H697 H 0.38918 0.02369 0.12357 0.0
H698 H 0.37494 0.9927 0.1571 0.0
H699 H 0.38673 0.99562 0.19441 0.0
H700 H 0.43015 0.11558 0.22179 0.0
H701 H 0.43183 0.15103 0.18848 0.0
C702 C 0.41785 0.11166 0.15255 0.0
C703 C 0.41211 0.08616 0.13492 0.0
C704 C 0.41093 0.09352 0.17191 0.0
C705 C 0.39441 0.04398 0.13687 0.0
C706 C 0.3865 0.02604 0.15608 0.0
C707 C 0.39536 0.02982 0.19306 0.0
C708 C 0.4096 0.05285 0.21035 0.0
C709 C 0.39652 0.04981 0.17374 0.0
C710 C 0.42065 0.09708 0.2085 0.0
C711 C 0.42126 0.11735 0.18949 0.0
H712 H 0.17984 0.63225 0.88703 0.0
H713 H 0.05387 0.59296 0.86402 0.0
H714 H 0.07556 0.61295 0.82957 0.0
H715 H 0.1333 0.63377 0.80541 0.0
H716 H 0.26044 0.66761 0.82815 0.0
H717 H 0.23522 0.65901 0.86325 0.0
C718 C 0.15676 0.62889 0.87457 0.0
C719 C 0.11533 0.61082 0.87817 0.0
C720 C 0.16983 0.6394 0.85468 0.0
C721 C 0.08597 0.60666 0.86175 0.0
C722 C 0.09839 0.61799 0.842 0.0
C723 C 0.15514 0.63948 0.81814 0.0
C724 C 0.19869 0.6503 0.81439 0.0
C725 C 0.14066 0.63312 0.8382 0.0
C726 C 0.22676 0.65896 0.83082 0.0
C727 C 0.21241 0.65375 0.85084 0.0
H728 H 0.50787 0.63778 0.13922 0.0
H729 H 0.63708 0.68515 0.12586 0.0
H730 H 0.61384 0.70571 0.09182 0.0
H731 H 0.55632 0.71402 0.06634 0.0
H732 H 0.42747 0.66608 0.07848 0.0
H733 H 0.45089 0.64185 0.1125 0.0
C734 C 0.53097 0.65224 0.12878 0.0
C735 C 0.57398 0.66034 0.13522 0.0
C736 C 0.51752 0.66374 0.109 0.0
C737 C 0.60367 0.67876 0.12143 0.0
C738 C 0.59045 0.69067 0.10192 0.0
C739 C 0.53379 0.69717 0.07629 0.0
C740 C 0.49085 0.69026 0.06988 0.0
C741 C 0.54746 0.6837 0.09563 0.0
C742 C 0.46107 0.67057 0.08311 0.0
C743 C 0.47442 0.65693 0.10249 0.0
H744 H 0.51882 0.0262 0.37986 0.0
H745 H 0.45969 0.14976 0.36452 0.0
H746 H 0.43456 0.12051 0.33225 0.0
H747 H 0.42812 0.06039 0.30841 0.0
H748 H 0.48456 0.93569 0.32258 0.0
H749 H 0.51207 0.96454 0.35524 0.0
C750 C 0.5008 0.04667 0.36933 0.0
C751 C 0.49091 0.08998 0.37468 0.0
C752 C 0.48598 0.02949 0.35061 0.0
C753 C 0.46734 0.11616 0.36094 0.0
C754 C 0.4529 0.09953 0.34243 0.0
C755 C 0.44688 0.03974 0.3186 0.0
C756 C 0.45566 0.99665 0.31306 0.0
C757 C 0.46185 0.05635 0.33717 0.0
C758 C 0.47838 0.96938 0.32655 0.0
C759 C 0.49399 0.98588 0.34515 0.0
H760 H 0.13748 0.08535 0.60879 0.0
H761 H 0.19149 0.97627 0.64191 0.0
H762 H 0.20781 0.93949 0.60995 0.0
H763 H 0.19839 0.93434 0.57265 0.0
H764 H 0.14642 0.04374 0.53958 0.0
H765 H 0.13711 0.08432 0.57141 0.0
C766 C 0.15365 0.05394 0.60906 0.0
C767 C 0.16271 0.03344 0.62778 0.0
C768 C 0.1624 0.03263 0.59061 0.0
C769 C 0.18387 0.99278 0.62776 0.0
C770 C 0.19303 0.97154 0.60946 0.0
C771 C 0.18576 0.96736 0.5725 0.0
C772 C 0.17141 0.98573 0.55409 0.0
C773 C 0.18115 0.99052 0.59083 0.0
C774 C 0.15566 0.02856 0.55383 0.0
C775 C 0.1509 0.05183 0.57195 0.0
H776 H 0.70386 0.59283 0.92181 0.0
H777 H 0.62306 0.48699 0.90046 0.0
H778 H 0.63458 0.44824 0.93282 0.0
H779 H 0.67064 0.44391 0.96695 0.0
H780 H 0.749 0.55228 0.98745 0.0
H781 H 0.73604 0.59046 0.95549 0.0
C782 C 0.68888 0.56115 0.92413 0.0
C783 C 0.66331 0.54239 0.90869 0.0
C784 C 0.69545 0.53952 0.9426 0.0
C785 C 0.64318 0.50189 0.91214 0.0
C786 C 0.64989 0.47974 0.93058 0.0
C787 C 0.68445 0.47596 0.9643 0.0
C788 C 0.70999 0.49586 0.97949 0.0
C789 C 0.6764 0.49807 0.94586 0.0
C790 C 0.72849 0.53699 0.97601 0.0
C791 C 0.72129 0.55869 0.95775 0.0
H792 H 0.67413 0.1429 0.14759 0.0
H793 H 0.53817 0.1659 0.15955 0.0
H794 H 0.55615 0.19496 0.19295 0.0
H795 H 0.61015 0.21546 0.21863 0.0
H796 H 0.74567 0.18888 0.20866 0.0
H797 H 0.72851 0.15923 0.17475 0.0
C798 C 0.64854 0.15356 0.15771 0.0
C799 C 0.60495 0.15209 0.15113 0.0
C800 C 0.65898 0.16923 0.17731 0.0
C801 C 0.57198 0.16618 0.16432 0.0
C802 C 0.5822 0.18309 0.18341 0.0
C803 C 0.6357 0.20201 0.20922 0.0
C804 C 0.67876 0.20262 0.21626 0.0
C805 C 0.62547 0.18474 0.19006 0.0
C806 C 0.71209 0.18757 0.20359 0.0
C807 C 0.70227 0.17073 0.18427 0.0
H808 H 0.01375 0.10665 0.40428 0.0
H809 H 0.90291 0.01968 0.40195 0.0
H810 H 0.88483 0.03777 0.43668 0.0
H811 H 0.90123 0.07523 0.46828 0.0
H812 H 0.00848 0.16546 0.47179 0.0
H813 H 0.02706 0.14955 0.43611 0.0
C814 C 0.98546 0.09209 0.41135 0.0
C815 C 0.95996 0.06166 0.40044 0.0
C816 C 0.97459 0.10309 0.43157 0.0
C817 C 0.92327 0.04318 0.40984 0.0
C818 C 0.91278 0.0534 0.4298 0.0
C819 C 0.92864 0.0915 0.46119 0.0
C820 C 0.95387 0.12091 0.47255 0.0
C821 C 0.93841 0.08279 0.44084 0.0
C822 C 0.98875 0.14253 0.46322 0.0
C823 C 0.99934 0.13335 0.44289 0.0
H824 H 0.03178 0.54174 0.65958 0.0
H825 H 0.98537 0.41706 0.63789 0.0
H826 H 0.96681 0.39579 0.67256 0.0
H827 H 0.97354 0.40846 0.70949 0.0
H828 H 0.0226 0.53141 0.73137 0.0
H829 H 0.02988 0.55787 0.6963 0.0
C830 C 0.01659 0.51035 0.66235 0.0
C831 C 0.01041 0.48087 0.64614 0.0
C832 C 0.00702 0.49782 0.68245 0.0
C833 C 0.99083 0.44026 0.65008 0.0
C834 C 0.98034 0.42796 0.66994 0.0
C835 C 0.98486 0.44138 0.70649 0.0
C836 C 0.99829 0.46791 0.72279 0.0
C837 C 0.98978 0.45581 0.68631 0.0
C838 C 0.0129 0.5104 0.7189 0.0
C839 C 0.01695 0.52544 0.69889 0.0
H840 H 0.5321 0.21686 0.37969 0.0
H841 H 0.65357 0.26163 0.40555 0.0
H842 H 0.67986 0.28058 0.37167 0.0
H843 H 0.67335 0.27152 0.33439 0.0
H844 H 0.55377 0.22269 0.30879 0.0
H845 H 0.52144 0.21854 0.34269 0.0
C846 C 0.56374 0.23213 0.37801 0.0
C847 C 0.59101 0.23737 0.39513 0.0
C848 C 0.57933 0.24137 0.3584 0.0
C849 C 0.63204 0.25696 0.3926 0.0
C850 C 0.64726 0.26753 0.3732 0.0
C851 C 0.63984 0.26121 0.33627 0.0
C852 C 0.61596 0.24658 0.31929 0.0
C853 C 0.62201 0.25791 0.35591 0.0
C854 C 0.57271 0.23314 0.32182 0.0
C855 C 0.55432 0.23092 0.34116 0.0
H856 H 0.93057 0.09084 0.65171 0.0
H857 H 0.05176 0.04299 0.62761 0.0
H858 H 0.03309 0.07118 0.5942 0.0
H859 H 0.98342 0.11059 0.57185 0.0
H860 H 0.85813 0.15099 0.59363 0.0
H861 H 0.87674 0.12424 0.62791 0.0
C862 C 0.95218 0.0856 0.63896 0.0
C863 C 0.99254 0.0651 0.64217 0.0
C864 C 0.94034 0.10018 0.61938 0.0
C865 C 0.02047 0.05859 0.62559 0.0
C866 C 0.00992 0.07485 0.60645 0.0
C867 C 0.95968 0.11226 0.58396 0.0
C868 C 0.91894 0.13099 0.58019 0.0
C869 C 0.97008 0.0957 0.60319 0.0
C870 C 0.88937 0.13561 0.59622 0.0
C871 C 0.89999 0.12029 0.61573 0.0
H872 H 0.10653 0.49454 0.88161 0.0
H873 H 0.08202 0.36996 0.9097 0.0
H874 H 0.05092 0.34254 0.87753 0.0
H875 H 0.0252 0.3569 0.84201 0.0
H876 H 0.03764 0.48687 0.81785 0.0
H877 H 0.078 0.50992 0.84798 0.0
C878 C 0.09498 0.46115 0.88067 0.0
C879 C 0.09705 0.43407 0.89787 0.0
C880 C 0.07446 0.44695 0.86282 0.0
C881 C 0.08113 0.39119 0.89652 0.0
C882 C 0.06307 0.37571 0.87822 0.0
C883 C 0.03737 0.39 0.84338 0.0
C884 C 0.03102 0.41961 0.8273 0.0
C885 C 0.05868 0.40367 0.86136 0.0
C886 C 0.04468 0.46299 0.82954 0.0
C887 C 0.06722 0.47631 0.84687 0.0
H888 H 0.8074 0.59796 0.14679 0.0
H889 H 0.671 0.58688 0.16022 0.0
H890 H 0.65657 0.55706 0.12638 0.0
H891 H 0.68284 0.53317 0.09321 0.0
H892 H 0.81985 0.53799 0.07995 0.0
H893 H 0.83448 0.56996 0.1136 0.0
C894 C 0.77466 0.58896 0.14217 0.0
C895 C 0.73989 0.59598 0.15555 0.0
C896 C 0.76695 0.57023 0.12287 0.0
C897 C 0.69773 0.58337 0.14975 0.0
C898 C 0.68963 0.56582 0.13054 0.0
C899 C 0.71588 0.54158 0.09763 0.0
C900 C 0.75015 0.53393 0.08407 0.0
C901 C 0.72395 0.55926 0.11696 0.0
C902 C 0.79295 0.5437 0.09017 0.0
C903 C 0.80126 0.56209 0.10936 0.0
loop_
_geom_bond_atom_site_label_1
_geom_bond_atom_site_label_2
_geom_bond_distance
_geom_bond_site_symmetry_2
_ccdc_geom_bond_type
Mg0 O7 2.141 . S
Mg0 O8 2.048 1_545 S
Mg0 O9 2.048 1_455 S
Mg0 O12 2.141 1_455 S
C1 O2 1.313 . S
C1 O8 1.195 . S
O2 C1 1.313 . S
C3 O4 1.245 . S
C3 O12 1.289 . S
O4 C3 1.245 . S
C5 O6 1.245 . S
C5 O7 1.289 1_565 S
O6 C5 1.245 . S
O7 Mg0 2.141 . S
O7 C5 1.289 1_545 S
O8 Mg0 2.048 1_565 S
O8 C1 1.195 . S
O9 Mg0 2.048 1_655 S
O9 C10 1.195 . S
C10 O9 1.195 . S
C10 O11 1.313 1_545 S
O11 C10 1.313 1_565 S
O12 Mg0 2.141 1_655 S
O12 C3 1.289 . S
Mg13 O20 2.141 . S
Mg13 O21 2.048 . S
Mg13 O22 2.048 . S
Mg13 O25 2.141 . S
C14 O15 1.313 . S
C14 O21 1.195 . S
O15 C14 1.313 . S
C16 O17 1.245 . S
C16 O25 1.289 . S
O17 C16 1.245 . S
C18 O19 1.245 . S
C18 O20 1.289 . S
O19 C18 1.245 . S
O20 Mg13 2.141 . S
O20 C18 1.289 . S
O21 Mg13 2.048 . S
O21 C14 1.195 . S
O22 Mg13 2.048 . S
O22 C23 1.195 . S
C23 O22 1.195 . S
C23 O24 1.313 . S
O24 C23 1.313 . S
O25 Mg13 2.141 . S
O25 C16 1.289 . S
Mg26 O33 2.141 . S
Mg26 O34 2.048 . S
Mg26 O35 2.048 . S
Mg26 O38 2.141 . S
C27 O28 1.313 . S
C27 O34 1.195 . S
O28 C27 1.313 . S
C29 O30 1.245 . S
C29 O38 1.289 . S
O30 C29 1.245 . S
C31 O32 1.245 . S
C31 O33 1.289 . S
O32 C31 1.245 . S
O33 Mg26 2.141 . S
O33 C31 1.289 . S
O34 Mg26 2.048 . S
O34 C27 1.195 . S
O35 Mg26 2.048 . S
O35 C36 1.195 . S
C36 O35 1.195 . S
C36 O37 1.313 . S
O37 C36 1.313 . S
O38 Mg26 2.141 . S
O38 C29 1.289 . S
Mg39 O46 2.141 . S
Mg39 O47 2.048 . S
Mg39 O48 2.048 . S
Mg39 O51 2.141 . S
C40 O41 1.313 . S
C40 O47 1.195 . S
O41 C40 1.313 . S
C42 O43 1.245 . S
C42 O51 1.289 . S
O43 C42 1.245 . S
C44 O45 1.245 . S
C44 O46 1.289 . S
O45 C44 1.245 . S
O46 Mg39 2.141 . S
O46 C44 1.289 . S
O47 Mg39 2.048 . S
O47 C40 1.195 . S
O48 Mg39 2.048 . S
O48 C49 1.195 . S
C49 O48 1.195 . S
C49 O50 1.313 . S
O50 C49 1.313 . S
O51 Mg39 2.141 . S
O51 C42 1.289 . S
Mg52 O59 2.141 . S
Mg52 O60 2.048 . S
Mg52 O61 2.048 . S
Mg52 O64 2.141 . S
C53 O54 1.313 . S
C53 O60 1.195 . S
O54 C53 1.313 . S
C55 O56 1.245 . S
C55 O64 1.289 . S
O56 C55 1.245 . S
C57 O58 1.245 . S
C57 O59 1.289 . S
O58 C57 1.245 . S
O59 Mg52 2.141 . S
O59 C57 1.289 . S
O60 Mg52 2.048 . S
O60 C53 1.195 . S
O61 Mg52 2.048 . S
O61 C62 1.195 . S
C62 O61 1.195 . S
C62 O63 1.313 . S
O63 C62 1.313 . S
O64 Mg52 2.141 . S
O64 C55 1.289 . S
Mg65 O72 2.141 . S
Mg65 O73 2.048 . S
Mg65 O74 2.048 . S
Mg65 O77 2.141 . S
C66 O67 1.313 . S
C66 O73 1.195 . S
O67 C66 1.313 . S
C68 O69 1.245 . S
C68 O77 1.289 . S
O69 C68 1.245 . S
C70 O71 1.245 . S
C70 O72 1.289 . S
O71 C70 1.245 . S
O72 Mg65 2.141 . S
O72 C70 1.289 . S
O73 Mg65 2.048 . S
O73 C66 1.195 . S
O74 Mg65 2.048 . S
O74 C75 1.195 . S
C75 O74 1.195 . S
C75 O76 1.313 . S
O76 C75 1.313 . S
O77 Mg65 2.141 . S
O77 C68 1.289 . S
Mg78 O85 2.141 . S
Mg78 O86 2.048 . S
Mg78 O87 2.048 . S
Mg78 O90 2.141 . S
C79 O80 1.313 . S
C79 O86 1.195 . S
O80 C79 1.313 . S
C81 O82 1.245 . S
C81 O90 1.289 . S
O82 C81 1.245 . S
C83 O84 1.245 . S
C83 O85 1.289 . S
O84 C83 1.245 . S
O85 Mg78 2.141 . S
O85 C83 1.289 . S
O86 Mg78 2.048 . S
O86 C79 1.195 . S
O87 Mg78 2.048 . S
O87 C88 1.195 . S
C88 O87 1.195 . S
C88 O89 1.313 . S
O89 C88 1.313 . S
O90 Mg78 2.141 . S
O90 C81 1.289 . S
Mg91 O98 2.141 1_655 S
Mg91 O99 2.048 1_655 S
Mg91 O100 2.048 1_565 S
Mg91 O103 2.141 1_565 S
C92 O93 1.313 . S
C92 O99 1.195 . S
O93 C92 1.313 . S
C94 O95 1.245 1_655 S
C94 O103 1.289 . S
O95 C94 1.245 1_455 S
C96 O97 1.245 . S
C96 O98 1.289 . S
O97 C96 1.245 . S
O98 Mg91 2.141 1_455 S
O98 C96 1.289 . S
O99 Mg91 2.048 1_455 S
O99 C92 1.195 . S
O100 Mg91 2.048 1_545 S
O100 C101 1.195 . S
C101 O100 1.195 . S
C101 O102 1.313 1_655 S
O102 C101 1.313 1_455 S
O103 Mg91 2.141 1_545 S
O103 C94 1.289 . S
Mn104 O109 2.095 1_554 S
Mn104 O119 2.162 . S
Mn104 O120 2.297 . S
Mn104 O128 2.385 . S
Mn104 O129 2.209 . S
Mn104 O130 2.094 . S
Mn105 O110 2.121 1_554 S
Mn105 N112 2.257 . S
Mn105 N121 2.282 . S
Mn105 O129 2.215 . S
Mn105 O131 2.117 1_554 S
C106 O128 1.234 . S
C106 O129 1.283 . S
C107 O119 1.281 . S
C107 O120 1.236 . S
C108 O130 1.240 1_556 S
C108 O131 1.264 . S
O109 Mn104 2.095 1_556 S
O109 C118 1.250 . S
O110 Mn105 2.121 1_556 S
O110 C118 1.258 . S
C111 N112 1.326 . S
C111 C115 1.460 . S
C111 H117 0.929 1_554 S
N112 Mn105 2.257 . S
N112 C111 1.326 . S
N112 C116 1.362 . S
C113 C114 1.258 . S
C113 C116 1.431 . S
C113 C133 1.449 . S
C114 C113 1.258 . S
C114 C115 1.477 . S
C114 H134 0.931 . S
C115 C111 1.460 . S
C115 C114 1.477 . S
C115 H135 0.930 . S
C116 N112 1.362 . S
C116 C113 1.431 . S
C116 C126 1.476 . S
H117 C111 0.929 1_556 S
C118 O109 1.250 . S
C118 O110 1.258 . S
O119 Mn104 2.162 . S
O119 C107 1.281 . S
O120 Mn104 2.297 . S
O120 C107 1.236 . S
N121 Mn105 2.282 . S
N121 C122 1.328 . S
N121 C126 1.318 . S
C122 N121 1.328 . S
C122 C123 1.457 . S
C122 H127 0.929 . S
C123 C122 1.457 . S
C123 C124 1.291 . S
C123 H136 0.931 . S
C124 C123 1.291 . S
C124 C125 1.373 . S
C124 H137 0.929 . S
C125 C124 1.373 . S
C125 C126 1.396 . S
C125 C132 1.403 . S
C126 C116 1.476 . S
C126 N121 1.318 . S
C126 C125 1.396 . S
H127 C122 0.929 . S
O128 Mn104 2.385 . S
O128 C106 1.234 . S
O129 Mn104 2.209 . S
O129 Mn105 2.215 . S
O129 C106 1.283 . S
O130 Mn104 2.094 . S
O130 C108 1.240 1_554 S
O131 Mn105 2.117 1_556 S
O131 C108 1.264 . S
C132 C125 1.403 . S
C132 C133 1.399 . S
C132 H138 0.929 . S
C133 C113 1.449 . S
C133 C132 1.399 . S
C133 H139 0.930 . S
H134 C114 0.931 . S
H135 C115 0.930 . S
H136 C123 0.931 . S
H137 C124 0.929 . S
H138 C132 0.929 . S
H139 C133 0.930 . S
Mn140 O145 2.095 . S
Mn140 O155 2.162 . S
Mn140 O156 2.297 . S
Mn140 O164 2.385 . S
Mn140 O165 2.209 . S
Mn140 O166 2.094 . S
Mn141 O146 2.121 1_565 S
Mn141 N148 2.257 1_565 S
Mn141 N157 2.282 . S
Mn141 O165 2.215 . S
Mn141 O167 2.117 . S
C142 O164 1.234 . S
C142 O165 1.283 . S
C143 O155 1.281 . S
C143 O156 1.236 . S
C144 O166 1.240 . S
C144 O167 1.264 . S
O145 Mn140 2.095 . S
O145 C154 1.250 . S
O146 Mn141 2.121 1_545 S
O146 C154 1.258 1_545 S
C147 N148 1.326 . S
C147 C151 1.460 . S
C147 H153 0.929 . S
N148 Mn141 2.257 1_545 S
N148 C147 1.326 . S
N148 C152 1.362 . S
C149 C150 1.258 . S
C149 C152 1.431 . S
C149 C169 1.449 . S
C150 C149 1.258 . S
C150 C151 1.477 . S
C150 H170 0.931 . S
C151 C147 1.460 . S
C151 C150 1.477 . S
C151 H171 0.930 . S
C152 N148 1.362 . S
C152 C149 1.431 . S
C152 C162 1.476 1_545 S
H153 C147 0.929 . S
C154 O145 1.250 . S
C154 O146 1.258 1_565 S
O155 Mn140 2.162 . S
O155 C143 1.281 . S
O156 Mn140 2.297 . S
O156 C143 1.236 . S
N157 Mn141 2.282 . S
N157 C158 1.328 . S
N157 C162 1.318 . S
C158 N157 1.328 . S
C158 C159 1.457 . S
C158 H163 0.929 . S
C159 C158 1.457 . S
C159 C160 1.291 . S
C159 H172 0.931 . S
C160 C159 1.291 . S
C160 C161 1.373 . S
C160 H173 0.929 . S
C161 C160 1.373 . S
C161 C162 1.396 . S
C161 C168 1.403 1_565 S
C162 C152 1.476 1_565 S
C162 N157 1.318 . S
C162 C161 1.396 . S
H163 C158 0.929 . S
O164 Mn140 2.385 . S
O164 C142 1.234 . S
O165 Mn140 2.209 . S
O165 Mn141 2.215 . S
O165 C142 1.283 . S
O166 Mn140 2.094 . S
O166 C144 1.240 . S
O167 Mn141 2.117 . S
O167 C144 1.264 . S
C168 C161 1.403 1_545 S
C168 C169 1.399 . S
C168 H174 0.929 . S
C169 C149 1.449 . S
C169 C168 1.399 . S
C169 H175 0.930 . S
H170 C150 0.931 . S
H171 C151 0.930 . S
H172 C159 0.931 . S
H173 C160 0.929 . S
H174 C168 0.929 . S
H175 C169 0.930 . S
Mn176 O181 2.095 . S
Mn176 O191 2.162 . S
Mn176 O192 2.297 . S
Mn176 O200 2.385 . S
Mn176 O201 2.209 . S
Mn176 O202 2.094 . S
Mn177 O182 2.121 . S
Mn177 N184 2.257 . S
Mn177 N193 2.282 . S
Mn177 O201 2.215 . S
Mn177 O203 2.117 . S
C178 O200 1.234 . S
C178 O201 1.283 . S
C179 O191 1.281 . S
C179 O192 1.236 . S
C180 O202 1.240 . S
C180 O203 1.264 . S
O181 Mn176 2.095 . S
O181 C190 1.250 . S
O182 Mn177 2.121 . S
O182 C190 1.258 . S
C183 N184 1.326 . S
C183 C187 1.460 . S
C183 H189 0.929 . S
N184 Mn177 2.257 . S
N184 C183 1.326 . S
N184 C188 1.362 . S
C185 C186 1.258 1_455 S
C185 C188 1.431 . S
C185 C205 1.449 1_455 S
C186 C185 1.258 1_655 S
C186 C187 1.477 1_655 S
C186 H206 0.931 . S
C187 C183 1.460 . S
C187 C186 1.477 1_455 S
C187 H207 0.930 . S
C188 N184 1.362 . S
C188 C185 1.431 . S
C188 C198 1.476 . S
H189 C183 0.929 . S
C190 O181 1.250 . S
C190 O182 1.258 . S
O191 Mn176 2.162 . S
O191 C179 1.281 . S
O192 Mn176 2.297 . S
O192 C179 1.236 . S
N193 Mn177 2.282 . S
N193 C194 1.328 . S
N193 C198 1.318 . S
C194 N193 1.328 . S
C194 C195 1.457 . S
C194 H199 0.929 . S
C195 C194 1.457 . S
C195 C196 1.291 . S
C195 H208 0.931 . S
C196 C195 1.291 . S
C196 C197 1.373 . S
C196 H209 0.929 . S
C197 C196 1.373 . S
C197 C198 1.396 . S
C197 C204 1.399 1_455 S
C198 C188 1.476 . S
C198 N193 1.318 . S
C198 C197 1.396 . S
H199 C194 0.929 . S
O200 Mn176 2.385 . S
O200 C178 1.234 . S
O201 Mn176 2.209 . S
O201 Mn177 2.215 . S
O201 C178 1.283 . S
O202 Mn176 2.094 . S
O202 C180 1.240 . S
O203 Mn177 2.117 . S
O203 C180 1.264 . S
C204 C197 1.399 1_655 S
C204 C205 1.401 . S
C204 H210 0.932 . S
C205 C185 1.449 1_655 S
C205 C204 1.401 . S
C205 H211 0.930 . S
H206 C186 0.931 . S
H207 C187 0.930 . S
H208 C195 0.931 . S
H209 C196 0.929 . S
H210 C204 0.932 . S
H211 C205 0.930 . S
Mn212 O217 2.095 . S
Mn212 O227 2.162 . S
Mn212 O228 2.297 . S
Mn212 O236 2.385 . S
Mn212 O237 2.209 . S
Mn212 O238 2.094 . S
Mn213 O218 2.121 . S
Mn213 N220 2.257 . S
Mn213 N229 2.282 . S
Mn213 O237 2.215 . S
Mn213 O239 2.117 . S
C214 O236 1.234 . S
C214 O237 1.283 . S
C215 O227 1.281 . S
C215 O228 1.236 . S
C216 O238 1.240 . S
C216 O239 1.264 . S
O217 Mn212 2.095 . S
O217 C226 1.250 . S
O218 Mn213 2.121 . S
O218 C226 1.258 . S
C219 N220 1.326 . S
C219 C223 1.460 . S
C219 H225 0.929 . S
N220 Mn213 2.257 . S
N220 C219 1.326 . S
N220 C224 1.362 . S
C221 C222 1.258 . S
C221 C224 1.431 . S
C221 C241 1.449 . S
C222 C221 1.258 . S
C222 C223 1.477 . S
C222 H242 0.931 . S
C223 C219 1.460 . S
C223 C222 1.477 . S
C223 H243 0.930 . S
C224 N220 1.362 . S
C224 C221 1.431 . S
C224 C234 1.476 . S
H225 C219 0.929 . S
C226 O217 1.250 . S
C226 O218 1.258 . S
O227 Mn212 2.162 . S
O227 C215 1.281 . S
O228 Mn212 2.297 . S
O228 C215 1.236 . S
N229 Mn213 2.282 . S
N229 C230 1.328 . S
N229 C234 1.318 . S
C230 N229 1.328 . S
C230 C231 1.457 . S
C230 H235 0.929 . S
C231 C230 1.457 . S
C231 C232 1.291 . S
C231 H244 0.931 . S
C232 C231 1.291 . S
C232 C233 1.373 . S
C232 H245 0.929 . S
C233 C232 1.373 . S
C233 C234 1.396 . S
C233 C240 1.403 . S
C234 C224 1.476 . S
C234 N229 1.318 . S
C234 C233 1.396 . S
H235 C230 0.929 . S
O236 Mn212 2.385 . S
O236 C214 1.234 . S
O237 Mn212 2.209 . S
O237 Mn213 2.215 . S
O237 C214 1.283 . S
O238 Mn212 2.094 . S
O238 C216 1.240 . S
O239 Mn213 2.117 . S
O239 C216 1.264 . S
C240 C233 1.403 . S
C240 C241 1.399 . S
C240 H246 0.929 . S
C241 C221 1.449 . S
C241 C240 1.399 . S
C241 H247 0.930 . S
H242 C222 0.931 . S
H243 C223 0.930 . S
H244 C231 0.931 . S
H245 C232 0.929 . S
H246 C240 0.929 . S
H247 C241 0.930 . S
Mn248 O253 2.095 . S
Mn248 O263 2.162 . S
Mn248 O264 2.297 . S
Mn248 O272 2.385 . S
Mn248 O273 2.209 . S
Mn248 O274 2.094 . S
Mn249 O254 2.121 . S
Mn249 N256 2.257 . S
Mn249 N265 2.282 . S
Mn249 O273 2.215 . S
Mn249 O275 2.117 . S
C250 O272 1.234 . S
C250 O273 1.283 . S
C251 O263 1.281 . S
C251 O264 1.236 . S
C252 O274 1.240 . S
C252 O275 1.264 . S
O253 Mn248 2.095 . S
O253 C262 1.250 . S
O254 Mn249 2.121 . S
O254 C262 1.258 . S
C255 N256 1.326 . S
C255 C259 1.460 . S
C255 H261 0.929 . S
N256 Mn249 2.257 . S
N256 C255 1.326 . S
N256 C260 1.362 . S
C257 C258 1.258 1_545 S
C257 C260 1.431 . S
C257 C277 1.449 1_545 S
C258 C257 1.258 1_565 S
C258 C259 1.477 1_565 S
C258 H278 0.931 . S
C259 C255 1.460 . S
C259 C258 1.477 1_545 S
C259 H279 0.930 . S
C260 N256 1.362 . S
C260 C257 1.431 . S
C260 C270 1.476 . S
H261 C255 0.929 . S
C262 O253 1.250 . S
C262 O254 1.258 . S
O263 Mn248 2.162 . S
O263 C251 1.281 . S
O264 Mn248 2.297 . S
O264 C251 1.236 . S
N265 Mn249 2.282 . S
N265 C266 1.328 . S
N265 C270 1.318 . S
C266 N265 1.328 . S
C266 C267 1.457 . S
C266 H271 0.929 . S
C267 C266 1.457 . S
C267 C268 1.291 . S
C267 H280 0.931 . S
C268 C267 1.291 . S
C268 C269 1.373 . S
C268 H281 0.929 . S
C269 C268 1.373 . S
C269 C270 1.396 . S
C269 C276 1.395 1_545 S
C270 C260 1.476 . S
C270 N265 1.318 . S
C270 C269 1.396 . S
H271 C266 0.929 . S
O272 Mn248 2.385 . S
O272 C250 1.234 . S
O273 Mn248 2.209 . S
O273 Mn249 2.215 . S
O273 C250 1.283 . S
O274 Mn248 2.094 . S
O274 C252 1.240 . S
O275 Mn249 2.117 . S
O275 C252 1.264 . S
C276 C269 1.395 1_565 S
C276 C277 1.403 . S
C276 H282 0.933 . S
C277 C257 1.449 1_565 S
C277 C276 1.403 . S
C277 H283 0.930 . S
H278 C258 0.931 . S
H279 C259 0.930 . S
H280 C267 0.931 . S
H281 C268 0.929 . S
H282 C276 0.933 . S
H283 C277 0.930 . S
Mn284 O289 2.095 . S
Mn284 O299 2.162 . S
Mn284 O300 2.297 . S
Mn284 O308 2.385 . S
Mn284 O309 2.209 . S
Mn284 O310 2.094 . S
Mn285 O290 2.121 . S
Mn285 N292 2.257 . S
Mn285 N301 2.282 . S
Mn285 O309 2.215 1_455 S
Mn285 O311 2.117 1_455 S
C286 O308 1.234 . S
C286 O309 1.283 . S
C287 O299 1.281 . S
C287 O300 1.236 . S
C288 O310 1.240 . S
C288 O311 1.264 . S
O289 Mn284 2.095 . S
O289 C298 1.250 . S
O290 Mn285 2.121 . S
O290 C298 1.258 1_455 S
C291 N292 1.326 . S
C291 C295 1.460 . S
C291 H297 0.929 . S
N292 Mn285 2.257 . S
N292 C291 1.326 . S
N292 C296 1.362 . S
C293 C294 1.258 . S
C293 C296 1.431 . S
C293 C313 1.449 . S
C294 C293 1.258 . S
C294 C295 1.477 . S
C294 H314 0.931 . S
C295 C291 1.460 . S
C295 C294 1.477 . S
C295 H315 0.930 . S
C296 N292 1.362 . S
C296 C293 1.431 . S
C296 C306 1.476 . S
H297 C291 0.929 . S
C298 O289 1.250 . S
C298 O290 1.258 1_655 S
O299 Mn284 2.162 . S
O299 C287 1.281 . S
O300 Mn284 2.297 . S
O300 C287 1.236 . S
N301 Mn285 2.282 . S
N301 C302 1.328 . S
N301 C306 1.318 . S
C302 N301 1.328 . S
C302 C303 1.457 . S
C302 H307 0.929 . S
C303 C302 1.457 . S
C303 C304 1.291 . S
C303 H316 0.931 . S
C304 C303 1.291 . S
C304 C305 1.373 . S
C304 H317 0.929 . S
C305 C304 1.373 . S
C305 C306 1.396 . S
C305 C312 1.403 . S
C306 C296 1.476 . S
C306 N301 1.318 . S
C306 C305 1.396 . S
H307 C302 0.929 . S
O308 Mn284 2.385 . S
O308 C286 1.234 . S
O309 Mn284 2.209 . S
O309 Mn285 2.215 1_655 S
O309 C286 1.283 . S
O310 Mn284 2.094 . S
O310 C288 1.240 . S
O311 Mn285 2.117 1_655 S
O311 C288 1.264 . S
C312 C305 1.403 . S
C312 C313 1.399 . S
C312 H318 0.929 . S
C313 C293 1.449 . S
C313 C312 1.399 . S
C313 H319 0.930 . S
H314 C294 0.931 . S
H315 C295 0.930 . S
H316 C303 0.931 . S
H317 C304 0.929 . S
H318 C312 0.929 . S
H319 C313 0.930 . S
Mn320 O325 2.095 . S
Mn320 O335 2.162 . S
Mn320 O336 2.297 . S
Mn320 O344 2.385 1_554 S
Mn320 O345 2.209 . S
Mn320 O346 2.094 . S
Mn321 O326 2.121 . S
Mn321 N328 2.257 . S
Mn321 N337 2.282 . S
Mn321 O345 2.215 . S
Mn321 O347 2.117 . S
C322 O344 1.234 . S
C322 O345 1.283 1_556 S
C323 O335 1.281 . S
C323 O336 1.236 . S
C324 O346 1.240 . S
C324 O347 1.264 . S
O325 Mn320 2.095 . S
O325 C334 1.250 . S
O326 Mn321 2.121 . S
O326 C334 1.258 . S
C327 N328 1.326 . S
C327 C331 1.460 . S
C327 H333 0.929 . S
N328 Mn321 2.257 . S
N328 C327 1.326 . S
N328 C332 1.362 . S
C329 C330 1.258 1_556 S
C329 C332 1.431 1_556 S
C329 C349 1.449 . S
C330 C329 1.258 1_554 S
C330 C331 1.477 . S
C330 H350 0.931 . S
C331 C327 1.460 . S
C331 C330 1.477 . S
C331 H351 0.930 . S
C332 N328 1.362 . S
C332 C329 1.431 1_554 S
C332 C342 1.476 1_554 S
H333 C327 0.929 . S
C334 O325 1.250 . S
C334 O326 1.258 . S
O335 Mn320 2.162 . S
O335 C323 1.281 . S
O336 Mn320 2.297 . S
O336 C323 1.236 . S
N337 Mn321 2.282 . S
N337 C338 1.328 1_554 S
N337 C342 1.318 1_554 S
C338 N337 1.328 1_556 S
C338 C339 1.457 . S
C338 H343 0.920 1_556 S
C339 C338 1.457 . S
C339 C340 1.291 . S
C339 H352 0.931 . S
C340 C339 1.291 . S
C340 C341 1.373 . S
C340 H353 0.929 . S
C341 C340 1.373 . S
C341 C342 1.396 . S
C341 C348 1.403 . S
C342 C332 1.476 1_556 S
C342 N337 1.318 1_556 S
C342 C341 1.396 . S
H343 C338 0.920 1_554 S
O344 Mn320 2.385 1_556 S
O344 C322 1.234 . S
O345 Mn320 2.209 . S
O345 Mn321 2.215 . S
O345 C322 1.283 1_554 S
O346 Mn320 2.094 . S
O346 C324 1.240 . S
O347 Mn321 2.117 . S
O347 C324 1.264 . S
C348 C341 1.403 . S
C348 C349 1.399 . S
C348 H354 0.929 . S
C349 C329 1.449 . S
C349 C348 1.399 . S
C349 H355 0.930 . S
H350 C330 0.931 . S
H351 C331 0.930 . S
H352 C339 0.931 . S
H353 C340 0.929 . S
H354 C348 0.929 . S
H355 C349 0.930 . S
Mn356 O361 2.095 . S
Mn356 O371 2.162 . S
Mn356 O372 2.297 . S
Mn356 O380 2.385 . S
Mn356 O381 2.209 . S
Mn356 O382 2.094 . S
Mn357 O362 2.121 . S
Mn357 N364 2.257 . S
Mn357 N373 2.282 . S
Mn357 O381 2.215 . S
Mn357 O383 2.117 . S
C358 O380 1.234 . S
C358 O381 1.283 . S
C359 O371 1.281 . S
C359 O372 1.236 . S
C360 O382 1.240 . S
C360 O383 1.264 . S
O361 Mn356 2.095 . S
O361 C370 1.250 . S
O362 Mn357 2.121 . S
O362 C370 1.258 . S
C363 N364 1.326 . S
C363 C367 1.460 . S
C363 H369 0.929 . S
N364 Mn357 2.257 . S
N364 C363 1.326 . S
N364 C368 1.362 . S
C365 C366 1.258 . S
C365 C368 1.431 . S
C365 C385 1.449 . S
C366 C365 1.258 . S
C366 C367 1.477 . S
C366 H386 0.931 . S
C367 C363 1.460 . S
C367 C366 1.477 . S
C367 H387 0.930 . S
C368 N364 1.362 . S
C368 C365 1.431 . S
C368 C378 1.476 . S
H369 C363 0.929 . S
C370 O361 1.250 . S
C370 O362 1.258 . S
O371 Mn356 2.162 . S
O371 C359 1.281 . S
O372 Mn356 2.297 . S
O372 C359 1.236 . S
N373 Mn357 2.282 . S
N373 C374 1.328 . S
N373 C378 1.318 . S
C374 N373 1.328 . S
C374 C375 1.457 . S
C374 H379 0.929 . S
C375 C374 1.457 . S
C375 C376 1.291 . S
C375 H388 0.931 . S
C376 C375 1.291 . S
C376 C377 1.373 . S
C376 H389 0.929 . S
C377 C376 1.373 . S
C377 C378 1.396 . S
C377 C384 1.403 . S
C378 C368 1.476 . S
C378 N373 1.318 . S
C378 C377 1.396 . S
H379 C374 0.929 . S
O380 Mn356 2.385 . S
O380 C358 1.234 . S
O381 Mn356 2.209 . S
O381 Mn357 2.215 . S
O381 C358 1.283 . S
O382 Mn356 2.094 . S
O382 C360 1.240 . S
O383 Mn357 2.117 . S
O383 C360 1.264 . S
C384 C377 1.403 . S
C384 C385 1.399 . S
C384 H390 0.929 . S
C385 C365 1.449 . S
C385 C384 1.399 . S
C385 H391 0.930 . S
H386 C366 0.931 . S
H387 C367 0.930 . S
H388 C375 0.931 . S
H389 C376 0.929 . S
H390 C384 0.929 . S
H391 C385 0.930 . S
H392 C398 0.930 . S
H393 C401 0.930 . S
H394 C402 0.930 . S
H395 C403 0.930 . S
H396 C406 0.930 . S
H397 C407 0.930 . S
C398 H392 0.930 . S
C398 C399 1.355 . S
C398 C400 1.415 . S
C399 C398 1.355 . S
C399 C401 1.419 . S
C400 C398 1.415 . S
C400 C405 1.425 . S
C400 C407 1.409 . S
C401 H393 0.930 . S
C401 C399 1.419 . S
C401 C402 1.362 . S
C402 H394 0.930 . S
C402 C401 1.362 . S
C402 C405 1.409 . S
C403 H395 0.930 . S
C403 C404 1.355 . S
C403 C405 1.415 . S
C404 C403 1.355 . S
C404 C406 1.419 . S
C405 C400 1.425 . S
C405 C402 1.409 . S
C405 C403 1.415 . S
C406 H396 0.930 . S
C406 C404 1.419 . S
C406 C407 1.362 . S
C407 H397 0.930 . S
C407 C400 1.409 . S
C407 C406 1.362 . S
H408 C414 0.930 . S
H409 C417 0.930 . S
H410 C418 0.930 . S
H411 C419 0.930 . S
H412 C422 0.930 . S
H413 C423 0.930 . S
C414 H408 0.930 . S
C414 C415 1.355 . S
C414 C416 1.415 . S
C415 C414 1.355 . S
C415 C417 1.419 . S
C416 C414 1.415 . S
C416 C421 1.425 . S
C416 C423 1.409 . S
C417 H409 0.930 . S
C417 C415 1.419 . S
C417 C418 1.362 . S
C418 H410 0.930 . S
C418 C417 1.362 . S
C418 C421 1.409 . S
C419 H411 0.930 . S
C419 C420 1.355 . S
C419 C421 1.415 . S
C420 C419 1.355 . S
C420 C422 1.419 . S
C421 C416 1.425 . S
C421 C418 1.409 . S
C421 C419 1.415 . S
C422 H412 0.930 . S
C422 C420 1.419 . S
C422 C423 1.362 . S
C423 H413 0.930 . S
C423 C416 1.409 . S
C423 C422 1.362 . S
H424 C430 0.930 . S
H425 C433 0.930 . S
H426 C434 0.930 . S
H427 C435 0.930 . S
H428 C438 0.930 . S
H429 C439 0.930 . S
C430 H424 0.930 . S
C430 C431 1.355 . S
C430 C432 1.415 . S
C431 C430 1.355 . S
C431 C433 1.419 . S
C432 C430 1.415 . S
C432 C437 1.425 . S
C432 C439 1.409 . S
C433 H425 0.930 . S
C433 C431 1.419 . S
C433 C434 1.362 . S
C434 H426 0.930 . S
C434 C433 1.362 . S
C434 C437 1.409 . S
C435 H427 0.930 . S
C435 C436 1.355 . S
C435 C437 1.415 . S
C436 C435 1.355 . S
C436 C438 1.419 . S
C437 C432 1.425 . S
C437 C434 1.409 . S
C437 C435 1.415 . S
C438 H428 0.930 . S
C438 C436 1.419 . S
C438 C439 1.362 . S
C439 H429 0.930 . S
C439 C432 1.409 . S
C439 C438 1.362 . S
H440 C446 0.930 . S
H441 C449 0.930 . S
H442 C450 0.930 . S
H443 C451 0.930 . S
H444 C454 0.930 . S
H445 C455 0.930 . S
C446 H440 0.930 . S
C446 C447 1.355 . S
C446 C448 1.415 . S
C447 C446 1.355 . S
C447 C449 1.419 . S
C448 C446 1.415 . S
C448 C453 1.425 . S
C448 C455 1.409 1_545 S
C449 H441 0.930 . S
C449 C447 1.419 . S
C449 C450 1.362 . S
C450 H442 0.930 . S
C450 C449 1.362 . S
C450 C453 1.409 . S
C451 H443 0.930 . S
C451 C452 1.355 . S
C451 C453 1.415 1_565 S
C452 C451 1.355 . S
C452 C454 1.419 . S
C453 C448 1.425 . S
C453 C450 1.409 . S
C453 C451 1.415 1_545 S
C454 H444 0.930 . S
C454 C452 1.419 . S
C454 C455 1.362 . S
C455 H445 0.930 . S
C455 C448 1.409 1_565 S
C455 C454 1.362 . S
H456 C462 0.930 . S
H457 C465 0.930 . S
H458 C466 0.930 . S
H459 C467 0.930 . S
H460 C470 0.930 1_554 S
H461 C471 0.930 . S
C462 H456 0.930 . S
C462 C463 1.355 . S
C462 C464 1.415 . S
C463 C462 1.355 . S
C463 C465 1.419 . S
C464 C462 1.415 . S
C464 C469 1.425 . S
C464 C471 1.409 . S
C465 H457 0.930 . S
C465 C463 1.419 . S
C465 C466 1.362 . S
C466 H458 0.930 . S
C466 C465 1.362 . S
C466 C469 1.409 . S
C467 H459 0.930 . S
C467 C468 1.355 . S
C467 C469 1.415 . S
C468 C467 1.355 . S
C468 C470 1.419 . S
C469 C464 1.425 . S
C469 C466 1.409 . S
C469 C467 1.415 . S
C470 H460 0.930 1_556 S
C470 C468 1.419 . S
C470 C471 1.362 . S
C471 H461 0.930 . S
C471 C464 1.409 . S
C471 C470 1.362 . S
H472 C478 0.930 . S
H473 C481 0.930 . S
H474 C482 0.930 . S
H475 C483 0.930 . S
H476 C486 0.930 . S
H477 C487 0.930 . S
C478 H472 0.930 . S
C478 C479 1.355 . S
C478 C480 1.415 . S
C479 C478 1.355 . S
C479 C481 1.419 . S
C480 C478 1.415 . S
C480 C485 1.425 . S
C480 C487 1.409 . S
C481 H473 0.930 . S
C481 C479 1.419 . S
C481 C482 1.362 . S
C482 H474 0.930 . S
C482 C481 1.362 . S
C482 C485 1.409 . S
C483 H475 0.930 . S
C483 C484 1.355 . S
C483 C485 1.415 . S
C484 C483 1.355 . S
C484 C486 1.419 . S
C485 C480 1.425 . S
C485 C482 1.409 . S
C485 C483 1.415 . S
C486 H476 0.930 . S
C486 C484 1.419 . S
C486 C487 1.362 . S
C487 H477 0.930 . S
C487 C480 1.409 . S
C487 C486 1.362 . S
H488 C494 0.930 . S
H489 C497 0.930 . S
H490 C498 0.930 . S
H491 C499 0.930 . S
H492 C502 0.930 . S
H493 C503 0.930 . S
C494 H488 0.930 . S
C494 C495 1.355 . S
C494 C496 1.416 1_545 S
C495 C494 1.355 . S
C495 C497 1.419 . S
C496 C494 1.416 1_565 S
C496 C501 1.426 1_565 S
C496 C503 1.408 . S
C497 H489 0.930 . S
C497 C495 1.419 . S
C497 C498 1.362 . S
C498 H490 0.930 . S
C498 C497 1.362 . S
C498 C501 1.409 . S
C499 H491 0.930 . S
C499 C500 1.355 . S
C499 C501 1.415 1_565 S
C500 C499 1.355 . S
C500 C502 1.419 . S
C501 C496 1.426 1_545 S
C501 C498 1.409 . S
C501 C499 1.415 1_545 S
C502 H492 0.930 . S
C502 C500 1.419 . S
C502 C503 1.362 . S
C503 H493 0.930 . S
C503 C496 1.408 . S
C503 C502 1.362 . S
H504 C510 0.930 . S
H505 C513 0.930 . S
H506 C514 0.930 . S
H507 C515 0.930 . S
H508 C518 0.930 . S
H509 C519 0.930 . S
C510 H504 0.930 . S
C510 C511 1.355 . S
C510 C512 1.415 . S
C511 C510 1.355 . S
C511 C513 1.419 . S
C512 C510 1.415 . S
C512 C517 1.425 . S
C512 C519 1.409 . S
C513 H505 0.930 . S
C513 C511 1.419 . S
C513 C514 1.362 . S
C514 H506 0.930 . S
C514 C513 1.362 . S
C514 C517 1.409 . S
C515 H507 0.930 . S
C515 C516 1.355 . S
C515 C517 1.415 . S
C516 C515 1.355 . S
C516 C518 1.419 . S
C517 C512 1.425 . S
C517 C514 1.409 . S
C517 C515 1.415 . S
C518 H508 0.930 . S
C518 C516 1.419 . S
C518 C519 1.362 . S
C519 H509 0.930 . S
C519 C512 1.409 . S
C519 C518 1.362 . S
H520 C526 0.930 . S
H521 C529 0.930 . S
H522 C530 0.930 . S
H523 C531 0.930 . S
H524 C534 0.930 . S
H525 C535 0.930 . S
C526 H520 0.930 . S
C526 C527 1.355 . S
C526 C528 1.415 . S
C527 C526 1.355 . S
C527 C529 1.419 . S
C528 C526 1.415 . S
C528 C533 1.425 . S
C528 C535 1.409 . S
C529 H521 0.930 . S
C529 C527 1.419 . S
C529 C530 1.362 . S
C530 H522 0.930 . S
C530 C529 1.362 . S
C530 C533 1.409 . S
C531 H523 0.930 . S
C531 C532 1.355 . S
C531 C533 1.415 . S
C532 C531 1.355 . S
C532 C534 1.419 . S
C533 C528 1.425 . S
C533 C530 1.409 . S
C533 C531 1.415 . S
C534 H524 0.930 . S
C534 C532 1.419 . S
C534 C535 1.362 . S
C535 H525 0.930 . S
C535 C528 1.409 . S
C535 C534 1.362 . S
H536 C542 0.930 . S
H537 C545 0.930 . S
H538 C546 0.930 . S
H539 C547 0.930 . S
H540 C550 0.930 . S
H541 C551 0.930 . S
C542 H536 0.930 . S
C542 C543 1.355 . S
C542 C544 1.415 . S
C543 C542 1.355 . S
C543 C545 1.419 . S
C544 C542 1.415 . S
C544 C549 1.425 . S
C544 C551 1.409 . S
C545 H537 0.930 . S
C545 C543 1.419 . S
C545 C546 1.362 . S
C546 H538 0.930 . S
C546 C545 1.362 . S
C546 C549 1.409 . S
C547 H539 0.930 . S
C547 C548 1.355 . S
C547 C549 1.415 . S
C548 C547 1.355 . S
C548 C550 1.419 . S
C549 C544 1.425 . S
C549 C546 1.409 . S
C549 C547 1.415 . S
C550 H540 0.930 . S
C550 C548 1.419 . S
C550 C551 1.362 . S
C551 H541 0.930 . S
C551 C544 1.409 . S
C551 C550 1.362 . S
H552 C558 0.930 . S
H553 C561 0.930 . S
H554 C562 0.930 . S
H555 C563 0.930 . S
H556 C566 0.930 . S
H557 C567 0.930 . S
C558 H552 0.930 . S
C558 C559 1.355 . S
C558 C560 1.415 . S
C559 C558 1.355 . S
C559 C561 1.419 . S
C560 C558 1.415 . S
C560 C565 1.425 . S
C560 C567 1.409 . S
C561 H553 0.930 . S
C561 C559 1.419 . S
C561 C562 1.362 . S
C562 H554 0.930 . S
C562 C561 1.362 . S
C562 C565 1.409 . S
C563 H555 0.930 . S
C563 C564 1.355 . S
C563 C565 1.415 . S
C564 C563 1.355 . S
C564 C566 1.419 . S
C565 C560 1.425 . S
C565 C562 1.409 . S
C565 C563 1.415 . S
C566 H556 0.930 . S
C566 C564 1.419 . S
C566 C567 1.362 . S
C567 H557 0.930 . S
C567 C560 1.409 . S
C567 C566 1.362 . S
H568 C574 0.930 . S
H569 C577 0.930 . S
H570 C578 0.930 . S
H571 C579 0.930 . S
H572 C582 0.930 . S
H573 C583 0.930 . S
C574 H568 0.930 . S
C574 C575 1.355 . S
C574 C576 1.415 . S
C575 C574 1.355 . S
C575 C577 1.419 . S
C576 C574 1.415 . S
C576 C581 1.425 1_455 S
C576 C583 1.409 . S
C577 H569 0.930 . S
C577 C575 1.419 . S
C577 C578 1.362 1_455 S
C578 H570 0.930 . S
C578 C577 1.362 1_655 S
C578 C581 1.409 . S
C579 H571 0.930 . S
C579 C580 1.355 . S
C579 C581 1.415 . S
C580 C579 1.355 . S
C580 C582 1.419 . S
C581 C576 1.425 1_655 S
C581 C578 1.409 . S
C581 C579 1.415 . S
C582 H572 0.930 . S
C582 C580 1.419 . S
C582 C583 1.362 1_655 S
C583 H573 0.930 . S
C583 C576 1.409 . S
C583 C582 1.362 1_455 S
H584 C590 0.930 . S
H585 C593 0.930 . S
H586 C594 0.930 . S
H587 C595 0.930 . S
H588 C598 0.930 . S
H589 C599 0.930 . S
C590 H584 0.930 . S
C590 C591 1.355 . S
C590 C592 1.415 . S
C591 C590 1.355 . S
C591 C593 1.419 . S
C592 C590 1.415 . S
C592 C597 1.425 . S
C592 C599 1.409 . S
C593 H585 0.930 . S
C593 C591 1.419 . S
C593 C594 1.362 . S
C594 H586 0.930 . S
C594 C593 1.362 . S
C594 C597 1.409 . S
C595 H587 0.930 . S
C595 C596 1.355 . S
C595 C597 1.415 . S
C596 C595 1.355 . S
C596 C598 1.419 . S
C597 C592 1.425 . S
C597 C594 1.409 . S
C597 C595 1.415 . S
C598 H588 0.930 . S
C598 C596 1.419 . S
C598 C599 1.362 . S
C599 H589 0.930 . S
C599 C592 1.409 . S
C599 C598 1.362 . S
H600 C606 0.930 . S
H601 C609 0.930 . S
H602 C610 0.930 . S
H603 C611 0.930 . S
H604 C614 0.930 . S
H605 C615 0.930 . S
C606 H600 0.930 . S
C606 C607 1.355 . S
C606 C608 1.415 . S
C607 C606 1.355 . S
C607 C609 1.419 . S
C608 C606 1.415 . S
C608 C613 1.425 . S
C608 C615 1.409 . S
C609 H601 0.930 . S
C609 C607 1.419 . S
C609 C610 1.362 . S
C610 H602 0.930 . S
C610 C609 1.362 . S
C610 C613 1.409 . S
C611 H603 0.930 . S
C611 C612 1.355 . S
C611 C613 1.415 . S
C612 C611 1.355 . S
C612 C614 1.419 . S
C613 C608 1.425 . S
C613 C610 1.409 . S
C613 C611 1.415 . S
C614 H604 0.930 . S
C614 C612 1.419 . S
C614 C615 1.362 . S
C615 H605 0.930 . S
C615 C608 1.409 . S
C615 C614 1.362 . S
H616 C622 0.930 . S
H617 C625 0.930 . S
H618 C626 0.930 . S
H619 C627 0.930 . S
H620 C630 0.930 . S
H621 C631 0.930 . S
C622 H616 0.930 . S
C622 C623 1.355 . S
C622 C624 1.415 . S
C623 C622 1.355 . S
C623 C625 1.419 . S
C624 C622 1.415 . S
C624 C629 1.425 1_455 S
C624 C631 1.409 1_556 S
C625 H617 0.930 . S
C625 C623 1.419 . S
C625 C626 1.362 1_455 S
C626 H618 0.930 . S
C626 C625 1.362 1_655 S
C626 C629 1.409 . S
C627 H619 0.930 . S
C627 C628 1.355 1_556 S
C627 C629 1.415 . S
C628 C627 1.355 1_554 S
C628 C630 1.419 . S
C629 C624 1.425 1_655 S
C629 C626 1.409 . S
C629 C627 1.415 . S
C630 H620 0.930 . S
C630 C628 1.419 . S
C630 C631 1.362 1_655 S
C631 H621 0.930 . S
C631 C624 1.409 1_554 S
C631 C630 1.362 1_455 S
H632 C638 0.930 . S
H633 C641 0.930 . S
H634 C642 0.930 . S
H635 C643 0.930 . S
H636 C646 0.930 . S
H637 C647 0.930 . S
C638 H632 0.930 . S
C638 C639 1.355 . S
C638 C640 1.415 . S
C639 C638 1.355 . S
C639 C641 1.419 . S
C640 C638 1.415 . S
C640 C645 1.425 . S
C640 C647 1.409 . S
C641 H633 0.930 . S
C641 C639 1.419 . S
C641 C642 1.362 . S
C642 H634 0.930 . S
C642 C641 1.362 . S
C642 C645 1.409 . S
C643 H635 0.930 . S
C643 C644 1.355 . S
C643 C645 1.415 . S
C644 C643 1.355 . S
C644 C646 1.419 . S
C645 C640 1.425 . S
C645 C642 1.409 . S
C645 C643 1.415 . S
C646 H636 0.930 . S
C646 C644 1.419 . S
C646 C647 1.362 . S
C647 H637 0.930 . S
C647 C640 1.409 . S
C647 C646 1.362 . S
H648 C654 0.930 . S
H649 C657 0.930 . S
H650 C658 0.930 . S
H651 C659 0.930 . S
H652 C662 0.930 . S
H653 C663 0.930 . S
C654 H648 0.930 . S
C654 C655 1.355 . S
C654 C656 1.415 . S
C655 C654 1.355 . S
C655 C657 1.419 . S
C656 C654 1.415 . S
C656 C661 1.425 . S
C656 C663 1.409 . S
C657 H649 0.930 . S
C657 C655 1.419 . S
C657 C658 1.362 . S
C658 H650 0.930 . S
C658 C657 1.362 . S
C658 C661 1.409 . S
C659 H651 0.930 . S
C659 C660 1.355 . S
C659 C661 1.415 . S
C660 C659 1.355 . S
C660 C662 1.419 . S
C661 C656 1.425 . S
C661 C658 1.409 . S
C661 C659 1.415 . S
C662 H652 0.930 . S
C662 C660 1.419 . S
C662 C663 1.362 . S
C663 H653 0.930 . S
C663 C656 1.409 . S
C663 C662 1.362 . S
H664 C670 0.930 . S
H665 C673 0.930 . S
H666 C674 0.930 . S
H667 C675 0.930 . S
H668 C678 0.930 . S
H669 C679 0.930 . S
C670 H664 0.930 . S
C670 C671 1.355 . S
C670 C672 1.415 . S
C671 C670 1.355 . S
C671 C673 1.419 . S
C672 C670 1.415 . S
C672 C677 1.425 . S
C672 C679 1.409 . S
C673 H665 0.930 . S
C673 C671 1.419 . S
C673 C674 1.362 . S
C674 H666 0.930 . S
C674 C673 1.362 . S
C674 C677 1.409 . S
C675 H667 0.930 . S
C675 C676 1.355 . S
C675 C677 1.415 . S
C676 C675 1.355 . S
C676 C678 1.419 . S
C677 C672 1.425 . S
C677 C674 1.409 . S
C677 C675 1.415 . S
C678 H668 0.930 . S
C678 C676 1.419 . S
C678 C679 1.362 . S
C679 H669 0.930 . S
C679 C672 1.409 . S
C679 C678 1.362 . S
H680 C686 0.930 . S
H681 C689 0.930 . S
H682 C690 0.930 . S
H683 C691 0.930 . S
H684 C694 0.930 . S
H685 C695 0.930 . S
C686 H680 0.930 . S
C686 C687 1.355 . S
C686 C688 1.415 . S
C687 C686 1.355 . S
C687 C689 1.419 . S
C688 C686 1.415 . S
C688 C693 1.425 . S
C688 C695 1.409 . S
C689 H681 0.930 . S
C689 C687 1.419 . S
C689 C690 1.362 . S
C690 H682 0.930 . S
C690 C689 1.362 . S
C690 C693 1.409 . S
C691 H683 0.930 . S
C691 C692 1.355 . S
C691 C693 1.415 . S
C692 C691 1.355 . S
C692 C694 1.419 . S
C693 C688 1.425 . S
C693 C690 1.409 . S
C693 C691 1.415 . S
C694 H684 0.930 . S
C694 C692 1.419 . S
C694 C695 1.362 . S
C695 H685 0.930 . S
C695 C688 1.409 . S
C695 C694 1.362 . S
H696 C702 0.930 . S
H697 C705 0.930 . S
H698 C706 0.930 . S
H699 C707 0.930 . S
H700 C710 0.930 . S
H701 C711 0.930 . S
C702 H696 0.930 . S
C702 C703 1.355 . S
C702 C704 1.415 . S
C703 C702 1.355 . S
C703 C705 1.419 . S
C704 C702 1.415 . S
C704 C709 1.425 . S
C704 C711 1.409 . S
C705 H697 0.930 . S
C705 C703 1.419 . S
C705 C706 1.362 . S
C706 H698 0.930 . S
C706 C705 1.362 . S
C706 C709 1.409 . S
C707 H699 0.930 . S
C707 C708 1.355 . S
C707 C709 1.415 . S
C708 C707 1.355 . S
C708 C710 1.419 . S
C709 C704 1.425 . S
C709 C706 1.409 . S
C709 C707 1.415 . S
C710 H700 0.930 . S
C710 C708 1.419 . S
C710 C711 1.362 . S
C711 H701 0.930 . S
C711 C704 1.409 . S
C711 C710 1.362 . S
H712 C718 0.930 . S
H713 C721 0.930 . S
H714 C722 0.930 . S
H715 C723 0.930 . S
H716 C726 0.930 . S
H717 C727 0.930 . S
C718 H712 0.930 . S
C718 C719 1.355 . S
C718 C720 1.415 . S
C719 C718 1.355 . S
C719 C721 1.419 . S
C720 C718 1.415 . S
C720 C725 1.425 . S
C720 C727 1.409 . S
C721 H713 0.930 . S
C721 C719 1.419 . S
C721 C722 1.362 . S
C722 H714 0.930 . S
C722 C721 1.362 . S
C722 C725 1.409 . S
C723 H715 0.930 . S
C723 C724 1.355 . S
C723 C725 1.415 . S
C724 C723 1.355 . S
C724 C726 1.419 . S
C725 C720 1.425 . S
C725 C722 1.409 . S
C725 C723 1.415 . S
C726 H716 0.930 . S
C726 C724 1.419 . S
C726 C727 1.362 . S
C727 H717 0.930 . S
C727 C720 1.409 . S
C727 C726 1.362 . S
H728 C734 0.930 . S
H729 C737 0.930 . S
H730 C738 0.930 . S
H731 C739 0.930 . S
H732 C742 0.930 . S
H733 C743 0.930 . S
C734 H728 0.930 . S
C734 C735 1.355 . S
C734 C736 1.415 . S
C735 C734 1.355 . S
C735 C737 1.419 . S
C736 C734 1.415 . S
C736 C741 1.425 . S
C736 C743 1.409 . S
C737 H729 0.930 . S
C737 C735 1.419 . S
C737 C738 1.362 . S
C738 H730 0.930 . S
C738 C737 1.362 . S
C738 C741 1.409 . S
C739 H731 0.930 . S
C739 C740 1.355 . S
C739 C741 1.415 . S
C740 C739 1.355 . S
C740 C742 1.419 . S
C741 C736 1.425 . S
C741 C738 1.409 . S
C741 C739 1.415 . S
C742 H732 0.930 . S
C742 C740 1.419 . S
C742 C743 1.362 . S
C743 H733 0.930 . S
C743 C736 1.409 . S
C743 C742 1.362 . S
H744 C750 0.930 . S
H745 C753 0.930 . S
H746 C754 0.930 . S
H747 C755 0.930 1_565 S
H748 C758 0.930 . S
H749 C759 0.930 . S
C750 H744 0.930 . S
C750 C751 1.355 . S
C750 C752 1.415 . S
C751 C750 1.355 . S
C751 C753 1.419 . S
C752 C750 1.415 . S
C752 C757 1.425 . S
C752 C759 1.409 . S
C753 H745 0.930 . S
C753 C751 1.419 . S
C753 C754 1.362 . S
C754 H746 0.930 . S
C754 C753 1.362 . S
C754 C757 1.409 . S
C755 H747 0.930 1_545 S
C755 C756 1.355 1_545 S
C755 C757 1.415 . S
C756 C755 1.355 1_565 S
C756 C758 1.419 1_565 S
C757 C752 1.425 . S
C757 C754 1.409 . S
C757 C755 1.415 . S
C758 H748 0.930 . S
C758 C756 1.419 1_545 S
C758 C759 1.362 . S
C759 H749 0.930 . S
C759 C752 1.409 . S
C759 C758 1.362 . S
H760 C766 0.930 . S
H761 C769 0.930 . S
H762 C770 0.930 . S
H763 C771 0.930 . S
H764 C774 0.930 . S
H765 C775 0.930 . S
C766 H760 0.930 . S
C766 C767 1.355 . S
C766 C768 1.415 . S
C767 C766 1.355 . S
C767 C769 1.419 . S
C768 C766 1.415 . S
C768 C773 1.425 . S
C768 C775 1.409 . S
C769 H761 0.930 . S
C769 C767 1.419 . S
C769 C770 1.362 . S
C770 H762 0.930 . S
C770 C769 1.362 . S
C770 C773 1.409 . S
C771 H763 0.930 . S
C771 C772 1.355 . S
C771 C773 1.415 . S
C772 C771 1.355 . S
C772 C774 1.419 . S
C773 C768 1.425 . S
C773 C770 1.409 . S
C773 C771 1.415 . S
C774 H764 0.930 . S
C774 C772 1.419 . S
C774 C775 1.362 . S
C775 H765 0.930 . S
C775 C768 1.409 . S
C775 C774 1.362 . S
H776 C782 0.930 . S
H777 C785 0.930 . S
H778 C786 0.930 . S
H779 C787 0.930 . S
H780 C790 0.930 . S
H781 C791 0.930 . S
C782 H776 0.930 . S
C782 C783 1.355 . S
C782 C784 1.415 . S
C783 C782 1.355 . S
C783 C785 1.419 . S
C784 C782 1.415 . S
C784 C789 1.425 . S
C784 C791 1.409 . S
C785 H777 0.930 . S
C785 C783 1.419 . S
C785 C786 1.362 . S
C786 H778 0.930 . S
C786 C785 1.362 . S
C786 C789 1.409 . S
C787 H779 0.930 . S
C787 C788 1.355 . S
C787 C789 1.415 . S
C788 C787 1.355 . S
C788 C790 1.419 . S
C789 C784 1.425 . S
C789 C786 1.409 . S
C789 C787 1.415 . S
C790 H780 0.930 . S
C790 C788 1.419 . S
C790 C791 1.362 . S
C791 H781 0.930 . S
C791 C784 1.409 . S
C791 C790 1.362 . S
H792 C798 0.930 . S
H793 C801 0.930 . S
H794 C802 0.930 . S
H795 C803 0.930 . S
H796 C806 0.930 . S
H797 C807 0.930 . S
C798 H792 0.930 . S
C798 C799 1.355 . S
C798 C800 1.415 . S
C799 C798 1.355 . S
C799 C801 1.419 . S
C800 C798 1.415 . S
C800 C805 1.425 . S
C800 C807 1.409 . S
C801 H793 0.930 . S
C801 C799 1.419 . S
C801 C802 1.362 . S
C802 H794 0.930 . S
C802 C801 1.362 . S
C802 C805 1.409 . S
C803 H795 0.930 . S
C803 C804 1.355 . S
C803 C805 1.415 . S
C804 C803 1.355 . S
C804 C806 1.419 . S
C805 C800 1.425 . S
C805 C802 1.409 . S
C805 C803 1.415 . S
C806 H796 0.930 . S
C806 C804 1.419 . S
C806 C807 1.362 . S
C807 H797 0.930 . S
C807 C800 1.409 . S
C807 C806 1.362 . S
H808 C814 0.930 . S
H809 C817 0.930 . S
H810 C818 0.930 . S
H811 C819 0.930 . S
H812 C822 0.930 . S
H813 C823 0.930 . S
C814 H808 0.930 . S
C814 C815 1.355 . S
C814 C816 1.415 . S
C815 C814 1.355 . S
C815 C817 1.419 . S
C816 C814 1.415 . S
C816 C821 1.425 . S
C816 C823 1.409 . S
C817 H809 0.930 . S
C817 C815 1.419 . S
C817 C818 1.362 . S
C818 H810 0.930 . S
C818 C817 1.362 . S
C818 C821 1.409 . S
C819 H811 0.930 . S
C819 C820 1.355 . S
C819 C821 1.415 . S
C820 C819 1.355 . S
C820 C822 1.419 . S
C821 C816 1.425 . S
C821 C818 1.409 . S
C821 C819 1.415 . S
C822 H812 0.930 . S
C822 C820 1.419 . S
C822 C823 1.362 . S
C823 H813 0.930 . S
C823 C816 1.409 . S
C823 C822 1.362 . S
H824 C830 0.930 . S
H825 C833 0.930 . S
H826 C834 0.930 1_655 S
H827 C835 0.930 . S
H828 C838 0.930 . S
H829 C839 0.930 . S
C830 H824 0.930 . S
C830 C831 1.355 . S
C830 C832 1.415 . S
C831 C830 1.355 . S
C831 C833 1.419 . S
C832 C830 1.415 . S
C832 C837 1.425 . S
C832 C839 1.409 . S
C833 H825 0.930 . S
C833 C831 1.419 . S
C833 C834 1.362 . S
C834 H826 0.930 1_455 S
C834 C833 1.362 . S
C834 C837 1.409 . S
C835 H827 0.930 . S
C835 C836 1.355 . S
C835 C837 1.415 1_655 S
C836 C835 1.355 . S
C836 C838 1.419 1_655 S
C837 C832 1.425 . S
C837 C834 1.409 . S
C837 C835 1.415 1_455 S
C838 H828 0.930 . S
C838 C836 1.419 1_455 S
C838 C839 1.362 . S
C839 H829 0.930 . S
C839 C832 1.409 . S
C839 C838 1.362 . S
H840 C846 0.930 . S
H841 C849 0.930 . S
H842 C850 0.930 . S
H843 C851 0.930 . S
H844 C854 0.930 . S
H845 C855 0.930 . S
C846 H840 0.930 . S
C846 C847 1.355 . S
C846 C848 1.415 . S
C847 C846 1.355 . S
C847 C849 1.419 . S
C848 C846 1.415 . S
C848 C853 1.425 . S
C848 C855 1.409 . S
C849 H841 0.930 . S
C849 C847 1.419 . S
C849 C850 1.362 . S
C850 H842 0.930 . S
C850 C849 1.362 . S
C850 C853 1.409 . S
C851 H843 0.930 . S
C851 C852 1.355 . S
C851 C853 1.415 . S
C852 C851 1.355 . S
C852 C854 1.419 . S
C853 C848 1.425 . S
C853 C850 1.409 . S
C853 C851 1.415 . S
C854 H844 0.930 . S
C854 C852 1.419 . S
C854 C855 1.362 . S
C855 H845 0.930 . S
C855 C848 1.409 . S
C855 C854 1.362 . S
H856 C862 0.930 . S
H857 C865 0.930 . S
H858 C866 0.930 . S
H859 C867 0.930 . S
H860 C870 0.930 . S
H861 C871 0.930 . S
C862 H856 0.930 . S
C862 C863 1.355 . S
C862 C864 1.415 . S
C863 C862 1.355 . S
C863 C865 1.419 . S
C864 C862 1.415 . S
C864 C869 1.425 . S
C864 C871 1.409 . S
C865 H857 0.930 . S
C865 C863 1.419 . S
C865 C866 1.362 . S
C866 H858 0.930 . S
C866 C865 1.362 . S
C866 C869 1.409 . S
C867 H859 0.930 . S
C867 C868 1.355 . S
C867 C869 1.415 . S
C868 C867 1.355 . S
C868 C870 1.419 . S
C869 C864 1.425 . S
C869 C866 1.409 . S
C869 C867 1.415 . S
C870 H860 0.930 . S
C870 C868 1.419 . S
C870 C871 1.362 . S
C871 H861 0.930 . S
C871 C864 1.409 . S
C871 C870 1.362 . S
H872 C878 0.930 . S
H873 C881 0.930 . S
H874 C882 0.930 . S
H875 C883 0.930 . S
H876 C886 0.930 . S
H877 C887 0.930 . S
C878 H872 0.930 . S
C878 C879 1.355 . S
C878 C880 1.415 . S
C879 C878 1.355 . S
C879 C881 1.419 . S
C880 C878 1.415 . S
C880 C885 1.425 . S
C880 C887 1.409 1_455 S
C881 H873 0.930 . S
C881 C879 1.419 . S
C881 C882 1.362 . S
C882 H874 0.930 . S
C882 C881 1.362 . S
C882 C885 1.409 . S
C883 H875 0.930 . S
C883 C884 1.355 . S
C883 C885 1.415 . S
C884 C883 1.355 . S
C884 C886 1.419 1_455 S
C885 C880 1.425 . S
C885 C882 1.409 . S
C885 C883 1.415 . S
C886 H876 0.930 . S
C886 C884 1.419 1_655 S
C886 C887 1.362 . S
C887 H877 0.930 . S
C887 C880 1.409 1_655 S
C887 C886 1.362 . S
H888 C894 0.930 . S
H889 C897 0.930 . S
H890 C898 0.930 . S
H891 C899 0.930 . S
H892 C902 0.930 . S
H893 C903 0.930 . S
C894 H888 0.930 . S
C894 C895 1.355 . S
C894 C896 1.415 . S
C895 C894 1.355 . S
C895 C897 1.419 . S
C896 C894 1.415 . S
C896 C901 1.425 . S
C896 C903 1.409 . S
C897 H889 0.930 . S
C897 C895 1.419 . S
C897 C898 1.362 . S
C898 H890 0.930 . S
C898 C897 1.362 . S
C898 C901 1.409 . S
C899 H891 0.930 . S
C899 C900 1.355 . S
C899 C901 1.415 . S
C900 C899 1.355 . S
C900 C902 1.419 . S
C901 C896 1.425 . S
C901 C898 1.409 . S
C901 C899 1.415 . S
C902 H892 0.930 . S
C902 C900 1.419 . S
C902 C903 1.362 . S
C903 H893 0.930 . S
C903 C896 1.409 . S
C903 C902 1.362 . S
C404 C143 1.306 . S
C399 C5 1.339 . S
C420 C180 1.318 . S
C415 C18 1.336 . S
C436 C216 1.304 . S
C431 C31 1.350 . S
C447 C42 1.268 . S
C452 C107 1.320 . S
C463 C57 1.445 . S
C468 C108 1.446 . S
C479 C70 1.477 . S
C484 C144 1.501 . S
C500 C179 1.515 . S
C495 C81 1.496 . S
C516 C215 1.484 . S
C511 C96 1.446 . S
C527 C29 1.488 . S
C532 C287 1.510 . S
C548 C324 1.441 . S
C543 C44 1.457 . S
C559 C3 1.532 . S
C564 C360 1.459 . S
C580 C251 1.487 . S
C575 C16 1.501 . S
C591 C83 1.344 . S
C596 C252 1.293 . S
C607 C94 1.282 . S
C612 C288 1.306 . S
C628 C323 1.339 . S
C623 C55 1.246 . S
C639 C68 1.225 . S
C644 C359 1.345 . S
C660 C178 1.351 . S
C655 C1 1.351 . S
C676 C214 1.328 . S
C671 C14 1.344 . S
C687 C27 1.340 . S
C692 C118 1.160 . S
C703 C49 1.363 . S
C708 C154 1.181 1_545 S
C719 C53 1.549 . S
C724 C226 1.462 . S
C740 C106 1.722 . S
C735 C66 1.656 . S
C756 C142 1.734 . S
C751 C88 1.729 . S
C772 C190 1.502 . S
C767 C92 1.592 . S
C788 C322 1.725 . S
C783 C36 1.720 . S
C804 C358 1.705 . S
C799 C40 1.626 . S
C815 C10 1.669 . S
C820 C262 1.555 . S
C836 C298 1.517 . S
C831 C23 1.684 . S
C852 C370 1.178 . S
C847 C79 1.345 . S
C863 C101 1.345 . S
C868 C250 1.334 . S
C884 C286 1.344 1_455 S
C879 C62 1.381 . S
C900 C334 1.283 . S
C895 C75 1.319 . S
