# Generated by pormake.
# Topology ocu, (6,8)-cn, num edge types: 1
# Building blocks:
#     Node 0, Type 0, BuildingBlock: JUFBIX_clean_sbu_0, # of connection points: 6
#     Node 1, Type 0, BuildingBlock: JUFBIX_clean_sbu_0, # of connection points: 6
#     Node 2, Type 0, BuildingBlock: JUFBIX_clean_sbu_0, # of connection points: 6
#     Node 3, Type 0, BuildingBlock: JUFBIX_clean_sbu_0, # of connection points: 6
#     Node 4, Type 0, BuildingBlock: JUFBIX_clean_sbu_0, # of connection points: 6
#     Node 5, Type 0, BuildingBlock: JUFBIX_clean_sbu_0, # of connection points: 6
#     Node 6, Type 0, BuildingBlock: JUFBIX_clean_sbu_0, # of connection points: 6
#     Node 7, Type 0, BuildingBlock: JUFBIX_clean_sbu_0, # of connection points: 6
#     Node 8, Type 1, BuildingBlock: VETTIZ_charged_sbu_0, # of connection points: 8
#     Node 9, Type 1, BuildingBlock: VETTIZ_charged_sbu_0, # of connection points: 8
#     Node 10, Type 1, BuildingBlock: VETTIZ_charged_sbu_0, # of connection points: 8
#     Node 11, Type 1, BuildingBlock: VETTIZ_charged_sbu_0, # of connection points: 8
#     Node 12, Type 1, BuildingBlock: VETTIZ_charged_sbu_0, # of connection points: 8
#     Node 13, Type 1, BuildingBlock: VETTIZ_charged_sbu_0, # of connection points: 8
#     Edge 14, Type (0, 1), BuildingBlock: UVAHIK_clean_linker_0, # of connection points: 2
#     Edge 15, Type (0, 1), BuildingBlock: UVAHIK_clean_linker_0, # of connection points: 2
#     Edge 16, Type (0, 1), BuildingBlock: UVAHIK_clean_linker_0, # of connection points: 2
#     Edge 17, Type (0, 1), BuildingBlock: UVAHIK_clean_linker_0, # of connection points: 2
#     Edge 18, Type (0, 1), BuildingBlock: UVAHIK_clean_linker_0, # of connection points: 2
#     Edge 19, Type (0, 1), BuildingBlock: UVAHIK_clean_linker_0, # of connection points: 2
#     Edge 20, Type (0, 1), BuildingBlock: UVAHIK_clean_linker_0, # of connection points: 2
#     Edge 21, Type (0, 1), BuildingBlock: UVAHIK_clean_linker_0, # of connection points: 2
#     Edge 22, Type (0, 1), BuildingBlock: UVAHIK_clean_linker_0, # of connection points: 2
#     Edge 23, Type (0, 1), BuildingBlock: UVAHIK_clean_linker_0, # of connection points: 2
#     Edge 24, Type (0, 1), BuildingBlock: UVAHIK_clean_linker_0, # of connection points: 2
#     Edge 25, Type (0, 1), BuildingBlock: UVAHIK_clean_linker_0, # of connection points: 2
#     Edge 26, Type (0, 1), BuildingBlock: UVAHIK_clean_linker_0, # of connection points: 2
#     Edge 27, Type (0, 1), BuildingBlock: UVAHIK_clean_linker_0, # of connection points: 2
#     Edge 28, Type (0, 1), BuildingBlock: UVAHIK_clean_linker_0, # of connection points: 2
#     Edge 29, Type (0, 1), BuildingBlock: UVAHIK_clean_linker_0, # of connection points: 2
#     Edge 30, Type (0, 1), BuildingBlock: UVAHIK_clean_linker_0, # of connection points: 2
#     Edge 31, Type (0, 1), BuildingBlock: UVAHIK_clean_linker_0, # of connection points: 2
#     Edge 32, Type (0, 1), BuildingBlock: UVAHIK_clean_linker_0, # of connection points: 2
#     Edge 33, Type (0, 1), BuildingBlock: UVAHIK_clean_linker_0, # of connection points: 2
#     Edge 34, Type (0, 1), BuildingBlock: UVAHIK_clean_linker_0, # of connection points: 2
#     Edge 35, Type (0, 1), BuildingBlock: UVAHIK_clean_linker_0, # of connection points: 2
#     Edge 36, Type (0, 1), BuildingBlock: UVAHIK_clean_linker_0, # of connection points: 2
#     Edge 37, Type (0, 1), BuildingBlock: UVAHIK_clean_linker_0, # of connection points: 2
#     Edge 38, Type (0, 1), BuildingBlock: UVAHIK_clean_linker_0, # of connection points: 2
#     Edge 39, Type (0, 1), BuildingBlock: UVAHIK_clean_linker_0, # of connection points: 2
#     Edge 40, Type (0, 1), BuildingBlock: UVAHIK_clean_linker_0, # of connection points: 2
#     Edge 41, Type (0, 1), BuildingBlock: UVAHIK_clean_linker_0, # of connection points: 2
#     Edge 42, Type (0, 1), BuildingBlock: UVAHIK_clean_linker_0, # of connection points: 2
#     Edge 43, Type (0, 1), BuildingBlock: UVAHIK_clean_linker_0, # of connection points: 2
#     Edge 44, Type (0, 1), BuildingBlock: UVAHIK_clean_linker_0, # of connection points: 2
#     Edge 45, Type (0, 1), BuildingBlock: UVAHIK_clean_linker_0, # of connection points: 2
#     Edge 46, Type (0, 1), BuildingBlock: UVAHIK_clean_linker_0, # of connection points: 2
#     Edge 47, Type (0, 1), BuildingBlock: UVAHIK_clean_linker_0, # of connection points: 2
#     Edge 48, Type (0, 1), BuildingBlock: UVAHIK_clean_linker_0, # of connection points: 2
#     Edge 49, Type (0, 1), BuildingBlock: UVAHIK_clean_linker_0, # of connection points: 2
#     Edge 50, Type (0, 1), BuildingBlock: UVAHIK_clean_linker_0, # of connection points: 2
#     Edge 51, Type (0, 1), BuildingBlock: UVAHIK_clean_linker_0, # of connection points: 2
#     Edge 52, Type (0, 1), BuildingBlock: UVAHIK_clean_linker_0, # of connection points: 2
#     Edge 53, Type (0, 1), BuildingBlock: UVAHIK_clean_linker_0, # of connection points: 2
#     Edge 54, Type (0, 1), BuildingBlock: UVAHIK_clean_linker_0, # of connection points: 2
#     Edge 55, Type (0, 1), BuildingBlock: UVAHIK_clean_linker_0, # of connection points: 2
#     Edge 56, Type (0, 1), BuildingBlock: UVAHIK_clean_linker_0, # of connection points: 2
#     Edge 57, Type (0, 1), BuildingBlock: UVAHIK_clean_linker_0, # of connection points: 2
#     Edge 58, Type (0, 1), BuildingBlock: UVAHIK_clean_linker_0, # of connection points: 2
#     Edge 59, Type (0, 1), BuildingBlock: UVAHIK_clean_linker_0, # of connection points: 2
#     Edge 60, Type (0, 1), BuildingBlock: UVAHIK_clean_linker_0, # of connection points: 2
#     Edge 61, Type (0, 1), BuildingBlock: UVAHIK_clean_linker_0, # of connection points: 2
# Relax obj value: 0.141
# Max RMSD: 0.265
# Mean RMSD: 0.149
data_MOF--net-ocu--node1-JUFBIX_clean_sbu_0--node2-VETTIZ_charged_sbu_0--edge1-UVAHIK_clean_linker_0
_symmetry_space_group_name_H-M    P1
_symmetry_Int_Tables_number       1
_symmetry_cell_setting            triclinic
loop_
_symmetry_equiv_pos_as_xyz
'x, y, z'
_cell_length_a     47.058278
_cell_length_b     48.434481
_cell_length_c     47.887625
_cell_angle_alpha  92.733745
_cell_angle_beta   92.017029
_cell_angle_gamma 89.775153
loop_
_atom_site_label
_atom_site_type_symbol
_atom_site_fract_x
_atom_site_fract_y
_atom_site_fract_z
_atom_type_partial_charge
Co0 Co 0.23973 0.23513 0.25041 0.0
C1 C 0.22878 0.27358 0.29498 0.0
Co2 Co 0.27199 0.26781 0.25746 0.0
C3 C 0.20057 0.19256 0.26397 0.0
C4 C 0.19752 0.20154 0.22064 0.0
N5 N 0.21187 0.20845 0.24486 0.0
N6 N 0.1796 0.17622 0.25268 0.0
C7 C 0.17752 0.18184 0.22544 0.0
H8 H 0.20712 0.19346 0.2859 0.0
H9 H 0.20119 0.21048 0.20081 0.0
C10 C 0.28345 0.22981 0.21324 0.0
N11 N 0.30009 0.29445 0.26158 0.0
C12 C 0.31157 0.30662 0.23994 0.0
C13 C 0.31621 0.30299 0.28417 0.0
N14 N 0.33451 0.32205 0.24777 0.0
C15 C 0.33754 0.31991 0.27569 0.0
C16 C 0.28399 0.22054 0.28645 0.0
O17 O 0.2604 0.21847 0.21974 0.0
O18 O 0.29155 0.25159 0.22689 0.0
O19 O 0.29304 0.24454 0.28176 0.0
O20 O 0.26034 0.21248 0.27533 0.0
O21 O 0.25228 0.28392 0.28825 0.0
H22 H 0.31349 0.29627 0.30513 0.0
H23 H 0.30431 0.30264 0.21844 0.0
O24 O 0.21938 0.25208 0.28126 0.0
O25 O 0.2194 0.25781 0.22545 0.0
O26 O 0.2508 0.29075 0.23283 0.0
C27 C 0.22794 0.28188 0.22071 0.0
H28 H 0.16273 0.17226 0.21012 0.0
H29 H 0.3544 0.32917 0.28891 0.0
Co30 Co 0.773 0.25618 0.25108 0.0
C31 C 0.78145 0.2958 0.29464 0.0
Co32 Co 0.7393 0.25743 0.28161 0.0
C33 C 0.81163 0.27871 0.21442 0.0
C34 C 0.81713 0.23491 0.21541 0.0
N35 N 0.8013 0.25609 0.22566 0.0
N36 N 0.83331 0.27268 0.19758 0.0
C37 C 0.83703 0.24512 0.19814 0.0
H38 H 0.80385 0.29941 0.21918 0.0
H39 H 0.81461 0.21354 0.22048 0.0
C40 C 0.73059 0.2179 0.23791 0.0
N41 N 0.71118 0.25771 0.30739 0.0
C42 C 0.71457 0.25303 0.33482 0.0
C43 C 0.68289 0.25996 0.30274 0.0
N44 N 0.68951 0.25155 0.34747 0.0
C45 C 0.6695 0.25617 0.32734 0.0
C46 C 0.72828 0.29215 0.23789 0.0
O47 O 0.75449 0.22652 0.23034 0.0
O48 O 0.72002 0.22864 0.25998 0.0
O49 O 0.71876 0.28453 0.26083 0.0
O50 O 0.75163 0.28195 0.22963 0.0
O51 O 0.75843 0.28611 0.30309 0.0
H52 H 0.67261 0.26271 0.2825 0.0
H53 H 0.73506 0.24963 0.34505 0.0
O54 O 0.79136 0.2859 0.27194 0.0
O55 O 0.79441 0.23077 0.27248 0.0
O56 O 0.76033 0.23034 0.30228 0.0
C57 C 0.78473 0.22208 0.29484 0.0
H58 H 0.85284 0.23327 0.18683 0.0
H59 H 0.64675 0.25486 0.32966 0.0
Co60 Co 0.75945 0.74571 0.25703 0.0
C61 C 0.80385 0.77954 0.27691 0.0
Co62 Co 0.76915 0.77903 0.22912 0.0
C63 C 0.77305 0.69915 0.28906 0.0
C64 C 0.72862 0.70843 0.29035 0.0
N65 N 0.7531 0.71671 0.27957 0.0
N66 N 0.76214 0.68018 0.30531 0.0
C67 C 0.73417 0.68598 0.3064 0.0
H68 H 0.79537 0.70069 0.28463 0.0
H69 H 0.70815 0.71815 0.28688 0.0
C70 C 0.7248 0.74487 0.20947 0.0
N71 N 0.77522 0.80829 0.20643 0.0
C72 C 0.77041 0.83524 0.21311 0.0
C73 C 0.77891 0.80712 0.17864 0.0
N74 N 0.76938 0.85088 0.19048 0.0
C75 C 0.77532 0.8332 0.16879 0.0
C76 C 0.79988 0.73216 0.21606 0.0
O77 O 0.72938 0.73348 0.23253 0.0
O78 O 0.74005 0.76519 0.20339 0.0
O79 O 0.79638 0.75715 0.20968 0.0
O80 O 0.78571 0.72304 0.23582 0.0
O81 O 0.79822 0.79249 0.25487 0.0
H82 H 0.78135 0.78821 0.16599 0.0
H83 H 0.76553 0.84285 0.23398 0.0
O84 O 0.78955 0.75816 0.28156 0.0
O85 O 0.73341 0.76844 0.27795 0.0
O86 O 0.74157 0.80067 0.24888 0.0
C87 C 0.72867 0.79271 0.26991 0.0
H88 H 0.71887 0.67477 0.31781 0.0
H89 H 0.77413 0.83804 0.14695 0.0
Co90 Co 0.24632 0.77749 0.26103 0.0
C91 C 0.29036 0.78201 0.30045 0.0
Co92 Co 0.27503 0.74178 0.25959 0.0
C93 C 0.19463 0.80919 0.26087 0.0
C94 C 0.23142 0.83455 0.25768 0.0
N95 N 0.22322 0.80817 0.26025 0.0
N96 N 0.18465 0.83516 0.2587 0.0
C97 C 0.20774 0.85119 0.25669 0.0
H98 H 0.1814 0.79125 0.26308 0.0
H99 H 0.25324 0.84133 0.25698 0.0
C100 C 0.23089 0.73752 0.21991 0.0
N101 N 0.29814 0.71116 0.26014 0.0
C102 C 0.32676 0.71026 0.26062 0.0
C103 C 0.2898 0.6846 0.25987 0.0
N104 N 0.33681 0.68408 0.26035 0.0
C105 C 0.31345 0.66792 0.25992 0.0
C106 C 0.22827 0.73617 0.29533 0.0
O107 O 0.22469 0.76123 0.23045 0.0
O108 O 0.25257 0.72495 0.22959 0.0
O109 O 0.25096 0.72508 0.28627 0.0
O110 O 0.22151 0.76003 0.287 0.0
O111 O 0.29739 0.75877 0.28932 0.0
H112 H 0.26791 0.67779 0.25898 0.0
H113 H 0.3398 0.72859 0.26062 0.0
O114 O 0.26787 0.79387 0.29169 0.0
O115 O 0.27135 0.79462 0.23531 0.0
O116 O 0.29928 0.75858 0.23291 0.0
C117 C 0.29354 0.78301 0.22569 0.0
H118 H 0.2076 0.87349 0.25595 0.0
H119 H 0.31318 0.64558 0.25827 0.0
Co120 Co 0.28857 0.75208 0.7404 0.0
C121 C 0.29687 0.79502 0.78076 0.0
Co122 Co 0.25548 0.75508 0.77141 0.0
C123 C 0.32333 0.77093 0.69817 0.0
C124 C 0.33144 0.72829 0.70508 0.0
N125 N 0.31608 0.75025 0.7142 0.0
N126 N 0.3424 0.76289 0.67907 0.0
C127 C 0.34771 0.73601 0.68341 0.0
H128 H 0.31383 0.79128 0.69984 0.0
H129 H 0.33033 0.70786 0.71317 0.0
C130 C 0.24709 0.71217 0.73093 0.0
N131 N 0.22756 0.75688 0.79717 0.0
C132 C 0.21597 0.7349 0.80842 0.0
C133 C 0.21141 0.77863 0.8055 0.0
N134 N 0.19284 0.74176 0.82295 0.0
C135 C 0.18976 0.7693 0.82125 0.0
C136 C 0.24197 0.78496 0.72471 0.0
O137 O 0.27005 0.72122 0.7217 0.0
O138 O 0.23734 0.72362 0.75302 0.0
O139 O 0.23309 0.77836 0.74819 0.0
O140 O 0.26621 0.77621 0.71738 0.0
O141 O 0.2735 0.78633 0.78949 0.0
H142 H 0.21422 0.79956 0.79919 0.0
H143 H 0.22312 0.71388 0.80421 0.0
O144 O 0.30724 0.78315 0.75913 0.0
O145 O 0.31058 0.72807 0.76344 0.0
O146 O 0.27794 0.73158 0.79485 0.0
C147 C 0.30188 0.72212 0.78727 0.0
H148 H 0.36204 0.72278 0.67168 0.0
H149 H 0.17255 0.78153 0.8298 0.0
Co150 Co 0.25614 0.24605 0.76913 0.0
C151 C 0.2987 0.28537 0.77976 0.0
Co152 Co 0.26116 0.27503 0.73559 0.0
C153 C 0.2611 0.19428 0.7952 0.0
C154 C 0.25088 0.2269 0.82483 0.0
N155 N 0.25388 0.22125 0.79724 0.0
N156 N 0.26412 0.18315 0.82037 0.0
C157 C 0.25717 0.20348 0.83911 0.0
H158 H 0.26631 0.18347 0.77576 0.0
H159 H 0.24697 0.24727 0.83417 0.0
C160 C 0.21832 0.2362 0.72481 0.0
N161 N 0.2639 0.29946 0.70743 0.0
C162 C 0.26094 0.32716 0.70937 0.0
C163 C 0.26621 0.29308 0.67994 0.0
N164 N 0.26049 0.33846 0.68407 0.0
C165 C 0.26411 0.3169 0.66556 0.0
C166 C 0.29441 0.22813 0.72801 0.0
O167 O 0.22659 0.22728 0.74829 0.0
O168 O 0.23044 0.25716 0.71562 0.0
O169 O 0.28749 0.25061 0.71694 0.0
O170 O 0.28366 0.22273 0.75104 0.0
O171 O 0.29155 0.29272 0.75543 0.0
H172 H 0.26764 0.2723 0.67077 0.0
H173 H 0.2578 0.3385 0.729 0.0
O174 O 0.28584 0.26532 0.78997 0.0
O175 O 0.22877 0.26938 0.78681 0.0
O176 O 0.23476 0.29946 0.75481 0.0
C177 C 0.22295 0.29274 0.77703 0.0
H178 H 0.25943 0.20238 0.86161 0.0
H179 H 0.26315 0.31774 0.64303 0.0
Co180 Co 0.74551 0.27012 0.75378 0.0
C181 C 0.78923 0.27425 0.79398 0.0
Co182 Co 0.77533 0.23517 0.75199 0.0
C183 C 0.69205 0.29702 0.75904 0.0
C184 C 0.72571 0.32649 0.75832 0.0
N185 N 0.72019 0.29924 0.75538 0.0
N186 N 0.67977 0.32163 0.7654 0.0
C187 C 0.70092 0.34032 0.76453 0.0
H188 H 0.68121 0.27737 0.75881 0.0
H189 H 0.74672 0.33546 0.75815 0.0
C190 C 0.73202 0.23065 0.7117 0.0
N191 N 0.80004 0.20551 0.7512 0.0
C192 C 0.82846 0.20547 0.74838 0.0
C193 C 0.7932 0.17884 0.7544 0.0
N194 N 0.83958 0.17986 0.74995 0.0
C195 C 0.81747 0.16307 0.75374 0.0
C196 C 0.729 0.22651 0.78692 0.0
O197 O 0.72405 0.25352 0.72304 0.0
O198 O 0.75442 0.21911 0.72111 0.0
O199 O 0.75157 0.21574 0.77732 0.0
O200 O 0.72248 0.25071 0.77971 0.0
O201 O 0.79633 0.25111 0.78278 0.0
H202 H 0.77187 0.1712 0.75658 0.0
H203 H 0.84076 0.22378 0.745 0.0
O204 O 0.76721 0.2865 0.78455 0.0
O205 O 0.76862 0.28948 0.72807 0.0
O206 O 0.79889 0.25507 0.72653 0.0
C207 C 0.79167 0.27911 0.71889 0.0
H208 H 0.6993 0.36209 0.77045 0.0
H209 H 0.8186 0.14078 0.75456 0.0
Co210 Co 0.74635 0.74765 0.74899 0.0
C211 C 0.73191 0.78289 0.79364 0.0
Co212 Co 0.77791 0.78054 0.75843 0.0
C213 C 0.70918 0.70254 0.75843 0.0
C214 C 0.70608 0.71413 0.71588 0.0
N215 N 0.7197 0.72031 0.74064 0.0
N216 N 0.68949 0.68554 0.74584 0.0
C217 C 0.68734 0.69281 0.71906 0.0
H218 H 0.71545 0.70245 0.78039 0.0
H219 H 0.70949 0.72452 0.69678 0.0
C220 C 0.79208 0.74478 0.71357 0.0
N221 N 0.80466 0.8077 0.76702 0.0
C222 C 0.82127 0.82006 0.74901 0.0
C223 C 0.8133 0.81805 0.79256 0.0
N224 N 0.84016 0.83749 0.76223 0.0
C225 C 0.83509 0.8365 0.78967 0.0
C226 C 0.78922 0.73285 0.78675 0.0
O227 O 0.76839 0.73391 0.7187 0.0
O228 O 0.80053 0.76579 0.72849 0.0
O229 O 0.79735 0.75734 0.78328 0.0
O230 O 0.767 0.72383 0.77346 0.0
O231 O 0.75505 0.7947 0.78822 0.0
H232 H 0.80484 0.812 0.81207 0.0
H233 H 0.81965 0.81614 0.72658 0.0
O234 O 0.72424 0.76138 0.77915 0.0
O235 O 0.72609 0.77188 0.72504 0.0
O236 O 0.7583 0.80409 0.73352 0.0
C237 C 0.73508 0.79613 0.72141 0.0
H238 H 0.67348 0.68321 0.70291 0.0
H239 H 0.84689 0.84756 0.80646 0.0
Fe240 Fe 1.0115 0.03022 0.50326 0.0
O241 O 0.98521 0.9984 0.49472 0.0
Fe242 Fe 0.07818 0.9997 0.50575 0.0
Fe243 Fe 0.94566 0.99814 0.50716 0.0
O244 O 0.03852 1.00132 0.51654 0.0
O245 O 0.03855 0.99876 0.51743 0.0
O246 O 0.98523 0.99578 0.49568 0.0
Fe247 Fe 1.01241 0.96695 0.50899 0.0
C248 C 0.97246 0.03843 0.55105 0.0
O249 O 0.97909 0.05642 0.48744 0.0
O250 O 0.94089 0.02728 0.47726 0.0
O251 O 0.02636 0.96227 0.46927 0.0
O252 O 0.07321 0.96796 0.47557 0.0
O253 O 0.07236 0.02727 0.47472 0.0
O254 O 0.02619 0.02655 0.4633 0.0
O255 O 0.94242 0.96269 0.48174 0.0
O256 O 0.98125 0.93724 0.49697 0.0
C257 C 0.05194 0.02947 0.45684 0.0
O258 O 0.04469 0.94058 0.52474 0.0
O259 O 0.08302 0.96953 0.53455 0.0
O260 O 0.99761 0.03491 0.54302 0.0
O261 O 0.95085 0.03119 0.53575 0.0
C262 C 0.95427 0.05053 0.47546 0.0
C263 C 0.95702 0.9399 0.48321 0.0
C264 C 0.97283 0.96923 0.55653 0.0
O265 O 0.95171 0.97207 0.53958 0.0
O266 O 0.9983 0.97099 0.54896 0.0
C267 C 0.05145 0.96047 0.4605 0.0
O268 O 0.08015 0.0338 0.53293 0.0
O269 O 0.04261 0.05993 0.5159 0.0
C270 C 0.06962 0.94636 0.53643 0.0
C271 C 0.06529 0.05645 0.53188 0.0
Fe272 Fe 0.51396 0.97394 0.01461 0.0
O273 O 0.53344 1.00139 0.99146 0.0
Fe274 Fe 0.45147 0.00874 0.03081 0.0
Fe275 Fe 0.57494 1.00286 0.98856 0.0
O276 O 0.49287 0.00739 0.02847 0.0
O277 O 0.49295 0.01041 0.0278 0.0
O278 O 0.53342 1.00447 0.99066 0.0
Fe279 Fe 0.51268 0.038 1.00505 0.0
C280 C 0.57042 0.9797 0.04541 0.0
O281 O 0.53967 0.94264 0.99572 0.0
O282 O 0.56762 0.96622 0.96589 0.0
O283 O 0.48301 0.03248 0.97256 0.0
O284 O 0.44392 0.0332 0.99754 0.0
O285 O 0.44436 0.97443 1.00397 0.0
O286 O 0.48486 0.96666 0.98211 0.0
O287 O 0.56742 0.03031 0.95742 0.0
O288 O 0.5377 0.0625 0.97826 0.0
C289 C 0.45802 0.96439 0.98329 0.0
O290 O 0.48716 0.06925 0.0246 0.0
O291 O 0.45899 0.04512 0.05386 0.0
O292 O 0.54349 0.98062 0.04726 0.0
O293 O 0.58211 0.97846 0.02188 0.0
C294 C 0.55688 0.94376 0.97491 0.0
C295 C 0.55644 0.05495 0.95956 0.0
C296 C 0.56879 0.0471 0.03606 0.0
O297 O 0.58215 0.03733 0.01509 0.0
O298 O 0.54199 0.0446 0.03757 0.0
C299 C 0.45611 0.03424 0.97433 0.0
O300 O 0.45908 0.98122 0.06192 0.0
O301 O 0.48923 0.94935 0.04135 0.0
C302 C 0.47011 0.06771 0.04555 0.0
C303 C 0.47022 0.95666 0.0598 0.0
Fe304 Fe 1.00771 0.53948 0.99972 0.0
O305 O 0.98803 0.5048 0.9863 0.0
Fe306 Fe 0.07709 0.51661 0.013 0.0
Fe307 Fe 0.94726 0.49945 0.98909 0.0
O308 O 0.03562 0.51362 0.01739 0.0
O309 O 0.03633 0.51076 0.01691 0.0
O310 O 0.98871 0.50202 0.98587 0.0
Fe311 Fe 0.01641 0.47605 1.00359 0.0
C312 C 0.95781 0.54434 0.03631 0.0
O313 O 0.97598 0.56186 0.97784 0.0
O314 O 0.94574 0.52806 0.95872 0.0
O315 O 0.03872 0.4727 0.96725 0.0
O316 O 0.08214 0.48422 0.98376 0.0
O317 O 0.07369 0.54306 0.9806 0.0
O318 O 0.02937 0.53786 0.96359 0.0
O319 O 0.95378 0.4644 0.964 0.0
O320 O 0.99144 0.44296 0.98679 0.0
C321 C 0.05501 0.54471 0.96088 0.0
O322 O 0.04831 0.4537 0.0249 0.0
O323 O 0.07974 0.48715 0.04268 0.0
O324 O 0.98484 0.54276 0.03584 0.0
O325 O 0.94199 0.53276 0.01707 0.0
C326 C 0.95569 0.5531 0.96028 0.0
C327 C 0.97001 0.44327 0.96881 0.0
C328 C 0.96827 0.47133 0.04199 0.0
O329 O 0.94989 0.47404 0.02216 0.0
O330 O 0.9944 0.47707 0.03981 0.0
C331 C 0.06562 0.47245 0.96524 0.0
O332 O 0.07084 0.55104 0.03899 0.0
O333 O 0.0328 0.57261 0.01688 0.0
C334 C 0.06942 0.46224 0.04153 0.0
C335 C 0.0544 0.57216 0.03474 0.0
Fe336 Fe 0.50853 0.50633 0.97238 0.0
O337 O 0.54113 0.51082 1.00004 0.0
Fe338 Fe 0.45032 0.51261 0.0171 0.0
Fe339 Fe 0.58107 0.50133 0.99604 0.0
O340 O 0.48938 0.50533 0.00873 0.0
O341 O 0.49104 0.51486 0.01253 0.0
O342 O 0.54131 0.50033 1.00411 0.0
Fe343 Fe 0.52247 0.50727 0.04027 0.0
C344 C 0.54641 0.45337 0.96628 0.0
O345 O 0.53273 0.5128 0.93836 0.0
O346 O 0.57601 0.5221 0.95923 0.0
O347 O 0.49976 0.5207 0.07392 0.0
O348 O 0.45961 0.53743 0.05297 0.0
O349 O 0.44965 0.5462 0.9918 0.0
O350 O 0.49335 0.54759 0.97198 0.0
O351 O 0.58606 0.53819 0.02 0.0
O352 O 0.54291 0.54575 0.04024 0.0
C353 C 0.46809 0.55755 0.9765 0.0
O354 O 0.50286 0.46867 0.04311 0.0
O355 O 0.45517 0.47832 0.04095 0.0
O356 O 0.52172 0.46481 0.96941 0.0
O357 O 0.57051 0.46514 0.97316 0.0
C358 C 0.55833 0.5219 0.93806 0.0
C359 C 0.56842 0.55321 0.03449 0.0
C360 C 0.57811 0.48027 0.05749 0.0
O361 O 0.58708 0.47974 0.03243 0.0
O362 O 0.55595 0.49377 0.06507 0.0
C363 C 0.47751 0.5361 0.07391 0.0
O364 O 0.44154 0.48729 0.98159 0.0
O365 O 0.47298 0.49597 0.94835 0.0
C366 C 0.47658 0.46269 0.04714 0.0
C367 C 0.45022 0.48478 0.95642 0.0
Fe368 Fe 1.01077 0.47629 0.50979 0.0
O369 O 0.99301 0.50919 0.52928 0.0
Fe370 Fe 0.03079 0.50447 0.44726 0.0
Fe371 Fe 0.99161 0.51405 0.5702 0.0
O372 O 0.02968 0.50539 0.48826 0.0
O373 O 0.03043 0.50858 0.4884 0.0
O374 O 0.99374 0.51233 0.52943 0.0
Fe375 Fe 0.01284 0.54138 0.50818 0.0
C376 C 0.96757 0.4565 0.55436 0.0
O377 O 0.04481 0.47813 0.53758 0.0
O378 O 0.02258 0.48481 0.57767 0.0
O379 O 0.03626 0.56756 0.48183 0.0
O380 O 0.05979 0.53648 0.45277 0.0
O381 O 0.05762 0.47171 0.45427 0.0
O382 O 0.03327 0.44587 0.48516 0.0
O383 O 0.0226 0.54402 0.57581 0.0
O384 O 0.04686 0.5439 0.53665 0.0
C385 C 0.05215 0.44872 0.46594 0.0
O386 O 0.97863 0.54001 0.48066 0.0
O387 O 1.00056 0.5347 0.44047 0.0
O388 O 0.98732 0.45014 0.5363 0.0
O389 O 0.9633 0.48139 0.56478 0.0
C390 C 0.04489 0.47927 0.56415 0.0
C391 C 0.04522 0.5487 0.56295 0.0
C392 C 0.96936 0.56867 0.54927 0.0
O393 O 0.96408 0.5461 0.56182 0.0
O394 O 0.99007 0.57172 0.53209 0.0
C395 C 0.05575 0.56128 0.46352 0.0
O396 O 0.99905 0.47522 0.44166 0.0
O397 O 0.97661 0.47372 0.48181 0.0
C398 C 0.97865 0.54098 0.45426 0.0
C399 C 0.97736 0.46939 0.45542 0.0
Fe400 Fe 0.54557 0.95356 0.49945 0.0
O401 O 0.5356 0.99279 0.50276 0.0
Fe402 Fe 0.51436 0.01069 0.46903 0.0
Fe403 Fe 0.51294 0.00961 0.53382 0.0
O404 O 0.5357 0.99277 0.50002 0.0
O405 O 0.49107 0.02699 0.49995 0.0
O406 O 0.49093 0.02698 0.50285 0.0
Fe407 Fe 0.48169 0.06649 0.50333 0.0
C408 C 0.49121 0.95151 0.53132 0.0
O409 O 0.57133 0.96463 0.53389 0.0
O410 O 0.53979 0.98852 0.56218 0.0
O411 O 0.51123 0.07736 0.47513 0.0
O412 O 0.54255 0.04296 0.47361 0.0
O413 O 0.54192 0.9903 0.44049 0.0
O414 O 0.57201 0.96485 0.46852 0.0
O415 O 0.54101 0.04183 0.53724 0.0
O416 O 0.51089 0.07734 0.53531 0.0
C417 C 0.56461 0.97521 0.44483 0.0
O418 O 0.45606 0.05565 0.46884 0.0
O419 O 0.48806 0.03229 0.4406 0.0
O420 O 0.51627 0.94246 0.52754 0.0
O421 O 0.48498 0.97709 0.53107 0.0
C422 C 0.56328 0.97464 0.55803 0.0
C423 C 0.53531 0.06734 0.54134 0.0
C424 C 0.46281 0.04538 0.55812 0.0
O425 O 0.48574 0.03058 0.56249 0.0
O426 O 0.45522 0.05548 0.53433 0.0
C427 C 0.53664 0.06858 0.47341 0.0
O428 O 0.48646 0.97839 0.46389 0.0
O429 O 0.51616 0.94252 0.46769 0.0
C430 C 0.4643 0.0457 0.44476 0.0
C431 C 0.49225 0.95283 0.46017 0.0
C432 C 0.17511 0.1414 0.288 0.0
C433 C 0.16268 0.15711 0.26693 0.0
C434 C 0.15865 0.12313 0.30221 0.0
C435 C 0.0884 0.11366 0.32665 0.0
H436 H 0.11431 0.03912 0.33967 0.0
C437 C 0.03842 0.04943 0.41061 0.0
C438 C 0.05885 0.03755 0.42852 0.0
C439 C 0.04639 0.05951 0.38508 0.0
C440 C 0.10675 0.05988 0.33624 0.0
H441 H 0.12346 0.16626 0.24417 0.0
H442 H 0.09431 0.13471 0.26976 0.0
H443 H 0.13823 0.0664 0.30599 0.0
H444 H 0.10308 0.0251 0.43286 0.0
H445 H 0.11697 0.04298 0.38915 0.0
H446 H 0.05829 0.10803 0.35829 0.0
C447 C 0.11687 0.13629 0.27486 0.0
C448 C 0.12039 0.0754 0.31691 0.0
C449 C 0.1335 0.15418 0.26023 0.0
C450 C 0.0869 0.03453 0.41974 0.0
C451 C 0.0948 0.04448 0.39439 0.0
C452 C 0.075 0.09828 0.34633 0.0
C453 C 0.12936 0.12061 0.29595 0.0
C454 C 0.11192 0.1027 0.31263 0.0
C455 C 0.07485 0.05764 0.37698 0.0
C456 C 0.08474 0.07157 0.35211 0.0
H457 H 0.19759 0.14319 0.29336 0.0
H458 H 0.16868 0.11146 0.31863 0.0
H459 H 0.08157 0.13474 0.32372 0.0
H460 H 0.01658 0.05185 0.41674 0.0
H461 H 0.03044 0.06928 0.37198 0.0
C462 C 0.83166 0.20044 0.30783 0.0
C463 C 0.8026 0.20425 0.3129 0.0
C464 C 0.84914 0.1853 0.32581 0.0
C465 C 0.85188 0.15773 0.39765 0.0
H466 H 0.91469 0.11432 0.36869 0.0
C467 C 0.90928 0.07298 0.45906 0.0
C468 C 0.93915 0.07175 0.45911 0.0
C469 C 0.8942 0.09123 0.44231 0.0
C470 C 0.89746 0.12664 0.37714 0.0
H471 H 0.76906 0.19449 0.34065 0.0
H472 H 0.79914 0.16715 0.37135 0.0
H473 H 0.88457 0.14042 0.33683 0.0
H474 H 0.97667 0.08898 0.44171 0.0
H475 H 0.95007 0.12073 0.41168 0.0
H476 H 0.86425 0.14292 0.4378 0.0
C477 C 0.80877 0.17656 0.35395 0.0
C478 C 0.88012 0.14169 0.35887 0.0
C479 C 0.79135 0.19203 0.33614 0.0
C480 C 0.95368 0.08959 0.44224 0.0
C481 C 0.93846 0.10758 0.42494 0.0
C482 C 0.86896 0.14238 0.41579 0.0
C483 C 0.83804 0.17318 0.34926 0.0
C484 C 0.85691 0.15736 0.3688 0.0
C485 C 0.90851 0.10849 0.42475 0.0
C486 C 0.89184 0.12651 0.40575 0.0
H487 H 0.84115 0.20976 0.29028 0.0
H488 H 0.87155 0.18369 0.3216 0.0
H489 H 0.83477 0.17 0.40638 0.0
H490 H 0.89744 0.05959 0.47189 0.0
H491 H 0.87119 0.09124 0.4425 0.0
C492 C 0.83152 0.77533 0.32207 0.0
C493 C 0.82578 0.78979 0.29771 0.0
C494 C 0.85034 0.78608 0.34296 0.0
C495 C 0.90654 0.8385 0.35874 0.0
H496 H 0.87668 0.84033 0.43329 0.0
C497 C 0.96339 0.8966 0.45328 0.0
C498 C 0.94535 0.91564 0.46696 0.0
C499 C 0.952 0.87616 0.43449 0.0
C500 C 0.88542 0.83975 0.41264 0.0
H501 H 0.83626 0.82629 0.27566 0.0
H502 H 0.86897 0.8452 0.31231 0.0
H503 H 0.85155 0.81443 0.39522 0.0
H504 H 0.90142 0.92737 0.47302 0.0
H505 H 0.88162 0.89156 0.44077 0.0
H506 H 0.93976 0.86492 0.37609 0.0
C507 C 0.85907 0.82542 0.31512 0.0
C508 C 0.87116 0.82477 0.39086 0.0
C509 C 0.84018 0.81468 0.2942 0.0
C510 C 0.91581 0.913 0.4627 0.0
C511 C 0.90447 0.89239 0.44435 0.0
C512 C 0.92092 0.85338 0.38061 0.0
C513 C 0.8639 0.8115 0.33997 0.0
C514 C 0.88115 0.82455 0.36353 0.0
C515 C 0.92243 0.87415 0.42957 0.0
C516 C 0.91005 0.85475 0.4076 0.0
H517 H 0.82097 0.75597 0.32534 0.0
H518 H 0.85392 0.77471 0.36171 0.0
H519 H 0.9149 0.83846 0.33795 0.0
H520 H 0.98627 0.89835 0.45604 0.0
H521 H 0.9663 0.86228 0.4234 0.0
C522 C 0.13967 0.83237 0.28292 0.0
C523 C 0.15624 0.84481 0.26327 0.0
C524 C 0.11554 0.84573 0.29291 0.0
C525 C 0.09648 0.9175 0.30652 0.0
H526 H 0.04147 0.88271 0.35178 0.0
C527 C 0.03199 0.93917 0.41516 0.0
C528 C 0.05521 0.9501 0.43139 0.0
C529 C 0.03542 0.92989 0.38743 0.0
C530 C 0.05617 0.89304 0.33887 0.0
H531 H 0.15844 0.87863 0.23549 0.0
H532 H 0.11574 0.90182 0.25243 0.0
H533 H 0.05972 0.85742 0.31105 0.0
H534 H 0.09997 0.96055 0.43099 0.0
H535 H 0.10612 0.9438 0.38302 0.0
H536 H 0.09352 0.9528 0.33476 0.0
C537 C 0.12193 0.88226 0.26092 0.0
C538 C 0.06683 0.87844 0.31565 0.0
C539 C 0.14634 0.86905 0.25122 0.0
C540 C 0.08174 0.952 0.41918 0.0
C541 C 0.08514 0.9428 0.39151 0.0
C542 C 0.08558 0.93217 0.32947 0.0
C543 C 0.10738 0.87169 0.28323 0.0
C544 C 0.08861 0.8898 0.30045 0.0
C545 C 0.06207 0.93152 0.37536 0.0
C546 C 0.06685 0.91938 0.34696 0.0
H547 H 0.14679 0.81367 0.29254 0.0
H548 H 0.1051 0.8369 0.31018 0.0
H549 H 0.11312 0.92712 0.29536 0.0
H550 H 1.01116 0.9376 0.42389 0.0
H551 H 0.01727 0.92136 0.37549 0.0
C552 C 0.23466 0.81217 0.68149 0.0
C553 C 0.22367 0.8014 0.70563 0.0
C554 C 0.21712 0.82688 0.66311 0.0
C555 C 0.14219 0.83684 0.63994 0.0
H556 H 0.16976 0.90538 0.6125 0.0
C557 C 0.07117 0.90976 0.57239 0.0
C558 C 0.08489 0.9253 0.55284 0.0
C559 C 0.0871 0.89326 0.59069 0.0
C560 C 0.16178 0.88603 0.61946 0.0
H561 H 0.18546 0.79755 0.72919 0.0
H562 H 0.15488 0.82296 0.69697 0.0
H563 H 0.19954 0.8797 0.64468 0.0
H564 H 0.12568 0.93431 0.53582 0.0
H565 H 0.15305 0.90484 0.56634 0.0
H566 H 0.10459 0.84289 0.61428 0.0
C567 C 0.17707 0.82004 0.69229 0.0
C568 C 0.17892 0.87136 0.6381 0.0
C569 C 0.19469 0.80565 0.71087 0.0
C570 C 0.11452 0.92284 0.55092 0.0
C571 C 0.13028 0.90612 0.56872 0.0
C572 C 0.1251 0.85138 0.62096 0.0
C573 C 0.18807 0.83088 0.66819 0.0
C574 C 0.16944 0.84653 0.64853 0.0
C575 C 0.11703 0.89172 0.58952 0.0
C576 C 0.13472 0.87615 0.61025 0.0
H577 H 0.25683 0.80922 0.67674 0.0
H578 H 0.22624 0.83477 0.64463 0.0
H579 H 0.13431 0.81766 0.64744 0.0
H580 H 0.04837 0.91143 0.57449 0.0
H581 H 0.07603 0.88262 0.60643 0.0
C582 C 0.1874 0.23106 0.68128 0.0
C583 C 0.19597 0.22154 0.70757 0.0
C584 C 0.16836 0.21572 0.66376 0.0
C585 C 0.14762 0.14413 0.64951 0.0
H586 H 0.08671 0.17376 0.60302 0.0
C587 C 0.07894 0.07133 0.58035 0.0
C588 C 0.07341 0.07849 0.55268 0.0
C589 C 0.0894 0.09085 0.60026 0.0
C590 C 0.1038 0.16528 0.61573 0.0
H591 H 0.19007 0.18929 0.73675 0.0
H592 H 0.15684 0.16257 0.70616 0.0
H593 H 0.11312 0.20451 0.63678 0.0
H594 H 0.07276 0.11183 0.52417 0.0
H595 H 0.09243 0.14622 0.55901 0.0
H596 H 0.13925 0.10526 0.62825 0.0
C597 C 0.16513 0.18172 0.69899 0.0
C598 C 0.11881 0.18282 0.63507 0.0
C599 C 0.18409 0.19707 0.71653 0.0
C600 C 0.07709 0.10593 0.54544 0.0
C601 C 0.08818 0.12553 0.56539 0.0
C602 C 0.13285 0.12674 0.63019 0.0
C603 C 0.15763 0.19055 0.67217 0.0
C604 C 0.14078 0.17231 0.65223 0.0
C605 C 0.09523 0.11789 0.59281 0.0
C606 C 0.11062 0.137 0.61319 0.0
H607 H 0.19606 0.24993 0.67382 0.0
H608 H 0.16308 0.22293 0.64314 0.0
H609 H 0.16493 0.13557 0.66191 0.0
H610 H 0.07555 0.05038 0.58653 0.0
H611 H 0.09367 0.0845 0.62139 0.0
C612 C 0.88154 0.18223 0.72112 0.0
C613 C 0.86778 0.17098 0.74343 0.0
C614 C 0.90503 0.16881 0.70972 0.0
C615 C 0.92653 0.09706 0.70035 0.0
H616 H 0.97808 0.12885 0.64937 0.0
C617 C 0.99116 0.06471 0.59408 0.0
C618 C 0.96836 0.05152 0.57906 0.0
C619 C 0.98715 0.07738 0.62046 0.0
C620 C 0.9643 0.1195 0.66389 0.0
H621 H 0.86987 0.1395 0.77398 0.0
H622 H 0.91157 0.1164 0.7547 0.0
H623 H 0.95976 0.15753 0.68799 0.0
H624 H 0.92382 0.04049 0.58031 0.0
H625 H 0.91673 0.06283 0.62605 0.0
H626 H 0.93033 0.05934 0.67576 0.0
C627 C 0.90367 0.13495 0.74527 0.0
C628 C 0.95362 0.13598 0.68587 0.0
C629 C 0.87989 0.14814 0.75636 0.0
C630 C 0.94171 0.05069 0.59121 0.0
C631 C 0.93777 0.06318 0.61759 0.0
C632 C 0.93732 0.08061 0.67855 0.0
C633 C 0.91531 0.14407 0.72069 0.0
C634 C 0.93336 0.12534 0.70337 0.0
C635 C 0.96037 0.07682 0.6324 0.0
C636 C 0.955 0.09208 0.6592 0.0
H637 H 0.87256 0.19984 0.7108 0.0
H638 H 0.91326 0.17645 0.69073 0.0
H639 H 0.91092 0.08804 0.71325 0.0
H640 H 1.01203 0.0656 0.58531 0.0
H641 H 1.00492 0.08771 0.63144 0.0
C642 C 0.87141 0.87837 0.76148 0.0
C643 C 0.86198 0.85282 0.74953 0.0
C644 C 0.8913 0.89395 0.74799 0.0
C645 C 0.94267 0.88998 0.69052 0.0
H646 H 0.919 0.96547 0.67909 0.0
C647 C 0.93985 0.96588 0.59578 0.0
C648 C 0.96726 0.96222 0.5855 0.0
C649 C 0.93361 0.95735 0.62222 0.0
C650 C 0.92608 0.94451 0.68229 0.0
H651 H 0.86728 0.82276 0.71508 0.0
H652 H 0.90127 0.85 0.6913 0.0
H653 H 0.89615 0.93923 0.71415 0.0
H654 H 1.01013 0.94831 0.59558 0.0
H655 H 0.99908 0.93313 0.64197 0.0
H656 H 0.97099 0.89451 0.65716 0.0
C657 C 0.89358 0.85805 0.71114 0.0
C658 C 0.91319 0.92956 0.70258 0.0
C659 C 0.8737 0.84262 0.72452 0.0
C660 C 0.98872 0.95113 0.60283 0.0
C661 C 0.98241 0.94243 0.62935 0.0
C662 C 0.95547 0.90489 0.67015 0.0
C663 C 0.90228 0.8841 0.72245 0.0
C664 C 0.92044 0.90172 0.70598 0.0
C665 C 0.95461 0.94493 0.63906 0.0
C666 C 0.94634 0.93187 0.66494 0.0
H667 H 0.86271 0.88673 0.78073 0.0
H668 H 0.8977 0.91389 0.75726 0.0
H669 H 0.94908 0.86872 0.69308 0.0
H670 H 0.92294 0.97476 0.58311 0.0
H671 H 0.91189 0.95927 0.62885 0.0
C672 C 0.29573 0.19171 0.1777 0.0
C673 C 0.30206 0.21734 0.19151 0.0
C674 C 0.31498 0.17925 0.15916 0.0
C675 C 0.35487 0.16394 0.11097 0.0
H676 H 0.43388 0.16425 0.13702 0.0
C677 C 0.44318 0.11222 0.04505 0.0
C678 C 0.45965 0.09321 0.05989 0.0
C679 C 0.42593 0.13148 0.05938 0.0
C680 C 0.41195 0.1641 0.12936 0.0
H681 H 0.3332 0.25042 0.19567 0.0
H682 H 0.3664 0.2288 0.16358 0.0
H683 H 0.39835 0.18861 0.16483 0.0
H684 H 0.47228 0.08027 0.10112 0.0
H685 H 0.44318 0.11438 0.12616 0.0
H686 H 0.3685 0.13883 0.07579 0.0
C687 C 0.34681 0.21811 0.16729 0.0
C688 C 0.39157 0.17819 0.14522 0.0
C689 C 0.32762 0.23057 0.18563 0.0
C690 C 0.46014 0.09504 0.08925 0.0
C691 C 0.44336 0.11451 0.10355 0.0
C692 C 0.37534 0.15005 0.09494 0.0
C693 C 0.34101 0.1921 0.15416 0.0
C694 C 0.36271 0.17802 0.13642 0.0
C695 C 0.42522 0.13227 0.0888 0.0
C696 C 0.40407 0.14965 0.10415 0.0
H697 H 0.27628 0.18094 0.18175 0.0
H698 H 0.30992 0.15912 0.14949 0.0
H699 H 0.33288 0.16359 0.10348 0.0
H700 H 0.44195 0.1108 0.02239 0.0
H701 H 0.41236 0.14504 0.04744 0.0
C702 C 0.87829 0.28839 0.17853 0.0
C703 C 0.84912 0.29222 0.18279 0.0
C704 C 0.89374 0.30844 0.16549 0.0
C705 C 0.88379 0.36509 0.11813 0.0
H706 H 0.95574 0.39308 0.14965 0.0
C707 C 0.9311 0.45999 0.07484 0.0
C708 C 0.95926 0.4571 0.06655 0.0
C709 C 0.92003 0.44179 0.09322 0.0
C710 C 0.93574 0.38532 0.14061 0.0
H711 H 0.81309 0.31944 0.17615 0.0
H712 H 0.83991 0.35435 0.15367 0.0
H713 H 0.93181 0.35529 0.1718 0.0
H714 H 0.99883 0.43474 0.07272 0.0
H715 H 0.97919 0.40235 0.10462 0.0
H716 H 0.88747 0.39471 0.08698 0.0
C717 C 0.85091 0.33597 0.16034 0.0
C718 C 0.92216 0.36369 0.15315 0.0
C719 C 0.8356 0.31611 0.17342 0.0
C720 C 0.977 0.43735 0.07888 0.0
C721 C 0.96578 0.41883 0.0971 0.0
C722 C 0.89726 0.38656 0.10569 0.0
C723 C 0.88011 0.33238 0.15628 0.0
C724 C 0.89586 0.35371 0.14219 0.0
C725 C 0.93682 0.42011 0.10328 0.0
C726 C 0.92312 0.39721 0.11702 0.0
H727 H 0.88921 0.27024 0.1858 0.0
H728 H 0.91622 0.30515 0.16242 0.0
H729 H 0.86384 0.35738 0.10891 0.0
H730 H 0.91718 0.47538 0.0659 0.0
H731 H 0.89783 0.44369 0.0983 0.0
C732 C 0.75834 0.8928 0.16444 0.0
C733 C 0.75557 0.87746 0.1884 0.0
C734 C 0.73972 0.91465 0.1591 0.0
C735 C 0.69816 0.96377 0.1557 0.0
H736 H 0.62355 0.92974 0.15151 0.0
C737 C 0.57911 0.97271 0.09692 0.0
C738 C 0.58929 0.97875 0.07069 0.0
C739 C 0.59818 0.9696 0.11974 0.0
C740 C 0.64388 0.94018 0.15328 0.0
H741 H 0.73311 0.87576 0.22717 0.0
H742 H 0.70063 0.91323 0.21756 0.0
H743 H 0.66215 0.90824 0.17748 0.0
H744 H 0.62709 0.98881 0.04848 0.0
H745 H 0.65989 0.98244 0.08726 0.0
H746 H 0.68009 0.99541 0.13095 0.0
C747 C 0.71703 0.90812 0.20283 0.0
C748 C 0.66611 0.92772 0.16811 0.0
C749 C 0.73579 0.88653 0.20829 0.0
C750 C 0.61852 0.98346 0.06821 0.0
C751 C 0.63743 0.98032 0.09078 0.0
C752 C 0.67576 0.97657 0.14133 0.0
C753 C 0.71798 0.9215 0.1776 0.0
C754 C 0.69372 0.93865 0.16824 0.0
C755 C 0.6277 0.97257 0.11666 0.0
C756 C 0.64877 0.96402 0.13853 0.0
H757 H 0.77375 0.88688 0.149 0.0
H758 H 0.74092 0.92469 0.13944 0.0
H759 H 0.71921 0.97275 0.15585 0.0
H760 H 0.55663 0.96944 0.09958 0.0
H761 H 0.5899 0.96404 0.13951 0.0
C762 C 0.18763 0.73794 0.18783 0.0
C763 C 0.21199 0.72414 0.19791 0.0
C764 C 0.16847 0.72454 0.16878 0.0
C765 C 0.14459 0.65461 0.14627 0.0
H766 H 0.10816 0.69035 0.08361 0.0
C767 C 0.07871 0.61757 0.04022 0.0
C768 C 0.0619 0.59734 0.05151 0.0
C769 C 0.09331 0.63698 0.05792 0.0
C770 C 0.11815 0.68013 0.10104 0.0
H771 H 0.23582 0.68574 0.19512 0.0
H772 H 0.20252 0.66245 0.16176 0.0
H773 H 0.14331 0.71569 0.11371 0.0
H774 H 0.04549 0.58223 0.0895 0.0
H775 H 0.07008 0.61663 0.12044 0.0
H776 H 0.12018 0.6189 0.13343 0.0
C777 C 0.19802 0.68352 0.16889 0.0
C778 C 0.13815 0.69467 0.11836 0.0
C779 C 0.21721 0.69693 0.18787 0.0
C780 C 0.05814 0.59792 0.08042 0.0
C781 C 0.07252 0.61737 0.09808 0.0
C782 C 0.12461 0.64017 0.1291 0.0
C783 C 0.1732 0.69701 0.15948 0.0
C784 C 0.15176 0.68195 0.14103 0.0
C785 C 0.09133 0.63627 0.08715 0.0
C786 C 0.11118 0.65267 0.10622 0.0
H787 H 0.18296 0.75893 0.19513 0.0
H788 H 0.14947 0.73544 0.1621 0.0
H789 H 0.15435 0.64432 0.16378 0.0
H790 H 0.08231 0.61703 0.01797 0.0
H791 H 0.10773 0.65113 0.04884 0.0
C792 C 0.30074 0.8308 0.82029 0.0
C793 C 0.31291 0.81701 0.79711 0.0
C794 C 0.31677 0.84937 0.83761 0.0
C795 C 0.39068 0.86426 0.86045 0.0
H796 H 0.35855 0.93173 0.89297 0.0
C797 C 0.45615 0.93775 0.93679 0.0
C798 C 0.44204 0.9492 0.96007 0.0
C799 C 0.44098 0.92345 0.915 0.0
C800 C 0.36778 0.91282 0.88429 0.0
H801 H 0.35127 0.81266 0.77344 0.0
H802 H 0.37925 0.84514 0.8037 0.0
H803 H 0.33087 0.9041 0.85792 0.0
H804 H 0.40073 0.95466 0.97839 0.0
H805 H 0.37451 0.92937 0.94081 0.0
H806 H 0.42731 0.87255 0.88725 0.0
C807 C 0.35734 0.84137 0.80858 0.0
C808 C 0.35192 0.89704 0.86413 0.0
C809 C 0.34123 0.82292 0.79113 0.0
C810 C 0.41237 0.94613 0.96086 0.0
C811 C 0.39725 0.93179 0.93913 0.0
C812 C 0.4065 0.87998 0.88071 0.0
C813 C 0.34542 0.8545 0.83227 0.0
C814 C 0.36304 0.8724 0.85218 0.0
C815 C 0.41133 0.9202 0.91591 0.0
C816 C 0.39514 0.90431 0.89315 0.0
H817 H 0.27899 0.82674 0.82553 0.0
H818 H 0.30699 0.85892 0.8558 0.0
H819 H 0.39974 0.84519 0.85196 0.0
H820 H 0.47896 0.93982 0.93535 0.0
H821 H 0.45251 0.91512 0.89731 0.0
C822 C 0.20636 0.34102 0.78995 0.0
C823 C 0.20382 0.31229 0.79228 0.0
C824 C 0.19002 0.35945 0.8063 0.0
C825 C 0.12409 0.36776 0.84354 0.0
H826 H 0.16515 0.41949 0.89408 0.0
C827 C 0.06672 0.43137 0.93107 0.0
C828 C 0.07863 0.45644 0.94168 0.0
C829 C 0.08086 0.4148 0.91106 0.0
C830 C 0.15305 0.40577 0.87974 0.0
H831 H 0.18136 0.28044 0.81286 0.0
H832 H 0.15205 0.31265 0.84052 0.0
H833 H 0.19116 0.38956 0.86169 0.0
H834 H 0.11382 0.48459 0.93844 0.0
H835 H 0.13746 0.45695 0.90241 0.0
H836 H 0.08591 0.38438 0.86056 0.0
C837 C 0.16701 0.32085 0.82637 0.0
C838 C 0.16816 0.38839 0.86126 0.0
C839 C 0.18385 0.30244 0.81059 0.0
C840 C 0.10428 0.46519 0.93091 0.0
C841 C 0.11803 0.44904 0.91038 0.0
C842 C 0.10887 0.38563 0.86153 0.0
C843 C 0.17024 0.34955 0.82475 0.0
C844 C 0.15389 0.36901 0.84317 0.0
C845 C 0.10699 0.42318 0.90054 0.0
C846 C 0.12308 0.4048 0.88023 0.0
H847 H 0.22164 0.34928 0.77617 0.0
H848 H 0.1929 0.38148 0.80461 0.0
H849 H 0.11254 0.3531 0.82967 0.0
H850 H 0.04708 0.42395 0.93914 0.0
H851 H 0.07161 0.395 0.90462 0.0
C852 C 0.68734 0.22366 0.81934 0.0
C853 C 0.71025 0.21079 0.80558 0.0
C854 C 0.66969 0.20874 0.83652 0.0
C855 C 0.66573 0.14051 0.87249 0.0
H856 H 0.58674 0.16097 0.88162 0.0
C857 C 0.58673 0.06574 0.91895 0.0
C858 C 0.56887 0.07551 0.94043 0.0
C859 C 0.60229 0.08381 0.90333 0.0
C860 C 0.60882 0.15509 0.87953 0.0
H861 H 0.73182 0.17157 0.79905 0.0
H862 H 0.70096 0.14557 0.82776 0.0
H863 H 0.61686 0.18848 0.85293 0.0
H864 H 0.55283 0.11299 0.96087 0.0
H865 H 0.5796 0.1448 0.93278 0.0
H866 H 0.65738 0.10666 0.89832 0.0
C867 C 0.6969 0.16746 0.82629 0.0
C868 C 0.62632 0.17099 0.86302 0.0
C869 C 0.7147 0.18244 0.80943 0.0
C870 C 0.56613 0.10445 0.94459 0.0
C871 C 0.58162 0.12274 0.92849 0.0
C872 C 0.64819 0.12449 0.88856 0.0
C873 C 0.67405 0.18024 0.84041 0.0
C874 C 0.65515 0.16388 0.85889 0.0
C875 C 0.60056 0.1126 0.90808 0.0
C876 C 0.61935 0.13127 0.8922 0.0
H877 H 0.68309 0.24544 0.817 0.0
H878 H 0.65283 0.21982 0.84705 0.0
H879 H 0.68779 0.13445 0.87097 0.0
H880 H 0.58947 0.04378 0.9145 0.0
H881 H 0.61603 0.07505 0.88751 0.0
C882 C 0.82911 0.72649 0.82181 0.0
C883 C 0.80605 0.7152 0.80567 0.0
C884 C 0.84573 0.70998 0.83911 0.0
C885 C 0.84553 0.64328 0.87394 0.0
H886 H 0.92733 0.65365 0.87872 0.0
C887 C 0.91976 0.5635 0.92245 0.0
C888 C 0.94136 0.57297 0.94163 0.0
C889 C 0.90431 0.58189 0.90632 0.0
C890 C 0.9045 0.65074 0.87784 0.0
H891 H 0.78229 0.67766 0.79519 0.0
H892 H 0.8116 0.64865 0.82509 0.0
H893 H 0.89785 0.68328 0.84958 0.0
H894 H 0.96429 0.60941 0.95785 0.0
H895 H 0.93713 0.64172 0.92928 0.0
H896 H 0.85224 0.61046 0.9018 0.0
C897 C 0.81658 0.67043 0.82469 0.0
C898 C 0.88756 0.66771 0.86117 0.0
C899 C 0.79983 0.68701 0.80743 0.0
C900 C 0.94777 0.60137 0.94342 0.0
C901 C 0.93226 0.61987 0.92703 0.0
C902 C 0.86245 0.62627 0.89045 0.0
C903 C 0.83981 0.6817 0.84068 0.0
C904 C 0.85786 0.66405 0.85884 0.0
C905 C 0.90999 0.61031 0.90872 0.0
C906 C 0.89214 0.62961 0.89238 0.0
H907 H 0.83442 0.74819 0.8211 0.0
H908 H 0.86309 0.71949 0.85147 0.0
H909 H 0.82273 0.64024 0.87317 0.0
H910 H 0.91431 0.54179 0.92008 0.0
H911 H 0.88774 0.57378 0.89196 0.0
C912 C 0.18635 0.28886 0.18766 0.0
C913 C 0.21126 0.29923 0.20143 0.0
C914 C 0.1704 0.30517 0.16957 0.0
C915 C 0.17565 0.36692 0.12748 0.0
H916 H 0.09326 0.36665 0.12877 0.0
C917 C 0.10833 0.45026 0.07587 0.0
C918 C 0.08383 0.44217 0.05986 0.0
C919 C 0.12296 0.43154 0.0923 0.0
C920 C 0.11623 0.36667 0.12792 0.0
H921 H 0.2389 0.33494 0.20699 0.0
H922 H 0.21088 0.36354 0.1757 0.0
H923 H 0.12084 0.33668 0.15924 0.0
H924 H 0.05522 0.40791 0.04931 0.0
H925 H 0.081 0.37505 0.07827 0.0
H926 H 0.1711 0.39714 0.09649 0.0
C927 C 0.20389 0.34262 0.17858 0.0
C928 C 0.13205 0.34952 0.14537 0.0
C929 C 0.21987 0.32629 0.19665 0.0
C930 C 0.07404 0.41485 0.06124 0.0
C931 C 0.08873 0.39606 0.0779 0.0
C932 C 0.15987 0.38407 0.11014 0.0
C933 C 0.17896 0.33226 0.1648 0.0
C934 C 0.16198 0.34968 0.14558 0.0
C935 C 0.11357 0.40417 0.09332 0.0
C936 C 0.13 0.38442 0.11041 0.0
H937 H 0.17915 0.26805 0.19079 0.0
H938 H 0.15154 0.29641 0.15904 0.0
H939 H 0.19862 0.36712 0.12663 0.0
H940 H 0.11656 0.47109 0.07559 0.0
H941 H 0.14169 0.4386 0.10434 0.0
C942 C 0.18367 0.69752 0.8435 0.0
C943 C 0.17331 0.72239 0.83326 0.0
C944 C 0.16502 0.6767 0.84968 0.0
C945 C 0.09294 0.66299 0.86904 0.0
H946 H 0.11589 0.58744 0.85049 0.0
C947 C 0.04156 0.57238 0.91983 0.0
C948 C 0.06248 0.55835 0.93541 0.0
C949 C 0.04937 0.5892 0.89855 0.0
C950 C 0.10896 0.60842 0.85539 0.0
H951 H 0.13535 0.74551 0.82228 0.0
H952 H 0.10236 0.70897 0.83369 0.0
H953 H 0.14074 0.62567 0.83067 0.0
H954 H 0.10741 0.54874 0.93944 0.0
H955 H 0.12104 0.57796 0.90219 0.0
H956 H 0.06215 0.64576 0.89494 0.0
C957 C 0.12502 0.70566 0.83669 0.0
C958 C 0.12322 0.63024 0.84424 0.0
C959 C 0.14381 0.72659 0.83044 0.0
C960 C 0.09096 0.55961 0.92793 0.0
C961 C 0.09869 0.57608 0.90643 0.0
C962 C 0.07857 0.64112 0.88011 0.0
C963 C 0.13557 0.68031 0.84575 0.0
C964 C 0.1163 0.6577 0.85216 0.0
C965 C 0.0781 0.5918 0.89228 0.0
C966 C 0.08745 0.61375 0.87446 0.0
H967 H 0.20632 0.69402 0.84624 0.0
H968 H 0.17371 0.65771 0.85754 0.0
H969 H 0.08719 0.68397 0.87544 0.0
H970 H 0.01939 0.5717 0.92515 0.0
H971 H 0.03317 0.60111 0.88785 0.0
C972 C 0.27523 0.14409 0.8502 0.0
C973 C 0.28042 0.15883 0.82637 0.0
C974 C 0.2939 0.12319 0.85835 0.0
C975 C 0.33397 0.07289 0.86392 0.0
H976 H 0.40955 0.10337 0.87773 0.0
C977 C 0.40839 0.03674 0.95068 0.0
C978 C 0.438 0.03977 0.94939 0.0
C979 C 0.39041 0.04476 0.92887 0.0
C980 C 0.3889 0.09405 0.87332 0.0
H981 H 0.30878 0.16267 0.79196 0.0
H982 H 0.34132 0.12646 0.80636 0.0
H983 H 0.3741 0.12917 0.85153 0.0
H984 H 0.47213 0.0515 0.92316 0.0
H985 H 0.44054 0.06526 0.88452 0.0
H986 H 0.34856 0.03789 0.88595 0.0
C987 C 0.32268 0.13084 0.81849 0.0
C988 C 0.36852 0.10897 0.85843 0.0
C989 C 0.30388 0.15142 0.81015 0.0
C990 C 0.44938 0.04926 0.92489 0.0
C991 C 0.43126 0.05724 0.90285 0.0
C992 C 0.35451 0.0577 0.87838 0.0
C993 C 0.31824 0.11705 0.84301 0.0
C994 C 0.34065 0.09896 0.85448 0.0
C995 C 0.40151 0.05582 0.90497 0.0
C996 C 0.38188 0.06865 0.88429 0.0
H997 H 0.25732 0.14944 0.86299 0.0
H998 H 0.2902 0.11296 0.87752 0.0
H999 H 0.31266 0.06465 0.86079 0.0
H1000 H 0.39889 0.02901 0.96904 0.0
H1001 H 0.36771 0.04363 0.93156 0.0
C1002 C 0.80144 0.31407 0.82746 0.0
C1003 C 0.80769 0.2875 0.8163 0.0
C1004 C 0.82059 0.3277 0.84628 0.0
C1005 C 0.8841 0.31822 0.89295 0.0
H1006 H 0.89787 0.39465 0.87708 0.0
C1007 C 0.9634 0.4171 0.92371 0.0
C1008 C 0.96223 0.41775 0.9529 0.0
C1009 C 0.94848 0.39699 0.90746 0.0
C1010 C 0.89461 0.37321 0.88158 0.0
H1011 H 0.8383 0.25384 0.81715 0.0
H1012 H 0.87177 0.27777 0.84971 0.0
H1013 H 0.86219 0.36848 0.84944 0.0
H1014 H 0.94626 0.39743 0.98838 0.0
H1015 H 0.91962 0.36227 0.95995 0.0
H1016 H 0.91696 0.3231 0.92502 0.0
C1017 C 0.85201 0.28799 0.84411 0.0
C1018 C 0.87376 0.35836 0.86604 0.0
C1019 C 0.83287 0.27436 0.82531 0.0
C1020 C 0.94774 0.39689 0.96583 0.0
C1021 C 0.93247 0.37687 0.94954 0.0
C1022 C 0.90504 0.33317 0.90862 0.0
C1023 C 0.84639 0.31505 0.85428 0.0
C1024 C 0.86817 0.33074 0.87156 0.0
C1025 C 0.93162 0.37758 0.92017 0.0
C1026 C 0.91056 0.36083 0.90301 0.0
H1027 H 0.78214 0.32468 0.82108 0.0
H1028 H 0.81544 0.34838 0.85417 0.0
H1029 H 0.88018 0.29697 0.89775 0.0
H1030 H 0.97438 0.4332 0.91344 0.0
H1031 H 0.94878 0.39766 0.88489 0.0
C1032 C 0.7244 0.81327 0.83665 0.0
C1033 C 0.71337 0.79484 0.81553 0.0
C1034 C 0.70656 0.82561 0.85646 0.0
C1035 C 0.63276 0.82276 0.88414 0.0
H1036 H 0.65126 0.89762 0.9106 0.0
C1037 C 0.55726 0.90362 0.94003 0.0
C1038 C 0.5697 0.91812 0.9634 0.0
C1039 C 0.57338 0.88439 0.92436 0.0
C1040 C 0.64593 0.87662 0.90356 0.0
H1041 H 0.67498 0.77476 0.79869 0.0
H1042 H 0.64367 0.79717 0.83228 0.0
H1043 H 0.68224 0.87328 0.87823 0.0
H1044 H 0.60797 0.92349 0.98941 0.0
H1045 H 0.63607 0.89009 0.96214 0.0
H1046 H 0.59548 0.82712 0.90878 0.0
C1047 C 0.6662 0.80153 0.8343 0.0
C1048 C 0.66384 0.86249 0.8851 0.0
C1049 C 0.68417 0.78875 0.81485 0.0
C1050 C 0.59783 0.91214 0.97174 0.0
C1051 C 0.61396 0.89327 0.956 0.0
C1052 C 0.61449 0.83719 0.90227 0.0
C1053 C 0.67706 0.82038 0.85529 0.0
C1054 C 0.65772 0.83524 0.87521 0.0
C1055 C 0.60224 0.87994 0.93161 0.0
C1056 C 0.62108 0.86418 0.91233 0.0
H1057 H 0.74687 0.81816 0.83791 0.0
H1058 H 0.71603 0.83934 0.87265 0.0
H1059 H 0.62738 0.80172 0.8774 0.0
H1060 H 0.53579 0.90845 0.93289 0.0
H1061 H 0.56392 0.87449 0.90553 0.0
C1062 C 0.82571 0.68685 0.20853 0.0
C1063 C 0.81942 0.71368 0.2 0.0
C1064 C 0.84313 0.6691 0.19258 0.0
C1065 C 0.86592 0.65649 0.12036 0.0
H1066 H 0.92329 0.60894 0.15312 0.0
C1067 C 0.9141 0.56524 0.05719 0.0
C1068 C 0.94389 0.56219 0.05814 0.0
C1069 C 0.90062 0.58363 0.0758 0.0
C1070 C 0.90747 0.62221 0.14368 0.0
H1071 H 0.82704 0.74295 0.1682 0.0
H1072 H 0.85713 0.712 0.14041 0.0
H1073 H 0.89703 0.64176 0.18325 0.0
H1074 H 0.9827 0.5757 0.08041 0.0
H1075 H 0.95889 0.60775 0.11335 0.0
H1076 H 0.87601 0.63692 0.08091 0.0
C1077 C 0.84852 0.70463 0.15937 0.0
C1078 C 0.89226 0.64084 0.16093 0.0
C1079 C 0.83135 0.72244 0.1754 0.0
C1080 C 0.95975 0.57747 0.07902 0.0
C1081 C 0.94612 0.59581 0.09792 0.0
C1082 C 0.88083 0.63772 0.10322 0.0
C1083 C 0.85443 0.67764 0.16758 0.0
C1084 C 0.87124 0.65818 0.14946 0.0
C1085 C 0.91641 0.59947 0.09614 0.0
C1086 C 0.90166 0.62021 0.11463 0.0
H1087 H 0.81694 0.67943 0.22739 0.0
H1088 H 0.84706 0.64839 0.19941 0.0
H1089 H 0.84974 0.66931 0.11081 0.0
H1090 H 0.90102 0.55379 0.04162 0.0
H1091 H 0.87768 0.58557 0.07415 0.0
C1092 C 0.33584 0.78552 0.19384 0.0
C1093 C 0.31287 0.79849 0.2074 0.0
C1094 C 0.35403 0.80053 0.17723 0.0
C1095 C 0.35927 0.86929 0.14253 0.0
H1096 H 0.43856 0.84912 0.13523 0.0
C1097 C 0.43937 0.94516 0.09975 0.0
C1098 C 0.45763 0.9358 0.07845 0.0
C1099 C 0.42356 0.92674 0.11472 0.0
C1100 C 0.41641 0.85492 0.13683 0.0
H1101 H 0.29182 0.83797 0.21425 0.0
H1102 H 0.32351 0.864 0.18659 0.0
H1103 H 0.40759 0.82099 0.16252 0.0
H1104 H 0.47411 0.89872 0.05762 0.0
H1105 H 0.44687 0.8663 0.08454 0.0
H1106 H 0.36833 0.90365 0.11764 0.0
C1107 C 0.32722 0.84202 0.18772 0.0
C1108 C 0.39845 0.83868 0.15252 0.0
C1109 C 0.30893 0.82699 0.20396 0.0
C1110 C 0.46052 0.90692 0.07382 0.0
C1111 C 0.44476 0.88829 0.08923 0.0
C1112 C 0.37725 0.88564 0.1273 0.0
C1113 C 0.35011 0.82917 0.17378 0.0
C1114 C 0.3695 0.84571 0.15599 0.0
C1115 C 0.4254 0.89801 0.10941 0.0
C1116 C 0.40621 0.879 0.12438 0.0
H1117 H 0.33973 0.76365 0.19593 0.0
H1118 H 0.37097 0.78946 0.16683 0.0
H1119 H 0.33715 0.87528 0.14356 0.0
H1120 H 0.43651 0.96705 0.10451 0.0
H1121 H 0.40947 0.93516 0.1304 0.0
C1122 C 0.72665 0.18394 0.19667 0.0
C1123 C 0.71447 0.19684 0.22033 0.0
C1124 C 0.71077 0.16554 0.17897 0.0
C1125 C 0.63691 0.14897 0.15677 0.0
H1126 H 0.66995 0.08195 0.12425 0.0
C1127 C 0.57132 0.07361 0.08263 0.0
C1128 C 0.58505 0.06229 0.05908 0.0
C1129 C 0.58674 0.08824 0.10404 0.0
C1130 C 0.66046 0.10073 0.13291 0.0
H1131 H 0.67618 0.2 0.24423 0.0
H1132 H 0.64852 0.16791 0.21334 0.0
H1133 H 0.69772 0.11055 0.15842 0.0
H1134 H 0.62602 0.05716 0.03998 0.0
H1135 H 0.65266 0.083 0.07685 0.0
H1136 H 0.59991 0.13959 0.13086 0.0
C1137 C 0.6703 0.1722 0.20838 0.0
C1138 C 0.67639 0.11709 0.15256 0.0
C1139 C 0.68623 0.19045 0.22618 0.0
C1140 C 0.61465 0.06564 0.05771 0.0
C1141 C 0.63003 0.08029 0.07905 0.0
C1142 C 0.62103 0.1327 0.13701 0.0
C1143 C 0.68228 0.15973 0.1844 0.0
C1144 C 0.66489 0.14153 0.16456 0.0
C1145 C 0.61629 0.09194 0.10244 0.0
C1146 C 0.63268 0.10848 0.12461 0.0
H1147 H 0.74833 0.18839 0.19151 0.0
H1148 H 0.72057 0.1565 0.16055 0.0
H1149 H 0.62754 0.16786 0.16532 0.0
H1150 H 0.54859 0.07127 0.08454 0.0
H1151 H 0.57549 0.09654 0.12192 0.0
C1152 C 0.68689 0.64958 0.78027 0.0
C1153 C 0.67398 0.66429 0.75867 0.0
C1154 C 0.67164 0.62978 0.79367 0.0
C1155 C 0.60001 0.61265 0.81233 0.0
H1156 H 0.63564 0.5442 0.83398 0.0
C1157 C 0.54939 0.5409 0.89046 0.0
C1158 C 0.56848 0.53322 0.91203 0.0
C1159 C 0.55944 0.55297 0.86669 0.0
C1160 C 0.62536 0.5632 0.82805 0.0
H1161 H 0.63512 0.66968 0.73391 0.0
H1162 H 0.60815 0.63508 0.75771 0.0
H1163 H 0.65889 0.57292 0.80112 0.0
H1164 H 0.61311 0.53139 0.92504 0.0
H1165 H 0.63038 0.55243 0.88409 0.0
H1166 H 0.56716 0.6036 0.84034 0.0
C1167 C 0.63016 0.63886 0.76408 0.0
C1168 C 0.63866 0.5796 0.80925 0.0
C1169 C 0.6456 0.65848 0.7504 0.0
C1170 C 0.59775 0.53716 0.90896 0.0
C1171 C 0.60773 0.54898 0.88527 0.0
C1172 C 0.58674 0.59628 0.8313 0.0
C1173 C 0.64304 0.62442 0.78594 0.0
C1174 C 0.6266 0.60493 0.80193 0.0
C1175 C 0.58874 0.55726 0.86397 0.0
C1176 C 0.59981 0.57188 0.8401 0.0
H1177 H 0.70882 0.65344 0.78685 0.0
H1178 H 0.68203 0.61922 0.81068 0.0
H1179 H 0.59031 0.63216 0.80714 0.0
H1180 H 0.5267 0.53816 0.8922 0.0
H1181 H 0.54432 0.55908 0.85055 0.0
C1182 C 0.31155 0.70114 0.83381 0.0
C1183 C 0.32003 0.70563 0.80652 0.0
C1184 C 0.32915 0.68677 0.85241 0.0
C1185 C 0.40435 0.66381 0.86489 0.0
H1186 H 0.36984 0.61543 0.91613 0.0
C1187 C 0.46799 0.58615 0.93374 0.0
C1188 C 0.45749 0.58126 0.96024 0.0
C1189 C 0.45329 0.60367 0.91557 0.0
C1190 C 0.3799 0.62915 0.90227 0.0
H1191 H 0.35383 0.69814 0.77744 0.0
H1192 H 0.38423 0.67263 0.80962 0.0
H1193 H 0.33989 0.6399 0.8831 0.0
H1194 H 0.42455 0.59292 0.98912 0.0
H1195 H 0.39951 0.62367 0.95792 0.0
H1196 H 0.44448 0.65255 0.88399 0.0
C1197 C 0.36415 0.68066 0.81688 0.0
C1198 C 0.36263 0.64325 0.88322 0.0
C1199 C 0.34655 0.69512 0.79828 0.0
C1200 C 0.43317 0.59593 0.96882 0.0
C1201 C 0.41859 0.6134 0.95076 0.0
C1202 C 0.42169 0.64956 0.88393 0.0
C1203 C 0.35577 0.67632 0.84428 0.0
C1204 C 0.37451 0.66094 0.8643 0.0
C1205 C 0.42777 0.61672 0.92348 0.0
C1206 C 0.40968 0.63216 0.90304 0.0
H1207 H 0.29139 0.70907 0.84101 0.0
H1208 H 0.32203 0.68431 0.87339 0.0
H1209 H 0.41436 0.67747 0.85094 0.0
H1210 H 0.48647 0.57503 0.92628 0.0
H1211 H 0.46104 0.60571 0.89475 0.0
C1212 C 0.33749 0.3204 0.78398 0.0
C1213 C 0.31988 0.30174 0.79675 0.0
C1214 C 0.35485 0.33863 0.80019 0.0
C1215 C 0.38338 0.35434 0.8727 0.0
H1216 H 0.38452 0.42951 0.84808 0.0
C1217 C 0.41438 0.44738 0.9461 0.0
C1218 C 0.43461 0.46563 0.93641 0.0
C1219 C 0.40198 0.42707 0.92806 0.0
C1220 C 0.38461 0.40855 0.85503 0.0
H1221 H 0.3074 0.28673 0.83644 0.0
H1222 H 0.33708 0.31903 0.86482 0.0
H1223 H 0.36123 0.39337 0.81852 0.0
H1224 H 0.45692 0.47735 0.89986 0.0
H1225 H 0.43467 0.44204 0.86821 0.0
H1226 H 0.4059 0.36997 0.90973 0.0
C1227 C 0.33798 0.31929 0.84227 0.0
C1228 C 0.37142 0.38778 0.83808 0.0
C1229 C 0.32087 0.3008 0.82602 0.0
C1230 C 0.4414 0.46366 0.908 0.0
C1231 C 0.4287 0.44349 0.88987 0.0
C1232 C 0.39627 0.37519 0.88978 0.0
C1233 C 0.3547 0.33884 0.82955 0.0
C1234 C 0.37043 0.36045 0.8468 0.0
C1235 C 0.40927 0.42473 0.89989 0.0
C1236 C 0.39675 0.40251 0.8812 0.0
H1237 H 0.33737 0.32139 0.76142 0.0
H1238 H 0.36797 0.35294 0.78969 0.0
H1239 H 0.38347 0.33347 0.87985 0.0
H1240 H 0.40869 0.44819 0.96784 0.0
H1241 H 0.38674 0.41306 0.93618 0.0
C1242 C 0.63904 0.30439 0.79098 0.0
C1243 C 0.65257 0.32603 0.77798 0.0
C1244 C 0.61601 0.30977 0.808 0.0
C1245 C 0.5666 0.36515 0.83361 0.0
H1246 H 0.58444 0.33506 0.9058 0.0
C1247 C 0.52442 0.41817 0.93225 0.0
C1248 C 0.54733 0.42647 0.95039 0.0
C1249 C 0.52795 0.39692 0.91187 0.0
C1250 C 0.57884 0.34333 0.88571 0.0
H1251 H 0.65019 0.36972 0.77024 0.0
H1252 H 0.61077 0.3793 0.80067 0.0
H1253 H 0.60718 0.3158 0.86445 0.0
H1254 H 0.59064 0.41685 0.96362 0.0
H1255 H 0.59679 0.38001 0.92824 0.0
H1256 H 0.54016 0.39428 0.85538 0.0
C1257 C 0.61784 0.3581 0.79761 0.0
C1258 C 0.59168 0.33215 0.8619 0.0
C1259 C 0.64078 0.3527 0.78043 0.0
C1260 C 0.57271 0.41118 0.94973 0.0
C1261 C 0.57615 0.38985 0.92954 0.0
C1262 C 0.5538 0.37638 0.85747 0.0
C1263 C 0.60602 0.33689 0.81256 0.0
C1264 C 0.58681 0.34387 0.83582 0.0
C1265 C 0.5543 0.38345 0.90951 0.0
C1266 C 0.56097 0.36651 0.88396 0.0
H1267 H 0.64721 0.28351 0.78969 0.0
H1268 H 0.60703 0.29289 0.81882 0.0
H1269 H 0.56202 0.37428 0.81373 0.0
H1270 H 0.50447 0.42941 0.93228 0.0
H1271 H 0.51064 0.39216 0.89692 0.0
C1272 C 0.68634 0.32367 0.2293 0.0
C1273 C 0.71242 0.3124 0.22075 0.0
C1274 C 0.67135 0.3424 0.21276 0.0
C1275 C 0.66473 0.36514 0.1398 0.0
H1276 H 0.6274 0.42957 0.173 0.0
C1277 C 0.62004 0.45106 0.07155 0.0
C1278 C 0.59375 0.46321 0.07819 0.0
C1279 C 0.63403 0.43342 0.08984 0.0
C1280 C 0.63741 0.41152 0.16338 0.0
H1281 H 0.7433 0.3124 0.18816 0.0
H1282 H 0.71738 0.34498 0.15956 0.0
H1283 H 0.65242 0.39732 0.20305 0.0
H1284 H 0.5619 0.46644 0.10986 0.0
H1285 H 0.58624 0.43541 0.14172 0.0
H1286 H 0.64974 0.3791 0.10021 0.0
C1287 C 0.70823 0.33911 0.17885 0.0
C1288 C 0.65179 0.393 0.18064 0.0
C1289 C 0.72321 0.32049 0.19537 0.0
C1290 C 0.58216 0.45763 0.10405 0.0
C1291 C 0.59618 0.43984 0.12238 0.0
C1292 C 0.65035 0.38356 0.1226 0.0
C1293 C 0.68201 0.35024 0.18719 0.0
C1294 C 0.66588 0.36967 0.16906 0.0
C1295 C 0.62215 0.42719 0.11535 0.0
C1296 C 0.6367 0.40719 0.13407 0.0
H1297 H 0.67736 0.3179 0.2487 0.0
H1298 H 0.65113 0.35033 0.21976 0.0
H1299 H 0.67475 0.34712 0.13011 0.0
H1300 H 0.62984 0.45497 0.052 0.0
H1301 H 0.65426 0.42464 0.08391 0.0
C1302 C 0.7077 0.73232 0.16057 0.0
C1303 C 0.70315 0.73318 0.18939 0.0
C1304 C 0.68925 0.71742 0.14196 0.0
C1305 C 0.63663 0.66041 0.14279 0.0
H1306 H 0.62526 0.67552 0.06437 0.0
C1307 C 0.56448 0.59252 0.06998 0.0
C1308 C 0.57877 0.5799 0.04738 0.0
C1309 C 0.57635 0.61521 0.08513 0.0
C1310 C 0.62824 0.6712 0.08626 0.0
H1311 H 0.67479 0.72123 0.22129 0.0
H1312 H 0.64161 0.69683 0.18887 0.0
H1313 H 0.65116 0.70876 0.09576 0.0
H1314 H 0.61572 0.58259 0.02177 0.0
H1315 H 0.63623 0.62264 0.04818 0.0
H1316 H 0.61336 0.62311 0.13331 0.0
C1317 C 0.66009 0.7063 0.18053 0.0
C1318 C 0.64321 0.69009 0.10425 0.0
C1319 C 0.67893 0.72053 0.19915 0.0
C1320 C 0.60427 0.59168 0.03917 0.0
C1321 C 0.61594 0.61468 0.05415 0.0
C1322 C 0.62126 0.64192 0.12499 0.0
C1323 C 0.66555 0.70361 0.15179 0.0
C1324 C 0.64788 0.68479 0.13274 0.0
C1325 C 0.60252 0.62604 0.07778 0.0
C1326 C 0.61716 0.64697 0.09655 0.0
H1327 H 0.72638 0.74182 0.15259 0.0
H1328 H 0.69443 0.71568 0.1201 0.0
H1329 H 0.64038 0.65502 0.16428 0.0
H1330 H 0.54479 0.58409 0.07694 0.0
H1331 H 0.56554 0.62375 0.1032 0.0
C1332 C 0.38598 0.69296 0.2461 0.0
C1333 C 0.36565 0.67495 0.25608 0.0
C1334 C 0.41135 0.68259 0.23553 0.0
C1335 C 0.43931 0.65291 0.18787 0.0
H1336 H 0.46974 0.57991 0.20058 0.0
C1337 C 0.44988 0.57283 0.09947 0.0
C1338 C 0.4731 0.55455 0.09888 0.0
C1339 C 0.44634 0.59116 0.12236 0.0
C1340 C 0.46202 0.60057 0.19691 0.0
H1341 H 0.35858 0.63267 0.26728 0.0
H1342 H 0.40146 0.61444 0.24726 0.0
H1343 H 0.44992 0.60728 0.23936 0.0
H1344 H 0.51089 0.54126 0.12207 0.0
H1345 H 0.50438 0.5733 0.16228 0.0
H1346 H 0.45063 0.64588 0.14532 0.0
C1347 C 0.39812 0.63658 0.24755 0.0
C1348 C 0.45044 0.61616 0.21906 0.0
C1349 C 0.37302 0.647 0.25857 0.0
C1350 C 0.49265 0.55497 0.12187 0.0
C1351 C 0.48903 0.57332 0.14489 0.0
C1352 C 0.45107 0.63747 0.1659 0.0
C1353 C 0.41669 0.65399 0.23425 0.0
C1354 C 0.43731 0.64176 0.21434 0.0
C1355 C 0.46592 0.59171 0.14523 0.0
C1356 C 0.46087 0.6105 0.16981 0.0
H1357 H 0.38164 0.71475 0.24442 0.0
H1358 H 0.42571 0.69674 0.22633 0.0
H1359 H 0.42946 0.67248 0.18322 0.0
H1360 H 0.43439 0.57311 0.08221 0.0
H1361 H 0.42791 0.60463 0.12234 0.0
C1362 C 0.38275 0.33705 0.23565 0.0
C1363 C 0.35347 0.33456 0.22903 0.0
C1364 C 0.40137 0.34634 0.2159 0.0
C1365 C 0.4067 0.35149 0.13976 0.0
H1366 H 0.46071 0.41042 0.15778 0.0
C1367 C 0.44321 0.42598 0.05993 0.0
C1368 C 0.47033 0.43797 0.06274 0.0
C1369 C 0.43453 0.40711 0.07897 0.0
C1370 C 0.44627 0.39346 0.15249 0.0
H1371 H 0.32066 0.34154 0.19719 0.0
H1372 H 0.35295 0.35741 0.16291 0.0
H1373 H 0.43427 0.39081 0.19508 0.0
H1374 H 0.51044 0.43809 0.08648 0.0
H1375 H 0.49519 0.40492 0.11992 0.0
H1376 H 0.41793 0.35465 0.09713 0.0
C1377 C 0.36166 0.35159 0.18304 0.0
C1378 C 0.43104 0.38233 0.17387 0.0
C1379 C 0.34314 0.34255 0.20273 0.0
C1380 C 0.48942 0.4291 0.08374 0.0
C1381 C 0.4806 0.41035 0.10304 0.0
C1382 C 0.42197 0.36249 0.11846 0.0
C1383 C 0.39101 0.35311 0.18919 0.0
C1384 C 0.41036 0.36195 0.16753 0.0
C1385 C 0.45271 0.3999 0.1014 0.0
C1386 C 0.44116 0.3843 0.12443 0.0
H1387 H 0.39143 0.33089 0.25563 0.0
H1388 H 0.42391 0.34743 0.22121 0.0
H1389 H 0.39134 0.33533 0.13437 0.0
H1390 H 0.42809 0.43233 0.04387 0.0
H1391 H 0.41283 0.39967 0.07716 0.0
C1392 C 0.83707 0.74284 0.68633 0.0
C1393 C 0.81012 0.73206 0.69146 0.0
C1394 C 0.85463 0.72961 0.66668 0.0
C1395 C 0.85355 0.67669 0.6071 0.0
H1396 H 0.93352 0.66804 0.62714 0.0
C1397 C 0.92222 0.58798 0.56225 0.0
C1398 C 0.95094 0.5926 0.55687 0.0
C1399 C 0.90546 0.60901 0.57406 0.0
C1400 C 0.91136 0.67067 0.62093 0.0
H1401 H 0.78041 0.6991 0.67948 0.0
H1402 H 0.81092 0.67601 0.64575 0.0
H1403 H 0.90351 0.6971 0.65703 0.0
H1404 H 0.98438 0.62326 0.55881 0.0
H1405 H 0.95499 0.66028 0.57987 0.0
H1406 H 0.86122 0.64943 0.57158 0.0
C1407 C 0.81847 0.6949 0.65649 0.0
C1408 C 0.89409 0.68736 0.63811 0.0
C1409 C 0.80097 0.70809 0.67605 0.0
C1410 C 0.96224 0.61918 0.56249 0.0
C1411 C 0.9455 0.64025 0.5748 0.0
C1412 C 0.87077 0.65993 0.59005 0.0
C1413 C 0.84566 0.7053 0.65164 0.0
C1414 C 0.86477 0.69007 0.63179 0.0
C1415 C 0.91702 0.63522 0.5812 0.0
C1416 C 0.89976 0.65619 0.59706 0.0
H1417 H 0.8448 0.7613 0.69776 0.0
H1418 H 0.87527 0.73844 0.66332 0.0
H1419 H 0.83127 0.67877 0.60113 0.0
H1420 H 0.91291 0.5677 0.55816 0.0
H1421 H 0.88376 0.60426 0.57891 0.0
C1422 C 0.35223 0.80847 0.66078 0.0
C1423 C 0.35313 0.77946 0.65765 0.0
C1424 C 0.36184 0.82471 0.63989 0.0
C1425 C 0.4137 0.82479 0.58722 0.0
H1426 H 0.37437 0.89112 0.56462 0.0
C1427 C 0.47233 0.90376 0.5273 0.0
C1428 C 0.46927 0.93132 0.53719 0.0
C1429 C 0.45315 0.88374 0.53441 0.0
C1430 C 0.38562 0.8727 0.57075 0.0
H1431 H 0.36467 0.74485 0.62979 0.0
H1432 H 0.38259 0.77348 0.59364 0.0
H1433 H 0.34976 0.85774 0.59184 0.0
H1434 H 0.44312 0.95996 0.56117 0.0
H1435 H 0.41044 0.9246 0.57523 0.0
H1436 H 0.45014 0.84028 0.56814 0.0
C1437 C 0.37399 0.78342 0.61227 0.0
C1438 C 0.37149 0.85358 0.58614 0.0
C1439 C 0.36402 0.76709 0.63308 0.0
C1440 C 0.44596 0.9388 0.55337 0.0
C1441 C 0.42711 0.91855 0.56115 0.0
C1442 C 0.42792 0.844 0.57217 0.0
C1443 C 0.37293 0.81235 0.61556 0.0
C1444 C 0.38572 0.82989 0.59512 0.0
C1445 C 0.431 0.89066 0.55236 0.0
C1446 C 0.4143 0.86856 0.56442 0.0
H1447 H 0.34462 0.8188 0.67959 0.0
H1448 H 0.36147 0.84699 0.64321 0.0
H1449 H 0.42521 0.80683 0.59422 0.0
H1450 H 0.48996 0.89752 0.51449 0.0
H1451 H 0.45632 0.86263 0.52663 0.0
C1452 C 0.2377 0.38316 0.69777 0.0
C1453 C 0.25099 0.36593 0.67756 0.0
C1454 C 0.2223 0.40636 0.68987 0.0
C1455 C 0.19991 0.4475 0.62854 0.0
H1456 H 0.12537 0.43908 0.65906 0.0
C1457 C 0.09574 0.46395 0.56601 0.0
C1458 C 0.07183 0.4743 0.57988 0.0
C1459 C 0.12117 0.45928 0.58091 0.0
C1460 C 0.14612 0.44231 0.6507 0.0
H1461 H 0.26239 0.36271 0.63394 0.0
H1462 H 0.2344 0.402 0.62003 0.0
H1463 H 0.16606 0.41727 0.68104 0.0
H1464 H 0.05636 0.48936 0.62 0.0
H1465 H 0.10078 0.48109 0.64599 0.0
H1466 H 0.17922 0.47126 0.59709 0.0
C1467 C 0.23572 0.3976 0.64199 0.0
C1468 C 0.1696 0.42985 0.6634 0.0
C1469 C 0.25145 0.37461 0.64995 0.0
C1470 C 0.07419 0.48078 0.60879 0.0
C1471 C 0.09967 0.47619 0.62367 0.0
C1472 C 0.1763 0.45993 0.61574 0.0
C1473 C 0.21962 0.41275 0.6616 0.0
C1474 C 0.19661 0.43141 0.65188 0.0
C1475 C 0.12329 0.46499 0.60996 0.0
C1476 C 0.14902 0.45657 0.62613 0.0
H1477 H 0.23731 0.37794 0.71943 0.0
H1478 H 0.21088 0.41819 0.70565 0.0
H1479 H 0.2205 0.44948 0.61944 0.0
H1480 H 0.09469 0.45894 0.54371 0.0
H1481 H 0.13885 0.45023 0.56981 0.0
C1482 C 0.68806 0.22734 0.68061 0.0
C1483 C 0.71469 0.21668 0.68893 0.0
C1484 C 0.67062 0.21262 0.66094 0.0
C1485 C 0.65762 0.14141 0.63446 0.0
H1486 H 0.61059 0.17545 0.57747 0.0
C1487 C 0.58546 0.07599 0.55859 0.0
C1488 C 0.55757 0.08579 0.55427 0.0
C1489 C 0.60623 0.09298 0.57182 0.0
C1490 C 0.62349 0.1657 0.59341 0.0
H1491 H 0.74452 0.18292 0.68213 0.0
H1492 H 0.71425 0.15747 0.64771 0.0
H1493 H 0.64427 0.20373 0.60636 0.0
H1494 H 0.52994 0.12152 0.55952 0.0
H1495 H 0.56609 0.15096 0.58311 0.0
H1496 H 0.63658 0.10358 0.62211 0.0
C1497 C 0.70662 0.17694 0.65673 0.0
C1498 C 0.64276 0.18188 0.60991 0.0
C1499 C 0.72401 0.1916 0.67637 0.0
C1500 C 0.55117 0.11326 0.56266 0.0
C1501 C 0.57195 0.13023 0.576 0.0
C1502 C 0.63838 0.1253 0.61806 0.0
C1503 C 0.6795 0.18698 0.64924 0.0
C1504 C 0.65993 0.1699 0.6307 0.0
C1505 C 0.59959 0.12012 0.58111 0.0
C1506 C 0.62098 0.13726 0.59745 0.0
H1507 H 0.68028 0.24662 0.68991 0.0
H1508 H 0.64974 0.22079 0.65574 0.0
H1509 H 0.67014 0.13165 0.65067 0.0
H1510 H 0.59126 0.05508 0.55198 0.0
H1511 H 0.62748 0.08475 0.57497 0.0
C1512 C 0.8209 0.33034 0.30068 0.0
C1513 C 0.79718 0.31754 0.31149 0.0
C1514 C 0.83668 0.34984 0.31705 0.0
C1515 C 0.85513 0.3701 0.39004 0.0
H1516 H 0.88438 0.436 0.35833 0.0
C1517 C 0.92923 0.4466 0.45416 0.0
C1518 C 0.95291 0.45574 0.44005 0.0
C1519 C 0.90702 0.4325 0.43945 0.0
C1520 C 0.87652 0.41761 0.36748 0.0
H1521 H 0.77115 0.31552 0.34785 0.0
H1522 H 0.79888 0.34954 0.37649 0.0
H1523 H 0.85154 0.4061 0.33054 0.0
H1524 H 0.97133 0.45775 0.39923 0.0
H1525 H 0.93313 0.43296 0.37392 0.0
H1526 H 0.8808 0.38108 0.42664 0.0
C1527 C 0.80526 0.34437 0.35536 0.0
C1528 C 0.85768 0.40052 0.35155 0.0
C1529 C 0.78931 0.32501 0.3389 0.0
C1530 C 0.95351 0.45101 0.41087 0.0
C1531 C 0.93141 0.43695 0.39624 0.0
C1532 C 0.87413 0.38713 0.40593 0.0
C1533 C 0.82922 0.35686 0.34467 0.0
C1534 C 0.84716 0.37632 0.36247 0.0
C1535 C 0.90799 0.42729 0.41033 0.0
C1536 C 0.88548 0.41082 0.39464 0.0
H1537 H 0.82752 0.32506 0.27965 0.0
H1538 H 0.85522 0.35886 0.30831 0.0
H1539 H 0.84759 0.35145 0.39894 0.0
H1540 H 0.928 0.44999 0.47661 0.0
H1541 H 0.88914 0.4256 0.4509 0.0
C1542 C 0.69452 0.80432 0.30846 0.0
C1543 C 0.70939 0.81219 0.28514 0.0
C1544 C 0.67749 0.82352 0.32319 0.0
C1545 C 0.6698 0.89849 0.33807 0.0
H1546 H 0.59487 0.88037 0.36284 0.0
C1547 C 0.56748 0.95388 0.39635 0.0
C1548 C 0.58133 0.9651 0.42076 0.0
C1549 C 0.58252 0.9374 0.37695 0.0
C1550 C 0.61565 0.88583 0.35581 0.0
H1551 H 0.71731 0.84623 0.25881 0.0
H1552 H 0.68812 0.87956 0.28443 0.0
H1553 H 0.62176 0.84588 0.33545 0.0
H1554 H 0.62198 0.9693 0.44316 0.0
H1555 H 0.64837 0.94157 0.40889 0.0
H1556 H 0.66397 0.93821 0.35888 0.0
C1557 C 0.68971 0.85868 0.29151 0.0
C1558 C 0.63117 0.86597 0.34041 0.0
C1559 C 0.70641 0.8395 0.27672 0.0
C1560 C 0.61082 0.96116 0.42439 0.0
C1561 C 0.62591 0.94519 0.40479 0.0
C1562 C 0.65447 0.91819 0.35378 0.0
C1563 C 0.67522 0.85105 0.31508 0.0
C1564 C 0.65847 0.87205 0.33139 0.0
C1565 C 0.61177 0.9323 0.38135 0.0
C1566 C 0.62723 0.91209 0.3629 0.0
H1567 H 0.69629 0.78345 0.31553 0.0
H1568 H 0.6667 0.81702 0.34136 0.0
H1569 H 0.69085 0.9038 0.33162 0.0
H1570 H 0.54469 0.95613 0.39326 0.0
H1571 H 0.5711 0.92793 0.35896 0.0
C1572 C 0.21807 0.6944 0.32333 0.0
C1573 C 0.21005 0.7209 0.31487 0.0
C1574 C 0.20126 0.67962 0.34122 0.0
C1575 C 0.12777 0.67563 0.36994 0.0
H1576 H 0.16558 0.6275 0.42192 0.0
C1577 C 0.06471 0.61073 0.44893 0.0
C1578 C 0.07416 0.58337 0.45219 0.0
C1579 C 0.08089 0.6296 0.43427 0.0
C1580 C 0.15446 0.64059 0.40741 0.0
H1581 H 0.17737 0.7523 0.31902 0.0
H1582 H 0.1482 0.72673 0.35041 0.0
H1583 H 0.19368 0.65561 0.39257 0.0
H1584 H 0.10888 0.55514 0.4431 0.0
H1585 H 0.13667 0.58747 0.41829 0.0
H1586 H 0.08847 0.66037 0.38496 0.0
C1587 C 0.16751 0.71717 0.34295 0.0
C1588 C 0.17074 0.65684 0.39035 0.0
C1589 C 0.18442 0.73204 0.32498 0.0
C1590 C 0.10071 0.57594 0.44122 0.0
C1591 C 0.11688 0.5947 0.42694 0.0
C1592 C 0.11142 0.65934 0.38712 0.0
C1593 C 0.17565 0.69065 0.35152 0.0
C1594 C 0.15781 0.6744 0.37091 0.0
C1595 C 0.10722 0.62182 0.42277 0.0
C1596 C 0.12446 0.64115 0.40591 0.0
H1597 H 0.23744 0.68485 0.31597 0.0
H1598 H 0.20828 0.65918 0.34659 0.0
H1599 H 0.11672 0.68858 0.35526 0.0
H1600 H 0.04431 0.61726 0.45672 0.0
H1601 H 0.07267 0.65028 0.43183 0.0
C1602 C 0.33119 0.20574 0.30656 0.0
C1603 C 0.3018 0.20122 0.30256 0.0
C1604 C 0.3485 0.18614 0.31941 0.0
C1605 C 0.34768 0.13058 0.36802 0.0
H1606 H 0.41657 0.10509 0.33273 0.0
C1607 C 0.41721 0.04957 0.42034 0.0
C1608 C 0.44666 0.05383 0.42055 0.0
C1609 C 0.39914 0.06364 0.4021 0.0
C1610 C 0.39758 0.11214 0.34306 0.0
H1611 H 0.26743 0.17291 0.3095 0.0
H1612 H 0.29761 0.13909 0.3327 0.0
H1613 H 0.38614 0.13905 0.31012 0.0
H1614 H 0.48062 0.0751 0.40129 0.0
H1615 H 0.4492 0.10053 0.37004 0.0
H1616 H 0.3594 0.10499 0.40156 0.0
C1617 C 0.30723 0.15767 0.3256 0.0
C1618 C 0.38014 0.13156 0.33003 0.0
C1619 C 0.28999 0.17703 0.31234 0.0
C1620 C 0.45797 0.0711 0.40108 0.0
C1621 C 0.43985 0.08574 0.38323 0.0
C1622 C 0.36529 0.11156 0.38127 0.0
C1623 C 0.33671 0.16186 0.32894 0.0
C1624 C 0.35506 0.141 0.34245 0.0
C1625 C 0.41008 0.08302 0.38428 0.0
C1626 C 0.39056 0.10204 0.36903 0.0
H1627 H 0.34097 0.22408 0.29909 0.0
H1628 H 0.37112 0.19001 0.32199 0.0
H1629 H 0.32863 0.13774 0.3782 0.0
H1630 H 0.40805 0.03638 0.43531 0.0
H1631 H 0.37647 0.06022 0.40292 0.0
C1632 C 0.68795 0.81189 0.70226 0.0
C1633 C 0.71748 0.8157 0.70538 0.0
C1634 C 0.67081 0.83153 0.68931 0.0
C1635 C 0.67174 0.90453 0.66619 0.0
H1636 H 0.60332 0.88081 0.62451 0.0
C1637 C 0.61025 0.96514 0.58124 0.0
C1638 C 0.58045 0.96578 0.58238 0.0
C1639 C 0.62653 0.95047 0.60053 0.0
C1640 C 0.62217 0.88777 0.63642 0.0
H1641 H 0.75234 0.84269 0.69669 0.0
H1642 H 0.7228 0.87616 0.67261 0.0
H1643 H 0.63301 0.84676 0.64731 0.0
H1644 H 0.54436 0.95262 0.60516 0.0
H1645 H 0.57289 0.92629 0.6386 0.0
H1646 H 0.6614 0.94543 0.65349 0.0
C1647 C 0.71254 0.85862 0.68113 0.0
C1648 C 0.63925 0.86825 0.64962 0.0
C1649 C 0.72961 0.83925 0.69466 0.0
C1650 C 0.56732 0.9528 0.60412 0.0
C1651 C 0.58358 0.93754 0.62303 0.0
C1652 C 0.65493 0.92395 0.65242 0.0
C1653 C 0.6828 0.85526 0.67853 0.0
C1654 C 0.66437 0.87627 0.66469 0.0
C1655 C 0.61325 0.93561 0.62087 0.0
C1656 C 0.63 0.91573 0.63742 0.0
H1657 H 0.67791 0.79415 0.71068 0.0
H1658 H 0.64805 0.8283 0.68837 0.0
H1659 H 0.69048 0.91177 0.67803 0.0
H1660 H 0.62082 0.9748 0.5645 0.0
H1661 H 0.64934 0.94919 0.59833 0.0
C1662 C 0.65889 0.24585 0.38754 0.0
C1663 C 0.68473 0.24076 0.37441 0.0
C1664 C 0.65152 0.23069 0.41024 0.0
C1665 C 0.64019 0.19625 0.45976 0.0
H1666 H 0.64815 0.11954 0.43412 0.0
C1667 C 0.5884 0.08068 0.47308 0.0
C1668 C 0.55973 0.0889 0.47152 0.0
C1669 C 0.61005 0.10014 0.47135 0.0
C1670 C 0.64631 0.1407 0.44225 0.0
H1671 H 0.72443 0.21774 0.37684 0.0
H1672 H 0.71166 0.19167 0.41658 0.0
H1673 H 0.67661 0.1545 0.414 0.0
H1674 H 0.53134 0.12414 0.46825 0.0
H1675 H 0.56882 0.15769 0.46434 0.0
H1676 H 0.60857 0.18239 0.48691 0.0
C1677 C 0.69693 0.20708 0.40901 0.0
C1678 C 0.6627 0.16084 0.43069 0.0
C1679 C 0.70428 0.22222 0.38628 0.0
C1680 C 0.55319 0.11703 0.46921 0.0
C1681 C 0.57475 0.1364 0.46742 0.0
C1682 C 0.62384 0.17605 0.47144 0.0
C1683 C 0.6699 0.21016 0.42028 0.0
C1684 C 0.65874 0.18895 0.43827 0.0
C1685 C 0.60341 0.12815 0.46803 0.0
C1686 C 0.62566 0.14826 0.46168 0.0
H1687 H 0.64367 0.26043 0.37926 0.0
H1688 H 0.63047 0.23353 0.41838 0.0
H1689 H 0.63707 0.21773 0.46633 0.0
H1690 H 0.59416 0.05922 0.47545 0.0
H1691 H 0.63196 0.0932 0.47213 0.0
C1692 C 0.80219 0.64746 0.30748 0.0
C1693 C 0.77788 0.6592 0.31947 0.0
C1694 C 0.8194 0.62937 0.32233 0.0
C1695 C 0.84072 0.61576 0.39401 0.0
H1696 H 0.88004 0.55322 0.35938 0.0
C1697 C 0.92776 0.55634 0.45395 0.0
C1698 C 0.95261 0.55038 0.43929 0.0
C1699 C 0.90326 0.56555 0.43995 0.0
C1700 C 0.8693 0.5707 0.36931 0.0
H1701 H 0.75177 0.66032 0.35586 0.0
H1702 H 0.78196 0.62853 0.38199 0.0
H1703 H 0.84166 0.57583 0.33343 0.0
H1704 H 0.97095 0.5489 0.39829 0.0
H1705 H 0.92842 0.56553 0.374 0.0
H1706 H 0.86895 0.61138 0.42946 0.0
C1707 C 0.78772 0.63351 0.36112 0.0
C1708 C 0.84728 0.58356 0.3545 0.0
C1709 C 0.77035 0.6515 0.34613 0.0
C1710 C 0.95223 0.55338 0.41024 0.0
C1711 C 0.92774 0.56266 0.39626 0.0
C1712 C 0.86278 0.60297 0.40878 0.0
C1713 C 0.81272 0.62271 0.34955 0.0
C1714 C 0.83319 0.60659 0.36648 0.0
C1715 C 0.90305 0.56906 0.41099 0.0
C1716 C 0.87773 0.58067 0.39637 0.0
H1717 H 0.80823 0.65273 0.28679 0.0
H1718 H 0.83863 0.6216 0.31293 0.0
H1719 H 0.83052 0.63371 0.40366 0.0
H1720 H 0.9272 0.554 0.47631 0.0
H1721 H 0.88448 0.56996 0.45183 0.0
C1722 C 0.29907 0.81605 0.34077 0.0
C1723 C 0.30957 0.79631 0.32134 0.0
C1724 C 0.31774 0.83118 0.35894 0.0
C1725 C 0.36063 0.87289 0.3826 0.0
H1726 H 0.43514 0.84427 0.40271 0.0
C1727 C 0.44935 0.94508 0.42842 0.0
C1728 C 0.47057 0.93442 0.44625 0.0
C1729 C 0.42905 0.92759 0.41503 0.0
C1730 C 0.41429 0.85262 0.39786 0.0
H1731 H 0.34767 0.77684 0.30554 0.0
H1732 H 0.38025 0.80414 0.33577 0.0
H1733 H 0.40063 0.81408 0.37871 0.0
H1734 H 0.48692 0.89717 0.46434 0.0
H1735 H 0.45046 0.86703 0.44287 0.0
H1736 H 0.37362 0.91091 0.40342 0.0
C1737 C 0.35768 0.80733 0.33817 0.0
C1738 C 0.39453 0.83531 0.38344 0.0
C1739 C 0.33898 0.79169 0.3206 0.0
C1740 C 0.47082 0.906 0.45073 0.0
C1741 C 0.45001 0.88864 0.43806 0.0
C1742 C 0.38011 0.89 0.39773 0.0
C1743 C 0.3474 0.82749 0.35749 0.0
C1744 C 0.36759 0.84531 0.37505 0.0
C1745 C 0.42896 0.89908 0.41973 0.0
C1746 C 0.40747 0.88031 0.40513 0.0
H1747 H 0.27643 0.81986 0.34184 0.0
H1748 H 0.30882 0.84591 0.37393 0.0
H1749 H 0.34036 0.88168 0.37632 0.0
H1750 H 0.44878 0.96689 0.42432 0.0
H1751 H 0.41379 0.9365 0.40059 0.0
C1752 C 0.22189 0.31198 0.33139 0.0
C1753 C 0.21196 0.28741 0.31755 0.0
C1754 C 0.2053 0.32639 0.35098 0.0
C1755 C 0.14257 0.32182 0.39608 0.0
H1756 H 0.13866 0.40082 0.38684 0.0
C1757 C 0.08165 0.40458 0.46801 0.0
C1758 C 0.06628 0.42414 0.45273 0.0
C1759 C 0.09903 0.38488 0.45403 0.0
C1760 C 0.13953 0.37879 0.3898 0.0
H1761 H 0.17699 0.25828 0.31448 0.0
H1762 H 0.14794 0.28355 0.34867 0.0
H1763 H 0.1702 0.37254 0.35824 0.0
H1764 H 0.05526 0.43695 0.41096 0.0
H1765 H 0.08495 0.40301 0.38701 0.0
H1766 H 0.11125 0.32846 0.42753 0.0
C1767 C 0.16872 0.29157 0.3444 0.0
C1768 C 0.15784 0.36255 0.37351 0.0
C1769 C 0.18533 0.27714 0.32465 0.0
C1770 C 0.06717 0.42244 0.42338 0.0
C1771 C 0.08431 0.40304 0.40961 0.0
C1772 C 0.12433 0.33825 0.4127 0.0
C1773 C 0.17824 0.3167 0.35742 0.0
C1774 C 0.15947 0.33379 0.37614 0.0
C1775 C 0.10123 0.38461 0.42468 0.0
C1776 C 0.12226 0.3669 0.40937 0.0
H1777 H 0.24234 0.32048 0.32668 0.0
H1778 H 0.21357 0.3454 0.36088 0.0
H1779 H 0.14343 0.29977 0.39882 0.0
H1780 H 0.08148 0.40549 0.49064 0.0
H1781 H 0.11177 0.37084 0.46622 0.0
C1782 C 0.31613 0.18073 0.72316 0.0
C1783 C 0.3137 0.20783 0.71391 0.0
C1784 C 0.33322 0.16108 0.70934 0.0
C1785 C 0.39371 0.15302 0.6626 0.0
H1786 H 0.36181 0.08059 0.64334 0.0
C1787 C 0.41626 0.05872 0.57834 0.0
C1788 C 0.4458 0.05522 0.58213 0.0
C1789 C 0.40073 0.07421 0.59799 0.0
C1790 C 0.37108 0.10066 0.6487 0.0
H1791 H 0.32785 0.23553 0.68302 0.0
H1792 H 0.35808 0.20128 0.65911 0.0
H1793 H 0.334 0.11483 0.66995 0.0
H1794 H 0.48206 0.06447 0.61003 0.0
H1795 H 0.45491 0.09185 0.64441 0.0
H1796 H 0.43066 0.13893 0.64104 0.0
C1797 C 0.34666 0.19529 0.67711 0.0
C1798 C 0.35521 0.12025 0.66406 0.0
C1799 C 0.32924 0.21488 0.69073 0.0
C1800 C 0.45926 0.0664 0.60677 0.0
C1801 C 0.44377 0.0824 0.62624 0.0
C1802 C 0.40976 0.13328 0.64759 0.0
C1803 C 0.34865 0.16806 0.68608 0.0
C1804 C 0.36616 0.14682 0.67087 0.0
C1805 C 0.41444 0.08707 0.62169 0.0
C1806 C 0.3985 0.10697 0.64013 0.0
H1807 H 0.30443 0.17448 0.74085 0.0
H1808 H 0.33444 0.14039 0.71695 0.0
H1809 H 0.40286 0.1732 0.6677 0.0
H1810 H 0.40536 0.05058 0.55943 0.0
H1811 H 0.37824 0.0775 0.59373 0.0
C1812 C 0.80217 0.32214 0.69263 0.0
C1813 C 0.81003 0.29529 0.70012 0.0
C1814 C 0.81943 0.33777 0.67581 0.0
C1815 C 0.88043 0.33299 0.62629 0.0
H1816 H 0.88338 0.41212 0.64182 0.0
C1817 C 0.95819 0.40724 0.5698 0.0
C1818 C 0.9489 0.43454 0.56573 0.0
C1819 C 0.94176 0.38881 0.58484 0.0
C1820 C 0.88264 0.39012 0.63668 0.0
H1821 H 0.84278 0.26405 0.69509 0.0
H1822 H 0.87286 0.29121 0.66595 0.0
H1823 H 0.85459 0.38368 0.67005 0.0
H1824 H 0.91384 0.46281 0.5732 0.0
H1825 H 0.88545 0.43114 0.59814 0.0
H1826 H 0.90873 0.33967 0.59284 0.0
C1827 C 0.85308 0.30021 0.67291 0.0
C1828 C 0.86593 0.37361 0.6531 0.0
C1829 C 0.83579 0.28456 0.68985 0.0
C1830 C 0.92212 0.44219 0.57603 0.0
C1831 C 0.90579 0.42392 0.59078 0.0
C1832 C 0.89721 0.3496 0.60973 0.0
C1833 C 0.84537 0.32727 0.66569 0.0
C1834 C 0.86418 0.3447 0.64817 0.0
C1835 C 0.91549 0.39707 0.59625 0.0
C1836 C 0.89842 0.37861 0.61438 0.0
H1837 H 0.78257 0.3313 0.69988 0.0
H1838 H 0.81215 0.35816 0.67054 0.0
H1839 H 0.87974 0.31094 0.62144 0.0
H1840 H 0.97872 0.40051 0.56251 0.0
H1841 H 0.95024 0.36843 0.58842 0.0
C1842 C 0.20621 0.67905 0.72603 0.0
C1843 C 0.2304 0.69054 0.71475 0.0
C1844 C 0.1885 0.66115 0.70967 0.0
C1845 C 0.18306 0.61857 0.64251 0.0
H1846 H 0.10231 0.62935 0.6524 0.0
C1847 C 0.09324 0.57221 0.56653 0.0
C1848 C 0.06942 0.56168 0.57944 0.0
C1849 C 0.11479 0.58611 0.58259 0.0
C1850 C 0.12479 0.62588 0.64953 0.0
H1851 H 0.25548 0.69141 0.67765 0.0
H1852 H 0.22427 0.66066 0.64894 0.0
H1853 H 0.13623 0.65637 0.68155 0.0
H1854 H 0.05059 0.55616 0.61958 0.0
H1855 H 0.08779 0.58022 0.64718 0.0
H1856 H 0.17121 0.58832 0.60992 0.0
C1857 C 0.21917 0.66512 0.67057 0.0
C1858 C 0.14431 0.64131 0.66637 0.0
C1859 C 0.23705 0.68285 0.68703 0.0
C1860 C 0.06828 0.56441 0.60877 0.0
C1861 C 0.08962 0.57828 0.62468 0.0
C1862 C 0.16342 0.6032 0.62546 0.0
C1863 C 0.19431 0.65449 0.68149 0.0
C1864 C 0.17374 0.63774 0.66331 0.0
C1865 C 0.11284 0.58979 0.6118 0.0
C1866 C 0.13406 0.60653 0.62898 0.0
H1867 H 0.20059 0.68435 0.74737 0.0
H1868 H 0.16996 0.65285 0.71905 0.0
H1869 H 0.20554 0.6151 0.63967 0.0
H1870 H 0.0949 0.57035 0.54402 0.0
H1871 H 0.13245 0.59477 0.57208 0.0
loop_
_geom_bond_atom_site_label_1
_geom_bond_atom_site_label_2
_geom_bond_distance
_geom_bond_site_symmetry_2
_ccdc_geom_bond_type
Co0 N5 2.057 . S
Co0 O17 2.021 . S
Co0 O20 2.062 . S
Co0 O24 2.117 . S
Co0 O25 2.020 . S
C1 O21 1.259 . S
C1 O24 1.258 . S
Co2 N11 2.057 . S
Co2 O18 2.117 . S
Co2 O19 2.020 . S
Co2 O21 2.021 . S
Co2 O26 2.062 . S
C3 N5 1.316 . S
C3 N6 1.347 . S
C3 H8 0.931 . S
C4 N5 1.375 . S
C4 C7 1.350 . S
C4 H9 0.930 . S
N5 Co0 2.057 . S
N5 C3 1.316 . S
N5 C4 1.375 . S
N6 C3 1.347 . S
N6 C7 1.373 . S
C7 C4 1.350 . S
C7 N6 1.373 . S
C7 H28 0.931 . S
H8 C3 0.931 . S
H9 C4 0.930 . S
C10 O17 1.259 . S
C10 O18 1.258 . S
N11 Co2 2.057 . S
N11 C12 1.316 . S
N11 C13 1.375 . S
C12 N11 1.316 . S
C12 N14 1.347 . S
C12 H23 0.931 . S
C13 N11 1.375 . S
C13 C15 1.350 . S
C13 H22 0.930 . S
N14 C12 1.347 . S
N14 C15 1.373 . S
C15 C13 1.350 . S
C15 N14 1.373 . S
C15 H29 0.931 . S
C16 O19 1.256 . S
C16 O20 1.255 . S
O17 Co0 2.021 . S
O17 C10 1.259 . S
O18 Co2 2.117 . S
O18 C10 1.258 . S
O19 Co2 2.020 . S
O19 C16 1.256 . S
O20 Co0 2.062 . S
O20 C16 1.255 . S
O21 C1 1.259 . S
O21 Co2 2.021 . S
H22 C13 0.930 . S
H23 C12 0.931 . S
O24 Co0 2.117 . S
O24 C1 1.258 . S
O25 Co0 2.020 . S
O25 C27 1.256 . S
O26 Co2 2.062 . S
O26 C27 1.255 . S
C27 O25 1.256 . S
C27 O26 1.255 . S
H28 C7 0.931 . S
H29 C15 0.931 . S
Co30 N35 2.057 . S
Co30 O47 2.021 . S
Co30 O50 2.062 . S
Co30 O54 2.117 . S
Co30 O55 2.020 . S
C31 O51 1.259 . S
C31 O54 1.258 . S
Co32 N41 2.057 . S
Co32 O48 2.117 . S
Co32 O49 2.020 . S
Co32 O51 2.021 . S
Co32 O56 2.062 . S
C33 N35 1.316 . S
C33 N36 1.347 . S
C33 H38 0.931 . S
C34 N35 1.375 . S
C34 C37 1.350 . S
C34 H39 0.930 . S
N35 Co30 2.057 . S
N35 C33 1.316 . S
N35 C34 1.375 . S
N36 C33 1.347 . S
N36 C37 1.373 . S
C37 C34 1.350 . S
C37 N36 1.373 . S
C37 H58 0.931 . S
H38 C33 0.931 . S
H39 C34 0.930 . S
C40 O47 1.259 . S
C40 O48 1.258 . S
N41 Co32 2.057 . S
N41 C42 1.316 . S
N41 C43 1.375 . S
C42 N41 1.316 . S
C42 N44 1.347 . S
C42 H53 0.931 . S
C43 N41 1.375 . S
C43 C45 1.350 . S
C43 H52 0.930 . S
N44 C42 1.347 . S
N44 C45 1.373 . S
C45 C43 1.350 . S
C45 N44 1.373 . S
C45 H59 0.931 . S
C46 O49 1.256 . S
C46 O50 1.255 . S
O47 Co30 2.021 . S
O47 C40 1.259 . S
O48 Co32 2.117 . S
O48 C40 1.258 . S
O49 Co32 2.020 . S
O49 C46 1.256 . S
O50 Co30 2.062 . S
O50 C46 1.255 . S
O51 C31 1.259 . S
O51 Co32 2.021 . S
H52 C43 0.930 . S
H53 C42 0.931 . S
O54 Co30 2.117 . S
O54 C31 1.258 . S
O55 Co30 2.020 . S
O55 C57 1.256 . S
O56 Co32 2.062 . S
O56 C57 1.255 . S
C57 O55 1.256 . S
C57 O56 1.255 . S
H58 C37 0.931 . S
H59 C45 0.931 . S
Co60 N65 2.057 . S
Co60 O77 2.021 . S
Co60 O80 2.062 . S
Co60 O84 2.117 . S
Co60 O85 2.020 . S
C61 O81 1.259 . S
C61 O84 1.258 . S
Co62 N71 2.057 . S
Co62 O78 2.117 . S
Co62 O79 2.020 . S
Co62 O81 2.021 . S
Co62 O86 2.062 . S
C63 N65 1.316 . S
C63 N66 1.347 . S
C63 H68 0.931 . S
C64 N65 1.375 . S
C64 C67 1.350 . S
C64 H69 0.930 . S
N65 Co60 2.057 . S
N65 C63 1.316 . S
N65 C64 1.375 . S
N66 C63 1.347 . S
N66 C67 1.373 . S
C67 C64 1.350 . S
C67 N66 1.373 . S
C67 H88 0.931 . S
H68 C63 0.931 . S
H69 C64 0.930 . S
C70 O77 1.259 . S
C70 O78 1.258 . S
N71 Co62 2.057 . S
N71 C72 1.316 . S
N71 C73 1.375 . S
C72 N71 1.316 . S
C72 N74 1.347 . S
C72 H83 0.931 . S
C73 N71 1.375 . S
C73 C75 1.350 . S
C73 H82 0.930 . S
N74 C72 1.347 . S
N74 C75 1.373 . S
C75 C73 1.350 . S
C75 N74 1.373 . S
C75 H89 0.931 . S
C76 O79 1.256 . S
C76 O80 1.255 . S
O77 Co60 2.021 . S
O77 C70 1.259 . S
O78 Co62 2.117 . S
O78 C70 1.258 . S
O79 Co62 2.020 . S
O79 C76 1.256 . S
O80 Co60 2.062 . S
O80 C76 1.255 . S
O81 C61 1.259 . S
O81 Co62 2.021 . S
H82 C73 0.930 . S
H83 C72 0.931 . S
O84 Co60 2.117 . S
O84 C61 1.258 . S
O85 Co60 2.020 . S
O85 C87 1.256 . S
O86 Co62 2.062 . S
O86 C87 1.255 . S
C87 O85 1.256 . S
C87 O86 1.255 . S
H88 C67 0.931 . S
H89 C75 0.931 . S
Co90 N95 2.057 . S
Co90 O107 2.021 . S
Co90 O110 2.062 . S
Co90 O114 2.117 . S
Co90 O115 2.020 . S
C91 O111 1.259 . S
C91 O114 1.258 . S
Co92 N101 2.057 . S
Co92 O108 2.117 . S
Co92 O109 2.020 . S
Co92 O111 2.021 . S
Co92 O116 2.062 . S
C93 N95 1.316 . S
C93 N96 1.347 . S
C93 H98 0.931 . S
C94 N95 1.375 . S
C94 C97 1.350 . S
C94 H99 0.930 . S
N95 Co90 2.057 . S
N95 C93 1.316 . S
N95 C94 1.375 . S
N96 C93 1.347 . S
N96 C97 1.373 . S
C97 C94 1.350 . S
C97 N96 1.373 . S
C97 H118 0.931 . S
H98 C93 0.931 . S
H99 C94 0.930 . S
C100 O107 1.259 . S
C100 O108 1.258 . S
N101 Co92 2.057 . S
N101 C102 1.316 . S
N101 C103 1.375 . S
C102 N101 1.316 . S
C102 N104 1.347 . S
C102 H113 0.931 . S
C103 N101 1.375 . S
C103 C105 1.350 . S
C103 H112 0.930 . S
N104 C102 1.347 . S
N104 C105 1.373 . S
C105 C103 1.350 . S
C105 N104 1.373 . S
C105 H119 0.931 . S
C106 O109 1.256 . S
C106 O110 1.255 . S
O107 Co90 2.021 . S
O107 C100 1.259 . S
O108 Co92 2.117 . S
O108 C100 1.258 . S
O109 Co92 2.020 . S
O109 C106 1.256 . S
O110 Co90 2.062 . S
O110 C106 1.255 . S
O111 C91 1.259 . S
O111 Co92 2.021 . S
H112 C103 0.930 . S
H113 C102 0.931 . S
O114 Co90 2.117 . S
O114 C91 1.258 . S
O115 Co90 2.020 . S
O115 C117 1.256 . S
O116 Co92 2.062 . S
O116 C117 1.255 . S
C117 O115 1.256 . S
C117 O116 1.255 . S
H118 C97 0.931 . S
H119 C105 0.931 . S
Co120 N125 2.057 . S
Co120 O137 2.021 . S
Co120 O140 2.062 . S
Co120 O144 2.117 . S
Co120 O145 2.020 . S
C121 O141 1.259 . S
C121 O144 1.258 . S
Co122 N131 2.057 . S
Co122 O138 2.117 . S
Co122 O139 2.020 . S
Co122 O141 2.021 . S
Co122 O146 2.062 . S
C123 N125 1.316 . S
C123 N126 1.347 . S
C123 H128 0.931 . S
C124 N125 1.375 . S
C124 C127 1.350 . S
C124 H129 0.930 . S
N125 Co120 2.057 . S
N125 C123 1.316 . S
N125 C124 1.375 . S
N126 C123 1.347 . S
N126 C127 1.373 . S
C127 C124 1.350 . S
C127 N126 1.373 . S
C127 H148 0.931 . S
H128 C123 0.931 . S
H129 C124 0.930 . S
C130 O137 1.259 . S
C130 O138 1.258 . S
N131 Co122 2.057 . S
N131 C132 1.316 . S
N131 C133 1.375 . S
C132 N131 1.316 . S
C132 N134 1.347 . S
C132 H143 0.931 . S
C133 N131 1.375 . S
C133 C135 1.350 . S
C133 H142 0.930 . S
N134 C132 1.347 . S
N134 C135 1.373 . S
C135 C133 1.350 . S
C135 N134 1.373 . S
C135 H149 0.931 . S
C136 O139 1.256 . S
C136 O140 1.255 . S
O137 Co120 2.021 . S
O137 C130 1.259 . S
O138 Co122 2.117 . S
O138 C130 1.258 . S
O139 Co122 2.020 . S
O139 C136 1.256 . S
O140 Co120 2.062 . S
O140 C136 1.255 . S
O141 C121 1.259 . S
O141 Co122 2.021 . S
H142 C133 0.930 . S
H143 C132 0.931 . S
O144 Co120 2.117 . S
O144 C121 1.258 . S
O145 Co120 2.020 . S
O145 C147 1.256 . S
O146 Co122 2.062 . S
O146 C147 1.255 . S
C147 O145 1.256 . S
C147 O146 1.255 . S
H148 C127 0.931 . S
H149 C135 0.931 . S
Co150 N155 2.057 . S
Co150 O167 2.021 . S
Co150 O170 2.062 . S
Co150 O174 2.117 . S
Co150 O175 2.020 . S
C151 O171 1.259 . S
C151 O174 1.258 . S
Co152 N161 2.057 . S
Co152 O168 2.117 . S
Co152 O169 2.020 . S
Co152 O171 2.021 . S
Co152 O176 2.062 . S
C153 N155 1.316 . S
C153 N156 1.347 . S
C153 H158 0.931 . S
C154 N155 1.375 . S
C154 C157 1.350 . S
C154 H159 0.930 . S
N155 Co150 2.057 . S
N155 C153 1.316 . S
N155 C154 1.375 . S
N156 C153 1.347 . S
N156 C157 1.373 . S
C157 C154 1.350 . S
C157 N156 1.373 . S
C157 H178 0.931 . S
H158 C153 0.931 . S
H159 C154 0.930 . S
C160 O167 1.259 . S
C160 O168 1.258 . S
N161 Co152 2.057 . S
N161 C162 1.316 . S
N161 C163 1.375 . S
C162 N161 1.316 . S
C162 N164 1.347 . S
C162 H173 0.931 . S
C163 N161 1.375 . S
C163 C165 1.350 . S
C163 H172 0.930 . S
N164 C162 1.347 . S
N164 C165 1.373 . S
C165 C163 1.350 . S
C165 N164 1.373 . S
C165 H179 0.931 . S
C166 O169 1.256 . S
C166 O170 1.255 . S
O167 Co150 2.021 . S
O167 C160 1.259 . S
O168 Co152 2.117 . S
O168 C160 1.258 . S
O169 Co152 2.020 . S
O169 C166 1.256 . S
O170 Co150 2.062 . S
O170 C166 1.255 . S
O171 C151 1.259 . S
O171 Co152 2.021 . S
H172 C163 0.930 . S
H173 C162 0.931 . S
O174 Co150 2.117 . S
O174 C151 1.258 . S
O175 Co150 2.020 . S
O175 C177 1.256 . S
O176 Co152 2.062 . S
O176 C177 1.255 . S
C177 O175 1.256 . S
C177 O176 1.255 . S
H178 C157 0.931 . S
H179 C165 0.931 . S
Co180 N185 2.057 . S
Co180 O197 2.021 . S
Co180 O200 2.062 . S
Co180 O204 2.117 . S
Co180 O205 2.020 . S
C181 O201 1.259 . S
C181 O204 1.258 . S
Co182 N191 2.057 . S
Co182 O198 2.117 . S
Co182 O199 2.020 . S
Co182 O201 2.021 . S
Co182 O206 2.062 . S
C183 N185 1.316 . S
C183 N186 1.347 . S
C183 H188 0.931 . S
C184 N185 1.375 . S
C184 C187 1.350 . S
C184 H189 0.930 . S
N185 Co180 2.057 . S
N185 C183 1.316 . S
N185 C184 1.375 . S
N186 C183 1.347 . S
N186 C187 1.373 . S
C187 C184 1.350 . S
C187 N186 1.373 . S
C187 H208 0.931 . S
H188 C183 0.931 . S
H189 C184 0.930 . S
C190 O197 1.259 . S
C190 O198 1.258 . S
N191 Co182 2.057 . S
N191 C192 1.316 . S
N191 C193 1.375 . S
C192 N191 1.316 . S
C192 N194 1.347 . S
C192 H203 0.931 . S
C193 N191 1.375 . S
C193 C195 1.350 . S
C193 H202 0.930 . S
N194 C192 1.347 . S
N194 C195 1.373 . S
C195 C193 1.350 . S
C195 N194 1.373 . S
C195 H209 0.931 . S
C196 O199 1.256 . S
C196 O200 1.255 . S
O197 Co180 2.021 . S
O197 C190 1.259 . S
O198 Co182 2.117 . S
O198 C190 1.258 . S
O199 Co182 2.020 . S
O199 C196 1.256 . S
O200 Co180 2.062 . S
O200 C196 1.255 . S
O201 C181 1.259 . S
O201 Co182 2.021 . S
H202 C193 0.930 . S
H203 C192 0.931 . S
O204 Co180 2.117 . S
O204 C181 1.258 . S
O205 Co180 2.020 . S
O205 C207 1.256 . S
O206 Co182 2.062 . S
O206 C207 1.255 . S
C207 O205 1.256 . S
C207 O206 1.255 . S
H208 C187 0.931 . S
H209 C195 0.931 . S
Co210 N215 2.057 . S
Co210 O227 2.021 . S
Co210 O230 2.062 . S
Co210 O234 2.117 . S
Co210 O235 2.020 . S
C211 O231 1.259 . S
C211 O234 1.258 . S
Co212 N221 2.057 . S
Co212 O228 2.117 . S
Co212 O229 2.020 . S
Co212 O231 2.021 . S
Co212 O236 2.062 . S
C213 N215 1.316 . S
C213 N216 1.347 . S
C213 H218 0.931 . S
C214 N215 1.375 . S
C214 C217 1.350 . S
C214 H219 0.930 . S
N215 Co210 2.057 . S
N215 C213 1.316 . S
N215 C214 1.375 . S
N216 C213 1.347 . S
N216 C217 1.373 . S
C217 C214 1.350 . S
C217 N216 1.373 . S
C217 H238 0.931 . S
H218 C213 0.931 . S
H219 C214 0.930 . S
C220 O227 1.259 . S
C220 O228 1.258 . S
N221 Co212 2.057 . S
N221 C222 1.316 . S
N221 C223 1.375 . S
C222 N221 1.316 . S
C222 N224 1.347 . S
C222 H233 0.931 . S
C223 N221 1.375 . S
C223 C225 1.350 . S
C223 H232 0.930 . S
N224 C222 1.347 . S
N224 C225 1.373 . S
C225 C223 1.350 . S
C225 N224 1.373 . S
C225 H239 0.931 . S
C226 O229 1.256 . S
C226 O230 1.255 . S
O227 Co210 2.021 . S
O227 C220 1.259 . S
O228 Co212 2.117 . S
O228 C220 1.258 . S
O229 Co212 2.020 . S
O229 C226 1.256 . S
O230 Co210 2.062 . S
O230 C226 1.255 . S
O231 C211 1.259 . S
O231 Co212 2.021 . S
H232 C223 0.930 . S
H233 C222 0.931 . S
O234 Co210 2.117 . S
O234 C211 1.258 . S
O235 Co210 2.020 . S
O235 C237 1.256 . S
O236 Co212 2.062 . S
O236 C237 1.255 . S
C237 O235 1.256 . S
C237 O236 1.255 . S
H238 C217 0.931 . S
H239 C225 0.931 . S
Fe240 O241 1.889 . S
Fe240 O244 1.712 1_655 S
Fe240 O249 2.080 . S
Fe240 O254 1.933 1_655 S
Fe240 O260 2.080 . S
Fe240 O269 1.933 1_655 S
O241 Fe240 1.889 . S
O241 Fe243 1.684 1_545 S
Fe242 O244 1.886 . S
Fe242 O245 1.715 1_545 S
Fe242 O252 1.935 1_545 S
Fe242 O253 2.077 . S
Fe242 O259 1.935 1_545 S
Fe242 O268 2.077 . S
Fe243 O241 1.684 1_565 S
Fe243 O246 1.916 . S
Fe243 O250 1.911 1_565 S
Fe243 O255 2.104 . S
Fe243 O261 1.913 1_565 S
Fe243 O265 2.106 . S
O244 Fe240 1.712 1_455 S
O244 Fe242 1.886 . S
O245 Fe242 1.715 1_565 S
O245 Fe247 1.896 . S
O246 Fe243 1.916 . S
O246 Fe247 1.704 1_655 S
Fe247 O245 1.896 . S
Fe247 O246 1.704 1_455 S
Fe247 O251 2.087 . S
Fe247 O256 1.928 1_455 S
Fe247 O258 2.086 . S
Fe247 O266 1.927 1_455 S
C248 O260 1.381 . S
C248 O261 1.421 . S
O249 Fe240 2.080 . S
O249 C262 1.381 . S
O250 Fe243 1.911 1_545 S
O250 C262 1.421 . S
O251 Fe247 2.087 . S
O251 C267 1.381 . S
O252 Fe242 1.935 1_565 S
O252 C267 1.421 . S
O253 Fe242 2.077 . S
O253 C257 1.381 . S
O254 Fe240 1.933 1_455 S
O254 C257 1.421 . S
O255 Fe243 2.104 . S
O255 C263 1.381 . S
O256 Fe247 1.928 1_655 S
O256 C263 1.421 . S
C257 O253 1.381 . S
C257 O254 1.421 . S
O258 Fe247 2.086 . S
O258 C270 1.381 . S
O259 Fe242 1.935 1_565 S
O259 C270 1.421 . S
O260 Fe240 2.080 . S
O260 C248 1.381 . S
O261 Fe243 1.913 1_545 S
O261 C248 1.421 . S
C262 O249 1.381 . S
C262 O250 1.421 . S
C263 O255 1.381 . S
C263 O256 1.421 . S
C264 O265 1.381 . S
C264 O266 1.421 . S
O265 Fe243 2.106 . S
O265 C264 1.381 . S
O266 Fe247 1.927 1_655 S
O266 C264 1.421 . S
C267 O251 1.381 . S
C267 O252 1.421 . S
O268 Fe242 2.077 . S
O268 C271 1.381 . S
O269 Fe240 1.933 1_455 S
O269 C271 1.421 . S
C270 O258 1.381 . S
C270 O259 1.421 . S
C271 O268 1.381 . S
C271 O269 1.421 . S
Fe272 O273 1.885 1_556 S
Fe272 O276 1.715 . S
Fe272 O281 2.077 . S
Fe272 O286 1.935 . S
Fe272 O292 2.077 1_556 S
Fe272 O301 1.935 1_556 S
O273 Fe272 1.885 1_554 S
O273 Fe275 1.715 1_565 S
Fe274 O276 1.916 . S
Fe274 O277 1.685 1_566 S
Fe274 O284 1.911 1_565 S
Fe274 O285 2.104 . S
Fe274 O291 1.914 1_566 S
Fe274 O300 2.105 1_556 S
Fe275 O273 1.715 1_545 S
Fe275 O278 1.886 . S
Fe275 O282 1.935 1_544 S
Fe275 O287 2.077 1_554 S
Fe275 O293 1.935 1_545 S
Fe275 O297 2.077 . S
O276 Fe272 1.715 . S
O276 Fe274 1.916 . S
O277 Fe274 1.685 1_544 S
O277 Fe279 1.885 . S
O278 Fe275 1.886 . S
O278 Fe279 1.715 . S
Fe279 O277 1.885 . S
Fe279 O278 1.715 . S
Fe279 O283 2.077 1_554 S
Fe279 O288 1.935 1_554 S
Fe279 O290 2.077 . S
Fe279 O298 1.935 . S
C280 O292 1.381 . S
C280 O293 1.421 . S
O281 Fe272 2.077 . S
O281 C294 1.381 . S
O282 Fe275 1.935 1_566 S
O282 C294 1.421 . S
O283 Fe279 2.077 1_556 S
O283 C299 1.381 . S
O284 Fe274 1.911 1_545 S
O284 C299 1.421 . S
O285 Fe274 2.104 . S
O285 C289 1.381 . S
O286 Fe272 1.935 . S
O286 C289 1.421 . S
O287 Fe275 2.077 1_556 S
O287 C295 1.381 . S
O288 Fe279 1.935 1_556 S
O288 C295 1.421 . S
C289 O285 1.381 . S
C289 O286 1.421 . S
O290 Fe279 2.077 . S
O290 C302 1.381 . S
O291 Fe274 1.914 1_544 S
O291 C302 1.421 . S
O292 Fe272 2.077 1_554 S
O292 C280 1.381 . S
O293 Fe275 1.935 1_565 S
O293 C280 1.421 . S
C294 O281 1.381 . S
C294 O282 1.421 . S
C295 O287 1.381 . S
C295 O288 1.421 . S
C296 O297 1.381 . S
C296 O298 1.421 . S
O297 Fe275 2.077 . S
O297 C296 1.381 . S
O298 Fe279 1.935 . S
O298 C296 1.421 . S
C299 O283 1.381 . S
C299 O284 1.421 . S
O300 Fe274 2.105 1_554 S
O300 C303 1.381 . S
O301 Fe272 1.935 1_554 S
O301 C303 1.421 . S
C302 O290 1.381 . S
C302 O291 1.421 . S
C303 O300 1.381 . S
C303 O301 1.421 . S
Fe304 O305 1.889 . S
Fe304 O308 1.712 1_655 S
Fe304 O313 2.080 1_554 S
Fe304 O318 1.933 1_654 S
Fe304 O324 2.080 . S
Fe304 O333 1.933 1_655 S
O305 Fe304 1.889 . S
O305 Fe307 1.715 1_554 S
Fe306 O308 1.886 . S
Fe306 O309 1.715 . S
Fe306 O316 1.935 1_554 S
Fe306 O317 2.077 1_554 S
Fe306 O323 1.935 . S
Fe306 O332 2.077 . S
Fe307 O305 1.715 1_556 S
Fe307 O310 1.886 . S
Fe307 O314 1.935 . S
Fe307 O319 2.077 . S
Fe307 O325 1.935 1_556 S
Fe307 O329 2.077 1_556 S
O308 Fe304 1.712 1_455 S
O308 Fe306 1.886 . S
O309 Fe306 1.715 . S
O309 Fe311 1.896 1_554 S
O310 Fe307 1.886 . S
O310 Fe311 1.705 1_655 S
Fe311 O309 1.896 1_556 S
Fe311 O310 1.705 1_455 S
Fe311 O315 2.087 . S
Fe311 O320 1.928 1_455 S
Fe311 O322 2.086 1_556 S
Fe311 O330 1.927 1_456 S
C312 O324 1.381 . S
C312 O325 1.421 . S
O313 Fe304 2.080 1_556 S
O313 C326 1.381 . S
O314 Fe307 1.935 . S
O314 C326 1.421 . S
O315 Fe311 2.087 . S
O315 C331 1.381 . S
O316 Fe306 1.935 1_556 S
O316 C331 1.421 . S
O317 Fe306 2.077 1_556 S
O317 C321 1.381 . S
O318 Fe304 1.933 1_456 S
O318 C321 1.421 . S
O319 Fe307 2.077 . S
O319 C327 1.381 . S
O320 Fe311 1.928 1_655 S
O320 C327 1.421 . S
C321 O317 1.381 . S
C321 O318 1.421 . S
O322 Fe311 2.086 1_554 S
O322 C334 1.381 . S
O323 Fe306 1.935 . S
O323 C334 1.421 . S
O324 Fe304 2.080 . S
O324 C312 1.381 . S
O325 Fe307 1.935 1_554 S
O325 C312 1.421 . S
C326 O313 1.381 . S
C326 O314 1.421 . S
C327 O319 1.381 . S
C327 O320 1.421 . S
C328 O329 1.381 . S
C328 O330 1.421 . S
O329 Fe307 2.077 1_554 S
O329 C328 1.381 . S
O330 Fe311 1.927 1_654 S
O330 C328 1.421 . S
C331 O315 1.381 . S
C331 O316 1.421 . S
O332 Fe306 2.077 . S
O332 C335 1.381 . S
O333 Fe304 1.933 1_455 S
O333 C335 1.421 . S
C334 O322 1.381 . S
C334 O323 1.421 . S
C335 O332 1.381 . S
C335 O333 1.421 . S
Fe336 O337 1.886 . S
Fe336 O340 1.715 . S
Fe336 O345 2.077 . S
Fe336 O350 1.935 . S
Fe336 O356 2.077 . S
Fe336 O365 1.935 . S
O337 Fe336 1.886 . S
O337 Fe339 1.715 1_556 S
Fe338 O340 1.886 . S
Fe338 O341 1.715 1_556 S
Fe338 O348 1.935 1_556 S
Fe338 O349 2.077 . S
Fe338 O355 1.935 1_556 S
Fe338 O364 2.077 . S
Fe339 O337 1.715 1_554 S
Fe339 O342 1.886 . S
Fe339 O346 1.935 1_554 S
Fe339 O351 2.077 . S
Fe339 O357 1.935 1_554 S
Fe339 O361 2.077 . S
O340 Fe336 1.715 . S
O340 Fe338 1.886 . S
O341 Fe338 1.715 1_554 S
O341 Fe343 1.886 . S
O342 Fe339 1.886 . S
O342 Fe343 1.715 . S
Fe343 O341 1.886 . S
Fe343 O342 1.715 . S
Fe343 O347 2.077 . S
Fe343 O352 1.935 . S
Fe343 O354 2.077 . S
Fe343 O362 1.935 . S
C344 O356 1.381 . S
C344 O357 1.421 . S
O345 Fe336 2.077 . S
O345 C358 1.381 . S
O346 Fe339 1.935 1_556 S
O346 C358 1.421 . S
O347 Fe343 2.077 . S
O347 C363 1.381 . S
O348 Fe338 1.935 1_554 S
O348 C363 1.421 . S
O349 Fe338 2.077 . S
O349 C353 1.381 . S
O350 Fe336 1.935 . S
O350 C353 1.421 . S
O351 Fe339 2.077 . S
O351 C359 1.381 . S
O352 Fe343 1.935 . S
O352 C359 1.421 . S
C353 O349 1.381 . S
C353 O350 1.421 . S
O354 Fe343 2.077 . S
O354 C366 1.381 . S
O355 Fe338 1.935 1_554 S
O355 C366 1.421 . S
O356 Fe336 2.077 . S
O356 C344 1.381 . S
O357 Fe339 1.935 1_556 S
O357 C344 1.421 . S
C358 O345 1.381 . S
C358 O346 1.421 . S
C359 O351 1.381 . S
C359 O352 1.421 . S
C360 O361 1.381 . S
C360 O362 1.421 . S
O361 Fe339 2.077 . S
O361 C360 1.381 . S
O362 Fe343 1.935 . S
O362 C360 1.421 . S
C363 O347 1.381 . S
C363 O348 1.421 . S
O364 Fe338 2.077 . S
O364 C367 1.381 . S
O365 Fe336 1.935 . S
O365 C367 1.421 . S
C366 O354 1.381 . S
C366 O355 1.421 . S
C367 O364 1.381 . S
C367 O365 1.421 . S
Fe368 O369 1.887 1_655 S
Fe368 O372 1.716 . S
Fe368 O377 2.072 1_655 S
Fe368 O382 1.929 1_655 S
Fe368 O388 2.083 . S
Fe368 O397 1.941 . S
O369 Fe368 1.887 1_455 S
O369 Fe371 1.715 . S
Fe370 O372 1.885 . S
Fe370 O373 1.715 . S
Fe370 O380 1.935 1_655 S
Fe370 O381 2.077 1_655 S
Fe370 O387 1.935 . S
Fe370 O396 2.077 . S
Fe371 O369 1.715 . S
Fe371 O374 1.886 . S
Fe371 O378 1.935 . S
Fe371 O383 2.077 . S
Fe371 O389 1.935 1_455 S
Fe371 O393 2.077 1_455 S
O372 Fe368 1.716 . S
O372 Fe370 1.885 . S
O373 Fe370 1.715 . S
O373 Fe375 1.887 1_655 S
O374 Fe371 1.886 . S
O374 Fe375 1.715 . S
Fe375 O373 1.887 1_455 S
Fe375 O374 1.715 . S
Fe375 O379 2.090 . S
Fe375 O384 1.949 . S
Fe375 O386 2.065 1_455 S
Fe375 O394 1.921 1_455 S
C376 O388 1.381 . S
C376 O389 1.421 . S
O377 Fe368 2.072 1_455 S
O377 C390 1.381 . S
O378 Fe371 1.935 . S
O378 C390 1.421 . S
O379 Fe375 2.090 . S
O379 C395 1.381 . S
O380 Fe370 1.935 1_455 S
O380 C395 1.421 . S
O381 Fe370 2.077 1_455 S
O381 C385 1.381 . S
O382 Fe368 1.929 1_455 S
O382 C385 1.421 . S
O383 Fe371 2.077 . S
O383 C391 1.381 . S
O384 Fe375 1.949 . S
O384 C391 1.421 . S
C385 O381 1.381 . S
C385 O382 1.421 . S
O386 Fe375 2.065 1_655 S
O386 C398 1.381 . S
O387 Fe370 1.935 . S
O387 C398 1.421 . S
O388 Fe368 2.083 . S
O388 C376 1.381 . S
O389 Fe371 1.935 1_655 S
O389 C376 1.421 . S
C390 O377 1.381 . S
C390 O378 1.421 . S
C391 O383 1.381 . S
C391 O384 1.421 . S
C392 O393 1.381 . S
C392 O394 1.421 . S
O393 Fe371 2.077 1_655 S
O393 C392 1.381 . S
O394 Fe375 1.921 1_655 S
O394 C392 1.421 . S
C395 O379 1.381 . S
C395 O380 1.421 . S
O396 Fe370 2.077 . S
O396 C399 1.381 . S
O397 Fe368 1.941 . S
O397 C399 1.421 . S
C398 O386 1.381 . S
C398 O387 1.421 . S
C399 O396 1.381 . S
C399 O397 1.421 . S
Fe400 O401 1.886 . S
Fe400 O404 1.715 . S
Fe400 O409 2.077 . S
Fe400 O414 1.935 . S
Fe400 O420 2.077 . S
Fe400 O429 1.935 . S
O401 Fe400 1.886 . S
O401 Fe403 1.715 1_565 S
Fe402 O404 1.886 . S
Fe402 O405 1.715 1_565 S
Fe402 O412 1.935 1_565 S
Fe402 O413 2.077 . S
Fe402 O419 1.935 1_565 S
Fe402 O428 2.077 . S
Fe403 O401 1.715 1_545 S
Fe403 O406 1.886 . S
Fe403 O410 1.935 1_545 S
Fe403 O415 2.077 . S
Fe403 O421 1.935 1_545 S
Fe403 O425 2.077 . S
O404 Fe400 1.715 . S
O404 Fe402 1.886 . S
O405 Fe402 1.715 1_545 S
O405 Fe407 1.886 . S
O406 Fe403 1.886 . S
O406 Fe407 1.715 . S
Fe407 O405 1.886 . S
Fe407 O406 1.715 . S
Fe407 O411 2.077 . S
Fe407 O416 1.935 . S
Fe407 O418 2.077 . S
Fe407 O426 1.935 . S
C408 O420 1.381 . S
C408 O421 1.421 . S
O409 Fe400 2.077 . S
O409 C422 1.381 . S
O410 Fe403 1.935 1_565 S
O410 C422 1.421 . S
O411 Fe407 2.077 . S
O411 C427 1.381 . S
O412 Fe402 1.935 1_545 S
O412 C427 1.421 . S
O413 Fe402 2.077 . S
O413 C417 1.381 . S
O414 Fe400 1.935 . S
O414 C417 1.421 . S
O415 Fe403 2.077 . S
O415 C423 1.381 . S
O416 Fe407 1.935 . S
O416 C423 1.421 . S
C417 O413 1.381 . S
C417 O414 1.421 . S
O418 Fe407 2.077 . S
O418 C430 1.381 . S
O419 Fe402 1.935 1_545 S
O419 C430 1.421 . S
O420 Fe400 2.077 . S
O420 C408 1.381 . S
O421 Fe403 1.935 1_565 S
O421 C408 1.421 . S
C422 O409 1.381 . S
C422 O410 1.421 . S
C423 O415 1.381 . S
C423 O416 1.421 . S
C424 O425 1.381 . S
C424 O426 1.421 . S
O425 Fe403 2.077 . S
O425 C424 1.381 . S
O426 Fe407 1.935 . S
O426 C424 1.421 . S
C427 O411 1.381 . S
C427 O412 1.421 . S
O428 Fe402 2.077 . S
O428 C431 1.381 . S
O429 Fe400 1.935 . S
O429 C431 1.421 . S
C430 O418 1.381 . S
C430 O419 1.421 . S
C431 O428 1.381 . S
C431 O429 1.421 . S
C432 C433 1.349 . S
C432 C434 1.327 . S
C432 H457 0.950 . S
C433 C432 1.349 . S
C433 C449 1.349 . S
C434 C432 1.327 . S
C434 C453 1.429 . S
C434 H458 0.950 . S
C435 C452 1.574 . S
C435 C454 1.368 . S
C435 H459 0.949 . S
H436 C440 0.949 . S
C437 C438 1.349 . S
C437 C439 1.327 . S
C437 H460 0.950 . S
C438 C437 1.349 . S
C438 C450 1.349 . S
C439 C437 1.327 . S
C439 C455 1.429 . S
C439 H461 0.950 . S
C440 H436 0.949 . S
C440 C448 1.574 . S
C440 C456 1.368 . S
H441 C449 0.950 . S
H442 C447 0.950 . S
H443 C448 0.949 . S
H444 C450 0.950 . S
H445 C451 0.950 . S
H446 C452 0.949 . S
C447 H442 0.950 . S
C447 C449 1.327 . S
C447 C453 1.429 . S
C448 C440 1.574 . S
C448 H443 0.949 . S
C448 C454 1.368 . S
C449 C433 1.349 . S
C449 H441 0.950 . S
C449 C447 1.327 . S
C450 C438 1.349 . S
C450 H444 0.950 . S
C450 C451 1.327 . S
C451 H445 0.950 . S
C451 C450 1.327 . S
C451 C455 1.429 . S
C452 C435 1.574 . S
C452 H446 0.949 . S
C452 C456 1.368 . S
C453 C434 1.429 . S
C453 C447 1.429 . S
C453 C454 1.523 . S
C454 C435 1.368 . S
C454 C448 1.368 . S
C454 C453 1.523 . S
C455 C439 1.429 . S
C455 C451 1.429 . S
C455 C456 1.523 . S
C456 C440 1.368 . S
C456 C452 1.368 . S
C456 C455 1.523 . S
H457 C432 0.950 . S
H458 C434 0.950 . S
H459 C435 0.949 . S
H460 C437 0.950 . S
H461 C439 0.950 . S
C462 C463 1.349 . S
C462 C464 1.327 . S
C462 H487 0.950 . S
C463 C462 1.349 . S
C463 C479 1.349 . S
C464 C462 1.327 . S
C464 C483 1.429 . S
C464 H488 0.950 . S
C465 C482 1.574 . S
C465 C484 1.368 . S
C465 H489 0.949 . S
H466 C470 0.949 . S
C467 C468 1.349 . S
C467 C469 1.327 . S
C467 H490 0.950 . S
C468 C467 1.349 . S
C468 C480 1.349 . S
C469 C467 1.327 . S
C469 C485 1.429 . S
C469 H491 0.950 . S
C470 H466 0.949 . S
C470 C478 1.574 . S
C470 C486 1.368 . S
H471 C479 0.950 . S
H472 C477 0.950 . S
H473 C478 0.949 . S
H474 C480 0.950 . S
H475 C481 0.950 . S
H476 C482 0.949 . S
C477 H472 0.950 . S
C477 C479 1.327 . S
C477 C483 1.429 . S
C478 C470 1.574 . S
C478 H473 0.949 . S
C478 C484 1.368 . S
C479 C463 1.349 . S
C479 H471 0.950 . S
C479 C477 1.327 . S
C480 C468 1.349 . S
C480 H474 0.950 . S
C480 C481 1.327 . S
C481 H475 0.950 . S
C481 C480 1.327 . S
C481 C485 1.429 . S
C482 C465 1.574 . S
C482 H476 0.949 . S
C482 C486 1.368 . S
C483 C464 1.429 . S
C483 C477 1.429 . S
C483 C484 1.523 . S
C484 C465 1.368 . S
C484 C478 1.368 . S
C484 C483 1.523 . S
C485 C469 1.429 . S
C485 C481 1.429 . S
C485 C486 1.523 . S
C486 C470 1.368 . S
C486 C482 1.368 . S
C486 C485 1.523 . S
H487 C462 0.950 . S
H488 C464 0.950 . S
H489 C465 0.949 . S
H490 C467 0.950 . S
H491 C469 0.950 . S
C492 C493 1.349 . S
C492 C494 1.327 . S
C492 H517 0.950 . S
C493 C492 1.349 . S
C493 C509 1.349 . S
C494 C492 1.327 . S
C494 C513 1.429 . S
C494 H518 0.950 . S
C495 C512 1.574 . S
C495 C514 1.368 . S
C495 H519 0.949 . S
H496 C500 0.949 . S
C497 C498 1.349 . S
C497 C499 1.327 . S
C497 H520 0.950 . S
C498 C497 1.349 . S
C498 C510 1.349 . S
C499 C497 1.327 . S
C499 C515 1.429 . S
C499 H521 0.950 . S
C500 H496 0.949 . S
C500 C508 1.574 . S
C500 C516 1.368 . S
H501 C509 0.950 . S
H502 C507 0.950 . S
H503 C508 0.949 . S
H504 C510 0.950 . S
H505 C511 0.950 . S
H506 C512 0.949 . S
C507 H502 0.950 . S
C507 C509 1.327 . S
C507 C513 1.429 . S
C508 C500 1.574 . S
C508 H503 0.949 . S
C508 C514 1.368 . S
C509 C493 1.349 . S
C509 H501 0.950 . S
C509 C507 1.327 . S
C510 C498 1.349 . S
C510 H504 0.950 . S
C510 C511 1.327 . S
C511 H505 0.950 . S
C511 C510 1.327 . S
C511 C515 1.429 . S
C512 C495 1.574 . S
C512 H506 0.949 . S
C512 C516 1.368 . S
C513 C494 1.429 . S
C513 C507 1.429 . S
C513 C514 1.523 . S
C514 C495 1.368 . S
C514 C508 1.368 . S
C514 C513 1.523 . S
C515 C499 1.429 . S
C515 C511 1.429 . S
C515 C516 1.523 . S
C516 C500 1.368 . S
C516 C512 1.368 . S
C516 C515 1.523 . S
H517 C492 0.950 . S
H518 C494 0.950 . S
H519 C495 0.949 . S
H520 C497 0.950 . S
H521 C499 0.950 . S
C522 C523 1.349 . S
C522 C524 1.327 . S
C522 H547 0.950 . S
C523 C522 1.349 . S
C523 C539 1.349 . S
C524 C522 1.327 . S
C524 C543 1.429 . S
C524 H548 0.950 . S
C525 C542 1.574 . S
C525 C544 1.368 . S
C525 H549 0.949 . S
H526 C530 0.949 . S
C527 C528 1.349 . S
C527 C529 1.327 . S
C527 H550 0.950 . S
C528 C527 1.349 . S
C528 C540 1.349 . S
C529 C527 1.327 . S
C529 C545 1.429 . S
C529 H551 0.950 . S
C530 H526 0.949 . S
C530 C538 1.574 . S
C530 C546 1.368 . S
H531 C539 0.950 . S
H532 C537 0.950 . S
H533 C538 0.949 . S
H534 C540 0.950 . S
H535 C541 0.950 . S
H536 C542 0.949 . S
C537 H532 0.950 . S
C537 C539 1.327 . S
C537 C543 1.429 . S
C538 C530 1.574 . S
C538 H533 0.949 . S
C538 C544 1.368 . S
C539 C523 1.349 . S
C539 H531 0.950 . S
C539 C537 1.327 . S
C540 C528 1.349 . S
C540 H534 0.950 . S
C540 C541 1.327 . S
C541 H535 0.950 . S
C541 C540 1.327 . S
C541 C545 1.429 . S
C542 C525 1.574 . S
C542 H536 0.949 . S
C542 C546 1.368 . S
C543 C524 1.429 . S
C543 C537 1.429 . S
C543 C544 1.523 . S
C544 C525 1.368 . S
C544 C538 1.368 . S
C544 C543 1.523 . S
C545 C529 1.429 . S
C545 C541 1.429 . S
C545 C546 1.523 . S
C546 C530 1.368 . S
C546 C542 1.368 . S
C546 C545 1.523 . S
H547 C522 0.950 . S
H548 C524 0.950 . S
H549 C525 0.949 . S
H550 C527 0.950 . S
H551 C529 0.950 . S
C552 C553 1.349 . S
C552 C554 1.327 . S
C552 H577 0.950 . S
C553 C552 1.349 . S
C553 C569 1.349 . S
C554 C552 1.327 . S
C554 C573 1.429 . S
C554 H578 0.950 . S
C555 C572 1.574 . S
C555 C574 1.368 . S
C555 H579 0.949 . S
H556 C560 0.949 . S
C557 C558 1.349 . S
C557 C559 1.327 . S
C557 H580 0.950 . S
C558 C557 1.349 . S
C558 C570 1.349 . S
C559 C557 1.327 . S
C559 C575 1.429 . S
C559 H581 0.950 . S
C560 H556 0.949 . S
C560 C568 1.574 . S
C560 C576 1.368 . S
H561 C569 0.950 . S
H562 C567 0.950 . S
H563 C568 0.949 . S
H564 C570 0.950 . S
H565 C571 0.950 . S
H566 C572 0.949 . S
C567 H562 0.950 . S
C567 C569 1.327 . S
C567 C573 1.429 . S
C568 C560 1.574 . S
C568 H563 0.949 . S
C568 C574 1.368 . S
C569 C553 1.349 . S
C569 H561 0.950 . S
C569 C567 1.327 . S
C570 C558 1.349 . S
C570 H564 0.950 . S
C570 C571 1.327 . S
C571 H565 0.950 . S
C571 C570 1.327 . S
C571 C575 1.429 . S
C572 C555 1.574 . S
C572 H566 0.949 . S
C572 C576 1.368 . S
C573 C554 1.429 . S
C573 C567 1.429 . S
C573 C574 1.523 . S
C574 C555 1.368 . S
C574 C568 1.368 . S
C574 C573 1.523 . S
C575 C559 1.429 . S
C575 C571 1.429 . S
C575 C576 1.523 . S
C576 C560 1.368 . S
C576 C572 1.368 . S
C576 C575 1.523 . S
H577 C552 0.950 . S
H578 C554 0.950 . S
H579 C555 0.949 . S
H580 C557 0.950 . S
H581 C559 0.950 . S
C582 C583 1.349 . S
C582 C584 1.327 . S
C582 H607 0.950 . S
C583 C582 1.349 . S
C583 C599 1.349 . S
C584 C582 1.327 . S
C584 C603 1.429 . S
C584 H608 0.950 . S
C585 C602 1.574 . S
C585 C604 1.368 . S
C585 H609 0.949 . S
H586 C590 0.949 . S
C587 C588 1.349 . S
C587 C589 1.327 . S
C587 H610 0.950 . S
C588 C587 1.349 . S
C588 C600 1.349 . S
C589 C587 1.327 . S
C589 C605 1.429 . S
C589 H611 0.950 . S
C590 H586 0.949 . S
C590 C598 1.574 . S
C590 C606 1.368 . S
H591 C599 0.950 . S
H592 C597 0.950 . S
H593 C598 0.949 . S
H594 C600 0.950 . S
H595 C601 0.950 . S
H596 C602 0.949 . S
C597 H592 0.950 . S
C597 C599 1.327 . S
C597 C603 1.429 . S
C598 C590 1.574 . S
C598 H593 0.949 . S
C598 C604 1.368 . S
C599 C583 1.349 . S
C599 H591 0.950 . S
C599 C597 1.327 . S
C600 C588 1.349 . S
C600 H594 0.950 . S
C600 C601 1.327 . S
C601 H595 0.950 . S
C601 C600 1.327 . S
C601 C605 1.429 . S
C602 C585 1.574 . S
C602 H596 0.949 . S
C602 C606 1.368 . S
C603 C584 1.429 . S
C603 C597 1.429 . S
C603 C604 1.523 . S
C604 C585 1.368 . S
C604 C598 1.368 . S
C604 C603 1.523 . S
C605 C589 1.429 . S
C605 C601 1.429 . S
C605 C606 1.523 . S
C606 C590 1.368 . S
C606 C602 1.368 . S
C606 C605 1.523 . S
H607 C582 0.950 . S
H608 C584 0.950 . S
H609 C585 0.949 . S
H610 C587 0.950 . S
H611 C589 0.950 . S
C612 C613 1.349 . S
C612 C614 1.327 . S
C612 H637 0.950 . S
C613 C612 1.349 . S
C613 C629 1.349 . S
C614 C612 1.327 . S
C614 C633 1.429 . S
C614 H638 0.950 . S
C615 C632 1.574 . S
C615 C634 1.368 . S
C615 H639 0.949 . S
H616 C620 0.949 . S
C617 C618 1.349 . S
C617 C619 1.327 . S
C617 H640 0.950 . S
C618 C617 1.349 . S
C618 C630 1.349 . S
C619 C617 1.327 . S
C619 C635 1.429 . S
C619 H641 0.950 . S
C620 H616 0.949 . S
C620 C628 1.574 . S
C620 C636 1.368 . S
H621 C629 0.950 . S
H622 C627 0.950 . S
H623 C628 0.949 . S
H624 C630 0.950 . S
H625 C631 0.950 . S
H626 C632 0.949 . S
C627 H622 0.950 . S
C627 C629 1.327 . S
C627 C633 1.429 . S
C628 C620 1.574 . S
C628 H623 0.949 . S
C628 C634 1.368 . S
C629 C613 1.349 . S
C629 H621 0.950 . S
C629 C627 1.327 . S
C630 C618 1.349 . S
C630 H624 0.950 . S
C630 C631 1.327 . S
C631 H625 0.950 . S
C631 C630 1.327 . S
C631 C635 1.429 . S
C632 C615 1.574 . S
C632 H626 0.949 . S
C632 C636 1.368 . S
C633 C614 1.429 . S
C633 C627 1.429 . S
C633 C634 1.523 . S
C634 C615 1.368 . S
C634 C628 1.368 . S
C634 C633 1.523 . S
C635 C619 1.429 . S
C635 C631 1.429 . S
C635 C636 1.523 . S
C636 C620 1.368 . S
C636 C632 1.368 . S
C636 C635 1.523 . S
H637 C612 0.950 . S
H638 C614 0.950 . S
H639 C615 0.949 . S
H640 C617 0.950 . S
H641 C619 0.950 . S
C642 C643 1.349 . S
C642 C644 1.327 . S
C642 H667 0.950 . S
C643 C642 1.349 . S
C643 C659 1.349 . S
C644 C642 1.327 . S
C644 C663 1.429 . S
C644 H668 0.950 . S
C645 C662 1.574 . S
C645 C664 1.368 . S
C645 H669 0.949 . S
H646 C650 0.949 . S
C647 C648 1.349 . S
C647 C649 1.327 . S
C647 H670 0.950 . S
C648 C647 1.349 . S
C648 C660 1.349 . S
C649 C647 1.327 . S
C649 C665 1.429 . S
C649 H671 0.950 . S
C650 H646 0.949 . S
C650 C658 1.574 . S
C650 C666 1.368 . S
H651 C659 0.950 . S
H652 C657 0.950 . S
H653 C658 0.949 . S
H654 C660 0.950 . S
H655 C661 0.950 . S
H656 C662 0.949 . S
C657 H652 0.950 . S
C657 C659 1.327 . S
C657 C663 1.429 . S
C658 C650 1.574 . S
C658 H653 0.949 . S
C658 C664 1.368 . S
C659 C643 1.349 . S
C659 H651 0.950 . S
C659 C657 1.327 . S
C660 C648 1.349 . S
C660 H654 0.950 . S
C660 C661 1.327 . S
C661 H655 0.950 . S
C661 C660 1.327 . S
C661 C665 1.429 . S
C662 C645 1.574 . S
C662 H656 0.949 . S
C662 C666 1.368 . S
C663 C644 1.429 . S
C663 C657 1.429 . S
C663 C664 1.523 . S
C664 C645 1.368 . S
C664 C658 1.368 . S
C664 C663 1.523 . S
C665 C649 1.429 . S
C665 C661 1.429 . S
C665 C666 1.523 . S
C666 C650 1.368 . S
C666 C662 1.368 . S
C666 C665 1.523 . S
H667 C642 0.950 . S
H668 C644 0.950 . S
H669 C645 0.949 . S
H670 C647 0.950 . S
H671 C649 0.950 . S
C672 C673 1.349 . S
C672 C674 1.327 . S
C672 H697 0.950 . S
C673 C672 1.349 . S
C673 C689 1.349 . S
C674 C672 1.327 . S
C674 C693 1.429 . S
C674 H698 0.950 . S
C675 C692 1.574 . S
C675 C694 1.368 . S
C675 H699 0.949 . S
H676 C680 0.949 . S
C677 C678 1.349 . S
C677 C679 1.327 . S
C677 H700 0.950 . S
C678 C677 1.349 . S
C678 C690 1.349 . S
C679 C677 1.327 . S
C679 C695 1.429 . S
C679 H701 0.950 . S
C680 H676 0.949 . S
C680 C688 1.574 . S
C680 C696 1.368 . S
H681 C689 0.950 . S
H682 C687 0.950 . S
H683 C688 0.949 . S
H684 C690 0.950 . S
H685 C691 0.950 . S
H686 C692 0.949 . S
C687 H682 0.950 . S
C687 C689 1.327 . S
C687 C693 1.429 . S
C688 C680 1.574 . S
C688 H683 0.949 . S
C688 C694 1.368 . S
C689 C673 1.349 . S
C689 H681 0.950 . S
C689 C687 1.327 . S
C690 C678 1.349 . S
C690 H684 0.950 . S
C690 C691 1.327 . S
C691 H685 0.950 . S
C691 C690 1.327 . S
C691 C695 1.429 . S
C692 C675 1.574 . S
C692 H686 0.949 . S
C692 C696 1.368 . S
C693 C674 1.429 . S
C693 C687 1.429 . S
C693 C694 1.523 . S
C694 C675 1.368 . S
C694 C688 1.368 . S
C694 C693 1.523 . S
C695 C679 1.429 . S
C695 C691 1.429 . S
C695 C696 1.523 . S
C696 C680 1.368 . S
C696 C692 1.368 . S
C696 C695 1.523 . S
H697 C672 0.950 . S
H698 C674 0.950 . S
H699 C675 0.949 . S
H700 C677 0.950 . S
H701 C679 0.950 . S
C702 C703 1.349 . S
C702 C704 1.327 . S
C702 H727 0.950 . S
C703 C702 1.349 . S
C703 C719 1.349 . S
C704 C702 1.327 . S
C704 C723 1.429 . S
C704 H728 0.950 . S
C705 C722 1.574 . S
C705 C724 1.368 . S
C705 H729 0.949 . S
H706 C710 0.949 . S
C707 C708 1.349 . S
C707 C709 1.327 . S
C707 H730 0.950 . S
C708 C707 1.349 . S
C708 C720 1.349 . S
C709 C707 1.327 . S
C709 C725 1.429 . S
C709 H731 0.950 . S
C710 H706 0.949 . S
C710 C718 1.574 . S
C710 C726 1.368 . S
H711 C719 0.950 . S
H712 C717 0.950 . S
H713 C718 0.949 . S
H714 C720 0.950 . S
H715 C721 0.950 . S
H716 C722 0.949 . S
C717 H712 0.950 . S
C717 C719 1.327 . S
C717 C723 1.429 . S
C718 C710 1.574 . S
C718 H713 0.949 . S
C718 C724 1.368 . S
C719 C703 1.349 . S
C719 H711 0.950 . S
C719 C717 1.327 . S
C720 C708 1.349 . S
C720 H714 0.950 . S
C720 C721 1.327 . S
C721 H715 0.950 . S
C721 C720 1.327 . S
C721 C725 1.429 . S
C722 C705 1.574 . S
C722 H716 0.949 . S
C722 C726 1.368 . S
C723 C704 1.429 . S
C723 C717 1.429 . S
C723 C724 1.523 . S
C724 C705 1.368 . S
C724 C718 1.368 . S
C724 C723 1.523 . S
C725 C709 1.429 . S
C725 C721 1.429 . S
C725 C726 1.523 . S
C726 C710 1.368 . S
C726 C722 1.368 . S
C726 C725 1.523 . S
H727 C702 0.950 . S
H728 C704 0.950 . S
H729 C705 0.949 . S
H730 C707 0.950 . S
H731 C709 0.950 . S
C732 C733 1.349 . S
C732 C734 1.327 . S
C732 H757 0.950 . S
C733 C732 1.349 . S
C733 C749 1.349 . S
C734 C732 1.327 . S
C734 C753 1.429 . S
C734 H758 0.950 . S
C735 C752 1.574 . S
C735 C754 1.368 . S
C735 H759 0.949 . S
H736 C740 0.949 . S
C737 C738 1.349 . S
C737 C739 1.327 . S
C737 H760 0.950 . S
C738 C737 1.349 . S
C738 C750 1.349 . S
C739 C737 1.327 . S
C739 C755 1.429 . S
C739 H761 0.950 . S
C740 H736 0.949 . S
C740 C748 1.574 . S
C740 C756 1.368 . S
H741 C749 0.950 . S
H742 C747 0.950 . S
H743 C748 0.949 . S
H744 C750 0.950 . S
H745 C751 0.950 . S
H746 C752 0.949 . S
C747 H742 0.950 . S
C747 C749 1.327 . S
C747 C753 1.429 . S
C748 C740 1.574 . S
C748 H743 0.949 . S
C748 C754 1.368 . S
C749 C733 1.349 . S
C749 H741 0.950 . S
C749 C747 1.327 . S
C750 C738 1.349 . S
C750 H744 0.950 . S
C750 C751 1.327 . S
C751 H745 0.950 . S
C751 C750 1.327 . S
C751 C755 1.429 . S
C752 C735 1.574 . S
C752 H746 0.949 . S
C752 C756 1.368 . S
C753 C734 1.429 . S
C753 C747 1.429 . S
C753 C754 1.523 . S
C754 C735 1.368 . S
C754 C748 1.368 . S
C754 C753 1.523 . S
C755 C739 1.429 . S
C755 C751 1.429 . S
C755 C756 1.523 . S
C756 C740 1.368 . S
C756 C752 1.368 . S
C756 C755 1.523 . S
H757 C732 0.950 . S
H758 C734 0.950 . S
H759 C735 0.949 . S
H760 C737 0.950 . S
H761 C739 0.950 . S
C762 C763 1.349 . S
C762 C764 1.327 . S
C762 H787 0.950 . S
C763 C762 1.349 . S
C763 C779 1.349 . S
C764 C762 1.327 . S
C764 C783 1.429 . S
C764 H788 0.950 . S
C765 C782 1.574 . S
C765 C784 1.368 . S
C765 H789 0.949 . S
H766 C770 0.949 . S
C767 C768 1.349 . S
C767 C769 1.327 . S
C767 H790 0.950 . S
C768 C767 1.349 . S
C768 C780 1.349 . S
C769 C767 1.327 . S
C769 C785 1.429 . S
C769 H791 0.950 . S
C770 H766 0.949 . S
C770 C778 1.574 . S
C770 C786 1.368 . S
H771 C779 0.950 . S
H772 C777 0.950 . S
H773 C778 0.949 . S
H774 C780 0.950 . S
H775 C781 0.950 . S
H776 C782 0.949 . S
C777 H772 0.950 . S
C777 C779 1.327 . S
C777 C783 1.429 . S
C778 C770 1.574 . S
C778 H773 0.949 . S
C778 C784 1.368 . S
C779 C763 1.349 . S
C779 H771 0.950 . S
C779 C777 1.327 . S
C780 C768 1.349 . S
C780 H774 0.950 . S
C780 C781 1.327 . S
C781 H775 0.950 . S
C781 C780 1.327 . S
C781 C785 1.429 . S
C782 C765 1.574 . S
C782 H776 0.949 . S
C782 C786 1.368 . S
C783 C764 1.429 . S
C783 C777 1.429 . S
C783 C784 1.523 . S
C784 C765 1.368 . S
C784 C778 1.368 . S
C784 C783 1.523 . S
C785 C769 1.429 . S
C785 C781 1.429 . S
C785 C786 1.523 . S
C786 C770 1.368 . S
C786 C782 1.368 . S
C786 C785 1.523 . S
H787 C762 0.950 . S
H788 C764 0.950 . S
H789 C765 0.949 . S
H790 C767 0.950 . S
H791 C769 0.950 . S
C792 C793 1.349 . S
C792 C794 1.327 . S
C792 H817 0.950 . S
C793 C792 1.349 . S
C793 C809 1.349 . S
C794 C792 1.327 . S
C794 C813 1.429 . S
C794 H818 0.950 . S
C795 C812 1.574 . S
C795 C814 1.368 . S
C795 H819 0.949 . S
H796 C800 0.949 . S
C797 C798 1.349 . S
C797 C799 1.327 . S
C797 H820 0.950 . S
C798 C797 1.349 . S
C798 C810 1.349 . S
C799 C797 1.327 . S
C799 C815 1.429 . S
C799 H821 0.950 . S
C800 H796 0.949 . S
C800 C808 1.574 . S
C800 C816 1.368 . S
H801 C809 0.950 . S
H802 C807 0.950 . S
H803 C808 0.949 . S
H804 C810 0.950 . S
H805 C811 0.950 . S
H806 C812 0.949 . S
C807 H802 0.950 . S
C807 C809 1.327 . S
C807 C813 1.429 . S
C808 C800 1.574 . S
C808 H803 0.949 . S
C808 C814 1.368 . S
C809 C793 1.349 . S
C809 H801 0.950 . S
C809 C807 1.327 . S
C810 C798 1.349 . S
C810 H804 0.950 . S
C810 C811 1.327 . S
C811 H805 0.950 . S
C811 C810 1.327 . S
C811 C815 1.429 . S
C812 C795 1.574 . S
C812 H806 0.949 . S
C812 C816 1.368 . S
C813 C794 1.429 . S
C813 C807 1.429 . S
C813 C814 1.523 . S
C814 C795 1.368 . S
C814 C808 1.368 . S
C814 C813 1.523 . S
C815 C799 1.429 . S
C815 C811 1.429 . S
C815 C816 1.523 . S
C816 C800 1.368 . S
C816 C812 1.368 . S
C816 C815 1.523 . S
H817 C792 0.950 . S
H818 C794 0.950 . S
H819 C795 0.949 . S
H820 C797 0.950 . S
H821 C799 0.950 . S
C822 C823 1.349 . S
C822 C824 1.327 . S
C822 H847 0.950 . S
C823 C822 1.349 . S
C823 C839 1.349 . S
C824 C822 1.327 . S
C824 C843 1.429 . S
C824 H848 0.950 . S
C825 C842 1.574 . S
C825 C844 1.368 . S
C825 H849 0.949 . S
H826 C830 0.949 . S
C827 C828 1.349 . S
C827 C829 1.327 . S
C827 H850 0.950 . S
C828 C827 1.349 . S
C828 C840 1.349 . S
C829 C827 1.327 . S
C829 C845 1.429 . S
C829 H851 0.950 . S
C830 H826 0.949 . S
C830 C838 1.574 . S
C830 C846 1.368 . S
H831 C839 0.950 . S
H832 C837 0.950 . S
H833 C838 0.949 . S
H834 C840 0.950 . S
H835 C841 0.950 . S
H836 C842 0.949 . S
C837 H832 0.950 . S
C837 C839 1.327 . S
C837 C843 1.429 . S
C838 C830 1.574 . S
C838 H833 0.949 . S
C838 C844 1.368 . S
C839 C823 1.349 . S
C839 H831 0.950 . S
C839 C837 1.327 . S
C840 C828 1.349 . S
C840 H834 0.950 . S
C840 C841 1.327 . S
C841 H835 0.950 . S
C841 C840 1.327 . S
C841 C845 1.429 . S
C842 C825 1.574 . S
C842 H836 0.949 . S
C842 C846 1.368 . S
C843 C824 1.429 . S
C843 C837 1.429 . S
C843 C844 1.523 . S
C844 C825 1.368 . S
C844 C838 1.368 . S
C844 C843 1.523 . S
C845 C829 1.429 . S
C845 C841 1.429 . S
C845 C846 1.523 . S
C846 C830 1.368 . S
C846 C842 1.368 . S
C846 C845 1.523 . S
H847 C822 0.950 . S
H848 C824 0.950 . S
H849 C825 0.949 . S
H850 C827 0.950 . S
H851 C829 0.950 . S
C852 C853 1.349 . S
C852 C854 1.327 . S
C852 H877 0.950 . S
C853 C852 1.349 . S
C853 C869 1.349 . S
C854 C852 1.327 . S
C854 C873 1.429 . S
C854 H878 0.950 . S
C855 C872 1.574 . S
C855 C874 1.368 . S
C855 H879 0.949 . S
H856 C860 0.949 . S
C857 C858 1.349 . S
C857 C859 1.327 . S
C857 H880 0.950 . S
C858 C857 1.349 . S
C858 C870 1.349 . S
C859 C857 1.327 . S
C859 C875 1.429 . S
C859 H881 0.950 . S
C860 H856 0.949 . S
C860 C868 1.574 . S
C860 C876 1.368 . S
H861 C869 0.950 . S
H862 C867 0.950 . S
H863 C868 0.949 . S
H864 C870 0.950 . S
H865 C871 0.950 . S
H866 C872 0.949 . S
C867 H862 0.950 . S
C867 C869 1.327 . S
C867 C873 1.429 . S
C868 C860 1.574 . S
C868 H863 0.949 . S
C868 C874 1.368 . S
C869 C853 1.349 . S
C869 H861 0.950 . S
C869 C867 1.327 . S
C870 C858 1.349 . S
C870 H864 0.950 . S
C870 C871 1.327 . S
C871 H865 0.950 . S
C871 C870 1.327 . S
C871 C875 1.429 . S
C872 C855 1.574 . S
C872 H866 0.949 . S
C872 C876 1.368 . S
C873 C854 1.429 . S
C873 C867 1.429 . S
C873 C874 1.523 . S
C874 C855 1.368 . S
C874 C868 1.368 . S
C874 C873 1.523 . S
C875 C859 1.429 . S
C875 C871 1.429 . S
C875 C876 1.523 . S
C876 C860 1.368 . S
C876 C872 1.368 . S
C876 C875 1.523 . S
H877 C852 0.950 . S
H878 C854 0.950 . S
H879 C855 0.949 . S
H880 C857 0.950 . S
H881 C859 0.950 . S
C882 C883 1.349 . S
C882 C884 1.327 . S
C882 H907 0.950 . S
C883 C882 1.349 . S
C883 C899 1.349 . S
C884 C882 1.327 . S
C884 C903 1.429 . S
C884 H908 0.950 . S
C885 C902 1.574 . S
C885 C904 1.368 . S
C885 H909 0.949 . S
H886 C890 0.949 . S
C887 C888 1.349 . S
C887 C889 1.327 . S
C887 H910 0.950 . S
C888 C887 1.349 . S
C888 C900 1.349 . S
C889 C887 1.327 . S
C889 C905 1.429 . S
C889 H911 0.950 . S
C890 H886 0.949 . S
C890 C898 1.574 . S
C890 C906 1.368 . S
H891 C899 0.950 . S
H892 C897 0.950 . S
H893 C898 0.949 . S
H894 C900 0.950 . S
H895 C901 0.950 . S
H896 C902 0.949 . S
C897 H892 0.950 . S
C897 C899 1.327 . S
C897 C903 1.429 . S
C898 C890 1.574 . S
C898 H893 0.949 . S
C898 C904 1.368 . S
C899 C883 1.349 . S
C899 H891 0.950 . S
C899 C897 1.327 . S
C900 C888 1.349 . S
C900 H894 0.950 . S
C900 C901 1.327 . S
C901 H895 0.950 . S
C901 C900 1.327 . S
C901 C905 1.429 . S
C902 C885 1.574 . S
C902 H896 0.949 . S
C902 C906 1.368 . S
C903 C884 1.429 . S
C903 C897 1.429 . S
C903 C904 1.523 . S
C904 C885 1.368 . S
C904 C898 1.368 . S
C904 C903 1.523 . S
C905 C889 1.429 . S
C905 C901 1.429 . S
C905 C906 1.523 . S
C906 C890 1.368 . S
C906 C902 1.368 . S
C906 C905 1.523 . S
H907 C882 0.950 . S
H908 C884 0.950 . S
H909 C885 0.949 . S
H910 C887 0.950 . S
H911 C889 0.950 . S
C912 C913 1.349 . S
C912 C914 1.327 . S
C912 H937 0.950 . S
C913 C912 1.349 . S
C913 C929 1.349 . S
C914 C912 1.327 . S
C914 C933 1.429 . S
C914 H938 0.950 . S
C915 C932 1.574 . S
C915 C934 1.368 . S
C915 H939 0.949 . S
H916 C920 0.949 . S
C917 C918 1.349 . S
C917 C919 1.327 . S
C917 H940 0.950 . S
C918 C917 1.349 . S
C918 C930 1.349 . S
C919 C917 1.327 . S
C919 C935 1.429 . S
C919 H941 0.950 . S
C920 H916 0.949 . S
C920 C928 1.574 . S
C920 C936 1.368 . S
H921 C929 0.950 . S
H922 C927 0.950 . S
H923 C928 0.949 . S
H924 C930 0.950 . S
H925 C931 0.950 . S
H926 C932 0.949 . S
C927 H922 0.950 . S
C927 C929 1.327 . S
C927 C933 1.429 . S
C928 C920 1.574 . S
C928 H923 0.949 . S
C928 C934 1.368 . S
C929 C913 1.349 . S
C929 H921 0.950 . S
C929 C927 1.327 . S
C930 C918 1.349 . S
C930 H924 0.950 . S
C930 C931 1.327 . S
C931 H925 0.950 . S
C931 C930 1.327 . S
C931 C935 1.429 . S
C932 C915 1.574 . S
C932 H926 0.949 . S
C932 C936 1.368 . S
C933 C914 1.429 . S
C933 C927 1.429 . S
C933 C934 1.523 . S
C934 C915 1.368 . S
C934 C928 1.368 . S
C934 C933 1.523 . S
C935 C919 1.429 . S
C935 C931 1.429 . S
C935 C936 1.523 . S
C936 C920 1.368 . S
C936 C932 1.368 . S
C936 C935 1.523 . S
H937 C912 0.950 . S
H938 C914 0.950 . S
H939 C915 0.949 . S
H940 C917 0.950 . S
H941 C919 0.950 . S
C942 C943 1.349 . S
C942 C944 1.327 . S
C942 H967 0.950 . S
C943 C942 1.349 . S
C943 C959 1.349 . S
C944 C942 1.327 . S
C944 C963 1.429 . S
C944 H968 0.950 . S
C945 C962 1.574 . S
C945 C964 1.368 . S
C945 H969 0.949 . S
H946 C950 0.949 . S
C947 C948 1.349 . S
C947 C949 1.327 . S
C947 H970 0.950 . S
C948 C947 1.349 . S
C948 C960 1.349 . S
C949 C947 1.327 . S
C949 C965 1.429 . S
C949 H971 0.950 . S
C950 H946 0.949 . S
C950 C958 1.574 . S
C950 C966 1.368 . S
H951 C959 0.950 . S
H952 C957 0.950 . S
H953 C958 0.949 . S
H954 C960 0.950 . S
H955 C961 0.950 . S
H956 C962 0.949 . S
C957 H952 0.950 . S
C957 C959 1.327 . S
C957 C963 1.429 . S
C958 C950 1.574 . S
C958 H953 0.949 . S
C958 C964 1.368 . S
C959 C943 1.349 . S
C959 H951 0.950 . S
C959 C957 1.327 . S
C960 C948 1.349 . S
C960 H954 0.950 . S
C960 C961 1.327 . S
C961 H955 0.950 . S
C961 C960 1.327 . S
C961 C965 1.429 . S
C962 C945 1.574 . S
C962 H956 0.949 . S
C962 C966 1.368 . S
C963 C944 1.429 . S
C963 C957 1.429 . S
C963 C964 1.523 . S
C964 C945 1.368 . S
C964 C958 1.368 . S
C964 C963 1.523 . S
C965 C949 1.429 . S
C965 C961 1.429 . S
C965 C966 1.523 . S
C966 C950 1.368 . S
C966 C962 1.368 . S
C966 C965 1.523 . S
H967 C942 0.950 . S
H968 C944 0.950 . S
H969 C945 0.949 . S
H970 C947 0.950 . S
H971 C949 0.950 . S
C972 C973 1.349 . S
C972 C974 1.327 . S
C972 H997 0.950 . S
C973 C972 1.349 . S
C973 C989 1.349 . S
C974 C972 1.327 . S
C974 C993 1.429 . S
C974 H998 0.950 . S
C975 C992 1.574 . S
C975 C994 1.368 . S
C975 H999 0.949 . S
H976 C980 0.949 . S
C977 C978 1.349 . S
C977 C979 1.327 . S
C977 H1000 0.950 . S
C978 C977 1.349 . S
C978 C990 1.349 . S
C979 C977 1.327 . S
C979 C995 1.429 . S
C979 H1001 0.950 . S
C980 H976 0.949 . S
C980 C988 1.574 . S
C980 C996 1.368 . S
H981 C989 0.950 . S
H982 C987 0.950 . S
H983 C988 0.949 . S
H984 C990 0.950 . S
H985 C991 0.950 . S
H986 C992 0.949 . S
C987 H982 0.950 . S
C987 C989 1.327 . S
C987 C993 1.429 . S
C988 C980 1.574 . S
C988 H983 0.949 . S
C988 C994 1.368 . S
C989 C973 1.349 . S
C989 H981 0.950 . S
C989 C987 1.327 . S
C990 C978 1.349 . S
C990 H984 0.950 . S
C990 C991 1.327 . S
C991 H985 0.950 . S
C991 C990 1.327 . S
C991 C995 1.429 . S
C992 C975 1.574 . S
C992 H986 0.949 . S
C992 C996 1.368 . S
C993 C974 1.429 . S
C993 C987 1.429 . S
C993 C994 1.523 . S
C994 C975 1.368 . S
C994 C988 1.368 . S
C994 C993 1.523 . S
C995 C979 1.429 . S
C995 C991 1.429 . S
C995 C996 1.523 . S
C996 C980 1.368 . S
C996 C992 1.368 . S
C996 C995 1.523 . S
H997 C972 0.950 . S
H998 C974 0.950 . S
H999 C975 0.949 . S
H1000 C977 0.950 . S
H1001 C979 0.950 . S
C1002 C1003 1.349 . S
C1002 C1004 1.327 . S
C1002 H1027 0.950 . S
C1003 C1002 1.349 . S
C1003 C1019 1.349 . S
C1004 C1002 1.327 . S
C1004 C1023 1.429 . S
C1004 H1028 0.950 . S
C1005 C1022 1.574 . S
C1005 C1024 1.368 . S
C1005 H1029 0.949 . S
H1006 C1010 0.949 . S
C1007 C1008 1.349 . S
C1007 C1009 1.327 . S
C1007 H1030 0.950 . S
C1008 C1007 1.349 . S
C1008 C1020 1.349 . S
C1009 C1007 1.327 . S
C1009 C1025 1.429 . S
C1009 H1031 0.950 . S
C1010 H1006 0.949 . S
C1010 C1018 1.574 . S
C1010 C1026 1.368 . S
H1011 C1019 0.950 . S
H1012 C1017 0.950 . S
H1013 C1018 0.949 . S
H1014 C1020 0.950 . S
H1015 C1021 0.950 . S
H1016 C1022 0.949 . S
C1017 H1012 0.950 . S
C1017 C1019 1.327 . S
C1017 C1023 1.429 . S
C1018 C1010 1.574 . S
C1018 H1013 0.949 . S
C1018 C1024 1.368 . S
C1019 C1003 1.349 . S
C1019 H1011 0.950 . S
C1019 C1017 1.327 . S
C1020 C1008 1.349 . S
C1020 H1014 0.950 . S
C1020 C1021 1.327 . S
C1021 H1015 0.950 . S
C1021 C1020 1.327 . S
C1021 C1025 1.429 . S
C1022 C1005 1.574 . S
C1022 H1016 0.949 . S
C1022 C1026 1.368 . S
C1023 C1004 1.429 . S
C1023 C1017 1.429 . S
C1023 C1024 1.523 . S
C1024 C1005 1.368 . S
C1024 C1018 1.368 . S
C1024 C1023 1.523 . S
C1025 C1009 1.429 . S
C1025 C1021 1.429 . S
C1025 C1026 1.523 . S
C1026 C1010 1.368 . S
C1026 C1022 1.368 . S
C1026 C1025 1.523 . S
H1027 C1002 0.950 . S
H1028 C1004 0.950 . S
H1029 C1005 0.949 . S
H1030 C1007 0.950 . S
H1031 C1009 0.950 . S
C1032 C1033 1.349 . S
C1032 C1034 1.327 . S
C1032 H1057 0.950 . S
C1033 C1032 1.349 . S
C1033 C1049 1.349 . S
C1034 C1032 1.327 . S
C1034 C1053 1.429 . S
C1034 H1058 0.950 . S
C1035 C1052 1.574 . S
C1035 C1054 1.368 . S
C1035 H1059 0.949 . S
H1036 C1040 0.949 . S
C1037 C1038 1.349 . S
C1037 C1039 1.327 . S
C1037 H1060 0.950 . S
C1038 C1037 1.349 . S
C1038 C1050 1.349 . S
C1039 C1037 1.327 . S
C1039 C1055 1.429 . S
C1039 H1061 0.950 . S
C1040 H1036 0.949 . S
C1040 C1048 1.574 . S
C1040 C1056 1.368 . S
H1041 C1049 0.950 . S
H1042 C1047 0.950 . S
H1043 C1048 0.949 . S
H1044 C1050 0.950 . S
H1045 C1051 0.950 . S
H1046 C1052 0.949 . S
C1047 H1042 0.950 . S
C1047 C1049 1.327 . S
C1047 C1053 1.429 . S
C1048 C1040 1.574 . S
C1048 H1043 0.949 . S
C1048 C1054 1.368 . S
C1049 C1033 1.349 . S
C1049 H1041 0.950 . S
C1049 C1047 1.327 . S
C1050 C1038 1.349 . S
C1050 H1044 0.950 . S
C1050 C1051 1.327 . S
C1051 H1045 0.950 . S
C1051 C1050 1.327 . S
C1051 C1055 1.429 . S
C1052 C1035 1.574 . S
C1052 H1046 0.949 . S
C1052 C1056 1.368 . S
C1053 C1034 1.429 . S
C1053 C1047 1.429 . S
C1053 C1054 1.523 . S
C1054 C1035 1.368 . S
C1054 C1048 1.368 . S
C1054 C1053 1.523 . S
C1055 C1039 1.429 . S
C1055 C1051 1.429 . S
C1055 C1056 1.523 . S
C1056 C1040 1.368 . S
C1056 C1052 1.368 . S
C1056 C1055 1.523 . S
H1057 C1032 0.950 . S
H1058 C1034 0.950 . S
H1059 C1035 0.949 . S
H1060 C1037 0.950 . S
H1061 C1039 0.950 . S
C1062 C1063 1.349 . S
C1062 C1064 1.327 . S
C1062 H1087 0.950 . S
C1063 C1062 1.349 . S
C1063 C1079 1.349 . S
C1064 C1062 1.327 . S
C1064 C1083 1.429 . S
C1064 H1088 0.950 . S
C1065 C1082 1.574 . S
C1065 C1084 1.368 . S
C1065 H1089 0.949 . S
H1066 C1070 0.949 . S
C1067 C1068 1.349 . S
C1067 C1069 1.327 . S
C1067 H1090 0.950 . S
C1068 C1067 1.349 . S
C1068 C1080 1.349 . S
C1069 C1067 1.327 . S
C1069 C1085 1.429 . S
C1069 H1091 0.950 . S
C1070 H1066 0.949 . S
C1070 C1078 1.574 . S
C1070 C1086 1.368 . S
H1071 C1079 0.950 . S
H1072 C1077 0.950 . S
H1073 C1078 0.949 . S
H1074 C1080 0.950 . S
H1075 C1081 0.950 . S
H1076 C1082 0.949 . S
C1077 H1072 0.950 . S
C1077 C1079 1.327 . S
C1077 C1083 1.429 . S
C1078 C1070 1.574 . S
C1078 H1073 0.949 . S
C1078 C1084 1.368 . S
C1079 C1063 1.349 . S
C1079 H1071 0.950 . S
C1079 C1077 1.327 . S
C1080 C1068 1.349 . S
C1080 H1074 0.950 . S
C1080 C1081 1.327 . S
C1081 H1075 0.950 . S
C1081 C1080 1.327 . S
C1081 C1085 1.429 . S
C1082 C1065 1.574 . S
C1082 H1076 0.949 . S
C1082 C1086 1.368 . S
C1083 C1064 1.429 . S
C1083 C1077 1.429 . S
C1083 C1084 1.523 . S
C1084 C1065 1.368 . S
C1084 C1078 1.368 . S
C1084 C1083 1.523 . S
C1085 C1069 1.429 . S
C1085 C1081 1.429 . S
C1085 C1086 1.523 . S
C1086 C1070 1.368 . S
C1086 C1082 1.368 . S
C1086 C1085 1.523 . S
H1087 C1062 0.950 . S
H1088 C1064 0.950 . S
H1089 C1065 0.949 . S
H1090 C1067 0.950 . S
H1091 C1069 0.950 . S
C1092 C1093 1.349 . S
C1092 C1094 1.327 . S
C1092 H1117 0.950 . S
C1093 C1092 1.349 . S
C1093 C1109 1.349 . S
C1094 C1092 1.327 . S
C1094 C1113 1.429 . S
C1094 H1118 0.950 . S
C1095 C1112 1.574 . S
C1095 C1114 1.368 . S
C1095 H1119 0.949 . S
H1096 C1100 0.949 . S
C1097 C1098 1.349 . S
C1097 C1099 1.327 . S
C1097 H1120 0.950 . S
C1098 C1097 1.349 . S
C1098 C1110 1.349 . S
C1099 C1097 1.327 . S
C1099 C1115 1.429 . S
C1099 H1121 0.950 . S
C1100 H1096 0.949 . S
C1100 C1108 1.574 . S
C1100 C1116 1.368 . S
H1101 C1109 0.950 . S
H1102 C1107 0.950 . S
H1103 C1108 0.949 . S
H1104 C1110 0.950 . S
H1105 C1111 0.950 . S
H1106 C1112 0.949 . S
C1107 H1102 0.950 . S
C1107 C1109 1.327 . S
C1107 C1113 1.429 . S
C1108 C1100 1.574 . S
C1108 H1103 0.949 . S
C1108 C1114 1.368 . S
C1109 C1093 1.349 . S
C1109 H1101 0.950 . S
C1109 C1107 1.327 . S
C1110 C1098 1.349 . S
C1110 H1104 0.950 . S
C1110 C1111 1.327 . S
C1111 H1105 0.950 . S
C1111 C1110 1.327 . S
C1111 C1115 1.429 . S
C1112 C1095 1.574 . S
C1112 H1106 0.949 . S
C1112 C1116 1.368 . S
C1113 C1094 1.429 . S
C1113 C1107 1.429 . S
C1113 C1114 1.523 . S
C1114 C1095 1.368 . S
C1114 C1108 1.368 . S
C1114 C1113 1.523 . S
C1115 C1099 1.429 . S
C1115 C1111 1.429 . S
C1115 C1116 1.523 . S
C1116 C1100 1.368 . S
C1116 C1112 1.368 . S
C1116 C1115 1.523 . S
H1117 C1092 0.950 . S
H1118 C1094 0.950 . S
H1119 C1095 0.949 . S
H1120 C1097 0.950 . S
H1121 C1099 0.950 . S
C1122 C1123 1.349 . S
C1122 C1124 1.327 . S
C1122 H1147 0.950 . S
C1123 C1122 1.349 . S
C1123 C1139 1.349 . S
C1124 C1122 1.327 . S
C1124 C1143 1.429 . S
C1124 H1148 0.950 . S
C1125 C1142 1.574 . S
C1125 C1144 1.368 . S
C1125 H1149 0.949 . S
H1126 C1130 0.949 . S
C1127 C1128 1.349 . S
C1127 C1129 1.327 . S
C1127 H1150 0.950 . S
C1128 C1127 1.349 . S
C1128 C1140 1.349 . S
C1129 C1127 1.327 . S
C1129 C1145 1.429 . S
C1129 H1151 0.950 . S
C1130 H1126 0.949 . S
C1130 C1138 1.574 . S
C1130 C1146 1.368 . S
H1131 C1139 0.950 . S
H1132 C1137 0.950 . S
H1133 C1138 0.949 . S
H1134 C1140 0.950 . S
H1135 C1141 0.950 . S
H1136 C1142 0.949 . S
C1137 H1132 0.950 . S
C1137 C1139 1.327 . S
C1137 C1143 1.429 . S
C1138 C1130 1.574 . S
C1138 H1133 0.949 . S
C1138 C1144 1.368 . S
C1139 C1123 1.349 . S
C1139 H1131 0.950 . S
C1139 C1137 1.327 . S
C1140 C1128 1.349 . S
C1140 H1134 0.950 . S
C1140 C1141 1.327 . S
C1141 H1135 0.950 . S
C1141 C1140 1.327 . S
C1141 C1145 1.429 . S
C1142 C1125 1.574 . S
C1142 H1136 0.949 . S
C1142 C1146 1.368 . S
C1143 C1124 1.429 . S
C1143 C1137 1.429 . S
C1143 C1144 1.523 . S
C1144 C1125 1.368 . S
C1144 C1138 1.368 . S
C1144 C1143 1.523 . S
C1145 C1129 1.429 . S
C1145 C1141 1.429 . S
C1145 C1146 1.523 . S
C1146 C1130 1.368 . S
C1146 C1142 1.368 . S
C1146 C1145 1.523 . S
H1147 C1122 0.950 . S
H1148 C1124 0.950 . S
H1149 C1125 0.949 . S
H1150 C1127 0.950 . S
H1151 C1129 0.950 . S
C1152 C1153 1.349 . S
C1152 C1154 1.327 . S
C1152 H1177 0.950 . S
C1153 C1152 1.349 . S
C1153 C1169 1.349 . S
C1154 C1152 1.327 . S
C1154 C1173 1.429 . S
C1154 H1178 0.950 . S
C1155 C1172 1.574 . S
C1155 C1174 1.368 . S
C1155 H1179 0.949 . S
H1156 C1160 0.949 . S
C1157 C1158 1.349 . S
C1157 C1159 1.327 . S
C1157 H1180 0.950 . S
C1158 C1157 1.349 . S
C1158 C1170 1.349 . S
C1159 C1157 1.327 . S
C1159 C1175 1.429 . S
C1159 H1181 0.950 . S
C1160 H1156 0.949 . S
C1160 C1168 1.574 . S
C1160 C1176 1.368 . S
H1161 C1169 0.950 . S
H1162 C1167 0.950 . S
H1163 C1168 0.949 . S
H1164 C1170 0.950 . S
H1165 C1171 0.950 . S
H1166 C1172 0.949 . S
C1167 H1162 0.950 . S
C1167 C1169 1.327 . S
C1167 C1173 1.429 . S
C1168 C1160 1.574 . S
C1168 H1163 0.949 . S
C1168 C1174 1.368 . S
C1169 C1153 1.349 . S
C1169 H1161 0.950 . S
C1169 C1167 1.327 . S
C1170 C1158 1.349 . S
C1170 H1164 0.950 . S
C1170 C1171 1.327 . S
C1171 H1165 0.950 . S
C1171 C1170 1.327 . S
C1171 C1175 1.429 . S
C1172 C1155 1.574 . S
C1172 H1166 0.949 . S
C1172 C1176 1.368 . S
C1173 C1154 1.429 . S
C1173 C1167 1.429 . S
C1173 C1174 1.523 . S
C1174 C1155 1.368 . S
C1174 C1168 1.368 . S
C1174 C1173 1.523 . S
C1175 C1159 1.429 . S
C1175 C1171 1.429 . S
C1175 C1176 1.523 . S
C1176 C1160 1.368 . S
C1176 C1172 1.368 . S
C1176 C1175 1.523 . S
H1177 C1152 0.950 . S
H1178 C1154 0.950 . S
H1179 C1155 0.949 . S
H1180 C1157 0.950 . S
H1181 C1159 0.950 . S
C1182 C1183 1.349 . S
C1182 C1184 1.327 . S
C1182 H1207 0.950 . S
C1183 C1182 1.349 . S
C1183 C1199 1.349 . S
C1184 C1182 1.327 . S
C1184 C1203 1.429 . S
C1184 H1208 0.950 . S
C1185 C1202 1.574 . S
C1185 C1204 1.368 . S
C1185 H1209 0.949 . S
H1186 C1190 0.949 . S
C1187 C1188 1.349 . S
C1187 C1189 1.327 . S
C1187 H1210 0.950 . S
C1188 C1187 1.349 . S
C1188 C1200 1.349 . S
C1189 C1187 1.327 . S
C1189 C1205 1.429 . S
C1189 H1211 0.950 . S
C1190 H1186 0.949 . S
C1190 C1198 1.574 . S
C1190 C1206 1.368 . S
H1191 C1199 0.950 . S
H1192 C1197 0.950 . S
H1193 C1198 0.949 . S
H1194 C1200 0.950 . S
H1195 C1201 0.950 . S
H1196 C1202 0.949 . S
C1197 H1192 0.950 . S
C1197 C1199 1.327 . S
C1197 C1203 1.429 . S
C1198 C1190 1.574 . S
C1198 H1193 0.949 . S
C1198 C1204 1.368 . S
C1199 C1183 1.349 . S
C1199 H1191 0.950 . S
C1199 C1197 1.327 . S
C1200 C1188 1.349 . S
C1200 H1194 0.950 . S
C1200 C1201 1.327 . S
C1201 H1195 0.950 . S
C1201 C1200 1.327 . S
C1201 C1205 1.429 . S
C1202 C1185 1.574 . S
C1202 H1196 0.949 . S
C1202 C1206 1.368 . S
C1203 C1184 1.429 . S
C1203 C1197 1.429 . S
C1203 C1204 1.523 . S
C1204 C1185 1.368 . S
C1204 C1198 1.368 . S
C1204 C1203 1.523 . S
C1205 C1189 1.429 . S
C1205 C1201 1.429 . S
C1205 C1206 1.523 . S
C1206 C1190 1.368 . S
C1206 C1202 1.368 . S
C1206 C1205 1.523 . S
H1207 C1182 0.950 . S
H1208 C1184 0.950 . S
H1209 C1185 0.949 . S
H1210 C1187 0.950 . S
H1211 C1189 0.950 . S
C1212 C1213 1.349 . S
C1212 C1214 1.327 . S
C1212 H1237 0.950 . S
C1213 C1212 1.349 . S
C1213 C1229 1.349 . S
C1214 C1212 1.327 . S
C1214 C1233 1.429 . S
C1214 H1238 0.950 . S
C1215 C1232 1.574 . S
C1215 C1234 1.368 . S
C1215 H1239 0.949 . S
H1216 C1220 0.949 . S
C1217 C1218 1.349 . S
C1217 C1219 1.327 . S
C1217 H1240 0.950 . S
C1218 C1217 1.349 . S
C1218 C1230 1.349 . S
C1219 C1217 1.327 . S
C1219 C1235 1.429 . S
C1219 H1241 0.950 . S
C1220 H1216 0.949 . S
C1220 C1228 1.574 . S
C1220 C1236 1.368 . S
H1221 C1229 0.950 . S
H1222 C1227 0.950 . S
H1223 C1228 0.949 . S
H1224 C1230 0.950 . S
H1225 C1231 0.950 . S
H1226 C1232 0.949 . S
C1227 H1222 0.950 . S
C1227 C1229 1.327 . S
C1227 C1233 1.429 . S
C1228 C1220 1.574 . S
C1228 H1223 0.949 . S
C1228 C1234 1.368 . S
C1229 C1213 1.349 . S
C1229 H1221 0.950 . S
C1229 C1227 1.327 . S
C1230 C1218 1.349 . S
C1230 H1224 0.950 . S
C1230 C1231 1.327 . S
C1231 H1225 0.950 . S
C1231 C1230 1.327 . S
C1231 C1235 1.429 . S
C1232 C1215 1.574 . S
C1232 H1226 0.949 . S
C1232 C1236 1.368 . S
C1233 C1214 1.429 . S
C1233 C1227 1.429 . S
C1233 C1234 1.523 . S
C1234 C1215 1.368 . S
C1234 C1228 1.368 . S
C1234 C1233 1.523 . S
C1235 C1219 1.429 . S
C1235 C1231 1.429 . S
C1235 C1236 1.523 . S
C1236 C1220 1.368 . S
C1236 C1232 1.368 . S
C1236 C1235 1.523 . S
H1237 C1212 0.950 . S
H1238 C1214 0.950 . S
H1239 C1215 0.949 . S
H1240 C1217 0.950 . S
H1241 C1219 0.950 . S
C1242 C1243 1.349 . S
C1242 C1244 1.327 . S
C1242 H1267 0.950 . S
C1243 C1242 1.349 . S
C1243 C1259 1.349 . S
C1244 C1242 1.327 . S
C1244 C1263 1.429 . S
C1244 H1268 0.950 . S
C1245 C1262 1.574 . S
C1245 C1264 1.368 . S
C1245 H1269 0.949 . S
H1246 C1250 0.949 . S
C1247 C1248 1.349 . S
C1247 C1249 1.327 . S
C1247 H1270 0.950 . S
C1248 C1247 1.349 . S
C1248 C1260 1.349 . S
C1249 C1247 1.327 . S
C1249 C1265 1.429 . S
C1249 H1271 0.950 . S
C1250 H1246 0.949 . S
C1250 C1258 1.574 . S
C1250 C1266 1.368 . S
H1251 C1259 0.950 . S
H1252 C1257 0.950 . S
H1253 C1258 0.949 . S
H1254 C1260 0.950 . S
H1255 C1261 0.950 . S
H1256 C1262 0.949 . S
C1257 H1252 0.950 . S
C1257 C1259 1.327 . S
C1257 C1263 1.429 . S
C1258 C1250 1.574 . S
C1258 H1253 0.949 . S
C1258 C1264 1.368 . S
C1259 C1243 1.349 . S
C1259 H1251 0.950 . S
C1259 C1257 1.327 . S
C1260 C1248 1.349 . S
C1260 H1254 0.950 . S
C1260 C1261 1.327 . S
C1261 H1255 0.950 . S
C1261 C1260 1.327 . S
C1261 C1265 1.429 . S
C1262 C1245 1.574 . S
C1262 H1256 0.949 . S
C1262 C1266 1.368 . S
C1263 C1244 1.429 . S
C1263 C1257 1.429 . S
C1263 C1264 1.523 . S
C1264 C1245 1.368 . S
C1264 C1258 1.368 . S
C1264 C1263 1.523 . S
C1265 C1249 1.429 . S
C1265 C1261 1.429 . S
C1265 C1266 1.523 . S
C1266 C1250 1.368 . S
C1266 C1262 1.368 . S
C1266 C1265 1.523 . S
H1267 C1242 0.950 . S
H1268 C1244 0.950 . S
H1269 C1245 0.949 . S
H1270 C1247 0.950 . S
H1271 C1249 0.950 . S
C1272 C1273 1.349 . S
C1272 C1274 1.327 . S
C1272 H1297 0.950 . S
C1273 C1272 1.349 . S
C1273 C1289 1.349 . S
C1274 C1272 1.327 . S
C1274 C1293 1.429 . S
C1274 H1298 0.950 . S
C1275 C1292 1.574 . S
C1275 C1294 1.368 . S
C1275 H1299 0.949 . S
H1276 C1280 0.949 . S
C1277 C1278 1.349 . S
C1277 C1279 1.327 . S
C1277 H1300 0.950 . S
C1278 C1277 1.349 . S
C1278 C1290 1.349 . S
C1279 C1277 1.327 . S
C1279 C1295 1.429 . S
C1279 H1301 0.950 . S
C1280 H1276 0.949 . S
C1280 C1288 1.574 . S
C1280 C1296 1.368 . S
H1281 C1289 0.950 . S
H1282 C1287 0.950 . S
H1283 C1288 0.949 . S
H1284 C1290 0.950 . S
H1285 C1291 0.950 . S
H1286 C1292 0.949 . S
C1287 H1282 0.950 . S
C1287 C1289 1.327 . S
C1287 C1293 1.429 . S
C1288 C1280 1.574 . S
C1288 H1283 0.949 . S
C1288 C1294 1.368 . S
C1289 C1273 1.349 . S
C1289 H1281 0.950 . S
C1289 C1287 1.327 . S
C1290 C1278 1.349 . S
C1290 H1284 0.950 . S
C1290 C1291 1.327 . S
C1291 H1285 0.950 . S
C1291 C1290 1.327 . S
C1291 C1295 1.429 . S
C1292 C1275 1.574 . S
C1292 H1286 0.949 . S
C1292 C1296 1.368 . S
C1293 C1274 1.429 . S
C1293 C1287 1.429 . S
C1293 C1294 1.523 . S
C1294 C1275 1.368 . S
C1294 C1288 1.368 . S
C1294 C1293 1.523 . S
C1295 C1279 1.429 . S
C1295 C1291 1.429 . S
C1295 C1296 1.523 . S
C1296 C1280 1.368 . S
C1296 C1292 1.368 . S
C1296 C1295 1.523 . S
H1297 C1272 0.950 . S
H1298 C1274 0.950 . S
H1299 C1275 0.949 . S
H1300 C1277 0.950 . S
H1301 C1279 0.950 . S
C1302 C1303 1.349 . S
C1302 C1304 1.327 . S
C1302 H1327 0.950 . S
C1303 C1302 1.349 . S
C1303 C1319 1.349 . S
C1304 C1302 1.327 . S
C1304 C1323 1.429 . S
C1304 H1328 0.950 . S
C1305 C1322 1.574 . S
C1305 C1324 1.368 . S
C1305 H1329 0.949 . S
H1306 C1310 0.949 . S
C1307 C1308 1.349 . S
C1307 C1309 1.327 . S
C1307 H1330 0.950 . S
C1308 C1307 1.349 . S
C1308 C1320 1.349 . S
C1309 C1307 1.327 . S
C1309 C1325 1.429 . S
C1309 H1331 0.950 . S
C1310 H1306 0.949 . S
C1310 C1318 1.574 . S
C1310 C1326 1.368 . S
H1311 C1319 0.950 . S
H1312 C1317 0.950 . S
H1313 C1318 0.949 . S
H1314 C1320 0.950 . S
H1315 C1321 0.950 . S
H1316 C1322 0.949 . S
C1317 H1312 0.950 . S
C1317 C1319 1.327 . S
C1317 C1323 1.429 . S
C1318 C1310 1.574 . S
C1318 H1313 0.949 . S
C1318 C1324 1.368 . S
C1319 C1303 1.349 . S
C1319 H1311 0.950 . S
C1319 C1317 1.327 . S
C1320 C1308 1.349 . S
C1320 H1314 0.950 . S
C1320 C1321 1.327 . S
C1321 H1315 0.950 . S
C1321 C1320 1.327 . S
C1321 C1325 1.429 . S
C1322 C1305 1.574 . S
C1322 H1316 0.949 . S
C1322 C1326 1.368 . S
C1323 C1304 1.429 . S
C1323 C1317 1.429 . S
C1323 C1324 1.523 . S
C1324 C1305 1.368 . S
C1324 C1318 1.368 . S
C1324 C1323 1.523 . S
C1325 C1309 1.429 . S
C1325 C1321 1.429 . S
C1325 C1326 1.523 . S
C1326 C1310 1.368 . S
C1326 C1322 1.368 . S
C1326 C1325 1.523 . S
H1327 C1302 0.950 . S
H1328 C1304 0.950 . S
H1329 C1305 0.949 . S
H1330 C1307 0.950 . S
H1331 C1309 0.950 . S
C1332 C1333 1.349 . S
C1332 C1334 1.327 . S
C1332 H1357 0.950 . S
C1333 C1332 1.349 . S
C1333 C1349 1.349 . S
C1334 C1332 1.327 . S
C1334 C1353 1.429 . S
C1334 H1358 0.950 . S
C1335 C1352 1.574 . S
C1335 C1354 1.368 . S
C1335 H1359 0.949 . S
H1336 C1340 0.949 . S
C1337 C1338 1.349 . S
C1337 C1339 1.327 . S
C1337 H1360 0.950 . S
C1338 C1337 1.349 . S
C1338 C1350 1.349 . S
C1339 C1337 1.327 . S
C1339 C1355 1.429 . S
C1339 H1361 0.950 . S
C1340 H1336 0.949 . S
C1340 C1348 1.574 . S
C1340 C1356 1.368 . S
H1341 C1349 0.950 . S
H1342 C1347 0.950 . S
H1343 C1348 0.949 . S
H1344 C1350 0.950 . S
H1345 C1351 0.950 . S
H1346 C1352 0.949 . S
C1347 H1342 0.950 . S
C1347 C1349 1.327 . S
C1347 C1353 1.429 . S
C1348 C1340 1.574 . S
C1348 H1343 0.949 . S
C1348 C1354 1.368 . S
C1349 C1333 1.349 . S
C1349 H1341 0.950 . S
C1349 C1347 1.327 . S
C1350 C1338 1.349 . S
C1350 H1344 0.950 . S
C1350 C1351 1.327 . S
C1351 H1345 0.950 . S
C1351 C1350 1.327 . S
C1351 C1355 1.429 . S
C1352 C1335 1.574 . S
C1352 H1346 0.949 . S
C1352 C1356 1.368 . S
C1353 C1334 1.429 . S
C1353 C1347 1.429 . S
C1353 C1354 1.523 . S
C1354 C1335 1.368 . S
C1354 C1348 1.368 . S
C1354 C1353 1.523 . S
C1355 C1339 1.429 . S
C1355 C1351 1.429 . S
C1355 C1356 1.523 . S
C1356 C1340 1.368 . S
C1356 C1352 1.368 . S
C1356 C1355 1.523 . S
H1357 C1332 0.950 . S
H1358 C1334 0.950 . S
H1359 C1335 0.949 . S
H1360 C1337 0.950 . S
H1361 C1339 0.950 . S
C1362 C1363 1.349 . S
C1362 C1364 1.327 . S
C1362 H1387 0.950 . S
C1363 C1362 1.349 . S
C1363 C1379 1.349 . S
C1364 C1362 1.327 . S
C1364 C1383 1.429 . S
C1364 H1388 0.950 . S
C1365 C1382 1.574 . S
C1365 C1384 1.368 . S
C1365 H1389 0.949 . S
H1366 C1370 0.949 . S
C1367 C1368 1.349 . S
C1367 C1369 1.327 . S
C1367 H1390 0.950 . S
C1368 C1367 1.349 . S
C1368 C1380 1.349 . S
C1369 C1367 1.327 . S
C1369 C1385 1.429 . S
C1369 H1391 0.950 . S
C1370 H1366 0.949 . S
C1370 C1378 1.574 . S
C1370 C1386 1.368 . S
H1371 C1379 0.950 . S
H1372 C1377 0.950 . S
H1373 C1378 0.949 . S
H1374 C1380 0.950 . S
H1375 C1381 0.950 . S
H1376 C1382 0.949 . S
C1377 H1372 0.950 . S
C1377 C1379 1.327 . S
C1377 C1383 1.429 . S
C1378 C1370 1.574 . S
C1378 H1373 0.949 . S
C1378 C1384 1.368 . S
C1379 C1363 1.349 . S
C1379 H1371 0.950 . S
C1379 C1377 1.327 . S
C1380 C1368 1.349 . S
C1380 H1374 0.950 . S
C1380 C1381 1.327 . S
C1381 H1375 0.950 . S
C1381 C1380 1.327 . S
C1381 C1385 1.429 . S
C1382 C1365 1.574 . S
C1382 H1376 0.949 . S
C1382 C1386 1.368 . S
C1383 C1364 1.429 . S
C1383 C1377 1.429 . S
C1383 C1384 1.523 . S
C1384 C1365 1.368 . S
C1384 C1378 1.368 . S
C1384 C1383 1.523 . S
C1385 C1369 1.429 . S
C1385 C1381 1.429 . S
C1385 C1386 1.523 . S
C1386 C1370 1.368 . S
C1386 C1382 1.368 . S
C1386 C1385 1.523 . S
H1387 C1362 0.950 . S
H1388 C1364 0.950 . S
H1389 C1365 0.949 . S
H1390 C1367 0.950 . S
H1391 C1369 0.950 . S
C1392 C1393 1.349 . S
C1392 C1394 1.327 . S
C1392 H1417 0.950 . S
C1393 C1392 1.349 . S
C1393 C1409 1.349 . S
C1394 C1392 1.327 . S
C1394 C1413 1.429 . S
C1394 H1418 0.950 . S
C1395 C1412 1.574 . S
C1395 C1414 1.368 . S
C1395 H1419 0.949 . S
H1396 C1400 0.949 . S
C1397 C1398 1.349 . S
C1397 C1399 1.327 . S
C1397 H1420 0.950 . S
C1398 C1397 1.349 . S
C1398 C1410 1.349 . S
C1399 C1397 1.327 . S
C1399 C1415 1.429 . S
C1399 H1421 0.950 . S
C1400 H1396 0.949 . S
C1400 C1408 1.574 . S
C1400 C1416 1.368 . S
H1401 C1409 0.950 . S
H1402 C1407 0.950 . S
H1403 C1408 0.949 . S
H1404 C1410 0.950 . S
H1405 C1411 0.950 . S
H1406 C1412 0.949 . S
C1407 H1402 0.950 . S
C1407 C1409 1.327 . S
C1407 C1413 1.429 . S
C1408 C1400 1.574 . S
C1408 H1403 0.949 . S
C1408 C1414 1.368 . S
C1409 C1393 1.349 . S
C1409 H1401 0.950 . S
C1409 C1407 1.327 . S
C1410 C1398 1.349 . S
C1410 H1404 0.950 . S
C1410 C1411 1.327 . S
C1411 H1405 0.950 . S
C1411 C1410 1.327 . S
C1411 C1415 1.429 . S
C1412 C1395 1.574 . S
C1412 H1406 0.949 . S
C1412 C1416 1.368 . S
C1413 C1394 1.429 . S
C1413 C1407 1.429 . S
C1413 C1414 1.523 . S
C1414 C1395 1.368 . S
C1414 C1408 1.368 . S
C1414 C1413 1.523 . S
C1415 C1399 1.429 . S
C1415 C1411 1.429 . S
C1415 C1416 1.523 . S
C1416 C1400 1.368 . S
C1416 C1412 1.368 . S
C1416 C1415 1.523 . S
H1417 C1392 0.950 . S
H1418 C1394 0.950 . S
H1419 C1395 0.949 . S
H1420 C1397 0.950 . S
H1421 C1399 0.950 . S
C1422 C1423 1.349 . S
C1422 C1424 1.327 . S
C1422 H1447 0.950 . S
C1423 C1422 1.349 . S
C1423 C1439 1.349 . S
C1424 C1422 1.327 . S
C1424 C1443 1.429 . S
C1424 H1448 0.950 . S
C1425 C1442 1.574 . S
C1425 C1444 1.368 . S
C1425 H1449 0.949 . S
H1426 C1430 0.949 . S
C1427 C1428 1.349 . S
C1427 C1429 1.327 . S
C1427 H1450 0.950 . S
C1428 C1427 1.349 . S
C1428 C1440 1.349 . S
C1429 C1427 1.327 . S
C1429 C1445 1.429 . S
C1429 H1451 0.950 . S
C1430 H1426 0.949 . S
C1430 C1438 1.574 . S
C1430 C1446 1.368 . S
H1431 C1439 0.950 . S
H1432 C1437 0.950 . S
H1433 C1438 0.949 . S
H1434 C1440 0.950 . S
H1435 C1441 0.950 . S
H1436 C1442 0.949 . S
C1437 H1432 0.950 . S
C1437 C1439 1.327 . S
C1437 C1443 1.429 . S
C1438 C1430 1.574 . S
C1438 H1433 0.949 . S
C1438 C1444 1.368 . S
C1439 C1423 1.349 . S
C1439 H1431 0.950 . S
C1439 C1437 1.327 . S
C1440 C1428 1.349 . S
C1440 H1434 0.950 . S
C1440 C1441 1.327 . S
C1441 H1435 0.950 . S
C1441 C1440 1.327 . S
C1441 C1445 1.429 . S
C1442 C1425 1.574 . S
C1442 H1436 0.949 . S
C1442 C1446 1.368 . S
C1443 C1424 1.429 . S
C1443 C1437 1.429 . S
C1443 C1444 1.523 . S
C1444 C1425 1.368 . S
C1444 C1438 1.368 . S
C1444 C1443 1.523 . S
C1445 C1429 1.429 . S
C1445 C1441 1.429 . S
C1445 C1446 1.523 . S
C1446 C1430 1.368 . S
C1446 C1442 1.368 . S
C1446 C1445 1.523 . S
H1447 C1422 0.950 . S
H1448 C1424 0.950 . S
H1449 C1425 0.949 . S
H1450 C1427 0.950 . S
H1451 C1429 0.950 . S
C1452 C1453 1.349 . S
C1452 C1454 1.327 . S
C1452 H1477 0.950 . S
C1453 C1452 1.349 . S
C1453 C1469 1.349 . S
C1454 C1452 1.327 . S
C1454 C1473 1.429 . S
C1454 H1478 0.950 . S
C1455 C1472 1.574 . S
C1455 C1474 1.368 . S
C1455 H1479 0.949 . S
H1456 C1460 0.949 . S
C1457 C1458 1.349 . S
C1457 C1459 1.327 . S
C1457 H1480 0.950 . S
C1458 C1457 1.349 . S
C1458 C1470 1.349 . S
C1459 C1457 1.327 . S
C1459 C1475 1.429 . S
C1459 H1481 0.950 . S
C1460 H1456 0.949 . S
C1460 C1468 1.574 . S
C1460 C1476 1.368 . S
H1461 C1469 0.950 . S
H1462 C1467 0.950 . S
H1463 C1468 0.949 . S
H1464 C1470 0.950 . S
H1465 C1471 0.950 . S
H1466 C1472 0.949 . S
C1467 H1462 0.950 . S
C1467 C1469 1.327 . S
C1467 C1473 1.429 . S
C1468 C1460 1.574 . S
C1468 H1463 0.949 . S
C1468 C1474 1.368 . S
C1469 C1453 1.349 . S
C1469 H1461 0.950 . S
C1469 C1467 1.327 . S
C1470 C1458 1.349 . S
C1470 H1464 0.950 . S
C1470 C1471 1.327 . S
C1471 H1465 0.950 . S
C1471 C1470 1.327 . S
C1471 C1475 1.429 . S
C1472 C1455 1.574 . S
C1472 H1466 0.949 . S
C1472 C1476 1.368 . S
C1473 C1454 1.429 . S
C1473 C1467 1.429 . S
C1473 C1474 1.523 . S
C1474 C1455 1.368 . S
C1474 C1468 1.368 . S
C1474 C1473 1.523 . S
C1475 C1459 1.429 . S
C1475 C1471 1.429 . S
C1475 C1476 1.523 . S
C1476 C1460 1.368 . S
C1476 C1472 1.368 . S
C1476 C1475 1.523 . S
H1477 C1452 0.950 . S
H1478 C1454 0.950 . S
H1479 C1455 0.949 . S
H1480 C1457 0.950 . S
H1481 C1459 0.950 . S
C1482 C1483 1.349 . S
C1482 C1484 1.327 . S
C1482 H1507 0.950 . S
C1483 C1482 1.349 . S
C1483 C1499 1.349 . S
C1484 C1482 1.327 . S
C1484 C1503 1.429 . S
C1484 H1508 0.950 . S
C1485 C1502 1.574 . S
C1485 C1504 1.368 . S
C1485 H1509 0.949 . S
H1486 C1490 0.949 . S
C1487 C1488 1.349 . S
C1487 C1489 1.327 . S
C1487 H1510 0.950 . S
C1488 C1487 1.349 . S
C1488 C1500 1.349 . S
C1489 C1487 1.327 . S
C1489 C1505 1.429 . S
C1489 H1511 0.950 . S
C1490 H1486 0.949 . S
C1490 C1498 1.574 . S
C1490 C1506 1.368 . S
H1491 C1499 0.950 . S
H1492 C1497 0.950 . S
H1493 C1498 0.949 . S
H1494 C1500 0.950 . S
H1495 C1501 0.950 . S
H1496 C1502 0.949 . S
C1497 H1492 0.950 . S
C1497 C1499 1.327 . S
C1497 C1503 1.429 . S
C1498 C1490 1.574 . S
C1498 H1493 0.949 . S
C1498 C1504 1.368 . S
C1499 C1483 1.349 . S
C1499 H1491 0.950 . S
C1499 C1497 1.327 . S
C1500 C1488 1.349 . S
C1500 H1494 0.950 . S
C1500 C1501 1.327 . S
C1501 H1495 0.950 . S
C1501 C1500 1.327 . S
C1501 C1505 1.429 . S
C1502 C1485 1.574 . S
C1502 H1496 0.949 . S
C1502 C1506 1.368 . S
C1503 C1484 1.429 . S
C1503 C1497 1.429 . S
C1503 C1504 1.523 . S
C1504 C1485 1.368 . S
C1504 C1498 1.368 . S
C1504 C1503 1.523 . S
C1505 C1489 1.429 . S
C1505 C1501 1.429 . S
C1505 C1506 1.523 . S
C1506 C1490 1.368 . S
C1506 C1502 1.368 . S
C1506 C1505 1.523 . S
H1507 C1482 0.950 . S
H1508 C1484 0.950 . S
H1509 C1485 0.949 . S
H1510 C1487 0.950 . S
H1511 C1489 0.950 . S
C1512 C1513 1.349 . S
C1512 C1514 1.327 . S
C1512 H1537 0.950 . S
C1513 C1512 1.349 . S
C1513 C1529 1.349 . S
C1514 C1512 1.327 . S
C1514 C1533 1.429 . S
C1514 H1538 0.950 . S
C1515 C1532 1.574 . S
C1515 C1534 1.368 . S
C1515 H1539 0.949 . S
H1516 C1520 0.949 . S
C1517 C1518 1.349 . S
C1517 C1519 1.327 . S
C1517 H1540 0.950 . S
C1518 C1517 1.349 . S
C1518 C1530 1.349 . S
C1519 C1517 1.327 . S
C1519 C1535 1.429 . S
C1519 H1541 0.950 . S
C1520 H1516 0.949 . S
C1520 C1528 1.574 . S
C1520 C1536 1.368 . S
H1521 C1529 0.950 . S
H1522 C1527 0.950 . S
H1523 C1528 0.949 . S
H1524 C1530 0.950 . S
H1525 C1531 0.950 . S
H1526 C1532 0.949 . S
C1527 H1522 0.950 . S
C1527 C1529 1.327 . S
C1527 C1533 1.429 . S
C1528 C1520 1.574 . S
C1528 H1523 0.949 . S
C1528 C1534 1.368 . S
C1529 C1513 1.349 . S
C1529 H1521 0.950 . S
C1529 C1527 1.327 . S
C1530 C1518 1.349 . S
C1530 H1524 0.950 . S
C1530 C1531 1.327 . S
C1531 H1525 0.950 . S
C1531 C1530 1.327 . S
C1531 C1535 1.429 . S
C1532 C1515 1.574 . S
C1532 H1526 0.949 . S
C1532 C1536 1.368 . S
C1533 C1514 1.429 . S
C1533 C1527 1.429 . S
C1533 C1534 1.523 . S
C1534 C1515 1.368 . S
C1534 C1528 1.368 . S
C1534 C1533 1.523 . S
C1535 C1519 1.429 . S
C1535 C1531 1.429 . S
C1535 C1536 1.523 . S
C1536 C1520 1.368 . S
C1536 C1532 1.368 . S
C1536 C1535 1.523 . S
H1537 C1512 0.950 . S
H1538 C1514 0.950 . S
H1539 C1515 0.949 . S
H1540 C1517 0.950 . S
H1541 C1519 0.950 . S
C1542 C1543 1.349 . S
C1542 C1544 1.327 . S
C1542 H1567 0.950 . S
C1543 C1542 1.349 . S
C1543 C1559 1.349 . S
C1544 C1542 1.327 . S
C1544 C1563 1.429 . S
C1544 H1568 0.950 . S
C1545 C1562 1.574 . S
C1545 C1564 1.368 . S
C1545 H1569 0.949 . S
H1546 C1550 0.949 . S
C1547 C1548 1.349 . S
C1547 C1549 1.327 . S
C1547 H1570 0.950 . S
C1548 C1547 1.349 . S
C1548 C1560 1.349 . S
C1549 C1547 1.327 . S
C1549 C1565 1.429 . S
C1549 H1571 0.950 . S
C1550 H1546 0.949 . S
C1550 C1558 1.574 . S
C1550 C1566 1.368 . S
H1551 C1559 0.950 . S
H1552 C1557 0.950 . S
H1553 C1558 0.949 . S
H1554 C1560 0.950 . S
H1555 C1561 0.950 . S
H1556 C1562 0.949 . S
C1557 H1552 0.950 . S
C1557 C1559 1.327 . S
C1557 C1563 1.429 . S
C1558 C1550 1.574 . S
C1558 H1553 0.949 . S
C1558 C1564 1.368 . S
C1559 C1543 1.349 . S
C1559 H1551 0.950 . S
C1559 C1557 1.327 . S
C1560 C1548 1.349 . S
C1560 H1554 0.950 . S
C1560 C1561 1.327 . S
C1561 H1555 0.950 . S
C1561 C1560 1.327 . S
C1561 C1565 1.429 . S
C1562 C1545 1.574 . S
C1562 H1556 0.949 . S
C1562 C1566 1.368 . S
C1563 C1544 1.429 . S
C1563 C1557 1.429 . S
C1563 C1564 1.523 . S
C1564 C1545 1.368 . S
C1564 C1558 1.368 . S
C1564 C1563 1.523 . S
C1565 C1549 1.429 . S
C1565 C1561 1.429 . S
C1565 C1566 1.523 . S
C1566 C1550 1.368 . S
C1566 C1562 1.368 . S
C1566 C1565 1.523 . S
H1567 C1542 0.950 . S
H1568 C1544 0.950 . S
H1569 C1545 0.949 . S
H1570 C1547 0.950 . S
H1571 C1549 0.950 . S
C1572 C1573 1.349 . S
C1572 C1574 1.327 . S
C1572 H1597 0.950 . S
C1573 C1572 1.349 . S
C1573 C1589 1.349 . S
C1574 C1572 1.327 . S
C1574 C1593 1.429 . S
C1574 H1598 0.950 . S
C1575 C1592 1.574 . S
C1575 C1594 1.368 . S
C1575 H1599 0.949 . S
H1576 C1580 0.949 . S
C1577 C1578 1.349 . S
C1577 C1579 1.327 . S
C1577 H1600 0.950 . S
C1578 C1577 1.349 . S
C1578 C1590 1.349 . S
C1579 C1577 1.327 . S
C1579 C1595 1.429 . S
C1579 H1601 0.950 . S
C1580 H1576 0.949 . S
C1580 C1588 1.574 . S
C1580 C1596 1.368 . S
H1581 C1589 0.950 . S
H1582 C1587 0.950 . S
H1583 C1588 0.949 . S
H1584 C1590 0.950 . S
H1585 C1591 0.950 . S
H1586 C1592 0.949 . S
C1587 H1582 0.950 . S
C1587 C1589 1.327 . S
C1587 C1593 1.429 . S
C1588 C1580 1.574 . S
C1588 H1583 0.949 . S
C1588 C1594 1.368 . S
C1589 C1573 1.349 . S
C1589 H1581 0.950 . S
C1589 C1587 1.327 . S
C1590 C1578 1.349 . S
C1590 H1584 0.950 . S
C1590 C1591 1.327 . S
C1591 H1585 0.950 . S
C1591 C1590 1.327 . S
C1591 C1595 1.429 . S
C1592 C1575 1.574 . S
C1592 H1586 0.949 . S
C1592 C1596 1.368 . S
C1593 C1574 1.429 . S
C1593 C1587 1.429 . S
C1593 C1594 1.523 . S
C1594 C1575 1.368 . S
C1594 C1588 1.368 . S
C1594 C1593 1.523 . S
C1595 C1579 1.429 . S
C1595 C1591 1.429 . S
C1595 C1596 1.523 . S
C1596 C1580 1.368 . S
C1596 C1592 1.368 . S
C1596 C1595 1.523 . S
H1597 C1572 0.950 . S
H1598 C1574 0.950 . S
H1599 C1575 0.949 . S
H1600 C1577 0.950 . S
H1601 C1579 0.950 . S
C1602 C1603 1.349 . S
C1602 C1604 1.327 . S
C1602 H1627 0.950 . S
C1603 C1602 1.349 . S
C1603 C1619 1.349 . S
C1604 C1602 1.327 . S
C1604 C1623 1.429 . S
C1604 H1628 0.950 . S
C1605 C1622 1.574 . S
C1605 C1624 1.368 . S
C1605 H1629 0.949 . S
H1606 C1610 0.949 . S
C1607 C1608 1.349 . S
C1607 C1609 1.327 . S
C1607 H1630 0.950 . S
C1608 C1607 1.349 . S
C1608 C1620 1.349 . S
C1609 C1607 1.327 . S
C1609 C1625 1.429 . S
C1609 H1631 0.950 . S
C1610 H1606 0.949 . S
C1610 C1618 1.574 . S
C1610 C1626 1.368 . S
H1611 C1619 0.950 . S
H1612 C1617 0.950 . S
H1613 C1618 0.949 . S
H1614 C1620 0.950 . S
H1615 C1621 0.950 . S
H1616 C1622 0.949 . S
C1617 H1612 0.950 . S
C1617 C1619 1.327 . S
C1617 C1623 1.429 . S
C1618 C1610 1.574 . S
C1618 H1613 0.949 . S
C1618 C1624 1.368 . S
C1619 C1603 1.349 . S
C1619 H1611 0.950 . S
C1619 C1617 1.327 . S
C1620 C1608 1.349 . S
C1620 H1614 0.950 . S
C1620 C1621 1.327 . S
C1621 H1615 0.950 . S
C1621 C1620 1.327 . S
C1621 C1625 1.429 . S
C1622 C1605 1.574 . S
C1622 H1616 0.949 . S
C1622 C1626 1.368 . S
C1623 C1604 1.429 . S
C1623 C1617 1.429 . S
C1623 C1624 1.523 . S
C1624 C1605 1.368 . S
C1624 C1618 1.368 . S
C1624 C1623 1.523 . S
C1625 C1609 1.429 . S
C1625 C1621 1.429 . S
C1625 C1626 1.523 . S
C1626 C1610 1.368 . S
C1626 C1622 1.368 . S
C1626 C1625 1.523 . S
H1627 C1602 0.950 . S
H1628 C1604 0.950 . S
H1629 C1605 0.949 . S
H1630 C1607 0.950 . S
H1631 C1609 0.950 . S
C1632 C1633 1.349 . S
C1632 C1634 1.327 . S
C1632 H1657 0.950 . S
C1633 C1632 1.349 . S
C1633 C1649 1.349 . S
C1634 C1632 1.327 . S
C1634 C1653 1.429 . S
C1634 H1658 0.950 . S
C1635 C1652 1.574 . S
C1635 C1654 1.368 . S
C1635 H1659 0.949 . S
H1636 C1640 0.949 . S
C1637 C1638 1.349 . S
C1637 C1639 1.327 . S
C1637 H1660 0.950 . S
C1638 C1637 1.349 . S
C1638 C1650 1.349 . S
C1639 C1637 1.327 . S
C1639 C1655 1.429 . S
C1639 H1661 0.950 . S
C1640 H1636 0.949 . S
C1640 C1648 1.574 . S
C1640 C1656 1.368 . S
H1641 C1649 0.950 . S
H1642 C1647 0.950 . S
H1643 C1648 0.949 . S
H1644 C1650 0.950 . S
H1645 C1651 0.950 . S
H1646 C1652 0.949 . S
C1647 H1642 0.950 . S
C1647 C1649 1.327 . S
C1647 C1653 1.429 . S
C1648 C1640 1.574 . S
C1648 H1643 0.949 . S
C1648 C1654 1.368 . S
C1649 C1633 1.349 . S
C1649 H1641 0.950 . S
C1649 C1647 1.327 . S
C1650 C1638 1.349 . S
C1650 H1644 0.950 . S
C1650 C1651 1.327 . S
C1651 H1645 0.950 . S
C1651 C1650 1.327 . S
C1651 C1655 1.429 . S
C1652 C1635 1.574 . S
C1652 H1646 0.949 . S
C1652 C1656 1.368 . S
C1653 C1634 1.429 . S
C1653 C1647 1.429 . S
C1653 C1654 1.523 . S
C1654 C1635 1.368 . S
C1654 C1648 1.368 . S
C1654 C1653 1.523 . S
C1655 C1639 1.429 . S
C1655 C1651 1.429 . S
C1655 C1656 1.523 . S
C1656 C1640 1.368 . S
C1656 C1652 1.368 . S
C1656 C1655 1.523 . S
H1657 C1632 0.950 . S
H1658 C1634 0.950 . S
H1659 C1635 0.949 . S
H1660 C1637 0.950 . S
H1661 C1639 0.950 . S
C1662 C1663 1.349 . S
C1662 C1664 1.327 . S
C1662 H1687 0.950 . S
C1663 C1662 1.349 . S
C1663 C1679 1.349 . S
C1664 C1662 1.327 . S
C1664 C1683 1.429 . S
C1664 H1688 0.950 . S
C1665 C1682 1.574 . S
C1665 C1684 1.368 . S
C1665 H1689 0.949 . S
H1666 C1670 0.949 . S
C1667 C1668 1.349 . S
C1667 C1669 1.327 . S
C1667 H1690 0.950 . S
C1668 C1667 1.349 . S
C1668 C1680 1.349 . S
C1669 C1667 1.327 . S
C1669 C1685 1.429 . S
C1669 H1691 0.950 . S
C1670 H1666 0.949 . S
C1670 C1678 1.574 . S
C1670 C1686 1.368 . S
H1671 C1679 0.950 . S
H1672 C1677 0.950 . S
H1673 C1678 0.949 . S
H1674 C1680 0.950 . S
H1675 C1681 0.950 . S
H1676 C1682 0.949 . S
C1677 H1672 0.950 . S
C1677 C1679 1.327 . S
C1677 C1683 1.429 . S
C1678 C1670 1.574 . S
C1678 H1673 0.949 . S
C1678 C1684 1.368 . S
C1679 C1663 1.349 . S
C1679 H1671 0.950 . S
C1679 C1677 1.327 . S
C1680 C1668 1.349 . S
C1680 H1674 0.950 . S
C1680 C1681 1.327 . S
C1681 H1675 0.950 . S
C1681 C1680 1.327 . S
C1681 C1685 1.429 . S
C1682 C1665 1.574 . S
C1682 H1676 0.949 . S
C1682 C1686 1.368 . S
C1683 C1664 1.429 . S
C1683 C1677 1.429 . S
C1683 C1684 1.523 . S
C1684 C1665 1.368 . S
C1684 C1678 1.368 . S
C1684 C1683 1.523 . S
C1685 C1669 1.429 . S
C1685 C1681 1.429 . S
C1685 C1686 1.523 . S
C1686 C1670 1.368 . S
C1686 C1682 1.368 . S
C1686 C1685 1.523 . S
H1687 C1662 0.950 . S
H1688 C1664 0.950 . S
H1689 C1665 0.949 . S
H1690 C1667 0.950 . S
H1691 C1669 0.950 . S
C1692 C1693 1.349 . S
C1692 C1694 1.327 . S
C1692 H1717 0.950 . S
C1693 C1692 1.349 . S
C1693 C1709 1.349 . S
C1694 C1692 1.327 . S
C1694 C1713 1.429 . S
C1694 H1718 0.950 . S
C1695 C1712 1.574 . S
C1695 C1714 1.368 . S
C1695 H1719 0.949 . S
H1696 C1700 0.949 . S
C1697 C1698 1.349 . S
C1697 C1699 1.327 . S
C1697 H1720 0.950 . S
C1698 C1697 1.349 . S
C1698 C1710 1.349 . S
C1699 C1697 1.327 . S
C1699 C1715 1.429 . S
C1699 H1721 0.950 . S
C1700 H1696 0.949 . S
C1700 C1708 1.574 . S
C1700 C1716 1.368 . S
H1701 C1709 0.950 . S
H1702 C1707 0.950 . S
H1703 C1708 0.949 . S
H1704 C1710 0.950 . S
H1705 C1711 0.950 . S
H1706 C1712 0.949 . S
C1707 H1702 0.950 . S
C1707 C1709 1.327 . S
C1707 C1713 1.429 . S
C1708 C1700 1.574 . S
C1708 H1703 0.949 . S
C1708 C1714 1.368 . S
C1709 C1693 1.349 . S
C1709 H1701 0.950 . S
C1709 C1707 1.327 . S
C1710 C1698 1.349 . S
C1710 H1704 0.950 . S
C1710 C1711 1.327 . S
C1711 H1705 0.950 . S
C1711 C1710 1.327 . S
C1711 C1715 1.429 . S
C1712 C1695 1.574 . S
C1712 H1706 0.949 . S
C1712 C1716 1.368 . S
C1713 C1694 1.429 . S
C1713 C1707 1.429 . S
C1713 C1714 1.523 . S
C1714 C1695 1.368 . S
C1714 C1708 1.368 . S
C1714 C1713 1.523 . S
C1715 C1699 1.429 . S
C1715 C1711 1.429 . S
C1715 C1716 1.523 . S
C1716 C1700 1.368 . S
C1716 C1712 1.368 . S
C1716 C1715 1.523 . S
H1717 C1692 0.950 . S
H1718 C1694 0.950 . S
H1719 C1695 0.949 . S
H1720 C1697 0.950 . S
H1721 C1699 0.950 . S
C1722 C1723 1.349 . S
C1722 C1724 1.327 . S
C1722 H1747 0.950 . S
C1723 C1722 1.349 . S
C1723 C1739 1.349 . S
C1724 C1722 1.327 . S
C1724 C1743 1.429 . S
C1724 H1748 0.950 . S
C1725 C1742 1.574 . S
C1725 C1744 1.368 . S
C1725 H1749 0.949 . S
H1726 C1730 0.949 . S
C1727 C1728 1.349 . S
C1727 C1729 1.327 . S
C1727 H1750 0.950 . S
C1728 C1727 1.349 . S
C1728 C1740 1.349 . S
C1729 C1727 1.327 . S
C1729 C1745 1.429 . S
C1729 H1751 0.950 . S
C1730 H1726 0.949 . S
C1730 C1738 1.574 . S
C1730 C1746 1.368 . S
H1731 C1739 0.950 . S
H1732 C1737 0.950 . S
H1733 C1738 0.949 . S
H1734 C1740 0.950 . S
H1735 C1741 0.950 . S
H1736 C1742 0.949 . S
C1737 H1732 0.950 . S
C1737 C1739 1.327 . S
C1737 C1743 1.429 . S
C1738 C1730 1.574 . S
C1738 H1733 0.949 . S
C1738 C1744 1.368 . S
C1739 C1723 1.349 . S
C1739 H1731 0.950 . S
C1739 C1737 1.327 . S
C1740 C1728 1.349 . S
C1740 H1734 0.950 . S
C1740 C1741 1.327 . S
C1741 H1735 0.950 . S
C1741 C1740 1.327 . S
C1741 C1745 1.429 . S
C1742 C1725 1.574 . S
C1742 H1736 0.949 . S
C1742 C1746 1.368 . S
C1743 C1724 1.429 . S
C1743 C1737 1.429 . S
C1743 C1744 1.523 . S
C1744 C1725 1.368 . S
C1744 C1738 1.368 . S
C1744 C1743 1.523 . S
C1745 C1729 1.429 . S
C1745 C1741 1.429 . S
C1745 C1746 1.523 . S
C1746 C1730 1.368 . S
C1746 C1742 1.368 . S
C1746 C1745 1.523 . S
H1747 C1722 0.950 . S
H1748 C1724 0.950 . S
H1749 C1725 0.949 . S
H1750 C1727 0.950 . S
H1751 C1729 0.950 . S
C1752 C1753 1.349 . S
C1752 C1754 1.327 . S
C1752 H1777 0.950 . S
C1753 C1752 1.349 . S
C1753 C1769 1.349 . S
C1754 C1752 1.327 . S
C1754 C1773 1.429 . S
C1754 H1778 0.950 . S
C1755 C1772 1.574 . S
C1755 C1774 1.368 . S
C1755 H1779 0.949 . S
H1756 C1760 0.949 . S
C1757 C1758 1.349 . S
C1757 C1759 1.327 . S
C1757 H1780 0.950 . S
C1758 C1757 1.349 . S
C1758 C1770 1.349 . S
C1759 C1757 1.327 . S
C1759 C1775 1.429 . S
C1759 H1781 0.950 . S
C1760 H1756 0.949 . S
C1760 C1768 1.574 . S
C1760 C1776 1.368 . S
H1761 C1769 0.950 . S
H1762 C1767 0.950 . S
H1763 C1768 0.949 . S
H1764 C1770 0.950 . S
H1765 C1771 0.950 . S
H1766 C1772 0.949 . S
C1767 H1762 0.950 . S
C1767 C1769 1.327 . S
C1767 C1773 1.429 . S
C1768 C1760 1.574 . S
C1768 H1763 0.949 . S
C1768 C1774 1.368 . S
C1769 C1753 1.349 . S
C1769 H1761 0.950 . S
C1769 C1767 1.327 . S
C1770 C1758 1.349 . S
C1770 H1764 0.950 . S
C1770 C1771 1.327 . S
C1771 H1765 0.950 . S
C1771 C1770 1.327 . S
C1771 C1775 1.429 . S
C1772 C1755 1.574 . S
C1772 H1766 0.949 . S
C1772 C1776 1.368 . S
C1773 C1754 1.429 . S
C1773 C1767 1.429 . S
C1773 C1774 1.523 . S
C1774 C1755 1.368 . S
C1774 C1768 1.368 . S
C1774 C1773 1.523 . S
C1775 C1759 1.429 . S
C1775 C1771 1.429 . S
C1775 C1776 1.523 . S
C1776 C1760 1.368 . S
C1776 C1772 1.368 . S
C1776 C1775 1.523 . S
H1777 C1752 0.950 . S
H1778 C1754 0.950 . S
H1779 C1755 0.949 . S
H1780 C1757 0.950 . S
H1781 C1759 0.950 . S
C1782 C1783 1.349 . S
C1782 C1784 1.327 . S
C1782 H1807 0.950 . S
C1783 C1782 1.349 . S
C1783 C1799 1.349 . S
C1784 C1782 1.327 . S
C1784 C1803 1.429 . S
C1784 H1808 0.950 . S
C1785 C1802 1.574 . S
C1785 C1804 1.368 . S
C1785 H1809 0.949 . S
H1786 C1790 0.949 . S
C1787 C1788 1.349 . S
C1787 C1789 1.327 . S
C1787 H1810 0.950 . S
C1788 C1787 1.349 . S
C1788 C1800 1.349 . S
C1789 C1787 1.327 . S
C1789 C1805 1.429 . S
C1789 H1811 0.950 . S
C1790 H1786 0.949 . S
C1790 C1798 1.574 . S
C1790 C1806 1.368 . S
H1791 C1799 0.950 . S
H1792 C1797 0.950 . S
H1793 C1798 0.949 . S
H1794 C1800 0.950 . S
H1795 C1801 0.950 . S
H1796 C1802 0.949 . S
C1797 H1792 0.950 . S
C1797 C1799 1.327 . S
C1797 C1803 1.429 . S
C1798 C1790 1.574 . S
C1798 H1793 0.949 . S
C1798 C1804 1.368 . S
C1799 C1783 1.349 . S
C1799 H1791 0.950 . S
C1799 C1797 1.327 . S
C1800 C1788 1.349 . S
C1800 H1794 0.950 . S
C1800 C1801 1.327 . S
C1801 H1795 0.950 . S
C1801 C1800 1.327 . S
C1801 C1805 1.429 . S
C1802 C1785 1.574 . S
C1802 H1796 0.949 . S
C1802 C1806 1.368 . S
C1803 C1784 1.429 . S
C1803 C1797 1.429 . S
C1803 C1804 1.523 . S
C1804 C1785 1.368 . S
C1804 C1798 1.368 . S
C1804 C1803 1.523 . S
C1805 C1789 1.429 . S
C1805 C1801 1.429 . S
C1805 C1806 1.523 . S
C1806 C1790 1.368 . S
C1806 C1802 1.368 . S
C1806 C1805 1.523 . S
H1807 C1782 0.950 . S
H1808 C1784 0.950 . S
H1809 C1785 0.949 . S
H1810 C1787 0.950 . S
H1811 C1789 0.950 . S
C1812 C1813 1.349 . S
C1812 C1814 1.327 . S
C1812 H1837 0.950 . S
C1813 C1812 1.349 . S
C1813 C1829 1.349 . S
C1814 C1812 1.327 . S
C1814 C1833 1.429 . S
C1814 H1838 0.950 . S
C1815 C1832 1.574 . S
C1815 C1834 1.368 . S
C1815 H1839 0.949 . S
H1816 C1820 0.949 . S
C1817 C1818 1.349 . S
C1817 C1819 1.327 . S
C1817 H1840 0.950 . S
C1818 C1817 1.349 . S
C1818 C1830 1.349 . S
C1819 C1817 1.327 . S
C1819 C1835 1.429 . S
C1819 H1841 0.950 . S
C1820 H1816 0.949 . S
C1820 C1828 1.574 . S
C1820 C1836 1.368 . S
H1821 C1829 0.950 . S
H1822 C1827 0.950 . S
H1823 C1828 0.949 . S
H1824 C1830 0.950 . S
H1825 C1831 0.950 . S
H1826 C1832 0.949 . S
C1827 H1822 0.950 . S
C1827 C1829 1.327 . S
C1827 C1833 1.429 . S
C1828 C1820 1.574 . S
C1828 H1823 0.949 . S
C1828 C1834 1.368 . S
C1829 C1813 1.349 . S
C1829 H1821 0.950 . S
C1829 C1827 1.327 . S
C1830 C1818 1.349 . S
C1830 H1824 0.950 . S
C1830 C1831 1.327 . S
C1831 H1825 0.950 . S
C1831 C1830 1.327 . S
C1831 C1835 1.429 . S
C1832 C1815 1.574 . S
C1832 H1826 0.949 . S
C1832 C1836 1.368 . S
C1833 C1814 1.429 . S
C1833 C1827 1.429 . S
C1833 C1834 1.523 . S
C1834 C1815 1.368 . S
C1834 C1828 1.368 . S
C1834 C1833 1.523 . S
C1835 C1819 1.429 . S
C1835 C1831 1.429 . S
C1835 C1836 1.523 . S
C1836 C1820 1.368 . S
C1836 C1832 1.368 . S
C1836 C1835 1.523 . S
H1837 C1812 0.950 . S
H1838 C1814 0.950 . S
H1839 C1815 0.949 . S
H1840 C1817 0.950 . S
H1841 C1819 0.950 . S
C1842 C1843 1.349 . S
C1842 C1844 1.327 . S
C1842 H1867 0.950 . S
C1843 C1842 1.349 . S
C1843 C1859 1.349 . S
C1844 C1842 1.327 . S
C1844 C1863 1.429 . S
C1844 H1868 0.950 . S
C1845 C1862 1.574 . S
C1845 C1864 1.368 . S
C1845 H1869 0.949 . S
H1846 C1850 0.949 . S
C1847 C1848 1.349 . S
C1847 C1849 1.327 . S
C1847 H1870 0.950 . S
C1848 C1847 1.349 . S
C1848 C1860 1.349 . S
C1849 C1847 1.327 . S
C1849 C1865 1.429 . S
C1849 H1871 0.950 . S
C1850 H1846 0.949 . S
C1850 C1858 1.574 . S
C1850 C1866 1.368 . S
H1851 C1859 0.950 . S
H1852 C1857 0.950 . S
H1853 C1858 0.949 . S
H1854 C1860 0.950 . S
H1855 C1861 0.950 . S
H1856 C1862 0.949 . S
C1857 H1852 0.950 . S
C1857 C1859 1.327 . S
C1857 C1863 1.429 . S
C1858 C1850 1.574 . S
C1858 H1853 0.949 . S
C1858 C1864 1.368 . S
C1859 C1843 1.349 . S
C1859 H1851 0.950 . S
C1859 C1857 1.327 . S
C1860 C1848 1.349 . S
C1860 H1854 0.950 . S
C1860 C1861 1.327 . S
C1861 H1855 0.950 . S
C1861 C1860 1.327 . S
C1861 C1865 1.429 . S
C1862 C1845 1.574 . S
C1862 H1856 0.949 . S
C1862 C1866 1.368 . S
C1863 C1844 1.429 . S
C1863 C1857 1.429 . S
C1863 C1864 1.523 . S
C1864 C1845 1.368 . S
C1864 C1858 1.368 . S
C1864 C1863 1.523 . S
C1865 C1849 1.429 . S
C1865 C1861 1.429 . S
C1865 C1866 1.523 . S
C1866 C1850 1.368 . S
C1866 C1862 1.368 . S
C1866 C1865 1.523 . S
H1867 C1842 0.950 . S
H1868 C1844 0.950 . S
H1869 C1845 0.949 . S
H1870 C1847 0.950 . S
H1871 C1849 0.950 . S
C438 C257 0.850 . S
C433 N6 0.825 . S
C468 C262 1.824 . S
C463 C57 1.851 . S
C498 C263 1.254 . S
C493 C61 1.288 . S
C523 N96 0.537 . S
C528 C267 0.452 . S
C553 C136 1.851 . S
C558 C270 1.825 . S
C588 C271 1.254 . S
C583 C160 1.278 . S
C613 N194 0.537 . S
C618 C248 0.451 . S
C643 N224 0.831 . S
C648 C264 0.853 . S
C678 C302 1.738 . S
C673 C10 1.792 . S
C703 N36 0.788 . S
C708 C328 0.789 . S
C738 C280 0.521 . S
C733 N74 0.550 . S
C768 C335 1.220 . S
C763 C100 1.258 . S
C793 C121 1.274 . S
C798 C289 1.235 . S
C828 C331 1.691 . S
C823 C177 1.734 . S
C853 C196 2.155 . S
C858 C295 2.111 . S
C883 C226 1.829 . S
C888 C326 1.794 . S
C913 C27 1.829 . S
C918 C334 1.784 . S
C943 N134 0.788 . S
C948 C321 0.792 . S
C978 C299 0.521 . S
C973 N156 0.542 . S
C1008 C327 1.220 . S
C1003 C181 1.268 . S
C1033 C211 1.796 . S
C1038 C294 1.743 . S
C1063 C76 1.735 . S
C1068 C312 1.691 . S
C1098 C303 2.111 . S
C1093 C117 2.155 . S
C1123 C40 1.274 . S
C1128 C296 1.226 . S
C1153 N216 0.804 . S
C1158 C358 0.811 . S
C1183 C147 1.818 . S
C1188 C353 1.780 . S
C1218 C367 1.214 . S
C1213 C151 1.255 . S
C1248 C344 0.474 . S
C1243 N186 0.522 . S
C1273 C46 1.818 . S
C1278 C360 1.776 . S
C1308 C359 1.214 . S
C1303 C70 1.251 . S
C1333 N104 0.522 . S
C1338 C363 0.474 . S
C1363 N14 0.804 . S
C1368 C366 0.807 . S
C1393 C220 1.790 . S
C1398 C392 1.767 . S
C1428 C408 0.813 . S
C1423 N126 0.809 . S
C1453 N164 0.550 . S
C1458 C390 0.490 . S
C1483 C190 1.293 . S
C1488 C423 1.247 . S
C1518 C399 1.255 . S
C1513 C31 1.283 . S
C1543 C87 1.767 . S
C1548 C417 1.726 . S
C1578 C395 2.117 . S
C1573 C106 2.150 . S
C1608 C430 1.814 . S
C1603 C16 1.856 . S
C1638 C422 1.814 . S
C1633 C237 1.861 . S
C1663 N44 0.807 . S
C1668 C427 0.811 . S
C1693 N66 0.550 . S
C1698 C398 0.499 . S
C1728 C431 1.249 . S
C1723 C91 1.296 . S
C1753 C1 1.789 . S
C1758 C385 1.760 . S
C1783 C166 1.767 . S
C1788 C424 1.722 . S
C1818 C376 2.117 . S
C1813 C207 2.155 . S
C1848 C391 1.255 . S
C1843 C130 1.278 . S
