# Generated by pormake.
# Topology pth, (4,4)-cn, num edge types: 1
# Building blocks:
#     Node 0, Type 0, BuildingBlock: CEKHIL_clean_sbu_0, # of connection points: 4
#     Node 1, Type 0, BuildingBlock: CEKHIL_clean_sbu_0, # of connection points: 4
#     Node 2, Type 0, BuildingBlock: CEKHIL_clean_sbu_0, # of connection points: 4
#     Node 3, Type 1, BuildingBlock: NAWXER_clean_sbu_0, # of connection points: 4
#     Node 4, Type 1, BuildingBlock: NAWXER_clean_sbu_0, # of connection points: 4
#     Node 5, Type 1, BuildingBlock: NAWXER_clean_sbu_0, # of connection points: 4
#     Edge 6, Type (0, 1), BuildingBlock: FUNLAD_clean_linker_0, # of connection points: 2
#     Edge 7, Type (0, 1), BuildingBlock: FUNLAD_clean_linker_0, # of connection points: 2
#     Edge 8, Type (0, 1), BuildingBlock: FUNLAD_clean_linker_0, # of connection points: 2
#     Edge 9, Type (0, 1), BuildingBlock: FUNLAD_clean_linker_0, # of connection points: 2
#     Edge 10, Type (0, 1), BuildingBlock: FUNLAD_clean_linker_0, # of connection points: 2
#     Edge 11, Type (0, 1), BuildingBlock: FUNLAD_clean_linker_0, # of connection points: 2
#     Edge 12, Type (0, 1), BuildingBlock: FUNLAD_clean_linker_0, # of connection points: 2
#     Edge 13, Type (0, 1), BuildingBlock: FUNLAD_clean_linker_0, # of connection points: 2
#     Edge 14, Type (0, 1), BuildingBlock: FUNLAD_clean_linker_0, # of connection points: 2
#     Edge 15, Type (0, 1), BuildingBlock: FUNLAD_clean_linker_0, # of connection points: 2
#     Edge 16, Type (0, 1), BuildingBlock: FUNLAD_clean_linker_0, # of connection points: 2
#     Edge 17, Type (0, 1), BuildingBlock: FUNLAD_clean_linker_0, # of connection points: 2
# Relax obj value: 0.003
# Max RMSD: 0.042
# Mean RMSD: 0.026
data_MOF--net-pth--node1-CEKHIL_clean_sbu_0--node2-NAWXER_clean_sbu_0--edge1-FUNLAD_clean_linker_0
_symmetry_space_group_name_H-M    P1
_symmetry_Int_Tables_number       1
_symmetry_cell_setting            triclinic
loop_
_symmetry_equiv_pos_as_xyz
'x, y, z'
_cell_length_a     26.424643
_cell_length_b     26.510482
_cell_length_c     66.985184
_cell_angle_alpha  91.02481
_cell_angle_beta   89.987163
_cell_angle_gamma 120.32759
loop_
_atom_site_label
_atom_site_type_symbol
_atom_site_fract_x
_atom_site_fract_y
_atom_site_fract_z
_atom_type_partial_charge
Co0 Co 0.0362 0.04734 0.08742 0.0
O1 O 0.00305 0.98414 0.10587 0.0
O2 O 0.08523 0.01227 0.08931 0.0
C3 C 0.02596 0.1112 0.10742 0.0
O4 O 0.08495 0.11212 0.06764 0.0
Co5 Co 0.96115 0.09587 0.07014 0.0
O6 O 0.03634 0.15821 0.05944 0.0
C7 C 0.94207 0.98171 0.05553 0.0
C8 C 0.04732 0.97718 0.10214 0.0
C9 C 0.08194 0.15343 0.05879 0.0
O10 O 0.98836 0.9909 0.06506 0.0
O11 O 0.92156 0.01629 0.05687 0.0
O12 O 0.07063 0.10379 0.1095 0.0
O13 O 0.98689 0.07688 0.09446 0.0
Co14 Co 0.03146 0.06041 0.40242 0.0
O15 O 0.99918 0.09051 0.38351 0.0
O16 O 0.08153 0.14473 0.4006 0.0
C17 C 0.02071 0.98535 0.38272 0.0
O18 O 0.07942 0.04403 0.42267 0.0
Co19 Co 0.95459 0.93603 0.41913 0.0
O20 O 0.02979 0.94859 0.43006 0.0
C21 C 0.9374 0.0323 0.43366 0.0
C22 C 0.04409 0.14179 0.38733 0.0
C23 C 0.07576 0.99901 0.4312 0.0
O24 O 0.9837 0.06961 0.42437 0.0
O25 O 0.91644 0.97701 0.43212 0.0
O26 O 0.06574 0.03745 0.38081 0.0
O27 O 0.98161 0.98137 0.39517 0.0
Co28 Co 0.02469 0.04774 0.73747 0.0
O29 O 0.08503 0.08675 0.71809 0.0
O30 O 0.07313 0.01172 0.73561 0.0
C31 C 0.95078 0.0403 0.71826 0.0
O32 O 0.96471 0.99565 0.75825 0.0
Co33 Co 0.96168 0.11138 0.75397 0.0
O34 O 0.90667 0.03338 0.76465 0.0
C35 C 0.08039 0.14708 0.76874 0.0
C36 C 0.1024 0.05026 0.72206 0.0
C37 C 0.91905 0.99298 0.76638 0.0
O38 O 0.07836 0.10377 0.75901 0.0
O39 O 0.03995 0.16007 0.76753 0.0
O40 O 0.96784 0.00235 0.71636 0.0
O41 O 0.98254 0.08422 0.73012 0.0
C42 C 0.02139 0.60913 0.26989 0.0
C43 C 1.00086 0.47153 0.21639 0.0
O44 O 0.07041 0.61733 0.26321 0.0
Zn45 Zn 0.10247 0.58053 0.2414 0.0
O46 O 0.97366 0.56749 0.26265 0.0
Zn47 Zn 0.00865 0.53817 0.24354 0.0
O48 O 0.04854 0.50398 0.26235 0.0
O49 O 0.14415 0.55257 0.25798 0.0
O50 O 0.95958 0.471 0.22632 0.0
O51 O 0.05432 0.50957 0.22058 0.0
O52 O 0.14415 0.6458 0.22334 0.0
O53 O 0.04823 0.60856 0.223 0.0
C54 C 0.09946 0.51229 0.26665 0.0
C55 C 0.09916 0.64599 0.21661 0.0
C56 C 0.56143 0.99427 0.60414 0.0
C57 C 0.44053 1.00102 0.54972 0.0
O58 O 0.52038 0.95036 0.59479 0.0
Zn59 Zn 0.50036 0.99485 0.57688 0.0
O60 O 0.57465 0.04611 0.59932 0.0
Zn61 Zn 0.54811 0.08885 0.57827 0.0
O62 O 0.52176 0.12931 0.59635 0.0
O63 O 0.46662 0.03326 0.59728 0.0
O64 O 0.47931 0.05168 0.55639 0.0
O65 O 0.43766 0.9558 0.55712 0.0
O66 O 0.57764 0.03547 0.55948 0.0
O67 O 0.61899 0.13139 0.56203 0.0
C68 C 0.47812 0.08401 0.60351 0.0
C69 C 0.61913 0.08652 0.55501 0.0
C70 C 0.44623 0.49892 0.93798 0.0
C71 C 0.57103 0.62223 0.88397 0.0
O72 O 0.44326 0.53967 0.92933 0.0
Zn73 Zn 0.50764 0.56216 0.91079 0.0
O74 O 0.48568 0.48699 0.93267 0.0
Zn75 Zn 0.55545 0.51626 0.91167 0.0
O76 O 0.62525 0.54713 0.92912 0.0
O77 O 0.58358 0.60131 0.9293 0.0
O78 O 0.58444 0.58461 0.8899 0.0
O79 O 0.52844 0.6243 0.89206 0.0
O80 O 0.47651 0.48927 0.89088 0.0
O81 O 0.52895 0.44634 0.89443 0.0
C82 C 0.62482 0.59283 0.93506 0.0
C83 C 0.48738 0.44894 0.88582 0.0
C84 C 0.97731 0.16947 0.11542 0.0
C85 C 0.0174 0.15164 0.12055 0.0
C86 C 0.96775 0.20582 0.12841 0.0
C87 C 0.99737 0.22397 0.14691 0.0
C88 C 0.037 0.20571 0.15205 0.0
C89 C 0.04756 0.17061 0.1389 0.0
C90 C 0.98718 0.26089 0.16139 0.0
C91 C 0.97935 0.30498 0.1558 0.0
C92 C 0.97902 0.3469 0.17067 0.0
C93 C 0.01438 0.40697 0.16748 0.0
C94 C 0.0201 0.4475 0.18222 0.0
C95 C 0.98878 0.42873 0.2001 0.0
H96 H 0.91813 0.2818 0.191 0.0
C97 C 0.95056 0.36876 0.20284 0.0
C98 C 0.94629 0.328 0.18833 0.0
H99 H 0.92625 0.35336 0.21657 0.0
H100 H 0.95328 0.15525 0.1014 0.0
H101 H 0.93626 0.21851 0.12417 0.0
H102 H 0.06023 0.219 0.16624 0.0
H103 H 0.07834 0.15717 0.14334 0.0
H104 H 0.99221 0.25541 0.17719 0.0
H105 H 0.98089 0.315 0.14008 0.0
H106 H 0.03978 0.42249 0.15395 0.0
H107 H 0.04978 0.49361 0.1798 0.0
C108 C 0.86048 0.01314 0.459 0.0
C109 C 0.9069 0.05334 0.44718 0.0
C110 C 0.83158 0.0316 0.47199 0.0
C111 C 0.84834 0.09099 0.47369 0.0
C112 C 0.89361 0.13125 0.46154 0.0
C113 C 0.92305 0.11274 0.44852 0.0
C114 C 0.81703 0.11027 0.4876 0.0
C115 C 0.79691 0.0839 0.50522 0.0
C116 C 0.75497 0.09019 0.51841 0.0
C117 C 0.72394 0.04565 0.53209 0.0
C118 C 0.68085 0.04568 0.544 0.0
C119 C 0.66803 0.09089 0.5429 0.0
H120 H 0.76719 0.17233 0.50745 0.0
C121 C 0.70058 0.13721 0.5299 0.0
C122 C 0.7435 0.13666 0.51756 0.0
H123 H 0.69171 0.17275 0.52884 0.0
H124 H 0.84618 0.96699 0.45832 0.0
H125 H 0.79538 0.99885 0.4805 0.0
H126 H 0.90675 0.17713 0.46232 0.0
H127 H 0.95824 0.14486 0.4395 0.0
H128 H 0.80884 0.14445 0.48286 0.0
H129 H 0.80836 0.05163 0.50966 0.0
H130 H 0.73187 0.00948 0.53323 0.0
H131 H 0.65721 0.00975 0.55407 0.0
C132 C 0.83141 0.94172 0.78835 0.0
C133 C 0.8795 0.94256 0.77895 0.0
C134 C 0.79474 0.89633 0.80083 0.0
C135 C 0.80446 0.84966 0.80416 0.0
C136 C 0.85247 0.85027 0.79479 0.0
C137 C 0.88952 0.89608 0.78227 0.0
C138 C 0.76751 0.8018 0.81815 0.0
C139 C 0.71261 0.78802 0.82342 0.0
C140 C 0.67654 0.74392 0.83862 0.0
C141 C 0.62862 0.74578 0.84696 0.0
C142 C 0.59402 0.70622 0.86156 0.0
C143 C 0.60629 0.66344 0.86809 0.0
H144 H 0.72333 0.69591 0.83856 0.0
C145 C 0.65349 0.66075 0.85947 0.0
C146 C 0.68812 0.70033 0.8449 0.0
H147 H 0.66396 0.62803 0.86401 0.0
H148 H 0.82232 0.97686 0.78638 0.0
H149 H 0.75996 0.89931 0.80822 0.0
H150 H 0.86152 0.81527 0.79723 0.0
H151 H 0.9262 0.8953 0.77537 0.0
H152 H 0.78716 0.77823 0.82445 0.0
H153 H 0.693 0.81116 0.81675 0.0
H154 H 0.61828 0.77855 0.84235 0.0
H155 H 0.55794 0.70948 0.86781 0.0
C156 C 0.10831 0.9354 0.11462 0.0
C157 C 0.05356 0.93163 0.11241 0.0
C158 C 0.11353 0.89382 0.12577 0.0
C159 C 0.06378 0.84736 0.13459 0.0
C160 C 0.00903 0.84281 0.1317 0.0
C161 C 0.00403 0.88467 0.12095 0.0
C162 C 0.06599 0.80245 0.14697 0.0
C163 C 0.11269 0.81159 0.15803 0.0
C164 C 0.10912 0.76835 0.1728 0.0
C165 C 0.16003 0.7677 0.17851 0.0
C166 C 0.15746 0.72813 0.19272 0.0
C167 C 0.10387 0.68874 0.20161 0.0
H168 H 0.01609 0.73028 0.17894 0.0
C169 C 0.05333 0.6903 0.19612 0.0
C170 C 0.05593 0.72966 0.18207 0.0
H171 H 0.01138 0.66136 0.20284 0.0
H172 H 0.1472 0.97116 0.10815 0.0
H173 H 0.15625 0.898 0.12733 0.0
H174 H 0.96991 0.80734 0.13819 0.0
H175 H 0.96117 0.88028 0.1194 0.0
H176 H 0.0253 0.76098 0.14797 0.0
H177 H 0.15407 0.85232 0.15684 0.0
H178 H 0.20181 0.79764 0.17188 0.0
H179 H 0.19728 0.72833 0.1967 0.0
C180 C 0.11901 0.95817 0.45483 0.0
C181 C 0.12558 0.00545 0.44357 0.0
C182 C 0.16439 0.96373 0.46708 0.0
C183 C 0.21826 0.01668 0.46828 0.0
C184 C 0.22495 0.06394 0.457 0.0
C185 C 0.17926 0.05845 0.44477 0.0
C186 C 0.267 0.0253 0.48188 0.0
C187 C 0.27135 0.98103 0.48984 0.0
C188 C 0.3172 0.98826 0.50461 0.0
C189 C 0.3165 0.93786 0.51132 0.0
C190 C 0.35668 0.9417 0.52577 0.0
C191 C 0.39884 0.99621 0.53389 0.0
H192 H 0.36261 0.08317 0.50827 0.0
C193 C 0.40019 0.04674 0.52703 0.0
C194 C 0.35994 0.04293 0.51266 0.0
H195 H 0.432 0.08955 0.53296 0.0
H196 H 0.07817 0.91675 0.45451 0.0
H197 H 0.156 0.92663 0.47592 0.0
H198 H 0.26565 0.10549 0.45771 0.0
H199 H 0.18594 0.09584 0.43638 0.0
H200 H 0.30024 0.07017 0.48522 0.0
H201 H 0.23959 0.93643 0.48542 0.0
H202 H 0.28423 0.89505 0.5055 0.0
H203 H 0.35437 0.90188 0.53068 0.0
C204 C 0.17825 0.17276 0.78399 0.0
C205 C 0.13109 0.18309 0.78235 0.0
C206 C 0.22564 0.20707 0.79696 0.0
C207 C 0.22664 0.25232 0.80862 0.0
C208 C 0.17946 0.26233 0.80693 0.0
C209 C 0.13243 0.22831 0.79403 0.0
C210 C 0.27628 0.29211 0.82215 0.0
C211 C 0.32082 0.28437 0.82798 0.0
C212 C 0.36854 0.32757 0.84151 0.0
C213 C 0.39631 0.30917 0.8551 0.0
C214 C 0.43744 0.34885 0.86911 0.0
C215 C 0.45114 0.40743 0.86968 0.0
H216 H 0.36807 0.40389 0.83039 0.0
C217 C 0.4261 0.42631 0.85527 0.0
C218 C 0.38594 0.38719 0.84126 0.0
H219 H 0.43692 0.47154 0.855 0.0
H220 H 0.17882 0.13841 0.77517 0.0
H221 H 0.26144 0.19841 0.7975 0.0
H222 H 0.17893 0.29694 0.81561 0.0
H223 H 0.09706 0.23769 0.79327 0.0
H224 H 0.27479 0.32969 0.82813 0.0
H225 H 0.32109 0.24483 0.82375 0.0
H226 H 0.38457 0.26369 0.85538 0.0
H227 H 0.45638 0.33324 0.87999 0.0
C228 C 0.86604 0.98565 0.69452 0.0
C229 C 0.89976 0.03453 0.70709 0.0
C230 C 0.81982 0.98175 0.68307 0.0
C231 C 0.80634 0.02679 0.68399 0.0
C232 C 0.8397 0.07517 0.69679 0.0
C233 C 0.88565 0.0789 0.70828 0.0
C234 C 0.76095 0.02736 0.67098 0.0
C235 C 0.71562 0.97944 0.66225 0.0
C236 C 0.67253 0.98198 0.64848 0.0
C237 C 0.63927 0.93479 0.63517 0.0
C238 C 0.60119 0.93732 0.62116 0.0
C239 C 0.59589 0.98732 0.62016 0.0
H240 H 0.68642 0.06667 0.65865 0.0
C241 C 0.62702 0.03327 0.63404 0.0
C242 C 0.6643 0.03046 0.64814 0.0
H243 H 0.62293 0.07193 0.63393 0.0
H244 H 0.87604 0.95082 0.69323 0.0
H245 H 0.79633 0.9444 0.67308 0.0
H246 H 0.83059 0.11067 0.69774 0.0
H247 H 0.91082 0.11715 0.71781 0.0
H248 H 0.76629 0.07004 0.66844 0.0
H249 H 0.71057 0.93678 0.6647 0.0
H250 H 0.64393 0.89647 0.63524 0.0
H251 H 0.57762 0.90115 0.61068 0.0
C252 C 0.86517 0.92244 0.02969 0.0
C253 C 0.91102 0.9292 0.04218 0.0
C254 C 0.83559 0.87358 0.01704 0.0
C255 C 0.85112 0.83002 0.01642 0.0
C256 C 0.89594 0.83582 0.02921 0.0
C257 C 0.92601 0.88518 0.04185 0.0
C258 C 0.81923 0.77759 1.00301 0.0
C259 C 0.79877 0.78136 0.985 0.0
C260 C 0.75777 0.73107 0.97193 0.0
C261 C 0.72691 0.74212 0.95729 0.0
C262 C 0.68485 0.69705 0.9453 0.0
C263 C 0.67284 0.63941 0.94733 0.0
H264 H 0.77082 0.6634 0.98459 0.0
C265 C 0.70524 0.62807 0.96135 0.0
C266 C 0.74719 0.67355 0.97373 0.0
H267 H 0.697 0.58403 0.96314 0.0
H268 H 0.85186 0.95495 0.02963 0.0
H269 H 0.79978 0.86964 0.00799 0.0
H270 H 0.90817 0.80249 0.02925 0.0
H271 H 0.9607 0.88862 0.05141 0.0
H272 H 0.81151 0.73591 0.00834 0.0
H273 H 0.80967 0.82442 0.97995 0.0
H274 H 0.73421 0.78582 0.9554 0.0
H275 H 0.66133 0.70752 0.93444 0.0
C276 C 0.05635 0.94147 0.35696 0.0
C277 C 0.01401 0.93439 0.37104 0.0
C278 C 0.04919 0.89398 0.34532 0.0
C279 C 0.99967 0.83799 0.34764 0.0
C280 C 0.95726 0.83108 0.36169 0.0
C281 C 0.96443 0.87868 0.37333 0.0
C282 C 0.98988 0.78676 0.33508 0.0
C283 C 0.03422 0.78271 0.32679 0.0
C284 C 0.02714 0.73414 0.3133 0.0
C285 C 0.07753 0.73152 0.30862 0.0
C286 C 0.075 0.69003 0.29495 0.0
C287 C 0.02184 0.64975 0.2855 0.0
H288 H 0.93357 0.69382 0.30703 0.0
C289 C 0.97082 0.65106 0.29048 0.0
C290 C 0.9734 0.69301 0.30418 0.0
H291 H 0.92925 0.6208 0.28338 0.0
H292 H 0.09471 0.98398 0.35467 0.0
H293 H 0.08194 0.90189 0.33419 0.0
H294 H 0.91844 0.78869 0.36367 0.0
H295 H 0.93087 0.8719 0.384 0.0
H296 H 0.94508 0.75112 0.33322 0.0
H297 H 0.07896 0.81663 0.33025 0.0
H298 H 0.11954 0.76245 0.31534 0.0
H299 H 0.11518 0.6902 0.29158 0.0
C300 C 0.18122 0.09578 0.69665 0.0
C301 C 0.15228 0.0527 0.71106 0.0
C302 C 0.22622 0.09742 0.68525 0.0
C303 C 0.24406 0.0562 0.68806 0.0
C304 C 0.21558 0.01349 0.70266 0.0
C305 C 0.17028 0.01182 0.7141 0.0
C306 C 0.28871 0.05371 0.67507 0.0
C307 C 0.32733 0.09842 0.66375 0.0
C308 C 0.36708 0.09371 0.64896 0.0
C309 C 0.41554 0.14504 0.64185 0.0
C310 C 0.45197 0.14241 0.62713 0.0
C311 C 0.44042 0.08825 0.61911 0.0
H312 H 0.31777 0.99901 0.64525 0.0
C313 C 0.39186 0.03698 0.6262 0.0
C314 C 0.35556 0.03959 0.64083 0.0
H315 H 0.38126 0.99441 0.62029 0.0
H316 H 0.16832 0.12785 0.69381 0.0
H317 H 0.24525 0.12999 0.67383 0.0
H318 H 0.22791 0.98079 0.70506 0.0
H319 H 0.14878 0.978 0.72505 0.0
H320 H 0.28931 0.01308 0.6749 0.0
H321 H 0.33056 0.14075 0.6653 0.0
H322 H 0.42517 0.18743 0.64764 0.0
H323 H 0.48893 0.18274 0.62202 0.0
C324 C 0.12669 0.2376 0.03532 0.0
C325 C 0.13176 0.19567 0.0464 0.0
C326 C 0.17151 0.27535 0.02268 0.0
C327 C 0.22323 0.27275 0.02087 0.0
C328 C 0.2286 0.23129 0.03211 0.0
C329 C 0.18356 0.1933 0.04474 0.0
C330 C 0.27077 0.3098 1.00665 0.0
C331 C 0.27774 0.35949 0.9987 0.0
C332 C 0.32276 0.39524 0.9835 0.0
C333 C 0.31978 0.44138 0.97458 0.0
C334 C 0.35987 0.4754 0.95993 0.0
C335 C 0.40422 0.46425 0.95385 0.0
H336 H 0.37313 0.35068 0.98405 0.0
C337 C 0.40785 0.41872 0.96294 0.0
C338 C 0.36786 0.38474 0.97757 0.0
H339 H 0.44161 0.40898 0.95871 0.0
H340 H 0.08734 0.2406 0.03602 0.0
H341 H 0.16421 0.30503 0.01396 0.0
H342 H 0.26766 0.22785 0.03097 0.0
H343 H 0.18908 0.16159 0.05299 0.0
H344 H 0.30054 0.29452 1.00267 0.0
H345 H 0.24861 0.37512 1.00328 0.0
H346 H 0.28586 0.45092 0.97881 0.0
H347 H 0.35581 0.51018 0.9533 0.0
C348 C 0.10769 0.24197 0.37318 0.0
C349 C 0.05183 0.19332 0.37647 0.0
C350 C 0.11408 0.28767 0.36112 0.0
C351 C 0.06446 0.2857 0.35251 0.0
C352 C 0.00875 0.2381 0.35656 0.0
C353 C 0.00253 0.1922 0.36816 0.0
C354 C 0.06779 0.33163 0.33922 0.0
C355 C 0.11289 0.36411 0.32696 0.0
C356 C 0.10959 0.40236 0.3115 0.0
C357 C 0.16123 0.45021 0.30424 0.0
C358 C 0.15869 0.48609 0.28953 0.0
C359 C 0.10434 0.47447 0.28173 0.0
H360 H 0.01479 0.35214 0.30748 0.0
C361 C 0.053 0.42574 0.28867 0.0
C362 C 0.05553 0.39004 0.30318 0.0
H363 H 0.01034 0.41464 0.28278 0.0
H364 H 0.14645 0.24387 0.37941 0.0
H365 H 0.15761 0.32431 0.35866 0.0
H366 H 0.96974 0.23558 0.35026 0.0
H367 H 0.95889 0.15547 0.37053 0.0
H368 H 0.02889 0.33558 0.3386 0.0
H369 H 0.15253 0.36149 0.32775 0.0
H370 H 0.20358 0.46019 0.31009 0.0
H371 H 0.1991 0.52308 0.28443 0.0
loop_
_geom_bond_atom_site_label_1
_geom_bond_atom_site_label_2
_geom_bond_distance
_geom_bond_site_symmetry_2
_ccdc_geom_bond_type
Co0 O1 2.216 1_445 S
Co0 O2 2.091 1_545 S
Co0 O4 2.004 . S
Co0 O10 2.021 1_445 S
Co0 O12 2.137 . S
Co0 O13 2.244 1_455 S
O1 Co0 2.216 1_665 S
O1 C8 1.247 1_655 S
O2 Co0 2.091 1_565 S
O2 C8 1.261 . S
C3 O12 1.247 . S
C3 O13 1.272 1_455 S
O4 Co0 2.004 . S
O4 C9 1.259 . S
Co5 O6 2.061 1_655 S
Co5 O11 2.052 . S
Co5 O13 2.135 . S
O6 Co5 2.061 1_455 S
O6 C9 1.235 . S
C7 O10 1.238 . S
C7 O11 1.241 1_565 S
C8 O1 1.247 1_455 S
C8 O2 1.261 . S
C9 O4 1.259 . S
C9 O6 1.235 . S
O10 Co0 2.021 1_665 S
O10 C7 1.238 . S
O11 Co5 2.052 . S
O11 C7 1.241 1_545 S
O12 Co0 2.137 . S
O12 C3 1.247 . S
O13 Co0 2.244 1_655 S
O13 C3 1.272 1_655 S
O13 Co5 2.135 . S
Co14 O15 2.216 . S
Co14 O16 2.091 . S
Co14 O18 2.004 . S
Co14 O24 2.021 . S
Co14 O26 2.137 . S
Co14 O27 2.244 1_545 S
O15 Co14 2.216 . S
O15 C22 1.247 . S
O16 Co14 2.091 . S
O16 C22 1.261 . S
C17 O26 1.247 1_565 S
C17 O27 1.272 . S
O18 Co14 2.004 . S
O18 C23 1.259 . S
Co19 O20 2.061 1_665 S
Co19 O25 2.052 . S
Co19 O27 2.135 1_655 S
O20 Co19 2.061 1_445 S
O20 C23 1.235 . S
C21 O24 1.238 1_655 S
C21 O25 1.241 1_545 S
C22 O15 1.247 . S
C22 O16 1.261 . S
C23 O18 1.259 . S
C23 O20 1.235 . S
O24 Co14 2.021 . S
O24 C21 1.238 1_455 S
O25 Co19 2.052 . S
O25 C21 1.241 1_565 S
O26 Co14 2.137 . S
O26 C17 1.247 1_545 S
O27 Co14 2.244 1_565 S
O27 C17 1.272 . S
O27 Co19 2.135 1_455 S
Co28 O29 2.216 . S
Co28 O30 2.091 1_545 S
Co28 O32 2.004 1_445 S
Co28 O38 2.021 . S
Co28 O40 2.137 1_455 S
Co28 O41 2.244 1_455 S
O29 Co28 2.216 . S
O29 C36 1.247 . S
O30 Co28 2.091 1_565 S
O30 C36 1.261 1_565 S
C31 O40 1.249 . S
C31 O41 1.272 . S
O32 Co28 2.004 1_665 S
O32 C37 1.259 . S
Co33 O34 2.061 . S
Co33 O39 2.052 1_655 S
Co33 O41 2.135 . S
O34 Co33 2.061 . S
O34 C37 1.235 1_545 S
C35 O38 1.238 . S
C35 O39 1.241 . S
C36 O29 1.247 . S
C36 O30 1.261 1_545 S
C37 O32 1.259 . S
C37 O34 1.235 1_565 S
O38 Co28 2.021 . S
O38 C35 1.238 . S
O39 Co33 2.052 1_455 S
O39 C35 1.241 . S
O40 Co28 2.137 1_655 S
O40 C31 1.249 . S
O41 Co28 2.244 1_655 S
O41 C31 1.272 . S
O41 Co33 2.135 . S
C42 O44 1.247 . S
C42 O46 1.258 1_455 S
C43 O50 1.247 1_455 S
C43 O51 1.258 . S
O44 C42 1.247 . S
O44 Zn45 2.028 . S
Zn45 O44 2.028 . S
Zn45 O49 2.035 . S
Zn45 O51 2.035 . S
Zn45 O52 2.028 . S
O46 C42 1.258 1_655 S
O46 Zn47 2.035 . S
Zn47 O46 2.035 . S
Zn47 O48 2.028 . S
Zn47 O50 2.028 . S
Zn47 O53 2.035 . S
O48 Zn47 2.028 . S
O48 C54 1.247 1_655 S
O49 Zn45 2.035 . S
O49 C54 1.258 . S
O50 C43 1.247 1_655 S
O50 Zn47 2.028 . S
O51 C43 1.258 . S
O51 Zn45 2.035 . S
O52 Zn45 2.028 . S
O52 C55 1.247 . S
O53 Zn47 2.035 . S
O53 C55 1.258 1_655 S
C54 O48 1.247 1_455 S
C54 O49 1.258 . S
C55 O52 1.247 . S
C55 O53 1.258 1_455 S
C56 O58 1.247 1_545 S
C56 O60 1.258 . S
C57 O64 1.247 . S
C57 O65 1.258 1_545 S
O58 C56 1.247 1_565 S
O58 Zn59 2.028 . S
Zn59 O58 2.028 . S
Zn59 O63 2.035 . S
Zn59 O65 2.035 . S
Zn59 O66 2.028 . S
O60 C56 1.258 . S
O60 Zn61 2.035 . S
Zn61 O60 2.035 . S
Zn61 O62 2.028 . S
Zn61 O64 2.028 . S
Zn61 O67 2.035 . S
O62 Zn61 2.028 . S
O62 C68 1.247 . S
O63 Zn59 2.035 . S
O63 C68 1.258 1_565 S
O64 C57 1.247 . S
O64 Zn61 2.028 . S
O65 C57 1.258 1_565 S
O65 Zn59 2.035 . S
O66 Zn59 2.028 . S
O66 C69 1.247 1_565 S
O67 Zn61 2.035 . S
O67 C69 1.258 . S
C68 O62 1.247 . S
C68 O63 1.258 1_545 S
C69 O66 1.247 1_545 S
C69 O67 1.258 . S
C70 O72 1.247 . S
C70 O74 1.258 . S
C71 O78 1.247 . S
C71 O79 1.258 . S
O72 C70 1.247 . S
O72 Zn73 2.028 . S
Zn73 O72 2.028 . S
Zn73 O77 2.035 . S
Zn73 O79 2.035 . S
Zn73 O80 2.028 . S
O74 C70 1.258 . S
O74 Zn75 2.035 . S
Zn75 O74 2.035 . S
Zn75 O76 2.028 . S
Zn75 O78 2.028 . S
Zn75 O81 2.035 . S
O76 Zn75 2.028 . S
O76 C82 1.247 . S
O77 Zn73 2.035 . S
O77 C82 1.258 . S
O78 C71 1.247 . S
O78 Zn75 2.028 . S
O79 C71 1.258 . S
O79 Zn73 2.035 . S
O80 Zn73 2.028 . S
O80 C83 1.247 . S
O81 Zn75 2.035 . S
O81 C83 1.258 . S
C82 O76 1.247 . S
C82 O77 1.258 . S
C83 O80 1.247 . S
C83 O81 1.258 . S
C84 C85 1.386 . S
C84 C86 1.383 . S
C84 H100 0.951 . S
C85 C84 1.386 . S
C85 C89 1.383 1_455 S
C86 C84 1.383 . S
C86 C87 1.402 . S
C86 H101 0.951 . S
C87 C86 1.402 . S
C87 C88 1.375 1_455 S
C87 C90 1.481 1_455 S
C88 C87 1.375 1_655 S
C88 C89 1.367 . S
C88 H102 0.951 . S
C89 C85 1.383 1_655 S
C89 C88 1.367 . S
C89 H103 0.950 . S
C90 C87 1.481 1_655 S
C90 C91 1.297 1_655 S
C90 H104 0.950 . S
C91 C90 1.297 1_455 S
C91 C92 1.479 . S
C91 H105 0.950 . S
C92 C91 1.479 . S
C92 C93 1.375 . S
C92 C98 1.404 1_455 S
C93 C92 1.375 . S
C93 C94 1.369 . S
C93 H106 0.950 . S
C94 C93 1.369 . S
C94 C95 1.392 . S
C94 H107 0.951 . S
C95 C94 1.392 . S
C95 C97 1.384 1_455 S
H96 C98 0.949 . S
C97 C95 1.384 1_655 S
C97 C98 1.385 . S
C97 H99 0.950 . S
C98 C92 1.404 1_655 S
C98 H96 0.949 . S
C98 C97 1.385 . S
H99 C97 0.950 . S
H100 C84 0.951 . S
H101 C86 0.951 . S
H102 C88 0.951 . S
H103 C89 0.950 . S
H104 C90 0.950 . S
H105 C91 0.950 . S
H106 C93 0.950 . S
H107 C94 0.951 . S
C108 C109 1.386 . S
C108 C110 1.383 . S
C108 H124 0.951 1_545 S
C109 C108 1.386 . S
C109 C113 1.383 . S
C110 C108 1.383 . S
C110 C111 1.402 . S
C110 H125 0.951 1_545 S
C111 C110 1.402 . S
C111 C112 1.375 . S
C111 C114 1.481 . S
C112 C111 1.375 . S
C112 C113 1.367 . S
C112 H126 0.951 . S
C113 C109 1.383 . S
C113 C112 1.367 . S
C113 H127 0.950 . S
C114 C111 1.481 . S
C114 C115 1.297 . S
C114 H128 0.950 . S
C115 C114 1.297 . S
C115 C116 1.479 . S
C115 H129 0.950 . S
C116 C115 1.479 . S
C116 C117 1.375 . S
C116 C122 1.404 . S
C117 C116 1.375 . S
C117 C118 1.369 . S
C117 H130 0.950 1_545 S
C118 C117 1.369 . S
C118 C119 1.392 . S
C118 H131 0.951 1_545 S
C119 C118 1.392 . S
C119 C121 1.384 . S
H120 C122 0.949 . S
C121 C119 1.384 . S
C121 C122 1.385 . S
C121 H123 0.950 . S
C122 C116 1.404 . S
C122 H120 0.949 . S
C122 C121 1.385 . S
H123 C121 0.950 . S
H124 C108 0.951 1_565 S
H125 C110 0.951 1_565 S
H126 C112 0.951 . S
H127 C113 0.950 . S
H128 C114 0.950 . S
H129 C115 0.950 . S
H130 C117 0.950 1_565 S
H131 C118 0.951 1_565 S
C132 C133 1.386 . S
C132 C134 1.383 . S
C132 H148 0.951 . S
C133 C132 1.386 . S
C133 C137 1.383 . S
C134 C132 1.383 . S
C134 C135 1.402 . S
C134 H149 0.951 . S
C135 C134 1.402 . S
C135 C136 1.375 . S
C135 C138 1.481 . S
C136 C135 1.375 . S
C136 C137 1.367 . S
C136 H150 0.951 . S
C137 C133 1.383 . S
C137 C136 1.367 . S
C137 H151 0.950 . S
C138 C135 1.481 . S
C138 C139 1.297 . S
C138 H152 0.950 . S
C139 C138 1.297 . S
C139 C140 1.479 . S
C139 H153 0.950 . S
C140 C139 1.479 . S
C140 C141 1.375 . S
C140 C146 1.404 . S
C141 C140 1.375 . S
C141 C142 1.369 . S
C141 H154 0.950 . S
C142 C141 1.369 . S
C142 C143 1.392 . S
C142 H155 0.951 . S
C143 C142 1.392 . S
C143 C145 1.384 . S
H144 C146 0.949 . S
C145 C143 1.384 . S
C145 C146 1.385 . S
C145 H147 0.950 . S
C146 C140 1.404 . S
C146 H144 0.949 . S
C146 C145 1.385 . S
H147 C145 0.950 . S
H148 C132 0.951 . S
H149 C134 0.951 . S
H150 C136 0.951 . S
H151 C137 0.950 . S
H152 C138 0.950 . S
H153 C139 0.950 . S
H154 C141 0.950 . S
H155 C142 0.951 . S
C156 C157 1.386 . S
C156 C158 1.383 . S
C156 H172 0.951 . S
C157 C156 1.386 . S
C157 C161 1.383 1_455 S
C158 C156 1.383 . S
C158 C159 1.402 . S
C158 H173 0.951 . S
C159 C158 1.402 . S
C159 C160 1.375 1_455 S
C159 C162 1.481 . S
C160 C159 1.375 1_655 S
C160 C161 1.367 . S
C160 H174 0.951 . S
C161 C157 1.383 1_655 S
C161 C160 1.367 . S
C161 H175 0.950 . S
C162 C159 1.481 . S
C162 C163 1.297 . S
C162 H176 0.950 1_455 S
C163 C162 1.297 . S
C163 C164 1.479 . S
C163 H177 0.950 . S
C164 C163 1.479 . S
C164 C165 1.375 . S
C164 C170 1.404 1_455 S
C165 C164 1.375 . S
C165 C166 1.369 . S
C165 H178 0.950 . S
C166 C165 1.369 . S
C166 C167 1.392 . S
C166 H179 0.951 . S
C167 C166 1.392 . S
C167 C169 1.384 1_455 S
H168 C170 0.949 . S
C169 C167 1.384 1_655 S
C169 C170 1.385 . S
C169 H171 0.950 . S
C170 C164 1.404 1_655 S
C170 H168 0.949 . S
C170 C169 1.385 . S
H171 C169 0.950 . S
H172 C156 0.951 . S
H173 C158 0.951 . S
H174 C160 0.951 . S
H175 C161 0.950 . S
H176 C162 0.950 1_655 S
H177 C163 0.950 . S
H178 C165 0.950 . S
H179 C166 0.951 . S
C180 C181 1.386 . S
C180 C182 1.383 . S
C180 H196 0.951 . S
C181 C180 1.386 . S
C181 C185 1.383 . S
C182 C180 1.383 . S
C182 C183 1.402 . S
C182 H197 0.951 . S
C183 C182 1.402 . S
C183 C184 1.375 . S
C183 C186 1.481 . S
C184 C183 1.375 . S
C184 C185 1.367 . S
C184 H198 0.951 . S
C185 C181 1.383 . S
C185 C184 1.367 . S
C185 H199 0.950 . S
C186 C183 1.481 . S
C186 C187 1.297 . S
C186 H200 0.950 . S
C187 C186 1.297 . S
C187 C188 1.479 . S
C187 H201 0.950 . S
C188 C187 1.479 . S
C188 C189 1.375 . S
C188 C194 1.404 . S
C189 C188 1.375 . S
C189 C190 1.369 . S
C189 H202 0.950 . S
C190 C189 1.369 . S
C190 C191 1.392 . S
C190 H203 0.951 . S
C191 C190 1.392 . S
C191 C193 1.384 . S
H192 C194 0.949 . S
C193 C191 1.384 . S
C193 C194 1.385 . S
C193 H195 0.950 . S
C194 C188 1.404 . S
C194 H192 0.949 . S
C194 C193 1.385 . S
H195 C193 0.950 . S
H196 C180 0.951 . S
H197 C182 0.951 . S
H198 C184 0.951 . S
H199 C185 0.950 . S
H200 C186 0.950 . S
H201 C187 0.950 . S
H202 C189 0.950 . S
H203 C190 0.951 . S
C204 C205 1.386 . S
C204 C206 1.383 . S
C204 H220 0.951 . S
C205 C204 1.386 . S
C205 C209 1.383 . S
C206 C204 1.383 . S
C206 C207 1.402 . S
C206 H221 0.951 . S
C207 C206 1.402 . S
C207 C208 1.375 . S
C207 C210 1.481 . S
C208 C207 1.375 . S
C208 C209 1.367 . S
C208 H222 0.951 . S
C209 C205 1.383 . S
C209 C208 1.367 . S
C209 H223 0.950 . S
C210 C207 1.481 . S
C210 C211 1.297 . S
C210 H224 0.950 . S
C211 C210 1.297 . S
C211 C212 1.479 . S
C211 H225 0.950 . S
C212 C211 1.479 . S
C212 C213 1.375 . S
C212 C218 1.404 . S
C213 C212 1.375 . S
C213 C214 1.369 . S
C213 H226 0.950 . S
C214 C213 1.369 . S
C214 C215 1.392 . S
C214 H227 0.951 . S
C215 C214 1.392 . S
C215 C217 1.384 . S
H216 C218 0.949 . S
C217 C215 1.384 . S
C217 C218 1.385 . S
C217 H219 0.950 . S
C218 C212 1.404 . S
C218 H216 0.949 . S
C218 C217 1.385 . S
H219 C217 0.950 . S
H220 C204 0.951 . S
H221 C206 0.951 . S
H222 C208 0.951 . S
H223 C209 0.950 . S
H224 C210 0.950 . S
H225 C211 0.950 . S
H226 C213 0.950 . S
H227 C214 0.951 . S
C228 C229 1.386 1_565 S
C228 C230 1.383 1_565 S
C228 H244 0.951 . S
C229 C228 1.386 1_545 S
C229 C233 1.383 . S
C230 C228 1.383 1_545 S
C230 C231 1.402 . S
C230 H245 0.951 1_545 S
C231 C230 1.402 . S
C231 C232 1.375 . S
C231 C234 1.481 . S
C232 C231 1.375 . S
C232 C233 1.367 . S
C232 H246 0.951 . S
C233 C229 1.383 . S
C233 C232 1.367 . S
C233 H247 0.950 . S
C234 C231 1.481 . S
C234 C235 1.297 . S
C234 H248 0.950 . S
C235 C234 1.297 . S
C235 C236 1.479 . S
C235 H249 0.950 1_545 S
C236 C235 1.479 . S
C236 C237 1.375 1_545 S
C236 C242 1.404 . S
C237 C236 1.375 1_565 S
C237 C238 1.369 . S
C237 H250 0.950 . S
C238 C237 1.369 . S
C238 C239 1.392 1_565 S
C238 H251 0.951 . S
C239 C238 1.392 1_545 S
C239 C241 1.384 . S
H240 C242 0.949 . S
C241 C239 1.384 . S
C241 C242 1.385 . S
C241 H243 0.950 . S
C242 C236 1.404 . S
C242 H240 0.949 . S
C242 C241 1.385 . S
H243 C241 0.950 . S
H244 C228 0.951 . S
H245 C230 0.951 1_565 S
H246 C232 0.951 . S
H247 C233 0.950 . S
H248 C234 0.950 . S
H249 C235 0.950 1_565 S
H250 C237 0.950 . S
H251 C238 0.951 . S
C252 C253 1.386 . S
C252 C254 1.383 . S
C252 H268 0.951 . S
C253 C252 1.386 . S
C253 C257 1.383 . S
C254 C252 1.383 . S
C254 C255 1.402 . S
C254 H269 0.951 1_554 S
C255 C254 1.402 . S
C255 C256 1.375 . S
C255 C258 1.481 1_554 S
C256 C255 1.375 . S
C256 C257 1.367 . S
C256 H270 0.951 . S
C257 C253 1.383 . S
C257 C256 1.367 . S
C257 H271 0.950 . S
C258 C255 1.481 1_556 S
C258 C259 1.297 . S
C258 H272 0.950 . S
C259 C258 1.297 . S
C259 C260 1.479 . S
C259 H273 0.950 . S
C260 C259 1.479 . S
C260 C261 1.375 . S
C260 C266 1.404 . S
C261 C260 1.375 . S
C261 C262 1.369 . S
C261 H274 0.950 . S
C262 C261 1.369 . S
C262 C263 1.392 . S
C262 H275 0.951 . S
C263 C262 1.392 . S
C263 C265 1.384 . S
H264 C266 0.949 . S
C265 C263 1.384 . S
C265 C266 1.385 . S
C265 H267 0.950 . S
C266 C260 1.404 . S
C266 H264 0.949 . S
C266 C265 1.385 . S
H267 C265 0.950 . S
H268 C252 0.951 . S
H269 C254 0.951 1_556 S
H270 C256 0.951 . S
H271 C257 0.950 . S
H272 C258 0.950 . S
H273 C259 0.950 . S
H274 C261 0.950 . S
H275 C262 0.951 . S
C276 C277 1.386 . S
C276 C278 1.383 . S
C276 H292 0.951 . S
C277 C276 1.386 . S
C277 C281 1.383 . S
C278 C276 1.383 . S
C278 C279 1.402 . S
C278 H293 0.951 . S
C279 C278 1.402 . S
C279 C280 1.375 . S
C279 C282 1.481 . S
C280 C279 1.375 . S
C280 C281 1.367 . S
C280 H294 0.951 1_455 S
C281 C277 1.383 . S
C281 C280 1.367 . S
C281 H295 0.950 1_455 S
C282 C279 1.481 . S
C282 C283 1.297 . S
C282 H296 0.950 . S
C283 C282 1.297 . S
C283 C284 1.479 . S
C283 H297 0.950 . S
C284 C283 1.479 . S
C284 C285 1.375 . S
C284 C290 1.404 . S
C285 C284 1.375 . S
C285 C286 1.369 . S
C285 H298 0.950 . S
C286 C285 1.369 . S
C286 C287 1.392 . S
C286 H299 0.951 . S
C287 C286 1.392 . S
C287 C289 1.384 . S
H288 C290 0.949 . S
C289 C287 1.384 . S
C289 C290 1.385 . S
C289 H291 0.950 . S
C290 C284 1.404 . S
C290 H288 0.949 . S
C290 C289 1.385 . S
H291 C289 0.950 . S
H292 C276 0.951 . S
H293 C278 0.951 . S
H294 C280 0.951 1_655 S
H295 C281 0.950 1_655 S
H296 C282 0.950 . S
H297 C283 0.950 . S
H298 C285 0.950 . S
H299 C286 0.951 . S
C300 C301 1.386 . S
C300 C302 1.383 . S
C300 H316 0.951 . S
C301 C300 1.386 . S
C301 C305 1.383 1_545 S
C302 C300 1.383 . S
C302 C303 1.402 . S
C302 H317 0.951 . S
C303 C302 1.402 . S
C303 C304 1.375 1_545 S
C303 C306 1.481 . S
C304 C303 1.375 1_565 S
C304 C305 1.367 . S
C304 H318 0.951 . S
C305 C301 1.383 1_565 S
C305 C304 1.367 . S
C305 H319 0.950 . S
C306 C303 1.481 . S
C306 C307 1.297 . S
C306 H320 0.950 1_545 S
C307 C306 1.297 . S
C307 C308 1.479 . S
C307 H321 0.950 . S
C308 C307 1.479 . S
C308 C309 1.375 . S
C308 C314 1.404 1_545 S
C309 C308 1.375 . S
C309 C310 1.369 . S
C309 H322 0.950 . S
C310 C309 1.369 . S
C310 C311 1.392 . S
C310 H323 0.951 . S
C311 C310 1.392 . S
C311 C313 1.384 1_545 S
H312 C314 0.949 . S
C313 C311 1.384 1_565 S
C313 C314 1.385 . S
C313 H315 0.950 . S
C314 C308 1.404 1_565 S
C314 H312 0.949 . S
C314 C313 1.385 . S
H315 C313 0.950 . S
H316 C300 0.951 . S
H317 C302 0.951 . S
H318 C304 0.951 . S
H319 C305 0.950 . S
H320 C306 0.950 1_565 S
H321 C307 0.950 . S
H322 C309 0.950 . S
H323 C310 0.951 . S
C324 C325 1.386 . S
C324 C326 1.406 . S
C324 H340 0.951 . S
C325 C324 1.386 . S
C325 C329 1.383 . S
C326 C324 1.406 . S
C326 C327 1.419 . S
C326 H341 0.910 1_554 S
C327 C326 1.419 . S
C327 C328 1.375 . S
C327 C330 1.481 1_554 S
C328 C327 1.375 . S
C328 C329 1.367 . S
C328 H342 0.951 . S
C329 C325 1.383 . S
C329 C328 1.367 . S
C329 H343 0.950 . S
C330 C327 1.481 1_556 S
C330 C331 1.297 . S
C330 H344 0.950 1_556 S
C331 C330 1.297 . S
C331 C332 1.479 . S
C331 H345 0.950 . S
C332 C331 1.479 . S
C332 C333 1.375 . S
C332 C338 1.404 . S
C333 C332 1.375 . S
C333 C334 1.369 . S
C333 H346 0.950 . S
C334 C333 1.369 . S
C334 C335 1.392 . S
C334 H347 0.951 . S
C335 C334 1.392 . S
C335 C337 1.384 . S
H336 C338 0.949 . S
C337 C335 1.384 . S
C337 C338 1.385 . S
C337 H339 0.950 . S
C338 C332 1.404 . S
C338 H336 0.949 . S
C338 C337 1.385 . S
H339 C337 0.950 . S
H340 C324 0.951 . S
H341 C326 0.910 1_556 S
H342 C328 0.951 . S
H343 C329 0.950 . S
H344 C330 0.950 1_554 S
H345 C331 0.950 . S
H346 C333 0.950 . S
H347 C334 0.951 . S
C348 C349 1.386 . S
C348 C350 1.383 . S
C348 H364 0.951 . S
C349 C348 1.386 . S
C349 C353 1.383 1_455 S
C350 C348 1.383 . S
C350 C351 1.402 . S
C350 H365 0.951 . S
C351 C350 1.402 . S
C351 C352 1.375 1_455 S
C351 C354 1.481 . S
C352 C351 1.375 1_655 S
C352 C353 1.367 . S
C352 H366 0.951 . S
C353 C349 1.383 1_655 S
C353 C352 1.367 . S
C353 H367 0.950 . S
C354 C351 1.481 . S
C354 C355 1.297 . S
C354 H368 0.950 1_455 S
C355 C354 1.297 . S
C355 C356 1.479 . S
C355 H369 0.950 . S
C356 C355 1.479 . S
C356 C357 1.375 . S
C356 C362 1.404 1_455 S
C357 C356 1.375 . S
C357 C358 1.369 . S
C357 H370 0.950 . S
C358 C357 1.369 . S
C358 C359 1.392 . S
C358 H371 0.951 . S
C359 C358 1.392 . S
C359 C361 1.384 1_455 S
H360 C362 0.949 . S
C361 C359 1.384 1_655 S
C361 C362 1.385 . S
C361 H363 0.950 . S
C362 C356 1.404 1_655 S
C362 H360 0.949 . S
C362 C361 1.385 . S
H363 C361 0.950 . S
H364 C348 0.951 . S
H365 C350 0.951 . S
H366 C352 0.951 . S
H367 C353 0.950 . S
H368 C354 0.950 1_655 S
H369 C355 0.950 . S
H370 C357 0.950 . S
H371 C358 0.951 . S
C95 C43 1.453 . S
C85 C3 1.466 . S
C109 C21 1.491 . S
C119 C69 1.499 . S
C133 C37 1.457 . S
C143 C71 1.467 . S
C157 C8 1.462 . S
C167 C55 1.462 . S
C191 C57 1.469 . S
C181 C23 1.445 . S
C205 C35 1.435 . S
C215 C83 1.458 . S
C239 C56 1.447 . S
C229 C31 1.469 . S
C253 C7 1.465 . S
C263 C82 1.469 . S
C287 C42 1.454 . S
C277 C17 1.466 . S
C311 C68 1.422 . S
C301 C36 1.434 . S
C335 C70 1.472 . S
C325 C9 1.445 . S
C349 C22 1.463 . S
C359 C54 1.465 . S
