# Generated by pormake.
# Topology ctn, (3,4)-cn, num edge types: 1
# Building blocks:
#     Node 0, Type 0, BuildingBlock: OLANEW_clean_sbu_2, # of connection points: 3
#     Node 1, Type 0, BuildingBlock: OLANEW_clean_sbu_2, # of connection points: 3
#     Node 2, Type 0, BuildingBlock: OLANEW_clean_sbu_2, # of connection points: 3
#     Node 3, Type 0, BuildingBlock: OLANEW_clean_sbu_2, # of connection points: 3
#     Node 4, Type 0, BuildingBlock: OLANEW_clean_sbu_2, # of connection points: 3
#     Node 5, Type 0, BuildingBlock: OLANEW_clean_sbu_2, # of connection points: 3
#     Node 6, Type 0, BuildingBlock: OLANEW_clean_sbu_2, # of connection points: 3
#     Node 7, Type 0, BuildingBlock: OLANEW_clean_sbu_2, # of connection points: 3
#     Node 8, Type 0, BuildingBlock: OLANEW_clean_sbu_2, # of connection points: 3
#     Node 9, Type 0, BuildingBlock: OLANEW_clean_sbu_2, # of connection points: 3
#     Node 10, Type 0, BuildingBlock: OLANEW_clean_sbu_2, # of connection points: 3
#     Node 11, Type 0, BuildingBlock: OLANEW_clean_sbu_2, # of connection points: 3
#     Node 12, Type 0, BuildingBlock: OLANEW_clean_sbu_2, # of connection points: 3
#     Node 13, Type 0, BuildingBlock: OLANEW_clean_sbu_2, # of connection points: 3
#     Node 14, Type 0, BuildingBlock: OLANEW_clean_sbu_2, # of connection points: 3
#     Node 15, Type 0, BuildingBlock: OLANEW_clean_sbu_2, # of connection points: 3
#     Node 16, Type 1, BuildingBlock: AZAVOO_clean_sbu_0, # of connection points: 4
#     Node 17, Type 1, BuildingBlock: AZAVOO_clean_sbu_0, # of connection points: 4
#     Node 18, Type 1, BuildingBlock: AZAVOO_clean_sbu_0, # of connection points: 4
#     Node 19, Type 1, BuildingBlock: AZAVOO_clean_sbu_0, # of connection points: 4
#     Node 20, Type 1, BuildingBlock: AZAVOO_clean_sbu_0, # of connection points: 4
#     Node 21, Type 1, BuildingBlock: AZAVOO_clean_sbu_0, # of connection points: 4
#     Node 22, Type 1, BuildingBlock: AZAVOO_clean_sbu_0, # of connection points: 4
#     Node 23, Type 1, BuildingBlock: AZAVOO_clean_sbu_0, # of connection points: 4
#     Node 24, Type 1, BuildingBlock: AZAVOO_clean_sbu_0, # of connection points: 4
#     Node 25, Type 1, BuildingBlock: AZAVOO_clean_sbu_0, # of connection points: 4
#     Node 26, Type 1, BuildingBlock: AZAVOO_clean_sbu_0, # of connection points: 4
#     Node 27, Type 1, BuildingBlock: AZAVOO_clean_sbu_0, # of connection points: 4
#     Edge 28, Type (0, 1), BuildingBlock: XIVTED_clean_linker_0, # of connection points: 2
#     Edge 29, Type (0, 1), BuildingBlock: XIVTED_clean_linker_0, # of connection points: 2
#     Edge 30, Type (0, 1), BuildingBlock: XIVTED_clean_linker_0, # of connection points: 2
#     Edge 31, Type (0, 1), BuildingBlock: XIVTED_clean_linker_0, # of connection points: 2
#     Edge 32, Type (0, 1), BuildingBlock: XIVTED_clean_linker_0, # of connection points: 2
#     Edge 33, Type (0, 1), BuildingBlock: XIVTED_clean_linker_0, # of connection points: 2
#     Edge 34, Type (0, 1), BuildingBlock: XIVTED_clean_linker_0, # of connection points: 2
#     Edge 35, Type (0, 1), BuildingBlock: XIVTED_clean_linker_0, # of connection points: 2
#     Edge 36, Type (0, 1), BuildingBlock: XIVTED_clean_linker_0, # of connection points: 2
#     Edge 37, Type (0, 1), BuildingBlock: XIVTED_clean_linker_0, # of connection points: 2
#     Edge 38, Type (0, 1), BuildingBlock: XIVTED_clean_linker_0, # of connection points: 2
#     Edge 39, Type (0, 1), BuildingBlock: XIVTED_clean_linker_0, # of connection points: 2
#     Edge 40, Type (0, 1), BuildingBlock: XIVTED_clean_linker_0, # of connection points: 2
#     Edge 41, Type (0, 1), BuildingBlock: XIVTED_clean_linker_0, # of connection points: 2
#     Edge 42, Type (0, 1), BuildingBlock: XIVTED_clean_linker_0, # of connection points: 2
#     Edge 43, Type (0, 1), BuildingBlock: XIVTED_clean_linker_0, # of connection points: 2
#     Edge 44, Type (0, 1), BuildingBlock: XIVTED_clean_linker_0, # of connection points: 2
#     Edge 45, Type (0, 1), BuildingBlock: XIVTED_clean_linker_0, # of connection points: 2
#     Edge 46, Type (0, 1), BuildingBlock: XIVTED_clean_linker_0, # of connection points: 2
#     Edge 47, Type (0, 1), BuildingBlock: XIVTED_clean_linker_0, # of connection points: 2
#     Edge 48, Type (0, 1), BuildingBlock: XIVTED_clean_linker_0, # of connection points: 2
#     Edge 49, Type (0, 1), BuildingBlock: XIVTED_clean_linker_0, # of connection points: 2
#     Edge 50, Type (0, 1), BuildingBlock: XIVTED_clean_linker_0, # of connection points: 2
#     Edge 51, Type (0, 1), BuildingBlock: XIVTED_clean_linker_0, # of connection points: 2
#     Edge 52, Type (0, 1), BuildingBlock: XIVTED_clean_linker_0, # of connection points: 2
#     Edge 53, Type (0, 1), BuildingBlock: XIVTED_clean_linker_0, # of connection points: 2
#     Edge 54, Type (0, 1), BuildingBlock: XIVTED_clean_linker_0, # of connection points: 2
#     Edge 55, Type (0, 1), BuildingBlock: XIVTED_clean_linker_0, # of connection points: 2
#     Edge 56, Type (0, 1), BuildingBlock: XIVTED_clean_linker_0, # of connection points: 2
#     Edge 57, Type (0, 1), BuildingBlock: XIVTED_clean_linker_0, # of connection points: 2
#     Edge 58, Type (0, 1), BuildingBlock: XIVTED_clean_linker_0, # of connection points: 2
#     Edge 59, Type (0, 1), BuildingBlock: XIVTED_clean_linker_0, # of connection points: 2
#     Edge 60, Type (0, 1), BuildingBlock: XIVTED_clean_linker_0, # of connection points: 2
#     Edge 61, Type (0, 1), BuildingBlock: XIVTED_clean_linker_0, # of connection points: 2
#     Edge 62, Type (0, 1), BuildingBlock: XIVTED_clean_linker_0, # of connection points: 2
#     Edge 63, Type (0, 1), BuildingBlock: XIVTED_clean_linker_0, # of connection points: 2
#     Edge 64, Type (0, 1), BuildingBlock: XIVTED_clean_linker_0, # of connection points: 2
#     Edge 65, Type (0, 1), BuildingBlock: XIVTED_clean_linker_0, # of connection points: 2
#     Edge 66, Type (0, 1), BuildingBlock: XIVTED_clean_linker_0, # of connection points: 2
#     Edge 67, Type (0, 1), BuildingBlock: XIVTED_clean_linker_0, # of connection points: 2
#     Edge 68, Type (0, 1), BuildingBlock: XIVTED_clean_linker_0, # of connection points: 2
#     Edge 69, Type (0, 1), BuildingBlock: XIVTED_clean_linker_0, # of connection points: 2
#     Edge 70, Type (0, 1), BuildingBlock: XIVTED_clean_linker_0, # of connection points: 2
#     Edge 71, Type (0, 1), BuildingBlock: XIVTED_clean_linker_0, # of connection points: 2
#     Edge 72, Type (0, 1), BuildingBlock: XIVTED_clean_linker_0, # of connection points: 2
#     Edge 73, Type (0, 1), BuildingBlock: XIVTED_clean_linker_0, # of connection points: 2
#     Edge 74, Type (0, 1), BuildingBlock: XIVTED_clean_linker_0, # of connection points: 2
#     Edge 75, Type (0, 1), BuildingBlock: XIVTED_clean_linker_0, # of connection points: 2
# Relax obj value: 0.046
# Max RMSD: 0.171
# Mean RMSD: 0.092
data_MOF--net-ctn--node1-OLANEW_clean_sbu_2--node2-AZAVOO_clean_sbu_0--edge1-XIVTED_clean_linker_0
_symmetry_space_group_name_H-M    P1
_symmetry_Int_Tables_number       1
_symmetry_cell_setting            triclinic
loop_
_symmetry_equiv_pos_as_xyz
'x, y, z'
_cell_length_a     57.046246
_cell_length_b     59.389033
_cell_length_c     56.359798
_cell_angle_alpha  91.193507
_cell_angle_beta   97.343001
_cell_angle_gamma 98.817999
loop_
_atom_site_label
_atom_site_type_symbol
_atom_site_fract_x
_atom_site_fract_y
_atom_site_fract_z
_atom_type_partial_charge
O0 O 0.0224 0.02288 0.93753 0.0
Cd1 Cd 0.01624 0.98133 0.93961 0.0
O2 O 0.00425 0.02267 0.96933 0.0
Cd3 Cd 0.98701 0.0329 0.99956 0.0
O4 O 0.97244 0.03248 0.03365 0.0
C5 C 0.9512 0.03584 0.03524 0.0
O6 O 0.93758 0.04038 0.01589 0.0
C7 C 0.0144 0.03393 0.95345 0.0
C8 C 0.05789 0.96235 0.95103 0.0
O9 O 0.04902 0.96396 0.92917 0.0
O10 O 0.04734 0.97015 0.96745 0.0
O11 O 0.33781 0.79572 0.32133 0.0
Cd12 Cd 0.29982 0.80523 0.30208 0.0
O13 O 0.32493 0.76035 0.30892 0.0
Cd14 Cd 0.3218 0.72319 0.30807 0.0
O15 O 0.29962 0.68947 0.30453 0.0
C16 C 0.27729 0.68942 0.3043 0.0
O17 O 0.26955 0.70902 0.30627 0.0
C18 C 0.34084 0.77497 0.32099 0.0
C19 C 0.29514 0.81205 0.25301 0.0
O20 O 0.30259 0.82876 0.26824 0.0
O21 O 0.29076 0.79199 0.26097 0.0
O22 O 0.97137 0.5183 0.12501 0.0
Cd23 Cd 0.93792 0.51505 0.09235 0.0
O24 O 0.98268 0.49123 0.10446 0.0
Cd25 Cd 0.00256 0.46398 0.09593 0.0
O26 O 0.01269 0.43375 0.07953 0.0
C27 C 1.00017 0.41447 0.08178 0.0
O28 O 0.98231 0.41339 0.09451 0.0
C29 C 0.98622 0.50467 0.1229 0.0
C30 C 0.90931 0.54941 0.08949 0.0
O31 O 0.90476 0.53214 0.10237 0.0
O32 O 0.92785 0.55083 0.0786 0.0
O33 O 0.69285 0.89493 0.19798 0.0
Cd34 Cd 0.65917 0.86425 0.18683 0.0
O35 O 0.69268 0.88406 0.23472 0.0
Cd36 Cd 0.70077 0.88334 0.27364 0.0
O37 O 0.68639 0.87074 0.30595 0.0
C38 C 0.66369 0.86777 0.30472 0.0
O39 O 0.6511 0.87321 0.28509 0.0
C40 C 0.70198 0.89727 0.21982 0.0
C41 C 0.67321 0.82967 0.16028 0.0
O42 O 0.66439 0.84613 0.15001 0.0
O43 O 0.67518 0.8294 0.18317 0.0
O44 O 0.12811 0.99968 0.51167 0.0
Cd45 Cd 0.10565 0.96241 0.49739 0.0
O46 O 0.09857 0.01132 0.48941 0.0
Cd47 Cd 0.07701 0.03292 0.46795 0.0
O48 O 0.04831 0.03751 0.43969 0.0
C49 C 0.03652 0.01909 0.42975 0.0
O50 O 0.04225 0.9996 0.43726 0.0
C51 C 0.11857 0.0161 0.50274 0.0
C52 C 0.09973 0.92833 0.53029 0.0
O53 O 0.11831 0.93149 0.51941 0.0
O54 O 0.08437 0.94193 0.52631 0.0
O55 O 0.28268 0.78505 0.83877 0.0
Cd56 Cd 0.30364 0.77947 0.80453 0.0
O57 O 0.25441 0.75741 0.82382 0.0
Cd58 Cd 0.21894 0.73675 0.81976 0.0
O59 O 0.18746 0.72329 0.79442 0.0
C60 C 0.16898 0.73298 0.79237 0.0
O61 O 0.16821 0.75017 0.80717 0.0
C62 C 0.26275 0.77261 0.84019 0.0
C63 C 0.31803 0.73673 0.80317 0.0
O64 O 0.33165 0.75388 0.81434 0.0
O65 O 0.2975 0.73976 0.79274 0.0
O66 O 0.92982 0.47975 0.39447 0.0
Cd67 Cd 0.89189 0.48915 0.40463 0.0
O68 O 0.94399 0.49641 0.42926 0.0
Cd69 Cd 0.9685 0.512 0.4603 0.0
O70 O 0.98148 0.53664 0.49008 0.0
C71 C 0.99742 0.55354 0.48756 0.0
O72 O 0.00684 0.55502 0.46745 0.0
C73 C 0.9478 0.48725 0.40978 0.0
C74 C 0.867 0.45921 0.43349 0.0
O75 O 0.86157 0.45804 0.41066 0.0
O76 O 0.8847 0.4741 0.44267 0.0
O77 O 0.85114 0.77865 0.83821 0.0
Cd78 Cd 0.87187 0.807 0.81401 0.0
O79 O 0.81976 0.79537 0.82989 0.0
Cd80 Cd 0.78488 0.80648 0.83061 0.0
O81 O 0.75705 0.82752 0.82091 0.0
C82 C 0.74284 0.83298 0.8349 0.0
O83 O 0.74398 0.82511 0.85657 0.0
C84 C 0.82968 0.78015 0.84105 0.0
C85 C 0.89635 0.78954 0.77992 0.0
O86 O 0.90591 0.79319 0.80178 0.0
O87 O 0.87501 0.79373 0.77425 0.0
O88 O 0.35022 0.27324 0.33319 0.0
Cd89 Cd 0.36702 0.30109 0.30601 0.0
O90 O 0.31772 0.2881 0.32423 0.0
Cd91 Cd 0.28226 0.2979 0.32504 0.0
O92 O 0.25366 0.31808 0.31547 0.0
C93 C 0.23948 0.32324 0.32964 0.0
O94 O 0.24115 0.31554 0.35137 0.0
C95 C 0.32869 0.27408 0.33629 0.0
C96 C 0.38899 0.28396 0.26965 0.0
O97 O 0.40102 0.29076 0.29001 0.0
O98 O 0.36648 0.28473 0.26674 0.0
O99 O 0.4726 0.01716 0.6237 0.0
Cd100 Cd 0.43958 0.01334 0.59056 0.0
O101 O 0.48517 0.98998 0.60447 0.0
Cd102 Cd 0.50582 0.96297 0.59694 0.0
O103 O 0.51577 0.93259 0.58056 0.0
C104 C 0.50571 0.91304 0.58577 0.0
O105 O 0.4905 0.91176 0.60153 0.0
C106 C 0.48792 0.00383 0.62252 0.0
C107 C 0.41041 0.04729 0.58746 0.0
O108 O 0.40589 0.02989 0.60016 0.0
O109 O 0.42913 0.049 0.5768 0.0
O110 O 0.19245 0.39466 0.69677 0.0
Cd111 Cd 0.15967 0.36309 0.68566 0.0
O112 O 0.19241 0.38421 0.73367 0.0
Cd113 Cd 0.20059 0.38423 0.77265 0.0
O114 O 0.18749 0.37188 0.80564 0.0
C115 C 0.16517 0.37105 0.80632 0.0
O116 O 0.15214 0.37857 0.78815 0.0
C117 C 0.20139 0.39748 0.71865 0.0
C118 C 0.17474 0.32901 0.65925 0.0
O119 O 0.16551 0.34522 0.64892 0.0
O120 O 0.17667 0.32877 0.68214 0.0
O121 O 0.85547 0.30375 0.81312 0.0
Cd122 Cd 0.81979 0.32 0.79813 0.0
O123 O 0.83182 0.27095 0.80997 0.0
Cd124 Cd 0.81942 0.23433 0.8116 0.0
O125 O 0.79645 0.20106 0.80818 0.0
C126 C 0.77402 0.20081 0.80716 0.0
O127 O 0.76591 0.22029 0.80851 0.0
C128 C 0.85245 0.28247 0.81648 0.0
C129 C 0.80889 0.32182 0.74863 0.0
O130 O 0.82108 0.33897 0.76111 0.0
O131 O 0.80254 0.30356 0.75945 0.0
O132 O 0.51647 0.52183 0.43377 0.0
Cd133 Cd 0.51148 0.48012 0.43154 0.0
O134 O 0.49885 0.52017 0.46604 0.0
Cd135 Cd 0.482 0.53002 0.4967 0.0
O136 O 0.46763 0.53033 0.53088 0.0
C137 C 0.44674 0.53466 0.53256 0.0
O138 O 0.43339 0.5397 0.51325 0.0
C139 C 0.50864 0.5321 0.4504 0.0
C140 C 0.55261 0.46163 0.44739 0.0
O141 O 0.54787 0.46649 0.42541 0.0
O142 O 0.53814 0.46594 0.4619 0.0
O143 O 0.61295 0.50401 0.0208 0.0
Cd144 Cd 0.58337 0.46978 0.00964 0.0
O145 O 0.58704 0.51721 0.99523 0.0
Cd146 Cd 0.56949 0.53882 0.96991 0.0
O147 O 0.54259 0.54336 0.93986 0.0
C148 C 0.53094 0.5249 0.92988 0.0
O149 O 0.53593 0.50544 0.93823 0.0
C150 C 0.60672 0.52073 0.00921 0.0
C151 C 0.58538 0.43099 0.03628 0.0
O152 O 0.59784 0.43487 0.01899 0.0
O153 O 0.57277 0.446 0.04166 0.0
O154 O 0.77292 0.27466 0.3404 0.0
Cd155 Cd 0.79336 0.26877 0.30584 0.0
O156 O 0.74201 0.25056 0.32366 0.0
Cd157 Cd 0.70475 0.23393 0.31827 0.0
O158 O 0.67284 0.22414 0.29216 0.0
C159 C 0.67613 0.21435 0.27286 0.0
O160 O 0.69756 0.20965 0.27077 0.0
C161 C 0.75184 0.26423 0.34097 0.0
C162 C 0.8109 0.22746 0.30561 0.0
O163 O 0.78966 0.22887 0.29576 0.0
O164 O 0.8237 0.24554 0.31581 0.0
O165 O 0.42445 0.96649 0.87985 0.0
Cd166 Cd 0.38135 0.96054 0.88132 0.0
O167 O 0.43164 0.98935 0.91178 0.0
Cd168 Cd 0.45223 0.01211 0.94072 0.0
O169 O 0.46464 0.03825 0.9693 0.0
C170 C 0.48135 0.05455 0.96705 0.0
O171 O 0.49175 0.05512 0.94751 0.0
C172 C 0.43934 0.97953 0.89472 0.0
C173 C 0.36701 0.94147 0.92292 0.0
O174 O 0.37141 0.92898 0.90571 0.0
O175 O 0.36991 0.96313 0.92073 0.0
Mg176 Mg 0.21414 0.84082 0.04095 0.0
O177 O 0.25108 0.85891 0.03411 0.0
O178 O 0.27688 0.83428 0.0416 0.0
Mg179 Mg 0.25701 0.80131 0.0546 0.0
C180 C 0.27207 0.85366 0.03481 0.0
C181 C 0.17991 0.86389 0.00355 0.0
O182 O 0.17491 0.84298 0.99425 0.0
O183 O 0.21293 0.82026 0.00622 0.0
O184 O 0.23772 0.79516 0.01585 0.0
O185 O 0.22123 0.85318 0.0791 0.0
O186 O 0.23028 0.82072 0.0659 0.0
C187 C 0.22303 0.8035 0.00073 0.0
C188 C 0.23123 0.83528 0.08341 0.0
O189 O 0.19556 0.86835 0.02193 0.0
Mg190 Mg 0.1424 0.50344 0.31239 0.0
O191 O 0.12009 0.50343 0.27543 0.0
O192 O 0.14493 0.5066 0.24771 0.0
Mg193 Mg 0.18323 0.50958 0.26704 0.0
C194 C 0.12386 0.50462 0.2536 0.0
C195 C 0.10626 0.50069 0.34867 0.0
O196 O 0.12399 0.51595 0.35893 0.0
O197 O 0.14913 0.46708 0.30546 0.0
O198 O 0.17555 0.47268 0.27922 0.0
O199 O 0.14682 0.54144 0.31552 0.0
O200 O 0.17205 0.52246 0.30011 0.0
C201 C 0.16327 0.45963 0.29242 0.0
C202 C 0.16601 0.54178 0.30541 0.0
O203 O 0.10827 0.49132 0.32871 0.0
Mg204 Mg 0.7703 0.70162 0.03807 0.0
O205 O 0.7377 0.67323 0.03032 0.0
O206 O 0.70633 0.68935 0.01557 0.0
Mg207 Mg 0.71841 0.72777 0.01427 0.0
C208 C 0.71558 0.67182 0.02203 0.0
C209 C 0.79325 0.66023 0.05841 0.0
O210 O 0.77588 0.66006 0.07166 0.0
O211 O 0.77325 0.70426 0.99806 0.0
O212 O 0.74233 0.72202 0.98556 0.0
O213 O 0.7611 0.70832 0.07489 0.0
O214 O 0.74806 0.72562 0.04273 0.0
C215 C 0.76079 0.71349 0.98162 0.0
C216 C 0.74809 0.72263 0.06526 0.0
O217 O 0.79544 0.67499 0.04248 0.0
Mg218 Mg 0.89285 0.0503 0.23978 0.0
O219 O 0.86213 0.02022 0.23921 0.0
O220 O 0.8765 0.98846 0.23066 0.0
Mg221 Mg 0.91528 0.99852 0.22338 0.0
C222 C 0.85953 0.99858 0.23594 0.0
C223 C 0.88383 0.08977 0.27216 0.0
O224 O 0.90729 0.09185 0.27577 0.0
O225 O 0.91126 0.03946 0.27507 0.0
O226 O 0.92639 0.00913 0.26328 0.0
O227 O 0.88257 0.05531 0.20102 0.0
O228 O 0.9086 0.03325 0.21492 0.0
C229 C 0.92366 0.0235 0.27953 0.0
C230 C 0.897 0.04132 0.19675 0.0
O231 O 0.87207 0.07334 0.25873 0.0
Mg232 Mg 0.27259 0.20083 0.53764 0.0
O233 O 0.23946 0.17303 0.52954 0.0
O234 O 0.20866 0.18985 0.5146 0.0
Mg235 Mg 0.22159 0.22815 0.51362 0.0
C236 C 0.21745 0.17207 0.52105 0.0
C237 C 0.29474 0.1587 0.55765 0.0
O238 O 0.27737 0.15849 0.57091 0.0
O239 O 0.27584 0.20344 0.49767 0.0
O240 O 0.24536 0.22171 0.48501 0.0
O241 O 0.26328 0.20763 0.5744 0.0
O242 O 0.25087 0.22529 0.54226 0.0
C243 C 0.26361 0.21278 0.48116 0.0
C244 C 0.25065 0.22223 0.56475 0.0
O245 O 0.29714 0.17368 0.54197 0.0
Mg246 Mg 0.38959 0.554 0.73716 0.0
O247 O 0.35893 0.52386 0.73717 0.0
O248 O 0.37373 0.49217 0.72922 0.0
Mg249 Mg 0.41238 0.50214 0.72162 0.0
C250 C 0.35663 0.50219 0.73433 0.0
C251 C 0.3814 0.59348 0.76966 0.0
O252 O 0.40474 0.59442 0.77371 0.0
O253 O 0.40815 0.54368 0.77263 0.0
O254 O 0.42355 0.51334 0.76136 0.0
O255 O 0.37916 0.55843 0.69828 0.0
O256 O 0.40522 0.53656 0.71256 0.0
C257 C 0.4207 0.52789 0.77737 0.0
C258 C 0.39357 0.54435 0.69425 0.0
O259 O 0.36914 0.57759 0.75583 0.0
Mg260 Mg 0.707 0.33912 0.54149 0.0
O261 O 0.74078 0.36017 0.5305 0.0
O262 O 0.77094 0.34008 0.53749 0.0
Mg263 Mg 0.75594 0.3057 0.55183 0.0
C264 C 0.76266 0.35789 0.53017 0.0
C265 C 0.68281 0.37158 0.50349 0.0
O266 O 0.69723 0.36554 0.48897 0.0
O267 O 0.70415 0.31826 0.50668 0.0
O268 O 0.73365 0.29752 0.51455 0.0
O269 O 0.7166 0.35292 0.57902 0.0
O270 O 0.72789 0.32165 0.56545 0.0
C271 C 0.71626 0.30323 0.50054 0.0
C272 C 0.7289 0.33645 0.58275 0.0
O273 O 0.68343 0.36376 0.52435 0.0
Mg274 Mg 0.64325 0.0126 0.81343 0.0
O275 O 0.62171 0.01094 0.77588 0.0
O276 O 0.64736 0.01438 0.74892 0.0
Mg277 Mg 0.68535 0.01923 0.76929 0.0
C278 C 0.62603 0.01174 0.75421 0.0
C279 C 0.60327 0.01171 0.84564 0.0
O280 O 0.61764 0.03057 0.85343 0.0
O281 O 0.65173 0.9766 0.80792 0.0
O282 O 0.67874 0.98257 0.78232 0.0
O283 O 0.64601 0.05051 0.81536 0.0
O284 O 0.67266 0.03228 0.80145 0.0
C285 C 0.66656 0.96943 0.79553 0.0
C286 C 0.66563 0.05134 0.80591 0.0
O287 O 0.60892 0.99963 0.82901 0.0
Mg288 Mg 0.04459 0.24787 0.94985 0.0
O289 O 0.00807 0.24608 0.9266 0.0
O290 O 0.98029 0.22644 0.94599 0.0
Mg291 Mg 0.99891 0.21612 0.98165 0.0
C292 C 0.98634 0.2375 0.92795 0.0
C293 C 0.08419 0.27894 0.92832 0.0
O294 O 0.09658 0.26801 0.94422 0.0
O295 O 0.03459 0.27483 0.97439 0.0
O296 O 0.00776 0.25418 0.99412 0.0
O297 O 0.04971 0.21486 0.93335 0.0
O298 O 0.03247 0.21771 0.96597 0.0
C299 C 0.02027 0.27318 0.99017 0.0
C300 C 0.03863 0.2049 0.94988 0.0
O301 O 0.06146 0.27486 0.92624 0.0
Mg302 Mg 0.53926 0.74594 0.44671 0.0
O303 O 0.50104 0.74455 0.42688 0.0
O304 O 0.47605 0.72701 0.45072 0.0
Mg305 Mg 0.49787 0.71536 0.48386 0.0
C306 C 0.47992 0.73716 0.43151 0.0
C307 C 0.57708 0.77852 0.42511 0.0
O308 O 0.58964 0.76956 0.44261 0.0
O309 O 0.53253 0.77334 0.4729 0.0
O310 O 0.50898 0.75324 0.4963 0.0
O311 O 0.54213 0.7129 0.42898 0.0
O312 O 0.52848 0.71589 0.46367 0.0
C313 C 0.52079 0.77206 0.4908 0.0
C314 C 0.53269 0.703 0.44652 0.0
O315 O 0.55446 0.77267 0.42188 0.0
Mg316 Mg 0.01053 0.73495 0.60685 0.0
O317 O 0.04037 0.72853 0.63599 0.0
O318 O 0.07121 0.7197 0.61899 0.0
Mg319 Mg 0.06156 0.72187 0.57854 0.0
C320 C 0.06123 0.72297 0.63751 0.0
C321 C 0.98884 0.73841 0.65452 0.0
O322 O 0.99838 0.71975 0.6577 0.0
O323 O 0.03158 0.77002 0.6016 0.0
O324 O 0.06161 0.76046 0.58359 0.0
O325 O 0.99593 0.69772 0.60326 0.0
O326 O 0.02326 0.71468 0.58233 0.0
C327 C 0.05062 0.77547 0.59191 0.0
C328 C 0.0105 0.69615 0.58768 0.0
O329 O 0.99086 0.74899 0.63531 0.0
Mg330 Mg 0.50719 0.2298 0.10024 0.0
O331 O 0.5383 0.22089 0.12633 0.0
O332 O 0.56704 0.21346 0.10528 0.0
Mg333 Mg 0.55419 0.21756 0.06566 0.0
C334 C 0.55891 0.21538 0.12519 0.0
C335 C 0.46819 0.23935 0.13048 0.0
O336 O 0.45538 0.22928 0.11104 0.0
O337 O 0.52863 0.26482 0.09578 0.0
O338 O 0.55573 0.25614 0.07317 0.0
O339 O 0.49107 0.19307 0.0951 0.0
O340 O 0.51676 0.21055 0.07272 0.0
C341 C 0.54623 0.27075 0.08412 0.0
C342 C 0.50391 0.19197 0.07787 0.0
O343 O 0.49087 0.24271 0.13171 0.0
H344 H 0.25842 0.81293 0.8614 0.0
H345 H 0.23113 0.76268 0.98233 0.0
H346 H 0.23852 0.74026 0.86572 0.0
H347 H 0.21002 0.82688 0.96121 0.0
H348 H 0.23438 0.75345 0.9404 0.0
H349 H 0.24167 0.81859 0.89855 0.0
C350 C 0.25019 0.7982 0.87005 0.0
C351 C 0.24979 0.77612 0.8606 0.0
C352 C 0.22854 0.76932 0.94494 0.0
C353 C 0.2312 0.78239 0.90326 0.0
C354 C 0.22674 0.77463 0.96883 0.0
C355 C 0.22051 0.79567 0.97531 0.0
C356 C 0.2247 0.78543 0.92757 0.0
C357 C 0.21493 0.81049 0.95706 0.0
C358 C 0.24056 0.80142 0.89114 0.0
C359 C 0.23897 0.75756 0.87243 0.0
N360 N 0.21768 0.80531 0.93409 0.0
N361 N 0.23052 0.76107 0.8935 0.0
H362 H 0.9897 0.51505 0.42782 0.0
H363 H 0.06568 0.47034 0.33241 0.0
H364 H 0.96159 0.45899 0.37715 0.0
H365 H 0.09547 0.52006 0.38954 0.0
H366 H 0.02787 0.4647 0.34934 0.0
H367 H 0.029 0.5157 0.41528 0.0
C368 C 0.99186 0.50239 0.4146 0.0
C369 C 0.97232 0.4866 0.40396 0.0
C370 C 0.04275 0.47672 0.35826 0.0
C371 C 0.01732 0.48792 0.38862 0.0
C372 C 0.06434 0.47996 0.34859 0.0
C373 C 0.08375 0.49581 0.35947 0.0
C374 C 0.0405 0.48952 0.37887 0.0
C375 C 0.08098 0.50774 0.38045 0.0
C376 C 0.01435 0.503 0.40714 0.0
C377 C 0.97617 0.47141 0.38592 0.0
N378 N 0.05974 0.50446 0.38935 0.0
N379 N 0.99817 0.47253 0.37873 0.0
H380 H 0.78142 0.76955 0.84479 0.0
H381 H 0.8042 0.70733 0.96834 0.0
H382 H 0.85078 0.75698 0.8769 0.0
H383 H 0.73679 0.72783 0.94092 0.0
H384 H 0.81985 0.71934 0.93141 0.0
H385 H 0.76334 0.74889 0.87662 0.0
C386 C 0.7929 0.76267 0.8586 0.0
C387 C 0.81777 0.76573 0.85857 0.0
C388 C 0.80154 0.72095 0.93338 0.0
C389 C 0.7971 0.7414 0.89474 0.0
C390 C 0.79254 0.71398 0.95443 0.0
C391 C 0.76924 0.71686 0.95794 0.0
C392 C 0.78714 0.73085 0.9157 0.0
C393 C 0.75497 0.72556 0.93919 0.0
C394 C 0.78252 0.75061 0.87665 0.0
C395 C 0.83155 0.75533 0.87633 0.0
N396 N 0.76422 0.73245 0.91902 0.0
N397 N 0.82108 0.74384 0.89381 0.0
H398 H 0.01144 0.9827 0.40237 0.0
H399 H 0.93414 0.05679 0.31559 0.0
H400 H 0.0179 0.05591 0.41077 0.0
H401 H 0.94326 0.98767 0.29873 0.0
H402 H 0.95955 0.05558 0.35392 0.0
H403 H 0.98129 0.98324 0.36769 0.0
C404 C 0.00645 0.99891 0.39701 0.0
C405 C 0.01738 0.01933 0.40941 0.0
C406 C 0.95582 0.04066 0.34186 0.0
C407 C 0.98273 0.02002 0.36963 0.0
C408 C 0.94121 0.04127 0.32005 0.0
C409 C 0.93671 0.02235 0.30383 0.0
C410 C 0.96574 0.0209 0.34756 0.0
C411 C 0.94642 0.00273 0.31055 0.0
C412 C 0.98923 0.99919 0.37715 0.0
C413 C 0.01006 0.03979 0.40164 0.0
N414 N 0.9605 0.00255 0.33185 0.0
N415 N 0.99322 0.03963 0.38219 0.0
H416 H 0.17242 0.32469 0.6106 0.0
H417 H 0.246 0.21997 0.61267 0.0
H418 H 0.19693 0.29336 0.67567 0.0
H419 H 0.22411 0.25485 0.54913 0.0
H420 H 0.22542 0.24431 0.6359 0.0
H421 H 0.18852 0.29685 0.5876 0.0
C422 C 0.18111 0.31189 0.62007 0.0
C423 C 0.18344 0.31146 0.64513 0.0
C424 C 0.22498 0.24647 0.61682 0.0
C425 C 0.20205 0.27945 0.61884 0.0
C426 C 0.23668 0.23255 0.60355 0.0
C427 C 0.23676 0.23532 0.57888 0.0
C428 C 0.21334 0.26326 0.60532 0.0
C429 C 0.22444 0.25194 0.56803 0.0
C430 C 0.19032 0.29597 0.60691 0.0
C431 C 0.19481 0.29438 0.65638 0.0
N432 N 0.21334 0.26529 0.58131 0.0
N433 N 0.2038 0.27912 0.64316 0.0
H434 H 0.46767 0.52036 0.57486 0.0
H435 H 0.37039 0.55651 0.65198 0.0
H436 H 0.40488 0.54692 0.54374 0.0
H437 H 0.42728 0.52047 0.68043 0.0
H438 H 0.38173 0.55201 0.61196 0.0
H439 H 0.45263 0.51966 0.61352 0.0
C440 C 0.45069 0.52603 0.57613 0.0
C441 C 0.43758 0.53383 0.55602 0.0
C442 C 0.39157 0.54487 0.62692 0.0
C443 C 0.42022 0.53306 0.60033 0.0
C444 C 0.38507 0.54739 0.64978 0.0
C445 C 0.39799 0.53896 0.66962 0.0
C446 C 0.41129 0.53404 0.6239 0.0
C447 C 0.41683 0.52727 0.66568 0.0
C448 C 0.44206 0.52554 0.59822 0.0
C449 C 0.41563 0.54083 0.55876 0.0
N450 N 0.42306 0.52536 0.64332 0.0
N451 N 0.40771 0.54041 0.58053 0.0
H452 H 0.78978 0.28723 0.7156 0.0
H453 H 0.74375 0.36992 0.61778 0.0
H454 H 0.80955 0.3604 0.72292 0.0
H455 H 0.74802 0.29968 0.60044 0.0
H456 H 0.76641 0.36654 0.65706 0.0
H457 H 0.77311 0.29097 0.67388 0.0
C458 C 0.79081 0.30406 0.70837 0.0
C459 C 0.80097 0.32355 0.72278 0.0
C460 C 0.76258 0.35192 0.64458 0.0
C461 C 0.78165 0.32794 0.67524 0.0
C462 C 0.74957 0.35381 0.6222 0.0
C463 C 0.74393 0.33502 0.60587 0.0
C464 C 0.76963 0.33097 0.65086 0.0
C465 C 0.75202 0.31459 0.61249 0.0
C466 C 0.78134 0.30617 0.68456 0.0
C467 C 0.80188 0.34492 0.71246 0.0
N468 N 0.76423 0.31302 0.63461 0.0
N469 N 0.79207 0.34657 0.68941 0.0
H470 H 0.4889 0.01608 0.66958 0.0
H471 H 0.62693 0.00588 0.7059 0.0
H472 H 0.53284 0.99338 0.61994 0.0
H473 H 0.57869 0.01317 0.75769 0.0
H474 H 0.5933 0.00332 0.67388 0.0
H475 H 0.52227 0.0174 0.70178 0.0
C476 C 0.50555 0.01126 0.66548 0.0
C477 C 0.50796 0.00424 0.6421 0.0
C478 C 0.59007 0.00542 0.69225 0.0
C479 C 0.54633 0.00593 0.67883 0.0
C480 C 0.60929 0.00695 0.71058 0.0
C481 C 0.6057 0.00978 0.73459 0.0
C482 C 0.56708 0.00695 0.6979 0.0
C483 C 0.58236 0.01096 0.73948 0.0
C484 C 0.52456 0.01195 0.68388 0.0
C485 C 0.52995 0.99828 0.63778 0.0
N486 N 0.56399 0.00965 0.72131 0.0
N487 N 0.54832 0.99935 0.65595 0.0
H488 H 0.84974 0.24539 0.84487 0.0
H489 H 0.99067 0.26439 0.88916 0.0
H490 H 0.9004 0.29682 0.81789 0.0
H491 H 0.93861 0.21945 0.92241 0.0
H492 H 0.95856 0.27261 0.85914 0.0
H493 H 0.88279 0.23162 0.86918 0.0
C494 C 0.86784 0.25338 0.8435 0.0
C495 C 0.87231 0.27209 0.82903 0.0
C496 C 0.9542 0.26084 0.87292 0.0
C497 C 0.91027 0.25688 0.85749 0.0
C498 C 0.97254 0.2561 0.89007 0.0
C499 C 0.96737 0.24135 0.90853 0.0
C500 C 0.93047 0.25073 0.87413 0.0
C501 C 0.94349 0.23108 0.90868 0.0
C502 C 0.88672 0.24571 0.85768 0.0
C503 C 0.89615 0.28233 0.82878 0.0
N504 N 0.92595 0.23605 0.89184 0.0
N505 N 0.91421 0.27467 0.84286 0.0
H506 H 0.48747 0.86884 0.59331 0.0
H507 H 0.54269 0.81589 0.48501 0.0
H508 H 0.53303 0.90939 0.54946 0.0
H509 H 0.49779 0.77615 0.53012 0.0
H510 H 0.54059 0.85019 0.50898 0.0
H511 H 0.49241 0.83459 0.57109 0.0
C512 C 0.49861 0.87056 0.57907 0.0
C513 C 0.50977 0.89208 0.57321 0.0
C514 C 0.53126 0.83394 0.51365 0.0
C515 C 0.51544 0.85279 0.54751 0.0
C516 C 0.53244 0.81432 0.49997 0.0
C517 C 0.52034 0.79303 0.50546 0.0
C518 C 0.51787 0.83229 0.53298 0.0
C519 C 0.50738 0.79213 0.52511 0.0
C520 C 0.50142 0.85095 0.56635 0.0
C521 C 0.52405 0.89318 0.55459 0.0
N522 N 0.50645 0.81144 0.53807 0.0
N523 N 0.52639 0.87383 0.54234 0.0
H524 H 0.1179 0.36628 0.8124 0.0
H525 H 0.13242 0.29026 0.92742 0.0
H526 H 0.18582 0.35074 0.84533 0.0
H527 H 0.06431 0.3035 0.89247 0.0
H528 H 0.15256 0.31465 0.89939 0.0
H529 H 0.09837 0.34582 0.84345 0.0
C530 C 0.12876 0.35869 0.82625 0.0
C531 C 0.15355 0.36014 0.82615 0.0
C532 C 0.13321 0.31231 0.89791 0.0
C533 C 0.1312 0.33653 0.86179 0.0
C534 C 0.12168 0.29839 0.91393 0.0
C535 C 0.0966 0.29471 0.91224 0.0
C536 C 0.11961 0.32268 0.88 0.0
C537 C 0.08366 0.30576 0.89441 0.0
C538 C 0.11756 0.34697 0.84398 0.0
C539 C 0.16666 0.35001 0.84463 0.0
N540 N 0.09531 0.31916 0.87894 0.0
N541 N 0.15531 0.33854 0.86163 0.0
H542 H 0.50823 0.56241 0.48833 0.0
H543 H 0.53401 0.67223 0.41027 0.0
H544 H 0.51424 0.55947 0.41283 0.0
H545 H 0.51846 0.67642 0.48304 0.0
H546 H 0.52678 0.63076 0.41125 0.0
H547 H 0.51177 0.60394 0.48721 0.0
C548 C 0.50981 0.57037 0.47144 0.0
C549 C 0.51048 0.5573 0.45056 0.0
C550 C 0.52481 0.6407 0.427 0.0
C551 C 0.51529 0.60495 0.44928 0.0
C552 C 0.52895 0.66442 0.42644 0.0
C553 C 0.52687 0.67784 0.44661 0.0
C554 C 0.51871 0.63019 0.44795 0.0
C555 C 0.52021 0.66673 0.46706 0.0
C556 C 0.51209 0.59415 0.47086 0.0
C557 C 0.51361 0.56879 0.42939 0.0
N558 N 0.5165 0.64354 0.46726 0.0
N559 N 0.51591 0.59188 0.42931 0.0
H560 H 0.93732 0.77056 0.78712 0.0
H561 H 0.95717 0.7689 0.64968 0.0
H562 H 0.88628 0.79019 0.73116 0.0
H563 H 0.98996 0.72643 0.70113 0.0
H564 H 0.93435 0.78119 0.68023 0.0
H565 H 0.96008 0.75826 0.75658 0.0
C566 C 0.93089 0.77225 0.76841 0.0
C567 C 0.90985 0.78136 0.76166 0.0
C568 C 0.94653 0.76916 0.68478 0.0
C569 C 0.93595 0.76761 0.72671 0.0
C570 C 0.95965 0.76225 0.66742 0.0
C571 C 0.97543 0.74658 0.67287 0.0
C572 C 0.94953 0.76063 0.70784 0.0
C573 C 0.97788 0.73844 0.69612 0.0
C574 C 0.94385 0.76519 0.75102 0.0
C575 C 0.90234 0.78315 0.73715 0.0
N576 N 0.96515 0.74565 0.71279 0.0
N577 N 0.91547 0.77647 0.72055 0.0
H578 H 0.12889 0.89667 0.54218 0.0
H579 H 0.02802 0.8127 0.59716 0.0
H580 H 0.06012 0.91435 0.55237 0.0
H581 H 0.09396 0.7938 0.57924 0.0
H582 H 0.04192 0.85201 0.58712 0.0
H583 H 0.11887 0.86113 0.56219 0.0
C584 C 0.11178 0.89322 0.54888 0.0
C585 C 0.0952 0.9084 0.54532 0.0
C586 C 0.05341 0.83927 0.58563 0.0
C587 C 0.08349 0.86756 0.5681 0.0
C588 C 0.04552 0.81684 0.59142 0.0
C589 C 0.05969 0.79982 0.58874 0.0
C590 C 0.07566 0.84473 0.5772 0.0
C591 C 0.08225 0.80624 0.58127 0.0
C592 C 0.10604 0.87287 0.56027 0.0
C593 C 0.07338 0.90306 0.55456 0.0
N594 N 0.08943 0.82809 0.57562 0.0
N595 N 0.06804 0.88296 0.5653 0.0
H596 H 0.16881 0.70332 0.75447 0.0
H597 H 0.05021 0.73641 0.68109 0.0
H598 H 0.12674 0.74973 0.78239 0.0
H599 H 0.10276 0.70535 0.64877 0.0
H600 H 0.07407 0.73556 0.72022 0.0
H601 H 0.14047 0.69783 0.71774 0.0
C602 C 0.15346 0.71215 0.75302 0.0
C603 C 0.1503 0.72722 0.77146 0.0
C604 C 0.08027 0.72882 0.70456 0.0
C605 C 0.11783 0.72104 0.72937 0.0
C606 C 0.06665 0.72924 0.6822 0.0
C607 C 0.0746 0.72113 0.66153 0.0
C608 C 0.1019 0.72005 0.70631 0.0
C609 C 0.09604 0.712 0.66415 0.0
C610 C 0.13734 0.70907 0.73198 0.0
C611 C 0.13 0.73811 0.76856 0.0
N612 N 0.10896 0.71177 0.68611 0.0
N613 N 0.11461 0.73492 0.74784 0.0
H614 H 0.97849 0.5576 0.52953 0.0
H615 H 0.03819 0.68813 0.55321 0.0
H616 H 0.02894 0.59314 0.48686 0.0
H617 H 0.98657 0.65376 0.59539 0.0
H618 H 0.03841 0.65218 0.53177 0.0
H619 H 0.98463 0.59117 0.55675 0.0
C620 C 0.99106 0.57236 0.52601 0.0
C621 C 0.00303 0.57263 0.50571 0.0
C622 C 0.02719 0.65241 0.54586 0.0
C623 C 0.01003 0.61117 0.53675 0.0
C624 C 0.02711 0.67297 0.55821 0.0
C625 C 0.01229 0.67401 0.57612 0.0
C626 C 0.0122 0.63269 0.5513 0.0
C627 C 0.99821 0.65377 0.58165 0.0
C628 C 0.99452 0.59155 0.54155 0.0
C629 C 0.01917 0.59221 0.50215 0.0
N630 N 0.99837 0.63396 0.56914 0.0
N631 N 0.02204 0.61074 0.51739 0.0
H632 H 0.71247 0.9391 0.20163 0.0
H633 H 0.84996 0.95363 0.24662 0.0
H634 H 0.74042 0.89431 0.25347 0.0
H635 H 0.8154 0.012 0.2291 0.0
H636 H 0.81057 0.93047 0.24697 0.0
H637 H 0.75038 0.96537 0.20926 0.0
C638 C 0.7265 0.93499 0.21489 0.0
C639 C 0.72335 0.91458 0.22702 0.0
C640 C 0.81166 0.94841 0.24331 0.0
C641 C 0.7669 0.94418 0.23532 0.0
C642 C 0.83409 0.96159 0.24295 0.0
C643 C 0.83595 0.98475 0.23768 0.0
C644 C 0.79092 0.95831 0.2378 0.0
C645 C 0.81479 0.99422 0.23325 0.0
C646 C 0.74808 0.94998 0.21925 0.0
C647 C 0.74209 0.90999 0.24395 0.0
N648 N 0.79313 0.98088 0.23304 0.0
N649 N 0.76329 0.92449 0.2473 0.0
H650 H 0.85551 0.21931 0.32382 0.0
H651 H 0.83604 0.09315 0.26439 0.0
H652 H 0.78866 0.18637 0.2846 0.0
H653 H 0.90382 0.1278 0.30013 0.0
H654 H 0.81718 0.12536 0.27563 0.0
H655 H 0.87229 0.1843 0.31914 0.0
C656 C 0.8443 0.20467 0.31436 0.0
C657 C 0.82069 0.20585 0.30441 0.0
C658 C 0.83615 0.12584 0.28118 0.0
C659 C 0.83984 0.16568 0.29892 0.0
C660 C 0.84693 0.10741 0.27482 0.0
C661 C 0.87162 0.10786 0.28112 0.0
C662 C 0.85015 0.14487 0.29393 0.0
C663 C 0.88478 0.12677 0.29471 0.0
C664 C 0.8539 0.18467 0.31168 0.0
C665 C 0.80698 0.18629 0.29243 0.0
N666 N 0.87392 0.14458 0.3005 0.0
N667 N 0.8168 0.16706 0.2899 0.0
H668 H 0.34388 0.96086 0.95581 0.0
H669 H 0.3152 0.8449 0.02357 0.0
H670 H 0.36827 0.89815 0.93783 0.0
H671 H 0.27106 0.89795 0.02193 0.0
H672 H 0.34214 0.86833 1.00029 0.0
H673 H 0.32428 0.94165 0.98782 0.0
C674 C 0.34541 0.94316 0.95882 0.0
C675 C 0.35751 0.93099 0.944 0.0
C676 C 0.32671 0.87493 0.0053 0.0
C677 C 0.33534 0.90907 0.98058 0.0
C678 C 0.31136 0.86164 0.01872 0.0
C679 C 0.2906 0.86931 0.02448 0.0
C680 C 0.32144 0.89616 0.99773 0.0
C681 C 0.28668 0.89121 0.01768 0.0
C682 C 0.33417 0.93222 0.97701 0.0
C683 C 0.35892 0.90809 0.94868 0.0
N684 N 0.30185 0.9038 0.00449 0.0
N685 N 0.34789 0.89785 0.9665 0.0
H686 H 0.20884 0.34089 0.3562 0.0
H687 H 0.1837 0.43495 0.26158 0.0
H688 H 0.23256 0.34303 0.28642 0.0
H689 H 0.15401 0.43025 0.32834 0.0
H690 H 0.19772 0.39863 0.26864 0.0
H691 H 0.18509 0.37094 0.34492 0.0
C692 C 0.20887 0.34748 0.33843 0.0
C693 C 0.22298 0.3396 0.32235 0.0
C694 C 0.18788 0.40535 0.28164 0.0
C695 C 0.19589 0.37405 0.30937 0.0
C696 C 0.17983 0.42612 0.27759 0.0
C697 C 0.16791 0.43583 0.29453 0.0
C698 C 0.18429 0.39425 0.30295 0.0
C699 C 0.16321 0.42345 0.31483 0.0
C700 C 0.19528 0.36464 0.332 0.0
C701 C 0.22218 0.34871 0.29952 0.0
N702 N 0.17174 0.40347 0.31866 0.0
N703 N 0.2091 0.36557 0.29382 0.0
H704 H 0.09981 0.05608 0.50077 0.0
H705 H 0.17044 0.16269 0.50112 0.0
H706 H 0.16656 0.03003 0.51434 0.0
H707 H 0.22802 0.13032 0.53515 0.0
H708 H 0.14462 0.12599 0.49668 0.0
H709 H 0.12169 0.09475 0.50549 0.0
C710 C 0.11913 0.05851 0.50423 0.0
C711 C 0.13138 0.03978 0.50651 0.0
C712 C 0.16269 0.12679 0.50558 0.0
C713 C 0.15689 0.08422 0.51181 0.0
C714 C 0.17761 0.14787 0.50792 0.0
C715 C 0.20149 0.14971 0.51862 0.0
C716 C 0.17159 0.10728 0.51419 0.0
C717 C 0.20976 0.12979 0.52682 0.0
C718 C 0.13174 0.08071 0.50693 0.0
C719 C 0.15638 0.04399 0.51222 0.0
N720 N 0.19485 0.10945 0.52439 0.0
N721 N 0.16829 0.06572 0.51456 0.0
H722 H 0.72563 0.19437 0.8082 0.0
H723 H 0.71002 0.05848 0.7913 0.0
H724 H 0.78401 0.15757 0.80024 0.0
H725 H 0.65486 0.09435 0.81166 0.0
H726 H 0.73586 0.09501 0.78923 0.0
H727 H 0.69822 0.15823 0.80478 0.0
C728 C 0.7327 0.1787 0.80567 0.0
C729 C 0.75721 0.17901 0.80464 0.0
C730 C 0.71804 0.0949 0.79398 0.0
C731 C 0.72584 0.13755 0.8006 0.0
C732 C 0.7032 0.07405 0.79503 0.0
C733 C 0.68026 0.07335 0.80177 0.0
C734 C 0.70988 0.11523 0.79966 0.0
C735 C 0.67245 0.09408 0.80649 0.0
C736 C 0.71701 0.15807 0.80372 0.0
C737 C 0.76529 0.15815 0.80127 0.0
N738 N 0.68727 0.11417 0.80545 0.0
N739 N 0.74965 0.13827 0.79941 0.0
H740 H 0.36991 0.04903 0.60845 0.0
H741 H 0.33452 0.1561 0.53561 0.0
H742 H 0.41317 0.08432 0.55909 0.0
H743 H 0.2942 0.12401 0.58899 0.0
H744 H 0.36312 0.12954 0.54342 0.0
H745 H 0.34184 0.07616 0.60135 0.0
C746 C 0.37359 0.06255 0.59621 0.0
C747 C 0.39395 0.06437 0.58434 0.0
C748 C 0.34802 0.12831 0.55343 0.0
C749 C 0.36173 0.09544 0.57598 0.0
C750 C 0.33162 0.14344 0.54894 0.0
C751 C 0.31189 0.14231 0.56167 0.0
C752 C 0.34467 0.11185 0.57074 0.0
C753 C 0.30913 0.12555 0.57875 0.0
C754 C 0.35751 0.07803 0.59213 0.0
C755 C 0.39773 0.08225 0.56866 0.0
N756 N 0.32531 0.11099 0.58277 0.0
N757 N 0.38175 0.09702 0.56488 0.0
H758 H 0.58583 0.44875 0.42084 0.0
H759 H 0.65257 0.38906 0.53017 0.0
H760 H 0.56715 0.4491 0.49268 0.0
H761 H 0.67281 0.38867 0.45894 0.0
H762 H 0.62244 0.41261 0.51686 0.0
H763 H 0.61896 0.42841 0.43455 0.0
C764 C 0.58877 0.44468 0.43952 0.0
C765 C 0.57361 0.45057 0.45561 0.0
C766 C 0.63349 0.40747 0.50411 0.0
C767 C 0.61144 0.42722 0.47139 0.0
C768 C 0.65074 0.39397 0.51171 0.0
C769 C 0.6652 0.38674 0.49562 0.0
C770 C 0.63052 0.4138 0.48019 0.0
C771 C 0.66203 0.39379 0.47195 0.0
C772 C 0.60768 0.43305 0.44732 0.0
C773 C 0.5783 0.44486 0.47961 0.0
N774 N 0.64494 0.40685 0.46491 0.0
N775 N 0.59671 0.43344 0.48672 0.0
H776 H 0.7256 0.23298 0.36598 0.0
H777 H 0.70098 0.32516 0.46081 0.0
H778 H 0.75009 0.30507 0.36258 0.0
H779 H 0.72418 0.26212 0.48297 0.0
H780 H 0.70343 0.31417 0.41915 0.0
H781 H 0.71003 0.2404 0.40378 0.0
C782 C 0.72715 0.25038 0.37291 0.0
C783 C 0.7392 0.26847 0.36139 0.0
C784 C 0.70741 0.30256 0.43314 0.0
C785 C 0.72118 0.27699 0.40385 0.0
C786 C 0.70589 0.30872 0.45686 0.0
C787 C 0.71261 0.2946 0.47536 0.0
C788 C 0.71517 0.28195 0.4279 0.0
C789 C 0.71907 0.27356 0.46922 0.0
C790 C 0.7184 0.25455 0.3944 0.0
C791 C 0.74103 0.29068 0.3711 0.0
N792 N 0.72031 0.26789 0.44596 0.0
N793 N 0.73209 0.29435 0.39179 0.0
H794 H 0.47332 0.0175 0.9075 0.0
H795 H 0.57003 0.97311 0.83512 0.0
H796 H 0.46324 0.9507 0.87269 0.0
H797 H 0.58404 0.03601 0.87796 0.0
H798 H 0.53125 0.96416 0.84966 0.0
H799 H 0.51444 0.02407 0.89834 0.0
C800 C 0.47992 0.00395 0.89857 0.0
C801 C 0.46492 0.98333 0.8913 0.0
C802 C 0.54286 0.97986 0.856 0.0
C803 C 0.51174 0.9911 0.87982 0.0
C804 C 0.56501 0.98499 0.84767 0.0
C805 C 0.58028 0.0054 0.85523 0.0
C806 C 0.53581 0.99531 0.87189 0.0
C807 C 0.57284 0.02011 0.87158 0.0
C808 C 0.50335 0.00784 0.89301 0.0
C809 C 0.47419 0.96684 0.87867 0.0
N810 N 0.55108 0.01485 0.87924 0.0
N811 N 0.49693 0.97111 0.87325 0.0
H812 H 0.28087 0.26151 0.34057 0.0
H813 H 0.30735 0.20729 0.46825 0.0
H814 H 0.3516 0.25455 0.37406 0.0
H815 H 0.23893 0.22507 0.43986 0.0
H816 H 0.32243 0.21803 0.43065 0.0
H817 H 0.26402 0.24226 0.37384 0.0
C818 C 0.29289 0.25618 0.355 0.0
C819 C 0.31775 0.26041 0.3549 0.0
C820 C 0.30404 0.21933 0.43258 0.0
C821 C 0.29853 0.23766 0.39275 0.0
C822 C 0.29537 0.21307 0.454 0.0
C823 C 0.27192 0.21557 0.45737 0.0
C824 C 0.28913 0.22802 0.41438 0.0
C825 C 0.25723 0.22315 0.43822 0.0
C826 C 0.28323 0.24491 0.37388 0.0
C827 C 0.33234 0.25193 0.37353 0.0
N828 N 0.26613 0.22929 0.41767 0.0
N829 N 0.32254 0.24117 0.3918 0.0
H830 H 0.50664 0.48835 0.90224 0.0
H831 H 0.4308 0.56159 0.81302 0.0
H832 H 0.51318 0.56164 0.90965 0.0
H833 H 0.44047 0.49241 0.79719 0.0
H834 H 0.45583 0.56082 0.85165 0.0
H835 H 0.47736 0.48864 0.86679 0.0
C836 C 0.50187 0.50453 0.89648 0.0
C837 C 0.51254 0.52503 0.90886 0.0
C838 C 0.45231 0.54579 0.83974 0.0
C839 C 0.47887 0.52544 0.86821 0.0
C840 C 0.43793 0.54616 0.81776 0.0
C841 C 0.43367 0.52708 0.80176 0.0
C842 C 0.46226 0.52613 0.84584 0.0
C843 C 0.44344 0.50759 0.80884 0.0
C844 C 0.48514 0.50467 0.87619 0.0
C845 C 0.50553 0.54545 0.90055 0.0
N846 N 0.45729 0.50764 0.83031 0.0
N847 N 0.48914 0.54515 0.8807 0.0
H848 H 0.67024 0.82508 0.1116 0.0
H849 H 0.74406 0.72059 0.11331 0.0
H850 H 0.69515 0.79384 0.17659 0.0
H851 H 0.72078 0.75467 0.04967 0.0
H852 H 0.72354 0.74486 0.13668 0.0
H853 H 0.6859 0.79702 0.08847 0.0
C854 C 0.67892 0.81225 0.12102 0.0
C855 C 0.68151 0.81191 0.14609 0.0
C856 C 0.72277 0.74684 0.11756 0.0
C857 C 0.69963 0.77967 0.11966 0.0
C858 C 0.73443 0.73297 0.10421 0.0
C859 C 0.73414 0.73556 0.07947 0.0
C860 C 0.71078 0.76342 0.10606 0.0
C861 C 0.72143 0.75192 0.06863 0.0
C862 C 0.68788 0.79619 0.10779 0.0
C863 C 0.69284 0.79479 0.15729 0.0
N864 N 0.71038 0.76525 0.08199 0.0
N865 N 0.70161 0.77942 0.144 0.0
H866 H 0.97256 0.02169 0.07741 0.0
H867 H 0.87373 0.05387 0.15472 0.0
H868 H 0.90865 0.04648 0.04639 0.0
H869 H 0.93114 0.0182 0.18258 0.0
H870 H 0.88536 0.05035 0.11469 0.0
H871 H 0.95728 0.01988 0.11596 0.0
C872 C 0.95529 0.02675 0.07869 0.0
C873 C 0.94193 0.03437 0.05863 0.0
C874 C 0.89524 0.04307 0.12951 0.0
C875 C 0.9243 0.03233 0.10282 0.0
C876 C 0.88858 0.04503 0.15237 0.0
C877 C 0.90157 0.03643 0.17206 0.0
C878 C 0.91519 0.03264 0.12634 0.0
C879 C 0.92063 0.02511 0.16794 0.0
C880 C 0.94652 0.02561 0.10071 0.0
C881 C 0.9196 0.04055 0.06137 0.0
N882 N 0.92702 0.02377 0.1456 0.0
N883 N 0.91156 0.03954 0.08308 0.0
H884 H 0.29593 0.85292 0.23131 0.0
H885 H 0.24755 0.79683 0.10037 0.0
H886 H 0.28245 0.78024 0.21579 0.0
H887 H 0.24362 0.86639 0.12108 0.0
H888 H 0.26652 0.79143 0.1409 0.0
H889 H 0.28327 0.85903 0.18917 0.0
C890 C 0.29057 0.83824 0.219 0.0
C891 C 0.29007 0.81602 0.22714 0.0
C892 C 0.26161 0.8079 0.13651 0.0
C893 C 0.27548 0.82292 0.17887 0.0
C894 C 0.25086 0.81102 0.11337 0.0
C895 C 0.24388 0.83207 0.10738 0.0
C896 C 0.26559 0.826 0.15371 0.0
C897 C 0.24855 0.84984 0.12497 0.0
C898 C 0.28324 0.84175 0.19496 0.0
C899 C 0.28296 0.79766 0.21034 0.0
N900 N 0.25908 0.84639 0.14733 0.0
N901 N 0.27585 0.80152 0.18702 0.0
H902 H 0.03054 0.49389 0.11826 0.0
H903 H 0.07712 0.50728 0.25877 0.0
H904 H 0.98861 0.51507 0.17064 0.0
H905 H 0.12336 0.50059 0.20491 0.0
H906 H 0.04356 0.50696 0.22705 0.0
H907 H 0.06378 0.49298 0.15008 0.0
C908 C 0.02818 0.498 0.1365 0.0
C909 C 0.00661 0.50415 0.14187 0.0
C910 C 0.06106 0.50557 0.22218 0.0
C911 C 0.04476 0.5036 0.17837 0.0
C912 C 0.08024 0.50567 0.2403 0.0
C913 C 0.10318 0.504 0.23456 0.0
C914 C 0.06472 0.50358 0.1981 0.0
C915 C 0.10606 0.50201 0.21024 0.0
C916 C 0.04727 0.49774 0.15464 0.0
C917 C 0.00491 0.51017 0.16573 0.0
N918 N 0.08707 0.50181 0.19294 0.0
N919 N 0.02368 0.50963 0.18312 0.0
H920 H 0.36781 0.74198 0.31168 0.0
H921 H 0.43683 0.74525 0.44247 0.0
H922 H 0.3603 0.79248 0.36514 0.0
H923 H 0.47564 0.7387 0.38245 0.0
H924 H 0.40275 0.75357 0.41485 0.0
H925 H 0.40226 0.73176 0.33809 0.0
C926 C 0.37332 0.75076 0.329 0.0
C927 C 0.3613 0.76808 0.33632 0.0
C928 C 0.41871 0.75018 0.40778 0.0
C929 C 0.39996 0.75626 0.36644 0.0
C930 C 0.43809 0.74536 0.42345 0.0
C931 C 0.45909 0.74138 0.4147 0.0
C932 C 0.42007 0.75042 0.38313 0.0
C933 C 0.4598 0.74185 0.38989 0.0
C934 C 0.39296 0.74505 0.34389 0.0
C935 C 0.3692 0.77911 0.3588 0.0
N936 N 0.44044 0.74613 0.37486 0.0
N937 N 0.38785 0.77284 0.37319 0.0
H938 H 0.03338 0.41084 0.05119 0.0
H939 H 0.99087 0.27676 0.02445 0.0
H940 H 0.97715 0.37074 0.08361 0.0
H941 H 0.0443 0.31688 0.98837 0.0
H942 H 0.98696 0.31087 0.04744 0.0
H943 H 0.03909 0.37646 0.02936 0.0
C944 C 0.02231 0.39481 0.05381 0.0
C945 C 0.00471 0.39371 0.06923 0.0
C946 C 0.99956 0.31224 0.03451 0.0
C947 C 0.01112 0.3543 0.04424 0.0
C948 C 0.00183 0.29273 0.02134 0.0
C949 C 0.01793 0.29388 0.00435 0.0
C950 C 0.0135 0.33317 0.03078 0.0
C951 C 0.03162 0.31513 0.00121 0.0
C952 C 0.02555 0.37519 0.0413 0.0
C953 C 0.99089 0.37245 0.0719 0.0
N954 N 0.02908 0.33392 0.01428 0.0
N955 N 0.99437 0.35364 0.05951 0.0
H956 H 0.68369 0.85215 0.34699 0.0
H957 H 0.55709 0.79906 0.38599 0.0
H958 H 0.61555 0.85861 0.30675 0.0
H959 H 0.62515 0.79308 0.42666 0.0
H960 H 0.57816 0.82269 0.3579 0.0
H961 H 0.66257 0.83227 0.37754 0.0
C962 C 0.66431 0.84952 0.34464 0.0
C963 C 0.65139 0.85697 0.3242 0.0
C964 C 0.58848 0.8163 0.37303 0.0
C965 C 0.62708 0.83413 0.35906 0.0
C966 C 0.57645 0.80281 0.3891 0.0
C967 C 0.58936 0.79396 0.40866 0.0
C968 C 0.61363 0.82095 0.37651 0.0
C969 C 0.61443 0.79944 0.41179 0.0
C970 C 0.65225 0.83814 0.36208 0.0
C971 C 0.62628 0.8531 0.32214 0.0
N972 N 0.62574 0.81247 0.39584 0.0
N973 N 0.61497 0.84187 0.33927 0.0
H974 H 0.02316 0.06027 0.91562 0.0
H975 H 0.02052 0.17878 0.98487 0.0
H976 H 0.01174 0.0653 0.98964 0.0
H977 H 0.04428 0.17366 0.91553 0.0
H978 H 0.0134 0.13712 0.98565 0.0
H979 H 0.02762 0.1017 0.91419 0.0
C980 C 0.02144 0.07005 0.93158 0.0
C981 C 0.01666 0.05913 0.95271 0.0
C982 C 0.0201 0.14512 0.97024 0.0
C983 C 0.02178 0.10676 0.95115 0.0
C984 C 0.02407 0.16891 0.96972 0.0
C985 C 0.03303 0.17973 0.9501 0.0
C986 C 0.02501 0.13205 0.95095 0.0
C987 C 0.03742 0.16606 0.93105 0.0
C988 C 0.02397 0.09374 0.93072 0.0
C989 C 0.01467 0.07277 0.97278 0.0
N990 N 0.03338 0.14295 0.93197 0.0
N991 N 0.01723 0.09586 0.97151 0.0
H992 H 0.43682 0.28309 0.26911 0.0
H993 H 0.42019 0.23606 0.1328 0.0
H994 H 0.36835 0.26753 0.22486 0.0
H995 H 0.48916 0.25741 0.17474 0.0
H996 H 0.40088 0.24615 0.16687 0.0
H997 H 0.45626 0.27208 0.2354 0.0
C998 C 0.42585 0.27725 0.25235 0.0
C999 C 0.4009 0.27626 0.2498 0.0
C1000 C 0.42023 0.24865 0.16863 0.0
C1001 C 0.42307 0.26371 0.2111 0.0
C1002 C 0.4313 0.2429 0.14916 0.0
C1003 C 0.45635 0.2459 0.15089 0.0
C1004 C 0.4343 0.25742 0.19007 0.0
C1005 C 0.46979 0.25484 0.17257 0.0
C1006 C 0.43698 0.27103 0.23308 0.0
C1007 C 0.38762 0.2686 0.22764 0.0
N1008 N 0.45859 0.26025 0.19132 0.0
N1009 N 0.39887 0.26264 0.20916 0.0
H1010 H 0.61096 0.39641 0.03006 0.0
H1011 H 0.5286 0.30776 0.10097 0.0
H1012 H 0.55619 0.41514 0.06934 0.0
H1013 H 0.58415 0.28994 0.06212 0.0
H1014 H 0.54131 0.34791 0.09346 0.0
H1015 H 0.60445 0.35825 0.04567 0.0
C1016 C 0.59775 0.39259 0.0422 0.0
C1017 C 0.58394 0.40894 0.04821 0.0
C1018 C 0.55084 0.33522 0.08678 0.0
C1019 C 0.57617 0.36513 0.06596 0.0
C1020 C 0.54361 0.31226 0.09107 0.0
C1021 C 0.55512 0.29534 0.08193 0.0
C1022 C 0.5697 0.34132 0.07321 0.0
C1023 C 0.57453 0.30229 0.06932 0.0
C1024 C 0.594 0.37075 0.05109 0.0
C1025 C 0.56717 0.40303 0.06412 0.0
N1026 N 0.58105 0.32468 0.06518 0.0
N1027 N 0.56357 0.38154 0.07224 0.0
H1028 H 0.67827 0.1952 0.22884 0.0
H1029 H 0.55058 0.22275 0.17145 0.0
H1030 H 0.63068 0.22516 0.26934 0.0
H1031 H 0.60239 0.20048 0.1304 0.0
H1032 H 0.57748 0.21951 0.20818 0.0
H1033 H 0.64836 0.19259 0.19349 0.0
C1034 C 0.66144 0.20106 0.23038 0.0
C1035 C 0.65708 0.2106 0.25208 0.0
C1036 C 0.58288 0.21522 0.19113 0.0
C1037 C 0.62272 0.20776 0.21151 0.0
C1038 C 0.56751 0.21702 0.17012 0.0
C1039 C 0.57427 0.21204 0.14771 0.0
C1040 C 0.60516 0.20831 0.18978 0.0
C1041 C 0.59645 0.20466 0.1472 0.0
C1042 C 0.64437 0.19961 0.21013 0.0
C1043 C 0.63486 0.2178 0.25296 0.0
N1044 N 0.6111 0.20311 0.16789 0.0
N1045 N 0.61857 0.21637 0.23292 0.0
H1046 H 0.51456 0.0931 0.96682 0.0
H1047 H 0.47906 0.14983 0.08464 0.0
H1048 H 0.46258 0.05929 0.00897 0.0
H1049 H 0.52748 0.18488 0.03967 0.0
H1050 H 0.47591 0.11512 0.05954 0.0
H1051 H 0.52263 0.12545 0.99573 0.0
C1052 C 0.50495 0.09239 0.98223 0.0
C1053 C 0.48772 0.0735 0.98535 0.0
C1054 C 0.48738 0.13036 0.05529 0.0
C1055 C 0.49684 0.11057 0.01852 0.0
C1056 C 0.48922 0.15018 0.06965 0.0
C1057 C 0.50351 0.17033 0.06423 0.0
C1058 C 0.49989 0.1307 0.03534 0.0
C1059 C 0.51628 0.16976 0.04457 0.0
C1060 C 0.50956 0.1109 0.99873 0.0
C1061 C 0.47591 0.07354 0.00574 0.0
N1062 N 0.51405 0.15033 0.03078 0.0
N1063 N 0.48059 0.09183 0.02147 0.0
H1064 H 0.21083 0.4391 0.69966 0.0
H1065 H 0.34802 0.45768 0.74661 0.0
H1066 H 0.23973 0.39613 0.75294 0.0
H1067 H 0.31202 0.5146 0.72651 0.0
H1068 H 0.30904 0.43385 0.74711 0.0
H1069 H 0.24801 0.46641 0.70733 0.0
C1070 C 0.2249 0.43561 0.71324 0.0
C1071 C 0.22223 0.41541 0.72576 0.0
C1072 C 0.30971 0.45162 0.74286 0.0
C1073 C 0.26495 0.44621 0.73413 0.0
C1074 C 0.33191 0.46519 0.74242 0.0
C1075 C 0.33324 0.48812 0.73636 0.0
C1076 C 0.28868 0.46089 0.73663 0.0
C1077 C 0.3118 0.49701 0.73128 0.0
C1078 C 0.24606 0.4512 0.71763 0.0
C1079 C 0.241 0.41164 0.74311 0.0
N1080 N 0.29037 0.48328 0.73115 0.0
N1081 N 0.26179 0.42671 0.74649 0.0
H1082 H 0.36071 0.72511 0.82284 0.0
H1083 H 0.33458 0.60008 0.76001 0.0
H1084 H 0.29387 0.69723 0.78009 0.0
H1085 H 0.40263 0.62998 0.79926 0.0
H1086 H 0.31777 0.63369 0.77107 0.0
H1087 H 0.37479 0.68871 0.81805 0.0
C1088 C 0.34893 0.71129 0.81255 0.0
C1089 C 0.32614 0.7143 0.80168 0.0
C1090 C 0.33632 0.6328 0.77742 0.0
C1091 C 0.3422 0.67252 0.79607 0.0
C1092 C 0.34593 0.61358 0.77118 0.0
C1093 C 0.37013 0.6123 0.77851 0.0
C1094 C 0.35103 0.65088 0.7911 0.0
C1095 C 0.38394 0.63029 0.79301 0.0
C1096 C 0.35699 0.69049 0.80982 0.0
C1097 C 0.31162 0.69573 0.78866 0.0
N1098 N 0.37424 0.64889 0.79867 0.0
N1099 N 0.31995 0.67568 0.7861 0.0
H1100 H 0.87996 0.44762 0.47961 0.0
H1101 H 0.74905 0.38823 0.49745 0.0
H1102 H 0.82097 0.43778 0.42235 0.0
H1103 H 0.81176 0.36679 0.53587 0.0
H1104 H 0.7749 0.41363 0.47467 0.0
H1105 H 0.85477 0.42418 0.505 0.0
C1106 C 0.86174 0.44052 0.4724 0.0
C1107 C 0.85254 0.44453 0.44882 0.0
C1108 C 0.78296 0.40346 0.48822 0.0
C1109 C 0.82368 0.41833 0.47781 0.0
C1110 C 0.76826 0.38912 0.50138 0.0
C1111 C 0.77827 0.3753 0.51853 0.0
C1112 C 0.80785 0.40433 0.49254 0.0
C1113 C 0.80331 0.37706 0.5227 0.0
C1114 C 0.84745 0.42718 0.48685 0.0
C1115 C 0.82883 0.43496 0.44035 0.0
N1116 N 0.81729 0.39135 0.50981 0.0
N1117 N 0.81514 0.42247 0.4549 0.0
H1118 H 0.71202 0.85099 0.86096 0.0
H1119 H 0.68856 0.94514 0.76578 0.0
H1120 H 0.7371 0.85319 0.79181 0.0
H1121 H 0.6572 0.94024 0.83161 0.0
H1122 H 0.70301 0.90913 0.77351 0.0
H1123 H 0.68875 0.88132 0.84934 0.0
C1124 C 0.71247 0.85767 0.84326 0.0
C1125 C 0.72678 0.84968 0.82745 0.0
C1126 C 0.69274 0.91574 0.78617 0.0
C1127 C 0.70024 0.88445 0.81408 0.0
C1128 C 0.68445 0.93635 0.78175 0.0
C1129 C 0.67187 0.94589 0.7982 0.0
C1130 C 0.68872 0.90464 0.80738 0.0
C1131 C 0.66689 0.93356 0.81846 0.0
C1132 C 0.69915 0.87499 0.83664 0.0
C1133 C 0.72654 0.85893 0.8047 0.0
N1134 N 0.67564 0.91373 0.82266 0.0
N1135 N 0.71369 0.87592 0.79881 0.0
H1136 H 0.59444 0.56293 0.99983 0.0
H1137 H 0.72793 0.63006 0.03378 0.0
H1138 H 0.65478 0.52982 0.02439 0.0
H1139 H 0.66755 0.66203 0.00609 0.0
H1140 H 0.70156 0.59326 0.03095 0.0
H1141 H 0.62103 0.59942 0.00245 0.0
C1142 C 0.61333 0.56324 0.0054 0.0
C1143 C 0.62244 0.54317 0.01136 0.0
C1144 C 0.69411 0.60834 0.02548 0.0
C1145 C 0.65304 0.58511 0.01505 0.0
C1146 C 0.70917 0.62938 0.02708 0.0
C1147 C 0.7 0.64925 0.02016 0.0
C1148 C 0.66968 0.60712 0.01694 0.0
C1149 C 0.67549 0.64724 0.01163 0.0
C1150 C 0.62851 0.58417 0.00715 0.0
C1151 C 0.64699 0.54486 0.01951 0.0
N1152 N 0.66123 0.6266 0.01029 0.0
N1153 N 0.66145 0.56544 0.02104 0.0
H1154 H 0.22921 0.68382 0.30671 0.0
H1155 H 0.20999 0.54778 0.28983 0.0
H1156 H 0.28623 0.64578 0.29699 0.0
H1157 H 0.15687 0.58526 0.31208 0.0
H1158 H 0.23663 0.58379 0.28734 0.0
H1159 H 0.20123 0.64814 0.30411 0.0
C1160 C 0.23587 0.66797 0.30396 0.0
C1161 C 0.26017 0.66781 0.3022 0.0
C1162 C 0.21909 0.58414 0.29261 0.0
C1163 C 0.22809 0.62681 0.29912 0.0
C1164 C 0.20379 0.56359 0.2939 0.0
C1165 C 0.18117 0.5635 0.30126 0.0
C1166 C 0.2117 0.60477 0.29863 0.0
C1167 C 0.17417 0.58451 0.30641 0.0
C1168 C 0.21984 0.64758 0.30249 0.0
C1169 C 0.26769 0.64671 0.29857 0.0
N1170 N 0.18941 0.60429 0.30509 0.0
N1171 N 0.25171 0.62706 0.29719 0.0
H1172 H 0.86918 0.55171 0.1109 0.0
H1173 H 0.83307 0.65758 0.03642 0.0
H1174 H 0.91198 0.58612 0.06067 0.0
H1175 H 0.79308 0.62608 0.09034 0.0
H1176 H 0.86191 0.63131 0.04467 0.0
H1177 H 0.84113 0.57882 0.10359 0.0
C1178 C 0.87276 0.56504 0.09843 0.0
C1179 C 0.89298 0.56661 0.08637 0.0
C1180 C 0.84683 0.63015 0.0547 0.0
C1181 C 0.86077 0.59765 0.07774 0.0
C1182 C 0.8303 0.64512 0.04995 0.0
C1183 C 0.81058 0.64406 0.0627 0.0
C1184 C 0.84363 0.61393 0.07228 0.0
C1185 C 0.80799 0.62756 0.08006 0.0
C1186 C 0.8567 0.58051 0.09422 0.0
C1187 C 0.89666 0.58425 0.07039 0.0
N1188 N 0.82429 0.61316 0.08432 0.0
N1189 N 0.88067 0.59901 0.06648 0.0
H1190 H 0.07826 0.93606 0.92155 0.0
H1191 H 0.17596 0.90463 0.02529 0.0
H1192 H 0.08534 0.96217 0.99459 0.0
H1193 H 0.151 0.86278 0.96079 0.0
H1194 H 0.14876 0.93116 0.01133 0.0
H1195 H 0.11086 0.91438 0.93295 0.0
C1196 C 0.08684 0.93743 0.93992 0.0
C1197 C 0.07894 0.9508 0.95719 0.0
C1198 C 0.14941 0.91626 1.00018 0.0
C1199 C 0.11627 0.92612 0.97029 0.0
C1200 C 0.165 0.90116 0.00806 0.0
C1201 C 0.16559 0.88135 0.99427 0.0
C1202 C 0.13454 0.91164 0.97823 0.0
C1203 C 0.15096 0.87773 0.9721 0.0
C1204 C 0.10537 0.92499 0.94642 0.0
C1205 C 0.09072 0.95193 0.98074 0.0
N1206 N 0.13599 0.8927 0.96479 0.0
N1207 N 0.10877 0.93971 0.98661 0.0
loop_
_geom_bond_atom_site_label_1
_geom_bond_atom_site_label_2
_geom_bond_distance
_geom_bond_site_symmetry_2
_ccdc_geom_bond_type
O0 Cd1 2.300 . S
O0 C7 1.275 . S
Cd1 O0 2.300 . S
Cd1 O9 2.381 . S
Cd1 O10 2.378 . S
O2 Cd3 2.385 . S
O2 C7 1.255 . S
Cd3 O2 2.385 . S
Cd3 O4 2.317 . S
O4 Cd3 2.317 . S
O4 C5 1.232 1_455 S
C5 O4 1.232 1_655 S
C5 O6 1.218 . S
O6 C5 1.218 . S
C7 O0 1.275 . S
C7 O2 1.255 . S
C8 O9 1.259 1_565 S
C8 O10 1.256 1_565 S
O9 Cd1 2.381 . S
O9 C8 1.259 1_545 S
O10 Cd1 2.378 . S
O10 C8 1.256 1_545 S
O11 Cd12 2.300 . S
O11 C18 1.275 . S
Cd12 O11 2.300 . S
Cd12 O20 2.381 . S
Cd12 O21 2.378 . S
O13 Cd14 2.385 . S
O13 C18 1.255 . S
Cd14 O13 2.385 . S
Cd14 O15 2.317 . S
O15 Cd14 2.317 . S
O15 C16 1.232 . S
C16 O15 1.232 . S
C16 O17 1.218 . S
O17 C16 1.218 . S
C18 O11 1.275 . S
C18 O13 1.255 . S
C19 O20 1.258 . S
C19 O21 1.256 . S
O20 Cd12 2.381 . S
O20 C19 1.258 . S
O21 Cd12 2.378 . S
O21 C19 1.256 . S
O22 Cd23 2.300 . S
O22 C29 1.275 . S
Cd23 O22 2.300 . S
Cd23 O31 2.381 . S
Cd23 O32 2.378 . S
O24 Cd25 2.385 . S
O24 C29 1.255 1_455 S
Cd25 O24 2.385 . S
Cd25 O26 2.317 1_455 S
O26 Cd25 2.317 1_655 S
O26 C27 1.232 . S
C27 O26 1.232 . S
C27 O28 1.218 1_655 S
O28 C27 1.218 1_455 S
C29 O22 1.275 . S
C29 O24 1.255 1_655 S
C30 O31 1.258 . S
C30 O32 1.256 . S
O31 Cd23 2.381 . S
O31 C30 1.258 . S
O32 Cd23 2.378 . S
O32 C30 1.256 . S
O33 Cd34 2.300 . S
O33 C40 1.275 . S
Cd34 O33 2.300 . S
Cd34 O42 2.381 . S
Cd34 O43 2.378 . S
O35 Cd36 2.385 . S
O35 C40 1.255 . S
Cd36 O35 2.385 . S
Cd36 O37 2.317 . S
O37 Cd36 2.317 . S
O37 C38 1.232 . S
C38 O37 1.232 . S
C38 O39 1.218 . S
O39 C38 1.218 . S
C40 O33 1.275 . S
C40 O35 1.255 . S
C41 O42 1.258 . S
C41 O43 1.256 . S
O42 Cd34 2.381 . S
O42 C41 1.258 . S
O43 Cd34 2.378 . S
O43 C41 1.256 . S
O44 Cd45 2.300 . S
O44 C51 1.275 1_565 S
Cd45 O44 2.300 . S
Cd45 O53 2.381 . S
Cd45 O54 2.378 . S
O46 Cd47 2.385 . S
O46 C51 1.255 . S
Cd47 O46 2.385 . S
Cd47 O48 2.292 1_545 S
O48 Cd47 2.292 1_565 S
O48 C49 1.213 1_565 S
C49 O48 1.213 1_545 S
C49 O50 1.218 . S
O50 C49 1.218 . S
C51 O44 1.275 1_545 S
C51 O46 1.255 . S
C52 O53 1.258 . S
C52 O54 1.256 . S
O53 Cd45 2.381 . S
O53 C52 1.258 . S
O54 Cd45 2.378 . S
O54 C52 1.256 . S
O55 Cd56 2.300 . S
O55 C62 1.275 . S
Cd56 O55 2.300 . S
Cd56 O64 2.381 . S
Cd56 O65 2.378 . S
O57 Cd58 2.385 . S
O57 C62 1.255 . S
Cd58 O57 2.385 . S
Cd58 O59 2.317 . S
O59 Cd58 2.317 . S
O59 C60 1.232 . S
C60 O59 1.232 . S
C60 O61 1.218 . S
O61 C60 1.218 . S
C62 O55 1.275 . S
C62 O57 1.255 . S
C63 O64 1.258 . S
C63 O65 1.256 . S
O64 Cd56 2.381 . S
O64 C63 1.258 . S
O65 Cd56 2.378 . S
O65 C63 1.256 . S
O66 Cd67 2.300 . S
O66 C73 1.275 . S
Cd67 O66 2.300 . S
Cd67 O75 2.381 . S
Cd67 O76 2.378 . S
O68 Cd69 2.385 . S
O68 C73 1.255 1_455 S
Cd69 O68 2.385 . S
Cd69 O70 2.317 1_455 S
O70 Cd69 2.317 1_655 S
O70 C71 1.225 1_655 S
C71 O70 1.225 1_455 S
C71 O72 1.233 . S
O72 C71 1.233 . S
C73 O66 1.275 . S
C73 O68 1.255 1_655 S
C74 O75 1.258 . S
C74 O76 1.256 . S
O75 Cd67 2.381 . S
O75 C74 1.258 . S
O76 Cd67 2.378 . S
O76 C74 1.256 . S
O77 Cd78 2.300 . S
O77 C84 1.275 . S
Cd78 O77 2.300 . S
Cd78 O86 2.381 . S
Cd78 O87 2.378 . S
O79 Cd80 2.385 . S
O79 C84 1.255 . S
Cd80 O79 2.385 . S
Cd80 O81 2.317 . S
O81 Cd80 2.317 . S
O81 C82 1.232 . S
C82 O81 1.232 . S
C82 O83 1.218 . S
O83 C82 1.218 . S
C84 O77 1.275 . S
C84 O79 1.255 . S
C85 O86 1.258 . S
C85 O87 1.256 . S
O86 Cd78 2.381 . S
O86 C85 1.258 . S
O87 Cd78 2.378 . S
O87 C85 1.256 . S
O88 Cd89 2.300 . S
O88 C95 1.275 . S
Cd89 O88 2.300 . S
Cd89 O97 2.381 . S
Cd89 O98 2.378 . S
O90 Cd91 2.385 . S
O90 C95 1.255 . S
Cd91 O90 2.385 . S
Cd91 O92 2.317 . S
O92 Cd91 2.317 . S
O92 C93 1.232 . S
C93 O92 1.232 . S
C93 O94 1.218 . S
O94 C93 1.218 . S
C95 O88 1.275 . S
C95 O90 1.255 . S
C96 O97 1.258 . S
C96 O98 1.256 . S
O97 Cd89 2.381 . S
O97 C96 1.258 . S
O98 Cd89 2.378 . S
O98 C96 1.256 . S
O99 Cd100 2.300 1_565 S
O99 C106 1.275 . S
Cd100 O99 2.300 1_545 S
Cd100 O108 2.381 . S
Cd100 O109 2.378 . S
O101 Cd102 2.385 . S
O101 C106 1.255 . S
Cd102 O101 2.385 . S
Cd102 O103 2.317 . S
O103 Cd102 2.317 . S
O103 C104 1.232 . S
C104 O103 1.232 . S
C104 O105 1.218 . S
O105 C104 1.218 . S
C106 O99 1.275 . S
C106 O101 1.255 . S
C107 O108 1.258 . S
C107 O109 1.256 . S
O108 Cd100 2.381 . S
O108 C107 1.258 . S
O109 Cd100 2.378 . S
O109 C107 1.256 . S
O110 Cd111 2.300 . S
O110 C117 1.275 . S
Cd111 O110 2.300 . S
Cd111 O119 2.381 . S
Cd111 O120 2.378 . S
O112 Cd113 2.385 . S
O112 C117 1.255 . S
Cd113 O112 2.385 . S
Cd113 O114 2.317 . S
O114 Cd113 2.317 . S
O114 C115 1.232 . S
C115 O114 1.232 . S
C115 O116 1.218 . S
O116 C115 1.218 . S
C117 O110 1.275 . S
C117 O112 1.255 . S
C118 O119 1.258 . S
C118 O120 1.256 . S
O119 Cd111 2.381 . S
O119 C118 1.258 . S
O120 Cd111 2.378 . S
O120 C118 1.256 . S
O121 Cd122 2.300 . S
O121 C128 1.275 . S
Cd122 O121 2.300 . S
Cd122 O130 2.381 . S
Cd122 O131 2.378 . S
O123 Cd124 2.385 . S
O123 C128 1.255 . S
Cd124 O123 2.385 . S
Cd124 O125 2.317 . S
O125 Cd124 2.317 . S
O125 C126 1.232 . S
C126 O125 1.232 . S
C126 O127 1.218 . S
O127 C126 1.218 . S
C128 O121 1.275 . S
C128 O123 1.255 . S
C129 O130 1.258 . S
C129 O131 1.256 . S
O130 Cd122 2.381 . S
O130 C129 1.258 . S
O131 Cd122 2.378 . S
O131 C129 1.256 . S
O132 Cd133 2.300 . S
O132 C139 1.275 . S
Cd133 O132 2.300 . S
Cd133 O141 2.381 . S
Cd133 O142 2.378 . S
O134 Cd135 2.385 . S
O134 C139 1.255 . S
Cd135 O134 2.385 . S
Cd135 O136 2.317 . S
O136 Cd135 2.317 . S
O136 C137 1.232 . S
C137 O136 1.232 . S
C137 O138 1.218 . S
O138 C137 1.218 . S
C139 O132 1.275 . S
C139 O134 1.255 . S
C140 O141 1.258 . S
C140 O142 1.256 . S
O141 Cd133 2.381 . S
O141 C140 1.258 . S
O142 Cd133 2.378 . S
O142 C140 1.256 . S
O143 Cd144 2.300 1_556 S
O143 C150 1.275 . S
Cd144 O143 2.300 1_554 S
Cd144 O152 2.381 . S
Cd144 O153 2.378 . S
O145 Cd146 2.385 . S
O145 C150 1.255 . S
Cd146 O145 2.385 . S
Cd146 O147 2.317 . S
O147 Cd146 2.317 . S
O147 C148 1.232 . S
C148 O147 1.232 . S
C148 O149 1.218 . S
O149 C148 1.218 . S
C150 O143 1.275 . S
C150 O145 1.255 . S
C151 O152 1.258 . S
C151 O153 1.256 . S
O152 Cd144 2.381 . S
O152 C151 1.258 . S
O153 Cd144 2.378 . S
O153 C151 1.256 . S
O154 Cd155 2.300 . S
O154 C161 1.275 . S
Cd155 O154 2.300 . S
Cd155 O163 2.381 . S
Cd155 O164 2.378 . S
O156 Cd157 2.385 . S
O156 C161 1.255 . S
Cd157 O156 2.385 . S
Cd157 O158 2.317 . S
O158 Cd157 2.317 . S
O158 C159 1.232 . S
C159 O158 1.232 . S
C159 O160 1.218 . S
O160 C159 1.218 . S
C161 O154 1.275 . S
C161 O156 1.255 . S
C162 O163 1.258 . S
C162 O164 1.256 . S
O163 Cd155 2.381 . S
O163 C162 1.258 . S
O164 Cd155 2.378 . S
O164 C162 1.256 . S
O165 Cd166 2.300 1_556 S
O165 C172 1.275 . S
Cd166 O165 2.300 1_554 S
Cd166 O174 2.381 1_544 S
Cd166 O175 2.378 1_545 S
O167 Cd168 2.381 . S
O167 C172 1.259 1_554 S
Cd168 O167 2.381 . S
Cd168 O169 2.317 . S
O169 Cd168 2.317 . S
O169 C170 1.232 . S
C170 O169 1.232 . S
C170 O171 1.218 . S
O171 C170 1.218 . S
C172 O165 1.275 . S
C172 O167 1.259 1_556 S
C173 O174 1.253 . S
C173 O175 1.260 1_556 S
O174 Cd166 2.381 1_566 S
O174 C173 1.253 . S
O175 Cd166 2.378 1_565 S
O175 C173 1.260 1_554 S
Mg176 O177 2.028 . S
Mg176 O183 1.986 1_554 S
Mg176 O185 2.114 . S
Mg176 O186 2.251 . S
Mg176 O189 2.010 . S
O177 Mg176 2.028 . S
O177 C180 1.250 . S
O178 Mg179 2.028 1_554 S
O178 C180 1.248 . S
Mg179 O178 2.028 1_556 S
Mg179 O184 2.059 . S
Mg179 O186 2.055 1_556 S
C180 O177 1.250 . S
C180 O178 1.248 . S
C181 O182 1.264 . S
C181 O189 1.249 . S
O182 C181 1.264 . S
O183 Mg176 1.986 1_556 S
O183 C187 1.246 . S
O184 Mg179 2.059 . S
O184 C187 1.259 . S
O185 Mg176 2.114 . S
O185 C188 1.252 . S
O186 Mg176 2.251 . S
O186 Mg179 2.055 1_554 S
O186 C188 1.273 . S
C187 O183 1.246 . S
C187 O184 1.259 . S
C188 O185 1.252 . S
C188 O186 1.273 . S
O189 Mg176 2.010 . S
O189 C181 1.249 . S
Mg190 O191 2.028 . S
Mg190 O197 1.986 . S
Mg190 O199 2.114 . S
Mg190 O200 2.251 . S
Mg190 O203 2.010 . S
O191 Mg190 2.028 . S
O191 C194 1.250 . S
O192 Mg193 2.028 . S
O192 C194 1.248 . S
Mg193 O192 2.028 . S
Mg193 O198 2.032 . S
Mg193 O200 2.079 . S
C194 O191 1.250 . S
C194 O192 1.248 . S
C195 O196 1.264 . S
C195 O203 1.249 . S
O196 C195 1.264 . S
O197 Mg190 1.986 . S
O197 C201 1.246 . S
O198 Mg193 2.032 . S
O198 C201 1.259 . S
O199 Mg190 2.114 . S
O199 C202 1.252 . S
O200 Mg190 2.251 . S
O200 Mg193 2.079 . S
O200 C202 1.273 . S
C201 O197 1.246 . S
C201 O198 1.259 . S
C202 O199 1.252 . S
C202 O200 1.273 . S
O203 Mg190 2.010 . S
O203 C195 1.249 . S
Mg204 O205 2.028 . S
Mg204 O211 1.986 1_554 S
Mg204 O213 2.114 . S
Mg204 O214 2.251 . S
Mg204 O217 2.010 . S
O205 Mg204 2.028 . S
O205 C208 1.250 . S
O206 Mg207 2.028 . S
O206 C208 1.248 1_556 S
Mg207 O206 2.028 . S
Mg207 O212 2.032 . S
Mg207 O214 2.079 1_556 S
C208 O205 1.250 . S
C208 O206 1.248 1_554 S
C209 O210 1.264 . S
C209 O217 1.249 . S
O210 C209 1.264 . S
O211 Mg204 1.986 1_556 S
O211 C215 1.246 . S
O212 Mg207 2.032 . S
O212 C215 1.259 . S
O213 Mg204 2.114 . S
O213 C216 1.252 . S
O214 Mg204 2.251 . S
O214 Mg207 2.079 1_554 S
O214 C216 1.273 . S
C215 O211 1.246 . S
C215 O212 1.259 . S
C216 O213 1.252 . S
C216 O214 1.273 . S
O217 Mg204 2.010 . S
O217 C209 1.249 . S
Mg218 O219 2.028 . S
Mg218 O225 1.986 . S
Mg218 O227 2.114 . S
Mg218 O228 2.251 . S
Mg218 O231 2.010 . S
O219 Mg218 2.028 . S
O219 C222 1.250 1_545 S
O220 Mg221 2.028 . S
O220 C222 1.248 . S
Mg221 O220 2.028 . S
Mg221 O226 2.032 1_565 S
Mg221 O228 2.079 1_565 S
C222 O219 1.250 1_565 S
C222 O220 1.248 . S
C223 O224 1.264 . S
C223 O231 1.249 . S
O224 C223 1.264 . S
O225 Mg218 1.986 . S
O225 C229 1.246 . S
O226 Mg221 2.032 1_545 S
O226 C229 1.259 . S
O227 Mg218 2.114 . S
O227 C230 1.252 . S
O228 Mg218 2.251 . S
O228 Mg221 2.079 1_545 S
O228 C230 1.273 . S
C229 O225 1.246 . S
C229 O226 1.259 . S
C230 O227 1.252 . S
C230 O228 1.273 . S
O231 Mg218 2.010 . S
O231 C223 1.249 . S
Mg232 O233 2.028 . S
Mg232 O239 1.986 . S
Mg232 O241 2.114 . S
Mg232 O242 2.251 . S
Mg232 O245 2.010 . S
O233 Mg232 2.028 . S
O233 C236 1.250 . S
O234 Mg235 2.028 . S
O234 C236 1.248 . S
Mg235 O234 2.028 . S
Mg235 O240 2.032 . S
Mg235 O242 2.079 . S
C236 O233 1.250 . S
C236 O234 1.248 . S
C237 O238 1.264 . S
C237 O245 1.249 . S
O238 C237 1.264 . S
O239 Mg232 1.986 . S
O239 C243 1.246 . S
O240 Mg235 2.032 . S
O240 C243 1.259 . S
O241 Mg232 2.114 . S
O241 C244 1.252 . S
O242 Mg232 2.251 . S
O242 Mg235 2.079 . S
O242 C244 1.273 . S
C243 O239 1.246 . S
C243 O240 1.259 . S
C244 O241 1.252 . S
C244 O242 1.273 . S
O245 Mg232 2.010 . S
O245 C237 1.249 . S
Mg246 O247 2.028 . S
Mg246 O253 1.986 . S
Mg246 O255 2.114 . S
Mg246 O256 2.251 . S
Mg246 O259 2.010 . S
O247 Mg246 2.028 . S
O247 C250 1.250 . S
O248 Mg249 2.028 . S
O248 C250 1.248 . S
Mg249 O248 2.028 . S
Mg249 O254 2.032 . S
Mg249 O256 2.079 . S
C250 O247 1.250 . S
C250 O248 1.248 . S
C251 O252 1.264 . S
C251 O259 1.249 . S
O252 C251 1.264 . S
O253 Mg246 1.986 . S
O253 C257 1.246 . S
O254 Mg249 2.032 . S
O254 C257 1.259 . S
O255 Mg246 2.114 . S
O255 C258 1.252 . S
O256 Mg246 2.251 . S
O256 Mg249 2.079 . S
O256 C258 1.273 . S
C257 O253 1.246 . S
C257 O254 1.259 . S
C258 O255 1.252 . S
C258 O256 1.273 . S
O259 Mg246 2.010 . S
O259 C251 1.249 . S
Mg260 O261 2.028 . S
Mg260 O267 1.986 . S
Mg260 O269 2.114 . S
Mg260 O270 2.251 . S
Mg260 O273 2.010 . S
O261 Mg260 2.028 . S
O261 C264 1.250 . S
O262 Mg263 2.028 . S
O262 C264 1.248 . S
Mg263 O262 2.028 . S
Mg263 O268 2.032 . S
Mg263 O270 2.079 . S
C264 O261 1.250 . S
C264 O262 1.248 . S
C265 O266 1.264 . S
C265 O273 1.249 . S
O266 C265 1.264 . S
O267 Mg260 1.986 . S
O267 C271 1.246 . S
O268 Mg263 2.032 . S
O268 C271 1.259 . S
O269 Mg260 2.114 . S
O269 C272 1.252 . S
O270 Mg260 2.251 . S
O270 Mg263 2.079 . S
O270 C272 1.273 . S
C271 O267 1.246 . S
C271 O268 1.259 . S
C272 O269 1.252 . S
C272 O270 1.273 . S
O273 Mg260 2.010 . S
O273 C265 1.249 . S
Mg274 O275 2.028 1_545 S
Mg274 O281 1.986 1_545 S
Mg274 O283 2.114 . S
Mg274 O284 2.251 . S
Mg274 O287 2.010 . S
O275 Mg274 2.028 1_565 S
O275 C278 1.250 . S
O276 Mg277 2.028 . S
O276 C278 1.248 . S
Mg277 O276 2.028 . S
Mg277 O282 2.032 . S
Mg277 O284 2.079 1_565 S
C278 O275 1.250 . S
C278 O276 1.248 . S
C279 O280 1.264 . S
C279 O287 1.249 . S
O280 C279 1.264 . S
O281 Mg274 1.986 1_565 S
O281 C285 1.246 . S
O282 Mg277 2.032 . S
O282 C285 1.259 . S
O283 Mg274 2.114 . S
O283 C286 1.252 . S
O284 Mg274 2.251 . S
O284 Mg277 2.079 1_545 S
O284 C286 1.273 . S
C285 O281 1.246 . S
C285 O282 1.259 . S
C286 O283 1.252 . S
C286 O284 1.273 . S
O287 Mg274 2.010 . S
O287 C279 1.249 . S
Mg288 O289 2.028 . S
Mg288 O295 1.986 . S
Mg288 O297 2.114 . S
Mg288 O298 2.251 . S
Mg288 O301 2.010 . S
O289 Mg288 2.028 . S
O289 C292 1.250 1_455 S
O290 Mg291 2.028 . S
O290 C292 1.248 . S
Mg291 O290 2.028 . S
Mg291 O296 2.032 . S
Mg291 O298 2.079 1_655 S
C292 O289 1.250 1_655 S
C292 O290 1.248 . S
C293 O294 1.264 . S
C293 O301 1.249 . S
O294 C293 1.264 . S
O295 Mg288 1.986 . S
O295 C299 1.246 . S
O296 Mg291 2.032 . S
O296 C299 1.259 1_655 S
O297 Mg288 2.114 . S
O297 C300 1.252 . S
O298 Mg288 2.251 . S
O298 Mg291 2.079 1_455 S
O298 C300 1.273 . S
C299 O295 1.246 . S
C299 O296 1.259 1_455 S
C300 O297 1.252 . S
C300 O298 1.273 . S
O301 Mg288 2.010 . S
O301 C293 1.249 . S
Mg302 O303 2.028 . S
Mg302 O309 1.986 . S
Mg302 O311 2.114 . S
Mg302 O312 2.251 . S
Mg302 O315 2.010 . S
O303 Mg302 2.028 . S
O303 C306 1.250 . S
O304 Mg305 2.028 . S
O304 C306 1.248 . S
Mg305 O304 2.028 . S
Mg305 O310 2.032 . S
Mg305 O312 2.079 . S
C306 O303 1.250 . S
C306 O304 1.248 . S
C307 O308 1.264 . S
C307 O315 1.249 . S
O308 C307 1.264 . S
O309 Mg302 1.986 . S
O309 C313 1.246 . S
O310 Mg305 2.032 . S
O310 C313 1.259 . S
O311 Mg302 2.114 . S
O311 C314 1.252 . S
O312 Mg302 2.251 . S
O312 Mg305 2.079 . S
O312 C314 1.273 . S
C313 O309 1.246 . S
C313 O310 1.259 . S
C314 O311 1.252 . S
C314 O312 1.273 . S
O315 Mg302 2.010 . S
O315 C307 1.249 . S
Mg316 O317 2.028 . S
Mg316 O323 1.986 . S
Mg316 O325 2.114 1_455 S
Mg316 O326 2.251 . S
Mg316 O329 2.010 1_455 S
O317 Mg316 2.028 . S
O317 C320 1.250 . S
O318 Mg319 2.028 . S
O318 C320 1.248 . S
Mg319 O318 2.028 . S
Mg319 O324 2.032 . S
Mg319 O326 2.079 . S
C320 O317 1.250 . S
C320 O318 1.248 . S
C321 O322 1.264 . S
C321 O329 1.249 . S
O322 C321 1.264 . S
O323 Mg316 1.986 . S
O323 C327 1.246 . S
O324 Mg319 2.032 . S
O324 C327 1.259 . S
O325 Mg316 2.114 1_655 S
O325 C328 1.252 1_655 S
O326 Mg316 2.251 . S
O326 Mg319 2.079 . S
O326 C328 1.273 . S
C327 O323 1.246 . S
C327 O324 1.259 . S
C328 O325 1.252 1_455 S
C328 O326 1.273 . S
O329 Mg316 2.010 1_655 S
O329 C321 1.249 . S
Mg330 O331 2.028 . S
Mg330 O337 1.986 . S
Mg330 O339 2.114 . S
Mg330 O340 2.251 . S
Mg330 O343 2.010 . S
O331 Mg330 2.028 . S
O331 C334 1.250 . S
O332 Mg333 2.028 . S
O332 C334 1.248 . S
Mg333 O332 2.028 . S
Mg333 O338 2.032 . S
Mg333 O340 2.079 . S
C334 O331 1.250 . S
C334 O332 1.248 . S
C335 O336 1.264 . S
C335 O343 1.249 . S
O336 C335 1.264 . S
O337 Mg330 1.986 . S
O337 C341 1.246 . S
O338 Mg333 2.032 . S
O338 C341 1.259 . S
O339 Mg330 2.114 . S
O339 C342 1.252 . S
O340 Mg330 2.251 . S
O340 Mg333 2.079 . S
O340 C342 1.273 . S
C341 O337 1.246 . S
C341 O338 1.259 . S
C342 O339 1.252 . S
C342 O340 1.273 . S
O343 Mg330 2.010 . S
O343 C335 1.249 . S
H344 C350 0.930 . S
H345 C354 0.930 . S
H346 C359 0.929 . S
H347 C357 0.929 . S
H348 C352 0.929 . S
H349 C358 0.929 . S
C350 H344 0.930 . S
C350 C351 1.367 . S
C350 C358 1.378 . S
C351 C350 1.367 . S
C351 C359 1.433 . S
C352 H348 0.929 . S
C352 C354 1.378 . S
C352 C356 1.350 . S
C353 C356 1.463 . S
C353 C358 1.350 . S
C353 N361 1.427 . S
C354 H345 0.930 . S
C354 C352 1.378 . S
C354 C355 1.367 . S
C355 C354 1.367 . S
C355 C357 1.433 . S
C356 C352 1.350 . S
C356 C353 1.463 . S
C356 N360 1.427 . S
C357 H347 0.929 . S
C357 C355 1.433 . S
C357 N360 1.384 . S
C358 H349 0.929 . S
C358 C350 1.378 . S
C358 C353 1.350 . S
C359 H346 0.929 . S
C359 C351 1.433 . S
C359 N361 1.384 . S
N360 C356 1.427 . S
N360 C357 1.384 . S
N361 C353 1.427 . S
N361 C359 1.384 . S
H362 C368 0.930 . S
H363 C372 0.930 . S
H364 C377 0.929 1_655 S
H365 C375 0.929 . S
H366 C370 0.929 . S
H367 C376 0.929 . S
C368 H362 0.930 . S
C368 C369 1.367 . S
C368 C376 1.378 . S
C369 C368 1.367 . S
C369 C377 1.433 . S
C370 H366 0.929 . S
C370 C372 1.378 . S
C370 C374 1.350 . S
C371 C374 1.463 . S
C371 C376 1.350 . S
C371 N379 1.427 . S
C372 H363 0.930 . S
C372 C370 1.378 . S
C372 C373 1.367 . S
C373 C372 1.367 . S
C373 C375 1.433 . S
C374 C370 1.350 . S
C374 C371 1.463 . S
C374 N378 1.427 . S
C375 H365 0.929 . S
C375 C373 1.433 . S
C375 N378 1.384 . S
C376 H367 0.929 . S
C376 C368 1.378 . S
C376 C371 1.350 . S
C377 H364 0.929 1_455 S
C377 C369 1.433 . S
C377 N379 1.384 . S
N378 C374 1.427 . S
N378 C375 1.384 . S
N379 C371 1.427 . S
N379 C377 1.384 . S
H380 C386 0.930 . S
H381 C390 0.930 . S
H382 C395 0.929 . S
H383 C393 0.929 . S
H384 C388 0.929 . S
H385 C394 0.929 . S
C386 H380 0.930 . S
C386 C387 1.367 . S
C386 C394 1.378 . S
C387 C386 1.367 . S
C387 C395 1.433 . S
C388 H384 0.929 . S
C388 C390 1.378 . S
C388 C392 1.350 . S
C389 C392 1.463 . S
C389 C394 1.350 . S
C389 N397 1.427 . S
C390 H381 0.930 . S
C390 C388 1.378 . S
C390 C391 1.367 . S
C391 C390 1.367 . S
C391 C393 1.433 . S
C392 C388 1.350 . S
C392 C389 1.463 . S
C392 N396 1.427 . S
C393 H383 0.929 . S
C393 C391 1.433 . S
C393 N396 1.384 . S
C394 H385 0.929 . S
C394 C386 1.378 . S
C394 C389 1.350 . S
C395 H382 0.929 . S
C395 C387 1.433 . S
C395 N397 1.384 . S
N396 C392 1.427 . S
N396 C393 1.384 . S
N397 C389 1.427 . S
N397 C395 1.384 . S
H398 C404 0.930 . S
H399 C408 0.930 . S
H400 C413 0.929 . S
H401 C411 0.929 . S
H402 C406 0.929 . S
H403 C412 0.929 . S
C404 H398 0.930 . S
C404 C405 1.367 1_565 S
C404 C412 1.378 1_455 S
C405 C404 1.367 1_545 S
C405 C413 1.433 1_455 S
C406 H402 0.929 . S
C406 C408 1.378 . S
C406 C410 1.350 . S
C407 C410 1.463 . S
C407 C412 1.350 1_545 S
C407 N415 1.427 . S
C408 H399 0.930 . S
C408 C406 1.378 . S
C408 C409 1.367 . S
C409 C408 1.367 . S
C409 C411 1.433 . S
C410 C406 1.350 . S
C410 C407 1.463 . S
C410 N414 1.427 . S
C411 H401 0.929 . S
C411 C409 1.433 . S
C411 N414 1.384 . S
C412 H403 0.929 . S
C412 C404 1.378 1_655 S
C412 C407 1.350 1_565 S
C413 H400 0.929 . S
C413 C405 1.433 1_655 S
C413 N415 1.384 . S
N414 C410 1.427 . S
N414 C411 1.384 . S
N415 C407 1.427 . S
N415 C413 1.384 . S
H416 C422 0.930 . S
H417 C426 0.930 . S
H418 C431 0.929 . S
H419 C429 0.929 . S
H420 C424 0.929 . S
H421 C430 0.929 . S
C422 H416 0.930 . S
C422 C423 1.367 . S
C422 C430 1.378 . S
C423 C422 1.367 . S
C423 C431 1.433 . S
C424 H420 0.929 . S
C424 C426 1.378 . S
C424 C428 1.350 . S
C425 C428 1.463 . S
C425 C430 1.350 . S
C425 N433 1.427 . S
C426 H417 0.930 . S
C426 C424 1.378 . S
C426 C427 1.367 . S
C427 C426 1.367 . S
C427 C429 1.433 . S
C428 C424 1.350 . S
C428 C425 1.463 . S
C428 N432 1.427 . S
C429 H419 0.929 . S
C429 C427 1.433 . S
C429 N432 1.384 . S
C430 H421 0.929 . S
C430 C422 1.378 . S
C430 C425 1.350 . S
C431 H418 0.929 . S
C431 C423 1.433 . S
C431 N433 1.384 . S
N432 C428 1.427 . S
N432 C429 1.384 . S
N433 C425 1.427 . S
N433 C431 1.384 . S
H434 C440 0.930 . S
H435 C444 0.930 . S
H436 C449 0.929 . S
H437 C447 0.929 . S
H438 C442 0.929 . S
H439 C448 0.929 . S
C440 H434 0.930 . S
C440 C441 1.367 . S
C440 C448 1.378 . S
C441 C440 1.367 . S
C441 C449 1.433 . S
C442 H438 0.929 . S
C442 C444 1.378 . S
C442 C446 1.350 . S
C443 C446 1.463 . S
C443 C448 1.350 . S
C443 N451 1.427 . S
C444 H435 0.930 . S
C444 C442 1.378 . S
C444 C445 1.367 . S
C445 C444 1.367 . S
C445 C447 1.433 . S
C446 C442 1.350 . S
C446 C443 1.463 . S
C446 N450 1.427 . S
C447 H437 0.929 . S
C447 C445 1.433 . S
C447 N450 1.384 . S
C448 H439 0.929 . S
C448 C440 1.378 . S
C448 C443 1.350 . S
C449 H436 0.929 . S
C449 C441 1.433 . S
C449 N451 1.384 . S
N450 C446 1.427 . S
N450 C447 1.384 . S
N451 C443 1.427 . S
N451 C449 1.384 . S
H452 C458 0.930 . S
H453 C462 0.930 . S
H454 C467 0.929 . S
H455 C465 0.929 . S
H456 C460 0.929 . S
H457 C466 0.929 . S
C458 H452 0.930 . S
C458 C459 1.367 . S
C458 C466 1.378 . S
C459 C458 1.367 . S
C459 C467 1.433 . S
C460 H456 0.929 . S
C460 C462 1.378 . S
C460 C464 1.350 . S
C461 C464 1.463 . S
C461 C466 1.350 . S
C461 N469 1.427 . S
C462 H453 0.930 . S
C462 C460 1.378 . S
C462 C463 1.367 . S
C463 C462 1.367 . S
C463 C465 1.433 . S
C464 C460 1.350 . S
C464 C461 1.463 . S
C464 N468 1.427 . S
C465 H455 0.929 . S
C465 C463 1.433 . S
C465 N468 1.384 . S
C466 H457 0.929 . S
C466 C458 1.378 . S
C466 C461 1.350 . S
C467 H454 0.929 . S
C467 C459 1.433 . S
C467 N469 1.384 . S
N468 C464 1.427 . S
N468 C465 1.384 . S
N469 C461 1.427 . S
N469 C467 1.384 . S
H470 C476 0.930 . S
H471 C480 0.930 . S
H472 C485 0.929 . S
H473 C483 0.929 . S
H474 C478 0.929 . S
H475 C484 0.929 . S
C476 H470 0.930 . S
C476 C477 1.367 . S
C476 C484 1.378 . S
C477 C476 1.367 . S
C477 C485 1.433 1_565 S
C478 H474 0.929 . S
C478 C480 1.378 . S
C478 C482 1.350 1_545 S
C479 C482 1.463 . S
C479 C484 1.350 . S
C479 N487 1.427 1_565 S
C480 H471 0.930 . S
C480 C478 1.378 . S
C480 C481 1.367 1_545 S
C481 C480 1.367 1_565 S
C481 C483 1.433 . S
C482 C478 1.350 1_565 S
C482 C479 1.463 . S
C482 N486 1.427 . S
C483 H473 0.929 . S
C483 C481 1.433 . S
C483 N486 1.384 . S
C484 H475 0.929 . S
C484 C476 1.378 . S
C484 C479 1.350 . S
C485 H472 0.929 . S
C485 C477 1.433 1_545 S
C485 N487 1.384 . S
N486 C482 1.427 . S
N486 C483 1.384 . S
N487 C479 1.427 1_545 S
N487 C485 1.384 . S
H488 C494 0.930 . S
H489 C498 0.930 . S
H490 C503 0.929 . S
H491 C501 0.929 . S
H492 C496 0.929 . S
H493 C502 0.929 . S
C494 H488 0.930 . S
C494 C495 1.367 . S
C494 C502 1.378 . S
C495 C494 1.367 . S
C495 C503 1.433 . S
C496 H492 0.929 . S
C496 C498 1.378 . S
C496 C500 1.350 . S
C497 C500 1.463 . S
C497 C502 1.350 . S
C497 N505 1.427 . S
C498 H489 0.930 . S
C498 C496 1.378 . S
C498 C499 1.367 . S
C499 C498 1.367 . S
C499 C501 1.433 . S
C500 C496 1.350 . S
C500 C497 1.463 . S
C500 N504 1.427 . S
C501 H491 0.929 . S
C501 C499 1.433 . S
C501 N504 1.384 . S
C502 H493 0.929 . S
C502 C494 1.378 . S
C502 C497 1.350 . S
C503 H490 0.929 . S
C503 C495 1.433 . S
C503 N505 1.384 . S
N504 C500 1.427 . S
N504 C501 1.384 . S
N505 C497 1.427 . S
N505 C503 1.384 . S
H506 C512 0.930 . S
H507 C516 0.930 . S
H508 C521 0.929 . S
H509 C519 0.929 . S
H510 C514 0.929 . S
H511 C520 0.929 . S
C512 H506 0.930 . S
C512 C513 1.367 . S
C512 C520 1.378 . S
C513 C512 1.367 . S
C513 C521 1.433 . S
C514 H510 0.929 . S
C514 C516 1.378 . S
C514 C518 1.350 . S
C515 C518 1.463 . S
C515 C520 1.350 . S
C515 N523 1.427 . S
C516 H507 0.930 . S
C516 C514 1.378 . S
C516 C517 1.367 . S
C517 C516 1.367 . S
C517 C519 1.433 . S
C518 C514 1.350 . S
C518 C515 1.463 . S
C518 N522 1.427 . S
C519 H509 0.929 . S
C519 C517 1.433 . S
C519 N522 1.384 . S
C520 H511 0.929 . S
C520 C512 1.378 . S
C520 C515 1.350 . S
C521 H508 0.929 . S
C521 C513 1.433 . S
C521 N523 1.384 . S
N522 C518 1.427 . S
N522 C519 1.384 . S
N523 C515 1.427 . S
N523 C521 1.384 . S
H524 C530 0.930 . S
H525 C534 0.930 . S
H526 C539 0.929 . S
H527 C537 0.929 . S
H528 C532 0.929 . S
H529 C538 0.929 . S
C530 H524 0.930 . S
C530 C531 1.367 . S
C530 C538 1.378 . S
C531 C530 1.367 . S
C531 C539 1.433 . S
C532 H528 0.929 . S
C532 C534 1.378 . S
C532 C536 1.350 . S
C533 C536 1.463 . S
C533 C538 1.350 . S
C533 N541 1.427 . S
C534 H525 0.930 . S
C534 C532 1.378 . S
C534 C535 1.367 . S
C535 C534 1.367 . S
C535 C537 1.433 . S
C536 C532 1.350 . S
C536 C533 1.463 . S
C536 N540 1.427 . S
C537 H527 0.929 . S
C537 C535 1.433 . S
C537 N540 1.384 . S
C538 H529 0.929 . S
C538 C530 1.378 . S
C538 C533 1.350 . S
C539 H526 0.929 . S
C539 C531 1.433 . S
C539 N541 1.384 . S
N540 C536 1.427 . S
N540 C537 1.384 . S
N541 C533 1.427 . S
N541 C539 1.384 . S
H542 C548 0.930 . S
H543 C552 0.930 . S
H544 C557 0.929 . S
H545 C555 0.929 . S
H546 C550 0.929 . S
H547 C556 0.929 . S
C548 H542 0.930 . S
C548 C549 1.367 . S
C548 C556 1.378 . S
C549 C548 1.367 . S
C549 C557 1.433 . S
C550 H546 0.929 . S
C550 C552 1.378 . S
C550 C554 1.350 . S
C551 C554 1.463 . S
C551 C556 1.350 . S
C551 N559 1.427 . S
C552 H543 0.930 . S
C552 C550 1.378 . S
C552 C553 1.367 . S
C553 C552 1.367 . S
C553 C555 1.433 . S
C554 C550 1.350 . S
C554 C551 1.463 . S
C554 N558 1.427 . S
C555 H545 0.929 . S
C555 C553 1.433 . S
C555 N558 1.384 . S
C556 H547 0.929 . S
C556 C548 1.378 . S
C556 C551 1.350 . S
C557 H544 0.929 . S
C557 C549 1.433 . S
C557 N559 1.384 . S
N558 C554 1.427 . S
N558 C555 1.384 . S
N559 C551 1.427 . S
N559 C557 1.384 . S
H560 C566 0.930 . S
H561 C570 0.930 . S
H562 C575 0.929 . S
H563 C573 0.929 . S
H564 C568 0.929 . S
H565 C574 0.929 . S
C566 H560 0.930 . S
C566 C567 1.367 . S
C566 C574 1.378 . S
C567 C566 1.367 . S
C567 C575 1.433 . S
C568 H564 0.929 . S
C568 C570 1.378 . S
C568 C572 1.350 . S
C569 C572 1.463 . S
C569 C574 1.350 . S
C569 N577 1.427 . S
C570 H561 0.930 . S
C570 C568 1.378 . S
C570 C571 1.367 . S
C571 C570 1.367 . S
C571 C573 1.433 . S
C572 C568 1.350 . S
C572 C569 1.463 . S
C572 N576 1.427 . S
C573 H563 0.929 . S
C573 C571 1.433 . S
C573 N576 1.384 . S
C574 H565 0.929 . S
C574 C566 1.378 . S
C574 C569 1.350 . S
C575 H562 0.929 . S
C575 C567 1.433 . S
C575 N577 1.384 . S
N576 C572 1.427 . S
N576 C573 1.384 . S
N577 C569 1.427 . S
N577 C575 1.384 . S
H578 C584 0.930 . S
H579 C588 0.930 . S
H580 C593 0.929 . S
H581 C591 0.929 . S
H582 C586 0.929 . S
H583 C592 0.929 . S
C584 H578 0.930 . S
C584 C585 1.367 . S
C584 C592 1.378 . S
C585 C584 1.367 . S
C585 C593 1.433 . S
C586 H582 0.929 . S
C586 C588 1.378 . S
C586 C590 1.350 . S
C587 C590 1.463 . S
C587 C592 1.350 . S
C587 N595 1.427 . S
C588 H579 0.930 . S
C588 C586 1.378 . S
C588 C589 1.367 . S
C589 C588 1.367 . S
C589 C591 1.433 . S
C590 C586 1.350 . S
C590 C587 1.463 . S
C590 N594 1.427 . S
C591 H581 0.929 . S
C591 C589 1.433 . S
C591 N594 1.384 . S
C592 H583 0.929 . S
C592 C584 1.378 . S
C592 C587 1.350 . S
C593 H580 0.929 . S
C593 C585 1.433 . S
C593 N595 1.384 . S
N594 C590 1.427 . S
N594 C591 1.384 . S
N595 C587 1.427 . S
N595 C593 1.384 . S
H596 C602 0.930 . S
H597 C606 0.930 . S
H598 C611 0.929 . S
H599 C609 0.929 . S
H600 C604 0.929 . S
H601 C610 0.929 . S
C602 H596 0.930 . S
C602 C603 1.367 . S
C602 C610 1.378 . S
C603 C602 1.367 . S
C603 C611 1.433 . S
C604 H600 0.929 . S
C604 C606 1.378 . S
C604 C608 1.350 . S
C605 C608 1.463 . S
C605 C610 1.350 . S
C605 N613 1.427 . S
C606 H597 0.930 . S
C606 C604 1.378 . S
C606 C607 1.367 . S
C607 C606 1.367 . S
C607 C609 1.433 . S
C608 C604 1.350 . S
C608 C605 1.463 . S
C608 N612 1.427 . S
C609 H599 0.929 . S
C609 C607 1.433 . S
C609 N612 1.384 . S
C610 H601 0.929 . S
C610 C602 1.378 . S
C610 C605 1.350 . S
C611 H598 0.929 . S
C611 C603 1.433 . S
C611 N613 1.384 . S
N612 C608 1.427 . S
N612 C609 1.384 . S
N613 C605 1.427 . S
N613 C611 1.384 . S
H614 C620 0.926 1_455 S
H615 C624 0.930 . S
H616 C629 0.929 . S
H617 C627 0.929 . S
H618 C622 0.929 . S
H619 C628 0.929 . S
C620 H614 0.926 1_655 S
C620 C621 1.368 . S
C620 C628 1.381 1_655 S
C621 C620 1.368 . S
C621 C629 1.433 . S
C622 H618 0.929 . S
C622 C624 1.378 . S
C622 C626 1.351 . S
C623 C626 1.462 . S
C623 C628 1.350 1_655 S
C623 N631 1.427 . S
C624 H615 0.930 . S
C624 C622 1.378 . S
C624 C625 1.367 1_655 S
C625 C624 1.367 1_455 S
C625 C627 1.433 . S
C626 C622 1.351 . S
C626 C623 1.462 . S
C626 N630 1.427 1_655 S
C627 H617 0.929 . S
C627 C625 1.433 . S
C627 N630 1.384 . S
C628 H619 0.929 . S
C628 C620 1.381 1_455 S
C628 C623 1.350 1_455 S
C629 H616 0.929 . S
C629 C621 1.433 . S
C629 N631 1.384 . S
N630 C626 1.427 1_455 S
N630 C627 1.384 . S
N631 C623 1.427 . S
N631 C629 1.384 . S
H632 C638 0.930 . S
H633 C642 0.930 . S
H634 C647 0.929 . S
H635 C645 0.929 . S
H636 C640 0.929 . S
H637 C646 0.929 . S
C638 H632 0.930 . S
C638 C639 1.367 . S
C638 C646 1.378 . S
C639 C638 1.367 . S
C639 C647 1.433 . S
C640 H636 0.929 . S
C640 C642 1.378 . S
C640 C644 1.350 . S
C641 C644 1.463 . S
C641 C646 1.350 . S
C641 N649 1.427 . S
C642 H633 0.930 . S
C642 C640 1.378 . S
C642 C643 1.367 . S
C643 C642 1.367 . S
C643 C645 1.433 . S
C644 C640 1.350 . S
C644 C641 1.463 . S
C644 N648 1.427 . S
C645 H635 0.929 . S
C645 C643 1.433 . S
C645 N648 1.384 . S
C646 H637 0.929 . S
C646 C638 1.378 . S
C646 C641 1.350 . S
C647 H634 0.929 . S
C647 C639 1.433 . S
C647 N649 1.384 . S
N648 C644 1.427 . S
N648 C645 1.384 . S
N649 C641 1.427 . S
N649 C647 1.384 . S
H650 C656 0.930 . S
H651 C660 0.930 . S
H652 C665 0.929 . S
H653 C663 0.929 . S
H654 C658 0.929 . S
H655 C664 0.929 . S
C656 H650 0.930 . S
C656 C657 1.367 . S
C656 C664 1.378 . S
C657 C656 1.367 . S
C657 C665 1.433 . S
C658 H654 0.929 . S
C658 C660 1.378 . S
C658 C662 1.350 . S
C659 C662 1.463 . S
C659 C664 1.350 . S
C659 N667 1.427 . S
C660 H651 0.930 . S
C660 C658 1.378 . S
C660 C661 1.367 . S
C661 C660 1.367 . S
C661 C663 1.433 . S
C662 C658 1.350 . S
C662 C659 1.463 . S
C662 N666 1.427 . S
C663 H653 0.929 . S
C663 C661 1.433 . S
C663 N666 1.384 . S
C664 H655 0.929 . S
C664 C656 1.378 . S
C664 C659 1.350 . S
C665 H652 0.929 . S
C665 C657 1.433 . S
C665 N667 1.384 . S
N666 C662 1.427 . S
N666 C663 1.384 . S
N667 C659 1.427 . S
N667 C665 1.384 . S
H668 C674 0.930 . S
H669 C678 0.930 . S
H670 C683 0.929 . S
H671 C681 0.929 . S
H672 C676 0.929 . S
H673 C682 0.929 . S
C674 H668 0.930 . S
C674 C675 1.338 1_554 S
C674 C682 1.378 . S
C675 C674 1.338 1_556 S
C675 C683 1.458 . S
C676 H672 0.929 . S
C676 C678 1.378 . S
C676 C680 1.352 1_556 S
C677 C680 1.468 . S
C677 C682 1.383 . S
C677 N685 1.388 1_554 S
C678 H669 0.930 . S
C678 C676 1.378 . S
C678 C679 1.367 1_556 S
C679 C678 1.367 1_554 S
C679 C681 1.433 . S
C680 C676 1.352 1_554 S
C680 C677 1.468 . S
C680 N684 1.424 . S
C681 H671 0.929 . S
C681 C679 1.433 . S
C681 N684 1.384 . S
C682 H673 0.929 . S
C682 C674 1.378 . S
C682 C677 1.383 . S
C683 H670 0.929 . S
C683 C675 1.458 . S
C683 N685 1.384 . S
N684 C680 1.424 . S
N684 C681 1.384 . S
N685 C677 1.388 1_556 S
N685 C683 1.384 . S
H686 C692 0.930 . S
H687 C696 0.930 . S
H688 C701 0.929 . S
H689 C699 0.929 . S
H690 C694 0.929 . S
H691 C700 0.929 . S
C692 H686 0.930 . S
C692 C693 1.367 . S
C692 C700 1.378 . S
C693 C692 1.367 . S
C693 C701 1.433 . S
C694 H690 0.929 . S
C694 C696 1.378 . S
C694 C698 1.350 . S
C695 C698 1.463 . S
C695 C700 1.350 . S
C695 N703 1.427 . S
C696 H687 0.930 . S
C696 C694 1.378 . S
C696 C697 1.367 . S
C697 C696 1.367 . S
C697 C699 1.433 . S
C698 C694 1.350 . S
C698 C695 1.463 . S
C698 N702 1.427 . S
C699 H689 0.929 . S
C699 C697 1.433 . S
C699 N702 1.384 . S
C700 H691 0.929 . S
C700 C692 1.378 . S
C700 C695 1.350 . S
C701 H688 0.929 . S
C701 C693 1.433 . S
C701 N703 1.384 . S
N702 C698 1.427 . S
N702 C699 1.384 . S
N703 C695 1.427 . S
N703 C701 1.384 . S
H704 C710 0.930 . S
H705 C714 0.930 . S
H706 C719 0.929 . S
H707 C717 0.929 . S
H708 C712 0.929 . S
H709 C718 0.929 . S
C710 H704 0.930 . S
C710 C711 1.367 . S
C710 C718 1.378 . S
C711 C710 1.367 . S
C711 C719 1.433 . S
C712 H708 0.929 . S
C712 C714 1.378 . S
C712 C716 1.350 . S
C713 C716 1.463 . S
C713 C718 1.350 . S
C713 N721 1.427 . S
C714 H705 0.930 . S
C714 C712 1.378 . S
C714 C715 1.367 . S
C715 C714 1.367 . S
C715 C717 1.433 . S
C716 C712 1.350 . S
C716 C713 1.463 . S
C716 N720 1.427 . S
C717 H707 0.929 . S
C717 C715 1.433 . S
C717 N720 1.384 . S
C718 H709 0.929 . S
C718 C710 1.378 . S
C718 C713 1.350 . S
C719 H706 0.929 . S
C719 C711 1.433 . S
C719 N721 1.384 . S
N720 C716 1.427 . S
N720 C717 1.384 . S
N721 C713 1.427 . S
N721 C719 1.384 . S
H722 C728 0.930 . S
H723 C732 0.930 . S
H724 C737 0.929 . S
H725 C735 0.929 . S
H726 C730 0.929 . S
H727 C736 0.929 . S
C728 H722 0.930 . S
C728 C729 1.367 . S
C728 C736 1.378 . S
C729 C728 1.367 . S
C729 C737 1.433 . S
C730 H726 0.929 . S
C730 C732 1.378 . S
C730 C734 1.350 . S
C731 C734 1.463 . S
C731 C736 1.350 . S
C731 N739 1.427 . S
C732 H723 0.930 . S
C732 C730 1.378 . S
C732 C733 1.367 . S
C733 C732 1.367 . S
C733 C735 1.433 . S
C734 C730 1.350 . S
C734 C731 1.463 . S
C734 N738 1.427 . S
C735 H725 0.929 . S
C735 C733 1.433 . S
C735 N738 1.384 . S
C736 H727 0.929 . S
C736 C728 1.378 . S
C736 C731 1.350 . S
C737 H724 0.929 . S
C737 C729 1.433 . S
C737 N739 1.384 . S
N738 C734 1.427 . S
N738 C735 1.384 . S
N739 C731 1.427 . S
N739 C737 1.384 . S
H740 C746 0.930 . S
H741 C750 0.930 . S
H742 C755 0.929 . S
H743 C753 0.929 . S
H744 C748 0.929 . S
H745 C754 0.929 . S
C746 H740 0.930 . S
C746 C747 1.367 . S
C746 C754 1.378 . S
C747 C746 1.367 . S
C747 C755 1.433 . S
C748 H744 0.929 . S
C748 C750 1.378 . S
C748 C752 1.350 . S
C749 C752 1.463 . S
C749 C754 1.350 . S
C749 N757 1.427 . S
C750 H741 0.930 . S
C750 C748 1.378 . S
C750 C751 1.367 . S
C751 C750 1.367 . S
C751 C753 1.433 . S
C752 C748 1.350 . S
C752 C749 1.463 . S
C752 N756 1.427 . S
C753 H743 0.929 . S
C753 C751 1.433 . S
C753 N756 1.384 . S
C754 H745 0.929 . S
C754 C746 1.378 . S
C754 C749 1.350 . S
C755 H742 0.929 . S
C755 C747 1.433 . S
C755 N757 1.384 . S
N756 C752 1.427 . S
N756 C753 1.384 . S
N757 C749 1.427 . S
N757 C755 1.384 . S
H758 C764 0.930 . S
H759 C768 0.930 . S
H760 C773 0.929 . S
H761 C771 0.929 . S
H762 C766 0.929 . S
H763 C772 0.929 . S
C764 H758 0.930 . S
C764 C765 1.367 . S
C764 C772 1.378 . S
C765 C764 1.367 . S
C765 C773 1.433 . S
C766 H762 0.929 . S
C766 C768 1.378 . S
C766 C770 1.350 . S
C767 C770 1.463 . S
C767 C772 1.350 . S
C767 N775 1.427 . S
C768 H759 0.930 . S
C768 C766 1.378 . S
C768 C769 1.367 . S
C769 C768 1.367 . S
C769 C771 1.433 . S
C770 C766 1.350 . S
C770 C767 1.463 . S
C770 N774 1.427 . S
C771 H761 0.929 . S
C771 C769 1.433 . S
C771 N774 1.384 . S
C772 H763 0.929 . S
C772 C764 1.378 . S
C772 C767 1.350 . S
C773 H760 0.929 . S
C773 C765 1.433 . S
C773 N775 1.384 . S
N774 C770 1.427 . S
N774 C771 1.384 . S
N775 C767 1.427 . S
N775 C773 1.384 . S
H776 C782 0.930 . S
H777 C786 0.930 . S
H778 C791 0.929 . S
H779 C789 0.929 . S
H780 C784 0.929 . S
H781 C790 0.929 . S
C782 H776 0.930 . S
C782 C783 1.367 . S
C782 C790 1.378 . S
C783 C782 1.367 . S
C783 C791 1.433 . S
C784 H780 0.929 . S
C784 C786 1.378 . S
C784 C788 1.350 . S
C785 C788 1.463 . S
C785 C790 1.350 . S
C785 N793 1.427 . S
C786 H777 0.930 . S
C786 C784 1.378 . S
C786 C787 1.367 . S
C787 C786 1.367 . S
C787 C789 1.433 . S
C788 C784 1.350 . S
C788 C785 1.463 . S
C788 N792 1.427 . S
C789 H779 0.929 . S
C789 C787 1.433 . S
C789 N792 1.384 . S
C790 H781 0.929 . S
C790 C782 1.378 . S
C790 C785 1.350 . S
C791 H778 0.929 . S
C791 C783 1.433 . S
C791 N793 1.384 . S
N792 C788 1.427 . S
N792 C789 1.384 . S
N793 C785 1.427 . S
N793 C791 1.384 . S
H794 C800 0.930 . S
H795 C804 0.930 . S
H796 C809 0.927 1_565 S
H797 C807 0.929 . S
H798 C802 0.929 . S
H799 C808 0.929 . S
C800 H794 0.930 . S
C800 C801 1.367 . S
C800 C808 1.378 . S
C801 C800 1.367 . S
C801 C809 1.433 . S
C802 H798 0.929 . S
C802 C804 1.378 . S
C802 C806 1.350 1_565 S
C803 C806 1.463 . S
C803 C808 1.350 . S
C803 N811 1.427 . S
C804 H795 0.930 . S
C804 C802 1.378 . S
C804 C805 1.367 1_565 S
C805 C804 1.367 1_545 S
C805 C807 1.433 . S
C806 C802 1.350 1_545 S
C806 C803 1.463 . S
C806 N810 1.427 . S
C807 H797 0.929 . S
C807 C805 1.433 . S
C807 N810 1.384 . S
C808 H799 0.929 . S
C808 C800 1.378 . S
C808 C803 1.350 . S
C809 H796 0.927 1_545 S
C809 C801 1.433 . S
C809 N811 1.384 . S
N810 C806 1.427 . S
N810 C807 1.384 . S
N811 C803 1.427 . S
N811 C809 1.384 . S
H812 C818 0.930 . S
H813 C822 0.930 . S
H814 C827 0.929 . S
H815 C825 0.929 . S
H816 C820 0.929 . S
H817 C826 0.929 . S
C818 H812 0.930 . S
C818 C819 1.367 . S
C818 C826 1.378 . S
C819 C818 1.367 . S
C819 C827 1.433 . S
C820 H816 0.929 . S
C820 C822 1.378 . S
C820 C824 1.350 . S
C821 C824 1.463 . S
C821 C826 1.350 . S
C821 N829 1.427 . S
C822 H813 0.930 . S
C822 C820 1.378 . S
C822 C823 1.367 . S
C823 C822 1.367 . S
C823 C825 1.433 . S
C824 C820 1.350 . S
C824 C821 1.463 . S
C824 N828 1.427 . S
C825 H815 0.929 . S
C825 C823 1.433 . S
C825 N828 1.384 . S
C826 H817 0.929 . S
C826 C818 1.378 . S
C826 C821 1.350 . S
C827 H814 0.929 . S
C827 C819 1.433 . S
C827 N829 1.384 . S
N828 C824 1.427 . S
N828 C825 1.384 . S
N829 C821 1.427 . S
N829 C827 1.384 . S
H830 C836 0.930 . S
H831 C840 0.930 . S
H832 C845 0.929 . S
H833 C843 0.929 . S
H834 C838 0.929 . S
H835 C844 0.929 . S
C836 H830 0.930 . S
C836 C837 1.367 . S
C836 C844 1.378 . S
C837 C836 1.367 . S
C837 C845 1.433 . S
C838 H834 0.929 . S
C838 C840 1.378 . S
C838 C842 1.350 . S
C839 C842 1.463 . S
C839 C844 1.350 . S
C839 N847 1.427 . S
C840 H831 0.930 . S
C840 C838 1.378 . S
C840 C841 1.367 . S
C841 C840 1.367 . S
C841 C843 1.433 . S
C842 C838 1.350 . S
C842 C839 1.463 . S
C842 N846 1.427 . S
C843 H833 0.929 . S
C843 C841 1.433 . S
C843 N846 1.384 . S
C844 H835 0.929 . S
C844 C836 1.378 . S
C844 C839 1.350 . S
C845 H832 0.929 . S
C845 C837 1.433 . S
C845 N847 1.384 . S
N846 C842 1.427 . S
N846 C843 1.384 . S
N847 C839 1.427 . S
N847 C845 1.384 . S
H848 C854 0.930 . S
H849 C858 0.930 . S
H850 C863 0.929 . S
H851 C861 0.929 . S
H852 C856 0.929 . S
H853 C862 0.929 . S
C854 H848 0.930 . S
C854 C855 1.367 . S
C854 C862 1.378 . S
C855 C854 1.367 . S
C855 C863 1.433 . S
C856 H852 0.929 . S
C856 C858 1.378 . S
C856 C860 1.350 . S
C857 C860 1.463 . S
C857 C862 1.350 . S
C857 N865 1.427 . S
C858 H849 0.930 . S
C858 C856 1.378 . S
C858 C859 1.367 . S
C859 C858 1.367 . S
C859 C861 1.433 . S
C860 C856 1.350 . S
C860 C857 1.463 . S
C860 N864 1.427 . S
C861 H851 0.929 . S
C861 C859 1.433 . S
C861 N864 1.384 . S
C862 H853 0.929 . S
C862 C854 1.378 . S
C862 C857 1.350 . S
C863 H850 0.929 . S
C863 C855 1.433 . S
C863 N865 1.384 . S
N864 C860 1.427 . S
N864 C861 1.384 . S
N865 C857 1.427 . S
N865 C863 1.384 . S
H866 C872 0.930 . S
H867 C876 0.930 . S
H868 C881 0.929 . S
H869 C879 0.929 . S
H870 C874 0.929 . S
H871 C880 0.929 . S
C872 H866 0.930 . S
C872 C873 1.367 . S
C872 C880 1.378 . S
C873 C872 1.367 . S
C873 C881 1.433 . S
C874 H870 0.929 . S
C874 C876 1.378 . S
C874 C878 1.350 . S
C875 C878 1.463 . S
C875 C880 1.350 . S
C875 N883 1.427 . S
C876 H867 0.930 . S
C876 C874 1.378 . S
C876 C877 1.367 . S
C877 C876 1.367 . S
C877 C879 1.433 . S
C878 C874 1.350 . S
C878 C875 1.463 . S
C878 N882 1.427 . S
C879 H869 0.929 . S
C879 C877 1.433 . S
C879 N882 1.384 . S
C880 H871 0.929 . S
C880 C872 1.378 . S
C880 C875 1.350 . S
C881 H868 0.929 . S
C881 C873 1.433 . S
C881 N883 1.384 . S
N882 C878 1.427 . S
N882 C879 1.384 . S
N883 C875 1.427 . S
N883 C881 1.384 . S
H884 C890 0.930 . S
H885 C894 0.930 . S
H886 C899 0.929 . S
H887 C897 0.929 . S
H888 C892 0.929 . S
H889 C898 0.929 . S
C890 H884 0.930 . S
C890 C891 1.367 . S
C890 C898 1.378 . S
C891 C890 1.367 . S
C891 C899 1.433 . S
C892 H888 0.929 . S
C892 C894 1.378 . S
C892 C896 1.350 . S
C893 C896 1.463 . S
C893 C898 1.350 . S
C893 N901 1.427 . S
C894 H885 0.930 . S
C894 C892 1.378 . S
C894 C895 1.367 . S
C895 C894 1.367 . S
C895 C897 1.433 . S
C896 C892 1.350 . S
C896 C893 1.463 . S
C896 N900 1.427 . S
C897 H887 0.929 . S
C897 C895 1.433 . S
C897 N900 1.384 . S
C898 H889 0.929 . S
C898 C890 1.378 . S
C898 C893 1.350 . S
C899 H886 0.929 . S
C899 C891 1.433 . S
C899 N901 1.384 . S
N900 C896 1.427 . S
N900 C897 1.384 . S
N901 C893 1.427 . S
N901 C899 1.384 . S
H902 C908 0.930 . S
H903 C912 0.930 . S
H904 C917 0.929 1_655 S
H905 C915 0.929 . S
H906 C910 0.929 . S
H907 C916 0.929 . S
C908 H902 0.930 . S
C908 C909 1.367 . S
C908 C916 1.378 . S
C909 C908 1.367 . S
C909 C917 1.433 . S
C910 H906 0.929 . S
C910 C912 1.378 . S
C910 C914 1.350 . S
C911 C914 1.463 . S
C911 C916 1.350 . S
C911 N919 1.427 . S
C912 H903 0.930 . S
C912 C910 1.378 . S
C912 C913 1.367 . S
C913 C912 1.367 . S
C913 C915 1.433 . S
C914 C910 1.350 . S
C914 C911 1.463 . S
C914 N918 1.427 . S
C915 H905 0.929 . S
C915 C913 1.433 . S
C915 N918 1.384 . S
C916 H907 0.929 . S
C916 C908 1.378 . S
C916 C911 1.350 . S
C917 H904 0.929 1_455 S
C917 C909 1.433 . S
C917 N919 1.384 . S
N918 C914 1.427 . S
N918 C915 1.384 . S
N919 C911 1.427 . S
N919 C917 1.384 . S
H920 C926 0.930 . S
H921 C930 0.930 . S
H922 C935 0.929 . S
H923 C933 0.929 . S
H924 C928 0.929 . S
H925 C934 0.929 . S
C926 H920 0.930 . S
C926 C927 1.367 . S
C926 C934 1.378 . S
C927 C926 1.367 . S
C927 C935 1.433 . S
C928 H924 0.929 . S
C928 C930 1.378 . S
C928 C932 1.350 . S
C929 C932 1.463 . S
C929 C934 1.350 . S
C929 N937 1.427 . S
C930 H921 0.930 . S
C930 C928 1.378 . S
C930 C931 1.367 . S
C931 C930 1.367 . S
C931 C933 1.433 . S
C932 C928 1.350 . S
C932 C929 1.463 . S
C932 N936 1.427 . S
C933 H923 0.929 . S
C933 C931 1.433 . S
C933 N936 1.384 . S
C934 H925 0.929 . S
C934 C926 1.378 . S
C934 C929 1.350 . S
C935 H922 0.929 . S
C935 C927 1.433 . S
C935 N937 1.384 . S
N936 C932 1.427 . S
N936 C933 1.384 . S
N937 C929 1.427 . S
N937 C935 1.384 . S
H938 C944 0.930 . S
H939 C948 0.930 . S
H940 C953 0.929 . S
H941 C951 0.929 . S
H942 C946 0.935 . S
H943 C952 0.929 . S
C944 H938 0.930 . S
C944 C945 1.367 1_455 S
C944 C952 1.378 . S
C945 C944 1.367 1_655 S
C945 C953 1.433 . S
C946 H942 0.935 . S
C946 C948 1.372 1_554 S
C946 C950 1.330 1_654 S
C947 C950 1.442 1_654 S
C947 C952 1.350 1_655 S
C947 N955 1.427 . S
C948 H939 0.930 . S
C948 C946 1.372 1_556 S
C948 C949 1.367 1_655 S
C949 C948 1.367 1_455 S
C949 C951 1.433 . S
C950 C946 1.330 1_456 S
C950 C947 1.442 1_456 S
C950 N954 1.470 . S
C951 H941 0.929 . S
C951 C949 1.433 . S
C951 N954 1.384 . S
C952 H943 0.929 . S
C952 C944 1.378 . S
C952 C947 1.350 1_455 S
C953 H940 0.929 . S
C953 C945 1.433 . S
C953 N955 1.384 . S
N954 C950 1.470 . S
N954 C951 1.384 . S
N955 C947 1.427 . S
N955 C953 1.384 . S
H956 C962 0.930 . S
H957 C966 0.930 . S
H958 C971 0.929 . S
H959 C969 0.929 . S
H960 C964 0.929 . S
H961 C970 0.929 . S
C962 H956 0.930 . S
C962 C963 1.367 . S
C962 C970 1.378 . S
C963 C962 1.367 . S
C963 C971 1.433 . S
C964 H960 0.929 . S
C964 C966 1.378 . S
C964 C968 1.350 . S
C965 C968 1.463 . S
C965 C970 1.350 . S
C965 N973 1.427 . S
C966 H957 0.930 . S
C966 C964 1.378 . S
C966 C967 1.367 . S
C967 C966 1.367 . S
C967 C969 1.433 . S
C968 C964 1.350 . S
C968 C965 1.463 . S
C968 N972 1.427 . S
C969 H959 0.929 . S
C969 C967 1.433 . S
C969 N972 1.384 . S
C970 H961 0.929 . S
C970 C962 1.378 . S
C970 C965 1.350 . S
C971 H958 0.929 . S
C971 C963 1.433 . S
C971 N973 1.384 . S
N972 C968 1.427 . S
N972 C969 1.384 . S
N973 C965 1.427 . S
N973 C971 1.384 . S
H974 C980 0.930 . S
H975 C984 0.930 . S
H976 C989 0.929 . S
H977 C987 0.929 . S
H978 C982 0.929 1_554 S
H979 C988 0.929 . S
C980 H974 0.930 . S
C980 C981 1.367 1_556 S
C980 C988 1.378 . S
C981 C980 1.367 1_554 S
C981 C989 1.433 . S
C982 H978 0.929 1_556 S
C982 C984 1.378 . S
C982 C986 1.350 . S
C983 C986 1.463 . S
C983 C988 1.350 . S
C983 N991 1.427 1_556 S
C984 H975 0.930 . S
C984 C982 1.378 . S
C984 C985 1.367 . S
C985 C984 1.367 . S
C985 C987 1.433 . S
C986 C982 1.350 . S
C986 C983 1.463 . S
C986 N990 1.427 . S
C987 H977 0.929 . S
C987 C985 1.433 . S
C987 N990 1.384 . S
C988 H979 0.929 . S
C988 C980 1.378 . S
C988 C983 1.350 . S
C989 H976 0.929 . S
C989 C981 1.433 . S
C989 N991 1.384 . S
N990 C986 1.427 . S
N990 C987 1.384 . S
N991 C983 1.427 1_554 S
N991 C989 1.384 . S
H992 C998 0.930 . S
H993 C1002 0.930 . S
H994 C1007 0.929 . S
H995 C1005 0.929 . S
H996 C1000 0.929 . S
H997 C1006 0.929 . S
C998 H992 0.930 . S
C998 C999 1.367 . S
C998 C1006 1.378 . S
C999 C998 1.367 . S
C999 C1007 1.433 . S
C1000 H996 0.929 . S
C1000 C1002 1.378 . S
C1000 C1004 1.350 . S
C1001 C1004 1.463 . S
C1001 C1006 1.350 . S
C1001 N1009 1.427 . S
C1002 H993 0.930 . S
C1002 C1000 1.378 . S
C1002 C1003 1.367 . S
C1003 C1002 1.367 . S
C1003 C1005 1.433 . S
C1004 C1000 1.350 . S
C1004 C1001 1.463 . S
C1004 N1008 1.427 . S
C1005 H995 0.929 . S
C1005 C1003 1.433 . S
C1005 N1008 1.384 . S
C1006 H997 0.929 . S
C1006 C998 1.378 . S
C1006 C1001 1.350 . S
C1007 H994 0.929 . S
C1007 C999 1.433 . S
C1007 N1009 1.384 . S
N1008 C1004 1.427 . S
N1008 C1005 1.384 . S
N1009 C1001 1.427 . S
N1009 C1007 1.384 . S
H1010 C1016 0.930 . S
H1011 C1020 0.930 . S
H1012 C1025 0.929 . S
H1013 C1023 0.929 . S
H1014 C1018 0.929 . S
H1015 C1024 0.929 . S
C1016 H1010 0.930 . S
C1016 C1017 1.367 . S
C1016 C1024 1.378 . S
C1017 C1016 1.367 . S
C1017 C1025 1.433 . S
C1018 H1014 0.929 . S
C1018 C1020 1.378 . S
C1018 C1022 1.350 . S
C1019 C1022 1.463 . S
C1019 C1024 1.350 . S
C1019 N1027 1.427 . S
C1020 H1011 0.930 . S
C1020 C1018 1.378 . S
C1020 C1021 1.367 . S
C1021 C1020 1.367 . S
C1021 C1023 1.433 . S
C1022 C1018 1.350 . S
C1022 C1019 1.463 . S
C1022 N1026 1.427 . S
C1023 H1013 0.929 . S
C1023 C1021 1.433 . S
C1023 N1026 1.384 . S
C1024 H1015 0.929 . S
C1024 C1016 1.378 . S
C1024 C1019 1.350 . S
C1025 H1012 0.929 . S
C1025 C1017 1.433 . S
C1025 N1027 1.384 . S
N1026 C1022 1.427 . S
N1026 C1023 1.384 . S
N1027 C1019 1.427 . S
N1027 C1025 1.384 . S
H1028 C1034 0.930 . S
H1029 C1038 0.930 . S
H1030 C1043 0.929 . S
H1031 C1041 0.929 . S
H1032 C1036 0.929 . S
H1033 C1042 0.929 . S
C1034 H1028 0.930 . S
C1034 C1035 1.367 . S
C1034 C1042 1.378 . S
C1035 C1034 1.367 . S
C1035 C1043 1.433 . S
C1036 H1032 0.929 . S
C1036 C1038 1.378 . S
C1036 C1040 1.350 . S
C1037 C1040 1.463 . S
C1037 C1042 1.350 . S
C1037 N1045 1.427 . S
C1038 H1029 0.930 . S
C1038 C1036 1.378 . S
C1038 C1039 1.367 . S
C1039 C1038 1.367 . S
C1039 C1041 1.433 . S
C1040 C1036 1.350 . S
C1040 C1037 1.463 . S
C1040 N1044 1.427 . S
C1041 H1031 0.929 . S
C1041 C1039 1.433 . S
C1041 N1044 1.384 . S
C1042 H1033 0.929 . S
C1042 C1034 1.378 . S
C1042 C1037 1.350 . S
C1043 H1030 0.929 . S
C1043 C1035 1.433 . S
C1043 N1045 1.384 . S
N1044 C1040 1.427 . S
N1044 C1041 1.384 . S
N1045 C1037 1.427 . S
N1045 C1043 1.384 . S
H1046 C1052 0.930 . S
H1047 C1056 0.930 . S
H1048 C1061 0.929 . S
H1049 C1059 0.929 . S
H1050 C1054 0.929 . S
H1051 C1060 0.929 . S
C1052 H1046 0.930 . S
C1052 C1053 1.367 . S
C1052 C1060 1.378 . S
C1053 C1052 1.367 . S
C1053 C1061 1.433 . S
C1054 H1050 0.929 . S
C1054 C1056 1.378 . S
C1054 C1058 1.350 . S
C1055 C1058 1.463 . S
C1055 C1060 1.350 . S
C1055 N1063 1.427 . S
C1056 H1047 0.930 . S
C1056 C1054 1.378 . S
C1056 C1057 1.367 . S
C1057 C1056 1.367 . S
C1057 C1059 1.433 . S
C1058 C1054 1.350 . S
C1058 C1055 1.463 . S
C1058 N1062 1.427 . S
C1059 H1049 0.929 . S
C1059 C1057 1.433 . S
C1059 N1062 1.384 . S
C1060 H1051 0.929 . S
C1060 C1052 1.378 . S
C1060 C1055 1.350 . S
C1061 H1048 0.929 . S
C1061 C1053 1.433 . S
C1061 N1063 1.384 . S
N1062 C1058 1.427 . S
N1062 C1059 1.384 . S
N1063 C1055 1.427 . S
N1063 C1061 1.384 . S
H1064 C1070 0.930 . S
H1065 C1074 0.930 . S
H1066 C1079 0.929 . S
H1067 C1077 0.929 . S
H1068 C1072 0.929 . S
H1069 C1078 0.929 . S
C1070 H1064 0.930 . S
C1070 C1071 1.367 . S
C1070 C1078 1.378 . S
C1071 C1070 1.367 . S
C1071 C1079 1.433 . S
C1072 H1068 0.929 . S
C1072 C1074 1.378 . S
C1072 C1076 1.350 . S
C1073 C1076 1.463 . S
C1073 C1078 1.350 . S
C1073 N1081 1.427 . S
C1074 H1065 0.930 . S
C1074 C1072 1.378 . S
C1074 C1075 1.367 . S
C1075 C1074 1.367 . S
C1075 C1077 1.433 . S
C1076 C1072 1.350 . S
C1076 C1073 1.463 . S
C1076 N1080 1.427 . S
C1077 H1067 0.929 . S
C1077 C1075 1.433 . S
C1077 N1080 1.384 . S
C1078 H1069 0.929 . S
C1078 C1070 1.378 . S
C1078 C1073 1.350 . S
C1079 H1066 0.929 . S
C1079 C1071 1.433 . S
C1079 N1081 1.384 . S
N1080 C1076 1.427 . S
N1080 C1077 1.384 . S
N1081 C1073 1.427 . S
N1081 C1079 1.384 . S
H1082 C1088 0.930 . S
H1083 C1092 0.930 . S
H1084 C1097 0.929 . S
H1085 C1095 0.929 . S
H1086 C1090 0.929 . S
H1087 C1096 0.929 . S
C1088 H1082 0.930 . S
C1088 C1089 1.367 . S
C1088 C1096 1.378 . S
C1089 C1088 1.367 . S
C1089 C1097 1.433 . S
C1090 H1086 0.929 . S
C1090 C1092 1.378 . S
C1090 C1094 1.350 . S
C1091 C1094 1.463 . S
C1091 C1096 1.350 . S
C1091 N1099 1.427 . S
C1092 H1083 0.930 . S
C1092 C1090 1.378 . S
C1092 C1093 1.367 . S
C1093 C1092 1.367 . S
C1093 C1095 1.433 . S
C1094 C1090 1.350 . S
C1094 C1091 1.463 . S
C1094 N1098 1.427 . S
C1095 H1085 0.929 . S
C1095 C1093 1.433 . S
C1095 N1098 1.384 . S
C1096 H1087 0.929 . S
C1096 C1088 1.378 . S
C1096 C1091 1.350 . S
C1097 H1084 0.929 . S
C1097 C1089 1.433 . S
C1097 N1099 1.384 . S
N1098 C1094 1.427 . S
N1098 C1095 1.384 . S
N1099 C1091 1.427 . S
N1099 C1097 1.384 . S
H1100 C1106 0.930 . S
H1101 C1110 0.930 . S
H1102 C1115 0.929 . S
H1103 C1113 0.929 . S
H1104 C1108 0.929 . S
H1105 C1114 0.929 . S
C1106 H1100 0.930 . S
C1106 C1107 1.367 . S
C1106 C1114 1.378 . S
C1107 C1106 1.367 . S
C1107 C1115 1.433 . S
C1108 H1104 0.929 . S
C1108 C1110 1.378 . S
C1108 C1112 1.350 . S
C1109 C1112 1.463 . S
C1109 C1114 1.350 . S
C1109 N1117 1.427 . S
C1110 H1101 0.930 . S
C1110 C1108 1.378 . S
C1110 C1111 1.367 . S
C1111 C1110 1.367 . S
C1111 C1113 1.433 . S
C1112 C1108 1.350 . S
C1112 C1109 1.463 . S
C1112 N1116 1.427 . S
C1113 H1103 0.929 . S
C1113 C1111 1.433 . S
C1113 N1116 1.384 . S
C1114 H1105 0.929 . S
C1114 C1106 1.378 . S
C1114 C1109 1.350 . S
C1115 H1102 0.929 . S
C1115 C1107 1.433 . S
C1115 N1117 1.384 . S
N1116 C1112 1.427 . S
N1116 C1113 1.384 . S
N1117 C1109 1.427 . S
N1117 C1115 1.384 . S
H1118 C1124 0.930 . S
H1119 C1128 0.930 . S
H1120 C1133 0.929 . S
H1121 C1131 0.929 . S
H1122 C1126 0.929 . S
H1123 C1132 0.929 . S
C1124 H1118 0.930 . S
C1124 C1125 1.367 . S
C1124 C1132 1.378 . S
C1125 C1124 1.367 . S
C1125 C1133 1.433 . S
C1126 H1122 0.929 . S
C1126 C1128 1.378 . S
C1126 C1130 1.350 . S
C1127 C1130 1.463 . S
C1127 C1132 1.350 . S
C1127 N1135 1.427 . S
C1128 H1119 0.930 . S
C1128 C1126 1.378 . S
C1128 C1129 1.367 . S
C1129 C1128 1.367 . S
C1129 C1131 1.433 . S
C1130 C1126 1.350 . S
C1130 C1127 1.463 . S
C1130 N1134 1.427 . S
C1131 H1121 0.929 . S
C1131 C1129 1.433 . S
C1131 N1134 1.384 . S
C1132 H1123 0.929 . S
C1132 C1124 1.378 . S
C1132 C1127 1.350 . S
C1133 H1120 0.929 . S
C1133 C1125 1.433 . S
C1133 N1135 1.384 . S
N1134 C1130 1.427 . S
N1134 C1131 1.384 . S
N1135 C1127 1.427 . S
N1135 C1133 1.384 . S
H1136 C1142 0.930 . S
H1137 C1146 0.930 . S
H1138 C1151 0.929 . S
H1139 C1149 0.929 . S
H1140 C1144 0.929 . S
H1141 C1150 0.929 . S
C1142 H1136 0.930 . S
C1142 C1143 1.367 . S
C1142 C1150 1.378 . S
C1143 C1142 1.367 . S
C1143 C1151 1.433 1_556 S
C1144 H1140 0.929 . S
C1144 C1146 1.378 . S
C1144 C1148 1.350 1_554 S
C1145 C1148 1.463 . S
C1145 C1150 1.350 . S
C1145 N1153 1.427 1_556 S
C1146 H1137 0.930 . S
C1146 C1144 1.378 . S
C1146 C1147 1.367 1_554 S
C1147 C1146 1.367 1_556 S
C1147 C1149 1.433 . S
C1148 C1144 1.350 1_556 S
C1148 C1145 1.463 . S
C1148 N1152 1.427 . S
C1149 H1139 0.929 . S
C1149 C1147 1.433 . S
C1149 N1152 1.384 . S
C1150 H1141 0.929 . S
C1150 C1142 1.378 . S
C1150 C1145 1.350 . S
C1151 H1138 0.929 . S
C1151 C1143 1.433 1_554 S
C1151 N1153 1.384 . S
N1152 C1148 1.427 . S
N1152 C1149 1.384 . S
N1153 C1145 1.427 1_554 S
N1153 C1151 1.384 . S
H1154 C1160 0.930 . S
H1155 C1164 0.930 . S
H1156 C1169 0.929 . S
H1157 C1167 0.929 . S
H1158 C1162 0.929 . S
H1159 C1168 0.929 . S
C1160 H1154 0.930 . S
C1160 C1161 1.367 . S
C1160 C1168 1.378 . S
C1161 C1160 1.367 . S
C1161 C1169 1.433 . S
C1162 H1158 0.929 . S
C1162 C1164 1.378 . S
C1162 C1166 1.350 . S
C1163 C1166 1.463 . S
C1163 C1168 1.350 . S
C1163 N1171 1.427 . S
C1164 H1155 0.930 . S
C1164 C1162 1.378 . S
C1164 C1165 1.367 . S
C1165 C1164 1.367 . S
C1165 C1167 1.433 . S
C1166 C1162 1.350 . S
C1166 C1163 1.463 . S
C1166 N1170 1.427 . S
C1167 H1157 0.929 . S
C1167 C1165 1.433 . S
C1167 N1170 1.384 . S
C1168 H1159 0.929 . S
C1168 C1160 1.378 . S
C1168 C1163 1.350 . S
C1169 H1156 0.929 . S
C1169 C1161 1.433 . S
C1169 N1171 1.384 . S
N1170 C1166 1.427 . S
N1170 C1167 1.384 . S
N1171 C1163 1.427 . S
N1171 C1169 1.384 . S
H1172 C1178 0.930 . S
H1173 C1182 0.930 . S
H1174 C1187 0.929 . S
H1175 C1185 0.929 . S
H1176 C1180 0.929 . S
H1177 C1186 0.929 . S
C1178 H1172 0.930 . S
C1178 C1179 1.367 . S
C1178 C1186 1.378 . S
C1179 C1178 1.367 . S
C1179 C1187 1.433 . S
C1180 H1176 0.929 . S
C1180 C1182 1.378 . S
C1180 C1184 1.350 . S
C1181 C1184 1.463 . S
C1181 C1186 1.350 . S
C1181 N1189 1.427 . S
C1182 H1173 0.930 . S
C1182 C1180 1.378 . S
C1182 C1183 1.367 . S
C1183 C1182 1.367 . S
C1183 C1185 1.433 . S
C1184 C1180 1.350 . S
C1184 C1181 1.463 . S
C1184 N1188 1.427 . S
C1185 H1175 0.929 . S
C1185 C1183 1.433 . S
C1185 N1188 1.384 . S
C1186 H1177 0.929 . S
C1186 C1178 1.378 . S
C1186 C1181 1.350 . S
C1187 H1174 0.929 . S
C1187 C1179 1.433 . S
C1187 N1189 1.384 . S
N1188 C1184 1.427 . S
N1188 C1185 1.384 . S
N1189 C1181 1.427 . S
N1189 C1187 1.384 . S
H1190 C1196 0.930 . S
H1191 C1200 0.930 . S
H1192 C1205 0.929 1_545 S
H1193 C1203 0.929 1_556 S
H1194 C1198 0.929 . S
H1195 C1204 0.927 . S
C1196 H1190 0.930 . S
C1196 C1197 1.367 . S
C1196 C1204 1.378 . S
C1197 C1196 1.367 . S
C1197 C1205 1.433 . S
C1198 H1194 0.929 . S
C1198 C1200 1.378 . S
C1198 C1202 1.350 . S
C1199 C1202 1.463 . S
C1199 C1204 1.350 . S
C1199 N1207 1.427 . S
C1200 H1191 0.930 . S
C1200 C1198 1.378 . S
C1200 C1201 1.367 . S
C1201 C1200 1.367 . S
C1201 C1203 1.433 . S
C1202 C1198 1.350 . S
C1202 C1199 1.463 . S
C1202 N1206 1.427 . S
C1203 H1193 0.929 1_554 S
C1203 C1201 1.433 . S
C1203 N1206 1.384 . S
C1204 H1195 0.927 . S
C1204 C1196 1.378 . S
C1204 C1199 1.350 . S
C1205 H1192 0.929 1_565 S
C1205 C1197 1.433 . S
C1205 N1207 1.384 . S
N1206 C1202 1.427 . S
N1206 C1203 1.384 . S
N1207 C1199 1.427 . S
N1207 C1205 1.384 . S
C355 C187 1.178 . S
C351 C62 1.169 . S
C373 C195 1.412 . S
C369 C73 1.567 1_455 S
C387 C84 1.431 . S
C391 C215 1.453 . S
C409 C229 1.252 . S
C405 C49 1.134 . S
C427 C244 1.390 . S
C423 C118 1.382 . S
C445 C258 1.634 . S
C441 C137 1.377 . S
C459 C129 1.605 . S
C463 C272 1.621 . S
C481 C278 1.816 . S
C477 C106 1.829 . S
C495 C128 1.832 . S
C499 C292 1.851 . S
C517 C313 1.665 . S
C513 C104 1.500 . S
C531 C115 1.560 . S
C535 C293 1.534 . S
C553 C314 1.809 . S
C549 C139 1.720 . S
C567 C85 1.542 . S
C571 C321 1.234 . S
C585 C52 1.224 . S
C589 C327 1.218 . S
C603 C60 0.889 . S
C607 C320 0.983 . S
C621 C71 1.389 1_655 S
C625 C328 1.537 . S
C639 C40 1.707 . S
C643 C222 1.736 . S
C657 C162 1.130 . S
C661 C223 0.968 . S
C679 C180 1.140 . S
C675 C173 1.184 . S
C697 C201 1.666 . S
C693 C93 1.552 . S
C711 C51 1.389 . S
C715 C236 1.419 . S
C733 C286 1.528 . S
C729 C126 1.349 . S
C751 C237 1.453 . S
C747 C107 1.681 . S
C769 C265 1.406 . S
C765 C140 1.617 . S
C787 C271 1.182 . S
C783 C161 1.154 . S
C801 C172 1.571 . S
C805 C279 1.407 . S
C819 C95 1.444 . S
C823 C243 1.462 . S
C841 C257 1.251 . S
C837 C148 1.131 . S
C855 C41 1.384 . S
C859 C216 1.391 . S
C877 C230 1.634 . S
C873 C5 1.369 . S
C895 C188 1.624 . S
C891 C19 1.611 . S
C913 C194 1.823 . S
C909 C29 1.819 1_455 S
C927 C18 1.826 . S
C931 C306 1.847 . S
C945 C27 1.477 . S
C949 C299 1.656 . S
C963 C38 1.538 . S
C967 C307 1.551 . S
C981 C7 1.729 . S
C985 C300 1.812 . S
C1003 C335 1.246 . S
C999 C96 1.542 . S
C1021 C341 1.218 . S
C1017 C151 1.223 . S
C1039 C334 0.980 . S
C1035 C159 0.910 . S
C1053 C170 1.404 . S
C1057 C342 1.540 . S
C1071 C117 1.704 . S
C1075 C250 1.738 . S
C1093 C251 0.979 . S
C1089 C63 1.133 . S
C1111 C264 1.150 . S
C1107 C74 1.181 . S
C1129 C285 1.667 . S
C1125 C82 1.554 . S
C1143 C150 1.403 . S
C1147 C208 1.423 1_556 S
C1165 C202 1.528 . S
C1161 C16 1.347 . S
C1179 C30 1.679 . S
C1183 C209 1.460 . S
C1201 C181 1.407 . S
C1197 C8 1.615 . S
