# Generated by pormake.
# Topology gar, (4,6)-cn, num edge types: 1
# Building blocks:
#     Node 0, Type 0, BuildingBlock: NAHDIM_clean_sbu_0, # of connection points: 4
#     Node 1, Type 0, BuildingBlock: NAHDIM_clean_sbu_0, # of connection points: 4
#     Node 2, Type 0, BuildingBlock: NAHDIM_clean_sbu_0, # of connection points: 4
#     Node 3, Type 0, BuildingBlock: NAHDIM_clean_sbu_0, # of connection points: 4
#     Node 4, Type 0, BuildingBlock: NAHDIM_clean_sbu_0, # of connection points: 4
#     Node 5, Type 0, BuildingBlock: NAHDIM_clean_sbu_0, # of connection points: 4
#     Node 6, Type 0, BuildingBlock: NAHDIM_clean_sbu_0, # of connection points: 4
#     Node 7, Type 0, BuildingBlock: NAHDIM_clean_sbu_0, # of connection points: 4
#     Node 8, Type 0, BuildingBlock: NAHDIM_clean_sbu_0, # of connection points: 4
#     Node 9, Type 0, BuildingBlock: NAHDIM_clean_sbu_0, # of connection points: 4
#     Node 10, Type 0, BuildingBlock: NAHDIM_clean_sbu_0, # of connection points: 4
#     Node 11, Type 0, BuildingBlock: NAHDIM_clean_sbu_0, # of connection points: 4
#     Node 12, Type 0, BuildingBlock: NAHDIM_clean_sbu_0, # of connection points: 4
#     Node 13, Type 0, BuildingBlock: NAHDIM_clean_sbu_0, # of connection points: 4
#     Node 14, Type 0, BuildingBlock: NAHDIM_clean_sbu_0, # of connection points: 4
#     Node 15, Type 0, BuildingBlock: NAHDIM_clean_sbu_0, # of connection points: 4
#     Node 16, Type 0, BuildingBlock: NAHDIM_clean_sbu_0, # of connection points: 4
#     Node 17, Type 0, BuildingBlock: NAHDIM_clean_sbu_0, # of connection points: 4
#     Node 18, Type 0, BuildingBlock: NAHDIM_clean_sbu_0, # of connection points: 4
#     Node 19, Type 0, BuildingBlock: NAHDIM_clean_sbu_0, # of connection points: 4
#     Node 20, Type 0, BuildingBlock: NAHDIM_clean_sbu_0, # of connection points: 4
#     Node 21, Type 0, BuildingBlock: NAHDIM_clean_sbu_0, # of connection points: 4
#     Node 22, Type 0, BuildingBlock: NAHDIM_clean_sbu_0, # of connection points: 4
#     Node 23, Type 0, BuildingBlock: NAHDIM_clean_sbu_0, # of connection points: 4
#     Node 24, Type 1, BuildingBlock: BETDIP_clean_sbu_0, # of connection points: 6
#     Node 25, Type 1, BuildingBlock: BETDIP_clean_sbu_0, # of connection points: 6
#     Node 26, Type 1, BuildingBlock: BETDIP_clean_sbu_0, # of connection points: 6
#     Node 27, Type 1, BuildingBlock: BETDIP_clean_sbu_0, # of connection points: 6
#     Node 28, Type 1, BuildingBlock: BETDIP_clean_sbu_0, # of connection points: 6
#     Node 29, Type 1, BuildingBlock: BETDIP_clean_sbu_0, # of connection points: 6
#     Node 30, Type 1, BuildingBlock: BETDIP_clean_sbu_0, # of connection points: 6
#     Node 31, Type 1, BuildingBlock: BETDIP_clean_sbu_0, # of connection points: 6
#     Node 32, Type 1, BuildingBlock: BETDIP_clean_sbu_0, # of connection points: 6
#     Node 33, Type 1, BuildingBlock: BETDIP_clean_sbu_0, # of connection points: 6
#     Node 34, Type 1, BuildingBlock: BETDIP_clean_sbu_0, # of connection points: 6
#     Node 35, Type 1, BuildingBlock: BETDIP_clean_sbu_0, # of connection points: 6
#     Node 36, Type 1, BuildingBlock: BETDIP_clean_sbu_0, # of connection points: 6
#     Node 37, Type 1, BuildingBlock: BETDIP_clean_sbu_0, # of connection points: 6
#     Node 38, Type 1, BuildingBlock: BETDIP_clean_sbu_0, # of connection points: 6
#     Node 39, Type 1, BuildingBlock: BETDIP_clean_sbu_0, # of connection points: 6
#     Edge 40, Type (0, 1), BuildingBlock: AJUNOK_clean_linker_0, # of connection points: 2
#     Edge 41, Type (0, 1), BuildingBlock: AJUNOK_clean_linker_0, # of connection points: 2
#     Edge 42, Type (0, 1), BuildingBlock: AJUNOK_clean_linker_0, # of connection points: 2
#     Edge 43, Type (0, 1), BuildingBlock: AJUNOK_clean_linker_0, # of connection points: 2
#     Edge 44, Type (0, 1), BuildingBlock: AJUNOK_clean_linker_0, # of connection points: 2
#     Edge 45, Type (0, 1), BuildingBlock: AJUNOK_clean_linker_0, # of connection points: 2
#     Edge 46, Type (0, 1), BuildingBlock: AJUNOK_clean_linker_0, # of connection points: 2
#     Edge 47, Type (0, 1), BuildingBlock: AJUNOK_clean_linker_0, # of connection points: 2
#     Edge 48, Type (0, 1), BuildingBlock: AJUNOK_clean_linker_0, # of connection points: 2
#     Edge 49, Type (0, 1), BuildingBlock: AJUNOK_clean_linker_0, # of connection points: 2
#     Edge 50, Type (0, 1), BuildingBlock: AJUNOK_clean_linker_0, # of connection points: 2
#     Edge 51, Type (0, 1), BuildingBlock: AJUNOK_clean_linker_0, # of connection points: 2
#     Edge 52, Type (0, 1), BuildingBlock: AJUNOK_clean_linker_0, # of connection points: 2
#     Edge 53, Type (0, 1), BuildingBlock: AJUNOK_clean_linker_0, # of connection points: 2
#     Edge 54, Type (0, 1), BuildingBlock: AJUNOK_clean_linker_0, # of connection points: 2
#     Edge 55, Type (0, 1), BuildingBlock: AJUNOK_clean_linker_0, # of connection points: 2
#     Edge 56, Type (0, 1), BuildingBlock: AJUNOK_clean_linker_0, # of connection points: 2
#     Edge 57, Type (0, 1), BuildingBlock: AJUNOK_clean_linker_0, # of connection points: 2
#     Edge 58, Type (0, 1), BuildingBlock: AJUNOK_clean_linker_0, # of connection points: 2
#     Edge 59, Type (0, 1), BuildingBlock: AJUNOK_clean_linker_0, # of connection points: 2
#     Edge 60, Type (0, 1), BuildingBlock: AJUNOK_clean_linker_0, # of connection points: 2
#     Edge 61, Type (0, 1), BuildingBlock: AJUNOK_clean_linker_0, # of connection points: 2
#     Edge 62, Type (0, 1), BuildingBlock: AJUNOK_clean_linker_0, # of connection points: 2
#     Edge 63, Type (0, 1), BuildingBlock: AJUNOK_clean_linker_0, # of connection points: 2
#     Edge 64, Type (0, 1), BuildingBlock: AJUNOK_clean_linker_0, # of connection points: 2
#     Edge 65, Type (0, 1), BuildingBlock: AJUNOK_clean_linker_0, # of connection points: 2
#     Edge 66, Type (0, 1), BuildingBlock: AJUNOK_clean_linker_0, # of connection points: 2
#     Edge 67, Type (0, 1), BuildingBlock: AJUNOK_clean_linker_0, # of connection points: 2
#     Edge 68, Type (0, 1), BuildingBlock: AJUNOK_clean_linker_0, # of connection points: 2
#     Edge 69, Type (0, 1), BuildingBlock: AJUNOK_clean_linker_0, # of connection points: 2
#     Edge 70, Type (0, 1), BuildingBlock: AJUNOK_clean_linker_0, # of connection points: 2
#     Edge 71, Type (0, 1), BuildingBlock: AJUNOK_clean_linker_0, # of connection points: 2
#     Edge 72, Type (0, 1), BuildingBlock: AJUNOK_clean_linker_0, # of connection points: 2
#     Edge 73, Type (0, 1), BuildingBlock: AJUNOK_clean_linker_0, # of connection points: 2
#     Edge 74, Type (0, 1), BuildingBlock: AJUNOK_clean_linker_0, # of connection points: 2
#     Edge 75, Type (0, 1), BuildingBlock: AJUNOK_clean_linker_0, # of connection points: 2
#     Edge 76, Type (0, 1), BuildingBlock: AJUNOK_clean_linker_0, # of connection points: 2
#     Edge 77, Type (0, 1), BuildingBlock: AJUNOK_clean_linker_0, # of connection points: 2
#     Edge 78, Type (0, 1), BuildingBlock: AJUNOK_clean_linker_0, # of connection points: 2
#     Edge 79, Type (0, 1), BuildingBlock: AJUNOK_clean_linker_0, # of connection points: 2
#     Edge 80, Type (0, 1), BuildingBlock: AJUNOK_clean_linker_0, # of connection points: 2
#     Edge 81, Type (0, 1), BuildingBlock: AJUNOK_clean_linker_0, # of connection points: 2
#     Edge 82, Type (0, 1), BuildingBlock: AJUNOK_clean_linker_0, # of connection points: 2
#     Edge 83, Type (0, 1), BuildingBlock: AJUNOK_clean_linker_0, # of connection points: 2
#     Edge 84, Type (0, 1), BuildingBlock: AJUNOK_clean_linker_0, # of connection points: 2
#     Edge 85, Type (0, 1), BuildingBlock: AJUNOK_clean_linker_0, # of connection points: 2
#     Edge 86, Type (0, 1), BuildingBlock: AJUNOK_clean_linker_0, # of connection points: 2
#     Edge 87, Type (0, 1), BuildingBlock: AJUNOK_clean_linker_0, # of connection points: 2
#     Edge 88, Type (0, 1), BuildingBlock: AJUNOK_clean_linker_0, # of connection points: 2
#     Edge 89, Type (0, 1), BuildingBlock: AJUNOK_clean_linker_0, # of connection points: 2
#     Edge 90, Type (0, 1), BuildingBlock: AJUNOK_clean_linker_0, # of connection points: 2
#     Edge 91, Type (0, 1), BuildingBlock: AJUNOK_clean_linker_0, # of connection points: 2
#     Edge 92, Type (0, 1), BuildingBlock: AJUNOK_clean_linker_0, # of connection points: 2
#     Edge 93, Type (0, 1), BuildingBlock: AJUNOK_clean_linker_0, # of connection points: 2
#     Edge 94, Type (0, 1), BuildingBlock: AJUNOK_clean_linker_0, # of connection points: 2
#     Edge 95, Type (0, 1), BuildingBlock: AJUNOK_clean_linker_0, # of connection points: 2
#     Edge 96, Type (0, 1), BuildingBlock: AJUNOK_clean_linker_0, # of connection points: 2
#     Edge 97, Type (0, 1), BuildingBlock: AJUNOK_clean_linker_0, # of connection points: 2
#     Edge 98, Type (0, 1), BuildingBlock: AJUNOK_clean_linker_0, # of connection points: 2
#     Edge 99, Type (0, 1), BuildingBlock: AJUNOK_clean_linker_0, # of connection points: 2
#     Edge 100, Type (0, 1), BuildingBlock: AJUNOK_clean_linker_0, # of connection points: 2
#     Edge 101, Type (0, 1), BuildingBlock: AJUNOK_clean_linker_0, # of connection points: 2
#     Edge 102, Type (0, 1), BuildingBlock: AJUNOK_clean_linker_0, # of connection points: 2
#     Edge 103, Type (0, 1), BuildingBlock: AJUNOK_clean_linker_0, # of connection points: 2
#     Edge 104, Type (0, 1), BuildingBlock: AJUNOK_clean_linker_0, # of connection points: 2
#     Edge 105, Type (0, 1), BuildingBlock: AJUNOK_clean_linker_0, # of connection points: 2
#     Edge 106, Type (0, 1), BuildingBlock: AJUNOK_clean_linker_0, # of connection points: 2
#     Edge 107, Type (0, 1), BuildingBlock: AJUNOK_clean_linker_0, # of connection points: 2
#     Edge 108, Type (0, 1), BuildingBlock: AJUNOK_clean_linker_0, # of connection points: 2
#     Edge 109, Type (0, 1), BuildingBlock: AJUNOK_clean_linker_0, # of connection points: 2
#     Edge 110, Type (0, 1), BuildingBlock: AJUNOK_clean_linker_0, # of connection points: 2
#     Edge 111, Type (0, 1), BuildingBlock: AJUNOK_clean_linker_0, # of connection points: 2
#     Edge 112, Type (0, 1), BuildingBlock: AJUNOK_clean_linker_0, # of connection points: 2
#     Edge 113, Type (0, 1), BuildingBlock: AJUNOK_clean_linker_0, # of connection points: 2
#     Edge 114, Type (0, 1), BuildingBlock: AJUNOK_clean_linker_0, # of connection points: 2
#     Edge 115, Type (0, 1), BuildingBlock: AJUNOK_clean_linker_0, # of connection points: 2
#     Edge 116, Type (0, 1), BuildingBlock: AJUNOK_clean_linker_0, # of connection points: 2
#     Edge 117, Type (0, 1), BuildingBlock: AJUNOK_clean_linker_0, # of connection points: 2
#     Edge 118, Type (0, 1), BuildingBlock: AJUNOK_clean_linker_0, # of connection points: 2
#     Edge 119, Type (0, 1), BuildingBlock: AJUNOK_clean_linker_0, # of connection points: 2
#     Edge 120, Type (0, 1), BuildingBlock: AJUNOK_clean_linker_0, # of connection points: 2
#     Edge 121, Type (0, 1), BuildingBlock: AJUNOK_clean_linker_0, # of connection points: 2
#     Edge 122, Type (0, 1), BuildingBlock: AJUNOK_clean_linker_0, # of connection points: 2
#     Edge 123, Type (0, 1), BuildingBlock: AJUNOK_clean_linker_0, # of connection points: 2
#     Edge 124, Type (0, 1), BuildingBlock: AJUNOK_clean_linker_0, # of connection points: 2
#     Edge 125, Type (0, 1), BuildingBlock: AJUNOK_clean_linker_0, # of connection points: 2
#     Edge 126, Type (0, 1), BuildingBlock: AJUNOK_clean_linker_0, # of connection points: 2
#     Edge 127, Type (0, 1), BuildingBlock: AJUNOK_clean_linker_0, # of connection points: 2
#     Edge 128, Type (0, 1), BuildingBlock: AJUNOK_clean_linker_0, # of connection points: 2
#     Edge 129, Type (0, 1), BuildingBlock: AJUNOK_clean_linker_0, # of connection points: 2
#     Edge 130, Type (0, 1), BuildingBlock: AJUNOK_clean_linker_0, # of connection points: 2
#     Edge 131, Type (0, 1), BuildingBlock: AJUNOK_clean_linker_0, # of connection points: 2
#     Edge 132, Type (0, 1), BuildingBlock: AJUNOK_clean_linker_0, # of connection points: 2
#     Edge 133, Type (0, 1), BuildingBlock: AJUNOK_clean_linker_0, # of connection points: 2
#     Edge 134, Type (0, 1), BuildingBlock: AJUNOK_clean_linker_0, # of connection points: 2
#     Edge 135, Type (0, 1), BuildingBlock: AJUNOK_clean_linker_0, # of connection points: 2
# Relax obj value: 0.255
# Max RMSD: 0.365
# Mean RMSD: 0.188
data_MOF--net-gar--node1-NAHDIM_clean_sbu_0--node2-BETDIP_clean_sbu_0--edge1-AJUNOK_clean_linker_0
_symmetry_space_group_name_H-M    P1
_symmetry_Int_Tables_number       1
_symmetry_cell_setting            triclinic
loop_
_symmetry_equiv_pos_as_xyz
'x, y, z'
_cell_length_a     50.41834
_cell_length_b     43.141541
_cell_length_c     39.916188
_cell_angle_alpha  98.975516
_cell_angle_beta   101.01248
_cell_angle_gamma 102.96092
loop_
_atom_site_label
_atom_site_type_symbol
_atom_site_fract_x
_atom_site_fract_y
_atom_site_fract_z
_atom_type_partial_charge
C0 C 0.08993 0.35537 0.393 0.0
O1 O 0.10058 0.37702 0.42232 0.0
O2 O 0.03753 0.30809 0.43845 0.0
Zn3 Zn 0.04029 0.34747 0.41767 0.0
O4 O 0.05669 0.38706 0.45695 0.0
C5 C 0.98138 0.33104 0.40236 0.0
O6 O 0.98558 0.31253 0.42478 0.0
O7 O 0.06391 0.34194 0.38433 0.0
C8 C 0.03915 0.39735 0.47165 0.0
O9 O 1.01236 0.38471 0.45832 0.0
C10 C 0.0343 0.30918 0.4693 0.0
O11 O 0.03419 0.33681 0.48811 0.0
O12 O 1.00181 0.34769 0.39309 0.0
C13 C 0.03768 0.75852 0.80085 0.0
O14 O 0.02772 0.72917 0.78122 0.0
O15 O 0.07195 0.72608 0.7331 0.0
Zn16 Zn 0.08616 0.76567 0.77076 0.0
O17 O 0.09103 0.80175 0.74656 0.0
C18 C 0.13585 0.74634 0.79372 0.0
O19 O 0.12228 0.71807 0.77326 0.0
O20 O 0.0617 0.77524 0.80103 0.0
C21 C 0.11163 0.82669 0.75646 0.0
O22 O 0.13068 0.83012 0.78516 0.0
C23 C 0.08479 0.72668 0.70858 0.0
O24 O 0.10565 0.75198 0.71071 0.0
O25 O 0.12317 0.76821 0.79838 0.0
C26 C 0.58923 0.84317 0.89801 0.0
O27 O 0.59264 0.84239 0.93131 0.0
O28 O 0.53861 0.80478 0.93073 0.0
Zn29 Zn 0.54067 0.84562 0.91284 0.0
O30 O 0.55462 0.88178 0.95459 0.0
C31 C 0.48294 0.82069 0.88546 0.0
O32 O 0.48873 0.79311 0.88928 0.0
O33 O 0.56654 0.84707 0.88166 0.0
C34 C 0.53616 0.89027 0.96872 0.0
O35 O 0.50952 0.87877 0.9532 0.0
C36 C 0.52729 0.8017 0.95619 0.0
O37 O 0.51844 0.82554 0.97054 0.0
O38 O 0.50255 0.84599 0.88898 0.0
C39 C 0.54359 0.2615 0.30441 0.0
O40 O 0.53352 0.24123 0.27406 0.0
O41 O 0.57587 0.22656 0.24173 0.0
Zn42 Zn 0.59146 0.26771 0.27778 0.0
O43 O 0.58845 0.30294 0.25256 0.0
C44 C 0.64155 0.24658 0.28824 0.0
O45 O 0.62436 0.21738 0.28095 0.0
O46 O 0.56978 0.27443 0.31423 0.0
C47 C 0.60897 0.32719 0.25578 0.0
O48 O 0.63259 0.3306 0.27832 0.0
C49 C 0.58334 0.22833 0.21326 0.0
O50 O 0.59909 0.25572 0.2097 0.0
O51 O 0.63222 0.27147 0.29344 0.0
C52 C 0.04558 0.81442 0.21682 0.0
O53 O 0.03921 0.80966 0.1826 0.0
O54 O 0.08893 0.78351 0.16933 0.0
Zn55 Zn 0.10084 0.82985 0.20181 0.0
O56 O 0.09557 0.87194 0.17969 0.0
C57 C 0.15299 0.81116 0.23567 0.0
O58 O 0.13581 0.782 0.22428 0.0
O59 O 0.07153 0.82385 0.23273 0.0
C60 C 0.0872 0.87478 0.14802 0.0
O61 O 0.08177 0.84879 0.12322 0.0
C62 C 0.10203 0.76912 0.15016 0.0
O63 O 0.12501 0.78625 0.14412 0.0
O64 O 0.14314 0.83564 0.23081 0.0
C65 C 0.57952 0.81034 0.47221 0.0
O66 O 0.58322 0.82843 0.50325 0.0
O67 O 0.5268 0.74497 0.51201 0.0
Zn68 Zn 0.52396 0.78554 0.48632 0.0
O69 O 0.53209 0.83304 0.51529 0.0
C70 C 0.46587 0.79356 0.46135 0.0
O71 O 0.47265 0.81069 0.49334 0.0
O72 O 0.5558 0.78958 0.45881 0.0
C73 C 0.52805 0.84736 0.54367 0.0
O74 O 0.51733 0.82973 0.56424 0.0
C75 C 0.54278 0.7433 0.54067 0.0
O76 O 0.55931 0.77049 0.56075 0.0
O77 O 0.48354 0.77869 0.45182 0.0
C78 C 0.54444 0.30535 0.7122 0.0
O79 O 0.53966 0.29067 0.67943 0.0
O80 O 0.5891 0.28106 0.66558 0.0
Zn81 Zn 0.60002 0.32758 0.69732 0.0
O82 O 0.59755 0.3688 0.67214 0.0
C83 C 0.65472 0.31056 0.73014 0.0
O84 O 0.64098 0.28085 0.71366 0.0
O85 O 0.5692 0.32338 0.72689 0.0
C86 C 0.57588 0.37372 0.65281 0.0
O87 O 0.55241 0.35055 0.64473 0.0
C88 C 0.60232 0.26781 0.6457 0.0
O89 O 0.62483 0.28607 0.63976 0.0
O90 O 0.64198 0.33333 0.72824 0.0
C91 C 0.08361 0.30101 0.97923 0.0
O92 O 0.08963 0.30606 0.01346 0.0
O93 O 0.02744 0.24496 0.0134 0.0
Zn94 Zn 0.02664 0.28783 0.99107 0.0
O95 O 0.0382 0.33346 0.0254 0.0
C96 C 0.96244 0.27655 0.96211 0.0
O97 O 0.9594 0.26413 0.98958 0.0
O98 O 0.05782 0.2927 0.96289 0.0
C99 C 1.02 0.34971 0.02714 0.0
O100 O 0.99363 0.33465 0.0133 0.0
C101 C 0.04394 0.24324 0.0416 0.0
O102 O 0.06125 0.27044 0.06063 0.0
O103 O 0.9872 0.28586 0.95714 0.0
C104 C 0.39861 0.14115 0.31593 0.0
O105 O 0.40066 0.13729 0.28333 0.0
O106 O 0.45594 0.07637 0.28241 0.0
Zn107 Zn 0.43322 0.07917 0.32958 0.0
O108 O 0.46318 0.08486 0.38196 0.0
C109 C 0.40598 1.00098 0.31605 0.0
O110 O 0.42686 0.99861 0.30142 0.0
O111 O 0.40916 0.1222 0.33489 0.0
C112 C 0.47211 0.06184 0.39417 0.0
O113 O 0.46459 0.03303 0.37337 0.0
C114 C 0.47444 0.06081 0.27496 0.0
O115 O 0.48253 0.04351 0.29731 0.0
O116 O 0.40398 0.03011 0.32748 0.0
C117 C 0.33468 0.17589 0.58326 0.0
O118 O 0.34082 0.2061 0.57918 0.0
O119 O 0.28057 0.21643 0.61435 0.0
Zn120 Zn 0.27772 0.18499 0.56887 0.0
O121 O 0.287 0.20823 0.52738 0.0
C122 C 0.21855 0.16118 0.57378 0.0
O123 O 0.22367 0.19192 0.58876 0.0
O124 O 0.309 0.16134 0.5802 0.0
C125 C 0.27807 0.23027 0.51416 0.0
O126 O 0.25864 0.24139 0.5258 0.0
C127 C 0.29602 0.24498 0.62786 0.0
O128 O 0.31361 0.25905 0.61096 0.0
O129 O 0.23771 0.15193 0.56097 0.0
C130 C 0.17476 0.03763 0.86726 0.0
O131 O 0.14771 0.02709 0.86434 0.0
O132 O 0.14041 0.09799 0.83483 0.0
Zn133 Zn 0.166 0.10226 0.88302 0.0
O134 O 0.14721 0.09404 0.92428 0.0
C135 C 0.196 0.16326 0.87095 0.0
O136 O 0.17258 0.15712 0.84718 0.0
O137 O 0.18635 0.06794 0.87563 0.0
C138 C 0.12263 0.09531 0.92697 0.0
O139 O 0.10689 0.10432 0.90209 0.0
C140 C 0.11648 0.07939 0.81887 0.0
O141 O 0.10293 0.05928 0.83518 0.0
O142 O 0.19761 0.1446 0.89266 0.0
C143 C 0.20055 0.89455 0.04891 0.0
O144 O 0.19096 0.86453 0.05209 0.0
O145 O 0.23586 0.84493 0.07495 0.0
Zn146 Zn 0.2481 0.8754 0.04465 0.0
O147 O 0.23969 0.85223 0.99731 0.0
C148 C 0.30791 0.89315 0.04782 0.0
O149 O 0.30465 0.8621 0.0357 0.0
O150 O 0.22491 0.90431 0.04448 0.0
C151 C 0.23681 0.82195 0.99066 0.0
O152 O 0.23142 0.80485 0.01412 0.0
C153 C 0.24883 0.82791 0.09121 0.0
O154 O 0.23504 0.80642 0.1059 0.0
O155 O 0.28746 0.90316 0.0551 0.0
C156 C 0.29492 0.44073 0.10028 0.0
O157 O 0.29028 0.41288 0.07851 0.0
O158 O 0.34512 0.40501 0.17031 0.0
Zn159 Zn 0.34951 0.42647 0.12615 0.0
O160 O 0.33851 0.39377 0.07871 0.0
C161 C 0.41125 0.4513 0.12088 0.0
O162 O 0.41053 0.42041 0.1135 0.0
O163 O 0.31865 0.45194 0.12224 0.0
C164 C 0.34967 0.37189 0.06712 0.0
O165 O 0.37069 0.36582 0.08758 0.0
C166 C 0.34727 0.3769 0.17513 0.0
O167 O 0.35429 0.35814 0.15102 0.0
O168 O 0.38956 0.45899 0.12863 0.0
C169 C 0.91362 0.21727 0.1363 0.0
O170 O 0.92575 0.24828 0.13974 0.0
O171 O 0.91754 0.25916 0.22551 0.0
Zn172 Zn 0.88398 0.23768 0.18583 0.0
O173 O 0.87446 0.27028 0.16065 0.0
C174 C 0.82477 0.21872 0.18669 0.0
O175 O 0.82542 0.24912 0.18547 0.0
O176 O 0.89618 0.20849 0.15414 0.0
C177 C 0.85544 0.25705 0.13329 0.0
O178 O 0.84597 0.22527 0.12431 0.0
C179 C 0.91579 0.28172 0.24864 0.0
O180 O 0.93835 0.29976 0.27154 0.0
O181 O 0.8474 0.20977 0.1905 0.0
C182 C 0.21814 0.46466 0.3586 0.0
O183 O 0.19156 0.4487 0.34893 0.0
O184 O 0.16484 0.52892 0.31011 0.0
Zn185 Zn 0.19492 0.53658 0.36338 0.0
O186 O 0.16831 0.5388 0.40682 0.0
C187 C 0.22451 0.61581 0.37703 0.0
O188 O 0.20887 0.62062 0.39909 0.0
O189 O 0.22323 0.49682 0.36528 0.0
C190 C 0.17105 0.55736 0.43748 0.0
O191 O 0.19404 0.58111 0.44927 0.0
C192 C 0.15886 0.55241 0.29562 0.0
O193 O 0.17009 0.58209 0.31407 0.0
O194 O 0.22264 0.5859 0.36274 0.0
C195 C 0.79159 0.93656 0.61092 0.0
O196 O 0.78511 0.90562 0.61231 0.0
O197 O 0.84213 0.90623 0.66869 0.0
Zn198 Zn 0.84735 0.9262 0.62424 0.0
O199 O 0.83539 0.89154 0.5788 0.0
C200 C 0.91096 0.95113 0.62862 0.0
O201 O 0.91312 0.92366 0.63763 0.0
O202 O 0.8174 0.9516 0.61628 0.0
C203 C 0.85118 0.87593 0.5664 0.0
O204 O 0.87634 0.87898 0.5851 0.0
C205 C 0.84749 0.88014 0.67624 0.0
O206 O 0.85896 0.86346 0.65546 0.0
O207 O 0.88703 0.95755 0.62471 0.0
C208 C 0.95306 0.075 0.33541 0.0
O209 O 0.97851 0.08118 0.35489 0.0
O210 O 0.97674 1.01459 0.2643 0.0
Zn211 Zn 0.96182 1.01245 0.30944 0.0
O212 O 0.99172 0.02389 0.35528 0.0
C213 C 0.92151 0.94363 0.29206 0.0
O214 O 0.93089 0.93542 0.26436 0.0
O215 O 0.94256 0.04794 0.31396 0.0
C216 C 0.99173 1.00368 0.37529 0.0
O217 O 0.9751 0.97421 0.36377 0.0
C218 C 1.00315 0.02359 0.26782 0.0
O219 O 1.0191 0.02615 0.29878 0.0
O220 O 0.93157 0.9721 0.31089 0.0
C221 C 0.41147 0.71238 0.64002 0.0
O222 O 0.41599 0.74237 0.63518 0.0
O223 O 0.41543 0.77326 0.71276 0.0
Zn224 Zn 0.38242 0.7368 0.68391 0.0
O225 O 0.36228 0.74941 0.64308 0.0
C226 C 0.328 0.71893 0.69392 0.0
O227 O 0.32669 0.74544 0.68217 0.0
O228 O 0.39811 0.70417 0.66244 0.0
C229 C 0.36426 0.77793 0.63818 0.0
O230 O 0.38326 0.80225 0.65979 0.0
C231 C 0.41346 0.79862 0.73177 0.0
O232 O 0.43595 0.82245 0.74652 0.0
O233 O 0.35161 0.713 0.70321 0.0
C234 C 0.45309 0.57738 0.82194 0.0
O235 O 0.48054 0.5851 0.8317 0.0
O236 O 0.47739 0.51625 0.76494 0.0
Zn237 Zn 0.45888 0.51319 0.80628 0.0
O238 O 0.48301 0.52392 0.85602 0.0
C239 C 0.43039 0.45075 0.81674 0.0
O240 O 0.45538 0.45271 0.83528 0.0
O241 O 0.43956 0.54808 0.80873 0.0
C242 C 0.50234 0.5133 0.8718 0.0
O243 O 0.51166 0.49148 0.85407 0.0
C244 C 0.5036 0.5259 0.76764 0.0
O245 O 0.52055 0.53208 0.79867 0.0
O246 O 0.4274 0.47241 0.7992 0.0
C247 C 0.72177 0.96574 0.85739 0.0
O248 O 0.69662 0.94972 0.83887 0.0
O249 O 0.67042 0.03207 0.81256 0.0
Zn250 Zn 0.69739 0.03719 0.86771 0.0
O251 O 0.67041 0.03794 0.91092 0.0
C252 C 0.7204 0.1095 0.85766 0.0
O253 O 0.69621 0.10147 0.83497 0.0
O254 O 0.72543 0.99724 0.86968 0.0
C255 C 0.66581 0.06212 0.9316 0.0
O256 O 0.67847 0.09147 0.92903 0.0
C257 C 0.64905 0.04377 0.80331 0.0
O258 O 0.64016 0.05853 0.82861 0.0
O259 O 0.72598 0.08785 0.87527 0.0
C260 C 0.82988 0.6713 0.0886 0.0
O261 O 0.83514 0.70124 0.10622 0.0
O262 O 0.7865 0.71746 0.11088 0.0
Zn263 Zn 0.7752 0.68502 0.06363 0.0
O264 O 0.78105 0.70725 0.02036 0.0
C265 C 0.72236 0.65551 0.08611 0.0
O266 O 0.73839 0.67113 0.11675 0.0
O267 O 0.80534 0.65806 0.06883 0.0
C268 C 0.7831 0.7372 0.01927 0.0
O269 O 0.77891 0.75611 0.04574 0.0
C270 C 0.77577 0.73975 0.12252 0.0
O271 O 0.75495 0.74598 0.10178 0.0
O272 O 0.733 0.65689 0.0593 0.0
C273 C 0.90333 0.64353 0.81533 0.0
O274 O 0.91374 0.64406 0.78762 0.0
O275 O 0.95317 0.57185 0.77931 0.0
Zn276 Zn 0.93226 0.57694 0.82787 0.0
O277 O 0.96489 0.58246 0.87842 0.0
C278 C 0.90536 0.49896 0.81566 0.0
O279 O 0.92603 0.49672 0.80058 0.0
O280 O 0.90787 0.62059 0.83268 0.0
C281 C 0.96569 0.56296 0.90039 0.0
O282 O 0.94567 0.53588 0.8931 0.0
C283 C 0.97668 0.56462 0.77601 0.0
O284 O 0.99191 0.55954 0.80419 0.0
O285 O 0.90326 0.52805 0.8271 0.0
C286 C 0.71561 0.40438 0.56576 0.0
O287 O 0.71285 0.37652 0.5759 0.0
O288 O 0.76639 0.37004 0.57151 0.0
Zn289 Zn 0.74767 0.3794 0.52897 0.0
O290 O 0.72149 0.34068 0.49832 0.0
C291 C 0.80226 0.39423 0.51601 0.0
O292 O 0.80291 0.36653 0.52525 0.0
O293 O 0.72778 0.40951 0.54161 0.0
C294 C 0.71746 0.34585 0.46783 0.0
O295 O 0.7137 0.37425 0.46345 0.0
C296 C 0.77052 0.34227 0.57116 0.0
O297 O 0.75598 0.31784 0.54564 0.0
O298 O 0.77949 0.40275 0.51127 0.0
C299 C 0.67697 0.53755 0.36289 0.0
O300 O 0.64953 0.52768 0.35629 0.0
O301 O 0.63987 0.58629 0.33232 0.0
Zn302 Zn 0.66547 0.59775 0.3804 0.0
O303 O 0.64415 0.58351 0.41706 0.0
C304 C 0.69941 0.65468 0.36426 0.0
O305 O 0.68592 0.63826 0.33279 0.0
O306 O 0.68912 0.56737 0.37528 0.0
C307 C 0.63358 0.60072 0.43685 0.0
O308 O 0.63594 0.63125 0.43469 0.0
C309 C 0.62508 0.60266 0.31742 0.0
O310 O 0.62431 0.63079 0.33487 0.0
O311 O 0.69334 0.6435 0.39048 0.0
Tb312 Tb 0.03175 0.0395 0.07348 0.0
Tb313 Tb 0.09148 0.07786 0.11952 0.0
C314 C 0.98008 0.02685 0.05717 0.0
C315 C 0.965 0.05203 0.06302 0.0
C316 C 0.96609 0.06711 0.09731 0.0
C317 C 0.95824 0.09586 0.10375 0.0
C318 C 0.94888 0.10993 0.07606 0.0
C319 C 0.9468 0.0948 0.04171 0.0
C320 C 0.95487 0.06593 0.03518 0.0
C321 C 0.06928 0.04618 0.03421 0.0
C322 C 0.05477 0.119 0.08365 0.0
C323 C 0.14317 0.08916 0.13418 0.0
C324 C 0.15522 0.06231 0.12506 0.0
C325 C 0.13719 0.03505 0.10118 0.0
C326 C 0.14543 1.00726 0.09291 0.0
C327 C 0.17236 1.00639 0.10788 0.0
C328 C 0.19072 0.03294 0.13277 0.0
C329 C 0.18193 0.06108 0.14176 0.0
C330 C 0.05555 0.07322 0.15955 0.0
C331 C 0.06732 0.99815 0.11093 0.0
O332 O 0.99355 0.01962 0.08521 0.0
O333 O 0.99525 0.03071 0.03419 0.0
O334 O 0.07286 0.05395 0.06707 0.0
O335 O 0.04314 0.03015 0.02294 0.0
O336 O 0.0339 0.09175 0.07249 0.0
O337 O 0.07957 0.11958 0.10284 0.0
O338 O 0.12952 0.09769 0.10717 0.0
O339 O 0.12848 0.08463 0.15749 0.0
O340 O 0.05036 0.06302 0.12666 0.0
O341 O 0.08094 0.09194 0.16882 0.0
O342 O 0.08688 0.02603 0.12536 0.0
O343 O 0.04382 0.997 0.08843 0.0
H344 H 0.97386 0.05746 0.11943 0.0
H345 H 0.95943 0.10718 0.13043 0.0
H346 H 0.93902 0.1053 0.02013 0.0
H347 H 0.95421 0.05515 0.00854 0.0
H348 H 0.11665 0.03539 0.08779 0.0
H349 H 0.13113 0.98687 0.07362 0.0
H350 H 0.2117 0.03207 0.14445 0.0
H351 H 0.19576 0.08158 0.16118 0.0
Tb352 Tb 0.31996 0.79152 0.31235 0.0
Tb353 Tb 0.30681 0.82142 0.36851 0.0
C354 C 0.32962 0.77515 0.25371 0.0
C355 C 0.33371 0.79345 0.22657 0.0
C356 C 0.32007 0.81796 0.22258 0.0
C357 C 0.32218 0.83389 0.1953 0.0
C358 C 0.33798 0.8256 0.17132 0.0
C359 C 0.35339 0.80277 0.17707 0.0
C360 C 0.35128 0.78677 0.2047 0.0
C361 C 0.35655 0.78941 0.36939 0.0
C362 C 0.34047 0.87075 0.33332 0.0
C363 C 0.29611 0.83766 0.42627 0.0
C364 C 0.29427 0.82008 0.45415 0.0
C365 C 0.30901 0.79635 0.45757 0.0
C366 C 0.31035 0.78262 0.48676 0.0
C367 C 0.29734 0.793 0.51282 0.0
C368 C 0.2801 0.814 0.50756 0.0
C369 C 0.27858 0.8276 0.47809 0.0
C370 C 0.26977 0.8222 0.31115 0.0
C371 C 0.28703 0.74262 0.34902 0.0
O372 O 0.30451 0.76931 0.25954 0.0
O373 O 0.34908 0.78557 0.28243 0.0
O374 O 0.34696 0.81357 0.36393 0.0
O375 O 0.3449 0.76576 0.34286 0.0
O376 O 0.33376 0.84408 0.30826 0.0
O377 O 0.33359 0.86743 0.36303 0.0
O378 O 0.32109 0.84625 0.42049 0.0
O379 O 0.27684 0.82459 0.39772 0.0
O380 O 0.27967 0.79851 0.31751 0.0
O381 O 0.28216 0.84664 0.3366 0.0
O382 O 0.2945 0.76926 0.37413 0.0
O383 O 0.29292 0.74589 0.31873 0.0
H384 H 0.30674 0.82385 0.2396 0.0
H385 H 0.30935 0.85068 0.19145 0.0
H386 H 0.36533 0.79564 0.15875 0.0
H387 H 0.36233 0.76823 0.20806 0.0
H388 H 0.32106 0.79009 0.43902 0.0
H389 H 0.32402 0.7667 0.49073 0.0
H390 H 0.27009 0.82219 0.52772 0.0
H391 H 0.26666 0.84541 0.47511 0.0
Tb392 Tb 0.59092 0.0582 0.58282 0.0
Tb393 Tb 0.5376 0.05607 0.61084 0.0
C394 C 0.63882 0.05539 0.5747 0.0
C395 C 0.6586 0.03472 0.5776 0.0
C396 C 0.66211 0.01761 0.60451 0.0
C397 C 0.68307 1.00098 0.60826 0.0
C398 C 0.70016 0.99984 0.58416 0.0
C399 C 0.69464 1.01455 0.55537 0.0
C400 C 0.6745 0.03226 0.55254 0.0
C401 C 0.54941 0.06471 0.53119 0.0
C402 C 0.54907 0.98957 0.57951 0.0
C403 C 0.48912 0.05856 0.61687 0.0
C404 C 0.46849 0.07823 0.61238 0.0
C405 C 0.46012 0.08836 0.58115 0.0
C406 C 0.43927 0.1053 0.57764 0.0
C407 C 0.42609 0.11195 0.60506 0.0
C408 C 0.43509 0.10247 0.63652 0.0
C409 C 0.45599 0.08584 0.64008 0.0
C410 C 0.5786 0.04972 0.66355 0.0
C411 C 0.57871 0.12485 0.61192 0.0
O412 O 0.63453 0.07088 0.60338 0.0
O413 O 0.61578 0.04336 0.55035 0.0
O414 O 0.54888 0.06171 0.56251 0.0
O415 O 0.57461 0.06431 0.52923 0.0
O416 O 0.57411 1.00594 0.57769 0.0
O417 O 0.53059 1.00398 0.59006 0.0
O418 O 0.49409 0.0423 0.58911 0.0
O419 O 0.51184 0.07163 0.64159 0.0
O420 O 0.58024 0.05298 0.63234 0.0
O421 O 0.55294 0.04935 0.66393 0.0
O422 O 0.55384 0.10823 0.6142 0.0
O423 O 0.59758 0.11034 0.60264 0.0
H424 H 0.64881 1.01726 0.62269 0.0
H425 H 0.68617 0.98956 0.63048 0.0
H426 H 0.70592 1.0126 0.53497 0.0
H427 H 0.67142 0.04425 0.53073 0.0
H428 H 0.46923 0.08265 0.55932 0.0
H429 H 0.43287 0.11235 0.55309 0.0
H430 H 0.42588 0.10783 0.65841 0.0
H431 H 0.46213 0.0784 0.66449 0.0
Tb432 Tb 0.28618 0.32122 0.84254 0.0
Tb433 Tb 0.33988 0.29741 0.84779 0.0
C434 C 0.24073 0.33396 0.85008 0.0
C435 C 0.22 0.32949 0.87205 0.0
C436 C 0.21162 0.30026 0.88325 0.0
C437 C 0.19008 0.29573 0.90117 0.0
C438 C 0.17647 0.32034 0.90847 0.0
C439 C 0.1852 0.3497 0.8976 0.0
C440 C 0.20675 0.35422 0.87972 0.0
C441 C 0.33067 0.36254 0.83465 0.0
C442 C 0.3251 0.32313 0.91685 0.0
C443 C 0.38725 0.28954 0.84171 0.0
C444 C 0.40683 0.28942 0.81798 0.0
C445 C 0.41322 0.31438 0.7995 0.0
C446 C 0.43502 0.31614 0.78183 0.0
C447 C 0.45081 0.29307 0.78223 0.0
C448 C 0.44373 0.26755 0.79955 0.0
C449 C 0.42208 0.26584 0.81728 0.0
C450 C 0.29542 0.25583 0.85619 0.0
C451 C 0.30051 0.29428 0.77334 0.0
O452 O 0.24229 0.30804 0.82954 0.0
O453 O 0.26545 0.35386 0.86441 0.0
O454 O 0.3301 0.34309 0.855 0.0
O455 O 0.30523 0.36097 0.81913 0.0
O456 O 0.29938 0.319 0.89786 0.0
O457 O 0.34603 0.31963 0.90227 0.0
O458 O 0.38276 0.31737 0.85364 0.0
O459 O 0.36457 0.26553 0.83499 0.0
O460 O 0.29579 0.27532 0.83574 0.0
O461 O 0.32109 0.25734 0.87115 0.0
O462 O 0.32575 0.29655 0.7923 0.0
O463 O 0.27965 0.29908 0.78751 0.0
H464 H 0.22132 0.28068 0.87758 0.0
H465 H 0.1836 0.2726 0.90857 0.0
H466 H 0.17532 0.3692 0.90289 0.0
H467 H 0.21272 0.37693 0.87126 0.0
H468 H 0.40195 0.33301 0.7995 0.0
H469 H 0.43982 0.33581 0.76825 0.0
H470 H 0.4554 0.24932 0.80004 0.0
H471 H 0.41782 0.24655 0.83149 0.0
Tb472 Tb 0.05403 0.08755 0.59981 0.0
Tb473 Tb 0.07217 0.02396 0.59387 0.0
C474 C 0.05086 0.1444 0.60092 0.0
C475 C 0.04006 0.15913 0.5726 0.0
C476 C 0.055 0.16539 0.54702 0.0
C477 C 0.04601 0.18265 0.52262 0.0
C478 C 0.02184 0.19334 0.52334 0.0
C479 C 1.005 0.18343 0.54586 0.0
C480 C 1.01434 0.16685 0.57086 0.0
C481 C 1.01088 0.03995 0.60427 0.0
C482 C 0.04225 0.04184 0.52515 0.0
C483 C 0.07422 0.96658 0.59204 0.0
C484 C 0.08384 0.95095 0.62008 0.0
C485 C 0.06855 0.94562 0.64561 0.0
C486 C 0.07803 0.93051 0.67196 0.0
C487 C 0.1028 0.92088 0.67297 0.0
C488 C 0.11869 0.92734 0.64859 0.0
C489 C 0.10923 0.94238 0.62217 0.0
C490 C 0.11517 0.0714 0.58853 0.0
C491 C 0.08192 0.06767 0.66845 0.0
O492 O 0.07355 0.13522 0.59942 0.0
O493 O 0.03225 0.12276 0.60945 0.0
O494 O 0.03501 0.03788 0.60022 0.0
O495 O 1.01114 0.06999 0.60543 0.0
O496 O 0.04361 0.07121 0.54272 0.0
O497 O 0.0505 0.01965 0.54065 0.0
O498 O 0.05183 0.97642 0.5933 0.0
O499 O 0.09362 0.9883 0.58481 0.0
O500 O 0.09113 0.07367 0.59284 0.0
O501 O 0.11505 0.04151 0.58833 0.0
O502 O 0.08026 0.03867 0.65022 0.0
O503 O 0.07547 0.09141 0.65397 0.0
H504 H 0.07427 0.15843 0.54676 0.0
H505 H 0.05927 0.19006 0.50531 0.0
H506 H 0.98603 0.19118 0.54624 0.0
H507 H 1.00209 0.16134 0.58974 0.0
H508 H 0.04904 0.95238 0.64489 0.0
H509 H 0.0654 0.92485 0.69044 0.0
H510 H 0.13762 0.91933 0.64906 0.0
H511 H 0.12143 0.94671 0.60297 0.0
Tb512 Tb 0.31164 0.76875 0.83624 0.0
Tb513 Tb 0.31398 0.84097 0.84956 0.0
C514 C 0.31798 0.71246 0.82788 0.0
C515 C 0.34175 0.69801 0.83024 0.0
C516 C 0.35607 0.69573 0.80346 0.0
C517 C 0.37751 0.68006 0.80591 0.0
C518 C 0.38486 0.66676 0.83518 0.0
C519 C 0.3713 0.67016 0.86248 0.0
C520 C 0.34985 0.68556 0.85998 0.0
C521 C 0.29919 0.7908 0.89344 0.0
C522 C 0.36924 0.82187 0.86613 0.0
C523 C 0.30811 0.89697 0.8669 0.0
C524 C 0.28493 0.91266 0.86322 0.0
C525 C 0.27142 0.91755 0.89049 0.0
C526 C 0.25142 0.93531 0.88816 0.0
C527 C 0.24478 0.94855 0.85863 0.0
C528 C 0.25731 0.94238 0.83072 0.0
C529 C 0.27737 0.92482 0.83308 0.0
C530 C 0.32575 0.81975 0.7909 0.0
C531 C 0.25602 0.78687 0.81801 0.0
O532 O 0.3116 0.72646 0.80165 0.0
O533 O 0.31679 0.7291 0.85755 0.0
O534 O 0.31799 0.80623 0.88112 0.0
O535 O 0.28705 0.76254 0.87413 0.0
O536 O 0.35594 0.79247 0.84769 0.0
O537 O 0.35658 0.8444 0.87496 0.0
O538 O 0.30874 0.87679 0.88819 0.0
O539 O 0.31468 0.88642 0.83791 0.0
O540 O 0.30801 0.80361 0.80437 0.0
O541 O 0.33607 0.84881 0.80947 0.0
O542 O 0.26946 0.81716 0.83385 0.0
O543 O 0.26911 0.76436 0.81049 0.0
H544 H 0.35036 0.70527 0.78039 0.0
H545 H 0.38751 0.67711 0.78432 0.0
H546 H 0.37673 0.65997 0.88521 0.0
H547 H 0.33916 0.6871 0.88106 0.0
H548 H 0.27688 0.90851 0.91403 0.0
H549 H 0.24199 0.93986 0.91003 0.0
H550 H 0.25211 0.95185 0.80742 0.0
H551 H 0.2874 0.92152 0.81157 0.0
Tb552 Tb 0.53892 0.05764 0.07051 0.0
Tb553 Tb 0.58922 0.05507 0.12421 0.0
C554 C 0.49146 0.0303 0.03141 0.0
C555 C 0.46339 1.01433 0.03483 0.0
C556 C 0.45412 0.98037 0.02361 0.0
C557 C 0.42906 0.96321 0.02899 0.0
C558 C 0.41236 0.97965 0.04506 0.0
C559 C 0.42105 1.01375 0.05559 0.0
C560 C 0.44665 0.03106 0.05077 0.0
C561 C 0.56695 0.11367 0.10824 0.0
C562 C 0.53293 0.05289 0.15233 0.0
C563 C 0.63718 0.07576 0.16304 0.0
C564 C 0.66508 0.08745 0.15699 0.0
C565 C 0.66898 0.10701 0.13231 0.0
C566 C 0.69574 0.12471 0.13257 0.0
C567 C 0.71881 0.1226 0.15709 0.0
C568 C 0.71525 0.10051 0.1792 0.0
C569 C 0.68838 0.08308 0.17927 0.0
C570 C 0.56139 0.99993 0.08226 0.0
C571 C 0.59658 0.06367 0.04397 0.0
O572 O 0.51009 1.0153 0.04253 0.0
O573 O 0.50107 0.06216 0.04039 0.0
O574 O 0.56293 0.08677 0.11774 0.0
O575 O 0.55295 0.10975 0.07596 0.0
O576 O 0.52132 0.05461 0.11942 0.0
O577 O 0.55969 0.05154 0.15995 0.0
O578 O 0.62035 0.09419 0.15587 0.0
O579 O 0.62484 0.0446 0.15229 0.0
O580 O 0.5662 0.02791 0.07622 0.0
O581 O 0.57405 1.0016 0.11455 0.0
O582 O 0.60781 0.06106 0.07663 0.0
O583 O 0.56966 0.06472 0.03598 0.0
H584 H 0.46666 0.9669 0.01123 0.0
H585 H 0.42257 0.93699 0.02029 0.0
H586 H 0.40828 0.02682 0.06796 0.0
H587 H 0.45343 0.05721 0.05986 0.0
H588 H 0.65128 0.11057 0.11461 0.0
H589 H 0.69827 0.14164 0.11528 0.0
H590 H 0.73299 0.09873 0.19825 0.0
H591 H 0.6857 0.06795 0.19828 0.0
Tb592 Tb 0.28885 0.28639 0.3308 0.0
Tb593 Tb 0.34216 0.3301 0.36599 0.0
C594 C 0.23879 0.25934 0.32787 0.0
C595 C 0.21416 0.27166 0.33077 0.0
C596 C 0.20685 0.27518 0.36321 0.0
C597 C 0.18562 0.28966 0.36838 0.0
C598 C 0.17096 0.3004 0.34109 0.0
C599 C 0.17754 0.29646 0.3084 0.0
C600 C 0.19919 0.28221 0.30324 0.0
C601 C 0.31424 0.31501 0.28781 0.0
C602 C 0.29071 0.36429 0.35909 0.0
C603 C 0.3926 0.35751 0.3707 0.0
C604 C 0.41671 0.34433 0.36559 0.0
C605 C 0.42321 0.34085 0.33264 0.0
C606 C 0.44475 0.32693 0.32656 0.0
C607 C 0.46045 0.31647 0.35333 0.0
C608 C 0.45442 0.32012 0.38637 0.0
C609 C 0.43269 0.33396 0.3925 0.0
C610 C 0.3175 0.2994 0.40907 0.0
C611 C 0.33945 0.25184 0.33621 0.0
O612 O 0.25861 0.26935 0.35636 0.0
O613 O 0.24865 0.26046 0.29975 0.0
O614 O 0.31357 0.32783 0.31833 0.0
O615 O 0.29862 0.28516 0.27953 0.0
O616 O 0.27619 0.33365 0.34363 0.0
O617 O 0.31854 0.36951 0.37083 0.0
O618 O 0.37275 0.35239 0.34252 0.0
O619 O 0.3825 0.353 0.39803 0.0
O620 O 0.31776 0.2879 0.37794 0.0
O621 O 0.33277 0.32947 0.41752 0.0
O622 O 0.35465 0.28265 0.35032 0.0
O623 O 0.31159 0.24685 0.3266 0.0
H624 H 0.21799 0.26731 0.38496 0.0
H625 H 0.1806 0.29253 0.39372 0.0
H626 H 0.16605 0.30449 0.28709 0.0
H627 H 0.20443 0.27987 0.27806 0.0
H628 H 0.41143 0.34859 0.31131 0.0
H629 H 0.4491 0.32416 0.30085 0.0
H630 H 0.46641 0.31209 0.40729 0.0
H631 H 0.42826 0.33625 0.41814 0.0
Tb632 Tb 0.55547 0.59156 0.09919 0.0
Tb633 Tb 0.5696 0.52377 0.0908 0.0
C634 C 0.56184 0.65036 0.10148 0.0
C635 C 0.55112 0.66643 0.07461 0.0
C636 C 0.57025 0.68486 0.05951 0.0
C637 C 0.56071 0.69876 0.03225 0.0
C638 C 0.53192 0.69466 0.02012 0.0
C639 C 0.51261 0.67504 0.03403 0.0
C640 C 0.52217 0.66086 0.06124 0.0
C641 C 0.51149 0.54571 0.10418 0.0
C642 C 0.54121 0.54641 0.02376 0.0
C643 C 0.56716 0.46509 0.0863 0.0
C644 C 0.57505 0.44745 0.11302 0.0
C645 C 0.56578 0.45121 0.14404 0.0
C646 C 0.57432 0.43494 0.16972 0.0
C647 C 0.59236 0.41514 0.16473 0.0
C648 C 0.60251 0.41246 0.13439 0.0
C649 C 0.59387 0.42862 0.10859 0.0
C650 C 0.61296 0.57147 0.08713 0.0
C651 C 0.58265 0.56848 0.16617 0.0
O652 O 0.58019 0.63503 0.09352 0.0
O653 O 0.54332 0.63357 0.1153 0.0
O654 O 0.53505 0.54258 0.09902 0.0
O655 O 0.51246 0.57619 0.10558 0.0
O656 O 0.5422 0.57517 0.04245 0.0
O657 O 0.54941 0.52313 0.03753 0.0
O658 O 0.54565 0.47695 0.08806 0.0
O659 O 0.58819 0.4858 0.08062 0.0
O660 O 0.58903 0.57238 0.09165 0.0
O661 O 0.61317 0.54133 0.08485 0.0
O662 O 0.57972 0.53897 0.14766 0.0
O663 O 0.57677 0.59256 0.15193 0.0
H664 H 0.59261 0.68866 0.06897 0.0
H665 H 0.57589 0.71425 0.02201 0.0
H666 H 0.49031 0.67186 0.02482 0.0
H667 H 0.50696 0.6459 0.07188 0.0
H668 H 0.55188 0.46648 0.14844 0.0
H669 H 0.56644 0.43726 0.19317 0.0
H670 H 0.61622 0.39692 0.13005 0.0
H671 H 0.60167 0.42625 0.08509 0.0
Tb672 Tb 0.81017 0.26449 0.34565 0.0
Tb673 Tb 0.809 0.33491 0.3413 0.0
C674 C 0.82204 0.21382 0.35823 0.0
C675 C 0.84563 0.1994 0.36143 0.0
C676 C 0.86997 0.21267 0.35083 0.0
C677 C 0.89009 0.19521 0.34924 0.0
C678 C 0.88609 0.165 0.35911 0.0
C679 C 0.86298 0.1534 0.37262 0.0
C680 C 0.84278 0.1705 0.37363 0.0
C681 C 0.78134 0.29142 0.38282 0.0
C682 C 0.86639 0.32291 0.37093 0.0
C683 C 0.80369 0.39056 0.36067 0.0
C684 C 0.78198 0.40808 0.35506 0.0
C685 C 0.76546 0.41071 0.37949 0.0
C686 C 0.74642 0.42948 0.37637 0.0
C687 C 0.74371 0.44609 0.34895 0.0
C688 C 0.75939 0.44257 0.32376 0.0
C689 C 0.77855 0.42378 0.32688 0.0
C690 C 0.81885 0.30175 0.28637 0.0
C691 C 0.75855 0.27484 0.29879 0.0
O692 O 0.81092 0.21691 0.32675 0.0
O693 O 0.82455 0.23914 0.38265 0.0
O694 O 0.80458 0.30496 0.37804 0.0
O695 O 0.7741 0.26105 0.36864 0.0
O696 O 0.85437 0.29126 0.36106 0.0
O697 O 0.85267 0.34518 0.36708 0.0
O698 O 0.79832 0.36701 0.37749 0.0
O699 O 0.81525 0.3831 0.33472 0.0
O700 O 0.82565 0.29934 0.3176 0.0
O701 O 0.80846 0.32681 0.28561 0.0
O702 O 0.76712 0.30615 0.31426 0.0
O703 O 0.77437 0.2543 0.30234 0.0
H704 H 0.87271 0.23555 0.34225 0.0
H705 H 0.90789 0.20438 0.33874 0.0
H706 H 0.85986 0.13025 0.38066 0.0
H707 H 0.82433 0.16044 0.38256 0.0
H708 H 0.76777 0.39901 0.40161 0.0
H709 H 0.73465 0.43207 0.39622 0.0
H710 H 0.75727 0.45491 0.30213 0.0
H711 H 0.79103 0.42217 0.30772 0.0
Tb712 Tb 0.04023 0.55257 0.57078 0.0
Tb713 Tb 0.09115 0.5574 0.62626 0.0
C714 C 0.99305 0.52845 0.53105 0.0
C715 C 0.96539 0.5146 0.53676 0.0
C716 C 0.96138 0.48952 0.55545 0.0
C717 C 0.93447 0.47311 0.55608 0.0
C718 C 0.91135 0.48191 0.53857 0.0
C719 C 0.91543 0.50869 0.52247 0.0
C720 C 0.94239 0.5249 0.52144 0.0
C721 C 0.06711 0.6115 0.60417 0.0
C722 C 0.03395 0.55089 0.65265 0.0
C723 C 0.13812 0.58124 0.66675 0.0
C724 C 0.16638 0.59465 0.66249 0.0
C725 C 0.17232 0.62232 0.64788 0.0
C726 C 0.19981 0.6375 0.64838 0.0
C727 C 0.22169 0.62516 0.66323 0.0
C728 C 0.21568 0.59642 0.6758 0.0
C729 C 0.1881 0.58118 0.67536 0.0
C730 C 0.06459 0.49865 0.59148 0.0
C731 C 0.09754 0.55918 0.54444 0.0
O732 O 1.01151 0.51184 0.53801 0.0
O733 O 1.00347 0.55993 0.54211 0.0
O734 O 0.0631 0.58613 0.61624 0.0
O735 O 0.05402 0.60444 0.57137 0.0
O736 O 0.02155 0.54663 0.61849 0.0
O737 O 0.06173 0.55579 0.66174 0.0
O738 O 0.12006 0.5981 0.65876 0.0
O739 O 0.12745 0.54979 0.65576 0.0
O740 O 0.06856 0.52458 0.5807 0.0
O741 O 0.07783 0.50483 0.62416 0.0
O742 O 0.10975 0.56379 0.57874 0.0
O743 O 0.06966 0.55373 0.535 0.0
H744 H 0.97886 0.48153 0.56822 0.0
H745 H 0.9316 0.45263 0.5689 0.0
H746 H 0.89771 0.51571 0.50881 0.0
H747 H 0.94518 0.54446 0.50734 0.0
H748 H 0.15596 0.63314 0.63743 0.0
H749 H 0.20409 0.65992 0.63895 0.0
H750 H 0.23242 0.58657 0.68719 0.0
H751 H 0.18386 0.55968 0.68638 0.0
Tb752 Tb 0.78547 0.81905 0.34115 0.0
Tb753 Tb 0.83962 0.797 0.34841 0.0
C754 C 0.73824 0.82759 0.34563 0.0
C755 C 0.71817 0.82629 0.36858 0.0
C756 C 0.70958 0.799 0.38301 0.0
C757 C 0.68784 0.7969 0.40069 0.0
C758 C 0.67434 0.82207 0.40453 0.0
C759 C 0.68351 0.84961 0.39076 0.0
C760 C 0.70513 0.85167 0.37309 0.0
C761 C 0.82848 0.85926 0.32867 0.0
C762 C 0.82528 0.8261 0.41654 0.0
C763 C 0.88766 0.79074 0.34471 0.0
C764 C 0.90729 0.79114 0.32122 0.0
C765 C 0.91319 0.81619 0.30284 0.0
C766 C 0.93487 0.81847 0.28508 0.0
C767 C 0.95124 0.7959 0.28541 0.0
C768 C 0.94432 0.77003 0.30243 0.0
C769 C 0.92271 0.76778 0.32019 0.0
C770 C 0.79605 0.75649 0.36021 0.0
C771 C 0.79965 0.78853 0.27279 0.0
O772 O 0.74206 0.79998 0.33125 0.0
O773 O 0.76149 0.85102 0.35534 0.0
O774 O 0.82926 0.84237 0.35166 0.0
O775 O 0.80261 0.8559 0.31328 0.0
O776 O 0.79967 0.82261 0.3977 0.0
O777 O 0.84585 0.82108 0.40212 0.0
O778 O 0.88248 0.8184 0.3562 0.0
O779 O 0.86537 0.76613 0.33752 0.0
O780 O 0.79585 0.77387 0.33768 0.0
O781 O 0.82194 0.75922 0.37535 0.0
O782 O 0.82482 0.79032 0.29171 0.0
O783 O 0.77947 0.79586 0.28683 0.0
H784 H 0.71919 0.77897 0.37996 0.0
H785 H 0.68145 0.77547 0.4112 0.0
H786 H 0.67334 0.86921 0.39264 0.0
H787 H 0.7111 0.87279 0.36192 0.0
H788 H 0.90167 0.8346 0.30307 0.0
H789 H 0.93945 0.8386 0.27209 0.0
H790 H 0.95582 0.75164 0.30237 0.0
H791 H 0.91857 0.74821 0.33406 0.0
Tb792 Tb 0.82163 0.28992 0.81565 0.0
Tb793 Tb 0.80572 0.32247 0.87448 0.0
C794 C 0.82539 0.26575 0.75664 0.0
C795 C 0.82715 0.28091 0.72717 0.0
C796 C 0.81027 0.30175 0.71968 0.0
C797 C 0.81545 0.32106 0.69599 0.0
C798 C 0.83782 0.32013 0.67978 0.0
C799 C 0.8554 0.30027 0.68841 0.0
C800 C 0.84992 0.28047 0.71189 0.0
C801 C 0.86126 0.29009 0.87039 0.0
C802 C 0.84102 0.36868 0.83456 0.0
C803 C 0.80248 0.34735 0.93365 0.0
C804 C 0.80433 0.33537 0.9653 0.0
C805 C 0.81077 0.30553 0.96575 0.0
C806 C 0.81281 0.29369 0.996 0.0
C807 C 0.8093 0.31221 0.02607 0.0
C808 C 0.80118 0.34104 0.02519 0.0
C809 C 0.79845 0.35258 0.99443 0.0
C810 C 0.76576 0.32233 0.82018 0.0
C811 C 0.7864 0.24373 0.85452 0.0
O812 O 0.8015 0.26097 0.7661 0.0
O813 O 0.84694 0.2794 0.78263 0.0
O814 O 0.84043 0.30209 0.87158 0.0
O815 O 0.85887 0.27657 0.83874 0.0
O816 O 0.83725 0.34156 0.81098 0.0
O817 O 0.83188 0.36653 0.8633 0.0
O818 O 0.82573 0.35344 0.92281 0.0
O819 O 0.78087 0.32999 0.90919 0.0
O820 O 0.78657 0.31024 0.81845 0.0
O821 O 0.76835 0.3354 0.85202 0.0
O822 O 0.7909 0.27031 0.87913 0.0
O823 O 0.7945 0.24651 0.82537 0.0
H824 H 0.79329 0.30345 0.73233 0.0
H825 H 0.80105 0.33557 0.68917 0.0
H826 H 0.87256 0.29915 0.67596 0.0
H827 H 0.86377 0.26537 0.71878 0.0
H828 H 0.81518 0.29204 0.94319 0.0
H829 H 0.81942 0.2715 0.99681 0.0
H830 H 0.79872 0.35544 0.04862 0.0
H831 H 0.79282 0.37531 0.9937 0.0
Tb832 Tb 0.78814 0.78501 0.83065 0.0
Tb833 Tb 0.84416 0.83163 0.86682 0.0
C834 C 0.73978 0.75396 0.82911 0.0
C835 C 0.7145 0.7649 0.83154 0.0
C836 C 0.70598 0.76516 0.86296 0.0
C837 C 0.68443 0.77869 0.86868 0.0
C838 C 0.67 0.79123 0.84262 0.0
C839 C 0.67841 0.79126 0.81103 0.0
C840 C 0.7008 0.77839 0.80561 0.0
C841 C 0.80861 0.81725 0.78511 0.0
C842 C 0.79142 0.86349 0.85762 0.0
C843 C 0.89473 0.86079 0.87928 0.0
C844 C 0.91838 0.84829 0.87199 0.0
C845 C 0.92537 0.84892 0.83965 0.0
C846 C 0.94573 0.8343 0.83103 0.0
C847 C 0.95982 0.81928 0.85479 0.0
C848 C 0.95307 0.81856 0.88711 0.0
C849 C 0.93253 0.83311 0.89577 0.0
C850 C 0.81627 0.80377 0.90899 0.0
C851 C 0.84117 0.75322 0.8363 0.0
O852 O 0.75968 0.76529 0.85756 0.0
O853 O 0.74917 0.75486 0.80065 0.0
O854 O 0.81868 0.81912 0.81692 0.0
O855 O 0.78532 0.7945 0.77686 0.0
O856 O 0.77628 0.8322 0.84796 0.0
O857 O 0.81944 0.86953 0.86446 0.0
O858 O 0.8763 0.86193 0.85178 0.0
O859 O 0.88292 0.84939 0.90291 0.0
O860 O 0.81785 0.7908 0.87892 0.0
O861 O 0.83094 0.83393 0.91601 0.0
O862 O 0.85637 0.78434 0.84967 0.0
O863 O 0.81309 0.7473 0.82679 0.0
H864 H 0.71657 0.75562 0.8837 0.0
H865 H 0.67902 0.77928 0.89374 0.0
H866 H 0.66757 0.8008 0.79054 0.0
H867 H 0.70742 0.77918 0.78144 0.0
H868 H 0.91478 0.86022 0.8207 0.0
H869 H 0.95038 0.83453 0.80564 0.0
H870 H 0.96381 0.807 0.90567 0.0
H871 H 0.92749 0.83208 0.92083 0.0
Tb872 Tb 0.53312 0.53969 0.56947 0.0
Tb873 Tb 0.59047 0.57673 0.61684 0.0
C874 C 0.48189 0.53039 0.54778 0.0
C875 C 0.46861 0.55671 0.55521 0.0
C876 C 0.48192 0.58152 0.58486 0.0
C877 C 0.47215 0.60876 0.59134 0.0
C878 C 0.44853 0.61149 0.56858 0.0
C879 C 0.43488 0.58695 0.53889 0.0
C880 C 0.44522 0.55971 0.53187 0.0
C881 C 0.57471 0.54783 0.53759 0.0
C882 C 0.55499 0.6203 0.58496 0.0
C883 C 0.64227 0.58959 0.63115 0.0
C884 C 0.65658 0.56393 0.62697 0.0
C885 C 0.64494 0.53755 0.59837 0.0
C886 C 0.65503 0.5103 0.5965 0.0
C887 C 0.67723 0.50927 0.62276 0.0
C888 C 0.68923 0.53542 0.65122 0.0
C889 C 0.67859 0.56264 0.65359 0.0
C890 C 0.55533 0.56627 0.65697 0.0
C891 C 0.56757 0.49702 0.60526 0.0
O892 O 0.49265 0.52053 0.57543 0.0
O893 O 0.49927 0.53548 0.52753 0.0
O894 O 0.57106 0.56649 0.56287 0.0
O895 O 0.5533 0.52218 0.5285 0.0
O896 O 0.53613 0.59224 0.56904 0.0
O897 O 0.57836 0.62094 0.60745 0.0
O898 O 0.62785 0.59354 0.60205 0.0
O899 O 0.62806 0.5885 0.65529 0.0
O900 O 0.54973 0.55821 0.62387 0.0
O901 O 0.58079 0.58456 0.66759 0.0
O902 O 0.58873 0.52397 0.61473 0.0
O903 O 0.54272 0.49726 0.58716 0.0
H904 H 0.50033 0.58024 0.60297 0.0
H905 H 0.48253 0.62725 0.61475 0.0
H906 H 0.41622 0.58879 0.52153 0.0
H907 H 0.43507 0.54115 0.50853 0.0
H908 H 0.62757 0.53756 0.57768 0.0
H909 H 0.64613 0.49043 0.57398 0.0
H910 H 0.7069 0.53484 0.67116 0.0
H911 H 0.68728 0.58243 0.67614 0.0
Tb912 Tb 0.09111 0.56033 0.08535 0.0
Tb913 Tb 0.0376 0.55599 0.10994 0.0
C914 C 0.14049 0.55894 0.08189 0.0
C915 C 0.16051 0.53838 0.0853 0.0
C916 C 0.1674 0.5255 0.11511 0.0
C917 C 0.18828 0.50853 0.11813 0.0
C918 C 0.20274 0.50421 0.0915 0.0
C919 C 0.19499 0.51616 0.06128 0.0
C920 C 0.17424 0.53303 0.0583 0.0
C921 C 0.05017 0.5634 0.03052 0.0
C922 C 0.0497 0.49147 0.07773 0.0
C923 C 0.99005 0.56079 0.11863 0.0
C924 C 0.96955 0.58085 0.1136 0.0
C925 C 0.95878 0.58705 0.08077 0.0
C926 C 0.93679 0.60229 0.07603 0.0
C927 C 0.92474 0.6114 0.10388 0.0
C928 C 0.93624 0.60615 0.1369 0.0
C929 C 0.95824 0.59107 0.14163 0.0
C930 C 0.07994 0.54524 0.15698 0.0
C931 C 0.07762 0.62621 0.11224 0.0
O932 O 0.13409 0.5724 0.10996 0.0
O933 O 0.11882 0.54845 0.05543 0.0
O934 O 0.04857 0.56069 0.06157 0.0
O935 O 0.07613 0.56501 0.03065 0.0
O936 O 0.07614 0.5082 0.08416 0.0
O937 O 0.02977 0.50614 0.08157 0.0
O938 O 0.99401 0.5437 0.09079 0.0
O939 O 1.01334 0.57314 0.1427 0.0
O940 O 0.08148 0.56539 0.13661 0.0
O941 O 0.05337 0.53131 0.15163 0.0
O942 O 0.05319 0.60858 0.11474 0.0
O943 O 0.09661 0.61266 0.10178 0.0
H944 H 0.15699 0.5289 0.13624 0.0
H945 H 0.19317 0.4989 0.14136 0.0
H946 H 0.20559 0.5133 0.04026 0.0
H947 H 0.16933 0.54263 0.03502 0.0
H948 H 0.96682 0.57942 0.05851 0.0
H949 H 0.9291 0.60671 0.05044 0.0
H950 H 0.9276 0.61278 0.15899 0.0
H951 H 0.96586 0.58642 0.16715 0.0
C952 C 0.03254 0.18056 0.03014 0.0
C953 C 0.04509 0.21121 0.05293 0.0
C954 C 0.03503 0.15094 0.04037 0.0
C955 C 0.0504 0.15038 0.07378 0.0
H956 H 1.02109 0.17941 1.00391 0.0
H957 H 0.02544 0.1283 0.02153 0.0
S958 S 0.08507 0.22292 0.1448 0.0
N959 N 0.07185 0.23807 0.1119 0.0
N960 N 0.07681 0.18322 0.13021 0.0
C961 C 0.06249 0.18063 0.09696 0.0
C962 C 0.05976 0.21065 0.08682 0.0
C963 C 0.20105 0.8439 0.27426 0.0
C964 C 0.1833 0.81434 0.25345 0.0
C965 C 0.2289 0.84624 0.29204 0.0
C966 C 0.24063 0.81925 0.28984 0.0
H967 H 0.19324 0.86535 0.27745 0.0
H968 H 0.24125 0.8695 0.30814 0.0
S969 S 0.20391 0.73648 0.2376 0.0
N970 N 0.18049 0.75752 0.23093 0.0
N971 N 0.23213 0.76218 0.2641 0.0
C972 C 0.22335 0.78977 0.26865 0.0
C973 C 0.19502 0.78728 0.25064 0.0
C974 C 0.53235 0.89997 0.58533 0.0
C975 C 0.53315 0.88379 0.55203 0.0
C976 C 0.53659 0.93402 0.59377 0.0
C977 C 0.54199 0.95343 0.56938 0.0
H978 H 0.52865 0.88627 0.60527 0.0
H979 H 0.53632 0.94533 0.61987 0.0
S980 S 0.5439 0.92382 0.47778 0.0
N981 N 0.53801 0.89052 0.4938 0.0
N982 N 0.54643 0.95416 0.51009 0.0
C983 C 0.54239 0.93777 0.53592 0.0
C984 C 0.53786 0.90313 0.52714 0.0
C985 C 0.52381 0.31937 0.76439 0.0
C986 C 0.52072 0.30118 0.73059 0.0
C987 C 0.50121 0.31665 0.78097 0.0
C988 C 0.47464 0.29549 0.76461 0.0
H989 H 0.54374 0.33616 0.77802 0.0
H990 H 0.50453 0.33127 0.80681 0.0
S991 S 0.45511 0.24109 0.67736 0.0
N992 N 0.48833 0.26012 0.68213 0.0
N993 N 0.44662 0.25529 0.71357 0.0
C994 C 0.47131 0.27666 0.7314 0.0
C995 C 0.4941 0.27944 0.71436 0.0
C996 C 0.10025 0.84189 0.6997 0.0
C997 C 0.11322 0.85147 0.73547 0.0
C998 C 0.09803 0.86491 0.6794 0.0
C999 C 0.10859 0.89803 0.69438 0.0
H1000 H 0.09115 0.81645 0.68745 0.0
H1001 H 0.08718 0.85688 0.6521 0.0
S1002 S 0.14525 0.93578 0.78587 0.0
N1003 N 0.13784 0.89624 0.78463 0.0
N1004 N 0.13303 0.93989 0.74581 0.0
C1005 C 0.12232 0.90814 0.7296 0.0
C1006 C 0.12492 0.88464 0.75037 0.0
C1007 C 0.44451 0.84531 0.86496 0.0
C1008 C 0.45462 0.82394 0.8841 0.0
C1009 C 0.41684 0.84712 0.86166 0.0
C1010 C 0.39914 0.82808 0.87805 0.0
H1011 H 0.45759 0.8594 0.85112 0.0
H1012 H 0.40878 0.86173 0.84449 0.0
S1013 S 0.41695 0.77334 0.93626 0.0
N1014 N 0.44595 0.78697 0.92356 0.0
N1015 N 0.39381 0.79055 0.91706 0.0
C1016 C 0.40957 0.80874 0.89942 0.0
C1017 C 0.43749 0.8066 0.90256 0.0
C1018 C 0.58407 0.17112 0.19542 0.0
C1019 C 0.57801 0.19922 0.18625 0.0
C1020 C 0.58147 0.14397 0.16973 0.0
C1021 C 0.57266 0.14404 0.13405 0.0
H1022 H 0.59125 0.17025 0.22255 0.0
H1023 H 0.58578 0.12255 0.17808 0.0
S1024 S 0.55176 0.21118 0.09733 0.0
N1025 N 0.5615 0.22546 0.13991 0.0
N1026 N 0.55624 0.17413 0.09124 0.0
C1027 C 0.56614 0.17199 0.12471 0.0
C1028 C 0.56892 0.19969 0.15095 0.0
C1029 C 0.13442 0.36172 0.37337 0.0
C1030 C 0.10852 0.34176 0.37433 0.0
C1031 C 0.15404 0.34839 0.35992 0.0
C1032 C 0.14828 0.31476 0.3474 0.0
H1033 H 0.13987 0.38761 0.38407 0.0
H1034 H 0.17433 0.36416 0.36096 0.0
S1035 S 0.08422 0.25189 0.34508 0.0
N1036 N 0.07829 0.28654 0.36162 0.0
N1037 N 0.11556 0.26174 0.33687 0.0
C1038 C 0.12235 0.29463 0.34745 0.0
C1039 C 0.10228 0.3081 0.36076 0.0
C1040 C 1.001 0.02843 0.20419 0.0
C1041 C 1.0161 0.03499 0.23937 0.0
C1042 C 1.01348 0.04017 0.178 0.0
C1043 C 0.04112 0.06007 0.18612 0.0
H1044 H 0.9795 1.01382 0.19672 0.0
H1045 H 1.00145 0.0335 0.15141 0.0
S1046 S 0.09032 0.08276 0.27389 0.0
N1047 N 0.06096 0.06121 0.28006 0.0
N1048 N 0.08361 0.0839 0.23215 0.0
C1049 C 0.05638 0.06629 0.22118 0.0
C1050 C 0.04408 0.05374 0.24738 0.0
C1051 C 0.32503 0.75575 0.58559 0.0
C1052 C 0.34462 0.78295 0.60857 0.0
C1053 C 0.30753 0.75923 0.55566 0.0
C1054 C 0.30898 0.79003 0.54807 0.0
H1055 H 0.32403 0.73138 0.58975 0.0
H1056 H 0.29397 0.73769 0.53741 0.0
S1057 S 0.35568 0.86888 0.59967 0.0
N1058 N 0.36341 0.84176 0.62212 0.0
N1059 N 0.33068 0.84815 0.56531 0.0
C1060 C 0.32744 0.81752 0.57138 0.0
C1061 C 0.34529 0.81402 0.60182 0.0
C1062 C 0.60434 0.04211 0.75952 0.0
C1063 C 0.6329 0.04196 0.76532 0.0
C1064 C 0.58827 0.04419 0.72698 0.0
C1065 C 0.59913 0.04691 0.69693 0.0
H1066 H 0.59395 0.04086 0.78084 0.0
H1067 H 0.56662 0.04411 0.7258 0.0
S1068 S 0.67362 0.05014 0.69707 0.0
N1069 N 0.67178 0.0457 0.73704 0.0
N1070 N 0.64199 0.05087 0.67668 0.0
C1071 C 0.62792 0.04721 0.70207 0.0
C1072 C 0.64447 0.04442 0.73565 0.0
C1073 C 0.36413 0.36124 0.011 0.0
C1074 C 0.34272 0.35792 0.02921 0.0
C1075 C 0.3583 0.34944 0.97482 0.0
C1076 C 0.33083 0.33355 0.95545 0.0
H1077 H 0.3855 0.37377 0.02472 0.0
H1078 H 0.37544 0.35345 0.96189 0.0
S1079 S 0.26773 0.316 0.99163 0.0
N1080 N 0.29327 0.33631 0.02575 0.0
N1081 N 0.28228 0.31331 0.95792 0.0
C1082 C 0.30933 0.32937 0.97362 0.0
C1083 C 0.31526 0.34178 0.01043 0.0
C1084 C 1.01322 0.04649 0.4306 0.0
C1085 C 1.00718 1.01397 0.41254 0.0
C1086 C 0.02464 0.0555 0.46692 0.0
C1087 C 0.03071 0.03239 0.4865 0.0
H1088 H 1.00824 0.06495 0.41684 0.0
H1089 H 0.02847 0.08068 0.47971 0.0
S1090 S 1.02023 0.94419 0.45069 0.0
N1091 N 1.00928 0.95902 0.41653 0.0
N1092 N 0.03052 0.97537 0.48408 0.0
C1093 C 0.0254 0.99989 0.4683 0.0
C1094 C 1.01373 0.99086 0.43157 0.0
C1095 C 0.37308 0.7768 0.755 0.0
C1096 C 0.3866 0.80038 0.7391 0.0
C1097 C 0.34981 0.78046 0.76763 0.0
C1098 C 0.33958 0.80771 0.76478 0.0
H1099 H 0.3818 0.75675 0.76009 0.0
H1100 H 0.34224 0.76404 0.78315 0.0
S1101 S 0.3654 0.87406 0.72111 0.0
N1102 N 0.38702 0.85059 0.71855 0.0
N1103 N 0.34211 0.8564 0.74091 0.0
C1104 C 0.35126 0.82973 0.74585 0.0
C1105 C 0.3754 0.8266 0.73379 0.0
C1106 C 0.64048 0.03445 0.9771 0.0
C1107 C 0.6464 0.06005 0.95866 0.0
C1108 C 0.62503 0.03573 1.00433 0.0
C1109 C 0.61376 0.06234 0.0149 0.0
H1110 H 0.64844 1.01344 0.97115 0.0
H1111 H 0.6217 1.0153 0.01712 0.0
S1112 S 0.62191 0.13555 0.97582 0.0
N1113 N 0.63847 0.11315 0.9546 0.0
N1114 N 0.6098 0.1145 1.00333 0.0
C1115 C 0.61896 0.08745 0.99628 0.0
C1116 C 0.635 0.08659 0.96926 0.0
C1117 C 0.32041 0.37269 0.22338 0.0
C1118 C 0.34088 0.36412 0.2067 0.0
C1119 C 0.31232 0.35761 0.2504 0.0
C1120 C 0.32434 0.33333 0.26173 0.0
H1121 H 0.30985 0.3903 0.2147 0.0
H1122 H 0.29596 0.36425 0.2617 0.0
S1123 S 0.38128 0.30534 0.23068 0.0
N1124 N 0.37476 0.33193 0.20674 0.0
N1125 N 0.35928 0.30378 0.25652 0.0
C1126 C 0.34545 0.32564 0.24639 0.0
C1127 C 0.35378 0.34095 0.21923 0.0
C1128 C 0.18538 0.92411 0.09577 0.0
C1129 C 0.18817 0.91963 0.06116 0.0
C1130 C 0.18175 0.95341 0.11193 0.0
C1131 C 0.18111 0.97852 0.09367 0.0
H1132 H 0.1874 0.90558 0.11086 0.0
H1133 H 0.17919 0.9564 0.13849 0.0
S1134 S 0.18592 0.97744 1.00207 0.0
N1135 N 0.18916 0.94154 0.00886 0.0
N1136 N 0.18196 0.99677 0.03914 0.0
C1137 C 0.1832 0.97389 0.05884 0.0
C1138 C 0.18678 0.94424 0.0425 0.0
C1139 C 0.68411 0.63372 0.11606 0.0
C1140 C 0.69271 0.63634 0.08455 0.0
C1141 C 0.65738 0.61492 0.11663 0.0
C1142 C 0.63753 0.59799 0.08574 0.0
H1143 H 0.69849 0.64552 0.14093 0.0
H1144 H 0.65271 0.61244 0.14163 0.0
S1145 S 0.64771 0.59768 0.99605 0.0
N1146 N 0.6777 0.62106 0.02128 0.0
N1147 N 0.62786 0.58577 0.02258 0.0
C1148 C 0.64529 0.60104 0.05403 0.0
C1149 C 0.6726 0.62019 0.05335 0.0
C1150 C 0.68247 0.48121 0.35624 0.0
C1151 C 0.69356 0.5142 0.35649 0.0
C1152 C 0.69855 0.45896 0.35255 0.0
C1153 C 0.72605 0.46895 0.34855 0.0
H1154 H 0.66155 0.47268 0.35998 0.0
H1155 H 0.68961 0.43388 0.35345 0.0
S1156 S 0.76409 0.5521 0.34496 0.0
N1157 N 0.73311 0.55544 0.35034 0.0
N1158 N 0.76345 0.51353 0.3438 0.0
C1159 C 0.73706 0.50159 0.3475 0.0
C1160 C 0.72077 0.52428 0.35143 0.0
C1161 C 0.85113 0.4067 0.50974 0.0
C1162 C 0.82893 0.41785 0.51912 0.0
C1163 C 0.87782 0.42774 0.51638 0.0
C1164 C 0.88318 0.46046 0.53296 0.0
H1165 H 0.84787 0.38147 0.49746 0.0
H1166 H 0.8944 0.41838 0.50842 0.0
S1167 S 0.83306 0.50078 0.56604 0.0
N1168 N 0.81442 0.46317 0.54786 0.0
N1169 N 0.86496 0.50278 0.56036 0.0
C1170 C 0.86136 0.47192 0.54285 0.0
C1171 C 0.83408 0.45054 0.53593 0.0
C1172 C 0.39609 0.19939 0.34709 0.0
C1173 C 0.38246 0.16724 0.32736 0.0
C1174 C 0.38255 0.22581 0.34971 0.0
C1175 C 0.35393 0.22252 0.33327 0.0
H1176 H 0.41797 0.20469 0.36002 0.0
H1177 H 0.39502 0.24942 0.36481 0.0
S1178 S 0.30738 0.14359 0.27933 0.0
N1179 N 0.33757 0.13474 0.2912 0.0
N1180 N 0.31251 0.18229 0.29724 0.0
C1181 C 0.33986 0.19024 0.3144 0.0
C1182 C 0.35383 0.16364 0.31115 0.0
C1183 C 0.38373 0.17218 0.58262 0.0
C1184 C 0.35764 0.15917 0.58989 0.0
C1185 C 0.40565 0.15688 0.58759 0.0
C1186 C 0.40268 0.12814 0.60063 0.0
H1187 H 0.38723 0.19423 0.57246 0.0
H1188 H 0.42517 0.16779 0.58138 0.0
S1189 S 0.33938 0.08468 0.62546 0.0
N1190 N 0.33064 0.11608 0.61189 0.0
N1191 N 0.37179 0.08756 0.62145 0.0
C1192 C 0.37699 0.11519 0.60874 0.0
C1193 C 0.35452 0.13057 0.60328 0.0
C1194 C 0.72199 0.70197 0.34122 0.0
C1195 C 0.72301 0.68381 0.36766 0.0
C1196 C 0.74539 0.72606 0.33973 0.0
C1197 C 0.77098 0.73296 0.36449 0.0
H1198 H 0.70312 0.69684 0.32075 0.0
H1199 H 0.74367 0.73842 0.31811 0.0
S1200 S 0.78463 0.69375 0.44005 0.0
N1201 N 0.75164 0.67549 0.42013 0.0
N1202 N 0.79561 0.72081 0.4173 0.0
C1203 C 0.77209 0.71592 0.39184 0.0
C1204 C 0.74811 0.69143 0.39351 0.0
C1205 C 0.87548 0.46288 0.84926 0.0
C1206 C 0.88596 0.46682 0.81921 0.0
C1207 C 0.861 0.4317 0.85392 0.0
C1208 C 0.85585 0.40237 0.82878 0.0
H1209 H 0.87934 0.48389 0.87005 0.0
H1210 H 0.85414 0.43061 0.87791 0.0
S1211 S 0.87694 0.39888 0.74421 0.0
N1212 N 0.88853 0.43777 0.76316 0.0
N1213 N 0.86172 0.38072 0.77164 0.0
C1214 C 0.86552 0.40627 0.79829 0.0
C1215 C 0.88034 0.43778 0.79367 0.0
C1216 C 0.08659 0.93499 0.16415 0.0
C1217 C 0.08256 0.90657 0.13853 0.0
C1218 C 0.08192 0.96437 0.15521 0.0
C1219 C 0.0724 0.96681 0.12023 0.0
H1220 H 0.0934 0.93461 0.19147 0.0
H1221 H 0.08536 0.98527 0.176 0.0
S1222 S 0.05985 0.90093 0.04268 0.0
N1223 N 0.0695 0.88423 0.07592 0.0
N1224 N 0.06015 0.93841 0.05988 0.0
C1225 C 0.06835 0.93882 0.09445 0.0
C1226 C 0.07355 0.90916 0.10336 0.0
C1227 C 0.93224 0.31157 0.93666 0.0
C1228 C 0.93681 0.28062 0.93852 0.0
C1229 C 0.90667 0.31505 0.91713 0.0
C1230 C 0.88459 0.28769 0.89879 0.0
H1231 H 0.94847 0.33326 0.95047 0.0
H1232 H 0.90466 0.33923 0.91525 0.0
S1233 S 0.88654 0.20159 0.89373 0.0
N1234 N 0.91706 0.22245 0.91963 0.0
N1235 N 0.86999 0.22881 0.88278 0.0
C1236 C 0.88921 0.25686 0.90045 0.0
C1237 C 0.9149 0.25336 0.92038 0.0
C1238 C 0.57589 0.2113 0.64865 0.0
C1239 C 0.59544 0.23133 0.63488 0.0
C1240 C 0.57074 0.17715 0.64112 0.0
C1241 C 0.58501 0.16127 0.61967 0.0
H1242 H 0.56472 0.22205 0.66591 0.0
H1243 H 0.55566 0.16311 0.65269 0.0
S1244 S 0.6368 0.20187 0.57497 0.0
N1245 N 0.62808 0.23213 0.59712 0.0
N1246 N 0.61857 0.16834 0.58341 0.0
C1247 C 0.60427 0.18087 0.60533 0.0
C1248 C 0.60939 0.21567 0.61276 0.0
C1249 C 0.60466 0.78861 0.42819 0.0
C1250 C 0.60329 0.81399 0.45419 0.0
C1251 C 0.62779 0.79118 0.41266 0.0
C1252 C 0.65035 0.81941 0.42206 0.0
H1253 H 0.58798 0.76633 0.42015 0.0
H1254 H 0.62784 0.77099 0.3928 0.0
S1255 S 0.65715 0.89316 0.48835 0.0
N1256 N 0.62681 0.86865 0.4882 0.0
N1257 N 0.66984 0.8732 0.4592 0.0
C1258 C 0.64914 0.84505 0.44776 0.0
C1259 C 0.62579 0.8424 0.46373 0.0
C1260 C 0.02473 0.24906 0.4604 0.0
C1261 C 0.02769 0.27915 0.48234 0.0
C1262 C 1.02045 0.22042 0.473 0.0
C1263 C 1.01884 0.22112 0.50775 0.0
H1264 H 0.0266 0.24766 0.43365 0.0
H1265 H 1.01972 0.19787 0.45605 0.0
S1266 S 0.02362 0.29314 0.57519 0.0
N1267 N 0.02693 0.30752 0.53985 0.0
N1268 N 1.01956 0.25366 0.56367 0.0
C1269 C 1.02038 0.2507 0.52945 0.0
C1270 C 0.02467 0.2798 0.51669 0.0
C1271 C 0.68599 0.22954 0.29744 0.0
C1272 C 0.67066 0.2506 0.28522 0.0
C1273 C 0.71452 0.2351 0.2978 0.0
C1274 C 0.72829 0.26176 0.28573 0.0
H1275 H 0.67632 0.20986 0.30863 0.0
H1276 H 0.72626 0.22019 0.31036 0.0
S1277 S 0.69624 0.31982 0.24469 0.0
N1278 N 0.67027 0.29584 0.25564 0.0
N1279 N 0.72399 0.3064 0.25689 0.0
C1280 C 0.71257 0.28094 0.27041 0.0
C1281 C 0.68369 0.27543 0.27013 0.0
C1282 C 0.5508 0.91391 0.03242 0.0
C1283 C 0.54417 0.91763 0.99773 0.0
C1284 C 0.55599 0.9406 0.06011 0.0
C1285 C 0.55467 0.97134 0.05342 0.0
H1286 H 0.55155 0.89031 0.03807 0.0
H1287 H 0.5611 0.9372 0.08667 0.0
S1288 S 0.53893 0.99194 0.96542 0.0
N1289 N 0.53668 0.95274 0.95747 0.0
N1290 N 0.54737 1.0031 0.00827 0.0
C1291 C 0.54851 0.97472 0.01822 0.0
C1292 C 0.54298 0.94771 0.99059 0.0
C1293 C 0.99801 0.7566 0.83003 0.0
C1294 C 1.01965 0.77472 0.81795 0.0
C1295 C 0.97962 0.77163 0.84427 0.0
C1296 C 0.98181 0.80485 0.84548 0.0
H1297 H 0.99512 0.73068 0.82815 0.0
H1298 H 0.96285 0.75695 0.85289 0.0
S1299 S 0.03586 0.86351 0.81957 0.0
N1300 N 0.04333 0.82827 0.81039 0.0
N1301 N 1.00811 0.85593 0.83619 0.0
C1302 C 1.00392 0.82344 0.83477 0.0
C1303 C 0.02299 0.80847 0.82108 0.0
C1304 C 0.08268 0.0836 0.95667 0.0
C1305 C 0.11088 0.08498 0.95665 0.0
C1306 C 0.0703 0.07228 0.98272 0.0
C1307 C 0.08539 0.06196 0.0105 0.0
H1308 H 0.06968 0.0907 0.9359 0.0
H1309 H 0.04835 0.07114 0.98071 0.0
S1310 S 0.16004 0.06084 0.02321 0.0
N1311 N 0.15377 0.0753 0.98744 0.0
N1312 N 0.13035 0.05397 0.03589 0.0
C1313 C 0.11373 0.06376 0.01123 0.0
C1314 C 0.12646 0.07521 0.9845 0.0
C1315 C 0.80938 0.36626 0.6233 0.0
C1316 C 0.79553 0.34015 0.59499 0.0
C1317 C 0.83081 0.36319 0.64915 0.0
C1318 C 0.83729 0.33316 0.64817 0.0
H1319 H 0.80231 0.38821 0.62704 0.0
H1320 H 0.83816 0.38181 0.67285 0.0
S1321 S 0.81657 0.26403 0.57251 0.0
N1322 N 0.79712 0.28858 0.56147 0.0
N1323 N 0.83651 0.28219 0.61158 0.0
C1324 C 0.82822 0.31009 0.6167 0.0
C1325 C 0.8067 0.31328 0.59002 0.0
C1326 C 0.50928 0.04421 0.43427 0.0
C1327 C 0.49153 0.06534 0.43053 0.0
C1328 C 0.52638 0.04368 0.4668 0.0
C1329 C 0.52669 0.06353 0.49871 0.0
H1330 H 0.51033 0.02775 0.4114 0.0
H1331 H 0.5399 0.02738 0.46682 0.0
S1332 S 0.48495 0.1243 0.50532 0.0
N1333 N 0.47597 0.1075 0.46319 0.0
N1334 N 0.50785 0.10632 0.52388 0.0
C1335 C 0.50911 0.08495 0.49583 0.0
C1336 C 0.49176 0.08589 0.46219 0.0
C1337 C 0.79843 0.73983 0.1844 0.0
C1338 C 0.78361 0.75451 0.1606 0.0
C1339 C 0.80373 0.75122 0.2206 0.0
C1340 C 0.79412 0.77746 0.2345 0.0
H1341 H 0.80548 0.71884 0.17511 0.0
H1342 H 0.81485 0.73887 0.23787 0.0
S1343 S 0.75802 0.82741 0.1841 0.0
N1344 N 0.76222 0.79915 0.15401 0.0
N1345 N 0.77138 0.81968 0.22203 0.0
C1346 C 0.7801 0.79302 0.21124 0.0
C1347 C 0.77511 0.78182 0.17433 0.0
C1348 C 0.12087 0.09963 0.76357 0.0
C1349 C 0.10576 0.07814 0.7809 0.0
C1350 C 0.11263 0.09706 0.72726 0.0
C1351 C 0.08928 0.07258 0.70689 0.0
H1352 H 0.13956 0.11823 0.77801 0.0
H1353 H 0.12514 0.11358 0.71493 0.0
S1354 S 0.0409 1.01234 0.73876 0.0
N1355 N 0.06474 0.03319 0.77425 0.0
N1356 N 0.04999 0.02817 0.70627 0.0
C1357 C 0.07349 0.05177 0.72373 0.0
C1358 C 0.08151 0.0546 0.76063 0.0
C1359 C 0.75638 0.32125 0.46 0.0
C1360 C 0.73263 0.33091 0.44523 0.0
C1361 C 0.7729 0.30993 0.43948 0.0
C1362 C 0.76549 0.30681 0.40346 0.0
H1363 H 0.76259 0.32279 0.48762 0.0
H1364 H 0.79111 0.30283 0.45172 0.0
S1365 S 0.70493 0.32771 0.35199 0.0
N1366 N 0.70282 0.33708 0.39286 0.0
N1367 N 0.73261 0.31314 0.35342 0.0
C1368 C 0.74158 0.31568 0.38816 0.0
C1369 C 0.72538 0.32841 0.40931 0.0
C1370 C 0.50968 0.04397 0.24036 0.0
C1371 C 0.48818 0.06046 0.24236 0.0
C1372 C 0.52341 0.04174 0.21201 0.0
C1373 C 0.51665 0.05519 0.18227 0.0
H1374 H 0.51643 0.03238 0.26143 0.0
H1375 H 0.53958 0.02886 0.21346 0.0
S1376 S 0.4634 0.10296 0.17289 0.0
N1377 N 0.46213 0.09208 0.21062 0.0
N1378 N 0.48703 0.0874 0.15792 0.0
C1379 C 0.49534 0.07201 0.18361 0.0
C1380 C 0.48153 0.07475 0.21304 0.0
C1381 C 0.78429 0.73682 0.95515 0.0
C1382 C 0.7931 0.75233 0.99077 0.0
C1383 C 0.79218 0.75303 0.92875 0.0
C1384 C 0.80885 0.78556 0.93681 0.0
H1385 H 0.77071 0.71234 0.94753 0.0
H1386 H 0.78494 0.73997 0.90191 0.0
S1387 S 0.84225 0.83413 0.02651 0.0
N1388 N 0.82297 0.80011 0.03261 0.0
N1389 N 0.83716 0.83038 0.98384 0.0
C1390 C 0.81905 0.80033 0.97248 0.0
C1391 C 0.81129 0.78385 0.99911 0.0
C1392 C 0.90398 0.15974 0.10773 0.0
C1393 C 0.92119 0.19168 0.11439 0.0
C1394 C 0.91249 0.13352 0.09282 0.0
C1395 C 0.93828 0.13833 0.0837 0.0
H1396 H 0.8843 0.15466 0.11561 0.0
H1397 H 0.89949 0.10913 0.09009 0.0
S1398 S 0.98963 0.21688 0.09179 0.0
N1399 N 0.96409 0.22687 0.10777 0.0
N1400 N 0.98021 0.1768 0.0795 0.0
C1401 C 0.95498 0.17003 0.08792 0.0
C1402 C 0.94629 0.197 0.10323 0.0
C1403 C 0.45933 0.46564 0.10719 0.0
C1404 C 0.43696 0.47607 0.11803 0.0
C1405 C 0.48333 0.48769 0.10294 0.0
C1406 C 0.48644 0.52145 0.10936 0.0
H1407 H 0.45827 0.43996 0.10145 0.0
H1408 H 0.49917 0.47796 0.09392 0.0
S1409 S 0.43441 0.56212 0.13854 0.0
N1410 N 0.42 0.52308 0.13513 0.0
N1411 N 0.46461 0.56419 0.12757 0.0
C1412 C 0.46428 0.53224 0.12039 0.0
C1413 C 0.43982 0.5098 0.12464 0.0
C1414 C 0.41093 0.59185 0.8351 0.0
C1415 C 0.43752 0.60173 0.82822 0.0
C1416 C 0.39452 0.61361 0.83879 0.0
C1417 C 0.40406 0.64583 0.83531 0.0
H1418 H 0.40256 0.56699 0.83723 0.0
H1419 H 0.37381 0.60484 0.84312 0.0
S1420 S 0.47277 0.68441 0.81997 0.0
N1421 N 0.47338 0.64631 0.82026 0.0
N1422 N 0.44205 0.68734 0.82681 0.0
C1423 C 0.43091 0.65641 0.82968 0.0
C1424 C 0.44784 0.63431 0.82634 0.0
C1425 C 0.29257 0.67908 0.71198 0.0
C1426 C 0.30252 0.69232 0.6855 0.0
C1427 C 0.26683 0.65573 0.70421 0.0
C1428 C 0.25065 0.64486 0.66971 0.0
H1429 H 0.30413 0.68775 0.73886 0.0
H1430 H 0.25892 0.64728 0.72549 0.0
S1431 S 0.26979 0.66865 0.59057 0.0
N1432 N 0.29591 0.69073 0.62318 0.0
N1433 N 0.24758 0.64646 0.60857 0.0
C1434 C 0.26121 0.65656 0.6428 0.0
C1435 C 0.28722 0.68044 0.65072 0.0
C1436 C 0.76906 0.94752 0.85264 0.0
C1437 C 0.74337 0.94395 0.86386 0.0
C1438 C 0.78481 0.92288 0.8518 0.0
C1439 C 0.77596 0.89203 0.86117 0.0
H1440 H 0.7767 0.96912 0.84301 0.0
H1441 H 0.80373 0.92772 0.84229 0.0
S1442 S 0.71258 0.8707 0.89658 0.0
N1443 N 0.71213 0.90673 0.88766 0.0
N1444 N 0.74021 0.86191 0.88507 0.0
C1445 C 0.75093 0.88877 0.87329 0.0
C1446 C 0.73529 0.91386 0.87474 0.0
C1447 C 0.74236 0.9401 0.60945 0.0
C1448 C 0.76879 0.95316 0.60329 0.0
C1449 C 0.72036 0.95498 0.60272 0.0
C1450 C 0.72367 0.98365 0.58941 0.0
H1451 H 0.73862 0.91824 0.61994 0.0
H1452 H 0.70051 0.94369 0.60789 0.0
S1453 S 0.78829 0.02657 0.56643 0.0
N1454 N 0.79654 0.99541 0.5811 0.0
N1455 N 0.75571 0.02402 0.56941 0.0
C1456 C 0.74991 0.99663 0.58244 0.0
C1457 C 0.77231 0.98134 0.58923 0.0
C1458 C 0.37925 0.42124 0.79729 0.0
C1459 C 0.40546 0.42685 0.82058 0.0
C1460 C 0.35512 0.40038 0.802 0.0
C1461 C 0.35623 0.38481 0.83048 0.0
H1462 H 0.37731 0.43307 0.77525 0.0
H1463 H 0.33548 0.39644 0.78321 0.0
S1464 S 0.41889 0.39416 0.90117 0.0
N1465 N 0.43065 0.41587 0.87397 0.0
N1466 N 0.38501 0.37908 0.8842 0.0
C1467 C 0.38203 0.39107 0.85457 0.0
C1468 C 0.40672 0.41141 0.84923 0.0
C1469 C 0.25445 0.67506 0.39539 0.0
C1470 C 0.24303 0.64628 0.36905 0.0
C1471 C 0.26878 0.70522 0.38887 0.0
C1472 C 0.27246 0.70912 0.35534 0.0
H1473 H 0.25203 0.67446 0.42167 0.0
H1474 H 0.27672 0.72592 0.41055 0.0
S1475 S 0.24536 0.64245 0.27598 0.0
N1476 N 0.23608 0.62463 0.30728 0.0
N1477 N 0.26228 0.68051 0.29488 0.0
C1478 C 0.26117 0.68052 0.3286 0.0
C1479 C 0.24678 0.64959 0.3354 0.0
C1480 C 0.55782 0.71087 0.58595 0.0
C1481 C 0.54429 0.71116 0.55144 0.0
C1482 C 0.56114 0.68183 0.5967 0.0
C1483 C 0.55082 0.65125 0.57368 0.0
H1484 H 0.56619 0.73348 0.60508 0.0
H1485 H 0.5718 0.68339 0.62342 0.0
S1486 S 0.51629 0.63794 0.47964 0.0
N1487 N 0.52217 0.6775 0.49379 0.0
N1488 N 0.52809 0.62349 0.51382 0.0
C1489 C 0.53752 0.65109 0.53903 0.0
C1490 C 0.53431 0.6807 0.52801 0.0
C1491 C 0.69962 0.29223 0.74472 0.0
C1492 C 0.68468 0.31612 0.75065 0.0
C1493 C 0.72676 0.29501 0.76517 0.0
C1494 C 0.74029 0.32179 0.7928 0.0
H1495 H 0.68997 0.2706 0.72445 0.0
H1496 H 0.7365 0.2753 0.7604 0.0
S1497 S 0.71157 0.39192 0.81881 0.0
N1498 N 0.68675 0.36816 0.78581 0.0
N1499 N 0.73695 0.37343 0.82397 0.0
C1500 C 0.72601 0.34631 0.79821 0.0
C1501 C 0.69857 0.34356 0.77732 0.0
C1502 C 0.05353 0.40258 0.06405 0.0
C1503 C 0.0279 0.38588 0.04029 0.0
C1504 C 0.06053 0.43669 0.07618 0.0
C1505 C 0.04215 0.45541 0.06513 0.0
H1506 H 0.06817 0.38922 0.07355 0.0
H1507 H 0.08036 0.44844 0.09462 0.0
S1508 S 0.97435 0.42441 0.99964 0.0
N1509 N 0.98541 0.3917 1.00381 0.0
N1510 N 0.99842 0.45495 0.02688 0.0
C1511 C 1.01688 0.43913 0.04084 0.0
C1512 C 1.00984 0.40467 0.02836 0.0
C1513 C 0.99543 0.81118 0.21871 0.0
C1514 C 0.02227 0.80959 0.23553 0.0
C1515 C 0.97277 0.80666 0.23487 0.0
C1516 C 0.97564 0.79977 0.26849 0.0
H1517 H 0.99185 0.81633 0.19276 0.0
H1518 H 0.95271 0.80831 0.22071 0.0
S1519 S 0.04089 0.79133 0.32354 0.0
N1520 N 0.04998 0.79957 0.28761 0.0
N1521 N 1.0075 0.79096 0.31794 0.0
C1522 C 1.00219 0.79749 0.28547 0.0
C1523 C 0.02542 0.80249 0.2691 0.0
C1524 C 0.57883 0.35227 0.21845 0.0
C1525 C 0.60592 0.35078 0.23368 0.0
C1526 C 0.57483 0.37377 0.19666 0.0
C1527 C 0.59775 0.39428 0.1892 0.0
H1528 H 0.5605 0.33673 0.22336 0.0
H1529 H 0.5536 0.37392 0.18503 0.0
S1530 S 0.67276 0.39905 0.2211 0.0
N1531 N 0.65603 0.371 0.239 0.0
N1532 N 0.64827 0.41188 0.19775 0.0
C1533 C 0.62494 0.39302 0.20385 0.0
C1534 C 0.62908 0.37115 0.22627 0.0
C1535 C 0.93811 0.32567 0.359 0.0
C1536 C 0.95387 0.33651 0.39338 0.0
C1537 C 0.90953 0.32346 0.35144 0.0
C1538 C 0.89653 0.33275 0.37805 0.0
H1539 H 0.94747 0.31657 0.33859 0.0
H1540 H 0.89722 0.31276 0.32515 0.0
S1541 S 0.9297 0.36671 0.47128 0.0
N1542 N 0.95528 0.35897 0.45376 0.0
N1543 N 0.90147 0.35629 0.43887 0.0
C1544 C 0.91248 0.34622 0.41188 0.0
C1545 C 0.94137 0.34768 0.41978 0.0
C1546 C 0.09656 0.69675 0.65706 0.0
C1547 C 0.07829 0.69838 0.67965 0.0
C1548 C 0.09215 0.66901 0.63111 0.0
C1549 C 0.06921 0.64238 0.62684 0.0
H1550 H 0.11494 0.71656 0.66013 0.0
H1551 H 0.10727 0.66789 0.61528 0.0
S1552 S 1.0138 0.63533 0.67657 0.0
N1553 N 0.03546 0.67146 0.69436 0.0
N1554 N 0.02692 0.61975 0.64506 0.0
C1555 C 0.05013 0.64418 0.64806 0.0
C1556 C 0.05471 0.67213 0.67463 0.0
C1557 C 0.60847 0.79772 0.88034 0.0
C1558 C 0.60687 0.82939 0.87855 0.0
C1559 C 0.62735 0.7846 0.86551 0.0
C1560 C 0.64586 0.8031 0.84936 0.0
H1561 H 0.59555 0.78331 0.89413 0.0
H1562 H 0.62851 0.76034 0.86839 0.0
S1563 S 0.64641 0.88578 0.83376 0.0
N1564 N 0.62208 0.87762 0.85591 0.0
N1565 N 0.65885 0.85343 0.82873 0.0
C1566 C 0.64287 0.83401 0.84506 0.0
C1567 C 0.62311 0.84715 0.85975 0.0
C1568 C 0.54424 0.53986 0.74037 0.0
C1569 C 0.51512 0.53267 0.73691 0.0
C1570 C 0.55637 0.54951 0.71366 0.0
C1571 C 0.5401 0.5523 0.68194 0.0
H1572 H 0.55802 0.53874 0.7643 0.0
H1573 H 0.579 0.55532 0.71826 0.0
S1574 S 0.46276 0.53487 0.65844 0.0
N1575 N 0.47002 0.52802 0.69834 0.0
N1576 N 0.49317 0.54558 0.64796 0.0
C1577 C 0.51091 0.54386 0.6773 0.0
C1578 C 0.49836 0.53425 0.70481 0.0
C1579 C 0.81516 0.2729 0.10258 0.0
C1580 C 0.8442 0.2768 0.11152 0.0
C1581 C 0.80356 0.28721 0.07643 0.0
C1582 C 0.82098 0.30517 0.05898 0.0
H1583 H 0.80138 0.25754 0.11466 0.0
H1584 H 0.781 0.28244 0.06824 0.0
S1585 S 0.89805 0.32226 0.07354 0.0
N1586 N 0.88998 0.30036 0.10236 0.0
N1587 N 0.86814 0.32701 0.05256 0.0
C1588 C 0.8501 0.31057 0.06908 0.0
C1589 C 0.86181 0.29634 0.09571 0.0
C1590 C 0.11798 0.52083 0.24099 0.0
C1591 C 0.14004 0.54871 0.25856 0.0
C1592 C 0.09926 0.51982 0.20846 0.0
C1593 C 0.1016 0.54623 0.19078 0.0
H1594 H 0.1145 0.49987 0.25293 0.0
H1595 H 0.0825 0.49794 0.19711 0.0
S1596 S 0.15581 0.62494 0.22413 0.0
N1597 N 0.16271 0.60358 0.25405 0.0
N1598 N 0.12862 0.60107 0.19417 0.0
C1599 C 0.1239 0.57381 0.20758 0.0
C1600 C 0.14261 0.57515 0.2408 0.0
C1601 C 0.86473 0.86627 0.50968 0.0
C1602 C 0.84398 0.86083 0.52875 0.0
C1603 C 0.85854 0.85457 0.47354 0.0
C1604 C 0.83134 0.83681 0.455 0.0
H1605 H 0.88582 0.88057 0.52263 0.0
H1606 H 0.8751 0.86018 0.45993 0.0
S1607 S 0.77032 0.81236 0.49332 0.0
N1608 N 0.79562 0.83446 0.52688 0.0
N1609 N 0.78405 0.81184 0.4589 0.0
C1610 C 0.81058 0.83023 0.47389 0.0
C1611 C 0.81686 0.84241 0.51077 0.0
C1612 C 0.53258 0.50993 0.92811 0.0
C1613 C 0.51243 0.52338 0.91055 0.0
C1614 C 0.54168 0.51769 0.96457 0.0
C1615 C 0.53126 0.5395 0.9852 0.0
H1616 H 0.54132 0.49296 0.91365 0.0
H1617 H 0.55722 0.50656 0.97666 0.0
S1618 S 0.4775 0.58079 0.95282 0.0
N1619 N 0.48174 0.55925 0.91715 0.0
N1620 N 0.49925 0.57392 0.98565 0.0
C1621 C 0.5112 0.55328 0.96822 0.0
C1622 C 0.50167 0.54518 0.93097 0.0
C1623 C 0.88117 0.3147 0.24939 0.0
C1624 C 0.88825 0.28531 0.25157 0.0
C1625 C 0.85557 0.31875 0.25545 0.0
C1626 C 0.83674 0.29344 0.26386 0.0
H1627 H 0.89596 0.33499 0.24456 0.0
H1628 H 0.8518 0.34263 0.2569 0.0
S1629 S 0.84433 0.21079 0.26805 0.0
N1630 N 0.87408 0.23018 0.26053 0.0
N1631 N 0.82517 0.23719 0.26938 0.0
C1632 C 0.84278 0.26333 0.2632 0.0
C1633 C 0.86893 0.25946 0.25799 0.0
C1634 C 0.16139 0.55996 0.49947 0.0
C1635 C 0.15039 0.55347 0.46262 0.0
C1636 C 0.14465 0.5615 0.52483 0.0
C1637 C 0.11525 0.55742 0.51586 0.0
H1638 H 0.18375 0.56433 0.50921 0.0
H1639 H 0.15523 0.56641 0.55214 0.0
S1640 S 0.07458 0.54133 0.42341 0.0
N1641 N 0.10693 0.54363 0.4192 0.0
N1642 N 0.07602 0.54676 0.4657 0.0
C1643 C 0.10373 0.55089 0.47902 0.0
C1644 C 0.12089 0.54892 0.45304 0.0
C1645 C 0.815 0.87102 0.7175 0.0
C1646 C 0.83943 0.86712 0.70688 0.0
C1647 C 0.80554 0.8555 0.74342 0.0
C1648 C 0.82058 0.83636 0.76072 0.0
H1649 H 0.80242 0.885 0.70464 0.0
H1650 H 0.78607 0.85815 0.74967 0.0
S1651 S 0.88622 0.81933 0.74411 0.0
N1652 N 0.87855 0.84275 0.71666 0.0
N1653 N 0.86138 0.8151 0.76598 0.0
C1654 C 0.84546 0.83328 0.75139 0.0
C1655 C 0.8547 0.84824 0.72439 0.0
C1656 C 0.68589 0.42547 0.60106 0.0
C1657 C 0.70831 0.43134 0.58488 0.0
C1658 C 0.67681 0.45136 0.61602 0.0
C1659 C 0.69069 0.48345 0.61615 0.0
H1660 H 0.67435 0.40085 0.60032 0.0
H1661 H 0.65799 0.44617 0.62564 0.0
S1662 S 0.75123 0.51146 0.57869 0.0
N1663 N 0.74497 0.47149 0.57107 0.0
N1664 N 0.72781 0.52003 0.59983 0.0
C1665 C 0.71394 0.48965 0.60167 0.0
C1666 C 0.72285 0.46351 0.58586 0.0
C1667 C 0.18929 0.10519 0.57564 0.0
C1668 C 0.1914 0.13809 0.57464 0.0
C1669 C 0.16465 0.08464 0.58025 0.0
C1670 C 0.14057 0.0956 0.58378 0.0
H1671 H 0.20708 0.09539 0.57387 0.0
H1672 H 0.16468 0.05971 0.58129 0.0
S1673 S 0.1348 0.17942 0.58062 0.0
N1674 N 0.16682 0.18044 0.5763 0.0
N1675 N 0.12099 0.14189 0.58401 0.0
C1676 C 0.14238 0.12825 0.58191 0.0
C1677 C 0.16754 0.14934 0.5776 0.0
C1678 C 0.18327 0.98296 0.86842 0.0
C1679 C 0.192 1.01453 0.86247 0.0
C1680 C 0.20024 0.96142 0.86648 0.0
C1681 C 0.22631 0.97065 0.85812 0.0
H1682 H 0.1635 0.97505 0.87546 0.0
H1683 H 0.193 0.93746 0.87176 0.0
S1684 S 0.25826 0.04998 0.83854 0.0
N1685 N 0.22798 0.05348 0.84645 0.0
N1686 N 0.25993 1.01306 0.84314 0.0
C1687 C 0.235 1.00182 0.85121 0.0
C1688 C 0.21783 0.02378 0.85335 0.0
C1689 C 0.35984 0.91261 0.06631 0.0
C1690 C 0.33423 0.9169 0.04951 0.0
C1691 C 0.38516 0.93425 0.06644 0.0
C1692 C 0.38555 0.96056 0.04946 0.0
H1693 H 0.36028 0.8923 0.07913 0.0
H1694 H 0.40461 0.92992 0.07909 0.0
S1695 S 0.32405 0.98072 0.99975 0.0
N1696 N 0.31061 0.94861 0.01475 0.0
N1697 N 0.35832 0.98896 0.01447 0.0
C1698 C 0.36005 0.9652 0.03286 0.0
C1699 C 0.3343 0.94337 0.03297 0.0
C1700 C 0.86391 0.66895 0.83922 0.0
C1701 C 0.88779 0.67155 0.82421 0.0
C1702 C 0.84884 0.69421 0.84254 0.0
C1703 C 0.85656 0.7247 0.83192 0.0
H1704 H 0.85613 0.64675 0.84773 0.0
H1705 H 0.83089 0.68973 0.85399 0.0
S1706 S 0.91563 0.74472 0.78896 0.0
N1707 N 0.91659 0.70858 0.79711 0.0
N1708 N 0.88979 0.7542 0.80447 0.0
C1709 C 0.88023 0.72751 0.8172 0.0
C1710 C 0.8951 0.70184 0.81307 0.0
C1711 C 0.87703 0.6672 0.11976 0.0
C1712 C 0.85308 0.65447 0.09185 0.0
C1713 C 0.89988 0.65327 0.12328 0.0
C1714 C 0.90018 0.62607 0.09888 0.0
H1715 H 0.87825 0.68825 0.1393 0.0
H1716 H 0.91765 0.66424 0.1452 0.0
S1717 S 0.8429 0.58298 0.02107 0.0
N1718 N 0.83128 0.61269 0.03938 0.0
N1719 N 0.87407 0.58654 0.04594 0.0
C1720 C 0.87644 0.61302 0.07082 0.0
C1721 C 0.85298 0.62709 0.06738 0.0
C1722 C 0.24762 0.19266 0.89056 0.0
C1723 C 0.22095 0.18868 0.86891 0.0
C1724 C 0.27158 0.21456 0.88648 0.0
C1725 C 0.2699 0.233 0.86034 0.0
H1726 H 0.25013 0.17843 0.91047 0.0
H1727 H 0.29161 0.21682 0.90375 0.0
S1728 S 0.20548 0.23082 0.79586 0.0
N1729 N 0.19459 0.20577 0.82058 0.0
N1730 N 0.23965 0.24432 0.81131 0.0
C1731 C 0.24352 0.22891 0.83832 0.0
C1732 C 0.21908 0.20748 0.84304 0.0
C1733 C 0.37516 0.96495 0.34878 0.0
C1734 C 0.38623 0.96892 0.31914 0.0
C1735 C 0.3604 0.93375 0.35309 0.0
C1736 C 0.35547 0.9045 0.32793 0.0
H1737 H 0.37878 0.98592 0.36953 0.0
H1738 H 0.35307 0.93259 0.37677 0.0
S1739 S 0.37854 0.90108 0.24462 0.0
N1740 N 0.38984 0.93997 0.26361 0.0
N1741 N 0.36265 0.88291 0.27155 0.0
C1742 C 0.36582 0.90845 0.29792 0.0
C1743 C 0.38093 0.93995 0.29366 0.0
C1744 C 0.55199 0.40731 0.61565 0.0
C1745 C 0.57575 0.40536 0.63999 0.0
C1746 C 0.5499 0.43639 0.60424 0.0
C1747 C 0.57144 0.46563 0.61636 0.0
H1748 H 0.53442 0.38607 0.60535 0.0
H1749 H 0.53088 0.43587 0.58592 0.0
S1750 S 0.63752 0.47524 0.68207 0.0
N1751 N 0.62106 0.43645 0.67661 0.0
N1752 N 0.61715 0.49068 0.65559 0.0
C1753 C 0.59535 0.46417 0.64073 0.0
C1754 C 0.5975 0.43438 0.65235 0.0
C1755 C 0.42788 0.77237 0.40411 0.0
C1756 C 0.43815 0.79288 0.43753 0.0
C1757 C 0.4017 0.77145 0.38249 0.0
C1758 C 0.38459 0.79139 0.3928 0.0
H1759 H 0.43999 0.75661 0.39462 0.0
H1760 H 0.39489 0.75499 0.35724 0.0
S1761 S 0.40126 0.84965 0.47727 0.0
N1762 N 0.42829 0.83379 0.47948 0.0
N1763 N 0.38012 0.83226 0.43869 0.0
C1764 C 0.39473 0.81227 0.42573 0.0
C1765 C 0.42109 0.81293 0.448 0.0
C1766 C 0.10653 0.71707 0.11508 0.0
C1767 C 0.09426 0.73257 0.13957 0.0
C1768 C 0.10137 0.68288 0.10657 0.0
C1769 C 0.08356 0.66253 0.122 0.0
H1770 H 0.12045 0.73148 0.10242 0.0
H1771 H 0.11123 0.67233 0.08748 0.0
S1772 S 0.0481 0.69033 0.19006 0.0
N1773 N 0.06458 0.72428 0.18059 0.0
N1774 N 0.055 0.66059 0.16468 0.0
C1775 C 0.07143 0.67763 0.14685 0.0
C1776 C 0.07669 0.71239 0.15555 0.0
C1777 C 0.10467 0.31641 0.92933 0.0
C1778 C 0.10696 0.30496 0.96068 0.0
C1779 C 0.1273 0.32177 0.91294 0.0
C1780 C 0.15293 0.31524 0.92677 0.0
H1781 H 0.08544 0.32178 0.91766 0.0
H1782 H 0.12454 0.33065 0.8889 0.0
S1783 S 0.16899 0.28267 1.00687 0.0
N1784 N 0.13673 0.28613 1.00408 0.0
N1785 N 0.17873 0.29566 0.9732 0.0
C1786 C 0.15525 0.30326 0.95774 0.0
C1787 C 0.13246 0.29832 0.97467 0.0
C1788 C 0.53352 0.74617 0.95385 0.0
C1789 C 0.52348 0.7715 0.96901 0.0
C1790 C 0.53338 0.71891 0.96844 0.0
C1791 C 0.5232 0.71635 0.99846 0.0
H1792 H 0.54283 0.74807 0.93168 0.0
H1793 H 0.54309 0.70085 0.95775 0.0
S1794 S 0.49174 0.77402 0.04577 0.0
N1795 N 0.50042 0.79067 0.01358 0.0
N1796 N 0.50081 0.73945 0.04133 0.0
C1797 C 0.51113 0.74015 0.01227 0.0
C1798 C 0.51121 0.76789 0.99749 0.0
C1799 C 0.18151 0.73492 0.79048 0.0
C1800 C 0.1666 0.75588 0.80378 0.0
C1801 C 0.21043 0.74532 0.79477 0.0
C1802 C 0.22541 0.77714 0.81223 0.0
H1803 H 0.17074 0.71056 0.77579 0.0
H1804 H 0.221 0.72829 0.78398 0.0
S1805 S 0.19645 0.84087 0.85454 0.0
N1806 N 0.16925 0.80923 0.83761 0.0
N1807 N 0.22339 0.82915 0.84451 0.0
C1808 C 0.21086 0.79815 0.82651 0.0
C1809 C 0.18151 0.78738 0.82267 0.0
C1810 C 0.07237 0.44553 0.51268 0.0
C1811 C 0.04828 0.41976 0.50571 0.0
C1812 C 0.07901 0.46974 0.54282 0.0
C1813 C 0.06194 0.46863 0.56698 0.0
H1814 H 0.08516 0.44806 0.49382 0.0
H1815 H 0.09672 0.49049 0.54623 0.0
S1816 S 0.99956 0.40314 0.56368 0.0
N1817 N 1.00949 0.39194 0.52755 0.0
N1818 N 0.02211 0.43812 0.5842 0.0
C1819 C 0.03921 0.4417 0.5618 0.0
C1820 C 0.0323 0.41703 0.53102 0.0
C1821 C 0.53008 0.30767 0.33679 0.0
C1822 C 0.52414 0.27418 0.32257 0.0
C1823 C 0.50963 0.32114 0.34815 0.0
C1824 C 0.48285 0.30145 0.34609 0.0
H1825 H 0.55006 0.32384 0.3373 0.0
H1826 H 0.51442 0.34721 0.35738 0.0
S1827 S 0.45765 0.21237 0.31335 0.0
N1828 N 0.49019 0.22162 0.30886 0.0
N1829 N 0.45186 0.24696 0.33044 0.0
C1830 C 0.4771 0.26789 0.33338 0.0
C1831 C 0.49776 0.25423 0.32158 0.0
C1832 C 0.60488 0.55372 0.45663 0.0
C1833 C 0.6195 0.58687 0.46296 0.0
C1834 C 0.59074 0.541 0.48091 0.0
C1835 C 0.59084 0.56086 0.51257 0.0
H1836 H 0.60388 0.53762 0.43245 0.0
H1837 H 0.57943 0.51554 0.47465 0.0
S1838 S 0.62625 0.6494 0.54139 0.0
N1839 N 0.63387 0.63885 0.50359 0.0
N1840 N 0.60625 0.61599 0.54769 0.0
C1841 C 0.60533 0.59409 0.51883 0.0
C1842 C 0.61991 0.60678 0.49448 0.0
C1843 C 0.28949 0.8056 0.09039 0.0
C1844 C 0.27901 0.83297 0.09587 0.0
C1845 C 0.31576 0.80597 0.10983 0.0
C1846 C 0.33087 0.83314 0.13639 0.0
H1847 H 0.27596 0.78269 0.07474 0.0
H1848 H 0.32099 0.78288 0.10922 0.0
S1849 S 0.31776 0.91435 0.14939 0.0
N1850 N 0.28933 0.89055 0.12137 0.0
N1851 N 0.3395 0.89128 0.15635 0.0
C1852 C 0.32419 0.8628 0.13457 0.0
C1853 C 0.29719 0.86243 0.11559 0.0
C1854 C 0.98509 0.57722 0.96764 0.0
C1855 C 0.98917 0.56807 0.93349 0.0
C1856 C 1.00411 0.57561 0.99879 0.0
C1857 C 0.02822 0.56409 0.99782 0.0
H1858 H 0.96659 0.58522 0.97036 0.0
H1859 H 0.99994 0.58363 0.02383 0.0
S1860 S 0.04737 0.53334 0.91556 0.0
N1861 N 1.01872 0.54466 0.90163 0.0
N1862 N 0.05372 0.54162 0.95859 0.0
C1863 C 0.03217 0.55439 0.96381 0.0
C1864 C 1.01297 0.55617 0.93235 0.0
C1865 C 0.27353 0.24817 0.67921 0.0
C1866 C 0.29548 0.26082 0.66371 0.0
C1867 C 0.27398 0.26059 0.7142 0.0
C1868 C 0.29659 0.28582 0.73502 0.0
H1869 H 0.25619 0.22791 0.66452 0.0
H1870 H 0.25738 0.24919 0.7255 0.0
S1871 S 0.35802 0.32934 0.70708 0.0
N1872 N 0.33949 0.30177 0.67203 0.0
N1873 N 0.34027 0.32458 0.73742 0.0
C1874 C 0.31789 0.29963 0.71955 0.0
C1875 C 0.31737 0.2873 0.68402 0.0
C1876 C 0.60414 0.61481 0.26056 0.0
C1877 C 0.61262 0.59234 0.27929 0.0
C1878 C 0.59453 0.60674 0.22421 0.0
C1879 C 0.59278 0.57571 0.20484 0.0
H1880 H 0.6055 0.63918 0.27392 0.0
H1881 H 0.5886 0.6253 0.2113 0.0
S1882 S 0.61133 0.50739 0.24159 0.0
N1883 N 0.61787 0.53721 0.27588 0.0
N1884 N 0.59972 0.52209 0.20756 0.0
C1885 C 0.60072 0.55276 0.22331 0.0
C1886 C 0.61063 0.56103 0.26045 0.0
C1887 C 0.25246 0.82765 0.93721 0.0
C1888 C 0.25112 0.8111 0.9647 0.0
C1889 C 0.27082 0.82377 0.91617 0.0
C1890 C 0.28822 0.80319 0.92179 0.0
H1891 H 0.23948 0.84413 0.93226 0.0
H1892 H 0.27004 0.8356 0.8944 0.0
S1893 S 0.29333 0.75469 0.99023 0.0
N1894 N 0.26932 0.77385 0.99705 0.0
N1895 N 0.30354 0.76598 0.95604 0.0
C1896 C 0.28732 0.78655 0.94907 0.0
C1897 C 0.26866 0.79048 0.97078 0.0
C1898 C 1.01821 0.56339 0.74649 0.0
C1899 C 0.98919 0.56207 0.74246 0.0
C1900 C 0.03164 0.55949 0.71807 0.0
C1901 C 1.01742 0.55346 0.68242 0.0
H1902 H 0.03127 0.56765 0.77253 0.0
H1903 H 0.05386 0.56134 0.7245 0.0
S1904 S 0.94094 0.54671 0.65472 0.0
N1905 N 0.94664 0.55373 0.69778 0.0
N1906 N 0.97137 0.54625 0.64518 0.0
C1907 C 0.98826 0.55189 0.67752 0.0
C1908 C 0.97448 0.5562 0.70686 0.0
C1909 C 0.31062 0.27538 0.49669 0.0
C1910 C 0.29042 0.24512 0.4871 0.0
C1911 C 0.31961 0.2922 0.47141 0.0
C1912 C 0.30923 0.27934 0.43524 0.0
H1913 H 0.31894 0.28667 0.52405 0.0
H1914 H 0.33463 0.31576 0.4804 0.0
S1915 S 0.25792 0.19907 0.39653 0.0
N1916 N 0.26077 0.2026 0.43895 0.0
N1917 N 0.27999 0.23184 0.39188 0.0
C1918 C 0.29048 0.2479 0.42553 0.0
C1919 C 0.28044 0.23148 0.45126 0.0
C1920 C 0.406 0.65467 0.61512 0.0
C1921 C 0.41969 0.68753 0.61809 0.0
C1922 C 0.41409 0.63004 0.59615 0.0
C1923 C 0.4362 0.63752 0.5798 0.0
H1924 H 0.38925 0.64779 0.62814 0.0
H1925 H 0.40406 0.60496 0.5959 0.0
S1926 S 0.47841 0.71933 0.57873 0.0
N1927 N 0.4557 0.7263 0.60192 0.0
N1928 N 0.47156 0.67936 0.56692 0.0
C1929 C 0.44969 0.67011 0.58167 0.0
C1930 C 0.44118 0.69535 0.60062 0.0
C1931 C 0.93955 1.0069 0.625 0.0
C1932 C 0.93614 0.97317 0.62126 0.0
C1933 C 0.96373 0.02753 0.61945 0.0
C1934 C 0.98571 1.01566 0.60926 0.0
H1935 H 0.92368 0.01764 0.63297 0.0
H1936 H 0.96517 0.05333 0.62342 0.0
S1937 S 0.98467 0.92839 0.58993 0.0
N1938 N 0.95579 0.92845 0.60357 0.0
N1939 N 0.99975 0.96685 0.59135 0.0
C1940 C 0.98171 0.9818 0.6037 0.0
C1941 C 0.95741 0.96078 0.6101 0.0
C1942 C 0.94761 0.12827 0.36425 0.0
C1943 C 0.93616 0.0986 0.33973 0.0
C1944 C 0.9316 0.15039 0.36989 0.0
C1945 C 0.90368 0.14334 0.35136 0.0
H1946 H 0.96896 0.13432 0.37956 0.0
H1947 H 0.94083 0.17269 0.38937 0.0
S1948 S 0.86384 0.07026 0.28365 0.0
N1949 N 0.89508 0.06418 0.29614 0.0
N1950 N 0.86527 0.10592 0.30708 0.0
C1951 C 0.89207 0.11429 0.32647 0.0
C1952 C 0.90825 0.09183 0.32057 0.0
C1953 C 0.79542 0.16161 0.16651 0.0
C1954 C 0.79773 0.19447 0.18033 0.0
C1955 C 0.76966 0.13827 0.15844 0.0
C1956 C 0.74552 0.14722 0.16381 0.0
H1957 H 0.81355 0.15391 0.16139 0.0
H1958 H 0.76855 0.11318 0.14786 0.0
S1959 S 0.74047 0.22924 0.20137 0.0
N1960 N 0.77373 0.23432 0.2003 0.0
N1961 N 0.72528 0.19028 0.18506 0.0
C1962 C 0.74748 0.17978 0.17786 0.0
C1963 C 0.77363 0.2035 0.18614 0.0
C1964 C 0.22962 0.4088 0.34173 0.0
C1965 C 0.23972 0.44226 0.35935 0.0
C1966 C 0.24594 0.38531 0.34212 0.0
C1967 C 0.2745 0.39229 0.36022 0.0
H1968 H 0.20808 0.40002 0.32696 0.0
H1969 H 0.23555 0.3608 0.32763 0.0
S1970 S 0.31335 0.47545 0.41242 0.0
N1971 N 0.28203 0.48028 0.39674 0.0
N1972 N 0.31218 0.43709 0.39731 0.0
C1973 C 0.28543 0.42573 0.37809 0.0
C1974 C 0.26852 0.45003 0.37771 0.0
C1975 C 0.2498 0.44964 0.06908 0.0
C1976 C 0.2721 0.45792 0.09902 0.0
C1977 C 0.22751 0.46442 0.06704 0.0
C1978 C 0.2262 0.48793 0.095 0.0
H1979 H 0.24954 0.43162 0.04676 0.0
H1980 H 0.21102 0.45715 0.04335 0.0
S1981 S 0.27894 0.51835 0.17944 0.0
N1982 N 0.29121 0.49131 0.1574 0.0
N1983 N 0.2494 0.519 0.15356 0.0
C1984 C 0.24822 0.49635 0.12517 0.0
C1985 C 0.27113 0.48149 0.12714 0.0
C1986 C 0.89703 0.92177 0.33624 0.0
C1987 C 0.89859 0.92041 0.30111 0.0
C1988 C 0.8749 0.90095 0.34524 0.0
C1989 C 0.85304 0.8789 0.31937 0.0
H1990 H 0.91305 0.93906 0.35695 0.0
H1991 H 0.87438 0.90292 0.3725 0.0
S1992 S 0.84734 0.86491 0.22402 0.0
N1993 N 0.87669 0.89387 0.24065 0.0
N1994 N 0.83462 0.85618 0.25757 0.0
C1995 C 0.85443 0.8771 0.28438 0.0
C1996 C 0.87733 0.89747 0.27524 0.0
C1997 C 0.73657 0.15681 0.82899 0.0
C1998 C 0.74004 0.1431 0.85913 0.0
C1999 C 0.75154 0.18863 0.82819 0.0
C2000 C 0.77071 0.20979 0.85774 0.0
H2001 H 0.72182 0.14268 0.80519 0.0
H2002 H 0.74756 0.19696 0.80393 0.0
S2003 S 0.78989 0.18689 0.94346 0.0
N2004 N 0.76614 0.15396 0.91952 0.0
N2005 N 0.79352 0.21375 0.91818 0.0
C2006 C 0.77496 0.19664 0.88817 0.0
C2007 C 0.76 0.16357 0.88882 0.0
loop_
_geom_bond_atom_site_label_1
_geom_bond_atom_site_label_2
_geom_bond_distance
_geom_bond_site_symmetry_2
_ccdc_geom_bond_type
C0 O1 1.160 . S
C0 O7 1.185 . S
O1 C0 1.160 . S
O2 Zn3 1.899 . S
O2 C10 1.284 . S
Zn3 O2 1.899 . S
Zn3 O4 2.032 . S
Zn3 O7 2.086 . S
Zn3 O12 1.977 1_455 S
O4 Zn3 2.032 . S
O4 C8 1.278 . S
C5 O6 1.203 . S
C5 O12 1.267 . S
O6 C5 1.203 . S
O7 C0 1.185 . S
O7 Zn3 2.086 . S
C8 O4 1.278 . S
C8 O9 1.211 1_455 S
O9 C8 1.211 1_655 S
C10 O2 1.284 . S
C10 O11 1.275 . S
O11 C10 1.275 . S
O12 Zn3 1.977 1_655 S
O12 C5 1.267 . S
C13 O14 1.160 . S
C13 O20 1.185 . S
O14 C13 1.160 . S
O15 Zn16 1.899 . S
O15 C23 1.284 . S
Zn16 O15 1.899 . S
Zn16 O17 2.032 . S
Zn16 O20 2.086 . S
Zn16 O25 1.977 . S
O17 Zn16 2.032 . S
O17 C21 1.278 . S
C18 O19 1.203 . S
C18 O25 1.267 . S
O19 C18 1.203 . S
O20 C13 1.185 . S
O20 Zn16 2.086 . S
C21 O17 1.278 . S
C21 O22 1.211 . S
O22 C21 1.211 . S
C23 O15 1.284 . S
C23 O24 1.273 . S
O24 C23 1.273 . S
O25 Zn16 1.977 . S
O25 C18 1.267 . S
C26 O27 1.160 . S
C26 O33 1.185 . S
O27 C26 1.160 . S
O28 Zn29 1.899 . S
O28 C36 1.284 . S
Zn29 O28 1.899 . S
Zn29 O30 2.032 . S
Zn29 O33 2.086 . S
Zn29 O38 1.977 . S
O30 Zn29 2.032 . S
O30 C34 1.278 . S
C31 O32 1.203 . S
C31 O38 1.267 . S
O32 C31 1.203 . S
O33 C26 1.185 . S
O33 Zn29 2.086 . S
C34 O30 1.278 . S
C34 O35 1.211 . S
O35 C34 1.211 . S
C36 O28 1.284 . S
C36 O37 1.273 . S
O37 C36 1.273 . S
O38 Zn29 1.977 . S
O38 C31 1.267 . S
C39 O40 1.160 . S
C39 O46 1.185 . S
O40 C39 1.160 . S
O41 Zn42 1.899 . S
O41 C49 1.284 . S
Zn42 O41 1.899 . S
Zn42 O43 2.032 . S
Zn42 O46 2.086 . S
Zn42 O51 1.977 . S
O43 Zn42 2.032 . S
O43 C47 1.278 . S
C44 O45 1.203 . S
C44 O51 1.267 . S
O45 C44 1.203 . S
O46 C39 1.185 . S
O46 Zn42 2.086 . S
C47 O43 1.278 . S
C47 O48 1.211 . S
O48 C47 1.211 . S
C49 O41 1.284 . S
C49 O50 1.273 . S
O50 C49 1.273 . S
O51 Zn42 1.977 . S
O51 C44 1.267 . S
C52 O53 1.160 . S
C52 O59 1.185 . S
O53 C52 1.160 . S
O54 Zn55 1.899 . S
O54 C62 1.284 . S
Zn55 O54 1.899 . S
Zn55 O56 2.032 . S
Zn55 O59 2.086 . S
Zn55 O64 1.977 . S
O56 Zn55 2.032 . S
O56 C60 1.278 . S
C57 O58 1.203 . S
C57 O64 1.267 . S
O58 C57 1.203 . S
O59 C52 1.185 . S
O59 Zn55 2.086 . S
C60 O56 1.278 . S
C60 O61 1.211 . S
O61 C60 1.211 . S
C62 O54 1.284 . S
C62 O63 1.273 . S
O63 C62 1.273 . S
O64 Zn55 1.977 . S
O64 C57 1.267 . S
C65 O66 1.160 . S
C65 O72 1.185 . S
O66 C65 1.160 . S
O67 Zn68 1.899 . S
O67 C75 1.284 . S
Zn68 O67 1.899 . S
Zn68 O69 2.032 . S
Zn68 O72 2.086 . S
Zn68 O77 1.977 . S
O69 Zn68 2.032 . S
O69 C73 1.278 . S
C70 O71 1.203 . S
C70 O77 1.267 . S
O71 C70 1.203 . S
O72 C65 1.185 . S
O72 Zn68 2.086 . S
C73 O69 1.278 . S
C73 O74 1.211 . S
O74 C73 1.211 . S
C75 O67 1.284 . S
C75 O76 1.273 . S
O76 C75 1.273 . S
O77 Zn68 1.977 . S
O77 C70 1.267 . S
C78 O79 1.160 . S
C78 O85 1.185 . S
O79 C78 1.160 . S
O80 Zn81 1.899 . S
O80 C88 1.284 . S
Zn81 O80 1.899 . S
Zn81 O82 2.032 . S
Zn81 O85 2.086 . S
Zn81 O90 1.977 . S
O82 Zn81 2.032 . S
O82 C86 1.278 . S
C83 O84 1.203 . S
C83 O90 1.267 . S
O84 C83 1.203 . S
O85 C78 1.185 . S
O85 Zn81 2.086 . S
C86 O82 1.278 . S
C86 O87 1.211 . S
O87 C86 1.211 . S
C88 O80 1.284 . S
C88 O89 1.273 . S
O89 C88 1.273 . S
O90 Zn81 1.977 . S
O90 C83 1.267 . S
C91 O92 1.160 . S
C91 O98 1.185 . S
O92 C91 1.160 . S
O93 Zn94 1.899 . S
O93 C101 1.284 1_556 S
Zn94 O93 1.899 . S
Zn94 O95 2.032 1_556 S
Zn94 O98 2.086 . S
Zn94 O103 1.977 1_455 S
O95 Zn94 2.032 1_554 S
O95 C99 1.278 . S
C96 O97 1.203 . S
C96 O103 1.267 . S
O97 C96 1.203 . S
O98 C91 1.185 . S
O98 Zn94 2.086 . S
C99 O95 1.278 . S
C99 O100 1.211 1_455 S
O100 C99 1.211 1_655 S
C101 O93 1.284 1_554 S
C101 O102 1.273 . S
O102 C101 1.273 . S
O103 Zn94 1.977 1_655 S
O103 C96 1.267 . S
C104 O105 1.160 . S
C104 O111 1.185 . S
O105 C104 1.160 . S
O106 Zn107 1.899 . S
O106 C114 1.284 . S
Zn107 O106 1.899 . S
Zn107 O108 2.032 . S
Zn107 O111 2.086 . S
Zn107 O116 1.977 . S
O108 Zn107 2.032 . S
O108 C112 1.278 . S
C109 O110 1.203 . S
C109 O116 1.267 1_565 S
O110 C109 1.203 . S
O111 C104 1.185 . S
O111 Zn107 2.086 . S
C112 O108 1.278 . S
C112 O113 1.211 . S
O113 C112 1.211 . S
C114 O106 1.284 . S
C114 O115 1.273 . S
O115 C114 1.273 . S
O116 Zn107 1.977 . S
O116 C109 1.267 1_545 S
C117 O118 1.160 . S
C117 O124 1.185 . S
O118 C117 1.160 . S
O119 Zn120 1.899 . S
O119 C127 1.284 . S
Zn120 O119 1.899 . S
Zn120 O121 2.032 . S
Zn120 O124 2.086 . S
Zn120 O129 1.977 . S
O121 Zn120 2.032 . S
O121 C125 1.278 . S
C122 O123 1.203 . S
C122 O129 1.267 . S
O123 C122 1.203 . S
O124 C117 1.185 . S
O124 Zn120 2.086 . S
C125 O121 1.278 . S
C125 O126 1.211 . S
O126 C125 1.211 . S
C127 O119 1.284 . S
C127 O128 1.273 . S
O128 C127 1.273 . S
O129 Zn120 1.977 . S
O129 C122 1.267 . S
C130 O131 1.160 . S
C130 O137 1.185 . S
O131 C130 1.160 . S
O132 Zn133 1.899 . S
O132 C140 1.284 . S
Zn133 O132 1.899 . S
Zn133 O134 2.032 . S
Zn133 O137 2.086 . S
Zn133 O142 1.977 . S
O134 Zn133 2.032 . S
O134 C138 1.278 . S
C135 O136 1.203 . S
C135 O142 1.267 . S
O136 C135 1.203 . S
O137 C130 1.185 . S
O137 Zn133 2.086 . S
C138 O134 1.278 . S
C138 O139 1.211 . S
O139 C138 1.211 . S
C140 O132 1.284 . S
C140 O141 1.273 . S
O141 C140 1.273 . S
O142 Zn133 1.977 . S
O142 C135 1.267 . S
C143 O144 1.160 . S
C143 O150 1.185 1_554 S
O144 C143 1.160 . S
O145 Zn146 1.899 . S
O145 C153 1.284 . S
Zn146 O145 1.899 . S
Zn146 O147 2.032 1_554 S
Zn146 O150 2.086 1_554 S
Zn146 O155 1.977 . S
O147 Zn146 2.032 1_556 S
O147 C151 1.278 . S
C148 O149 1.203 . S
C148 O155 1.267 . S
O149 C148 1.203 . S
O150 C143 1.185 1_556 S
O150 Zn146 2.086 1_556 S
C151 O147 1.278 . S
C151 O152 1.211 . S
O152 C151 1.211 . S
C153 O145 1.284 . S
C153 O154 1.273 . S
O154 C153 1.273 . S
O155 Zn146 1.977 . S
O155 C148 1.267 . S
C156 O157 1.160 . S
C156 O163 1.185 . S
O157 C156 1.160 . S
O158 Zn159 1.899 . S
O158 C166 1.284 . S
Zn159 O158 1.899 . S
Zn159 O160 2.032 . S
Zn159 O163 2.086 . S
Zn159 O168 1.977 . S
O160 Zn159 2.032 . S
O160 C164 1.278 . S
C161 O162 1.203 . S
C161 O168 1.267 . S
O162 C161 1.203 . S
O163 C156 1.185 . S
O163 Zn159 2.086 . S
C164 O160 1.278 . S
C164 O165 1.211 . S
O165 C164 1.211 . S
C166 O158 1.284 . S
C166 O167 1.273 . S
O167 C166 1.273 . S
O168 Zn159 1.977 . S
O168 C161 1.267 . S
C169 O170 1.160 . S
C169 O176 1.185 . S
O170 C169 1.160 . S
O171 Zn172 1.899 . S
O171 C179 1.284 . S
Zn172 O171 1.899 . S
Zn172 O173 2.032 . S
Zn172 O176 2.086 . S
Zn172 O181 1.977 . S
O173 Zn172 2.032 . S
O173 C177 1.278 . S
C174 O175 1.203 . S
C174 O181 1.267 . S
O175 C174 1.203 . S
O176 C169 1.185 . S
O176 Zn172 2.086 . S
C177 O173 1.278 . S
C177 O178 1.211 . S
O178 C177 1.211 . S
C179 O171 1.284 . S
C179 O180 1.273 . S
O180 C179 1.273 . S
O181 Zn172 1.977 . S
O181 C174 1.267 . S
C182 O183 1.160 . S
C182 O189 1.185 . S
O183 C182 1.160 . S
O184 Zn185 1.899 . S
O184 C192 1.284 . S
Zn185 O184 1.899 . S
Zn185 O186 2.032 . S
Zn185 O189 2.086 . S
Zn185 O194 1.977 . S
O186 Zn185 2.032 . S
O186 C190 1.278 . S
C187 O188 1.203 . S
C187 O194 1.267 . S
O188 C187 1.203 . S
O189 C182 1.185 . S
O189 Zn185 2.086 . S
C190 O186 1.278 . S
C190 O191 1.211 . S
O191 C190 1.211 . S
C192 O184 1.284 . S
C192 O193 1.273 . S
O193 C192 1.273 . S
O194 Zn185 1.977 . S
O194 C187 1.267 . S
C195 O196 1.160 . S
C195 O202 1.185 . S
O196 C195 1.160 . S
O197 Zn198 1.899 . S
O197 C205 1.284 . S
Zn198 O197 1.899 . S
Zn198 O199 2.032 . S
Zn198 O202 2.086 . S
Zn198 O207 1.977 . S
O199 Zn198 2.032 . S
O199 C203 1.278 . S
C200 O201 1.203 . S
C200 O207 1.267 . S
O201 C200 1.203 . S
O202 C195 1.185 . S
O202 Zn198 2.086 . S
C203 O199 1.278 . S
C203 O204 1.211 . S
O204 C203 1.211 . S
C205 O197 1.284 . S
C205 O206 1.273 . S
O206 C205 1.273 . S
O207 Zn198 1.977 . S
O207 C200 1.267 . S
C208 O209 1.160 . S
C208 O215 1.185 . S
O209 C208 1.160 . S
O210 Zn211 1.899 . S
O210 C218 1.284 1_545 S
Zn211 O210 1.899 . S
Zn211 O212 2.032 . S
Zn211 O215 2.086 . S
Zn211 O220 1.977 1_545 S
O212 Zn211 2.032 . S
O212 C216 1.278 . S
C213 O214 1.203 . S
C213 O220 1.267 . S
O214 C213 1.203 . S
O215 C208 1.185 . S
O215 Zn211 2.086 . S
C216 O212 1.278 . S
C216 O217 1.211 1_545 S
O217 C216 1.211 1_565 S
C218 O210 1.284 1_565 S
C218 O219 1.273 . S
O219 C218 1.273 . S
O220 Zn211 1.977 1_565 S
O220 C213 1.267 . S
C221 O222 1.160 . S
C221 O228 1.185 . S
O222 C221 1.160 . S
O223 Zn224 1.899 . S
O223 C231 1.284 . S
Zn224 O223 1.899 . S
Zn224 O225 2.032 . S
Zn224 O228 2.086 . S
Zn224 O233 1.977 . S
O225 Zn224 2.032 . S
O225 C229 1.278 . S
C226 O227 1.203 . S
C226 O233 1.267 . S
O227 C226 1.203 . S
O228 C221 1.185 . S
O228 Zn224 2.086 . S
C229 O225 1.278 . S
C229 O230 1.211 . S
O230 C229 1.211 . S
C231 O223 1.284 . S
C231 O232 1.273 . S
O232 C231 1.273 . S
O233 Zn224 1.977 . S
O233 C226 1.267 . S
C234 O235 1.160 . S
C234 O241 1.185 . S
O235 C234 1.160 . S
O236 Zn237 1.899 . S
O236 C244 1.284 . S
Zn237 O236 1.899 . S
Zn237 O238 2.032 . S
Zn237 O241 2.086 . S
Zn237 O246 1.977 . S
O238 Zn237 2.032 . S
O238 C242 1.278 . S
C239 O240 1.203 . S
C239 O246 1.267 . S
O240 C239 1.203 . S
O241 C234 1.185 . S
O241 Zn237 2.086 . S
C242 O238 1.278 . S
C242 O243 1.211 . S
O243 C242 1.211 . S
C244 O236 1.284 . S
C244 O245 1.273 . S
O245 C244 1.273 . S
O246 Zn237 1.977 . S
O246 C239 1.267 . S
C247 O248 1.160 . S
C247 O254 1.185 1_565 S
O248 C247 1.160 . S
O249 Zn250 1.899 . S
O249 C257 1.284 . S
Zn250 O249 1.899 . S
Zn250 O251 2.032 . S
Zn250 O254 2.086 . S
Zn250 O259 1.977 . S
O251 Zn250 2.032 . S
O251 C255 1.278 . S
C252 O253 1.203 . S
C252 O259 1.267 . S
O253 C252 1.203 . S
O254 C247 1.185 1_545 S
O254 Zn250 2.086 . S
C255 O251 1.278 . S
C255 O256 1.211 . S
O256 C255 1.211 . S
C257 O249 1.284 . S
C257 O258 1.273 . S
O258 C257 1.273 . S
O259 Zn250 1.977 . S
O259 C252 1.267 . S
C260 O261 1.160 . S
C260 O267 1.185 . S
O261 C260 1.160 . S
O262 Zn263 1.899 . S
O262 C270 1.284 . S
Zn263 O262 1.899 . S
Zn263 O264 2.032 . S
Zn263 O267 2.086 . S
Zn263 O272 1.977 . S
O264 Zn263 2.032 . S
O264 C268 1.278 . S
C265 O266 1.203 . S
C265 O272 1.267 . S
O266 C265 1.203 . S
O267 C260 1.185 . S
O267 Zn263 2.086 . S
C268 O264 1.278 . S
C268 O269 1.211 . S
O269 C268 1.211 . S
C270 O262 1.284 . S
C270 O271 1.273 . S
O271 C270 1.273 . S
O272 Zn263 1.977 . S
O272 C265 1.267 . S
C273 O274 1.160 . S
C273 O280 1.185 . S
O274 C273 1.160 . S
O275 Zn276 1.899 . S
O275 C283 1.284 . S
Zn276 O275 1.899 . S
Zn276 O277 2.032 . S
Zn276 O280 2.086 . S
Zn276 O285 1.977 . S
O277 Zn276 2.032 . S
O277 C281 1.278 . S
C278 O279 1.203 . S
C278 O285 1.267 . S
O279 C278 1.203 . S
O280 C273 1.185 . S
O280 Zn276 2.086 . S
C281 O277 1.278 . S
C281 O282 1.211 . S
O282 C281 1.211 . S
C283 O275 1.284 . S
C283 O284 1.273 . S
O284 C283 1.273 . S
O285 Zn276 1.977 . S
O285 C278 1.267 . S
C286 O287 1.160 . S
C286 O293 1.185 . S
O287 C286 1.160 . S
O288 Zn289 1.899 . S
O288 C296 1.284 . S
Zn289 O288 1.899 . S
Zn289 O290 2.032 . S
Zn289 O293 2.086 . S
Zn289 O298 1.977 . S
O290 Zn289 2.032 . S
O290 C294 1.278 . S
C291 O292 1.203 . S
C291 O298 1.267 . S
O292 C291 1.203 . S
O293 C286 1.185 . S
O293 Zn289 2.086 . S
C294 O290 1.278 . S
C294 O295 1.211 . S
O295 C294 1.211 . S
C296 O288 1.284 . S
C296 O297 1.273 . S
O297 C296 1.273 . S
O298 Zn289 1.977 . S
O298 C291 1.267 . S
C299 O300 1.160 . S
C299 O306 1.185 . S
O300 C299 1.160 . S
O301 Zn302 1.899 . S
O301 C309 1.284 . S
Zn302 O301 1.899 . S
Zn302 O303 2.032 . S
Zn302 O306 2.086 . S
Zn302 O311 1.977 . S
O303 Zn302 2.032 . S
O303 C307 1.278 . S
C304 O305 1.203 . S
C304 O311 1.267 . S
O305 C304 1.203 . S
O306 C299 1.185 . S
O306 Zn302 2.086 . S
C307 O303 1.278 . S
C307 O308 1.211 . S
O308 C307 1.211 . S
C309 O301 1.284 . S
C309 O310 1.273 . S
O310 C309 1.273 . S
O311 Zn302 1.977 . S
O311 C304 1.267 . S
Tb312 C314 2.809 . S
Tb312 O332 2.484 . S
Tb312 O333 2.440 . S
Tb312 O334 2.658 1_655 S
Tb312 O335 2.409 1_655 S
Tb312 O336 2.378 1_655 S
Tb312 O340 2.325 1_655 S
Tb312 O343 2.341 1_645 S
Tb313 C323 2.809 . S
Tb313 O334 2.325 . S
Tb313 O337 2.341 . S
Tb313 O338 2.484 . S
Tb313 O339 2.440 . S
Tb313 O340 2.658 . S
Tb313 O341 2.409 . S
Tb313 O342 2.378 1_545 S
C314 Tb312 2.809 . S
C314 C315 1.514 . S
C314 O332 1.248 . S
C314 O333 1.266 . S
C315 C314 1.514 . S
C315 C316 1.359 . S
C315 C320 1.348 . S
C316 C315 1.359 . S
C316 C317 1.380 . S
C316 H344 0.929 . S
C317 C316 1.380 . S
C317 C318 1.347 . S
C317 H345 0.931 . S
C318 C317 1.347 . S
C318 C319 1.369 . S
C319 C318 1.369 . S
C319 C320 1.408 . S
C319 H346 0.930 1_554 S
C320 C315 1.348 . S
C320 C319 1.408 . S
C320 H347 0.930 1_554 S
C321 O334 1.281 . S
C321 O335 1.254 . S
C322 O336 1.236 . S
C322 O337 1.266 . S
C323 Tb313 2.809 . S
C323 C324 1.514 1_545 S
C323 O338 1.248 . S
C323 O339 1.266 . S
C324 C323 1.514 1_565 S
C324 C325 1.359 . S
C324 C329 1.348 . S
C325 C324 1.359 . S
C325 C326 1.380 . S
C325 H348 0.929 . S
C326 C325 1.380 . S
C326 C327 1.347 . S
C326 H349 0.931 . S
C327 C326 1.347 . S
C327 C328 1.369 . S
C328 C327 1.369 . S
C328 C329 1.408 . S
C328 H350 0.930 . S
C329 C324 1.348 . S
C329 C328 1.408 . S
C329 H351 0.924 1_565 S
C330 O340 1.281 . S
C330 O341 1.254 . S
C331 O342 1.236 . S
C331 O343 1.266 . S
O332 Tb312 2.484 . S
O332 C314 1.248 . S
O333 Tb312 2.440 . S
O333 C314 1.266 . S
O334 Tb312 2.658 1_455 S
O334 Tb313 2.325 . S
O334 C321 1.281 . S
O335 Tb312 2.409 1_455 S
O335 C321 1.254 . S
O336 Tb312 2.378 1_455 S
O336 C322 1.236 . S
O337 Tb313 2.341 . S
O337 C322 1.266 . S
O338 Tb313 2.484 . S
O338 C323 1.248 . S
O339 Tb313 2.440 . S
O339 C323 1.266 . S
O340 Tb312 2.325 1_455 S
O340 Tb313 2.658 . S
O340 C330 1.281 . S
O341 Tb313 2.409 . S
O341 C330 1.254 . S
O342 Tb313 2.378 1_565 S
O342 C331 1.236 . S
O343 Tb312 2.341 1_465 S
O343 C331 1.266 . S
H344 C316 0.929 . S
H345 C317 0.931 . S
H346 C319 0.930 1_556 S
H347 C320 0.930 1_556 S
H348 C325 0.929 . S
H349 C326 0.931 . S
H350 C328 0.930 . S
H351 C329 0.924 1_545 S
Tb352 C354 2.809 . S
Tb352 O372 2.484 . S
Tb352 O373 2.440 . S
Tb352 O374 2.658 . S
Tb352 O375 2.409 . S
Tb352 O376 2.378 . S
Tb352 O380 2.325 . S
Tb352 O383 2.341 . S
Tb353 C363 2.809 . S
Tb353 O374 2.325 . S
Tb353 O377 2.341 . S
Tb353 O378 2.484 . S
Tb353 O379 2.440 . S
Tb353 O380 2.658 . S
Tb353 O381 2.409 . S
Tb353 O382 2.378 . S
C354 Tb352 2.809 . S
C354 C355 1.514 . S
C354 O372 1.248 . S
C354 O373 1.266 . S
C355 C354 1.514 . S
C355 C356 1.359 . S
C355 C360 1.348 . S
C356 C355 1.359 . S
C356 C357 1.380 . S
C356 H384 0.929 . S
C357 C356 1.380 . S
C357 C358 1.347 . S
C357 H385 0.931 . S
C358 C357 1.347 . S
C358 C359 1.369 . S
C359 C358 1.369 . S
C359 C360 1.408 . S
C359 H386 0.930 . S
C360 C355 1.348 . S
C360 C359 1.408 . S
C360 H387 0.930 . S
C361 O374 1.281 . S
C361 O375 1.254 . S
C362 O376 1.236 . S
C362 O377 1.266 . S
C363 Tb353 2.809 . S
C363 C364 1.514 . S
C363 O378 1.248 . S
C363 O379 1.266 . S
C364 C363 1.514 . S
C364 C365 1.359 . S
C364 C369 1.348 . S
C365 C364 1.359 . S
C365 C366 1.380 . S
C365 H388 0.929 . S
C366 C365 1.380 . S
C366 C367 1.347 . S
C366 H389 0.931 . S
C367 C366 1.347 . S
C367 C368 1.369 . S
C368 C367 1.369 . S
C368 C369 1.408 . S
C368 H390 0.930 . S
C369 C364 1.348 . S
C369 C368 1.408 . S
C369 H391 0.930 . S
C370 O380 1.281 . S
C370 O381 1.254 . S
C371 O382 1.236 . S
C371 O383 1.266 . S
O372 Tb352 2.484 . S
O372 C354 1.248 . S
O373 Tb352 2.440 . S
O373 C354 1.266 . S
O374 Tb352 2.658 . S
O374 Tb353 2.325 . S
O374 C361 1.281 . S
O375 Tb352 2.409 . S
O375 C361 1.254 . S
O376 Tb352 2.378 . S
O376 C362 1.236 . S
O377 Tb353 2.341 . S
O377 C362 1.266 . S
O378 Tb353 2.484 . S
O378 C363 1.248 . S
O379 Tb353 2.440 . S
O379 C363 1.266 . S
O380 Tb352 2.325 . S
O380 Tb353 2.658 . S
O380 C370 1.281 . S
O381 Tb353 2.409 . S
O381 C370 1.254 . S
O382 Tb353 2.378 . S
O382 C371 1.236 . S
O383 Tb352 2.341 . S
O383 C371 1.266 . S
H384 C356 0.929 . S
H385 C357 0.931 . S
H386 C359 0.930 . S
H387 C360 0.930 . S
H388 C365 0.929 . S
H389 C366 0.931 . S
H390 C368 0.930 . S
H391 C369 0.930 . S
Tb392 C394 2.809 . S
Tb392 O412 2.484 . S
Tb392 O413 2.440 . S
Tb392 O414 2.658 . S
Tb392 O415 2.409 . S
Tb392 O416 2.378 1_545 S
Tb392 O420 2.325 . S
Tb392 O423 2.341 . S
Tb393 C403 2.809 . S
Tb393 O414 2.325 . S
Tb393 O417 2.341 1_545 S
Tb393 O418 2.484 . S
Tb393 O419 2.440 . S
Tb393 O420 2.658 . S
Tb393 O421 2.409 . S
Tb393 O422 2.378 . S
C394 Tb392 2.809 . S
C394 C395 1.514 1_545 S
C394 O412 1.248 . S
C394 O413 1.266 . S
C395 C394 1.514 1_565 S
C395 C396 1.359 . S
C395 C400 1.348 . S
C396 C395 1.359 . S
C396 C397 1.380 . S
C396 H424 0.929 . S
C397 C396 1.380 . S
C397 C398 1.347 . S
C397 H425 0.931 . S
C398 C397 1.347 . S
C398 C399 1.369 . S
C399 C398 1.369 . S
C399 C400 1.408 . S
C399 H426 0.930 . S
C400 C395 1.348 . S
C400 C399 1.408 . S
C400 H427 0.930 . S
C401 O414 1.281 . S
C401 O415 1.254 . S
C402 O416 1.236 . S
C402 O417 1.266 . S
C403 Tb393 2.809 . S
C403 C404 1.514 . S
C403 O418 1.248 . S
C403 O419 1.266 . S
C404 C403 1.514 . S
C404 C405 1.359 . S
C404 C409 1.348 . S
C405 C404 1.359 . S
C405 C406 1.380 . S
C405 H428 0.929 . S
C406 C405 1.380 . S
C406 C407 1.347 . S
C406 H429 0.931 . S
C407 C406 1.347 . S
C407 C408 1.369 . S
C408 C407 1.369 . S
C408 C409 1.408 . S
C408 H430 0.930 . S
C409 C404 1.348 . S
C409 C408 1.408 . S
C409 H431 0.930 . S
C410 O420 1.281 . S
C410 O421 1.254 . S
C411 O422 1.236 . S
C411 O423 1.266 . S
O412 Tb392 2.484 . S
O412 C394 1.248 . S
O413 Tb392 2.440 . S
O413 C394 1.266 . S
O414 Tb392 2.658 . S
O414 Tb393 2.325 . S
O414 C401 1.281 . S
O415 Tb392 2.409 . S
O415 C401 1.254 . S
O416 Tb392 2.378 1_565 S
O416 C402 1.236 . S
O417 Tb393 2.341 1_565 S
O417 C402 1.266 . S
O418 Tb393 2.484 . S
O418 C403 1.248 . S
O419 Tb393 2.440 . S
O419 C403 1.266 . S
O420 Tb392 2.325 . S
O420 Tb393 2.658 . S
O420 C410 1.281 . S
O421 Tb393 2.409 . S
O421 C410 1.254 . S
O422 Tb393 2.378 . S
O422 C411 1.236 . S
O423 Tb392 2.341 . S
O423 C411 1.266 . S
H424 C396 0.929 . S
H425 C397 0.931 . S
H426 C399 0.930 . S
H427 C400 0.930 . S
H428 C405 0.929 . S
H429 C406 0.931 . S
H430 C408 0.930 . S
H431 C409 0.930 . S
Tb432 C434 2.809 . S
Tb432 O452 2.484 . S
Tb432 O453 2.440 . S
Tb432 O454 2.658 . S
Tb432 O455 2.409 . S
Tb432 O456 2.378 . S
Tb432 O460 2.325 . S
Tb432 O463 2.341 . S
Tb433 C443 2.809 . S
Tb433 O454 2.325 . S
Tb433 O457 2.341 . S
Tb433 O458 2.484 . S
Tb433 O459 2.440 . S
Tb433 O460 2.658 . S
Tb433 O461 2.409 . S
Tb433 O462 2.378 . S
C434 Tb432 2.809 . S
C434 C435 1.514 . S
C434 O452 1.248 . S
C434 O453 1.266 . S
C435 C434 1.514 . S
C435 C436 1.359 . S
C435 C440 1.348 . S
C436 C435 1.359 . S
C436 C437 1.380 . S
C436 H464 0.929 . S
C437 C436 1.380 . S
C437 C438 1.347 . S
C437 H465 0.931 . S
C438 C437 1.347 . S
C438 C439 1.369 . S
C439 C438 1.369 . S
C439 C440 1.408 . S
C439 H466 0.930 . S
C440 C435 1.348 . S
C440 C439 1.408 . S
C440 H467 0.930 . S
C441 O454 1.281 . S
C441 O455 1.254 . S
C442 O456 1.236 . S
C442 O457 1.266 . S
C443 Tb433 2.809 . S
C443 C444 1.514 . S
C443 O458 1.248 . S
C443 O459 1.266 . S
C444 C443 1.514 . S
C444 C445 1.359 . S
C444 C449 1.348 . S
C445 C444 1.359 . S
C445 C446 1.380 . S
C445 H468 0.929 . S
C446 C445 1.380 . S
C446 C447 1.347 . S
C446 H469 0.931 . S
C447 C446 1.347 . S
C447 C448 1.369 . S
C448 C447 1.369 . S
C448 C449 1.408 . S
C448 H470 0.930 . S
C449 C444 1.348 . S
C449 C448 1.408 . S
C449 H471 0.930 . S
C450 O460 1.281 . S
C450 O461 1.254 . S
C451 O462 1.236 . S
C451 O463 1.266 . S
O452 Tb432 2.484 . S
O452 C434 1.248 . S
O453 Tb432 2.440 . S
O453 C434 1.266 . S
O454 Tb432 2.658 . S
O454 Tb433 2.325 . S
O454 C441 1.281 . S
O455 Tb432 2.409 . S
O455 C441 1.254 . S
O456 Tb432 2.378 . S
O456 C442 1.236 . S
O457 Tb433 2.341 . S
O457 C442 1.266 . S
O458 Tb433 2.484 . S
O458 C443 1.248 . S
O459 Tb433 2.440 . S
O459 C443 1.266 . S
O460 Tb432 2.325 . S
O460 Tb433 2.658 . S
O460 C450 1.281 . S
O461 Tb433 2.409 . S
O461 C450 1.254 . S
O462 Tb433 2.378 . S
O462 C451 1.236 . S
O463 Tb432 2.341 . S
O463 C451 1.266 . S
H464 C436 0.929 . S
H465 C437 0.931 . S
H466 C439 0.930 . S
H467 C440 0.930 . S
H468 C445 0.929 . S
H469 C446 0.931 . S
H470 C448 0.930 . S
H471 C449 0.930 . S
Tb472 C474 2.809 . S
Tb472 O492 2.484 . S
Tb472 O493 2.440 . S
Tb472 O494 2.658 . S
Tb472 O495 2.409 1_455 S
Tb472 O496 2.378 . S
Tb472 O500 2.325 . S
Tb472 O503 2.341 . S
Tb473 C483 2.809 . S
Tb473 O494 2.325 1_565 S
Tb473 O497 2.341 1_565 S
Tb473 O498 2.484 . S
Tb473 O499 2.440 . S
Tb473 O500 2.658 1_565 S
Tb473 O501 2.409 1_565 S
Tb473 O502 2.378 1_565 S
C474 Tb472 2.809 . S
C474 C475 1.514 . S
C474 O492 1.248 . S
C474 O493 1.266 . S
C475 C474 1.514 . S
C475 C476 1.359 . S
C475 C480 1.348 1_455 S
C476 C475 1.359 . S
C476 C477 1.380 . S
C476 H504 0.929 . S
C477 C476 1.380 . S
C477 C478 1.318 1_455 S
C477 H505 0.931 . S
C478 C477 1.318 1_655 S
C478 C479 1.390 . S
C479 C478 1.390 . S
C479 C480 1.408 . S
C479 H506 0.930 . S
C480 C475 1.348 1_655 S
C480 C479 1.408 . S
C480 H507 0.930 . S
C481 O494 1.281 1_655 S
C481 O495 1.254 . S
C482 O496 1.236 . S
C482 O497 1.266 . S
C483 Tb473 2.809 . S
C483 C484 1.514 . S
C483 O498 1.248 . S
C483 O499 1.266 . S
C484 C483 1.514 . S
C484 C485 1.359 . S
C484 C489 1.348 . S
C485 C484 1.359 . S
C485 C486 1.380 . S
C485 H508 0.929 . S
C486 C485 1.380 . S
C486 C487 1.347 . S
C486 H509 0.931 . S
C487 C486 1.347 . S
C487 C488 1.369 . S
C488 C487 1.369 . S
C488 C489 1.408 . S
C488 H510 0.930 . S
C489 C484 1.348 . S
C489 C488 1.408 . S
C489 H511 0.930 . S
C490 O500 1.281 . S
C490 O501 1.254 . S
C491 O502 1.236 . S
C491 O503 1.266 . S
O492 Tb472 2.484 . S
O492 C474 1.248 . S
O493 Tb472 2.440 . S
O493 C474 1.266 . S
O494 Tb472 2.658 . S
O494 Tb473 2.325 1_545 S
O494 C481 1.281 1_455 S
O495 Tb472 2.409 1_655 S
O495 C481 1.254 . S
O496 Tb472 2.378 . S
O496 C482 1.236 . S
O497 Tb473 2.341 1_545 S
O497 C482 1.266 . S
O498 Tb473 2.484 . S
O498 C483 1.248 . S
O499 Tb473 2.440 . S
O499 C483 1.266 . S
O500 Tb472 2.325 . S
O500 Tb473 2.658 1_545 S
O500 C490 1.281 . S
O501 Tb473 2.409 1_545 S
O501 C490 1.254 . S
O502 Tb473 2.378 1_545 S
O502 C491 1.236 . S
O503 Tb472 2.341 . S
O503 C491 1.266 . S
H504 C476 0.929 . S
H505 C477 0.931 . S
H506 C479 0.930 . S
H507 C480 0.930 . S
H508 C485 0.929 . S
H509 C486 0.931 . S
H510 C488 0.930 . S
H511 C489 0.930 . S
Tb512 C514 2.809 . S
Tb512 O532 2.484 . S
Tb512 O533 2.440 . S
Tb512 O534 2.658 . S
Tb512 O535 2.409 . S
Tb512 O536 2.378 . S
Tb512 O540 2.325 . S
Tb512 O543 2.341 . S
Tb513 C523 2.809 . S
Tb513 O534 2.325 . S
Tb513 O537 2.341 . S
Tb513 O538 2.484 . S
Tb513 O539 2.440 . S
Tb513 O540 2.658 . S
Tb513 O541 2.409 . S
Tb513 O542 2.378 . S
C514 Tb512 2.809 . S
C514 C515 1.514 . S
C514 O532 1.248 . S
C514 O533 1.266 . S
C515 C514 1.514 . S
C515 C516 1.359 . S
C515 C520 1.348 . S
C516 C515 1.359 . S
C516 C517 1.380 . S
C516 H544 0.929 . S
C517 C516 1.380 . S
C517 C518 1.347 . S
C517 H545 0.931 . S
C518 C517 1.347 . S
C518 C519 1.369 . S
C519 C518 1.369 . S
C519 C520 1.408 . S
C519 H546 0.930 . S
C520 C515 1.348 . S
C520 C519 1.408 . S
C520 H547 0.930 . S
C521 O534 1.281 . S
C521 O535 1.254 . S
C522 O536 1.236 . S
C522 O537 1.266 . S
C523 Tb513 2.809 . S
C523 C524 1.514 . S
C523 O538 1.248 . S
C523 O539 1.266 . S
C524 C523 1.514 . S
C524 C525 1.359 . S
C524 C529 1.348 . S
C525 C524 1.359 . S
C525 C526 1.380 . S
C525 H548 0.929 . S
C526 C525 1.380 . S
C526 C527 1.347 . S
C526 H549 0.931 . S
C527 C526 1.347 . S
C527 C528 1.369 . S
C528 C527 1.369 . S
C528 C529 1.408 . S
C528 H550 0.930 . S
C529 C524 1.348 . S
C529 C528 1.408 . S
C529 H551 0.930 . S
C530 O540 1.281 . S
C530 O541 1.254 . S
C531 O542 1.236 . S
C531 O543 1.266 . S
O532 Tb512 2.484 . S
O532 C514 1.248 . S
O533 Tb512 2.440 . S
O533 C514 1.266 . S
O534 Tb512 2.658 . S
O534 Tb513 2.325 . S
O534 C521 1.281 . S
O535 Tb512 2.409 . S
O535 C521 1.254 . S
O536 Tb512 2.378 . S
O536 C522 1.236 . S
O537 Tb513 2.341 . S
O537 C522 1.266 . S
O538 Tb513 2.484 . S
O538 C523 1.248 . S
O539 Tb513 2.440 . S
O539 C523 1.266 . S
O540 Tb512 2.325 . S
O540 Tb513 2.658 . S
O540 C530 1.281 . S
O541 Tb513 2.409 . S
O541 C530 1.254 . S
O542 Tb513 2.378 . S
O542 C531 1.236 . S
O543 Tb512 2.341 . S
O543 C531 1.266 . S
H544 C516 0.929 . S
H545 C517 0.931 . S
H546 C519 0.930 . S
H547 C520 0.930 . S
H548 C525 0.929 . S
H549 C526 0.931 . S
H550 C528 0.930 . S
H551 C529 0.930 . S
Tb552 C554 2.809 . S
Tb552 O572 2.484 1_545 S
Tb552 O573 2.440 . S
Tb552 O574 2.658 . S
Tb552 O575 2.409 . S
Tb552 O576 2.378 . S
Tb552 O580 2.325 . S
Tb552 O583 2.341 . S
Tb553 C563 2.809 . S
Tb553 O574 2.325 . S
Tb553 O577 2.341 . S
Tb553 O578 2.484 . S
Tb553 O579 2.440 . S
Tb553 O580 2.658 . S
Tb553 O581 2.409 1_545 S
Tb553 O582 2.378 . S
C554 Tb552 2.809 . S
C554 C555 1.514 1_545 S
C554 O572 1.248 1_545 S
C554 O573 1.266 . S
C555 C554 1.514 1_565 S
C555 C556 1.359 . S
C555 C560 1.348 1_565 S
C556 C555 1.359 . S
C556 C557 1.380 . S
C556 H584 0.929 . S
C557 C556 1.380 . S
C557 C558 1.347 . S
C557 H585 0.931 . S
C558 C557 1.347 . S
C558 C559 1.369 1_565 S
C559 C558 1.369 1_545 S
C559 C560 1.408 . S
C559 H586 0.930 . S
C560 C555 1.348 1_545 S
C560 C559 1.408 . S
C560 H587 0.930 . S
C561 O574 1.281 . S
C561 O575 1.254 . S
C562 O576 1.236 . S
C562 O577 1.266 . S
C563 Tb553 2.809 . S
C563 C564 1.514 . S
C563 O578 1.248 . S
C563 O579 1.266 . S
C564 C563 1.514 . S
C564 C565 1.359 . S
C564 C569 1.348 . S
C565 C564 1.359 . S
C565 C566 1.380 . S
C565 H588 0.929 . S
C566 C565 1.380 . S
C566 C567 1.347 . S
C566 H589 0.931 . S
C567 C566 1.347 . S
C567 C568 1.369 . S
C568 C567 1.369 . S
C568 C569 1.408 . S
C568 H590 0.930 . S
C569 C564 1.348 . S
C569 C568 1.408 . S
C569 H591 0.930 . S
C570 O580 1.281 1_565 S
C570 O581 1.254 . S
C571 O582 1.236 . S
C571 O583 1.266 . S
O572 Tb552 2.484 1_565 S
O572 C554 1.248 1_565 S
O573 Tb552 2.440 . S
O573 C554 1.266 . S
O574 Tb552 2.658 . S
O574 Tb553 2.325 . S
O574 C561 1.281 . S
O575 Tb552 2.409 . S
O575 C561 1.254 . S
O576 Tb552 2.378 . S
O576 C562 1.236 . S
O577 Tb553 2.341 . S
O577 C562 1.266 . S
O578 Tb553 2.484 . S
O578 C563 1.248 . S
O579 Tb553 2.440 . S
O579 C563 1.266 . S
O580 Tb552 2.325 . S
O580 Tb553 2.658 . S
O580 C570 1.281 1_545 S
O581 Tb553 2.409 1_565 S
O581 C570 1.254 . S
O582 Tb553 2.378 . S
O582 C571 1.236 . S
O583 Tb552 2.341 . S
O583 C571 1.266 . S
H584 C556 0.929 . S
H585 C557 0.931 . S
H586 C559 0.930 . S
H587 C560 0.930 . S
H588 C565 0.929 . S
H589 C566 0.931 . S
H590 C568 0.930 . S
H591 C569 0.930 . S
Tb592 C594 2.809 . S
Tb592 O612 2.484 . S
Tb592 O613 2.440 . S
Tb592 O614 2.658 . S
Tb592 O615 2.409 . S
Tb592 O616 2.378 . S
Tb592 O620 2.325 . S
Tb592 O623 2.341 . S
Tb593 C603 2.809 . S
Tb593 O614 2.325 . S
Tb593 O617 2.341 . S
Tb593 O618 2.484 . S
Tb593 O619 2.440 . S
Tb593 O620 2.658 . S
Tb593 O621 2.409 . S
Tb593 O622 2.378 . S
C594 Tb592 2.809 . S
C594 C595 1.514 . S
C594 O612 1.248 . S
C594 O613 1.266 . S
C595 C594 1.514 . S
C595 C596 1.359 . S
C595 C600 1.348 . S
C596 C595 1.359 . S
C596 C597 1.380 . S
C596 H624 0.929 . S
C597 C596 1.380 . S
C597 C598 1.347 . S
C597 H625 0.931 . S
C598 C597 1.347 . S
C598 C599 1.369 . S
C599 C598 1.369 . S
C599 C600 1.408 . S
C599 H626 0.930 . S
C600 C595 1.348 . S
C600 C599 1.408 . S
C600 H627 0.930 . S
C601 O614 1.281 . S
C601 O615 1.254 . S
C602 O616 1.236 . S
C602 O617 1.266 . S
C603 Tb593 2.809 . S
C603 C604 1.514 . S
C603 O618 1.248 . S
C603 O619 1.266 . S
C604 C603 1.514 . S
C604 C605 1.359 . S
C604 C609 1.348 . S
C605 C604 1.359 . S
C605 C606 1.380 . S
C605 H628 0.929 . S
C606 C605 1.380 . S
C606 C607 1.347 . S
C606 H629 0.931 . S
C607 C606 1.347 . S
C607 C608 1.369 . S
C608 C607 1.369 . S
C608 C609 1.408 . S
C608 H630 0.930 . S
C609 C604 1.348 . S
C609 C608 1.408 . S
C609 H631 0.930 . S
C610 O620 1.281 . S
C610 O621 1.254 . S
C611 O622 1.236 . S
C611 O623 1.266 . S
O612 Tb592 2.484 . S
O612 C594 1.248 . S
O613 Tb592 2.440 . S
O613 C594 1.266 . S
O614 Tb592 2.658 . S
O614 Tb593 2.325 . S
O614 C601 1.281 . S
O615 Tb592 2.409 . S
O615 C601 1.254 . S
O616 Tb592 2.378 . S
O616 C602 1.236 . S
O617 Tb593 2.341 . S
O617 C602 1.266 . S
O618 Tb593 2.484 . S
O618 C603 1.248 . S
O619 Tb593 2.440 . S
O619 C603 1.266 . S
O620 Tb592 2.325 . S
O620 Tb593 2.658 . S
O620 C610 1.281 . S
O621 Tb593 2.409 . S
O621 C610 1.254 . S
O622 Tb593 2.378 . S
O622 C611 1.236 . S
O623 Tb592 2.341 . S
O623 C611 1.266 . S
H624 C596 0.929 . S
H625 C597 0.931 . S
H626 C599 0.930 . S
H627 C600 0.930 . S
H628 C605 0.929 . S
H629 C606 0.931 . S
H630 C608 0.930 . S
H631 C609 0.930 . S
Tb632 C634 2.809 . S
Tb632 O652 2.484 . S
Tb632 O653 2.440 . S
Tb632 O654 2.658 . S
Tb632 O655 2.409 . S
Tb632 O656 2.378 . S
Tb632 O660 2.325 . S
Tb632 O663 2.341 . S
Tb633 C643 2.809 . S
Tb633 O654 2.325 . S
Tb633 O657 2.341 . S
Tb633 O658 2.484 . S
Tb633 O659 2.440 . S
Tb633 O660 2.658 . S
Tb633 O661 2.409 . S
Tb633 O662 2.378 . S
C634 Tb632 2.809 . S
C634 C635 1.514 . S
C634 O652 1.248 . S
C634 O653 1.266 . S
C635 C634 1.514 . S
C635 C636 1.359 . S
C635 C640 1.348 . S
C636 C635 1.359 . S
C636 C637 1.364 1_554 S
C636 H664 0.929 . S
C637 C636 1.364 1_556 S
C637 C638 1.345 . S
C637 H665 0.950 . S
C638 C637 1.345 . S
C638 C639 1.369 1_556 S
C639 C638 1.369 1_554 S
C639 C640 1.408 . S
C639 H666 0.930 . S
C640 C635 1.348 . S
C640 C639 1.408 . S
C640 H667 0.930 . S
C641 O654 1.281 . S
C641 O655 1.254 . S
C642 O656 1.236 . S
C642 O657 1.266 . S
C643 Tb633 2.809 . S
C643 C644 1.514 . S
C643 O658 1.248 . S
C643 O659 1.266 . S
C644 C643 1.514 . S
C644 C645 1.359 . S
C644 C649 1.348 . S
C645 C644 1.359 . S
C645 C646 1.380 . S
C645 H668 0.929 . S
C646 C645 1.380 . S
C646 C647 1.347 . S
C646 H669 0.931 . S
C647 C646 1.347 . S
C647 C648 1.369 . S
C648 C647 1.369 . S
C648 C649 1.408 . S
C648 H670 0.930 . S
C649 C644 1.348 . S
C649 C648 1.408 . S
C649 H671 0.930 . S
C650 O660 1.281 . S
C650 O661 1.254 . S
C651 O662 1.236 . S
C651 O663 1.266 . S
O652 Tb632 2.484 . S
O652 C634 1.248 . S
O653 Tb632 2.440 . S
O653 C634 1.266 . S
O654 Tb632 2.658 . S
O654 Tb633 2.325 . S
O654 C641 1.281 . S
O655 Tb632 2.409 . S
O655 C641 1.254 . S
O656 Tb632 2.378 . S
O656 C642 1.236 . S
O657 Tb633 2.341 . S
O657 C642 1.266 . S
O658 Tb633 2.484 . S
O658 C643 1.248 . S
O659 Tb633 2.440 . S
O659 C643 1.266 . S
O660 Tb632 2.325 . S
O660 Tb633 2.658 . S
O660 C650 1.281 . S
O661 Tb633 2.409 . S
O661 C650 1.254 . S
O662 Tb633 2.378 . S
O662 C651 1.236 . S
O663 Tb632 2.341 . S
O663 C651 1.266 . S
H664 C636 0.929 . S
H665 C637 0.950 . S
H666 C639 0.930 . S
H667 C640 0.930 . S
H668 C645 0.929 . S
H669 C646 0.931 . S
H670 C648 0.930 . S
H671 C649 0.930 . S
Tb672 C674 2.809 . S
Tb672 O692 2.484 . S
Tb672 O693 2.440 . S
Tb672 O694 2.658 . S
Tb672 O695 2.409 . S
Tb672 O696 2.378 . S
Tb672 O700 2.325 . S
Tb672 O703 2.341 . S
Tb673 C683 2.809 . S
Tb673 O694 2.325 . S
Tb673 O697 2.341 . S
Tb673 O698 2.484 . S
Tb673 O699 2.440 . S
Tb673 O700 2.658 . S
Tb673 O701 2.409 . S
Tb673 O702 2.378 . S
C674 Tb672 2.809 . S
C674 C675 1.514 . S
C674 O692 1.248 . S
C674 O693 1.266 . S
C675 C674 1.514 . S
C675 C676 1.359 . S
C675 C680 1.348 . S
C676 C675 1.359 . S
C676 C677 1.380 . S
C676 H704 0.929 . S
C677 C676 1.380 . S
C677 C678 1.347 . S
C677 H705 0.931 . S
C678 C677 1.347 . S
C678 C679 1.369 . S
C679 C678 1.369 . S
C679 C680 1.408 . S
C679 H706 0.930 . S
C680 C675 1.348 . S
C680 C679 1.408 . S
C680 H707 0.930 . S
C681 O694 1.281 . S
C681 O695 1.254 . S
C682 O696 1.236 . S
C682 O697 1.266 . S
C683 Tb673 2.809 . S
C683 C684 1.514 . S
C683 O698 1.248 . S
C683 O699 1.266 . S
C684 C683 1.514 . S
C684 C685 1.359 . S
C684 C689 1.348 . S
C685 C684 1.359 . S
C685 C686 1.380 . S
C685 H708 0.929 . S
C686 C685 1.380 . S
C686 C687 1.347 . S
C686 H709 0.931 . S
C687 C686 1.347 . S
C687 C688 1.369 . S
C688 C687 1.369 . S
C688 C689 1.408 . S
C688 H710 0.930 . S
C689 C684 1.348 . S
C689 C688 1.408 . S
C689 H711 0.930 . S
C690 O700 1.281 . S
C690 O701 1.254 . S
C691 O702 1.236 . S
C691 O703 1.266 . S
O692 Tb672 2.484 . S
O692 C674 1.248 . S
O693 Tb672 2.440 . S
O693 C674 1.266 . S
O694 Tb672 2.658 . S
O694 Tb673 2.325 . S
O694 C681 1.281 . S
O695 Tb672 2.409 . S
O695 C681 1.254 . S
O696 Tb672 2.378 . S
O696 C682 1.236 . S
O697 Tb673 2.341 . S
O697 C682 1.266 . S
O698 Tb673 2.484 . S
O698 C683 1.248 . S
O699 Tb673 2.440 . S
O699 C683 1.266 . S
O700 Tb672 2.325 . S
O700 Tb673 2.658 . S
O700 C690 1.281 . S
O701 Tb673 2.409 . S
O701 C690 1.254 . S
O702 Tb673 2.378 . S
O702 C691 1.236 . S
O703 Tb672 2.341 . S
O703 C691 1.266 . S
H704 C676 0.929 . S
H705 C677 0.931 . S
H706 C679 0.930 . S
H707 C680 0.930 . S
H708 C685 0.929 . S
H709 C686 0.931 . S
H710 C688 0.930 . S
H711 C689 0.930 . S
Tb712 C714 2.809 1_455 S
Tb712 O732 2.484 1_455 S
Tb712 O733 2.440 1_455 S
Tb712 O734 2.658 . S
Tb712 O735 2.409 . S
Tb712 O736 2.378 . S
Tb712 O740 2.325 . S
Tb712 O743 2.341 . S
Tb713 C723 2.809 . S
Tb713 O734 2.325 . S
Tb713 O737 2.341 . S
Tb713 O738 2.484 . S
Tb713 O739 2.440 . S
Tb713 O740 2.658 . S
Tb713 O741 2.409 . S
Tb713 O742 2.378 . S
C714 Tb712 2.809 1_655 S
C714 C715 1.514 . S
C714 O732 1.248 . S
C714 O733 1.266 . S
C715 C714 1.514 . S
C715 C716 1.359 . S
C715 C720 1.348 . S
C716 C715 1.359 . S
C716 C717 1.380 . S
C716 H744 0.929 . S
C717 C716 1.380 . S
C717 C718 1.347 . S
C717 H745 0.931 . S
C718 C717 1.347 . S
C718 C719 1.369 . S
C719 C718 1.369 . S
C719 C720 1.408 . S
C719 H746 0.930 . S
C720 C715 1.348 . S
C720 C719 1.408 . S
C720 H747 0.930 . S
C721 O734 1.281 . S
C721 O735 1.254 . S
C722 O736 1.236 . S
C722 O737 1.266 . S
C723 Tb713 2.809 . S
C723 C724 1.514 . S
C723 O738 1.248 . S
C723 O739 1.266 . S
C724 C723 1.514 . S
C724 C725 1.359 . S
C724 C729 1.348 . S
C725 C724 1.359 . S
C725 C726 1.380 . S
C725 H748 0.929 . S
C726 C725 1.380 . S
C726 C727 1.347 . S
C726 H749 0.931 . S
C727 C726 1.347 . S
C727 C728 1.369 . S
C728 C727 1.369 . S
C728 C729 1.408 . S
C728 H750 0.930 . S
C729 C724 1.348 . S
C729 C728 1.408 . S
C729 H751 0.930 . S
C730 O740 1.281 . S
C730 O741 1.254 . S
C731 O742 1.236 . S
C731 O743 1.266 . S
O732 Tb712 2.484 1_655 S
O732 C714 1.248 . S
O733 Tb712 2.440 1_655 S
O733 C714 1.266 . S
O734 Tb712 2.658 . S
O734 Tb713 2.325 . S
O734 C721 1.281 . S
O735 Tb712 2.409 . S
O735 C721 1.254 . S
O736 Tb712 2.378 . S
O736 C722 1.236 . S
O737 Tb713 2.341 . S
O737 C722 1.266 . S
O738 Tb713 2.484 . S
O738 C723 1.248 . S
O739 Tb713 2.440 . S
O739 C723 1.266 . S
O740 Tb712 2.325 . S
O740 Tb713 2.658 . S
O740 C730 1.281 . S
O741 Tb713 2.409 . S
O741 C730 1.254 . S
O742 Tb713 2.378 . S
O742 C731 1.236 . S
O743 Tb712 2.341 . S
O743 C731 1.266 . S
H744 C716 0.929 . S
H745 C717 0.931 . S
H746 C719 0.930 . S
H747 C720 0.930 . S
H748 C725 0.929 . S
H749 C726 0.931 . S
H750 C728 0.930 . S
H751 C729 0.930 . S
Tb752 C754 2.809 . S
Tb752 O772 2.484 . S
Tb752 O773 2.440 . S
Tb752 O774 2.658 . S
Tb752 O775 2.409 . S
Tb752 O776 2.378 . S
Tb752 O780 2.325 . S
Tb752 O783 2.341 . S
Tb753 C763 2.809 . S
Tb753 O774 2.325 . S
Tb753 O777 2.341 . S
Tb753 O778 2.484 . S
Tb753 O779 2.440 . S
Tb753 O780 2.658 . S
Tb753 O781 2.409 . S
Tb753 O782 2.378 . S
C754 Tb752 2.809 . S
C754 C755 1.514 . S
C754 O772 1.248 . S
C754 O773 1.266 . S
C755 C754 1.514 . S
C755 C756 1.359 . S
C755 C760 1.348 . S
C756 C755 1.359 . S
C756 C757 1.380 . S
C756 H784 0.929 . S
C757 C756 1.380 . S
C757 C758 1.347 . S
C757 H785 0.931 . S
C758 C757 1.347 . S
C758 C759 1.369 . S
C759 C758 1.369 . S
C759 C760 1.408 . S
C759 H786 0.930 . S
C760 C755 1.348 . S
C760 C759 1.408 . S
C760 H787 0.930 . S
C761 O774 1.281 . S
C761 O775 1.254 . S
C762 O776 1.236 . S
C762 O777 1.266 . S
C763 Tb753 2.809 . S
C763 C764 1.514 . S
C763 O778 1.248 . S
C763 O779 1.266 . S
C764 C763 1.514 . S
C764 C765 1.359 . S
C764 C769 1.348 . S
C765 C764 1.359 . S
C765 C766 1.380 . S
C765 H788 0.929 . S
C766 C765 1.380 . S
C766 C767 1.347 . S
C766 H789 0.931 . S
C767 C766 1.347 . S
C767 C768 1.369 . S
C768 C767 1.369 . S
C768 C769 1.408 . S
C768 H790 0.930 . S
C769 C764 1.348 . S
C769 C768 1.408 . S
C769 H791 0.930 . S
C770 O780 1.281 . S
C770 O781 1.254 . S
C771 O782 1.236 . S
C771 O783 1.266 . S
O772 Tb752 2.484 . S
O772 C754 1.248 . S
O773 Tb752 2.440 . S
O773 C754 1.266 . S
O774 Tb752 2.658 . S
O774 Tb753 2.325 . S
O774 C761 1.281 . S
O775 Tb752 2.409 . S
O775 C761 1.254 . S
O776 Tb752 2.378 . S
O776 C762 1.236 . S
O777 Tb753 2.341 . S
O777 C762 1.266 . S
O778 Tb753 2.484 . S
O778 C763 1.248 . S
O779 Tb753 2.440 . S
O779 C763 1.266 . S
O780 Tb752 2.325 . S
O780 Tb753 2.658 . S
O780 C770 1.281 . S
O781 Tb753 2.409 . S
O781 C770 1.254 . S
O782 Tb753 2.378 . S
O782 C771 1.236 . S
O783 Tb752 2.341 . S
O783 C771 1.266 . S
H784 C756 0.929 . S
H785 C757 0.931 . S
H786 C759 0.930 . S
H787 C760 0.930 . S
H788 C765 0.929 . S
H789 C766 0.931 . S
H790 C768 0.930 . S
H791 C769 0.930 . S
Tb792 C794 2.809 . S
Tb792 O812 2.484 . S
Tb792 O813 2.440 . S
Tb792 O814 2.658 . S
Tb792 O815 2.409 . S
Tb792 O816 2.378 . S
Tb792 O820 2.325 . S
Tb792 O823 2.341 . S
Tb793 C803 2.809 . S
Tb793 O814 2.325 . S
Tb793 O817 2.341 . S
Tb793 O818 2.484 . S
Tb793 O819 2.440 . S
Tb793 O820 2.658 . S
Tb793 O821 2.409 . S
Tb793 O822 2.378 . S
C794 Tb792 2.809 . S
C794 C795 1.514 . S
C794 O812 1.248 . S
C794 O813 1.266 . S
C795 C794 1.514 . S
C795 C796 1.359 . S
C795 C800 1.348 . S
C796 C795 1.359 . S
C796 C797 1.380 . S
C796 H824 0.929 . S
C797 C796 1.380 . S
C797 C798 1.347 . S
C797 H825 0.931 . S
C798 C797 1.347 . S
C798 C799 1.369 . S
C799 C798 1.369 . S
C799 C800 1.408 . S
C799 H826 0.930 . S
C800 C795 1.348 . S
C800 C799 1.408 . S
C800 H827 0.930 . S
C801 O814 1.281 . S
C801 O815 1.254 . S
C802 O816 1.236 . S
C802 O817 1.266 . S
C803 Tb793 2.809 . S
C803 C804 1.514 . S
C803 O818 1.248 . S
C803 O819 1.266 . S
C804 C803 1.514 . S
C804 C805 1.359 . S
C804 C809 1.348 . S
C805 C804 1.359 . S
C805 C806 1.380 1_556 S
C805 H828 0.929 . S
C806 C805 1.380 1_554 S
C806 C807 1.347 . S
C806 H829 0.931 . S
C807 C806 1.347 . S
C807 C808 1.369 . S
C808 C807 1.369 . S
C808 C809 1.408 1_554 S
C808 H830 0.930 . S
C809 C804 1.348 . S
C809 C808 1.408 1_556 S
C809 H831 0.930 . S
C810 O820 1.281 . S
C810 O821 1.254 . S
C811 O822 1.236 . S
C811 O823 1.266 . S
O812 Tb792 2.484 . S
O812 C794 1.248 . S
O813 Tb792 2.440 . S
O813 C794 1.266 . S
O814 Tb792 2.658 . S
O814 Tb793 2.325 . S
O814 C801 1.281 . S
O815 Tb792 2.409 . S
O815 C801 1.254 . S
O816 Tb792 2.378 . S
O816 C802 1.236 . S
O817 Tb793 2.341 . S
O817 C802 1.266 . S
O818 Tb793 2.484 . S
O818 C803 1.248 . S
O819 Tb793 2.440 . S
O819 C803 1.266 . S
O820 Tb792 2.325 . S
O820 Tb793 2.658 . S
O820 C810 1.281 . S
O821 Tb793 2.409 . S
O821 C810 1.254 . S
O822 Tb793 2.378 . S
O822 C811 1.236 . S
O823 Tb792 2.341 . S
O823 C811 1.266 . S
H824 C796 0.929 . S
H825 C797 0.931 . S
H826 C799 0.930 . S
H827 C800 0.930 . S
H828 C805 0.929 . S
H829 C806 0.931 . S
H830 C808 0.930 . S
H831 C809 0.930 . S
Tb832 C834 2.809 . S
Tb832 O852 2.484 . S
Tb832 O853 2.440 . S
Tb832 O854 2.658 . S
Tb832 O855 2.409 . S
Tb832 O856 2.378 . S
Tb832 O860 2.325 . S
Tb832 O863 2.341 . S
Tb833 C843 2.809 . S
Tb833 O854 2.325 . S
Tb833 O857 2.341 . S
Tb833 O858 2.484 . S
Tb833 O859 2.440 . S
Tb833 O860 2.658 . S
Tb833 O861 2.409 . S
Tb833 O862 2.378 . S
C834 Tb832 2.809 . S
C834 C835 1.514 . S
C834 O852 1.248 . S
C834 O853 1.266 . S
C835 C834 1.514 . S
C835 C836 1.359 . S
C835 C840 1.348 . S
C836 C835 1.359 . S
C836 C837 1.380 . S
C836 H864 0.929 . S
C837 C836 1.380 . S
C837 C838 1.347 . S
C837 H865 0.931 . S
C838 C837 1.347 . S
C838 C839 1.369 . S
C839 C838 1.369 . S
C839 C840 1.408 . S
C839 H866 0.930 . S
C840 C835 1.348 . S
C840 C839 1.408 . S
C840 H867 0.930 . S
C841 O854 1.281 . S
C841 O855 1.254 . S
C842 O856 1.236 . S
C842 O857 1.266 . S
C843 Tb833 2.809 . S
C843 C844 1.514 . S
C843 O858 1.248 . S
C843 O859 1.266 . S
C844 C843 1.514 . S
C844 C845 1.359 . S
C844 C849 1.348 . S
C845 C844 1.359 . S
C845 C846 1.380 . S
C845 H868 0.929 . S
C846 C845 1.380 . S
C846 C847 1.347 . S
C846 H869 0.931 . S
C847 C846 1.347 . S
C847 C848 1.369 . S
C848 C847 1.369 . S
C848 C849 1.408 . S
C848 H870 0.930 . S
C849 C844 1.348 . S
C849 C848 1.408 . S
C849 H871 0.930 . S
C850 O860 1.281 . S
C850 O861 1.254 . S
C851 O862 1.236 . S
C851 O863 1.266 . S
O852 Tb832 2.484 . S
O852 C834 1.248 . S
O853 Tb832 2.440 . S
O853 C834 1.266 . S
O854 Tb832 2.658 . S
O854 Tb833 2.325 . S
O854 C841 1.281 . S
O855 Tb832 2.409 . S
O855 C841 1.254 . S
O856 Tb832 2.378 . S
O856 C842 1.236 . S
O857 Tb833 2.341 . S
O857 C842 1.266 . S
O858 Tb833 2.484 . S
O858 C843 1.248 . S
O859 Tb833 2.440 . S
O859 C843 1.266 . S
O860 Tb832 2.325 . S
O860 Tb833 2.658 . S
O860 C850 1.281 . S
O861 Tb833 2.409 . S
O861 C850 1.254 . S
O862 Tb833 2.378 . S
O862 C851 1.236 . S
O863 Tb832 2.341 . S
O863 C851 1.266 . S
H864 C836 0.929 . S
H865 C837 0.931 . S
H866 C839 0.930 . S
H867 C840 0.930 . S
H868 C845 0.929 . S
H869 C846 0.931 . S
H870 C848 0.930 . S
H871 C849 0.930 . S
Tb872 C874 2.809 . S
Tb872 O892 2.484 . S
Tb872 O893 2.440 . S
Tb872 O894 2.658 . S
Tb872 O895 2.409 . S
Tb872 O896 2.378 . S
Tb872 O900 2.325 . S
Tb872 O903 2.341 . S
Tb873 C883 2.809 . S
Tb873 O894 2.325 . S
Tb873 O897 2.341 . S
Tb873 O898 2.484 . S
Tb873 O899 2.440 . S
Tb873 O900 2.658 . S
Tb873 O901 2.409 . S
Tb873 O902 2.378 . S
C874 Tb872 2.809 . S
C874 C875 1.514 . S
C874 O892 1.248 . S
C874 O893 1.266 . S
C875 C874 1.514 . S
C875 C876 1.359 . S
C875 C880 1.348 . S
C876 C875 1.359 . S
C876 C877 1.380 . S
C876 H904 0.929 . S
C877 C876 1.380 . S
C877 C878 1.347 . S
C877 H905 0.931 . S
C878 C877 1.347 . S
C878 C879 1.369 . S
C879 C878 1.369 . S
C879 C880 1.408 . S
C879 H906 0.930 . S
C880 C875 1.348 . S
C880 C879 1.408 . S
C880 H907 0.930 . S
C881 O894 1.281 . S
C881 O895 1.254 . S
C882 O896 1.236 . S
C882 O897 1.266 . S
C883 Tb873 2.809 . S
C883 C884 1.514 . S
C883 O898 1.248 . S
C883 O899 1.266 . S
C884 C883 1.514 . S
C884 C885 1.359 . S
C884 C889 1.348 . S
C885 C884 1.359 . S
C885 C886 1.380 . S
C885 H908 0.929 . S
C886 C885 1.380 . S
C886 C887 1.347 . S
C886 H909 0.931 . S
C887 C886 1.347 . S
C887 C888 1.369 . S
C888 C887 1.369 . S
C888 C889 1.408 . S
C888 H910 0.930 . S
C889 C884 1.348 . S
C889 C888 1.408 . S
C889 H911 0.930 . S
C890 O900 1.281 . S
C890 O901 1.254 . S
C891 O902 1.236 . S
C891 O903 1.266 . S
O892 Tb872 2.484 . S
O892 C874 1.248 . S
O893 Tb872 2.440 . S
O893 C874 1.266 . S
O894 Tb872 2.658 . S
O894 Tb873 2.325 . S
O894 C881 1.281 . S
O895 Tb872 2.409 . S
O895 C881 1.254 . S
O896 Tb872 2.378 . S
O896 C882 1.236 . S
O897 Tb873 2.341 . S
O897 C882 1.266 . S
O898 Tb873 2.484 . S
O898 C883 1.248 . S
O899 Tb873 2.440 . S
O899 C883 1.266 . S
O900 Tb872 2.325 . S
O900 Tb873 2.658 . S
O900 C890 1.281 . S
O901 Tb873 2.409 . S
O901 C890 1.254 . S
O902 Tb873 2.378 . S
O902 C891 1.236 . S
O903 Tb872 2.341 . S
O903 C891 1.266 . S
H904 C876 0.929 . S
H905 C877 0.931 . S
H906 C879 0.930 . S
H907 C880 0.930 . S
H908 C885 0.929 . S
H909 C886 0.931 . S
H910 C888 0.930 . S
H911 C889 0.930 . S
Tb912 C914 2.809 . S
Tb912 O932 2.484 . S
Tb912 O933 2.440 . S
Tb912 O934 2.658 . S
Tb912 O935 2.409 . S
Tb912 O936 2.378 . S
Tb912 O940 2.325 . S
Tb912 O943 2.341 . S
Tb913 C923 2.809 1_455 S
Tb913 O934 2.325 . S
Tb913 O937 2.341 . S
Tb913 O938 2.484 1_455 S
Tb913 O939 2.440 1_455 S
Tb913 O940 2.658 . S
Tb913 O941 2.409 . S
Tb913 O942 2.378 . S
C914 Tb912 2.809 . S
C914 C915 1.514 . S
C914 O932 1.248 . S
C914 O933 1.266 . S
C915 C914 1.514 . S
C915 C916 1.359 . S
C915 C920 1.348 . S
C916 C915 1.359 . S
C916 C917 1.380 . S
C916 H944 0.929 . S
C917 C916 1.380 . S
C917 C918 1.347 . S
C917 H945 0.931 . S
C918 C917 1.347 . S
C918 C919 1.369 . S
C919 C918 1.369 . S
C919 C920 1.408 . S
C919 H946 0.927 1_554 S
C920 C915 1.348 . S
C920 C919 1.408 . S
C920 H947 0.930 . S
C921 O934 1.281 . S
C921 O935 1.254 . S
C922 O936 1.236 . S
C922 O937 1.266 . S
C923 Tb913 2.809 1_655 S
C923 C924 1.514 . S
C923 O938 1.248 . S
C923 O939 1.266 . S
C924 C923 1.514 . S
C924 C925 1.359 . S
C924 C929 1.348 . S
C925 C924 1.359 . S
C925 C926 1.380 . S
C925 H948 0.929 . S
C926 C925 1.380 . S
C926 C927 1.347 . S
C926 H949 0.931 . S
C927 C926 1.347 . S
C927 C928 1.369 . S
C928 C927 1.369 . S
C928 C929 1.408 . S
C928 H950 0.930 . S
C929 C924 1.348 . S
C929 C928 1.408 . S
C929 H951 0.930 . S
C930 O940 1.281 . S
C930 O941 1.254 . S
C931 O942 1.236 . S
C931 O943 1.266 . S
O932 Tb912 2.484 . S
O932 C914 1.248 . S
O933 Tb912 2.440 . S
O933 C914 1.266 . S
O934 Tb912 2.658 . S
O934 Tb913 2.325 . S
O934 C921 1.281 . S
O935 Tb912 2.409 . S
O935 C921 1.254 . S
O936 Tb912 2.378 . S
O936 C922 1.236 . S
O937 Tb913 2.341 . S
O937 C922 1.266 . S
O938 Tb913 2.484 1_655 S
O938 C923 1.248 . S
O939 Tb913 2.440 1_655 S
O939 C923 1.266 . S
O940 Tb912 2.325 . S
O940 Tb913 2.658 . S
O940 C930 1.281 . S
O941 Tb913 2.409 . S
O941 C930 1.254 . S
O942 Tb913 2.378 . S
O942 C931 1.236 . S
O943 Tb912 2.341 . S
O943 C931 1.266 . S
H944 C916 0.929 . S
H945 C917 0.931 . S
H946 C919 0.927 1_556 S
H947 C920 0.930 . S
H948 C925 0.929 . S
H949 C926 0.931 . S
H950 C928 0.930 . S
H951 C929 0.930 . S
C952 C953 1.369 . S
C952 C954 1.419 . S
C952 H956 0.930 . S
C953 C952 1.369 . S
C953 C962 1.429 . S
C954 C952 1.419 . S
C954 C955 1.363 . S
C954 H957 0.929 . S
C955 C954 1.363 . S
C955 C961 1.428 . S
H956 C952 0.930 . S
H957 C954 0.929 . S
S958 N959 1.613 . S
S958 N960 1.610 . S
N959 S958 1.613 . S
N959 C962 1.350 . S
N960 S958 1.610 . S
N960 C961 1.351 . S
C961 C955 1.428 . S
C961 N960 1.351 . S
C961 C962 1.434 . S
C962 C953 1.429 . S
C962 N959 1.350 . S
C962 C961 1.434 . S
C963 C964 1.369 . S
C963 C965 1.419 . S
C963 H967 0.930 . S
C964 C963 1.369 . S
C964 C973 1.429 . S
C965 C963 1.419 . S
C965 C966 1.363 . S
C965 H968 0.929 . S
C966 C965 1.363 . S
C966 C972 1.428 . S
H967 C963 0.930 . S
H968 C965 0.929 . S
S969 N970 1.613 . S
S969 N971 1.610 . S
N970 S969 1.613 . S
N970 C973 1.350 . S
N971 S969 1.610 . S
N971 C972 1.351 . S
C972 C966 1.428 . S
C972 N971 1.351 . S
C972 C973 1.434 . S
C973 C964 1.429 . S
C973 N970 1.350 . S
C973 C972 1.434 . S
C974 C975 1.369 . S
C974 C976 1.419 . S
C974 H978 0.930 . S
C975 C974 1.369 . S
C975 C984 1.429 . S
C976 C974 1.419 . S
C976 C977 1.363 . S
C976 H979 0.929 . S
C977 C976 1.363 . S
C977 C983 1.428 . S
H978 C974 0.930 . S
H979 C976 0.929 . S
S980 N981 1.613 . S
S980 N982 1.610 . S
N981 S980 1.613 . S
N981 C984 1.350 . S
N982 S980 1.610 . S
N982 C983 1.351 . S
C983 C977 1.428 . S
C983 N982 1.351 . S
C983 C984 1.434 . S
C984 C975 1.429 . S
C984 N981 1.350 . S
C984 C983 1.434 . S
C985 C986 1.369 . S
C985 C987 1.419 . S
C985 H989 0.930 . S
C986 C985 1.369 . S
C986 C995 1.429 . S
C987 C985 1.419 . S
C987 C988 1.363 . S
C987 H990 0.929 . S
C988 C987 1.363 . S
C988 C994 1.428 . S
H989 C985 0.930 . S
H990 C987 0.929 . S
S991 N992 1.613 . S
S991 N993 1.610 . S
N992 S991 1.613 . S
N992 C995 1.350 . S
N993 S991 1.610 . S
N993 C994 1.351 . S
C994 C988 1.428 . S
C994 N993 1.351 . S
C994 C995 1.434 . S
C995 C986 1.429 . S
C995 N992 1.350 . S
C995 C994 1.434 . S
C996 C997 1.369 . S
C996 C998 1.419 . S
C996 H1000 0.930 . S
C997 C996 1.369 . S
C997 C1006 1.429 . S
C998 C996 1.419 . S
C998 C999 1.363 . S
C998 H1001 0.929 . S
C999 C998 1.363 . S
C999 C1005 1.428 . S
H1000 C996 0.930 . S
H1001 C998 0.929 . S
S1002 N1003 1.613 . S
S1002 N1004 1.610 . S
N1003 S1002 1.613 . S
N1003 C1006 1.350 . S
N1004 S1002 1.610 . S
N1004 C1005 1.351 . S
C1005 C999 1.428 . S
C1005 N1004 1.351 . S
C1005 C1006 1.434 . S
C1006 C997 1.429 . S
C1006 N1003 1.350 . S
C1006 C1005 1.434 . S
C1007 C1008 1.369 . S
C1007 C1009 1.419 . S
C1007 H1011 0.930 . S
C1008 C1007 1.369 . S
C1008 C1017 1.429 . S
C1009 C1007 1.419 . S
C1009 C1010 1.363 . S
C1009 H1012 0.929 . S
C1010 C1009 1.363 . S
C1010 C1016 1.428 . S
H1011 C1007 0.930 . S
H1012 C1009 0.929 . S
S1013 N1014 1.613 . S
S1013 N1015 1.610 . S
N1014 S1013 1.613 . S
N1014 C1017 1.350 . S
N1015 S1013 1.610 . S
N1015 C1016 1.351 . S
C1016 C1010 1.428 . S
C1016 N1015 1.351 . S
C1016 C1017 1.434 . S
C1017 C1008 1.429 . S
C1017 N1014 1.350 . S
C1017 C1016 1.434 . S
C1018 C1019 1.369 . S
C1018 C1020 1.419 . S
C1018 H1022 0.930 . S
C1019 C1018 1.369 . S
C1019 C1028 1.429 . S
C1020 C1018 1.419 . S
C1020 C1021 1.363 . S
C1020 H1023 0.929 . S
C1021 C1020 1.363 . S
C1021 C1027 1.428 . S
H1022 C1018 0.930 . S
H1023 C1020 0.929 . S
S1024 N1025 1.613 . S
S1024 N1026 1.610 . S
N1025 S1024 1.613 . S
N1025 C1028 1.350 . S
N1026 S1024 1.610 . S
N1026 C1027 1.351 . S
C1027 C1021 1.428 . S
C1027 N1026 1.351 . S
C1027 C1028 1.434 . S
C1028 C1019 1.429 . S
C1028 N1025 1.350 . S
C1028 C1027 1.434 . S
C1029 C1030 1.369 . S
C1029 C1031 1.419 . S
C1029 H1033 0.930 . S
C1030 C1029 1.369 . S
C1030 C1039 1.429 . S
C1031 C1029 1.419 . S
C1031 C1032 1.363 . S
C1031 H1034 0.929 . S
C1032 C1031 1.363 . S
C1032 C1038 1.428 . S
H1033 C1029 0.930 . S
H1034 C1031 0.929 . S
S1035 N1036 1.613 . S
S1035 N1037 1.610 . S
N1036 S1035 1.613 . S
N1036 C1039 1.350 . S
N1037 S1035 1.610 . S
N1037 C1038 1.351 . S
C1038 C1032 1.428 . S
C1038 N1037 1.351 . S
C1038 C1039 1.434 . S
C1039 C1030 1.429 . S
C1039 N1036 1.350 . S
C1039 C1038 1.434 . S
C1040 C1041 1.369 . S
C1040 C1042 1.419 . S
C1040 H1044 0.930 1_545 S
C1041 C1040 1.369 . S
C1041 C1050 1.429 1_655 S
C1042 C1040 1.419 . S
C1042 C1043 1.363 1_655 S
C1042 H1045 0.929 . S
C1043 C1042 1.363 1_455 S
C1043 C1049 1.428 . S
H1044 C1040 0.930 1_565 S
H1045 C1042 0.929 . S
S1046 N1047 1.613 . S
S1046 N1048 1.610 . S
N1047 S1046 1.613 . S
N1047 C1050 1.350 . S
N1048 S1046 1.610 . S
N1048 C1049 1.351 . S
C1049 C1043 1.428 . S
C1049 N1048 1.351 . S
C1049 C1050 1.434 . S
C1050 C1041 1.429 1_455 S
C1050 N1047 1.350 . S
C1050 C1049 1.434 . S
C1051 C1052 1.369 . S
C1051 C1053 1.419 . S
C1051 H1055 0.930 . S
C1052 C1051 1.369 . S
C1052 C1061 1.429 . S
C1053 C1051 1.419 . S
C1053 C1054 1.363 . S
C1053 H1056 0.929 . S
C1054 C1053 1.363 . S
C1054 C1060 1.428 . S
H1055 C1051 0.930 . S
H1056 C1053 0.929 . S
S1057 N1058 1.613 . S
S1057 N1059 1.610 . S
N1058 S1057 1.613 . S
N1058 C1061 1.350 . S
N1059 S1057 1.610 . S
N1059 C1060 1.351 . S
C1060 C1054 1.428 . S
C1060 N1059 1.351 . S
C1060 C1061 1.434 . S
C1061 C1052 1.429 . S
C1061 N1058 1.350 . S
C1061 C1060 1.434 . S
C1062 C1063 1.369 . S
C1062 C1064 1.419 . S
C1062 H1066 0.930 . S
C1063 C1062 1.369 . S
C1063 C1072 1.429 . S
C1064 C1062 1.419 . S
C1064 C1065 1.363 . S
C1064 H1067 0.929 . S
C1065 C1064 1.363 . S
C1065 C1071 1.428 . S
H1066 C1062 0.930 . S
H1067 C1064 0.929 . S
S1068 N1069 1.613 . S
S1068 N1070 1.610 . S
N1069 S1068 1.613 . S
N1069 C1072 1.350 . S
N1070 S1068 1.610 . S
N1070 C1071 1.351 . S
C1071 C1065 1.428 . S
C1071 N1070 1.351 . S
C1071 C1072 1.434 . S
C1072 C1063 1.429 . S
C1072 N1069 1.350 . S
C1072 C1071 1.434 . S
C1073 C1074 1.369 1_556 S
C1073 C1075 1.419 . S
C1073 H1077 0.930 1_556 S
C1074 C1073 1.369 1_554 S
C1074 C1083 1.429 1_554 S
C1075 C1073 1.419 . S
C1075 C1076 1.363 . S
C1075 H1078 0.929 . S
C1076 C1075 1.363 . S
C1076 C1082 1.428 . S
H1077 C1073 0.930 1_554 S
H1078 C1075 0.929 . S
S1079 N1080 1.613 . S
S1079 N1081 1.610 . S
N1080 S1079 1.613 . S
N1080 C1083 1.350 . S
N1081 S1079 1.610 . S
N1081 C1082 1.351 . S
C1082 C1076 1.428 . S
C1082 N1081 1.351 . S
C1082 C1083 1.434 . S
C1083 C1074 1.429 1_556 S
C1083 N1080 1.350 . S
C1083 C1082 1.434 . S
C1084 C1085 1.369 . S
C1084 C1086 1.419 1_655 S
C1084 H1088 0.930 . S
C1085 C1084 1.369 . S
C1085 C1094 1.429 1_545 S
C1086 C1084 1.419 1_455 S
C1086 C1087 1.363 . S
C1086 H1089 0.929 . S
C1087 C1086 1.363 . S
C1087 C1093 1.428 1_545 S
H1088 C1084 0.930 . S
H1089 C1086 0.929 . S
S1090 N1091 1.613 . S
S1090 N1092 1.610 1_655 S
N1091 S1090 1.613 . S
N1091 C1094 1.350 . S
N1092 S1090 1.610 1_455 S
N1092 C1093 1.351 . S
C1093 C1087 1.428 1_565 S
C1093 N1092 1.351 . S
C1093 C1094 1.434 1_455 S
C1094 C1085 1.429 1_565 S
C1094 N1091 1.350 . S
C1094 C1093 1.434 1_655 S
C1095 C1096 1.369 . S
C1095 C1097 1.419 . S
C1095 H1099 0.930 . S
C1096 C1095 1.369 . S
C1096 C1105 1.429 . S
C1097 C1095 1.419 . S
C1097 C1098 1.363 . S
C1097 H1100 0.929 . S
C1098 C1097 1.363 . S
C1098 C1104 1.428 . S
H1099 C1095 0.930 . S
H1100 C1097 0.929 . S
S1101 N1102 1.613 . S
S1101 N1103 1.610 . S
N1102 S1101 1.613 . S
N1102 C1105 1.350 . S
N1103 S1101 1.610 . S
N1103 C1104 1.351 . S
C1104 C1098 1.428 . S
C1104 N1103 1.351 . S
C1104 C1105 1.434 . S
C1105 C1096 1.429 . S
C1105 N1102 1.350 . S
C1105 C1104 1.434 . S
C1106 C1107 1.369 . S
C1106 C1108 1.419 1_556 S
C1106 H1110 0.930 . S
C1107 C1106 1.369 . S
C1107 C1116 1.429 . S
C1108 C1106 1.419 1_554 S
C1108 C1109 1.363 . S
C1108 H1111 0.929 . S
C1109 C1108 1.363 . S
C1109 C1115 1.428 1_554 S
H1110 C1106 0.930 . S
H1111 C1108 0.929 . S
S1112 N1113 1.613 . S
S1112 N1114 1.596 1_556 S
N1113 S1112 1.613 . S
N1113 C1116 1.350 . S
N1114 S1112 1.596 1_554 S
N1114 C1115 1.351 1_554 S
C1115 C1109 1.428 1_556 S
C1115 N1114 1.351 1_556 S
C1115 C1116 1.434 . S
C1116 C1107 1.429 . S
C1116 N1113 1.350 . S
C1116 C1115 1.434 . S
C1117 C1118 1.369 . S
C1117 C1119 1.419 . S
C1117 H1121 0.930 . S
C1118 C1117 1.369 . S
C1118 C1127 1.429 . S
C1119 C1117 1.419 . S
C1119 C1120 1.363 . S
C1119 H1122 0.929 . S
C1120 C1119 1.363 . S
C1120 C1126 1.428 . S
H1121 C1117 0.930 . S
H1122 C1119 0.929 . S
S1123 N1124 1.613 . S
S1123 N1125 1.610 . S
N1124 S1123 1.613 . S
N1124 C1127 1.350 . S
N1125 S1123 1.610 . S
N1125 C1126 1.351 . S
C1126 C1120 1.428 . S
C1126 N1125 1.351 . S
C1126 C1127 1.434 . S
C1127 C1118 1.429 . S
C1127 N1124 1.350 . S
C1127 C1126 1.434 . S
C1128 C1129 1.369 . S
C1128 C1130 1.419 . S
C1128 H1132 0.930 . S
C1129 C1128 1.369 . S
C1129 C1138 1.429 . S
C1130 C1128 1.419 . S
C1130 C1131 1.363 . S
C1130 H1133 0.929 . S
C1131 C1130 1.363 . S
C1131 C1137 1.428 . S
H1132 C1128 0.930 . S
H1133 C1130 0.929 . S
S1134 N1135 1.613 1_554 S
S1134 N1136 1.610 . S
N1135 S1134 1.613 1_556 S
N1135 C1138 1.350 1_556 S
N1136 S1134 1.610 . S
N1136 C1137 1.351 . S
C1137 C1131 1.428 . S
C1137 N1136 1.351 . S
C1137 C1138 1.434 . S
C1138 C1129 1.429 . S
C1138 N1135 1.350 1_554 S
C1138 C1137 1.434 . S
C1139 C1140 1.369 . S
C1139 C1141 1.419 . S
C1139 H1143 0.930 . S
C1140 C1139 1.369 . S
C1140 C1149 1.429 . S
C1141 C1139 1.419 . S
C1141 C1142 1.363 . S
C1141 H1144 0.929 . S
C1142 C1141 1.363 . S
C1142 C1148 1.428 . S
H1143 C1139 0.930 . S
H1144 C1141 0.929 . S
S1145 N1146 1.613 1_556 S
S1145 N1147 1.610 1_556 S
N1146 S1145 1.613 1_554 S
N1146 C1149 1.350 . S
N1147 S1145 1.610 1_554 S
N1147 C1148 1.351 . S
C1148 C1142 1.428 . S
C1148 N1147 1.351 . S
C1148 C1149 1.434 . S
C1149 C1140 1.429 . S
C1149 N1146 1.350 . S
C1149 C1148 1.434 . S
C1150 C1151 1.369 . S
C1150 C1152 1.419 . S
C1150 H1154 0.930 . S
C1151 C1150 1.369 . S
C1151 C1160 1.429 . S
C1152 C1150 1.419 . S
C1152 C1153 1.363 . S
C1152 H1155 0.929 . S
C1153 C1152 1.363 . S
C1153 C1159 1.428 . S
H1154 C1150 0.930 . S
H1155 C1152 0.929 . S
S1156 N1157 1.613 . S
S1156 N1158 1.610 . S
N1157 S1156 1.613 . S
N1157 C1160 1.350 . S
N1158 S1156 1.610 . S
N1158 C1159 1.351 . S
C1159 C1153 1.428 . S
C1159 N1158 1.351 . S
C1159 C1160 1.434 . S
C1160 C1151 1.429 . S
C1160 N1157 1.350 . S
C1160 C1159 1.434 . S
C1161 C1162 1.369 . S
C1161 C1163 1.419 . S
C1161 H1165 0.930 . S
C1162 C1161 1.369 . S
C1162 C1171 1.429 . S
C1163 C1161 1.419 . S
C1163 C1164 1.363 . S
C1163 H1166 0.929 . S
C1164 C1163 1.363 . S
C1164 C1170 1.428 . S
H1165 C1161 0.930 . S
H1166 C1163 0.929 . S
S1167 N1168 1.613 . S
S1167 N1169 1.610 . S
N1168 S1167 1.613 . S
N1168 C1171 1.350 . S
N1169 S1167 1.610 . S
N1169 C1170 1.351 . S
C1170 C1164 1.428 . S
C1170 N1169 1.351 . S
C1170 C1171 1.434 . S
C1171 C1162 1.429 . S
C1171 N1168 1.350 . S
C1171 C1170 1.434 . S
C1172 C1173 1.369 . S
C1172 C1174 1.419 . S
C1172 H1176 0.930 . S
C1173 C1172 1.369 . S
C1173 C1182 1.429 . S
C1174 C1172 1.419 . S
C1174 C1175 1.363 . S
C1174 H1177 0.929 . S
C1175 C1174 1.363 . S
C1175 C1181 1.428 . S
H1176 C1172 0.930 . S
H1177 C1174 0.929 . S
S1178 N1179 1.613 . S
S1178 N1180 1.610 . S
N1179 S1178 1.613 . S
N1179 C1182 1.350 . S
N1180 S1178 1.610 . S
N1180 C1181 1.351 . S
C1181 C1175 1.428 . S
C1181 N1180 1.351 . S
C1181 C1182 1.434 . S
C1182 C1173 1.429 . S
C1182 N1179 1.350 . S
C1182 C1181 1.434 . S
C1183 C1184 1.369 . S
C1183 C1185 1.419 . S
C1183 H1187 0.930 . S
C1184 C1183 1.369 . S
C1184 C1193 1.429 . S
C1185 C1183 1.419 . S
C1185 C1186 1.363 . S
C1185 H1188 0.929 . S
C1186 C1185 1.363 . S
C1186 C1192 1.428 . S
H1187 C1183 0.930 . S
H1188 C1185 0.929 . S
S1189 N1190 1.613 . S
S1189 N1191 1.610 . S
N1190 S1189 1.613 . S
N1190 C1193 1.350 . S
N1191 S1189 1.610 . S
N1191 C1192 1.351 . S
C1192 C1186 1.428 . S
C1192 N1191 1.351 . S
C1192 C1193 1.434 . S
C1193 C1184 1.429 . S
C1193 N1190 1.350 . S
C1193 C1192 1.434 . S
C1194 C1195 1.369 . S
C1194 C1196 1.419 . S
C1194 H1198 0.930 . S
C1195 C1194 1.369 . S
C1195 C1204 1.429 . S
C1196 C1194 1.419 . S
C1196 C1197 1.363 . S
C1196 H1199 0.929 . S
C1197 C1196 1.363 . S
C1197 C1203 1.428 . S
H1198 C1194 0.930 . S
H1199 C1196 0.929 . S
S1200 N1201 1.613 . S
S1200 N1202 1.610 . S
N1201 S1200 1.613 . S
N1201 C1204 1.350 . S
N1202 S1200 1.610 . S
N1202 C1203 1.351 . S
C1203 C1197 1.428 . S
C1203 N1202 1.351 . S
C1203 C1204 1.434 . S
C1204 C1195 1.429 . S
C1204 N1201 1.350 . S
C1204 C1203 1.434 . S
C1205 C1206 1.369 . S
C1205 C1207 1.419 . S
C1205 H1209 0.930 . S
C1206 C1205 1.369 . S
C1206 C1215 1.429 . S
C1207 C1205 1.419 . S
C1207 C1208 1.363 . S
C1207 H1210 0.929 . S
C1208 C1207 1.363 . S
C1208 C1214 1.428 . S
H1209 C1205 0.930 . S
H1210 C1207 0.929 . S
S1211 N1212 1.613 . S
S1211 N1213 1.610 . S
N1212 S1211 1.613 . S
N1212 C1215 1.350 . S
N1213 S1211 1.610 . S
N1213 C1214 1.351 . S
C1214 C1208 1.428 . S
C1214 N1213 1.351 . S
C1214 C1215 1.434 . S
C1215 C1206 1.429 . S
C1215 N1212 1.350 . S
C1215 C1214 1.434 . S
C1216 C1217 1.369 . S
C1216 C1218 1.419 . S
C1216 H1220 0.930 . S
C1217 C1216 1.369 . S
C1217 C1226 1.429 . S
C1218 C1216 1.419 . S
C1218 C1219 1.363 . S
C1218 H1221 0.929 . S
C1219 C1218 1.363 . S
C1219 C1225 1.428 . S
H1220 C1216 0.930 . S
H1221 C1218 0.929 . S
S1222 N1223 1.613 . S
S1222 N1224 1.610 . S
N1223 S1222 1.613 . S
N1223 C1226 1.350 . S
N1224 S1222 1.610 . S
N1224 C1225 1.351 . S
C1225 C1219 1.428 . S
C1225 N1224 1.351 . S
C1225 C1226 1.434 . S
C1226 C1217 1.429 . S
C1226 N1223 1.350 . S
C1226 C1225 1.434 . S
C1227 C1228 1.369 . S
C1227 C1229 1.419 . S
C1227 H1231 0.930 . S
C1228 C1227 1.369 . S
C1228 C1237 1.429 . S
C1229 C1227 1.419 . S
C1229 C1230 1.363 . S
C1229 H1232 0.929 . S
C1230 C1229 1.363 . S
C1230 C1236 1.428 . S
H1231 C1227 0.930 . S
H1232 C1229 0.929 . S
S1233 N1234 1.613 . S
S1233 N1235 1.610 . S
N1234 S1233 1.613 . S
N1234 C1237 1.350 . S
N1235 S1233 1.610 . S
N1235 C1236 1.351 . S
C1236 C1230 1.428 . S
C1236 N1235 1.351 . S
C1236 C1237 1.434 . S
C1237 C1228 1.429 . S
C1237 N1234 1.350 . S
C1237 C1236 1.434 . S
C1238 C1239 1.369 . S
C1238 C1240 1.419 . S
C1238 H1242 0.930 . S
C1239 C1238 1.369 . S
C1239 C1248 1.429 . S
C1240 C1238 1.419 . S
C1240 C1241 1.363 . S
C1240 H1243 0.929 . S
C1241 C1240 1.363 . S
C1241 C1247 1.428 . S
H1242 C1238 0.930 . S
H1243 C1240 0.929 . S
S1244 N1245 1.613 . S
S1244 N1246 1.610 . S
N1245 S1244 1.613 . S
N1245 C1248 1.350 . S
N1246 S1244 1.610 . S
N1246 C1247 1.351 . S
C1247 C1241 1.428 . S
C1247 N1246 1.351 . S
C1247 C1248 1.434 . S
C1248 C1239 1.429 . S
C1248 N1245 1.350 . S
C1248 C1247 1.434 . S
C1249 C1250 1.369 . S
C1249 C1251 1.419 . S
C1249 H1253 0.930 . S
C1250 C1249 1.369 . S
C1250 C1259 1.429 . S
C1251 C1249 1.419 . S
C1251 C1252 1.363 . S
C1251 H1254 0.929 . S
C1252 C1251 1.363 . S
C1252 C1258 1.428 . S
H1253 C1249 0.930 . S
H1254 C1251 0.929 . S
S1255 N1256 1.613 . S
S1255 N1257 1.610 . S
N1256 S1255 1.613 . S
N1256 C1259 1.350 . S
N1257 S1255 1.610 . S
N1257 C1258 1.351 . S
C1258 C1252 1.428 . S
C1258 N1257 1.351 . S
C1258 C1259 1.434 . S
C1259 C1250 1.429 . S
C1259 N1256 1.350 . S
C1259 C1258 1.434 . S
C1260 C1261 1.369 1_655 S
C1260 C1262 1.419 . S
C1260 H1264 0.930 . S
C1261 C1260 1.369 1_455 S
C1261 C1270 1.429 . S
C1262 C1260 1.419 . S
C1262 C1263 1.363 . S
C1262 H1265 0.929 . S
C1263 C1262 1.363 . S
C1263 C1269 1.428 1_655 S
H1264 C1260 0.930 . S
H1265 C1262 0.929 . S
S1266 N1267 1.613 . S
S1266 N1268 1.610 . S
N1267 S1266 1.613 . S
N1267 C1270 1.350 . S
N1268 S1266 1.610 . S
N1268 C1269 1.351 . S
C1269 C1263 1.428 1_455 S
C1269 N1268 1.351 . S
C1269 C1270 1.434 . S
C1270 C1261 1.429 . S
C1270 N1267 1.350 . S
C1270 C1269 1.434 . S
C1271 C1272 1.369 . S
C1271 C1273 1.419 . S
C1271 H1275 0.930 . S
C1272 C1271 1.369 . S
C1272 C1281 1.429 . S
C1273 C1271 1.419 . S
C1273 C1274 1.363 . S
C1273 H1276 0.929 . S
C1274 C1273 1.363 . S
C1274 C1280 1.428 . S
H1275 C1271 0.930 . S
H1276 C1273 0.929 . S
S1277 N1278 1.613 . S
S1277 N1279 1.610 . S
N1278 S1277 1.613 . S
N1278 C1281 1.350 . S
N1279 S1277 1.610 . S
N1279 C1280 1.351 . S
C1280 C1274 1.428 . S
C1280 N1279 1.351 . S
C1280 C1281 1.434 . S
C1281 C1272 1.429 . S
C1281 N1278 1.350 . S
C1281 C1280 1.434 . S
C1282 C1283 1.369 1_554 S
C1282 C1284 1.419 . S
C1282 H1286 0.930 . S
C1283 C1282 1.369 1_556 S
C1283 C1292 1.429 . S
C1284 C1282 1.419 . S
C1284 C1285 1.363 . S
C1284 H1287 0.929 . S
C1285 C1284 1.363 . S
C1285 C1291 1.428 . S
H1286 C1282 0.930 . S
H1287 C1284 0.929 . S
S1288 N1289 1.613 . S
S1288 N1290 1.610 1_556 S
N1289 S1288 1.613 . S
N1289 C1292 1.350 . S
N1290 S1288 1.610 1_554 S
N1290 C1291 1.351 . S
C1291 C1285 1.428 . S
C1291 N1290 1.351 . S
C1291 C1292 1.434 1_554 S
C1292 C1283 1.429 . S
C1292 N1289 1.350 . S
C1292 C1291 1.434 1_556 S
C1293 C1294 1.369 1_655 S
C1293 C1295 1.419 . S
C1293 H1297 0.930 . S
C1294 C1293 1.369 1_455 S
C1294 C1303 1.429 . S
C1295 C1293 1.419 . S
C1295 C1296 1.363 . S
C1295 H1298 0.929 . S
C1296 C1295 1.363 . S
C1296 C1302 1.429 1_655 S
H1297 C1293 0.930 . S
H1298 C1295 0.929 . S
S1299 N1300 1.613 . S
S1299 N1301 1.610 . S
N1300 S1299 1.613 . S
N1300 C1303 1.350 . S
N1301 S1299 1.610 . S
N1301 C1302 1.351 . S
C1302 C1296 1.429 1_455 S
C1302 N1301 1.351 . S
C1302 C1303 1.433 . S
C1303 C1294 1.429 . S
C1303 N1300 1.350 . S
C1303 C1302 1.433 . S
C1304 C1305 1.369 . S
C1304 C1306 1.419 . S
C1304 H1308 0.930 . S
C1305 C1304 1.369 . S
C1305 C1314 1.429 . S
C1306 C1304 1.419 . S
C1306 C1307 1.363 . S
C1306 H1309 0.929 . S
C1307 C1306 1.363 . S
C1307 C1313 1.428 . S
H1308 C1304 0.930 . S
H1309 C1306 0.929 . S
S1310 N1311 1.613 1_554 S
S1310 N1312 1.610 . S
N1311 S1310 1.613 1_556 S
N1311 C1314 1.350 . S
N1312 S1310 1.610 . S
N1312 C1313 1.351 1_554 S
C1313 C1307 1.428 . S
C1313 N1312 1.351 1_556 S
C1313 C1314 1.434 . S
C1314 C1305 1.429 . S
C1314 N1311 1.350 . S
C1314 C1313 1.434 . S
C1315 C1316 1.369 . S
C1315 C1317 1.419 . S
C1315 H1319 0.930 . S
C1316 C1315 1.369 . S
C1316 C1325 1.429 . S
C1317 C1315 1.419 . S
C1317 C1318 1.363 . S
C1317 H1320 0.929 . S
C1318 C1317 1.363 . S
C1318 C1324 1.428 . S
H1319 C1315 0.930 . S
H1320 C1317 0.929 . S
S1321 N1322 1.613 . S
S1321 N1323 1.610 . S
N1322 S1321 1.613 . S
N1322 C1325 1.350 . S
N1323 S1321 1.610 . S
N1323 C1324 1.351 . S
C1324 C1318 1.428 . S
C1324 N1323 1.351 . S
C1324 C1325 1.434 . S
C1325 C1316 1.429 . S
C1325 N1322 1.350 . S
C1325 C1324 1.434 . S
C1326 C1327 1.369 . S
C1326 C1328 1.419 . S
C1326 H1330 0.930 . S
C1327 C1326 1.369 . S
C1327 C1336 1.429 . S
C1328 C1326 1.419 . S
C1328 C1329 1.363 . S
C1328 H1331 0.929 . S
C1329 C1328 1.363 . S
C1329 C1335 1.428 . S
H1330 C1326 0.930 . S
H1331 C1328 0.929 . S
S1332 N1333 1.613 . S
S1332 N1334 1.610 . S
N1333 S1332 1.613 . S
N1333 C1336 1.350 . S
N1334 S1332 1.610 . S
N1334 C1335 1.351 . S
C1335 C1329 1.428 . S
C1335 N1334 1.351 . S
C1335 C1336 1.434 . S
C1336 C1327 1.429 . S
C1336 N1333 1.350 . S
C1336 C1335 1.434 . S
C1337 C1338 1.369 . S
C1337 C1339 1.419 . S
C1337 H1341 0.930 . S
C1338 C1337 1.369 . S
C1338 C1347 1.429 . S
C1339 C1337 1.419 . S
C1339 C1340 1.363 . S
C1339 H1342 0.929 . S
C1340 C1339 1.363 . S
C1340 C1346 1.428 . S
H1341 C1337 0.930 . S
H1342 C1339 0.929 . S
S1343 N1344 1.613 . S
S1343 N1345 1.610 . S
N1344 S1343 1.613 . S
N1344 C1347 1.350 . S
N1345 S1343 1.610 . S
N1345 C1346 1.351 . S
C1346 C1340 1.428 . S
C1346 N1345 1.351 . S
C1346 C1347 1.434 . S
C1347 C1338 1.429 . S
C1347 N1344 1.350 . S
C1347 C1346 1.434 . S
C1348 C1349 1.369 . S
C1348 C1350 1.419 . S
C1348 H1352 0.930 . S
C1349 C1348 1.369 . S
C1349 C1358 1.429 . S
C1350 C1348 1.419 . S
C1350 C1351 1.363 . S
C1350 H1353 0.929 . S
C1351 C1350 1.363 . S
C1351 C1357 1.428 . S
H1352 C1348 0.930 . S
H1353 C1350 0.929 . S
S1354 N1355 1.613 1_565 S
S1354 N1356 1.610 1_565 S
N1355 S1354 1.613 1_545 S
N1355 C1358 1.350 . S
N1356 S1354 1.610 1_545 S
N1356 C1357 1.351 . S
C1357 C1351 1.428 . S
C1357 N1356 1.351 . S
C1357 C1358 1.434 . S
C1358 C1349 1.429 . S
C1358 N1355 1.350 . S
C1358 C1357 1.434 . S
C1359 C1360 1.369 . S
C1359 C1361 1.419 . S
C1359 H1363 0.930 . S
C1360 C1359 1.369 . S
C1360 C1369 1.429 . S
C1361 C1359 1.419 . S
C1361 C1362 1.363 . S
C1361 H1364 0.929 . S
C1362 C1361 1.363 . S
C1362 C1368 1.428 . S
H1363 C1359 0.930 . S
H1364 C1361 0.929 . S
S1365 N1366 1.613 . S
S1365 N1367 1.610 . S
N1366 S1365 1.613 . S
N1366 C1369 1.350 . S
N1367 S1365 1.610 . S
N1367 C1368 1.351 . S
C1368 C1362 1.428 . S
C1368 N1367 1.351 . S
C1368 C1369 1.434 . S
C1369 C1360 1.429 . S
C1369 N1366 1.350 . S
C1369 C1368 1.434 . S
C1370 C1371 1.369 . S
C1370 C1372 1.419 . S
C1370 H1374 0.930 1_545 S
C1371 C1370 1.369 . S
C1371 C1380 1.429 . S
C1372 C1370 1.419 . S
C1372 C1373 1.363 . S
C1372 H1375 0.929 1_545 S
C1373 C1372 1.363 . S
C1373 C1379 1.428 . S
H1374 C1370 0.930 1_565 S
H1375 C1372 0.929 1_565 S
S1376 N1377 1.613 . S
S1376 N1378 1.610 . S
N1377 S1376 1.613 . S
N1377 C1380 1.350 . S
N1378 S1376 1.610 . S
N1378 C1379 1.351 . S
C1379 C1373 1.428 . S
C1379 N1378 1.351 . S
C1379 C1380 1.434 . S
C1380 C1371 1.429 . S
C1380 N1377 1.350 . S
C1380 C1379 1.434 . S
C1381 C1382 1.369 . S
C1381 C1383 1.419 . S
C1381 H1385 0.930 . S
C1382 C1381 1.369 . S
C1382 C1391 1.429 1_556 S
C1383 C1381 1.419 . S
C1383 C1384 1.363 . S
C1383 H1386 0.929 . S
C1384 C1383 1.363 . S
C1384 C1390 1.428 . S
H1385 C1381 0.930 . S
H1386 C1383 0.929 . S
S1387 N1388 1.613 . S
S1387 N1389 1.610 1_554 S
N1388 S1387 1.613 . S
N1388 C1391 1.350 . S
N1389 S1387 1.610 1_556 S
N1389 C1390 1.351 . S
C1390 C1384 1.428 . S
C1390 N1389 1.351 . S
C1390 C1391 1.434 1_556 S
C1391 C1382 1.429 1_554 S
C1391 N1388 1.350 . S
C1391 C1390 1.434 1_554 S
C1392 C1393 1.369 . S
C1392 C1394 1.419 . S
C1392 H1396 0.930 . S
C1393 C1392 1.369 . S
C1393 C1402 1.429 . S
C1394 C1392 1.419 . S
C1394 C1395 1.363 . S
C1394 H1397 0.929 . S
C1395 C1394 1.363 . S
C1395 C1401 1.428 . S
H1396 C1392 0.930 . S
H1397 C1394 0.929 . S
S1398 N1399 1.613 . S
S1398 N1400 1.610 . S
N1399 S1398 1.613 . S
N1399 C1402 1.350 . S
N1400 S1398 1.610 . S
N1400 C1401 1.351 . S
C1401 C1395 1.428 . S
C1401 N1400 1.351 . S
C1401 C1402 1.434 . S
C1402 C1393 1.429 . S
C1402 N1399 1.350 . S
C1402 C1401 1.434 . S
C1403 C1404 1.369 . S
C1403 C1405 1.419 . S
C1403 H1407 0.930 . S
C1404 C1403 1.369 . S
C1404 C1413 1.429 . S
C1405 C1403 1.419 . S
C1405 C1406 1.363 . S
C1405 H1408 0.929 . S
C1406 C1405 1.363 . S
C1406 C1412 1.428 . S
H1407 C1403 0.930 . S
H1408 C1405 0.929 . S
S1409 N1410 1.613 . S
S1409 N1411 1.610 . S
N1410 S1409 1.613 . S
N1410 C1413 1.350 . S
N1411 S1409 1.610 . S
N1411 C1412 1.351 . S
C1412 C1406 1.428 . S
C1412 N1411 1.351 . S
C1412 C1413 1.434 . S
C1413 C1404 1.429 . S
C1413 N1410 1.350 . S
C1413 C1412 1.434 . S
C1414 C1415 1.369 . S
C1414 C1416 1.419 . S
C1414 H1418 0.930 . S
C1415 C1414 1.369 . S
C1415 C1424 1.429 . S
C1416 C1414 1.419 . S
C1416 C1417 1.363 . S
C1416 H1419 0.929 . S
C1417 C1416 1.363 . S
C1417 C1423 1.428 . S
H1418 C1414 0.930 . S
H1419 C1416 0.929 . S
S1420 N1421 1.613 . S
S1420 N1422 1.610 . S
N1421 S1420 1.613 . S
N1421 C1424 1.350 . S
N1422 S1420 1.610 . S
N1422 C1423 1.351 . S
C1423 C1417 1.428 . S
C1423 N1422 1.351 . S
C1423 C1424 1.434 . S
C1424 C1415 1.429 . S
C1424 N1421 1.350 . S
C1424 C1423 1.434 . S
C1425 C1426 1.369 . S
C1425 C1427 1.419 . S
C1425 H1429 0.930 . S
C1426 C1425 1.369 . S
C1426 C1435 1.429 . S
C1427 C1425 1.419 . S
C1427 C1428 1.363 . S
C1427 H1430 0.929 . S
C1428 C1427 1.363 . S
C1428 C1434 1.428 . S
H1429 C1425 0.930 . S
H1430 C1427 0.929 . S
S1431 N1432 1.613 . S
S1431 N1433 1.610 . S
N1432 S1431 1.613 . S
N1432 C1435 1.350 . S
N1433 S1431 1.610 . S
N1433 C1434 1.351 . S
C1434 C1428 1.428 . S
C1434 N1433 1.351 . S
C1434 C1435 1.434 . S
C1435 C1426 1.429 . S
C1435 N1432 1.350 . S
C1435 C1434 1.434 . S
C1436 C1437 1.369 . S
C1436 C1438 1.419 . S
C1436 H1440 0.930 . S
C1437 C1436 1.369 . S
C1437 C1446 1.429 . S
C1438 C1436 1.419 . S
C1438 C1439 1.363 . S
C1438 H1441 0.929 . S
C1439 C1438 1.363 . S
C1439 C1445 1.428 . S
H1440 C1436 0.930 . S
H1441 C1438 0.929 . S
S1442 N1443 1.613 . S
S1442 N1444 1.610 . S
N1443 S1442 1.613 . S
N1443 C1446 1.350 . S
N1444 S1442 1.610 . S
N1444 C1445 1.351 . S
C1445 C1439 1.428 . S
C1445 N1444 1.351 . S
C1445 C1446 1.434 . S
C1446 C1437 1.429 . S
C1446 N1443 1.350 . S
C1446 C1445 1.434 . S
C1447 C1448 1.369 . S
C1447 C1449 1.419 . S
C1447 H1451 0.930 . S
C1448 C1447 1.369 . S
C1448 C1457 1.429 . S
C1449 C1447 1.419 . S
C1449 C1450 1.363 . S
C1449 H1452 0.929 . S
C1450 C1449 1.363 . S
C1450 C1456 1.428 . S
H1451 C1447 0.930 . S
H1452 C1449 0.929 . S
S1453 N1454 1.613 . S
S1453 N1455 1.610 . S
N1454 S1453 1.613 . S
N1454 C1457 1.350 . S
N1455 S1453 1.610 . S
N1455 C1456 1.351 . S
C1456 C1450 1.428 . S
C1456 N1455 1.351 . S
C1456 C1457 1.434 . S
C1457 C1448 1.429 . S
C1457 N1454 1.350 . S
C1457 C1456 1.434 . S
C1458 C1459 1.369 . S
C1458 C1460 1.419 . S
C1458 H1462 0.930 . S
C1459 C1458 1.369 . S
C1459 C1468 1.429 . S
C1460 C1458 1.419 . S
C1460 C1461 1.363 . S
C1460 H1463 0.929 . S
C1461 C1460 1.363 . S
C1461 C1467 1.428 . S
H1462 C1458 0.930 . S
H1463 C1460 0.929 . S
S1464 N1465 1.613 . S
S1464 N1466 1.610 . S
N1465 S1464 1.613 . S
N1465 C1468 1.350 . S
N1466 S1464 1.610 . S
N1466 C1467 1.351 . S
C1467 C1461 1.428 . S
C1467 N1466 1.351 . S
C1467 C1468 1.434 . S
C1468 C1459 1.429 . S
C1468 N1465 1.350 . S
C1468 C1467 1.434 . S
C1469 C1470 1.369 . S
C1469 C1471 1.419 . S
C1469 H1473 0.930 . S
C1470 C1469 1.369 . S
C1470 C1479 1.429 . S
C1471 C1469 1.419 . S
C1471 C1472 1.363 . S
C1471 H1474 0.929 . S
C1472 C1471 1.363 . S
C1472 C1478 1.428 . S
H1473 C1469 0.930 . S
H1474 C1471 0.929 . S
S1475 N1476 1.613 . S
S1475 N1477 1.610 . S
N1476 S1475 1.613 . S
N1476 C1479 1.350 . S
N1477 S1475 1.610 . S
N1477 C1478 1.351 . S
C1478 C1472 1.428 . S
C1478 N1477 1.351 . S
C1478 C1479 1.434 . S
C1479 C1470 1.429 . S
C1479 N1476 1.350 . S
C1479 C1478 1.434 . S
C1480 C1481 1.369 . S
C1480 C1482 1.419 . S
C1480 H1484 0.930 . S
C1481 C1480 1.369 . S
C1481 C1490 1.429 . S
C1482 C1480 1.419 . S
C1482 C1483 1.363 . S
C1482 H1485 0.929 . S
C1483 C1482 1.363 . S
C1483 C1489 1.428 . S
H1484 C1480 0.930 . S
H1485 C1482 0.929 . S
S1486 N1487 1.613 . S
S1486 N1488 1.610 . S
N1487 S1486 1.613 . S
N1487 C1490 1.350 . S
N1488 S1486 1.610 . S
N1488 C1489 1.351 . S
C1489 C1483 1.428 . S
C1489 N1488 1.351 . S
C1489 C1490 1.434 . S
C1490 C1481 1.429 . S
C1490 N1487 1.350 . S
C1490 C1489 1.434 . S
C1491 C1492 1.369 . S
C1491 C1493 1.419 . S
C1491 H1495 0.930 . S
C1492 C1491 1.369 . S
C1492 C1501 1.429 . S
C1493 C1491 1.419 . S
C1493 C1494 1.363 . S
C1493 H1496 0.929 . S
C1494 C1493 1.363 . S
C1494 C1500 1.428 . S
H1495 C1491 0.930 . S
H1496 C1493 0.929 . S
S1497 N1498 1.613 . S
S1497 N1499 1.610 . S
N1498 S1497 1.613 . S
N1498 C1501 1.350 . S
N1499 S1497 1.610 . S
N1499 C1500 1.351 . S
C1500 C1494 1.428 . S
C1500 N1499 1.351 . S
C1500 C1501 1.434 . S
C1501 C1492 1.429 . S
C1501 N1498 1.350 . S
C1501 C1500 1.434 . S
C1502 C1503 1.369 . S
C1502 C1504 1.419 . S
C1502 H1506 0.930 . S
C1503 C1502 1.369 . S
C1503 C1512 1.429 . S
C1504 C1502 1.419 . S
C1504 C1505 1.363 . S
C1504 H1507 0.929 . S
C1505 C1504 1.363 . S
C1505 C1511 1.428 . S
H1506 C1502 0.930 . S
H1507 C1504 0.929 . S
S1508 N1509 1.613 . S
S1508 N1510 1.610 1_556 S
N1509 S1508 1.613 . S
N1509 C1512 1.350 1_656 S
N1510 S1508 1.610 1_554 S
N1510 C1511 1.351 1_655 S
C1511 C1505 1.428 . S
C1511 N1510 1.351 1_455 S
C1511 C1512 1.434 . S
C1512 C1503 1.429 . S
C1512 N1509 1.350 1_454 S
C1512 C1511 1.434 . S
C1513 C1514 1.369 . S
C1513 C1515 1.419 . S
C1513 H1517 0.930 . S
C1514 C1513 1.369 . S
C1514 C1523 1.429 . S
C1515 C1513 1.419 . S
C1515 C1516 1.363 . S
C1515 H1518 0.929 . S
C1516 C1515 1.363 . S
C1516 C1522 1.428 . S
H1517 C1513 0.930 . S
H1518 C1515 0.929 . S
S1519 N1520 1.613 . S
S1519 N1521 1.610 1_455 S
N1520 S1519 1.613 . S
N1520 C1523 1.350 1_455 S
N1521 S1519 1.610 1_655 S
N1521 C1522 1.351 . S
C1522 C1516 1.428 . S
C1522 N1521 1.351 . S
C1522 C1523 1.434 . S
C1523 C1514 1.429 . S
C1523 N1520 1.350 1_655 S
C1523 C1522 1.434 . S
C1524 C1525 1.369 . S
C1524 C1526 1.419 . S
C1524 H1528 0.930 . S
C1525 C1524 1.369 . S
C1525 C1534 1.429 . S
C1526 C1524 1.419 . S
C1526 C1527 1.363 . S
C1526 H1529 0.929 . S
C1527 C1526 1.363 . S
C1527 C1533 1.428 . S
H1528 C1524 0.930 . S
H1529 C1526 0.929 . S
S1530 N1531 1.613 . S
S1530 N1532 1.610 . S
N1531 S1530 1.613 . S
N1531 C1534 1.350 . S
N1532 S1530 1.610 . S
N1532 C1533 1.351 . S
C1533 C1527 1.428 . S
C1533 N1532 1.351 . S
C1533 C1534 1.434 . S
C1534 C1525 1.429 . S
C1534 N1531 1.350 . S
C1534 C1533 1.434 . S
C1535 C1536 1.369 . S
C1535 C1537 1.419 . S
C1535 H1539 0.930 . S
C1536 C1535 1.369 . S
C1536 C1545 1.429 . S
C1537 C1535 1.419 . S
C1537 C1538 1.363 . S
C1537 H1540 0.929 . S
C1538 C1537 1.363 . S
C1538 C1544 1.428 . S
H1539 C1535 0.930 . S
H1540 C1537 0.929 . S
S1541 N1542 1.613 . S
S1541 N1543 1.610 . S
N1542 S1541 1.613 . S
N1542 C1545 1.350 . S
N1543 S1541 1.610 . S
N1543 C1544 1.351 . S
C1544 C1538 1.428 . S
C1544 N1543 1.351 . S
C1544 C1545 1.434 . S
C1545 C1536 1.429 . S
C1545 N1542 1.350 . S
C1545 C1544 1.434 . S
C1546 C1547 1.369 . S
C1546 C1548 1.419 . S
C1546 H1550 0.930 . S
C1547 C1546 1.369 . S
C1547 C1556 1.429 . S
C1548 C1546 1.419 . S
C1548 C1549 1.363 . S
C1548 H1551 0.929 . S
C1549 C1548 1.363 . S
C1549 C1555 1.428 . S
H1550 C1546 0.930 . S
H1551 C1548 0.929 . S
S1552 N1553 1.613 . S
S1552 N1554 1.610 . S
N1553 S1552 1.613 . S
N1553 C1556 1.350 . S
N1554 S1552 1.610 . S
N1554 C1555 1.351 . S
C1555 C1549 1.428 . S
C1555 N1554 1.351 . S
C1555 C1556 1.434 . S
C1556 C1547 1.429 . S
C1556 N1553 1.350 . S
C1556 C1555 1.434 . S
C1557 C1558 1.369 . S
C1557 C1559 1.419 . S
C1557 H1561 0.930 . S
C1558 C1557 1.369 . S
C1558 C1567 1.429 . S
C1559 C1557 1.419 . S
C1559 C1560 1.363 . S
C1559 H1562 0.929 . S
C1560 C1559 1.363 . S
C1560 C1566 1.428 . S
H1561 C1557 0.930 . S
H1562 C1559 0.929 . S
S1563 N1564 1.613 . S
S1563 N1565 1.610 . S
N1564 S1563 1.613 . S
N1564 C1567 1.350 . S
N1565 S1563 1.610 . S
N1565 C1566 1.351 . S
C1566 C1560 1.428 . S
C1566 N1565 1.351 . S
C1566 C1567 1.434 . S
C1567 C1558 1.429 . S
C1567 N1564 1.350 . S
C1567 C1566 1.434 . S
C1568 C1569 1.369 . S
C1568 C1570 1.419 . S
C1568 H1572 0.930 . S
C1569 C1568 1.369 . S
C1569 C1578 1.429 . S
C1570 C1568 1.419 . S
C1570 C1571 1.363 . S
C1570 H1573 0.929 . S
C1571 C1570 1.363 . S
C1571 C1577 1.428 . S
H1572 C1568 0.930 . S
H1573 C1570 0.929 . S
S1574 N1575 1.613 . S
S1574 N1576 1.610 . S
N1575 S1574 1.613 . S
N1575 C1578 1.350 . S
N1576 S1574 1.610 . S
N1576 C1577 1.351 . S
C1577 C1571 1.428 . S
C1577 N1576 1.351 . S
C1577 C1578 1.434 . S
C1578 C1569 1.429 . S
C1578 N1575 1.350 . S
C1578 C1577 1.434 . S
C1579 C1580 1.369 . S
C1579 C1581 1.419 . S
C1579 H1583 0.930 . S
C1580 C1579 1.369 . S
C1580 C1589 1.429 . S
C1581 C1579 1.419 . S
C1581 C1582 1.363 . S
C1581 H1584 0.929 . S
C1582 C1581 1.363 . S
C1582 C1588 1.428 . S
H1583 C1579 0.930 . S
H1584 C1581 0.929 . S
S1585 N1586 1.613 . S
S1585 N1587 1.610 . S
N1586 S1585 1.613 . S
N1586 C1589 1.350 . S
N1587 S1585 1.610 . S
N1587 C1588 1.351 . S
C1588 C1582 1.428 . S
C1588 N1587 1.351 . S
C1588 C1589 1.434 . S
C1589 C1580 1.429 . S
C1589 N1586 1.350 . S
C1589 C1588 1.434 . S
C1590 C1591 1.369 . S
C1590 C1592 1.419 . S
C1590 H1594 0.930 . S
C1591 C1590 1.369 . S
C1591 C1600 1.429 . S
C1592 C1590 1.419 . S
C1592 C1593 1.363 . S
C1592 H1595 0.929 . S
C1593 C1592 1.363 . S
C1593 C1599 1.428 . S
H1594 C1590 0.930 . S
H1595 C1592 0.929 . S
S1596 N1597 1.613 . S
S1596 N1598 1.610 . S
N1597 S1596 1.613 . S
N1597 C1600 1.350 . S
N1598 S1596 1.610 . S
N1598 C1599 1.351 . S
C1599 C1593 1.428 . S
C1599 N1598 1.351 . S
C1599 C1600 1.434 . S
C1600 C1591 1.429 . S
C1600 N1597 1.350 . S
C1600 C1599 1.434 . S
C1601 C1602 1.369 . S
C1601 C1603 1.419 . S
C1601 H1605 0.930 . S
C1602 C1601 1.369 . S
C1602 C1611 1.429 . S
C1603 C1601 1.419 . S
C1603 C1604 1.363 . S
C1603 H1606 0.929 . S
C1604 C1603 1.363 . S
C1604 C1610 1.428 . S
H1605 C1601 0.930 . S
H1606 C1603 0.929 . S
S1607 N1608 1.613 . S
S1607 N1609 1.610 . S
N1608 S1607 1.613 . S
N1608 C1611 1.350 . S
N1609 S1607 1.610 . S
N1609 C1610 1.351 . S
C1610 C1604 1.428 . S
C1610 N1609 1.351 . S
C1610 C1611 1.434 . S
C1611 C1602 1.429 . S
C1611 N1608 1.350 . S
C1611 C1610 1.434 . S
C1612 C1613 1.369 . S
C1612 C1614 1.419 . S
C1612 H1616 0.930 . S
C1613 C1612 1.369 . S
C1613 C1622 1.429 . S
C1614 C1612 1.419 . S
C1614 C1615 1.363 . S
C1614 H1617 0.929 . S
C1615 C1614 1.363 . S
C1615 C1621 1.428 . S
H1616 C1612 0.930 . S
H1617 C1614 0.929 . S
S1618 N1619 1.613 . S
S1618 N1620 1.610 . S
N1619 S1618 1.613 . S
N1619 C1622 1.350 . S
N1620 S1618 1.610 . S
N1620 C1621 1.351 . S
C1621 C1615 1.428 . S
C1621 N1620 1.351 . S
C1621 C1622 1.434 . S
C1622 C1613 1.429 . S
C1622 N1619 1.350 . S
C1622 C1621 1.434 . S
C1623 C1624 1.369 . S
C1623 C1625 1.419 . S
C1623 H1627 0.930 . S
C1624 C1623 1.369 . S
C1624 C1633 1.429 . S
C1625 C1623 1.419 . S
C1625 C1626 1.363 . S
C1625 H1628 0.929 . S
C1626 C1625 1.363 . S
C1626 C1632 1.428 . S
H1627 C1623 0.930 . S
H1628 C1625 0.929 . S
S1629 N1630 1.613 . S
S1629 N1631 1.610 . S
N1630 S1629 1.613 . S
N1630 C1633 1.350 . S
N1631 S1629 1.610 . S
N1631 C1632 1.351 . S
C1632 C1626 1.428 . S
C1632 N1631 1.351 . S
C1632 C1633 1.434 . S
C1633 C1624 1.429 . S
C1633 N1630 1.350 . S
C1633 C1632 1.434 . S
C1634 C1635 1.369 . S
C1634 C1636 1.419 . S
C1634 H1638 0.930 . S
C1635 C1634 1.369 . S
C1635 C1644 1.429 . S
C1636 C1634 1.419 . S
C1636 C1637 1.363 . S
C1636 H1639 0.929 . S
C1637 C1636 1.363 . S
C1637 C1643 1.428 . S
H1638 C1634 0.930 . S
H1639 C1636 0.929 . S
S1640 N1641 1.613 . S
S1640 N1642 1.610 . S
N1641 S1640 1.613 . S
N1641 C1644 1.350 . S
N1642 S1640 1.610 . S
N1642 C1643 1.351 . S
C1643 C1637 1.428 . S
C1643 N1642 1.351 . S
C1643 C1644 1.434 . S
C1644 C1635 1.429 . S
C1644 N1641 1.350 . S
C1644 C1643 1.434 . S
C1645 C1646 1.369 . S
C1645 C1647 1.419 . S
C1645 H1649 0.930 . S
C1646 C1645 1.369 . S
C1646 C1655 1.429 . S
C1647 C1645 1.419 . S
C1647 C1648 1.363 . S
C1647 H1650 0.929 . S
C1648 C1647 1.363 . S
C1648 C1654 1.428 . S
H1649 C1645 0.930 . S
H1650 C1647 0.929 . S
S1651 N1652 1.613 . S
S1651 N1653 1.610 . S
N1652 S1651 1.613 . S
N1652 C1655 1.350 . S
N1653 S1651 1.610 . S
N1653 C1654 1.351 . S
C1654 C1648 1.428 . S
C1654 N1653 1.351 . S
C1654 C1655 1.434 . S
C1655 C1646 1.429 . S
C1655 N1652 1.350 . S
C1655 C1654 1.434 . S
C1656 C1657 1.369 . S
C1656 C1658 1.419 . S
C1656 H1660 0.930 . S
C1657 C1656 1.369 . S
C1657 C1666 1.429 . S
C1658 C1656 1.419 . S
C1658 C1659 1.363 . S
C1658 H1661 0.929 . S
C1659 C1658 1.363 . S
C1659 C1665 1.428 . S
H1660 C1656 0.930 . S
H1661 C1658 0.929 . S
S1662 N1663 1.613 . S
S1662 N1664 1.610 . S
N1663 S1662 1.613 . S
N1663 C1666 1.350 . S
N1664 S1662 1.610 . S
N1664 C1665 1.351 . S
C1665 C1659 1.428 . S
C1665 N1664 1.351 . S
C1665 C1666 1.434 . S
C1666 C1657 1.429 . S
C1666 N1663 1.350 . S
C1666 C1665 1.434 . S
C1667 C1668 1.369 . S
C1667 C1669 1.419 . S
C1667 H1671 0.930 . S
C1668 C1667 1.369 . S
C1668 C1677 1.429 . S
C1669 C1667 1.419 . S
C1669 C1670 1.363 . S
C1669 H1672 0.929 . S
C1670 C1669 1.363 . S
C1670 C1676 1.428 . S
H1671 C1667 0.930 . S
H1672 C1669 0.929 . S
S1673 N1674 1.613 . S
S1673 N1675 1.610 . S
N1674 S1673 1.613 . S
N1674 C1677 1.350 . S
N1675 S1673 1.610 . S
N1675 C1676 1.351 . S
C1676 C1670 1.428 . S
C1676 N1675 1.351 . S
C1676 C1677 1.434 . S
C1677 C1668 1.429 . S
C1677 N1674 1.350 . S
C1677 C1676 1.434 . S
C1678 C1679 1.369 1_565 S
C1678 C1680 1.419 . S
C1678 H1682 0.930 . S
C1679 C1678 1.369 1_545 S
C1679 C1688 1.429 . S
C1680 C1678 1.419 . S
C1680 C1681 1.363 . S
C1680 H1683 0.929 . S
C1681 C1680 1.363 . S
C1681 C1687 1.428 . S
H1682 C1678 0.930 . S
H1683 C1680 0.929 . S
S1684 N1685 1.613 . S
S1684 N1686 1.610 1_545 S
N1685 S1684 1.613 . S
N1685 C1688 1.350 . S
N1686 S1684 1.610 1_565 S
N1686 C1687 1.351 . S
C1687 C1681 1.428 . S
C1687 N1686 1.351 . S
C1687 C1688 1.434 1_565 S
C1688 C1679 1.429 . S
C1688 N1685 1.350 . S
C1688 C1687 1.434 1_545 S
C1689 C1690 1.369 . S
C1689 C1691 1.419 . S
C1689 H1693 0.930 . S
C1690 C1689 1.369 . S
C1690 C1699 1.429 . S
C1691 C1689 1.419 . S
C1691 C1692 1.363 . S
C1691 H1694 0.929 . S
C1692 C1691 1.363 . S
C1692 C1698 1.428 . S
H1693 C1689 0.930 . S
H1694 C1691 0.929 . S
S1695 N1696 1.613 . S
S1695 N1697 1.610 1_556 S
N1696 S1695 1.613 . S
N1696 C1699 1.350 1_556 S
N1697 S1695 1.610 1_554 S
N1697 C1698 1.351 . S
C1698 C1692 1.428 . S
C1698 N1697 1.351 . S
C1698 C1699 1.434 . S
C1699 C1690 1.429 . S
C1699 N1696 1.350 1_554 S
C1699 C1698 1.434 . S
C1700 C1701 1.369 . S
C1700 C1702 1.419 . S
C1700 H1704 0.930 . S
C1701 C1700 1.369 . S
C1701 C1710 1.429 . S
C1702 C1700 1.419 . S
C1702 C1703 1.363 . S
C1702 H1705 0.929 . S
C1703 C1702 1.363 . S
C1703 C1709 1.428 . S
H1704 C1700 0.930 . S
H1705 C1702 0.929 . S
S1706 N1707 1.613 . S
S1706 N1708 1.610 . S
N1707 S1706 1.613 . S
N1707 C1710 1.350 . S
N1708 S1706 1.610 . S
N1708 C1709 1.351 . S
C1709 C1703 1.428 . S
C1709 N1708 1.351 . S
C1709 C1710 1.434 . S
C1710 C1701 1.429 . S
C1710 N1707 1.350 . S
C1710 C1709 1.434 . S
C1711 C1712 1.369 . S
C1711 C1713 1.419 . S
C1711 H1715 0.930 . S
C1712 C1711 1.369 . S
C1712 C1721 1.429 . S
C1713 C1711 1.419 . S
C1713 C1714 1.363 . S
C1713 H1716 0.929 . S
C1714 C1713 1.363 . S
C1714 C1720 1.428 . S
H1715 C1711 0.930 . S
H1716 C1713 0.929 . S
S1717 N1718 1.613 . S
S1717 N1719 1.610 . S
N1718 S1717 1.613 . S
N1718 C1721 1.350 . S
N1719 S1717 1.610 . S
N1719 C1720 1.351 . S
C1720 C1714 1.428 . S
C1720 N1719 1.351 . S
C1720 C1721 1.434 . S
C1721 C1712 1.429 . S
C1721 N1718 1.350 . S
C1721 C1720 1.434 . S
C1722 C1723 1.369 . S
C1722 C1724 1.419 . S
C1722 H1726 0.930 . S
C1723 C1722 1.369 . S
C1723 C1732 1.429 . S
C1724 C1722 1.419 . S
C1724 C1725 1.363 . S
C1724 H1727 0.929 . S
C1725 C1724 1.363 . S
C1725 C1731 1.428 . S
H1726 C1722 0.930 . S
H1727 C1724 0.929 . S
S1728 N1729 1.613 . S
S1728 N1730 1.610 . S
N1729 S1728 1.613 . S
N1729 C1732 1.350 . S
N1730 S1728 1.610 . S
N1730 C1731 1.351 . S
C1731 C1725 1.428 . S
C1731 N1730 1.351 . S
C1731 C1732 1.434 . S
C1732 C1723 1.429 . S
C1732 N1729 1.350 . S
C1732 C1731 1.434 . S
C1733 C1734 1.369 . S
C1733 C1735 1.419 . S
C1733 H1737 0.930 . S
C1734 C1733 1.369 . S
C1734 C1743 1.429 . S
C1735 C1733 1.419 . S
C1735 C1736 1.363 . S
C1735 H1738 0.929 . S
C1736 C1735 1.363 . S
C1736 C1742 1.428 . S
H1737 C1733 0.930 . S
H1738 C1735 0.929 . S
S1739 N1740 1.613 . S
S1739 N1741 1.610 . S
N1740 S1739 1.613 . S
N1740 C1743 1.350 . S
N1741 S1739 1.610 . S
N1741 C1742 1.351 . S
C1742 C1736 1.428 . S
C1742 N1741 1.351 . S
C1742 C1743 1.434 . S
C1743 C1734 1.429 . S
C1743 N1740 1.350 . S
C1743 C1742 1.434 . S
C1744 C1745 1.369 . S
C1744 C1746 1.419 . S
C1744 H1748 0.930 . S
C1745 C1744 1.369 . S
C1745 C1754 1.429 . S
C1746 C1744 1.419 . S
C1746 C1747 1.363 . S
C1746 H1749 0.929 . S
C1747 C1746 1.363 . S
C1747 C1753 1.428 . S
H1748 C1744 0.930 . S
H1749 C1746 0.929 . S
S1750 N1751 1.613 . S
S1750 N1752 1.610 . S
N1751 S1750 1.613 . S
N1751 C1754 1.350 . S
N1752 S1750 1.610 . S
N1752 C1753 1.351 . S
C1753 C1747 1.428 . S
C1753 N1752 1.351 . S
C1753 C1754 1.434 . S
C1754 C1745 1.429 . S
C1754 N1751 1.350 . S
C1754 C1753 1.434 . S
C1755 C1756 1.369 . S
C1755 C1757 1.419 . S
C1755 H1759 0.930 . S
C1756 C1755 1.369 . S
C1756 C1765 1.429 . S
C1757 C1755 1.419 . S
C1757 C1758 1.363 . S
C1757 H1760 0.929 . S
C1758 C1757 1.363 . S
C1758 C1764 1.428 . S
H1759 C1755 0.930 . S
H1760 C1757 0.929 . S
S1761 N1762 1.613 . S
S1761 N1763 1.610 . S
N1762 S1761 1.613 . S
N1762 C1765 1.350 . S
N1763 S1761 1.610 . S
N1763 C1764 1.351 . S
C1764 C1758 1.428 . S
C1764 N1763 1.351 . S
C1764 C1765 1.434 . S
C1765 C1756 1.429 . S
C1765 N1762 1.350 . S
C1765 C1764 1.434 . S
C1766 C1767 1.369 . S
C1766 C1768 1.419 . S
C1766 H1770 0.930 . S
C1767 C1766 1.369 . S
C1767 C1776 1.429 . S
C1768 C1766 1.419 . S
C1768 C1769 1.363 . S
C1768 H1771 0.929 . S
C1769 C1768 1.363 . S
C1769 C1775 1.428 . S
H1770 C1766 0.930 . S
H1771 C1768 0.929 . S
S1772 N1773 1.613 . S
S1772 N1774 1.610 . S
N1773 S1772 1.613 . S
N1773 C1776 1.350 . S
N1774 S1772 1.610 . S
N1774 C1775 1.351 . S
C1775 C1769 1.428 . S
C1775 N1774 1.351 . S
C1775 C1776 1.434 . S
C1776 C1767 1.429 . S
C1776 N1773 1.350 . S
C1776 C1775 1.434 . S
C1777 C1778 1.369 . S
C1777 C1779 1.419 . S
C1777 H1781 0.930 . S
C1778 C1777 1.369 . S
C1778 C1787 1.429 . S
C1779 C1777 1.419 . S
C1779 C1780 1.363 . S
C1779 H1782 0.929 . S
C1780 C1779 1.363 . S
C1780 C1786 1.428 . S
H1781 C1777 0.930 . S
H1782 C1779 0.929 . S
S1783 N1784 1.613 . S
S1783 N1785 1.610 . S
N1784 S1783 1.613 . S
N1784 C1787 1.350 . S
N1785 S1783 1.610 . S
N1785 C1786 1.351 . S
C1786 C1780 1.428 . S
C1786 N1785 1.351 . S
C1786 C1787 1.434 . S
C1787 C1778 1.429 . S
C1787 N1784 1.350 . S
C1787 C1786 1.434 . S
C1788 C1789 1.369 . S
C1788 C1790 1.419 . S
C1788 H1792 0.930 . S
C1789 C1788 1.369 . S
C1789 C1798 1.429 . S
C1790 C1788 1.419 . S
C1790 C1791 1.363 . S
C1790 H1793 0.929 . S
C1791 C1790 1.363 . S
C1791 C1797 1.428 . S
H1792 C1788 0.930 . S
H1793 C1790 0.929 . S
S1794 N1795 1.613 . S
S1794 N1796 1.610 . S
N1795 S1794 1.613 . S
N1795 C1798 1.350 1_554 S
N1796 S1794 1.610 . S
N1796 C1797 1.351 1_554 S
C1797 C1791 1.428 . S
C1797 N1796 1.351 1_556 S
C1797 C1798 1.434 . S
C1798 C1789 1.429 . S
C1798 N1795 1.350 1_556 S
C1798 C1797 1.434 . S
C1799 C1800 1.369 . S
C1799 C1801 1.419 . S
C1799 H1803 0.930 . S
C1800 C1799 1.369 . S
C1800 C1809 1.429 . S
C1801 C1799 1.419 . S
C1801 C1802 1.363 . S
C1801 H1804 0.929 . S
C1802 C1801 1.363 . S
C1802 C1808 1.428 . S
H1803 C1799 0.930 . S
H1804 C1801 0.929 . S
S1805 N1806 1.613 . S
S1805 N1807 1.610 . S
N1806 S1805 1.613 . S
N1806 C1809 1.350 . S
N1807 S1805 1.610 . S
N1807 C1808 1.351 . S
C1808 C1802 1.428 . S
C1808 N1807 1.351 . S
C1808 C1809 1.434 . S
C1809 C1800 1.429 . S
C1809 N1806 1.350 . S
C1809 C1808 1.434 . S
C1810 C1811 1.369 . S
C1810 C1812 1.419 . S
C1810 H1814 0.930 . S
C1811 C1810 1.369 . S
C1811 C1820 1.429 . S
C1812 C1810 1.419 . S
C1812 C1813 1.363 . S
C1812 H1815 0.929 . S
C1813 C1812 1.363 . S
C1813 C1819 1.428 . S
H1814 C1810 0.930 . S
H1815 C1812 0.929 . S
S1816 N1817 1.613 . S
S1816 N1818 1.610 1_655 S
N1817 S1816 1.613 . S
N1817 C1820 1.350 1_655 S
N1818 S1816 1.610 1_455 S
N1818 C1819 1.351 . S
C1819 C1813 1.428 . S
C1819 N1818 1.351 . S
C1819 C1820 1.434 . S
C1820 C1811 1.429 . S
C1820 N1817 1.350 1_455 S
C1820 C1819 1.434 . S
C1821 C1822 1.369 . S
C1821 C1823 1.419 . S
C1821 H1825 0.930 . S
C1822 C1821 1.369 . S
C1822 C1831 1.429 . S
C1823 C1821 1.419 . S
C1823 C1824 1.363 . S
C1823 H1826 0.929 . S
C1824 C1823 1.363 . S
C1824 C1830 1.428 . S
H1825 C1821 0.930 . S
H1826 C1823 0.929 . S
S1827 N1828 1.613 . S
S1827 N1829 1.610 . S
N1828 S1827 1.613 . S
N1828 C1831 1.350 . S
N1829 S1827 1.610 . S
N1829 C1830 1.351 . S
C1830 C1824 1.428 . S
C1830 N1829 1.351 . S
C1830 C1831 1.434 . S
C1831 C1822 1.429 . S
C1831 N1828 1.350 . S
C1831 C1830 1.434 . S
C1832 C1833 1.369 . S
C1832 C1834 1.419 . S
C1832 H1836 0.930 . S
C1833 C1832 1.369 . S
C1833 C1842 1.429 . S
C1834 C1832 1.419 . S
C1834 C1835 1.363 . S
C1834 H1837 0.929 . S
C1835 C1834 1.363 . S
C1835 C1841 1.428 . S
H1836 C1832 0.930 . S
H1837 C1834 0.929 . S
S1838 N1839 1.613 . S
S1838 N1840 1.610 . S
N1839 S1838 1.613 . S
N1839 C1842 1.350 . S
N1840 S1838 1.610 . S
N1840 C1841 1.351 . S
C1841 C1835 1.428 . S
C1841 N1840 1.351 . S
C1841 C1842 1.434 . S
C1842 C1833 1.429 . S
C1842 N1839 1.350 . S
C1842 C1841 1.434 . S
C1843 C1844 1.369 . S
C1843 C1845 1.419 . S
C1843 H1847 0.930 . S
C1844 C1843 1.369 . S
C1844 C1853 1.429 . S
C1845 C1843 1.419 . S
C1845 C1846 1.363 . S
C1845 H1848 0.929 . S
C1846 C1845 1.363 . S
C1846 C1852 1.428 . S
H1847 C1843 0.930 . S
H1848 C1845 0.929 . S
S1849 N1850 1.613 . S
S1849 N1851 1.610 . S
N1850 S1849 1.613 . S
N1850 C1853 1.350 . S
N1851 S1849 1.610 . S
N1851 C1852 1.351 . S
C1852 C1846 1.428 . S
C1852 N1851 1.351 . S
C1852 C1853 1.434 . S
C1853 C1844 1.429 . S
C1853 N1850 1.350 . S
C1853 C1852 1.434 . S
C1854 C1855 1.369 . S
C1854 C1856 1.419 . S
C1854 H1858 0.930 . S
C1855 C1854 1.369 . S
C1855 C1864 1.429 . S
C1856 C1854 1.419 . S
C1856 C1857 1.328 1_655 S
C1856 H1859 0.929 . S
C1857 C1856 1.328 1_455 S
C1857 C1863 1.447 . S
H1858 C1854 0.930 . S
H1859 C1856 0.929 . S
S1860 N1861 1.613 1_455 S
S1860 N1862 1.610 . S
N1861 S1860 1.613 1_655 S
N1861 C1864 1.350 . S
N1862 S1860 1.610 . S
N1862 C1863 1.351 . S
C1863 C1857 1.447 . S
C1863 N1862 1.351 . S
C1863 C1864 1.434 1_455 S
C1864 C1855 1.429 . S
C1864 N1861 1.350 . S
C1864 C1863 1.434 1_655 S
C1865 C1866 1.369 . S
C1865 C1867 1.419 . S
C1865 H1869 0.930 . S
C1866 C1865 1.369 . S
C1866 C1875 1.429 . S
C1867 C1865 1.419 . S
C1867 C1868 1.363 . S
C1867 H1870 0.929 . S
C1868 C1867 1.363 . S
C1868 C1874 1.428 . S
H1869 C1865 0.930 . S
H1870 C1867 0.929 . S
S1871 N1872 1.613 . S
S1871 N1873 1.610 . S
N1872 S1871 1.613 . S
N1872 C1875 1.350 . S
N1873 S1871 1.610 . S
N1873 C1874 1.351 . S
C1874 C1868 1.428 . S
C1874 N1873 1.351 . S
C1874 C1875 1.434 . S
C1875 C1866 1.429 . S
C1875 N1872 1.350 . S
C1875 C1874 1.434 . S
C1876 C1877 1.369 . S
C1876 C1878 1.419 . S
C1876 H1880 0.930 . S
C1877 C1876 1.369 . S
C1877 C1886 1.429 . S
C1878 C1876 1.419 . S
C1878 C1879 1.363 . S
C1878 H1881 0.929 . S
C1879 C1878 1.363 . S
C1879 C1885 1.428 . S
H1880 C1876 0.930 . S
H1881 C1878 0.929 . S
S1882 N1883 1.613 . S
S1882 N1884 1.610 . S
N1883 S1882 1.613 . S
N1883 C1886 1.350 . S
N1884 S1882 1.610 . S
N1884 C1885 1.351 . S
C1885 C1879 1.428 . S
C1885 N1884 1.351 . S
C1885 C1886 1.434 . S
C1886 C1877 1.429 . S
C1886 N1883 1.350 . S
C1886 C1885 1.434 . S
C1887 C1888 1.369 . S
C1887 C1889 1.419 . S
C1887 H1891 0.930 . S
C1888 C1887 1.369 . S
C1888 C1897 1.429 . S
C1889 C1887 1.419 . S
C1889 C1890 1.363 . S
C1889 H1892 0.929 . S
C1890 C1889 1.363 . S
C1890 C1896 1.428 . S
H1891 C1887 0.930 . S
H1892 C1889 0.929 . S
S1893 N1894 1.613 . S
S1893 N1895 1.610 . S
N1894 S1893 1.613 . S
N1894 C1897 1.350 . S
N1895 S1893 1.610 . S
N1895 C1896 1.351 . S
C1896 C1890 1.428 . S
C1896 N1895 1.351 . S
C1896 C1897 1.434 . S
C1897 C1888 1.429 . S
C1897 N1894 1.350 . S
C1897 C1896 1.434 . S
C1898 C1899 1.369 . S
C1898 C1900 1.393 1_655 S
C1898 H1902 0.930 . S
C1899 C1898 1.369 . S
C1899 C1908 1.429 . S
C1900 C1898 1.393 1_455 S
C1900 C1901 1.361 1_455 S
C1900 H1903 0.959 . S
C1901 C1900 1.361 1_655 S
C1901 C1907 1.428 . S
H1902 C1898 0.930 . S
H1903 C1900 0.959 . S
S1904 N1905 1.613 . S
S1904 N1906 1.610 . S
N1905 S1904 1.613 . S
N1905 C1908 1.350 . S
N1906 S1904 1.610 . S
N1906 C1907 1.351 . S
C1907 C1901 1.428 . S
C1907 N1906 1.351 . S
C1907 C1908 1.434 . S
C1908 C1899 1.429 . S
C1908 N1905 1.350 . S
C1908 C1907 1.434 . S
C1909 C1910 1.369 . S
C1909 C1911 1.419 . S
C1909 H1913 0.930 . S
C1910 C1909 1.369 . S
C1910 C1919 1.429 . S
C1911 C1909 1.419 . S
C1911 C1912 1.363 . S
C1911 H1914 0.929 . S
C1912 C1911 1.363 . S
C1912 C1918 1.428 . S
H1913 C1909 0.930 . S
H1914 C1911 0.929 . S
S1915 N1916 1.613 . S
S1915 N1917 1.610 . S
N1916 S1915 1.613 . S
N1916 C1919 1.350 . S
N1917 S1915 1.610 . S
N1917 C1918 1.351 . S
C1918 C1912 1.428 . S
C1918 N1917 1.351 . S
C1918 C1919 1.434 . S
C1919 C1910 1.429 . S
C1919 N1916 1.350 . S
C1919 C1918 1.434 . S
C1920 C1921 1.369 . S
C1920 C1922 1.419 . S
C1920 H1924 0.930 . S
C1921 C1920 1.369 . S
C1921 C1930 1.429 . S
C1922 C1920 1.419 . S
C1922 C1923 1.363 . S
C1922 H1925 0.929 . S
C1923 C1922 1.363 . S
C1923 C1929 1.428 . S
H1924 C1920 0.930 . S
H1925 C1922 0.929 . S
S1926 N1927 1.613 . S
S1926 N1928 1.610 . S
N1927 S1926 1.613 . S
N1927 C1930 1.350 . S
N1928 S1926 1.610 . S
N1928 C1929 1.351 . S
C1929 C1923 1.428 . S
C1929 N1928 1.351 . S
C1929 C1930 1.434 . S
C1930 C1921 1.429 . S
C1930 N1927 1.350 . S
C1930 C1929 1.434 . S
C1931 C1932 1.369 . S
C1931 C1933 1.419 1_565 S
C1931 H1935 0.950 . S
C1932 C1931 1.369 . S
C1932 C1941 1.429 . S
C1933 C1931 1.419 1_545 S
C1933 C1934 1.363 1_545 S
C1933 H1936 0.929 . S
C1934 C1933 1.363 1_565 S
C1934 C1940 1.428 . S
H1935 C1931 0.950 . S
H1936 C1933 0.929 . S
S1937 N1938 1.613 . S
S1937 N1939 1.610 . S
N1938 S1937 1.613 . S
N1938 C1941 1.350 . S
N1939 S1937 1.610 . S
N1939 C1940 1.351 . S
C1940 C1934 1.428 . S
C1940 N1939 1.351 . S
C1940 C1941 1.434 . S
C1941 C1932 1.429 . S
C1941 N1938 1.350 . S
C1941 C1940 1.434 . S
C1942 C1943 1.369 . S
C1942 C1944 1.419 . S
C1942 H1946 0.930 . S
C1943 C1942 1.369 . S
C1943 C1952 1.429 . S
C1944 C1942 1.419 . S
C1944 C1945 1.363 . S
C1944 H1947 0.929 . S
C1945 C1944 1.363 . S
C1945 C1951 1.428 . S
H1946 C1942 0.930 . S
H1947 C1944 0.929 . S
S1948 N1949 1.613 . S
S1948 N1950 1.610 . S
N1949 S1948 1.613 . S
N1949 C1952 1.350 . S
N1950 S1948 1.610 . S
N1950 C1951 1.351 . S
C1951 C1945 1.428 . S
C1951 N1950 1.351 . S
C1951 C1952 1.434 . S
C1952 C1943 1.429 . S
C1952 N1949 1.350 . S
C1952 C1951 1.434 . S
C1953 C1954 1.369 . S
C1953 C1955 1.419 . S
C1953 H1957 0.930 . S
C1954 C1953 1.369 . S
C1954 C1963 1.429 . S
C1955 C1953 1.419 . S
C1955 C1956 1.363 . S
C1955 H1958 0.929 . S
C1956 C1955 1.363 . S
C1956 C1962 1.428 . S
H1957 C1953 0.930 . S
H1958 C1955 0.929 . S
S1959 N1960 1.613 . S
S1959 N1961 1.610 . S
N1960 S1959 1.613 . S
N1960 C1963 1.350 . S
N1961 S1959 1.610 . S
N1961 C1962 1.351 . S
C1962 C1956 1.428 . S
C1962 N1961 1.351 . S
C1962 C1963 1.434 . S
C1963 C1954 1.429 . S
C1963 N1960 1.350 . S
C1963 C1962 1.434 . S
C1964 C1965 1.369 . S
C1964 C1966 1.419 . S
C1964 H1968 0.930 . S
C1965 C1964 1.369 . S
C1965 C1974 1.429 . S
C1966 C1964 1.419 . S
C1966 C1967 1.363 . S
C1966 H1969 0.929 . S
C1967 C1966 1.363 . S
C1967 C1973 1.428 . S
H1968 C1964 0.930 . S
H1969 C1966 0.929 . S
S1970 N1971 1.613 . S
S1970 N1972 1.610 . S
N1971 S1970 1.613 . S
N1971 C1974 1.350 . S
N1972 S1970 1.610 . S
N1972 C1973 1.351 . S
C1973 C1967 1.428 . S
C1973 N1972 1.351 . S
C1973 C1974 1.434 . S
C1974 C1965 1.429 . S
C1974 N1971 1.350 . S
C1974 C1973 1.434 . S
C1975 C1976 1.369 . S
C1975 C1977 1.419 . S
C1975 H1979 0.930 . S
C1976 C1975 1.369 . S
C1976 C1985 1.429 . S
C1977 C1975 1.419 . S
C1977 C1978 1.363 . S
C1977 H1980 0.929 . S
C1978 C1977 1.363 . S
C1978 C1984 1.428 . S
H1979 C1975 0.930 . S
H1980 C1977 0.929 . S
S1981 N1982 1.613 . S
S1981 N1983 1.610 . S
N1982 S1981 1.613 . S
N1982 C1985 1.350 . S
N1983 S1981 1.610 . S
N1983 C1984 1.351 . S
C1984 C1978 1.428 . S
C1984 N1983 1.351 . S
C1984 C1985 1.434 . S
C1985 C1976 1.429 . S
C1985 N1982 1.350 . S
C1985 C1984 1.434 . S
C1986 C1987 1.369 . S
C1986 C1988 1.419 . S
C1986 H1990 0.930 . S
C1987 C1986 1.369 . S
C1987 C1996 1.429 . S
C1988 C1986 1.419 . S
C1988 C1989 1.363 . S
C1988 H1991 0.929 . S
C1989 C1988 1.363 . S
C1989 C1995 1.428 . S
H1990 C1986 0.930 . S
H1991 C1988 0.929 . S
S1992 N1993 1.613 . S
S1992 N1994 1.610 . S
N1993 S1992 1.613 . S
N1993 C1996 1.350 . S
N1994 S1992 1.610 . S
N1994 C1995 1.351 . S
C1995 C1989 1.428 . S
C1995 N1994 1.351 . S
C1995 C1996 1.434 . S
C1996 C1987 1.429 . S
C1996 N1993 1.350 . S
C1996 C1995 1.434 . S
C1997 C1998 1.369 . S
C1997 C1999 1.419 . S
C1997 H2001 0.930 . S
C1998 C1997 1.369 . S
C1998 C2007 1.429 . S
C1999 C1997 1.419 . S
C1999 C2000 1.363 . S
C1999 H2002 0.929 . S
C2000 C1999 1.363 . S
C2000 C2006 1.428 . S
H2001 C1997 0.930 . S
H2002 C1999 0.929 . S
S2003 N2004 1.613 . S
S2003 N2005 1.610 . S
N2004 S2003 1.613 . S
N2004 C2007 1.350 . S
N2005 S2003 1.610 . S
N2005 C2006 1.351 . S
C2006 C2000 1.428 . S
C2006 N2005 1.351 . S
C2006 C2007 1.434 . S
C2007 C1998 1.429 . S
C2007 N2004 1.350 . S
C2007 C2006 1.434 . S
C953 C101 2.408 . S
C955 C322 2.345 . S
C964 C57 2.000 . S
C966 C370 2.051 . S
C975 C73 1.530 . S
C977 C402 1.639 . S
C988 C447 1.661 . S
C986 C78 1.606 . S
C997 C21 1.005 . S
C999 C487 1.028 . S
C1010 C522 1.341 . S
C1008 C31 1.183 . S
C1021 C561 1.231 . S
C1019 C49 1.211 . S
C1030 C0 1.184 . S
C1032 C598 1.274 . S
C1043 C330 2.164 . S
C1041 C218 2.136 1_545 S
C1052 C229 0.821 . S
C1054 C367 0.896 . S
C1065 C410 2.323 . S
C1063 C257 2.344 . S
C1076 C442 1.269 . S
C1074 C164 1.201 . S
C1085 C216 1.430 . S
C1087 C482 1.485 . S
C1098 C530 0.722 . S
C1096 C231 0.733 . S
C1109 C571 2.140 . S
C1107 C255 2.176 . S
C1120 C601 2.063 . S
C1118 C166 2.067 . S
C1131 C327 1.914 . S
C1129 C143 1.818 . S
C1140 C265 2.097 . S
C1142 C650 2.131 . S
C1153 C687 1.202 . S
C1151 C299 1.142 . S
C1164 C718 1.013 . S
C1162 C291 1.081 . S
C1173 C104 2.658 . S
C1175 C611 2.639 . S
C1184 C117 1.374 . S
C1186 C407 1.436 . S
C1195 C304 1.667 . S
C1197 C770 1.703 . S
C1208 C802 1.912 . S
C1206 C278 1.872 . S
C1219 C331 2.353 . S
C1217 C60 2.462 . S
C1230 C801 1.954 . S
C1228 C96 1.963 . S
C1239 C88 1.552 . S
C1241 C411 1.550 . S
C1250 C65 1.740 . S
C1252 C758 1.626 . S
C1263 C478 0.970 . S
C1261 C10 0.978 . S
C1272 C44 1.084 . S
C1274 C691 1.203 . S
C1285 C570 1.251 . S
C1283 C34 1.244 . S
C1296 C847 1.246 . S
C1294 C13 1.277 . S
C1307 C321 2.144 1_556 S
C1305 C138 2.162 . S
C1318 C798 0.875 . S
C1316 C296 0.894 . S
C1327 C112 2.199 . S
C1329 C401 2.276 . S
C1338 C270 1.173 . S
C1340 C771 1.169 . S
C1349 C140 1.413 . S
C1351 C491 1.399 . S
C1362 C681 0.709 . S
C1360 C294 0.844 . S
C1371 C114 2.148 . S
C1373 C562 2.068 . S
C1382 C268 2.065 1_556 S
C1384 C850 2.064 . S
C1393 C169 2.240 . S
C1395 C318 1.999 . S
C1404 C161 2.064 . S
C1406 C641 2.052 . S
C1415 C234 1.265 . S
C1417 C518 1.210 . S
C1426 C226 1.175 . S
C1428 C727 1.053 . S
C1439 C842 2.597 . S
C1437 C247 2.605 . S
C1448 C195 1.441 . S
C1450 C398 1.392 . S
C1461 C441 1.664 . S
C1459 C239 1.680 . S
C1472 C371 1.843 . S
C1470 C187 1.758 . S
C1481 C75 2.410 . S
C1483 C882 2.340 . S
C1494 C810 2.048 . S
C1492 C83 2.006 . S
C1503 C99 1.528 . S
C1505 C922 1.638 . S
C1514 C52 1.608 1_655 S
C1516 C767 1.661 . S
C1525 C47 1.004 . S
C1527 C647 1.028 . S
C1538 C682 1.341 . S
C1536 C5 1.179 . S
C1549 C721 1.231 . S
C1547 C23 1.217 . S
C1560 C838 1.272 . S
C1558 C26 1.200 . S
C1571 C890 2.165 . S
C1569 C244 2.140 . S
C1580 C177 0.823 . S
C1582 C807 0.894 . S
C1593 C930 2.323 . S
C1591 C192 2.341 . S
C1604 C762 1.269 . S
C1602 C203 1.201 . S
C1615 C642 1.486 1_556 S
C1613 C242 1.435 . S
C1624 C179 0.716 . S
C1626 C690 0.740 . S
C1637 C731 2.139 . S
C1635 C190 2.178 . S
C1646 C205 2.067 . S
C1648 C841 2.064 . S
C1659 C887 1.919 . S
C1657 C286 1.809 . S
C1668 C122 2.093 . S
C1670 C490 2.133 . S
C1681 C527 1.202 . S
C1679 C130 1.141 . S
C1692 C558 1.011 . S
C1690 C148 1.084 . S
C1703 C851 2.638 . S
C1701 C273 2.657 . S
C1712 C260 1.383 . S
C1714 C927 1.432 . S
C1725 C450 1.706 . S
C1723 C135 1.660 . S
C1736 C362 1.912 . S
C1734 C109 1.872 . S
C1745 C86 2.461 . S
C1747 C891 2.348 . S
C1758 C361 1.956 . S
C1756 C70 1.959 . S
C1767 C62 1.549 . S
C1769 C931 1.550 . S
C1778 C91 1.740 . S
C1780 C438 1.620 . S
C1789 C36 0.978 . S
C1791 C638 0.964 . S
C1802 C531 1.201 . S
C1800 C18 1.096 . S
C1811 C8 1.238 . S
C1813 C730 1.255 . S
C1822 C39 1.277 . S
C1824 C607 1.241 . S
C1835 C881 2.143 . S
C1833 C307 2.162 . S
C1844 C153 0.886 . S
C1846 C358 0.879 . S
C1857 C921 2.295 1_556 S
C1855 C281 2.194 . S
C1866 C127 1.173 . S
C1868 C451 1.169 . S
C1877 C309 1.412 . S
C1879 C651 1.398 . S
C1890 C521 0.726 . S
C1888 C151 0.821 . S
C1899 C283 2.147 . S
C1901 C722 2.071 1_655 S
C1912 C610 2.066 . S
C1910 C125 2.061 . S
C1923 C878 2.001 . S
C1921 C221 2.239 . S
C1934 C481 2.056 1_565 S
C1932 C200 2.061 . S
C1943 C208 1.266 . S
C1945 C678 1.209 . S
C1956 C567 1.047 . S
C1954 C174 1.177 . S
C1965 C182 2.605 . S
C1967 C602 2.597 . S
C1976 C156 1.439 . S
C1978 C918 1.387 . S
C1989 C761 1.663 . S
C1987 C213 1.680 . S
C2000 C811 1.844 . S
C1998 C252 1.764 . S
