# Generated by pormake.
# Topology ssa, (4,4)-cn, num edge types: 1
# Building blocks:
#     Node 0, Type 0, BuildingBlock: NAWXER_clean_sbu_0, # of connection points: 4
#     Node 1, Type 0, BuildingBlock: NAWXER_clean_sbu_0, # of connection points: 4
#     Node 2, Type 0, BuildingBlock: NAWXER_clean_sbu_0, # of connection points: 4
#     Node 3, Type 0, BuildingBlock: NAWXER_clean_sbu_0, # of connection points: 4
#     Node 4, Type 0, BuildingBlock: NAWXER_clean_sbu_0, # of connection points: 4
#     Node 5, Type 0, BuildingBlock: NAWXER_clean_sbu_0, # of connection points: 4
#     Node 6, Type 1, BuildingBlock: MUDLON_clean_sbu_0, # of connection points: 4
#     Node 7, Type 1, BuildingBlock: MUDLON_clean_sbu_0, # of connection points: 4
#     Node 8, Type 1, BuildingBlock: MUDLON_clean_sbu_0, # of connection points: 4
#     Node 9, Type 1, BuildingBlock: MUDLON_clean_sbu_0, # of connection points: 4
#     Node 10, Type 1, BuildingBlock: MUDLON_clean_sbu_0, # of connection points: 4
#     Node 11, Type 1, BuildingBlock: MUDLON_clean_sbu_0, # of connection points: 4
#     Edge 12, Type (0, 1), BuildingBlock: XUDNAN_clean_linker_2, # of connection points: 2
#     Edge 13, Type (0, 1), BuildingBlock: XUDNAN_clean_linker_2, # of connection points: 2
#     Edge 14, Type (0, 1), BuildingBlock: XUDNAN_clean_linker_2, # of connection points: 2
#     Edge 15, Type (0, 1), BuildingBlock: XUDNAN_clean_linker_2, # of connection points: 2
#     Edge 16, Type (0, 1), BuildingBlock: XUDNAN_clean_linker_2, # of connection points: 2
#     Edge 17, Type (0, 1), BuildingBlock: XUDNAN_clean_linker_2, # of connection points: 2
#     Edge 18, Type (0, 1), BuildingBlock: XUDNAN_clean_linker_2, # of connection points: 2
#     Edge 19, Type (0, 1), BuildingBlock: XUDNAN_clean_linker_2, # of connection points: 2
#     Edge 20, Type (0, 1), BuildingBlock: XUDNAN_clean_linker_2, # of connection points: 2
#     Edge 21, Type (0, 1), BuildingBlock: XUDNAN_clean_linker_2, # of connection points: 2
#     Edge 22, Type (0, 1), BuildingBlock: XUDNAN_clean_linker_2, # of connection points: 2
#     Edge 23, Type (0, 1), BuildingBlock: XUDNAN_clean_linker_2, # of connection points: 2
#     Edge 24, Type (0, 1), BuildingBlock: XUDNAN_clean_linker_2, # of connection points: 2
#     Edge 25, Type (0, 1), BuildingBlock: XUDNAN_clean_linker_2, # of connection points: 2
#     Edge 26, Type (0, 1), BuildingBlock: XUDNAN_clean_linker_2, # of connection points: 2
#     Edge 27, Type (0, 1), BuildingBlock: XUDNAN_clean_linker_2, # of connection points: 2
#     Edge 28, Type (0, 1), BuildingBlock: XUDNAN_clean_linker_2, # of connection points: 2
#     Edge 29, Type (0, 1), BuildingBlock: XUDNAN_clean_linker_2, # of connection points: 2
#     Edge 30, Type (0, 1), BuildingBlock: XUDNAN_clean_linker_2, # of connection points: 2
#     Edge 31, Type (0, 1), BuildingBlock: XUDNAN_clean_linker_2, # of connection points: 2
#     Edge 32, Type (0, 1), BuildingBlock: XUDNAN_clean_linker_2, # of connection points: 2
#     Edge 33, Type (0, 1), BuildingBlock: XUDNAN_clean_linker_2, # of connection points: 2
#     Edge 34, Type (0, 1), BuildingBlock: XUDNAN_clean_linker_2, # of connection points: 2
#     Edge 35, Type (0, 1), BuildingBlock: XUDNAN_clean_linker_2, # of connection points: 2
# Relax obj value: 0.034
# Max RMSD: 0.048
# Mean RMSD: 0.037
data_MOF--net-ssa--node1-NAWXER_clean_sbu_0--node2-MUDLON_clean_sbu_0--edge1-XUDNAN_clean_linker_2
_symmetry_space_group_name_H-M    P1
_symmetry_Int_Tables_number       1
_symmetry_cell_setting            triclinic
loop_
_symmetry_equiv_pos_as_xyz
'x, y, z'
_cell_length_a     42.650498
_cell_length_b     42.785307
_cell_length_c     39.384654
_cell_angle_alpha  89.833306
_cell_angle_beta   89.401633
_cell_angle_gamma 120.18897
loop_
_atom_site_label
_atom_site_type_symbol
_atom_site_fract_x
_atom_site_fract_y
_atom_site_fract_z
_atom_type_partial_charge
C0 C 0.03186 0.53927 0.06347 0.0
C1 C 0.98349 0.45502 0.96895 0.0
O2 O 1.00169 0.50969 0.06284 0.0
Zn3 Zn 0.00821 0.49665 0.01736 0.0
O4 O 0.05279 0.54983 0.03719 0.0
Zn5 Zn 0.05508 0.52981 0.98753 0.0
O6 O 0.05811 0.56767 0.95852 0.0
O7 O 0.00576 0.53722 0.98616 0.0
O8 O 0.01461 0.48254 0.96176 0.0
O9 O 0.97079 0.45125 0.99893 0.0
O10 O 0.0537 0.49018 0.02805 0.0
O11 O 0.09816 0.52535 0.99294 0.0
C12 C 0.02645 0.56225 0.96494 0.0
C13 C 0.08679 0.50375 0.01825 0.0
C14 C 0.50771 0.03564 0.55987 0.0
C15 C 0.56678 0.9956 0.47771 0.0
O16 O 0.51632 0.01145 0.56427 0.0
Zn17 Zn 0.53394 0.01209 0.51843 0.0
O18 O 0.51088 0.04936 0.53015 0.0
Zn19 Zn 0.53173 0.04697 0.48084 0.0
O20 O 0.49044 0.02698 0.45043 0.0
O21 O 0.48666 0.98685 0.48794 0.0
O22 O 0.55961 0.01904 0.46533 0.0
O23 O 0.55654 0.98372 0.50781 0.0
O24 O 0.57885 0.06633 0.51665 0.0
O25 O 0.56973 0.09761 0.47704 0.0
C26 C 0.47358 0.995 0.46251 0.0
C27 C 0.58908 0.09616 0.50074 0.0
C28 C 0.50545 0.46871 0.99247 0.0
C29 C 0.54288 0.58263 0.05129 0.0
O30 O 0.50027 0.49405 0.98236 0.0
Zn31 Zn 0.51924 0.52398 0.02254 0.0
O32 O 0.51737 0.4698 0.02246 0.0
Zn33 Zn 0.53724 0.50585 0.06491 0.0
O34 O 0.50251 0.48046 0.10197 0.0
O35 O 0.47815 0.49486 0.06001 0.0
O36 O 0.54811 0.56036 0.06878 0.0
O37 O 0.52663 0.57258 0.02311 0.0
O38 O 0.57369 0.53427 0.01943 0.0
O39 O 0.58611 0.51227 0.06491 0.0
C40 C 0.4751 0.48002 0.08909 0.0
C41 C 0.59569 0.52807 0.03602 0.0
C42 C 0.99334 0.51118 0.47758 0.0
C43 C 0.92583 0.39795 0.54399 0.0
O44 O 0.01219 0.50687 0.50032 0.0
Zn45 Zn 0.00602 0.46746 0.5378 0.0
O46 O 0.96036 0.48672 0.47378 0.0
Zn47 Zn 0.95887 0.45321 0.50857 0.0
O48 O 0.96367 0.48223 0.55401 0.0
O49 O 0.01347 0.49314 0.58054 0.0
O50 O 0.9139 0.40855 0.51969 0.0
O51 O 0.95931 0.4167 0.55203 0.0
O52 O 0.04136 0.45503 0.52151 0.0
O53 O 0.99468 0.43629 0.48731 0.0
C54 C 0.98477 0.49523 0.57941 0.0
C55 C 0.02541 0.43933 0.49436 0.0
C56 C 0.49832 0.97449 0.05452 0.0
C57 C 0.4537 0.04992 1.00517 0.0
O58 O 0.5082 0.00688 0.06274 0.0
Zn59 Zn 0.47907 0.01496 0.02959 0.0
O60 O 0.47666 0.96003 0.0297 0.0
Zn61 Zn 0.44682 0.97241 0.99471 0.0
O62 O 0.46875 0.97327 0.95045 0.0
O63 O 0.50558 0.01963 0.98177 0.0
O64 O 0.44113 0.01889 0.99143 0.0
O65 O 0.47704 0.05946 0.02861 0.0
O66 O 0.42541 0.97605 0.04732 0.0
O67 O 0.39732 0.93535 1.00761 0.0
C68 C 0.4989 1.00253 0.95369 0.0
C69 C 0.39722 0.94723 0.03725 0.0
C70 C 0.58323 0.57173 0.57549 0.0
C71 C 0.47294 0.54599 0.51509 0.0
O72 O 0.56379 0.58627 0.57942 0.0
Zn73 Zn 0.52792 0.5593 0.54544 0.0
O74 O 0.57543 0.5483 0.55196 0.0
Zn75 Zn 0.53459 0.52357 0.51323 0.0
O76 O 0.55971 0.54038 0.47007 0.0
O77 O 0.5555 0.58263 0.49818 0.0
O78 O 0.48781 0.52841 0.50383 0.0
O79 O 0.48671 0.5669 0.54029 0.0
O80 O 0.50371 0.50379 0.56363 0.0
O81 O 0.51255 0.47301 0.52334 0.0
C82 C 0.56493 0.57231 0.4714 0.0
C83 C 0.49971 0.47386 0.55232 0.0
Mg84 Mg 0.25551 0.48899 0.27743 0.0
C85 C 0.20982 0.4968 0.22455 0.0
O86 O 0.18538 0.47018 0.24347 0.0
C87 C 0.30337 0.50402 0.33255 0.0
O88 O 0.28483 0.46888 0.32796 0.0
C89 C 0.18062 0.43192 0.31312 0.0
O90 O 0.1752 0.409 0.28865 0.0
O91 O 0.20927 0.46283 0.3128 0.0
O92 O 0.24274 0.51288 0.23403 0.0
O93 O 0.278 0.45791 0.25435 0.0
C94 C 0.26813 0.44413 0.22509 0.0
O95 O 0.23975 0.44325 0.2114 0.0
O96 O 0.29786 0.52413 0.31247 0.0
Mg97 Mg 0.75758 0.22335 0.7628 0.0
C98 C 0.73374 0.20471 0.69162 0.0
O99 O 0.74757 0.18416 0.6988 0.0
C100 C 0.79645 0.27399 0.82015 0.0
O101 O 0.78086 0.24272 0.83626 0.0
C102 C 0.69282 0.151 0.78611 0.0
O103 O 0.6979 0.14267 0.75526 0.0
O104 O 0.71411 0.18291 0.79668 0.0
O105 O 0.73332 0.22538 0.71458 0.0
O106 O 0.799 0.20868 0.75154 0.0
C107 C 0.8254 0.21956 0.73021 0.0
O108 O 0.84512 0.20389 0.73134 0.0
O109 O 0.78931 0.27481 0.78894 0.0
Mg110 Mg 0.59025 0.80362 0.25445 0.0
C111 C 0.55748 0.84557 0.22601 0.0
O112 O 0.58325 0.87028 0.24474 0.0
C113 C 0.59064 0.75444 0.30646 0.0
O114 O 0.62139 0.78461 0.31121 0.0
C115 C 0.59874 0.84363 0.31692 0.0
O116 O 0.56797 0.81306 0.32094 0.0
O117 O 0.61748 0.84827 0.29 0.0
O118 O 0.55144 0.81322 0.2274 0.0
O119 O 0.61973 0.79403 0.21421 0.0
C120 C 0.61599 0.80091 0.18354 0.0
O121 O 0.60364 0.82296 0.17757 0.0
O122 O 0.56912 0.75369 0.28388 0.0
Mg123 Mg 0.807 0.57197 0.79017 0.0
C124 C 0.75756 0.56834 0.73512 0.0
O125 O 0.75109 0.53492 0.73668 0.0
C126 C 0.86027 0.61214 0.84556 0.0
O127 O 0.83012 0.59639 0.86363 0.0
C128 C 0.75273 0.56067 0.84277 0.0
O129 O 0.75817 0.58976 0.82627 0.0
O130 O 0.76873 0.54421 0.83201 0.0
O131 O 0.78139 0.59176 0.75466 0.0
O132 O 0.82529 0.53982 0.76277 0.0
C133 C 0.83952 0.55195 0.73364 0.0
O134 O 0.8381 0.57957 0.72078 0.0
O135 O 0.85819 0.61132 0.81331 0.0
Mg136 Mg 0.21012 0.76638 0.28513 0.0
C137 C 0.17517 0.71126 0.23728 0.0
O138 O 0.16264 0.73364 0.2351 0.0
C139 C 0.28852 0.81413 0.31277 0.0
O140 O 0.29865 0.82114 0.28073 0.0
C141 C 0.16231 0.72157 0.339 0.0
O142 O 0.19323 0.72212 0.34213 0.0
O143 O 0.16027 0.74169 0.31618 0.0
O144 O 0.19977 0.71761 0.25875 0.0
O145 O 0.21859 0.8021 0.24138 0.0
C146 C 0.24197 0.83553 0.23795 0.0
O147 O 0.25915 0.85421 0.26479 0.0
O148 O 0.25554 0.79161 0.32029 0.0
Mg149 Mg 0.46683 0.24208 0.7666 0.0
C150 C 0.47979 0.20244 0.71092 0.0
O151 O 0.45522 0.20854 0.69765 0.0
C152 C 0.48095 0.30421 0.8082 0.0
O153 O 0.44837 0.29248 0.79605 0.0
C154 C 0.45747 0.20388 0.8275 0.0
O155 O 0.49225 0.22437 0.82048 0.0
O156 O 0.4348 0.20352 0.80642 0.0
O157 O 0.49258 0.21581 0.73984 0.0
O158 O 0.44264 0.26094 0.72905 0.0
C159 C 0.46577 0.29255 0.7185 0.0
O160 O 0.4988 0.30819 0.73054 0.0
O161 O 0.49873 0.2891 0.79856 0.0
H162 H 0.0705 0.4669 0.07849 0.0
H163 H 0.16148 0.53665 0.0124 0.0
H164 H 0.20384 0.54263 0.05788 0.0
H165 H 0.10664 0.5173 0.15166 0.0
H166 H 0.08815 0.47886 0.1801 0.0
H167 H 0.06547 0.4764 0.14108 0.0
H168 H 0.06872 0.41976 0.12316 0.0
H169 H 0.09073 0.42157 0.16248 0.0
H170 H 0.11192 0.42166 0.12261 0.0
H171 H 0.23604 0.54489 0.11371 0.0
H172 H 0.25449 0.53897 0.1718 0.0
H173 H 0.14132 0.46959 0.20028 0.0
C174 C 0.09933 0.48261 0.07299 0.0
C175 C 0.11255 0.50097 0.04155 0.0
C176 C 0.15059 0.52186 0.03601 0.0
C177 C 0.17487 0.52567 0.06185 0.0
C178 C 0.1607 0.50849 0.0931 0.0
C179 C 0.12374 0.48704 0.09848 0.0
C180 C 0.11491 0.4731 0.13469 0.0
C181 C 0.09247 0.48726 0.15294 0.0
C182 C 0.09543 0.43156 0.13579 0.0
C183 C 0.15267 0.4898 0.14899 0.0
C184 C 0.17885 0.51027 0.1248 0.0
C185 C 0.21568 0.52871 0.13269 0.0
C186 C 0.22592 0.52541 0.16584 0.0
C187 C 0.19941 0.50382 0.19068 0.0
C188 C 0.16236 0.48626 0.18198 0.0
H189 H 0.65211 0.10331 0.5219 0.0
H190 H 0.59229 0.16003 0.51533 0.0
H191 H 0.63183 0.20312 0.55878 0.0
H192 H 0.6551 0.10105 0.60419 0.0
H193 H 0.69999 0.10754 0.60887 0.0
H194 H 0.67567 0.08879 0.57045 0.0
H195 H 0.72807 0.13926 0.53468 0.0
H196 H 0.7533 0.15784 0.57303 0.0
H197 H 0.74478 0.18601 0.54496 0.0
H198 H 0.66692 0.22914 0.61288 0.0
H199 H 0.69765 0.23883 0.66813 0.0
H200 H 0.73439 0.16488 0.63835 0.0
C201 C 0.6489 0.1262 0.52816 0.0
C202 C 0.61977 0.1289 0.51496 0.0
C203 C 0.61521 0.15823 0.52447 0.0
C204 C 0.63737 0.18262 0.54939 0.0
C205 C 0.66434 0.17763 0.56384 0.0
C206 C 0.67082 0.15066 0.55278 0.0
C207 C 0.69751 0.14732 0.5753 0.0
C208 C 0.68105 0.10893 0.5906 0.0
C209 C 0.73303 0.15828 0.55583 0.0
C210 C 0.70309 0.17472 0.60215 0.0
C211 C 0.68442 0.19253 0.59494 0.0
C212 C 0.68248 0.2161 0.61824 0.0
C213 C 0.69982 0.22129 0.64966 0.0
C214 C 0.71841 0.20261 0.65757 0.0
C215 C 0.72064 0.1798 0.63305 0.0
H216 H 0.57046 0.60907 0.11402 0.0
H217 H 0.54605 0.64045 0.01735 0.0
H218 H 0.56932 0.70248 0.03876 0.0
H219 H 0.54238 0.65834 0.16525 0.0
H220 H 0.57719 0.67026 0.1964 0.0
H221 H 0.56124 0.62949 0.17232 0.0
H222 H 0.62719 0.65097 0.1524 0.0
H223 H 0.64327 0.69207 0.17615 0.0
H224 H 0.6532 0.69421 0.13132 0.0
H225 H 0.59235 0.76026 0.07195 0.0
H226 H 0.60836 0.80727 0.11533 0.0
H227 H 0.61775 0.73784 0.19017 0.0
C228 C 0.57029 0.62903 0.09716 0.0
C229 C 0.55655 0.61988 0.0639 0.0
C230 C 0.55643 0.64677 0.0429 0.0
C231 C 0.56981 0.68214 0.05478 0.0
C232 C 0.58326 0.69022 0.08769 0.0
C233 C 0.58337 0.66433 0.10864 0.0
C234 C 0.59705 0.67919 0.14366 0.0
C235 C 0.56772 0.65808 0.17101 0.0
C236 C 0.63228 0.67911 0.15131 0.0
C237 C 0.60404 0.71738 0.13939 0.0
C238 C 0.59635 0.72337 0.10681 0.0
C239 C 0.59878 0.75596 0.09742 0.0
C240 C 0.60803 0.78259 0.12226 0.0
C241 C 0.61458 0.77645 0.15617 0.0
C242 C 0.61359 0.74375 0.1644 0.0
H243 H 0.94429 0.52787 0.57684 0.0
H244 H 0.99538 0.48969 0.64726 0.0
H245 H 0.96312 0.4994 0.69519 0.0
H246 H 0.94613 0.59793 0.63277 0.0
H247 H 0.90308 0.59012 0.61756 0.0
H248 H 0.93262 0.58275 0.58993 0.0
H249 H 0.8804 0.5173 0.57971 0.0
H250 H 0.85097 0.5241 0.60796 0.0
H251 H 0.85916 0.48726 0.6155 0.0
H252 H 0.91901 0.50659 0.7344 0.0
H253 H 0.87511 0.52027 0.76259 0.0
H254 H 0.85569 0.55616 0.66607 0.0
C255 C 0.94941 0.52243 0.60246 0.0
C256 C 0.97243 0.50823 0.60847 0.0
C257 C 0.97827 0.50113 0.64223 0.0
C258 C 0.95977 0.5062 0.66952 0.0
C259 C 0.93608 0.51893 0.66252 0.0
C260 C 0.93165 0.52781 0.62985 0.0
C261 C 0.90447 0.54066 0.6288 0.0
C262 C 0.92267 0.58022 0.61655 0.0
C263 C 0.87183 0.51584 0.60669 0.0
C264 C 0.89371 0.53705 0.66592 0.0
C265 C 0.91188 0.52413 0.685 0.0
C266 C 0.90505 0.51719 0.71974 0.0
C267 C 0.87981 0.52468 0.73547 0.0
C268 C 0.8621 0.53933 0.71649 0.0
C269 C 0.86898 0.54517 0.68125 0.0
H270 H 0.39362 0.96307 0.10387 0.0
H271 H 0.33072 0.8863 0.02569 0.0
H272 H 0.28099 0.85235 0.06759 0.0
H273 H 0.3703 0.89934 0.16958 0.0
H274 H 0.3691 0.92815 0.20225 0.0
H275 H 0.39778 0.9478 0.16537 0.0
H276 H 0.36679 0.98544 0.15323 0.0
H277 H 0.33787 0.96577 0.19008 0.0
H278 H 0.31819 0.96277 0.14908 0.0
H279 H 0.23986 0.82462 0.11968 0.0
H280 H 0.21238 0.80441 0.17683 0.0
H281 H 0.30292 0.89978 0.22039 0.0
C282 C 0.3692 0.93945 0.09524 0.0
C283 C 0.36604 0.92754 0.06128 0.0
C284 C 0.33375 0.89611 0.05144 0.0
C285 C 0.30533 0.87671 0.07509 0.0
C286 C 0.30958 0.88911 0.10845 0.0
C287 C 0.3408 0.91979 0.11845 0.0
C288 C 0.33988 0.92636 0.15615 0.0
C289 C 0.3711 0.92533 0.1744 0.0
C290 C 0.34072 0.96221 0.16249 0.0
C291 C 0.30343 0.89427 0.16609 0.0
C292 C 0.28618 0.87322 0.13822 0.0
C293 C 0.25301 0.84115 0.14155 0.0
C294 C 0.23754 0.82993 0.17418 0.0
C295 C 0.25525 0.85061 0.20323 0.0
C296 C 0.28828 0.8836 0.19879 0.0
H297 H 0.50838 0.47069 0.62008 0.0
H298 H 0.45565 0.40375 0.533 0.0
H299 H 0.43273 0.34879 0.56911 0.0
H300 H 0.54161 0.41719 0.64989 0.0
H301 H 0.53728 0.42454 0.69432 0.0
H302 H 0.54319 0.45816 0.66345 0.0
H303 H 0.4843 0.45536 0.68533 0.0
H304 H 0.47814 0.42162 0.71638 0.0
H305 H 0.44251 0.41255 0.68696 0.0
H306 H 0.4195 0.30103 0.61425 0.0
H307 H 0.4238 0.26526 0.66189 0.0
H308 H 0.48982 0.36419 0.71711 0.0
C309 C 0.49102 0.44447 0.60894 0.0
C310 C 0.483 0.44126 0.57407 0.0
C311 C 0.46161 0.40658 0.55986 0.0
C312 C 0.44836 0.37531 0.58019 0.0
C313 C 0.45727 0.37931 0.61451 0.0
C314 C 0.47848 0.41309 0.62863 0.0
C315 C 0.48863 0.41019 0.66469 0.0
C316 C 0.53011 0.42858 0.66827 0.0
C317 C 0.47241 0.42586 0.68982 0.0
C318 C 0.47052 0.36956 0.66846 0.0
C319 C 0.4517 0.35207 0.63967 0.0
C320 C 0.4339 0.31443 0.63703 0.0
C321 C 0.4363 0.29432 0.66417 0.0
C322 C 0.45706 0.31211 0.69296 0.0
C323 C 0.47365 0.35002 0.69532 0.0
H324 H 0.55451 0.9265 0.4769 0.0
H325 H 0.61699 0.03117 0.42754 0.0
H326 H 0.64017 0.00478 0.38534 0.0
H327 H 0.61798 0.89163 0.45871 0.0
H328 H 0.58086 0.84681 0.45051 0.0
H329 H 0.57517 0.87525 0.48069 0.0
H330 H 0.51946 0.86739 0.44763 0.0
H331 H 0.52501 0.83911 0.4174 0.0
H332 H 0.52433 0.87881 0.40304 0.0
H333 H 0.65086 0.96567 0.3447 0.0
H334 H 0.64446 0.91661 0.30706 0.0
H335 H 0.57253 0.83717 0.38145 0.0
C336 C 0.57412 0.94406 0.45795 0.0
C337 C 0.58454 0.98096 0.45577 0.0
C338 C 0.60903 0.00288 0.42979 0.0
C339 C 0.62245 0.98816 0.40582 0.0
C340 C 0.61087 0.9514 0.40803 0.0
C341 C 0.58716 0.9296 0.43342 0.0
C342 C 0.57498 0.89018 0.4275 0.0
C343 C 0.58804 0.87509 0.45605 0.0
C344 C 0.53351 0.86757 0.42365 0.0
C345 C 0.59457 0.89308 0.39432 0.0
C346 C 0.61584 0.92864 0.38387 0.0
C347 C 0.63471 0.93775 0.35288 0.0
C348 C 0.63101 0.90974 0.33169 0.0
C349 C 0.60809 0.87313 0.34137 0.0
C350 C 0.59044 0.86492 0.37345 0.0
H351 H 0.63263 0.57872 0.98763 0.0
H352 H 0.63131 0.48955 0.04133 0.0
H353 H 0.67491 0.48976 0.99896 0.0
H354 H 0.6288 0.54638 0.90821 0.0
H355 H 0.65773 0.58945 0.88778 0.0
H356 H 0.6325 0.58706 0.9255 0.0
H357 H 0.69161 0.63299 0.95562 0.0
H358 H 0.71707 0.63642 0.91761 0.0
H359 H 0.72899 0.62464 0.95749 0.0
H360 H 0.71197 0.49467 0.94506 0.0
H361 H 0.74305 0.50757 0.88887 0.0
H362 H 0.71707 0.59212 0.87126 0.0
C363 C 0.64257 0.56012 0.99126 0.0
C364 C 0.62896 0.53439 0.01795 0.0
C365 C 0.64204 0.51001 0.02149 0.0
C366 C 0.66649 0.50972 0.9973 0.0
C367 C 0.67773 0.53421 0.97008 0.0
C368 C 0.66663 0.55941 0.96744 0.0
C369 C 0.6798 0.58087 0.93467 0.0
C370 C 0.6478 0.5756 0.91277 0.0
C371 C 0.70593 0.62111 0.94178 0.0
C372 C 0.69939 0.56335 0.9187 0.0
C373 C 0.69821 0.53662 0.93939 0.0
C374 C 0.71342 0.51589 0.92895 0.0
C375 C 0.73076 0.52321 0.89688 0.0
C376 C 0.73253 0.55086 0.87561 0.0
C377 C 0.71638 0.57088 0.88684 0.0
H378 H 0.06558 0.56076 0.4727 0.0
H379 H 0.96155 0.5356 0.43163 0.0
H380 H 0.99262 0.58968 0.39399 0.0
H381 H 0.10767 0.6582 0.47145 0.0
H382 H 0.15144 0.66483 0.45913 0.0
H383 H 0.12049 0.62561 0.48388 0.0
H384 H 0.12431 0.58389 0.4384 0.0
H385 H 0.15536 0.62294 0.41363 0.0
H386 H 0.11425 0.58811 0.39486 0.0
H387 H 0.03703 0.6468 0.35905 0.0
H388 H 0.08947 0.69776 0.32909 0.0
H389 H 0.16282 0.68313 0.39386 0.0
C390 C 0.0491 0.56671 0.45614 0.0
C391 C 0.011 0.54399 0.45538 0.0
C392 C 0.99074 0.55263 0.43279 0.0
C393 C 0.00818 0.58337 0.41138 0.0
C394 C 0.0459 0.60512 0.41276 0.0
C395 C 0.06599 0.59691 0.43457 0.0
C396 C 0.10621 0.62309 0.43027 0.0
C397 C 0.12239 0.64418 0.46314 0.0
C398 C 0.12619 0.60333 0.41859 0.0
C399 C 0.10586 0.64743 0.40254 0.0
C400 C 0.07094 0.637 0.39277 0.0
C401 C 0.06443 0.65522 0.36673 0.0
C402 C 0.09435 0.68427 0.34994 0.0
C403 C 0.1303 0.69459 0.35914 0.0
C404 C 0.13576 0.67612 0.38619 0.0
H405 H 0.49911 0.12006 0.98713 0.0
H406 H 0.38672 0.03461 0.9857 0.0
H407 H 0.37274 0.07039 0.94574 0.0
H408 H 0.48365 0.19962 0.97213 0.0
H409 H 0.52312 0.22132 0.94468 0.0
H410 H 0.52201 0.19384 0.97999 0.0
H411 H 0.53648 0.15556 0.93876 0.0
H412 H 0.53693 0.18224 0.90331 0.0
H413 H 0.50712 0.13391 0.90334 0.0
H414 H 0.37349 0.10962 0.89784 0.0
H415 H 0.38907 0.14957 0.84721 0.0
H416 H 0.50135 0.208 0.8788 0.0
C417 C 0.47123 0.10995 0.97988 0.0
C418 C 0.44377 0.07516 0.99005 0.0
C419 C 0.4079 0.06166 0.97864 0.0
C420 C 0.39975 0.08176 0.95591 0.0
C421 C 0.42784 0.11524 0.94474 0.0
C422 C 0.46285 0.12945 0.95665 0.0
C423 C 0.48918 0.16305 0.93685 0.0
C424 C 0.50544 0.19644 0.95979 0.0
C425 C 0.51915 0.15838 0.91955 0.0
C426 C 0.46388 0.16456 0.91109 0.0
C427 C 0.42848 0.13726 0.91636 0.0
C428 C 0.40099 0.13161 0.89388 0.0
C429 C 0.41005 0.15429 0.86514 0.0
C430 C 0.44636 0.18184 0.85903 0.0
C431 C 0.47327 0.18728 0.88276 0.0
H432 H 0.42501 0.4908 0.47616 0.0
H433 H 0.45488 0.59907 0.50794 0.0
H434 H 0.41331 0.60066 0.4652 0.0
H435 H 0.42345 0.5048 0.39002 0.0
H436 H 0.38521 0.46078 0.38137 0.0
H437 H 0.41378 0.46673 0.41691 0.0
H438 H 0.35816 0.44053 0.45789 0.0
H439 H 0.32921 0.43371 0.42236 0.0
H440 H 0.32907 0.45982 0.45814 0.0
H441 H 0.37308 0.59203 0.41323 0.0
H442 H 0.33338 0.57133 0.36269 0.0
H443 H 0.33092 0.46884 0.3674 0.0
C444 C 0.42212 0.51452 0.47478 0.0
C445 C 0.44295 0.54472 0.49546 0.0
C446 C 0.43869 0.5754 0.49268 0.0
C447 C 0.4154 0.57663 0.46827 0.0
C448 C 0.39631 0.54679 0.44726 0.0
C449 C 0.39898 0.51605 0.4509 0.0
C450 C 0.37696 0.488 0.42472 0.0
C451 C 0.40131 0.47961 0.40192 0.0
C452 C 0.34654 0.45348 0.4418 0.0
C453 C 0.36189 0.50784 0.40524 0.0
C454 C 0.37326 0.54176 0.41833 0.0
C455 C 0.36367 0.56531 0.40314 0.0
C456 C 0.34137 0.55348 0.37432 0.0
C457 C 0.32888 0.51842 0.36124 0.0
C458 C 0.33963 0.49566 0.37695 0.0
H459 H 0.92073 0.38866 0.97509 0.0
H460 H 0.99428 0.46677 0.90049 0.0
H461 H 0.95339 0.43027 0.85465 0.0
H462 H 0.89622 0.30906 0.92351 0.0
H463 H 0.84987 0.28545 0.93868 0.0
H464 H 0.88526 0.31765 0.96551 0.0
H465 H 0.85036 0.35238 0.97239 0.0
H466 H 0.81512 0.32059 0.94517 0.0
H467 H 0.83815 0.36822 0.93511 0.0
H468 H 0.9026 0.38706 0.81698 0.0
H469 H 0.84961 0.33623 0.78971 0.0
H470 H 0.81042 0.28475 0.88832 0.0
C471 C 0.92844 0.39789 0.94909 0.0
C472 C 0.96081 0.43064 0.94147 0.0
C473 C 0.96983 0.44169 0.90705 0.0
C474 C 0.94662 0.42126 0.88079 0.0
C475 C 0.91461 0.38954 0.88922 0.0
C476 C 0.9058 0.37753 0.92247 0.0
C477 C 0.87012 0.34205 0.92453 0.0
C478 C 0.87571 0.31176 0.9389 0.0
C479 C 0.84177 0.34607 0.94555 0.0
C480 C 0.86014 0.33614 0.88731 0.0
C481 C 0.88596 0.36406 0.8674 0.0
C482 C 0.88234 0.36491 0.8323 0.0
C483 C 0.85199 0.33603 0.81705 0.0
C484 C 0.82585 0.30647 0.83683 0.0
C485 C 0.82994 0.3069 0.87247 0.0
H486 H 0.96477 0.5643 0.97952 0.0
H487 H 0.055 0.60497 0.90785 0.0
H488 H 0.02622 0.63153 0.87294 0.0
H489 H 0.89753 0.53625 0.9212 0.0
H490 H 0.86924 0.54866 0.94514 0.0
H491 H 0.89976 0.53831 0.96689 0.0
H492 H 0.92938 0.60078 0.99619 0.0
H493 H 0.89884 0.61135 0.97441 0.0
H494 H 0.94716 0.64135 0.97064 0.0
H495 H 0.98251 0.64452 0.8413 0.0
H496 H 0.92882 0.64351 0.81684 0.0
H497 H 0.86904 0.59698 0.91084 0.0
C498 C 0.97898 0.57958 0.95694 0.0
C499 C 0.01217 0.58259 0.94645 0.0
C500 C 0.02968 0.60252 0.91655 0.0
C501 C 0.01355 0.61775 0.89656 0.0
C502 C 0.98024 0.61338 0.90716 0.0
C503 C 0.96345 0.59517 0.93695 0.0
C504 C 0.92642 0.59139 0.9414 0.0
C505 C 0.8965 0.55129 0.94377 0.0
C506 C 0.92541 0.61249 0.9725 0.0
C507 C 0.9242 0.60882 0.90872 0.0
C508 C 0.95561 0.62175 0.8894 0.0
C509 C 0.95815 0.63532 0.85658 0.0
C510 C 0.92751 0.63468 0.84287 0.0
C511 C 0.89477 0.62053 0.86198 0.0
C512 C 0.89379 0.6087 0.89573 0.0
H513 H 0.4554 0.98903 0.39504 0.0
H514 H 0.41879 0.93462 0.49269 0.0
H515 H 0.36771 0.88241 0.46497 0.0
H516 H 0.36575 0.95577 0.35804 0.0
H517 H 0.38027 0.95027 0.31645 0.0
H518 H 0.41221 0.9845 0.34438 0.0
H519 H 0.45441 0.9575 0.33848 0.0
H520 H 0.42237 0.92289 0.31093 0.0
H521 H 0.43704 0.9105 0.34882 0.0
H522 H 0.32141 0.83559 0.42673 0.0
H523 H 0.28253 0.79741 0.38043 0.0
H524 H 0.35087 0.88043 0.30694 0.0
C525 C 0.43613 0.96646 0.41062 0.0
C526 C 0.44074 0.96605 0.4461 0.0
C527 C 0.41559 0.93558 0.46553 0.0
C528 C 0.38654 0.90578 0.45 0.0
C529 C 0.38322 0.90661 0.41491 0.0
C530 C 0.40726 0.93613 0.39541 0.0
C531 C 0.39843 0.92931 0.35798 0.0
C532 C 0.38857 0.95658 0.34336 0.0
C533 C 0.42994 0.9301 0.33788 0.0
C534 C 0.36568 0.89143 0.35955 0.0
C535 C 0.35728 0.87896 0.39267 0.0
C536 C 0.32776 0.84503 0.40068 0.0
C537 C 0.30588 0.8235 0.3742 0.0
C538 C 0.3138 0.83575 0.34005 0.0
C539 C 0.3444 0.87005 0.33272 0.0
H540 H 0.47185 0.44842 0.93003 0.0
H541 H 0.53725 0.42785 1.00049 0.0
H542 H 0.54176 0.38725 0.95929 0.0
H543 H 0.4212 0.3563 0.89936 0.0
H544 H 0.41924 0.36983 0.85642 0.0
H545 H 0.42182 0.39811 0.89129 0.0
H546 H 0.4789 0.4519 0.86349 0.0
H547 H 0.47683 0.42357 0.8288 0.0
H548 H 0.5176 0.44714 0.8533 0.0
H549 H 0.54152 0.35057 0.90984 0.0
H550 H 0.52846 0.31299 0.85851 0.0
H551 H 0.46073 0.35428 0.8212 0.0
C552 C 0.48683 0.43512 0.93685 0.0
C553 C 0.50408 0.44134 0.96858 0.0
C554 C 0.52344 0.42335 0.97653 0.0
C555 C 0.52651 0.40043 0.95315 0.0
C556 C 0.50975 0.39532 0.92195 0.0
C557 C 0.48969 0.41154 0.91394 0.0
C558 C 0.47302 0.4 0.87916 0.0
C559 C 0.43135 0.37985 0.88172 0.0
C560 C 0.48746 0.4326 0.85475 0.0
C561 C 0.4868 0.3748 0.86906 0.0
C562 C 0.50849 0.373 0.89385 0.0
C563 C 0.52447 0.35162 0.89024 0.0
C564 C 0.51717 0.33061 0.86092 0.0
C565 C 0.49364 0.33077 0.83596 0.0
C566 C 0.47883 0.35365 0.83992 0.0
H567 H 0.09795 0.47168 0.47936 0.0
H568 H 0.99314 0.38243 0.45091 0.0
H569 H 0.02229 0.36739 0.40406 0.0
H570 H 0.12825 0.50038 0.39588 0.0
H571 H 0.17503 0.51415 0.4035 0.0
H572 H 0.14689 0.51469 0.43759 0.0
H573 H 0.1617 0.47321 0.47382 0.0
H574 H 0.1901 0.47271 0.43987 0.0
H575 H 0.1536 0.43076 0.45677 0.0
H576 H 0.06263 0.36442 0.35806 0.0
H577 H 0.11006 0.3757 0.31515 0.0
H578 H 0.18778 0.46915 0.37187 0.0
C579 C 0.08134 0.44832 0.46388 0.0
C580 C 0.0434 0.42771 0.46914 0.0
C581 C 0.02231 0.39824 0.44752 0.0
C582 C 0.03865 0.3895 0.42089 0.0
C583 C 0.07606 0.41081 0.4159 0.0
C584 C 0.09712 0.43973 0.43672 0.0
C585 C 0.13609 0.46049 0.42398 0.0
C586 C 0.1472 0.49974 0.41468 0.0
C587 C 0.16189 0.4592 0.45017 0.0
C588 C 0.13363 0.43891 0.39265 0.0
C589 C 0.09891 0.41008 0.38864 0.0
C590 C 0.08996 0.38682 0.36107 0.0
C591 C 0.1171 0.39341 0.33682 0.0
C592 C 0.15267 0.4233 0.34003 0.0
C593 C 0.16089 0.44604 0.36859 0.0
H594 H 0.55853 0.07093 0.94837 0.0
H595 H 0.49962 0.97004 0.89369 0.0
H596 H 0.54323 0.99689 0.84566 0.0
H597 H 0.5782 0.12926 0.87586 0.0
H598 H 0.62256 0.16277 0.89013 0.0
H599 H 0.58752 0.13535 0.92063 0.0
H600 H 0.62931 0.11446 0.94716 0.0
H601 H 0.66457 0.14187 0.91682 0.0
H602 H 0.64876 0.0942 0.92052 0.0
H603 H 0.59312 0.03491 0.80341 0.0
H604 H 0.64462 0.08104 0.76956 0.0
H605 H 0.67109 0.15814 0.85108 0.0
C606 C 0.55491 0.05429 0.92643 0.0
C607 C 0.52565 0.01813 0.925 0.0
C608 C 0.52175 0.99766 0.89552 0.0
C609 C 0.54644 0.01272 0.8681 0.0
C610 C 0.57483 0.04843 0.87034 0.0
C611 C 0.57913 0.069 0.89872 0.0
C612 C 0.61142 0.10702 0.89436 0.0
C613 C 0.59919 0.13526 0.89529 0.0
C614 C 0.64022 0.11483 0.92131 0.0
C615 C 0.62487 0.10459 0.85914 0.0
C616 C 0.60332 0.07051 0.84581 0.0
C617 C 0.61014 0.06164 0.81364 0.0
C618 C 0.63959 0.08816 0.79458 0.0
C619 C 0.66215 0.12341 0.80751 0.0
C620 C 0.65454 0.13154 0.84038 0.0
H621 H 0.59687 0.6458 0.46785 0.0
H622 H 0.55194 0.54977 0.40557 0.0
H623 H 0.55362 0.58599 0.35582 0.0
H624 H 0.54895 0.68338 0.43384 0.0
H625 H 0.58534 0.72973 0.43479 0.0
H626 H 0.58436 0.69737 0.4647 0.0
H627 H 0.64856 0.71201 0.44507 0.0
H628 H 0.65021 0.74518 0.41569 0.0
H629 H 0.65748 0.70955 0.40061 0.0
H630 H 0.55175 0.63129 0.31519 0.0
H631 H 0.55763 0.68456 0.2841 0.0
H632 H 0.60747 0.75118 0.37216 0.0
C633 C 0.58848 0.63264 0.44348 0.0
C634 C 0.57451 0.59507 0.44048 0.0
C635 C 0.56332 0.57866 0.4083 0.0
C636 C 0.5638 0.59894 0.37999 0.0
C637 C 0.57623 0.63567 0.38419 0.0
C638 C 0.58939 0.65257 0.41491 0.0
C639 C 0.60074 0.69221 0.41299 0.0
C640 C 0.57851 0.70117 0.43806 0.0
C641 C 0.64168 0.71615 0.41893 0.0
C642 C 0.5912 0.69485 0.37662 0.0
C643 C 0.57666 0.66191 0.36048 0.0
C644 C 0.56375 0.65737 0.32738 0.0
C645 C 0.56681 0.68758 0.31006 0.0
C646 C 0.58314 0.72181 0.32577 0.0
C647 C 0.5952 0.72531 0.3595 0.0
H648 H 0.479 0.08017 0.55832 0.0
H649 H 0.52118 0.03145 0.62739 0.0
H650 H 0.51942 0.0693 0.67395 0.0
H651 H 0.52855 0.16838 0.5887 0.0
H652 H 0.49273 0.17874 0.58404 0.0
H653 H 0.49442 0.14582 0.55691 0.0
H654 H 0.42912 0.09767 0.57551 0.0
H655 H 0.42687 0.13065 0.60216 0.0
H656 H 0.41827 0.0882 0.62008 0.0
H657 H 0.51841 0.11739 0.71172 0.0
H658 H 0.51053 0.16522 0.73891 0.0
H659 H 0.46781 0.18072 0.64486 0.0
C660 C 0.48712 0.07681 0.5834 0.0
C661 C 0.50007 0.05267 0.58919 0.0
C662 C 0.51072 0.0494 0.62238 0.0
C663 C 0.51012 0.07104 0.64894 0.0
C664 C 0.49843 0.09553 0.64199 0.0
C665 C 0.48644 0.09793 0.61015 0.0
C666 C 0.47565 0.12665 0.60895 0.0
C667 C 0.49926 0.15667 0.58312 0.0
C668 C 0.43507 0.10978 0.60123 0.0
C669 C 0.48381 0.14041 0.64498 0.0
C670 C 0.49719 0.12239 0.66367 0.0
C671 C 0.50759 0.13137 0.69737 0.0
C672 C 0.50331 0.15878 0.71253 0.0
C673 C 0.48848 0.17668 0.69406 0.0
C674 C 0.47906 0.16747 0.65975 0.0
H675 H 0.46132 0.4837 0.15698 0.0
H676 H 0.40894 0.44029 0.06098 0.0
H677 H 0.349 0.41805 0.08834 0.0
H678 H 0.38863 0.41353 0.21395 0.0
H679 H 0.39391 0.44664 0.24501 0.0
H680 H 0.43233 0.45345 0.21965 0.0
H681 H 0.4427 0.5157 0.19956 0.0
H682 H 0.40442 0.50908 0.2248 0.0
H683 H 0.40607 0.5183 0.17993 0.0
H684 H 0.29568 0.40664 0.12377 0.0
H685 H 0.25277 0.40997 0.16394 0.0
H686 H 0.33894 0.46253 0.23723 0.0
C687 C 0.43709 0.46843 0.14213 0.0
C688 C 0.4396 0.46306 0.10703 0.0
C689 C 0.40749 0.4443 0.08797 0.0
C690 C 0.37334 0.43145 0.10333 0.0
C691 C 0.37167 0.43784 0.13779 0.0
C692 C 0.40266 0.45598 0.15701 0.0
C693 C 0.39345 0.46312 0.19246 0.0
C694 C 0.40263 0.44298 0.21936 0.0
C695 C 0.4128 0.50396 0.19958 0.0
C696 C 0.35271 0.44712 0.18976 0.0
C697 C 0.34068 0.43208 0.1582 0.0
C698 C 0.30466 0.41787 0.14875 0.0
C699 C 0.28045 0.4199 0.17177 0.0
C700 C 0.29231 0.43627 0.20387 0.0
C701 C 0.32879 0.44921 0.21319 0.0
H702 H 0.9331 0.34197 0.56855 0.0
H703 H 0.86402 0.38912 0.57358 0.0
H704 H 0.82986 0.34844 0.62187 0.0
H705 H 0.85896 0.2479 0.5892 0.0
H706 H 0.88916 0.2381 0.6126 0.0
H707 H 0.90632 0.26953 0.57737 0.0
H708 H 0.95434 0.31805 0.61672 0.0
H709 H 0.93688 0.28707 0.65219 0.0
H710 H 0.93971 0.33046 0.6549 0.0
H711 H 0.81088 0.30985 0.67621 0.0
H712 H 0.79964 0.26746 0.72362 0.0
H713 H 0.87408 0.23859 0.67744 0.0
C714 C 0.91006 0.34288 0.57921 0.0
C715 C 0.90085 0.36832 0.56717 0.0
C716 C 0.87097 0.36926 0.58202 0.0
C717 C 0.85169 0.34653 0.60968 0.0
C718 C 0.86204 0.32234 0.6216 0.0
C719 C 0.88975 0.31952 0.60607 0.0
C720 C 0.89527 0.29104 0.62349 0.0
C721 C 0.88692 0.25979 0.59922 0.0
C722 C 0.93384 0.30766 0.63766 0.0
C723 C 0.86714 0.27904 0.65184 0.0
C724 C 0.84862 0.29777 0.65072 0.0
C725 C 0.82403 0.29383 0.67638 0.0
C726 C 0.81738 0.26926 0.70314 0.0
C727 C 0.83395 0.24774 0.70347 0.0
C728 C 0.85976 0.2535 0.67761 0.0
H729 H 0.53127 0.98875 0.11728 0.0
H730 H 0.48562 0.90722 0.03879 0.0
H731 H 0.49287 0.86467 0.07531 0.0
H732 H 0.59835 0.96553 0.14591 0.0
H733 H 0.59334 0.97385 0.18992 0.0
H734 H 0.58541 0.99836 0.15711 0.0
H735 H 0.52131 0.97651 0.18252 0.0
H736 H 0.52879 0.95136 0.21502 0.0
H737 H 0.49009 0.92873 0.18779 0.0
H738 H 0.50195 0.82957 0.121 0.0
H739 H 0.51974 0.80685 0.17058 0.0
H740 H 0.56065 0.91093 0.21931 0.0
C741 C 0.52338 0.96218 0.10758 0.0
C742 C 0.50781 0.95142 0.07512 0.0
C743 C 0.49754 0.9162 0.06354 0.0
C744 C 0.50138 0.89168 0.08416 0.0
C745 C 0.51572 0.90268 0.11634 0.0
C746 C 0.52712 0.93723 0.12786 0.0
C747 C 0.54192 0.94205 0.1635 0.0
C748 C 0.58215 0.9717 0.16413 0.0
C749 C 0.51916 0.95014 0.18869 0.0
C750 C 0.5371 0.9049 0.17001 0.0
C751 C 0.52154 0.8825 0.14261 0.0
C752 C 0.51428 0.84688 0.14262 0.0
C753 C 0.52423 0.83411 0.17101 0.0
C754 C 0.54156 0.85705 0.19885 0.0
C755 C 0.5474 0.89268 0.19846 0.0
H756 H 0.61189 0.52893 0.59121 0.0
H757 H 0.6212 0.63228 0.61436 0.0
H758 H 0.66902 0.64427 0.65599 0.0
H759 H 0.62058 0.50702 0.67642 0.0
H760 H 0.64556 0.48474 0.66538 0.0
H761 H 0.61425 0.48571 0.63569 0.0
H762 H 0.66544 0.51479 0.59009 0.0
H763 H 0.69696 0.51386 0.61958 0.0
H764 H 0.70687 0.5559 0.59967 0.0
H765 H 0.71564 0.64432 0.69598 0.0
H766 H 0.75421 0.63094 0.73286 0.0
H767 H 0.7119 0.52637 0.68495 0.0
C768 C 0.62441 0.55436 0.60462 0.0
C769 C 0.61317 0.57992 0.5992 0.0
C770 C 0.62954 0.61243 0.61795 0.0
C771 C 0.65676 0.61948 0.64161 0.0
C772 C 0.66702 0.59357 0.64653 0.0
C773 C 0.65113 0.56154 0.62869 0.0
C774 C 0.66536 0.53717 0.64004 0.0
C775 C 0.63462 0.50157 0.65529 0.0
C776 C 0.68482 0.53002 0.61059 0.0
C777 C 0.69188 0.5605 0.66697 0.0
C778 C 0.69272 0.59305 0.6702 0.0
C779 C 0.71518 0.6189 0.69362 0.0
C780 C 0.73707 0.61111 0.71442 0.0
C781 C 0.73613 0.57762 0.71189 0.0
C782 C 0.71329 0.55222 0.68763 0.0
H783 H 0.07532 0.61161 0.07035 0.0
H784 H 0.02341 0.51096 0.1276 0.0
H785 H 0.05908 0.5432 0.17818 0.0
H786 H 0.16271 0.64751 0.10433 0.0
H787 H 0.17192 0.69348 0.10553 0.0
H788 H 0.14145 0.66277 0.07442 0.0
H789 H 0.09035 0.67445 0.09523 0.0
H790 H 0.12105 0.7061 0.12559 0.0
H791 H 0.07799 0.66887 0.13967 0.0
H792 H 0.10414 0.58713 0.22163 0.0
H793 H 0.14557 0.64016 0.25646 0.0
H794 H 0.16547 0.71083 0.17005 0.0
C795 C 0.07088 0.59652 0.09378 0.0
C796 C 0.04642 0.55899 0.09533 0.0
C797 C 0.04151 0.53996 0.12622 0.0
C798 C 0.06204 0.55794 0.15487 0.0
C799 C 0.08697 0.59489 0.15211 0.0
C800 C 0.09071 0.61403 0.12252 0.0
C801 C 0.1185 0.65362 0.12601 0.0
C802 C 0.15053 0.66499 0.10109 0.0
C803 C 0.10092 0.67714 0.12137 0.0
C804 C 0.1299 0.65397 0.16223 0.0
C805 C 0.11201 0.61984 0.17684 0.0
C806 C 0.11824 0.61395 0.21041 0.0
C807 C 0.1421 0.64402 0.22986 0.0
C808 C 0.15885 0.67922 0.2156 0.0
C809 C 0.15328 0.68401 0.18126 0.0
loop_
_geom_bond_atom_site_label_1
_geom_bond_atom_site_label_2
_geom_bond_distance
_geom_bond_site_symmetry_2
_ccdc_geom_bond_type
C0 O2 1.247 . S
C0 O4 1.258 . S
C1 O8 1.247 1_655 S
C1 O9 1.258 . S
O2 C0 1.247 . S
O2 Zn3 2.028 1_455 S
Zn3 O2 2.028 1_655 S
Zn3 O7 2.035 1_554 S
Zn3 O9 2.035 1_554 S
Zn3 O10 2.028 1_655 S
O4 C0 1.258 . S
O4 Zn5 2.035 1_554 S
Zn5 O4 2.035 1_556 S
Zn5 O6 2.028 . S
Zn5 O8 2.028 . S
Zn5 O11 2.035 1_556 S
O6 Zn5 2.028 . S
O6 C12 1.247 1_455 S
O7 Zn3 2.035 1_556 S
O7 C12 1.258 . S
O8 C1 1.247 1_455 S
O8 Zn5 2.028 . S
O9 C1 1.258 . S
O9 Zn3 2.035 1_556 S
O10 Zn3 2.028 1_455 S
O10 C13 1.247 . S
O11 Zn5 2.035 1_554 S
O11 C13 1.258 . S
C12 O6 1.247 1_655 S
C12 O7 1.258 . S
C13 O10 1.247 . S
C13 O11 1.258 . S
C14 O16 1.247 . S
C14 O18 1.258 . S
C15 O22 1.247 1_565 S
C15 O23 1.258 . S
O16 C14 1.247 . S
O16 Zn17 2.028 1_545 S
Zn17 O16 2.028 1_565 S
Zn17 O21 2.035 . S
Zn17 O23 2.035 . S
Zn17 O24 2.028 1_565 S
O18 C14 1.258 . S
O18 Zn19 2.035 . S
Zn19 O18 2.035 . S
Zn19 O20 2.028 . S
Zn19 O22 2.028 . S
Zn19 O25 2.035 . S
O20 Zn19 2.028 . S
O20 C26 1.247 1_545 S
O21 Zn17 2.035 . S
O21 C26 1.258 . S
O22 C15 1.247 1_545 S
O22 Zn19 2.028 . S
O23 C15 1.258 . S
O23 Zn17 2.035 . S
O24 Zn17 2.028 1_545 S
O24 C27 1.247 . S
O25 Zn19 2.035 . S
O25 C27 1.258 . S
C26 O20 1.247 1_565 S
C26 O21 1.258 . S
C27 O24 1.247 . S
C27 O25 1.258 . S
C28 O30 1.247 . S
C28 O32 1.258 . S
C29 O36 1.247 . S
C29 O37 1.258 . S
O30 C28 1.247 . S
O30 Zn31 2.028 . S
Zn31 O30 2.028 . S
Zn31 O35 2.035 1_556 S
Zn31 O37 2.035 1_556 S
Zn31 O38 2.028 . S
O32 C28 1.258 . S
O32 Zn33 2.035 1_556 S
Zn33 O32 2.035 1_554 S
Zn33 O34 2.028 . S
Zn33 O36 2.028 . S
Zn33 O39 2.035 1_554 S
O34 Zn33 2.028 . S
O34 C40 1.247 . S
O35 Zn31 2.035 1_554 S
O35 C40 1.258 . S
O36 C29 1.247 . S
O36 Zn33 2.028 . S
O37 C29 1.258 . S
O37 Zn31 2.035 1_554 S
O38 Zn31 2.028 . S
O38 C41 1.247 . S
O39 Zn33 2.035 1_556 S
O39 C41 1.258 . S
C40 O34 1.247 . S
C40 O35 1.258 . S
C41 O38 1.247 . S
C41 O39 1.258 . S
C42 O44 1.247 . S
C42 O46 1.246 1_455 S
C43 O50 1.247 . S
C43 O51 1.258 1_655 S
O44 C42 1.247 . S
O44 Zn45 2.028 . S
Zn45 O44 2.028 . S
Zn45 O49 2.035 . S
Zn45 O51 2.035 . S
Zn45 O52 2.028 . S
O46 C42 1.246 1_655 S
O46 Zn47 2.038 . S
Zn47 O46 2.038 . S
Zn47 O48 2.028 . S
Zn47 O50 2.028 . S
Zn47 O53 2.050 . S
O48 Zn47 2.028 . S
O48 C54 1.247 . S
O49 Zn45 2.035 . S
O49 C54 1.258 1_455 S
O50 C43 1.247 . S
O50 Zn47 2.028 . S
O51 C43 1.258 1_455 S
O51 Zn45 2.035 . S
O52 Zn45 2.028 . S
O52 C55 1.247 . S
O53 Zn47 2.050 . S
O53 C55 1.240 1_655 S
C54 O48 1.247 . S
C54 O49 1.258 1_655 S
C55 O52 1.247 . S
C55 O53 1.240 1_455 S
C56 O58 1.247 1_565 S
C56 O60 1.258 . S
C57 O64 1.247 . S
C57 O65 1.258 . S
O58 C56 1.247 1_545 S
O58 Zn59 2.028 . S
Zn59 O58 2.028 . S
Zn59 O63 2.035 1_554 S
Zn59 O65 2.035 1_554 S
Zn59 O66 2.028 . S
O60 C56 1.258 . S
O60 Zn61 2.035 1_554 S
Zn61 O60 2.035 1_556 S
Zn61 O62 2.028 1_565 S
Zn61 O64 2.028 1_565 S
Zn61 O67 2.035 1_556 S
O62 Zn61 2.028 1_545 S
O62 C68 1.247 . S
O63 Zn59 2.035 1_556 S
O63 C68 1.258 . S
O64 C57 1.247 . S
O64 Zn61 2.028 1_545 S
O65 C57 1.258 . S
O65 Zn59 2.035 1_556 S
O66 Zn59 2.028 . S
O66 C69 1.247 1_545 S
O67 Zn61 2.035 1_554 S
O67 C69 1.258 . S
C68 O62 1.247 . S
C68 O63 1.258 . S
C69 O66 1.247 1_565 S
C69 O67 1.258 . S
C70 O72 1.247 . S
C70 O74 1.258 . S
C71 O78 1.247 . S
C71 O79 1.258 . S
O72 C70 1.247 . S
O72 Zn73 2.028 . S
Zn73 O72 2.028 . S
Zn73 O77 2.035 . S
Zn73 O79 2.035 . S
Zn73 O80 2.028 . S
O74 C70 1.258 . S
O74 Zn75 2.035 . S
Zn75 O74 2.035 . S
Zn75 O76 2.028 . S
Zn75 O78 2.028 . S
Zn75 O81 2.035 . S
O76 Zn75 2.028 . S
O76 C82 1.247 . S
O77 Zn73 2.035 . S
O77 C82 1.258 . S
O78 C71 1.247 . S
O78 Zn75 2.028 . S
O79 C71 1.258 . S
O79 Zn73 2.035 . S
O80 Zn73 2.028 . S
O80 C83 1.247 . S
O81 Zn75 2.035 . S
O81 C83 1.258 . S
C82 O76 1.247 . S
C82 O77 1.258 . S
C83 O80 1.247 . S
C83 O81 1.258 . S
Mg84 O91 2.141 . S
Mg84 O92 2.048 . S
Mg84 O93 2.048 . S
Mg84 O96 2.141 . S
C85 O86 1.313 . S
C85 O92 1.195 . S
O86 C85 1.313 . S
C87 O88 1.245 . S
C87 O96 1.289 . S
O88 C87 1.245 . S
C89 O90 1.245 . S
C89 O91 1.289 . S
O90 C89 1.245 . S
O91 Mg84 2.141 . S
O91 C89 1.289 . S
O92 Mg84 2.048 . S
O92 C85 1.195 . S
O93 Mg84 2.048 . S
O93 C94 1.195 . S
C94 O93 1.195 . S
C94 O95 1.313 . S
O95 C94 1.313 . S
O96 Mg84 2.141 . S
O96 C87 1.289 . S
Mg97 O104 2.141 . S
Mg97 O105 2.048 . S
Mg97 O106 2.048 . S
Mg97 O109 2.141 . S
C98 O99 1.313 . S
C98 O105 1.195 . S
O99 C98 1.313 . S
C100 O101 1.245 . S
C100 O109 1.289 . S
O101 C100 1.245 . S
C102 O103 1.245 . S
C102 O104 1.289 . S
O103 C102 1.245 . S
O104 Mg97 2.141 . S
O104 C102 1.289 . S
O105 Mg97 2.048 . S
O105 C98 1.195 . S
O106 Mg97 2.048 . S
O106 C107 1.195 . S
C107 O106 1.195 . S
C107 O108 1.313 . S
O108 C107 1.313 . S
O109 Mg97 2.141 . S
O109 C100 1.289 . S
Mg110 O117 2.141 . S
Mg110 O118 2.048 . S
Mg110 O119 2.048 . S
Mg110 O122 2.141 . S
C111 O112 1.313 . S
C111 O118 1.195 . S
O112 C111 1.313 . S
C113 O114 1.245 . S
C113 O122 1.289 . S
O114 C113 1.245 . S
C115 O116 1.245 . S
C115 O117 1.289 . S
O116 C115 1.245 . S
O117 Mg110 2.141 . S
O117 C115 1.289 . S
O118 Mg110 2.048 . S
O118 C111 1.195 . S
O119 Mg110 2.048 . S
O119 C120 1.195 . S
C120 O119 1.195 . S
C120 O121 1.313 . S
O121 C120 1.313 . S
O122 Mg110 2.141 . S
O122 C113 1.289 . S
Mg123 O130 2.141 . S
Mg123 O131 2.048 . S
Mg123 O132 2.048 . S
Mg123 O135 2.141 . S
C124 O125 1.313 . S
C124 O131 1.195 . S
O125 C124 1.313 . S
C126 O127 1.245 . S
C126 O135 1.289 . S
O127 C126 1.245 . S
C128 O129 1.245 . S
C128 O130 1.289 . S
O129 C128 1.245 . S
O130 Mg123 2.141 . S
O130 C128 1.289 . S
O131 Mg123 2.048 . S
O131 C124 1.195 . S
O132 Mg123 2.048 . S
O132 C133 1.195 . S
C133 O132 1.195 . S
C133 O134 1.313 . S
O134 C133 1.313 . S
O135 Mg123 2.141 . S
O135 C126 1.289 . S
Mg136 O143 2.141 . S
Mg136 O144 2.048 . S
Mg136 O145 2.048 . S
Mg136 O148 2.141 . S
C137 O138 1.313 . S
C137 O144 1.195 . S
O138 C137 1.313 . S
C139 O140 1.245 . S
C139 O148 1.289 . S
O140 C139 1.245 . S
C141 O142 1.245 . S
C141 O143 1.289 . S
O142 C141 1.245 . S
O143 Mg136 2.141 . S
O143 C141 1.289 . S
O144 Mg136 2.048 . S
O144 C137 1.195 . S
O145 Mg136 2.048 . S
O145 C146 1.195 . S
C146 O145 1.195 . S
C146 O147 1.313 . S
O147 C146 1.313 . S
O148 Mg136 2.141 . S
O148 C139 1.289 . S
Mg149 O156 2.141 . S
Mg149 O157 2.048 . S
Mg149 O158 2.048 . S
Mg149 O161 2.141 . S
C150 O151 1.313 . S
C150 O157 1.195 . S
O151 C150 1.313 . S
C152 O153 1.245 . S
C152 O161 1.289 . S
O153 C152 1.245 . S
C154 O155 1.245 . S
C154 O156 1.289 . S
O155 C154 1.245 . S
O156 Mg149 2.141 . S
O156 C154 1.289 . S
O157 Mg149 2.048 . S
O157 C150 1.195 . S
O158 Mg149 2.048 . S
O158 C159 1.195 . S
C159 O158 1.195 . S
C159 O160 1.313 . S
O160 C159 1.313 . S
O161 Mg149 2.141 . S
O161 C152 1.289 . S
H162 C174 0.930 . S
H163 C176 0.930 . S
H164 C177 0.930 . S
H165 C181 0.959 . S
H166 C181 0.959 . S
H167 C181 0.961 . S
H168 C182 0.960 . S
H169 C182 0.961 . S
H170 C182 0.959 . S
H171 C185 0.929 . S
H172 C186 0.931 . S
H173 C188 0.930 . S
C174 H162 0.930 . S
C174 C175 1.399 . S
C174 C179 1.399 . S
C175 C174 1.399 . S
C175 C176 1.376 . S
C176 H163 0.930 . S
C176 C175 1.376 . S
C176 C177 1.388 . S
C177 H164 0.930 . S
C177 C176 1.388 . S
C177 C178 1.390 . S
C178 C177 1.390 . S
C178 C179 1.394 . S
C178 C184 1.465 . S
C179 C174 1.399 . S
C179 C178 1.394 . S
C179 C180 1.516 . S
C180 C179 1.516 . S
C180 C181 1.502 . S
C180 C182 1.561 . S
C180 C183 1.526 . S
C181 H165 0.959 . S
C181 H166 0.959 . S
C181 H167 0.961 . S
C181 C180 1.502 . S
C182 H168 0.960 . S
C182 H169 0.961 . S
C182 H170 0.959 . S
C182 C180 1.561 . S
C183 C180 1.526 . S
C183 C184 1.396 . S
C183 C188 1.390 . S
C184 C178 1.465 . S
C184 C183 1.396 . S
C184 C185 1.399 . S
C185 H171 0.929 . S
C185 C184 1.399 . S
C185 C186 1.385 . S
C186 H172 0.931 . S
C186 C185 1.385 . S
C186 C187 1.389 . S
C187 C186 1.389 . S
C187 C188 1.387 . S
C188 H173 0.930 . S
C188 C183 1.390 . S
C188 C187 1.387 . S
H189 C201 0.930 . S
H190 C203 0.930 . S
H191 C204 0.930 . S
H192 C208 0.959 . S
H193 C208 0.959 . S
H194 C208 0.961 . S
H195 C209 0.960 . S
H196 C209 0.961 . S
H197 C209 0.959 . S
H198 C212 0.929 . S
H199 C213 0.931 . S
H200 C215 0.930 . S
C201 H189 0.930 . S
C201 C202 1.399 . S
C201 C206 1.399 . S
C202 C201 1.399 . S
C202 C203 1.376 . S
C203 H190 0.930 . S
C203 C202 1.376 . S
C203 C204 1.388 . S
C204 H191 0.930 . S
C204 C203 1.388 . S
C204 C205 1.390 . S
C205 C204 1.390 . S
C205 C206 1.394 . S
C205 C211 1.465 . S
C206 C201 1.399 . S
C206 C205 1.394 . S
C206 C207 1.516 . S
C207 C206 1.516 . S
C207 C208 1.502 . S
C207 C209 1.561 . S
C207 C210 1.526 . S
C208 H192 0.959 . S
C208 H193 0.959 . S
C208 H194 0.961 . S
C208 C207 1.502 . S
C209 H195 0.960 . S
C209 H196 0.961 . S
C209 H197 0.959 . S
C209 C207 1.561 . S
C210 C207 1.526 . S
C210 C211 1.396 . S
C210 C215 1.390 . S
C211 C205 1.465 . S
C211 C210 1.396 . S
C211 C212 1.399 . S
C212 H198 0.929 . S
C212 C211 1.399 . S
C212 C213 1.385 . S
C213 H199 0.931 . S
C213 C212 1.385 . S
C213 C214 1.389 . S
C214 C213 1.389 . S
C214 C215 1.387 . S
C215 H200 0.930 . S
C215 C210 1.390 . S
C215 C214 1.387 . S
H216 C228 0.930 . S
H217 C230 0.930 . S
H218 C231 0.930 . S
H219 C235 0.959 . S
H220 C235 0.959 . S
H221 C235 0.961 . S
H222 C236 0.960 . S
H223 C236 0.961 . S
H224 C236 0.959 . S
H225 C239 0.929 . S
H226 C240 0.931 . S
H227 C242 0.930 . S
C228 H216 0.930 . S
C228 C229 1.399 . S
C228 C233 1.399 . S
C229 C228 1.399 . S
C229 C230 1.376 . S
C230 H217 0.930 . S
C230 C229 1.376 . S
C230 C231 1.388 . S
C231 H218 0.930 . S
C231 C230 1.388 . S
C231 C232 1.390 . S
C232 C231 1.390 . S
C232 C233 1.394 . S
C232 C238 1.465 . S
C233 C228 1.399 . S
C233 C232 1.394 . S
C233 C234 1.516 . S
C234 C233 1.516 . S
C234 C235 1.502 . S
C234 C236 1.561 . S
C234 C237 1.526 . S
C235 H219 0.959 . S
C235 H220 0.959 . S
C235 H221 0.961 . S
C235 C234 1.502 . S
C236 H222 0.960 . S
C236 H223 0.961 . S
C236 H224 0.959 . S
C236 C234 1.561 . S
C237 C234 1.526 . S
C237 C238 1.396 . S
C237 C242 1.390 . S
C238 C232 1.465 . S
C238 C237 1.396 . S
C238 C239 1.399 . S
C239 H225 0.929 . S
C239 C238 1.399 . S
C239 C240 1.385 . S
C240 H226 0.931 . S
C240 C239 1.385 . S
C240 C241 1.389 . S
C241 C240 1.389 . S
C241 C242 1.387 . S
C242 H227 0.930 . S
C242 C237 1.390 . S
C242 C241 1.387 . S
H243 C255 0.930 . S
H244 C257 0.930 1_455 S
H245 C258 0.930 . S
H246 C262 0.959 . S
H247 C262 0.959 . S
H248 C262 0.961 . S
H249 C263 0.960 . S
H250 C263 0.961 . S
H251 C263 0.959 . S
H252 C266 0.929 . S
H253 C267 0.931 . S
H254 C269 0.930 . S
C255 H243 0.930 . S
C255 C256 1.399 . S
C255 C260 1.399 . S
C256 C255 1.399 . S
C256 C257 1.376 . S
C257 H244 0.930 1_655 S
C257 C256 1.376 . S
C257 C258 1.388 . S
C258 H245 0.930 . S
C258 C257 1.388 . S
C258 C259 1.390 . S
C259 C258 1.390 . S
C259 C260 1.394 . S
C259 C265 1.465 . S
C260 C255 1.399 . S
C260 C259 1.394 . S
C260 C261 1.516 . S
C261 C260 1.516 . S
C261 C262 1.502 . S
C261 C263 1.561 . S
C261 C264 1.526 . S
C262 H246 0.959 . S
C262 H247 0.959 . S
C262 H248 0.961 . S
C262 C261 1.502 . S
C263 H249 0.960 . S
C263 H250 0.961 . S
C263 H251 0.959 . S
C263 C261 1.561 . S
C264 C261 1.526 . S
C264 C265 1.396 . S
C264 C269 1.390 . S
C265 C259 1.465 . S
C265 C264 1.396 . S
C265 C266 1.399 . S
C266 H252 0.929 . S
C266 C265 1.399 . S
C266 C267 1.385 . S
C267 H253 0.931 . S
C267 C266 1.385 . S
C267 C268 1.389 . S
C268 C267 1.389 . S
C268 C269 1.387 . S
C269 H254 0.930 . S
C269 C264 1.390 . S
C269 C268 1.387 . S
H270 C282 0.930 . S
H271 C284 0.930 . S
H272 C285 0.930 . S
H273 C289 0.959 . S
H274 C289 0.959 . S
H275 C289 0.961 1_545 S
H276 C290 0.960 1_545 S
H277 C290 0.961 1_545 S
H278 C290 0.959 . S
H279 C293 0.929 . S
H280 C294 0.931 . S
H281 C296 0.930 . S
C282 H270 0.930 . S
C282 C283 1.399 . S
C282 C287 1.399 . S
C283 C282 1.399 . S
C283 C284 1.376 . S
C284 H271 0.930 . S
C284 C283 1.376 . S
C284 C285 1.388 . S
C285 H272 0.930 . S
C285 C284 1.388 . S
C285 C286 1.390 . S
C286 C285 1.390 . S
C286 C287 1.394 . S
C286 C292 1.465 . S
C287 C282 1.399 . S
C287 C286 1.394 . S
C287 C288 1.516 . S
C288 C287 1.516 . S
C288 C289 1.502 . S
C288 C290 1.561 . S
C288 C291 1.526 . S
C289 H273 0.959 . S
C289 H274 0.959 . S
C289 H275 0.961 1_565 S
C289 C288 1.502 . S
C290 H276 0.960 1_565 S
C290 H277 0.961 1_565 S
C290 H278 0.959 . S
C290 C288 1.561 . S
C291 C288 1.526 . S
C291 C292 1.396 . S
C291 C296 1.390 . S
C292 C286 1.465 . S
C292 C291 1.396 . S
C292 C293 1.399 . S
C293 H279 0.929 . S
C293 C292 1.399 . S
C293 C294 1.385 . S
C294 H280 0.931 . S
C294 C293 1.385 . S
C294 C295 1.389 . S
C295 C294 1.389 . S
C295 C296 1.387 . S
C296 H281 0.930 . S
C296 C291 1.390 . S
C296 C295 1.387 . S
H297 C309 0.930 . S
H298 C311 0.930 . S
H299 C312 0.930 . S
H300 C316 0.959 . S
H301 C316 0.959 . S
H302 C316 0.961 . S
H303 C317 0.960 . S
H304 C317 0.961 . S
H305 C317 0.959 . S
H306 C320 0.929 . S
H307 C321 0.931 . S
H308 C323 0.930 . S
C309 H297 0.930 . S
C309 C310 1.399 . S
C309 C314 1.399 . S
C310 C309 1.399 . S
C310 C311 1.376 . S
C311 H298 0.930 . S
C311 C310 1.376 . S
C311 C312 1.388 . S
C312 H299 0.930 . S
C312 C311 1.388 . S
C312 C313 1.390 . S
C313 C312 1.390 . S
C313 C314 1.394 . S
C313 C319 1.465 . S
C314 C309 1.399 . S
C314 C313 1.394 . S
C314 C315 1.516 . S
C315 C314 1.516 . S
C315 C316 1.502 . S
C315 C317 1.561 . S
C315 C318 1.526 . S
C316 H300 0.959 . S
C316 H301 0.959 . S
C316 H302 0.961 . S
C316 C315 1.502 . S
C317 H303 0.960 . S
C317 H304 0.961 . S
C317 H305 0.959 . S
C317 C315 1.561 . S
C318 C315 1.526 . S
C318 C319 1.396 . S
C318 C323 1.390 . S
C319 C313 1.465 . S
C319 C318 1.396 . S
C319 C320 1.399 . S
C320 H306 0.929 . S
C320 C319 1.399 . S
C320 C321 1.385 . S
C321 H307 0.931 . S
C321 C320 1.385 . S
C321 C322 1.389 . S
C322 C321 1.389 . S
C322 C323 1.387 . S
C323 H308 0.930 . S
C323 C318 1.390 . S
C323 C322 1.387 . S
H324 C336 0.930 . S
H325 C338 0.927 . S
H326 C339 0.930 1_545 S
H327 C343 0.959 . S
H328 C343 0.959 . S
H329 C343 0.961 . S
H330 C344 0.960 . S
H331 C344 0.961 . S
H332 C344 0.959 . S
H333 C347 0.929 . S
H334 C348 0.931 . S
H335 C350 0.930 . S
C336 H324 0.930 . S
C336 C337 1.399 . S
C336 C341 1.399 . S
C337 C336 1.399 . S
C337 C338 1.378 1_565 S
C338 H325 0.927 . S
C338 C337 1.378 1_545 S
C338 C339 1.390 1_545 S
C339 H326 0.930 1_565 S
C339 C338 1.390 1_565 S
C339 C340 1.390 . S
C340 C339 1.390 . S
C340 C341 1.394 . S
C340 C346 1.465 . S
C341 C336 1.399 . S
C341 C340 1.394 . S
C341 C342 1.516 . S
C342 C341 1.516 . S
C342 C343 1.502 . S
C342 C344 1.561 . S
C342 C345 1.526 . S
C343 H327 0.959 . S
C343 H328 0.959 . S
C343 H329 0.961 . S
C343 C342 1.502 . S
C344 H330 0.960 . S
C344 H331 0.961 . S
C344 H332 0.959 . S
C344 C342 1.561 . S
C345 C342 1.526 . S
C345 C346 1.396 . S
C345 C350 1.390 . S
C346 C340 1.465 . S
C346 C345 1.396 . S
C346 C347 1.399 . S
C347 H333 0.929 . S
C347 C346 1.399 . S
C347 C348 1.385 . S
C348 H334 0.931 . S
C348 C347 1.385 . S
C348 C349 1.389 . S
C349 C348 1.389 . S
C349 C350 1.387 . S
C350 H335 0.930 . S
C350 C345 1.390 . S
C350 C349 1.387 . S
H351 C363 0.930 . S
H352 C365 0.930 . S
H353 C366 0.930 . S
H354 C370 0.959 . S
H355 C370 0.959 . S
H356 C370 0.961 . S
H357 C371 0.960 . S
H358 C371 0.961 . S
H359 C371 0.959 . S
H360 C374 0.929 . S
H361 C375 0.931 . S
H362 C377 0.930 . S
C363 H351 0.930 . S
C363 C364 1.399 . S
C363 C368 1.399 . S
C364 C363 1.399 . S
C364 C365 1.376 . S
C365 H352 0.930 . S
C365 C364 1.376 . S
C365 C366 1.388 . S
C366 H353 0.930 . S
C366 C365 1.388 . S
C366 C367 1.390 . S
C367 C366 1.390 . S
C367 C368 1.394 . S
C367 C373 1.465 . S
C368 C363 1.399 . S
C368 C367 1.394 . S
C368 C369 1.516 . S
C369 C368 1.516 . S
C369 C370 1.502 . S
C369 C371 1.561 . S
C369 C372 1.526 . S
C370 H354 0.959 . S
C370 H355 0.959 . S
C370 H356 0.961 . S
C370 C369 1.502 . S
C371 H357 0.960 . S
C371 H358 0.961 . S
C371 H359 0.959 . S
C371 C369 1.561 . S
C372 C369 1.526 . S
C372 C373 1.396 . S
C372 C377 1.390 . S
C373 C367 1.465 . S
C373 C372 1.396 . S
C373 C374 1.399 . S
C374 H360 0.929 . S
C374 C373 1.399 . S
C374 C375 1.385 . S
C375 H361 0.931 . S
C375 C374 1.385 . S
C375 C376 1.389 . S
C376 C375 1.389 . S
C376 C377 1.387 . S
C377 H362 0.930 . S
C377 C372 1.390 . S
C377 C376 1.387 . S
H378 C390 0.930 . S
H379 C392 0.930 . S
H380 C393 0.930 . S
H381 C397 0.959 . S
H382 C397 0.959 . S
H383 C397 0.961 . S
H384 C398 0.960 . S
H385 C398 0.961 . S
H386 C398 0.959 . S
H387 C401 0.929 . S
H388 C402 0.931 . S
H389 C404 0.930 . S
C390 H378 0.930 . S
C390 C391 1.399 . S
C390 C395 1.399 . S
C391 C390 1.399 . S
C391 C392 1.376 . S
C392 H379 0.930 . S
C392 C391 1.376 . S
C392 C393 1.388 . S
C393 H380 0.930 . S
C393 C392 1.388 . S
C393 C394 1.390 . S
C394 C393 1.390 . S
C394 C395 1.394 . S
C394 C400 1.465 . S
C395 C390 1.399 . S
C395 C394 1.394 . S
C395 C396 1.516 . S
C396 C395 1.516 . S
C396 C397 1.502 . S
C396 C398 1.561 . S
C396 C399 1.526 . S
C397 H381 0.959 . S
C397 H382 0.959 . S
C397 H383 0.961 . S
C397 C396 1.502 . S
C398 H384 0.960 . S
C398 H385 0.961 . S
C398 H386 0.959 . S
C398 C396 1.561 . S
C399 C396 1.526 . S
C399 C400 1.396 . S
C399 C404 1.390 . S
C400 C394 1.465 . S
C400 C399 1.396 . S
C400 C401 1.399 . S
C401 H387 0.929 . S
C401 C400 1.399 . S
C401 C402 1.385 . S
C402 H388 0.931 . S
C402 C401 1.385 . S
C402 C403 1.389 . S
C403 C402 1.389 . S
C403 C404 1.387 . S
C404 H389 0.930 . S
C404 C399 1.390 . S
C404 C403 1.387 . S
H405 C417 0.930 . S
H406 C419 0.930 . S
H407 C420 0.930 . S
H408 C424 0.959 . S
H409 C424 0.959 . S
H410 C424 0.961 . S
H411 C425 0.960 . S
H412 C425 0.961 . S
H413 C425 0.959 . S
H414 C428 0.929 . S
H415 C429 0.931 . S
H416 C431 0.930 . S
C417 H405 0.930 . S
C417 C418 1.399 . S
C417 C422 1.399 . S
C418 C417 1.399 . S
C418 C419 1.376 . S
C419 H406 0.930 . S
C419 C418 1.376 . S
C419 C420 1.388 . S
C420 H407 0.930 . S
C420 C419 1.388 . S
C420 C421 1.390 . S
C421 C420 1.390 . S
C421 C422 1.394 . S
C421 C427 1.465 . S
C422 C417 1.399 . S
C422 C421 1.394 . S
C422 C423 1.516 . S
C423 C422 1.516 . S
C423 C424 1.502 . S
C423 C425 1.561 . S
C423 C426 1.526 . S
C424 H408 0.959 . S
C424 H409 0.959 . S
C424 H410 0.961 . S
C424 C423 1.502 . S
C425 H411 0.960 . S
C425 H412 0.961 . S
C425 H413 0.959 . S
C425 C423 1.561 . S
C426 C423 1.526 . S
C426 C427 1.396 . S
C426 C431 1.390 . S
C427 C421 1.465 . S
C427 C426 1.396 . S
C427 C428 1.399 . S
C428 H414 0.929 . S
C428 C427 1.399 . S
C428 C429 1.385 . S
C429 H415 0.931 . S
C429 C428 1.385 . S
C429 C430 1.389 . S
C430 C429 1.389 . S
C430 C431 1.387 . S
C431 H416 0.930 . S
C431 C426 1.390 . S
C431 C430 1.387 . S
H432 C444 0.930 . S
H433 C446 0.930 . S
H434 C447 0.930 . S
H435 C451 0.959 . S
H436 C451 0.959 . S
H437 C451 0.961 . S
H438 C452 0.960 . S
H439 C452 0.961 . S
H440 C452 0.959 . S
H441 C455 0.929 . S
H442 C456 0.931 . S
H443 C458 0.930 . S
C444 H432 0.930 . S
C444 C445 1.399 . S
C444 C449 1.399 . S
C445 C444 1.399 . S
C445 C446 1.376 . S
C446 H433 0.930 . S
C446 C445 1.376 . S
C446 C447 1.388 . S
C447 H434 0.930 . S
C447 C446 1.388 . S
C447 C448 1.390 . S
C448 C447 1.390 . S
C448 C449 1.394 . S
C448 C454 1.465 . S
C449 C444 1.399 . S
C449 C448 1.394 . S
C449 C450 1.516 . S
C450 C449 1.516 . S
C450 C451 1.502 . S
C450 C452 1.561 . S
C450 C453 1.526 . S
C451 H435 0.959 . S
C451 H436 0.959 . S
C451 H437 0.961 . S
C451 C450 1.502 . S
C452 H438 0.960 . S
C452 H439 0.961 . S
C452 H440 0.959 . S
C452 C450 1.561 . S
C453 C450 1.526 . S
C453 C454 1.396 . S
C453 C458 1.390 . S
C454 C448 1.465 . S
C454 C453 1.396 . S
C454 C455 1.399 . S
C455 H441 0.929 . S
C455 C454 1.399 . S
C455 C456 1.385 . S
C456 H442 0.931 . S
C456 C455 1.385 . S
C456 C457 1.389 . S
C457 C456 1.389 . S
C457 C458 1.387 . S
C458 H443 0.930 . S
C458 C453 1.390 . S
C458 C457 1.387 . S
H459 C471 0.930 . S
H460 C473 0.930 . S
H461 C474 0.930 . S
H462 C478 0.959 . S
H463 C478 0.959 . S
H464 C478 0.961 . S
H465 C479 0.960 . S
H466 C479 0.961 . S
H467 C479 0.959 . S
H468 C482 0.929 . S
H469 C483 0.931 . S
H470 C485 0.930 . S
C471 H459 0.930 . S
C471 C472 1.399 . S
C471 C476 1.399 . S
C472 C471 1.399 . S
C472 C473 1.376 . S
C473 H460 0.930 . S
C473 C472 1.376 . S
C473 C474 1.388 . S
C474 H461 0.930 . S
C474 C473 1.388 . S
C474 C475 1.390 . S
C475 C474 1.390 . S
C475 C476 1.394 . S
C475 C481 1.465 . S
C476 C471 1.399 . S
C476 C475 1.394 . S
C476 C477 1.516 . S
C477 C476 1.516 . S
C477 C478 1.502 . S
C477 C479 1.561 . S
C477 C480 1.526 . S
C478 H462 0.959 . S
C478 H463 0.959 . S
C478 H464 0.961 . S
C478 C477 1.502 . S
C479 H465 0.960 . S
C479 H466 0.961 . S
C479 H467 0.959 . S
C479 C477 1.561 . S
C480 C477 1.526 . S
C480 C481 1.396 . S
C480 C485 1.390 . S
C481 C475 1.465 . S
C481 C480 1.396 . S
C481 C482 1.399 . S
C482 H468 0.929 . S
C482 C481 1.399 . S
C482 C483 1.385 . S
C483 H469 0.931 . S
C483 C482 1.385 . S
C483 C484 1.389 . S
C484 C483 1.389 . S
C484 C485 1.387 . S
C485 H470 0.930 . S
C485 C480 1.390 . S
C485 C484 1.387 . S
H486 C498 0.930 . S
H487 C500 0.930 1_455 S
H488 C501 0.930 . S
H489 C505 0.959 . S
H490 C505 0.959 . S
H491 C505 0.961 . S
H492 C506 0.960 . S
H493 C506 0.961 . S
H494 C506 0.959 . S
H495 C509 0.929 . S
H496 C510 0.931 . S
H497 C512 0.930 . S
C498 H486 0.930 . S
C498 C499 1.399 . S
C498 C503 1.399 . S
C499 C498 1.399 . S
C499 C500 1.376 . S
C500 H487 0.930 1_655 S
C500 C499 1.376 . S
C500 C501 1.388 . S
C501 H488 0.930 . S
C501 C500 1.388 . S
C501 C502 1.390 . S
C502 C501 1.390 . S
C502 C503 1.394 . S
C502 C508 1.465 . S
C503 C498 1.399 . S
C503 C502 1.394 . S
C503 C504 1.516 . S
C504 C503 1.516 . S
C504 C505 1.502 . S
C504 C506 1.561 . S
C504 C507 1.526 . S
C505 H489 0.959 . S
C505 H490 0.959 . S
C505 H491 0.961 . S
C505 C504 1.502 . S
C506 H492 0.960 . S
C506 H493 0.961 . S
C506 H494 0.959 . S
C506 C504 1.561 . S
C507 C504 1.526 . S
C507 C508 1.396 . S
C507 C512 1.390 . S
C508 C502 1.465 . S
C508 C507 1.396 . S
C508 C509 1.399 . S
C509 H495 0.929 . S
C509 C508 1.399 . S
C509 C510 1.385 . S
C510 H496 0.931 . S
C510 C509 1.385 . S
C510 C511 1.389 . S
C511 C510 1.389 . S
C511 C512 1.387 . S
C512 H497 0.930 . S
C512 C507 1.390 . S
C512 C511 1.387 . S
H513 C525 0.930 . S
H514 C527 0.930 . S
H515 C528 0.930 . S
H516 C532 0.959 . S
H517 C532 0.959 . S
H518 C532 0.961 . S
H519 C533 0.960 . S
H520 C533 0.961 . S
H521 C533 0.959 . S
H522 C536 0.929 . S
H523 C537 0.931 . S
H524 C539 0.930 . S
C525 H513 0.930 . S
C525 C526 1.399 . S
C525 C530 1.399 . S
C526 C525 1.399 . S
C526 C527 1.376 . S
C527 H514 0.930 . S
C527 C526 1.376 . S
C527 C528 1.388 . S
C528 H515 0.930 . S
C528 C527 1.388 . S
C528 C529 1.390 . S
C529 C528 1.390 . S
C529 C530 1.394 . S
C529 C535 1.465 . S
C530 C525 1.399 . S
C530 C529 1.394 . S
C530 C531 1.516 . S
C531 C530 1.516 . S
C531 C532 1.502 . S
C531 C533 1.561 . S
C531 C534 1.526 . S
C532 H516 0.959 . S
C532 H517 0.959 . S
C532 H518 0.961 . S
C532 C531 1.502 . S
C533 H519 0.960 . S
C533 H520 0.961 . S
C533 H521 0.959 . S
C533 C531 1.561 . S
C534 C531 1.526 . S
C534 C535 1.396 . S
C534 C539 1.390 . S
C535 C529 1.465 . S
C535 C534 1.396 . S
C535 C536 1.399 . S
C536 H522 0.929 . S
C536 C535 1.399 . S
C536 C537 1.385 . S
C537 H523 0.931 . S
C537 C536 1.385 . S
C537 C538 1.389 . S
C538 C537 1.389 . S
C538 C539 1.387 . S
C539 H524 0.930 . S
C539 C534 1.390 . S
C539 C538 1.387 . S
H540 C552 0.930 . S
H541 C554 0.930 . S
H542 C555 0.930 . S
H543 C559 0.959 . S
H544 C559 0.959 . S
H545 C559 0.961 . S
H546 C560 0.960 . S
H547 C560 0.961 . S
H548 C560 0.959 . S
H549 C563 0.929 . S
H550 C564 0.931 . S
H551 C566 0.930 . S
C552 H540 0.930 . S
C552 C553 1.399 . S
C552 C557 1.399 . S
C553 C552 1.399 . S
C553 C554 1.376 . S
C554 H541 0.930 . S
C554 C553 1.376 . S
C554 C555 1.388 . S
C555 H542 0.930 . S
C555 C554 1.388 . S
C555 C556 1.390 . S
C556 C555 1.390 . S
C556 C557 1.394 . S
C556 C562 1.465 . S
C557 C552 1.399 . S
C557 C556 1.394 . S
C557 C558 1.516 . S
C558 C557 1.516 . S
C558 C559 1.502 . S
C558 C560 1.561 . S
C558 C561 1.526 . S
C559 H543 0.959 . S
C559 H544 0.959 . S
C559 H545 0.961 . S
C559 C558 1.502 . S
C560 H546 0.960 . S
C560 H547 0.961 . S
C560 H548 0.959 . S
C560 C558 1.561 . S
C561 C558 1.526 . S
C561 C562 1.396 . S
C561 C566 1.390 . S
C562 C556 1.465 . S
C562 C561 1.396 . S
C562 C563 1.399 . S
C563 H549 0.929 . S
C563 C562 1.399 . S
C563 C564 1.385 . S
C564 H550 0.931 . S
C564 C563 1.385 . S
C564 C565 1.389 . S
C565 C564 1.389 . S
C565 C566 1.387 . S
C566 H551 0.930 . S
C566 C561 1.390 . S
C566 C565 1.387 . S
H567 C579 0.930 . S
H568 C581 0.930 . S
H569 C582 0.930 . S
H570 C586 0.959 . S
H571 C586 0.959 . S
H572 C586 0.961 . S
H573 C587 0.960 . S
H574 C587 0.961 . S
H575 C587 0.959 . S
H576 C590 0.929 . S
H577 C591 0.931 . S
H578 C593 0.930 . S
C579 H567 0.930 . S
C579 C580 1.399 . S
C579 C584 1.399 . S
C580 C579 1.399 . S
C580 C581 1.376 . S
C581 H568 0.930 . S
C581 C580 1.376 . S
C581 C582 1.388 . S
C582 H569 0.930 . S
C582 C581 1.388 . S
C582 C583 1.390 . S
C583 C582 1.390 . S
C583 C584 1.394 . S
C583 C589 1.465 . S
C584 C579 1.399 . S
C584 C583 1.394 . S
C584 C585 1.516 . S
C585 C584 1.516 . S
C585 C586 1.502 . S
C585 C587 1.561 . S
C585 C588 1.526 . S
C586 H570 0.959 . S
C586 H571 0.959 . S
C586 H572 0.961 . S
C586 C585 1.502 . S
C587 H573 0.960 . S
C587 H574 0.961 . S
C587 H575 0.959 . S
C587 C585 1.561 . S
C588 C585 1.526 . S
C588 C589 1.396 . S
C588 C593 1.390 . S
C589 C583 1.465 . S
C589 C588 1.396 . S
C589 C590 1.399 . S
C590 H576 0.929 . S
C590 C589 1.399 . S
C590 C591 1.385 . S
C591 H577 0.931 . S
C591 C590 1.385 . S
C591 C592 1.389 . S
C592 C591 1.389 . S
C592 C593 1.387 . S
C593 H578 0.930 . S
C593 C588 1.390 . S
C593 C592 1.387 . S
H594 C606 0.930 . S
H595 C608 0.944 . S
H596 C609 0.930 . S
H597 C613 0.959 . S
H598 C613 0.959 . S
H599 C613 0.961 . S
H600 C614 0.960 . S
H601 C614 0.961 . S
H602 C614 0.959 . S
H603 C617 0.929 . S
H604 C618 0.931 . S
H605 C620 0.930 . S
C606 H594 0.930 . S
C606 C607 1.399 . S
C606 C611 1.399 . S
C607 C606 1.399 . S
C607 C608 1.376 . S
C608 H595 0.944 . S
C608 C607 1.376 . S
C608 C609 1.388 . S
C609 H596 0.930 . S
C609 C608 1.388 . S
C609 C610 1.390 . S
C610 C609 1.390 . S
C610 C611 1.394 . S
C610 C616 1.465 . S
C611 C606 1.399 . S
C611 C610 1.394 . S
C611 C612 1.516 . S
C612 C611 1.516 . S
C612 C613 1.502 . S
C612 C614 1.561 . S
C612 C615 1.526 . S
C613 H597 0.959 . S
C613 H598 0.959 . S
C613 H599 0.961 . S
C613 C612 1.502 . S
C614 H600 0.960 . S
C614 H601 0.961 . S
C614 H602 0.959 . S
C614 C612 1.561 . S
C615 C612 1.526 . S
C615 C616 1.396 . S
C615 C620 1.390 . S
C616 C610 1.465 . S
C616 C615 1.396 . S
C616 C617 1.399 . S
C617 H603 0.929 . S
C617 C616 1.399 . S
C617 C618 1.385 . S
C618 H604 0.931 . S
C618 C617 1.385 . S
C618 C619 1.389 . S
C619 C618 1.389 . S
C619 C620 1.387 . S
C620 H605 0.930 . S
C620 C615 1.390 . S
C620 C619 1.387 . S
H621 C633 0.930 . S
H622 C635 0.930 . S
H623 C636 0.930 . S
H624 C640 0.959 . S
H625 C640 0.959 . S
H626 C640 0.961 . S
H627 C641 0.960 . S
H628 C641 0.961 . S
H629 C641 0.959 . S
H630 C644 0.929 . S
H631 C645 0.931 . S
H632 C647 0.930 . S
C633 H621 0.930 . S
C633 C634 1.399 . S
C633 C638 1.399 . S
C634 C633 1.399 . S
C634 C635 1.376 . S
C635 H622 0.930 . S
C635 C634 1.376 . S
C635 C636 1.388 . S
C636 H623 0.930 . S
C636 C635 1.388 . S
C636 C637 1.390 . S
C637 C636 1.390 . S
C637 C638 1.394 . S
C637 C643 1.465 . S
C638 C633 1.399 . S
C638 C637 1.394 . S
C638 C639 1.516 . S
C639 C638 1.516 . S
C639 C640 1.502 . S
C639 C641 1.561 . S
C639 C642 1.526 . S
C640 H624 0.959 . S
C640 H625 0.959 . S
C640 H626 0.961 . S
C640 C639 1.502 . S
C641 H627 0.960 . S
C641 H628 0.961 . S
C641 H629 0.959 . S
C641 C639 1.561 . S
C642 C639 1.526 . S
C642 C643 1.396 . S
C642 C647 1.390 . S
C643 C637 1.465 . S
C643 C642 1.396 . S
C643 C644 1.399 . S
C644 H630 0.929 . S
C644 C643 1.399 . S
C644 C645 1.385 . S
C645 H631 0.931 . S
C645 C644 1.385 . S
C645 C646 1.389 . S
C646 C645 1.389 . S
C646 C647 1.387 . S
C647 H632 0.930 . S
C647 C642 1.390 . S
C647 C646 1.387 . S
H648 C660 0.930 . S
H649 C662 0.930 . S
H650 C663 0.930 . S
H651 C667 0.959 . S
H652 C667 0.959 . S
H653 C667 0.961 . S
H654 C668 0.960 . S
H655 C668 0.961 . S
H656 C668 0.959 . S
H657 C671 0.929 . S
H658 C672 0.931 . S
H659 C674 0.930 . S
C660 H648 0.930 . S
C660 C661 1.399 . S
C660 C665 1.399 . S
C661 C660 1.399 . S
C661 C662 1.376 . S
C662 H649 0.930 . S
C662 C661 1.376 . S
C662 C663 1.388 . S
C663 H650 0.930 . S
C663 C662 1.388 . S
C663 C664 1.390 . S
C664 C663 1.390 . S
C664 C665 1.394 . S
C664 C670 1.465 . S
C665 C660 1.399 . S
C665 C664 1.394 . S
C665 C666 1.516 . S
C666 C665 1.516 . S
C666 C667 1.502 . S
C666 C668 1.561 . S
C666 C669 1.526 . S
C667 H651 0.959 . S
C667 H652 0.959 . S
C667 H653 0.961 . S
C667 C666 1.502 . S
C668 H654 0.960 . S
C668 H655 0.961 . S
C668 H656 0.959 . S
C668 C666 1.561 . S
C669 C666 1.526 . S
C669 C670 1.396 . S
C669 C674 1.390 . S
C670 C664 1.465 . S
C670 C669 1.396 . S
C670 C671 1.399 . S
C671 H657 0.929 . S
C671 C670 1.399 . S
C671 C672 1.385 . S
C672 H658 0.931 . S
C672 C671 1.385 . S
C672 C673 1.389 . S
C673 C672 1.389 . S
C673 C674 1.387 . S
C674 H659 0.930 . S
C674 C669 1.390 . S
C674 C673 1.387 . S
H675 C687 0.930 . S
H676 C689 0.930 . S
H677 C690 0.930 . S
H678 C694 0.959 . S
H679 C694 0.959 . S
H680 C694 0.961 . S
H681 C695 0.960 . S
H682 C695 0.961 . S
H683 C695 0.959 . S
H684 C698 0.929 . S
H685 C699 0.931 . S
H686 C701 0.930 . S
C687 H675 0.930 . S
C687 C688 1.399 . S
C687 C692 1.399 . S
C688 C687 1.399 . S
C688 C689 1.376 . S
C689 H676 0.930 . S
C689 C688 1.376 . S
C689 C690 1.388 . S
C690 H677 0.930 . S
C690 C689 1.388 . S
C690 C691 1.390 . S
C691 C690 1.390 . S
C691 C692 1.394 . S
C691 C697 1.465 . S
C692 C687 1.399 . S
C692 C691 1.394 . S
C692 C693 1.516 . S
C693 C692 1.516 . S
C693 C694 1.502 . S
C693 C695 1.561 . S
C693 C696 1.526 . S
C694 H678 0.959 . S
C694 H679 0.959 . S
C694 H680 0.961 . S
C694 C693 1.502 . S
C695 H681 0.960 . S
C695 H682 0.961 . S
C695 H683 0.959 . S
C695 C693 1.561 . S
C696 C693 1.526 . S
C696 C697 1.396 . S
C696 C701 1.390 . S
C697 C691 1.465 . S
C697 C696 1.396 . S
C697 C698 1.399 . S
C698 H684 0.929 . S
C698 C697 1.399 . S
C698 C699 1.385 . S
C699 H685 0.931 . S
C699 C698 1.385 . S
C699 C700 1.389 . S
C700 C699 1.389 . S
C700 C701 1.387 . S
C701 H686 0.930 . S
C701 C696 1.390 . S
C701 C700 1.387 . S
H702 C714 0.930 . S
H703 C716 0.930 . S
H704 C717 0.930 . S
H705 C721 0.959 . S
H706 C721 0.959 . S
H707 C721 0.961 . S
H708 C722 0.960 1_455 S
H709 C722 0.961 . S
H710 C722 0.959 . S
H711 C725 0.929 . S
H712 C726 0.931 . S
H713 C728 0.930 . S
C714 H702 0.930 . S
C714 C715 1.399 . S
C714 C719 1.399 . S
C715 C714 1.399 . S
C715 C716 1.376 . S
C716 H703 0.930 . S
C716 C715 1.376 . S
C716 C717 1.388 . S
C717 H704 0.930 . S
C717 C716 1.388 . S
C717 C718 1.390 . S
C718 C717 1.390 . S
C718 C719 1.394 . S
C718 C724 1.465 . S
C719 C714 1.399 . S
C719 C718 1.394 . S
C719 C720 1.516 . S
C720 C719 1.516 . S
C720 C721 1.502 . S
C720 C722 1.561 . S
C720 C723 1.526 . S
C721 H705 0.959 . S
C721 H706 0.959 . S
C721 H707 0.961 . S
C721 C720 1.502 . S
C722 H708 0.960 1_655 S
C722 H709 0.961 . S
C722 H710 0.959 . S
C722 C720 1.561 . S
C723 C720 1.526 . S
C723 C724 1.396 . S
C723 C728 1.390 . S
C724 C718 1.465 . S
C724 C723 1.396 . S
C724 C725 1.399 . S
C725 H711 0.929 . S
C725 C724 1.399 . S
C725 C726 1.385 . S
C726 H712 0.931 . S
C726 C725 1.385 . S
C726 C727 1.389 . S
C727 C726 1.389 . S
C727 C728 1.387 . S
C728 H713 0.930 . S
C728 C723 1.390 . S
C728 C727 1.387 . S
H729 C741 0.930 . S
H730 C743 0.930 . S
H731 C744 0.930 . S
H732 C748 0.959 . S
H733 C748 0.959 1_545 S
H734 C748 0.961 1_545 S
H735 C749 0.960 . S
H736 C749 0.961 . S
H737 C749 0.959 . S
H738 C752 0.929 . S
H739 C753 0.931 . S
H740 C755 0.930 . S
C741 H729 0.930 . S
C741 C742 1.399 . S
C741 C746 1.399 . S
C742 C741 1.399 . S
C742 C743 1.376 . S
C743 H730 0.930 . S
C743 C742 1.376 . S
C743 C744 1.388 . S
C744 H731 0.930 . S
C744 C743 1.388 . S
C744 C745 1.390 . S
C745 C744 1.390 . S
C745 C746 1.394 . S
C745 C751 1.465 . S
C746 C741 1.399 . S
C746 C745 1.394 . S
C746 C747 1.516 . S
C747 C746 1.516 . S
C747 C748 1.502 . S
C747 C749 1.561 . S
C747 C750 1.526 . S
C748 H732 0.959 . S
C748 H733 0.959 1_565 S
C748 H734 0.961 1_565 S
C748 C747 1.502 . S
C749 H735 0.960 . S
C749 H736 0.961 . S
C749 H737 0.959 . S
C749 C747 1.561 . S
C750 C747 1.526 . S
C750 C751 1.396 . S
C750 C755 1.390 . S
C751 C745 1.465 . S
C751 C750 1.396 . S
C751 C752 1.399 . S
C752 H738 0.929 . S
C752 C751 1.399 . S
C752 C753 1.385 . S
C753 H739 0.931 . S
C753 C752 1.385 . S
C753 C754 1.389 . S
C754 C753 1.389 . S
C754 C755 1.387 . S
C755 H740 0.930 . S
C755 C750 1.390 . S
C755 C754 1.387 . S
H756 C768 0.930 . S
H757 C770 0.930 . S
H758 C771 0.930 . S
H759 C775 0.959 . S
H760 C775 0.959 . S
H761 C775 0.961 . S
H762 C776 0.960 . S
H763 C776 0.961 . S
H764 C776 0.959 . S
H765 C779 0.929 . S
H766 C780 0.931 . S
H767 C782 0.930 . S
C768 H756 0.930 . S
C768 C769 1.399 . S
C768 C773 1.399 . S
C769 C768 1.399 . S
C769 C770 1.376 . S
C770 H757 0.930 . S
C770 C769 1.376 . S
C770 C771 1.388 . S
C771 H758 0.930 . S
C771 C770 1.388 . S
C771 C772 1.390 . S
C772 C771 1.390 . S
C772 C773 1.394 . S
C772 C778 1.465 . S
C773 C768 1.399 . S
C773 C772 1.394 . S
C773 C774 1.516 . S
C774 C773 1.516 . S
C774 C775 1.502 . S
C774 C776 1.561 . S
C774 C777 1.526 . S
C775 H759 0.959 . S
C775 H760 0.959 . S
C775 H761 0.961 . S
C775 C774 1.502 . S
C776 H762 0.960 . S
C776 H763 0.961 . S
C776 H764 0.959 . S
C776 C774 1.561 . S
C777 C774 1.526 . S
C777 C778 1.396 . S
C777 C782 1.390 . S
C778 C772 1.465 . S
C778 C777 1.396 . S
C778 C779 1.399 . S
C779 H765 0.929 . S
C779 C778 1.399 . S
C779 C780 1.385 . S
C780 H766 0.931 . S
C780 C779 1.385 . S
C780 C781 1.389 . S
C781 C780 1.389 . S
C781 C782 1.387 . S
C782 H767 0.930 . S
C782 C777 1.390 . S
C782 C781 1.387 . S
H783 C795 0.930 . S
H784 C797 0.930 . S
H785 C798 0.930 . S
H786 C802 0.959 . S
H787 C802 0.959 . S
H788 C802 0.961 . S
H789 C803 0.960 . S
H790 C803 0.961 . S
H791 C803 0.959 . S
H792 C806 0.929 . S
H793 C807 0.931 . S
H794 C809 0.930 . S
C795 H783 0.930 . S
C795 C796 1.399 . S
C795 C800 1.399 . S
C796 C795 1.399 . S
C796 C797 1.376 . S
C797 H784 0.930 . S
C797 C796 1.376 . S
C797 C798 1.388 . S
C798 H785 0.930 . S
C798 C797 1.388 . S
C798 C799 1.390 . S
C799 C798 1.390 . S
C799 C800 1.394 . S
C799 C805 1.465 . S
C800 C795 1.399 . S
C800 C799 1.394 . S
C800 C801 1.516 . S
C801 C800 1.516 . S
C801 C802 1.502 . S
C801 C803 1.561 . S
C801 C804 1.526 . S
C802 H786 0.959 . S
C802 H787 0.959 . S
C802 H788 0.961 . S
C802 C801 1.502 . S
C803 H789 0.960 . S
C803 H790 0.961 . S
C803 H791 0.959 . S
C803 C801 1.561 . S
C804 C801 1.526 . S
C804 C805 1.396 . S
C804 C809 1.390 . S
C805 C799 1.465 . S
C805 C804 1.396 . S
C805 C806 1.399 . S
C806 H792 0.929 . S
C806 C805 1.399 . S
C806 C807 1.385 . S
C807 H793 0.931 . S
C807 C806 1.385 . S
C807 C808 1.389 . S
C808 C807 1.389 . S
C808 C809 1.387 . S
C809 H794 0.930 . S
C809 C804 1.390 . S
C809 C808 1.387 . S
C175 C13 1.688 . S
C187 C85 1.655 . S
C202 C27 1.686 . S
C214 C98 1.651 . S
C241 C120 1.564 . S
C229 C29 1.687 . S
C268 C133 1.642 . S
C256 C54 1.668 . S
C295 C146 1.584 . S
C283 C69 1.679 . S
C322 C159 1.628 . S
C310 C83 1.668 . S
C337 C15 1.672 . S
C349 C115 1.606 . S
C364 C41 1.677 . S
C376 C128 1.546 . S
C403 C141 1.608 . S
C391 C42 1.663 . S
C430 C154 1.564 . S
C418 C57 1.680 . S
C445 C71 1.681 . S
C457 C87 1.656 . S
C484 C100 1.658 . S
C472 C1 1.682 . S
C511 C126 1.626 . S
C499 C12 1.662 . S
C526 C26 1.671 . S
C538 C139 1.591 . S
C565 C152 1.559 . S
C553 C28 1.678 . S
C580 C55 1.662 . S
C592 C89 1.681 . S
C607 C68 1.666 . S
C619 C102 1.675 . S
C634 C82 1.672 . S
C646 C113 1.580 . S
C661 C14 1.688 . S
C673 C150 1.565 . S
C700 C94 1.676 . S
C688 C40 1.673 . S
C715 C43 1.685 . S
C727 C107 1.655 . S
C742 C56 1.686 . S
C754 C111 1.577 . S
C769 C70 1.670 . S
C781 C124 1.636 . S
C796 C0 1.681 . S
C808 C137 1.580 . S
