# Generated by pormake.
# Topology ssa, (4,4)-cn, num edge types: 1
# Building blocks:
#     Node 0, Type 0, BuildingBlock: NAWXER_clean_sbu_0, # of connection points: 4
#     Node 1, Type 0, BuildingBlock: NAWXER_clean_sbu_0, # of connection points: 4
#     Node 2, Type 0, BuildingBlock: NAWXER_clean_sbu_0, # of connection points: 4
#     Node 3, Type 0, BuildingBlock: NAWXER_clean_sbu_0, # of connection points: 4
#     Node 4, Type 0, BuildingBlock: NAWXER_clean_sbu_0, # of connection points: 4
#     Node 5, Type 0, BuildingBlock: NAWXER_clean_sbu_0, # of connection points: 4
#     Node 6, Type 1, BuildingBlock: MUDLON_clean_sbu_0, # of connection points: 4
#     Node 7, Type 1, BuildingBlock: MUDLON_clean_sbu_0, # of connection points: 4
#     Node 8, Type 1, BuildingBlock: MUDLON_clean_sbu_0, # of connection points: 4
#     Node 9, Type 1, BuildingBlock: MUDLON_clean_sbu_0, # of connection points: 4
#     Node 10, Type 1, BuildingBlock: MUDLON_clean_sbu_0, # of connection points: 4
#     Node 11, Type 1, BuildingBlock: MUDLON_clean_sbu_0, # of connection points: 4
#     Edge 12, Type (0, 1), BuildingBlock: TEMPAE_clean_linker_10, # of connection points: 2
#     Edge 13, Type (0, 1), BuildingBlock: TEMPAE_clean_linker_10, # of connection points: 2
#     Edge 14, Type (0, 1), BuildingBlock: TEMPAE_clean_linker_10, # of connection points: 2
#     Edge 15, Type (0, 1), BuildingBlock: TEMPAE_clean_linker_10, # of connection points: 2
#     Edge 16, Type (0, 1), BuildingBlock: TEMPAE_clean_linker_10, # of connection points: 2
#     Edge 17, Type (0, 1), BuildingBlock: TEMPAE_clean_linker_10, # of connection points: 2
#     Edge 18, Type (0, 1), BuildingBlock: TEMPAE_clean_linker_10, # of connection points: 2
#     Edge 19, Type (0, 1), BuildingBlock: TEMPAE_clean_linker_10, # of connection points: 2
#     Edge 20, Type (0, 1), BuildingBlock: TEMPAE_clean_linker_10, # of connection points: 2
#     Edge 21, Type (0, 1), BuildingBlock: TEMPAE_clean_linker_10, # of connection points: 2
#     Edge 22, Type (0, 1), BuildingBlock: TEMPAE_clean_linker_10, # of connection points: 2
#     Edge 23, Type (0, 1), BuildingBlock: TEMPAE_clean_linker_10, # of connection points: 2
#     Edge 24, Type (0, 1), BuildingBlock: TEMPAE_clean_linker_10, # of connection points: 2
#     Edge 25, Type (0, 1), BuildingBlock: TEMPAE_clean_linker_10, # of connection points: 2
#     Edge 26, Type (0, 1), BuildingBlock: TEMPAE_clean_linker_10, # of connection points: 2
#     Edge 27, Type (0, 1), BuildingBlock: TEMPAE_clean_linker_10, # of connection points: 2
#     Edge 28, Type (0, 1), BuildingBlock: TEMPAE_clean_linker_10, # of connection points: 2
#     Edge 29, Type (0, 1), BuildingBlock: TEMPAE_clean_linker_10, # of connection points: 2
#     Edge 30, Type (0, 1), BuildingBlock: TEMPAE_clean_linker_10, # of connection points: 2
#     Edge 31, Type (0, 1), BuildingBlock: TEMPAE_clean_linker_10, # of connection points: 2
#     Edge 32, Type (0, 1), BuildingBlock: TEMPAE_clean_linker_10, # of connection points: 2
#     Edge 33, Type (0, 1), BuildingBlock: TEMPAE_clean_linker_10, # of connection points: 2
#     Edge 34, Type (0, 1), BuildingBlock: TEMPAE_clean_linker_10, # of connection points: 2
#     Edge 35, Type (0, 1), BuildingBlock: TEMPAE_clean_linker_10, # of connection points: 2
# Relax obj value: 0.034
# Max RMSD: 0.048
# Mean RMSD: 0.037
data_MOF--net-ssa--node1-NAWXER_clean_sbu_0--node2-MUDLON_clean_sbu_0--edge1-TEMPAE_clean_linker_10
_symmetry_space_group_name_H-M    P1
_symmetry_Int_Tables_number       1
_symmetry_cell_setting            triclinic
loop_
_symmetry_equiv_pos_as_xyz
'x, y, z'
_cell_length_a     43.119282
_cell_length_b     43.249774
_cell_length_c     39.79908
_cell_angle_alpha  89.475975
_cell_angle_beta   89.911142
_cell_angle_gamma 120.22172
loop_
_atom_site_label
_atom_site_type_symbol
_atom_site_fract_x
_atom_site_fract_y
_atom_site_fract_z
_atom_type_partial_charge
C0 C 0.03568 0.58219 0.0803 0.0
C1 C 0.98616 0.48293 1.00064 0.0
O2 O 0.00463 0.55435 0.08117 0.0
Zn3 Zn 0.01108 0.53174 0.04207 0.0
O4 O 0.05785 0.58579 0.05691 0.0
Zn5 Zn 0.05963 0.55687 0.01362 0.0
O6 O 0.06678 0.59002 0.9772 0.0
O7 O 0.01421 0.56742 1.00281 0.0
O8 O 0.01845 0.50711 0.99326 0.0
O9 O 0.97173 0.48606 0.02729 0.0
O10 O 0.05145 0.52031 0.05915 0.0
O11 O 0.09799 0.54768 0.02485 0.0
C12 C 0.03638 0.5879 0.98012 0.0
C13 C 0.08332 0.52812 0.05067 0.0
C14 C 0.53383 0.09367 0.54076 0.0
C15 C 0.54947 0.00622 0.47822 0.0
O16 O 0.5206 0.06325 0.55589 0.0
Zn17 Zn 0.5167 0.01218 0.54858 0.0
O18 O 0.54903 0.09834 0.51225 0.0
Zn19 Zn 0.54333 0.05124 0.50983 0.0
O20 O 0.48636 0.01739 0.50379 0.0
O21 O 0.46502 0.97979 0.54688 0.0
O22 O 0.56159 0.03901 0.47093 0.0
O23 O 0.53328 0.99372 0.50638 0.0
O24 O 0.54484 0.01036 0.58632 0.0
O25 O 0.57699 0.05442 0.55065 0.0
C26 C 0.45977 0.9912 0.51908 0.0
C27 C 0.57452 0.038 0.57837 0.0
C28 C 0.48992 0.4529 0.98285 0.0
C29 C 0.53102 0.55893 0.05091 0.0
O30 O 0.48528 0.4793 0.97741 0.0
Zn31 Zn 0.51159 0.50648 0.01592 0.0
O32 O 0.50683 0.45241 0.00909 0.0
Zn33 Zn 0.53402 0.48588 0.05083 0.0
O34 O 0.50538 0.45515 0.08809 0.0
O35 O 0.47709 0.47573 0.05702 0.0
O36 O 0.53974 0.53704 0.06385 0.0
O37 O 0.51594 0.55223 0.02241 0.0
O38 O 0.56443 0.51739 1.00287 0.0
O39 O 0.58217 0.49401 0.04257 0.0
C40 C 0.47767 0.45761 0.08245 0.0
C41 C 0.58791 0.51034 0.01449 0.0
C42 C 0.02418 0.5001 0.46885 0.0
C43 C 0.92856 0.38682 0.51632 0.0
O44 O 0.03365 0.49007 0.49542 0.0
Zn45 Zn 0.01111 0.44585 0.53027 0.0
O46 O 0.99252 0.48073 0.45775 0.0
Zn47 Zn 0.97603 0.44221 0.49082 0.0
O48 O 0.97189 0.46641 0.53598 0.0
O49 O 0.01059 0.46776 0.5729 0.0
O50 O 0.92706 0.4023 0.48952 0.0
O51 O 0.95817 0.39971 0.5324 0.0
O52 O 0.04258 0.42644 0.5238 0.0
O53 O 0.00888 0.41925 0.47959 0.0
C54 C 0.98539 0.47381 0.56549 0.0
C55 C 0.03342 0.41547 0.49393 0.0
C56 C 0.50415 0.98646 0.02598 0.0
C57 C 0.4324 0.02228 0.95737 0.0
O58 O 0.50164 0.01243 0.03831 0.0
Zn59 Zn 0.4754 0.0425 0.02715 0.0
O60 O 0.48797 0.97223 0.99875 0.0
Zn61 Zn 0.46604 1.00165 0.99235 0.0
O62 O 0.5123 0.05333 0.98235 0.0
O63 O 0.51568 0.09078 0.02152 0.0
O64 O 0.43714 0.9959 0.95256 0.0
O65 O 0.44447 0.04045 0.9843 0.0
O66 O 0.44368 0.0307 0.06571 0.0
O67 O 0.42953 0.98378 0.03435 0.0
C68 C 0.52794 0.08486 0.99475 0.0
C69 C 0.42432 0.99726 0.06086 0.0
C70 C 0.61145 0.5685 0.53715 0.0
C71 C 0.51234 0.52629 0.45735 0.0
O72 O 0.58696 0.57542 0.54592 0.0
Zn73 Zn 0.53731 0.56835 0.52725 0.0
O74 O 0.60889 0.55339 0.50919 0.0
Zn75 Zn 0.56317 0.54774 0.49567 0.0
O76 O 0.576 0.60085 0.48377 0.0
O77 O 0.54684 0.61702 0.5183 0.0
O78 O 0.54025 0.52356 0.45413 0.0
O79 O 0.50885 0.54182 0.48313 0.0
O80 O 0.50365 0.53757 0.56228 0.0
O81 O 0.5276 0.5114 0.53337 0.0
C82 C 0.56812 0.62422 0.49345 0.0
C83 C 0.5067 0.5102 0.55696 0.0
Mg84 Mg 0.24054 0.42369 0.26252 0.0
C85 C 0.19903 0.43415 0.2094 0.0
O86 O 0.17859 0.40035 0.21814 0.0
C87 C 0.30112 0.43525 0.30282 0.0
O88 O 0.27915 0.40048 0.30254 0.0
C89 C 0.18887 0.38565 0.32469 0.0
O90 O 0.20311 0.36513 0.32761 0.0
O91 O 0.19867 0.40831 0.30065 0.0
O92 O 0.22899 0.45259 0.22407 0.0
O93 O 0.25013 0.38376 0.23909 0.0
C94 C 0.2537 0.38347 0.20739 0.0
O95 O 0.24048 0.39883 0.18822 0.0
O96 O 0.29167 0.45525 0.28771 0.0
Mg97 Mg 0.77213 0.25589 0.78394 0.0
C98 C 0.76174 0.19086 0.74363 0.0
O99 O 0.7921 0.21408 0.72897 0.0
C100 C 0.82998 0.31656 0.81924 0.0
O101 O 0.81287 0.3297 0.8025 0.0
C102 C 0.73226 0.24859 0.84644 0.0
O103 O 0.76253 0.25154 0.85676 0.0
O104 O 0.72839 0.25178 0.81509 0.0
O105 O 0.75131 0.20035 0.76947 0.0
O106 O 0.78355 0.28551 0.73651 0.0
C107 C 0.76607 0.27117 0.70984 0.0
O108 O 0.73688 0.23955 0.71193 0.0
O109 O 0.82026 0.28371 0.81516 0.0
Mg110 Mg 0.56143 0.80658 0.24777 0.0
C111 C 0.5522 0.85081 0.20127 0.0
O112 O 0.52114 0.82741 0.21473 0.0
C113 C 0.5735 0.76315 0.29393 0.0
O114 O 0.5405 0.74458 0.28275 0.0
C115 C 0.56036 0.84689 0.30174 0.0
O116 O 0.59359 0.85743 0.29272 0.0
O117 O 0.53496 0.82177 0.2853 0.0
O118 O 0.58014 0.85048 0.21118 0.0
O119 O 0.53483 0.75968 0.21597 0.0
C120 C 0.55779 0.76185 0.19449 0.0
O121 O 0.58997 0.79045 0.19468 0.0
O122 O 0.59399 0.79416 0.28128 0.0
Mg123 Mg 0.8092 0.55738 0.77409 0.0
C124 C 0.7643 0.55348 0.71858 0.0
O125 O 0.75691 0.52051 0.72454 0.0
C126 C 0.86817 0.57313 0.81404 0.0
O127 O 0.84587 0.53841 0.81303 0.0
C128 C 0.73899 0.5231 0.81718 0.0
O129 O 0.72328 0.52252 0.78877 0.0
O130 O 0.77233 0.53333 0.81706 0.0
O131 O 0.78746 0.57835 0.73689 0.0
O132 O 0.82656 0.52604 0.74489 0.0
C133 C 0.85352 0.54732 0.72678 0.0
O134 O 0.86409 0.58161 0.72736 0.0
O135 O 0.8595 0.59354 0.79858 0.0
Mg136 Mg 0.22637 0.79099 0.30508 0.0
C137 C 0.17061 0.74209 0.2646 0.0
O138 O 0.19618 0.7341 0.26688 0.0
C139 C 0.27764 0.8366 0.35237 0.0
O140 O 0.28975 0.81813 0.33669 0.0
C141 C 0.1933 0.73658 0.35608 0.0
O142 O 0.18456 0.76109 0.36199 0.0
O143 O 0.21564 0.74245 0.33243 0.0
O144 O 0.17495 0.77 0.27943 0.0
O145 O 0.26569 0.81399 0.26399 0.0
C146 C 0.25957 0.83458 0.24554 0.0
O147 O 0.23171 0.83794 0.25294 0.0
O148 O 0.24702 0.83179 0.34393 0.0
Mg149 Mg 0.44631 0.24523 0.73937 0.0
C150 C 0.51466 0.25294 0.70253 0.0
O151 O 0.53276 0.26434 0.73059 0.0
C152 C 0.44548 0.2746 0.80243 0.0
O153 O 0.41224 0.25031 0.79536 0.0
C154 C 0.44134 0.18619 0.77685 0.0
O155 O 0.47523 0.21092 0.77306 0.0
O156 O 0.41786 0.19162 0.76284 0.0
O157 O 0.48193 0.24462 0.70156 0.0
O158 O 0.42336 0.27408 0.71348 0.0
C159 C 0.44879 0.30654 0.71087 0.0
O160 O 0.48025 0.31478 0.72321 0.0
O161 O 0.47031 0.2788 0.78238 0.0
C162 C 0.13405 0.51627 0.06033 0.0
C163 C 0.10314 0.5158 0.07214 0.0
C164 C 0.1527 0.50452 0.0809 0.0
C165 C 0.14046 0.49264 0.11417 0.0
C166 C 0.10969 0.4928 0.12635 0.0
C167 C 0.09128 0.50407 0.10514 0.0
C168 C 0.18509 0.50422 0.06688 0.0
C169 C 0.09599 0.48081 0.16179 0.0
C170 C 0.1598 0.4274 0.16078 0.0
C171 C 0.18679 0.44991 0.18306 0.0
C172 C 0.14579 0.44123 0.13709 0.0
C173 C 0.15861 0.47846 0.13602 0.0
C174 C 0.18663 0.5015 0.15777 0.0
C175 C 0.20063 0.48696 0.18088 0.0
C176 C 0.11636 0.4158 0.114 0.0
C177 C 0.20068 0.54129 0.15769 0.0
H178 H 0.14336 0.52532 0.03487 0.0
H179 H 0.06768 0.50404 0.11462 0.0
H180 H 0.20873 0.52012 0.08305 0.0
H181 H 0.18008 0.47641 0.06685 0.0
H182 H 0.19175 0.51519 0.04085 0.0
H183 H 0.0728 0.48429 0.16793 0.0
H184 H 0.0876 0.45215 0.16522 0.0
H185 H 0.11771 0.49619 0.18005 0.0
H186 H 0.14928 0.39877 0.16205 0.0
H187 H 0.22146 0.50445 0.19808 0.0
H188 H 0.12305 0.42524 0.08755 0.0
H189 H 0.09092 0.41499 0.12046 0.0
H190 H 0.11179 0.38816 0.11582 0.0
H191 H 0.2083 0.55243 0.13182 0.0
H192 H 0.22432 0.55584 0.17426 0.0
H193 H 0.17923 0.54642 0.1664 0.0
C194 C 0.60838 0.03505 0.62888 0.0
C195 C 0.60457 0.05473 0.60263 0.0
C196 C 0.63534 0.05212 0.65326 0.0
C197 C 0.65808 0.08983 0.65198 0.0
C198 C 0.65456 0.10965 0.62523 0.0
C199 C 0.62831 0.09183 0.60073 0.0
C200 C 0.63902 0.02994 0.68074 0.0
C201 C 0.67749 0.14998 0.62323 0.0
C202 C 0.69827 0.14548 0.73 0.0
C203 C 0.73513 0.15904 0.72467 0.0
C204 C 0.67265 0.12127 0.70752 0.0
C205 C 0.68397 0.10937 0.67953 0.0
C206 C 0.72083 0.12047 0.67573 0.0
C207 C 0.74605 0.14563 0.69802 0.0
C208 C 0.63384 0.11101 0.71218 0.0
C209 C 0.73393 0.10753 0.6469 0.0
H210 H 0.5902 0.00639 0.63045 0.0
H211 H 0.62534 0.10737 0.58078 0.0
H212 H 0.6675 0.03713 0.68327 0.0
H213 H 0.6305 0.03561 0.70511 0.0
H214 H 0.62247 1.0008 0.67592 0.0
H215 H 0.67142 0.16139 0.60075 0.0
H216 H 0.6731 0.16197 0.64599 0.0
H217 H 0.70633 0.15817 0.62244 0.0
H218 H 0.68947 0.15577 0.75036 0.0
H219 H 0.77443 0.1558 0.69382 0.0
H220 H 0.61602 0.08166 0.71016 0.0
H221 H 0.62617 0.12371 0.69199 0.0
H222 H 0.62887 0.11964 0.73684 0.0
H223 H 0.71594 0.07838 0.64322 0.0
H224 H 0.7617 0.11294 0.65101 0.0
H225 H 0.73372 0.12138 0.62338 0.0
C226 C 0.52091 0.61065 0.05857 0.0
C227 C 0.53522 0.58981 0.07051 0.0
C228 C 0.52215 0.63818 0.078 0.0
C229 C 0.53828 0.64522 0.11007 0.0
C230 C 0.55302 0.6245 0.12218 0.0
C231 C 0.55126 0.59702 0.10229 0.0
C232 C 0.50616 0.65971 0.06424 0.0
C233 C 0.57078 0.63144 0.15613 0.0
C234 C 0.57627 0.73775 0.14678 0.0
C235 C 0.55052 0.73236 0.17131 0.0
C236 C 0.57218 0.7098 0.12631 0.0
C237 C 0.5415 0.67547 0.13029 0.0
C238 C 0.51476 0.66998 0.15425 0.0
C239 C 0.51959 0.69856 0.17454 0.0
C240 C 0.60128 0.71683 0.10104 0.0
C241 C 0.48156 0.63374 0.15901 0.0
H242 H 0.50821 0.60514 0.03416 0.0
H243 H 0.56224 0.58099 0.11181 0.0
H244 H 0.48548 0.65822 0.08186 0.0
H245 H 0.52727 0.68829 0.06186 0.0
H246 H 0.49369 0.65021 0.03924 0.0
H247 H 0.58028 0.61246 0.16217 0.0
H248 H 0.59406 0.65909 0.15681 0.0
H249 H 0.5517 0.62922 0.17603 0.0
H250 H 0.60017 0.76383 0.14389 0.0
H251 H 0.49962 0.6942 0.19343 0.0
H252 H 0.58969 0.70904 0.07556 0.0
H253 H 0.6135 0.70028 0.10742 0.0
H254 H 0.62285 0.74539 0.10023 0.0
H255 H 0.46771 0.62386 0.13465 0.0
H256 H 0.4624 0.63433 0.17732 0.0
H257 H 0.48924 0.6142 0.16809 0.0
C258 C 0.9789 0.48985 0.62491 0.0
C259 C 0.96849 0.48563 0.59109 0.0
C260 C 0.9607 0.49833 0.64932 0.0
C261 C 0.93139 0.50257 0.63968 0.0
C262 C 0.92083 0.49831 0.60562 0.0
C263 C 0.93949 0.49004 0.58185 0.0
C264 C 0.97283 0.50281 0.68538 0.0
C265 C 0.8898 0.50261 0.59418 0.0
C266 C 0.86243 0.49863 0.70246 0.0
C267 C 0.87384 0.53504 0.70601 0.0
C268 C 0.88156 0.48758 0.68182 0.0
C269 C 0.91286 0.51353 0.66452 0.0
C270 C 0.92494 0.55028 0.66881 0.0
C271 C 0.90532 0.56053 0.68938 0.0
C272 C 0.86793 0.44815 0.67796 0.0
C273 C 0.95807 0.57888 0.65084 0.0
H274 H 1.001 0.48617 0.63238 0.0
H275 H 0.93095 0.48663 0.55589 0.0
H276 H 0.98122 0.5303 0.69379 0.0
H277 H 0.95023 0.48403 0.70185 0.0
H278 H 0.99559 0.49796 0.68896 0.0
H279 H 0.8843 0.49739 0.56694 0.0
H280 H 0.86514 0.48399 0.60849 0.0
H281 H 0.8956 0.5302 0.59928 0.0
H282 H 0.83829 0.47879 0.71536 0.0
H283 H 0.91465 0.58878 0.69212 0.0
H284 H 0.88944 0.4423 0.68454 0.0
H285 H 0.86064 0.44044 0.65138 0.0
H286 H 0.84408 0.43135 0.69408 0.0
H287 H 0.98123 0.57505 0.6558 0.0
H288 H 0.96526 0.60629 0.65862 0.0
H289 H 0.95354 0.57676 0.62332 0.0
C290 C 0.37661 0.93645 0.08083 0.0
C291 C 0.39854 0.97318 0.087 0.0
C292 C 0.35431 0.91266 0.10608 0.0
C293 C 0.35396 0.92577 0.13846 0.0
C294 C 0.37583 0.96282 0.14483 0.0
C295 C 0.39773 0.98608 0.11903 0.0
C296 C 0.33113 0.87344 0.09811 0.0
C297 C 0.37625 0.97789 0.17901 0.0
C298 C 0.27203 0.87325 0.19461 0.0
C299 C 0.28348 0.85591 0.21715 0.0
C300 C 0.29449 0.89555 0.16873 0.0
C301 C 0.32955 0.90099 0.16524 0.0
C302 C 0.34119 0.88312 0.18751 0.0
C303 C 0.31794 0.86064 0.21315 0.0
C304 C 0.2808 0.91369 0.14537 0.0
C305 C 0.37842 0.8883 0.18461 0.0
H306 H 0.37707 0.92612 0.05624 0.0
H307 H 0.41478 0.01431 0.12419 0.0
H308 H 0.33765 0.85717 0.11526 0.0
H309 H 0.30244 0.86485 0.10222 0.0
H310 H 0.3347 0.86745 0.07177 0.0
H311 H 0.39534 0.00715 0.18015 0.0
H312 H 0.34902 0.97274 0.18553 0.0
H313 H 0.38379 0.96431 0.19841 0.0
H314 H 0.24537 0.86962 0.19729 0.0
H315 H 0.32704 0.84746 0.2305 0.0
H316 H 0.28273 0.90691 0.11892 0.0
H317 H 0.29767 0.94317 0.14758 0.0
H318 H 0.25248 0.90585 0.15085 0.0
H319 H 0.38279 0.8811 0.15906 0.0
H320 H 0.38315 0.87192 0.20333 0.0
H321 H 0.39871 0.91689 0.18832 0.0
C322 C 0.46399 0.47366 0.60403 0.0
C323 C 0.48831 0.47748 0.57857 0.0
C324 C 0.44925 0.44379 0.62604 0.0
C325 C 0.45961 0.41758 0.62289 0.0
C326 C 0.48283 0.4206 0.59629 0.0
C327 C 0.4966 0.45023 0.57444 0.0
C328 C 0.42388 0.44113 0.65354 0.0
C329 C 0.49507 0.39366 0.59209 0.0
C330 C 0.47205 0.3707 0.69769 0.0
C331 C 0.44566 0.33486 0.69248 0.0
C332 C 0.47513 0.39822 0.67664 0.0
C333 C 0.45091 0.38996 0.64972 0.0
C334 C 0.42216 0.35429 0.64609 0.0
C335 C 0.41992 0.327 0.6675 0.0
C336 C 0.5063 0.43569 0.68158 0.0
C337 C 0.39521 0.34455 0.61827 0.0
H338 H 0.45707 0.49432 0.60724 0.0
H339 H 0.51514 0.45263 0.55478 0.0
H340 H 0.40111 0.41329 0.65611 0.0
H341 H 0.43823 0.44844 0.67787 0.0
H342 H 0.41313 0.45931 0.64879 0.0
H343 H 0.51111 0.39843 0.56875 0.0
H344 H 0.51177 0.39507 0.61386 0.0
H345 H 0.47163 0.36612 0.59148 0.0
H346 H 0.49166 0.37716 0.71738 0.0
H347 H 0.39931 0.29943 0.66345 0.0
H348 H 0.49695 0.45532 0.68153 0.0
H349 H 0.5257 0.44293 0.66049 0.0
H350 H 0.52066 0.43829 0.70548 0.0
H351 H 0.38724 0.36514 0.61535 0.0
H352 H 0.37079 0.31811 0.62295 0.0
H353 H 0.40749 0.34331 0.59418 0.0
C354 C 0.53585 0.94506 0.46152 0.0
C355 C 0.55045 0.98145 0.45331 0.0
C356 C 0.53409 0.92058 0.43764 0.0
C357 C 0.54724 0.93274 0.40472 0.0
C358 C 0.56188 0.96938 0.39619 0.0
C359 C 0.56337 0.99332 0.4206 0.0
C360 C 0.51854 0.88178 0.44775 0.0
C361 C 0.57627 0.98335 0.36132 0.0
C362 C 0.58194 0.8834 0.35313 0.0
C363 C 0.55423 0.86516 0.32997 0.0
C364 C 0.57943 0.90456 0.37812 0.0
C365 C 0.54847 0.90782 0.37997 0.0
C366 C 0.51969 0.88842 0.35749 0.0
C367 C 0.52285 0.86707 0.33273 0.0
C368 C 0.61049 0.92434 0.40188 0.0
C369 C 0.48623 0.89125 0.35884 0.0
H370 H 0.52554 0.93553 0.48665 0.0
H371 H 0.57436 0.02128 0.41393 0.0
H372 H 0.49653 0.86436 0.43051 0.0
H373 H 0.53948 0.87415 0.44567 0.0
H374 H 0.50791 0.87632 0.4739 0.0
H375 H 0.58506 0.01217 0.35822 0.0
H376 H 0.59947 0.97969 0.35594 0.0
H377 H 0.55543 0.96794 0.34234 0.0
H378 H 0.6061 0.88163 0.35139 0.0
H379 H 0.50145 0.85307 0.31479 0.0
H380 H 0.60095 0.91817 0.42832 0.0
H381 H 0.62252 0.95362 0.39804 0.0
H382 H 0.6318 0.91739 0.39819 0.0
H383 H 0.47482 0.88547 0.38467 0.0
H384 H 0.46535 0.87264 0.3412 0.0
H385 H 0.49309 0.91901 0.35236 0.0
C386 C 0.63055 0.54246 0.96714 0.0
C387 C 0.61775 0.51565 0.99206 0.0
C388 C 0.65315 0.54347 0.94116 0.0
C389 C 0.66251 0.51646 0.93948 0.0
C390 C 0.65097 0.49022 0.96542 0.0
C391 C 0.62902 0.49035 0.99161 0.0
C392 C 0.66555 0.57249 0.91456 0.0
C393 C 0.6598 0.46061 0.96436 0.0
C394 C 0.68182 0.49883 0.85047 0.0
C395 C 0.71945 0.51741 0.84955 0.0
C396 C 0.66298 0.49676 0.88009 0.0
C397 C 0.68222 0.51449 0.90935 0.0
C398 C 0.72021 0.53235 0.90887 0.0
C399 C 0.73834 0.53326 0.87911 0.0
C400 C 0.62244 0.47658 0.87971 0.0
C401 C 0.74178 0.55203 0.93927 0.0
H402 H 0.62186 0.56203 0.96733 0.0
H403 H 0.61873 0.46919 0.01046 0.0
H404 H 0.69496 0.58528 0.91054 0.0
H405 H 0.65241 0.5606 0.89035 0.0
H406 H 0.65908 0.59349 0.9213 0.0
H407 H 0.65214 0.44459 0.98805 0.0
H408 H 0.64521 0.44248 0.94329 0.0
H409 H 0.68889 0.47169 0.9597 0.0
H410 H 0.66703 0.48633 0.82781 0.0
H411 H 0.76744 0.54789 0.8786 0.0
H412 H 0.61249 0.49561 0.88248 0.0
H413 H 0.61165 0.45746 0.90122 0.0
H414 H 0.61152 0.46152 0.85607 0.0
H415 H 0.73792 0.57505 0.9444 0.0
H416 H 0.77092 0.56222 0.93573 0.0
H417 H 0.7323 0.5343 0.9618 0.0
C418 C 0.04065 0.54654 0.42316 0.0
C419 C 0.05061 0.53359 0.45112 0.0
C420 C 0.06561 0.57848 0.40669 0.0
C421 C 0.10143 0.59791 0.41836 0.0
C422 C 0.11183 0.58452 0.44605 0.0
C423 C 0.08635 0.55266 0.4621 0.0
C424 C 0.0534 0.59193 0.37732 0.0
C425 C 0.14972 0.60432 0.45925 0.0
C426 C 0.17235 0.6708 0.36127 0.0
C427 C 0.17327 0.70149 0.37375 0.0
C428 C 0.1495 0.63686 0.3758 0.0
C429 C 0.12717 0.63363 0.40341 0.0
C430 C 0.12896 0.66471 0.4167 0.0
C431 C 0.15194 0.69813 0.40177 0.0
C432 C 0.14849 0.60435 0.36105 0.0
C433 C 0.10583 0.6626 0.4462 0.0
H434 H 0.01321 0.53195 0.41436 0.0
H435 H 0.0945 0.54281 0.48349 0.0
H436 H 0.05527 0.6177 0.38384 0.0
H437 H 0.0712 0.59707 0.35527 0.0
H438 H 0.02532 0.57269 0.37003 0.0
H439 H 0.15419 0.58912 0.47945 0.0
H440 H 0.1692 0.60987 0.43858 0.0
H441 H 0.15558 0.63051 0.46941 0.0
H442 H 0.18854 0.67313 0.33949 0.0
H443 H 0.15256 0.72168 0.41172 0.0
H444 H 0.12154 0.58636 0.35047 0.0
H445 H 0.15313 0.58903 0.38097 0.0
H446 H 0.16889 0.61152 0.34086 0.0
H447 H 0.07706 0.64607 0.43957 0.0
H448 H 0.11107 0.68939 0.45405 0.0
H449 H 0.11066 0.6494 0.46796 0.0
C450 C 0.41579 0.06656 0.936 0.0
C451 C 0.41905 0.03634 0.93009 0.0
C452 C 0.41216 0.08603 0.90939 0.0
C453 C 0.41137 0.07491 0.87589 0.0
C454 C 0.41099 0.04243 0.86998 0.0
C455 C 0.41499 0.02359 0.89714 0.0
C456 C 0.4127 0.12043 0.91705 0.0
C457 C 0.40939 0.02914 0.83476 0.0
C458 C 0.39661 0.12955 0.80804 0.0
C459 C 0.43215 0.155 0.79941 0.0
C460 C 0.38909 0.10214 0.83182 0.0
C461 C 0.41775 0.1005 0.84758 0.0
C462 C 0.45353 0.12546 0.83804 0.0
C463 C 0.46019 0.15204 0.81406 0.0
C464 C 0.35057 0.07568 0.84086 0.0
C465 C 0.4851 0.1251 0.85419 0.0
H466 H 0.41845 0.07651 0.96135 0.0
H467 H 0.4172 1.00017 0.89221 0.0
H468 H 0.43912 0.1435 0.90952 0.0
H469 H 0.39183 0.12238 0.90251 0.0
H470 H 0.40835 0.12279 0.94421 0.0
H471 H 0.40206 1.00056 0.83464 0.0
H472 H 0.3897 0.03237 0.81945 0.0
H473 H 0.43607 0.04517 0.82251 0.0
H474 H 0.37476 0.13149 0.79681 0.0
H475 H 0.48778 0.17127 0.80751 0.0
H476 H 0.34462 0.08122 0.8665 0.0
H477 H 0.34593 0.048 0.84112 0.0
H478 H 0.33149 0.07714 0.8231 0.0
H479 H 0.48542 0.13015 0.88151 0.0
H480 H 0.51122 0.14564 0.84316 0.0
H481 H 0.48261 0.09846 0.85134 0.0
C482 C 0.44965 0.50657 0.44075 0.0
C483 C 0.48371 0.51249 0.4318 0.0
C484 C 0.42214 0.49516 0.41713 0.0
C485 C 0.42886 0.48986 0.38349 0.0
C486 C 0.4632 0.49585 0.37413 0.0
C487 C 0.49025 0.50687 0.39853 0.0
C488 C 0.38573 0.48846 0.42835 0.0
C489 C 0.47134 0.49076 0.33839 0.0
C490 C 0.34443 0.4263 0.33689 0.0
C491 C 0.33567 0.4499 0.32081 0.0
C492 C 0.37571 0.43902 0.35594 0.0
C493 C 0.39904 0.47632 0.35889 0.0
C494 C 0.39133 0.50035 0.34143 0.0
C495 C 0.3596 0.48684 0.32263 0.0
C496 C 0.38276 0.41246 0.37432 0.0
C497 C 0.41582 0.54033 0.34376 0.0
H498 H 0.44431 0.51066 0.46647 0.0
H499 H 0.51664 0.51176 0.39145 0.0
H500 H 0.37811 0.50538 0.41343 0.0
H501 H 0.3651 0.46014 0.42388 0.0
H502 H 0.38508 0.49421 0.45541 0.0
H503 H 0.49961 0.49737 0.33499 0.0
H504 H 0.45334 0.46263 0.33081 0.0
H505 H 0.46613 0.50793 0.32116 0.0
H506 H 0.32635 0.39767 0.33536 0.0
H507 H 0.35321 0.50522 0.30998 0.0
H508 H 0.38013 0.41477 0.4018 0.0
H509 H 0.41053 0.41834 0.36937 0.0
H510 H 0.36379 0.38442 0.36698 0.0
H511 H 0.41434 0.54918 0.36949 0.0
H512 H 0.40847 0.55518 0.32557 0.0
H513 H 0.44409 0.54762 0.3391 0.0
C514 C 0.98187 0.44977 0.94781 0.0
C515 C 0.96519 0.45352 0.97659 0.0
C516 C 0.96186 0.42499 0.92277 0.0
C517 C 0.92414 0.40348 0.92637 0.0
C518 C 0.90734 0.40598 0.95605 0.0
C519 C 0.92805 0.43086 0.98081 0.0
C520 C 0.98093 0.42307 0.8917 0.0
C521 C 0.8672 0.38365 0.9609 0.0
C522 C 0.86722 0.37527 0.84748 0.0
C523 C 0.8567 0.33892 0.84502 0.0
C524 C 0.88953 0.39652 0.87345 0.0
C525 C 0.9019 0.38122 0.89776 0.0
C526 C 0.89232 0.3448 0.89496 0.0
C527 C 0.8698 0.32405 0.86862 0.0
C528 C 0.89917 0.43524 0.87528 0.0
C529 C 0.90519 0.32758 0.92021 0.0
H530 H 0.01057 0.46694 0.94431 0.0
H531 H 0.91485 0.43347 1.00291 0.0
H532 H 0.97249 0.39485 0.88602 0.0
H533 H 0.97355 0.43407 0.86982 0.0
H534 H 0.01058 0.43843 0.89437 0.0
H535 H 0.85862 0.38631 0.98653 0.0
H536 H 0.85364 0.39209 0.94235 0.0
H537 H 0.85787 0.35501 0.9564 0.0
H538 H 0.85744 0.38715 0.82935 0.0
H539 H 0.86176 0.296 0.86703 0.0
H540 H 0.92876 0.45293 0.87522 0.0
H541 H 0.88884 0.43989 0.89912 0.0
H542 H 0.88802 0.4433 0.854 0.0
H543 H 0.93485 0.34339 0.92222 0.0
H544 H 0.89715 0.29967 0.91348 0.0
H545 H 0.89397 0.3273 0.94539 0.0
C546 C 0.03935 0.61491 0.92329 0.0
C547 C 0.02405 0.60516 0.95553 0.0
C548 C 0.0213 0.62149 0.89729 0.0
C549 C 0.98723 0.61766 0.90383 0.0
C550 C 0.97438 0.61281 0.9373 0.0
C551 C 0.99303 0.60671 0.96277 0.0
C552 C 0.03674 0.62854 0.86218 0.0
C553 C 0.93853 0.60926 0.94562 0.0
C554 C 0.92382 0.62301 0.84067 0.0
C555 C 0.90178 0.58666 0.83327 0.0
C556 C 0.9537 0.63436 0.86187 0.0
C557 C 0.9611 0.60862 0.87612 0.0
C558 C 0.94006 0.57224 0.867 0.0
C559 C 0.91094 0.56186 0.84562 0.0
C560 C 0.97603 0.67353 0.87013 0.0
C561 C 0.94683 0.54366 0.8814 0.0
H562 H 0.06376 0.61453 0.91766 0.0
H563 H 0.98166 0.60029 0.98793 0.0
H564 H 0.02446 0.60305 0.84817 0.0
H565 H 0.03071 0.64731 0.8484 0.0
H566 H 0.06626 0.63977 0.86249 0.0
H567 H 0.93493 0.61085 0.97307 0.0
H568 H 0.93562 0.63046 0.93269 0.0
H569 H 0.91669 0.58301 0.93673 0.0
H570 H 0.91715 0.64239 0.83085 0.0
H571 H 0.89456 0.5338 0.83946 0.0
H572 H 0.00435 0.6814 0.8752 0.0
H573 H 0.96488 0.67907 0.89293 0.0
H574 H 0.9754 0.69053 0.84935 0.0
H575 H 0.97496 0.55066 0.87652 0.0
H576 H 0.92877 0.51689 0.87062 0.0
H577 H 0.94269 0.54174 0.90904 0.0
C578 C 0.39917 0.93667 0.51064 0.0
C579 C 0.42474 0.97194 0.50161 0.0
C580 C 0.37001 0.91562 0.4895 0.0
C581 C 0.36641 0.93025 0.45871 0.0
C582 C 0.39021 0.96683 0.45116 0.0
C583 C 0.41904 0.98719 0.47267 0.0
C584 C 0.34502 0.87684 0.4987 0.0
C585 C 0.38736 0.98368 0.41878 0.0
C586 C 0.335 0.86871 0.38372 0.0
C587 C 0.29964 0.86139 0.37939 0.0
C588 C 0.35663 0.89083 0.40947 0.0
C589 C 0.34269 0.90616 0.43183 0.0
C590 C 0.30705 0.8991 0.42768 0.0
C591 C 0.2859 0.87682 0.40138 0.0
C592 C 0.3946 0.89784 0.41262 0.0
C593 C 0.29129 0.91493 0.45108 0.0
H594 H 0.40319 0.92468 0.53302 0.0
H595 H 0.43835 0.01461 0.4657 0.0
H596 H 0.31678 0.86893 0.4932 0.0
H597 H 0.35189 0.85979 0.48337 0.0
H598 H 0.34712 0.87132 0.52566 0.0
H599 H 0.40373 0.01335 0.41928 0.0
H600 H 0.39701 0.97411 0.39762 0.0
H601 H 0.35907 0.97578 0.41362 0.0
H602 H 0.34602 0.85711 0.36683 0.0
H603 H 0.25857 0.87117 0.3983 0.0
H604 H 0.39846 0.88911 0.43779 0.0
H605 H 0.41397 0.92694 0.41015 0.0
H606 H 0.40125 0.88369 0.39327 0.0
H607 H 0.29184 0.90632 0.47731 0.0
H608 H 0.26318 0.90684 0.44457 0.0
H609 H 0.30773 0.94456 0.45028 0.0
C610 C 0.46785 0.42765 0.92577 0.0
C611 C 0.47959 0.42449 0.95775 0.0
C612 C 0.46218 0.4028 0.90068 0.0
C613 C 0.46835 0.37422 0.90789 0.0
C614 C 0.47927 0.37037 0.94036 0.0
C615 C 0.48469 0.39551 0.96491 0.0
C616 C 0.4503 0.40749 0.86627 0.0
C617 C 0.48592 0.34011 0.94898 0.0
C618 C 0.42432 0.29275 0.85258 0.0
C619 C 0.45254 0.2989 0.83084 0.0
C620 C 0.42919 0.317 0.87788 0.0
C621 C 0.46314 0.34811 0.88156 0.0
C622 C 0.49206 0.35414 0.86026 0.0
C623 C 0.4864 0.32937 0.83507 0.0
C624 C 0.39783 0.30962 0.90031 0.0
C625 C 0.52873 0.38701 0.86374 0.0
H626 H 0.46404 0.45006 0.92004 0.0
H627 H 0.49371 0.39281 0.9896 0.0
H628 H 0.47083 0.4114 0.84723 0.0
H629 H 0.42498 0.38301 0.85938 0.0
H630 H 0.44598 0.43072 0.86495 0.0
H631 H 0.49367 0.34057 0.97566 0.0
H632 H 0.46148 0.31399 0.9441 0.0
H633 H 0.50765 0.34176 0.93273 0.0
H634 H 0.39809 0.26918 0.84954 0.0
H635 H 0.50827 0.33428 0.81827 0.0
H636 H 0.39164 0.33149 0.89755 0.0
H637 H 0.40478 0.30889 0.92702 0.0
H638 H 0.37329 0.28386 0.89442 0.0
H639 H 0.52689 0.41145 0.85966 0.0
H640 H 0.54852 0.3874 0.84558 0.0
H641 H 0.53895 0.38834 0.88957 0.0
C642 C 0.03807 0.38209 0.44505 0.0
C643 C 0.05348 0.40237 0.47395 0.0
C644 C 0.0585 0.37458 0.42257 0.0
C645 C 0.09548 0.38834 0.42872 0.0
C646 C 0.11072 0.4072 0.45879 0.0
C647 C 0.08943 0.41369 0.48122 0.0
C648 C 0.04096 0.35371 0.39122 0.0
C649 C 0.15012 0.42275 0.46615 0.0
C650 C 0.14906 0.3581 0.37559 0.0
C651 C 0.16388 0.38511 0.35081 0.0
C652 C 0.12645 0.35847 0.40099 0.0
C653 C 0.11895 0.38682 0.40192 0.0
C654 C 0.13384 0.4141 0.37696 0.0
C655 C 0.15581 0.41276 0.35166 0.0
C656 C 0.11059 0.32861 0.42682 0.0
C657 C 0.1269 0.44504 0.37714 0.0
H658 H 0.01021 0.37302 0.43941 0.0
H659 H 0.10159 0.42957 0.50339 0.0
H660 H 0.05065 0.372 0.36907 0.0
H661 H 0.04834 0.33287 0.38715 0.0
H662 H 0.01124 0.34066 0.39244 0.0
H663 H 0.15698 0.43323 0.4921 0.0
H664 H 0.15816 0.40232 0.46268 0.0
H665 H 0.16621 0.44501 0.4482 0.0
H666 H 0.15508 0.33661 0.37513 0.0
H667 H 0.16723 0.43391 0.33281 0.0
H668 H 0.08088 0.31542 0.42669 0.0
H669 H 0.1196 0.33962 0.45231 0.0
H670 H 0.11834 0.30809 0.42221 0.0
H671 H 0.09772 0.43495 0.37484 0.0
H672 H 0.1411 0.46449 0.35635 0.0
H673 H 0.1357 0.45937 0.40135 0.0
C674 C 0.57856 0.10547 0.95413 0.0
C675 C 0.55881 0.114 0.97635 0.0
C676 C 0.60611 0.13185 0.93417 0.0
C677 C 0.61385 0.16772 0.93601 0.0
C678 C 0.59416 0.17666 0.95852 0.0
C679 C 0.56699 0.14967 0.9787 0.0
C680 C 0.62688 0.12121 0.911 0.0
C681 C 0.60133 0.21451 0.96079 0.0
C682 C 0.70763 0.23223 0.90465 0.0
C683 C 0.70166 0.23506 0.87038 0.0
C684 C 0.67901 0.21257 0.92699 0.0
C685 C 0.64343 0.19559 0.91488 0.0
C686 C 0.63704 0.20112 0.88102 0.0
C687 C 0.6663 0.22074 0.85906 0.0
C688 C 0.68712 0.20738 0.96283 0.0
C689 C 0.59941 0.18402 0.86733 0.0
H690 H 0.57241 0.07795 0.95227 0.0
H691 H 0.55144 0.15628 0.99553 0.0
H692 H 0.62385 0.12758 0.88457 0.0
H693 H 0.6559 0.13668 0.917 0.0
H694 H 0.6178 0.09223 0.91293 0.0
H695 H 0.58414 0.21721 0.98 0.0
H696 H 0.62988 0.23299 0.96705 0.0
H697 H 0.59638 0.22321 0.93605 0.0
H698 H 0.73487 0.24368 0.91378 0.0
H699 H 0.66142 0.22302 0.8327 0.0
H700 H 0.68185 0.17964 0.96626 0.0
H701 H 0.66944 0.21102 0.98065 0.0
H702 H 0.71552 0.22621 0.96949 0.0
H703 H 0.58874 0.15493 0.86408 0.0
H704 H 0.59859 0.19574 0.84261 0.0
H705 H 0.58131 0.18704 0.88513 0.0
C706 C 0.60883 0.66706 0.44963 0.0
C707 C 0.57999 0.6566 0.47209 0.0
C708 C 0.61494 0.69097 0.42298 0.0
C709 C 0.59151 0.70463 0.4185 0.0
C710 C 0.56464 0.69704 0.44308 0.0
C711 C 0.55925 0.67314 0.4697 0.0
C712 C 0.64425 0.6987 0.39779 0.0
C713 C 0.5393 0.71134 0.43948 0.0
C714 C 0.60678 0.77187 0.34819 0.0
C715 C 0.58344 0.7491 0.32354 0.0
C716 C 0.61047 0.75793 0.37916 0.0
C717 C 0.59045 0.72049 0.38535 0.0
C718 C 0.56826 0.69746 0.35978 0.0
C719 C 0.56503 0.71205 0.32934 0.0
C720 C 0.63446 0.78333 0.40572 0.0
C721 C 0.54678 0.65733 0.36494 0.0
H722 H 0.62534 0.65477 0.4516 0.0
H723 H 0.53697 0.66527 0.48697 0.0
H724 H 0.63214 0.68261 0.37493 0.0
H725 H 0.65857 0.72732 0.39008 0.0
H726 H 0.66405 0.69184 0.40793 0.0
H727 H 0.52414 0.70813 0.46309 0.0
H728 H 0.55415 0.74007 0.43216 0.0
H729 H 0.51976 0.69664 0.41929 0.0
H730 H 0.62069 0.80057 0.34398 0.0
H731 H 0.54707 0.69434 0.3103 0.0
H732 H 0.65182 0.77382 0.41676 0.0
H733 H 0.61769 0.78434 0.42637 0.0
H734 H 0.65172 0.81088 0.39558 0.0
H735 H 0.56482 0.64699 0.37188 0.0
H736 H 0.53163 0.64315 0.34215 0.0
H737 H 0.52737 0.65063 0.38593 0.0
C738 C 0.51001 0.11596 0.5853 0.0
C739 C 0.53392 0.12354 0.55847 0.0
C740 C 0.51227 0.14324 0.60556 0.0
C741 C 0.53929 0.17912 0.59895 0.0
C742 C 0.56291 0.18719 0.57127 0.0
C743 C 0.55988 0.15921 0.5512 0.0
C744 C 0.48612 0.13346 0.63453 0.0
C745 C 0.59208 0.2251 0.56359 0.0
C746 C 0.51372 0.24016 0.64176 0.0
C747 C 0.52932 0.24349 0.6734 0.0
C748 C 0.51994 0.22246 0.61564 0.0
C749 C 0.54209 0.20757 0.62148 0.0
C750 C 0.56107 0.21437 0.65211 0.0
C751 C 0.5545 0.23242 0.67783 0.0
C752 C 0.49968 0.21638 0.58318 0.0
C753 C 0.58536 0.19936 0.65906 0.0
H754 H 0.48979 0.08845 0.5909 0.0
H755 H 0.57868 0.16513 0.53069 0.0
H756 H 0.50093 0.14145 0.65861 0.0
H757 H 0.47124 0.14812 0.63215 0.0
H758 H 0.46635 0.10433 0.63581 0.0
H759 H 0.6053 0.22742 0.53897 0.0
H760 H 0.58107 0.24341 0.56351 0.0
H761 H 0.61275 0.2343 0.58348 0.0
H762 H 0.49475 0.24936 0.63807 0.0
H763 H 0.56681 0.23518 0.70219 0.0
H764 H 0.47657 0.18859 0.58299 0.0
H765 H 0.517 0.2196 0.56125 0.0
H766 H 0.48922 0.23505 0.58017 0.0
H767 H 0.56876 0.17023 0.66446 0.0
H768 H 0.60296 0.2123 0.68099 0.0
H769 H 0.60239 0.20278 0.63683 0.0
C770 C 0.42865 0.4601 0.11243 0.0
C771 C 0.44633 0.44121 0.10533 0.0
C772 C 0.39728 0.44476 0.13199 0.0
C773 C 0.38247 0.40909 0.14396 0.0
C774 C 0.40055 0.38999 0.13734 0.0
C775 C 0.43268 0.40652 0.11841 0.0
C776 C 0.37958 0.46658 0.13919 0.0
C777 C 0.3852 0.35171 0.14899 0.0
C778 C 0.31383 0.38875 0.21264 0.0
C779 C 0.28298 0.3789 0.19346 0.0
C780 C 0.34614 0.39582 0.19726 0.0
C781 C 0.34729 0.39202 0.16204 0.0
C782 C 0.31513 0.37793 0.14333 0.0
C783 C 0.28346 0.37205 0.15919 0.0
C784 C 0.37974 0.41119 0.21817 0.0
C785 C 0.31488 0.37235 0.10594 0.0
H786 H 0.43943 0.48708 0.10254 0.0
H787 H 0.44625 0.39184 0.11264 0.0
H788 H 0.35316 0.45448 0.12656 0.0
H789 H 0.3747 0.46656 0.16657 0.0
H790 H 0.39608 0.49476 0.13033 0.0
H791 H 0.40417 0.3418 0.14479 0.0
H792 H 0.37809 0.34891 0.17608 0.0
H793 H 0.36012 0.33438 0.13508 0.0
H794 H 0.31377 0.39429 0.23914 0.0
H795 H 0.25963 0.36421 0.14432 0.0
H796 H 0.39587 0.4405 0.21356 0.0
H797 H 0.39659 0.39958 0.21106 0.0
H798 H 0.3735 0.40651 0.24548 0.0
H799 H 0.32685 0.39862 0.09273 0.0
H800 H 0.28721 0.35513 0.0964 0.0
H801 H 0.33124 0.35999 0.09948 0.0
C802 C 0.86538 0.36365 0.53487 0.0
C803 C 0.89559 0.35949 0.53365 0.0
C804 C 0.83878 0.34607 0.55976 0.0
C805 C 0.84225 0.32336 0.58346 0.0
C806 C 0.87076 0.31623 0.57996 0.0
C807 C 0.89731 0.33472 0.55535 0.0
C808 C 0.80897 0.35457 0.56262 0.0
C809 C 0.87518 0.29171 0.60423 0.0
C810 C 0.81348 0.32032 0.67422 0.0
C811 C 0.78235 0.28656 0.6765 0.0
C812 C 0.83238 0.33302 0.64375 0.0
C813 C 0.81982 0.31156 0.61468 0.0
C814 C 0.78751 0.27815 0.6164 0.0
C815 C 0.76913 0.26606 0.64728 0.0
C816 C 0.86663 0.36892 0.64301 0.0
C817 C 0.77332 0.25437 0.5861 0.0
H818 H 0.86418 0.38316 0.51846 0.0
H819 H 0.9207 0.33154 0.5545 0.0
H820 H 0.78298 0.33007 0.56837 0.0
H821 H 0.81489 0.37345 0.5836 0.0
H822 H 0.80615 0.36714 0.53923 0.0
H823 H 0.89533 0.28482 0.59517 0.0
H824 H 0.88412 0.30504 0.62888 0.0
H825 H 0.84924 0.26661 0.60835 0.0
H826 H 0.8238 0.33643 0.69657 0.0
H827 H 0.74517 0.23985 0.64875 0.0
H828 H 0.86415 0.38703 0.62467 0.0
H829 H 0.88945 0.36579 0.63468 0.0
H830 H 0.87319 0.38178 0.668 0.0
H831 H 0.77269 0.2698 0.56395 0.0
H832 H 0.74593 0.2312 0.59053 0.0
H833 H 0.7915 0.24405 0.57979 0.0
C834 C 0.51615 0.93658 0.03958 0.0
C835 C 0.52251 0.97116 0.04581 0.0
C836 C 0.5275 0.9193 0.06242 0.0
C837 C 0.5457 0.93708 0.09207 0.0
C838 C 0.55494 0.97309 0.09687 0.0
C839 C 0.54319 0.98964 0.07375 0.0
C840 C 0.5173 0.88097 0.05621 0.0
C841 C 0.57453 0.99322 0.1279 0.0
C842 C 0.52266 0.87909 0.17046 0.0
C843 C 0.55288 0.87524 0.17448 0.0
C844 C 0.52035 0.89932 0.14398 0.0
C845 C 0.549 0.91629 0.12058 0.0
C846 C 0.58005 0.91327 0.12478 0.0
C847 C 0.58169 0.89279 0.15181 0.0
C848 C 0.48687 0.90209 0.14085 0.0
C849 C 0.61112 0.93105 0.10037 0.0
H850 H 0.50039 0.92214 0.01799 0.0
H851 H 0.54873 0.01658 0.07856 0.0
H852 H 0.5401 0.87675 0.06178 0.0
H853 H 0.49479 0.86306 0.07323 0.0
H854 H 0.50868 0.87298 0.02988 0.0
H855 H 0.58504 0.02243 0.12518 0.0
H856 H 0.55586 0.98313 0.14975 0.0
H857 H 0.59721 0.98884 0.13361 0.0
H858 H 0.50037 0.86591 0.188 0.0
H859 H 0.60503 0.88978 0.15467 0.0
H860 H 0.47368 0.89099 0.11647 0.0
H861 H 0.49402 0.93057 0.1413 0.0
H862 H 0.46717 0.88752 0.16136 0.0
H863 H 0.60228 0.91929 0.07509 0.0
H864 H 0.63411 0.92788 0.10814 0.0
H865 H 0.62041 0.96001 0.098 0.0
C866 C 0.63829 0.58513 0.59433 0.0
C867 C 0.64016 0.57485 0.56136 0.0
C868 C 0.66177 0.5862 0.61921 0.0
C869 C 0.68818 0.57725 0.6109 0.0
C870 C 0.69184 0.56922 0.57719 0.0
C871 C 0.6676 0.56786 0.55282 0.0
C872 C 0.65662 0.59447 0.65489 0.0
C873 C 0.72008 0.56013 0.56723 0.0
C874 C 0.75921 0.5946 0.67671 0.0
C875 C 0.74522 0.56051 0.69138 0.0
C876 C 0.74139 0.60048 0.64995 0.0
C877 C 0.70857 0.57174 0.63819 0.0
C878 C 0.69422 0.53743 0.65326 0.0
C879 C 0.71285 0.53221 0.67941 0.0
C880 C 0.75771 0.63728 0.63415 0.0
C881 C 0.65892 0.5062 0.64201 0.0
H882 H 0.61729 0.59072 0.60124 0.0
H883 H 0.66945 0.56018 0.52738 0.0
H884 H 0.64605 0.56983 0.6706 0.0
H885 H 0.6826 0.61467 0.66579 0.0
H886 H 0.63754 0.60458 0.65656 0.0
H887 H 0.7228 0.55958 0.53951 0.0
H888 H 0.7465 0.57978 0.57781 0.0
H889 H 0.71281 0.53342 0.57764 0.0
H890 H 0.78436 0.61649 0.68573 0.0
H891 H 0.70175 0.50583 0.69078 0.0
H892 H 0.73911 0.6478 0.63693 0.0
H893 H 0.76185 0.63578 0.60682 0.0
H894 H 0.78384 0.65653 0.64559 0.0
H895 H 0.6372 0.51265 0.64491 0.0
H896 H 0.65138 0.48131 0.65653 0.0
H897 H 0.66048 0.50098 0.615 0.0
C898 C 0.08291 0.63844 0.10658 0.0
C899 C 0.04756 0.60953 0.10702 0.0
C900 C 0.09659 0.66211 0.13355 0.0
C901 C 0.07432 0.6571 0.16167 0.0
C902 C 0.03778 0.62972 0.16116 0.0
C903 C 0.02486 0.60602 0.13393 0.0
C904 C 0.13577 0.69084 0.13295 0.0
C905 C 0.01291 0.62409 0.19023 0.0
C906 C 0.12972 0.68302 0.24036 0.0
C907 C 0.13906 0.71889 0.24389 0.0
C908 C 0.10616 0.66167 0.21532 0.0
C909 C 0.09124 0.67647 0.19325 0.0
C910 C 0.09771 0.71161 0.1988 0.0
C911 C 0.12179 0.73261 0.22414 0.0
C912 C 0.10004 0.62436 0.21061 0.0
C913 C 0.08145 0.72795 0.17643 0.0
H914 H 0.1006 0.64175 0.08576 0.0
H915 H 0.99734 0.58408 0.13431 0.0
H916 H 0.13889 0.71714 0.13937 0.0
H917 H 0.15048 0.68447 0.1521 0.0
H918 H 0.14855 0.69327 0.10806 0.0
H919 H 0.98428 0.60755 0.183 0.0
H920 H 0.01816 0.61016 0.21106 0.0
H921 H 0.01762 0.65009 0.19989 0.0
H922 H 0.14255 0.67212 0.25607 0.0
H923 H 0.12885 0.76031 0.22691 0.0
H924 H 0.11349 0.62356 0.18709 0.0
H925 H 0.07101 0.60477 0.20815 0.0
H926 H 0.11077 0.61572 0.2318 0.0
H927 H 0.09699 0.73727 0.1526 0.0
H928 H 0.08193 0.75127 0.18846 0.0
H929 H 0.05334 0.70796 0.17004 0.0
loop_
_geom_bond_atom_site_label_1
_geom_bond_atom_site_label_2
_geom_bond_distance
_geom_bond_site_symmetry_2
_ccdc_geom_bond_type
C0 O2 1.247 . S
C0 O4 1.258 . S
C1 O8 1.247 1_655 S
C1 O9 1.258 . S
O2 C0 1.247 . S
O2 Zn3 2.028 1_455 S
Zn3 O2 2.028 1_655 S
Zn3 O7 2.035 1_554 S
Zn3 O9 2.035 1_554 S
Zn3 O10 2.028 1_655 S
O4 C0 1.258 . S
O4 Zn5 2.035 1_554 S
Zn5 O4 2.035 1_556 S
Zn5 O6 2.028 . S
Zn5 O8 2.028 . S
Zn5 O11 2.035 1_556 S
O6 Zn5 2.028 . S
O6 C12 1.247 1_455 S
O7 Zn3 2.035 1_556 S
O7 C12 1.258 . S
O8 C1 1.247 1_455 S
O8 Zn5 2.028 . S
O9 C1 1.258 . S
O9 Zn3 2.035 1_556 S
O10 Zn3 2.028 1_455 S
O10 C13 1.247 . S
O11 Zn5 2.035 1_554 S
O11 C13 1.258 . S
C12 O6 1.247 1_655 S
C12 O7 1.258 . S
C13 O10 1.247 . S
C13 O11 1.258 . S
C14 O16 1.247 . S
C14 O18 1.258 . S
C15 O22 1.247 1_565 S
C15 O23 1.258 . S
O16 C14 1.247 . S
O16 Zn17 2.028 1_545 S
Zn17 O16 2.028 1_565 S
Zn17 O21 2.035 . S
Zn17 O23 2.035 . S
Zn17 O24 2.028 1_565 S
O18 C14 1.258 . S
O18 Zn19 2.035 . S
Zn19 O18 2.035 . S
Zn19 O20 2.028 . S
Zn19 O22 2.028 . S
Zn19 O25 2.035 . S
O20 Zn19 2.028 . S
O20 C26 1.247 1_545 S
O21 Zn17 2.035 . S
O21 C26 1.258 . S
O22 C15 1.247 1_545 S
O22 Zn19 2.028 . S
O23 C15 1.258 . S
O23 Zn17 2.035 . S
O24 Zn17 2.028 1_545 S
O24 C27 1.247 . S
O25 Zn19 2.035 . S
O25 C27 1.258 . S
C26 O20 1.247 1_565 S
C26 O21 1.258 . S
C27 O24 1.247 . S
C27 O25 1.258 . S
C28 O30 1.247 . S
C28 O32 1.258 . S
C29 O36 1.247 . S
C29 O37 1.258 . S
O30 C28 1.247 . S
O30 Zn31 2.028 . S
Zn31 O30 2.028 . S
Zn31 O35 2.035 1_556 S
Zn31 O37 2.035 1_556 S
Zn31 O38 2.028 . S
O32 C28 1.258 . S
O32 Zn33 2.035 1_556 S
Zn33 O32 2.035 1_554 S
Zn33 O34 2.028 . S
Zn33 O36 2.028 . S
Zn33 O39 2.035 1_554 S
O34 Zn33 2.028 . S
O34 C40 1.247 . S
O35 Zn31 2.035 1_554 S
O35 C40 1.258 . S
O36 C29 1.247 . S
O36 Zn33 2.028 . S
O37 C29 1.258 . S
O37 Zn31 2.035 1_554 S
O38 Zn31 2.028 . S
O38 C41 1.247 . S
O39 Zn33 2.035 1_556 S
O39 C41 1.258 . S
C40 O34 1.247 . S
C40 O35 1.258 . S
C41 O38 1.247 . S
C41 O39 1.258 . S
C42 O44 1.247 . S
C42 O46 1.247 1_455 S
C43 O50 1.247 . S
C43 O51 1.258 1_655 S
O44 C42 1.247 . S
O44 Zn45 2.028 . S
Zn45 O44 2.028 . S
Zn45 O49 2.035 . S
Zn45 O51 2.035 . S
Zn45 O52 2.028 . S
O46 C42 1.247 1_655 S
O46 Zn47 2.037 . S
Zn47 O46 2.037 . S
Zn47 O48 2.028 . S
Zn47 O50 2.028 . S
Zn47 O53 2.049 . S
O48 Zn47 2.028 . S
O48 C54 1.247 . S
O49 Zn45 2.035 . S
O49 C54 1.258 1_455 S
O50 C43 1.247 . S
O50 Zn47 2.028 . S
O51 C43 1.258 1_455 S
O51 Zn45 2.035 . S
O52 Zn45 2.028 . S
O52 C55 1.247 . S
O53 Zn47 2.049 . S
O53 C55 1.242 1_655 S
C54 O48 1.247 . S
C54 O49 1.258 1_655 S
C55 O52 1.247 . S
C55 O53 1.242 1_455 S
C56 O58 1.247 1_565 S
C56 O60 1.258 . S
C57 O64 1.247 . S
C57 O65 1.258 . S
O58 C56 1.247 1_545 S
O58 Zn59 2.028 . S
Zn59 O58 2.028 . S
Zn59 O63 2.035 1_554 S
Zn59 O65 2.035 1_554 S
Zn59 O66 2.028 . S
O60 C56 1.258 . S
O60 Zn61 2.035 1_554 S
Zn61 O60 2.035 1_556 S
Zn61 O62 2.028 1_565 S
Zn61 O64 2.028 1_565 S
Zn61 O67 2.035 1_556 S
O62 Zn61 2.028 1_545 S
O62 C68 1.247 . S
O63 Zn59 2.035 1_556 S
O63 C68 1.258 . S
O64 C57 1.247 . S
O64 Zn61 2.028 1_545 S
O65 C57 1.258 . S
O65 Zn59 2.035 1_556 S
O66 Zn59 2.028 . S
O66 C69 1.247 1_545 S
O67 Zn61 2.035 1_554 S
O67 C69 1.258 . S
C68 O62 1.247 . S
C68 O63 1.258 . S
C69 O66 1.247 1_565 S
C69 O67 1.258 . S
C70 O72 1.247 . S
C70 O74 1.258 . S
C71 O78 1.247 . S
C71 O79 1.258 . S
O72 C70 1.247 . S
O72 Zn73 2.028 . S
Zn73 O72 2.028 . S
Zn73 O77 2.035 . S
Zn73 O79 2.035 . S
Zn73 O80 2.028 . S
O74 C70 1.258 . S
O74 Zn75 2.035 . S
Zn75 O74 2.035 . S
Zn75 O76 2.028 . S
Zn75 O78 2.028 . S
Zn75 O81 2.035 . S
O76 Zn75 2.028 . S
O76 C82 1.247 . S
O77 Zn73 2.035 . S
O77 C82 1.258 . S
O78 C71 1.247 . S
O78 Zn75 2.028 . S
O79 C71 1.258 . S
O79 Zn73 2.035 . S
O80 Zn73 2.028 . S
O80 C83 1.247 . S
O81 Zn75 2.035 . S
O81 C83 1.258 . S
C82 O76 1.247 . S
C82 O77 1.258 . S
C83 O80 1.247 . S
C83 O81 1.258 . S
Mg84 O91 2.141 . S
Mg84 O92 2.048 . S
Mg84 O93 2.048 . S
Mg84 O96 2.141 . S
C85 O86 1.313 . S
C85 O92 1.195 . S
O86 C85 1.313 . S
C87 O88 1.245 . S
C87 O96 1.289 . S
O88 C87 1.245 . S
C89 O90 1.245 . S
C89 O91 1.289 . S
O90 C89 1.245 . S
O91 Mg84 2.141 . S
O91 C89 1.289 . S
O92 Mg84 2.048 . S
O92 C85 1.195 . S
O93 Mg84 2.048 . S
O93 C94 1.195 . S
C94 O93 1.195 . S
C94 O95 1.313 . S
O95 C94 1.313 . S
O96 Mg84 2.141 . S
O96 C87 1.289 . S
Mg97 O104 2.141 . S
Mg97 O105 2.048 . S
Mg97 O106 2.048 . S
Mg97 O109 2.141 . S
C98 O99 1.313 . S
C98 O105 1.195 . S
O99 C98 1.313 . S
C100 O101 1.245 . S
C100 O109 1.289 . S
O101 C100 1.245 . S
C102 O103 1.245 . S
C102 O104 1.289 . S
O103 C102 1.245 . S
O104 Mg97 2.141 . S
O104 C102 1.289 . S
O105 Mg97 2.048 . S
O105 C98 1.195 . S
O106 Mg97 2.048 . S
O106 C107 1.195 . S
C107 O106 1.195 . S
C107 O108 1.313 . S
O108 C107 1.313 . S
O109 Mg97 2.141 . S
O109 C100 1.289 . S
Mg110 O117 2.141 . S
Mg110 O118 2.048 . S
Mg110 O119 2.048 . S
Mg110 O122 2.141 . S
C111 O112 1.313 . S
C111 O118 1.195 . S
O112 C111 1.313 . S
C113 O114 1.245 . S
C113 O122 1.289 . S
O114 C113 1.245 . S
C115 O116 1.245 . S
C115 O117 1.289 . S
O116 C115 1.245 . S
O117 Mg110 2.141 . S
O117 C115 1.289 . S
O118 Mg110 2.048 . S
O118 C111 1.195 . S
O119 Mg110 2.048 . S
O119 C120 1.195 . S
C120 O119 1.195 . S
C120 O121 1.313 . S
O121 C120 1.313 . S
O122 Mg110 2.141 . S
O122 C113 1.289 . S
Mg123 O130 2.141 . S
Mg123 O131 2.048 . S
Mg123 O132 2.048 . S
Mg123 O135 2.141 . S
C124 O125 1.313 . S
C124 O131 1.195 . S
O125 C124 1.313 . S
C126 O127 1.245 . S
C126 O135 1.289 . S
O127 C126 1.245 . S
C128 O129 1.245 . S
C128 O130 1.289 . S
O129 C128 1.245 . S
O130 Mg123 2.141 . S
O130 C128 1.289 . S
O131 Mg123 2.048 . S
O131 C124 1.195 . S
O132 Mg123 2.048 . S
O132 C133 1.195 . S
C133 O132 1.195 . S
C133 O134 1.313 . S
O134 C133 1.313 . S
O135 Mg123 2.141 . S
O135 C126 1.289 . S
Mg136 O143 2.141 . S
Mg136 O144 2.048 . S
Mg136 O145 2.048 . S
Mg136 O148 2.141 . S
C137 O138 1.313 . S
C137 O144 1.195 . S
O138 C137 1.313 . S
C139 O140 1.245 . S
C139 O148 1.289 . S
O140 C139 1.245 . S
C141 O142 1.245 . S
C141 O143 1.289 . S
O142 C141 1.245 . S
O143 Mg136 2.141 . S
O143 C141 1.289 . S
O144 Mg136 2.048 . S
O144 C137 1.195 . S
O145 Mg136 2.048 . S
O145 C146 1.195 . S
C146 O145 1.195 . S
C146 O147 1.313 . S
O147 C146 1.313 . S
O148 Mg136 2.141 . S
O148 C139 1.289 . S
Mg149 O156 2.141 . S
Mg149 O157 2.048 . S
Mg149 O158 2.048 . S
Mg149 O161 2.141 . S
C150 O151 1.313 . S
C150 O157 1.195 . S
O151 C150 1.313 . S
C152 O153 1.245 . S
C152 O161 1.289 . S
O153 C152 1.245 . S
C154 O155 1.245 . S
C154 O156 1.289 . S
O155 C154 1.245 . S
O156 Mg149 2.141 . S
O156 C154 1.289 . S
O157 Mg149 2.048 . S
O157 C150 1.195 . S
O158 Mg149 2.048 . S
O158 C159 1.195 . S
C159 O158 1.195 . S
C159 O160 1.313 . S
O160 C159 1.313 . S
O161 Mg149 2.141 . S
O161 C152 1.289 . S
C162 C163 1.391 . S
C162 C164 1.394 . S
C162 H178 0.931 . S
C163 C162 1.391 . S
C163 C167 1.376 . S
C164 C162 1.394 . S
C164 C165 1.369 . S
C164 C168 1.531 . S
C165 C164 1.369 . S
C165 C166 1.410 . S
C165 C173 1.503 . S
C166 C165 1.410 . S
C166 C167 1.392 . S
C166 C169 1.511 . S
C167 C163 1.376 . S
C167 C166 1.392 . S
C167 H179 0.929 . S
C168 C164 1.531 . S
C168 H180 0.960 . S
C168 H181 0.962 . S
C168 H182 0.960 . S
C169 C166 1.511 . S
C169 H183 0.961 . S
C169 H184 0.961 . S
C169 H185 0.961 . S
C170 C171 1.370 . S
C170 C172 1.363 . S
C170 H186 0.931 . S
C171 C170 1.370 . S
C171 C175 1.408 . S
C172 C170 1.363 . S
C172 C173 1.370 . S
C172 C176 1.524 . S
C173 C165 1.503 . S
C173 C172 1.370 . S
C173 C174 1.403 . S
C174 C173 1.403 . S
C174 C175 1.404 . S
C174 C177 1.539 . S
C175 C171 1.408 . S
C175 C174 1.404 . S
C175 H187 0.930 . S
C176 C172 1.524 . S
C176 H188 0.956 . S
C176 H189 0.961 . S
C176 H190 0.961 . S
C177 C174 1.539 . S
C177 H191 0.958 . S
C177 H192 0.961 . S
C177 H193 0.960 . S
H178 C162 0.931 . S
H179 C167 0.929 . S
H180 C168 0.960 . S
H181 C168 0.962 . S
H182 C168 0.960 . S
H183 C169 0.961 . S
H184 C169 0.961 . S
H185 C169 0.961 . S
H186 C170 0.931 . S
H187 C175 0.930 . S
H188 C176 0.956 . S
H189 C176 0.961 . S
H190 C176 0.961 . S
H191 C177 0.958 . S
H192 C177 0.961 . S
H193 C177 0.960 . S
C194 C195 1.391 . S
C194 C196 1.394 . S
C194 H210 0.931 . S
C195 C194 1.391 . S
C195 C199 1.376 . S
C196 C194 1.394 . S
C196 C197 1.369 . S
C196 C200 1.531 . S
C197 C196 1.369 . S
C197 C198 1.410 . S
C197 C205 1.503 . S
C198 C197 1.410 . S
C198 C199 1.392 . S
C198 C201 1.511 . S
C199 C195 1.376 . S
C199 C198 1.392 . S
C199 H211 0.929 . S
C200 C196 1.531 . S
C200 H212 0.960 . S
C200 H213 0.962 . S
C200 H214 0.960 . S
C201 C198 1.511 . S
C201 H215 0.961 . S
C201 H216 0.961 . S
C201 H217 0.961 . S
C202 C203 1.370 . S
C202 C204 1.363 . S
C202 H218 0.931 . S
C203 C202 1.370 . S
C203 C207 1.408 . S
C204 C202 1.363 . S
C204 C205 1.370 . S
C204 C208 1.524 . S
C205 C197 1.503 . S
C205 C204 1.370 . S
C205 C206 1.403 . S
C206 C205 1.403 . S
C206 C207 1.404 . S
C206 C209 1.539 . S
C207 C203 1.408 . S
C207 C206 1.404 . S
C207 H219 0.930 . S
C208 C204 1.524 . S
C208 H220 0.956 . S
C208 H221 0.961 . S
C208 H222 0.961 . S
C209 C206 1.539 . S
C209 H223 0.958 . S
C209 H224 0.961 . S
C209 H225 0.960 . S
H210 C194 0.931 . S
H211 C199 0.929 . S
H212 C200 0.960 . S
H213 C200 0.962 . S
H214 C200 0.960 . S
H215 C201 0.961 . S
H216 C201 0.961 . S
H217 C201 0.961 . S
H218 C202 0.931 . S
H219 C207 0.930 . S
H220 C208 0.956 . S
H221 C208 0.961 . S
H222 C208 0.961 . S
H223 C209 0.958 . S
H224 C209 0.961 . S
H225 C209 0.960 . S
C226 C227 1.391 . S
C226 C228 1.394 . S
C226 H242 0.931 . S
C227 C226 1.391 . S
C227 C231 1.376 . S
C228 C226 1.394 . S
C228 C229 1.369 . S
C228 C232 1.531 . S
C229 C228 1.369 . S
C229 C230 1.410 . S
C229 C237 1.503 . S
C230 C229 1.410 . S
C230 C231 1.392 . S
C230 C233 1.511 . S
C231 C227 1.376 . S
C231 C230 1.392 . S
C231 H243 0.929 . S
C232 C228 1.531 . S
C232 H244 0.960 . S
C232 H245 0.962 . S
C232 H246 0.960 . S
C233 C230 1.511 . S
C233 H247 0.961 . S
C233 H248 0.961 . S
C233 H249 0.961 . S
C234 C235 1.370 . S
C234 C236 1.363 . S
C234 H250 0.931 . S
C235 C234 1.370 . S
C235 C239 1.408 . S
C236 C234 1.363 . S
C236 C237 1.370 . S
C236 C240 1.524 . S
C237 C229 1.503 . S
C237 C236 1.370 . S
C237 C238 1.403 . S
C238 C237 1.403 . S
C238 C239 1.404 . S
C238 C241 1.539 . S
C239 C235 1.408 . S
C239 C238 1.404 . S
C239 H251 0.930 . S
C240 C236 1.524 . S
C240 H252 0.956 . S
C240 H253 0.961 . S
C240 H254 0.961 . S
C241 C238 1.539 . S
C241 H255 0.958 . S
C241 H256 0.961 . S
C241 H257 0.960 . S
H242 C226 0.931 . S
H243 C231 0.929 . S
H244 C232 0.960 . S
H245 C232 0.962 . S
H246 C232 0.960 . S
H247 C233 0.961 . S
H248 C233 0.961 . S
H249 C233 0.961 . S
H250 C234 0.931 . S
H251 C239 0.930 . S
H252 C240 0.956 . S
H253 C240 0.961 . S
H254 C240 0.961 . S
H255 C241 0.958 . S
H256 C241 0.961 . S
H257 C241 0.960 . S
C258 C259 1.391 . S
C258 C260 1.394 . S
C258 H274 0.931 . S
C259 C258 1.391 . S
C259 C263 1.376 . S
C260 C258 1.394 . S
C260 C261 1.369 . S
C260 C264 1.531 . S
C261 C260 1.369 . S
C261 C262 1.410 . S
C261 C269 1.503 . S
C262 C261 1.410 . S
C262 C263 1.392 . S
C262 C265 1.511 . S
C263 C259 1.376 . S
C263 C262 1.392 . S
C263 H275 0.929 . S
C264 C260 1.531 . S
C264 H276 0.960 . S
C264 H277 0.962 . S
C264 H278 0.960 . S
C265 C262 1.511 . S
C265 H279 0.961 . S
C265 H280 0.961 . S
C265 H281 0.961 . S
C266 C267 1.370 . S
C266 C268 1.363 . S
C266 H282 0.931 . S
C267 C266 1.370 . S
C267 C271 1.408 . S
C268 C266 1.363 . S
C268 C269 1.370 . S
C268 C272 1.524 . S
C269 C261 1.503 . S
C269 C268 1.370 . S
C269 C270 1.403 . S
C270 C269 1.403 . S
C270 C271 1.404 . S
C270 C273 1.539 . S
C271 C267 1.408 . S
C271 C270 1.404 . S
C271 H283 0.930 . S
C272 C268 1.524 . S
C272 H284 0.956 . S
C272 H285 0.961 . S
C272 H286 0.961 . S
C273 C270 1.539 . S
C273 H287 0.958 . S
C273 H288 0.961 . S
C273 H289 0.960 . S
H274 C258 0.931 . S
H275 C263 0.929 . S
H276 C264 0.960 . S
H277 C264 0.962 . S
H278 C264 0.960 . S
H279 C265 0.961 . S
H280 C265 0.961 . S
H281 C265 0.961 . S
H282 C266 0.931 . S
H283 C271 0.930 . S
H284 C272 0.956 . S
H285 C272 0.961 . S
H286 C272 0.961 . S
H287 C273 0.958 . S
H288 C273 0.961 . S
H289 C273 0.960 . S
C290 C291 1.391 . S
C290 C292 1.394 . S
C290 H306 0.931 . S
C291 C290 1.391 . S
C291 C295 1.376 . S
C292 C290 1.394 . S
C292 C293 1.369 . S
C292 C296 1.531 . S
C293 C292 1.369 . S
C293 C294 1.410 . S
C293 C301 1.503 . S
C294 C293 1.410 . S
C294 C295 1.392 . S
C294 C297 1.511 . S
C295 C291 1.376 . S
C295 C294 1.392 . S
C295 H307 0.929 . S
C296 C292 1.531 . S
C296 H308 0.960 . S
C296 H309 0.962 . S
C296 H310 0.960 . S
C297 C294 1.511 . S
C297 H311 0.961 . S
C297 H312 0.961 . S
C297 H313 0.961 1_565 S
C298 C299 1.370 . S
C298 C300 1.363 . S
C298 H314 0.931 . S
C299 C298 1.370 . S
C299 C303 1.408 . S
C300 C298 1.363 . S
C300 C301 1.370 . S
C300 C304 1.524 . S
C301 C293 1.503 . S
C301 C300 1.370 . S
C301 C302 1.403 . S
C302 C301 1.403 . S
C302 C303 1.404 . S
C302 C305 1.539 . S
C303 C299 1.408 . S
C303 C302 1.404 . S
C303 H315 0.930 . S
C304 C300 1.524 . S
C304 H316 0.956 . S
C304 H317 0.961 . S
C304 H318 0.961 . S
C305 C302 1.539 . S
C305 H319 0.958 . S
C305 H320 0.961 . S
C305 H321 0.960 . S
H306 C290 0.931 . S
H307 C295 0.929 . S
H308 C296 0.960 . S
H309 C296 0.962 . S
H310 C296 0.960 . S
H311 C297 0.961 . S
H312 C297 0.961 . S
H313 C297 0.961 1_545 S
H314 C298 0.931 . S
H315 C303 0.930 . S
H316 C304 0.956 . S
H317 C304 0.961 . S
H318 C304 0.961 . S
H319 C305 0.958 . S
H320 C305 0.961 . S
H321 C305 0.960 . S
C322 C323 1.391 . S
C322 C324 1.394 . S
C322 H338 0.931 . S
C323 C322 1.391 . S
C323 C327 1.376 . S
C324 C322 1.394 . S
C324 C325 1.369 . S
C324 C328 1.531 . S
C325 C324 1.369 . S
C325 C326 1.410 . S
C325 C333 1.503 . S
C326 C325 1.410 . S
C326 C327 1.392 . S
C326 C329 1.511 . S
C327 C323 1.376 . S
C327 C326 1.392 . S
C327 H339 0.929 . S
C328 C324 1.531 . S
C328 H340 0.960 . S
C328 H341 0.962 . S
C328 H342 0.960 . S
C329 C326 1.511 . S
C329 H343 0.961 . S
C329 H344 0.961 . S
C329 H345 0.961 . S
C330 C331 1.370 . S
C330 C332 1.363 . S
C330 H346 0.931 . S
C331 C330 1.370 . S
C331 C335 1.408 . S
C332 C330 1.363 . S
C332 C333 1.370 . S
C332 C336 1.524 . S
C333 C325 1.503 . S
C333 C332 1.370 . S
C333 C334 1.403 . S
C334 C333 1.403 . S
C334 C335 1.404 . S
C334 C337 1.539 . S
C335 C331 1.408 . S
C335 C334 1.404 . S
C335 H347 0.930 . S
C336 C332 1.524 . S
C336 H348 0.956 . S
C336 H349 0.961 . S
C336 H350 0.961 . S
C337 C334 1.539 . S
C337 H351 0.958 . S
C337 H352 0.961 . S
C337 H353 0.960 . S
H338 C322 0.931 . S
H339 C327 0.929 . S
H340 C328 0.960 . S
H341 C328 0.962 . S
H342 C328 0.960 . S
H343 C329 0.961 . S
H344 C329 0.961 . S
H345 C329 0.961 . S
H346 C330 0.931 . S
H347 C335 0.930 . S
H348 C336 0.956 . S
H349 C336 0.961 . S
H350 C336 0.961 . S
H351 C337 0.958 . S
H352 C337 0.961 . S
H353 C337 0.960 . S
C354 C355 1.391 . S
C354 C356 1.394 . S
C354 H370 0.931 . S
C355 C354 1.391 . S
C355 C359 1.376 . S
C356 C354 1.394 . S
C356 C357 1.369 . S
C356 C360 1.531 . S
C357 C356 1.369 . S
C357 C358 1.410 . S
C357 C365 1.503 . S
C358 C357 1.410 . S
C358 C359 1.392 . S
C358 C361 1.511 . S
C359 C355 1.376 . S
C359 C358 1.392 . S
C359 H371 0.929 1_565 S
C360 C356 1.531 . S
C360 H372 0.960 . S
C360 H373 0.962 . S
C360 H374 0.960 . S
C361 C358 1.511 . S
C361 H375 0.959 1_565 S
C361 H376 0.965 . S
C361 H377 0.958 1_565 S
C362 C363 1.370 . S
C362 C364 1.363 . S
C362 H378 0.931 . S
C363 C362 1.370 . S
C363 C367 1.408 . S
C364 C362 1.363 . S
C364 C365 1.370 . S
C364 C368 1.524 . S
C365 C357 1.503 . S
C365 C364 1.370 . S
C365 C366 1.403 . S
C366 C365 1.403 . S
C366 C367 1.404 . S
C366 C369 1.539 . S
C367 C363 1.408 . S
C367 C366 1.404 . S
C367 H379 0.930 . S
C368 C364 1.524 . S
C368 H380 0.956 . S
C368 H381 0.961 . S
C368 H382 0.961 . S
C369 C366 1.539 . S
C369 H383 0.958 . S
C369 H384 0.961 . S
C369 H385 0.960 . S
H370 C354 0.931 . S
H371 C359 0.929 1_545 S
H372 C360 0.960 . S
H373 C360 0.962 . S
H374 C360 0.960 . S
H375 C361 0.959 1_545 S
H376 C361 0.965 . S
H377 C361 0.958 1_545 S
H378 C362 0.931 . S
H379 C367 0.930 . S
H380 C368 0.956 . S
H381 C368 0.961 . S
H382 C368 0.961 . S
H383 C369 0.958 . S
H384 C369 0.961 . S
H385 C369 0.960 . S
C386 C387 1.391 . S
C386 C388 1.394 . S
C386 H402 0.931 . S
C387 C386 1.391 . S
C387 C391 1.376 . S
C388 C386 1.394 . S
C388 C389 1.369 . S
C388 C392 1.531 . S
C389 C388 1.369 . S
C389 C390 1.410 . S
C389 C397 1.503 . S
C390 C389 1.410 . S
C390 C391 1.392 . S
C390 C393 1.511 . S
C391 C387 1.376 . S
C391 C390 1.392 . S
C391 H403 0.929 . S
C392 C388 1.531 . S
C392 H404 0.960 . S
C392 H405 0.962 . S
C392 H406 0.960 . S
C393 C390 1.511 . S
C393 H407 0.961 . S
C393 H408 0.961 . S
C393 H409 0.961 . S
C394 C395 1.370 . S
C394 C396 1.363 . S
C394 H410 0.931 . S
C395 C394 1.370 . S
C395 C399 1.408 . S
C396 C394 1.363 . S
C396 C397 1.370 . S
C396 C400 1.524 . S
C397 C389 1.503 . S
C397 C396 1.370 . S
C397 C398 1.403 . S
C398 C397 1.403 . S
C398 C399 1.404 . S
C398 C401 1.539 . S
C399 C395 1.408 . S
C399 C398 1.404 . S
C399 H411 0.930 . S
C400 C396 1.524 . S
C400 H412 0.956 . S
C400 H413 0.961 . S
C400 H414 0.961 . S
C401 C398 1.539 . S
C401 H415 0.958 . S
C401 H416 0.961 . S
C401 H417 0.960 . S
H402 C386 0.931 . S
H403 C391 0.929 . S
H404 C392 0.960 . S
H405 C392 0.962 . S
H406 C392 0.960 . S
H407 C393 0.961 . S
H408 C393 0.961 . S
H409 C393 0.961 . S
H410 C394 0.931 . S
H411 C399 0.930 . S
H412 C400 0.956 . S
H413 C400 0.961 . S
H414 C400 0.961 . S
H415 C401 0.958 . S
H416 C401 0.961 . S
H417 C401 0.960 . S
C418 C419 1.391 . S
C418 C420 1.394 . S
C418 H434 0.931 . S
C419 C418 1.391 . S
C419 C423 1.376 . S
C420 C418 1.394 . S
C420 C421 1.369 . S
C420 C424 1.531 . S
C421 C420 1.369 . S
C421 C422 1.410 . S
C421 C429 1.503 . S
C422 C421 1.410 . S
C422 C423 1.392 . S
C422 C425 1.511 . S
C423 C419 1.376 . S
C423 C422 1.392 . S
C423 H435 0.929 . S
C424 C420 1.531 . S
C424 H436 0.960 . S
C424 H437 0.962 . S
C424 H438 0.960 . S
C425 C422 1.511 . S
C425 H439 0.961 . S
C425 H440 0.961 . S
C425 H441 0.961 . S
C426 C427 1.370 . S
C426 C428 1.363 . S
C426 H442 0.931 . S
C427 C426 1.370 . S
C427 C431 1.408 . S
C428 C426 1.363 . S
C428 C429 1.370 . S
C428 C432 1.524 . S
C429 C421 1.503 . S
C429 C428 1.370 . S
C429 C430 1.403 . S
C430 C429 1.403 . S
C430 C431 1.404 . S
C430 C433 1.539 . S
C431 C427 1.408 . S
C431 C430 1.404 . S
C431 H443 0.930 . S
C432 C428 1.524 . S
C432 H444 0.956 . S
C432 H445 0.961 . S
C432 H446 0.961 . S
C433 C430 1.539 . S
C433 H447 0.958 . S
C433 H448 0.961 . S
C433 H449 0.960 . S
H434 C418 0.931 . S
H435 C423 0.929 . S
H436 C424 0.960 . S
H437 C424 0.962 . S
H438 C424 0.960 . S
H439 C425 0.961 . S
H440 C425 0.961 . S
H441 C425 0.961 . S
H442 C426 0.931 . S
H443 C431 0.930 . S
H444 C432 0.956 . S
H445 C432 0.961 . S
H446 C432 0.961 . S
H447 C433 0.958 . S
H448 C433 0.961 . S
H449 C433 0.960 . S
C450 C451 1.391 . S
C450 C452 1.394 . S
C450 H466 0.931 . S
C451 C450 1.391 . S
C451 C455 1.376 . S
C452 C450 1.394 . S
C452 C453 1.369 . S
C452 C456 1.531 . S
C453 C452 1.369 . S
C453 C454 1.410 . S
C453 C461 1.503 . S
C454 C453 1.410 . S
C454 C455 1.392 . S
C454 C457 1.511 . S
C455 C451 1.376 . S
C455 C454 1.392 . S
C455 H467 0.929 . S
C456 C452 1.531 . S
C456 H468 0.960 . S
C456 H469 0.962 . S
C456 H470 0.960 . S
C457 C454 1.511 . S
C457 H471 0.961 . S
C457 H472 0.961 . S
C457 H473 0.961 . S
C458 C459 1.370 . S
C458 C460 1.363 . S
C458 H474 0.931 . S
C459 C458 1.370 . S
C459 C463 1.408 . S
C460 C458 1.363 . S
C460 C461 1.370 . S
C460 C464 1.524 . S
C461 C453 1.503 . S
C461 C460 1.370 . S
C461 C462 1.403 . S
C462 C461 1.403 . S
C462 C463 1.404 . S
C462 C465 1.539 . S
C463 C459 1.408 . S
C463 C462 1.404 . S
C463 H475 0.930 . S
C464 C460 1.524 . S
C464 H476 0.956 . S
C464 H477 0.961 . S
C464 H478 0.961 . S
C465 C462 1.539 . S
C465 H479 0.958 . S
C465 H480 0.961 . S
C465 H481 0.960 . S
H466 C450 0.931 . S
H467 C455 0.929 . S
H468 C456 0.960 . S
H469 C456 0.962 . S
H470 C456 0.960 . S
H471 C457 0.961 . S
H472 C457 0.961 . S
H473 C457 0.961 . S
H474 C458 0.931 . S
H475 C463 0.930 . S
H476 C464 0.956 . S
H477 C464 0.961 . S
H478 C464 0.961 . S
H479 C465 0.958 . S
H480 C465 0.961 . S
H481 C465 0.960 . S
C482 C483 1.391 . S
C482 C484 1.394 . S
C482 H498 0.931 . S
C483 C482 1.391 . S
C483 C487 1.376 . S
C484 C482 1.394 . S
C484 C485 1.369 . S
C484 C488 1.531 . S
C485 C484 1.369 . S
C485 C486 1.410 . S
C485 C493 1.503 . S
C486 C485 1.410 . S
C486 C487 1.392 . S
C486 C489 1.511 . S
C487 C483 1.376 . S
C487 C486 1.392 . S
C487 H499 0.929 . S
C488 C484 1.531 . S
C488 H500 0.960 . S
C488 H501 0.962 . S
C488 H502 0.960 . S
C489 C486 1.511 . S
C489 H503 0.961 . S
C489 H504 0.961 . S
C489 H505 0.961 . S
C490 C491 1.370 . S
C490 C492 1.363 . S
C490 H506 0.931 . S
C491 C490 1.370 . S
C491 C495 1.408 . S
C492 C490 1.363 . S
C492 C493 1.370 . S
C492 C496 1.524 . S
C493 C485 1.503 . S
C493 C492 1.370 . S
C493 C494 1.403 . S
C494 C493 1.403 . S
C494 C495 1.404 . S
C494 C497 1.539 . S
C495 C491 1.408 . S
C495 C494 1.404 . S
C495 H507 0.930 . S
C496 C492 1.524 . S
C496 H508 0.956 . S
C496 H509 0.961 . S
C496 H510 0.961 . S
C497 C494 1.539 . S
C497 H511 0.958 . S
C497 H512 0.961 . S
C497 H513 0.960 . S
H498 C482 0.931 . S
H499 C487 0.929 . S
H500 C488 0.960 . S
H501 C488 0.962 . S
H502 C488 0.960 . S
H503 C489 0.961 . S
H504 C489 0.961 . S
H505 C489 0.961 . S
H506 C490 0.931 . S
H507 C495 0.930 . S
H508 C496 0.956 . S
H509 C496 0.961 . S
H510 C496 0.961 . S
H511 C497 0.958 . S
H512 C497 0.961 . S
H513 C497 0.960 . S
C514 C515 1.391 . S
C514 C516 1.394 . S
C514 H530 0.931 . S
C515 C514 1.391 . S
C515 C519 1.376 . S
C516 C514 1.394 . S
C516 C517 1.369 . S
C516 C520 1.531 . S
C517 C516 1.369 . S
C517 C518 1.410 . S
C517 C525 1.503 . S
C518 C517 1.410 . S
C518 C519 1.392 . S
C518 C521 1.511 . S
C519 C515 1.376 . S
C519 C518 1.392 . S
C519 H531 0.929 . S
C520 C516 1.531 . S
C520 H532 0.960 . S
C520 H533 0.962 . S
C520 H534 0.960 . S
C521 C518 1.511 . S
C521 H535 0.961 . S
C521 H536 0.961 . S
C521 H537 0.961 . S
C522 C523 1.370 . S
C522 C524 1.363 . S
C522 H538 0.931 . S
C523 C522 1.370 . S
C523 C527 1.408 . S
C524 C522 1.363 . S
C524 C525 1.370 . S
C524 C528 1.524 . S
C525 C517 1.503 . S
C525 C524 1.370 . S
C525 C526 1.403 . S
C526 C525 1.403 . S
C526 C527 1.404 . S
C526 C529 1.539 . S
C527 C523 1.408 . S
C527 C526 1.404 . S
C527 H539 0.930 . S
C528 C524 1.524 . S
C528 H540 0.956 . S
C528 H541 0.961 . S
C528 H542 0.961 . S
C529 C526 1.539 . S
C529 H543 0.958 . S
C529 H544 0.961 . S
C529 H545 0.960 . S
H530 C514 0.931 . S
H531 C519 0.929 . S
H532 C520 0.960 . S
H533 C520 0.962 . S
H534 C520 0.960 . S
H535 C521 0.961 . S
H536 C521 0.961 . S
H537 C521 0.961 . S
H538 C522 0.931 . S
H539 C527 0.930 . S
H540 C528 0.956 . S
H541 C528 0.961 . S
H542 C528 0.961 . S
H543 C529 0.958 . S
H544 C529 0.961 . S
H545 C529 0.960 . S
C546 C547 1.391 . S
C546 C548 1.394 . S
C546 H562 0.931 1_655 S
C547 C546 1.391 . S
C547 C551 1.376 . S
C548 C546 1.394 . S
C548 C549 1.369 . S
C548 C552 1.531 1_655 S
C549 C548 1.369 . S
C549 C550 1.410 . S
C549 C557 1.503 . S
C550 C549 1.410 . S
C550 C551 1.392 . S
C550 C553 1.511 . S
C551 C547 1.376 . S
C551 C550 1.392 . S
C551 H563 0.929 . S
C552 C548 1.531 1_455 S
C552 H564 0.960 1_455 S
C552 H565 0.962 . S
C552 H566 0.960 . S
C553 C550 1.511 . S
C553 H567 0.961 . S
C553 H568 0.961 . S
C553 H569 0.961 . S
C554 C555 1.370 . S
C554 C556 1.363 . S
C554 H570 0.931 . S
C555 C554 1.370 . S
C555 C559 1.408 . S
C556 C554 1.363 . S
C556 C557 1.370 . S
C556 C560 1.524 . S
C557 C549 1.503 . S
C557 C556 1.370 . S
C557 C558 1.403 . S
C558 C557 1.403 . S
C558 C559 1.404 . S
C558 C561 1.539 . S
C559 C555 1.408 . S
C559 C558 1.404 . S
C559 H571 0.930 . S
C560 C556 1.524 . S
C560 H572 0.956 . S
C560 H573 0.961 . S
C560 H574 0.961 . S
C561 C558 1.539 . S
C561 H575 0.958 . S
C561 H576 0.961 . S
C561 H577 0.960 . S
H562 C546 0.931 1_455 S
H563 C551 0.929 . S
H564 C552 0.960 1_655 S
H565 C552 0.962 . S
H566 C552 0.960 . S
H567 C553 0.961 . S
H568 C553 0.961 . S
H569 C553 0.961 . S
H570 C554 0.931 . S
H571 C559 0.930 . S
H572 C560 0.956 . S
H573 C560 0.961 . S
H574 C560 0.961 . S
H575 C561 0.958 . S
H576 C561 0.961 . S
H577 C561 0.960 . S
C578 C579 1.391 . S
C578 C580 1.394 . S
C578 H594 0.931 . S
C579 C578 1.391 . S
C579 C583 1.376 . S
C580 C578 1.394 . S
C580 C581 1.369 . S
C580 C584 1.531 . S
C581 C580 1.369 . S
C581 C582 1.410 . S
C581 C589 1.503 . S
C582 C581 1.410 . S
C582 C583 1.392 . S
C582 C585 1.511 . S
C583 C579 1.376 . S
C583 C582 1.392 . S
C583 H595 0.929 . S
C584 C580 1.531 . S
C584 H596 0.960 . S
C584 H597 0.962 . S
C584 H598 0.960 1_565 S
C585 C582 1.511 . S
C585 H599 0.961 . S
C585 H600 0.961 . S
C585 H601 0.961 . S
C586 C587 1.370 . S
C586 C588 1.363 . S
C586 H602 0.931 . S
C587 C586 1.370 . S
C587 C591 1.408 . S
C588 C586 1.363 . S
C588 C589 1.370 . S
C588 C592 1.524 . S
C589 C581 1.503 . S
C589 C588 1.370 . S
C589 C590 1.403 . S
C590 C589 1.403 . S
C590 C591 1.404 . S
C590 C593 1.539 . S
C591 C587 1.408 . S
C591 C590 1.404 . S
C591 H603 0.930 . S
C592 C588 1.524 . S
C592 H604 0.956 . S
C592 H605 0.961 . S
C592 H606 0.961 . S
C593 C590 1.539 . S
C593 H607 0.958 1_565 S
C593 H608 0.961 . S
C593 H609 0.960 . S
H594 C578 0.931 . S
H595 C583 0.929 . S
H596 C584 0.960 . S
H597 C584 0.962 . S
H598 C584 0.960 1_545 S
H599 C585 0.961 . S
H600 C585 0.961 . S
H601 C585 0.961 . S
H602 C586 0.931 . S
H603 C591 0.930 . S
H604 C592 0.956 . S
H605 C592 0.961 . S
H606 C592 0.961 . S
H607 C593 0.958 1_545 S
H608 C593 0.961 . S
H609 C593 0.960 . S
C610 C611 1.391 . S
C610 C612 1.394 . S
C610 H626 0.931 . S
C611 C610 1.391 . S
C611 C615 1.376 . S
C612 C610 1.394 . S
C612 C613 1.369 . S
C612 C616 1.531 . S
C613 C612 1.369 . S
C613 C614 1.410 . S
C613 C621 1.503 . S
C614 C613 1.410 . S
C614 C615 1.392 . S
C614 C617 1.511 . S
C615 C611 1.376 . S
C615 C614 1.392 . S
C615 H627 0.929 . S
C616 C612 1.531 . S
C616 H628 0.960 . S
C616 H629 0.962 . S
C616 H630 0.960 . S
C617 C614 1.511 . S
C617 H631 0.961 . S
C617 H632 0.961 . S
C617 H633 0.961 . S
C618 C619 1.370 . S
C618 C620 1.363 . S
C618 H634 0.931 . S
C619 C618 1.370 . S
C619 C623 1.408 . S
C620 C618 1.363 . S
C620 C621 1.370 . S
C620 C624 1.524 . S
C621 C613 1.503 . S
C621 C620 1.370 . S
C621 C622 1.403 . S
C622 C621 1.403 . S
C622 C623 1.404 . S
C622 C625 1.539 . S
C623 C619 1.408 . S
C623 C622 1.404 . S
C623 H635 0.930 . S
C624 C620 1.524 . S
C624 H636 0.956 . S
C624 H637 0.961 . S
C624 H638 0.961 . S
C625 C622 1.539 . S
C625 H639 0.958 . S
C625 H640 0.961 . S
C625 H641 0.960 . S
H626 C610 0.931 . S
H627 C615 0.929 . S
H628 C616 0.960 . S
H629 C616 0.962 . S
H630 C616 0.960 . S
H631 C617 0.961 . S
H632 C617 0.961 . S
H633 C617 0.961 . S
H634 C618 0.931 . S
H635 C623 0.930 . S
H636 C624 0.956 . S
H637 C624 0.961 . S
H638 C624 0.961 . S
H639 C625 0.958 . S
H640 C625 0.961 . S
H641 C625 0.960 . S
C642 C643 1.391 . S
C642 C644 1.394 . S
C642 H658 0.931 . S
C643 C642 1.391 . S
C643 C647 1.376 . S
C644 C642 1.394 . S
C644 C645 1.369 . S
C644 C648 1.531 . S
C645 C644 1.369 . S
C645 C646 1.410 . S
C645 C653 1.503 . S
C646 C645 1.410 . S
C646 C647 1.392 . S
C646 C649 1.511 . S
C647 C643 1.376 . S
C647 C646 1.392 . S
C647 H659 0.929 . S
C648 C644 1.531 . S
C648 H660 0.960 . S
C648 H661 0.962 . S
C648 H662 0.960 1_455 S
C649 C646 1.511 . S
C649 H663 0.961 . S
C649 H664 0.961 . S
C649 H665 0.961 . S
C650 C651 1.370 . S
C650 C652 1.363 . S
C650 H666 0.931 . S
C651 C650 1.370 . S
C651 C655 1.408 . S
C652 C650 1.363 . S
C652 C653 1.370 . S
C652 C656 1.524 . S
C653 C645 1.503 . S
C653 C652 1.370 . S
C653 C654 1.403 . S
C654 C653 1.403 . S
C654 C655 1.404 . S
C654 C657 1.539 . S
C655 C651 1.408 . S
C655 C654 1.404 . S
C655 H667 0.930 . S
C656 C652 1.524 . S
C656 H668 0.956 . S
C656 H669 0.961 . S
C656 H670 0.961 . S
C657 C654 1.539 . S
C657 H671 0.958 . S
C657 H672 0.961 . S
C657 H673 0.960 . S
H658 C642 0.931 . S
H659 C647 0.929 . S
H660 C648 0.960 . S
H661 C648 0.962 . S
H662 C648 0.960 1_655 S
H663 C649 0.961 . S
H664 C649 0.961 . S
H665 C649 0.961 . S
H666 C650 0.931 . S
H667 C655 0.930 . S
H668 C656 0.956 . S
H669 C656 0.961 . S
H670 C656 0.961 . S
H671 C657 0.958 . S
H672 C657 0.961 . S
H673 C657 0.960 . S
C674 C675 1.391 . S
C674 C676 1.394 . S
C674 H690 0.931 . S
C675 C674 1.391 . S
C675 C679 1.376 . S
C676 C674 1.394 . S
C676 C677 1.369 . S
C676 C680 1.531 . S
C677 C676 1.369 . S
C677 C678 1.410 . S
C677 C685 1.503 . S
C678 C677 1.410 . S
C678 C679 1.392 . S
C678 C681 1.511 . S
C679 C675 1.376 . S
C679 C678 1.392 . S
C679 H691 0.929 . S
C680 C676 1.531 . S
C680 H692 0.960 . S
C680 H693 0.962 . S
C680 H694 0.960 . S
C681 C678 1.511 . S
C681 H695 0.961 . S
C681 H696 0.961 . S
C681 H697 0.961 . S
C682 C683 1.370 . S
C682 C684 1.363 . S
C682 H698 0.931 . S
C683 C682 1.370 . S
C683 C687 1.408 . S
C684 C682 1.363 . S
C684 C685 1.370 . S
C684 C688 1.524 . S
C685 C677 1.503 . S
C685 C684 1.370 . S
C685 C686 1.403 . S
C686 C685 1.403 . S
C686 C687 1.404 . S
C686 C689 1.539 . S
C687 C683 1.408 . S
C687 C686 1.404 . S
C687 H699 0.930 . S
C688 C684 1.524 . S
C688 H700 0.956 . S
C688 H701 0.961 . S
C688 H702 0.961 . S
C689 C686 1.539 . S
C689 H703 0.958 . S
C689 H704 0.961 . S
C689 H705 0.960 . S
H690 C674 0.931 . S
H691 C679 0.929 . S
H692 C680 0.960 . S
H693 C680 0.962 . S
H694 C680 0.960 . S
H695 C681 0.961 . S
H696 C681 0.961 . S
H697 C681 0.961 . S
H698 C682 0.931 . S
H699 C687 0.930 . S
H700 C688 0.956 . S
H701 C688 0.961 . S
H702 C688 0.961 . S
H703 C689 0.958 . S
H704 C689 0.961 . S
H705 C689 0.960 . S
C706 C707 1.391 . S
C706 C708 1.394 . S
C706 H722 0.931 . S
C707 C706 1.391 . S
C707 C711 1.376 . S
C708 C706 1.394 . S
C708 C709 1.369 . S
C708 C712 1.531 . S
C709 C708 1.369 . S
C709 C710 1.410 . S
C709 C717 1.503 . S
C710 C709 1.410 . S
C710 C711 1.392 . S
C710 C713 1.511 . S
C711 C707 1.376 . S
C711 C710 1.392 . S
C711 H723 0.929 . S
C712 C708 1.531 . S
C712 H724 0.960 . S
C712 H725 0.962 . S
C712 H726 0.960 . S
C713 C710 1.511 . S
C713 H727 0.961 . S
C713 H728 0.961 . S
C713 H729 0.961 . S
C714 C715 1.370 . S
C714 C716 1.363 . S
C714 H730 0.931 . S
C715 C714 1.370 . S
C715 C719 1.408 . S
C716 C714 1.363 . S
C716 C717 1.370 . S
C716 C720 1.524 . S
C717 C709 1.503 . S
C717 C716 1.370 . S
C717 C718 1.403 . S
C718 C717 1.403 . S
C718 C719 1.404 . S
C718 C721 1.539 . S
C719 C715 1.408 . S
C719 C718 1.404 . S
C719 H731 0.930 . S
C720 C716 1.524 . S
C720 H732 0.956 . S
C720 H733 0.961 . S
C720 H734 0.961 . S
C721 C718 1.539 . S
C721 H735 0.958 . S
C721 H736 0.961 . S
C721 H737 0.960 . S
H722 C706 0.931 . S
H723 C711 0.929 . S
H724 C712 0.960 . S
H725 C712 0.962 . S
H726 C712 0.960 . S
H727 C713 0.961 . S
H728 C713 0.961 . S
H729 C713 0.961 . S
H730 C714 0.931 . S
H731 C719 0.930 . S
H732 C720 0.956 . S
H733 C720 0.961 . S
H734 C720 0.961 . S
H735 C721 0.958 . S
H736 C721 0.961 . S
H737 C721 0.960 . S
C738 C739 1.391 . S
C738 C740 1.394 . S
C738 H754 0.931 . S
C739 C738 1.391 . S
C739 C743 1.376 . S
C740 C738 1.394 . S
C740 C741 1.369 . S
C740 C744 1.531 . S
C741 C740 1.369 . S
C741 C742 1.410 . S
C741 C749 1.503 . S
C742 C741 1.410 . S
C742 C743 1.392 . S
C742 C745 1.511 . S
C743 C739 1.376 . S
C743 C742 1.392 . S
C743 H755 0.929 . S
C744 C740 1.531 . S
C744 H756 0.960 . S
C744 H757 0.962 . S
C744 H758 0.960 . S
C745 C742 1.511 . S
C745 H759 0.961 . S
C745 H760 0.961 . S
C745 H761 0.961 . S
C746 C747 1.370 . S
C746 C748 1.363 . S
C746 H762 0.931 . S
C747 C746 1.370 . S
C747 C751 1.408 . S
C748 C746 1.363 . S
C748 C749 1.370 . S
C748 C752 1.524 . S
C749 C741 1.503 . S
C749 C748 1.370 . S
C749 C750 1.403 . S
C750 C749 1.403 . S
C750 C751 1.404 . S
C750 C753 1.539 . S
C751 C747 1.408 . S
C751 C750 1.404 . S
C751 H763 0.930 . S
C752 C748 1.524 . S
C752 H764 0.956 . S
C752 H765 0.961 . S
C752 H766 0.961 . S
C753 C750 1.539 . S
C753 H767 0.958 . S
C753 H768 0.961 . S
C753 H769 0.960 . S
H754 C738 0.931 . S
H755 C743 0.929 . S
H756 C744 0.960 . S
H757 C744 0.962 . S
H758 C744 0.960 . S
H759 C745 0.961 . S
H760 C745 0.961 . S
H761 C745 0.961 . S
H762 C746 0.931 . S
H763 C751 0.930 . S
H764 C752 0.956 . S
H765 C752 0.961 . S
H766 C752 0.961 . S
H767 C753 0.958 . S
H768 C753 0.961 . S
H769 C753 0.960 . S
C770 C771 1.391 . S
C770 C772 1.394 . S
C770 H786 0.931 . S
C771 C770 1.391 . S
C771 C775 1.376 . S
C772 C770 1.394 . S
C772 C773 1.369 . S
C772 C776 1.531 . S
C773 C772 1.369 . S
C773 C774 1.410 . S
C773 C781 1.503 . S
C774 C773 1.410 . S
C774 C775 1.392 . S
C774 C777 1.511 . S
C775 C771 1.376 . S
C775 C774 1.392 . S
C775 H787 0.929 . S
C776 C772 1.531 . S
C776 H788 0.960 . S
C776 H789 0.962 . S
C776 H790 0.960 . S
C777 C774 1.511 . S
C777 H791 0.961 . S
C777 H792 0.961 . S
C777 H793 0.961 . S
C778 C779 1.370 . S
C778 C780 1.363 . S
C778 H794 0.931 . S
C779 C778 1.370 . S
C779 C783 1.408 . S
C780 C778 1.363 . S
C780 C781 1.370 . S
C780 C784 1.524 . S
C781 C773 1.503 . S
C781 C780 1.370 . S
C781 C782 1.403 . S
C782 C781 1.403 . S
C782 C783 1.404 . S
C782 C785 1.539 . S
C783 C779 1.408 . S
C783 C782 1.404 . S
C783 H795 0.930 . S
C784 C780 1.524 . S
C784 H796 0.956 . S
C784 H797 0.961 . S
C784 H798 0.961 . S
C785 C782 1.539 . S
C785 H799 0.958 . S
C785 H800 0.961 . S
C785 H801 0.960 . S
H786 C770 0.931 . S
H787 C775 0.929 . S
H788 C776 0.960 . S
H789 C776 0.962 . S
H790 C776 0.960 . S
H791 C777 0.961 . S
H792 C777 0.961 . S
H793 C777 0.961 . S
H794 C778 0.931 . S
H795 C783 0.930 . S
H796 C784 0.956 . S
H797 C784 0.961 . S
H798 C784 0.961 . S
H799 C785 0.958 . S
H800 C785 0.961 . S
H801 C785 0.960 . S
C802 C803 1.391 . S
C802 C804 1.394 . S
C802 H818 0.931 . S
C803 C802 1.391 . S
C803 C807 1.376 . S
C804 C802 1.394 . S
C804 C805 1.369 . S
C804 C808 1.531 . S
C805 C804 1.369 . S
C805 C806 1.410 . S
C805 C813 1.503 . S
C806 C805 1.410 . S
C806 C807 1.392 . S
C806 C809 1.511 . S
C807 C803 1.376 . S
C807 C806 1.392 . S
C807 H819 0.929 1_655 S
C808 C804 1.531 . S
C808 H820 0.960 . S
C808 H821 0.962 . S
C808 H822 0.960 . S
C809 C806 1.511 . S
C809 H823 0.961 1_655 S
C809 H824 0.961 . S
C809 H825 0.961 1_655 S
C810 C811 1.370 . S
C810 C812 1.363 . S
C810 H826 0.931 . S
C811 C810 1.370 . S
C811 C815 1.408 . S
C812 C810 1.363 . S
C812 C813 1.370 . S
C812 C816 1.524 . S
C813 C805 1.503 . S
C813 C812 1.370 . S
C813 C814 1.403 . S
C814 C813 1.403 . S
C814 C815 1.404 . S
C814 C817 1.539 . S
C815 C811 1.408 . S
C815 C814 1.404 . S
C815 H827 0.930 . S
C816 C812 1.524 . S
C816 H828 0.956 . S
C816 H829 0.961 . S
C816 H830 0.961 . S
C817 C814 1.539 . S
C817 H831 0.958 . S
C817 H832 0.961 . S
C817 H833 0.960 . S
H818 C802 0.931 . S
H819 C807 0.929 1_455 S
H820 C808 0.960 . S
H821 C808 0.962 . S
H822 C808 0.960 . S
H823 C809 0.961 1_455 S
H824 C809 0.961 . S
H825 C809 0.961 1_455 S
H826 C810 0.931 . S
H827 C815 0.930 . S
H828 C816 0.956 . S
H829 C816 0.961 . S
H830 C816 0.961 . S
H831 C817 0.958 . S
H832 C817 0.961 . S
H833 C817 0.960 . S
C834 C835 1.391 . S
C834 C836 1.394 . S
C834 H850 0.931 . S
C835 C834 1.391 . S
C835 C839 1.376 . S
C836 C834 1.394 . S
C836 C837 1.369 . S
C836 C840 1.531 . S
C837 C836 1.369 . S
C837 C838 1.410 . S
C837 C845 1.503 . S
C838 C837 1.410 . S
C838 C839 1.392 . S
C838 C841 1.511 . S
C839 C835 1.376 . S
C839 C838 1.392 . S
C839 H851 0.929 . S
C840 C836 1.531 . S
C840 H852 0.960 . S
C840 H853 0.962 . S
C840 H854 0.960 . S
C841 C838 1.511 . S
C841 H855 0.961 . S
C841 H856 0.961 . S
C841 H857 0.961 . S
C842 C843 1.370 . S
C842 C844 1.363 . S
C842 H858 0.931 . S
C843 C842 1.370 . S
C843 C847 1.408 . S
C844 C842 1.363 . S
C844 C845 1.370 . S
C844 C848 1.524 . S
C845 C837 1.503 . S
C845 C844 1.370 . S
C845 C846 1.403 . S
C846 C845 1.403 . S
C846 C847 1.404 . S
C846 C849 1.539 . S
C847 C843 1.408 . S
C847 C846 1.404 . S
C847 H859 0.930 . S
C848 C844 1.524 . S
C848 H860 0.956 . S
C848 H861 0.961 . S
C848 H862 0.961 . S
C849 C846 1.539 . S
C849 H863 0.958 . S
C849 H864 0.961 . S
C849 H865 0.960 . S
H850 C834 0.931 . S
H851 C839 0.929 . S
H852 C840 0.960 . S
H853 C840 0.962 . S
H854 C840 0.960 . S
H855 C841 0.961 . S
H856 C841 0.961 . S
H857 C841 0.961 . S
H858 C842 0.931 . S
H859 C847 0.930 . S
H860 C848 0.956 . S
H861 C848 0.961 . S
H862 C848 0.961 . S
H863 C849 0.958 . S
H864 C849 0.961 . S
H865 C849 0.960 . S
C866 C867 1.391 . S
C866 C868 1.394 . S
C866 H882 0.931 . S
C867 C866 1.391 . S
C867 C871 1.376 . S
C868 C866 1.394 . S
C868 C869 1.369 . S
C868 C872 1.531 . S
C869 C868 1.369 . S
C869 C870 1.410 . S
C869 C877 1.503 . S
C870 C869 1.410 . S
C870 C871 1.392 . S
C870 C873 1.511 . S
C871 C867 1.376 . S
C871 C870 1.392 . S
C871 H883 0.929 . S
C872 C868 1.531 . S
C872 H884 0.960 . S
C872 H885 0.962 . S
C872 H886 0.960 . S
C873 C870 1.511 . S
C873 H887 0.961 . S
C873 H888 0.961 . S
C873 H889 0.961 . S
C874 C875 1.370 . S
C874 C876 1.363 . S
C874 H890 0.931 . S
C875 C874 1.370 . S
C875 C879 1.408 . S
C876 C874 1.363 . S
C876 C877 1.370 . S
C876 C880 1.524 . S
C877 C869 1.503 . S
C877 C876 1.370 . S
C877 C878 1.403 . S
C878 C877 1.403 . S
C878 C879 1.404 . S
C878 C881 1.539 . S
C879 C875 1.408 . S
C879 C878 1.404 . S
C879 H891 0.930 . S
C880 C876 1.524 . S
C880 H892 0.956 . S
C880 H893 0.961 . S
C880 H894 0.961 . S
C881 C878 1.539 . S
C881 H895 0.958 . S
C881 H896 0.961 . S
C881 H897 0.960 . S
H882 C866 0.931 . S
H883 C871 0.929 . S
H884 C872 0.960 . S
H885 C872 0.962 . S
H886 C872 0.960 . S
H887 C873 0.961 . S
H888 C873 0.961 . S
H889 C873 0.961 . S
H890 C874 0.931 . S
H891 C879 0.930 . S
H892 C880 0.956 . S
H893 C880 0.961 . S
H894 C880 0.961 . S
H895 C881 0.958 . S
H896 C881 0.961 . S
H897 C881 0.960 . S
C898 C899 1.391 . S
C898 C900 1.394 . S
C898 H914 0.931 . S
C899 C898 1.391 . S
C899 C903 1.376 . S
C900 C898 1.394 . S
C900 C901 1.369 . S
C900 C904 1.531 . S
C901 C900 1.369 . S
C901 C902 1.410 . S
C901 C909 1.503 . S
C902 C901 1.410 . S
C902 C903 1.392 . S
C902 C905 1.511 . S
C903 C899 1.376 . S
C903 C902 1.392 . S
C903 H915 0.929 . S
C904 C900 1.531 . S
C904 H916 0.960 . S
C904 H917 0.962 . S
C904 H918 0.960 . S
C905 C902 1.511 . S
C905 H919 0.961 . S
C905 H920 0.961 . S
C905 H921 0.961 . S
C906 C907 1.370 . S
C906 C908 1.363 . S
C906 H922 0.931 . S
C907 C906 1.370 . S
C907 C911 1.408 . S
C908 C906 1.363 . S
C908 C909 1.370 . S
C908 C912 1.524 . S
C909 C901 1.503 . S
C909 C908 1.370 . S
C909 C910 1.403 . S
C910 C909 1.403 . S
C910 C911 1.404 . S
C910 C913 1.539 . S
C911 C907 1.408 . S
C911 C910 1.404 . S
C911 H923 0.930 . S
C912 C908 1.524 . S
C912 H924 0.956 . S
C912 H925 0.961 . S
C912 H926 0.961 . S
C913 C910 1.539 . S
C913 H927 0.958 . S
C913 H928 0.961 . S
C913 H929 0.960 . S
H914 C898 0.931 . S
H915 C903 0.929 . S
H916 C904 0.960 . S
H917 C904 0.962 . S
H918 C904 0.960 . S
H919 C905 0.961 . S
H920 C905 0.961 . S
H921 C905 0.961 . S
H922 C906 0.931 . S
H923 C911 0.930 . S
H924 C912 0.956 . S
H925 C912 0.961 . S
H926 C912 0.961 . S
H927 C913 0.958 . S
H928 C913 0.961 . S
H929 C913 0.960 . S
C163 C13 1.688 . S
C171 C85 1.669 . S
C195 C27 1.673 . S
C203 C98 1.681 . S
C235 C120 1.614 . S
C227 C29 1.679 . S
C267 C133 1.623 . S
C259 C54 1.673 . S
C299 C146 1.614 . S
C291 C69 1.680 . S
C331 C159 1.620 . S
C323 C83 1.672 . S
C355 C15 1.677 . S
C363 C115 1.592 . S
C387 C41 1.672 . S
C395 C128 1.591 . S
C427 C141 1.586 . S
C419 C42 1.674 . S
C459 C154 1.577 . S
C451 C57 1.682 . S
C483 C71 1.682 . S
C491 C87 1.672 . S
C523 C100 1.675 . S
C515 C1 1.674 . S
C555 C126 1.580 . S
C547 C12 1.681 . S
C579 C26 1.674 . S
C587 C139 1.594 . S
C619 C152 1.591 . S
C611 C28 1.676 . S
C643 C55 1.682 . S
C651 C89 1.672 . S
C675 C68 1.680 . S
C683 C102 1.673 . S
C707 C82 1.678 . S
C715 C113 1.584 . S
C739 C14 1.686 . S
C747 C150 1.600 . S
C779 C94 1.678 . S
C771 C40 1.675 . S
C803 C43 1.674 . S
C811 C107 1.680 . S
C835 C56 1.671 . S
C843 C111 1.623 . S
C867 C70 1.688 . S
C875 C124 1.598 . S
C899 C0 1.678 . S
C907 C137 1.616 . S
