# Generated by pormake.
# Topology scu, (8,4)-cn, num edge types: 1
# Building blocks:
#     Node 0, Type 0, BuildingBlock: VETTIZ_charged_sbu_0, # of connection points: 8
#     Node 1, Type 1, BuildingBlock: ESEHIV_clean_sbu_0, # of connection points: 4
#     Node 2, Type 1, BuildingBlock: ESEHIV_clean_sbu_0, # of connection points: 4
#     Edge 3, Type (0, 1), BuildingBlock: TEMPAE_clean_linker_10, # of connection points: 2
#     Edge 4, Type (0, 1), BuildingBlock: TEMPAE_clean_linker_10, # of connection points: 2
#     Edge 5, Type (0, 1), BuildingBlock: TEMPAE_clean_linker_10, # of connection points: 2
#     Edge 6, Type (0, 1), BuildingBlock: TEMPAE_clean_linker_10, # of connection points: 2
#     Edge 7, Type (0, 1), BuildingBlock: TEMPAE_clean_linker_10, # of connection points: 2
#     Edge 8, Type (0, 1), BuildingBlock: TEMPAE_clean_linker_10, # of connection points: 2
#     Edge 9, Type (0, 1), BuildingBlock: TEMPAE_clean_linker_10, # of connection points: 2
#     Edge 10, Type (0, 1), BuildingBlock: TEMPAE_clean_linker_10, # of connection points: 2
# Relax obj value: 0.003
# Max RMSD: 0.097
# Mean RMSD: 0.074
data_MOF--net-scu--node1-VETTIZ_charged_sbu_0--node2-ESEHIV_clean_sbu_0--edge1-TEMPAE_clean_linker_10
_symmetry_space_group_name_H-M    P1
_symmetry_Int_Tables_number       1
_symmetry_cell_setting            triclinic
loop_
_symmetry_equiv_pos_as_xyz
'x, y, z'
_cell_length_a     26.995894
_cell_length_b     26.928031
_cell_length_c     19.095066
_cell_angle_alpha  93.195388
_cell_angle_beta   93.107352
_cell_angle_gamma 91.472232
loop_
_atom_site_label
_atom_site_type_symbol
_atom_site_fract_x
_atom_site_fract_y
_atom_site_fract_z
_atom_type_partial_charge
Fe0 Fe 0.03621 0.04421 0.19756 0.0
O1 O 0.0283 0.04019 0.09474 0.0
Fe2 Fe 0.04737 0.97387 0.04073 0.0
Fe3 Fe 0.96416 0.05158 0.0414 0.0
O4 O 0.03196 0.03685 0.09466 0.0
O5 O 0.98302 0.98486 0.98816 0.0
O6 O 0.97924 0.9881 0.9884 0.0
Fe7 Fe 0.97556 0.98038 0.88525 0.0
C8 C 0.92303 0.02404 0.17562 0.0
O9 O 0.02676 0.11907 0.18274 0.0
O10 O 0.95784 0.11749 0.10503 0.0
O11 O 0.05102 0.98376 0.87103 0.0
O12 O 0.08594 0.0149 0.97286 0.0
O13 O 0.11361 0.97128 0.10393 0.0
O14 O 0.1111 0.03975 0.18199 0.0
O15 O 1.00225 0.09292 0.97344 0.0
O16 O 0.97448 0.05587 0.87103 0.0
C17 C 0.13402 1.00326 0.1515 0.0
O18 O 0.98398 0.90594 0.90095 0.0
O19 O 0.05393 0.90802 0.9767 0.0
O20 O 0.96109 0.04204 0.21151 0.0
O21 O 0.92392 0.01286 0.11006 0.0
C22 C 0.98883 0.13977 0.15231 0.0
C23 C 0.9962 0.09223 0.90688 0.0
C24 C 0.87744 0.01949 0.93309 0.0
O25 O 0.89775 0.05372 0.97756 0.0
O26 O 0.90093 0.98417 0.90118 0.0
C27 C 0.08607 1.00786 0.90645 0.0
O28 O 1.01122 0.93103 0.10882 0.0
O29 O 0.0388 0.96851 0.21082 0.0
C30 C 0.02129 0.88524 0.9323 0.0
C31 C 0.02267 0.92984 0.17419 0.0
Cu32 Cu 0.03164 0.50344 0.53275 0.0
N33 N 0.07037 0.45504 0.57336 0.0
N34 N 0.08471 0.38698 0.63273 0.0
C35 C 0.05068 0.41947 0.61092 0.0
C36 C 0.12788 0.4032 0.60799 0.0
C37 C 0.11888 0.44519 0.57116 0.0
O38 O 0.97943 0.46407 0.47905 0.0
C39 C 0.0377 0.559 0.66148 0.0
O40 O 0.07937 0.53528 0.66897 0.0
H41 H 0.01183 0.41789 0.62207 0.0
H42 H 0.14565 0.46659 0.54432 0.0
N43 N 0.0655 0.54279 0.47236 0.0
N44 N 0.0759 0.60606 0.40293 0.0
C45 C 0.0509 0.58834 0.456 0.0
C46 C 0.10149 0.53124 0.4287 0.0
C47 C 0.10824 0.57045 0.38604 0.0
C48 C 0.96912 0.46746 0.41358 0.0
O49 O 0.9844 0.5071 0.38302 0.0
H50 H 0.02085 0.60706 0.48072 0.0
H51 H 0.11951 0.49586 0.42533 0.0
O52 O 1.00909 0.54896 0.60683 0.0
H53 H 0.16323 0.3855 0.61456 0.0
H54 H 0.13295 0.57138 0.34332 0.0
Cu55 Cu 0.50141 0.04405 0.54424 0.0
N56 N 0.45311 0.08377 0.58251 0.0
N57 N 0.38416 0.09793 0.63977 0.0
C58 C 0.42221 0.06721 0.6295 0.0
C59 C 0.39207 0.13588 0.59783 0.0
C60 C 0.43452 0.12685 0.56219 0.0
O61 O 0.46511 0.99722 0.47749 0.0
C62 C 0.57629 0.99135 0.61454 0.0
O63 O 0.58771 0.97692 0.55074 0.0
H64 H 0.42672 0.03196 0.65325 0.0
H65 H 0.449 0.14851 0.52145 0.0
N66 N 0.54928 0.07921 0.49793 0.0
N67 N 0.61492 0.08896 0.43266 0.0
C68 C 0.5777 0.05816 0.44937 0.0
C69 C 0.56874 0.12534 0.51238 0.0
C70 C 0.60916 0.13157 0.47191 0.0
C71 C 0.45452 1.01245 0.41657 0.0
O72 O 0.47148 0.05639 0.40105 0.0
H73 H 0.57183 0.02019 0.42844 0.0
H74 H 0.5561 0.15153 0.5521 0.0
O75 O 0.53684 0.01529 0.62257 0.0
H76 H 0.36745 0.16642 0.59007 0.0
H77 H 0.63396 0.16391 0.47437 0.0
C78 C 0.01721 0.22201 0.20928 0.0
C79 C 0.97846 0.19117 0.17841 0.0
C80 C 1.00784 0.2683 0.24249 0.0
C81 C 0.95834 0.28418 0.24568 0.0
C82 C 0.91909 0.25403 0.21257 0.0
C83 C 0.92965 0.20793 0.17894 0.0
C84 C 0.05095 0.2995 0.27624 0.0
C85 C 0.86584 0.26942 0.21522 0.0
C86 C 0.9465 0.37636 0.40077 0.0
C87 C 0.9534 0.42186 0.36963 0.0
C88 C 0.94396 0.33115 0.3601 0.0
C89 C 0.94842 0.33139 0.28653 0.0
C90 C 0.95075 0.37736 0.25415 0.0
C91 C 0.95308 0.42204 0.29606 0.0
C92 C 0.9407 0.283 0.39672 0.0
C93 C 0.95508 0.37936 0.17587 0.0
H94 H 0.05505 0.20949 0.20863 0.0
H95 H 0.89943 0.18407 0.15584 0.0
H96 H 0.05069 0.33739 0.25619 0.0
H97 H 0.04739 0.30356 0.33388 0.0
H98 H 0.08733 0.28294 0.26614 0.0
H99 H 0.8403 0.24466 0.1806 0.0
H100 H 0.85405 0.26823 0.26988 0.0
H101 H 0.86201 0.30824 0.19952 0.0
H102 H 0.94621 0.37569 0.45746 0.0
H103 H 0.9579 0.45694 0.27123 0.0
H104 H 0.97724 0.26502 0.39682 0.0
H105 H 0.91315 0.25679 0.36843 0.0
H106 H 0.93032 0.289 0.45201 0.0
H107 H 0.99289 0.36847 0.1622 0.0
H108 H 0.9486 0.41722 0.15759 0.0
H109 H 0.92828 0.35271 0.14688 0.0
C110 C 0.82971 0.02154 0.16985 0.0
C111 C 0.87498 0.02372 0.20991 0.0
C112 C 0.7846 0.02947 0.2018 0.0
C113 C 0.78484 0.03971 0.27543 0.0
C114 C 0.83013 0.03967 0.31634 0.0
C115 C 0.87451 0.03162 0.28317 0.0
C116 C 0.73698 0.02876 0.15648 0.0
C117 C 0.83204 0.05004 0.39505 0.0
C118 C 0.68316 0.11381 0.35906 0.0
C119 C 0.65552 0.07646 0.38908 0.0
C120 C 0.72436 0.10221 0.31985 0.0
C121 C 0.73821 0.05199 0.31013 0.0
C122 C 0.70969 0.01399 0.33848 0.0
C123 C 0.66895 0.02666 0.37779 0.0
C124 C 0.75394 0.14384 0.29052 0.0
C125 C 0.72325 0.96003 0.32947 0.0
H126 H 0.82964 0.0157 0.1132 0.0
H127 H 0.9092 0.03307 0.3147 0.0
H128 H 0.70896 1.00341 0.17721 0.0
H129 H 0.72145 0.06652 0.15787 0.0
H130 H 0.7426 0.01672 0.10093 0.0
H131 H 0.86995 0.04651 0.41959 0.0
H132 H 0.81951 0.0883 0.40749 0.0
H133 H 0.80648 0.024 0.4194 0.0
H134 H 0.67279 0.15223 0.3666 0.0
H135 H 0.64867 0.99741 0.4015 0.0
H136 H 0.75767 0.13634 0.23336 0.0
H137 H 0.79196 0.14601 0.31591 0.0
H138 H 0.73667 0.18054 0.29903 0.0
H139 H 0.72803 0.94954 0.27328 0.0
H140 H 0.69477 0.9346 0.34916 0.0
H141 H 0.75919 0.95431 0.35848 0.0
C142 C 0.03641 0.87889 0.27904 0.0
C143 C 0.02363 0.88103 0.20701 0.0
C144 C 0.04329 0.83322 0.3097 0.0
C145 C 0.03719 0.78833 0.2675 0.0
C146 C 0.02284 0.79001 0.1952 0.0
C147 C 0.01619 0.8363 0.16583 0.0
C148 C 0.05835 0.83311 0.38705 0.0
C149 C 0.01574 0.74299 0.14845 0.0
C150 C 0.10406 0.6761 0.33499 0.0
C151 C 0.06606 0.65098 0.36717 0.0
C152 C 0.09501 0.72037 0.30126 0.0
C153 C 0.04669 0.73984 0.29924 0.0
C154 C 1.00798 0.71411 0.33038 0.0
C155 C 0.01813 0.67012 0.36398 0.0
C156 C 0.13738 0.74686 0.269 0.0
C157 C 0.9559 0.73336 0.32896 0.0
H158 H 0.04219 0.91309 0.31148 0.0
H159 H 1.00653 0.83739 0.11009 0.0
H160 H 0.0316 0.80997 0.41413 0.0
H161 H 0.09528 0.81636 0.39417 0.0
H162 H 0.06023 0.87113 0.41298 0.0
H163 H 1.00252 0.75051 0.09402 0.0
H164 H 0.05135 0.72345 0.14624 0.0
H165 H 0.98859 0.71734 0.17047 0.0
H166 H 0.14116 0.66168 0.33753 0.0
H167 H 0.98826 0.65043 0.38725 0.0
H168 H 0.1442 0.78418 0.29595 0.0
H169 H 0.12766 0.75258 0.21289 0.0
H170 H 0.17227 0.72594 0.27267 0.0
H171 H 0.95584 0.77035 0.35763 0.0
H172 H 0.92954 0.70796 0.35318 0.0
H173 H 0.94228 0.73838 0.27402 0.0
C174 C 0.21139 0.03385 0.21935 0.0
C175 C 0.18581 0.99569 0.1781 0.0
C176 C 0.25773 0.02611 0.25275 0.0
C177 C 0.27958 0.97903 0.24452 0.0
C178 C 0.255 0.94077 0.20089 0.0
C179 C 0.20826 0.94952 0.1682 0.0
C180 C 0.2828 0.06824 0.29826 0.0
C181 C 0.27723 0.89023 0.19051 0.0
C182 C 0.41547 0.9955 0.29688 0.0
C183 C 0.41539 0.98785 0.36889 0.0
C184 C 0.37239 0.98686 0.2531 0.0
C185 C 0.32808 0.97105 0.28251 0.0
C186 C 0.32936 0.95787 0.35345 0.0
C187 C 0.3733 0.9662 0.39594 0.0
C188 C 0.37306 1.00016 0.17739 0.0
C189 C 0.28302 0.94048 0.38671 0.0
H190 H 0.1947 0.0698 0.22688 0.0
H191 H 0.18869 0.91966 0.13681 0.0
H192 H 0.28863 0.05688 0.353 0.0
H193 H 0.31981 0.07723 0.27892 0.0
H194 H 0.26081 0.10255 0.29902 0.0
H195 H 0.25701 0.86696 0.14774 0.0
H196 H 0.3168 0.89393 0.17819 0.0
H197 H 0.27586 0.87047 0.23985 0.0
H198 H 0.44827 1.01172 0.27573 0.0
H199 H 0.37311 0.96031 0.45164 0.0
H200 H 0.35651 0.03713 0.17182 0.0
H201 H 0.35064 0.97276 0.1426 0.0
H202 H 0.41144 1.00197 0.15921 0.0
H203 H 0.25927 0.97282 0.39711 0.0
H204 H 0.29176 0.92323 0.43727 0.0
H205 H 0.26125 0.91324 0.3509 0.0
C206 C 0.06702 0.8198 0.86855 0.0
C207 C 0.02808 0.83277 0.91068 0.0
C208 C 0.06754 0.77254 0.83349 0.0
C209 C 0.02862 0.73737 0.8421 0.0
C210 C 0.99097 0.74946 0.88847 0.0
C211 C 0.99071 0.79741 0.92131 0.0
C212 C 0.10808 0.76137 0.78398 0.0
C213 C 0.94968 0.71265 0.90078 0.0
C214 C 1.00117 0.64186 0.68956 0.0
C215 C 0.02888 0.60162 0.71122 0.0
C216 C 0.99971 0.68588 0.73252 0.0
C217 C 0.02584 0.68931 0.79918 0.0
C218 C 0.05147 0.6477 0.82287 0.0
C219 C 0.05307 0.60456 0.77834 0.0
C220 C 0.97221 0.72956 0.70513 0.0
C221 C 0.07873 0.64939 0.89417 0.0
H222 H 0.09532 0.84768 0.85947 0.0
H223 H 0.96038 0.80789 0.95358 0.0
H224 H 0.12623 0.7263 0.79694 0.0
H225 H 0.09173 0.75603 0.72939 0.0
H226 H 0.13687 0.79173 0.78582 0.0
H227 H 0.92733 0.72535 0.94522 0.0
H228 H 0.92467 0.70741 0.85275 0.0
H229 H 0.96494 0.67586 0.91184 0.0
H230 H 0.98275 0.63994 0.63756 0.0
H231 H 0.07432 0.57341 0.79553 0.0
H232 H 0.99881 0.76097 0.69929 0.0
H233 H 0.94501 0.74259 0.74309 0.0
H234 H 0.95219 0.72028 0.6535 0.0
H235 H 0.11096 0.67586 0.89508 0.0
H236 H 0.09244 0.61237 0.90764 0.0
H237 H 0.05417 0.663 0.93543 0.0
C238 C 0.12522 0.02992 0.79586 0.0
C239 C 0.12895 0.02673 0.86908 0.0
C240 C 0.16582 0.04602 0.75919 0.0
C241 C 0.21161 0.05863 0.79639 0.0
C242 C 0.21528 0.05681 0.87051 0.0
C243 C 0.17385 0.04119 0.90601 0.0
C244 C 0.16003 0.04827 0.68034 0.0
C245 C 0.26348 0.06976 0.9121 0.0
C246 C 0.32795 0.03991 0.69592 0.0
C247 C 0.34131 0.08867 0.6802 0.0
C248 C 0.28632 0.02993 0.73427 0.0
C249 C 0.25662 0.06953 0.75721 0.0
C250 C 0.26959 0.11885 0.7416 0.0
C251 C 0.3118 0.12784 0.70342 0.0
C252 C 0.27377 0.97673 0.74953 0.0
C253 C 0.23849 0.162 0.76434 0.0
H254 H 0.09052 0.01952 0.76692 0.0
H255 H 0.17709 0.03903 0.96259 0.0
H256 H 0.17056 0.08603 0.66482 0.0
H257 H 0.18529 0.02177 0.65498 0.0
H258 H 0.12144 0.0391 0.65958 0.0
H259 H 0.25944 0.06954 0.96968 0.0
H260 H 0.29189 0.04259 0.89742 0.0
H261 H 0.2776 0.10708 0.89944 0.0
H262 H 0.34941 1.00904 0.67714 0.0
H263 H 0.32178 0.16563 0.69207 0.0
H264 H 0.23675 0.96549 0.72478 0.0
H265 H 0.27182 0.97337 0.80697 0.0
H266 H 0.30143 0.95031 0.72974 0.0
H267 H 0.20122 0.15804 0.73686 0.0
H268 H 0.25541 0.19843 0.75257 0.0
H269 H 0.2331 0.162 0.82153 0.0
C270 C 0.02945 0.12806 0.80056 0.0
C271 C 0.01442 0.13517 0.86947 0.0
C272 C 0.04594 0.16831 0.76345 0.0
C273 C 0.04591 0.2171 0.79518 0.0
C274 C 0.03192 0.22437 0.8654 0.0
C275 C 0.01691 0.1832 0.90205 0.0
C276 C 0.06293 0.1587 0.69001 0.0
C277 C 0.03137 0.27578 0.90105 0.0
C278 C 0.11432 0.32295 0.7126 0.0
C279 C 0.07576 0.34374 0.67254 0.0
C280 C 0.10549 0.28144 0.75234 0.0
C281 C 0.05677 0.26067 0.75299 0.0
C282 C 0.01781 0.28132 0.71252 0.0
C283 C 0.02784 0.32212 0.67247 0.0
C284 C 0.14823 0.2608 0.79475 0.0
C285 C 0.9653 0.26035 0.71162 0.0
H286 H 0.02853 0.09086 0.77566 0.0
H287 H 1.00558 0.1888 0.95547 0.0
H288 H 0.03846 0.17764 0.65197 0.0
H289 H 0.10112 0.17435 0.68664 0.0
H290 H 0.06273 0.11838 0.67405 0.0
H291 H 0.02095 0.27503 0.95649 0.0
H292 H 0.06848 0.2943 0.90005 0.0
H293 H 1.00455 0.29881 0.8721 0.0
H294 H 0.15135 0.3395 0.71385 0.0
H295 H 0.99788 0.33682 0.64064 0.0
H296 H 0.14513 0.21968 0.79535 0.0
H297 H 0.14788 0.27611 0.84985 0.0
H298 H 0.18452 0.27126 0.77412 0.0
H299 H 0.96403 0.22103 0.69074 0.0
H300 H 0.93893 0.28157 0.67897 0.0
H301 H 0.95252 0.2608 0.76591 0.0
C302 C 0.79471 0.97794 0.91377 0.0
C303 C 0.82431 0.02131 0.91223 0.0
C304 C 0.74853 0.97313 0.87634 0.0
C305 C 0.73232 1.01222 0.83498 0.0
C306 C 0.76036 0.05767 0.8379 0.0
C307 C 0.80607 0.06181 0.87709 0.0
C308 C 0.71936 0.92454 0.87621 0.0
C309 C 0.7445 0.1002 0.79441 0.0
C310 C 0.66253 0.97613 0.66091 0.0
C311 C 0.61409 0.99028 0.67384 0.0
C312 C 0.70098 0.98246 0.71332 0.0
C313 C 0.69075 1.00283 0.78086 0.0
C314 C 0.6415 0.01491 0.79543 0.0
C315 C 0.60377 1.00877 0.74162 0.0
C316 C 0.753 0.96897 0.6955 0.0
C317 C 0.62898 0.03578 0.86712 0.0
H318 H 0.80908 0.94659 0.94097 0.0
H319 H 0.82938 0.09506 0.87523 0.0
H320 H 0.67918 0.9312 0.87998 0.0
H321 H 0.72398 0.90269 0.8261 0.0
H322 H 0.73207 0.90184 0.92022 0.0
H323 H 0.7665 0.13495 0.80955 0.0
H324 H 0.74953 0.09012 0.73814 0.0
H325 H 0.70461 0.10751 0.79984 0.0
H326 H 0.67101 0.96192 0.60882 0.0
H327 H 0.56644 0.01976 0.7522 0.0
H328 H 0.76772 0.94147 0.73183 0.0
H329 H 0.77789 1.00254 0.7022 0.0
H330 H 0.75463 0.95307 0.64075 0.0
H331 H 0.64412 1.01216 0.90852 0.0
H332 H 0.58831 0.0386 0.872 0.0
H333 H 0.64642 0.07342 0.87722 0.0
loop_
_geom_bond_atom_site_label_1
_geom_bond_atom_site_label_2
_geom_bond_distance
_geom_bond_site_symmetry_2
_ccdc_geom_bond_type
Fe0 O1 1.886 1_455 S
Fe0 O4 1.715 1_545 S
Fe0 O9 2.077 . S
Fe0 O14 1.935 . S
Fe0 O20 2.077 1_455 S
Fe0 O29 1.935 1_445 S
O1 Fe0 1.886 1_655 S
O1 Fe3 1.715 . S
Fe2 O4 1.886 . S
Fe2 O5 1.715 1_554 S
Fe2 O12 1.935 1_554 S
Fe2 O13 2.077 . S
Fe2 O19 1.935 1_554 S
Fe2 O28 2.077 . S
Fe3 O1 1.715 . S
Fe3 O6 1.886 1_554 S
Fe3 O10 1.935 . S
Fe3 O15 2.077 1_554 S
Fe3 O21 1.935 . S
Fe3 O25 2.077 1_554 S
O4 Fe0 1.715 1_565 S
O4 Fe2 1.886 . S
O5 Fe2 1.715 1_556 S
O5 Fe7 1.892 . S
O6 Fe3 1.886 1_556 S
O6 Fe7 1.709 1_645 S
Fe7 O5 1.892 . S
Fe7 O6 1.709 1_465 S
Fe7 O11 2.077 1_565 S
Fe7 O16 1.924 1_565 S
Fe7 O18 2.088 1_455 S
Fe7 O26 1.937 1_455 S
C8 O20 1.381 . S
C8 O21 1.421 . S
O9 Fe0 2.077 . S
O9 C22 1.381 1_455 S
O10 Fe3 1.935 . S
O10 C22 1.421 . S
O11 Fe7 2.077 1_545 S
O11 C27 1.381 1_545 S
O12 Fe2 1.935 1_556 S
O12 C27 1.421 . S
O13 Fe2 2.077 . S
O13 C17 1.381 . S
O14 Fe0 1.935 . S
O14 C17 1.421 1_545 S
O15 Fe3 2.077 1_556 S
O15 C23 1.381 . S
O16 Fe7 1.924 1_545 S
O16 C23 1.421 1_455 S
C17 O13 1.381 . S
C17 O14 1.421 1_565 S
O18 Fe7 2.088 1_655 S
O18 C30 1.381 1_655 S
O19 Fe2 1.935 1_556 S
O19 C30 1.421 . S
O20 Fe0 2.077 1_655 S
O20 C8 1.381 . S
O21 Fe3 1.935 . S
O21 C8 1.421 . S
C22 O9 1.381 1_655 S
C22 O10 1.421 . S
C23 O15 1.381 . S
C23 O16 1.421 1_655 S
C24 O25 1.381 . S
C24 O26 1.421 1_545 S
O25 Fe3 2.077 1_556 S
O25 C24 1.381 . S
O26 Fe7 1.937 1_655 S
O26 C24 1.421 1_565 S
C27 O11 1.381 1_565 S
C27 O12 1.421 . S
O28 Fe2 2.077 . S
O28 C31 1.381 . S
O29 Fe0 1.935 1_665 S
O29 C31 1.421 1_655 S
C30 O18 1.381 1_455 S
C30 O19 1.421 . S
C31 O28 1.381 . S
C31 O29 1.421 1_455 S
Cu32 N33 1.999 . S
Cu32 O38 1.974 . S
Cu32 N43 1.985 . S
Cu32 O52 1.959 . S
N33 Cu32 1.999 . S
N33 C35 1.263 . S
N33 C37 1.389 . S
N34 C35 1.358 . S
N34 C36 1.400 . S
C35 N33 1.263 . S
C35 N34 1.358 . S
C35 H41 0.930 1_655 S
C36 N34 1.400 . S
C36 C37 1.351 . S
C36 H53 0.930 . S
C37 N33 1.389 . S
C37 C36 1.351 . S
C37 H42 0.930 . S
O38 Cu32 1.974 . S
O38 C48 1.282 1_655 S
C39 O40 1.261 . S
C39 O52 1.251 1_455 S
O40 C39 1.261 . S
H41 C35 0.930 1_455 S
H42 C37 0.930 . S
N43 Cu32 1.985 . S
N43 C45 1.335 . S
N43 C46 1.390 1_655 S
N44 C45 1.345 . S
N44 C47 1.336 1_655 S
C45 N43 1.335 . S
C45 N44 1.345 . S
C45 H50 0.930 . S
C46 N43 1.390 1_455 S
C46 C47 1.346 . S
C46 H51 0.930 . S
C47 N44 1.336 1_455 S
C47 C46 1.346 . S
C47 H54 0.929 . S
C48 O38 1.282 1_455 S
C48 O49 1.216 . S
O49 C48 1.216 . S
H50 C45 0.930 . S
H51 C46 0.930 . S
O52 Cu32 1.959 . S
O52 C39 1.251 1_655 S
H53 C36 0.930 . S
H54 C47 0.929 . S
Cu55 N56 1.999 . S
Cu55 O61 1.974 . S
Cu55 N66 1.985 . S
Cu55 O75 1.959 . S
N56 Cu55 1.999 . S
N56 C58 1.263 . S
N56 C60 1.389 . S
N57 C58 1.358 . S
N57 C59 1.400 . S
C58 N56 1.263 . S
C58 N57 1.358 . S
C58 H64 0.930 1_545 S
C59 N57 1.400 . S
C59 C60 1.351 . S
C59 H76 0.930 . S
C60 N56 1.389 . S
C60 C59 1.351 . S
C60 H65 0.930 . S
O61 Cu55 1.974 . S
O61 C71 1.282 1_545 S
C62 O63 1.261 . S
C62 O75 1.251 1_565 S
O63 C62 1.261 . S
H64 C58 0.930 1_565 S
H65 C60 0.930 . S
N66 Cu55 1.985 . S
N66 C68 1.335 . S
N66 C69 1.390 1_545 S
N67 C68 1.345 . S
N67 C70 1.336 1_545 S
C68 N66 1.335 . S
C68 N67 1.345 . S
C68 H73 0.930 . S
C69 N66 1.390 1_565 S
C69 C70 1.346 . S
C69 H74 0.930 . S
C70 N67 1.336 1_565 S
C70 C69 1.346 . S
C70 H77 0.929 . S
C71 O61 1.282 1_565 S
C71 O72 1.216 . S
O72 C71 1.216 . S
H73 C68 0.930 . S
H74 C69 0.930 . S
O75 Cu55 1.959 . S
O75 C62 1.251 1_545 S
H76 C59 0.930 . S
H77 C70 0.929 . S
C78 C79 1.391 . S
C78 C80 1.394 . S
C78 H94 0.931 . S
C79 C78 1.391 . S
C79 C83 1.376 1_455 S
C80 C78 1.394 . S
C80 C81 1.369 . S
C80 C84 1.531 . S
C81 C80 1.369 . S
C81 C82 1.410 1_455 S
C81 C89 1.503 . S
C82 C81 1.410 1_655 S
C82 C83 1.392 . S
C82 C85 1.511 . S
C83 C79 1.376 1_655 S
C83 C82 1.392 . S
C83 H95 0.929 . S
C84 C80 1.531 . S
C84 H96 0.960 . S
C84 H97 0.962 . S
C84 H98 0.960 . S
C85 C82 1.511 . S
C85 H99 0.961 . S
C85 H100 0.961 . S
C85 H101 0.961 . S
C86 C87 1.370 . S
C86 C88 1.363 . S
C86 H102 0.931 . S
C87 C86 1.370 . S
C87 C91 1.408 . S
C88 C86 1.363 . S
C88 C89 1.370 . S
C88 C92 1.524 . S
C89 C81 1.503 . S
C89 C88 1.370 . S
C89 C90 1.403 . S
C90 C89 1.403 . S
C90 C91 1.404 . S
C90 C93 1.539 1_455 S
C91 C87 1.408 . S
C91 C90 1.404 . S
C91 H103 0.930 1_455 S
C92 C88 1.524 . S
C92 H104 0.956 . S
C92 H105 0.961 . S
C92 H106 0.961 . S
C93 C90 1.539 1_655 S
C93 H107 0.958 1_655 S
C93 H108 0.961 . S
C93 H109 0.960 . S
H94 C78 0.931 . S
H95 C83 0.929 . S
H96 C84 0.960 . S
H97 C84 0.962 . S
H98 C84 0.960 . S
H99 C85 0.961 . S
H100 C85 0.961 . S
H101 C85 0.961 . S
H102 C86 0.931 . S
H103 C91 0.930 1_655 S
H104 C92 0.956 . S
H105 C92 0.961 . S
H106 C92 0.961 . S
H107 C93 0.958 1_455 S
H108 C93 0.961 . S
H109 C93 0.960 . S
C110 C111 1.391 . S
C110 C112 1.394 . S
C110 H126 0.931 . S
C111 C110 1.391 . S
C111 C115 1.376 1_545 S
C112 C110 1.394 . S
C112 C113 1.379 . S
C112 C116 1.531 . S
C113 C112 1.379 . S
C113 C114 1.400 1_545 S
C113 C121 1.505 . S
C114 C113 1.400 1_565 S
C114 C115 1.392 . S
C114 C117 1.511 . S
C115 C111 1.376 1_565 S
C115 C114 1.392 . S
C115 H127 0.929 . S
C116 C112 1.531 . S
C116 H128 0.960 . S
C116 H129 0.962 . S
C116 H130 0.960 . S
C117 C114 1.511 . S
C117 H131 0.961 . S
C117 H132 0.961 . S
C117 H133 0.961 . S
C118 C119 1.370 . S
C118 C120 1.363 . S
C118 H134 0.931 . S
C119 C118 1.370 . S
C119 C123 1.408 1_545 S
C120 C118 1.363 . S
C120 C121 1.370 . S
C120 C124 1.524 . S
C121 C113 1.505 . S
C121 C120 1.370 . S
C121 C122 1.403 1_545 S
C122 C121 1.403 1_565 S
C122 C123 1.404 . S
C122 C125 1.539 . S
C123 C119 1.408 1_565 S
C123 C122 1.404 . S
C123 H135 0.930 . S
C124 C120 1.524 . S
C124 H136 0.956 . S
C124 H137 0.961 . S
C124 H138 0.961 . S
C125 C122 1.539 . S
C125 H139 0.958 . S
C125 H140 0.961 . S
C125 H141 0.960 . S
H126 C110 0.931 . S
H127 C115 0.929 . S
H128 C116 0.960 . S
H129 C116 0.962 . S
H130 C116 0.960 . S
H131 C117 0.961 . S
H132 C117 0.961 . S
H133 C117 0.961 . S
H134 C118 0.931 . S
H135 C123 0.930 . S
H136 C124 0.956 . S
H137 C124 0.961 . S
H138 C124 0.961 . S
H139 C125 0.958 . S
H140 C125 0.961 . S
H141 C125 0.960 . S
C142 C143 1.391 . S
C142 C144 1.394 . S
C142 H158 0.931 . S
C143 C142 1.391 . S
C143 C147 1.376 1_455 S
C144 C142 1.394 . S
C144 C145 1.369 1_455 S
C144 C148 1.531 . S
C145 C144 1.369 1_655 S
C145 C146 1.410 . S
C145 C153 1.503 . S
C146 C145 1.410 . S
C146 C147 1.392 . S
C146 C149 1.511 . S
C147 C143 1.376 1_655 S
C147 C146 1.392 . S
C147 H159 0.929 . S
C148 C144 1.531 . S
C148 H160 0.960 . S
C148 H161 0.962 . S
C148 H162 0.960 . S
C149 C146 1.511 . S
C149 H163 0.961 . S
C149 H164 0.961 . S
C149 H165 0.961 . S
C150 C151 1.370 1_455 S
C150 C152 1.363 . S
C150 H166 0.931 . S
C151 C150 1.370 1_655 S
C151 C155 1.408 . S
C152 C150 1.363 . S
C152 C153 1.370 1_455 S
C152 C156 1.524 . S
C153 C145 1.503 . S
C153 C152 1.370 1_655 S
C153 C154 1.403 . S
C154 C153 1.403 . S
C154 C155 1.404 . S
C154 C157 1.539 . S
C155 C151 1.408 . S
C155 C154 1.404 . S
C155 H167 0.930 . S
C156 C152 1.524 . S
C156 H168 0.956 . S
C156 H169 0.961 1_455 S
C156 H170 0.961 . S
C157 C154 1.539 . S
C157 H171 0.958 . S
C157 H172 0.961 . S
C157 H173 0.960 . S
H158 C142 0.931 . S
H159 C147 0.929 . S
H160 C148 0.960 . S
H161 C148 0.962 . S
H162 C148 0.960 . S
H163 C149 0.961 . S
H164 C149 0.961 . S
H165 C149 0.961 . S
H166 C150 0.931 . S
H167 C155 0.930 . S
H168 C156 0.956 . S
H169 C156 0.961 1_655 S
H170 C156 0.961 . S
H171 C157 0.958 . S
H172 C157 0.961 . S
H173 C157 0.960 . S
C174 C175 1.391 . S
C174 C176 1.394 . S
C174 H190 0.931 . S
C175 C174 1.391 . S
C175 C179 1.376 1_545 S
C176 C174 1.394 . S
C176 C177 1.369 . S
C176 C180 1.531 . S
C177 C176 1.369 . S
C177 C178 1.410 1_545 S
C177 C185 1.503 . S
C178 C177 1.410 1_565 S
C178 C179 1.392 . S
C178 C181 1.511 . S
C179 C175 1.376 1_565 S
C179 C178 1.392 . S
C179 H191 0.929 . S
C180 C176 1.531 . S
C180 H192 0.960 . S
C180 H193 0.962 . S
C180 H194 0.960 . S
C181 C178 1.511 . S
C181 H195 0.961 . S
C181 H196 0.961 . S
C181 H197 0.961 . S
C182 C183 1.370 . S
C182 C184 1.363 . S
C182 H198 0.931 . S
C183 C182 1.370 . S
C183 C187 1.408 1_565 S
C184 C182 1.363 . S
C184 C185 1.370 1_565 S
C184 C188 1.524 . S
C185 C177 1.503 . S
C185 C184 1.370 1_545 S
C185 C186 1.403 . S
C186 C185 1.403 . S
C186 C187 1.404 . S
C186 C189 1.539 . S
C187 C183 1.408 1_545 S
C187 C186 1.404 . S
C187 H199 0.930 . S
C188 C184 1.524 . S
C188 H200 0.956 . S
C188 H201 0.961 . S
C188 H202 0.961 . S
C189 C186 1.539 . S
C189 H203 0.958 . S
C189 H204 0.961 . S
C189 H205 0.960 . S
H190 C174 0.931 . S
H191 C179 0.929 . S
H192 C180 0.960 . S
H193 C180 0.962 . S
H194 C180 0.960 . S
H195 C181 0.961 . S
H196 C181 0.961 . S
H197 C181 0.961 . S
H198 C182 0.931 . S
H199 C187 0.930 . S
H200 C188 0.956 . S
H201 C188 0.961 . S
H202 C188 0.961 . S
H203 C189 0.958 . S
H204 C189 0.961 . S
H205 C189 0.960 . S
C206 C207 1.391 . S
C206 C208 1.394 . S
C206 H222 0.931 . S
C207 C206 1.391 . S
C207 C211 1.376 1_455 S
C208 C206 1.394 . S
C208 C209 1.369 . S
C208 C212 1.531 . S
C209 C208 1.369 . S
C209 C210 1.410 1_455 S
C209 C217 1.503 . S
C210 C209 1.410 1_655 S
C210 C211 1.392 . S
C210 C213 1.511 . S
C211 C207 1.376 1_655 S
C211 C210 1.392 . S
C211 H223 0.929 . S
C212 C208 1.531 . S
C212 H224 0.960 . S
C212 H225 0.962 . S
C212 H226 0.960 . S
C213 C210 1.511 . S
C213 H227 0.961 . S
C213 H228 0.961 . S
C213 H229 0.961 . S
C214 C215 1.370 1_655 S
C214 C216 1.363 . S
C214 H230 0.931 . S
C215 C214 1.370 1_455 S
C215 C219 1.408 . S
C216 C214 1.363 . S
C216 C217 1.370 1_655 S
C216 C220 1.524 . S
C217 C209 1.503 . S
C217 C216 1.370 1_455 S
C217 C218 1.403 . S
C218 C217 1.403 . S
C218 C219 1.404 . S
C218 C221 1.539 . S
C219 C215 1.408 . S
C219 C218 1.404 . S
C219 H231 0.930 . S
C220 C216 1.524 . S
C220 H232 0.956 . S
C220 H233 0.961 . S
C220 H234 0.961 . S
C221 C218 1.539 . S
C221 H235 0.958 . S
C221 H236 0.961 . S
C221 H237 0.960 . S
H222 C206 0.931 . S
H223 C211 0.929 . S
H224 C212 0.960 . S
H225 C212 0.962 . S
H226 C212 0.960 . S
H227 C213 0.961 . S
H228 C213 0.961 . S
H229 C213 0.961 . S
H230 C214 0.931 . S
H231 C219 0.930 . S
H232 C220 0.956 . S
H233 C220 0.961 . S
H234 C220 0.961 . S
H235 C221 0.958 . S
H236 C221 0.961 . S
H237 C221 0.960 . S
C238 C239 1.391 . S
C238 C240 1.394 . S
C238 H254 0.931 . S
C239 C238 1.391 . S
C239 C243 1.376 1_545 S
C240 C238 1.394 . S
C240 C241 1.369 . S
C240 C244 1.531 . S
C241 C240 1.369 . S
C241 C242 1.410 1_545 S
C241 C249 1.503 . S
C242 C241 1.410 1_565 S
C242 C243 1.392 . S
C242 C245 1.511 . S
C243 C239 1.376 1_565 S
C243 C242 1.392 . S
C243 H255 0.929 . S
C244 C240 1.531 . S
C244 H256 0.960 . S
C244 H257 0.962 . S
C244 H258 0.960 . S
C245 C242 1.511 . S
C245 H259 0.961 . S
C245 H260 0.961 . S
C245 H261 0.961 . S
C246 C247 1.370 1_565 S
C246 C248 1.363 . S
C246 H262 0.931 . S
C247 C246 1.370 1_545 S
C247 C251 1.408 . S
C248 C246 1.363 . S
C248 C249 1.370 1_565 S
C248 C252 1.524 . S
C249 C241 1.503 . S
C249 C248 1.370 1_545 S
C249 C250 1.403 . S
C250 C249 1.403 . S
C250 C251 1.404 . S
C250 C253 1.539 . S
C251 C247 1.408 . S
C251 C250 1.404 . S
C251 H263 0.930 . S
C252 C248 1.524 . S
C252 H264 0.956 . S
C252 H265 0.961 . S
C252 H266 0.961 . S
C253 C250 1.539 . S
C253 H267 0.958 . S
C253 H268 0.961 . S
C253 H269 0.960 . S
H254 C238 0.931 . S
H255 C243 0.929 . S
H256 C244 0.960 . S
H257 C244 0.962 . S
H258 C244 0.960 . S
H259 C245 0.961 . S
H260 C245 0.961 . S
H261 C245 0.961 . S
H262 C246 0.931 . S
H263 C251 0.930 . S
H264 C252 0.956 . S
H265 C252 0.961 . S
H266 C252 0.961 . S
H267 C253 0.958 . S
H268 C253 0.961 . S
H269 C253 0.960 . S
C270 C271 1.388 1_455 S
C270 C272 1.394 . S
C270 H286 0.931 . S
C271 C270 1.388 1_655 S
C271 C275 1.379 . S
C272 C270 1.394 . S
C272 C273 1.369 1_455 S
C272 C276 1.531 . S
C273 C272 1.369 1_655 S
C273 C274 1.410 . S
C273 C281 1.503 . S
C274 C273 1.410 . S
C274 C275 1.392 . S
C274 C277 1.511 . S
C275 C271 1.379 . S
C275 C274 1.392 . S
C275 H287 0.929 . S
C276 C272 1.531 . S
C276 H288 0.960 . S
C276 H289 0.962 . S
C276 H290 0.960 . S
C277 C274 1.511 . S
C277 H291 0.961 . S
C277 H292 0.961 . S
C277 H293 0.961 . S
C278 C279 1.370 . S
C278 C280 1.363 . S
C278 H294 0.931 . S
C279 C278 1.370 . S
C279 C283 1.408 . S
C280 C278 1.363 . S
C280 C281 1.370 . S
C280 C284 1.524 . S
C281 C273 1.503 . S
C281 C280 1.370 . S
C281 C282 1.403 . S
C282 C281 1.403 . S
C282 C283 1.404 . S
C282 C285 1.539 . S
C283 C279 1.408 . S
C283 C282 1.404 . S
C283 H295 0.930 . S
C284 C280 1.524 . S
C284 H296 0.956 1_655 S
C284 H297 0.961 . S
C284 H298 0.961 . S
C285 C282 1.539 . S
C285 H299 0.958 1_655 S
C285 H300 0.961 . S
C285 H301 0.960 . S
H286 C270 0.931 . S
H287 C275 0.929 . S
H288 C276 0.960 . S
H289 C276 0.962 . S
H290 C276 0.960 . S
H291 C277 0.961 . S
H292 C277 0.961 . S
H293 C277 0.961 . S
H294 C278 0.931 . S
H295 C283 0.930 . S
H296 C284 0.956 1_455 S
H297 C284 0.961 . S
H298 C284 0.961 . S
H299 C285 0.958 1_455 S
H300 C285 0.961 . S
H301 C285 0.960 . S
C302 C303 1.391 1_565 S
C302 C304 1.394 . S
C302 H318 0.931 . S
C303 C302 1.391 1_545 S
C303 C307 1.376 . S
C304 C302 1.394 . S
C304 C305 1.369 1_565 S
C304 C308 1.531 . S
C305 C304 1.369 1_545 S
C305 C306 1.410 . S
C305 C313 1.503 . S
C306 C305 1.410 . S
C306 C307 1.392 . S
C306 C309 1.511 . S
C307 C303 1.376 . S
C307 C306 1.392 . S
C307 H319 0.929 . S
C308 C304 1.531 . S
C308 H320 0.960 . S
C308 H321 0.962 . S
C308 H322 0.960 . S
C309 C306 1.511 . S
C309 H323 0.961 . S
C309 H324 0.961 . S
C309 H325 0.961 . S
C310 C311 1.370 . S
C310 C312 1.363 . S
C310 H326 0.931 . S
C311 C310 1.370 . S
C311 C315 1.408 1_565 S
C312 C310 1.363 . S
C312 C313 1.370 1_565 S
C312 C316 1.524 . S
C313 C305 1.503 . S
C313 C312 1.370 1_545 S
C313 C314 1.403 . S
C314 C313 1.403 . S
C314 C315 1.404 . S
C314 C317 1.539 . S
C315 C311 1.408 1_545 S
C315 C314 1.404 . S
C315 H327 0.930 . S
C316 C312 1.524 . S
C316 H328 0.956 . S
C316 H329 0.961 . S
C316 H330 0.961 . S
C317 C314 1.539 . S
C317 H331 0.958 . S
C317 H332 0.961 . S
C317 H333 0.960 . S
H318 C302 0.931 . S
H319 C307 0.929 . S
H320 C308 0.960 . S
H321 C308 0.962 . S
H322 C308 0.960 . S
H323 C309 0.961 . S
H324 C309 0.961 . S
H325 C309 0.961 . S
H326 C310 0.931 . S
H327 C315 0.930 . S
H328 C316 0.956 . S
H329 C316 0.961 . S
H330 C316 0.961 . S
H331 C317 0.958 . S
H332 C317 0.961 . S
H333 C317 0.960 . S
C79 C22 1.469 1_455 S
C87 C48 1.512 . S
C111 C8 1.386 . S
C119 N67 1.367 . S
C143 C31 1.352 . S
C151 N44 1.388 . S
C175 C17 1.455 1_545 S
C183 C71 1.521 . S
C207 C30 1.482 . S
C215 C39 1.566 . S
C239 C27 1.431 1_545 S
C247 N57 1.411 . S
C279 N34 1.421 . S
C271 C23 1.369 . S
C303 C24 1.499 . S
C311 C62 1.561 . S
