# Generated by pormake.
# Topology gar, (4,6)-cn, num edge types: 1
# Building blocks:
#     Node 0, Type 0, BuildingBlock: QUQFOY_clean_sbu_1, # of connection points: 4
#     Node 1, Type 0, BuildingBlock: QUQFOY_clean_sbu_1, # of connection points: 4
#     Node 2, Type 0, BuildingBlock: QUQFOY_clean_sbu_1, # of connection points: 4
#     Node 3, Type 0, BuildingBlock: QUQFOY_clean_sbu_1, # of connection points: 4
#     Node 4, Type 0, BuildingBlock: QUQFOY_clean_sbu_1, # of connection points: 4
#     Node 5, Type 0, BuildingBlock: QUQFOY_clean_sbu_1, # of connection points: 4
#     Node 6, Type 0, BuildingBlock: QUQFOY_clean_sbu_1, # of connection points: 4
#     Node 7, Type 0, BuildingBlock: QUQFOY_clean_sbu_1, # of connection points: 4
#     Node 8, Type 0, BuildingBlock: QUQFOY_clean_sbu_1, # of connection points: 4
#     Node 9, Type 0, BuildingBlock: QUQFOY_clean_sbu_1, # of connection points: 4
#     Node 10, Type 0, BuildingBlock: QUQFOY_clean_sbu_1, # of connection points: 4
#     Node 11, Type 0, BuildingBlock: QUQFOY_clean_sbu_1, # of connection points: 4
#     Node 12, Type 0, BuildingBlock: QUQFOY_clean_sbu_1, # of connection points: 4
#     Node 13, Type 0, BuildingBlock: QUQFOY_clean_sbu_1, # of connection points: 4
#     Node 14, Type 0, BuildingBlock: QUQFOY_clean_sbu_1, # of connection points: 4
#     Node 15, Type 0, BuildingBlock: QUQFOY_clean_sbu_1, # of connection points: 4
#     Node 16, Type 0, BuildingBlock: QUQFOY_clean_sbu_1, # of connection points: 4
#     Node 17, Type 0, BuildingBlock: QUQFOY_clean_sbu_1, # of connection points: 4
#     Node 18, Type 0, BuildingBlock: QUQFOY_clean_sbu_1, # of connection points: 4
#     Node 19, Type 0, BuildingBlock: QUQFOY_clean_sbu_1, # of connection points: 4
#     Node 20, Type 0, BuildingBlock: QUQFOY_clean_sbu_1, # of connection points: 4
#     Node 21, Type 0, BuildingBlock: QUQFOY_clean_sbu_1, # of connection points: 4
#     Node 22, Type 0, BuildingBlock: QUQFOY_clean_sbu_1, # of connection points: 4
#     Node 23, Type 0, BuildingBlock: QUQFOY_clean_sbu_1, # of connection points: 4
#     Node 24, Type 1, BuildingBlock: PAMTOO_clean_sbu_0, # of connection points: 6
#     Node 25, Type 1, BuildingBlock: PAMTOO_clean_sbu_0, # of connection points: 6
#     Node 26, Type 1, BuildingBlock: PAMTOO_clean_sbu_0, # of connection points: 6
#     Node 27, Type 1, BuildingBlock: PAMTOO_clean_sbu_0, # of connection points: 6
#     Node 28, Type 1, BuildingBlock: PAMTOO_clean_sbu_0, # of connection points: 6
#     Node 29, Type 1, BuildingBlock: PAMTOO_clean_sbu_0, # of connection points: 6
#     Node 30, Type 1, BuildingBlock: PAMTOO_clean_sbu_0, # of connection points: 6
#     Node 31, Type 1, BuildingBlock: PAMTOO_clean_sbu_0, # of connection points: 6
#     Node 32, Type 1, BuildingBlock: PAMTOO_clean_sbu_0, # of connection points: 6
#     Node 33, Type 1, BuildingBlock: PAMTOO_clean_sbu_0, # of connection points: 6
#     Node 34, Type 1, BuildingBlock: PAMTOO_clean_sbu_0, # of connection points: 6
#     Node 35, Type 1, BuildingBlock: PAMTOO_clean_sbu_0, # of connection points: 6
#     Node 36, Type 1, BuildingBlock: PAMTOO_clean_sbu_0, # of connection points: 6
#     Node 37, Type 1, BuildingBlock: PAMTOO_clean_sbu_0, # of connection points: 6
#     Node 38, Type 1, BuildingBlock: PAMTOO_clean_sbu_0, # of connection points: 6
#     Node 39, Type 1, BuildingBlock: PAMTOO_clean_sbu_0, # of connection points: 6
#     Edge 40, Type (0, 1), BuildingBlock: KIFKEQ_clean_linker_1, # of connection points: 2
#     Edge 41, Type (0, 1), BuildingBlock: KIFKEQ_clean_linker_1, # of connection points: 2
#     Edge 42, Type (0, 1), BuildingBlock: KIFKEQ_clean_linker_1, # of connection points: 2
#     Edge 43, Type (0, 1), BuildingBlock: KIFKEQ_clean_linker_1, # of connection points: 2
#     Edge 44, Type (0, 1), BuildingBlock: KIFKEQ_clean_linker_1, # of connection points: 2
#     Edge 45, Type (0, 1), BuildingBlock: KIFKEQ_clean_linker_1, # of connection points: 2
#     Edge 46, Type (0, 1), BuildingBlock: KIFKEQ_clean_linker_1, # of connection points: 2
#     Edge 47, Type (0, 1), BuildingBlock: KIFKEQ_clean_linker_1, # of connection points: 2
#     Edge 48, Type (0, 1), BuildingBlock: KIFKEQ_clean_linker_1, # of connection points: 2
#     Edge 49, Type (0, 1), BuildingBlock: KIFKEQ_clean_linker_1, # of connection points: 2
#     Edge 50, Type (0, 1), BuildingBlock: KIFKEQ_clean_linker_1, # of connection points: 2
#     Edge 51, Type (0, 1), BuildingBlock: KIFKEQ_clean_linker_1, # of connection points: 2
#     Edge 52, Type (0, 1), BuildingBlock: KIFKEQ_clean_linker_1, # of connection points: 2
#     Edge 53, Type (0, 1), BuildingBlock: KIFKEQ_clean_linker_1, # of connection points: 2
#     Edge 54, Type (0, 1), BuildingBlock: KIFKEQ_clean_linker_1, # of connection points: 2
#     Edge 55, Type (0, 1), BuildingBlock: KIFKEQ_clean_linker_1, # of connection points: 2
#     Edge 56, Type (0, 1), BuildingBlock: KIFKEQ_clean_linker_1, # of connection points: 2
#     Edge 57, Type (0, 1), BuildingBlock: KIFKEQ_clean_linker_1, # of connection points: 2
#     Edge 58, Type (0, 1), BuildingBlock: KIFKEQ_clean_linker_1, # of connection points: 2
#     Edge 59, Type (0, 1), BuildingBlock: KIFKEQ_clean_linker_1, # of connection points: 2
#     Edge 60, Type (0, 1), BuildingBlock: KIFKEQ_clean_linker_1, # of connection points: 2
#     Edge 61, Type (0, 1), BuildingBlock: KIFKEQ_clean_linker_1, # of connection points: 2
#     Edge 62, Type (0, 1), BuildingBlock: KIFKEQ_clean_linker_1, # of connection points: 2
#     Edge 63, Type (0, 1), BuildingBlock: KIFKEQ_clean_linker_1, # of connection points: 2
#     Edge 64, Type (0, 1), BuildingBlock: KIFKEQ_clean_linker_1, # of connection points: 2
#     Edge 65, Type (0, 1), BuildingBlock: KIFKEQ_clean_linker_1, # of connection points: 2
#     Edge 66, Type (0, 1), BuildingBlock: KIFKEQ_clean_linker_1, # of connection points: 2
#     Edge 67, Type (0, 1), BuildingBlock: KIFKEQ_clean_linker_1, # of connection points: 2
#     Edge 68, Type (0, 1), BuildingBlock: KIFKEQ_clean_linker_1, # of connection points: 2
#     Edge 69, Type (0, 1), BuildingBlock: KIFKEQ_clean_linker_1, # of connection points: 2
#     Edge 70, Type (0, 1), BuildingBlock: KIFKEQ_clean_linker_1, # of connection points: 2
#     Edge 71, Type (0, 1), BuildingBlock: KIFKEQ_clean_linker_1, # of connection points: 2
#     Edge 72, Type (0, 1), BuildingBlock: KIFKEQ_clean_linker_1, # of connection points: 2
#     Edge 73, Type (0, 1), BuildingBlock: KIFKEQ_clean_linker_1, # of connection points: 2
#     Edge 74, Type (0, 1), BuildingBlock: KIFKEQ_clean_linker_1, # of connection points: 2
#     Edge 75, Type (0, 1), BuildingBlock: KIFKEQ_clean_linker_1, # of connection points: 2
#     Edge 76, Type (0, 1), BuildingBlock: KIFKEQ_clean_linker_1, # of connection points: 2
#     Edge 77, Type (0, 1), BuildingBlock: KIFKEQ_clean_linker_1, # of connection points: 2
#     Edge 78, Type (0, 1), BuildingBlock: KIFKEQ_clean_linker_1, # of connection points: 2
#     Edge 79, Type (0, 1), BuildingBlock: KIFKEQ_clean_linker_1, # of connection points: 2
#     Edge 80, Type (0, 1), BuildingBlock: KIFKEQ_clean_linker_1, # of connection points: 2
#     Edge 81, Type (0, 1), BuildingBlock: KIFKEQ_clean_linker_1, # of connection points: 2
#     Edge 82, Type (0, 1), BuildingBlock: KIFKEQ_clean_linker_1, # of connection points: 2
#     Edge 83, Type (0, 1), BuildingBlock: KIFKEQ_clean_linker_1, # of connection points: 2
#     Edge 84, Type (0, 1), BuildingBlock: KIFKEQ_clean_linker_1, # of connection points: 2
#     Edge 85, Type (0, 1), BuildingBlock: KIFKEQ_clean_linker_1, # of connection points: 2
#     Edge 86, Type (0, 1), BuildingBlock: KIFKEQ_clean_linker_1, # of connection points: 2
#     Edge 87, Type (0, 1), BuildingBlock: KIFKEQ_clean_linker_1, # of connection points: 2
#     Edge 88, Type (0, 1), BuildingBlock: KIFKEQ_clean_linker_1, # of connection points: 2
#     Edge 89, Type (0, 1), BuildingBlock: KIFKEQ_clean_linker_1, # of connection points: 2
#     Edge 90, Type (0, 1), BuildingBlock: KIFKEQ_clean_linker_1, # of connection points: 2
#     Edge 91, Type (0, 1), BuildingBlock: KIFKEQ_clean_linker_1, # of connection points: 2
#     Edge 92, Type (0, 1), BuildingBlock: KIFKEQ_clean_linker_1, # of connection points: 2
#     Edge 93, Type (0, 1), BuildingBlock: KIFKEQ_clean_linker_1, # of connection points: 2
#     Edge 94, Type (0, 1), BuildingBlock: KIFKEQ_clean_linker_1, # of connection points: 2
#     Edge 95, Type (0, 1), BuildingBlock: KIFKEQ_clean_linker_1, # of connection points: 2
#     Edge 96, Type (0, 1), BuildingBlock: KIFKEQ_clean_linker_1, # of connection points: 2
#     Edge 97, Type (0, 1), BuildingBlock: KIFKEQ_clean_linker_1, # of connection points: 2
#     Edge 98, Type (0, 1), BuildingBlock: KIFKEQ_clean_linker_1, # of connection points: 2
#     Edge 99, Type (0, 1), BuildingBlock: KIFKEQ_clean_linker_1, # of connection points: 2
#     Edge 100, Type (0, 1), BuildingBlock: KIFKEQ_clean_linker_1, # of connection points: 2
#     Edge 101, Type (0, 1), BuildingBlock: KIFKEQ_clean_linker_1, # of connection points: 2
#     Edge 102, Type (0, 1), BuildingBlock: KIFKEQ_clean_linker_1, # of connection points: 2
#     Edge 103, Type (0, 1), BuildingBlock: KIFKEQ_clean_linker_1, # of connection points: 2
#     Edge 104, Type (0, 1), BuildingBlock: KIFKEQ_clean_linker_1, # of connection points: 2
#     Edge 105, Type (0, 1), BuildingBlock: KIFKEQ_clean_linker_1, # of connection points: 2
#     Edge 106, Type (0, 1), BuildingBlock: KIFKEQ_clean_linker_1, # of connection points: 2
#     Edge 107, Type (0, 1), BuildingBlock: KIFKEQ_clean_linker_1, # of connection points: 2
#     Edge 108, Type (0, 1), BuildingBlock: KIFKEQ_clean_linker_1, # of connection points: 2
#     Edge 109, Type (0, 1), BuildingBlock: KIFKEQ_clean_linker_1, # of connection points: 2
#     Edge 110, Type (0, 1), BuildingBlock: KIFKEQ_clean_linker_1, # of connection points: 2
#     Edge 111, Type (0, 1), BuildingBlock: KIFKEQ_clean_linker_1, # of connection points: 2
#     Edge 112, Type (0, 1), BuildingBlock: KIFKEQ_clean_linker_1, # of connection points: 2
#     Edge 113, Type (0, 1), BuildingBlock: KIFKEQ_clean_linker_1, # of connection points: 2
#     Edge 114, Type (0, 1), BuildingBlock: KIFKEQ_clean_linker_1, # of connection points: 2
#     Edge 115, Type (0, 1), BuildingBlock: KIFKEQ_clean_linker_1, # of connection points: 2
#     Edge 116, Type (0, 1), BuildingBlock: KIFKEQ_clean_linker_1, # of connection points: 2
#     Edge 117, Type (0, 1), BuildingBlock: KIFKEQ_clean_linker_1, # of connection points: 2
#     Edge 118, Type (0, 1), BuildingBlock: KIFKEQ_clean_linker_1, # of connection points: 2
#     Edge 119, Type (0, 1), BuildingBlock: KIFKEQ_clean_linker_1, # of connection points: 2
#     Edge 120, Type (0, 1), BuildingBlock: KIFKEQ_clean_linker_1, # of connection points: 2
#     Edge 121, Type (0, 1), BuildingBlock: KIFKEQ_clean_linker_1, # of connection points: 2
#     Edge 122, Type (0, 1), BuildingBlock: KIFKEQ_clean_linker_1, # of connection points: 2
#     Edge 123, Type (0, 1), BuildingBlock: KIFKEQ_clean_linker_1, # of connection points: 2
#     Edge 124, Type (0, 1), BuildingBlock: KIFKEQ_clean_linker_1, # of connection points: 2
#     Edge 125, Type (0, 1), BuildingBlock: KIFKEQ_clean_linker_1, # of connection points: 2
#     Edge 126, Type (0, 1), BuildingBlock: KIFKEQ_clean_linker_1, # of connection points: 2
#     Edge 127, Type (0, 1), BuildingBlock: KIFKEQ_clean_linker_1, # of connection points: 2
#     Edge 128, Type (0, 1), BuildingBlock: KIFKEQ_clean_linker_1, # of connection points: 2
#     Edge 129, Type (0, 1), BuildingBlock: KIFKEQ_clean_linker_1, # of connection points: 2
#     Edge 130, Type (0, 1), BuildingBlock: KIFKEQ_clean_linker_1, # of connection points: 2
#     Edge 131, Type (0, 1), BuildingBlock: KIFKEQ_clean_linker_1, # of connection points: 2
#     Edge 132, Type (0, 1), BuildingBlock: KIFKEQ_clean_linker_1, # of connection points: 2
#     Edge 133, Type (0, 1), BuildingBlock: KIFKEQ_clean_linker_1, # of connection points: 2
#     Edge 134, Type (0, 1), BuildingBlock: KIFKEQ_clean_linker_1, # of connection points: 2
#     Edge 135, Type (0, 1), BuildingBlock: KIFKEQ_clean_linker_1, # of connection points: 2
# Relax obj value: 0.165
# Max RMSD: 0.280
# Mean RMSD: 0.182
data_MOF--net-gar--node1-QUQFOY_clean_sbu_1--node2-PAMTOO_clean_sbu_0--edge1-KIFKEQ_clean_linker_1
_symmetry_space_group_name_H-M    P1
_symmetry_Int_Tables_number       1
_symmetry_cell_setting            triclinic
loop_
_symmetry_equiv_pos_as_xyz
'x, y, z'
_cell_length_a     61.550408
_cell_length_b     62.169624
_cell_length_c     59.895555
_cell_angle_alpha  96.659621
_cell_angle_beta   96.204873
_cell_angle_gamma 105.73292
loop_
_atom_site_label
_atom_site_type_symbol
_atom_site_fract_x
_atom_site_fract_y
_atom_site_fract_z
_atom_type_partial_charge
O0 O 0.05438 0.28176 0.3836 0.0
Cd1 Cd 0.05645 0.29966 0.35565 0.0
Cd2 Cd 0.04268 0.33135 0.39734 0.0
O3 O 0.04848 0.30439 0.41257 0.0
O4 O 0.07333 0.28347 0.3338 0.0
O5 O 0.08955 0.31772 0.35165 0.0
C6 C 0.09156 0.30043 0.33867 0.0
C7 C 0.04527 0.36627 0.42125 0.0
C8 C 0.05169 0.28574 0.40441 0.0
C9 C 1.00932 0.31155 0.35087 0.0
O10 O 0.01552 0.32208 0.37112 0.0
O11 O 0.02314 0.30272 0.34077 0.0
O12 O 0.02959 0.34781 0.42143 0.0
O13 O 0.06019 0.36509 0.40795 0.0
O14 O 1.00858 0.71761 0.70203 0.0
Cd15 Cd 0.014 0.7464 0.72721 0.0
Cd16 Cd 0.03655 0.76867 0.69145 0.0
O17 O 0.02368 0.73547 0.67491 0.0
O18 O 0.98965 0.74121 0.74954 0.0
O19 O 0.98982 0.76456 0.72498 0.0
C20 C 0.97991 0.75488 0.74069 0.0
C21 C 0.03707 0.79842 0.66949 0.0
C22 C 0.01412 0.71713 0.68199 0.0
C23 C 0.06769 0.7675 0.73452 0.0
O24 O 0.06529 0.77383 0.71517 0.0
O25 O 0.04992 0.75749 0.74303 0.0
O26 O 0.04986 0.78532 0.66683 0.0
O27 O 0.0235 0.79458 0.6845 0.0
O28 O 0.59511 0.81857 0.87724 0.0
Cd29 Cd 0.57055 0.81763 0.89899 0.0
Cd30 Cd 0.54803 0.83187 0.85732 0.0
O31 O 0.57855 0.82508 0.84496 0.0
O32 O 0.58131 0.80292 0.92473 0.0
O33 O 0.54845 0.78754 0.90256 0.0
C34 C 0.56286 0.78639 0.91941 0.0
C35 C 0.50861 0.82014 0.83823 0.0
C36 C 0.59568 0.82103 0.85643 0.0
C37 C 0.55882 0.86271 0.90489 0.0
O38 O 0.55227 0.85954 0.88345 0.0
O39 O 0.56619 0.84802 0.91406 0.0
O40 O 0.52408 0.83655 0.83281 0.0
O41 O 0.51575 0.80895 0.85291 0.0
O42 O 0.51224 0.20479 0.19672 0.0
Cd43 Cd 0.51748 0.23323 0.22268 0.0
Cd44 Cd 0.53959 0.25633 0.18818 0.0
O45 O 0.52772 0.22364 0.17048 0.0
O46 O 0.49179 0.22704 0.24344 0.0
O47 O 0.49467 0.25296 0.22141 0.0
C48 C 0.48343 0.24219 0.23576 0.0
C49 C 0.53946 0.2871 0.16799 0.0
C50 C 0.51824 0.20492 0.17688 0.0
C51 C 0.5709 0.25497 0.23102 0.0
O52 O 0.56828 0.26125 0.21167 0.0
O53 O 0.5532 0.24459 0.23942 0.0
O54 O 0.55208 0.27408 0.16396 0.0
O55 O 0.5264 0.28259 0.18333 0.0
O56 O 0.05498 0.76142 0.11301 0.0
Cd57 Cd 0.05932 0.78994 0.13638 0.0
Cd58 Cd 0.08386 0.81225 0.10222 0.0
O59 O 0.07363 0.77613 0.08615 0.0
O60 O 0.04142 0.77637 0.1601 0.0
O61 O 0.03314 0.80312 0.143 0.0
C62 C 0.02857 0.78938 0.15755 0.0
C63 C 0.07521 0.84637 0.08892 0.0
C64 C 0.06272 0.75859 0.09437 0.0
C65 C 0.1111 0.81135 0.14852 0.0
O66 O 0.11181 0.81783 0.12897 0.0
O67 O 0.092 0.80151 0.15429 0.0
O68 O 0.09075 0.83806 0.08166 0.0
O69 O 0.06376 0.835 0.10279 0.0
O70 O 0.54462 0.77371 0.45648 0.0
Cd71 Cd 0.5268 0.77133 0.48478 0.0
Cd72 Cd 0.49659 0.7893 0.44334 0.0
O73 O 0.52317 0.78191 0.42806 0.0
O74 O 0.54349 0.75382 0.50543 0.0
O75 O 0.50857 0.73825 0.4888 0.0
C76 C 0.52626 0.73585 0.50087 0.0
C77 C 0.46227 0.78838 0.41899 0.0
C78 C 0.54125 0.77731 0.43594 0.0
C79 C 0.51745 0.81992 0.49122 0.0
O80 O 0.50727 0.81542 0.47077 0.0
O81 O 0.52479 0.80485 0.50051 0.0
O82 O 0.4811 0.80409 0.42015 0.0
O83 O 0.46268 0.77278 0.43135 0.0
O84 O 0.56922 0.26167 0.62389 0.0
Cd85 Cd 0.57499 0.29156 0.64557 0.0
Cd86 Cd 0.59637 0.31087 0.60953 0.0
O87 O 0.58334 0.27466 0.59407 0.0
O88 O 0.55806 0.28133 0.67118 0.0
O89 O 0.54866 0.30507 0.65018 0.0
C90 C 0.5447 0.29343 0.66655 0.0
C91 C 0.58666 0.34478 0.59711 0.0
C92 C 0.57397 0.25776 0.60395 0.0
C93 C 0.62701 0.31159 0.65435 0.0
O94 O 0.6265 0.31611 0.63394 0.0
O95 O 0.60836 0.30371 0.66195 0.0
O96 O 0.59999 0.33513 0.58718 0.0
O97 O 0.57806 0.33498 0.61339 0.0
O98 O 1.01114 0.23355 0.9643 0.0
Cd99 Cd 1.01087 0.25795 0.94269 0.0
Cd100 Cd 0.99228 0.27762 0.98235 0.0
O101 O 0.99976 0.24768 0.99515 0.0
O102 O 0.02624 0.24781 0.91709 0.0
O103 O 0.041 0.28044 0.9395 0.0
C104 C 0.0426 0.26632 0.92259 0.0
C105 C 1.00439 0.31796 0.99896 0.0
C106 C 1.00666 0.23199 0.98447 0.0
C107 C 0.96355 0.26682 0.93454 0.0
O108 O 0.96433 0.27153 0.95602 0.0
O109 O 0.98033 0.26196 0.92653 0.0
O110 O 0.98825 0.30324 0.00578 0.0
O111 O 0.01517 0.30971 0.98434 0.0
O112 O 0.40776 0.02624 0.27871 0.0
Cd113 Cd 0.39557 0.03677 0.30767 0.0
Cd114 Cd 0.43713 0.03673 0.32373 0.0
O115 O 0.44372 0.04298 0.29241 0.0
O116 O 0.36459 0.03664 0.29513 0.0
O117 O 0.39102 0.06751 0.31269 0.0
C118 C 0.37055 0.05802 0.30224 0.0
C119 C 0.46523 0.05149 0.35457 0.0
C120 C 0.4285 0.03275 0.2758 0.0
C121 C 0.39858 0.00021 0.33141 0.0
O122 O 0.41842 0.00446 0.32588 0.0
O123 O 0.38781 0.01481 0.33036 0.0
O124 O 0.46715 0.03661 0.33868 0.0
O125 O 0.44777 0.05922 0.35217 0.0
O126 O 0.29196 0.20705 0.57482 0.0
Cd127 Cd 0.29191 0.18384 0.54716 0.0
Cd128 Cd 0.2736 0.21619 0.52558 0.0
O129 O 0.28178 0.23423 0.55939 0.0
O130 O 0.30536 0.16236 0.56249 0.0
O131 O 0.32071 0.17952 0.53551 0.0
C132 C 0.32118 0.16563 0.54986 0.0
C133 C 0.28255 0.23074 0.49127 0.0
C134 C 0.28754 0.22597 0.57699 0.0
C135 C 0.24269 0.16832 0.52498 0.0
O136 O 0.24461 0.18835 0.52085 0.0
O137 O 0.25988 0.16305 0.53383 0.0
O138 O 0.26687 0.23542 0.50194 0.0
O139 O 0.29429 0.219 0.50078 0.0
O140 O 0.12175 0.03979 0.75597 0.0
Cd141 Cd 0.14524 0.04225 0.78445 0.0
Cd142 Cd 0.11206 0.06076 0.80427 0.0
O143 O 0.09461 0.05159 0.77035 0.0
O144 O 0.16791 0.02888 0.7707 0.0
O145 O 0.14944 0.01429 0.79732 0.0
C146 C 0.16409 0.01353 0.78359 0.0
C147 C 0.09783 0.05067 0.83855 0.0
C148 C 0.10276 0.04436 0.75315 0.0
C149 C 0.15965 0.09201 0.80506 0.0
O150 O 0.13916 0.09011 0.80841 0.0
O151 O 0.16548 0.07476 0.79736 0.0
O152 O 0.09119 0.06504 0.82761 0.0
O153 O 0.11155 0.04098 0.82943 0.0
O154 O 0.27313 0.90508 0.04244 0.0
Cd155 Cd 0.27486 0.92451 0.0167 0.0
Cd156 Cd 0.27977 0.89 0.99639 0.0
O157 O 0.26395 0.87282 0.01957 0.0
O158 O 0.26784 0.95144 0.03039 0.0
O159 O 0.24523 0.92697 0.00158 0.0
C160 C 0.24935 0.94514 0.01606 0.0
C161 C 0.26463 0.88311 0.95916 0.0
C162 C 0.26607 0.88363 0.03929 0.0
C163 C 0.32028 0.92791 0.00625 0.0
O164 O 0.31391 0.90661 0.00516 0.0
O165 O 0.30578 0.93891 0.00698 0.0
O166 O 0.275 0.86981 0.96772 0.0
O167 O 0.26251 0.90039 0.97195 0.0
O168 O 0.29404 0.37505 0.09305 0.0
Cd169 Cd 0.29634 0.39592 0.06798 0.0
Cd170 Cd 0.31182 0.35875 0.04676 0.0
O171 O 0.30179 0.34488 0.07619 0.0
O172 O 0.28147 0.4194 0.07922 0.0
O173 O 0.26873 0.39694 0.04647 0.0
C174 C 0.26685 0.41321 0.06093 0.0
C175 C 0.30324 0.33965 0.00857 0.0
C176 C 0.29638 0.35533 0.0935 0.0
C177 C 0.34485 0.40674 0.05746 0.0
O178 O 0.34148 0.38563 0.05144 0.0
O179 O 0.32881 0.41427 0.06366 0.0
O180 O 0.31802 0.33567 0.0233 0.0
O181 O 0.29196 0.35312 0.0159 0.0
O182 O 0.80636 0.1477 0.11134 0.0
Cd183 Cd 0.79557 0.12637 0.08122 0.0
Cd184 Cd 0.78573 0.16094 0.0636 0.0
O185 O 0.80289 0.17665 0.09482 0.0
O186 O 0.81663 0.10806 0.07669 0.0
O187 O 0.81225 0.13414 0.05536 0.0
C188 C 0.82228 0.11917 0.06022 0.0
C189 C 0.78887 0.18552 0.03711 0.0
C190 C 0.80918 0.16874 0.11215 0.0
C191 C 0.7477 0.1174 0.06396 0.0
O192 O 0.75417 0.13743 0.05947 0.0
O193 O 0.76196 0.10856 0.07323 0.0
O194 O 0.77668 0.1866 0.05309 0.0
O195 O 0.79944 0.1702 0.03604 0.0
O196 O 0.17712 0.52943 0.23267 0.0
Cd197 Cd 0.20314 0.53875 0.25933 0.0
Cd198 Cd 0.17266 0.55093 0.28389 0.0
O199 O 0.15216 0.53812 0.25311 0.0
O200 O 0.22398 0.51995 0.2562 0.0
O201 O 0.20325 0.52035 0.28439 0.0
C202 C 0.21834 0.51307 0.27489 0.0
C203 C 0.15315 0.55151 0.31502 0.0
C204 C 0.1571 0.53073 0.23425 0.0
C205 C 0.21678 0.58611 0.27894 0.0
O206 O 0.19837 0.58056 0.28732 0.0
O207 O 0.22237 0.57171 0.2658 0.0
O208 O 0.15102 0.56346 0.29928 0.0
O209 O 0.1659 0.53822 0.31277 0.0
O210 O 0.79782 0.87908 0.59573 0.0
Cd211 Cd 0.79994 0.8969 0.56837 0.0
Cd212 Cd 0.81718 0.86104 0.55219 0.0
O213 O 0.80666 0.84849 0.58195 0.0
O214 O 0.78586 0.92132 0.57768 0.0
O215 O 0.77153 0.896 0.54703 0.0
C216 C 0.77052 0.91364 0.56008 0.0
C217 C 0.80675 0.84203 0.51414 0.0
C218 C 0.80053 0.85983 0.59809 0.0
C219 C 0.84897 0.90866 0.55962 0.0
O220 O 0.84708 0.88759 0.55655 0.0
O221 O 0.83181 0.91556 0.56307 0.0
O222 O 0.82155 0.83731 0.52828 0.0
O223 O 0.79656 0.85632 0.52204 0.0
O224 O 0.94603 0.03222 0.23749 0.0
Cd225 Cd 0.92635 0.03003 0.26364 0.0
Cd226 Cd 0.96386 0.01552 0.28337 0.0
O227 O 0.97695 0.0249 0.25326 0.0
O228 O 0.90316 0.04586 0.25459 0.0
O229 O 0.92733 0.05721 0.2865 0.0
C230 C 0.91067 0.05995 0.27315 0.0
C231 C 0.98421 0.02552 0.32098 0.0
C232 C 0.96588 0.03005 0.2363 0.0
C233 C 0.91541 0.98256 0.27455 0.0
O234 O 0.93678 0.98614 0.28031 0.0
O235 O 0.90763 0.99809 0.26793 0.0
O236 O 0.98793 0.01041 0.3064 0.0
O237 O 0.97023 0.03627 0.31374 0.0
O238 O 0.30377 0.65478 0.60137 0.0
Cd239 Cd 0.29447 0.63117 0.57311 0.0
Cd240 Cd 0.28308 0.66262 0.55206 0.0
O241 O 0.3009 0.68194 0.58192 0.0
O242 O 0.31496 0.61252 0.57679 0.0
O243 O 0.31456 0.63358 0.54907 0.0
C244 C 0.32342 0.62022 0.55952 0.0
C245 C 0.28175 0.68487 0.52367 0.0
C246 C 0.30674 0.67557 0.6004 0.0
C247 C 0.24647 0.61938 0.55704 0.0
O248 O 0.25206 0.63888 0.55113 0.0
O249 O 0.26154 0.61153 0.56628 0.0
O250 O 0.27092 0.68612 0.54068 0.0
O251 O 0.29362 0.67066 0.52254 0.0
O252 O 0.45384 0.53721 0.74401 0.0
Cd253 Cd 0.43136 0.53408 0.76799 0.0
Cd254 Cd 0.46906 0.51784 0.78908 0.0
O255 O 0.48355 0.52796 0.76001 0.0
O256 O 0.40789 0.54839 0.75543 0.0
O257 O 0.42875 0.56121 0.78903 0.0
C258 C 0.41305 0.5629 0.77374 0.0
C259 C 0.48823 0.52543 0.82718 0.0
C260 C 0.47356 0.53443 0.74326 0.0
C261 C 0.42025 0.48562 0.77745 0.0
O262 O 0.4415 0.48886 0.78355 0.0
O263 O 0.41273 0.50165 0.77169 0.0
O264 O 0.49146 0.51037 0.81221 0.0
O265 O 0.47543 0.53744 0.82021 0.0
O266 O 0.68032 0.02671 0.72916 0.0
Cd267 Cd 0.70621 0.0429 0.75495 0.0
Cd268 Cd 0.67524 0.05518 0.77671 0.0
O269 O 0.6545 0.03501 0.74851 0.0
O270 O 0.73003 0.02728 0.75693 0.0
O271 O 0.70801 0.02995 0.78366 0.0
C272 C 0.72438 0.02301 0.77647 0.0
C273 C 0.65824 0.05576 0.80932 0.0
C274 C 0.65965 0.02551 0.73075 0.0
C275 C 0.71358 0.09178 0.76472 0.0
O276 O 0.69555 0.08661 0.77379 0.0
O277 O 0.72129 0.07651 0.7556 0.0
O278 O 0.6514 0.06379 0.79196 0.0
O279 O 0.67483 0.04688 0.80828 0.0
O280 O 0.79127 0.71198 0.07956 0.0
Cd281 Cd 0.78971 0.6867 0.05311 0.0
Cd282 Cd 0.76858 0.71733 0.02968 0.0
O283 O 0.77564 0.73561 0.06332 0.0
O284 O 0.80375 0.66622 0.06952 0.0
O285 O 0.81807 0.68164 0.04115 0.0
C286 C 0.81908 0.66865 0.05631 0.0
C287 C 0.77703 0.73189 0.99517 0.0
C288 C 0.78452 0.72968 0.08111 0.0
C289 C 0.74003 0.66893 0.03071 0.0
O290 O 0.74112 0.68831 0.02513 0.0
O291 O 0.75752 0.66509 0.04089 0.0
O292 O 0.76067 0.73554 0.00543 0.0
O293 O 0.78964 0.72122 0.00517 0.0
O294 O 0.89128 0.52631 0.78695 0.0
Cd295 Cd 0.87929 0.53604 0.81607 0.0
Cd296 Cd 0.91963 0.54221 0.83194 0.0
O297 O 0.92525 0.5491 0.80027 0.0
O298 O 0.85113 0.54316 0.8062 0.0
O299 O 0.8828 0.56877 0.82432 0.0
C300 C 0.862 0.56392 0.81428 0.0
C301 C 0.94547 0.56182 0.86336 0.0
C302 C 0.91124 0.53654 0.78373 0.0
C303 C 0.88509 0.50118 0.83934 0.0
O304 O 0.90515 0.50875 0.83473 0.0
O305 O 0.8713 0.51289 0.8374 0.0
O306 O 0.95068 0.54829 0.8483 0.0
O307 O 0.92566 0.56523 0.85993 0.0
O308 O 0.77512 0.3882 0.54736 0.0
Cd309 Cd 0.78154 0.41359 0.52784 0.0
Cd310 Cd 0.79041 0.38181 0.50119 0.0
O311 O 0.78083 0.3608 0.52425 0.0
O312 O 0.75617 0.4262 0.51713 0.0
O313 O 0.77923 0.4386 0.54982 0.0
C314 C 0.76264 0.44025 0.53584 0.0
C315 C 0.76879 0.37683 0.46675 0.0
C316 C 0.77531 0.36781 0.5429 0.0
C317 C 0.82863 0.42169 0.51356 0.0
O318 O 0.8237 0.40119 0.50452 0.0
O319 O 0.8138 0.42908 0.52241 0.0
O320 O 0.78189 0.36425 0.4709 0.0
O321 O 0.76746 0.39222 0.48255 0.0
O322 O 0.62427 0.53446 0.26046 0.0
Cd323 Cd 0.64892 0.53807 0.28835 0.0
Cd324 Cd 0.61603 0.5553 0.30971 0.0
O325 O 0.5974 0.54545 0.27639 0.0
O326 O 0.67258 0.52552 0.27542 0.0
O327 O 0.65312 0.51015 0.30117 0.0
C328 C 0.66848 0.51003 0.28814 0.0
C329 C 0.60393 0.54624 0.345 0.0
C330 C 0.6049 0.53835 0.25868 0.0
C331 C 0.66212 0.58793 0.30874 0.0
O332 O 0.64175 0.58528 0.31276 0.0
O333 O 0.66844 0.57107 0.30082 0.0
O334 O 0.59616 0.5598 0.33381 0.0
O335 O 0.61742 0.53653 0.33547 0.0
Dy336 Dy 0.06392 0.05361 0.05208 0.0
Dy337 Dy 0.01311 0.02637 0.02895 0.0
C338 C 0.05431 0.03609 0.99771 0.0
O339 O 0.04789 0.08199 0.0458 0.0
O340 O 0.01339 0.06252 0.02471 0.0
O341 O 0.094 0.08203 0.05489 0.0
O342 O 0.09085 0.05995 0.08035 0.0
O343 O 1.00852 0.041 0.06378 0.0
O344 O 0.04452 0.04534 0.08105 0.0
O345 O 0.02723 0.99897 0.04214 0.0
O346 O 0.0656 0.01693 0.04857 0.0
O347 O 0.97994 0.0038 0.03078 0.0
O348 O 0.98779 0.01496 0.99899 0.0
C349 C 0.02879 0.08192 0.03327 0.0
O350 O 0.06915 0.04737 0.01551 0.0
O351 O 0.03308 0.02582 0.99968 0.0
C352 C 0.12605 0.07096 0.06802 0.0
C353 C 0.15769 0.04729 0.06022 0.0
C354 C 0.14526 0.05281 0.04188 0.0
C355 C 0.12954 0.06459 0.04572 0.0
C356 C 0.14022 0.06752 0.08643 0.0
C357 C 0.1561 0.0557 0.08254 0.0
C358 C 0.10459 0.0756 0.07175 0.0
C359 C 0.023 0.04344 0.08232 0.0
C360 C 0.04848 0.99829 0.04744 0.0
C361 C 0.95291 0.01655 0.00915 0.0
C362 C 0.92669 0.04671 0.00448 0.0
C363 C 0.93744 0.04542 0.02596 0.0
C364 C 0.95045 0.03053 0.02829 0.0
C365 C 0.94092 0.01671 0.98786 0.0
C366 C 0.92773 0.03166 0.98554 0.0
C367 C 0.97173 0.00627 0.01053 0.0
H368 H 0.14662 0.04668 0.02454 0.0
H369 H 0.11881 0.06692 0.03117 0.0
H370 H 0.13762 0.07219 0.10373 0.0
H371 H 0.16574 0.05161 0.09684 0.0
H372 H 0.9363 0.05641 0.04094 0.0
H373 H 0.95964 0.03101 0.0449 0.0
H374 H 0.9429 0.00629 0.97284 0.0
H375 H 0.91928 0.03223 0.96888 0.0
Dy376 Dy 0.29882 0.79202 0.26339 0.0
Dy377 Dy 0.27188 0.80119 0.30544 0.0
C378 C 0.30321 0.84178 0.28774 0.0
O379 O 0.31796 0.78282 0.29324 0.0
O380 O 0.30835 0.80559 0.32094 0.0
O381 O 0.33024 0.79808 0.24903 0.0
O382 O 0.29937 0.77404 0.23057 0.0
O383 O 0.27367 0.76585 0.30388 0.0
O384 O 0.27406 0.75934 0.26585 0.0
O385 O 0.24628 0.79579 0.27398 0.0
O386 O 0.27064 0.80509 0.24798 0.0
O387 O 0.24251 0.79061 0.32247 0.0
O388 O 0.26959 0.82117 0.33655 0.0
C389 C 0.3218 0.79364 0.31415 0.0
O390 O 0.31393 0.82807 0.27892 0.0
O391 O 0.28301 0.83418 0.29355 0.0
C392 C 0.32198 0.79785 0.20984 0.0
C393 C 0.31166 0.817 0.17154 0.0
C394 C 0.31689 0.8301 0.19316 0.0
C395 C 0.32189 0.82056 0.21222 0.0
C396 C 0.31884 0.78537 0.18814 0.0
C397 C 0.31372 0.79491 0.16902 0.0
C398 C 0.32007 0.78606 0.22953 0.0
C399 C 0.27102 0.75186 0.2851 0.0
C400 C 0.25015 0.80176 0.25403 0.0
C401 C 0.25534 0.79641 0.3612 0.0
C402 C 0.26261 0.77682 0.40013 0.0
C403 C 0.27485 0.77433 0.38203 0.0
C404 C 0.27129 0.78409 0.36281 0.0
C405 C 0.24304 0.79908 0.37913 0.0
C406 C 0.24666 0.7893 0.39858 0.0
C407 C 0.25179 0.80579 0.34036 0.0
H408 H 0.31584 0.84732 0.19546 0.0
H409 H 0.32403 0.83045 0.22886 0.0
H410 H 0.31858 0.76775 0.1861 0.0
H411 H 0.30971 0.78447 0.1525 0.0
H412 H 0.28686 0.76442 0.38249 0.0
H413 H 0.28085 0.7818 0.34902 0.0
H414 H 0.23066 0.80856 0.37804 0.0
H415 H 0.23707 0.79152 0.41237 0.0
Dy416 Dy 0.51916 0.03356 0.55952 0.0
Dy417 Dy 0.57158 0.04224 0.54712 0.0
C418 C 0.53083 0.04174 0.51 0.0
O419 O 0.52014 0.998 0.54542 0.0
O420 O 0.55896 0.00428 0.54654 0.0
O421 O 0.48259 0.02074 0.55046 0.0
O422 O 0.49725 0.03949 0.58405 0.0
O423 O 0.57125 0.0499 0.58413 0.0
O424 O 0.53932 0.02273 0.58694 0.0
O425 O 0.56705 0.07752 0.54913 0.0
O426 O 0.53623 0.07161 0.56872 0.0
O427 O 0.607 0.04848 0.56062 0.0
O428 O 0.597 0.04441 0.52433 0.0
C429 C 0.53808 0.99025 0.54361 0.0
O430 O 0.51901 0.04564 0.52611 0.0
O431 O 0.54932 0.03542 0.51395 0.0
C432 C 0.46331 0.04537 0.56693 0.0
C433 C 0.4337 0.07302 0.56278 0.0
C434 C 0.45015 0.07323 0.54811 0.0
C435 C 0.46483 0.0596 0.55021 0.0
C436 C 0.44717 0.04528 0.58175 0.0
C437 C 0.43254 0.05896 0.57973 0.0
C438 C 0.47871 0.03093 0.56933 0.0
C439 C 0.56013 0.03471 0.59528 0.0
C440 C 0.55294 0.0855 0.5606 0.0
C441 C 0.62681 0.02958 0.53754 0.0
C442 C 0.65526 0.00074 0.53474 0.0
C443 C 0.63576 0.99521 0.54565 0.0
C444 C 0.62166 0.00945 0.54699 0.0
C445 C 0.64566 0.03473 0.52588 0.0
C446 C 0.65971 0.02044 0.52443 0.0
C447 C 0.61331 0.04574 0.54068 0.0
H448 H 0.45146 0.08363 0.53474 0.0
H449 H 0.47732 0.0601 0.53869 0.0
H450 H 0.44589 0.03465 0.59494 0.0
H451 H 0.42045 0.05864 0.59163 0.0
H452 H 0.63186 0.98034 0.55396 0.0
H453 H 0.60709 0.00505 0.55597 0.0
H454 H 0.6498 0.05007 0.5183 0.0
H455 H 0.67429 0.02502 0.5155 0.0
Dy456 Dy 0.31463 0.27922 0.79198 0.0
Dy457 Dy 0.26754 0.29531 0.78874 0.0
C458 C 0.3156 0.33048 0.78675 0.0
O459 O 0.30693 0.28233 0.82814 0.0
O460 O 0.28525 0.30692 0.82463 0.0
O461 O 0.35009 0.2836 0.80479 0.0
O462 O 0.33159 0.25501 0.77933 0.0
O463 O 0.26007 0.26355 0.80401 0.0
O464 O 0.2851 0.24772 0.78787 0.0
O465 O 0.26892 0.27868 0.7534 0.0
O466 O 0.30762 0.2857 0.75622 0.0
O467 O 0.23147 0.28712 0.77668 0.0
O468 O 0.24872 0.3191 0.79798 0.0
C469 C 0.29712 0.29693 0.83735 0.0
O470 O 0.32554 0.31699 0.79647 0.0
O471 O 0.29371 0.3239 0.77851 0.0
C472 C 0.37084 0.27046 0.77726 0.0
C473 C 0.40789 0.27657 0.75177 0.0
C474 C 0.40076 0.29515 0.76062 0.0
C475 C 0.38241 0.29212 0.77313 0.0
C476 C 0.37773 0.25191 0.76831 0.0
C477 C 0.3959 0.25488 0.75567 0.0
C478 C 0.35146 0.26664 0.79052 0.0
C479 C 0.26662 0.24576 0.79752 0.0
C480 C 0.28747 0.28028 0.74377 0.0
C481 C 0.21065 0.30102 0.80359 0.0
C482 C 0.17499 0.29424 0.83083 0.0
C483 C 0.18005 0.27572 0.81893 0.0
C484 C 0.19769 0.27905 0.80557 0.0
C485 C 0.2057 0.31952 0.81556 0.0
C486 C 0.18818 0.31619 0.82911 0.0
C487 C 0.22907 0.30486 0.78899 0.0
H488 H 0.40959 0.31214 0.75827 0.0
H489 H 0.37737 0.30676 0.77966 0.0
H490 H 0.36896 0.23501 0.77105 0.0
H491 H 0.4004 0.24004 0.7488 0.0
H492 H 0.17046 0.25859 0.82009 0.0
H493 H 0.20108 0.26434 0.79676 0.0
H494 H 0.21532 0.33664 0.81433 0.0
H495 H 0.18464 0.33083 0.83787 0.0
Dy496 Dy 0.05118 0.01873 0.53572 0.0
Dy497 Dy 0.03491 0.06605 0.54124 0.0
C498 C 0.99994 0.01788 0.54279 0.0
O499 O 0.04782 0.02729 0.50016 0.0
O500 O 0.02332 0.04906 0.505 0.0
O501 O 0.04535 0.98339 0.5223 0.0
O502 O 0.07523 0.001 0.54665 0.0
O503 O 0.06785 0.07453 0.52731 0.0
O504 O 0.08321 0.04717 0.53875 0.0
O505 O 0.05015 0.06362 0.57684 0.0
O506 O 0.04628 0.02552 0.57204 0.0
O507 O 0.04321 0.10201 0.55297 0.0
O508 O 1.01051 0.08443 0.53296 0.0
C509 C 0.03315 0.03735 0.4917 0.0
O510 O 0.01322 0.00856 0.53174 0.0
O511 O 1.00644 0.03951 0.55145 0.0
C512 C 0.05847 0.96255 0.54897 0.0
C513 C 0.05188 0.92682 0.57543 0.0
C514 C 0.04004 0.94324 0.57813 0.0
C515 C 0.04331 0.96091 0.56505 0.0
C516 C 0.07034 0.94632 0.54625 0.0
C517 C 0.06711 0.92869 0.55929 0.0
C518 C 0.06276 0.98149 0.53561 0.0
C519 C 0.08537 0.0667 0.53155 0.0
C520 C 0.05034 0.04495 0.58534 0.0
C521 C 0.02769 0.12222 0.52732 0.0
C522 C 0.03412 0.15781 0.50047 0.0
C523 C 0.04198 0.13884 0.49482 0.0
C524 C 0.03885 0.1213 0.50811 0.0
C525 C 0.01967 0.14095 0.53293 0.0
C526 C 0.02285 0.15852 0.51972 0.0
C527 C 0.02465 0.10406 0.54182 0.0
H528 H 0.02802 0.94232 0.59017 0.0
H529 H 0.03405 0.97333 0.56753 0.0
H530 H 0.08231 0.9474 0.53413 0.0
H531 H 0.07688 0.91671 0.55696 0.0
H532 H 0.05094 0.13771 0.48033 0.0
H533 H 0.04528 0.10706 0.50346 0.0
H534 H 1.01096 0.14205 0.54761 0.0
H535 H 0.01622 0.17258 0.52449 0.0
Dy536 Dy 0.29212 0.81259 0.77137 0.0
Dy537 Dy 0.2831 0.76256 0.7904 0.0
C538 C 0.27882 0.80594 0.81945 0.0
O539 O 0.32788 0.80891 0.77702 0.0
O540 O 0.32101 0.78104 0.7998 0.0
O541 O 0.30519 0.84897 0.7797 0.0
O542 O 0.28502 0.83381 0.747 0.0
O543 O 0.2871 0.75623 0.75415 0.0
O544 O 0.29944 0.79122 0.74267 0.0
O545 O 0.24667 0.76375 0.78107 0.0
O546 O 0.25352 0.79766 0.76694 0.0
O547 O 0.26967 0.72618 0.78515 0.0
O548 O 0.29214 0.74339 0.81619 0.0
C549 C 0.33537 0.79648 0.79083 0.0
O550 O 0.29485 0.81653 0.80877 0.0
O551 O 0.26993 0.78404 0.81458 0.0
C552 C 0.27991 0.86785 0.76424 0.0
C553 C 0.25221 0.8973 0.76939 0.0
C554 C 0.24882 0.87816 0.78052 0.0
C555 C 0.26242 0.86348 0.77782 0.0
C556 C 0.28343 0.88694 0.75323 0.0
C557 C 0.2697 0.90147 0.75572 0.0
C558 C 0.29427 0.85247 0.76119 0.0
C559 C 0.29494 0.76916 0.7393 0.0
C560 C 0.23922 0.77932 0.77192 0.0
C561 C 0.29646 0.70819 0.80001 0.0
C562 C 0.32334 0.67783 0.79433 0.0
C563 C 0.3151 0.68669 0.77567 0.0
C564 C 0.30195 0.70178 0.77848 0.0
C565 C 0.30473 0.69943 0.81866 0.0
C566 C 0.31809 0.68451 0.81589 0.0
C567 C 0.28231 0.724 0.80323 0.0
H568 H 0.23537 0.87429 0.79096 0.0
H569 H 0.25918 0.84863 0.7862 0.0
H570 H 0.29679 0.89059 0.74265 0.0
H571 H 0.27296 0.91617 0.7471 0.0
H572 H 0.31905 0.68214 0.75889 0.0
H573 H 0.2961 0.70841 0.76376 0.0
H574 H 0.30079 0.70409 0.83542 0.0
H575 H 0.32399 0.67789 0.83059 0.0
Dy576 Dy 0.52921 0.04522 0.02063 0.0
Dy577 Dy 0.53601 0.01675 0.06161 0.0
C578 C 0.53952 0.99684 0.01068 0.0
O579 O 0.49451 0.03293 0.03006 0.0
O580 O 0.50056 0.00209 0.04395 0.0
O581 O 0.51303 0.04864 0.98793 0.0
O582 O 0.53935 0.07695 0.00796 0.0
O583 O 0.52245 0.04447 0.07751 0.0
O584 O 0.53317 0.06938 0.0527 0.0
O585 O 0.57001 0.04093 0.06218 0.0
O586 O 0.56581 0.04605 0.02497 0.0
O587 O 0.54783 0.01404 0.09613 0.0
O588 O 0.53058 0.98389 0.07205 0.0
C589 C 0.48675 0.01294 0.03589 0.0
O590 O 0.52835 0.01056 0.00318 0.0
O591 O 0.54801 -0.00048 0.03229 0.0
C592 C 0.54132 0.06997 0.96958 0.0
C593 C 0.57344 0.07494 0.93927 0.0
C594 C 0.56691 0.05497 0.94879 0.0
C595 C 0.55114 0.05258 0.9639 0.0
C596 C 0.54744 0.08985 0.95997 0.0
C597 C 0.56339 0.09232 0.94481 0.0
C598 C 0.52752 0.0684 0.988 0.0
C599 C 0.52624 0.06502 0.07215 0.0
C600 C 0.57874 0.04731 0.04422 0.0
C601 C 0.52141 0.9853 0.1087 0.0
C602 C 0.49261 0.97862 0.1419 0.0
C603 C 0.48656 0.98777 0.12262 0.0
C604 C 0.50089 0.9911 0.10614 0.0
C605 C 0.5267 0.97458 0.12693 0.0
C606 C 0.51228 0.97114 0.14344 0.0
C607 C 0.53785 0.99234 0.09332 0.0
H608 H 0.5739 0.04106 0.9445 0.0
H609 H 0.54701 0.03729 0.97156 0.0
H610 H 0.54037 0.10363 0.96464 0.0
H611 H 0.56819 0.10795 0.93781 0.0
H612 H 0.47169 0.99395 0.12108 0.0
H613 H 0.49661 -0.00063 0.09202 0.0
H614 H 0.54243 0.96988 0.12895 0.0
H615 H 0.51716 0.9638 0.15805 0.0
Dy616 Dy 0.27622 0.25454 0.2755 0.0
Dy617 Dy 0.30357 0.3042 0.299 0.0
C618 C 0.29316 0.26581 0.32924 0.0
O619 O 0.24799 0.27141 0.27814 0.0
O620 O 0.2671 0.30019 0.30653 0.0
O621 O 0.2586 0.22051 0.27927 0.0
O622 O 0.2594 0.22997 0.24576 0.0
O623 O 0.28807 0.3081 0.26432 0.0
O624 O 0.28722 0.27343 0.24688 0.0
O625 O 0.33112 0.29135 0.28409 0.0
O626 O 0.31327 0.25328 0.27838 0.0
O627 O 0.32536 0.33761 0.29781 0.0
O628 O 0.31338 0.32917 0.32921 0.0
C629 C 0.24764 0.28744 0.29447 0.0
O630 O 0.27581 0.25574 0.31329 0.0
O631 O 0.30983 0.2821 0.32464 0.0
C632 C 0.2615 0.19361 0.25067 0.0
C633 C 0.27802 0.15577 0.24954 0.0
C634 C 0.29297 0.17742 0.24978 0.0
C635 C 0.28474 0.19617 0.25026 0.0
C636 C 0.24624 0.17198 0.24876 0.0
C637 C 0.25444 0.15309 0.24806 0.0
C638 C 0.2541 0.21344 0.25752 0.0
C639 C 0.28741 0.29441 0.24565 0.0
C640 C 0.33187 0.27031 0.2789 0.0
C641 C 0.31333 0.36442 0.31996 0.0
C642 C 0.2935 0.40013 0.32332 0.0
C643 C 0.28196 0.37949 0.30944 0.0
C644 C 0.29177 0.3618 0.30782 0.0
C645 C 0.32493 0.38483 0.33401 0.0
C646 C 0.31509 0.40266 0.33565 0.0
C647 C 0.32291 0.34532 0.3183 0.0
H648 H 0.31125 0.18022 0.25133 0.0
H649 H 0.29676 0.21281 0.25195 0.0
H650 H 0.22824 0.16984 0.24922 0.0
H651 H 0.24251 0.13659 0.24757 0.0
H652 H 0.26557 0.37716 0.29934 0.0
H653 H 0.28256 0.34605 0.29695 0.0
H654 H 0.3415 0.38695 0.34366 0.0
H655 H 0.3243 0.41839 0.34651 0.0
Dy656 Dy 0.55213 0.51419 0.0426 0.0
Dy657 Dy 0.53519 0.56107 0.04802 0.0
C658 C 0.50118 0.51268 0.05118 0.0
O659 O 0.53713 0.51593 0.00694 0.0
O660 O 0.53702 0.55323 0.01092 0.0
O661 O 0.54468 0.4784 0.03083 0.0
O662 O 0.57702 0.49648 0.05146 0.0
O663 O 0.57302 0.57173 0.04904 0.0
O664 O 0.5798 0.54003 0.03086 0.0
O665 O 0.53862 0.55188 0.08355 0.0
O666 O 0.56474 0.53223 0.07822 0.0
O667 O 0.54128 0.59626 0.06217 0.0
O668 O 0.51124 0.57928 0.03779 0.0
C669 C 0.53467 0.5338 0.99817 0.0
O670 O 0.51898 0.50545 0.05625 0.0
O671 O 0.50324 0.53228 0.04413 0.0
C672 C 0.56043 0.45848 0.05706 0.0
C673 C 0.55594 0.42271 0.08354 0.0
C674 C 0.53658 0.42806 0.07369 0.0
C675 C 0.53878 0.44573 0.06071 0.0
C676 C 0.57978 0.45337 0.06703 0.0
C677 C 0.5776 0.43583 0.08017 0.0
C678 C 0.56312 0.47672 0.04261 0.0
C679 C 0.58609 0.5619 0.03821 0.0
C680 C 0.55409 0.5426 0.09182 0.0
C681 C 0.52867 0.6179 0.03552 0.0
C682 C 0.53621 0.65422 0.00966 0.0
C683 C 0.55468 0.64837 0.02079 0.0
C684 C 0.55098 0.63039 0.03347 0.0
C685 C 0.51024 0.62377 0.02448 0.0
C686 C 0.51393 0.6416 0.01165 0.0
C687 C 0.52419 0.59864 0.04874 0.0
H688 H 0.51958 0.41829 0.07552 0.0
H689 H 0.52346 0.44919 0.05334 0.0
H690 H 0.59667 0.46292 0.06459 0.0
H691 H 0.59299 0.43267 0.08776 0.0
H692 H 0.57206 0.65752 0.01944 0.0
H693 H 0.5656 0.62624 0.04157 0.0
H694 H 0.49288 0.6145 0.02576 0.0
H695 H 0.4993 0.64573 0.00354 0.0
Dy696 Dy 0.79453 0.30817 0.27741 0.0
Dy697 Dy 0.78683 0.26063 0.29964 0.0
C698 C 0.78158 0.30515 0.32689 0.0
O699 O 0.83035 0.30404 0.28385 0.0
O700 O 0.82377 0.28114 0.31139 0.0
O701 O 0.80953 0.34428 0.2798 0.0
O702 O 0.78476 0.32592 0.25078 0.0
O703 O 0.80366 0.25645 0.26938 0.0
O704 O 0.79321 0.2816 0.24859 0.0
O705 O 0.75151 0.25847 0.28148 0.0
O706 O 0.75674 0.29611 0.27934 0.0
O707 O 0.77251 0.22445 0.29528 0.0
O708 O 0.79454 0.242 0.32651 0.0
C709 C 0.83812 0.2941 0.30012 0.0
O710 O 0.7958 0.31634 0.31465 0.0
O711 O 0.77367 0.28304 0.32289 0.0
C712 C 0.78288 0.36225 0.26504 0.0
C713 C 0.75683 0.39346 0.27053 0.0
C714 C 0.75852 0.3789 0.28664 0.0
C715 C 0.77106 0.36329 0.2837 0.0
C716 C 0.78121 0.37648 0.24884 0.0
C717 C 0.76821 0.39174 0.25142 0.0
C718 C 0.79614 0.34576 0.26195 0.0
C719 C 0.80134 0.26436 0.2503 0.0
C720 C 0.74304 0.27546 0.27804 0.0
C721 C 0.79913 0.2068 0.31077 0.0
C722 C 0.8269 0.17725 0.3053 0.0
C723 C 0.81736 0.18494 0.28643 0.0
C724 C 0.80383 0.1996 0.28913 0.0
C725 C 0.80855 0.1992 0.32966 0.0
C726 C 0.82232 0.18466 0.32699 0.0
C727 C 0.78487 0.22249 0.31367 0.0
H728 H 0.75041 0.3796 0.30175 0.0
H729 H 0.77149 0.35195 0.29599 0.0
H730 H 0.7898 0.37565 0.23404 0.0
H731 H 0.76694 0.40196 0.23817 0.0
H732 H 0.82002 0.17941 0.26939 0.0
H733 H 0.797 0.20522 0.27416 0.0
H734 H 0.80537 0.20462 0.34654 0.0
H735 H 0.82958 0.17946 0.34201 0.0
Dy736 Dy 0.03292 0.55769 0.53244 0.0
Dy737 Dy 0.0342 0.5281 0.57328 0.0
C738 C 0.03943 0.50821 0.52273 0.0
O739 O 0.99918 0.53194 0.52715 0.0
O740 O 0.99783 0.52685 0.5642 0.0
O741 O 0.02273 0.56162 0.49789 0.0
O742 O 0.04333 0.59055 0.52189 0.0
O743 O 0.03523 0.5631 0.58982 0.0
O744 O 0.01716 0.57372 0.55946 0.0
O745 O 0.06936 0.53712 0.5646 0.0
O746 O 0.06734 0.57016 0.55312 0.0
O747 O 0.047 0.52459 0.60727 0.0
O748 O 0.02314 0.49604 0.58504 0.0
C749 C 0.98782 0.52438 0.54324 0.0
O750 O 0.04598 0.52902 0.51804 0.0
O751 O 0.0303 0.50415 0.5412 0.0
C752 C 0.05297 0.58617 0.48538 0.0
C753 C 0.08246 0.58545 0.45303 0.0
C754 C 0.08717 0.57871 0.47413 0.0
C755 C 0.07251 0.57905 0.49019 0.0
C756 C 0.04887 0.59416 0.4649 0.0
C757 C 0.06364 0.59391 0.44879 0.0
C758 C 0.03577 0.58238 0.50057 0.0
C759 C 0.02425 0.57656 0.58142 0.0
C760 C 0.07932 0.5571 0.55994 0.0
C761 C 0.018 0.50101 0.62274 0.0
C762 C 0.98768 0.49517 0.65464 0.0
C763 C 0.98619 0.50948 0.63841 0.0
C764 C 1.00124 0.51239 0.62261 0.0
C765 C 0.0194 0.48636 0.63854 0.0
C766 C 1.00433 0.48351 0.65454 0.0
C767 C 0.03327 0.50419 0.60571 0.0
H768 H 0.10168 0.57234 0.47784 0.0
H769 H 0.07584 0.57273 0.50594 0.0
H770 H 0.03374 0.59954 0.46095 0.0
H771 H 0.0596 0.59904 0.43254 0.0
H772 H 0.97391 0.51911 0.63841 0.0
H773 H 0.99997 0.52373 0.61041 0.0
H774 H 0.03219 0.47733 0.6386 0.0
H775 H 1.00579 0.47241 0.66694 0.0
Dy776 Dy 0.80972 0.77887 0.29681 0.0
Dy777 Dy 0.762 0.79455 0.29412 0.0
C778 C 0.80992 0.8299 0.29016 0.0
O779 O 0.80228 0.78222 0.33299 0.0
O780 O 0.78042 0.8067 0.32973 0.0
O781 O 0.84543 0.78391 0.30915 0.0
O782 O 0.82669 0.75449 0.28484 0.0
O783 O 0.75573 0.76235 0.30878 0.0
O784 O 0.78033 0.74739 0.29097 0.0
O785 O 0.76403 0.78032 0.25782 0.0
O786 O 0.80261 0.78514 0.26121 0.0
O787 O 0.7255 0.785 0.28369 0.0
O788 O 0.7426 0.81781 0.3035 0.0
C789 C 0.79262 0.79689 0.34231 0.0
O790 O 0.82057 0.81637 0.29878 0.0
O791 O 0.78757 0.82398 0.28433 0.0
C792 C 0.86526 0.77048 0.28128 0.0
C793 C 0.89959 0.77587 0.25266 0.0
C794 C 0.88449 0.78934 0.25232 0.0
C795 C 0.86745 0.78661 0.26643 0.0
C796 C 0.88036 0.7572 0.28184 0.0
C797 C 0.89733 0.75985 0.26773 0.0
C798 C 0.84669 0.76654 0.29539 0.0
C799 C 0.7622 0.74482 0.30117 0.0
C800 C 0.78275 0.78115 0.24854 0.0
C801 C 0.70504 0.79967 0.31052 0.0
C802 C 0.66962 0.79365 0.33831 0.0
C803 C 0.67907 0.77594 0.33195 0.0
C804 C 0.69655 0.77892 0.31831 0.0
C805 C 0.69587 0.81742 0.317 0.0
C806 C 0.67849 0.8145 0.33073 0.0
C807 C 0.72301 0.80304 0.29537 0.0
H808 H 0.88552 0.80166 0.2408 0.0
H809 H 0.8558 0.7969 0.26555 0.0
H810 H 0.87892 0.7446 0.29311 0.0
H811 H 0.90881 0.7494 0.26875 0.0
H812 H 0.67267 0.75955 0.33712 0.0
H813 H 0.70327 0.76488 0.31371 0.0
H814 H 0.70213 0.83362 0.31136 0.0
H815 H 0.67215 0.82874 0.33552 0.0
Dy816 Dy 0.82096 0.30118 0.77297 0.0
Dy817 Dy 0.78068 0.2895 0.80971 0.0
C818 C 0.81487 0.33674 0.81488 0.0
O819 O 0.83666 0.28715 0.80197 0.0
O820 O 0.81363 0.28882 0.8302 0.0
O821 O 0.8393 0.33045 0.75979 0.0
O822 O 0.84892 0.29939 0.75455 0.0
O823 O 0.78835 0.26816 0.78297 0.0
O824 O 0.80922 0.26505 0.75657 0.0
O825 O 0.76132 0.29878 0.78054 0.0
O826 O 0.78701 0.30338 0.75442 0.0
O827 O 0.75672 0.25876 0.8151 0.0
O828 O 0.75784 0.2911 0.83429 0.0
C829 C 0.83249 0.28583 0.82315 0.0
O830 O 0.82821 0.32686 0.80446 0.0
O831 O 0.79367 0.32638 0.81637 0.0
C832 C 0.84823 0.32021 0.72392 0.0
C833 C 0.82933 0.32032 0.67938 0.0
C834 C 0.83765 0.34064 0.69451 0.0
C835 C 0.84734 0.34064 0.7166 0.0
C836 C 0.84203 0.30027 0.708 0.0
C837 C 0.83268 0.30038 0.68575 0.0
C838 C 0.85077 0.31924 0.74845 0.0
C839 C 0.79289 0.25527 0.76694 0.0
C840 C 0.76663 0.30282 0.76036 0.0
C841 C 0.75278 0.26023 0.85378 0.0
C842 C 0.76256 0.25077 0.89776 0.0
C843 C 0.77552 0.24615 0.88087 0.0
C844 C 0.77077 0.25098 0.85909 0.0
C845 C 0.73917 0.26393 0.87025 0.0
C846 C 0.74405 0.25928 0.89215 0.0
C847 C 0.75036 0.2691 0.8324 0.0
H848 H 0.8354 0.35624 0.68963 0.0
H849 H 0.85223 0.35625 0.72849 0.0
H850 H 0.84272 0.28428 0.71307 0.0
H851 H 0.82647 0.28462 0.67409 0.0
H852 H 0.78954 0.23908 0.88454 0.0
H853 H 0.78166 0.24818 0.84667 0.0
H854 H 0.72541 0.27132 0.86643 0.0
H855 H 0.73384 0.26309 0.90486 0.0
Dy856 Dy 0.77127 0.7662 0.78094 0.0
Dy857 Dy 0.80197 0.81433 0.80807 0.0
C858 C 0.79012 0.77266 0.83518 0.0
O859 O 0.74401 0.78372 0.7858 0.0
O860 O 0.76516 0.81272 0.81321 0.0
O861 O 0.74315 0.73606 0.77888 0.0
O862 O 0.76469 0.73942 0.75256 0.0
O863 O 0.79731 0.82051 0.77153 0.0
O864 O 0.77145 0.78746 0.75354 0.0
O865 O 0.83011 0.79929 0.79919 0.0
O866 O 0.80818 0.76568 0.77799 0.0
O867 O 0.82609 0.84719 0.80979 0.0
O868 O 0.8099 0.83829 0.839 0.0
C869 C 0.74511 0.80051 0.80184 0.0
O870 O 0.77386 0.76224 0.81819 0.0
O871 O 0.80602 0.7908 0.8328 0.0
C872 C 0.75464 0.70462 0.76502 0.0
C873 C 0.77716 0.67188 0.77143 0.0
C874 C 0.77311 0.68511 0.79022 0.0
C875 C 0.76201 0.70142 0.78707 0.0
C876 C 0.75697 0.69014 0.74623 0.0
C877 C 0.76817 0.67375 0.74942 0.0
C878 C 0.74941 0.72568 0.76164 0.0
C879 C 0.78449 0.80785 0.75305 0.0
C880 C 0.82849 0.78013 0.78615 0.0
C881 C 0.81319 0.87434 0.83025 0.0
C882 C 0.79461 0.91091 0.83206 0.0
C883 C 0.7846 0.89142 0.81597 0.0
C884 C 0.79377 0.87329 0.81512 0.0
C885 C 0.82333 0.89366 0.84637 0.0
C886 C 0.81413 0.91196 0.84723 0.0
C887 C 0.82171 0.85457 0.82957 0.0
H888 H 0.77944 0.68354 0.80738 0.0
H889 H 0.7606 0.71246 0.80189 0.0
H890 H 0.75158 0.69257 0.72911 0.0
H891 H 0.77103 0.66356 0.73471 0.0
H892 H 0.76988 0.89031 0.80374 0.0
H893 H 0.78567 0.85838 0.80263 0.0
H894 H 0.83819 0.89454 0.8583 0.0
H895 H 0.82212 0.9268 0.85979 0.0
Dy896 Dy 0.57483 0.55159 0.56104 0.0
Dy897 Dy 0.52461 0.5236 0.53641 0.0
C898 C 0.56548 0.53461 0.50618 0.0
O899 O 0.5614 0.57978 0.55006 0.0
O900 O 0.52387 0.5606 0.53707 0.0
O901 O 0.6079 0.57489 0.56061 0.0
O902 O 0.60012 0.56073 0.59104 0.0
O903 O 0.52059 0.5281 0.57333 0.0
O904 O 0.55323 0.55617 0.58821 0.0
O905 O 0.54213 0.49575 0.54009 0.0
O906 O 0.57184 0.51537 0.56754 0.0
O907 O 0.49336 0.49709 0.53585 0.0
O908 O 0.49773 0.5162 0.50796 0.0
C909 C 0.54074 0.57981 0.54153 0.0
O910 O 0.58051 0.54103 0.52489 0.0
O911 O 0.54359 0.52867 0.50714 0.0
C912 C 0.63518 0.56185 0.58011 0.0
C913 C 0.66964 0.54049 0.58059 0.0
C914 C 0.6484 0.53009 0.56722 0.0
C915 C 0.63135 0.54068 0.56698 0.0
C916 C 0.65642 0.57261 0.59331 0.0
C917 C 0.67378 0.56198 0.59341 0.0
C918 C 0.6161 0.57138 0.58039 0.0
C919 C 0.53328 0.54281 0.59049 0.0
C920 C 0.55892 0.49586 0.55594 0.0
C921 C 0.46239 0.50871 0.52033 0.0
C922 C 0.42874 0.53098 0.52423 0.0
C923 C 0.442 0.52838 0.54376 0.0
C924 C 0.45873 0.51741 0.54184 0.0
C925 C 0.4483 0.51013 0.50086 0.0
C926 C 0.43159 0.5213 0.50278 0.0
C927 C 0.48336 0.50244 0.51789 0.0
H928 H 0.64501 0.51376 0.55678 0.0
H929 H 0.615 0.5322 0.55666 0.0
H930 H 0.65946 0.58896 0.60358 0.0
H931 H 0.69018 0.57027 0.60368 0.0
H932 H 0.44035 0.53596 0.56048 0.0
H933 H 0.46965 0.51695 0.55712 0.0
H934 H 0.45111 0.50377 0.48412 0.0
H935 H 0.4214 0.52298 0.48752 0.0
Dy936 Dy 0.01601 0.53632 0.05981 0.0
Dy937 Dy 0.06583 0.54239 0.0419 0.0
C938 C 0.02386 0.54852 0.00998 0.0
O939 O 0.01943 0.50043 0.05417 0.0
O940 O 0.04536 0.50575 0.02904 0.0
O941 O 0.97928 0.52223 0.05518 0.0
O942 O 0.99676 0.54479 0.08591 0.0
O943 O 0.0662 0.52628 0.07297 0.0
O944 O 0.04194 0.54177 0.09059 0.0
O945 O 0.06637 0.57862 0.05646 0.0
O946 O 0.02802 0.57348 0.05698 0.0
O947 O 0.10249 0.55455 0.05031 0.0
O948 O 0.08715 0.53541 0.01706 0.0
C949 C 0.03033 0.492 0.03903 0.0
O950 O 1.00999 0.53734 0.02263 0.0
O951 O 0.0461 0.55444 0.01539 0.0
C952 C 0.96103 0.54805 0.07116 0.0
C953 C 0.93117 0.57551 0.06789 0.0
C954 C 0.94819 0.57681 0.05372 0.0
C955 C 0.96298 0.56326 0.05537 0.0
C956 C 0.94421 0.54671 0.08536 0.0
C957 C 0.92944 0.56028 0.08377 0.0
C958 C 0.97711 0.53437 0.07363 0.0
C959 C 0.05844 0.53222 0.0914 0.0
C960 C 0.04885 0.58709 0.05831 0.0
C961 C 0.12129 0.52897 0.03396 0.0
C962 C 0.15094 0.50107 0.038 0.0
C963 C 0.14499 0.51193 0.05742 0.0
C964 C 0.13034 0.52559 0.05545 0.0
C965 C 0.1272 0.51822 0.01454 0.0
C966 C 0.14174 0.5044 0.01651 0.0
C967 C 0.10588 0.54364 0.0316 0.0
H968 H 0.94994 0.58812 0.04114 0.0
H969 H 0.976 0.56469 0.04436 0.0
H970 H 0.94262 0.53531 0.09786 0.0
H971 H 0.91687 0.55906 0.09525 0.0
H972 H 0.15195 0.51023 0.0743 0.0
H973 H 0.12622 0.53357 0.07084 0.0
H974 H 0.12049 0.52046 0.99776 0.0
H975 H 0.14555 0.49613 0.00111 0.0
H976 H 0.98168 0.20558 0.01376 0.0
H977 H 0.03924 0.21012 0.97779 0.0
H978 H 0.98606 0.17014 0.02598 0.0
H979 H 0.04403 0.17551 0.99045 0.0
H980 H 0.06068 0.1236 0.03478 0.0
H981 H 0.05532 0.15914 0.02483 0.0
H982 H 0.98272 0.12815 0.01018 0.0
H983 H 0.98817 0.09222 0.01949 0.0
C984 C 0.99553 0.1994 0.00873 0.0
C985 C 1.01017 0.21134 0.99477 0.0
C986 C 0.99795 0.17875 0.01561 0.0
C987 C 0.01551 0.16942 0.0094 0.0
C988 C 0.03039 0.18177 0.99595 0.0
C989 C 0.02759 0.20189 0.98859 0.0
C990 C 0.04348 0.12419 0.02953 0.0
C991 C 0.02496 0.10448 0.02809 0.0
C992 C 0.04037 0.1448 0.02364 0.0
C993 C 0.01851 0.14711 0.01653 0.0
C994 C 0.99987 0.12756 0.01563 0.0
C995 C 1.00304 0.10669 0.02095 0.0
H996 H 0.1142 0.79261 0.18731 0.0
H997 H 0.15678 0.83225 0.14533 0.0
H998 H 0.14754 0.79099 0.21134 0.0
H999 H 0.19082 0.83162 0.17048 0.0
H1000 H 0.24776 0.80691 0.20846 0.0
H1001 H 0.21541 0.81077 0.18321 0.0
H1002 H 0.17685 0.80934 0.23945 0.0
H1003 H 0.2085 0.80443 0.26405 0.0
C1004 C 0.13074 0.80147 0.18338 0.0
C1005 C 0.13249 0.81275 0.16424 0.0
C1006 C 0.15014 0.80065 0.19746 0.0
C1007 C 0.17233 0.81137 0.19336 0.0
C1008 C 0.1742 0.82291 0.1743 0.0
C1009 C 0.1546 0.8235 0.15991 0.0
C1010 C 0.23232 0.80735 0.21539 0.0
C1011 C 0.23082 0.80502 0.23837 0.0
C1012 C 0.2137 0.80975 0.20088 0.0
C1013 C 0.19301 0.8101 0.20891 0.0
C1014 C 0.19195 0.80847 0.23211 0.0
C1015 C 0.21036 0.80579 0.24645 0.0
H1016 H 0.51221 0.83899 0.53498 0.0
H1017 H 0.53346 0.85732 0.47189 0.0
H1018 H 0.51664 0.87931 0.54883 0.0
H1019 H 0.53833 0.89698 0.48569 0.0
H1020 H 0.56759 0.96922 0.52529 0.0
H1021 H 0.56354 0.92897 0.51516 0.0
H1022 H 0.4984 0.91242 0.53915 0.0
H1023 H 0.50216 0.95307 0.5488 0.0
C1024 C 0.51824 0.85151 0.5242 0.0
C1025 C 0.52269 0.84453 0.50227 0.0
C1026 C 0.52055 0.87474 0.53206 0.0
C1027 C 0.52792 0.89185 0.51849 0.0
C1028 C 0.53283 0.88473 0.49689 0.0
C1029 C 0.53003 0.86173 0.48893 0.0
C1030 C 0.55232 0.95715 0.52849 0.0
C1031 C 0.53518 0.9649 0.53784 0.0
C1032 C 0.54997 0.93383 0.52259 0.0
C1033 C 0.53062 0.91696 0.52624 0.0
C1034 C 0.51366 0.92462 0.53613 0.0
C1035 C 0.51576 0.94809 0.54155 0.0
H1036 H 0.54041 0.28257 0.70888 0.0
H1037 H 0.50484 0.30337 0.65305 0.0
H1038 H 0.50807 0.27984 0.72939 0.0
H1039 H 0.47167 0.29943 0.673 0.0
H1040 H 0.42165 0.30726 0.7225 0.0
H1041 H 0.45484 0.31292 0.70274 0.0
H1042 H 0.47183 0.2575 0.7307 0.0
H1043 H 0.43988 0.25307 0.75173 0.0
C1044 C 0.52556 0.28646 0.70092 0.0
C1045 C 0.52522 0.29316 0.67931 0.0
C1046 C 0.50681 0.28468 0.71262 0.0
C1047 C 0.48685 0.28905 0.70287 0.0
C1048 C 0.48669 0.29614 0.68131 0.0
C1049 C 0.50571 0.29834 0.66977 0.0
C1050 C 0.43266 0.2965 0.72475 0.0
C1051 C 0.42791 0.27973 0.73892 0.0
C1052 C 0.45161 0.29954 0.71307 0.0
C1053 C 0.46634 0.28579 0.71505 0.0
C1054 C 0.46135 0.26883 0.72897 0.0
C1055 C 0.44261 0.26597 0.74082 0.0
H1056 H 0.01344 0.83033 0.67146 0.0
H1057 H 0.06389 0.80938 0.63668 0.0
H1058 H 0.01614 0.86117 0.64892 0.0
H1059 H 0.06686 0.84021 0.61457 0.0
H1060 H 0.05007 0.88251 0.56189 0.0
H1061 H 0.04582 0.85194 0.58449 0.0
H1062 H 0.04156 0.89716 0.64318 0.0
H1063 H 0.04594 0.92791 0.62054 0.0
C1064 C 0.02511 0.83228 0.65904 0.0
C1065 C 0.03836 0.81725 0.65586 0.0
C1066 C 0.02677 0.85007 0.64619 0.0
C1067 C 0.04166 0.85322 0.62977 0.0
C1068 C 0.05492 0.83817 0.62672 0.0
C1069 C 0.0533 0.8205 0.63955 0.0
C1070 C 0.04843 0.88608 0.57966 0.0
C1071 C 0.04852 0.90787 0.58931 0.0
C1072 C 0.04596 0.86846 0.59267 0.0
C1073 C 0.04347 0.87199 0.61579 0.0
C1074 C 0.04317 0.89367 0.6254 0.0
C1075 C 0.04568 0.91135 0.61236 0.0
H1076 H 0.48742 0.84661 0.81503 0.0
H1077 H 0.47207 0.78362 0.84165 0.0
H1078 H 0.44687 0.84129 0.80374 0.0
H1079 H 0.4315 0.77748 0.82935 0.0
H1080 H 0.35757 0.77933 0.82394 0.0
H1081 H 0.3981 0.78465 0.83439 0.0
H1082 H 0.41243 0.82593 0.78148 0.0
H1083 H 0.3717 0.82136 0.77186 0.0
C1084 C 0.47542 0.83134 0.81816 0.0
C1085 C 0.48342 0.81559 0.82935 0.0
C1086 C 0.45183 0.82816 0.81152 0.0
C1087 C 0.43505 0.8089 0.8155 0.0
C1088 C 0.44325 0.79288 0.82625 0.0
C1089 C 0.46684 0.79625 0.83317 0.0
C1090 C 0.36929 0.78963 0.8145 0.0
C1091 C 0.36089 0.79995 0.79701 0.0
C1092 C 0.3929 0.79257 0.82041 0.0
C1093 C 0.40939 0.80574 0.80893 0.0
C1094 C 0.40088 0.81596 0.79128 0.0
C1095 C 0.37721 0.81322 0.78555 0.0
H1096 H 0.53494 0.20058 0.13668 0.0
H1097 H 0.49875 0.15998 0.18217 0.0
H1098 H 0.53605 0.16692 0.11297 0.0
H1099 H 0.49885 0.12559 0.15747 0.0
H1100 H 0.52299 0.06847 0.11838 0.0
H1101 H 0.51957 0.10105 0.14366 0.0
H1102 H 0.51657 0.13685 0.08626 0.0
H1103 H 0.52109 0.10511 0.06167 0.0
C1104 C 0.52674 0.1844 0.14149 0.0
C1105 C 0.51657 0.18331 0.16148 0.0
C1106 C 0.52725 0.1648 0.12761 0.0
C1107 C 0.51731 0.14305 0.1328 0.0
C1108 C 0.50692 0.14185 0.15276 0.0
C1109 C 0.50662 0.16165 0.16691 0.0
C1110 C 0.52161 0.08334 0.11122 0.0
C1111 C 0.52268 0.0841 0.08791 0.0
C1112 C 0.5195 0.1021 0.12575 0.0
C1113 C 0.51813 0.12214 0.11738 0.0
C1114 C 0.51833 0.12233 0.09385 0.0
C1115 C 0.52076 0.10385 0.07953 0.0
H1116 H 0.10198 0.26457 0.31451 0.0
H1117 H 0.13335 0.33378 0.34533 0.0
H1118 H 0.13847 0.26191 0.30406 0.0
H1119 H 0.16986 0.33153 0.33426 0.0
H1120 H 0.239 0.31668 0.32906 0.0
H1121 H 0.20249 0.32005 0.33903 0.0
H1122 H 0.1672 0.26872 0.28213 0.0
H1123 H 0.2037 0.26495 0.27277 0.0
C1124 C 0.11659 0.27943 0.31886 0.0
C1125 C 0.11421 0.29944 0.33083 0.0
C1126 C 0.13783 0.27796 0.31269 0.0
C1127 C 0.15791 0.29646 0.31807 0.0
C1128 C 0.15539 0.31658 0.32988 0.0
C1129 C 0.13412 0.31801 0.33614 0.0
C1130 C 0.22349 0.30609 0.31858 0.0
C1131 C 0.22481 0.29047 0.3 0.0
C1132 C 0.20222 0.30812 0.32427 0.0
C1133 C 0.18109 0.29467 0.31164 0.0
C1134 C 0.18255 0.27925 0.29285 0.0
C1135 C 0.2038 0.27717 0.28724 0.0
H1136 H 1.01085 0.04042 0.2281 0.0
H1137 H 0.94181 0.02515 0.19417 0.0
H1138 H 0.02499 0.04529 0.19186 0.0
H1139 H 0.95549 0.02844 0.158 0.0
H1140 H 0.98398 0.05144 0.09572 0.0
H1141 H 0.97142 0.04984 0.13287 0.0
H1142 H 0.03096 0.03036 0.15742 0.0
H1143 H 0.04404 0.03353 0.12082 0.0
C1144 C 0.99866 0.03788 0.21289 0.0
C1145 C 0.97517 0.03256 0.21426 0.0
C1146 C 1.00674 0.04051 0.19189 0.0
C1147 C 0.99155 0.03742 0.17146 0.0
C1148 C 0.96803 0.0317 0.17303 0.0
C1149 C 0.96006 0.02957 0.19397 0.0
C1150 C 0.99443 0.04697 0.10912 0.0
C1151 C 0.01507 0.04271 0.10513 0.0
C1152 C 0.98713 0.0458 0.13057 0.0
C1153 C 0.99993 0.03975 0.14867 0.0
C1154 C 0.02062 0.0355 0.14448 0.0
C1155 C 0.02813 0.03717 0.12322 0.0
H1156 H 0.30225 0.68716 0.48524 0.0
H1157 H 0.25754 0.71531 0.52274 0.0
H1158 H 0.29818 0.71084 0.45601 0.0
H1159 H 0.25372 0.73886 0.49382 0.0
H1160 H 0.23007 0.75326 0.4227 0.0
H1161 H 0.23559 0.73158 0.45318 0.0
H1162 H 0.30836 0.75255 0.45234 0.0
H1163 H 0.30294 0.77456 0.42212 0.0
C1164 C 0.29168 0.69843 0.48728 0.0
C1165 C 0.28013 0.69931 0.50617 0.0
C1166 C 0.28944 0.71201 0.47066 0.0
C1167 C 0.27555 0.72654 0.47271 0.0
C1168 C 0.26427 0.72758 0.49173 0.0
C1169 C 0.26656 0.71413 0.5083 0.0
C1170 C 0.24727 0.7536 0.42934 0.0
C1171 C 0.26606 0.76552 0.42003 0.0
C1172 C 0.25041 0.74112 0.44666 0.0
C1173 C 0.27239 0.74031 0.4549 0.0
C1174 C 0.29123 0.75263 0.44597 0.0
C1175 C 0.28811 0.76522 0.42876 0.0
H1176 H 0.66556 0.01232 0.68726 0.0
H1177 H 0.61375 0.01911 0.72872 0.0
H1178 H 0.63865 0.00894 0.65319 0.0
H1179 H 0.58702 0.01595 0.69457 0.0
H1180 H 0.54346 0.00414 0.62339 0.0
H1181 H 0.56535 0.99418 0.65536 0.0
H1182 H 0.62625 0.04323 0.64399 0.0
H1183 H 0.60478 0.05325 0.6126 0.0
C1184 C 0.64826 0.01236 0.68912 0.0
C1185 C 0.64196 0.01662 0.71067 0.0
C1186 C 0.6329 0.0105 0.66961 0.0
C1187 C 0.61102 0.01275 0.67139 0.0
C1188 C 0.60383 0.01425 0.69279 0.0
C1189 C 0.61921 0.01618 0.71232 0.0
C1190 C 0.5615 0.01281 0.62785 0.0
C1191 C 0.57238 0.0295 0.61552 0.0
C1192 C 0.57398 0.00701 0.64598 0.0
C1193 C 0.59752 0.01759 0.65172 0.0
C1194 C 0.60824 0.03437 0.63952 0.0
C1195 C 0.59582 0.04032 0.6217 0.0
H1196 H 0.33012 0.31761 0.98704 0.0
H1197 H 0.27125 0.34169 0.97365 0.0
H1198 H 0.32895 0.30678 0.94638 0.0
H1199 H 0.2694 0.33002 0.93305 0.0
H1200 H 0.28603 0.33158 0.86142 0.0
H1201 H 0.28703 0.3403 0.90206 0.0
H1202 H 0.31181 0.28289 0.91199 0.0
H1203 H 0.31158 0.27465 0.87096 0.0
C1204 C 0.31663 0.32024 0.97545 0.0
C1205 C 0.30082 0.33064 0.98379 0.0
C1206 C 0.31591 0.31391 0.95197 0.0
C1207 C 0.29923 0.31764 0.93601 0.0
C1208 C 0.28292 0.32732 0.94452 0.0
C1209 C 0.2838 0.33384 0.96796 0.0
C1210 C 0.29177 0.32076 0.87218 0.0
C1211 C 0.29872 0.30234 0.86267 0.0
C1212 C 0.29213 0.32567 0.89569 0.0
C1213 C 0.29921 0.31222 0.91071 0.0
C1214 C 0.30641 0.29387 0.90123 0.0
C1215 C 0.30624 0.28905 0.87758 0.0
H1216 H 0.9832 0.05855 0.35533 0.0
H1217 H 1.00719 -0.00017 0.34264 0.0
H1218 H 0.99643 0.0621 0.39581 0.0
H1219 H 0.01952 0.00266 0.38318 0.0
H1220 H 0.05434 0.02208 0.45723 0.0
H1221 H 0.04464 0.02067 0.41629 0.0
H1222 H 0.98775 0.04653 0.42812 0.0
H1223 H 0.99801 0.04878 0.46873 0.0
C1224 C 0.99136 0.0464 0.36116 0.0
C1225 C 0.9941 0.02892 0.34557 0.0
C1226 C 0.99878 0.04826 0.38454 0.0
C1227 C 1.00891 0.03251 0.39321 0.0
C1228 C 0.01211 0.01534 0.37745 0.0
C1229 C 1.00492 0.01364 0.35404 0.0
C1230 C 0.03977 0.02747 0.45106 0.0
C1231 C 0.02705 0.0356 0.46648 0.0
C1232 C 0.03409 0.02658 0.42746 0.0
C1233 C 0.01538 0.03361 0.4185 0.0
C1234 C 1.00259 0.04147 0.43404 0.0
C1235 C 1.00839 0.04257 0.45754 0.0
H1236 H 0.31671 0.66744 0.64351 0.0
H1237 H 0.31356 0.72118 0.60448 0.0
H1238 H 0.31932 0.69294 0.67835 0.0
H1239 H 0.3157 0.74646 0.63938 0.0
H1240 H 0.32526 0.78705 0.71137 0.0
H1241 H 0.33554 0.76635 0.67863 0.0
H1242 H 0.28561 0.70532 0.68788 0.0
H1243 H 0.27558 0.72563 0.72028 0.0
C1244 C 0.31713 0.68482 0.64239 0.0
C1245 C 0.31417 0.69214 0.62128 0.0
C1246 C 0.3186 0.69937 0.66231 0.0
C1247 C 0.31705 0.72138 0.66136 0.0
C1248 C 0.31678 0.7295 0.64049 0.0
C1249 C 0.31538 0.71495 0.62053 0.0
C1250 C 0.31642 0.76926 0.70618 0.0
C1251 C 0.29973 0.75787 0.71833 0.0
C1252 C 0.32242 0.75745 0.68767 0.0
C1253 C 0.31178 0.73419 0.68122 0.0
C1254 C 0.29465 0.72308 0.69301 0.0
C1255 C 0.28872 0.73478 0.7114 0.0
H1256 H 0.61386 0.05165 0.81086 0.0
H1257 H 0.67857 0.06461 0.85353 0.0
H1258 H 0.59603 0.05904 0.84399 0.0
H1259 H 0.66099 0.07329 0.88698 0.0
H1260 H 0.61222 0.06137 0.9416 0.0
H1261 H 0.63448 0.05722 0.91105 0.0
H1262 H 0.59522 0.09033 0.87001 0.0
H1263 H 0.57189 0.0929 0.89986 0.0
C1264 C 0.62423 0.05611 0.82745 0.0
C1265 C 0.64749 0.0576 0.8298 0.0
C1266 C 0.61413 0.06067 0.8464 0.0
C1267 C 0.62722 0.06735 0.86807 0.0
C1268 C 0.65045 0.06818 0.87051 0.0
C1269 C 0.66049 0.06315 0.85146 0.0
C1270 C 0.60837 0.06776 0.92602 0.0
C1271 C 0.58989 0.07686 0.92285 0.0
C1272 C 0.62133 0.06564 0.90863 0.0
C1273 C 0.61621 0.07289 0.88788 0.0
C1274 C 0.59909 0.0839 0.88556 0.0
C1275 C 0.58593 0.08571 0.9028 0.0
H1276 H 0.28817 0.31056 0.10041 0.0
H1277 H 0.29969 0.37784 0.13625 0.0
H1278 H 0.28447 0.29543 0.13616 0.0
H1279 H 0.29756 0.36325 0.17191 0.0
H1280 H 0.27677 0.33219 0.23353 0.0
H1281 H 0.2772 0.34557 0.19693 0.0
H1282 H 0.30053 0.2895 0.17009 0.0
H1283 H 0.29858 0.27552 0.20632 0.0
C1284 C 0.29008 0.32217 0.11592 0.0
C1285 C 0.29406 0.34545 0.11522 0.0
C1286 C 0.28815 0.31352 0.13665 0.0
C1287 C 0.29061 0.32791 0.15749 0.0
C1288 C 0.29486 0.35125 0.15657 0.0
C1289 C 0.2963 0.35977 0.1359 0.0
C1290 C 0.28188 0.32266 0.21977 0.0
C1291 C 0.2876 0.30272 0.22305 0.0
C1292 C 0.28237 0.33047 0.19861 0.0
C1293 C 0.28912 0.31892 0.18002 0.0
C1294 C 0.29482 0.2989 0.18346 0.0
C1295 C 0.29387 0.29087 0.20449 0.0
H1296 H 0.20598 0.9301 0.02423 0.0
H1297 H 0.2571 0.98914 0.01293 0.0
H1298 H 0.18252 0.95395 0.03691 0.0
H1299 H 0.23339 0.01294 0.02445 0.0
H1300 H 0.20265 0.05186 0.07306 0.0
H1301 H 0.22347 0.02513 0.06108 0.0
H1302 H 0.16054 0.97867 0.02482 0.0
H1303 H 0.13986 0.00511 0.03737 0.0
C1304 C 0.21167 0.9481 0.02367 0.0
C1305 C 0.23304 0.95803 0.01761 0.0
C1306 C 0.19843 0.96173 0.03104 0.0
C1307 C 0.20645 0.98531 0.03212 0.0
C1308 C 0.22717 0.99489 0.02445 0.0
C1309 C 0.24052 0.98134 0.01751 0.0
C1310 C 0.1934 0.03576 0.06285 0.0
C1311 C 0.16995 0.03053 0.05567 0.0
C1312 C 0.20521 0.02061 0.05581 0.0
C1313 C 0.19362 0.00012 0.04157 0.0
C1314 C 0.16988 0.99437 0.03566 0.0
C1315 C 0.15813 0.00951 0.04268 0.0
H1316 H 0.69829 0.67176 0.01238 0.0
H1317 H 0.7309 0.62601 0.04164 0.0
H1318 H 0.6611 0.64464 0.01137 0.0
H1319 H 0.69364 0.59907 0.04091 0.0
H1320 H 0.62171 0.54877 0.02237 0.0
H1321 H 0.65884 0.57323 0.01718 0.0
H1322 H 0.63834 0.63205 0.04078 0.0
H1323 H 0.60152 0.60793 0.04569 0.0
C1324 C 0.69759 0.65583 0.01836 0.0
C1325 C 0.71765 0.65123 0.02729 0.0
C1326 C 0.67623 0.64032 0.01791 0.0
C1327 C 0.67435 0.61978 0.02633 0.0
C1328 C 0.69445 0.61465 0.03418 0.0
C1329 C 0.71584 0.6302 0.03469 0.0
C1330 C 0.62512 0.56693 0.02633 0.0
C1331 C 0.6086 0.57632 0.03452 0.0
C1332 C 0.64642 0.58093 0.02344 0.0
C1333 C 0.65154 0.60462 0.02845 0.0
C1334 C 0.63489 0.61393 0.03638 0.0
C1335 C 0.61377 0.60001 0.03941 0.0
H1336 H 0.65266 0.46482 0.29075 0.0
H1337 H 0.71317 0.5168 0.28417 0.0
H1338 H 0.67323 0.43645 0.28625 0.0
H1339 H 0.73446 0.48922 0.28174 0.0
H1340 H 0.76395 0.43492 0.25562 0.0
H1341 H 0.74207 0.46152 0.25954 0.0
H1342 H 0.69883 0.4189 0.29909 0.0
H1343 H 0.71903 0.39087 0.29269 0.0
C1344 C 0.67054 0.4702 0.28881 0.0
C1345 C 0.68128 0.49296 0.28763 0.0
C1346 C 0.68249 0.45395 0.28635 0.0
C1347 C 0.70572 0.46018 0.28332 0.0
C1348 C 0.71652 0.48328 0.28316 0.0
C1349 C 0.70437 0.4993 0.28486 0.0
C1350 C 0.74946 0.43078 0.2647 0.0
C1351 C 0.74347 0.41036 0.27368 0.0
C1352 C 0.73707 0.44651 0.26747 0.0
C1353 C 0.71859 0.44286 0.27997 0.0
C1354 C 0.71266 0.4225 0.28911 0.0
C1355 C 0.72469 0.40644 0.28579 0.0
H1356 H 0.84233 0.46648 0.53003 0.0
H1357 H 0.86676 0.4125 0.49968 0.0
H1358 H 0.88059 0.49215 0.53536 0.0
H1359 H 0.9054 0.43869 0.50503 0.0
H1360 H 0.96602 0.50265 0.50147 0.0
H1361 H 0.92699 0.47773 0.49199 0.0
H1362 H 0.91677 0.49083 0.56189 0.0
H1363 H 0.95584 0.51551 0.57154 0.0
C1364 C 0.85583 0.46008 0.52436 0.0
C1365 C 0.8516 0.43733 0.51472 0.0
C1366 C 0.8777 0.47483 0.52745 0.0
C1367 C 0.89577 0.46723 0.52082 0.0
C1368 C 0.89156 0.44483 0.51023 0.0
C1369 C 0.86957 0.42989 0.50725 0.0
C1370 C 0.95535 0.50039 0.51475 0.0
C1371 C 0.96383 0.51103 0.53723 0.0
C1372 C 0.93317 0.48602 0.50933 0.0
C1373 C 0.91911 0.48246 0.52624 0.0
C1374 C 0.9274 0.49348 0.54858 0.0
C1375 C 0.94967 0.50754 0.55409 0.0
H1376 H 0.32506 0.0419 0.28676 0.0
H1377 H 0.38024 0.10382 0.3059 0.0
H1378 H 0.29982 0.06338 0.27306 0.0
H1379 H 0.35494 0.12513 0.29194 0.0
H1380 H 0.26366 0.12401 0.27692 0.0
H1381 H 0.28428 0.09854 0.29069 0.0
H1382 H 0.33534 0.12086 0.2478 0.0
H1383 H 0.31434 0.14556 0.23311 0.0
C1384 C 0.33171 0.0601 0.28827 0.0
C1385 C 0.35468 0.07123 0.29707 0.0
C1386 C 0.31726 0.0723 0.28049 0.0
C1387 C 0.32571 0.09569 0.28117 0.0
C1388 C 0.3483 0.10697 0.29099 0.0
C1389 C 0.36267 0.09484 0.29906 0.0
C1390 C 0.27882 0.12292 0.26978 0.0
C1391 C 0.28755 0.13703 0.25411 0.0
C1392 C 0.29068 0.10852 0.27787 0.0
C1393 C 0.31152 0.10833 0.27061 0.0
C1394 C 0.31948 0.12122 0.25391 0.0
C1395 C 0.30747 0.13528 0.24554 0.0
H1396 H 0.32765 0.13872 0.5812 0.0
H1397 H 0.35468 0.16475 0.52298 0.0
H1398 H 0.35526 0.11734 0.5841 0.0
H1399 H 0.38223 0.1428 0.5256 0.0
H1400 H 0.44244 0.11631 0.55229 0.0
H1401 H 0.41608 0.1393 0.54881 0.0
H1402 H 0.36216 0.08465 0.56405 0.0
H1403 H 0.38834 0.06173 0.56741 0.0
C1404 C 0.33947 0.13985 0.56894 0.0
C1405 C 0.33883 0.15339 0.55177 0.0
C1406 C 0.35526 0.12744 0.57053 0.0
C1407 C 0.37086 0.12808 0.55494 0.0
C1408 C 0.37057 0.14199 0.53799 0.0
C1409 C 0.35472 0.15451 0.53642 0.0
C1410 C 0.4249 0.10911 0.5547 0.0
C1411 C 0.41763 0.08715 0.56031 0.0
C1412 C 0.40977 0.12232 0.55269 0.0
C1413 C 0.38699 0.11394 0.55631 0.0
C1414 C 0.37969 0.09189 0.56162 0.0
C1415 C 0.39476 0.07871 0.56359 0.0
H1416 H 0.652 0.62819 0.31548 0.0
H1417 H 0.70816 0.60022 0.30712 0.0
H1418 H 0.6768 0.66581 0.31483 0.0
H1419 H 0.73333 0.63805 0.30746 0.0
H1420 H 0.76431 0.70392 0.28043 0.0
H1421 H 0.74102 0.66639 0.28424 0.0
H1422 H 0.70708 0.6963 0.33352 0.0
H1423 H 0.72966 0.73379 0.32888 0.0
C1424 C 0.66978 0.63011 0.31397 0.0
C1425 C 0.67802 0.61111 0.31125 0.0
C1426 C 0.6841 0.65179 0.31369 0.0
C1427 C 0.70716 0.65513 0.31095 0.0
C1428 C 0.71559 0.63618 0.3091 0.0
C1429 C 0.70119 0.61445 0.30912 0.0
C1430 C 0.75192 0.70247 0.29213 0.0
C1431 C 0.74879 0.72188 0.30425 0.0
C1432 C 0.73863 0.68089 0.29446 0.0
C1433 C 0.72204 0.67814 0.3092 0.0
C1434 C 0.71931 0.69763 0.32168 0.0
C1435 C 0.73239 0.7192 0.31912 0.0
H1436 H 0.90145 0.46697 0.82414 0.0
H1437 H 0.84888 0.48192 0.86019 0.0
H1438 H 0.88409 0.42697 0.82314 0.0
H1439 H 0.83193 0.4415 0.8603 0.0
H1440 H 0.79296 0.36892 0.82169 0.0
H1441 H 0.81088 0.40942 0.83284 0.0
H1442 H 0.87682 0.39722 0.8448 0.0
H1443 H 0.859 0.35703 0.83257 0.0
C1444 C 0.88661 0.46168 0.8326 0.0
C1445 C 0.87659 0.47747 0.84242 0.0
C1446 C 0.87666 0.43871 0.8321 0.0
C1447 C 0.85675 0.43105 0.84188 0.0
C1448 C 0.84718 0.44691 0.85249 0.0
C1449 C 0.85695 0.46999 0.8526 0.0
C1450 C 0.81122 0.37496 0.82717 0.0
C1451 C 0.82474 0.36012 0.8259 0.0
C1452 C 0.82148 0.39811 0.83365 0.0
C1453 C 0.84534 0.40653 0.83929 0.0
C1454 C 0.85849 0.39129 0.83993 0.0
C1455 C 0.84831 0.3683 0.83304 0.0
H1456 H 0.04126 0.86662 0.09866 0.0
H1457 H 0.1001 0.87727 0.06399 0.0
H1458 H 0.03537 0.902 0.08889 0.0
H1459 H 0.09428 0.9127 0.05412 0.0
H1460 H 0.08966 0.98697 0.05533 0.0
H1461 H 0.09601 0.95154 0.06476 0.0
H1462 H 0.0235 0.92264 0.06162 0.0
H1463 H 0.01727 0.95791 0.0523 0.0
C1464 C 0.05299 0.87637 0.08883 0.0
C1465 C 0.07119 0.86843 0.0822 0.0
C1466 C 0.04953 0.89694 0.08304 0.0
C1467 C 0.06421 0.91099 0.07046 0.0
C1468 C 0.0825 0.90304 0.06394 0.0
C1469 C 0.08581 0.88233 0.06954 0.0
C1470 C 0.07497 0.9731 0.05655 0.0
C1471 C 0.05283 0.97593 0.05283 0.0
C1472 C 0.07863 0.95242 0.06195 0.0
C1473 C 0.06039 0.93346 0.06423 0.0
C1474 C 0.0383 0.93641 0.06051 0.0
C1475 C 0.03464 0.95694 0.05489 0.0
H1476 H 0.91975 0.26531 0.94288 0.0
H1477 H 0.96177 0.27209 0.88957 0.0
H1478 H 0.88776 0.26823 0.9167 0.0
H1479 H 0.93062 0.27651 0.86383 0.0
H1480 H 0.86775 0.26848 0.81412 0.0
H1481 H 0.89752 0.26238 0.84043 0.0
H1482 H 0.86894 0.28844 0.89685 0.0
H1483 H 0.83828 0.29317 0.87024 0.0
C1484 C 0.92224 0.26755 0.92558 0.0
C1485 C 0.94349 0.26824 0.91846 0.0
C1486 C 0.90381 0.26946 0.91043 0.0
C1487 C 0.90603 0.27262 0.88766 0.0
C1488 C 0.92749 0.2735 0.88077 0.0
C1489 C 0.94568 0.27111 0.89575 0.0
C1490 C 0.8677 0.27284 0.83215 0.0
C1491 C 0.85045 0.28146 0.83984 0.0
C1492 C 0.88512 0.26954 0.84747 0.0
C1493 C 0.8864 0.27516 0.87124 0.0
C1494 C 0.86885 0.28354 0.87891 0.0
C1495 C 0.85114 0.28644 0.86352 0.0
H1496 H 0.5898 0.23727 0.56662 0.0
H1497 H 0.54837 0.22068 0.61926 0.0
H1498 H 0.58463 0.19665 0.55475 0.0
H1499 H 0.54399 0.18107 0.6083 0.0
H1500 H 0.52366 0.10774 0.57773 0.0
H1501 H 0.52752 0.14793 0.58495 0.0
H1502 H 0.59287 0.16242 0.56099 0.0
H1503 H 0.58842 0.12172 0.55291 0.0
C1504 C 0.57939 0.22513 0.57555 0.0
C1505 C 0.56944 0.23285 0.59394 0.0
C1506 C 0.5766 0.2016 0.56891 0.0
C1507 C 0.5637 0.18478 0.58032 0.0
C1508 C 0.55362 0.19274 0.59843 0.0
C1509 C 0.55634 0.21596 0.60494 0.0
C1510 C 0.53894 0.11936 0.57396 0.0
C1511 C 0.55576 0.11093 0.56485 0.0
C1512 C 0.54131 0.14281 0.57831 0.0
C1513 C 0.56079 0.15927 0.57405 0.0
C1514 C 0.57749 0.1508 0.56452 0.0
C1515 C 0.575 0.1272 0.55998 0.0
H1516 H 0.58521 0.77584 0.44814 0.0
H1517 H 0.53895 0.77974 0.39021 0.0
H1518 H 0.61573 0.77939 0.42485 0.0
H1519 H 0.56919 0.78247 0.3667 0.0
H1520 H 0.63325 0.81166 0.33592 0.0
H1521 H 0.6029 0.80714 0.35928 0.0
H1522 H 0.6311 0.76248 0.39561 0.0
H1523 H 0.66231 0.76813 0.37314 0.0
C1524 C 0.5814 0.77712 0.43034 0.0
C1525 C 0.55949 0.77756 0.42119 0.0
C1526 C 0.59898 0.77908 0.41687 0.0
C1527 C 0.5952 0.78138 0.39373 0.0
C1528 C 0.57309 0.78124 0.38449 0.0
C1529 C 0.55558 0.77946 0.39799 0.0
C1530 C 0.63326 0.80111 0.34908 0.0
C1531 C 0.65054 0.79039 0.35253 0.0
C1532 C 0.6155 0.7982 0.36234 0.0
C1533 C 0.61423 0.78432 0.37945 0.0
C1534 C 0.63146 0.77351 0.38285 0.0
C1535 C 0.64931 0.77652 0.36966 0.0
H1536 H 0.06429 0.24659 0.39623 0.0
H1537 H 0.03684 0.28356 0.44599 0.0
H1538 H 0.06123 0.21644 0.41941 0.0
H1539 H 0.03289 0.25311 0.46872 0.0
H1540 H 0.04553 0.20362 0.51528 0.0
H1541 H 0.051 0.23438 0.49284 0.0
H1542 H 0.03588 0.18598 0.43131 0.0
H1543 H 0.03087 0.15527 0.45389 0.0
C1544 C 0.05756 0.24832 0.41211 0.0
C1545 C 0.0509 0.26768 0.41915 0.0
C1546 C 0.0556 0.23084 0.42539 0.0
C1547 C 0.04668 0.23201 0.44609 0.0
C1548 C 0.04021 0.25153 0.45318 0.0
C1549 C 0.04239 0.26909 0.44001 0.0
C1550 C 0.04323 0.19948 0.49695 0.0
C1551 C 0.03768 0.17679 0.48651 0.0
C1552 C 0.04635 0.21723 0.48397 0.0
C1553 C 0.04386 0.21295 0.46005 0.0
C1554 C 0.03838 0.19022 0.44963 0.0
C1555 C 0.03543 0.17247 0.46264 0.0
H1556 H 0.60883 0.28703 0.22436 0.0
H1557 H 0.58943 0.2314 0.26184 0.0
H1558 H 0.64874 0.29101 0.23625 0.0
H1559 H 0.63011 0.23568 0.27438 0.0
H1560 H 0.70688 0.23556 0.27199 0.0
H1561 H 0.66573 0.23082 0.2633 0.0
H1562 H 0.67963 0.3029 0.26511 0.0
H1563 H 0.72024 0.30747 0.27315 0.0
C1564 C 0.61301 0.2758 0.23557 0.0
C1565 C 0.59541 0.25897 0.24216 0.0
C1566 C 0.63625 0.27817 0.24256 0.0
C1567 C 0.64331 0.26379 0.25651 0.0
C1568 C 0.62574 0.24709 0.26353 0.0
C1569 C 0.60223 0.2448 0.25658 0.0
C1570 C 0.70118 0.25042 0.2705 0.0
C1571 C 0.71737 0.27191 0.27313 0.0
C1572 C 0.67737 0.24771 0.26564 0.0
C1573 C 0.66877 0.26639 0.26315 0.0
C1574 C 0.68507 0.28786 0.26625 0.0
C1575 C 0.7087 0.29054 0.27106 0.0
H1576 H 0.57976 0.88051 0.94862 0.0
H1577 H 0.53359 0.89185 0.89484 0.0
H1578 H 0.57608 0.91301 0.97302 0.0
H1579 H 0.52877 0.92372 0.91961 0.0
H1580 H 0.53569 0.99121 0.96374 0.0
H1581 H 0.54135 0.96028 0.93813 0.0
H1582 H 0.55461 0.92737 0.99573 0.0
H1583 H 0.55021 0.9588 0.0211 0.0
C1584 C 0.56867 0.88987 0.94199 0.0
C1585 C 0.55703 0.88336 0.91961 0.0
C1586 C 0.56631 0.90857 0.95617 0.0
C1587 C 0.55185 0.92133 0.94874 0.0
C1588 C 0.54035 0.91485 0.92619 0.0
C1589 C 0.54302 0.89634 0.91187 0.0
C1590 C 0.53991 0.97739 0.97092 0.0
C1591 C 0.5426 0.97773 0.99463 0.0
C1592 C 0.54303 0.9594 0.95614 0.0
C1593 C 0.54861 0.9409 0.9645 0.0
C1594 C 0.55097 0.94128 0.98828 0.0
C1595 C 0.54824 0.95939 0.00302 0.0
H1596 H 0.9468 0.76934 0.71636 0.0
H1597 H 0.96202 0.74883 0.78107 0.0
H1598 H 0.91072 0.77412 0.72701 0.0
H1599 H 0.92638 0.75452 0.79209 0.0
H1600 H 0.87208 0.79399 0.81086 0.0
H1601 H 0.90759 0.78752 0.80046 0.0
H1602 H 0.87117 0.7497 0.73623 0.0
H1603 H 0.83542 0.75535 0.74705 0.0
C1604 C 0.94266 0.766 0.73297 0.0
C1605 C 0.95781 0.75869 0.74774 0.0
C1606 C 0.92172 0.76865 0.73909 0.0
C1607 C 0.91518 0.76478 0.76055 0.0
C1608 C 0.93052 0.75783 0.77547 0.0
C1609 C 0.95113 0.75451 0.76908 0.0
C1610 C 0.87146 0.78408 0.79458 0.0
C1611 C 0.8504 0.77516 0.77999 0.0
C1612 C 0.89202 0.78031 0.78857 0.0
C1613 C 0.89273 0.7681 0.76734 0.0
C1614 C 0.87169 0.7593 0.75267 0.0
C1615 C 0.85098 0.76244 0.75899 0.0
H1616 H 0.11738 0.03115 0.87136 0.0
H1617 H 0.06277 0.0612 0.85793 0.0
H1618 H 0.10746 0.02668 0.9095 0.0
H1619 H 0.05267 0.05642 0.89581 0.0
H1620 H 0.02643 0.0236 0.95656 0.0
H1621 H 0.03671 0.02599 0.91853 0.0
H1622 H 0.10789 0.05093 0.94698 0.0
H1623 H 0.0976 0.04882 0.98531 0.0
C1624 C 0.10311 0.03661 0.87641 0.0
C1625 C 0.09086 0.04648 0.86136 0.0
C1626 C 0.09752 0.0342 0.89841 0.0
C1627 C 0.07922 0.04118 0.90593 0.0
C1628 C 0.06674 0.05065 0.89069 0.0
C1629 C 0.07258 0.05345 0.86889 0.0
C1630 C 0.04434 0.02944 0.95484 0.0
C1631 C 0.06113 0.03598 0.97427 0.0
C1632 C 0.05022 0.03097 0.9329 0.0
C1633 C 0.07316 0.03877 0.92948 0.0
C1634 C 0.09006 0.04473 0.94883 0.0
C1635 C 0.08413 0.04357 0.97089 0.0
H1636 H 0.77734 0.32418 0.54086 0.0
H1637 H 0.76676 0.37904 0.58562 0.0
H1638 H 0.78273 0.30487 0.5733 0.0
H1639 H 0.77302 0.36039 0.61783 0.0
H1640 H 0.7882 0.32797 0.67517 0.0
H1641 H 0.76553 0.33119 0.64033 0.0
H1642 H 0.81596 0.31511 0.60151 0.0
H1643 H 0.83785 0.31087 0.63636 0.0
C1644 C 0.77564 0.33186 0.55751 0.0
C1645 C 0.77238 0.35344 0.56084 0.0
C1646 C 0.77882 0.32085 0.57608 0.0
C1647 C 0.77893 0.33137 0.59818 0.0
C1648 C 0.77303 0.35172 0.60107 0.0
C1649 C 0.76965 0.36259 0.58255 0.0
C1650 C 0.79406 0.32473 0.65902 0.0
C1651 C 0.81481 0.31963 0.65816 0.0
C1652 C 0.78114 0.32652 0.63915 0.0
C1653 C 0.78907 0.32369 0.61818 0.0
C1654 C 0.80918 0.31711 0.61731 0.0
C1655 C 0.8219 0.31495 0.6372 0.0
H1656 H 0.46582 0.08119 0.39221 0.0
H1657 H 0.49904 0.03266 0.36594 0.0
H1658 H 0.48521 0.08254 0.43031 0.0
H1659 H 0.51743 0.0332 0.40386 0.0
H1660 H 0.55514 0.04446 0.47441 0.0
H1661 H 0.54365 0.05237 0.43677 0.0
H1662 H 0.47873 0.05549 0.45607 0.0
H1663 H 0.49051 0.04844 0.49385 0.0
C1664 C 0.47759 0.07119 0.3945 0.0
C1665 C 0.48067 0.0566 0.3762 0.0
C1666 C 0.4885 0.07177 0.41631 0.0
C1667 C 0.50245 0.05761 0.42014 0.0
C1668 C 0.50691 0.04442 0.40152 0.0
C1669 C 0.49626 0.04405 0.37973 0.0
C1670 C 0.53844 0.04689 0.4706 0.0
C1671 C 0.52369 0.04577 0.48703 0.0
C1672 C 0.53188 0.05145 0.44906 0.0
C1673 C 0.51037 0.05475 0.4435 0.0
C1674 C 0.49565 0.05361 0.45998 0.0
C1675 C 0.50229 0.04928 0.48156 0.0
H1676 H 0.75711 0.75535 0.09675 0.0
H1677 H 0.81341 0.73039 0.11913 0.0
H1678 H 0.75582 0.76985 0.1365 0.0
H1679 H 0.81208 0.74452 0.1583 0.0
H1680 H 0.81912 0.78758 0.22514 0.0
H1681 H 0.81963 0.77853 0.18481 0.0
H1682 H 0.74603 0.75609 0.1731 0.0
H1683 H 0.74545 0.76556 0.21405 0.0
C1684 C 0.76949 0.75334 0.11003 0.0
C1685 C 0.78549 0.7418 0.10457 0.0
C1686 C 0.76856 0.76138 0.13289 0.0
C1687 C 0.78383 0.75842 0.15084 0.0
C1688 C 0.80019 0.74748 0.14514 0.0
C1689 C 0.80093 0.73928 0.12251 0.0
C1690 C 0.80291 0.78083 0.21413 0.0
C1691 C 0.78221 0.77712 0.22318 0.0
C1692 C 0.80324 0.77552 0.19081 0.0
C1693 C 0.78291 0.76621 0.17547 0.0
C1694 C 0.76208 0.7633 0.18428 0.0
C1695 C 0.76173 0.76865 0.20783 0.0
H1696 H 0.0695 0.0637 0.73696 0.0
H1697 H 0.1116 0.02253 0.71448 0.0
H1698 H 0.05533 0.06437 0.69707 0.0
H1699 H 0.09781 0.0234 0.67521 0.0
H1700 H 0.05434 0.00961 0.60709 0.0
H1701 H 0.06423 0.00904 0.64722 0.0
H1702 H 0.06831 0.07974 0.66191 0.0
H1703 H 0.05809 0.08035 0.62115 0.0
C1704 C 0.07551 0.05454 0.72361 0.0
C1705 C 0.09164 0.04292 0.72916 0.0
C1706 C 0.06758 0.05515 0.70069 0.0
C1707 C 0.07534 0.04393 0.68269 0.0
C1708 C 0.0911 0.03201 0.68839 0.0
C1709 C 0.0991 0.03156 0.7111 0.0
C1710 C 0.0572 0.02515 0.6187 0.0
C1711 C 0.05549 0.04511 0.61054 0.0
C1712 C 0.06304 0.02481 0.64191 0.0
C1713 C 0.06737 0.04438 0.65804 0.0
C1714 C 0.06503 0.06427 0.65009 0.0
C1715 C 0.05928 0.06467 0.62665 0.0
H1716 H 0.78709 0.40124 0.43624 0.0
H1717 H 0.729 0.34754 0.44501 0.0
H1718 H 0.78294 0.38601 0.39668 0.0
H1719 H 0.72326 0.33289 0.40454 0.0
H1720 H 0.75748 0.28941 0.36024 0.0
H1721 H 0.74468 0.31134 0.38944 0.0
H1722 H 0.7708 0.37172 0.35962 0.0
H1723 H 0.7859 0.35018 0.33227 0.0
C1724 C 0.77238 0.38703 0.42916 0.0
C1725 C 0.75855 0.37527 0.44341 0.0
C1726 C 0.76992 0.37814 0.40634 0.0
C1727 C 0.75332 0.35749 0.39752 0.0
C1728 C 0.73687 0.34821 0.41105 0.0
C1729 C 0.73981 0.3568 0.4341 0.0
C1730 C 0.76053 0.30738 0.36004 0.0
C1731 C 0.77301 0.31811 0.34421 0.0
C1732 C 0.75271 0.31998 0.37649 0.0
C1733 C 0.75671 0.3435 0.37708 0.0
C1734 C 0.76781 0.35381 0.36012 0.0
C1735 C 0.77638 0.34139 0.34428 0.0
H1736 H 0.4593 0.00981 0.27596 0.0
H1737 H 0.4129 0.03182 0.23092 0.0
H1738 H 0.47152 0.99146 0.2437 0.0
H1739 H 0.42637 0.01468 0.19804 0.0
H1740 H 0.44656 0.96972 0.14334 0.0
H1741 H 0.42856 0.9803 0.17579 0.0
H1742 H 0.49494 0.00498 0.21714 0.0
H1743 H 0.51253 0.99411 0.18532 0.0
C1744 C 0.45207 0.01103 0.259 0.0
C1745 C 0.43571 0.02266 0.25571 0.0
C1746 C 0.45901 0.00051 0.24053 0.0
C1747 C 0.45027 0.00198 0.21831 0.0
C1748 C 0.43332 0.01313 0.21498 0.0
C1749 C 0.42584 0.02318 0.23366 0.0
C1750 C 0.45712 0.97698 0.15957 0.0
C1751 C 0.4809 0.9809 0.1619 0.0
C1752 C 0.44687 0.9832 0.17803 0.0
C1753 C 0.46031 0.99348 0.19902 0.0
C1754 C 0.48397 0.99663 0.2014 0.0
C1755 C 0.49411 0.99031 0.18312 0.0
H1756 H 0.74741 0.74515 0.96589 0.0
H1757 H 0.81345 0.73311 0.97153 0.0
H1758 H 0.75111 0.75376 0.92745 0.0
H1759 H 0.8173 0.7421 0.93304 0.0
H1760 H 0.82389 0.78477 0.87243 0.0
H1761 H 0.82146 0.77484 0.91068 0.0
H1762 H 0.75198 0.73394 0.88872 0.0
H1763 H 0.75447 0.74358 0.85045 0.0
C1764 C 0.76285 0.7445 0.95905 0.0
C1765 C 0.78015 0.73846 0.97204 0.0
C1766 C 0.76489 0.74928 0.93683 0.0
C1767 C 0.78447 0.74857 0.9269 0.0
C1768 C 0.80201 0.74295 0.94005 0.0
C1769 C 0.79978 0.73776 0.96218 0.0
C1770 C 0.80814 0.77345 0.87564 0.0
C1771 C 0.78939 0.76502 0.85813 0.0
C1772 C 0.80677 0.76771 0.89765 0.0
C1773 C 0.78646 0.75368 0.90302 0.0
C1774 C 0.76783 0.74499 0.88542 0.0
C1775 C 0.76933 0.7504 0.86332 0.0
H1776 H 0.85992 0.10905 0.07722 0.0
H1777 H 0.82473 0.11998 0.01506 0.0
H1778 H 0.88828 0.09873 0.05632 0.0
H1779 H 0.85298 0.10872 0.99378 0.0
H1780 H 0.88315 0.04032 0.98414 0.0
H1781 H 0.8597 0.06563 0.99191 0.0
H1782 H 0.91902 0.11656 0.02892 0.0
H1783 H 0.94254 0.09149 0.02085 0.0
C1784 C 0.85845 0.10944 0.05909 0.0
C1785 C 0.84017 0.11501 0.04762 0.0
C1786 C 0.87477 0.10382 0.04719 0.0
C1787 C 0.8728 0.1032 0.02355 0.0
C1788 C 0.85486 0.10938 0.01206 0.0
C1789 C 0.83878 0.11567 0.02415 0.0
C1790 C 0.89132 0.05732 0.99295 0.0
C1791 C 0.91438 0.06382 0.00252 0.0
C1792 C 0.87797 0.07182 0.99728 0.0
C1793 C 0.88765 0.09278 0.01124 0.0
C1794 C 0.91128 0.10039 0.01818 0.0
C1795 C 0.92462 0.086 0.01376 0.0
H1796 H 0.38267 0.39679 0.04415 0.0
H1797 H 0.35892 0.45294 0.06967 0.0
H1798 H 0.41994 0.42275 0.04304 0.0
H1799 H 0.39646 0.4789 0.06898 0.0
H1800 H 0.4595 0.52042 0.04132 0.0
H1801 H 0.42181 0.49523 0.04308 0.0
H1802 H 0.45315 0.4466 0.06791 0.0
H1803 H 0.49064 0.47144 0.06574 0.0
C1804 C 0.3854 0.41466 0.04966 0.0
C1805 C 0.3677 0.4227 0.05704 0.0
C1806 C 0.40688 0.42958 0.04914 0.0
C1807 C 0.41133 0.45297 0.05601 0.0
C1808 C 0.39362 0.46104 0.06333 0.0
C1809 C 0.3721 0.44611 0.06386 0.0
C1810 C 0.45836 0.50439 0.04724 0.0
C1811 C 0.47818 0.498 0.05331 0.0
C1812 C 0.43672 0.48997 0.04835 0.0
C1813 C 0.43436 0.46877 0.05553 0.0
C1814 C 0.45423 0.46258 0.06193 0.0
C1815 C 0.47581 0.47697 0.06083 0.0
H1816 H 0.40916 0.58731 0.81362 0.0
H1817 H 0.38977 0.5786 0.74103 0.0
H1818 H 0.38772 0.61485 0.81867 0.0
H1819 H 0.36948 0.60697 0.74577 0.0
H1820 H 0.31529 0.64122 0.76111 0.0
H1821 H 0.33704 0.61407 0.75649 0.0
H1822 H 0.38508 0.65086 0.81561 0.0
H1823 H 0.3626 0.67741 0.82065 0.0
C1824 C 0.40057 0.59153 0.79871 0.0
C1825 C 0.40109 0.58064 0.77694 0.0
C1826 C 0.38833 0.60748 0.80155 0.0
C1827 C 0.37659 0.61331 0.78266 0.0
C1828 C 0.37767 0.6027 0.76086 0.0
C1829 C 0.38953 0.58648 0.75807 0.0
C1830 C 0.33056 0.64355 0.77306 0.0
C1831 C 0.33713 0.66151 0.79127 0.0
C1832 C 0.3432 0.62799 0.77037 0.0
C1833 C 0.36306 0.63006 0.78562 0.0
C1834 C 0.36972 0.64824 0.80372 0.0
C1835 C 0.35687 0.66362 0.80659 0.0
H1836 H 0.21095 0.62943 0.5339 0.0
H1837 H 0.2269 0.58133 0.57488 0.0
H1838 H 0.17057 0.61249 0.53421 0.0
H1839 H 0.18624 0.56466 0.57565 0.0
H1840 H 0.10827 0.53098 0.55602 0.0
H1841 H 0.14902 0.54389 0.55336 0.0
H1842 H 0.14678 0.61321 0.56365 0.0
H1843 H 0.10615 0.60031 0.56553 0.0
C1844 C 0.20583 0.61512 0.54286 0.0
C1845 C 0.2221 0.60693 0.55468 0.0
C1846 C 0.18269 0.60552 0.54315 0.0
C1847 C 0.17532 0.58762 0.55541 0.0
C1848 C 0.19147 0.57849 0.56611 0.0
C1849 C 0.21472 0.58806 0.56571 0.0
C1850 C 0.11663 0.54897 0.55796 0.0
C1851 C 0.10417 0.56469 0.56087 0.0
C1852 C 0.13989 0.55633 0.55641 0.0
C1853 C 0.15096 0.57952 0.55794 0.0
C1854 C 0.13857 0.5952 0.56177 0.0
C1855 C 0.11536 0.58785 0.56304 0.0
H1856 H 0.76434 0.01421 0.77038 0.0
H1857 H 0.71108 0.0027 0.81286 0.0
H1858 H 0.78241 0.99021 0.79017 0.0
H1859 H 0.72939 0.97861 0.83289 0.0
H1860 H 0.74988 0.91015 0.82853 0.0
H1861 H 0.73399 0.94068 0.82015 0.0
H1862 H 0.8021 0.9862 0.82711 0.0
H1863 H 0.81803 0.95541 0.83476 0.0
C1864 C 0.75665 0.00675 0.78415 0.0
C1865 C 0.73619 0.0101 0.78994 0.0
C1866 C 0.76715 0.99321 0.79567 0.0
C1867 C 0.75734 0.98263 0.81312 0.0
C1868 C 0.73725 0.98655 0.81945 0.0
C1869 C 0.72683 0.00033 0.80803 0.0
C1870 C 0.76143 0.92678 0.82862 0.0
C1871 C 0.78517 0.93036 0.83188 0.0
C1872 C 0.75234 0.94431 0.82408 0.0
C1873 C 0.76684 0.96572 0.82275 0.0
C1874 C 0.79057 0.96974 0.82778 0.0
C1875 C 0.79967 0.9522 0.83233 0.0
H1876 H 0.73302 0.90035 0.52665 0.0
H1877 H 0.76799 0.95337 0.58231 0.0
H1878 H 0.70466 0.92063 0.51853 0.0
H1879 H 0.73985 0.97332 0.57437 0.0
H1880 H 0.70186 0.01587 0.54087 0.0
H1881 H 0.72896 0.99403 0.54487 0.0
H1882 H 0.67338 0.93251 0.53564 0.0
H1883 H 0.64605 0.95437 0.53075 0.0
C1884 C 0.73464 0.91626 0.53715 0.0
C1885 C 0.75282 0.92526 0.55508 0.0
C1886 C 0.71836 0.92782 0.53257 0.0
C1887 C 0.72011 0.9487 0.54567 0.0
C1888 C 0.73819 0.95749 0.56367 0.0
C1889 C 0.75427 0.94593 0.56834 0.0
C1890 C 0.69532 0.99766 0.5392 0.0
C1891 C 0.67169 0.98695 0.53552 0.0
C1892 C 0.7109 0.98514 0.54179 0.0
C1893 C 0.70335 0.96154 0.54085 0.0
C1894 C 0.67977 0.95066 0.5364 0.0
C1895 C 0.66411 0.96323 0.53383 0.0
H1896 H 0.43069 0.44604 0.78107 0.0
H1897 H 0.3734 0.47352 0.77378 0.0
H1898 H 0.40496 0.40902 0.7822 0.0
H1899 H 0.34755 0.43648 0.77579 0.0
H1900 H 0.30551 0.36125 0.76071 0.0
H1901 H 0.33024 0.39851 0.7573 0.0
H1902 H 0.38243 0.3894 0.80659 0.0
H1903 H 0.35824 0.35219 0.80931 0.0
C1904 C 0.41258 0.44423 0.77983 0.0
C1905 C 0.40419 0.46287 0.77745 0.0
C1906 C 0.39775 0.42294 0.78064 0.0
C1907 C 0.37407 0.41964 0.77938 0.0
C1908 C 0.36561 0.43822 0.77661 0.0
C1909 C 0.38047 0.45954 0.77558 0.0
C1910 C 0.32226 0.36727 0.77082 0.0
C1911 C 0.32989 0.35362 0.78517 0.0
C1912 C 0.33644 0.3887 0.76895 0.0
C1913 C 0.35853 0.39704 0.7815 0.0
C1914 C 0.36584 0.38346 0.79618 0.0
C1915 C 0.35182 0.36207 0.79788 0.0
H1916 H 0.21311 0.61884 0.31122 0.0
H1917 H 0.25168 0.60709 0.25715 0.0
H1918 H 0.23078 0.65916 0.31467 0.0
H1919 H 0.26989 0.64776 0.26103 0.0
H1920 H 0.26081 0.71783 0.24928 0.0
H1921 H 0.25333 0.67759 0.25055 0.0
H1922 H 0.26512 0.69084 0.32397 0.0
H1923 H 0.27207 0.73116 0.32275 0.0
C1924 C 0.22573 0.62486 0.30036 0.0
C1925 C 0.23065 0.60989 0.28355 0.0
C1926 C 0.23603 0.64798 0.30252 0.0
C1927 C 0.25149 0.65659 0.28793 0.0
C1928 C 0.25772 0.64152 0.27224 0.0
C1929 C 0.2474 0.61829 0.27009 0.0
C1930 C 0.26187 0.71217 0.26569 0.0
C1931 C 0.26665 0.72756 0.2859 0.0
C1932 C 0.2579 0.68916 0.26642 0.0
C1933 C 0.25875 0.68113 0.28737 0.0
C1934 C 0.26418 0.69659 0.3076 0.0
C1935 C 0.26803 0.71962 0.30688 0.0
H1936 H 0.4915 0.69541 0.4984 0.0
H1937 H 0.5638 0.7237 0.51916 0.0
H1938 H 0.49383 0.65909 0.50867 0.0
H1939 H 0.56662 0.68744 0.52835 0.0
H1940 H 0.56891 0.62324 0.55642 0.0
H1941 H 0.56482 0.65928 0.54817 0.0
H1942 H 0.50053 0.62494 0.50576 0.0
H1943 H 0.50436 0.58875 0.51518 0.0
C1944 C 0.50801 0.69399 0.50516 0.0
C1945 C 0.52738 0.71311 0.50801 0.0
C1946 C 0.50947 0.67275 0.51096 0.0
C1947 C 0.53049 0.66928 0.51968 0.0
C1948 C 0.54983 0.68858 0.52236 0.0
C1949 C 0.54828 0.70982 0.51686 0.0
C1950 C 0.55374 0.6232 0.54539 0.0
C1951 C 0.53704 0.60246 0.53663 0.0
C1952 C 0.55142 0.6443 0.54031 0.0
C1953 C 0.53238 0.64608 0.52577 0.0
C1954 C 0.51549 0.62521 0.51716 0.0
C1955 C 0.5177 0.60403 0.52254 0.0
H1956 H 0.6725 0.32708 0.64667 0.0
H1957 H 0.63177 0.29836 0.69603 0.0
H1958 H 0.70719 0.32669 0.67116 0.0
H1959 H 0.66552 0.29701 0.7195 0.0
H1960 H 0.7279 0.31313 0.76995 0.0
H1961 H 0.69677 0.31767 0.74459 0.0
H1962 H 0.73088 0.3054 0.68715 0.0
H1963 H 0.76303 0.30173 0.71317 0.0
C1964 C 0.67085 0.32082 0.66271 0.0
C1965 C 0.64904 0.31308 0.66928 0.0
C1966 C 0.69081 0.32036 0.67675 0.0
C1967 C 0.68961 0.31207 0.69777 0.0
C1968 C 0.66772 0.30422 0.70401 0.0
C1969 C 0.64803 0.30487 0.69025 0.0
C1970 C 0.729 0.31139 0.75194 0.0
C1971 C 0.74816 0.30673 0.74384 0.0
C1972 C 0.7108 0.31384 0.73716 0.0
C1973 C 0.71059 0.31138 0.71341 0.0
C1974 C 0.73012 0.30744 0.70521 0.0
C1975 C 0.74864 0.30522 0.72019 0.0
H1976 H 0.97985 0.34084 0.02395 0.0
H1977 H 0.03943 0.35357 0.99031 0.0
H1978 H 0.98545 0.38138 0.03317 0.0
H1979 H 0.04583 0.39419 0.00032 0.0
H1980 H 0.04452 0.46778 0.00445 0.0
H1981 H 0.03854 0.42723 0.99544 0.0
H1982 H 1.00173 0.41679 0.05256 0.0
H1983 H 1.00693 0.45739 0.06078 0.0
C1984 C 0.99444 0.35226 0.01876 0.0
C1985 C 1.00914 0.34341 0.00632 0.0
C1986 C 0.9978 0.3759 0.0242 0.0
C1987 C 0.01619 0.39203 0.01764 0.0
C1988 C 0.03112 0.38301 0.0055 0.0
C1989 C 0.0276 0.35936 0.99988 0.0
C1990 C 0.03502 0.4569 0.0151 0.0
C1991 C 0.02618 0.46641 0.03338 0.0
C1992 C 0.03172 0.43326 0.01002 0.0
C1993 C 0.01961 0.41777 0.02314 0.0
C1994 C 1.01081 0.42742 0.04151 0.0
C1995 C 0.01392 0.45108 0.04642 0.0
H1996 H 0.01531 0.76108 0.18821 0.0
H1997 H 0.99802 0.81469 0.15711 0.0
H1998 H 0.98394 0.75835 0.21009 0.0
H1999 H 0.9661 0.81169 0.17891 0.0
H2000 H 0.92686 0.81486 0.24117 0.0
H2001 H 0.95723 0.81855 0.21748 0.0
H2002 H 0.94305 0.7459 0.20548 0.0
H2003 H 0.91287 0.74224 0.22912 0.0
C2004 C 1.00475 0.77228 0.18596 0.0
C2005 C 1.00925 0.78811 0.17084 0.0
C2006 C 0.98658 0.77059 0.19844 0.0
C2007 C 0.97227 0.78467 0.19623 0.0
C2008 C 0.97684 0.80067 0.18121 0.0
C2009 C 0.99508 0.80233 0.16862 0.0
C2010 C 0.93006 0.79966 0.23328 0.0
C2011 C 0.91751 0.77825 0.23733 0.0
C2012 C 0.9475 0.80178 0.21965 0.0
C2013 C 0.95284 0.78255 0.20968 0.0
C2014 C 0.93984 0.76114 0.21326 0.0
C2015 C 0.92248 0.75903 0.22687 0.0
H2016 H 0.55449 0.29309 0.12739 0.0
H2017 H 0.52713 0.32558 0.18064 0.0
H2018 H 0.55776 0.32538 0.10739 0.0
H2019 H 0.53156 0.3587 0.16131 0.0
H2020 H 0.52388 0.40739 0.11139 0.0
H2021 H 0.51889 0.3747 0.13106 0.0
H2022 H 0.57867 0.36209 0.10698 0.0
H2023 H 0.58252 0.39356 0.08589 0.0
C2024 C 0.5493 0.30727 0.13492 0.0
C2025 C 0.54053 0.30672 0.15562 0.0
C2026 C 0.55139 0.326 0.12353 0.0
C2027 C 0.54521 0.34505 0.13269 0.0
C2028 C 0.53625 0.34437 0.15341 0.0
C2029 C 0.53377 0.32538 0.16462 0.0
C2030 C 0.53579 0.39747 0.10997 0.0
C2031 C 0.55354 0.40326 0.09677 0.0
C2032 C 0.53313 0.3788 0.12163 0.0
C2033 C 0.54826 0.3654 0.12069 0.0
C2034 C 0.56629 0.37152 0.10787 0.0
C2035 C 0.56878 0.38999 0.09601 0.0
H2036 H 0.98575 0.29591 0.30584 0.0
H2037 H 0.9758 0.32101 0.3731 0.0
H2038 H 0.94517 0.29184 0.29213 0.0
H2039 H 0.93629 0.3168 0.35968 0.0
H2040 H 0.8605 0.28288 0.33737 0.0
H2041 H 0.90086 0.28626 0.34711 0.0
H2042 H 0.91486 0.31426 0.28588 0.0
H2043 H 0.87402 0.31101 0.27609 0.0
C2044 C 0.97517 0.30059 0.31773 0.0
C2045 C 0.98464 0.30884 0.34073 0.0
C2046 C 0.95179 0.29833 0.30984 0.0
C2047 C 0.93699 0.30378 0.32477 0.0
C2048 C 0.94665 0.31205 0.34756 0.0
C2049 C 0.96974 0.31462 0.35527 0.0
C2050 C 0.87202 0.28987 0.32588 0.0
C2051 C 0.86357 0.29689 0.30598 0.0
C2052 C 0.89543 0.29184 0.33154 0.0
C2053 C 0.9116 0.30065 0.31744 0.0
C2054 C 0.90317 0.30728 0.29723 0.0
C2055 C 0.87964 0.30561 0.2917 0.0
H2056 H 0.0186 0.71042 0.63692 0.0
H2057 H 1.00512 0.67383 0.69328 0.0
H2058 H 0.01964 0.67615 0.61362 0.0
H2059 H 1.00582 0.63911 0.66964 0.0
H2060 H 0.0366 0.58887 0.62795 0.0
H2061 H 0.03187 0.62136 0.65212 0.0
H2062 H 0.99782 0.64007 0.5938 0.0
H2063 H 1.0029 0.608 0.5697 0.0
C2064 C 0.01549 0.69497 0.64432 0.0
C2065 C 0.0117 0.69511 0.66713 0.0
C2066 C 0.016 0.67513 0.63081 0.0
C2067 C 0.01285 0.65459 0.63955 0.0
C2068 C 1.00859 0.65456 0.66226 0.0
C2069 C 1.00792 0.67448 0.6758 0.0
C2070 C 0.02802 0.59985 0.62027 0.0
C2071 C 0.02032 0.59572 0.5967 0.0
C2072 C 0.02516 0.6185 0.63422 0.0
C2073 C 0.01457 0.63368 0.62506 0.0
C2074 C 1.00643 0.62916 0.60157 0.0
C2075 C 1.00925 0.61056 0.58767 0.0
H2076 H 0.60382 0.81448 0.81082 0.0
H2077 H 0.63741 0.82333 0.87961 0.0
H2078 H 0.63895 0.81037 0.79676 0.0
H2079 H 0.67194 0.81933 0.86581 0.0
H2080 H 0.73934 0.83065 0.83721 0.0
H2081 H 0.70415 0.83642 0.84865 0.0
H2082 H 0.66477 0.78638 0.79252 0.0
H2083 H 0.70011 0.78063 0.78106 0.0
C2084 C 0.61858 0.81571 0.82302 0.0
C2085 C 0.61726 0.81931 0.84653 0.0
C2086 C 0.63889 0.81319 0.81492 0.0
C2087 C 0.65889 0.81456 0.82997 0.0
C2088 C 0.65746 0.81843 0.85339 0.0
C2089 C 0.63726 0.8206 0.8614 0.0
C2090 C 0.72326 0.82088 0.82713 0.0
C2091 C 0.72307 0.80507 0.80809 0.0
C2092 C 0.7028 0.8241 0.83384 0.0
C2093 C 0.68102 0.81182 0.82178 0.0
C2094 C 0.68086 0.79641 0.80237 0.0
C2095 C 0.70136 0.79301 0.79578 0.0
H2096 H 0.45439 0.54408 0.70364 0.0
H2097 H 0.51611 0.53183 0.73361 0.0
H2098 H 0.46931 0.54719 0.66788 0.0
H2099 H 0.53116 0.53501 0.69738 0.0
H2100 H 0.55767 0.56304 0.63272 0.0
H2101 H 0.54453 0.56188 0.66991 0.0
H2102 H 0.47734 0.52229 0.63718 0.0
H2103 H 0.49037 0.52342 0.60022 0.0
C2104 C 0.47125 0.54214 0.70273 0.0
C2105 C 0.48393 0.53762 0.72178 0.0
C2106 C 0.47978 0.5438 0.68201 0.0
C2107 C 0.50142 0.54118 0.67947 0.0
C2108 C 0.51446 0.53724 0.69863 0.0
C2109 C 0.50579 0.53534 0.71945 0.0
C2110 C 0.54003 0.55423 0.63342 0.0
C2111 C 0.5251 0.54344 0.61326 0.0
C2112 C 0.53254 0.55339 0.65483 0.0
C2113 C 0.50981 0.54201 0.65673 0.0
C2114 C 0.49488 0.53145 0.63653 0.0
C2115 C 0.50241 0.53205 0.61522 0.0
H2116 H 0.76676 0.21773 0.0348 0.0
H2117 H 0.81222 0.18749 0.00076 0.0
H2118 H 0.76312 0.23902 0.00366 0.0
H2119 H 0.80849 0.20889 0.96957 0.0
H2120 H 0.8051 0.2597 0.92195 0.0
H2121 H 0.81487 0.24882 0.95879 0.0
H2122 H 0.74321 0.22242 0.96329 0.0
H2123 H 0.73338 0.23263 0.92631 0.0
C2124 C 0.77626 0.21589 0.02084 0.0
C2125 C 0.78946 0.20064 0.01994 0.0
C2126 C 0.77417 0.2281 0.00309 0.0
C2127 C 0.78536 0.22538 0.98426 0.0
C2128 C 0.7998 0.21134 0.98404 0.0
C2129 C 0.8018 0.19899 0.00177 0.0
C2130 C 0.79144 0.25158 0.93083 0.0
C2131 C 0.76846 0.24664 0.92111 0.0
C2132 C 0.79706 0.24554 0.95191 0.0
C2133 C 0.77978 0.23479 0.9637 0.0
C2134 C 0.75684 0.23097 0.95459 0.0
C2135 C 0.75121 0.23679 0.93343 0.0
H2136 H 0.11181 0.52807 0.23179 0.0
H2137 H 0.16396 0.52312 0.19018 0.0
H2138 H 0.08495 0.52499 0.19771 0.0
H2139 H 0.13744 0.52077 0.15633 0.0
H2140 H 0.08271 0.50239 0.09739 0.0
H2141 H 0.10368 0.49795 0.13242 0.0
H2142 H 0.07975 0.54877 0.16953 0.0
H2143 H 0.05798 0.55264 0.13435 0.0
C2144 C 0.11748 0.5261 0.21537 0.0
C2145 C 0.14003 0.52589 0.21367 0.0
C2146 C 0.10213 0.52451 0.19588 0.0
C2147 C 0.10907 0.52276 0.17433 0.0
C2148 C 0.1314 0.52174 0.17264 0.0
C2149 C 0.14667 0.52317 0.19208 0.0
C2150 C 0.0817 0.51246 0.11307 0.0
C2151 C 0.06896 0.52809 0.11314 0.0
C2152 C 0.09381 0.50996 0.13313 0.0
C2153 C 0.09368 0.52324 0.1537 0.0
C2154 C 0.08006 0.53815 0.15397 0.0
C2155 C 0.06768 0.54047 0.13384 0.0
H2156 H 0.77382 0.84484 0.4806 0.0
H2157 H 0.8317 0.81876 0.49115 0.0
H2158 H 0.76983 0.83263 0.43983 0.0
H2159 H 0.82848 0.80744 0.45031 0.0
H2160 H 0.80773 0.77473 0.37556 0.0
H2161 H 0.80971 0.7836 0.41673 0.0
H2162 H 0.78557 0.84157 0.4076 0.0
H2163 H 0.78273 0.83213 0.36676 0.0
C2164 C 0.7857 0.83645 0.47424 0.0
C2165 C 0.80307 0.83283 0.48932 0.0
C2166 C 0.7836 0.82962 0.45069 0.0
C2167 C 0.799 0.8192 0.44133 0.0
C2168 C 0.81605 0.81512 0.45657 0.0
C2169 C 0.81798 0.82173 0.48015 0.0
C2170 C 0.80288 0.78938 0.38238 0.0
C2171 C 0.79501 0.80262 0.36766 0.0
C2172 C 0.80408 0.79458 0.40611 0.0
C2173 C 0.79766 0.81332 0.4159 0.0
C2174 C 0.79014 0.82668 0.40104 0.0
C2175 C 0.78871 0.82135 0.37741 0.0
H2176 H 0.49719 0.56214 0.86075 0.0
H2177 H 0.49938 0.49309 0.84957 0.0
H2178 H 0.51009 0.56463 0.90109 0.0
H2179 H 0.51047 0.4947 0.89004 0.0
H2180 H 0.54388 0.50566 0.96353 0.0
H2181 H 0.53508 0.50464 0.92265 0.0
H2182 H 0.50159 0.55682 0.93515 0.0
H2183 H 0.51197 0.5588 0.97565 0.0
C2184 C 0.50032 0.54741 0.86697 0.0
C2185 C 0.49732 0.52747 0.85181 0.0
C2186 C 0.50749 0.54867 0.89033 0.0
C2187 C 0.51122 0.52978 0.89953 0.0
C2188 C 0.50833 0.50988 0.88411 0.0
C2189 C 0.50178 0.50885 0.86067 0.0
C2190 C 0.53472 0.51694 0.95745 0.0
C2191 C 0.52877 0.53237 0.97299 0.0
C2192 C 0.52944 0.5163 0.93383 0.0
C2193 C 0.51751 0.53069 0.92493 0.0
C2194 C 0.51131 0.54583 0.94074 0.0
C2195 C 0.51709 0.54685 0.96425 0.0
H2196 H 0.82706 0.2143 0.11765 0.0
H2197 H 0.80956 0.15805 0.15501 0.0
H2198 H 0.83204 0.24062 0.15249 0.0
H2199 H 0.81404 0.18434 0.18975 0.0
H2200 H 0.79222 0.26876 0.20566 0.0
H2201 H 0.80175 0.24765 0.17312 0.0
H2202 H 0.83783 0.2153 0.21833 0.0
H2203 H 0.82793 0.23594 0.25078 0.0
C2204 C 0.82473 0.2076 0.13342 0.0
C2205 C 0.81744 0.18418 0.13366 0.0
C2206 C 0.82752 0.22265 0.15329 0.0
C2207 C 0.82295 0.21449 0.17365 0.0
C2208 C 0.81776 0.19111 0.17428 0.0
C2209 C 0.81512 0.17604 0.15439 0.0
C2210 C 0.80243 0.25737 0.20862 0.0
C2211 C 0.80891 0.25364 0.23065 0.0
C2212 C 0.80808 0.24544 0.19004 0.0
C2213 C 0.82045 0.22977 0.19328 0.0
C2214 C 0.82803 0.22704 0.21539 0.0
C2215 C 0.82228 0.23883 0.23391 0.0
H2216 H 0.12112 0.57336 0.32061 0.0
H2217 H 0.16131 0.53692 0.35571 0.0
H2218 H 0.10592 0.58197 0.35515 0.0
H2219 H 0.14638 0.54607 0.39071 0.0
H2220 H 0.09332 0.54686 0.4401 0.0
H2221 H 0.11124 0.53802 0.40729 0.0
H2222 H 0.11899 0.60564 0.39167 0.0
H2223 H 0.10054 0.61427 0.42433 0.0
C2224 C 0.12668 0.56713 0.33574 0.0
C2225 C 0.14244 0.55449 0.33551 0.0
C2226 C 0.11814 0.57229 0.3556 0.0
C2227 C 0.12526 0.56505 0.37574 0.0
C2228 C 0.14056 0.55185 0.37541 0.0
C2229 C 0.14906 0.54657 0.3554 0.0
C2230 C 0.09924 0.55995 0.42986 0.0
C2231 C 0.09555 0.58123 0.43463 0.0
C2232 C 0.1095 0.55489 0.4111 0.0
C2233 C 0.11633 0.57106 0.39681 0.0
C2234 C 0.11346 0.59268 0.40214 0.0
C2235 C 0.10302 0.59768 0.42082 0.0
H2236 H 0.79397 0.88306 0.63727 0.0
H2237 H 0.80017 0.81792 0.61008 0.0
H2238 H 0.78984 0.87081 0.67407 0.0
H2239 H 0.79602 0.80559 0.64726 0.0
H2240 H 0.76429 0.78433 0.71085 0.0
H2241 H 0.76805 0.79631 0.67379 0.0
H2242 H 0.81172 0.86162 0.70629 0.0
H2243 H 0.80793 0.84966 0.74354 0.0
C2244 C 0.79441 0.86604 0.63905 0.0
C2245 C 0.7974 0.85151 0.62045 0.0
C2246 C 0.7922 0.85907 0.66036 0.0
C2247 C 0.79268 0.83722 0.66387 0.0
C2248 C 0.79539 0.82251 0.64524 0.0
C2249 C 0.79786 0.8296 0.62388 0.0
C2250 C 0.77461 0.80134 0.71023 0.0
C2251 C 0.78571 0.81603 0.73044 0.0
C2252 C 0.77693 0.80813 0.68883 0.0
C2253 C 0.79028 0.82993 0.68684 0.0
C2254 C 0.80113 0.84476 0.70704 0.0
C2255 C 0.79897 0.83789 0.7285 0.0
H2256 H 0.78035 0.47924 0.56524 0.0
H2257 H 0.71937 0.43986 0.52003 0.0
H2258 H 0.7602 0.5059 0.57883 0.0
H2259 H 0.69919 0.46648 0.5339 0.0
H2260 H 0.6652 0.49744 0.58744 0.0
H2261 H 0.68988 0.47456 0.57632 0.0
H2262 H 0.73813 0.53371 0.56096 0.0
H2263 H 0.71308 0.5567 0.57169 0.0
C2264 C 0.76269 0.47643 0.5581 0.0
C2265 C 0.75122 0.45744 0.54181 0.0
C2266 C 0.7513 0.49169 0.56581 0.0
C2267 C 0.72823 0.48789 0.55757 0.0
C2268 C 0.71699 0.46944 0.54062 0.0
C2269 C 0.72849 0.45437 0.53262 0.0
C2270 C 0.68132 0.50561 0.58214 0.0
C2271 C 0.68723 0.52865 0.58005 0.0
C2272 C 0.69527 0.49255 0.57567 0.0
C2273 C 0.71544 0.50243 0.56733 0.0
C2274 C 0.72247 0.52585 0.56721 0.0
C2275 C 0.70833 0.53896 0.57351 0.0
H2276 H 0.23101 0.12831 0.54156 0.0
H2277 H 0.20238 0.17045 0.50189 0.0
H2278 H 0.19317 0.10331 0.54127 0.0
H2279 H 0.16434 0.14466 0.50055 0.0
H2280 H 0.09871 0.11162 0.52794 0.0
H2281 H 0.13635 0.13478 0.52381 0.0
H2282 H 0.16114 0.0759 0.52175 0.0
H2283 H 0.12365 0.053 0.52708 0.0
C2284 C 0.21666 0.13198 0.53229 0.0
C2285 C 0.21979 0.15152 0.52185 0.0
C2286 C 0.19483 0.11749 0.53202 0.0
C2287 C 0.17545 0.12189 0.52101 0.0
C2288 C 0.17871 0.14092 0.50967 0.0
C2289 C 0.20058 0.15563 0.51023 0.0
C2290 C 0.11219 0.10359 0.52655 0.0
C2291 C 0.10819 0.08047 0.52803 0.0
C2292 C 0.13382 0.11688 0.52397 0.0
C2293 C 0.15201 0.10735 0.52243 0.0
C2294 C 0.14779 0.08404 0.52333 0.0
C2295 C 0.12622 0.07082 0.52628 0.0
H2296 H 0.1965 0.00966 0.75711 0.0
H2297 H 0.15931 0.97724 0.8071 0.0
H2298 H 0.21656 0.98106 0.75428 0.0
H2299 H 0.17916 0.94799 0.80385 0.0
H2300 H 0.23807 0.91387 0.80813 0.0
H2301 H 0.21595 0.94104 0.81207 0.0
H2302 H 0.21063 0.94244 0.73976 0.0
H2303 H 0.23299 0.91573 0.73598 0.0
C2304 C 0.19249 0.99632 0.76745 0.0
C2305 C 0.17621 0.99578 0.7823 0.0
C2306 C 0.20392 0.97974 0.76569 0.0
C2307 C 0.1994 0.96197 0.77864 0.0
C2308 C 0.18323 0.96148 0.79371 0.0
C2309 C 0.17176 0.97819 0.7955 0.0
C2310 C 0.23199 0.91986 0.79307 0.0
C2311 C 0.23757 0.91282 0.77178 0.0
C2312 C 0.21925 0.93542 0.79531 0.0
C2313 C 0.21167 0.94424 0.77629 0.0
C2314 C 0.21664 0.93654 0.75491 0.0
C2315 C 0.22945 0.92115 0.75271 0.0
H2316 H 0.35304 0.92125 0.03581 0.0
H2317 H 0.34136 0.96289 0.98563 0.0
H2318 H 0.39279 0.94361 0.04471 0.0
H2319 H 0.38175 0.9844 0.99307 0.0
H2320 H 0.45146 0.03095 0.02569 0.0
H2321 H 0.41071 0.011 0.01913 0.0
H2322 H 0.42635 0.94877 0.02956 0.0
H2323 H 0.46645 0.96876 0.03728 0.0
C2324 C 0.35927 0.93489 0.02628 0.0
C2325 C 0.34451 0.94022 0.0098 0.0
C2326 C 0.38202 0.94771 0.03131 0.0
C2327 C 0.39061 0.96566 0.01939 0.0
C2328 C 0.37568 0.97091 0.00279 0.0
C2329 C 0.35269 0.95846 0.99828 0.0
C2330 C 0.44606 0.01304 0.02672 0.0
C2331 C 0.46211 0.00144 0.03206 0.0
C2332 C 0.42276 0.00157 0.02281 0.0
C2333 C 0.4152 0.97826 0.02389 0.0
C2334 C 0.43141 0.96679 0.02912 0.0
C2335 C 0.45452 0.97827 0.03338 0.0
H2336 H 0.88271 0.60729 0.8091 0.0
H2337 H 0.81695 0.55987 0.80975 0.0
H2338 H 0.86381 0.63443 0.79601 0.0
H2339 H 0.79812 0.58708 0.79753 0.0
H2340 H 0.76942 0.62784 0.75297 0.0
H2341 H 0.79214 0.60269 0.76281 0.0
H2342 H 0.84052 0.65812 0.80847 0.0
H2343 H 0.81832 0.68332 0.79789 0.0
C2344 C 0.86425 0.60295 0.80695 0.0
C2345 C 0.85118 0.58159 0.81029 0.0
C2346 C 0.85346 0.61836 0.79936 0.0
C2347 C 0.82952 0.61261 0.7953 0.0
C2348 C 0.81659 0.59165 0.7998 0.0
C2349 C 0.82733 0.57621 0.80707 0.0
C2350 C 0.78513 0.63463 0.76475 0.0
C2351 C 0.79193 0.65725 0.77511 0.0
C2352 C 0.798 0.62029 0.77055 0.0
C2353 C 0.81778 0.62841 0.78679 0.0
C2354 C 0.82532 0.6514 0.79598 0.0
C2355 C 0.8125 0.66572 0.79013 0.0
H2356 H 0.82449 0.64064 0.08692 0.0
H2357 H 0.85357 0.66879 0.03053 0.0
H2358 H 0.85206 0.61917 0.08989 0.0
H2359 H 0.88114 0.6469 0.03331 0.0
H2360 H 0.9406 0.6198 0.0604 0.0
H2361 H 0.91441 0.64301 0.05763 0.0
H2362 H 0.85947 0.58695 0.06864 0.0
H2363 H 0.88547 0.56373 0.07119 0.0
C2364 C 0.83678 0.64227 0.07512 0.0
C2365 C 0.8367 0.65638 0.05839 0.0
C2366 C 0.85254 0.62981 0.07675 0.0
C2367 C 0.86872 0.63109 0.06171 0.0
C2368 C 0.86901 0.6456 0.04527 0.0
C2369 C 0.85314 0.65807 0.04359 0.0
C2370 C 0.92288 0.61233 0.062 0.0
C2371 C 0.91524 0.58983 0.0661 0.0
C2372 C 0.90786 0.62568 0.06043 0.0
C2373 C 0.88482 0.61693 0.063 0.0
C2374 C 0.87718 0.59442 0.06698 0.0
C2375 C 0.89214 0.58108 0.06848 0.0
H2376 H 0.206 0.10236 0.80601 0.0
H2377 H 0.15133 0.13327 0.80996 0.0
H2378 H 0.23289 0.13934 0.8065 0.0
H2379 H 0.17792 0.17007 0.80949 0.0
H2380 H 0.2684 0.20384 0.77895 0.0
H2381 H 0.24343 0.16706 0.78292 0.0
H2382 H 0.2085 0.19991 0.82877 0.0
H2383 H 0.23277 0.23656 0.824 0.0
C2384 C 0.19972 0.11706 0.8071 0.0
C2385 C 0.17645 0.11478 0.80793 0.0
C2386 C 0.21514 0.13831 0.80715 0.0
C2387 C 0.20768 0.15785 0.80779 0.0
C2388 C 0.18449 0.15558 0.80929 0.0
C2389 C 0.16914 0.13438 0.8095 0.0
C2390 C 0.25545 0.20318 0.78995 0.0
C2391 C 0.25253 0.22319 0.80101 0.0
C2392 C 0.24117 0.18203 0.79237 0.0
C2393 C 0.22374 0.18033 0.80613 0.0
C2394 C 0.22132 0.20041 0.81766 0.0
C2395 C 0.2354 0.22151 0.81503 0.0
H2396 H 0.35442 0.98462 0.33845 0.0
H2397 H 0.41418 0.963 0.32794 0.0
H2398 H 0.33087 0.94569 0.32963 0.0
H2399 H 0.39062 0.92386 0.31989 0.0
H2400 H 0.29579 0.87038 0.32198 0.0
H2401 H 0.32026 0.90796 0.33819 0.0
H2402 H 0.36363 0.9044 0.2865 0.0
H2403 H 0.33961 0.86642 0.27085 0.0
C2404 C 0.36265 0.97149 0.33499 0.0
C2405 C 0.38604 0.97689 0.33328 0.0
C2406 C 0.34913 0.94914 0.32996 0.0
C2407 C 0.35883 0.93184 0.32342 0.0
C2408 C 0.38261 0.937 0.32418 0.0
C2409 C 0.39613 0.95938 0.32907 0.0
C2410 C 0.31038 0.87778 0.3139 0.0
C2411 C 0.31586 0.8656 0.29514 0.0
C2412 C 0.32445 0.89923 0.32328 0.0
C2413 C 0.34405 0.90895 0.31386 0.0
C2414 C 0.34901 0.89705 0.29456 0.0
C2415 C 0.33511 0.87548 0.28538 0.0
H2416 H 0.57144 0.37688 0.62243 0.0
H2417 H 0.5914 0.36312 0.55682 0.0
H2418 H 0.56532 0.41232 0.61265 0.0
H2419 H 0.58449 0.39819 0.54671 0.0
H2420 H 0.5463 0.45305 0.52926 0.0
H2421 H 0.5529 0.41756 0.5385 0.0
H2422 H 0.58694 0.45153 0.60492 0.0
H2423 H 0.58108 0.4871 0.59542 0.0
C2424 C 0.5744 0.3812 0.6058 0.0
C2425 C 0.582 0.36659 0.59056 0.0
C2426 C 0.57095 0.40182 0.60016 0.0
C2427 C 0.5743 0.4087 0.57872 0.0
C2428 C 0.58149 0.39386 0.56332 0.0
C2429 C 0.58556 0.37354 0.56921 0.0
C2430 C 0.55532 0.45313 0.54583 0.0
C2431 C 0.56312 0.47352 0.56142 0.0
C2432 C 0.55921 0.43255 0.55118 0.0
C2433 C 0.57049 0.43108 0.57264 0.0
C2434 C 0.57806 0.45145 0.58828 0.0
C2435 C 0.57475 0.47213 0.58271 0.0
H2436 H 0.45289 0.82437 0.40184 0.0
H2437 H 0.4235 0.75312 0.40252 0.0
H2438 H 0.4186 0.82527 0.37759 0.0
H2439 H 0.38931 0.75393 0.37773 0.0
H2440 H 0.34609 0.76253 0.31081 0.0
H2441 H 0.37904 0.76074 0.3366 0.0
H2442 H 0.37599 0.8201 0.37973 0.0
H2443 H 0.34274 0.82167 0.35416 0.0
C2444 C 0.43914 0.80885 0.39679 0.0
C2445 C 0.44107 0.78866 0.4042 0.0
C2446 C 0.41938 0.80941 0.38295 0.0
C2447 C 0.4011 0.78969 0.37564 0.0
C2448 C 0.40307 0.76943 0.38291 0.0
C2449 C 0.42265 0.76898 0.39721 0.0
C2450 C 0.35235 0.77518 0.32582 0.0
C2451 C 0.34167 0.7923 0.33028 0.0
C2452 C 0.37121 0.77407 0.34071 0.0
C2453 C 0.38029 0.7903 0.36028 0.0
C2454 C 0.3696 0.8074 0.36476 0.0
C2455 C 0.35044 0.80825 0.35012 0.0
H2456 H 0.02956 0.72084 0.09934 0.0
H2457 H 0.09028 0.73965 0.0679 0.0
H2458 H 0.02737 0.68131 0.09031 0.0
H2459 H 0.08784 0.6993 0.05814 0.0
H2460 H 0.08869 0.624 0.06476 0.0
H2461 H 0.09206 0.66472 0.07075 0.0
H2462 H 0.01877 0.64905 0.0643 0.0
H2463 H 0.01555 0.60904 0.05903 0.0
C2464 C 0.04231 0.7166 0.08997 0.0
C2465 C 0.05995 0.73404 0.08424 0.0
C2466 C 0.041 0.69351 0.08463 0.0
C2467 C 0.05733 0.68629 0.07325 0.0
C2468 C 0.07488 0.70368 0.06704 0.0
C2469 C 0.07612 0.72705 0.07234 0.0
C2470 C 0.07327 0.62922 0.06466 0.0
C2471 C 0.05183 0.61264 0.06158 0.0
C2472 C 0.07519 0.65282 0.06798 0.0
C2473 C 0.05575 0.66092 0.06839 0.0
C2474 C 0.03439 0.64418 0.06481 0.0
C2475 C 0.0325 0.62081 0.06158 0.0
H2476 H 0.05482 0.23623 0.89325 0.0
H2477 H 0.07547 0.30657 0.9231 0.0
H2478 H 0.08694 0.24304 0.87214 0.0
H2479 H 0.1072 0.31378 0.90108 0.0
H2480 H 0.17428 0.31556 0.87351 0.0
H2481 H 0.14304 0.30908 0.89611 0.0
H2482 H 0.10065 0.25874 0.84137 0.0
H2483 H 0.13211 0.26476 0.8193 0.0
C2484 C 0.06613 0.25326 0.89515 0.0
C2485 C 0.06247 0.27086 0.90984 0.0
C2486 C 0.08456 0.25724 0.88286 0.0
C2487 C 0.09978 0.27905 0.88457 0.0
C2488 C 0.09615 0.29668 0.89942 0.0
C2489 C 0.07782 0.2926 0.91199 0.0
C2490 C 0.15824 0.30316 0.86632 0.0
C2491 C 0.15579 0.2906 0.84462 0.0
C2492 C 0.14022 0.29947 0.87926 0.0
C2493 C 0.11912 0.28327 0.87077 0.0
C2494 C 0.11668 0.27096 0.84888 0.0
C2495 C 0.13476 0.27447 0.8361 0.0
H2496 H 0.52248 0.75388 0.92 0.0
H2497 H 0.59389 0.77436 0.9478 0.0
H2498 H 0.51585 0.72244 0.94177 0.0
H2499 H 0.58768 0.74242 0.96861 0.0
H2500 H 0.56735 0.6962 0.02081 0.0
H2501 H 0.57325 0.72771 0.99935 0.0
H2502 H 0.52019 0.68707 0.94588 0.0
H2503 H 0.51384 0.65589 0.96788 0.0
C2504 C 0.53682 0.75154 0.9306 0.0
C2505 C 0.55869 0.76677 0.9322 0.0
C2506 C 0.53308 0.73335 0.94304 0.0
C2507 C 0.55118 0.72964 0.9572 0.0
C2508 C 0.57311 0.7448 0.95845 0.0
C2509 C 0.57676 0.76314 0.94631 0.0
C2510 C 0.55701 0.69395 0.00442 0.0
C2511 C 0.5401 0.67343 0.99614 0.0
C2512 C 0.56045 0.71208 0.99197 0.0
C2513 C 0.54729 0.71021 0.97064 0.0
C2514 C 0.53044 0.68955 0.96234 0.0
C2515 C 0.52683 0.67152 0.97495 0.0
H2516 H 0.10512 0.80398 0.73718 0.0
H2517 H 0.08606 0.73692 0.75475 0.0
H2518 H 0.14514 0.80696 0.74761 0.0
H2519 H 0.12641 0.73902 0.76392 0.0
H2520 H 0.20318 0.75106 0.78871 0.0
H2521 H 0.16266 0.74896 0.78293 0.0
H2522 H 0.17657 0.79945 0.73839 0.0
H2523 H 0.2168 0.80227 0.74529 0.0
C2524 C 0.10948 0.78984 0.74355 0.0
C2525 C 0.09199 0.77035 0.74537 0.0
C2526 C 0.13279 0.79132 0.74918 0.0
C2527 C 0.13996 0.77306 0.75626 0.0
C2528 C 0.12229 0.75373 0.75879 0.0
C2529 C 0.09883 0.75247 0.75359 0.0
C2530 C 0.19757 0.76174 0.77768 0.0
C2531 C 0.21373 0.77689 0.76758 0.0
C2532 C 0.17402 0.76049 0.77422 0.0
C2533 C 0.16545 0.77416 0.76024 0.0
C2534 C 0.18177 0.78896 0.74985 0.0
C2535 C 0.20524 0.79045 0.75362 0.0
H2536 H 0.01494 0.3727 0.44957 0.0
H2537 H 0.07575 0.40904 0.42513 0.0
H2538 H 0.01426 0.40723 0.47259 0.0
H2539 H 0.07538 0.44392 0.44882 0.0
H2540 H 0.0312 0.46453 0.53043 0.0
H2541 H 0.03387 0.43179 0.50605 0.0
H2542 H 0.05579 0.47331 0.45507 0.0
H2543 H 0.05357 0.50671 0.48007 0.0
C2544 C 0.02833 0.38805 0.4492 0.0
C2545 C 0.04551 0.38786 0.43553 0.0
C2546 C 0.02801 0.40799 0.46259 0.0
C2547 C 0.04491 0.42858 0.46294 0.0
C2548 C 0.06198 0.42853 0.449 0.0
C2549 C 0.0623 0.40844 0.43551 0.0
C2550 C 0.03661 0.4669 0.51405 0.0
C2551 C 0.04197 0.48847 0.50729 0.0
C2552 C 0.03801 0.4479 0.49989 0.0
C2553 C 0.04471 0.44957 0.47827 0.0
C2554 C 0.05062 0.47124 0.47159 0.0
C2555 C 0.04925 0.49043 0.4859 0.0
H2556 H 0.46302 0.27532 0.22506 0.0
H2557 H 0.45309 0.21886 0.26204 0.0
H2558 H 0.42754 0.2817 0.23523 0.0
H2559 H 0.41762 0.2252 0.27233 0.0
H2560 H 0.34287 0.22949 0.2709 0.0
H2561 H 0.3784 0.22289 0.26099 0.0
H2562 H 0.40777 0.29461 0.26348 0.0
H2563 H 0.37233 0.30111 0.27328 0.0
C2564 C 0.4534 0.26424 0.23547 0.0
C2565 C 0.46146 0.24654 0.24264 0.0
C2566 C 0.43283 0.26798 0.24148 0.0
C2567 C 0.41904 0.25408 0.2548 0.0
C2568 C 0.42714 0.23632 0.26189 0.0
C2569 C 0.44783 0.23272 0.25606 0.0
C2570 C 0.35687 0.24394 0.26943 0.0
C2571 C 0.35421 0.26593 0.27311 0.0
C2572 C 0.37756 0.24014 0.26377 0.0
C2573 C 0.39662 0.25811 0.26121 0.0
C2574 C 0.39384 0.28007 0.26485 0.0
C2575 C 0.37327 0.28387 0.27073 0.0
H2576 H 0.62405 0.5261 0.37696 0.0
H2577 H 0.57189 0.55986 0.36682 0.0
H2578 H 0.61626 0.52298 0.41601 0.0
H2579 H 0.56411 0.5567 0.40555 0.0
H2580 H 0.53763 0.52508 0.46544 0.0
H2581 H 0.54745 0.52713 0.42756 0.0
H2582 H 0.61898 0.5466 0.4547 0.0
H2583 H 0.60908 0.54462 0.49336 0.0
C2584 C 0.61081 0.53272 0.38295 0.0
C2585 C 0.59849 0.54308 0.3685 0.0
C2586 C 0.6065 0.53112 0.40547 0.0
C2587 C 0.5895 0.53953 0.41411 0.0
C2588 C 0.57715 0.54977 0.39956 0.0
C2589 C 0.58165 0.55162 0.37724 0.0
C2590 C 0.55555 0.52975 0.46362 0.0
C2591 C 0.57252 0.53475 0.48284 0.0
C2592 C 0.56117 0.53106 0.44167 0.0
C2593 C 0.58402 0.53727 0.43786 0.0
C2594 C 0.60116 0.5417 0.4569 0.0
C2595 C 0.59549 0.54061 0.47912 0.0
H2596 H 0.26956 0.90128 0.08378 0.0
H2597 H 0.25894 0.83837 0.03898 0.0
H2598 H 0.27658 0.8828 0.11637 0.0
H2599 H 0.26583 0.81995 0.07167 0.0
H2600 H 0.3216 0.81406 0.12821 0.0
H2601 H 0.30412 0.82747 0.09613 0.0
H2602 H 0.26127 0.85193 0.13923 0.0
H2603 H 0.27855 0.83834 0.17126 0.0
C2604 C 0.2681 0.88339 0.08095 0.0
C2605 C 0.26427 0.87139 0.05885 0.0
C2606 C 0.27203 0.87281 0.09959 0.0
C2607 C 0.27219 0.85014 0.09635 0.0
C2608 C 0.26621 0.8376 0.07446 0.0
C2609 C 0.26216 0.84812 0.05582 0.0
C2610 C 0.30833 0.82213 0.13073 0.0
C2611 C 0.30162 0.82545 0.15218 0.0
C2612 C 0.29823 0.82964 0.11241 0.0
C2613 C 0.28126 0.84054 0.1153 0.0
C2614 C 0.27439 0.84366 0.13668 0.0
C2615 C 0.28443 0.83609 0.15498 0.0
H2616 H 0.98963 0.56205 0.87279 0.0
H2617 H 0.93504 0.57952 0.90339 0.0
H2618 H 1.01047 0.56453 0.91016 0.0
H2619 H 0.9563 0.58258 0.94107 0.0
H2620 H 0.04648 0.57363 0.98053 0.0
H2621 H 0.02993 0.58529 0.94681 0.0
H2622 H 0.96234 0.55127 0.95973 0.0
H2623 H 0.97874 0.54009 0.99363 0.0
C2624 C 0.98244 0.56719 0.88754 0.0
C2625 C 0.96052 0.57013 0.88523 0.0
C2626 C 0.99446 0.56874 0.90899 0.0
C2627 C 0.9848 0.57331 0.92854 0.0
C2628 C 0.96392 0.57858 0.92624 0.0
C2629 C 0.95186 0.57704 0.90469 0.0
C2630 C 0.02808 0.56871 0.97622 0.0
C2631 C 0.01394 0.55559 0.98954 0.0
C2632 C 0.01863 0.57549 0.95698 0.0
C2633 C 0.99486 0.56926 0.95066 0.0
C2634 C 0.98072 0.5567 0.96436 0.0
C2635 C 0.99015 0.54997 0.98361 0.0
H2636 H 0.29803 0.27145 0.59586 0.0
H2637 H 0.2744 0.2038 0.61175 0.0
H2638 H 0.29714 0.28678 0.63562 0.0
H2639 H 0.27283 0.21895 0.65067 0.0
H2640 H 0.25088 0.25423 0.71263 0.0
H2641 H 0.2499 0.24319 0.67177 0.0
H2642 H 0.31956 0.28406 0.67647 0.0
H2643 H 0.3208 0.29465 0.7174 0.0
C2644 C 0.29248 0.25988 0.60769 0.0
C2645 C 0.28648 0.23638 0.60057 0.0
C2646 C 0.29201 0.26863 0.63046 0.0
C2647 C 0.28479 0.25407 0.64634 0.0
C2648 C 0.27829 0.23066 0.63894 0.0
C2649 C 0.27936 0.22199 0.61657 0.0
C2650 C 0.26591 0.26109 0.70495 0.0
C2651 C 0.28595 0.27526 0.71845 0.0
C2652 C 0.26537 0.25471 0.68151 0.0
C2653 C 0.28465 0.26277 0.67078 0.0
C2654 C 0.30436 0.2777 0.68409 0.0
C2655 C 0.30508 0.28365 0.70762 0.0
H2656 H 0.57713 0.56341 0.24305 0.0
H2657 H 0.6055 0.50977 0.22081 0.0
H2658 H 0.56363 0.56502 0.20336 0.0
H2659 H 0.59127 0.5105 0.18157 0.0
H2660 H 0.59134 0.53415 0.11382 0.0
H2661 H 0.60085 0.53258 0.15369 0.0
H2662 H 0.53973 0.5499 0.16754 0.0
H2663 H 0.53055 0.55227 0.12709 0.0
C2664 C 0.57994 0.55152 0.22976 0.0
C2665 C 0.59256 0.53654 0.23522 0.0
C2666 C 0.57222 0.55246 0.20689 0.0
C2667 C 0.57674 0.53828 0.18886 0.0
C2668 C 0.58807 0.52234 0.19464 0.0
C2669 C 0.59603 0.52167 0.21732 0.0
C2670 C 0.57983 0.53771 0.12525 0.0
C2671 C 0.56005 0.54324 0.11696 0.0
C2672 C 0.58521 0.53657 0.14833 0.0
C2673 C 0.57089 0.54058 0.16419 0.0
C2674 C 0.5513 0.54669 0.15605 0.0
C2675 C 0.54598 0.54804 0.13277 0.0
H2676 H 0.22538 0.85521 0.93514 0.0
H2677 H 0.28973 0.90194 0.92914 0.0
H2678 H 0.221 0.83923 0.89503 0.0
H2679 H 0.28626 0.88559 0.88974 0.0
H2680 H 0.2835 0.85082 0.8231 0.0
H2681 H 0.2706 0.8739 0.85125 0.0
H2682 H 0.24192 0.81457 0.88157 0.0
H2683 H 0.25358 0.79127 0.85239 0.0
C2684 C 0.23804 0.86263 0.92486 0.0
C2685 C 0.25784 0.87963 0.93479 0.0
C2686 C 0.23571 0.8534 0.90207 0.0
C2687 C 0.25354 0.86072 0.88939 0.0
C2688 C 0.27209 0.87959 0.89887 0.0
C2689 C 0.27418 0.88899 0.92147 0.0
C2690 C 0.27415 0.84266 0.83561 0.0
C2691 C 0.27007 0.81937 0.83606 0.0
C2692 C 0.26666 0.85589 0.85164 0.0
C2693 C 0.25554 0.84619 0.86884 0.0
C2694 C 0.25022 0.82261 0.8684 0.0
C2695 C 0.25726 0.80926 0.85197 0.0
H2696 H 0.8889 0.50372 0.74797 0.0
H2697 H 0.95258 0.55586 0.77159 0.0
H2698 H 0.90563 0.48948 0.71631 0.0
H2699 H 0.96903 0.5418 0.73992 0.0
H2700 H 1.00134 0.49843 0.69987 0.0
H2701 H 0.9804 0.50671 0.73044 0.0
H2702 H 0.92147 0.50064 0.68125 0.0
H2703 H 0.94217 0.49152 0.65063 0.0
C2704 C 0.90629 0.5124 0.74616 0.0
C2705 C 0.91954 0.53074 0.76238 0.0
C2706 C 0.91585 0.50417 0.72813 0.0
C2707 C 0.93875 0.51419 0.72612 0.0
C2708 C 0.95152 0.53335 0.74153 0.0
C2709 C 0.94201 0.54156 0.75949 0.0
C2710 C 0.98367 0.49808 0.69563 0.0
C2711 C 0.97344 0.49468 0.67293 0.0
C2712 C 0.97182 0.50314 0.71307 0.0
C2713 C 0.9496 0.50491 0.70806 0.0
C2714 C 0.93865 0.49953 0.68551 0.0
C2715 C 0.95051 0.49442 0.66805 0.0
H2716 H 0.25419 0.24648 0.46312 0.0
H2717 H 0.31776 0.2294 0.46656 0.0
H2718 H 0.25749 0.25458 0.4245 0.0
H2719 H 0.32123 0.23787 0.42784 0.0
H2720 H 0.32816 0.27837 0.36549 0.0
H2721 H 0.32663 0.27039 0.40457 0.0
H2722 H 0.25563 0.23282 0.38604 0.0
H2723 H 0.25718 0.24051 0.34709 0.0
C2724 C 0.26902 0.24465 0.45577 0.0
C2725 C 0.28571 0.23727 0.46816 0.0
C2726 C 0.27083 0.24915 0.43346 0.0
C2727 C 0.28957 0.2468 0.42283 0.0
C2728 C 0.3066 0.23999 0.43542 0.0
C2729 C 0.30459 0.23508 0.45766 0.0
C2730 C 0.31225 0.26827 0.36969 0.0
C2731 C 0.2928 0.26012 0.35295 0.0
C2732 C 0.31139 0.26363 0.39214 0.0
C2733 C 0.29096 0.25105 0.39865 0.0
C2734 C 0.2716 0.24279 0.38184 0.0
C2735 C 0.27255 0.24709 0.35937 0.0
H2736 H 0.33145 0.60956 0.51624 0.0
H2737 H 0.35904 0.61622 0.58694 0.0
H2738 H 0.35951 0.59016 0.50553 0.0
H2739 H 0.38733 0.59769 0.57634 0.0
H2740 H 0.39865 0.5299 0.55418 0.0
H2741 H 0.37647 0.55623 0.56129 0.0
H2742 H 0.40194 0.59086 0.50675 0.0
H2743 H 0.42446 0.56436 0.49965 0.0
C2744 C 0.344 0.6075 0.52934 0.0
C2745 C 0.34291 0.61366 0.55237 0.0
C2746 C 0.36 0.59652 0.52325 0.0
C2747 C 0.37503 0.59196 0.54022 0.0
C2748 C 0.37545 0.60048 0.56304 0.0
C2749 C 0.35935 0.61106 0.56908 0.0
C2750 C 0.39947 0.54308 0.54367 0.0
C2751 C 0.41327 0.5452 0.52647 0.0
C2752 C 0.38693 0.55822 0.54781 0.0
C2753 C 0.38795 0.57579 0.53484 0.0
C2754 C 0.40101 0.57746 0.51699 0.0
C2755 C 0.41369 0.56225 0.51286 0.0
H2756 H 0.89105 0.90153 0.56096 0.0
H2757 H 0.85729 0.9537 0.55629 0.0
H2758 H 0.92728 0.92862 0.55843 0.0
H2759 H 0.89342 0.98066 0.55295 0.0
H2760 H 0.96702 0.0283 0.56639 0.0
H2761 H 0.9308 0.00248 0.57198 0.0
H2762 H 0.94562 0.9479 0.53074 0.0
H2763 H 0.98161 0.97321 0.5257 0.0
C2764 C 0.89133 0.91876 0.55929 0.0
C2765 C 0.8712 0.92536 0.55871 0.0
C2766 C 0.91212 0.93432 0.55772 0.0
C2767 C 0.91334 0.95687 0.55525 0.0
C2768 C 0.89325 0.96356 0.55508 0.0
C2769 C 0.87247 0.94802 0.55686 0.0
C2770 C 0.96248 0.0108 0.55852 0.0
C2771 C 0.97734 0.00292 0.54564 0.0
C2772 C 0.94168 0.99598 0.56165 0.0
C2773 C 0.9353 0.97297 0.55199 0.0
C2774 C 0.95009 0.96531 0.53889 0.0
C2775 C 0.97075 0.98 0.53582 0.0
H2776 H 0.88455 0.07671 0.24413 0.0
H2777 H 0.91289 0.08485 0.3148 0.0
H2778 H 0.86607 0.10611 0.25303 0.0
H2779 H 0.89398 0.11419 0.32378 0.0
H2780 H 0.82992 0.1424 0.32905 0.0
H2781 H 0.852 0.11561 0.32251 0.0
H2782 H 0.87798 0.14866 0.26742 0.0
H2783 H 0.8568 0.17605 0.27442 0.0
C2784 C 0.88687 0.08481 0.26158 0.0
C2785 C 0.9002 0.07843 0.27876 0.0
C2786 C 0.87636 0.10174 0.26665 0.0
C2787 C 0.87856 0.11248 0.2891 0.0
C2788 C 0.89188 0.10613 0.30634 0.0
C2789 C 0.90279 0.08943 0.30118 0.0
C2790 C 0.84067 0.14433 0.31583 0.0
C2791 C 0.84128 0.16143 0.30216 0.0
C2792 C 0.85328 0.12888 0.31205 0.0
C2793 C 0.8666 0.12992 0.29435 0.0
C2794 C 0.86761 0.14721 0.28099 0.0
C2795 C 0.8553 0.16285 0.28495 0.0
H2796 H 0.71382 0.13066 0.04163 0.0
H2797 H 0.72637 0.07581 0.07438 0.0
H2798 H 0.67319 0.11154 0.0352 0.0
H2799 H 0.68546 0.05647 0.06755 0.0
H2800 H 0.61083 0.04963 0.08028 0.0
H2801 H 0.65204 0.06431 0.08295 0.0
H2802 H 0.64442 0.07763 0.01375 0.0
H2803 H 0.60309 0.06325 0.01108 0.0
C2804 C 0.70794 0.1144 0.04727 0.0
C2805 C 0.72329 0.10483 0.05872 0.0
C2806 C 0.68466 0.10338 0.0434 0.0
C2807 C 0.67622 0.08257 0.05091 0.0
C2808 C 0.69157 0.07264 0.0618 0.0
C2809 C 0.71494 0.08366 0.06563 0.0
C2810 C 0.61791 0.05561 0.06559 0.0
C2811 C 0.6037 0.05548 0.04554 0.0
C2812 C 0.64152 0.0638 0.06707 0.0
C2813 C 0.65137 0.07206 0.04855 0.0
C2814 C 0.63721 0.07152 0.02834 0.0
C2815 C 0.61358 0.06327 0.02683 0.0
H2816 H 0.25399 0.4997 0.26152 0.0
H2817 H 0.20834 0.49226 0.31198 0.0
H2818 H 0.27306 0.47488 0.27849 0.0
H2819 H 0.22775 0.46732 0.32918 0.0
H2820 H 0.24915 0.39924 0.32548 0.0
H2821 H 0.23141 0.42865 0.31734 0.0
H2822 H 0.29761 0.47375 0.31359 0.0
H2823 H 0.31526 0.44409 0.32087 0.0
C2824 C 0.24806 0.49282 0.27631 0.0
C2825 C 0.2296 0.49784 0.28537 0.0
C2826 C 0.25918 0.4788 0.28619 0.0
C2827 C 0.25206 0.46941 0.30531 0.0
C2828 C 0.23358 0.47439 0.31445 0.0
C2829 C 0.22249 0.48861 0.30461 0.0
C2830 C 0.25993 0.41555 0.32321 0.0
C2831 C 0.28352 0.41926 0.32338 0.0
C2832 C 0.2498 0.43245 0.31879 0.0
C2833 C 0.26312 0.45332 0.3145 0.0
C2834 C 0.28693 0.45764 0.31648 0.0
C2835 C 0.29705 0.44074 0.32088 0.0
H2836 H 0.25304 0.44056 0.09188 0.0
H2837 H 0.23988 0.41212 0.0208 0.0
H2838 H 0.2243 0.46042 0.08551 0.0
H2839 H 0.21112 0.43229 0.01438 0.0
H2840 H 0.18343 0.49577 0.01111 0.0
H2841 H 0.21 0.47318 0.01568 0.0
H2842 H 0.18176 0.45141 0.07489 0.0
H2843 H 0.15465 0.47327 0.07 0.0
C2844 C 0.24397 0.43849 0.07487 0.0
C2845 C 0.24878 0.4247 0.05685 0.0
C2846 C 0.22739 0.44981 0.07125 0.0
C2847 C 0.21536 0.44794 0.04945 0.0
C2848 C 0.22017 0.43419 0.03136 0.0
C2849 C 0.23655 0.42254 0.03506 0.0
C2850 C 0.18252 0.48588 0.02489 0.0
C2851 C 0.16682 0.48661 0.04025 0.0
C2852 C 0.19786 0.47295 0.02752 0.0
C2853 C 0.19812 0.46059 0.04573 0.0
C2854 C 0.18226 0.46101 0.06088 0.0
C2855 C 0.16676 0.4737 0.05811 0.0
H2856 H 0.87016 0.96541 0.25627 0.0
H2857 H 0.92433 0.94917 0.2967 0.0
H2858 H 0.84413 0.9287 0.25894 0.0
H2859 H 0.89823 0.91306 0.30025 0.0
H2860 H 0.85467 0.84116 0.28497 0.0
H2861 H 0.8792 0.87747 0.28009 0.0
H2862 H 0.82275 0.90615 0.28283 0.0
H2863 H 0.79776 0.86911 0.28673 0.0
C2864 C 0.87649 0.95406 0.26584 0.0
C2865 C 0.89942 0.96022 0.27612 0.0
C2866 C 0.86149 0.93303 0.26752 0.0
C2867 C 0.86896 0.91768 0.27973 0.0
C2868 C 0.89186 0.92407 0.29024 0.0
C2869 C 0.90688 0.94492 0.28832 0.0
C2870 C 0.84742 0.85519 0.28455 0.0
C2871 C 0.82426 0.85226 0.28649 0.0
C2872 C 0.8616 0.87616 0.28189 0.0
C2873 C 0.85321 0.89504 0.28143 0.0
C2874 C 0.82987 0.89203 0.28293 0.0
C2875 C 0.81552 0.87082 0.28528 0.0
H2876 H 0.70886 0.12818 0.79158 0.0
H2877 H 0.74539 0.10929 0.73841 0.0
H2878 H 0.72878 0.16779 0.79207 0.0
H2879 H 0.76448 0.14895 0.73804 0.0
H2880 H 0.81111 0.22057 0.75812 0.0
H2881 H 0.7924 0.18066 0.75899 0.0
H2882 H 0.73 0.19697 0.77035 0.0
H2883 H 0.74914 0.23666 0.77055 0.0
C2884 C 0.72101 0.13254 0.77986 0.0
C2885 C 0.72558 0.11571 0.76492 0.0
C2886 C 0.73234 0.15523 0.78004 0.0
C2887 C 0.74817 0.16153 0.76502 0.0
C2888 C 0.75269 0.14464 0.7501 0.0
C2889 C 0.74164 0.12193 0.75018 0.0
C2890 C 0.79328 0.21534 0.76025 0.0
C2891 C 0.78128 0.23125 0.76365 0.0
C2892 C 0.78257 0.19262 0.76089 0.0
C2893 C 0.75966 0.18561 0.76461 0.0
C2894 C 0.74772 0.20176 0.76778 0.0
C2895 C 0.75853 0.22441 0.76754 0.0
loop_
_geom_bond_atom_site_label_1
_geom_bond_atom_site_label_2
_geom_bond_distance
_geom_bond_site_symmetry_2
_ccdc_geom_bond_type
O0 Cd1 2.223 . S
O0 C8 1.315 . S
Cd1 O0 2.223 . S
Cd1 O4 2.297 . S
Cd1 O5 2.439 . S
Cd1 O11 2.240 . S
Cd2 O3 2.240 . S
Cd2 O10 2.223 1_455 S
Cd2 O12 2.297 . S
Cd2 O13 2.439 . S
O3 Cd2 2.240 . S
O3 C8 1.279 . S
O4 Cd1 2.297 . S
O4 C6 1.247 . S
O5 Cd1 2.439 . S
O5 C6 1.208 . S
C6 O4 1.247 . S
C6 O5 1.208 . S
C7 O12 1.247 . S
C7 O13 1.208 . S
C8 O0 1.315 . S
C8 O3 1.279 . S
C9 O10 1.315 . S
C9 O11 1.279 1_655 S
O10 Cd2 2.223 1_655 S
O10 C9 1.315 . S
O11 Cd1 2.240 . S
O11 C9 1.279 1_455 S
O12 Cd2 2.297 . S
O12 C7 1.247 . S
O13 Cd2 2.439 . S
O13 C7 1.208 . S
O14 Cd15 2.223 . S
O14 C22 1.315 . S
Cd15 O14 2.223 . S
Cd15 O18 2.297 1_455 S
Cd15 O19 2.439 1_455 S
Cd15 O25 2.240 . S
Cd16 O17 2.240 . S
Cd16 O24 2.223 . S
Cd16 O26 2.297 . S
Cd16 O27 2.439 . S
O17 Cd16 2.240 . S
O17 C22 1.279 . S
O18 Cd15 2.297 1_655 S
O18 C20 1.247 . S
O19 Cd15 2.439 1_655 S
O19 C20 1.208 . S
C20 O18 1.247 . S
C20 O19 1.208 . S
C21 O26 1.247 . S
C21 O27 1.208 . S
C22 O14 1.315 . S
C22 O17 1.279 . S
C23 O24 1.315 . S
C23 O25 1.279 . S
O24 Cd16 2.223 . S
O24 C23 1.315 . S
O25 Cd15 2.240 . S
O25 C23 1.279 . S
O26 Cd16 2.297 . S
O26 C21 1.247 . S
O27 Cd16 2.439 . S
O27 C21 1.208 . S
O28 Cd29 2.223 . S
O28 C36 1.315 . S
Cd29 O28 2.223 . S
Cd29 O32 2.297 . S
Cd29 O33 2.439 . S
Cd29 O39 2.240 . S
Cd30 O31 2.240 . S
Cd30 O38 2.223 . S
Cd30 O40 2.297 . S
Cd30 O41 2.439 . S
O31 Cd30 2.240 . S
O31 C36 1.279 . S
O32 Cd29 2.297 . S
O32 C34 1.247 . S
O33 Cd29 2.439 . S
O33 C34 1.208 . S
C34 O32 1.247 . S
C34 O33 1.208 . S
C35 O40 1.247 . S
C35 O41 1.208 . S
C36 O28 1.315 . S
C36 O31 1.279 . S
C37 O38 1.315 . S
C37 O39 1.279 . S
O38 Cd30 2.223 . S
O38 C37 1.315 . S
O39 Cd29 2.240 . S
O39 C37 1.279 . S
O40 Cd30 2.297 . S
O40 C35 1.247 . S
O41 Cd30 2.439 . S
O41 C35 1.208 . S
O42 Cd43 2.223 . S
O42 C50 1.315 . S
Cd43 O42 2.223 . S
Cd43 O46 2.297 . S
Cd43 O47 2.439 . S
Cd43 O53 2.240 . S
Cd44 O45 2.240 . S
Cd44 O52 2.223 . S
Cd44 O54 2.297 . S
Cd44 O55 2.439 . S
O45 Cd44 2.240 . S
O45 C50 1.279 . S
O46 Cd43 2.297 . S
O46 C48 1.247 . S
O47 Cd43 2.439 . S
O47 C48 1.208 . S
C48 O46 1.247 . S
C48 O47 1.208 . S
C49 O54 1.247 . S
C49 O55 1.208 . S
C50 O42 1.315 . S
C50 O45 1.279 . S
C51 O52 1.315 . S
C51 O53 1.279 . S
O52 Cd44 2.223 . S
O52 C51 1.315 . S
O53 Cd43 2.240 . S
O53 C51 1.279 . S
O54 Cd44 2.297 . S
O54 C49 1.247 . S
O55 Cd44 2.439 . S
O55 C49 1.208 . S
O56 Cd57 2.223 . S
O56 C64 1.315 . S
Cd57 O56 2.223 . S
Cd57 O60 2.297 . S
Cd57 O61 2.439 . S
Cd57 O67 2.240 . S
Cd58 O59 2.240 . S
Cd58 O66 2.223 . S
Cd58 O68 2.297 . S
Cd58 O69 2.439 . S
O59 Cd58 2.240 . S
O59 C64 1.279 . S
O60 Cd57 2.297 . S
O60 C62 1.247 . S
O61 Cd57 2.439 . S
O61 C62 1.208 . S
C62 O60 1.247 . S
C62 O61 1.208 . S
C63 O68 1.247 . S
C63 O69 1.208 . S
C64 O56 1.315 . S
C64 O59 1.279 . S
C65 O66 1.315 . S
C65 O67 1.279 . S
O66 Cd58 2.223 . S
O66 C65 1.315 . S
O67 Cd57 2.240 . S
O67 C65 1.279 . S
O68 Cd58 2.297 . S
O68 C63 1.247 . S
O69 Cd58 2.439 . S
O69 C63 1.208 . S
O70 Cd71 2.223 . S
O70 C78 1.315 . S
Cd71 O70 2.223 . S
Cd71 O74 2.297 . S
Cd71 O75 2.439 . S
Cd71 O81 2.240 . S
Cd72 O73 2.240 . S
Cd72 O80 2.223 . S
Cd72 O82 2.297 . S
Cd72 O83 2.439 . S
O73 Cd72 2.240 . S
O73 C78 1.279 . S
O74 Cd71 2.297 . S
O74 C76 1.247 . S
O75 Cd71 2.439 . S
O75 C76 1.208 . S
C76 O74 1.247 . S
C76 O75 1.208 . S
C77 O82 1.247 . S
C77 O83 1.208 . S
C78 O70 1.315 . S
C78 O73 1.279 . S
C79 O80 1.315 . S
C79 O81 1.279 . S
O80 Cd72 2.223 . S
O80 C79 1.315 . S
O81 Cd71 2.240 . S
O81 C79 1.279 . S
O82 Cd72 2.297 . S
O82 C77 1.247 . S
O83 Cd72 2.439 . S
O83 C77 1.208 . S
O84 Cd85 2.223 . S
O84 C92 1.315 . S
Cd85 O84 2.223 . S
Cd85 O88 2.297 . S
Cd85 O89 2.439 . S
Cd85 O95 2.240 . S
Cd86 O87 2.240 . S
Cd86 O94 2.223 . S
Cd86 O96 2.297 . S
Cd86 O97 2.439 . S
O87 Cd86 2.240 . S
O87 C92 1.279 . S
O88 Cd85 2.297 . S
O88 C90 1.247 . S
O89 Cd85 2.439 . S
O89 C90 1.208 . S
C90 O88 1.247 . S
C90 O89 1.208 . S
C91 O96 1.247 . S
C91 O97 1.208 . S
C92 O84 1.315 . S
C92 O87 1.279 . S
C93 O94 1.315 . S
C93 O95 1.279 . S
O94 Cd86 2.223 . S
O94 C93 1.315 . S
O95 Cd85 2.240 . S
O95 C93 1.279 . S
O96 Cd86 2.297 . S
O96 C91 1.247 . S
O97 Cd86 2.439 . S
O97 C91 1.208 . S
O98 Cd99 2.223 1_655 S
O98 C106 1.315 . S
Cd99 O98 2.223 1_455 S
Cd99 O102 2.297 . S
Cd99 O103 2.439 . S
Cd99 O109 2.240 1_455 S
Cd100 O101 2.240 1_655 S
Cd100 O108 2.223 . S
Cd100 O110 2.297 1_556 S
Cd100 O111 2.439 1_655 S
O101 Cd100 2.240 1_455 S
O101 C106 1.279 1_455 S
O102 Cd99 2.297 . S
O102 C104 1.247 . S
O103 Cd99 2.439 . S
O103 C104 1.208 . S
C104 O102 1.247 . S
C104 O103 1.208 . S
C105 O110 1.247 1_456 S
C105 O111 1.208 . S
C106 O98 1.315 . S
C106 O101 1.279 1_655 S
C107 O108 1.315 . S
C107 O109 1.279 . S
O108 Cd100 2.223 . S
O108 C107 1.315 . S
O109 Cd99 2.240 1_655 S
O109 C107 1.279 . S
O110 Cd100 2.297 1_554 S
O110 C105 1.247 1_654 S
O111 Cd100 2.439 1_455 S
O111 C105 1.208 . S
O112 Cd113 2.223 1_565 S
O112 C120 1.315 1_565 S
Cd113 O112 2.223 1_545 S
Cd113 O116 2.297 . S
Cd113 O117 2.439 . S
Cd113 O123 2.240 1_545 S
Cd114 O115 2.240 1_565 S
Cd114 O122 2.223 . S
Cd114 O124 2.297 . S
Cd114 O125 2.439 1_565 S
O115 Cd114 2.240 1_545 S
O115 C120 1.279 . S
O116 Cd113 2.297 . S
O116 C118 1.247 . S
O117 Cd113 2.439 . S
O117 C118 1.208 . S
C118 O116 1.247 . S
C118 O117 1.208 . S
C119 O124 1.247 1_545 S
C119 O125 1.208 . S
C120 O112 1.315 1_545 S
C120 O115 1.279 . S
C121 O122 1.315 . S
C121 O123 1.279 . S
O122 Cd114 2.223 . S
O122 C121 1.315 . S
O123 Cd113 2.240 1_565 S
O123 C121 1.279 . S
O124 Cd114 2.297 . S
O124 C119 1.247 1_565 S
O125 Cd114 2.439 1_545 S
O125 C119 1.208 . S
O126 Cd127 2.223 . S
O126 C134 1.315 . S
Cd127 O126 2.223 . S
Cd127 O130 2.297 . S
Cd127 O131 2.439 . S
Cd127 O137 2.240 . S
Cd128 O129 2.240 . S
Cd128 O136 2.223 . S
Cd128 O138 2.297 . S
Cd128 O139 2.439 . S
O129 Cd128 2.240 . S
O129 C134 1.279 . S
O130 Cd127 2.297 . S
O130 C132 1.247 . S
O131 Cd127 2.439 . S
O131 C132 1.208 . S
C132 O130 1.247 . S
C132 O131 1.208 . S
C133 O138 1.247 . S
C133 O139 1.208 . S
C134 O126 1.315 . S
C134 O129 1.279 . S
C135 O136 1.315 . S
C135 O137 1.279 . S
O136 Cd128 2.223 . S
O136 C135 1.315 . S
O137 Cd127 2.240 . S
O137 C135 1.279 . S
O138 Cd128 2.297 . S
O138 C133 1.247 . S
O139 Cd128 2.439 . S
O139 C133 1.208 . S
O140 Cd141 2.223 . S
O140 C148 1.315 . S
Cd141 O140 2.223 . S
Cd141 O144 2.297 . S
Cd141 O145 2.439 . S
Cd141 O151 2.240 . S
Cd142 O143 2.240 . S
Cd142 O150 2.223 . S
Cd142 O152 2.297 . S
Cd142 O153 2.439 . S
O143 Cd142 2.240 . S
O143 C148 1.279 . S
O144 Cd141 2.297 . S
O144 C146 1.247 1_545 S
O145 Cd141 2.439 . S
O145 C146 1.208 1_545 S
C146 O144 1.247 1_565 S
C146 O145 1.208 1_565 S
C147 O152 1.247 . S
C147 O153 1.208 . S
C148 O140 1.315 . S
C148 O143 1.279 . S
C149 O150 1.315 . S
C149 O151 1.279 . S
O150 Cd142 2.223 . S
O150 C149 1.315 . S
O151 Cd141 2.240 . S
O151 C149 1.279 . S
O152 Cd142 2.297 . S
O152 C147 1.247 . S
O153 Cd142 2.439 . S
O153 C147 1.208 . S
O154 Cd155 2.223 . S
O154 C162 1.315 . S
Cd155 O154 2.223 . S
Cd155 O158 2.297 . S
Cd155 O159 2.439 1_554 S
Cd155 O165 2.240 1_554 S
Cd156 O157 2.240 1_556 S
Cd156 O164 2.223 1_556 S
Cd156 O166 2.297 . S
Cd156 O167 2.439 . S
O157 Cd156 2.240 1_554 S
O157 C162 1.279 . S
O158 Cd155 2.297 . S
O158 C160 1.247 . S
O159 Cd155 2.439 1_556 S
O159 C160 1.208 1_556 S
C160 O158 1.247 . S
C160 O159 1.208 1_554 S
C161 O166 1.247 . S
C161 O167 1.208 . S
C162 O154 1.315 . S
C162 O157 1.279 . S
C163 O164 1.315 . S
C163 O165 1.279 1_554 S
O164 Cd156 2.223 1_554 S
O164 C163 1.315 . S
O165 Cd155 2.240 1_556 S
O165 C163 1.279 1_556 S
O166 Cd156 2.297 . S
O166 C161 1.247 . S
O167 Cd156 2.439 . S
O167 C161 1.208 . S
O168 Cd169 2.223 . S
O168 C176 1.315 . S
Cd169 O168 2.223 . S
Cd169 O172 2.297 . S
Cd169 O173 2.439 . S
Cd169 O179 2.240 . S
Cd170 O171 2.240 . S
Cd170 O178 2.223 . S
Cd170 O180 2.333 . S
Cd170 O181 2.439 . S
O171 Cd170 2.240 . S
O171 C176 1.279 . S
O172 Cd169 2.297 . S
O172 C174 1.247 . S
O173 Cd169 2.439 . S
O173 C174 1.208 . S
C174 O172 1.247 . S
C174 O173 1.208 . S
C175 O180 1.234 1_556 S
C175 O181 1.208 1_556 S
C176 O168 1.315 . S
C176 O171 1.279 . S
C177 O178 1.315 . S
C177 O179 1.279 . S
O178 Cd170 2.223 . S
O178 C177 1.315 . S
O179 Cd169 2.240 . S
O179 C177 1.279 . S
O180 Cd170 2.333 . S
O180 C175 1.234 1_554 S
O181 Cd170 2.439 . S
O181 C175 1.208 1_554 S
O182 Cd183 2.223 . S
O182 C190 1.315 . S
Cd183 O182 2.223 . S
Cd183 O186 2.297 . S
Cd183 O187 2.439 . S
Cd183 O193 2.240 . S
Cd184 O185 2.240 . S
Cd184 O192 2.223 . S
Cd184 O194 2.297 . S
Cd184 O195 2.439 . S
O185 Cd184 2.240 . S
O185 C190 1.279 . S
O186 Cd183 2.297 . S
O186 C188 1.247 . S
O187 Cd183 2.439 . S
O187 C188 1.208 . S
C188 O186 1.247 . S
C188 O187 1.208 . S
C189 O194 1.247 . S
C189 O195 1.208 . S
C190 O182 1.315 . S
C190 O185 1.279 . S
C191 O192 1.315 . S
C191 O193 1.279 . S
O192 Cd184 2.223 . S
O192 C191 1.315 . S
O193 Cd183 2.240 . S
O193 C191 1.279 . S
O194 Cd184 2.297 . S
O194 C189 1.247 . S
O195 Cd184 2.439 . S
O195 C189 1.208 . S
O196 Cd197 2.223 . S
O196 C204 1.315 . S
Cd197 O196 2.223 . S
Cd197 O200 2.297 . S
Cd197 O201 2.439 . S
Cd197 O207 2.240 . S
Cd198 O199 2.240 . S
Cd198 O206 2.223 . S
Cd198 O208 2.297 . S
Cd198 O209 2.439 . S
O199 Cd198 2.240 . S
O199 C204 1.279 . S
O200 Cd197 2.297 . S
O200 C202 1.247 . S
O201 Cd197 2.439 . S
O201 C202 1.208 . S
C202 O200 1.247 . S
C202 O201 1.208 . S
C203 O208 1.247 . S
C203 O209 1.208 . S
C204 O196 1.315 . S
C204 O199 1.279 . S
C205 O206 1.315 . S
C205 O207 1.279 . S
O206 Cd198 2.223 . S
O206 C205 1.315 . S
O207 Cd197 2.240 . S
O207 C205 1.279 . S
O208 Cd198 2.297 . S
O208 C203 1.247 . S
O209 Cd198 2.439 . S
O209 C203 1.208 . S
O210 Cd211 2.223 . S
O210 C218 1.315 . S
Cd211 O210 2.223 . S
Cd211 O214 2.297 . S
Cd211 O215 2.439 . S
Cd211 O221 2.240 . S
Cd212 O213 2.240 . S
Cd212 O220 2.223 . S
Cd212 O222 2.297 . S
Cd212 O223 2.439 . S
O213 Cd212 2.240 . S
O213 C218 1.279 . S
O214 Cd211 2.297 . S
O214 C216 1.247 . S
O215 Cd211 2.439 . S
O215 C216 1.208 . S
C216 O214 1.247 . S
C216 O215 1.208 . S
C217 O222 1.247 . S
C217 O223 1.208 . S
C218 O210 1.315 . S
C218 O213 1.279 . S
C219 O220 1.315 . S
C219 O221 1.279 . S
O220 Cd212 2.223 . S
O220 C219 1.315 . S
O221 Cd211 2.240 . S
O221 C219 1.279 . S
O222 Cd212 2.297 . S
O222 C217 1.247 . S
O223 Cd212 2.439 . S
O223 C217 1.208 . S
O224 Cd225 2.223 . S
O224 C232 1.315 . S
Cd225 O224 2.223 . S
Cd225 O228 2.297 . S
Cd225 O229 2.439 . S
Cd225 O235 2.266 . S
Cd226 O227 2.240 . S
Cd226 O234 2.223 1_545 S
Cd226 O236 2.297 . S
Cd226 O237 2.439 . S
O227 Cd226 2.240 . S
O227 C232 1.279 . S
O228 Cd225 2.297 . S
O228 C230 1.247 . S
O229 Cd225 2.439 . S
O229 C230 1.208 . S
C230 O228 1.247 . S
C230 O229 1.208 . S
C231 O236 1.247 . S
C231 O237 1.208 . S
C232 O224 1.315 . S
C232 O227 1.279 . S
C233 O234 1.315 . S
C233 O235 1.253 1_565 S
O234 Cd226 2.223 1_565 S
O234 C233 1.315 . S
O235 Cd225 2.266 . S
O235 C233 1.253 1_545 S
O236 Cd226 2.297 . S
O236 C231 1.247 . S
O237 Cd226 2.439 . S
O237 C231 1.208 . S
O238 Cd239 2.223 . S
O238 C246 1.315 . S
Cd239 O238 2.223 . S
Cd239 O242 2.297 . S
Cd239 O243 2.439 . S
Cd239 O249 2.240 . S
Cd240 O241 2.240 . S
Cd240 O248 2.223 . S
Cd240 O250 2.297 . S
Cd240 O251 2.439 . S
O241 Cd240 2.240 . S
O241 C246 1.279 . S
O242 Cd239 2.297 . S
O242 C244 1.247 . S
O243 Cd239 2.439 . S
O243 C244 1.208 . S
C244 O242 1.247 . S
C244 O243 1.208 . S
C245 O250 1.247 . S
C245 O251 1.208 . S
C246 O238 1.315 . S
C246 O241 1.279 . S
C247 O248 1.315 . S
C247 O249 1.279 . S
O248 Cd240 2.223 . S
O248 C247 1.315 . S
O249 Cd239 2.240 . S
O249 C247 1.279 . S
O250 Cd240 2.297 . S
O250 C245 1.247 . S
O251 Cd240 2.439 . S
O251 C245 1.208 . S
O252 Cd253 2.223 . S
O252 C260 1.315 . S
Cd253 O252 2.223 . S
Cd253 O256 2.297 . S
Cd253 O257 2.439 . S
Cd253 O263 2.240 . S
Cd254 O255 2.240 . S
Cd254 O262 2.223 . S
Cd254 O264 2.297 . S
Cd254 O265 2.439 . S
O255 Cd254 2.240 . S
O255 C260 1.279 . S
O256 Cd253 2.297 . S
O256 C258 1.247 . S
O257 Cd253 2.439 . S
O257 C258 1.208 . S
C258 O256 1.247 . S
C258 O257 1.208 . S
C259 O264 1.247 . S
C259 O265 1.208 . S
C260 O252 1.315 . S
C260 O255 1.279 . S
C261 O262 1.315 . S
C261 O263 1.279 . S
O262 Cd254 2.223 . S
O262 C261 1.315 . S
O263 Cd253 2.240 . S
O263 C261 1.279 . S
O264 Cd254 2.297 . S
O264 C259 1.247 . S
O265 Cd254 2.439 . S
O265 C259 1.208 . S
O266 Cd267 2.223 . S
O266 C274 1.315 . S
Cd267 O266 2.223 . S
Cd267 O270 2.297 . S
Cd267 O271 2.439 . S
Cd267 O277 2.240 . S
Cd268 O269 2.240 . S
Cd268 O276 2.223 . S
Cd268 O278 2.297 . S
Cd268 O279 2.439 . S
O269 Cd268 2.240 . S
O269 C274 1.279 . S
O270 Cd267 2.297 . S
O270 C272 1.247 . S
O271 Cd267 2.439 . S
O271 C272 1.208 . S
C272 O270 1.247 . S
C272 O271 1.208 . S
C273 O278 1.247 . S
C273 O279 1.208 . S
C274 O266 1.315 . S
C274 O269 1.279 . S
C275 O276 1.315 . S
C275 O277 1.279 . S
O276 Cd268 2.223 . S
O276 C275 1.315 . S
O277 Cd267 2.240 . S
O277 C275 1.279 . S
O278 Cd268 2.297 . S
O278 C273 1.247 . S
O279 Cd268 2.439 . S
O279 C273 1.208 . S
O280 Cd281 2.223 . S
O280 C288 1.315 . S
Cd281 O280 2.223 . S
Cd281 O284 2.297 . S
Cd281 O285 2.439 . S
Cd281 O291 2.240 . S
Cd282 O283 2.240 . S
Cd282 O290 2.223 . S
Cd282 O292 2.297 1_554 S
Cd282 O293 2.482 . S
O283 Cd282 2.240 . S
O283 C288 1.279 . S
O284 Cd281 2.297 . S
O284 C286 1.247 . S
O285 Cd281 2.439 . S
O285 C286 1.208 . S
C286 O284 1.247 . S
C286 O285 1.208 . S
C287 O292 1.247 . S
C287 O293 1.183 1_556 S
C288 O280 1.315 . S
C288 O283 1.279 . S
C289 O290 1.315 . S
C289 O291 1.279 . S
O290 Cd282 2.223 . S
O290 C289 1.315 . S
O291 Cd281 2.240 . S
O291 C289 1.279 . S
O292 Cd282 2.297 1_556 S
O292 C287 1.247 . S
O293 Cd282 2.482 . S
O293 C287 1.183 1_554 S
O294 Cd295 2.223 . S
O294 C302 1.315 . S
Cd295 O294 2.223 . S
Cd295 O298 2.297 . S
Cd295 O299 2.439 . S
Cd295 O305 2.240 . S
Cd296 O297 2.240 . S
Cd296 O304 2.223 . S
Cd296 O306 2.297 . S
Cd296 O307 2.439 . S
O297 Cd296 2.240 . S
O297 C302 1.279 . S
O298 Cd295 2.297 . S
O298 C300 1.247 . S
O299 Cd295 2.439 . S
O299 C300 1.208 . S
C300 O298 1.247 . S
C300 O299 1.208 . S
C301 O306 1.247 . S
C301 O307 1.208 . S
C302 O294 1.315 . S
C302 O297 1.279 . S
C303 O304 1.315 . S
C303 O305 1.279 . S
O304 Cd296 2.223 . S
O304 C303 1.315 . S
O305 Cd295 2.240 . S
O305 C303 1.279 . S
O306 Cd296 2.297 . S
O306 C301 1.247 . S
O307 Cd296 2.439 . S
O307 C301 1.208 . S
O308 Cd309 2.223 . S
O308 C316 1.315 . S
Cd309 O308 2.223 . S
Cd309 O312 2.297 . S
Cd309 O313 2.439 . S
Cd309 O319 2.240 . S
Cd310 O311 2.240 . S
Cd310 O318 2.223 . S
Cd310 O320 2.297 . S
Cd310 O321 2.439 . S
O311 Cd310 2.240 . S
O311 C316 1.279 . S
O312 Cd309 2.297 . S
O312 C314 1.247 . S
O313 Cd309 2.439 . S
O313 C314 1.208 . S
C314 O312 1.247 . S
C314 O313 1.208 . S
C315 O320 1.247 . S
C315 O321 1.208 . S
C316 O308 1.315 . S
C316 O311 1.279 . S
C317 O318 1.315 . S
C317 O319 1.279 . S
O318 Cd310 2.223 . S
O318 C317 1.315 . S
O319 Cd309 2.240 . S
O319 C317 1.279 . S
O320 Cd310 2.297 . S
O320 C315 1.247 . S
O321 Cd310 2.439 . S
O321 C315 1.208 . S
O322 Cd323 2.223 . S
O322 C330 1.315 . S
Cd323 O322 2.223 . S
Cd323 O326 2.297 . S
Cd323 O327 2.439 . S
Cd323 O333 2.240 . S
Cd324 O325 2.240 . S
Cd324 O332 2.223 . S
Cd324 O334 2.297 . S
Cd324 O335 2.439 . S
O325 Cd324 2.240 . S
O325 C330 1.279 . S
O326 Cd323 2.297 . S
O326 C328 1.247 . S
O327 Cd323 2.439 . S
O327 C328 1.208 . S
C328 O326 1.247 . S
C328 O327 1.208 . S
C329 O334 1.247 . S
C329 O335 1.208 . S
C330 O322 1.315 . S
C330 O325 1.279 . S
C331 O332 1.315 . S
C331 O333 1.279 . S
O332 Cd324 2.223 . S
O332 C331 1.315 . S
O333 Cd323 2.240 . S
O333 C331 1.279 . S
O334 Cd324 2.297 . S
O334 C329 1.247 . S
O335 Cd324 2.439 . S
O335 C329 1.208 . S
Dy336 O339 2.307 . S
Dy336 O341 2.395 . S
Dy336 O342 2.379 . S
Dy336 O344 2.339 . S
Dy336 O346 2.298 . S
Dy336 O350 2.275 . S
Dy336 C358 2.738 . S
Dy337 O340 2.298 1_655 S
Dy337 O343 2.275 1_655 S
Dy337 O345 2.307 1_655 S
Dy337 O347 2.395 . S
Dy337 O348 2.379 . S
Dy337 O351 2.339 1_655 S
Dy337 C367 2.738 . S
C338 O350 1.254 . S
C338 O351 1.257 . S
O339 Dy336 2.307 . S
O339 C349 1.266 . S
O340 Dy337 2.298 1_455 S
O340 C349 1.236 . S
O341 Dy336 2.395 . S
O341 C358 1.255 . S
O342 Dy336 2.379 . S
O342 C358 1.249 . S
O343 Dy337 2.275 1_455 S
O343 C359 1.254 . S
O344 Dy336 2.339 . S
O344 C359 1.257 . S
O345 Dy337 2.307 1_455 S
O345 C360 1.266 . S
O346 Dy336 2.298 . S
O346 C360 1.236 . S
O347 Dy337 2.395 . S
O347 C367 1.255 . S
O348 Dy337 2.379 . S
O348 C367 1.249 . S
C349 O339 1.266 . S
C349 O340 1.236 . S
O350 Dy336 2.275 . S
O350 C338 1.254 . S
O351 Dy337 2.339 1_455 S
O351 C338 1.257 . S
C352 C355 1.344 . S
C352 C356 1.328 . S
C352 C358 1.516 . S
C353 C354 1.304 . S
C353 C357 1.323 . S
C354 C353 1.304 . S
C354 C355 1.371 . S
C354 H368 0.930 . S
C355 C352 1.344 . S
C355 C354 1.371 . S
C355 H369 0.931 . S
C356 C352 1.328 . S
C356 C357 1.433 . S
C356 H370 0.931 . S
C357 C353 1.323 . S
C357 C356 1.433 . S
C357 H371 0.933 . S
C358 Dy336 2.738 . S
C358 O341 1.255 . S
C358 O342 1.249 . S
C358 C352 1.516 . S
C359 O343 1.254 . S
C359 O344 1.257 . S
C360 O345 1.266 . S
C360 O346 1.236 . S
C361 C364 1.344 . S
C361 C365 1.328 . S
C361 C367 1.516 . S
C362 C363 1.304 . S
C362 C366 1.323 . S
C363 C362 1.304 . S
C363 C364 1.371 . S
C363 H372 0.930 . S
C364 C361 1.344 . S
C364 C363 1.371 . S
C364 H373 0.931 . S
C365 C361 1.328 . S
C365 C366 1.433 . S
C365 H374 0.898 1_554 S
C366 C362 1.323 . S
C366 C365 1.433 . S
C366 H375 0.933 1_554 S
C367 Dy337 2.738 . S
C367 O347 1.255 . S
C367 O348 1.249 . S
C367 C361 1.516 . S
H368 C354 0.930 . S
H369 C355 0.931 . S
H370 C356 0.931 . S
H371 C357 0.933 . S
H372 C363 0.930 . S
H373 C364 0.931 . S
H374 C365 0.898 1_556 S
H375 C366 0.933 1_556 S
Dy376 O379 2.307 . S
Dy376 O381 2.395 . S
Dy376 O382 2.379 . S
Dy376 O384 2.339 . S
Dy376 O386 2.298 . S
Dy376 O390 2.275 . S
Dy376 C398 2.738 . S
Dy377 O380 2.298 . S
Dy377 O383 2.275 . S
Dy377 O385 2.307 . S
Dy377 O387 2.395 . S
Dy377 O388 2.379 . S
Dy377 O391 2.339 . S
Dy377 C407 2.738 . S
C378 O390 1.254 . S
C378 O391 1.257 . S
O379 Dy376 2.307 . S
O379 C389 1.266 . S
O380 Dy377 2.298 . S
O380 C389 1.236 . S
O381 Dy376 2.395 . S
O381 C398 1.255 . S
O382 Dy376 2.379 . S
O382 C398 1.249 . S
O383 Dy377 2.275 . S
O383 C399 1.254 . S
O384 Dy376 2.339 . S
O384 C399 1.257 . S
O385 Dy377 2.307 . S
O385 C400 1.266 . S
O386 Dy376 2.298 . S
O386 C400 1.236 . S
O387 Dy377 2.395 . S
O387 C407 1.255 . S
O388 Dy377 2.379 . S
O388 C407 1.249 . S
C389 O379 1.266 . S
C389 O380 1.236 . S
O390 Dy376 2.275 . S
O390 C378 1.254 . S
O391 Dy377 2.339 . S
O391 C378 1.257 . S
C392 C395 1.344 . S
C392 C396 1.328 . S
C392 C398 1.516 . S
C393 C394 1.304 . S
C393 C397 1.323 . S
C394 C393 1.304 . S
C394 C395 1.371 . S
C394 H408 0.930 . S
C395 C392 1.344 . S
C395 C394 1.371 . S
C395 H409 0.931 . S
C396 C392 1.328 . S
C396 C397 1.433 . S
C396 H410 0.931 . S
C397 C393 1.323 . S
C397 C396 1.433 . S
C397 H411 0.933 . S
C398 Dy376 2.738 . S
C398 O381 1.255 . S
C398 O382 1.249 . S
C398 C392 1.516 . S
C399 O383 1.254 . S
C399 O384 1.257 . S
C400 O385 1.266 . S
C400 O386 1.236 . S
C401 C404 1.344 . S
C401 C405 1.328 . S
C401 C407 1.516 . S
C402 C403 1.304 . S
C402 C406 1.323 . S
C403 C402 1.304 . S
C403 C404 1.371 . S
C403 H412 0.930 . S
C404 C401 1.344 . S
C404 C403 1.371 . S
C404 H413 0.931 . S
C405 C401 1.328 . S
C405 C406 1.433 . S
C405 H414 0.931 . S
C406 C402 1.323 . S
C406 C405 1.433 . S
C406 H415 0.933 . S
C407 Dy377 2.738 . S
C407 O387 1.255 . S
C407 O388 1.249 . S
C407 C401 1.516 . S
H408 C394 0.930 . S
H409 C395 0.931 . S
H410 C396 0.931 . S
H411 C397 0.933 . S
H412 C403 0.930 . S
H413 C404 0.931 . S
H414 C405 0.931 . S
H415 C406 0.933 . S
Dy416 O419 2.307 . S
Dy416 O421 2.395 . S
Dy416 O422 2.379 . S
Dy416 O424 2.339 . S
Dy416 O426 2.298 . S
Dy416 O430 2.275 . S
Dy416 C438 2.738 . S
Dy417 O420 2.298 . S
Dy417 O423 2.275 . S
Dy417 O425 2.307 . S
Dy417 O427 2.395 . S
Dy417 O428 2.379 . S
Dy417 O431 2.339 . S
Dy417 C447 2.738 . S
C418 O430 1.254 . S
C418 O431 1.257 . S
O419 Dy416 2.307 . S
O419 C429 1.266 1_545 S
O420 Dy417 2.298 . S
O420 C429 1.236 1_545 S
O421 Dy416 2.395 . S
O421 C438 1.255 . S
O422 Dy416 2.379 . S
O422 C438 1.249 . S
O423 Dy417 2.275 . S
O423 C439 1.254 . S
O424 Dy416 2.339 . S
O424 C439 1.257 . S
O425 Dy417 2.307 . S
O425 C440 1.266 . S
O426 Dy416 2.298 . S
O426 C440 1.236 . S
O427 Dy417 2.395 . S
O427 C447 1.255 . S
O428 Dy417 2.379 . S
O428 C447 1.249 . S
C429 O419 1.266 1_565 S
C429 O420 1.236 1_565 S
O430 Dy416 2.275 . S
O430 C418 1.254 . S
O431 Dy417 2.339 . S
O431 C418 1.257 . S
C432 C435 1.344 . S
C432 C436 1.328 . S
C432 C438 1.516 . S
C433 C434 1.304 . S
C433 C437 1.323 . S
C434 C433 1.304 . S
C434 C435 1.371 . S
C434 H448 0.930 . S
C435 C432 1.344 . S
C435 C434 1.371 . S
C435 H449 0.931 . S
C436 C432 1.328 . S
C436 C437 1.433 . S
C436 H450 0.931 . S
C437 C433 1.323 . S
C437 C436 1.433 . S
C437 H451 0.933 . S
C438 Dy416 2.738 . S
C438 O421 1.255 . S
C438 O422 1.249 . S
C438 C432 1.516 . S
C439 O423 1.254 . S
C439 O424 1.257 . S
C440 O425 1.266 . S
C440 O426 1.236 . S
C441 C444 1.344 1_545 S
C441 C445 1.328 . S
C441 C447 1.516 . S
C442 C443 1.304 . S
C442 C446 1.323 . S
C443 C442 1.304 . S
C443 C444 1.371 . S
C443 H452 0.930 . S
C444 C441 1.344 1_565 S
C444 C443 1.371 . S
C444 H453 0.931 . S
C445 C441 1.328 . S
C445 C446 1.433 1_545 S
C445 H454 0.931 . S
C446 C442 1.323 . S
C446 C445 1.433 1_565 S
C446 H455 0.933 . S
C447 Dy417 2.738 . S
C447 O427 1.255 . S
C447 O428 1.249 . S
C447 C441 1.516 . S
H448 C434 0.930 . S
H449 C435 0.931 . S
H450 C436 0.931 . S
H451 C437 0.933 . S
H452 C443 0.930 . S
H453 C444 0.931 . S
H454 C445 0.931 . S
H455 C446 0.933 . S
Dy456 O459 2.307 . S
Dy456 O461 2.395 . S
Dy456 O462 2.379 . S
Dy456 O464 2.339 . S
Dy456 O466 2.298 . S
Dy456 O470 2.275 . S
Dy456 C478 2.738 . S
Dy457 O460 2.298 . S
Dy457 O463 2.275 . S
Dy457 O465 2.307 . S
Dy457 O467 2.395 . S
Dy457 O468 2.379 . S
Dy457 O471 2.339 . S
Dy457 C487 2.738 . S
C458 O470 1.254 . S
C458 O471 1.257 . S
O459 Dy456 2.307 . S
O459 C469 1.266 . S
O460 Dy457 2.298 . S
O460 C469 1.236 . S
O461 Dy456 2.395 . S
O461 C478 1.255 . S
O462 Dy456 2.379 . S
O462 C478 1.249 . S
O463 Dy457 2.275 . S
O463 C479 1.254 . S
O464 Dy456 2.339 . S
O464 C479 1.257 . S
O465 Dy457 2.307 . S
O465 C480 1.266 . S
O466 Dy456 2.298 . S
O466 C480 1.236 . S
O467 Dy457 2.395 . S
O467 C487 1.255 . S
O468 Dy457 2.379 . S
O468 C487 1.249 . S
C469 O459 1.266 . S
C469 O460 1.236 . S
O470 Dy456 2.275 . S
O470 C458 1.254 . S
O471 Dy457 2.339 . S
O471 C458 1.257 . S
C472 C475 1.344 . S
C472 C476 1.328 . S
C472 C478 1.516 . S
C473 C474 1.304 . S
C473 C477 1.323 . S
C474 C473 1.304 . S
C474 C475 1.371 . S
C474 H488 0.930 . S
C475 C472 1.344 . S
C475 C474 1.371 . S
C475 H489 0.931 . S
C476 C472 1.328 . S
C476 C477 1.433 . S
C476 H490 0.931 . S
C477 C473 1.323 . S
C477 C476 1.433 . S
C477 H491 0.933 . S
C478 Dy456 2.738 . S
C478 O461 1.255 . S
C478 O462 1.249 . S
C478 C472 1.516 . S
C479 O463 1.254 . S
C479 O464 1.257 . S
C480 O465 1.266 . S
C480 O466 1.236 . S
C481 C484 1.344 . S
C481 C485 1.328 . S
C481 C487 1.516 . S
C482 C483 1.304 . S
C482 C486 1.323 . S
C483 C482 1.304 . S
C483 C484 1.371 . S
C483 H492 0.930 . S
C484 C481 1.344 . S
C484 C483 1.371 . S
C484 H493 0.931 . S
C485 C481 1.328 . S
C485 C486 1.433 . S
C485 H494 0.931 . S
C486 C482 1.323 . S
C486 C485 1.433 . S
C486 H495 0.933 . S
C487 Dy457 2.738 . S
C487 O467 1.255 . S
C487 O468 1.249 . S
C487 C481 1.516 . S
H488 C474 0.930 . S
H489 C475 0.931 . S
H490 C476 0.931 . S
H491 C477 0.933 . S
H492 C483 0.930 . S
H493 C484 0.931 . S
H494 C485 0.931 . S
H495 C486 0.933 . S
Dy496 O499 2.307 . S
Dy496 O501 2.395 1_545 S
Dy496 O502 2.379 1_545 S
Dy496 O504 2.339 . S
Dy496 O506 2.298 . S
Dy496 O510 2.275 . S
Dy496 C518 2.738 1_545 S
Dy497 O500 2.298 . S
Dy497 O503 2.275 . S
Dy497 O505 2.307 . S
Dy497 O507 2.395 . S
Dy497 O508 2.379 . S
Dy497 O511 2.339 1_455 S
Dy497 C527 2.738 . S
C498 O510 1.254 1_655 S
C498 O511 1.257 . S
O499 Dy496 2.307 . S
O499 C509 1.266 . S
O500 Dy497 2.298 . S
O500 C509 1.236 . S
O501 Dy496 2.395 1_565 S
O501 C518 1.255 . S
O502 Dy496 2.379 1_565 S
O502 C518 1.249 . S
O503 Dy497 2.275 . S
O503 C519 1.254 . S
O504 Dy496 2.339 . S
O504 C519 1.257 . S
O505 Dy497 2.307 . S
O505 C520 1.266 . S
O506 Dy496 2.298 . S
O506 C520 1.236 . S
O507 Dy497 2.395 . S
O507 C527 1.255 . S
O508 Dy497 2.379 . S
O508 C527 1.249 . S
C509 O499 1.266 . S
C509 O500 1.236 . S
O510 Dy496 2.275 . S
O510 C498 1.254 1_455 S
O511 Dy497 2.339 1_655 S
O511 C498 1.257 . S
C512 C515 1.344 . S
C512 C516 1.328 . S
C512 C518 1.516 . S
C513 C514 1.304 . S
C513 C517 1.323 . S
C514 C513 1.304 . S
C514 C515 1.371 . S
C514 H528 0.930 . S
C515 C512 1.344 . S
C515 C514 1.371 . S
C515 H529 0.931 . S
C516 C512 1.328 . S
C516 C517 1.433 . S
C516 H530 0.931 . S
C517 C513 1.323 . S
C517 C516 1.433 . S
C517 H531 0.933 . S
C518 Dy496 2.738 1_565 S
C518 O501 1.255 . S
C518 O502 1.249 . S
C518 C512 1.516 . S
C519 O503 1.254 . S
C519 O504 1.257 . S
C520 O505 1.266 . S
C520 O506 1.236 . S
C521 C524 1.344 . S
C521 C525 1.328 . S
C521 C527 1.516 . S
C522 C523 1.304 . S
C522 C526 1.323 . S
C523 C522 1.304 . S
C523 C524 1.371 . S
C523 H532 0.930 . S
C524 C521 1.344 . S
C524 C523 1.371 . S
C524 H533 0.931 . S
C525 C521 1.328 . S
C525 C526 1.433 . S
C525 H534 0.931 1_455 S
C526 C522 1.323 . S
C526 C525 1.433 . S
C526 H535 0.933 1_455 S
C527 Dy497 2.738 . S
C527 O507 1.255 . S
C527 O508 1.249 . S
C527 C521 1.516 . S
H528 C514 0.930 . S
H529 C515 0.931 . S
H530 C516 0.931 . S
H531 C517 0.933 . S
H532 C523 0.930 . S
H533 C524 0.931 . S
H534 C525 0.931 1_655 S
H535 C526 0.933 1_655 S
Dy536 O539 2.307 . S
Dy536 O541 2.395 . S
Dy536 O542 2.379 . S
Dy536 O544 2.339 . S
Dy536 O546 2.298 . S
Dy536 O550 2.275 . S
Dy536 C558 2.738 . S
Dy537 O540 2.298 . S
Dy537 O543 2.275 . S
Dy537 O545 2.307 . S
Dy537 O547 2.395 . S
Dy537 O548 2.379 . S
Dy537 O551 2.339 . S
Dy537 C567 2.738 . S
C538 O550 1.254 . S
C538 O551 1.257 . S
O539 Dy536 2.307 . S
O539 C549 1.266 . S
O540 Dy537 2.298 . S
O540 C549 1.236 . S
O541 Dy536 2.395 . S
O541 C558 1.255 . S
O542 Dy536 2.379 . S
O542 C558 1.249 . S
O543 Dy537 2.275 . S
O543 C559 1.254 . S
O544 Dy536 2.339 . S
O544 C559 1.257 . S
O545 Dy537 2.307 . S
O545 C560 1.266 . S
O546 Dy536 2.298 . S
O546 C560 1.236 . S
O547 Dy537 2.395 . S
O547 C567 1.255 . S
O548 Dy537 2.379 . S
O548 C567 1.249 . S
C549 O539 1.266 . S
C549 O540 1.236 . S
O550 Dy536 2.275 . S
O550 C538 1.254 . S
O551 Dy537 2.339 . S
O551 C538 1.257 . S
C552 C555 1.344 . S
C552 C556 1.328 . S
C552 C558 1.516 . S
C553 C554 1.304 . S
C553 C557 1.323 . S
C554 C553 1.304 . S
C554 C555 1.371 . S
C554 H568 0.930 . S
C555 C552 1.344 . S
C555 C554 1.371 . S
C555 H569 0.931 . S
C556 C552 1.328 . S
C556 C557 1.433 . S
C556 H570 0.931 . S
C557 C553 1.323 . S
C557 C556 1.433 . S
C557 H571 0.933 . S
C558 Dy536 2.738 . S
C558 O541 1.255 . S
C558 O542 1.249 . S
C558 C552 1.516 . S
C559 O543 1.254 . S
C559 O544 1.257 . S
C560 O545 1.266 . S
C560 O546 1.236 . S
C561 C564 1.344 . S
C561 C565 1.328 . S
C561 C567 1.516 . S
C562 C563 1.304 . S
C562 C566 1.323 . S
C563 C562 1.304 . S
C563 C564 1.371 . S
C563 H572 0.930 . S
C564 C561 1.344 . S
C564 C563 1.371 . S
C564 H573 0.931 . S
C565 C561 1.328 . S
C565 C566 1.433 . S
C565 H574 0.931 . S
C566 C562 1.323 . S
C566 C565 1.433 . S
C566 H575 0.933 . S
C567 Dy537 2.738 . S
C567 O547 1.255 . S
C567 O548 1.249 . S
C567 C561 1.516 . S
H568 C554 0.930 . S
H569 C555 0.931 . S
H570 C556 0.931 . S
H571 C557 0.933 . S
H572 C563 0.930 . S
H573 C564 0.931 . S
H574 C565 0.931 . S
H575 C566 0.933 . S
Dy576 O579 2.307 . S
Dy576 O581 2.395 1_554 S
Dy576 O582 2.379 1_554 S
Dy576 O584 2.339 . S
Dy576 O586 2.298 . S
Dy576 O590 2.275 . S
Dy576 C598 2.738 1_554 S
Dy577 O580 2.298 . S
Dy577 O583 2.275 . S
Dy577 O585 2.307 . S
Dy577 O587 2.395 . S
Dy577 O588 2.378 1_545 S
Dy577 O591 2.339 1_545 S
Dy577 C607 2.738 . S
C578 O590 1.278 . S
C578 O591 1.249 1_545 S
O579 Dy576 2.307 . S
O579 C589 1.266 . S
O580 Dy577 2.298 . S
O580 C589 1.236 . S
O581 Dy576 2.395 1_556 S
O581 C598 1.255 . S
O582 Dy576 2.379 1_556 S
O582 C598 1.249 . S
O583 Dy577 2.275 . S
O583 C599 1.254 . S
O584 Dy576 2.339 . S
O584 C599 1.257 . S
O585 Dy577 2.307 . S
O585 C600 1.266 . S
O586 Dy576 2.298 . S
O586 C600 1.236 . S
O587 Dy577 2.395 . S
O587 C607 1.255 . S
O588 Dy577 2.378 1_565 S
O588 C607 1.249 1_565 S
C589 O579 1.266 . S
C589 O580 1.236 . S
O590 Dy576 2.275 . S
O590 C578 1.278 . S
O591 Dy577 2.339 1_565 S
O591 C578 1.249 1_565 S
C592 C595 1.344 . S
C592 C596 1.328 . S
C592 C598 1.516 . S
C593 C594 1.304 . S
C593 C597 1.323 . S
C594 C593 1.304 . S
C594 C595 1.371 . S
C594 H608 0.930 . S
C595 C592 1.344 . S
C595 C594 1.371 . S
C595 H609 0.931 . S
C596 C592 1.328 . S
C596 C597 1.433 . S
C596 H610 0.931 . S
C597 C593 1.323 . S
C597 C596 1.433 . S
C597 H611 0.933 . S
C598 Dy576 2.738 1_556 S
C598 O581 1.255 . S
C598 O582 1.249 . S
C598 C592 1.516 . S
C599 O583 1.254 . S
C599 O584 1.257 . S
C600 O585 1.266 . S
C600 O586 1.236 . S
C601 C604 1.344 . S
C601 C605 1.328 1_545 S
C601 C607 1.516 . S
C602 C603 1.304 1_565 S
C602 C606 1.323 . S
C603 C602 1.304 1_545 S
C603 C604 1.371 . S
C603 H612 0.930 . S
C604 C601 1.344 . S
C604 C603 1.371 . S
C604 H613 0.931 . S
C605 C601 1.328 1_565 S
C605 C606 1.433 . S
C605 H614 0.931 . S
C606 C602 1.323 . S
C606 C605 1.433 . S
C606 H615 0.933 . S
C607 Dy577 2.738 . S
C607 O587 1.255 . S
C607 O588 1.249 1_545 S
C607 C601 1.516 . S
H608 C594 0.930 . S
H609 C595 0.931 . S
H610 C596 0.931 . S
H611 C597 0.933 . S
H612 C603 0.930 . S
H613 C604 0.931 . S
H614 C605 0.931 . S
H615 C606 0.933 . S
Dy616 O619 2.307 . S
Dy616 O621 2.395 . S
Dy616 O622 2.379 . S
Dy616 O624 2.339 . S
Dy616 O626 2.298 . S
Dy616 O630 2.275 . S
Dy616 C638 2.738 . S
Dy617 O620 2.298 . S
Dy617 O623 2.275 . S
Dy617 O625 2.307 . S
Dy617 O627 2.395 . S
Dy617 O628 2.379 . S
Dy617 O631 2.339 . S
Dy617 C647 2.738 . S
C618 O630 1.254 . S
C618 O631 1.257 . S
O619 Dy616 2.307 . S
O619 C629 1.266 . S
O620 Dy617 2.298 . S
O620 C629 1.236 . S
O621 Dy616 2.395 . S
O621 C638 1.255 . S
O622 Dy616 2.379 . S
O622 C638 1.249 . S
O623 Dy617 2.275 . S
O623 C639 1.254 . S
O624 Dy616 2.339 . S
O624 C639 1.257 . S
O625 Dy617 2.307 . S
O625 C640 1.266 . S
O626 Dy616 2.298 . S
O626 C640 1.236 . S
O627 Dy617 2.395 . S
O627 C647 1.255 . S
O628 Dy617 2.379 . S
O628 C647 1.249 . S
C629 O619 1.266 . S
C629 O620 1.236 . S
O630 Dy616 2.275 . S
O630 C618 1.254 . S
O631 Dy617 2.339 . S
O631 C618 1.257 . S
C632 C635 1.344 . S
C632 C636 1.328 . S
C632 C638 1.516 . S
C633 C634 1.304 . S
C633 C637 1.323 . S
C634 C633 1.304 . S
C634 C635 1.371 . S
C634 H648 0.930 . S
C635 C632 1.344 . S
C635 C634 1.371 . S
C635 H649 0.931 . S
C636 C632 1.328 . S
C636 C637 1.433 . S
C636 H650 0.931 . S
C637 C633 1.323 . S
C637 C636 1.433 . S
C637 H651 0.933 . S
C638 Dy616 2.738 . S
C638 O621 1.255 . S
C638 O622 1.249 . S
C638 C632 1.516 . S
C639 O623 1.254 . S
C639 O624 1.257 . S
C640 O625 1.266 . S
C640 O626 1.236 . S
C641 C644 1.344 . S
C641 C645 1.328 . S
C641 C647 1.516 . S
C642 C643 1.304 . S
C642 C646 1.323 . S
C643 C642 1.304 . S
C643 C644 1.371 . S
C643 H652 0.930 . S
C644 C641 1.344 . S
C644 C643 1.371 . S
C644 H653 0.931 . S
C645 C641 1.328 . S
C645 C646 1.433 . S
C645 H654 0.931 . S
C646 C642 1.323 . S
C646 C645 1.433 . S
C646 H655 0.933 . S
C647 Dy617 2.738 . S
C647 O627 1.255 . S
C647 O628 1.249 . S
C647 C641 1.516 . S
H648 C634 0.930 . S
H649 C635 0.931 . S
H650 C636 0.931 . S
H651 C637 0.933 . S
H652 C643 0.930 . S
H653 C644 0.931 . S
H654 C645 0.931 . S
H655 C646 0.933 . S
Dy656 O659 2.307 . S
Dy656 O661 2.395 . S
Dy656 O662 2.379 . S
Dy656 O664 2.339 . S
Dy656 O666 2.298 . S
Dy656 O670 2.275 . S
Dy656 C678 2.738 . S
Dy657 O660 2.298 . S
Dy657 O663 2.275 . S
Dy657 O665 2.307 . S
Dy657 O667 2.395 . S
Dy657 O668 2.379 . S
Dy657 O671 2.339 . S
Dy657 C687 2.738 . S
C658 O670 1.254 . S
C658 O671 1.257 . S
O659 Dy656 2.307 . S
O659 C669 1.266 . S
O660 Dy657 2.298 . S
O660 C669 1.236 . S
O661 Dy656 2.395 . S
O661 C678 1.255 . S
O662 Dy656 2.379 . S
O662 C678 1.249 . S
O663 Dy657 2.275 . S
O663 C679 1.254 . S
O664 Dy656 2.339 . S
O664 C679 1.257 . S
O665 Dy657 2.307 . S
O665 C680 1.266 . S
O666 Dy656 2.298 . S
O666 C680 1.236 . S
O667 Dy657 2.395 . S
O667 C687 1.255 . S
O668 Dy657 2.379 . S
O668 C687 1.249 . S
C669 O659 1.266 . S
C669 O660 1.236 . S
O670 Dy656 2.275 . S
O670 C658 1.254 . S
O671 Dy657 2.339 . S
O671 C658 1.257 . S
C672 C675 1.344 . S
C672 C676 1.328 . S
C672 C678 1.516 . S
C673 C674 1.304 . S
C673 C677 1.323 . S
C674 C673 1.304 . S
C674 C675 1.371 . S
C674 H688 0.930 . S
C675 C672 1.344 . S
C675 C674 1.371 . S
C675 H689 0.931 . S
C676 C672 1.328 . S
C676 C677 1.433 . S
C676 H690 0.931 . S
C677 C673 1.323 . S
C677 C676 1.433 . S
C677 H691 0.933 . S
C678 Dy656 2.738 . S
C678 O661 1.255 . S
C678 O662 1.249 . S
C678 C672 1.516 . S
C679 O663 1.254 . S
C679 O664 1.257 . S
C680 O665 1.266 . S
C680 O666 1.236 . S
C681 C684 1.344 . S
C681 C685 1.328 . S
C681 C687 1.516 . S
C682 C683 1.304 . S
C682 C686 1.323 1_556 S
C683 C682 1.304 . S
C683 C684 1.371 1_556 S
C683 H692 0.930 . S
C684 C681 1.344 . S
C684 C683 1.371 1_554 S
C684 H693 0.931 . S
C685 C681 1.328 . S
C685 C686 1.433 . S
C685 H694 0.931 . S
C686 C682 1.323 1_554 S
C686 C685 1.433 . S
C686 H695 0.933 . S
C687 Dy657 2.738 . S
C687 O667 1.255 . S
C687 O668 1.249 . S
C687 C681 1.516 . S
H688 C674 0.930 . S
H689 C675 0.931 . S
H690 C676 0.931 . S
H691 C677 0.933 . S
H692 C683 0.930 . S
H693 C684 0.931 . S
H694 C685 0.931 . S
H695 C686 0.933 . S
Dy696 O699 2.307 . S
Dy696 O701 2.395 . S
Dy696 O702 2.379 . S
Dy696 O704 2.339 . S
Dy696 O706 2.298 . S
Dy696 O710 2.275 . S
Dy696 C718 2.738 . S
Dy697 O700 2.298 . S
Dy697 O703 2.275 . S
Dy697 O705 2.307 . S
Dy697 O707 2.395 . S
Dy697 O708 2.379 . S
Dy697 O711 2.339 . S
Dy697 C727 2.738 . S
C698 O710 1.254 . S
C698 O711 1.257 . S
O699 Dy696 2.307 . S
O699 C709 1.266 . S
O700 Dy697 2.298 . S
O700 C709 1.236 . S
O701 Dy696 2.395 . S
O701 C718 1.255 . S
O702 Dy696 2.379 . S
O702 C718 1.249 . S
O703 Dy697 2.275 . S
O703 C719 1.254 . S
O704 Dy696 2.339 . S
O704 C719 1.257 . S
O705 Dy697 2.307 . S
O705 C720 1.266 . S
O706 Dy696 2.298 . S
O706 C720 1.236 . S
O707 Dy697 2.395 . S
O707 C727 1.255 . S
O708 Dy697 2.379 . S
O708 C727 1.249 . S
C709 O699 1.266 . S
C709 O700 1.236 . S
O710 Dy696 2.275 . S
O710 C698 1.254 . S
O711 Dy697 2.339 . S
O711 C698 1.257 . S
C712 C715 1.344 . S
C712 C716 1.328 . S
C712 C718 1.516 . S
C713 C714 1.304 . S
C713 C717 1.323 . S
C714 C713 1.304 . S
C714 C715 1.371 . S
C714 H728 0.930 . S
C715 C712 1.344 . S
C715 C714 1.371 . S
C715 H729 0.931 . S
C716 C712 1.328 . S
C716 C717 1.433 . S
C716 H730 0.931 . S
C717 C713 1.323 . S
C717 C716 1.433 . S
C717 H731 0.933 . S
C718 Dy696 2.738 . S
C718 O701 1.255 . S
C718 O702 1.249 . S
C718 C712 1.516 . S
C719 O703 1.254 . S
C719 O704 1.257 . S
C720 O705 1.266 . S
C720 O706 1.236 . S
C721 C724 1.344 . S
C721 C725 1.328 . S
C721 C727 1.516 . S
C722 C723 1.304 . S
C722 C726 1.323 . S
C723 C722 1.304 . S
C723 C724 1.371 . S
C723 H732 0.930 . S
C724 C721 1.344 . S
C724 C723 1.371 . S
C724 H733 0.931 . S
C725 C721 1.328 . S
C725 C726 1.433 . S
C725 H734 0.931 . S
C726 C722 1.323 . S
C726 C725 1.433 . S
C726 H735 0.933 . S
C727 Dy697 2.738 . S
C727 O707 1.255 . S
C727 O708 1.249 . S
C727 C721 1.516 . S
H728 C714 0.930 . S
H729 C715 0.931 . S
H730 C716 0.931 . S
H731 C717 0.933 . S
H732 C723 0.930 . S
H733 C724 0.931 . S
H734 C725 0.931 . S
H735 C726 0.933 . S
Dy736 O739 2.307 1_455 S
Dy736 O741 2.395 . S
Dy736 O742 2.379 . S
Dy736 O744 2.339 . S
Dy736 O746 2.298 . S
Dy736 O750 2.275 . S
Dy736 C758 2.738 . S
Dy737 O740 2.298 1_455 S
Dy737 O743 2.275 . S
Dy737 O745 2.307 . S
Dy737 O747 2.395 . S
Dy737 O748 2.379 . S
Dy737 O751 2.339 . S
Dy737 C767 2.747 . S
C738 O750 1.254 . S
C738 O751 1.257 . S
O739 Dy736 2.307 1_655 S
O739 C749 1.266 . S
O740 Dy737 2.298 1_655 S
O740 C749 1.236 . S
O741 Dy736 2.395 . S
O741 C758 1.255 . S
O742 Dy736 2.379 . S
O742 C758 1.249 . S
O743 Dy737 2.275 . S
O743 C759 1.254 . S
O744 Dy736 2.339 . S
O744 C759 1.257 . S
O745 Dy737 2.307 . S
O745 C760 1.266 . S
O746 Dy736 2.298 . S
O746 C760 1.236 . S
O747 Dy737 2.395 . S
O747 C767 1.253 . S
O748 Dy737 2.379 . S
O748 C767 1.260 . S
C749 O739 1.266 . S
C749 O740 1.236 . S
O750 Dy736 2.275 . S
O750 C738 1.254 . S
O751 Dy737 2.339 . S
O751 C738 1.257 . S
C752 C755 1.344 . S
C752 C756 1.328 . S
C752 C758 1.516 . S
C753 C754 1.304 . S
C753 C757 1.323 . S
C754 C753 1.304 . S
C754 C755 1.371 . S
C754 H768 0.930 . S
C755 C752 1.344 . S
C755 C754 1.371 . S
C755 H769 0.931 . S
C756 C752 1.328 . S
C756 C757 1.433 . S
C756 H770 0.931 . S
C757 C753 1.323 . S
C757 C756 1.433 . S
C757 H771 0.933 . S
C758 Dy736 2.738 . S
C758 O741 1.255 . S
C758 O742 1.249 . S
C758 C752 1.516 . S
C759 O743 1.254 . S
C759 O744 1.257 . S
C760 O745 1.266 . S
C760 O746 1.236 . S
C761 C764 1.344 . S
C761 C765 1.328 . S
C761 C767 1.507 1_655 S
C762 C763 1.304 . S
C762 C766 1.323 . S
C763 C762 1.304 . S
C763 C764 1.371 . S
C763 H772 0.930 . S
C764 C761 1.344 . S
C764 C763 1.371 . S
C764 H773 0.931 . S
C765 C761 1.328 . S
C765 C766 1.433 . S
C765 H774 0.931 . S
C766 C762 1.323 . S
C766 C765 1.433 . S
C766 H775 0.933 . S
C767 Dy737 2.747 . S
C767 O747 1.253 . S
C767 O748 1.260 . S
C767 C761 1.507 1_455 S
H768 C754 0.930 . S
H769 C755 0.931 . S
H770 C756 0.931 . S
H771 C757 0.933 . S
H772 C763 0.930 . S
H773 C764 0.931 . S
H774 C765 0.931 . S
H775 C766 0.933 . S
Dy776 O779 2.307 . S
Dy776 O781 2.395 . S
Dy776 O782 2.379 . S
Dy776 O784 2.339 . S
Dy776 O786 2.298 . S
Dy776 O790 2.275 . S
Dy776 C798 2.738 . S
Dy777 O780 2.298 . S
Dy777 O783 2.275 . S
Dy777 O785 2.307 . S
Dy777 O787 2.395 . S
Dy777 O788 2.379 . S
Dy777 O791 2.339 . S
Dy777 C807 2.738 . S
C778 O790 1.254 . S
C778 O791 1.257 . S
O779 Dy776 2.307 . S
O779 C789 1.266 . S
O780 Dy777 2.298 . S
O780 C789 1.236 . S
O781 Dy776 2.395 . S
O781 C798 1.255 . S
O782 Dy776 2.379 . S
O782 C798 1.249 . S
O783 Dy777 2.275 . S
O783 C799 1.254 . S
O784 Dy776 2.339 . S
O784 C799 1.257 . S
O785 Dy777 2.307 . S
O785 C800 1.266 . S
O786 Dy776 2.298 . S
O786 C800 1.236 . S
O787 Dy777 2.395 . S
O787 C807 1.255 . S
O788 Dy777 2.379 . S
O788 C807 1.249 . S
C789 O779 1.266 . S
C789 O780 1.236 . S
O790 Dy776 2.275 . S
O790 C778 1.254 . S
O791 Dy777 2.339 . S
O791 C778 1.257 . S
C792 C795 1.344 . S
C792 C796 1.328 . S
C792 C798 1.516 . S
C793 C794 1.304 . S
C793 C797 1.323 . S
C794 C793 1.304 . S
C794 C795 1.371 . S
C794 H808 0.930 . S
C795 C792 1.344 . S
C795 C794 1.371 . S
C795 H809 0.931 . S
C796 C792 1.328 . S
C796 C797 1.433 . S
C796 H810 0.931 . S
C797 C793 1.323 . S
C797 C796 1.433 . S
C797 H811 0.933 . S
C798 Dy776 2.738 . S
C798 O781 1.255 . S
C798 O782 1.249 . S
C798 C792 1.516 . S
C799 O783 1.254 . S
C799 O784 1.257 . S
C800 O785 1.266 . S
C800 O786 1.236 . S
C801 C804 1.344 . S
C801 C805 1.328 . S
C801 C807 1.516 . S
C802 C803 1.304 . S
C802 C806 1.323 . S
C803 C802 1.304 . S
C803 C804 1.371 . S
C803 H812 0.930 . S
C804 C801 1.344 . S
C804 C803 1.371 . S
C804 H813 0.931 . S
C805 C801 1.328 . S
C805 C806 1.433 . S
C805 H814 0.931 . S
C806 C802 1.323 . S
C806 C805 1.433 . S
C806 H815 0.933 . S
C807 Dy777 2.738 . S
C807 O787 1.255 . S
C807 O788 1.249 . S
C807 C801 1.516 . S
H808 C794 0.930 . S
H809 C795 0.931 . S
H810 C796 0.931 . S
H811 C797 0.933 . S
H812 C803 0.930 . S
H813 C804 0.931 . S
H814 C805 0.931 . S
H815 C806 0.933 . S
Dy816 O819 2.307 . S
Dy816 O821 2.395 . S
Dy816 O822 2.379 . S
Dy816 O824 2.339 . S
Dy816 O826 2.298 . S
Dy816 O830 2.275 . S
Dy816 C838 2.738 . S
Dy817 O820 2.298 . S
Dy817 O823 2.275 . S
Dy817 O825 2.307 . S
Dy817 O827 2.395 . S
Dy817 O828 2.379 . S
Dy817 O831 2.339 . S
Dy817 C847 2.738 . S
C818 O830 1.254 . S
C818 O831 1.257 . S
O819 Dy816 2.307 . S
O819 C829 1.266 . S
O820 Dy817 2.298 . S
O820 C829 1.236 . S
O821 Dy816 2.395 . S
O821 C838 1.255 . S
O822 Dy816 2.379 . S
O822 C838 1.249 . S
O823 Dy817 2.275 . S
O823 C839 1.254 . S
O824 Dy816 2.339 . S
O824 C839 1.257 . S
O825 Dy817 2.307 . S
O825 C840 1.266 . S
O826 Dy816 2.298 . S
O826 C840 1.236 . S
O827 Dy817 2.395 . S
O827 C847 1.255 . S
O828 Dy817 2.379 . S
O828 C847 1.249 . S
C829 O819 1.266 . S
C829 O820 1.236 . S
O830 Dy816 2.275 . S
O830 C818 1.254 . S
O831 Dy817 2.339 . S
O831 C818 1.257 . S
C832 C835 1.344 . S
C832 C836 1.328 . S
C832 C838 1.516 . S
C833 C834 1.304 . S
C833 C837 1.323 . S
C834 C833 1.304 . S
C834 C835 1.371 . S
C834 H848 0.930 . S
C835 C832 1.344 . S
C835 C834 1.371 . S
C835 H849 0.931 . S
C836 C832 1.328 . S
C836 C837 1.433 . S
C836 H850 0.931 . S
C837 C833 1.323 . S
C837 C836 1.433 . S
C837 H851 0.933 . S
C838 Dy816 2.738 . S
C838 O821 1.255 . S
C838 O822 1.249 . S
C838 C832 1.516 . S
C839 O823 1.254 . S
C839 O824 1.257 . S
C840 O825 1.266 . S
C840 O826 1.236 . S
C841 C844 1.344 . S
C841 C845 1.328 . S
C841 C847 1.516 . S
C842 C843 1.304 . S
C842 C846 1.323 . S
C843 C842 1.304 . S
C843 C844 1.371 . S
C843 H852 0.930 . S
C844 C841 1.344 . S
C844 C843 1.371 . S
C844 H853 0.931 . S
C845 C841 1.328 . S
C845 C846 1.433 . S
C845 H854 0.931 . S
C846 C842 1.323 . S
C846 C845 1.433 . S
C846 H855 0.933 . S
C847 Dy817 2.738 . S
C847 O827 1.255 . S
C847 O828 1.249 . S
C847 C841 1.516 . S
H848 C834 0.930 . S
H849 C835 0.931 . S
H850 C836 0.931 . S
H851 C837 0.933 . S
H852 C843 0.930 . S
H853 C844 0.931 . S
H854 C845 0.931 . S
H855 C846 0.933 . S
Dy856 O859 2.307 . S
Dy856 O861 2.395 . S
Dy856 O862 2.379 . S
Dy856 O864 2.339 . S
Dy856 O866 2.298 . S
Dy856 O870 2.275 . S
Dy856 C878 2.738 . S
Dy857 O860 2.298 . S
Dy857 O863 2.275 . S
Dy857 O865 2.307 . S
Dy857 O867 2.395 . S
Dy857 O868 2.379 . S
Dy857 O871 2.339 . S
Dy857 C887 2.738 . S
C858 O870 1.254 . S
C858 O871 1.257 . S
O859 Dy856 2.307 . S
O859 C869 1.266 . S
O860 Dy857 2.298 . S
O860 C869 1.236 . S
O861 Dy856 2.395 . S
O861 C878 1.255 . S
O862 Dy856 2.379 . S
O862 C878 1.249 . S
O863 Dy857 2.275 . S
O863 C879 1.254 . S
O864 Dy856 2.339 . S
O864 C879 1.257 . S
O865 Dy857 2.307 . S
O865 C880 1.266 . S
O866 Dy856 2.298 . S
O866 C880 1.236 . S
O867 Dy857 2.395 . S
O867 C887 1.255 . S
O868 Dy857 2.379 . S
O868 C887 1.249 . S
C869 O859 1.266 . S
C869 O860 1.236 . S
O870 Dy856 2.275 . S
O870 C858 1.254 . S
O871 Dy857 2.339 . S
O871 C858 1.257 . S
C872 C875 1.344 . S
C872 C876 1.328 . S
C872 C878 1.516 . S
C873 C874 1.304 . S
C873 C877 1.323 . S
C874 C873 1.304 . S
C874 C875 1.371 . S
C874 H888 0.930 . S
C875 C872 1.344 . S
C875 C874 1.371 . S
C875 H889 0.931 . S
C876 C872 1.328 . S
C876 C877 1.433 . S
C876 H890 0.931 . S
C877 C873 1.323 . S
C877 C876 1.433 . S
C877 H891 0.933 . S
C878 Dy856 2.738 . S
C878 O861 1.255 . S
C878 O862 1.249 . S
C878 C872 1.516 . S
C879 O863 1.254 . S
C879 O864 1.257 . S
C880 O865 1.266 . S
C880 O866 1.236 . S
C881 C884 1.344 . S
C881 C885 1.328 . S
C881 C887 1.516 . S
C882 C883 1.304 . S
C882 C886 1.323 . S
C883 C882 1.304 . S
C883 C884 1.371 . S
C883 H892 0.930 . S
C884 C881 1.344 . S
C884 C883 1.371 . S
C884 H893 0.931 . S
C885 C881 1.328 . S
C885 C886 1.433 . S
C885 H894 0.931 . S
C886 C882 1.323 . S
C886 C885 1.433 . S
C886 H895 0.933 . S
C887 Dy857 2.738 . S
C887 O867 1.255 . S
C887 O868 1.249 . S
C887 C881 1.516 . S
H888 C874 0.930 . S
H889 C875 0.931 . S
H890 C876 0.931 . S
H891 C877 0.933 . S
H892 C883 0.930 . S
H893 C884 0.931 . S
H894 C885 0.931 . S
H895 C886 0.933 . S
Dy896 O899 2.307 . S
Dy896 O901 2.395 . S
Dy896 O902 2.379 . S
Dy896 O904 2.339 . S
Dy896 O906 2.298 . S
Dy896 O910 2.275 . S
Dy896 C918 2.738 . S
Dy897 O900 2.298 . S
Dy897 O903 2.275 . S
Dy897 O905 2.307 . S
Dy897 O907 2.395 . S
Dy897 O908 2.379 . S
Dy897 O911 2.339 . S
Dy897 C927 2.738 . S
C898 O910 1.254 . S
C898 O911 1.257 . S
O899 Dy896 2.307 . S
O899 C909 1.266 . S
O900 Dy897 2.298 . S
O900 C909 1.236 . S
O901 Dy896 2.395 . S
O901 C918 1.255 . S
O902 Dy896 2.379 . S
O902 C918 1.249 . S
O903 Dy897 2.275 . S
O903 C919 1.254 . S
O904 Dy896 2.339 . S
O904 C919 1.257 . S
O905 Dy897 2.307 . S
O905 C920 1.266 . S
O906 Dy896 2.298 . S
O906 C920 1.236 . S
O907 Dy897 2.395 . S
O907 C927 1.255 . S
O908 Dy897 2.379 . S
O908 C927 1.249 . S
C909 O899 1.266 . S
C909 O900 1.236 . S
O910 Dy896 2.275 . S
O910 C898 1.254 . S
O911 Dy897 2.339 . S
O911 C898 1.257 . S
C912 C915 1.344 . S
C912 C916 1.328 . S
C912 C918 1.516 . S
C913 C914 1.304 . S
C913 C917 1.323 . S
C914 C913 1.304 . S
C914 C915 1.371 . S
C914 H928 0.930 . S
C915 C912 1.344 . S
C915 C914 1.371 . S
C915 H929 0.931 . S
C916 C912 1.328 . S
C916 C917 1.433 . S
C916 H930 0.931 . S
C917 C913 1.323 . S
C917 C916 1.433 . S
C917 H931 0.933 . S
C918 Dy896 2.738 . S
C918 O901 1.255 . S
C918 O902 1.249 . S
C918 C912 1.516 . S
C919 O903 1.254 . S
C919 O904 1.257 . S
C920 O905 1.266 . S
C920 O906 1.236 . S
C921 C924 1.344 . S
C921 C925 1.328 . S
C921 C927 1.516 . S
C922 C923 1.304 . S
C922 C926 1.323 . S
C923 C922 1.304 . S
C923 C924 1.371 . S
C923 H932 0.930 . S
C924 C921 1.344 . S
C924 C923 1.371 . S
C924 H933 0.931 . S
C925 C921 1.328 . S
C925 C926 1.433 . S
C925 H934 0.931 . S
C926 C922 1.323 . S
C926 C925 1.433 . S
C926 H935 0.933 . S
C927 Dy897 2.738 . S
C927 O907 1.255 . S
C927 O908 1.249 . S
C927 C921 1.516 . S
H928 C914 0.930 . S
H929 C915 0.931 . S
H930 C916 0.931 . S
H931 C917 0.933 . S
H932 C923 0.930 . S
H933 C924 0.931 . S
H934 C925 0.931 . S
H935 C926 0.933 . S
Dy936 O939 2.315 . S
Dy936 O941 2.383 1_455 S
Dy936 O942 2.368 1_455 S
Dy936 O944 2.346 . S
Dy936 O946 2.302 . S
Dy936 O950 2.281 . S
Dy936 C958 2.725 1_455 S
Dy937 O940 2.298 . S
Dy937 O943 2.275 . S
Dy937 O945 2.307 . S
Dy937 O947 2.395 . S
Dy937 O948 2.379 . S
Dy937 O951 2.339 . S
Dy937 C967 2.738 . S
C938 O950 1.254 . S
C938 O951 1.257 . S
O939 Dy936 2.315 . S
O939 C949 1.266 . S
O940 Dy937 2.298 . S
O940 C949 1.236 . S
O941 Dy936 2.383 1_655 S
O941 C958 1.255 . S
O942 Dy936 2.368 1_655 S
O942 C958 1.249 . S
O943 Dy937 2.275 . S
O943 C959 1.254 . S
O944 Dy936 2.346 . S
O944 C959 1.257 . S
O945 Dy937 2.307 . S
O945 C960 1.266 . S
O946 Dy936 2.302 . S
O946 C960 1.236 . S
O947 Dy937 2.395 . S
O947 C967 1.255 . S
O948 Dy937 2.379 . S
O948 C967 1.249 . S
C949 O939 1.266 . S
C949 O940 1.236 . S
O950 Dy936 2.281 . S
O950 C938 1.254 . S
O951 Dy937 2.339 . S
O951 C938 1.257 . S
C952 C955 1.344 . S
C952 C956 1.328 . S
C952 C958 1.516 . S
C953 C954 1.304 . S
C953 C957 1.323 . S
C954 C953 1.304 . S
C954 C955 1.371 . S
C954 H968 0.930 . S
C955 C952 1.344 . S
C955 C954 1.371 . S
C955 H969 0.931 . S
C956 C952 1.328 . S
C956 C957 1.433 . S
C956 H970 0.931 . S
C957 C953 1.323 . S
C957 C956 1.433 . S
C957 H971 0.933 . S
C958 Dy936 2.725 1_655 S
C958 O941 1.255 . S
C958 O942 1.249 . S
C958 C952 1.516 . S
C959 O943 1.254 . S
C959 O944 1.257 . S
C960 O945 1.266 . S
C960 O946 1.236 . S
C961 C964 1.344 . S
C961 C965 1.328 . S
C961 C967 1.516 . S
C962 C963 1.304 . S
C962 C966 1.323 . S
C963 C962 1.304 . S
C963 C964 1.371 . S
C963 H972 0.930 . S
C964 C961 1.344 . S
C964 C963 1.371 . S
C964 H973 0.931 . S
C965 C961 1.328 . S
C965 C966 1.433 . S
C965 H974 0.931 . S
C966 C962 1.323 . S
C966 C965 1.433 . S
C966 H975 0.933 . S
C967 Dy937 2.738 . S
C967 O947 1.255 . S
C967 O948 1.249 . S
C967 C961 1.516 . S
H968 C954 0.930 . S
H969 C955 0.931 . S
H970 C956 0.931 . S
H971 C957 0.933 . S
H972 C963 0.930 . S
H973 C964 0.931 . S
H974 C965 0.931 . S
H975 C966 0.933 . S
H976 C984 0.950 . S
H977 C989 0.950 . S
H978 C986 0.950 . S
H979 C988 0.950 . S
H980 C990 0.950 . S
H981 C992 0.950 . S
H982 C994 0.950 . S
H983 C995 0.950 1_655 S
C984 H976 0.950 . S
C984 C985 1.386 . S
C984 C986 1.391 1_556 S
C985 C984 1.386 . S
C985 C989 1.393 1_655 S
C986 H978 0.950 . S
C986 C984 1.391 1_554 S
C986 C987 1.400 1_655 S
C987 C986 1.400 1_455 S
C987 C988 1.398 1_554 S
C987 C993 1.491 . S
C988 H979 0.950 . S
C988 C987 1.398 1_556 S
C988 C989 1.391 . S
C989 H977 0.950 . S
C989 C985 1.393 1_455 S
C989 C988 1.391 . S
C990 H980 0.950 . S
C990 C991 1.386 . S
C990 C992 1.391 . S
C991 C990 1.386 . S
C991 C995 1.393 . S
C992 H981 0.950 . S
C992 C990 1.391 . S
C992 C993 1.400 . S
C993 C987 1.491 . S
C993 C992 1.400 . S
C993 C994 1.398 1_455 S
C994 H982 0.950 . S
C994 C993 1.398 1_655 S
C994 C995 1.391 1_655 S
C995 H983 0.950 1_455 S
C995 C991 1.393 . S
C995 C994 1.391 1_455 S
H996 C1004 0.950 . S
H997 C1009 0.950 . S
H998 C1006 0.950 . S
H999 C1008 0.950 . S
H1000 C1010 0.950 . S
H1001 C1012 0.950 . S
H1002 C1014 0.950 . S
H1003 C1015 0.950 . S
C1004 H996 0.950 . S
C1004 C1005 1.386 . S
C1004 C1006 1.391 . S
C1005 C1004 1.386 . S
C1005 C1009 1.393 . S
C1006 H998 0.950 . S
C1006 C1004 1.391 . S
C1006 C1007 1.400 . S
C1007 C1006 1.400 . S
C1007 C1008 1.398 . S
C1007 C1013 1.491 . S
C1008 H999 0.950 . S
C1008 C1007 1.398 . S
C1008 C1009 1.391 . S
C1009 H997 0.950 . S
C1009 C1005 1.393 . S
C1009 C1008 1.391 . S
C1010 H1000 0.950 . S
C1010 C1011 1.386 . S
C1010 C1012 1.391 . S
C1011 C1010 1.386 . S
C1011 C1015 1.393 . S
C1012 H1001 0.950 . S
C1012 C1010 1.391 . S
C1012 C1013 1.400 . S
C1013 C1007 1.491 . S
C1013 C1012 1.400 . S
C1013 C1014 1.398 . S
C1014 H1002 0.950 . S
C1014 C1013 1.398 . S
C1014 C1015 1.391 . S
C1015 H1003 0.950 . S
C1015 C1011 1.393 . S
C1015 C1014 1.391 . S
H1016 C1024 0.950 . S
H1017 C1029 0.950 . S
H1018 C1026 0.950 . S
H1019 C1028 0.950 . S
H1020 C1030 0.950 . S
H1021 C1032 0.950 . S
H1022 C1034 0.950 . S
H1023 C1035 0.950 . S
C1024 H1016 0.950 . S
C1024 C1025 1.386 . S
C1024 C1026 1.391 . S
C1025 C1024 1.386 . S
C1025 C1029 1.393 . S
C1026 H1018 0.950 . S
C1026 C1024 1.391 . S
C1026 C1027 1.400 . S
C1027 C1026 1.400 . S
C1027 C1028 1.398 . S
C1027 C1033 1.491 . S
C1028 H1019 0.950 . S
C1028 C1027 1.398 . S
C1028 C1029 1.391 . S
C1029 H1017 0.950 . S
C1029 C1025 1.393 . S
C1029 C1028 1.391 . S
C1030 H1020 0.950 . S
C1030 C1031 1.386 . S
C1030 C1032 1.391 . S
C1031 C1030 1.386 . S
C1031 C1035 1.393 . S
C1032 H1021 0.950 . S
C1032 C1030 1.391 . S
C1032 C1033 1.400 . S
C1033 C1027 1.491 . S
C1033 C1032 1.400 . S
C1033 C1034 1.398 . S
C1034 H1022 0.950 . S
C1034 C1033 1.398 . S
C1034 C1035 1.391 . S
C1035 H1023 0.950 . S
C1035 C1031 1.393 . S
C1035 C1034 1.391 . S
H1036 C1044 0.950 . S
H1037 C1049 0.950 . S
H1038 C1046 0.950 . S
H1039 C1048 0.950 . S
H1040 C1050 0.950 . S
H1041 C1052 0.950 . S
H1042 C1054 0.950 . S
H1043 C1055 0.950 . S
C1044 H1036 0.950 . S
C1044 C1045 1.386 . S
C1044 C1046 1.391 . S
C1045 C1044 1.386 . S
C1045 C1049 1.393 . S
C1046 H1038 0.950 . S
C1046 C1044 1.391 . S
C1046 C1047 1.400 . S
C1047 C1046 1.400 . S
C1047 C1048 1.398 . S
C1047 C1053 1.491 . S
C1048 H1039 0.950 . S
C1048 C1047 1.398 . S
C1048 C1049 1.391 . S
C1049 H1037 0.950 . S
C1049 C1045 1.393 . S
C1049 C1048 1.391 . S
C1050 H1040 0.950 . S
C1050 C1051 1.386 . S
C1050 C1052 1.391 . S
C1051 C1050 1.386 . S
C1051 C1055 1.393 . S
C1052 H1041 0.950 . S
C1052 C1050 1.391 . S
C1052 C1053 1.400 . S
C1053 C1047 1.491 . S
C1053 C1052 1.400 . S
C1053 C1054 1.398 . S
C1054 H1042 0.950 . S
C1054 C1053 1.398 . S
C1054 C1055 1.391 . S
C1055 H1043 0.950 . S
C1055 C1051 1.393 . S
C1055 C1054 1.391 . S
H1056 C1064 0.950 . S
H1057 C1069 0.950 . S
H1058 C1066 0.950 . S
H1059 C1068 0.950 . S
H1060 C1070 0.950 . S
H1061 C1072 0.950 . S
H1062 C1074 0.950 . S
H1063 C1075 0.950 . S
C1064 H1056 0.950 . S
C1064 C1065 1.386 . S
C1064 C1066 1.391 . S
C1065 C1064 1.386 . S
C1065 C1069 1.393 . S
C1066 H1058 0.950 . S
C1066 C1064 1.391 . S
C1066 C1067 1.400 . S
C1067 C1066 1.400 . S
C1067 C1068 1.398 . S
C1067 C1073 1.491 . S
C1068 H1059 0.950 . S
C1068 C1067 1.398 . S
C1068 C1069 1.391 . S
C1069 H1057 0.950 . S
C1069 C1065 1.393 . S
C1069 C1068 1.391 . S
C1070 H1060 0.950 . S
C1070 C1071 1.386 . S
C1070 C1072 1.391 . S
C1071 C1070 1.386 . S
C1071 C1075 1.393 . S
C1072 H1061 0.950 . S
C1072 C1070 1.391 . S
C1072 C1073 1.400 . S
C1073 C1067 1.491 . S
C1073 C1072 1.400 . S
C1073 C1074 1.398 . S
C1074 H1062 0.950 . S
C1074 C1073 1.398 . S
C1074 C1075 1.391 . S
C1075 H1063 0.950 . S
C1075 C1071 1.393 . S
C1075 C1074 1.391 . S
H1076 C1084 0.950 . S
H1077 C1089 0.950 . S
H1078 C1086 0.950 . S
H1079 C1088 0.950 . S
H1080 C1090 0.950 . S
H1081 C1092 0.950 . S
H1082 C1094 0.950 . S
H1083 C1095 0.950 . S
C1084 H1076 0.950 . S
C1084 C1085 1.386 . S
C1084 C1086 1.391 . S
C1085 C1084 1.386 . S
C1085 C1089 1.393 . S
C1086 H1078 0.950 . S
C1086 C1084 1.391 . S
C1086 C1087 1.400 . S
C1087 C1086 1.400 . S
C1087 C1088 1.398 . S
C1087 C1093 1.491 . S
C1088 H1079 0.950 . S
C1088 C1087 1.398 . S
C1088 C1089 1.391 . S
C1089 H1077 0.950 . S
C1089 C1085 1.393 . S
C1089 C1088 1.391 . S
C1090 H1080 0.950 . S
C1090 C1091 1.386 . S
C1090 C1092 1.391 . S
C1091 C1090 1.386 . S
C1091 C1095 1.393 . S
C1092 H1081 0.950 . S
C1092 C1090 1.391 . S
C1092 C1093 1.400 . S
C1093 C1087 1.491 . S
C1093 C1092 1.400 . S
C1093 C1094 1.398 . S
C1094 H1082 0.950 . S
C1094 C1093 1.398 . S
C1094 C1095 1.391 . S
C1095 H1083 0.950 . S
C1095 C1091 1.393 . S
C1095 C1094 1.391 . S
H1096 C1104 0.950 . S
H1097 C1109 0.950 . S
H1098 C1106 0.950 . S
H1099 C1108 0.950 . S
H1100 C1110 0.950 . S
H1101 C1112 0.950 . S
H1102 C1114 0.950 . S
H1103 C1115 0.950 . S
C1104 H1096 0.950 . S
C1104 C1105 1.386 . S
C1104 C1106 1.391 . S
C1105 C1104 1.386 . S
C1105 C1109 1.393 . S
C1106 H1098 0.950 . S
C1106 C1104 1.391 . S
C1106 C1107 1.400 . S
C1107 C1106 1.400 . S
C1107 C1108 1.398 . S
C1107 C1113 1.491 . S
C1108 H1099 0.950 . S
C1108 C1107 1.398 . S
C1108 C1109 1.391 . S
C1109 H1097 0.950 . S
C1109 C1105 1.393 . S
C1109 C1108 1.391 . S
C1110 H1100 0.950 . S
C1110 C1111 1.386 . S
C1110 C1112 1.391 . S
C1111 C1110 1.386 . S
C1111 C1115 1.393 . S
C1112 H1101 0.950 . S
C1112 C1110 1.391 . S
C1112 C1113 1.400 . S
C1113 C1107 1.491 . S
C1113 C1112 1.400 . S
C1113 C1114 1.398 . S
C1114 H1102 0.950 . S
C1114 C1113 1.398 . S
C1114 C1115 1.391 . S
C1115 H1103 0.950 . S
C1115 C1111 1.393 . S
C1115 C1114 1.391 . S
H1116 C1124 0.950 . S
H1117 C1129 0.950 . S
H1118 C1126 0.950 . S
H1119 C1128 0.950 . S
H1120 C1130 0.950 . S
H1121 C1132 0.950 . S
H1122 C1134 0.950 . S
H1123 C1135 0.950 . S
C1124 H1116 0.950 . S
C1124 C1125 1.386 . S
C1124 C1126 1.391 . S
C1125 C1124 1.386 . S
C1125 C1129 1.393 . S
C1126 H1118 0.950 . S
C1126 C1124 1.391 . S
C1126 C1127 1.400 . S
C1127 C1126 1.400 . S
C1127 C1128 1.398 . S
C1127 C1133 1.491 . S
C1128 H1119 0.950 . S
C1128 C1127 1.398 . S
C1128 C1129 1.391 . S
C1129 H1117 0.950 . S
C1129 C1125 1.393 . S
C1129 C1128 1.391 . S
C1130 H1120 0.950 . S
C1130 C1131 1.386 . S
C1130 C1132 1.391 . S
C1131 C1130 1.386 . S
C1131 C1135 1.393 . S
C1132 H1121 0.950 . S
C1132 C1130 1.391 . S
C1132 C1133 1.400 . S
C1133 C1127 1.491 . S
C1133 C1132 1.400 . S
C1133 C1134 1.398 . S
C1134 H1122 0.950 . S
C1134 C1133 1.398 . S
C1134 C1135 1.391 . S
C1135 H1123 0.950 . S
C1135 C1131 1.393 . S
C1135 C1134 1.391 . S
H1136 C1144 0.950 . S
H1137 C1149 0.950 . S
H1138 C1146 0.950 1_455 S
H1139 C1148 0.950 . S
H1140 C1150 0.950 . S
H1141 C1152 0.950 . S
H1142 C1154 0.950 . S
H1143 C1155 0.950 . S
C1144 H1136 0.950 . S
C1144 C1145 1.386 . S
C1144 C1146 1.391 . S
C1145 C1144 1.386 . S
C1145 C1149 1.393 . S
C1146 H1138 0.950 1_655 S
C1146 C1144 1.391 . S
C1146 C1147 1.400 . S
C1147 C1146 1.400 . S
C1147 C1148 1.398 . S
C1147 C1153 1.491 . S
C1148 H1139 0.950 . S
C1148 C1147 1.398 . S
C1148 C1149 1.391 . S
C1149 H1137 0.950 . S
C1149 C1145 1.393 . S
C1149 C1148 1.391 . S
C1150 H1140 0.950 . S
C1150 C1151 1.386 1_655 S
C1150 C1152 1.391 . S
C1151 C1150 1.386 1_455 S
C1151 C1155 1.393 . S
C1152 H1141 0.950 . S
C1152 C1150 1.391 . S
C1152 C1153 1.400 . S
C1153 C1147 1.491 . S
C1153 C1152 1.400 . S
C1153 C1154 1.398 1_655 S
C1154 H1142 0.950 . S
C1154 C1153 1.398 1_455 S
C1154 C1155 1.391 . S
C1155 H1143 0.950 . S
C1155 C1151 1.393 . S
C1155 C1154 1.391 . S
H1156 C1164 0.950 . S
H1157 C1169 0.950 . S
H1158 C1166 0.950 . S
H1159 C1168 0.950 . S
H1160 C1170 0.950 . S
H1161 C1172 0.950 . S
H1162 C1174 0.950 . S
H1163 C1175 0.950 . S
C1164 H1156 0.950 . S
C1164 C1165 1.386 . S
C1164 C1166 1.391 . S
C1165 C1164 1.386 . S
C1165 C1169 1.393 . S
C1166 H1158 0.950 . S
C1166 C1164 1.391 . S
C1166 C1167 1.400 . S
C1167 C1166 1.400 . S
C1167 C1168 1.398 . S
C1167 C1173 1.491 . S
C1168 H1159 0.950 . S
C1168 C1167 1.398 . S
C1168 C1169 1.391 . S
C1169 H1157 0.950 . S
C1169 C1165 1.393 . S
C1169 C1168 1.391 . S
C1170 H1160 0.950 . S
C1170 C1171 1.386 . S
C1170 C1172 1.391 . S
C1171 C1170 1.386 . S
C1171 C1175 1.393 . S
C1172 H1161 0.950 . S
C1172 C1170 1.391 . S
C1172 C1173 1.400 . S
C1173 C1167 1.491 . S
C1173 C1172 1.400 . S
C1173 C1174 1.398 . S
C1174 H1162 0.950 . S
C1174 C1173 1.398 . S
C1174 C1175 1.391 . S
C1175 H1163 0.950 . S
C1175 C1171 1.393 . S
C1175 C1174 1.391 . S
H1176 C1184 0.950 . S
H1177 C1189 0.950 . S
H1178 C1186 0.950 . S
H1179 C1188 0.950 . S
H1180 C1190 0.950 . S
H1181 C1192 0.950 . S
H1182 C1194 0.950 . S
H1183 C1195 0.950 . S
C1184 H1176 0.950 . S
C1184 C1185 1.386 . S
C1184 C1186 1.391 . S
C1185 C1184 1.386 . S
C1185 C1189 1.393 . S
C1186 H1178 0.950 . S
C1186 C1184 1.391 . S
C1186 C1187 1.400 . S
C1187 C1186 1.400 . S
C1187 C1188 1.398 . S
C1187 C1193 1.491 . S
C1188 H1179 0.950 . S
C1188 C1187 1.398 . S
C1188 C1189 1.391 . S
C1189 H1177 0.950 . S
C1189 C1185 1.393 . S
C1189 C1188 1.391 . S
C1190 H1180 0.950 . S
C1190 C1191 1.386 . S
C1190 C1192 1.391 . S
C1191 C1190 1.386 . S
C1191 C1195 1.393 . S
C1192 H1181 0.950 . S
C1192 C1190 1.391 . S
C1192 C1193 1.400 . S
C1193 C1187 1.491 . S
C1193 C1192 1.400 . S
C1193 C1194 1.398 . S
C1194 H1182 0.950 . S
C1194 C1193 1.398 . S
C1194 C1195 1.391 . S
C1195 H1183 0.950 . S
C1195 C1191 1.393 . S
C1195 C1194 1.391 . S
H1196 C1204 0.950 . S
H1197 C1209 0.950 . S
H1198 C1206 0.950 . S
H1199 C1208 0.950 . S
H1200 C1210 0.950 . S
H1201 C1212 0.950 . S
H1202 C1214 0.950 . S
H1203 C1215 0.950 . S
C1204 H1196 0.950 . S
C1204 C1205 1.386 . S
C1204 C1206 1.391 . S
C1205 C1204 1.386 . S
C1205 C1209 1.393 . S
C1206 H1198 0.950 . S
C1206 C1204 1.391 . S
C1206 C1207 1.400 . S
C1207 C1206 1.400 . S
C1207 C1208 1.398 . S
C1207 C1213 1.491 . S
C1208 H1199 0.950 . S
C1208 C1207 1.398 . S
C1208 C1209 1.391 . S
C1209 H1197 0.950 . S
C1209 C1205 1.393 . S
C1209 C1208 1.391 . S
C1210 H1200 0.950 . S
C1210 C1211 1.386 . S
C1210 C1212 1.391 . S
C1211 C1210 1.386 . S
C1211 C1215 1.393 . S
C1212 H1201 0.950 . S
C1212 C1210 1.391 . S
C1212 C1213 1.400 . S
C1213 C1207 1.491 . S
C1213 C1212 1.400 . S
C1213 C1214 1.398 . S
C1214 H1202 0.950 . S
C1214 C1213 1.398 . S
C1214 C1215 1.391 . S
C1215 H1203 0.950 . S
C1215 C1211 1.393 . S
C1215 C1214 1.391 . S
H1216 C1224 0.950 . S
H1217 C1229 0.950 . S
H1218 C1226 0.950 . S
H1219 C1228 0.950 1_455 S
H1220 C1230 0.950 . S
H1221 C1232 0.950 . S
H1222 C1234 0.950 . S
H1223 C1235 0.950 . S
C1224 H1216 0.950 . S
C1224 C1225 1.386 . S
C1224 C1226 1.391 . S
C1225 C1224 1.386 . S
C1225 C1229 1.393 . S
C1226 H1218 0.950 . S
C1226 C1224 1.391 . S
C1226 C1227 1.400 . S
C1227 C1226 1.400 . S
C1227 C1228 1.398 . S
C1227 C1233 1.491 1_655 S
C1228 H1219 0.950 1_655 S
C1228 C1227 1.398 . S
C1228 C1229 1.391 . S
C1229 H1217 0.950 . S
C1229 C1225 1.393 . S
C1229 C1228 1.391 . S
C1230 H1220 0.950 . S
C1230 C1231 1.386 . S
C1230 C1232 1.391 . S
C1231 C1230 1.386 . S
C1231 C1235 1.393 . S
C1232 H1221 0.950 . S
C1232 C1230 1.391 . S
C1232 C1233 1.400 . S
C1233 C1227 1.491 1_455 S
C1233 C1232 1.400 . S
C1233 C1234 1.398 1_455 S
C1234 H1222 0.950 . S
C1234 C1233 1.398 1_655 S
C1234 C1235 1.391 1_655 S
C1235 H1223 0.950 . S
C1235 C1231 1.393 . S
C1235 C1234 1.391 1_455 S
H1236 C1244 0.950 . S
H1237 C1249 0.950 . S
H1238 C1246 0.950 . S
H1239 C1248 0.950 . S
H1240 C1250 0.950 . S
H1241 C1252 0.950 . S
H1242 C1254 0.950 . S
H1243 C1255 0.950 . S
C1244 H1236 0.950 . S
C1244 C1245 1.386 . S
C1244 C1246 1.391 . S
C1245 C1244 1.386 . S
C1245 C1249 1.393 . S
C1246 H1238 0.950 . S
C1246 C1244 1.391 . S
C1246 C1247 1.400 . S
C1247 C1246 1.400 . S
C1247 C1248 1.398 . S
C1247 C1253 1.491 . S
C1248 H1239 0.950 . S
C1248 C1247 1.398 . S
C1248 C1249 1.391 . S
C1249 H1237 0.950 . S
C1249 C1245 1.393 . S
C1249 C1248 1.391 . S
C1250 H1240 0.950 . S
C1250 C1251 1.386 . S
C1250 C1252 1.391 . S
C1251 C1250 1.386 . S
C1251 C1255 1.393 . S
C1252 H1241 0.950 . S
C1252 C1250 1.391 . S
C1252 C1253 1.400 . S
C1253 C1247 1.491 . S
C1253 C1252 1.400 . S
C1253 C1254 1.398 . S
C1254 H1242 0.950 . S
C1254 C1253 1.398 . S
C1254 C1255 1.391 . S
C1255 H1243 0.950 . S
C1255 C1251 1.393 . S
C1255 C1254 1.391 . S
H1256 C1264 0.950 . S
H1257 C1269 0.950 . S
H1258 C1266 0.950 . S
H1259 C1268 0.950 . S
H1260 C1270 0.950 . S
H1261 C1272 0.950 . S
H1262 C1274 0.950 . S
H1263 C1275 0.950 . S
C1264 H1256 0.950 . S
C1264 C1265 1.386 . S
C1264 C1266 1.391 . S
C1265 C1264 1.386 . S
C1265 C1269 1.393 . S
C1266 H1258 0.950 . S
C1266 C1264 1.391 . S
C1266 C1267 1.400 . S
C1267 C1266 1.400 . S
C1267 C1268 1.398 . S
C1267 C1273 1.491 . S
C1268 H1259 0.950 . S
C1268 C1267 1.398 . S
C1268 C1269 1.391 . S
C1269 H1257 0.950 . S
C1269 C1265 1.393 . S
C1269 C1268 1.391 . S
C1270 H1260 0.950 . S
C1270 C1271 1.386 . S
C1270 C1272 1.391 . S
C1271 C1270 1.386 . S
C1271 C1275 1.393 . S
C1272 H1261 0.950 . S
C1272 C1270 1.391 . S
C1272 C1273 1.400 . S
C1273 C1267 1.491 . S
C1273 C1272 1.400 . S
C1273 C1274 1.398 . S
C1274 H1262 0.950 . S
C1274 C1273 1.398 . S
C1274 C1275 1.391 . S
C1275 H1263 0.950 . S
C1275 C1271 1.393 . S
C1275 C1274 1.391 . S
H1276 C1284 0.950 . S
H1277 C1289 0.950 . S
H1278 C1286 0.950 . S
H1279 C1288 0.950 . S
H1280 C1290 0.950 . S
H1281 C1292 0.950 . S
H1282 C1294 0.950 . S
H1283 C1295 0.950 . S
C1284 H1276 0.950 . S
C1284 C1285 1.386 . S
C1284 C1286 1.391 . S
C1285 C1284 1.386 . S
C1285 C1289 1.393 . S
C1286 H1278 0.950 . S
C1286 C1284 1.391 . S
C1286 C1287 1.400 . S
C1287 C1286 1.400 . S
C1287 C1288 1.398 . S
C1287 C1293 1.491 . S
C1288 H1279 0.950 . S
C1288 C1287 1.398 . S
C1288 C1289 1.391 . S
C1289 H1277 0.950 . S
C1289 C1285 1.393 . S
C1289 C1288 1.391 . S
C1290 H1280 0.950 . S
C1290 C1291 1.386 . S
C1290 C1292 1.391 . S
C1291 C1290 1.386 . S
C1291 C1295 1.393 . S
C1292 H1281 0.950 . S
C1292 C1290 1.391 . S
C1292 C1293 1.400 . S
C1293 C1287 1.491 . S
C1293 C1292 1.400 . S
C1293 C1294 1.398 . S
C1294 H1282 0.950 . S
C1294 C1293 1.398 . S
C1294 C1295 1.391 . S
C1295 H1283 0.950 . S
C1295 C1291 1.393 . S
C1295 C1294 1.391 . S
H1296 C1304 0.950 . S
H1297 C1309 0.950 1_556 S
H1298 C1306 0.950 . S
H1299 C1308 0.950 . S
H1300 C1310 0.950 . S
H1301 C1312 0.950 . S
H1302 C1314 0.950 . S
H1303 C1315 0.950 . S
C1304 H1296 0.950 . S
C1304 C1305 1.386 . S
C1304 C1306 1.391 . S
C1305 C1304 1.386 . S
C1305 C1309 1.393 . S
C1306 H1298 0.950 . S
C1306 C1304 1.391 . S
C1306 C1307 1.400 . S
C1307 C1306 1.400 . S
C1307 C1308 1.398 . S
C1307 C1313 1.491 . S
C1308 H1299 0.950 . S
C1308 C1307 1.398 . S
C1308 C1309 1.391 . S
C1309 H1297 0.950 1_554 S
C1309 C1305 1.393 . S
C1309 C1308 1.391 . S
C1310 H1300 0.950 . S
C1310 C1311 1.386 . S
C1310 C1312 1.391 . S
C1311 C1310 1.386 . S
C1311 C1315 1.393 1_545 S
C1312 H1301 0.950 . S
C1312 C1310 1.391 . S
C1312 C1313 1.400 1_545 S
C1313 C1307 1.491 . S
C1313 C1312 1.400 1_565 S
C1313 C1314 1.398 . S
C1314 H1302 0.950 . S
C1314 C1313 1.398 . S
C1314 C1315 1.391 . S
C1315 H1303 0.950 . S
C1315 C1311 1.393 1_565 S
C1315 C1314 1.391 . S
H1316 C1324 0.950 . S
H1317 C1329 0.950 . S
H1318 C1326 0.950 . S
H1319 C1328 0.950 . S
H1320 C1330 0.950 . S
H1321 C1332 0.950 . S
H1322 C1334 0.950 . S
H1323 C1335 0.950 . S
C1324 H1316 0.950 . S
C1324 C1325 1.386 . S
C1324 C1326 1.391 . S
C1325 C1324 1.386 . S
C1325 C1329 1.393 . S
C1326 H1318 0.950 . S
C1326 C1324 1.391 . S
C1326 C1327 1.400 . S
C1327 C1326 1.400 . S
C1327 C1328 1.398 . S
C1327 C1333 1.491 . S
C1328 H1319 0.950 . S
C1328 C1327 1.398 . S
C1328 C1329 1.391 . S
C1329 H1317 0.950 . S
C1329 C1325 1.393 . S
C1329 C1328 1.391 . S
C1330 H1320 0.950 . S
C1330 C1331 1.386 . S
C1330 C1332 1.391 . S
C1331 C1330 1.386 . S
C1331 C1335 1.393 . S
C1332 H1321 0.950 . S
C1332 C1330 1.391 . S
C1332 C1333 1.400 . S
C1333 C1327 1.491 . S
C1333 C1332 1.400 . S
C1333 C1334 1.398 . S
C1334 H1322 0.950 . S
C1334 C1333 1.398 . S
C1334 C1335 1.391 . S
C1335 H1323 0.950 . S
C1335 C1331 1.393 . S
C1335 C1334 1.391 . S
H1336 C1344 0.950 . S
H1337 C1349 0.950 . S
H1338 C1346 0.950 . S
H1339 C1348 0.950 . S
H1340 C1350 0.950 . S
H1341 C1352 0.950 . S
H1342 C1354 0.950 . S
H1343 C1355 0.950 . S
C1344 H1336 0.950 . S
C1344 C1345 1.386 . S
C1344 C1346 1.391 . S
C1345 C1344 1.386 . S
C1345 C1349 1.393 . S
C1346 H1338 0.950 . S
C1346 C1344 1.391 . S
C1346 C1347 1.400 . S
C1347 C1346 1.400 . S
C1347 C1348 1.398 . S
C1347 C1353 1.491 . S
C1348 H1339 0.950 . S
C1348 C1347 1.398 . S
C1348 C1349 1.391 . S
C1349 H1337 0.950 . S
C1349 C1345 1.393 . S
C1349 C1348 1.391 . S
C1350 H1340 0.950 . S
C1350 C1351 1.386 . S
C1350 C1352 1.391 . S
C1351 C1350 1.386 . S
C1351 C1355 1.393 . S
C1352 H1341 0.950 . S
C1352 C1350 1.391 . S
C1352 C1353 1.400 . S
C1353 C1347 1.491 . S
C1353 C1352 1.400 . S
C1353 C1354 1.398 . S
C1354 H1342 0.950 . S
C1354 C1353 1.398 . S
C1354 C1355 1.391 . S
C1355 H1343 0.950 . S
C1355 C1351 1.393 . S
C1355 C1354 1.391 . S
H1356 C1364 0.950 . S
H1357 C1369 0.950 . S
H1358 C1366 0.950 . S
H1359 C1368 0.950 . S
H1360 C1370 0.950 . S
H1361 C1372 0.950 . S
H1362 C1374 0.950 . S
H1363 C1375 0.950 . S
C1364 H1356 0.950 . S
C1364 C1365 1.386 . S
C1364 C1366 1.391 . S
C1365 C1364 1.386 . S
C1365 C1369 1.393 . S
C1366 H1358 0.950 . S
C1366 C1364 1.391 . S
C1366 C1367 1.400 . S
C1367 C1366 1.400 . S
C1367 C1368 1.398 . S
C1367 C1373 1.491 . S
C1368 H1359 0.950 . S
C1368 C1367 1.398 . S
C1368 C1369 1.391 . S
C1369 H1357 0.950 . S
C1369 C1365 1.393 . S
C1369 C1368 1.391 . S
C1370 H1360 0.950 . S
C1370 C1371 1.386 . S
C1370 C1372 1.391 . S
C1371 C1370 1.386 . S
C1371 C1375 1.393 . S
C1372 H1361 0.950 . S
C1372 C1370 1.391 . S
C1372 C1373 1.400 . S
C1373 C1367 1.491 . S
C1373 C1372 1.400 . S
C1373 C1374 1.398 . S
C1374 H1362 0.950 . S
C1374 C1373 1.398 . S
C1374 C1375 1.391 . S
C1375 H1363 0.950 . S
C1375 C1371 1.393 . S
C1375 C1374 1.391 . S
H1376 C1384 0.950 . S
H1377 C1389 0.950 . S
H1378 C1386 0.950 . S
H1379 C1388 0.950 . S
H1380 C1390 0.950 . S
H1381 C1392 0.950 . S
H1382 C1394 0.950 . S
H1383 C1395 0.950 . S
C1384 H1376 0.950 . S
C1384 C1385 1.386 . S
C1384 C1386 1.391 . S
C1385 C1384 1.386 . S
C1385 C1389 1.393 . S
C1386 H1378 0.950 . S
C1386 C1384 1.391 . S
C1386 C1387 1.400 . S
C1387 C1386 1.400 . S
C1387 C1388 1.398 . S
C1387 C1393 1.491 . S
C1388 H1379 0.950 . S
C1388 C1387 1.398 . S
C1388 C1389 1.391 . S
C1389 H1377 0.950 . S
C1389 C1385 1.393 . S
C1389 C1388 1.391 . S
C1390 H1380 0.950 . S
C1390 C1391 1.386 . S
C1390 C1392 1.391 . S
C1391 C1390 1.386 . S
C1391 C1395 1.393 . S
C1392 H1381 0.950 . S
C1392 C1390 1.391 . S
C1392 C1393 1.400 . S
C1393 C1387 1.491 . S
C1393 C1392 1.400 . S
C1393 C1394 1.398 . S
C1394 H1382 0.950 . S
C1394 C1393 1.398 . S
C1394 C1395 1.391 . S
C1395 H1383 0.950 . S
C1395 C1391 1.393 . S
C1395 C1394 1.391 . S
H1396 C1404 0.950 . S
H1397 C1409 0.950 . S
H1398 C1406 0.950 . S
H1399 C1408 0.950 . S
H1400 C1410 0.950 . S
H1401 C1412 0.950 . S
H1402 C1414 0.950 . S
H1403 C1415 0.950 . S
C1404 H1396 0.950 . S
C1404 C1405 1.386 . S
C1404 C1406 1.391 . S
C1405 C1404 1.386 . S
C1405 C1409 1.393 . S
C1406 H1398 0.950 . S
C1406 C1404 1.391 . S
C1406 C1407 1.400 . S
C1407 C1406 1.400 . S
C1407 C1408 1.398 . S
C1407 C1413 1.491 . S
C1408 H1399 0.950 . S
C1408 C1407 1.398 . S
C1408 C1409 1.391 . S
C1409 H1397 0.950 . S
C1409 C1405 1.393 . S
C1409 C1408 1.391 . S
C1410 H1400 0.950 . S
C1410 C1411 1.386 . S
C1410 C1412 1.391 . S
C1411 C1410 1.386 . S
C1411 C1415 1.393 . S
C1412 H1401 0.950 . S
C1412 C1410 1.391 . S
C1412 C1413 1.400 . S
C1413 C1407 1.491 . S
C1413 C1412 1.400 . S
C1413 C1414 1.398 . S
C1414 H1402 0.950 . S
C1414 C1413 1.398 . S
C1414 C1415 1.391 . S
C1415 H1403 0.950 . S
C1415 C1411 1.393 . S
C1415 C1414 1.391 . S
H1416 C1424 0.950 . S
H1417 C1429 0.950 . S
H1418 C1426 0.950 . S
H1419 C1428 0.950 . S
H1420 C1430 0.950 . S
H1421 C1432 0.950 . S
H1422 C1434 0.950 . S
H1423 C1435 0.950 . S
C1424 H1416 0.950 . S
C1424 C1425 1.386 . S
C1424 C1426 1.391 . S
C1425 C1424 1.386 . S
C1425 C1429 1.393 . S
C1426 H1418 0.950 . S
C1426 C1424 1.391 . S
C1426 C1427 1.400 . S
C1427 C1426 1.400 . S
C1427 C1428 1.398 . S
C1427 C1433 1.491 . S
C1428 H1419 0.950 . S
C1428 C1427 1.398 . S
C1428 C1429 1.391 . S
C1429 H1417 0.950 . S
C1429 C1425 1.393 . S
C1429 C1428 1.391 . S
C1430 H1420 0.950 . S
C1430 C1431 1.386 . S
C1430 C1432 1.391 . S
C1431 C1430 1.386 . S
C1431 C1435 1.393 . S
C1432 H1421 0.950 . S
C1432 C1430 1.391 . S
C1432 C1433 1.400 . S
C1433 C1427 1.491 . S
C1433 C1432 1.400 . S
C1433 C1434 1.398 . S
C1434 H1422 0.950 . S
C1434 C1433 1.398 . S
C1434 C1435 1.391 . S
C1435 H1423 0.950 . S
C1435 C1431 1.393 . S
C1435 C1434 1.391 . S
H1436 C1444 0.950 . S
H1437 C1449 0.950 . S
H1438 C1446 0.950 . S
H1439 C1448 0.950 . S
H1440 C1450 0.950 . S
H1441 C1452 0.950 . S
H1442 C1454 0.950 . S
H1443 C1455 0.950 . S
C1444 H1436 0.950 . S
C1444 C1445 1.386 . S
C1444 C1446 1.391 . S
C1445 C1444 1.386 . S
C1445 C1449 1.393 . S
C1446 H1438 0.950 . S
C1446 C1444 1.391 . S
C1446 C1447 1.400 . S
C1447 C1446 1.400 . S
C1447 C1448 1.398 . S
C1447 C1453 1.491 . S
C1448 H1439 0.950 . S
C1448 C1447 1.398 . S
C1448 C1449 1.391 . S
C1449 H1437 0.950 . S
C1449 C1445 1.393 . S
C1449 C1448 1.391 . S
C1450 H1440 0.950 . S
C1450 C1451 1.386 . S
C1450 C1452 1.391 . S
C1451 C1450 1.386 . S
C1451 C1455 1.393 . S
C1452 H1441 0.950 . S
C1452 C1450 1.391 . S
C1452 C1453 1.400 . S
C1453 C1447 1.491 . S
C1453 C1452 1.400 . S
C1453 C1454 1.398 . S
C1454 H1442 0.950 . S
C1454 C1453 1.398 . S
C1454 C1455 1.391 . S
C1455 H1443 0.950 . S
C1455 C1451 1.393 . S
C1455 C1454 1.391 . S
H1456 C1464 0.950 . S
H1457 C1469 0.950 . S
H1458 C1466 0.950 . S
H1459 C1468 0.950 . S
H1460 C1470 0.950 . S
H1461 C1472 0.950 . S
H1462 C1474 0.950 . S
H1463 C1475 0.950 . S
C1464 H1456 0.950 . S
C1464 C1465 1.386 . S
C1464 C1466 1.391 . S
C1465 C1464 1.386 . S
C1465 C1469 1.393 . S
C1466 H1458 0.950 . S
C1466 C1464 1.391 . S
C1466 C1467 1.400 . S
C1467 C1466 1.400 . S
C1467 C1468 1.398 . S
C1467 C1473 1.491 . S
C1468 H1459 0.950 . S
C1468 C1467 1.398 . S
C1468 C1469 1.391 . S
C1469 H1457 0.950 . S
C1469 C1465 1.393 . S
C1469 C1468 1.391 . S
C1470 H1460 0.950 . S
C1470 C1471 1.386 . S
C1470 C1472 1.391 . S
C1471 C1470 1.386 . S
C1471 C1475 1.393 . S
C1472 H1461 0.950 . S
C1472 C1470 1.391 . S
C1472 C1473 1.400 . S
C1473 C1467 1.491 . S
C1473 C1472 1.400 . S
C1473 C1474 1.398 . S
C1474 H1462 0.950 . S
C1474 C1473 1.398 . S
C1474 C1475 1.391 . S
C1475 H1463 0.950 . S
C1475 C1471 1.393 . S
C1475 C1474 1.391 . S
H1476 C1484 0.950 . S
H1477 C1489 0.950 . S
H1478 C1486 0.950 . S
H1479 C1488 0.950 . S
H1480 C1490 0.950 . S
H1481 C1492 0.950 . S
H1482 C1494 0.950 . S
H1483 C1495 0.950 . S
C1484 H1476 0.950 . S
C1484 C1485 1.386 . S
C1484 C1486 1.391 . S
C1485 C1484 1.386 . S
C1485 C1489 1.393 . S
C1486 H1478 0.950 . S
C1486 C1484 1.391 . S
C1486 C1487 1.400 . S
C1487 C1486 1.400 . S
C1487 C1488 1.398 . S
C1487 C1493 1.491 . S
C1488 H1479 0.950 . S
C1488 C1487 1.398 . S
C1488 C1489 1.391 . S
C1489 H1477 0.950 . S
C1489 C1485 1.393 . S
C1489 C1488 1.391 . S
C1490 H1480 0.950 . S
C1490 C1491 1.386 . S
C1490 C1492 1.391 . S
C1491 C1490 1.386 . S
C1491 C1495 1.393 . S
C1492 H1481 0.950 . S
C1492 C1490 1.391 . S
C1492 C1493 1.400 . S
C1493 C1487 1.491 . S
C1493 C1492 1.400 . S
C1493 C1494 1.398 . S
C1494 H1482 0.950 . S
C1494 C1493 1.398 . S
C1494 C1495 1.391 . S
C1495 H1483 0.950 . S
C1495 C1491 1.393 . S
C1495 C1494 1.391 . S
H1496 C1504 0.950 . S
H1497 C1509 0.950 . S
H1498 C1506 0.950 . S
H1499 C1508 0.950 . S
H1500 C1510 0.950 . S
H1501 C1512 0.950 . S
H1502 C1514 0.950 . S
H1503 C1515 0.950 . S
C1504 H1496 0.950 . S
C1504 C1505 1.386 . S
C1504 C1506 1.391 . S
C1505 C1504 1.386 . S
C1505 C1509 1.393 . S
C1506 H1498 0.950 . S
C1506 C1504 1.391 . S
C1506 C1507 1.400 . S
C1507 C1506 1.400 . S
C1507 C1508 1.398 . S
C1507 C1513 1.491 . S
C1508 H1499 0.950 . S
C1508 C1507 1.398 . S
C1508 C1509 1.391 . S
C1509 H1497 0.950 . S
C1509 C1505 1.393 . S
C1509 C1508 1.391 . S
C1510 H1500 0.950 . S
C1510 C1511 1.386 . S
C1510 C1512 1.391 . S
C1511 C1510 1.386 . S
C1511 C1515 1.393 . S
C1512 H1501 0.950 . S
C1512 C1510 1.391 . S
C1512 C1513 1.400 . S
C1513 C1507 1.491 . S
C1513 C1512 1.400 . S
C1513 C1514 1.398 . S
C1514 H1502 0.950 . S
C1514 C1513 1.398 . S
C1514 C1515 1.391 . S
C1515 H1503 0.950 . S
C1515 C1511 1.393 . S
C1515 C1514 1.391 . S
H1516 C1524 0.950 . S
H1517 C1529 0.950 . S
H1518 C1526 0.950 . S
H1519 C1528 0.950 . S
H1520 C1530 0.950 . S
H1521 C1532 0.950 . S
H1522 C1534 0.950 . S
H1523 C1535 0.950 . S
C1524 H1516 0.950 . S
C1524 C1525 1.386 . S
C1524 C1526 1.391 . S
C1525 C1524 1.386 . S
C1525 C1529 1.393 . S
C1526 H1518 0.950 . S
C1526 C1524 1.391 . S
C1526 C1527 1.400 . S
C1527 C1526 1.400 . S
C1527 C1528 1.398 . S
C1527 C1533 1.491 . S
C1528 H1519 0.950 . S
C1528 C1527 1.398 . S
C1528 C1529 1.391 . S
C1529 H1517 0.950 . S
C1529 C1525 1.393 . S
C1529 C1528 1.391 . S
C1530 H1520 0.950 . S
C1530 C1531 1.386 . S
C1530 C1532 1.391 . S
C1531 C1530 1.386 . S
C1531 C1535 1.393 . S
C1532 H1521 0.950 . S
C1532 C1530 1.391 . S
C1532 C1533 1.400 . S
C1533 C1527 1.491 . S
C1533 C1532 1.400 . S
C1533 C1534 1.398 . S
C1534 H1522 0.950 . S
C1534 C1533 1.398 . S
C1534 C1535 1.391 . S
C1535 H1523 0.950 . S
C1535 C1531 1.393 . S
C1535 C1534 1.391 . S
H1536 C1544 0.950 . S
H1537 C1549 0.950 . S
H1538 C1546 0.950 . S
H1539 C1548 0.929 1_655 S
H1540 C1550 0.950 1_655 S
H1541 C1552 0.950 1_655 S
H1542 C1554 0.950 . S
H1543 C1555 0.950 . S
C1544 H1536 0.950 . S
C1544 C1545 1.386 . S
C1544 C1546 1.391 . S
C1545 C1544 1.386 . S
C1545 C1549 1.393 . S
C1546 H1538 0.950 . S
C1546 C1544 1.391 . S
C1546 C1547 1.400 . S
C1547 C1546 1.400 . S
C1547 C1548 1.398 . S
C1547 C1553 1.491 . S
C1548 H1539 0.929 1_455 S
C1548 C1547 1.398 . S
C1548 C1549 1.391 . S
C1549 H1537 0.950 . S
C1549 C1545 1.393 . S
C1549 C1548 1.391 . S
C1550 H1540 0.950 1_455 S
C1550 C1551 1.386 . S
C1550 C1552 1.391 . S
C1551 C1550 1.386 . S
C1551 C1555 1.393 . S
C1552 H1541 0.950 1_455 S
C1552 C1550 1.391 . S
C1552 C1553 1.400 . S
C1553 C1547 1.491 . S
C1553 C1552 1.400 . S
C1553 C1554 1.398 . S
C1554 H1542 0.950 . S
C1554 C1553 1.398 . S
C1554 C1555 1.391 . S
C1555 H1543 0.950 . S
C1555 C1551 1.393 . S
C1555 C1554 1.391 . S
H1556 C1564 0.950 . S
H1557 C1569 0.950 . S
H1558 C1566 0.950 . S
H1559 C1568 0.950 . S
H1560 C1570 0.950 . S
H1561 C1572 0.950 . S
H1562 C1574 0.950 . S
H1563 C1575 0.950 . S
C1564 H1556 0.950 . S
C1564 C1565 1.386 . S
C1564 C1566 1.391 . S
C1565 C1564 1.386 . S
C1565 C1569 1.393 . S
C1566 H1558 0.950 . S
C1566 C1564 1.391 . S
C1566 C1567 1.400 . S
C1567 C1566 1.400 . S
C1567 C1568 1.398 . S
C1567 C1573 1.491 . S
C1568 H1559 0.950 . S
C1568 C1567 1.398 . S
C1568 C1569 1.391 . S
C1569 H1557 0.950 . S
C1569 C1565 1.393 . S
C1569 C1568 1.391 . S
C1570 H1560 0.950 . S
C1570 C1571 1.386 . S
C1570 C1572 1.391 . S
C1571 C1570 1.386 . S
C1571 C1575 1.393 . S
C1572 H1561 0.950 . S
C1572 C1570 1.391 . S
C1572 C1573 1.400 . S
C1573 C1567 1.491 . S
C1573 C1572 1.400 . S
C1573 C1574 1.398 . S
C1574 H1562 0.950 . S
C1574 C1573 1.398 . S
C1574 C1575 1.391 . S
C1575 H1563 0.950 . S
C1575 C1571 1.393 . S
C1575 C1574 1.391 . S
H1576 C1584 0.950 . S
H1577 C1589 0.950 . S
H1578 C1586 0.950 . S
H1579 C1588 0.950 . S
H1580 C1590 0.950 . S
H1581 C1592 0.950 . S
H1582 C1594 0.968 . S
H1583 C1595 0.950 . S
C1584 H1576 0.950 . S
C1584 C1585 1.386 . S
C1584 C1586 1.391 . S
C1585 C1584 1.386 . S
C1585 C1589 1.393 . S
C1586 H1578 0.950 . S
C1586 C1584 1.391 . S
C1586 C1587 1.400 . S
C1587 C1586 1.400 . S
C1587 C1588 1.398 . S
C1587 C1593 1.491 . S
C1588 H1579 0.950 . S
C1588 C1587 1.398 . S
C1588 C1589 1.391 . S
C1589 H1577 0.950 . S
C1589 C1585 1.393 . S
C1589 C1588 1.391 . S
C1590 H1580 0.950 . S
C1590 C1591 1.386 1_556 S
C1590 C1592 1.391 . S
C1591 C1590 1.386 1_554 S
C1591 C1595 1.393 . S
C1592 H1581 0.950 . S
C1592 C1590 1.391 . S
C1592 C1593 1.400 . S
C1593 C1587 1.491 . S
C1593 C1592 1.400 . S
C1593 C1594 1.398 . S
C1594 H1582 0.968 . S
C1594 C1593 1.398 . S
C1594 C1595 1.391 1_556 S
C1595 H1583 0.950 . S
C1595 C1591 1.393 . S
C1595 C1594 1.391 1_554 S
H1596 C1604 0.950 . S
H1597 C1609 0.950 . S
H1598 C1606 0.950 . S
H1599 C1608 0.950 . S
H1600 C1610 0.950 . S
H1601 C1612 0.950 . S
H1602 C1614 0.950 . S
H1603 C1615 0.950 . S
C1604 H1596 0.950 . S
C1604 C1605 1.386 . S
C1604 C1606 1.391 . S
C1605 C1604 1.386 . S
C1605 C1609 1.393 . S
C1606 H1598 0.950 . S
C1606 C1604 1.391 . S
C1606 C1607 1.400 . S
C1607 C1606 1.400 . S
C1607 C1608 1.398 . S
C1607 C1613 1.491 . S
C1608 H1599 0.950 . S
C1608 C1607 1.398 . S
C1608 C1609 1.391 . S
C1609 H1597 0.950 . S
C1609 C1605 1.393 . S
C1609 C1608 1.391 . S
C1610 H1600 0.950 . S
C1610 C1611 1.386 . S
C1610 C1612 1.391 . S
C1611 C1610 1.386 . S
C1611 C1615 1.393 . S
C1612 H1601 0.950 . S
C1612 C1610 1.391 . S
C1612 C1613 1.400 . S
C1613 C1607 1.491 . S
C1613 C1612 1.400 . S
C1613 C1614 1.398 . S
C1614 H1602 0.950 . S
C1614 C1613 1.398 . S
C1614 C1615 1.391 . S
C1615 H1603 0.950 . S
C1615 C1611 1.393 . S
C1615 C1614 1.391 . S
H1616 C1624 0.950 . S
H1617 C1629 0.950 . S
H1618 C1626 0.950 . S
H1619 C1628 0.950 . S
H1620 C1630 0.950 . S
H1621 C1632 0.950 . S
H1622 C1634 0.950 . S
H1623 C1635 0.950 . S
C1624 H1616 0.950 . S
C1624 C1625 1.386 . S
C1624 C1626 1.391 . S
C1625 C1624 1.386 . S
C1625 C1629 1.393 . S
C1626 H1618 0.950 . S
C1626 C1624 1.391 . S
C1626 C1627 1.400 . S
C1627 C1626 1.400 . S
C1627 C1628 1.398 . S
C1627 C1633 1.491 . S
C1628 H1619 0.950 . S
C1628 C1627 1.398 . S
C1628 C1629 1.391 . S
C1629 H1617 0.950 . S
C1629 C1625 1.393 . S
C1629 C1628 1.391 . S
C1630 H1620 0.950 . S
C1630 C1631 1.386 . S
C1630 C1632 1.391 . S
C1631 C1630 1.386 . S
C1631 C1635 1.393 . S
C1632 H1621 0.950 . S
C1632 C1630 1.391 . S
C1632 C1633 1.400 . S
C1633 C1627 1.491 . S
C1633 C1632 1.400 . S
C1633 C1634 1.398 . S
C1634 H1622 0.950 . S
C1634 C1633 1.398 . S
C1634 C1635 1.391 . S
C1635 H1623 0.950 . S
C1635 C1631 1.393 . S
C1635 C1634 1.391 . S
H1636 C1644 0.950 . S
H1637 C1649 0.950 . S
H1638 C1646 0.950 . S
H1639 C1648 0.950 . S
H1640 C1650 0.950 . S
H1641 C1652 0.950 . S
H1642 C1654 0.950 . S
H1643 C1655 0.950 . S
C1644 H1636 0.950 . S
C1644 C1645 1.386 . S
C1644 C1646 1.391 . S
C1645 C1644 1.386 . S
C1645 C1649 1.393 . S
C1646 H1638 0.950 . S
C1646 C1644 1.391 . S
C1646 C1647 1.400 . S
C1647 C1646 1.400 . S
C1647 C1648 1.398 . S
C1647 C1653 1.491 . S
C1648 H1639 0.950 . S
C1648 C1647 1.398 . S
C1648 C1649 1.391 . S
C1649 H1637 0.950 . S
C1649 C1645 1.393 . S
C1649 C1648 1.391 . S
C1650 H1640 0.950 . S
C1650 C1651 1.386 . S
C1650 C1652 1.391 . S
C1651 C1650 1.386 . S
C1651 C1655 1.393 . S
C1652 H1641 0.950 . S
C1652 C1650 1.391 . S
C1652 C1653 1.400 . S
C1653 C1647 1.491 . S
C1653 C1652 1.400 . S
C1653 C1654 1.398 . S
C1654 H1642 0.950 . S
C1654 C1653 1.398 . S
C1654 C1655 1.391 . S
C1655 H1643 0.950 . S
C1655 C1651 1.393 . S
C1655 C1654 1.391 . S
H1656 C1664 0.950 . S
H1657 C1669 0.950 . S
H1658 C1666 0.950 . S
H1659 C1668 0.950 1_565 S
H1660 C1670 0.950 . S
H1661 C1672 0.950 . S
H1662 C1674 0.950 . S
H1663 C1675 0.950 . S
C1664 H1656 0.950 . S
C1664 C1665 1.386 . S
C1664 C1666 1.391 . S
C1665 C1664 1.386 . S
C1665 C1669 1.393 1_545 S
C1666 H1658 0.950 . S
C1666 C1664 1.391 . S
C1666 C1667 1.400 . S
C1667 C1666 1.400 . S
C1667 C1668 1.398 . S
C1667 C1673 1.491 . S
C1668 H1659 0.950 1_545 S
C1668 C1667 1.398 . S
C1668 C1669 1.391 1_545 S
C1669 H1657 0.950 . S
C1669 C1665 1.393 1_565 S
C1669 C1668 1.391 1_565 S
C1670 H1660 0.950 . S
C1670 C1671 1.386 . S
C1670 C1672 1.391 . S
C1671 C1670 1.386 . S
C1671 C1675 1.393 . S
C1672 H1661 0.950 . S
C1672 C1670 1.391 . S
C1672 C1673 1.400 . S
C1673 C1667 1.491 . S
C1673 C1672 1.400 . S
C1673 C1674 1.398 . S
C1674 H1662 0.950 . S
C1674 C1673 1.398 . S
C1674 C1675 1.391 . S
C1675 H1663 0.950 . S
C1675 C1671 1.393 . S
C1675 C1674 1.391 . S
H1676 C1684 0.950 . S
H1677 C1689 0.950 . S
H1678 C1686 0.950 . S
H1679 C1688 0.950 . S
H1680 C1690 0.950 . S
H1681 C1692 0.950 . S
H1682 C1694 0.950 . S
H1683 C1695 0.950 . S
C1684 H1676 0.950 . S
C1684 C1685 1.386 . S
C1684 C1686 1.391 . S
C1685 C1684 1.386 . S
C1685 C1689 1.393 . S
C1686 H1678 0.950 . S
C1686 C1684 1.391 . S
C1686 C1687 1.400 . S
C1687 C1686 1.400 . S
C1687 C1688 1.398 . S
C1687 C1693 1.491 . S
C1688 H1679 0.950 . S
C1688 C1687 1.398 . S
C1688 C1689 1.391 . S
C1689 H1677 0.950 . S
C1689 C1685 1.393 . S
C1689 C1688 1.391 . S
C1690 H1680 0.950 . S
C1690 C1691 1.386 . S
C1690 C1692 1.391 . S
C1691 C1690 1.386 . S
C1691 C1695 1.393 . S
C1692 H1681 0.950 . S
C1692 C1690 1.391 . S
C1692 C1693 1.400 . S
C1693 C1687 1.491 . S
C1693 C1692 1.400 . S
C1693 C1694 1.398 . S
C1694 H1682 0.950 . S
C1694 C1693 1.398 . S
C1694 C1695 1.391 . S
C1695 H1683 0.950 . S
C1695 C1691 1.393 . S
C1695 C1694 1.391 . S
H1696 C1704 0.950 . S
H1697 C1709 0.950 . S
H1698 C1706 0.950 . S
H1699 C1708 0.950 . S
H1700 C1710 0.950 . S
H1701 C1712 0.950 . S
H1702 C1714 0.950 . S
H1703 C1715 0.950 . S
C1704 H1696 0.950 . S
C1704 C1705 1.386 . S
C1704 C1706 1.391 . S
C1705 C1704 1.386 . S
C1705 C1709 1.393 . S
C1706 H1698 0.950 . S
C1706 C1704 1.391 . S
C1706 C1707 1.400 . S
C1707 C1706 1.400 . S
C1707 C1708 1.398 . S
C1707 C1713 1.491 . S
C1708 H1699 0.950 . S
C1708 C1707 1.398 . S
C1708 C1709 1.391 . S
C1709 H1697 0.950 . S
C1709 C1705 1.393 . S
C1709 C1708 1.391 . S
C1710 H1700 0.950 . S
C1710 C1711 1.386 . S
C1710 C1712 1.391 . S
C1711 C1710 1.386 . S
C1711 C1715 1.393 . S
C1712 H1701 0.950 . S
C1712 C1710 1.391 . S
C1712 C1713 1.400 . S
C1713 C1707 1.491 . S
C1713 C1712 1.400 . S
C1713 C1714 1.398 . S
C1714 H1702 0.950 . S
C1714 C1713 1.398 . S
C1714 C1715 1.391 . S
C1715 H1703 0.950 . S
C1715 C1711 1.393 . S
C1715 C1714 1.391 . S
H1716 C1724 0.950 . S
H1717 C1729 0.950 . S
H1718 C1726 0.950 . S
H1719 C1728 0.950 . S
H1720 C1730 0.950 . S
H1721 C1732 0.950 . S
H1722 C1734 0.950 . S
H1723 C1735 0.950 . S
C1724 H1716 0.950 . S
C1724 C1725 1.386 . S
C1724 C1726 1.391 . S
C1725 C1724 1.386 . S
C1725 C1729 1.393 . S
C1726 H1718 0.950 . S
C1726 C1724 1.391 . S
C1726 C1727 1.400 . S
C1727 C1726 1.400 . S
C1727 C1728 1.398 . S
C1727 C1733 1.491 . S
C1728 H1719 0.950 . S
C1728 C1727 1.398 . S
C1728 C1729 1.391 . S
C1729 H1717 0.950 . S
C1729 C1725 1.393 . S
C1729 C1728 1.391 . S
C1730 H1720 0.950 . S
C1730 C1731 1.386 . S
C1730 C1732 1.391 . S
C1731 C1730 1.386 . S
C1731 C1735 1.393 . S
C1732 H1721 0.950 . S
C1732 C1730 1.391 . S
C1732 C1733 1.400 . S
C1733 C1727 1.491 . S
C1733 C1732 1.400 . S
C1733 C1734 1.398 . S
C1734 H1722 0.950 . S
C1734 C1733 1.398 . S
C1734 C1735 1.391 . S
C1735 H1723 0.950 . S
C1735 C1731 1.393 . S
C1735 C1734 1.391 . S
H1736 C1744 0.950 . S
H1737 C1749 0.950 . S
H1738 C1746 0.950 . S
H1739 C1748 0.950 . S
H1740 C1750 0.985 . S
H1741 C1752 0.950 . S
H1742 C1754 0.950 . S
H1743 C1755 0.950 . S
C1744 H1736 0.950 . S
C1744 C1745 1.416 . S
C1744 C1746 1.391 . S
C1745 C1744 1.416 . S
C1745 C1749 1.369 1_565 S
C1746 H1738 0.950 . S
C1746 C1744 1.391 . S
C1746 C1747 1.400 . S
C1747 C1746 1.400 . S
C1747 C1748 1.398 1_565 S
C1747 C1753 1.491 . S
C1748 H1739 0.950 . S
C1748 C1747 1.398 1_545 S
C1748 C1749 1.391 . S
C1749 H1737 0.950 . S
C1749 C1745 1.369 1_545 S
C1749 C1748 1.391 . S
C1750 H1740 0.985 . S
C1750 C1751 1.344 1_545 S
C1750 C1752 1.400 . S
C1751 C1750 1.344 1_565 S
C1751 C1755 1.393 . S
C1752 H1741 0.950 . S
C1752 C1750 1.400 . S
C1752 C1753 1.400 1_545 S
C1753 C1747 1.491 . S
C1753 C1752 1.400 1_565 S
C1753 C1754 1.398 . S
C1754 H1742 0.950 . S
C1754 C1753 1.398 . S
C1754 C1755 1.391 . S
C1755 H1743 0.950 . S
C1755 C1751 1.393 . S
C1755 C1754 1.391 . S
H1756 C1764 0.950 . S
H1757 C1769 0.950 . S
H1758 C1766 0.950 . S
H1759 C1768 0.950 . S
H1760 C1770 0.950 . S
H1761 C1772 0.950 . S
H1762 C1774 0.950 . S
H1763 C1775 0.950 . S
C1764 H1756 0.950 . S
C1764 C1765 1.386 . S
C1764 C1766 1.391 . S
C1765 C1764 1.386 . S
C1765 C1769 1.393 . S
C1766 H1758 0.950 . S
C1766 C1764 1.391 . S
C1766 C1767 1.400 . S
C1767 C1766 1.400 . S
C1767 C1768 1.398 . S
C1767 C1773 1.491 . S
C1768 H1759 0.950 . S
C1768 C1767 1.398 . S
C1768 C1769 1.391 . S
C1769 H1757 0.950 . S
C1769 C1765 1.393 . S
C1769 C1768 1.391 . S
C1770 H1760 0.950 . S
C1770 C1771 1.386 . S
C1770 C1772 1.391 . S
C1771 C1770 1.386 . S
C1771 C1775 1.393 . S
C1772 H1761 0.950 . S
C1772 C1770 1.391 . S
C1772 C1773 1.400 . S
C1773 C1767 1.491 . S
C1773 C1772 1.400 . S
C1773 C1774 1.398 . S
C1774 H1762 0.950 . S
C1774 C1773 1.398 . S
C1774 C1775 1.391 . S
C1775 H1763 0.950 . S
C1775 C1771 1.393 . S
C1775 C1774 1.391 . S
H1776 C1784 0.950 . S
H1777 C1789 0.950 . S
H1778 C1786 0.950 . S
H1779 C1788 0.950 . S
H1780 C1790 0.950 . S
H1781 C1792 0.950 . S
H1782 C1794 0.950 . S
H1783 C1795 0.950 . S
C1784 H1776 0.950 . S
C1784 C1785 1.386 . S
C1784 C1786 1.391 . S
C1785 C1784 1.386 . S
C1785 C1789 1.393 . S
C1786 H1778 0.950 . S
C1786 C1784 1.391 . S
C1786 C1787 1.400 . S
C1787 C1786 1.400 . S
C1787 C1788 1.398 . S
C1787 C1793 1.491 . S
C1788 H1779 0.950 . S
C1788 C1787 1.398 . S
C1788 C1789 1.391 . S
C1789 H1777 0.950 . S
C1789 C1785 1.393 . S
C1789 C1788 1.391 . S
C1790 H1780 0.950 . S
C1790 C1791 1.386 . S
C1790 C1792 1.391 . S
C1791 C1790 1.386 . S
C1791 C1795 1.393 . S
C1792 H1781 0.950 . S
C1792 C1790 1.391 . S
C1792 C1793 1.400 . S
C1793 C1787 1.491 . S
C1793 C1792 1.400 . S
C1793 C1794 1.398 . S
C1794 H1782 0.950 . S
C1794 C1793 1.398 . S
C1794 C1795 1.391 . S
C1795 H1783 0.950 . S
C1795 C1791 1.393 . S
C1795 C1794 1.391 . S
H1796 C1804 0.950 . S
H1797 C1809 0.950 . S
H1798 C1806 0.950 . S
H1799 C1808 0.950 . S
H1800 C1810 0.950 . S
H1801 C1812 0.950 . S
H1802 C1814 0.950 . S
H1803 C1815 0.950 . S
C1804 H1796 0.950 . S
C1804 C1805 1.386 . S
C1804 C1806 1.391 . S
C1805 C1804 1.386 . S
C1805 C1809 1.393 . S
C1806 H1798 0.950 . S
C1806 C1804 1.391 . S
C1806 C1807 1.400 . S
C1807 C1806 1.400 . S
C1807 C1808 1.398 . S
C1807 C1813 1.491 . S
C1808 H1799 0.950 . S
C1808 C1807 1.398 . S
C1808 C1809 1.391 . S
C1809 H1797 0.950 . S
C1809 C1805 1.393 . S
C1809 C1808 1.391 . S
C1810 H1800 0.950 . S
C1810 C1811 1.386 . S
C1810 C1812 1.391 . S
C1811 C1810 1.386 . S
C1811 C1815 1.393 . S
C1812 H1801 0.950 . S
C1812 C1810 1.391 . S
C1812 C1813 1.400 . S
C1813 C1807 1.491 . S
C1813 C1812 1.400 . S
C1813 C1814 1.398 . S
C1814 H1802 0.950 . S
C1814 C1813 1.398 . S
C1814 C1815 1.391 . S
C1815 H1803 0.950 . S
C1815 C1811 1.393 . S
C1815 C1814 1.391 . S
H1816 C1824 0.950 . S
H1817 C1829 0.950 . S
H1818 C1826 0.950 . S
H1819 C1828 0.950 . S
H1820 C1830 0.950 . S
H1821 C1832 0.950 . S
H1822 C1834 0.950 . S
H1823 C1835 0.950 . S
C1824 H1816 0.950 . S
C1824 C1825 1.386 . S
C1824 C1826 1.391 . S
C1825 C1824 1.386 . S
C1825 C1829 1.393 . S
C1826 H1818 0.950 . S
C1826 C1824 1.391 . S
C1826 C1827 1.400 . S
C1827 C1826 1.400 . S
C1827 C1828 1.398 . S
C1827 C1833 1.491 . S
C1828 H1819 0.950 . S
C1828 C1827 1.398 . S
C1828 C1829 1.391 . S
C1829 H1817 0.950 . S
C1829 C1825 1.393 . S
C1829 C1828 1.391 . S
C1830 H1820 0.950 . S
C1830 C1831 1.386 . S
C1830 C1832 1.391 . S
C1831 C1830 1.386 . S
C1831 C1835 1.393 . S
C1832 H1821 0.950 . S
C1832 C1830 1.391 . S
C1832 C1833 1.400 . S
C1833 C1827 1.491 . S
C1833 C1832 1.400 . S
C1833 C1834 1.398 . S
C1834 H1822 0.950 . S
C1834 C1833 1.398 . S
C1834 C1835 1.391 . S
C1835 H1823 0.950 . S
C1835 C1831 1.393 . S
C1835 C1834 1.391 . S
H1836 C1844 0.950 . S
H1837 C1849 0.950 . S
H1838 C1846 0.950 . S
H1839 C1848 0.950 . S
H1840 C1850 0.950 . S
H1841 C1852 0.950 . S
H1842 C1854 0.950 . S
H1843 C1855 0.950 . S
C1844 H1836 0.950 . S
C1844 C1845 1.386 . S
C1844 C1846 1.391 . S
C1845 C1844 1.386 . S
C1845 C1849 1.393 . S
C1846 H1838 0.950 . S
C1846 C1844 1.391 . S
C1846 C1847 1.400 . S
C1847 C1846 1.400 . S
C1847 C1848 1.398 . S
C1847 C1853 1.491 . S
C1848 H1839 0.950 . S
C1848 C1847 1.398 . S
C1848 C1849 1.391 . S
C1849 H1837 0.950 . S
C1849 C1845 1.393 . S
C1849 C1848 1.391 . S
C1850 H1840 0.950 . S
C1850 C1851 1.386 . S
C1850 C1852 1.391 . S
C1851 C1850 1.386 . S
C1851 C1855 1.393 . S
C1852 H1841 0.950 . S
C1852 C1850 1.391 . S
C1852 C1853 1.400 . S
C1853 C1847 1.491 . S
C1853 C1852 1.400 . S
C1853 C1854 1.398 . S
C1854 H1842 0.950 . S
C1854 C1853 1.398 . S
C1854 C1855 1.391 . S
C1855 H1843 0.950 . S
C1855 C1851 1.393 . S
C1855 C1854 1.391 . S
H1856 C1864 0.950 . S
H1857 C1869 0.950 . S
H1858 C1866 0.950 . S
H1859 C1868 0.950 . S
H1860 C1870 0.950 . S
H1861 C1872 0.950 . S
H1862 C1874 0.950 . S
H1863 C1875 0.950 . S
C1864 H1856 0.950 . S
C1864 C1865 1.386 . S
C1864 C1866 1.391 . S
C1865 C1864 1.386 . S
C1865 C1869 1.393 1_545 S
C1866 H1858 0.950 . S
C1866 C1864 1.391 . S
C1866 C1867 1.400 1_545 S
C1867 C1866 1.400 1_565 S
C1867 C1868 1.398 . S
C1867 C1873 1.491 . S
C1868 H1859 0.950 . S
C1868 C1867 1.398 . S
C1868 C1869 1.391 . S
C1869 H1857 0.950 . S
C1869 C1865 1.393 1_565 S
C1869 C1868 1.391 . S
C1870 H1860 0.950 . S
C1870 C1871 1.386 . S
C1870 C1872 1.391 . S
C1871 C1870 1.386 . S
C1871 C1875 1.393 . S
C1872 H1861 0.950 . S
C1872 C1870 1.391 . S
C1872 C1873 1.400 . S
C1873 C1867 1.491 . S
C1873 C1872 1.400 . S
C1873 C1874 1.398 . S
C1874 H1862 0.950 . S
C1874 C1873 1.398 . S
C1874 C1875 1.391 . S
C1875 H1863 0.950 . S
C1875 C1871 1.393 . S
C1875 C1874 1.391 . S
H1876 C1884 0.950 . S
H1877 C1889 0.950 . S
H1878 C1886 0.950 . S
H1879 C1888 0.950 . S
H1880 C1890 0.976 . S
H1881 C1892 0.950 . S
H1882 C1894 0.950 . S
H1883 C1895 0.950 . S
C1884 H1876 0.950 . S
C1884 C1885 1.386 . S
C1884 C1886 1.391 . S
C1885 C1884 1.386 . S
C1885 C1889 1.393 . S
C1886 H1878 0.950 . S
C1886 C1884 1.391 . S
C1886 C1887 1.400 . S
C1887 C1886 1.400 . S
C1887 C1888 1.398 . S
C1887 C1893 1.491 . S
C1888 H1879 0.950 . S
C1888 C1887 1.398 . S
C1888 C1889 1.391 . S
C1889 H1877 0.950 . S
C1889 C1885 1.393 . S
C1889 C1888 1.391 . S
C1890 H1880 0.976 . S
C1890 C1891 1.386 . S
C1890 C1892 1.391 . S
C1891 C1890 1.386 . S
C1891 C1895 1.393 . S
C1892 H1881 0.950 . S
C1892 C1890 1.391 . S
C1892 C1893 1.400 . S
C1893 C1887 1.491 . S
C1893 C1892 1.400 . S
C1893 C1894 1.398 . S
C1894 H1882 0.950 . S
C1894 C1893 1.398 . S
C1894 C1895 1.391 . S
C1895 H1883 0.950 . S
C1895 C1891 1.393 . S
C1895 C1894 1.391 . S
H1896 C1904 0.950 . S
H1897 C1909 0.950 . S
H1898 C1906 0.950 . S
H1899 C1908 0.950 . S
H1900 C1910 0.950 . S
H1901 C1912 0.950 . S
H1902 C1914 0.950 . S
H1903 C1915 0.950 . S
C1904 H1896 0.950 . S
C1904 C1905 1.386 . S
C1904 C1906 1.391 . S
C1905 C1904 1.386 . S
C1905 C1909 1.393 . S
C1906 H1898 0.950 . S
C1906 C1904 1.391 . S
C1906 C1907 1.400 . S
C1907 C1906 1.400 . S
C1907 C1908 1.398 . S
C1907 C1913 1.491 . S
C1908 H1899 0.950 . S
C1908 C1907 1.398 . S
C1908 C1909 1.391 . S
C1909 H1897 0.950 . S
C1909 C1905 1.393 . S
C1909 C1908 1.391 . S
C1910 H1900 0.950 . S
C1910 C1911 1.386 . S
C1910 C1912 1.391 . S
C1911 C1910 1.386 . S
C1911 C1915 1.393 . S
C1912 H1901 0.950 . S
C1912 C1910 1.391 . S
C1912 C1913 1.400 . S
C1913 C1907 1.491 . S
C1913 C1912 1.400 . S
C1913 C1914 1.398 . S
C1914 H1902 0.950 . S
C1914 C1913 1.398 . S
C1914 C1915 1.391 . S
C1915 H1903 0.950 . S
C1915 C1911 1.393 . S
C1915 C1914 1.391 . S
H1916 C1924 0.950 . S
H1917 C1929 0.950 . S
H1918 C1926 0.950 . S
H1919 C1928 0.950 . S
H1920 C1930 0.950 . S
H1921 C1932 0.950 . S
H1922 C1934 0.950 . S
H1923 C1935 0.950 . S
C1924 H1916 0.950 . S
C1924 C1925 1.386 . S
C1924 C1926 1.391 . S
C1925 C1924 1.386 . S
C1925 C1929 1.393 . S
C1926 H1918 0.950 . S
C1926 C1924 1.391 . S
C1926 C1927 1.400 . S
C1927 C1926 1.400 . S
C1927 C1928 1.398 . S
C1927 C1933 1.491 . S
C1928 H1919 0.950 . S
C1928 C1927 1.398 . S
C1928 C1929 1.391 . S
C1929 H1917 0.950 . S
C1929 C1925 1.393 . S
C1929 C1928 1.391 . S
C1930 H1920 0.950 . S
C1930 C1931 1.386 . S
C1930 C1932 1.391 . S
C1931 C1930 1.386 . S
C1931 C1935 1.393 . S
C1932 H1921 0.950 . S
C1932 C1930 1.391 . S
C1932 C1933 1.400 . S
C1933 C1927 1.491 . S
C1933 C1932 1.400 . S
C1933 C1934 1.398 . S
C1934 H1922 0.950 . S
C1934 C1933 1.398 . S
C1934 C1935 1.391 . S
C1935 H1923 0.950 . S
C1935 C1931 1.393 . S
C1935 C1934 1.391 . S
H1936 C1944 0.950 . S
H1937 C1949 0.950 . S
H1938 C1946 0.950 . S
H1939 C1948 0.950 . S
H1940 C1950 0.950 . S
H1941 C1952 0.950 . S
H1942 C1954 0.950 . S
H1943 C1955 0.950 . S
C1944 H1936 0.950 . S
C1944 C1945 1.386 . S
C1944 C1946 1.391 . S
C1945 C1944 1.386 . S
C1945 C1949 1.393 . S
C1946 H1938 0.950 . S
C1946 C1944 1.391 . S
C1946 C1947 1.400 . S
C1947 C1946 1.400 . S
C1947 C1948 1.398 . S
C1947 C1953 1.491 . S
C1948 H1939 0.950 . S
C1948 C1947 1.398 . S
C1948 C1949 1.391 . S
C1949 H1937 0.950 . S
C1949 C1945 1.393 . S
C1949 C1948 1.391 . S
C1950 H1940 0.950 . S
C1950 C1951 1.386 . S
C1950 C1952 1.391 . S
C1951 C1950 1.386 . S
C1951 C1955 1.393 . S
C1952 H1941 0.950 . S
C1952 C1950 1.391 . S
C1952 C1953 1.400 . S
C1953 C1947 1.491 . S
C1953 C1952 1.400 . S
C1953 C1954 1.398 . S
C1954 H1942 0.950 . S
C1954 C1953 1.398 . S
C1954 C1955 1.391 . S
C1955 H1943 0.950 . S
C1955 C1951 1.393 . S
C1955 C1954 1.391 . S
H1956 C1964 0.950 . S
H1957 C1969 0.950 . S
H1958 C1966 0.950 . S
H1959 C1968 0.950 . S
H1960 C1970 0.950 . S
H1961 C1972 0.950 . S
H1962 C1974 0.950 . S
H1963 C1975 0.950 . S
C1964 H1956 0.950 . S
C1964 C1965 1.386 . S
C1964 C1966 1.391 . S
C1965 C1964 1.386 . S
C1965 C1969 1.393 . S
C1966 H1958 0.950 . S
C1966 C1964 1.391 . S
C1966 C1967 1.400 . S
C1967 C1966 1.400 . S
C1967 C1968 1.398 . S
C1967 C1973 1.491 . S
C1968 H1959 0.950 . S
C1968 C1967 1.398 . S
C1968 C1969 1.391 . S
C1969 H1957 0.950 . S
C1969 C1965 1.393 . S
C1969 C1968 1.391 . S
C1970 H1960 0.950 . S
C1970 C1971 1.386 . S
C1970 C1972 1.391 . S
C1971 C1970 1.386 . S
C1971 C1975 1.393 . S
C1972 H1961 0.950 . S
C1972 C1970 1.391 . S
C1972 C1973 1.400 . S
C1973 C1967 1.491 . S
C1973 C1972 1.400 . S
C1973 C1974 1.398 . S
C1974 H1962 0.950 . S
C1974 C1973 1.398 . S
C1974 C1975 1.391 . S
C1975 H1963 0.950 . S
C1975 C1971 1.393 . S
C1975 C1974 1.391 . S
H1976 C1984 0.950 . S
H1977 C1989 0.950 . S
H1978 C1986 0.950 . S
H1979 C1988 0.977 . S
H1980 C1990 0.950 . S
H1981 C1992 0.950 . S
H1982 C1994 0.950 . S
H1983 C1995 0.950 . S
C1984 H1976 0.950 . S
C1984 C1985 1.386 . S
C1984 C1986 1.391 . S
C1985 C1984 1.386 . S
C1985 C1989 1.393 1_554 S
C1986 H1978 0.950 . S
C1986 C1984 1.391 . S
C1986 C1987 1.400 . S
C1987 C1986 1.400 . S
C1987 C1988 1.360 1_554 S
C1987 C1993 1.491 . S
C1988 H1979 0.977 . S
C1988 C1987 1.360 1_556 S
C1988 C1989 1.404 . S
C1989 H1977 0.950 . S
C1989 C1985 1.393 1_556 S
C1989 C1988 1.404 . S
C1990 H1980 0.950 . S
C1990 C1991 1.386 . S
C1990 C1992 1.391 . S
C1991 C1990 1.386 . S
C1991 C1995 1.393 . S
C1992 H1981 0.950 . S
C1992 C1990 1.391 . S
C1992 C1993 1.400 . S
C1993 C1987 1.491 . S
C1993 C1992 1.400 . S
C1993 C1994 1.398 . S
C1994 H1982 0.950 . S
C1994 C1993 1.398 . S
C1994 C1995 1.391 . S
C1995 H1983 0.950 . S
C1995 C1991 1.393 . S
C1995 C1994 1.391 . S
H1996 C2004 0.950 . S
H1997 C2009 0.950 . S
H1998 C2006 0.950 . S
H1999 C2008 0.950 . S
H2000 C2010 0.950 . S
H2001 C2012 0.950 . S
H2002 C2014 0.950 . S
H2003 C2015 0.950 . S
C2004 H1996 0.950 . S
C2004 C2005 1.386 . S
C2004 C2006 1.391 . S
C2005 C2004 1.386 . S
C2005 C2009 1.393 . S
C2006 H1998 0.950 . S
C2006 C2004 1.391 . S
C2006 C2007 1.400 . S
C2007 C2006 1.400 . S
C2007 C2008 1.398 . S
C2007 C2013 1.491 . S
C2008 H1999 0.950 . S
C2008 C2007 1.398 . S
C2008 C2009 1.391 . S
C2009 H1997 0.950 . S
C2009 C2005 1.393 . S
C2009 C2008 1.391 . S
C2010 H2000 0.950 . S
C2010 C2011 1.386 . S
C2010 C2012 1.391 . S
C2011 C2010 1.386 . S
C2011 C2015 1.393 . S
C2012 H2001 0.950 . S
C2012 C2010 1.391 . S
C2012 C2013 1.400 . S
C2013 C2007 1.491 . S
C2013 C2012 1.400 . S
C2013 C2014 1.398 . S
C2014 H2002 0.950 . S
C2014 C2013 1.398 . S
C2014 C2015 1.391 . S
C2015 H2003 0.950 . S
C2015 C2011 1.393 . S
C2015 C2014 1.391 . S
H2016 C2024 0.950 . S
H2017 C2029 0.950 . S
H2018 C2026 0.950 . S
H2019 C2028 0.950 . S
H2020 C2030 0.950 . S
H2021 C2032 0.950 . S
H2022 C2034 0.950 . S
H2023 C2035 0.950 . S
C2024 H2016 0.950 . S
C2024 C2025 1.386 . S
C2024 C2026 1.391 . S
C2025 C2024 1.386 . S
C2025 C2029 1.393 . S
C2026 H2018 0.950 . S
C2026 C2024 1.391 . S
C2026 C2027 1.400 . S
C2027 C2026 1.400 . S
C2027 C2028 1.398 . S
C2027 C2033 1.491 . S
C2028 H2019 0.950 . S
C2028 C2027 1.398 . S
C2028 C2029 1.391 . S
C2029 H2017 0.950 . S
C2029 C2025 1.393 . S
C2029 C2028 1.391 . S
C2030 H2020 0.950 . S
C2030 C2031 1.386 . S
C2030 C2032 1.391 . S
C2031 C2030 1.386 . S
C2031 C2035 1.393 . S
C2032 H2021 0.950 . S
C2032 C2030 1.391 . S
C2032 C2033 1.400 . S
C2033 C2027 1.491 . S
C2033 C2032 1.400 . S
C2033 C2034 1.398 . S
C2034 H2022 0.950 . S
C2034 C2033 1.398 . S
C2034 C2035 1.391 . S
C2035 H2023 0.950 . S
C2035 C2031 1.393 . S
C2035 C2034 1.391 . S
H2036 C2044 0.950 . S
H2037 C2049 0.950 . S
H2038 C2046 0.950 . S
H2039 C2048 0.950 . S
H2040 C2050 0.950 . S
H2041 C2052 0.950 . S
H2042 C2054 0.950 . S
H2043 C2055 0.950 . S
C2044 H2036 0.950 . S
C2044 C2045 1.386 . S
C2044 C2046 1.391 . S
C2045 C2044 1.386 . S
C2045 C2049 1.393 . S
C2046 H2038 0.950 . S
C2046 C2044 1.391 . S
C2046 C2047 1.400 . S
C2047 C2046 1.400 . S
C2047 C2048 1.398 . S
C2047 C2053 1.491 . S
C2048 H2039 0.950 . S
C2048 C2047 1.398 . S
C2048 C2049 1.391 . S
C2049 H2037 0.950 . S
C2049 C2045 1.393 . S
C2049 C2048 1.391 . S
C2050 H2040 0.950 . S
C2050 C2051 1.386 . S
C2050 C2052 1.391 . S
C2051 C2050 1.386 . S
C2051 C2055 1.393 . S
C2052 H2041 0.950 . S
C2052 C2050 1.391 . S
C2052 C2053 1.400 . S
C2053 C2047 1.491 . S
C2053 C2052 1.400 . S
C2053 C2054 1.398 . S
C2054 H2042 0.950 . S
C2054 C2053 1.398 . S
C2054 C2055 1.391 . S
C2055 H2043 0.950 . S
C2055 C2051 1.393 . S
C2055 C2054 1.391 . S
H2056 C2064 0.950 . S
H2057 C2069 0.950 . S
H2058 C2066 0.950 . S
H2059 C2068 0.950 . S
H2060 C2070 0.950 . S
H2061 C2072 0.950 . S
H2062 C2074 0.950 . S
H2063 C2075 0.950 . S
C2064 H2056 0.950 . S
C2064 C2065 1.386 1_655 S
C2064 C2066 1.391 . S
C2065 C2064 1.386 1_455 S
C2065 C2069 1.393 . S
C2066 H2058 0.950 . S
C2066 C2064 1.391 . S
C2066 C2067 1.400 1_655 S
C2067 C2066 1.400 1_455 S
C2067 C2068 1.398 . S
C2067 C2073 1.491 . S
C2068 H2059 0.950 . S
C2068 C2067 1.398 . S
C2068 C2069 1.391 . S
C2069 H2057 0.950 . S
C2069 C2065 1.393 . S
C2069 C2068 1.391 . S
C2070 H2060 0.950 . S
C2070 C2071 1.386 . S
C2070 C2072 1.391 . S
C2071 C2070 1.386 . S
C2071 C2075 1.393 1_455 S
C2072 H2061 0.950 . S
C2072 C2070 1.391 . S
C2072 C2073 1.400 . S
C2073 C2067 1.491 . S
C2073 C2072 1.400 . S
C2073 C2074 1.398 1_455 S
C2074 H2062 0.950 . S
C2074 C2073 1.398 1_655 S
C2074 C2075 1.391 . S
C2075 H2063 0.950 . S
C2075 C2071 1.393 1_655 S
C2075 C2074 1.391 . S
H2076 C2084 0.950 . S
H2077 C2089 0.950 . S
H2078 C2086 0.950 . S
H2079 C2088 0.950 . S
H2080 C2090 0.950 . S
H2081 C2092 0.950 . S
H2082 C2094 0.950 . S
H2083 C2095 0.950 . S
C2084 H2076 0.950 . S
C2084 C2085 1.386 . S
C2084 C2086 1.391 . S
C2085 C2084 1.386 . S
C2085 C2089 1.393 . S
C2086 H2078 0.950 . S
C2086 C2084 1.391 . S
C2086 C2087 1.400 . S
C2087 C2086 1.400 . S
C2087 C2088 1.398 . S
C2087 C2093 1.491 . S
C2088 H2079 0.950 . S
C2088 C2087 1.398 . S
C2088 C2089 1.391 . S
C2089 H2077 0.950 . S
C2089 C2085 1.393 . S
C2089 C2088 1.391 . S
C2090 H2080 0.950 . S
C2090 C2091 1.386 . S
C2090 C2092 1.391 . S
C2091 C2090 1.386 . S
C2091 C2095 1.393 . S
C2092 H2081 0.950 . S
C2092 C2090 1.391 . S
C2092 C2093 1.400 . S
C2093 C2087 1.491 . S
C2093 C2092 1.400 . S
C2093 C2094 1.398 . S
C2094 H2082 0.950 . S
C2094 C2093 1.398 . S
C2094 C2095 1.391 . S
C2095 H2083 0.950 . S
C2095 C2091 1.393 . S
C2095 C2094 1.391 . S
H2096 C2104 0.950 . S
H2097 C2109 0.950 . S
H2098 C2106 0.950 . S
H2099 C2108 0.950 . S
H2100 C2110 0.950 . S
H2101 C2112 0.950 . S
H2102 C2114 0.950 . S
H2103 C2115 0.950 . S
C2104 H2096 0.950 . S
C2104 C2105 1.386 . S
C2104 C2106 1.391 . S
C2105 C2104 1.386 . S
C2105 C2109 1.393 . S
C2106 H2098 0.950 . S
C2106 C2104 1.391 . S
C2106 C2107 1.400 . S
C2107 C2106 1.400 . S
C2107 C2108 1.398 . S
C2107 C2113 1.491 . S
C2108 H2099 0.950 . S
C2108 C2107 1.398 . S
C2108 C2109 1.391 . S
C2109 H2097 0.950 . S
C2109 C2105 1.393 . S
C2109 C2108 1.391 . S
C2110 H2100 0.950 . S
C2110 C2111 1.386 . S
C2110 C2112 1.391 . S
C2111 C2110 1.386 . S
C2111 C2115 1.393 . S
C2112 H2101 0.950 . S
C2112 C2110 1.391 . S
C2112 C2113 1.400 . S
C2113 C2107 1.491 . S
C2113 C2112 1.400 . S
C2113 C2114 1.398 . S
C2114 H2102 0.950 . S
C2114 C2113 1.398 . S
C2114 C2115 1.391 . S
C2115 H2103 0.950 . S
C2115 C2111 1.393 . S
C2115 C2114 1.391 . S
H2116 C2124 0.950 . S
H2117 C2129 0.950 . S
H2118 C2126 0.950 . S
H2119 C2128 0.950 1_554 S
H2120 C2130 0.950 . S
H2121 C2132 0.950 . S
H2122 C2134 0.950 . S
H2123 C2135 0.950 . S
C2124 H2116 0.950 . S
C2124 C2125 1.386 1_556 S
C2124 C2126 1.391 . S
C2125 C2124 1.386 1_554 S
C2125 C2129 1.393 . S
C2126 H2118 0.950 . S
C2126 C2124 1.391 . S
C2126 C2127 1.400 . S
C2127 C2126 1.400 . S
C2127 C2128 1.398 . S
C2127 C2133 1.491 . S
C2128 H2119 0.950 1_556 S
C2128 C2127 1.398 . S
C2128 C2129 1.391 1_556 S
C2129 H2117 0.950 . S
C2129 C2125 1.393 . S
C2129 C2128 1.391 1_554 S
C2130 H2120 0.950 . S
C2130 C2131 1.386 . S
C2130 C2132 1.391 . S
C2131 C2130 1.386 . S
C2131 C2135 1.393 . S
C2132 H2121 0.950 . S
C2132 C2130 1.391 . S
C2132 C2133 1.400 . S
C2133 C2127 1.491 . S
C2133 C2132 1.400 . S
C2133 C2134 1.398 . S
C2134 H2122 0.950 . S
C2134 C2133 1.398 . S
C2134 C2135 1.391 . S
C2135 H2123 0.950 . S
C2135 C2131 1.393 . S
C2135 C2134 1.391 . S
H2136 C2144 0.950 . S
H2137 C2149 0.950 . S
H2138 C2146 0.950 . S
H2139 C2148 0.950 . S
H2140 C2150 0.950 . S
H2141 C2152 0.950 . S
H2142 C2154 0.950 . S
H2143 C2155 0.950 . S
C2144 H2136 0.950 . S
C2144 C2145 1.386 . S
C2144 C2146 1.391 . S
C2145 C2144 1.386 . S
C2145 C2149 1.393 . S
C2146 H2138 0.950 . S
C2146 C2144 1.391 . S
C2146 C2147 1.400 . S
C2147 C2146 1.400 . S
C2147 C2148 1.398 . S
C2147 C2153 1.491 . S
C2148 H2139 0.950 . S
C2148 C2147 1.398 . S
C2148 C2149 1.391 . S
C2149 H2137 0.950 . S
C2149 C2145 1.393 . S
C2149 C2148 1.391 . S
C2150 H2140 0.950 . S
C2150 C2151 1.386 . S
C2150 C2152 1.391 . S
C2151 C2150 1.386 . S
C2151 C2155 1.393 . S
C2152 H2141 0.950 . S
C2152 C2150 1.391 . S
C2152 C2153 1.400 . S
C2153 C2147 1.491 . S
C2153 C2152 1.400 . S
C2153 C2154 1.398 . S
C2154 H2142 0.950 . S
C2154 C2153 1.398 . S
C2154 C2155 1.391 . S
C2155 H2143 0.950 . S
C2155 C2151 1.393 . S
C2155 C2154 1.391 . S
H2156 C2164 0.950 . S
H2157 C2169 0.950 . S
H2158 C2166 0.950 . S
H2159 C2168 0.950 . S
H2160 C2170 0.950 . S
H2161 C2172 0.950 . S
H2162 C2174 0.950 . S
H2163 C2175 0.950 . S
C2164 H2156 0.950 . S
C2164 C2165 1.386 . S
C2164 C2166 1.391 . S
C2165 C2164 1.386 . S
C2165 C2169 1.393 . S
C2166 H2158 0.950 . S
C2166 C2164 1.391 . S
C2166 C2167 1.400 . S
C2167 C2166 1.400 . S
C2167 C2168 1.398 . S
C2167 C2173 1.491 . S
C2168 H2159 0.950 . S
C2168 C2167 1.398 . S
C2168 C2169 1.391 . S
C2169 H2157 0.950 . S
C2169 C2165 1.393 . S
C2169 C2168 1.391 . S
C2170 H2160 0.950 . S
C2170 C2171 1.386 . S
C2170 C2172 1.391 . S
C2171 C2170 1.386 . S
C2171 C2175 1.393 . S
C2172 H2161 0.950 . S
C2172 C2170 1.391 . S
C2172 C2173 1.400 . S
C2173 C2167 1.491 . S
C2173 C2172 1.400 . S
C2173 C2174 1.398 . S
C2174 H2162 0.950 . S
C2174 C2173 1.398 . S
C2174 C2175 1.391 . S
C2175 H2163 0.950 . S
C2175 C2171 1.393 . S
C2175 C2174 1.391 . S
H2176 C2184 0.950 . S
H2177 C2189 0.950 . S
H2178 C2186 0.950 . S
H2179 C2188 0.950 . S
H2180 C2190 0.950 . S
H2181 C2192 0.950 . S
H2182 C2194 0.950 . S
H2183 C2195 0.950 . S
C2184 H2176 0.950 . S
C2184 C2185 1.386 . S
C2184 C2186 1.391 . S
C2185 C2184 1.386 . S
C2185 C2189 1.393 . S
C2186 H2178 0.950 . S
C2186 C2184 1.391 . S
C2186 C2187 1.400 . S
C2187 C2186 1.400 . S
C2187 C2188 1.398 . S
C2187 C2193 1.491 . S
C2188 H2179 0.950 . S
C2188 C2187 1.398 . S
C2188 C2189 1.391 . S
C2189 H2177 0.950 . S
C2189 C2185 1.393 . S
C2189 C2188 1.391 . S
C2190 H2180 0.950 . S
C2190 C2191 1.386 . S
C2190 C2192 1.391 . S
C2191 C2190 1.386 . S
C2191 C2195 1.393 . S
C2192 H2181 0.950 . S
C2192 C2190 1.391 . S
C2192 C2193 1.400 . S
C2193 C2187 1.491 . S
C2193 C2192 1.400 . S
C2193 C2194 1.398 . S
C2194 H2182 0.950 . S
C2194 C2193 1.398 . S
C2194 C2195 1.391 . S
C2195 H2183 0.950 . S
C2195 C2191 1.393 . S
C2195 C2194 1.391 . S
H2196 C2204 0.950 . S
H2197 C2209 0.950 . S
H2198 C2206 0.950 . S
H2199 C2208 0.950 . S
H2200 C2210 0.950 . S
H2201 C2212 0.950 . S
H2202 C2214 0.950 . S
H2203 C2215 0.950 . S
C2204 H2196 0.950 . S
C2204 C2205 1.386 . S
C2204 C2206 1.391 . S
C2205 C2204 1.386 . S
C2205 C2209 1.393 . S
C2206 H2198 0.950 . S
C2206 C2204 1.391 . S
C2206 C2207 1.400 . S
C2207 C2206 1.400 . S
C2207 C2208 1.398 . S
C2207 C2213 1.491 . S
C2208 H2199 0.950 . S
C2208 C2207 1.398 . S
C2208 C2209 1.391 . S
C2209 H2197 0.950 . S
C2209 C2205 1.393 . S
C2209 C2208 1.391 . S
C2210 H2200 0.950 . S
C2210 C2211 1.386 . S
C2210 C2212 1.391 . S
C2211 C2210 1.386 . S
C2211 C2215 1.393 . S
C2212 H2201 0.950 . S
C2212 C2210 1.391 . S
C2212 C2213 1.400 . S
C2213 C2207 1.491 . S
C2213 C2212 1.400 . S
C2213 C2214 1.398 . S
C2214 H2202 0.950 . S
C2214 C2213 1.398 . S
C2214 C2215 1.391 . S
C2215 H2203 0.950 . S
C2215 C2211 1.393 . S
C2215 C2214 1.391 . S
H2216 C2224 0.950 . S
H2217 C2229 0.950 . S
H2218 C2226 0.950 . S
H2219 C2228 0.950 . S
H2220 C2230 0.950 . S
H2221 C2232 0.950 . S
H2222 C2234 0.950 . S
H2223 C2235 0.950 . S
C2224 H2216 0.950 . S
C2224 C2225 1.386 . S
C2224 C2226 1.391 . S
C2225 C2224 1.386 . S
C2225 C2229 1.393 . S
C2226 H2218 0.950 . S
C2226 C2224 1.391 . S
C2226 C2227 1.400 . S
C2227 C2226 1.400 . S
C2227 C2228 1.398 . S
C2227 C2233 1.491 . S
C2228 H2219 0.950 . S
C2228 C2227 1.398 . S
C2228 C2229 1.391 . S
C2229 H2217 0.950 . S
C2229 C2225 1.393 . S
C2229 C2228 1.391 . S
C2230 H2220 0.950 . S
C2230 C2231 1.386 . S
C2230 C2232 1.391 . S
C2231 C2230 1.386 . S
C2231 C2235 1.393 . S
C2232 H2221 0.950 . S
C2232 C2230 1.391 . S
C2232 C2233 1.400 . S
C2233 C2227 1.491 . S
C2233 C2232 1.400 . S
C2233 C2234 1.398 . S
C2234 H2222 0.950 . S
C2234 C2233 1.398 . S
C2234 C2235 1.391 . S
C2235 H2223 0.950 . S
C2235 C2231 1.393 . S
C2235 C2234 1.391 . S
H2236 C2244 0.950 . S
H2237 C2249 0.950 . S
H2238 C2246 0.950 . S
H2239 C2248 0.950 . S
H2240 C2250 0.950 . S
H2241 C2252 0.950 . S
H2242 C2254 0.950 . S
H2243 C2255 0.950 . S
C2244 H2236 0.950 . S
C2244 C2245 1.386 . S
C2244 C2246 1.391 . S
C2245 C2244 1.386 . S
C2245 C2249 1.393 . S
C2246 H2238 0.950 . S
C2246 C2244 1.391 . S
C2246 C2247 1.400 . S
C2247 C2246 1.400 . S
C2247 C2248 1.398 . S
C2247 C2253 1.491 . S
C2248 H2239 0.950 . S
C2248 C2247 1.398 . S
C2248 C2249 1.391 . S
C2249 H2237 0.950 . S
C2249 C2245 1.393 . S
C2249 C2248 1.391 . S
C2250 H2240 0.950 . S
C2250 C2251 1.386 . S
C2250 C2252 1.391 . S
C2251 C2250 1.386 . S
C2251 C2255 1.393 . S
C2252 H2241 0.950 . S
C2252 C2250 1.391 . S
C2252 C2253 1.400 . S
C2253 C2247 1.491 . S
C2253 C2252 1.400 . S
C2253 C2254 1.398 . S
C2254 H2242 0.950 . S
C2254 C2253 1.398 . S
C2254 C2255 1.391 . S
C2255 H2243 0.950 . S
C2255 C2251 1.393 . S
C2255 C2254 1.391 . S
H2256 C2264 0.950 . S
H2257 C2269 0.950 . S
H2258 C2266 0.950 . S
H2259 C2268 0.950 . S
H2260 C2270 0.950 . S
H2261 C2272 0.950 . S
H2262 C2274 0.950 . S
H2263 C2275 0.950 . S
C2264 H2256 0.950 . S
C2264 C2265 1.386 . S
C2264 C2266 1.391 . S
C2265 C2264 1.386 . S
C2265 C2269 1.393 . S
C2266 H2258 0.950 . S
C2266 C2264 1.391 . S
C2266 C2267 1.400 . S
C2267 C2266 1.400 . S
C2267 C2268 1.398 . S
C2267 C2273 1.491 . S
C2268 H2259 0.950 . S
C2268 C2267 1.398 . S
C2268 C2269 1.391 . S
C2269 H2257 0.950 . S
C2269 C2265 1.393 . S
C2269 C2268 1.391 . S
C2270 H2260 0.950 . S
C2270 C2271 1.386 . S
C2270 C2272 1.391 . S
C2271 C2270 1.386 . S
C2271 C2275 1.393 . S
C2272 H2261 0.950 . S
C2272 C2270 1.391 . S
C2272 C2273 1.400 . S
C2273 C2267 1.491 . S
C2273 C2272 1.400 . S
C2273 C2274 1.398 . S
C2274 H2262 0.950 . S
C2274 C2273 1.398 . S
C2274 C2275 1.391 . S
C2275 H2263 0.950 . S
C2275 C2271 1.393 . S
C2275 C2274 1.391 . S
H2276 C2284 0.950 . S
H2277 C2289 0.950 . S
H2278 C2286 0.950 . S
H2279 C2288 0.950 . S
H2280 C2290 0.950 . S
H2281 C2292 0.950 . S
H2282 C2294 0.950 . S
H2283 C2295 0.950 . S
C2284 H2276 0.950 . S
C2284 C2285 1.386 . S
C2284 C2286 1.391 . S
C2285 C2284 1.386 . S
C2285 C2289 1.393 . S
C2286 H2278 0.950 . S
C2286 C2284 1.391 . S
C2286 C2287 1.400 . S
C2287 C2286 1.400 . S
C2287 C2288 1.398 . S
C2287 C2293 1.491 . S
C2288 H2279 0.950 . S
C2288 C2287 1.398 . S
C2288 C2289 1.391 . S
C2289 H2277 0.950 . S
C2289 C2285 1.393 . S
C2289 C2288 1.391 . S
C2290 H2280 0.950 . S
C2290 C2291 1.386 . S
C2290 C2292 1.391 . S
C2291 C2290 1.386 . S
C2291 C2295 1.393 . S
C2292 H2281 0.950 . S
C2292 C2290 1.391 . S
C2292 C2293 1.400 . S
C2293 C2287 1.491 . S
C2293 C2292 1.400 . S
C2293 C2294 1.398 . S
C2294 H2282 0.950 . S
C2294 C2293 1.398 . S
C2294 C2295 1.391 . S
C2295 H2283 0.950 . S
C2295 C2291 1.393 . S
C2295 C2294 1.391 . S
H2296 C2304 0.950 . S
H2297 C2309 0.950 . S
H2298 C2306 0.950 . S
H2299 C2308 0.950 . S
H2300 C2310 0.950 . S
H2301 C2312 0.950 . S
H2302 C2314 0.950 . S
H2303 C2315 0.950 . S
C2304 H2296 0.950 . S
C2304 C2305 1.386 . S
C2304 C2306 1.391 . S
C2305 C2304 1.386 . S
C2305 C2309 1.393 . S
C2306 H2298 0.950 . S
C2306 C2304 1.391 . S
C2306 C2307 1.400 . S
C2307 C2306 1.400 . S
C2307 C2308 1.398 . S
C2307 C2313 1.491 . S
C2308 H2299 0.950 . S
C2308 C2307 1.398 . S
C2308 C2309 1.391 . S
C2309 H2297 0.950 . S
C2309 C2305 1.393 . S
C2309 C2308 1.391 . S
C2310 H2300 0.950 . S
C2310 C2311 1.386 . S
C2310 C2312 1.391 . S
C2311 C2310 1.386 . S
C2311 C2315 1.393 . S
C2312 H2301 0.950 . S
C2312 C2310 1.391 . S
C2312 C2313 1.400 . S
C2313 C2307 1.491 . S
C2313 C2312 1.400 . S
C2313 C2314 1.398 . S
C2314 H2302 0.950 . S
C2314 C2313 1.398 . S
C2314 C2315 1.391 . S
C2315 H2303 0.950 . S
C2315 C2311 1.393 . S
C2315 C2314 1.391 . S
H2316 C2324 0.950 . S
H2317 C2329 0.950 . S
H2318 C2326 0.950 . S
H2319 C2328 0.950 1_556 S
H2320 C2330 0.950 . S
H2321 C2332 0.952 1_556 S
H2322 C2334 0.950 . S
H2323 C2335 0.940 . S
C2324 H2316 0.950 . S
C2324 C2325 1.386 . S
C2324 C2326 1.391 . S
C2325 C2324 1.386 . S
C2325 C2329 1.393 1_554 S
C2326 H2318 0.950 . S
C2326 C2324 1.391 . S
C2326 C2327 1.400 . S
C2327 C2326 1.400 . S
C2327 C2328 1.398 . S
C2327 C2333 1.491 . S
C2328 H2319 0.950 1_554 S
C2328 C2327 1.398 . S
C2328 C2329 1.391 1_554 S
C2329 H2317 0.950 . S
C2329 C2325 1.393 1_556 S
C2329 C2328 1.391 1_556 S
C2330 H2320 0.950 . S
C2330 C2331 1.386 . S
C2330 C2332 1.391 1_545 S
C2331 C2330 1.386 . S
C2331 C2335 1.418 . S
C2332 H2321 0.952 1_554 S
C2332 C2330 1.391 1_565 S
C2332 C2333 1.400 . S
C2333 C2327 1.491 . S
C2333 C2332 1.400 . S
C2333 C2334 1.398 . S
C2334 H2322 0.950 . S
C2334 C2333 1.398 . S
C2334 C2335 1.377 1_565 S
C2335 H2323 0.940 . S
C2335 C2331 1.418 . S
C2335 C2334 1.377 1_545 S
H2336 C2344 0.950 . S
H2337 C2349 0.950 . S
H2338 C2346 0.950 . S
H2339 C2348 0.950 . S
H2340 C2350 0.950 . S
H2341 C2352 0.950 . S
H2342 C2354 0.950 . S
H2343 C2355 0.950 . S
C2344 H2336 0.950 . S
C2344 C2345 1.386 . S
C2344 C2346 1.391 . S
C2345 C2344 1.386 . S
C2345 C2349 1.393 . S
C2346 H2338 0.950 . S
C2346 C2344 1.391 . S
C2346 C2347 1.400 . S
C2347 C2346 1.400 . S
C2347 C2348 1.398 . S
C2347 C2353 1.491 . S
C2348 H2339 0.950 . S
C2348 C2347 1.398 . S
C2348 C2349 1.391 . S
C2349 H2337 0.950 . S
C2349 C2345 1.393 . S
C2349 C2348 1.391 . S
C2350 H2340 0.950 . S
C2350 C2351 1.386 . S
C2350 C2352 1.391 . S
C2351 C2350 1.386 . S
C2351 C2355 1.393 . S
C2352 H2341 0.950 . S
C2352 C2350 1.391 . S
C2352 C2353 1.400 . S
C2353 C2347 1.491 . S
C2353 C2352 1.400 . S
C2353 C2354 1.398 . S
C2354 H2342 0.950 . S
C2354 C2353 1.398 . S
C2354 C2355 1.391 . S
C2355 H2343 0.950 . S
C2355 C2351 1.393 . S
C2355 C2354 1.391 . S
H2356 C2364 0.950 . S
H2357 C2369 0.950 . S
H2358 C2366 0.950 . S
H2359 C2368 0.950 . S
H2360 C2370 0.950 . S
H2361 C2372 0.950 . S
H2362 C2374 0.950 . S
H2363 C2375 0.950 . S
C2364 H2356 0.950 . S
C2364 C2365 1.386 . S
C2364 C2366 1.391 . S
C2365 C2364 1.386 . S
C2365 C2369 1.393 . S
C2366 H2358 0.950 . S
C2366 C2364 1.391 . S
C2366 C2367 1.400 . S
C2367 C2366 1.400 . S
C2367 C2368 1.398 . S
C2367 C2373 1.491 . S
C2368 H2359 0.950 . S
C2368 C2367 1.398 . S
C2368 C2369 1.391 . S
C2369 H2357 0.950 . S
C2369 C2365 1.393 . S
C2369 C2368 1.391 . S
C2370 H2360 0.950 . S
C2370 C2371 1.386 . S
C2370 C2372 1.391 . S
C2371 C2370 1.386 . S
C2371 C2375 1.393 . S
C2372 H2361 0.950 . S
C2372 C2370 1.391 . S
C2372 C2373 1.400 . S
C2373 C2367 1.491 . S
C2373 C2372 1.400 . S
C2373 C2374 1.398 . S
C2374 H2362 0.950 . S
C2374 C2373 1.398 . S
C2374 C2375 1.391 . S
C2375 H2363 0.950 . S
C2375 C2371 1.393 . S
C2375 C2374 1.391 . S
H2376 C2384 0.950 . S
H2377 C2389 0.950 . S
H2378 C2386 0.950 . S
H2379 C2388 0.950 . S
H2380 C2390 0.950 . S
H2381 C2392 0.950 . S
H2382 C2394 0.950 . S
H2383 C2395 0.950 . S
C2384 H2376 0.950 . S
C2384 C2385 1.386 . S
C2384 C2386 1.391 . S
C2385 C2384 1.386 . S
C2385 C2389 1.393 . S
C2386 H2378 0.950 . S
C2386 C2384 1.391 . S
C2386 C2387 1.400 . S
C2387 C2386 1.400 . S
C2387 C2388 1.398 . S
C2387 C2393 1.491 . S
C2388 H2379 0.950 . S
C2388 C2387 1.398 . S
C2388 C2389 1.391 . S
C2389 H2377 0.950 . S
C2389 C2385 1.393 . S
C2389 C2388 1.391 . S
C2390 H2380 0.950 . S
C2390 C2391 1.386 . S
C2390 C2392 1.391 . S
C2391 C2390 1.386 . S
C2391 C2395 1.393 . S
C2392 H2381 0.950 . S
C2392 C2390 1.391 . S
C2392 C2393 1.400 . S
C2393 C2387 1.491 . S
C2393 C2392 1.400 . S
C2393 C2394 1.398 . S
C2394 H2382 0.950 . S
C2394 C2393 1.398 . S
C2394 C2395 1.391 . S
C2395 H2383 0.950 . S
C2395 C2391 1.393 . S
C2395 C2394 1.391 . S
H2396 C2404 0.950 . S
H2397 C2409 0.950 . S
H2398 C2406 0.950 . S
H2399 C2408 0.950 . S
H2400 C2410 0.950 . S
H2401 C2412 0.950 . S
H2402 C2414 0.950 . S
H2403 C2415 0.950 . S
C2404 H2396 0.950 . S
C2404 C2405 1.386 . S
C2404 C2406 1.391 . S
C2405 C2404 1.386 . S
C2405 C2409 1.393 . S
C2406 H2398 0.950 . S
C2406 C2404 1.391 . S
C2406 C2407 1.400 . S
C2407 C2406 1.400 . S
C2407 C2408 1.398 . S
C2407 C2413 1.491 . S
C2408 H2399 0.950 . S
C2408 C2407 1.398 . S
C2408 C2409 1.391 . S
C2409 H2397 0.950 . S
C2409 C2405 1.393 . S
C2409 C2408 1.391 . S
C2410 H2400 0.950 . S
C2410 C2411 1.386 . S
C2410 C2412 1.391 . S
C2411 C2410 1.386 . S
C2411 C2415 1.393 . S
C2412 H2401 0.950 . S
C2412 C2410 1.391 . S
C2412 C2413 1.400 . S
C2413 C2407 1.491 . S
C2413 C2412 1.400 . S
C2413 C2414 1.398 . S
C2414 H2402 0.950 . S
C2414 C2413 1.398 . S
C2414 C2415 1.391 . S
C2415 H2403 0.950 . S
C2415 C2411 1.393 . S
C2415 C2414 1.391 . S
H2416 C2424 0.950 . S
H2417 C2429 0.950 . S
H2418 C2426 0.950 . S
H2419 C2428 0.950 . S
H2420 C2430 0.950 . S
H2421 C2432 0.950 . S
H2422 C2434 0.950 . S
H2423 C2435 0.950 . S
C2424 H2416 0.950 . S
C2424 C2425 1.386 . S
C2424 C2426 1.391 . S
C2425 C2424 1.386 . S
C2425 C2429 1.393 . S
C2426 H2418 0.950 . S
C2426 C2424 1.391 . S
C2426 C2427 1.400 . S
C2427 C2426 1.400 . S
C2427 C2428 1.398 . S
C2427 C2433 1.491 . S
C2428 H2419 0.950 . S
C2428 C2427 1.398 . S
C2428 C2429 1.391 . S
C2429 H2417 0.950 . S
C2429 C2425 1.393 . S
C2429 C2428 1.391 . S
C2430 H2420 0.950 . S
C2430 C2431 1.386 . S
C2430 C2432 1.391 . S
C2431 C2430 1.386 . S
C2431 C2435 1.393 . S
C2432 H2421 0.950 . S
C2432 C2430 1.391 . S
C2432 C2433 1.400 . S
C2433 C2427 1.491 . S
C2433 C2432 1.400 . S
C2433 C2434 1.398 . S
C2434 H2422 0.950 . S
C2434 C2433 1.398 . S
C2434 C2435 1.391 . S
C2435 H2423 0.950 . S
C2435 C2431 1.393 . S
C2435 C2434 1.391 . S
H2436 C2444 0.950 . S
H2437 C2449 0.950 . S
H2438 C2446 0.950 . S
H2439 C2448 0.950 . S
H2440 C2450 0.950 . S
H2441 C2452 0.950 . S
H2442 C2454 0.950 . S
H2443 C2455 0.950 . S
C2444 H2436 0.950 . S
C2444 C2445 1.386 . S
C2444 C2446 1.391 . S
C2445 C2444 1.386 . S
C2445 C2449 1.393 . S
C2446 H2438 0.950 . S
C2446 C2444 1.391 . S
C2446 C2447 1.400 . S
C2447 C2446 1.400 . S
C2447 C2448 1.398 . S
C2447 C2453 1.491 . S
C2448 H2439 0.950 . S
C2448 C2447 1.398 . S
C2448 C2449 1.391 . S
C2449 H2437 0.950 . S
C2449 C2445 1.393 . S
C2449 C2448 1.391 . S
C2450 H2440 0.950 . S
C2450 C2451 1.386 . S
C2450 C2452 1.391 . S
C2451 C2450 1.386 . S
C2451 C2455 1.393 . S
C2452 H2441 0.950 . S
C2452 C2450 1.391 . S
C2452 C2453 1.400 . S
C2453 C2447 1.491 . S
C2453 C2452 1.400 . S
C2453 C2454 1.398 . S
C2454 H2442 0.950 . S
C2454 C2453 1.398 . S
C2454 C2455 1.391 . S
C2455 H2443 0.950 . S
C2455 C2451 1.393 . S
C2455 C2454 1.391 . S
H2456 C2464 0.950 . S
H2457 C2469 0.950 . S
H2458 C2466 0.950 . S
H2459 C2468 0.950 . S
H2460 C2470 0.950 . S
H2461 C2472 0.950 . S
H2462 C2474 0.950 . S
H2463 C2475 0.950 . S
C2464 H2456 0.950 . S
C2464 C2465 1.386 . S
C2464 C2466 1.391 . S
C2465 C2464 1.386 . S
C2465 C2469 1.393 . S
C2466 H2458 0.950 . S
C2466 C2464 1.391 . S
C2466 C2467 1.400 . S
C2467 C2466 1.400 . S
C2467 C2468 1.398 . S
C2467 C2473 1.491 . S
C2468 H2459 0.950 . S
C2468 C2467 1.398 . S
C2468 C2469 1.391 . S
C2469 H2457 0.950 . S
C2469 C2465 1.393 . S
C2469 C2468 1.391 . S
C2470 H2460 0.950 . S
C2470 C2471 1.386 . S
C2470 C2472 1.391 . S
C2471 C2470 1.386 . S
C2471 C2475 1.393 . S
C2472 H2461 0.950 . S
C2472 C2470 1.391 . S
C2472 C2473 1.400 . S
C2473 C2467 1.491 . S
C2473 C2472 1.400 . S
C2473 C2474 1.398 . S
C2474 H2462 0.950 . S
C2474 C2473 1.398 . S
C2474 C2475 1.391 . S
C2475 H2463 0.950 . S
C2475 C2471 1.393 . S
C2475 C2474 1.391 . S
H2476 C2484 0.950 . S
H2477 C2489 0.950 . S
H2478 C2486 0.950 . S
H2479 C2488 0.950 . S
H2480 C2490 0.950 . S
H2481 C2492 0.950 . S
H2482 C2494 0.950 . S
H2483 C2495 0.950 . S
C2484 H2476 0.950 . S
C2484 C2485 1.386 . S
C2484 C2486 1.391 . S
C2485 C2484 1.386 . S
C2485 C2489 1.393 . S
C2486 H2478 0.950 . S
C2486 C2484 1.391 . S
C2486 C2487 1.400 . S
C2487 C2486 1.400 . S
C2487 C2488 1.398 . S
C2487 C2493 1.491 . S
C2488 H2479 0.950 . S
C2488 C2487 1.398 . S
C2488 C2489 1.391 . S
C2489 H2477 0.950 . S
C2489 C2485 1.393 . S
C2489 C2488 1.391 . S
C2490 H2480 0.950 . S
C2490 C2491 1.386 . S
C2490 C2492 1.391 . S
C2491 C2490 1.386 . S
C2491 C2495 1.393 . S
C2492 H2481 0.950 . S
C2492 C2490 1.391 . S
C2492 C2493 1.400 . S
C2493 C2487 1.491 . S
C2493 C2492 1.400 . S
C2493 C2494 1.398 . S
C2494 H2482 0.950 . S
C2494 C2493 1.398 . S
C2494 C2495 1.391 . S
C2495 H2483 0.950 . S
C2495 C2491 1.393 . S
C2495 C2494 1.391 . S
H2496 C2504 0.950 . S
H2497 C2509 0.950 . S
H2498 C2506 0.950 . S
H2499 C2508 0.950 . S
H2500 C2510 0.950 . S
H2501 C2512 0.950 . S
H2502 C2514 0.950 . S
H2503 C2515 0.950 . S
C2504 H2496 0.950 . S
C2504 C2505 1.386 . S
C2504 C2506 1.391 . S
C2505 C2504 1.386 . S
C2505 C2509 1.393 . S
C2506 H2498 0.950 . S
C2506 C2504 1.391 . S
C2506 C2507 1.400 . S
C2507 C2506 1.400 . S
C2507 C2508 1.398 . S
C2507 C2513 1.491 . S
C2508 H2499 0.950 . S
C2508 C2507 1.398 . S
C2508 C2509 1.391 . S
C2509 H2497 0.950 . S
C2509 C2505 1.393 . S
C2509 C2508 1.391 . S
C2510 H2500 0.950 . S
C2510 C2511 1.386 . S
C2510 C2512 1.391 . S
C2511 C2510 1.386 . S
C2511 C2515 1.393 . S
C2512 H2501 0.950 . S
C2512 C2510 1.391 . S
C2512 C2513 1.400 . S
C2513 C2507 1.491 . S
C2513 C2512 1.400 . S
C2513 C2514 1.398 . S
C2514 H2502 0.950 . S
C2514 C2513 1.398 . S
C2514 C2515 1.391 . S
C2515 H2503 0.950 . S
C2515 C2511 1.393 . S
C2515 C2514 1.391 . S
H2516 C2524 0.950 . S
H2517 C2529 0.950 . S
H2518 C2526 0.950 . S
H2519 C2528 0.950 . S
H2520 C2530 0.950 . S
H2521 C2532 0.950 . S
H2522 C2534 0.950 . S
H2523 C2535 0.950 . S
C2524 H2516 0.950 . S
C2524 C2525 1.386 . S
C2524 C2526 1.391 . S
C2525 C2524 1.386 . S
C2525 C2529 1.393 . S
C2526 H2518 0.950 . S
C2526 C2524 1.391 . S
C2526 C2527 1.400 . S
C2527 C2526 1.400 . S
C2527 C2528 1.398 . S
C2527 C2533 1.491 . S
C2528 H2519 0.950 . S
C2528 C2527 1.398 . S
C2528 C2529 1.391 . S
C2529 H2517 0.950 . S
C2529 C2525 1.393 . S
C2529 C2528 1.391 . S
C2530 H2520 0.950 . S
C2530 C2531 1.386 . S
C2530 C2532 1.391 . S
C2531 C2530 1.386 . S
C2531 C2535 1.393 . S
C2532 H2521 0.950 . S
C2532 C2530 1.391 . S
C2532 C2533 1.400 . S
C2533 C2527 1.491 . S
C2533 C2532 1.400 . S
C2533 C2534 1.398 . S
C2534 H2522 0.950 . S
C2534 C2533 1.398 . S
C2534 C2535 1.391 . S
C2535 H2523 0.950 . S
C2535 C2531 1.393 . S
C2535 C2534 1.391 . S
H2536 C2544 0.950 . S
H2537 C2549 0.950 . S
H2538 C2546 0.950 . S
H2539 C2548 0.950 . S
H2540 C2550 0.950 . S
H2541 C2552 0.950 . S
H2542 C2554 0.950 . S
H2543 C2555 0.950 . S
C2544 H2536 0.950 . S
C2544 C2545 1.386 . S
C2544 C2546 1.391 . S
C2545 C2544 1.386 . S
C2545 C2549 1.393 . S
C2546 H2538 0.950 . S
C2546 C2544 1.391 . S
C2546 C2547 1.400 . S
C2547 C2546 1.400 . S
C2547 C2548 1.398 . S
C2547 C2553 1.491 . S
C2548 H2539 0.950 . S
C2548 C2547 1.398 . S
C2548 C2549 1.391 . S
C2549 H2537 0.950 . S
C2549 C2545 1.393 . S
C2549 C2548 1.391 . S
C2550 H2540 0.950 . S
C2550 C2551 1.386 . S
C2550 C2552 1.391 . S
C2551 C2550 1.386 . S
C2551 C2555 1.393 . S
C2552 H2541 0.950 . S
C2552 C2550 1.391 . S
C2552 C2553 1.400 . S
C2553 C2547 1.491 . S
C2553 C2552 1.400 . S
C2553 C2554 1.398 . S
C2554 H2542 0.950 . S
C2554 C2553 1.398 . S
C2554 C2555 1.391 . S
C2555 H2543 0.950 . S
C2555 C2551 1.393 . S
C2555 C2554 1.391 . S
H2556 C2564 0.950 . S
H2557 C2569 0.950 . S
H2558 C2566 0.950 . S
H2559 C2568 0.950 . S
H2560 C2570 0.950 . S
H2561 C2572 0.950 . S
H2562 C2574 0.950 . S
H2563 C2575 0.950 . S
C2564 H2556 0.950 . S
C2564 C2565 1.386 . S
C2564 C2566 1.391 . S
C2565 C2564 1.386 . S
C2565 C2569 1.393 . S
C2566 H2558 0.950 . S
C2566 C2564 1.391 . S
C2566 C2567 1.400 . S
C2567 C2566 1.400 . S
C2567 C2568 1.398 . S
C2567 C2573 1.491 . S
C2568 H2559 0.950 . S
C2568 C2567 1.398 . S
C2568 C2569 1.391 . S
C2569 H2557 0.950 . S
C2569 C2565 1.393 . S
C2569 C2568 1.391 . S
C2570 H2560 0.950 . S
C2570 C2571 1.386 . S
C2570 C2572 1.391 . S
C2571 C2570 1.386 . S
C2571 C2575 1.393 . S
C2572 H2561 0.950 . S
C2572 C2570 1.391 . S
C2572 C2573 1.400 . S
C2573 C2567 1.491 . S
C2573 C2572 1.400 . S
C2573 C2574 1.398 . S
C2574 H2562 0.950 . S
C2574 C2573 1.398 . S
C2574 C2575 1.391 . S
C2575 H2563 0.950 . S
C2575 C2571 1.393 . S
C2575 C2574 1.391 . S
H2576 C2584 0.950 . S
H2577 C2589 0.950 . S
H2578 C2586 0.950 . S
H2579 C2588 0.950 . S
H2580 C2590 0.950 . S
H2581 C2592 0.950 . S
H2582 C2594 0.950 . S
H2583 C2595 0.950 . S
C2584 H2576 0.950 . S
C2584 C2585 1.386 . S
C2584 C2586 1.391 . S
C2585 C2584 1.386 . S
C2585 C2589 1.393 . S
C2586 H2578 0.950 . S
C2586 C2584 1.391 . S
C2586 C2587 1.400 . S
C2587 C2586 1.400 . S
C2587 C2588 1.398 . S
C2587 C2593 1.491 . S
C2588 H2579 0.950 . S
C2588 C2587 1.398 . S
C2588 C2589 1.391 . S
C2589 H2577 0.950 . S
C2589 C2585 1.393 . S
C2589 C2588 1.391 . S
C2590 H2580 0.950 . S
C2590 C2591 1.386 . S
C2590 C2592 1.391 . S
C2591 C2590 1.386 . S
C2591 C2595 1.393 . S
C2592 H2581 0.950 . S
C2592 C2590 1.391 . S
C2592 C2593 1.400 . S
C2593 C2587 1.491 . S
C2593 C2592 1.400 . S
C2593 C2594 1.398 . S
C2594 H2582 0.950 . S
C2594 C2593 1.398 . S
C2594 C2595 1.391 . S
C2595 H2583 0.950 . S
C2595 C2591 1.393 . S
C2595 C2594 1.391 . S
H2596 C2604 0.950 . S
H2597 C2609 0.950 . S
H2598 C2606 0.950 . S
H2599 C2608 0.950 . S
H2600 C2610 0.950 . S
H2601 C2612 0.950 . S
H2602 C2614 0.950 . S
H2603 C2615 0.950 . S
C2604 H2596 0.950 . S
C2604 C2605 1.386 . S
C2604 C2606 1.391 . S
C2605 C2604 1.386 . S
C2605 C2609 1.393 . S
C2606 H2598 0.950 . S
C2606 C2604 1.391 . S
C2606 C2607 1.400 . S
C2607 C2606 1.400 . S
C2607 C2608 1.398 . S
C2607 C2613 1.491 . S
C2608 H2599 0.950 . S
C2608 C2607 1.398 . S
C2608 C2609 1.391 . S
C2609 H2597 0.950 . S
C2609 C2605 1.393 . S
C2609 C2608 1.391 . S
C2610 H2600 0.950 . S
C2610 C2611 1.386 . S
C2610 C2612 1.391 . S
C2611 C2610 1.386 . S
C2611 C2615 1.393 . S
C2612 H2601 0.950 . S
C2612 C2610 1.391 . S
C2612 C2613 1.400 . S
C2613 C2607 1.491 . S
C2613 C2612 1.400 . S
C2613 C2614 1.398 . S
C2614 H2602 0.950 . S
C2614 C2613 1.398 . S
C2614 C2615 1.391 . S
C2615 H2603 0.950 . S
C2615 C2611 1.393 . S
C2615 C2614 1.391 . S
H2616 C2624 0.950 . S
H2617 C2629 0.950 . S
H2618 C2626 0.950 . S
H2619 C2628 0.950 . S
H2620 C2630 0.950 . S
H2621 C2632 0.950 . S
H2622 C2634 0.950 . S
H2623 C2635 0.950 . S
C2624 H2616 0.950 . S
C2624 C2625 1.386 . S
C2624 C2626 1.391 . S
C2625 C2624 1.386 . S
C2625 C2629 1.393 . S
C2626 H2618 0.950 . S
C2626 C2624 1.391 . S
C2626 C2627 1.400 . S
C2627 C2626 1.400 . S
C2627 C2628 1.398 . S
C2627 C2633 1.491 . S
C2628 H2619 0.950 . S
C2628 C2627 1.398 . S
C2628 C2629 1.391 . S
C2629 H2617 0.950 . S
C2629 C2625 1.393 . S
C2629 C2628 1.391 . S
C2630 H2620 0.950 . S
C2630 C2631 1.387 1_556 S
C2630 C2632 1.391 1_455 S
C2631 C2630 1.387 1_554 S
C2631 C2635 1.384 1_455 S
C2632 H2621 0.950 . S
C2632 C2630 1.391 1_655 S
C2632 C2633 1.400 . S
C2633 C2627 1.491 . S
C2633 C2632 1.400 . S
C2633 C2634 1.398 . S
C2634 H2622 0.950 . S
C2634 C2633 1.398 . S
C2634 C2635 1.391 1_556 S
C2635 H2623 0.950 . S
C2635 C2631 1.384 1_655 S
C2635 C2634 1.391 1_554 S
H2636 C2644 0.950 . S
H2637 C2649 0.950 . S
H2638 C2646 0.950 . S
H2639 C2648 0.950 . S
H2640 C2650 0.950 . S
H2641 C2652 0.950 . S
H2642 C2654 0.950 . S
H2643 C2655 0.950 . S
C2644 H2636 0.950 . S
C2644 C2645 1.386 . S
C2644 C2646 1.391 . S
C2645 C2644 1.386 . S
C2645 C2649 1.393 . S
C2646 H2638 0.950 . S
C2646 C2644 1.391 . S
C2646 C2647 1.400 . S
C2647 C2646 1.400 . S
C2647 C2648 1.398 . S
C2647 C2653 1.491 . S
C2648 H2639 0.950 . S
C2648 C2647 1.398 . S
C2648 C2649 1.391 . S
C2649 H2637 0.950 . S
C2649 C2645 1.393 . S
C2649 C2648 1.391 . S
C2650 H2640 0.950 . S
C2650 C2651 1.386 . S
C2650 C2652 1.391 . S
C2651 C2650 1.386 . S
C2651 C2655 1.393 . S
C2652 H2641 0.950 . S
C2652 C2650 1.391 . S
C2652 C2653 1.400 . S
C2653 C2647 1.491 . S
C2653 C2652 1.400 . S
C2653 C2654 1.398 . S
C2654 H2642 0.950 . S
C2654 C2653 1.398 . S
C2654 C2655 1.391 . S
C2655 H2643 0.950 . S
C2655 C2651 1.393 . S
C2655 C2654 1.391 . S
H2656 C2664 0.950 . S
H2657 C2669 0.950 . S
H2658 C2666 0.950 . S
H2659 C2668 0.950 . S
H2660 C2670 0.950 . S
H2661 C2672 0.950 . S
H2662 C2674 0.950 . S
H2663 C2675 0.950 . S
C2664 H2656 0.950 . S
C2664 C2665 1.386 . S
C2664 C2666 1.391 . S
C2665 C2664 1.386 . S
C2665 C2669 1.393 . S
C2666 H2658 0.950 . S
C2666 C2664 1.391 . S
C2666 C2667 1.400 . S
C2667 C2666 1.400 . S
C2667 C2668 1.398 . S
C2667 C2673 1.491 . S
C2668 H2659 0.950 . S
C2668 C2667 1.398 . S
C2668 C2669 1.391 . S
C2669 H2657 0.950 . S
C2669 C2665 1.393 . S
C2669 C2668 1.391 . S
C2670 H2660 0.950 . S
C2670 C2671 1.386 . S
C2670 C2672 1.391 . S
C2671 C2670 1.386 . S
C2671 C2675 1.393 . S
C2672 H2661 0.950 . S
C2672 C2670 1.391 . S
C2672 C2673 1.400 . S
C2673 C2667 1.491 . S
C2673 C2672 1.400 . S
C2673 C2674 1.398 . S
C2674 H2662 0.950 . S
C2674 C2673 1.398 . S
C2674 C2675 1.391 . S
C2675 H2663 0.950 . S
C2675 C2671 1.393 . S
C2675 C2674 1.391 . S
H2676 C2684 0.950 . S
H2677 C2689 0.950 . S
H2678 C2686 0.950 . S
H2679 C2688 0.950 . S
H2680 C2690 0.950 . S
H2681 C2692 0.950 . S
H2682 C2694 0.950 . S
H2683 C2695 0.950 . S
C2684 H2676 0.950 . S
C2684 C2685 1.386 . S
C2684 C2686 1.391 . S
C2685 C2684 1.386 . S
C2685 C2689 1.393 . S
C2686 H2678 0.950 . S
C2686 C2684 1.391 . S
C2686 C2687 1.400 . S
C2687 C2686 1.400 . S
C2687 C2688 1.398 . S
C2687 C2693 1.491 . S
C2688 H2679 0.950 . S
C2688 C2687 1.398 . S
C2688 C2689 1.391 . S
C2689 H2677 0.950 . S
C2689 C2685 1.393 . S
C2689 C2688 1.391 . S
C2690 H2680 0.950 . S
C2690 C2691 1.386 . S
C2690 C2692 1.391 . S
C2691 C2690 1.386 . S
C2691 C2695 1.393 . S
C2692 H2681 0.950 . S
C2692 C2690 1.391 . S
C2692 C2693 1.400 . S
C2693 C2687 1.491 . S
C2693 C2692 1.400 . S
C2693 C2694 1.398 . S
C2694 H2682 0.950 . S
C2694 C2693 1.398 . S
C2694 C2695 1.391 . S
C2695 H2683 0.950 . S
C2695 C2691 1.393 . S
C2695 C2694 1.391 . S
H2696 C2704 0.950 . S
H2697 C2709 0.950 . S
H2698 C2706 0.950 . S
H2699 C2708 0.950 . S
H2700 C2710 0.950 . S
H2701 C2712 0.950 . S
H2702 C2714 0.950 . S
H2703 C2715 0.950 . S
C2704 H2696 0.950 . S
C2704 C2705 1.386 . S
C2704 C2706 1.391 . S
C2705 C2704 1.386 . S
C2705 C2709 1.393 . S
C2706 H2698 0.950 . S
C2706 C2704 1.391 . S
C2706 C2707 1.400 . S
C2707 C2706 1.400 . S
C2707 C2708 1.398 . S
C2707 C2713 1.491 . S
C2708 H2699 0.950 . S
C2708 C2707 1.398 . S
C2708 C2709 1.391 . S
C2709 H2697 0.950 . S
C2709 C2705 1.393 . S
C2709 C2708 1.391 . S
C2710 H2700 0.950 . S
C2710 C2711 1.386 . S
C2710 C2712 1.391 . S
C2711 C2710 1.386 . S
C2711 C2715 1.393 . S
C2712 H2701 0.950 . S
C2712 C2710 1.391 . S
C2712 C2713 1.400 . S
C2713 C2707 1.491 . S
C2713 C2712 1.400 . S
C2713 C2714 1.398 . S
C2714 H2702 0.950 . S
C2714 C2713 1.398 . S
C2714 C2715 1.391 . S
C2715 H2703 0.950 . S
C2715 C2711 1.393 . S
C2715 C2714 1.391 . S
H2716 C2724 0.950 . S
H2717 C2729 0.950 . S
H2718 C2726 0.950 . S
H2719 C2728 0.950 . S
H2720 C2730 0.950 . S
H2721 C2732 0.950 . S
H2722 C2734 0.950 . S
H2723 C2735 0.950 . S
C2724 H2716 0.950 . S
C2724 C2725 1.386 . S
C2724 C2726 1.391 . S
C2725 C2724 1.386 . S
C2725 C2729 1.393 . S
C2726 H2718 0.950 . S
C2726 C2724 1.391 . S
C2726 C2727 1.400 . S
C2727 C2726 1.400 . S
C2727 C2728 1.398 . S
C2727 C2733 1.491 . S
C2728 H2719 0.950 . S
C2728 C2727 1.398 . S
C2728 C2729 1.391 . S
C2729 H2717 0.950 . S
C2729 C2725 1.393 . S
C2729 C2728 1.391 . S
C2730 H2720 0.950 . S
C2730 C2731 1.386 . S
C2730 C2732 1.391 . S
C2731 C2730 1.386 . S
C2731 C2735 1.393 . S
C2732 H2721 0.950 . S
C2732 C2730 1.391 . S
C2732 C2733 1.400 . S
C2733 C2727 1.491 . S
C2733 C2732 1.400 . S
C2733 C2734 1.398 . S
C2734 H2722 0.950 . S
C2734 C2733 1.398 . S
C2734 C2735 1.391 . S
C2735 H2723 0.950 . S
C2735 C2731 1.393 . S
C2735 C2734 1.391 . S
H2736 C2744 0.950 . S
H2737 C2749 0.950 . S
H2738 C2746 0.950 . S
H2739 C2748 0.950 . S
H2740 C2750 0.950 . S
H2741 C2752 0.950 . S
H2742 C2754 0.950 . S
H2743 C2755 0.950 . S
C2744 H2736 0.950 . S
C2744 C2745 1.386 . S
C2744 C2746 1.391 . S
C2745 C2744 1.386 . S
C2745 C2749 1.393 . S
C2746 H2738 0.950 . S
C2746 C2744 1.391 . S
C2746 C2747 1.400 . S
C2747 C2746 1.400 . S
C2747 C2748 1.398 . S
C2747 C2753 1.491 . S
C2748 H2739 0.950 . S
C2748 C2747 1.398 . S
C2748 C2749 1.391 . S
C2749 H2737 0.950 . S
C2749 C2745 1.393 . S
C2749 C2748 1.391 . S
C2750 H2740 0.950 . S
C2750 C2751 1.386 . S
C2750 C2752 1.391 . S
C2751 C2750 1.386 . S
C2751 C2755 1.393 . S
C2752 H2741 0.950 . S
C2752 C2750 1.391 . S
C2752 C2753 1.400 . S
C2753 C2747 1.491 . S
C2753 C2752 1.400 . S
C2753 C2754 1.398 . S
C2754 H2742 0.950 . S
C2754 C2753 1.398 . S
C2754 C2755 1.391 . S
C2755 H2743 0.950 . S
C2755 C2751 1.393 . S
C2755 C2754 1.391 . S
H2756 C2764 0.950 . S
H2757 C2769 0.950 . S
H2758 C2766 0.950 . S
H2759 C2768 0.950 . S
H2760 C2770 0.925 1_545 S
H2761 C2772 0.950 . S
H2762 C2774 0.950 . S
H2763 C2775 0.950 . S
C2764 H2756 0.950 . S
C2764 C2765 1.386 . S
C2764 C2766 1.391 . S
C2765 C2764 1.386 . S
C2765 C2769 1.393 . S
C2766 H2758 0.950 . S
C2766 C2764 1.391 . S
C2766 C2767 1.400 . S
C2767 C2766 1.400 . S
C2767 C2768 1.398 . S
C2767 C2773 1.491 . S
C2768 H2759 0.950 . S
C2768 C2767 1.398 . S
C2768 C2769 1.391 . S
C2769 H2757 0.950 . S
C2769 C2765 1.393 . S
C2769 C2768 1.391 . S
C2770 H2760 0.925 1_565 S
C2770 C2771 1.388 1_565 S
C2770 C2772 1.391 . S
C2771 C2770 1.388 1_545 S
C2771 C2775 1.375 1_545 S
C2772 H2761 0.950 . S
C2772 C2770 1.391 . S
C2772 C2773 1.400 . S
C2773 C2767 1.491 . S
C2773 C2772 1.400 . S
C2773 C2774 1.398 . S
C2774 H2762 0.950 . S
C2774 C2773 1.398 . S
C2774 C2775 1.391 . S
C2775 H2763 0.950 . S
C2775 C2771 1.375 1_565 S
C2775 C2774 1.391 . S
H2776 C2784 0.950 . S
H2777 C2789 0.950 . S
H2778 C2786 0.950 . S
H2779 C2788 0.950 . S
H2780 C2790 0.950 . S
H2781 C2792 0.950 . S
H2782 C2794 0.950 . S
H2783 C2795 0.950 . S
C2784 H2776 0.950 . S
C2784 C2785 1.386 . S
C2784 C2786 1.391 . S
C2785 C2784 1.386 . S
C2785 C2789 1.393 . S
C2786 H2778 0.950 . S
C2786 C2784 1.391 . S
C2786 C2787 1.400 . S
C2787 C2786 1.400 . S
C2787 C2788 1.398 . S
C2787 C2793 1.491 . S
C2788 H2779 0.950 . S
C2788 C2787 1.398 . S
C2788 C2789 1.391 . S
C2789 H2777 0.950 . S
C2789 C2785 1.393 . S
C2789 C2788 1.391 . S
C2790 H2780 0.950 . S
C2790 C2791 1.386 . S
C2790 C2792 1.391 . S
C2791 C2790 1.386 . S
C2791 C2795 1.393 . S
C2792 H2781 0.950 . S
C2792 C2790 1.391 . S
C2792 C2793 1.400 . S
C2793 C2787 1.491 . S
C2793 C2792 1.400 . S
C2793 C2794 1.398 . S
C2794 H2782 0.950 . S
C2794 C2793 1.398 . S
C2794 C2795 1.391 . S
C2795 H2783 0.950 . S
C2795 C2791 1.393 . S
C2795 C2794 1.391 . S
H2796 C2804 0.950 . S
H2797 C2809 0.950 . S
H2798 C2806 0.950 . S
H2799 C2808 0.950 . S
H2800 C2810 0.950 . S
H2801 C2812 0.950 . S
H2802 C2814 0.950 . S
H2803 C2815 0.950 . S
C2804 H2796 0.950 . S
C2804 C2805 1.386 . S
C2804 C2806 1.391 . S
C2805 C2804 1.386 . S
C2805 C2809 1.393 . S
C2806 H2798 0.950 . S
C2806 C2804 1.391 . S
C2806 C2807 1.400 . S
C2807 C2806 1.400 . S
C2807 C2808 1.398 . S
C2807 C2813 1.491 . S
C2808 H2799 0.950 . S
C2808 C2807 1.398 . S
C2808 C2809 1.391 . S
C2809 H2797 0.950 . S
C2809 C2805 1.393 . S
C2809 C2808 1.391 . S
C2810 H2800 0.950 . S
C2810 C2811 1.386 . S
C2810 C2812 1.391 . S
C2811 C2810 1.386 . S
C2811 C2815 1.393 . S
C2812 H2801 0.950 . S
C2812 C2810 1.391 . S
C2812 C2813 1.400 . S
C2813 C2807 1.491 . S
C2813 C2812 1.400 . S
C2813 C2814 1.398 . S
C2814 H2802 0.950 . S
C2814 C2813 1.398 . S
C2814 C2815 1.391 . S
C2815 H2803 0.950 . S
C2815 C2811 1.393 . S
C2815 C2814 1.391 . S
H2816 C2824 0.950 . S
H2817 C2829 0.950 . S
H2818 C2826 0.950 . S
H2819 C2828 0.950 . S
H2820 C2830 0.950 . S
H2821 C2832 0.950 . S
H2822 C2834 0.950 . S
H2823 C2835 0.950 . S
C2824 H2816 0.950 . S
C2824 C2825 1.386 . S
C2824 C2826 1.391 . S
C2825 C2824 1.386 . S
C2825 C2829 1.393 . S
C2826 H2818 0.950 . S
C2826 C2824 1.391 . S
C2826 C2827 1.400 . S
C2827 C2826 1.400 . S
C2827 C2828 1.398 . S
C2827 C2833 1.491 . S
C2828 H2819 0.950 . S
C2828 C2827 1.398 . S
C2828 C2829 1.391 . S
C2829 H2817 0.950 . S
C2829 C2825 1.393 . S
C2829 C2828 1.391 . S
C2830 H2820 0.950 . S
C2830 C2831 1.386 . S
C2830 C2832 1.391 . S
C2831 C2830 1.386 . S
C2831 C2835 1.393 . S
C2832 H2821 0.950 . S
C2832 C2830 1.391 . S
C2832 C2833 1.400 . S
C2833 C2827 1.491 . S
C2833 C2832 1.400 . S
C2833 C2834 1.398 . S
C2834 H2822 0.950 . S
C2834 C2833 1.398 . S
C2834 C2835 1.391 . S
C2835 H2823 0.950 . S
C2835 C2831 1.393 . S
C2835 C2834 1.391 . S
H2836 C2844 0.950 . S
H2837 C2849 0.950 . S
H2838 C2846 0.950 . S
H2839 C2848 0.950 . S
H2840 C2850 0.950 . S
H2841 C2852 0.950 . S
H2842 C2854 0.950 . S
H2843 C2855 0.950 . S
C2844 H2836 0.950 . S
C2844 C2845 1.386 . S
C2844 C2846 1.391 . S
C2845 C2844 1.386 . S
C2845 C2849 1.393 . S
C2846 H2838 0.950 . S
C2846 C2844 1.391 . S
C2846 C2847 1.400 . S
C2847 C2846 1.400 . S
C2847 C2848 1.398 . S
C2847 C2853 1.491 . S
C2848 H2839 0.950 . S
C2848 C2847 1.398 . S
C2848 C2849 1.391 . S
C2849 H2837 0.950 . S
C2849 C2845 1.393 . S
C2849 C2848 1.391 . S
C2850 H2840 0.950 . S
C2850 C2851 1.386 . S
C2850 C2852 1.391 . S
C2851 C2850 1.386 . S
C2851 C2855 1.393 . S
C2852 H2841 0.950 . S
C2852 C2850 1.391 . S
C2852 C2853 1.400 . S
C2853 C2847 1.491 . S
C2853 C2852 1.400 . S
C2853 C2854 1.398 . S
C2854 H2842 0.950 . S
C2854 C2853 1.398 . S
C2854 C2855 1.391 . S
C2855 H2843 0.950 . S
C2855 C2851 1.393 . S
C2855 C2854 1.391 . S
H2856 C2864 0.950 . S
H2857 C2869 0.950 . S
H2858 C2866 0.950 . S
H2859 C2868 0.950 . S
H2860 C2870 0.950 . S
H2861 C2872 0.950 . S
H2862 C2874 0.950 . S
H2863 C2875 0.950 . S
C2864 H2856 0.950 . S
C2864 C2865 1.386 . S
C2864 C2866 1.391 . S
C2865 C2864 1.386 . S
C2865 C2869 1.393 . S
C2866 H2858 0.950 . S
C2866 C2864 1.391 . S
C2866 C2867 1.400 . S
C2867 C2866 1.400 . S
C2867 C2868 1.398 . S
C2867 C2873 1.491 . S
C2868 H2859 0.950 . S
C2868 C2867 1.398 . S
C2868 C2869 1.391 . S
C2869 H2857 0.950 . S
C2869 C2865 1.393 . S
C2869 C2868 1.391 . S
C2870 H2860 0.950 . S
C2870 C2871 1.386 . S
C2870 C2872 1.391 . S
C2871 C2870 1.386 . S
C2871 C2875 1.393 . S
C2872 H2861 0.950 . S
C2872 C2870 1.391 . S
C2872 C2873 1.400 . S
C2873 C2867 1.491 . S
C2873 C2872 1.400 . S
C2873 C2874 1.398 . S
C2874 H2862 0.950 . S
C2874 C2873 1.398 . S
C2874 C2875 1.391 . S
C2875 H2863 0.950 . S
C2875 C2871 1.393 . S
C2875 C2874 1.391 . S
H2876 C2884 0.950 . S
H2877 C2889 0.950 . S
H2878 C2886 0.950 . S
H2879 C2888 0.950 . S
H2880 C2890 0.950 . S
H2881 C2892 0.950 . S
H2882 C2894 0.950 . S
H2883 C2895 0.950 . S
C2884 H2876 0.950 . S
C2884 C2885 1.386 . S
C2884 C2886 1.391 . S
C2885 C2884 1.386 . S
C2885 C2889 1.393 . S
C2886 H2878 0.950 . S
C2886 C2884 1.391 . S
C2886 C2887 1.400 . S
C2887 C2886 1.400 . S
C2887 C2888 1.398 . S
C2887 C2893 1.491 . S
C2888 H2879 0.950 . S
C2888 C2887 1.398 . S
C2888 C2889 1.391 . S
C2889 H2877 0.950 . S
C2889 C2885 1.393 . S
C2889 C2888 1.391 . S
C2890 H2880 0.950 . S
C2890 C2891 1.386 . S
C2890 C2892 1.391 . S
C2891 C2890 1.386 . S
C2891 C2895 1.393 . S
C2892 H2881 0.950 . S
C2892 C2890 1.391 . S
C2892 C2893 1.400 . S
C2893 C2887 1.491 . S
C2893 C2892 1.400 . S
C2893 C2894 1.398 . S
C2894 H2882 0.950 . S
C2894 C2893 1.398 . S
C2894 C2895 1.391 . S
C2895 H2883 0.950 . S
C2895 C2891 1.393 . S
C2895 C2894 1.391 . S
C985 C106 2.471 . S
C991 C349 2.492 . S
C1005 C65 2.060 . S
C1011 C400 2.034 . S
C1025 C79 1.897 . S
C1031 C429 1.880 . S
C1051 C473 1.274 . S
C1045 C90 1.249 . S
C1065 C21 1.158 . S
C1071 C513 1.160 . S
C1091 C549 1.549 . S
C1085 C35 1.564 . S
C1111 C599 1.892 . S
C1105 C50 1.897 . S
C1125 C6 2.233 . S
C1131 C629 2.245 . S
C1151 C359 2.124 . S
C1145 C232 2.123 . S
C1165 C245 0.712 . S
C1171 C402 0.704 . S
C1191 C439 1.269 . S
C1185 C274 1.274 . S
C1211 C469 1.391 . S
C1205 C175 1.389 . S
C1225 C231 1.282 . S
C1231 C509 1.289 . S
C1251 C559 0.810 . S
C1245 C246 0.817 . S
C1271 C593 0.735 . S
C1265 C273 0.731 . S
C1291 C639 2.044 . S
C1285 C176 2.043 . S
C1311 C353 1.234 . S
C1305 C160 1.226 . S
C1325 C289 1.694 . S
C1331 C679 1.691 . S
C1351 C713 1.474 . S
C1345 C328 1.455 . S
C1371 C749 1.091 . S
C1365 C317 1.119 . S
C1385 C118 1.398 . S
C1391 C633 1.391 . S
C1405 C132 1.520 . S
C1411 C433 1.549 . S
C1425 C331 1.675 . S
C1431 C799 1.667 . S
C1451 C818 0.511 . S
C1445 C303 0.444 . S
C1471 C360 2.146 1_565 S
C1465 C63 2.160 . S
C1491 C829 2.489 . S
C1485 C107 2.442 . S
C1505 C92 1.744 . S
C1511 C440 1.778 . S
C1525 C78 1.768 . S
C1531 C802 1.733 . S
C1551 C522 1.602 . S
C1545 C8 1.636 . S
C1565 C51 1.784 . S
C1571 C720 1.789 . S
C1591 C578 2.272 1_565 S
C1585 C37 2.241 . S
C1611 C880 2.269 . S
C1605 C20 2.283 . S
C1631 C338 1.947 1_556 S
C1625 C147 1.944 . S
C1651 C833 0.751 . S
C1645 C316 0.736 . S
C1665 C119 1.234 . S
C1671 C418 1.283 . S
C1685 C288 1.563 . S
C1691 C800 1.586 . S
C1705 C148 1.637 . S
C1711 C520 1.638 . S
C1731 C698 0.942 . S
C1725 C315 0.896 . S
C1745 C120 1.003 1_565 S
C1751 C602 0.978 . S
C1765 C287 1.933 . S
C1771 C858 1.936 . S
C1785 C188 1.068 . S
C1791 C362 1.064 . S
C1805 C177 2.012 . S
C1811 C658 2.035 . S
C1825 C258 1.501 . S
C1831 C562 1.513 . S
C1845 C247 1.095 . S
C1851 C760 1.105 . S
C1871 C882 1.253 . S
C1865 C272 1.293 . S
C1885 C216 1.384 . S
C1891 C442 1.401 . S
C1911 C458 1.961 . S
C1905 C261 1.939 . S
C1931 C399 0.495 . S
C1925 C205 0.521 . S
C1945 C76 2.096 . S
C1951 C909 2.106 . S
C1971 C840 2.098 . S
C1965 C93 2.128 . S
C1985 C105 1.525 1_554 S
C1991 C949 1.502 . S
C2005 C62 1.249 1_655 S
C2011 C793 1.281 . S
C2025 C49 1.134 . S
C2031 C673 1.152 . S
C2051 C709 1.941 . S
C2045 C9 1.961 . S
C2071 C759 1.817 . S
C2065 C22 1.814 . S
C2091 C869 2.643 . S
C2085 C36 2.645 . S
C2111 C919 2.041 . S
C2105 C260 2.042 . S
C2125 C189 0.547 . S
C2131 C842 0.535 . S
C2151 C959 1.207 . S
C2145 C204 1.211 . S
C2171 C789 1.240 . S
C2165 C217 1.234 . S
C2191 C669 1.457 1_556 S
C2185 C259 1.451 . S
C2205 C190 0.898 . S
C2211 C719 0.898 . S
C2231 C753 0.796 . S
C2225 C203 0.790 . S
C2245 C218 2.105 . S
C2251 C879 2.106 . S
C2271 C913 1.270 . S
C2265 C314 1.261 . S
C2285 C135 1.773 . S
C2291 C519 1.764 . S
C2311 C553 1.472 . S
C2305 C146 1.441 . S
C2331 C589 1.148 . S
C2325 C163 1.157 . S
C2351 C873 1.397 . S
C2345 C300 1.406 . S
C2365 C286 1.523 . S
C2371 C953 1.553 . S
C2391 C479 1.610 . S
C2385 C149 1.609 . S
C2411 C378 0.440 . S
C2405 C121 0.404 . S
C2425 C91 2.153 . S
C2431 C920 2.144 . S
C2451 C389 2.102 . S
C2445 C77 1.969 . S
C2465 C64 1.739 . S
C2471 C960 1.768 . S
C2485 C104 1.395 . S
C2491 C482 1.421 . S
C2505 C34 1.314 . S
C2511 C682 1.329 . S
C2531 C560 1.775 . S
C2525 C23 1.758 . S
C2545 C7 1.751 . S
C2551 C738 1.896 . S
C2565 C48 2.272 . S
C2571 C640 2.268 . S
C2591 C898 1.913 . S
C2585 C329 1.920 . S
C2605 C162 0.757 . S
C2611 C393 0.737 . S
C2631 C938 1.277 . S
C2625 C301 1.198 . S
C2645 C134 1.587 . S
C2651 C480 1.591 . S
C2665 C330 1.637 . S
C2671 C680 1.660 . S
C2691 C538 0.927 . S
C2685 C161 0.943 . S
C2705 C302 1.015 . S
C2711 C762 1.013 . S
C2731 C618 1.903 . S
C2725 C133 1.904 . S
C2751 C922 1.193 . S
C2745 C244 1.213 . S
C2771 C498 2.013 . S
C2765 C219 1.969 . S
C2785 C230 1.298 . S
C2791 C722 1.321 . S
C2811 C600 1.078 . S
C2805 C191 1.101 . S
C2825 C202 1.426 . S
C2831 C642 1.387 . S
C2845 C174 1.541 . S
C2851 C962 1.565 . S
C2871 C778 1.918 . S
C2865 C233 1.901 . S
C2891 C839 0.451 . S
C2885 C275 0.471 . S
