# Generated by pormake.
# Topology bcu-b, (8,8)-cn, num edge types: 1
# Building blocks:
#     Node 0, Type 0, BuildingBlock: VETTIZ_charged_sbu_0, # of connection points: 8
#     Node 1, Type 1, BuildingBlock: TAGTUT_clean_sbu_1, # of connection points: 8
#     Edge 2, Type (0, 1), BuildingBlock: MIFKUJ_clean_linker_0, # of connection points: 2
#     Edge 3, Type (0, 1), BuildingBlock: MIFKUJ_clean_linker_0, # of connection points: 2
#     Edge 4, Type (0, 1), BuildingBlock: MIFKUJ_clean_linker_0, # of connection points: 2
#     Edge 5, Type (0, 1), BuildingBlock: MIFKUJ_clean_linker_0, # of connection points: 2
#     Edge 6, Type (0, 1), BuildingBlock: MIFKUJ_clean_linker_0, # of connection points: 2
#     Edge 7, Type (0, 1), BuildingBlock: MIFKUJ_clean_linker_0, # of connection points: 2
#     Edge 8, Type (0, 1), BuildingBlock: MIFKUJ_clean_linker_0, # of connection points: 2
#     Edge 9, Type (0, 1), BuildingBlock: MIFKUJ_clean_linker_0, # of connection points: 2
# Relax obj value: 0.029
# Max RMSD: 0.123
# Mean RMSD: 0.086
data_MOF--net-bcu-b--node1-VETTIZ_charged_sbu_0--node2-TAGTUT_clean_sbu_1--edge1-MIFKUJ_clean_linker_0
_symmetry_space_group_name_H-M    P1
_symmetry_Int_Tables_number       1
_symmetry_cell_setting            triclinic
loop_
_symmetry_equiv_pos_as_xyz
'x, y, z'
_cell_length_a     24.977246
_cell_length_b     24.137474
_cell_length_c     26.06589
_cell_angle_alpha  89.619722
_cell_angle_beta   91.400394
_cell_angle_gamma 98.622858
loop_
_atom_site_label
_atom_site_type_symbol
_atom_site_fract_x
_atom_site_fract_y
_atom_site_fract_z
_atom_type_partial_charge
Fe0 Fe 0.0311 0.88201 0.00876 0.0
O1 O 0.03643 0.96374 0.00353 0.0
Fe2 Fe 0.99738 0.99724 0.94093 0.0
Fe3 Fe 0.01311 0.01116 0.05889 0.0
O4 O 0.03596 0.96326 -0.00158 0.0
O5 O 0.97378 0.04452 0.99627 0.0
O6 O 0.97437 0.04509 0.00141 0.0
Fe7 Fe 0.97933 0.12624 0.98981 0.0
C8 C 0.94093 0.90243 0.08064 0.0
O9 O 0.09208 0.90306 0.06276 0.0
O10 O 0.05853 0.96908 0.11182 0.0
O11 O 0.02893 0.13191 0.92688 0.0
O12 O 0.06615 0.05392 0.9289 0.0
O13 O 0.02867 0.94257 0.8904 0.0
O14 O 0.07646 0.88931 0.94361 0.0
O15 O 0.08215 0.0681 0.04962 0.0
O16 O 0.04671 0.14663 0.03676 0.0
C17 C 0.0627 0.90708 0.89867 0.0
O18 O 0.91638 0.10357 0.93821 0.0
O19 O 0.95134 0.03932 0.8881 0.0
O20 O 0.97848 0.87475 0.06903 0.0
O21 O 0.94408 0.95466 0.07147 0.0
C22 C 0.09168 0.93323 0.10371 0.0
C23 C 0.08558 0.12119 0.05124 0.0
C24 C 0.94981 0.10257 0.10156 0.0
O25 O 0.98283 0.0661 0.10942 0.0
O26 O 0.93641 0.12127 0.05686 0.0
C27 C 0.06685 0.10467 0.91538 0.0
O28 O 0.92865 0.93984 0.94971 0.0
O29 O 0.96606 0.86227 0.95908 0.0
C30 C 0.91672 0.07352 0.89712 0.0
C31 C 0.92674 0.88718 0.94502 0.0
C32 C 0.35191 0.63302 0.53993 0.0
C33 C 0.42433 0.62613 0.39618 0.0
C34 C 0.4248 0.40571 0.43653 0.0
Mg35 Mg 0.47027 0.63267 0.50548 0.0
O36 O 0.44979 0.556 0.51787 0.0
Mg37 Mg 0.38369 0.51926 0.47921 0.0
Mg38 Mg 0.50223 0.50566 0.49799 0.0
O39 O 0.55499 0.45605 0.47755 0.0
Mg40 Mg 0.53619 0.37881 0.48863 0.0
Mg41 Mg 0.62234 0.49413 0.51363 0.0
C42 C 0.58037 0.60536 0.55937 0.0
C43 C 0.5907 0.57894 0.42419 0.0
O44 O 0.33809 0.58371 0.52078 0.0
O45 O 0.40062 0.65896 0.53914 0.0
O46 O 0.39435 0.58133 0.41072 0.0
O47 O 0.46273 0.65038 0.42494 0.0
O48 O 0.54953 0.64083 0.54433 0.0
O49 O 0.56766 0.55231 0.55168 0.0
C50 C 0.41183 0.43735 0.57315 0.0
O51 O 0.46247 0.44585 0.56231 0.0
O52 O 0.37682 0.46049 0.54736 0.0
O53 O 0.66756 0.43191 0.46819 0.0
O54 O 0.60535 0.3557 0.45151 0.0
O55 O 0.6159 0.43 0.57987 0.0
C56 C 0.65355 0.38265 0.44892 0.0
O57 O 0.54909 0.35871 0.56845 0.0
O58 O 0.4557 0.37005 0.45112 0.0
C59 C 0.5887 0.38402 0.59522 0.0
O60 O 0.43779 0.45867 0.44453 0.0
O61 O 0.54021 0.56593 0.43391 0.0
O62 O 0.62731 0.55691 0.44858 0.0
H63 H 0.1554 0.08265 0.12052 0.0
H64 H 0.21437 0.13918 0.18271 0.0
H65 H 0.17807 0.29022 0.10928 0.0
H66 H 0.11892 0.23409 0.04684 0.0
H67 H 0.28723 0.29781 0.15102 0.0
H68 H 0.10231 0.24427 0.19789 0.0
H69 H 0.01999 0.17592 0.20865 0.0
H70 H 0.10215 0.08761 0.32205 0.0
H71 H 0.18578 0.15499 0.31107 0.0
H72 H 0.36936 0.46425 0.36804 0.0
H73 H 0.30522 0.42375 0.30083 0.0
H74 H 0.30894 0.25878 0.36429 0.0
H75 H 0.37179 0.29882 0.43178 0.0
H76 H 0.21049 0.26646 0.32469 0.0
H77 H 0.39693 0.31182 0.27094 0.0
H78 H 0.48199 0.37604 0.25721 0.0
H79 H 0.39778 0.47724 0.15669 0.0
H80 H 0.31206 0.4139 0.17036 0.0
C81 C 0.16133 0.12783 0.11646 0.0
C82 C 0.13173 0.15395 0.07936 0.0
C83 C 0.19491 0.16007 0.15215 0.0
C84 C 0.19957 0.21876 0.15106 0.0
C85 C 0.17466 0.24497 0.11087 0.0
C86 C 0.14071 0.21279 0.0754 0.0
C87 C 0.22376 0.25205 0.19555 0.0
C88 C 0.27016 0.2916 0.18887 0.0
C89 C 0.2013 0.24367 0.24485 0.0
C90 C 0.15055 0.20434 0.25319 0.0
C91 C 0.1031 0.2099 0.22467 0.0
C92 C 0.05619 0.17117 0.23068 0.0
C93 C 0.05582 0.12708 0.2657 0.0
C94 C 0.10249 0.12173 0.29486 0.0
C95 C 0.14971 0.16019 0.28874 0.0
C96 C 0.35514 0.41959 0.3686 0.0
C97 C 0.37644 0.38456 0.40456 0.0
C98 C 0.31883 0.39646 0.32995 0.0
C99 C 0.3035 0.33808 0.32678 0.0
C100 C 0.3206 0.30385 0.36565 0.0
C101 C 0.35676 0.32683 0.40413 0.0
C102 C 0.2749 0.31159 0.28057 0.0
C103 C 0.22737 0.27326 0.28681 0.0
C104 C 0.29649 0.32094 0.2309 0.0
C105 C 0.34806 0.35854 0.2221 0.0
C106 C 0.39654 0.34795 0.24614 0.0
C107 C 0.44485 0.38416 0.23835 0.0
C108 C 0.44526 0.43079 0.20622 0.0
C109 C 0.39738 0.44117 0.18164 0.0
C110 C 0.34893 0.40513 0.18937 0.0
H111 H 0.48269 0.4588 0.20026 0.0
H112 H 0.0193 0.09733 0.27047 0.0
H113 H 0.93176 0.20984 0.1098 0.0
H114 H 0.89468 0.25403 0.18205 0.0
H115 H 0.88265 0.09916 0.26729 0.0
H116 H 0.92141 0.05456 0.19495 0.0
H117 H 0.78242 0.15281 0.25114 0.0
H118 H 0.96274 0.19823 0.33457 0.0
H119 H 0.0609 0.23326 0.33679 0.0
H120 H 0.03179 0.38464 0.26078 0.0
H121 H 0.93327 0.35132 0.25997 0.0
H122 H 0.66365 0.27287 0.45501 0.0
H123 H 0.72436 0.22294 0.40746 0.0
H124 H 0.79347 0.37798 0.33535 0.0
H125 H 0.7345 0.42873 0.38553 0.0
H126 H 0.86959 0.31745 0.35143 0.0
H127 H 0.69048 0.27926 0.27642 0.0
H128 H 0.59169 0.24873 0.2749 0.0
H129 H 0.61586 0.08435 0.32523 0.0
H130 H 0.71481 0.11413 0.32771 0.0
C131 C 0.9215 0.18514 0.14399 0.0
C132 C 0.92875 0.12852 0.14655 0.0
C133 C 0.90098 0.21069 0.18545 0.0
C134 C 0.88644 0.18 0.23005 0.0
C135 C 0.89419 0.12359 0.23324 0.0
C136 C 0.91599 0.09816 0.19196 0.0
C137 C 0.8573 0.20576 0.27011 0.0
C138 C 0.80158 0.1879 0.27417 0.0
C139 C 0.88198 0.25289 0.2983 0.0
C140 C 0.94095 0.27219 0.29689 0.0
C141 C 0.97739 0.23892 0.31825 0.0
C142 C 0.03297 0.25867 0.31967 0.0
C143 C 0.0526 0.31097 0.29865 0.0
C144 C 0.01657 0.34406 0.27691 0.0
C145 C 0.96084 0.32502 0.2764 0.0
C146 C 0.69222 0.29636 0.42937 0.0
C147 C 0.69405 0.35447 0.42336 0.0
C148 C 0.72671 0.26775 0.40199 0.0
C149 C 0.7624 0.29629 0.36654 0.0
C150 C 0.766 0.3549 0.36217 0.0
C151 C 0.73233 0.38389 0.39072 0.0
C152 C 0.79419 0.26459 0.33278 0.0
C153 C 0.85027 0.28172 0.32933 0.0
C154 C 0.7695 0.21715 0.3044 0.0
C155 C 0.71001 0.19911 0.30279 0.0
C156 C 0.6747 0.23672 0.28752 0.0
C157 C 0.61868 0.21954 0.28643 0.0
C158 C 0.59751 0.16468 0.3001 0.0
C159 C 0.63232 0.12685 0.31474 0.0
C160 C 0.68836 0.14385 0.31597 0.0
H161 H 0.55413 0.15146 0.29924 0.0
H162 H 0.09571 0.32585 0.29926 0.0
H163 H 0.90559 0.79028 0.08085 0.0
H164 H 0.83159 0.73884 0.12885 0.0
H165 H 0.79457 0.89414 0.18982 0.0
H166 H 0.86817 0.9463 0.14044 0.0
H167 H 0.82572 0.72931 0.22562 0.0
H168 H 0.65977 0.87594 0.2269 0.0
H169 H 0.62141 0.9418 0.16893 0.0
H170 H 0.67585 0.8602 0.03833 0.0
H171 H 0.71368 0.79325 0.0954 0.0
H172 H 0.67318 0.66321 0.43654 0.0
H173 H 0.71775 0.72404 0.3704 0.0
H174 H 0.59718 0.65254 0.25865 0.0
H175 H 0.55098 0.59218 0.32598 0.0
H176 H 0.63693 0.76782 0.23954 0.0
H177 H 0.70646 0.59608 0.26744 0.0
H178 H 0.73934 0.52199 0.3197 0.0
H179 H 0.87212 0.64072 0.37742 0.0
H180 H 0.83951 0.71575 0.3261 0.0
C181 C 0.88149 0.81367 0.10414 0.0
C182 C 0.89324 0.87239 0.10729 0.0
C183 C 0.83902 0.78413 0.13152 0.0
C184 C 0.80732 0.8124 0.16311 0.0
C185 C 0.81784 0.87129 0.16521 0.0
C186 C 0.86016 0.90108 0.1372 0.0
C187 C 0.76694 0.77962 0.19711 0.0
C188 C 0.78444 0.73781 0.22824 0.0
C189 C 0.71257 0.78967 0.20023 0.0
C190 C 0.69016 0.82996 0.16556 0.0
C191 C 0.66346 0.87195 0.18582 0.0
C192 C 0.64177 0.90947 0.1531 0.0
C193 C 0.64637 0.90532 0.1 0.0
C194 C 0.67253 0.86353 0.07949 0.0
C195 C 0.69419 0.82584 0.11202 0.0
C196 C 0.65538 0.66139 0.39813 0.0
C197 C 0.60929 0.62247 0.38599 0.0
C198 C 0.68084 0.6962 0.36039 0.0
C199 C 0.66157 0.69186 0.30938 0.0
C200 C 0.61286 0.6563 0.29779 0.0
C201 C 0.58659 0.62185 0.3361 0.0
C202 C 0.69658 0.71903 0.26827 0.0
C203 C 0.6782 0.75953 0.23622 0.0
C204 C 0.74987 0.70686 0.26299 0.0
C205 C 0.77033 0.66162 0.29316 0.0
C206 C 0.74251 0.60645 0.29148 0.0
C207 C 0.7611 0.56428 0.32093 0.0
C208 C 0.80774 0.57666 0.35192 0.0
C209 C 0.83598 0.6312 0.3534 0.0
C210 C 0.8175 0.67356 0.32409 0.0
H211 H 0.82203 0.54396 0.37473 0.0
H212 H 0.62955 0.9344 0.07474 0.0
H213 H 0.07264 0.85026 0.17276 0.0
H214 H 0.14036 0.81024 0.22409 0.0
H215 H 0.26356 0.94418 0.17592 0.0
H216 H 0.1953 0.98314 0.1228 0.0
H217 H 0.29916 0.85028 0.16378 0.0
H218 H 0.22417 0.92896 0.30527 0.0
H219 H 0.15323 0.95499 0.36051 0.0
H220 H 0.09501 0.78116 0.38833 0.0
H221 H 0.16546 0.754 0.33318 0.0
H222 H 0.47078 0.72771 0.35682 0.0
H223 H 0.42406 0.79125 0.30446 0.0
H224 H 0.28637 0.66165 0.28582 0.0
H225 H 0.33263 0.5976 0.33694 0.0
H226 H 0.2703 0.76887 0.3379 0.0
H227 H 0.34677 0.6959 0.18594 0.0
H228 H 0.42375 0.67677 0.13486 0.0
H229 H 0.48772 0.85212 0.13396 0.0
H230 H 0.41132 0.87219 0.18556 0.0
C231 C 0.11378 0.87227 0.17484 0.0
C232 C 0.12873 0.92039 0.14512 0.0
C233 C 0.15263 0.84936 0.20407 0.0
C234 C 0.20725 0.87443 0.20453 0.0
C235 C 0.22176 0.92415 0.17642 0.0
C236 C 0.18275 0.94685 0.14672 0.0
C237 C 0.2491 0.84538 0.23056 0.0
C238 C 0.29338 0.83359 0.20231 0.0
C239 C 0.24207 0.82349 0.28089 0.0
C240 C 0.20001 0.83945 0.31484 0.0
C241 C 0.19614 0.89626 0.32305 0.0
C242 C 0.15607 0.91122 0.35445 0.0
C243 C 0.11967 0.86974 0.378 0.0
C244 C 0.12339 0.81323 0.3703 0.0
C245 C 0.16349 0.79803 0.33908 0.0
C246 C 0.43133 0.712 0.34011 0.0
C247 C 0.40514 0.65773 0.352 0.0
C248 C 0.40463 0.74854 0.3104 0.0
C249 C 0.35145 0.73134 0.29223 0.0
C250 C 0.32724 0.67579 0.30004 0.0
C251 C 0.35403 0.63911 0.32908 0.0
C252 C 0.31851 0.77232 0.27034 0.0
C253 C 0.27623 0.78646 0.29968 0.0
C254 C 0.32834 0.79748 0.22176 0.0
C255 C 0.37368 0.78546 0.19006 0.0
C256 C 0.37747 0.73031 0.17519 0.0
C257 C 0.42093 0.71932 0.14605 0.0
C258 C 0.46069 0.76318 0.1313 0.0
C259 C 0.45692 0.81818 0.14546 0.0
C260 C 0.41351 0.82939 0.17458 0.0
H261 H 0.49435 0.75458 0.10881 0.0
H262 H 0.08858 0.88139 0.40219 0.0
H263 H 0.09247 0.80396 0.89587 0.0
H264 H 0.13238 0.76005 0.82579 0.0
H265 H 0.12215 0.90484 0.73021 0.0
H266 H 0.0805 0.94927 0.80083 0.0
H267 H 0.09813 0.80588 0.67572 0.0
H268 H 0.24066 0.89092 0.78796 0.0
H269 H 0.28798 0.91334 0.87105 0.0
H270 H 0.29857 0.73919 0.89559 0.0
H271 H 0.25058 0.71561 0.81296 0.0
H272 H 0.35063 0.74504 0.54737 0.0
H273 H 0.28984 0.79247 0.59781 0.0
H274 H 0.20201 0.63258 0.64223 0.0
H275 H 0.26175 0.58458 0.59037 0.0
H276 H 0.27535 0.74459 0.71702 0.0
H277 H 0.11718 0.6624 0.60764 0.0
H278 H 0.07211 0.64489 0.52279 0.0
H279 H 0.09797 0.82147 0.49051 0.0
H280 H 0.14404 0.8398 0.57493 0.0
C281 C 0.09876 0.82681 0.86007 0.0
C282 C 0.08455 0.88075 0.85427 0.0
C283 C 0.12147 0.80147 0.81995 0.0
C284 C 0.13141 0.82968 0.77323 0.0
C285 C 0.11512 0.88255 0.76619 0.0
C286 C 0.0916 0.90793 0.8065 0.0
C287 C 0.16134 0.80433 0.73335 0.0
C288 C 0.1371 0.79301 0.68461 0.0
C289 C 0.21221 0.78737 0.7449 0.0
C290 C 0.24167 0.80147 0.7944 0.0
C291 C 0.25278 0.85736 0.81121 0.0
C292 C 0.27976 0.87028 0.85822 0.0
C293 C 0.29619 0.82771 0.88862 0.0
C294 C 0.2858 0.77213 0.87201 0.0
C295 C 0.25877 0.75897 0.82506 0.0
C296 C 0.31765 0.71996 0.56699 0.0
C297 C 0.311 0.6611 0.56516 0.0
C298 C 0.28282 0.74714 0.59546 0.0
C299 C 0.24109 0.71599 0.62295 0.0
C300 C 0.23327 0.65727 0.62017 0.0
C301 C 0.26751 0.62996 0.59079 0.0
C302 C 0.21142 0.74478 0.66028 0.0
C303 C 0.23626 0.75737 0.70836 0.0
C304 C 0.16167 0.76328 0.64792 0.0
C305 C 0.13475 0.75232 0.5971 0.0
C306 C 0.11398 0.69735 0.58209 0.0
C307 C 0.08807 0.68731 0.53419 0.0
C308 C 0.08238 0.73201 0.50118 0.0
C309 C 0.10258 0.78686 0.51602 0.0
C310 C 0.12857 0.79709 0.56388 0.0
H311 H 0.06203 0.72411 0.46425 0.0
H312 H 0.31704 0.83779 0.92502 0.0
H313 H 0.16606 0.07235 0.89884 0.0
H314 H 0.23793 0.11841 0.84355 0.0
H315 H 0.13853 0.24381 0.80181 0.0
H316 H 0.06724 0.19891 0.85708 0.0
H317 H 0.18479 0.19586 0.71729 0.0
H318 H 0.23541 0.2761 0.8853 0.0
H319 H 0.26044 0.27012 0.97705 0.0
H320 H 0.39857 0.19352 0.93845 0.0
H321 H 0.37375 0.19815 0.84642 0.0
H322 H 0.31977 0.44033 0.62472 0.0
H323 H 0.27676 0.3728 0.68596 0.0
H324 H 0.41228 0.28155 0.68114 0.0
H325 H 0.45637 0.35001 0.61879 0.0
H326 H 0.36115 0.29323 0.78548 0.0
H327 H 0.31726 0.22643 0.61547 0.0
H328 H 0.29214 0.23593 0.52412 0.0
H329 H 0.14149 0.28634 0.56619 0.0
H330 H 0.16617 0.27826 0.65784 0.0
C331 C 0.15961 0.10979 0.87791 0.0
C332 C 0.11092 0.13202 0.88249 0.0
C333 C 0.20072 0.13606 0.84645 0.0
C334 C 0.1935 0.18449 0.81861 0.0
C335 C 0.14486 0.2064 0.82288 0.0
C336 C 0.10423 0.18078 0.85474 0.0
C337 C 0.23603 0.21297 0.78464 0.0
C338 C 0.22345 0.21687 0.73215 0.0
C339 C 0.28714 0.23897 0.80382 0.0
C340 C 0.30232 0.23676 0.85905 0.0
C341 C 0.27082 0.25748 0.8964 0.0
C342 C 0.28501 0.25443 0.94845 0.0
C343 C 0.33096 0.23129 0.96358 0.0
C344 C 0.36291 0.21131 0.92668 0.0
C345 C 0.3488 0.21413 0.87457 0.0
C346 C 0.34102 0.40633 0.63685 0.0
C347 C 0.3912 0.40004 0.61605 0.0
C348 C 0.31633 0.36784 0.67212 0.0
C349 C 0.3409 0.32176 0.68748 0.0
C350 C 0.39263 0.31686 0.66957 0.0
C351 C 0.41772 0.35589 0.63397 0.0
C352 C 0.3091 0.27725 0.71848 0.0
C353 C 0.32333 0.27059 0.77033 0.0
C354 C 0.25945 0.24828 0.69876 0.0
C355 C 0.24372 0.25195 0.64361 0.0
C356 C 0.27891 0.23986 0.60527 0.0
C357 C 0.26475 0.24499 0.55342 0.0
C358 C 0.21527 0.26176 0.53936 0.0
C359 C 0.1798 0.27332 0.57714 0.0
C360 C 0.19383 0.26841 0.62906 0.0
H361 H 0.20439 0.26575 0.4992 0.0
H362 H 0.3419 0.22897 0.0039 0.0
H363 H 0.80762 0.04917 0.90085 0.0
H364 H 0.74222 0.09237 0.84804 0.0
H365 H 0.87213 0.17129 0.75441 0.0
H366 H 0.93737 0.12683 0.80638 0.0
H367 H 0.80555 0.24334 0.81441 0.0
H368 H 0.7899 0.08611 0.69644 0.0
H369 H 0.77032 0.9857 0.67485 0.0
H370 H 0.60877 0.9783 0.72986 0.0
H371 H 0.62766 0.07857 0.75253 0.0
H372 H 0.69212 0.40353 0.63208 0.0
H373 H 0.73863 0.34249 0.68459 0.0
H374 H 0.58778 0.23329 0.70844 0.0
H375 H 0.54105 0.29281 0.65124 0.0
H376 H 0.65672 0.17106 0.69202 0.0
H377 H 0.66426 0.32262 0.80774 0.0
H378 H 0.67847 0.42072 0.83719 0.0
H379 H 0.84668 0.4365 0.80032 0.0
H380 H 0.83339 0.33875 0.77 0.0
C381 C 0.82166 0.07365 0.86748 0.0
C382 C 0.87717 0.08409 0.85694 0.0
C383 C 0.78443 0.09851 0.8376 0.0
C384 C 0.80244 0.13506 0.79748 0.0
C385 C 0.8575 0.1429 0.78506 0.0
C386 C 0.8946 0.11714 0.81435 0.0
C387 C 0.76561 0.17112 0.77358 0.0
C388 C 0.77335 0.22789 0.78711 0.0
C389 C 0.72175 0.14994 0.74055 0.0
C390 C 0.71041 0.08974 0.7267 0.0
C391 C 0.75039 0.06297 0.70445 0.0
C392 C 0.73937 0.0061 0.69189 0.0
C393 C 0.68838 0.97562 0.70109 0.0
C394 C 0.64827 1.00197 0.72281 0.0
C395 C 0.65909 0.05882 0.73547 0.0
C396 C 0.66818 0.36737 0.64935 0.0
C397 C 0.61254 0.35343 0.63755 0.0
C398 C 0.69509 0.3323 0.67991 0.0
C399 C 0.66693 0.28347 0.70182 0.0
C400 C 0.61068 0.27066 0.69217 0.0
C401 C 0.58381 0.30504 0.65994 0.0
C402 C 0.69748 0.24452 0.73142 0.0
C403 C 0.68848 0.18696 0.71954 0.0
C404 C 0.73932 0.26462 0.76747 0.0
C405 C 0.74771 0.32333 0.78635 0.0
C406 C 0.70423 0.34706 0.80569 0.0
C407 C 0.71213 0.40263 0.82255 0.0
C408 C 0.76342 0.43484 0.82056 0.0
C409 C 0.80697 0.4115 0.80186 0.0
C410 C 0.7993 0.35597 0.78493 0.0
H411 H 0.76943 0.47787 0.83356 0.0
H412 H 0.67989 0.93166 0.69121 0.0
H413 H 0.90004 0.77376 0.93938 0.0
H414 H 0.84231 0.72076 0.87429 0.0
H415 H 0.79818 0.87451 0.81284 0.0
H416 H 0.85551 0.928 0.87827 0.0
H417 H 0.71356 0.79221 0.81018 0.0
H418 H 0.89798 0.81645 0.75996 0.0
H419 H 0.99585 0.81224 0.76809 0.0
H420 H 0.96297 0.63299 0.78076 0.0
H421 H 0.86478 0.63616 0.7735 0.0
H422 H 0.63254 0.71242 0.56209 0.0
H423 H 0.69594 0.75422 0.62847 0.0
H424 H 0.70122 0.59107 0.695 0.0
H425 H 0.63696 0.54845 0.62846 0.0
H426 H 0.80523 0.6733 0.69648 0.0
H427 H 0.61624 0.65485 0.74264 0.0
H428 H 0.52073 0.66619 0.72691 0.0
H429 H 0.56648 0.84447 0.71495 0.0
H430 H 0.66239 0.83402 0.72975 0.0
C431 C 0.87725 0.79628 0.91264 0.0
C432 C 0.88289 0.85514 0.91355 0.0
C433 C 0.84456 0.76592 0.87528 0.0
C434 C 0.81722 0.79386 0.83795 0.0
C435 C 0.81942 0.85223 0.84108 0.0
C436 C 0.852 0.88271 0.87865 0.0
C437 C 0.78852 0.7625 0.79429 0.0
C438 C 0.73374 0.76653 0.78519 0.0
C439 C 0.81487 0.72863 0.76188 0.0
C440 C 0.87393 0.72659 0.76677 0.0
C441 C 0.91156 0.77616 0.76501 0.0
C442 C 0.96712 0.77397 0.76937 0.0
C443 C 0.98561 0.72239 0.77505 0.0
C444 C 0.94857 0.67291 0.77643 0.0
C445 C 0.89296 0.67488 0.77218 0.0
C446 C 0.64806 0.6851 0.59008 0.0
C447 C 0.62889 0.62726 0.59073 0.0
C448 C 0.68435 0.70912 0.62792 0.0
C449 C 0.70219 0.6758 0.66704 0.0
C450 C 0.68749 0.61738 0.66511 0.0
C451 C 0.65091 0.59313 0.62707 0.0
C452 C 0.73051 0.70309 0.71273 0.0
C453 C 0.78512 0.69846 0.72201 0.0
C454 C 0.70438 0.73731 0.7448 0.0
C455 C 0.64656 0.7436 0.73674 0.0
C456 C 0.60598 0.69641 0.73621 0.0
C457 C 0.55176 0.70268 0.72753 0.0
C458 C 0.53754 0.756 0.71978 0.0
C459 C 0.57752 0.80318 0.72086 0.0
C460 C 0.63182 0.79711 0.72941 0.0
H461 H 0.49554 0.76076 0.71307 0.0
H462 H 0.02861 0.72071 0.77818 0.0
loop_
_geom_bond_atom_site_label_1
_geom_bond_atom_site_label_2
_geom_bond_distance
_geom_bond_site_symmetry_2
_ccdc_geom_bond_type
Fe0 O1 1.892 . S
Fe0 O4 1.708 1_554 S
Fe0 O9 2.083 1_655 S
Fe0 O14 1.930 1_654 S
Fe0 O20 2.083 . S
Fe0 O29 1.930 1_554 S
O1 Fe0 1.892 . S
O1 Fe3 1.715 1_665 S
Fe2 O4 1.886 . S
Fe2 O5 1.715 1_665 S
Fe2 O12 1.935 1_665 S
Fe2 O13 2.077 1_655 S
Fe2 O19 1.935 1_565 S
Fe2 O28 2.077 . S
Fe3 O1 1.715 1_445 S
Fe3 O6 1.886 . S
Fe3 O10 1.935 1_545 S
Fe3 O15 2.077 . S
Fe3 O21 1.935 1_445 S
Fe3 O25 2.077 1_455 S
O4 Fe0 1.708 1_556 S
O4 Fe2 1.886 . S
O5 Fe2 1.715 1_445 S
O5 Fe7 1.888 . S
O6 Fe3 1.886 . S
O6 Fe7 1.712 1_554 S
Fe7 O5 1.888 . S
Fe7 O6 1.712 1_556 S
Fe7 O11 2.080 . S
Fe7 O16 1.933 1_556 S
Fe7 O18 2.080 1_455 S
Fe7 O26 1.933 1_456 S
C8 O20 1.381 . S
C8 O21 1.421 . S
O9 Fe0 2.083 1_455 S
O9 C22 1.381 . S
O10 Fe3 1.935 1_565 S
O10 C22 1.421 . S
O11 Fe7 2.080 . S
O11 C27 1.381 . S
O12 Fe2 1.935 1_445 S
O12 C27 1.421 . S
O13 Fe2 2.077 1_455 S
O13 C17 1.381 . S
O14 Fe0 1.930 1_456 S
O14 C17 1.421 . S
O15 Fe3 2.077 . S
O15 C23 1.381 . S
O16 Fe7 1.933 1_554 S
O16 C23 1.421 . S
C17 O13 1.381 . S
C17 O14 1.421 . S
O18 Fe7 2.080 1_655 S
O18 C30 1.381 . S
O19 Fe2 1.935 1_545 S
O19 C30 1.421 . S
O20 Fe0 2.083 . S
O20 C8 1.381 . S
O21 Fe3 1.935 1_665 S
O21 C8 1.421 . S
C22 O9 1.381 . S
C22 O10 1.421 . S
C23 O15 1.381 . S
C23 O16 1.421 . S
C24 O25 1.381 . S
C24 O26 1.421 . S
O25 Fe3 2.077 1_655 S
O25 C24 1.381 . S
O26 Fe7 1.933 1_654 S
O26 C24 1.421 . S
C27 O11 1.381 . S
C27 O12 1.421 . S
O28 Fe2 2.077 . S
O28 C31 1.381 . S
O29 Fe0 1.930 1_556 S
O29 C31 1.421 . S
C30 O18 1.381 . S
C30 O19 1.421 . S
C31 O28 1.381 . S
C31 O29 1.421 . S
C32 O44 1.241 . S
C32 O45 1.280 . S
C33 O46 1.277 . S
C33 O47 1.245 . S
C34 O58 1.247 . S
C34 O60 1.289 . S
Mg35 O36 1.926 . S
Mg35 O45 1.984 . S
Mg35 O47 1.988 . S
Mg35 O48 2.061 . S
O36 Mg35 1.926 . S
O36 Mg37 1.986 . S
O36 Mg38 1.917 . S
Mg37 O36 1.986 . S
Mg37 O44 2.042 . S
Mg37 O46 2.041 . S
Mg37 O52 2.038 . S
Mg37 O60 2.238 . S
Mg38 O36 1.917 . S
Mg38 O39 1.917 . S
Mg38 O49 2.106 . S
Mg38 O51 2.079 . S
Mg38 O60 2.106 . S
Mg38 O61 2.079 . S
O39 Mg38 1.917 . S
O39 Mg40 1.926 . S
O39 Mg41 1.986 . S
Mg40 O39 1.926 . S
Mg40 O54 1.984 . S
Mg40 O57 1.988 . S
Mg40 O58 2.061 . S
Mg41 O39 1.986 . S
Mg41 O49 2.238 . S
Mg41 O53 2.042 . S
Mg41 O55 2.041 . S
Mg41 O62 2.038 . S
C42 O48 1.247 . S
C42 O49 1.289 . S
C43 O61 1.245 . S
C43 O62 1.274 . S
O44 C32 1.241 . S
O44 Mg37 2.042 . S
O45 C32 1.280 . S
O45 Mg35 1.984 . S
O46 C33 1.277 . S
O46 Mg37 2.041 . S
O47 C33 1.245 . S
O47 Mg35 1.988 . S
O48 Mg35 2.061 . S
O48 C42 1.247 . S
O49 Mg38 2.106 . S
O49 Mg41 2.238 . S
O49 C42 1.289 . S
C50 O51 1.245 . S
C50 O52 1.274 . S
O51 Mg38 2.079 . S
O51 C50 1.245 . S
O52 Mg37 2.038 . S
O52 C50 1.274 . S
O53 Mg41 2.042 . S
O53 C56 1.241 . S
O54 Mg40 1.984 . S
O54 C56 1.280 . S
O55 Mg41 2.041 . S
O55 C59 1.277 . S
C56 O53 1.241 . S
C56 O54 1.280 . S
O57 Mg40 1.988 . S
O57 C59 1.245 . S
O58 C34 1.247 . S
O58 Mg40 2.061 . S
C59 O55 1.277 . S
C59 O57 1.245 . S
O60 C34 1.289 . S
O60 Mg37 2.238 . S
O60 Mg38 2.106 . S
O61 Mg38 2.079 . S
O61 C43 1.245 . S
O62 Mg41 2.038 . S
O62 C43 1.274 . S
H63 C81 0.951 . S
H64 C83 0.951 . S
H65 C85 0.950 . S
H66 C86 0.950 . S
H67 C88 0.950 . S
H68 C91 0.950 . S
H69 C92 0.950 . S
H70 C94 0.950 . S
H71 C95 0.950 . S
H72 C96 0.951 . S
H73 C98 0.951 . S
H74 C100 0.950 . S
H75 C101 0.950 . S
H76 C103 0.950 . S
H77 C106 0.950 . S
H78 C107 0.950 . S
H79 C109 0.950 . S
H80 C110 0.950 . S
C81 H63 0.951 . S
C81 C82 1.366 . S
C81 C83 1.388 . S
C82 C81 1.366 . S
C82 C86 1.385 . S
C83 H64 0.951 . S
C83 C81 1.388 . S
C83 C84 1.366 . S
C84 C83 1.366 . S
C84 C85 1.414 . S
C84 C87 1.499 . S
C85 H65 0.950 . S
C85 C84 1.414 . S
C85 C86 1.374 . S
C86 H66 0.950 . S
C86 C82 1.385 . S
C86 C85 1.374 . S
C87 C84 1.499 . S
C87 C88 1.373 . S
C87 C89 1.389 . S
C88 H67 0.950 . S
C88 C87 1.373 . S
C88 C104 1.377 . S
C89 C87 1.389 . S
C89 C90 1.524 . S
C89 C103 1.377 . S
C90 C89 1.524 . S
C90 C91 1.397 . S
C90 C95 1.363 . S
C91 H68 0.950 . S
C91 C90 1.397 . S
C91 C92 1.334 . S
C92 H69 0.950 . S
C92 C91 1.334 . S
C92 C93 1.287 . S
C93 C92 1.287 . S
C93 C94 1.524 . S
C93 H112 0.913 . S
C94 H70 0.950 . S
C94 C93 1.524 . S
C94 C95 1.415 . S
C95 H71 0.950 . S
C95 C90 1.363 . S
C95 C94 1.415 . S
C96 H72 0.951 . S
C96 C97 1.366 . S
C96 C98 1.388 . S
C97 C96 1.366 . S
C97 C101 1.385 . S
C98 H73 0.951 . S
C98 C96 1.388 . S
C98 C99 1.366 . S
C99 C98 1.366 . S
C99 C100 1.414 . S
C99 C102 1.499 . S
C100 H74 0.950 . S
C100 C99 1.414 . S
C100 C101 1.374 . S
C101 H75 0.950 . S
C101 C97 1.385 . S
C101 C100 1.374 . S
C102 C99 1.499 . S
C102 C103 1.373 . S
C102 C104 1.389 . S
C103 H76 0.950 . S
C103 C89 1.377 . S
C103 C102 1.373 . S
C104 C88 1.377 . S
C104 C102 1.389 . S
C104 C105 1.524 . S
C105 C104 1.524 . S
C105 C106 1.397 . S
C105 C110 1.363 . S
C106 H77 0.950 . S
C106 C105 1.397 . S
C106 C107 1.334 . S
C107 H78 0.950 . S
C107 C106 1.334 . S
C107 C108 1.287 . S
C108 C107 1.287 . S
C108 C109 1.524 . S
C108 H111 0.999 . S
C109 H79 0.950 . S
C109 C108 1.524 . S
C109 C110 1.415 . S
C110 H80 0.950 . S
C110 C105 1.363 . S
C110 C109 1.415 . S
H111 C108 0.999 . S
H112 C93 0.913 . S
H113 C131 0.951 . S
H114 C133 0.951 . S
H115 C135 0.950 . S
H116 C136 0.950 . S
H117 C138 0.950 . S
H118 C141 0.950 . S
H119 C142 0.950 . S
H120 C144 0.950 . S
H121 C145 0.950 . S
H122 C146 0.951 . S
H123 C148 0.951 . S
H124 C150 0.950 . S
H125 C151 0.950 . S
H126 C153 0.950 . S
H127 C156 0.950 . S
H128 C157 0.950 . S
H129 C159 0.950 . S
H130 C160 0.950 . S
C131 H113 0.951 . S
C131 C132 1.366 . S
C131 C133 1.388 . S
C132 C131 1.366 . S
C132 C136 1.385 . S
C133 H114 0.951 . S
C133 C131 1.388 . S
C133 C134 1.366 . S
C134 C133 1.366 . S
C134 C135 1.414 . S
C134 C137 1.499 . S
C135 H115 0.950 . S
C135 C134 1.414 . S
C135 C136 1.374 . S
C136 H116 0.950 . S
C136 C132 1.385 . S
C136 C135 1.374 . S
C137 C134 1.499 . S
C137 C138 1.373 . S
C137 C139 1.389 . S
C138 H117 0.950 . S
C138 C137 1.373 . S
C138 C154 1.377 . S
C139 C137 1.389 . S
C139 C140 1.524 . S
C139 C153 1.377 . S
C140 C139 1.524 . S
C140 C141 1.397 . S
C140 C145 1.363 . S
C141 H118 0.950 . S
C141 C140 1.397 . S
C141 C142 1.334 . S
C142 H119 0.950 . S
C142 C141 1.334 . S
C142 C143 1.287 . S
C143 C142 1.287 . S
C143 C144 1.524 . S
C143 H162 0.913 . S
C144 H120 0.950 . S
C144 C143 1.524 . S
C144 C145 1.415 . S
C145 H121 0.950 . S
C145 C140 1.363 . S
C145 C144 1.415 . S
C146 H122 0.951 . S
C146 C147 1.366 . S
C146 C148 1.388 . S
C147 C146 1.366 . S
C147 C151 1.385 . S
C148 H123 0.951 . S
C148 C146 1.388 . S
C148 C149 1.366 . S
C149 C148 1.366 . S
C149 C150 1.414 . S
C149 C152 1.499 . S
C150 H124 0.950 . S
C150 C149 1.414 . S
C150 C151 1.374 . S
C151 H125 0.950 . S
C151 C147 1.385 . S
C151 C150 1.374 . S
C152 C149 1.499 . S
C152 C153 1.373 . S
C152 C154 1.389 . S
C153 H126 0.950 . S
C153 C139 1.377 . S
C153 C152 1.373 . S
C154 C138 1.377 . S
C154 C152 1.389 . S
C154 C155 1.524 . S
C155 C154 1.524 . S
C155 C156 1.397 . S
C155 C160 1.363 . S
C156 H127 0.950 . S
C156 C155 1.397 . S
C156 C157 1.334 . S
C157 H128 0.950 . S
C157 C156 1.334 . S
C157 C158 1.287 . S
C158 C157 1.287 . S
C158 C159 1.524 . S
C158 H161 0.999 . S
C159 H129 0.950 . S
C159 C158 1.524 . S
C159 C160 1.415 . S
C160 H130 0.950 . S
C160 C155 1.363 . S
C160 C159 1.415 . S
H161 C158 0.999 . S
H162 C143 0.913 . S
H163 C181 0.951 . S
H164 C183 0.951 . S
H165 C185 0.950 . S
H166 C186 0.950 . S
H167 C188 0.950 . S
H168 C191 0.950 . S
H169 C192 0.950 . S
H170 C194 0.950 . S
H171 C195 0.950 . S
H172 C196 0.951 . S
H173 C198 0.951 . S
H174 C200 0.950 . S
H175 C201 0.950 . S
H176 C203 0.950 . S
H177 C206 0.950 . S
H178 C207 0.950 . S
H179 C209 0.950 . S
H180 C210 0.950 . S
C181 H163 0.951 . S
C181 C182 1.366 . S
C181 C183 1.388 . S
C182 C181 1.366 . S
C182 C186 1.385 . S
C183 H164 0.951 . S
C183 C181 1.388 . S
C183 C184 1.366 . S
C184 C183 1.366 . S
C184 C185 1.414 . S
C184 C187 1.499 . S
C185 H165 0.950 . S
C185 C184 1.414 . S
C185 C186 1.374 . S
C186 H166 0.950 . S
C186 C182 1.385 . S
C186 C185 1.374 . S
C187 C184 1.499 . S
C187 C188 1.373 . S
C187 C189 1.389 . S
C188 H167 0.950 . S
C188 C187 1.373 . S
C188 C204 1.377 . S
C189 C187 1.389 . S
C189 C190 1.524 . S
C189 C203 1.377 . S
C190 C189 1.524 . S
C190 C191 1.397 . S
C190 C195 1.363 . S
C191 H168 0.950 . S
C191 C190 1.397 . S
C191 C192 1.334 . S
C192 H169 0.950 . S
C192 C191 1.334 . S
C192 C193 1.287 . S
C193 C192 1.287 . S
C193 C194 1.524 . S
C193 H212 0.913 . S
C194 H170 0.950 . S
C194 C193 1.524 . S
C194 C195 1.415 . S
C195 H171 0.950 . S
C195 C190 1.363 . S
C195 C194 1.415 . S
C196 H172 0.951 . S
C196 C197 1.366 . S
C196 C198 1.388 . S
C197 C196 1.366 . S
C197 C201 1.385 . S
C198 H173 0.951 . S
C198 C196 1.388 . S
C198 C199 1.366 . S
C199 C198 1.366 . S
C199 C200 1.414 . S
C199 C202 1.499 . S
C200 H174 0.950 . S
C200 C199 1.414 . S
C200 C201 1.374 . S
C201 H175 0.950 . S
C201 C197 1.385 . S
C201 C200 1.374 . S
C202 C199 1.499 . S
C202 C203 1.373 . S
C202 C204 1.389 . S
C203 H176 0.950 . S
C203 C189 1.377 . S
C203 C202 1.373 . S
C204 C188 1.377 . S
C204 C202 1.389 . S
C204 C205 1.524 . S
C205 C204 1.524 . S
C205 C206 1.397 . S
C205 C210 1.363 . S
C206 H177 0.950 . S
C206 C205 1.397 . S
C206 C207 1.334 . S
C207 H178 0.950 . S
C207 C206 1.334 . S
C207 C208 1.287 . S
C208 C207 1.287 . S
C208 C209 1.524 . S
C208 H211 0.999 . S
C209 H179 0.950 . S
C209 C208 1.524 . S
C209 C210 1.415 . S
C210 H180 0.950 . S
C210 C205 1.363 . S
C210 C209 1.415 . S
H211 C208 0.999 . S
H212 C193 0.913 . S
H213 C231 0.951 . S
H214 C233 0.951 . S
H215 C235 0.950 . S
H216 C236 0.950 . S
H217 C238 0.950 . S
H218 C241 0.950 . S
H219 C242 0.950 . S
H220 C244 0.950 . S
H221 C245 0.950 . S
H222 C246 0.951 . S
H223 C248 0.951 . S
H224 C250 0.950 . S
H225 C251 0.950 . S
H226 C253 0.950 . S
H227 C256 0.950 . S
H228 C257 0.950 . S
H229 C259 0.950 . S
H230 C260 0.950 . S
C231 H213 0.951 . S
C231 C232 1.366 . S
C231 C233 1.388 . S
C232 C231 1.366 . S
C232 C236 1.385 . S
C233 H214 0.951 . S
C233 C231 1.388 . S
C233 C234 1.366 . S
C234 C233 1.366 . S
C234 C235 1.414 . S
C234 C237 1.499 . S
C235 H215 0.950 . S
C235 C234 1.414 . S
C235 C236 1.374 . S
C236 H216 0.950 . S
C236 C232 1.385 . S
C236 C235 1.374 . S
C237 C234 1.499 . S
C237 C238 1.373 . S
C237 C239 1.389 . S
C238 H217 0.950 . S
C238 C237 1.373 . S
C238 C254 1.377 . S
C239 C237 1.389 . S
C239 C240 1.524 . S
C239 C253 1.377 . S
C240 C239 1.524 . S
C240 C241 1.397 . S
C240 C245 1.363 . S
C241 H218 0.950 . S
C241 C240 1.397 . S
C241 C242 1.334 . S
C242 H219 0.950 . S
C242 C241 1.334 . S
C242 C243 1.287 . S
C243 C242 1.287 . S
C243 C244 1.524 . S
C243 H262 0.913 . S
C244 H220 0.950 . S
C244 C243 1.524 . S
C244 C245 1.415 . S
C245 H221 0.950 . S
C245 C240 1.363 . S
C245 C244 1.415 . S
C246 H222 0.951 . S
C246 C247 1.366 . S
C246 C248 1.388 . S
C247 C246 1.366 . S
C247 C251 1.385 . S
C248 H223 0.951 . S
C248 C246 1.388 . S
C248 C249 1.366 . S
C249 C248 1.366 . S
C249 C250 1.414 . S
C249 C252 1.499 . S
C250 H224 0.950 . S
C250 C249 1.414 . S
C250 C251 1.374 . S
C251 H225 0.950 . S
C251 C247 1.385 . S
C251 C250 1.374 . S
C252 C249 1.499 . S
C252 C253 1.373 . S
C252 C254 1.389 . S
C253 H226 0.950 . S
C253 C239 1.377 . S
C253 C252 1.373 . S
C254 C238 1.377 . S
C254 C252 1.389 . S
C254 C255 1.524 . S
C255 C254 1.524 . S
C255 C256 1.397 . S
C255 C260 1.363 . S
C256 H227 0.950 . S
C256 C255 1.397 . S
C256 C257 1.334 . S
C257 H228 0.950 . S
C257 C256 1.334 . S
C257 C258 1.287 . S
C258 C257 1.287 . S
C258 C259 1.524 . S
C258 H261 0.999 . S
C259 H229 0.950 . S
C259 C258 1.524 . S
C259 C260 1.415 . S
C260 H230 0.950 . S
C260 C255 1.363 . S
C260 C259 1.415 . S
H261 C258 0.999 . S
H262 C243 0.913 . S
H263 C281 0.951 . S
H264 C283 0.951 . S
H265 C285 0.950 . S
H266 C286 0.950 . S
H267 C288 0.950 . S
H268 C291 0.950 . S
H269 C292 0.950 . S
H270 C294 0.950 . S
H271 C295 0.950 . S
H272 C296 0.951 . S
H273 C298 0.951 . S
H274 C300 0.950 . S
H275 C301 0.950 . S
H276 C303 0.950 . S
H277 C306 0.950 . S
H278 C307 0.950 . S
H279 C309 0.950 . S
H280 C310 0.950 . S
C281 H263 0.951 . S
C281 C282 1.366 . S
C281 C283 1.388 . S
C282 C281 1.366 . S
C282 C286 1.385 . S
C283 H264 0.951 . S
C283 C281 1.388 . S
C283 C284 1.366 . S
C284 C283 1.366 . S
C284 C285 1.414 . S
C284 C287 1.499 . S
C285 H265 0.950 . S
C285 C284 1.414 . S
C285 C286 1.374 . S
C286 H266 0.950 . S
C286 C282 1.385 . S
C286 C285 1.374 . S
C287 C284 1.499 . S
C287 C288 1.373 . S
C287 C289 1.389 . S
C288 H267 0.950 . S
C288 C287 1.373 . S
C288 C304 1.377 . S
C289 C287 1.389 . S
C289 C290 1.524 . S
C289 C303 1.377 . S
C290 C289 1.524 . S
C290 C291 1.397 . S
C290 C295 1.363 . S
C291 H268 0.950 . S
C291 C290 1.397 . S
C291 C292 1.334 . S
C292 H269 0.950 . S
C292 C291 1.334 . S
C292 C293 1.287 . S
C293 C292 1.287 . S
C293 C294 1.524 . S
C293 H312 0.913 . S
C294 H270 0.950 . S
C294 C293 1.524 . S
C294 C295 1.415 . S
C295 H271 0.950 . S
C295 C290 1.363 . S
C295 C294 1.415 . S
C296 H272 0.951 . S
C296 C297 1.366 . S
C296 C298 1.388 . S
C297 C296 1.366 . S
C297 C301 1.385 . S
C298 H273 0.951 . S
C298 C296 1.388 . S
C298 C299 1.366 . S
C299 C298 1.366 . S
C299 C300 1.414 . S
C299 C302 1.499 . S
C300 H274 0.950 . S
C300 C299 1.414 . S
C300 C301 1.374 . S
C301 H275 0.950 . S
C301 C297 1.385 . S
C301 C300 1.374 . S
C302 C299 1.499 . S
C302 C303 1.373 . S
C302 C304 1.389 . S
C303 H276 0.950 . S
C303 C289 1.377 . S
C303 C302 1.373 . S
C304 C288 1.377 . S
C304 C302 1.389 . S
C304 C305 1.524 . S
C305 C304 1.524 . S
C305 C306 1.397 . S
C305 C310 1.363 . S
C306 H277 0.950 . S
C306 C305 1.397 . S
C306 C307 1.334 . S
C307 H278 0.950 . S
C307 C306 1.334 . S
C307 C308 1.287 . S
C308 C307 1.287 . S
C308 C309 1.524 . S
C308 H311 0.999 . S
C309 H279 0.950 . S
C309 C308 1.524 . S
C309 C310 1.415 . S
C310 H280 0.950 . S
C310 C305 1.363 . S
C310 C309 1.415 . S
H311 C308 0.999 . S
H312 C293 0.913 . S
H313 C331 0.951 . S
H314 C333 0.951 . S
H315 C335 0.950 . S
H316 C336 0.950 . S
H317 C338 0.950 . S
H318 C341 0.950 . S
H319 C342 0.950 . S
H320 C344 0.950 . S
H321 C345 0.950 . S
H322 C346 0.951 . S
H323 C348 0.951 . S
H324 C350 0.950 . S
H325 C351 0.950 . S
H326 C353 0.950 . S
H327 C356 0.950 . S
H328 C357 0.950 . S
H329 C359 0.950 . S
H330 C360 0.950 . S
C331 H313 0.951 . S
C331 C332 1.366 . S
C331 C333 1.388 . S
C332 C331 1.366 . S
C332 C336 1.385 . S
C333 H314 0.951 . S
C333 C331 1.388 . S
C333 C334 1.366 . S
C334 C333 1.366 . S
C334 C335 1.414 . S
C334 C337 1.499 . S
C335 H315 0.950 . S
C335 C334 1.414 . S
C335 C336 1.374 . S
C336 H316 0.950 . S
C336 C332 1.385 . S
C336 C335 1.374 . S
C337 C334 1.499 . S
C337 C338 1.373 . S
C337 C339 1.389 . S
C338 H317 0.950 . S
C338 C337 1.373 . S
C338 C354 1.377 . S
C339 C337 1.389 . S
C339 C340 1.524 . S
C339 C353 1.377 . S
C340 C339 1.524 . S
C340 C341 1.397 . S
C340 C345 1.363 . S
C341 H318 0.950 . S
C341 C340 1.397 . S
C341 C342 1.334 . S
C342 H319 0.950 . S
C342 C341 1.334 . S
C342 C343 1.287 . S
C343 C342 1.287 . S
C343 C344 1.524 . S
C343 H362 0.913 . S
C344 H320 0.950 . S
C344 C343 1.524 . S
C344 C345 1.415 . S
C345 H321 0.950 . S
C345 C340 1.363 . S
C345 C344 1.415 . S
C346 H322 0.951 . S
C346 C347 1.366 . S
C346 C348 1.388 . S
C347 C346 1.366 . S
C347 C351 1.385 . S
C348 H323 0.951 . S
C348 C346 1.388 . S
C348 C349 1.366 . S
C349 C348 1.366 . S
C349 C350 1.414 . S
C349 C352 1.499 . S
C350 H324 0.950 . S
C350 C349 1.414 . S
C350 C351 1.374 . S
C351 H325 0.950 . S
C351 C347 1.385 . S
C351 C350 1.374 . S
C352 C349 1.499 . S
C352 C353 1.373 . S
C352 C354 1.389 . S
C353 H326 0.950 . S
C353 C339 1.377 . S
C353 C352 1.373 . S
C354 C338 1.377 . S
C354 C352 1.389 . S
C354 C355 1.524 . S
C355 C354 1.524 . S
C355 C356 1.397 . S
C355 C360 1.363 . S
C356 H327 0.950 . S
C356 C355 1.397 . S
C356 C357 1.334 . S
C357 H328 0.950 . S
C357 C356 1.334 . S
C357 C358 1.287 . S
C358 C357 1.287 . S
C358 C359 1.524 . S
C358 H361 0.999 . S
C359 H329 0.950 . S
C359 C358 1.524 . S
C359 C360 1.415 . S
C360 H330 0.950 . S
C360 C355 1.363 . S
C360 C359 1.415 . S
H361 C358 0.999 . S
H362 C343 0.913 . S
H363 C381 0.951 . S
H364 C383 0.951 . S
H365 C385 0.950 . S
H366 C386 0.950 . S
H367 C388 0.950 . S
H368 C391 0.950 . S
H369 C392 0.950 . S
H370 C394 0.950 . S
H371 C395 0.950 . S
H372 C396 0.951 . S
H373 C398 0.951 . S
H374 C400 0.950 . S
H375 C401 0.950 . S
H376 C403 0.950 . S
H377 C406 0.950 . S
H378 C407 0.950 . S
H379 C409 0.950 . S
H380 C410 0.950 . S
C381 H363 0.951 . S
C381 C382 1.366 . S
C381 C383 1.388 . S
C382 C381 1.366 . S
C382 C386 1.385 . S
C383 H364 0.951 . S
C383 C381 1.388 . S
C383 C384 1.366 . S
C384 C383 1.366 . S
C384 C385 1.414 . S
C384 C387 1.499 . S
C385 H365 0.950 . S
C385 C384 1.414 . S
C385 C386 1.374 . S
C386 H366 0.950 . S
C386 C382 1.385 . S
C386 C385 1.374 . S
C387 C384 1.499 . S
C387 C388 1.373 . S
C387 C389 1.389 . S
C388 H367 0.950 . S
C388 C387 1.373 . S
C388 C404 1.377 . S
C389 C387 1.389 . S
C389 C390 1.524 . S
C389 C403 1.377 . S
C390 C389 1.524 . S
C390 C391 1.397 . S
C390 C395 1.363 . S
C391 H368 0.950 . S
C391 C390 1.397 . S
C391 C392 1.334 . S
C392 H369 0.950 . S
C392 C391 1.334 . S
C392 C393 1.287 . S
C393 C392 1.287 . S
C393 C394 1.524 . S
C393 H412 0.913 . S
C394 H370 0.950 . S
C394 C393 1.524 . S
C394 C395 1.415 . S
C395 H371 0.950 . S
C395 C390 1.363 . S
C395 C394 1.415 . S
C396 H372 0.951 . S
C396 C397 1.366 . S
C396 C398 1.388 . S
C397 C396 1.366 . S
C397 C401 1.385 . S
C398 H373 0.951 . S
C398 C396 1.388 . S
C398 C399 1.366 . S
C399 C398 1.366 . S
C399 C400 1.414 . S
C399 C402 1.499 . S
C400 H374 0.950 . S
C400 C399 1.414 . S
C400 C401 1.374 . S
C401 H375 0.950 . S
C401 C397 1.385 . S
C401 C400 1.374 . S
C402 C399 1.499 . S
C402 C403 1.373 . S
C402 C404 1.389 . S
C403 H376 0.950 . S
C403 C389 1.377 . S
C403 C402 1.373 . S
C404 C388 1.377 . S
C404 C402 1.389 . S
C404 C405 1.524 . S
C405 C404 1.524 . S
C405 C406 1.397 . S
C405 C410 1.363 . S
C406 H377 0.950 . S
C406 C405 1.397 . S
C406 C407 1.334 . S
C407 H378 0.950 . S
C407 C406 1.334 . S
C407 C408 1.287 . S
C408 C407 1.287 . S
C408 C409 1.524 . S
C408 H411 0.999 . S
C409 H379 0.950 . S
C409 C408 1.524 . S
C409 C410 1.415 . S
C410 H380 0.950 . S
C410 C405 1.363 . S
C410 C409 1.415 . S
H411 C408 0.999 . S
H412 C393 0.913 . S
H413 C431 0.951 . S
H414 C433 0.951 . S
H415 C435 0.950 . S
H416 C436 0.950 . S
H417 C438 0.950 . S
H418 C441 0.950 . S
H419 C442 0.950 . S
H420 C444 0.950 . S
H421 C445 0.950 . S
H422 C446 0.951 . S
H423 C448 0.951 . S
H424 C450 0.950 . S
H425 C451 0.950 . S
H426 C453 0.950 . S
H427 C456 0.950 . S
H428 C457 0.950 . S
H429 C459 0.950 . S
H430 C460 0.950 . S
C431 H413 0.951 . S
C431 C432 1.366 . S
C431 C433 1.388 . S
C432 C431 1.366 . S
C432 C436 1.385 . S
C433 H414 0.951 . S
C433 C431 1.388 . S
C433 C434 1.366 . S
C434 C433 1.366 . S
C434 C435 1.414 . S
C434 C437 1.499 . S
C435 H415 0.950 . S
C435 C434 1.414 . S
C435 C436 1.374 . S
C436 H416 0.950 . S
C436 C432 1.385 . S
C436 C435 1.374 . S
C437 C434 1.499 . S
C437 C438 1.373 . S
C437 C439 1.389 . S
C438 H417 0.950 . S
C438 C437 1.373 . S
C438 C454 1.377 . S
C439 C437 1.389 . S
C439 C440 1.524 . S
C439 C453 1.377 . S
C440 C439 1.524 . S
C440 C441 1.397 . S
C440 C445 1.363 . S
C441 H418 0.950 . S
C441 C440 1.397 . S
C441 C442 1.334 . S
C442 H419 0.950 . S
C442 C441 1.334 . S
C442 C443 1.287 . S
C443 C442 1.287 . S
C443 C444 1.524 . S
C443 H462 0.913 . S
C444 H420 0.950 . S
C444 C443 1.524 . S
C444 C445 1.415 . S
C445 H421 0.950 . S
C445 C440 1.363 . S
C445 C444 1.415 . S
C446 H422 0.951 . S
C446 C447 1.366 . S
C446 C448 1.388 . S
C447 C446 1.366 . S
C447 C451 1.385 . S
C448 H423 0.951 . S
C448 C446 1.388 . S
C448 C449 1.366 . S
C449 C448 1.366 . S
C449 C450 1.414 . S
C449 C452 1.499 . S
C450 H424 0.950 . S
C450 C449 1.414 . S
C450 C451 1.374 . S
C451 H425 0.950 . S
C451 C447 1.385 . S
C451 C450 1.374 . S
C452 C449 1.499 . S
C452 C453 1.373 . S
C452 C454 1.389 . S
C453 H426 0.950 . S
C453 C439 1.377 . S
C453 C452 1.373 . S
C454 C438 1.377 . S
C454 C452 1.389 . S
C454 C455 1.524 . S
C455 C454 1.524 . S
C455 C456 1.397 . S
C455 C460 1.363 . S
C456 H427 0.950 . S
C456 C455 1.397 . S
C456 C457 1.334 . S
C457 H428 0.950 . S
C457 C456 1.334 . S
C457 C458 1.287 . S
C458 C457 1.287 . S
C458 C459 1.524 . S
C458 H461 0.999 . S
C459 H429 0.950 . S
C459 C458 1.524 . S
C459 C460 1.415 . S
C460 H430 0.950 . S
C460 C455 1.363 . S
C460 C459 1.415 . S
H461 C458 0.999 . S
H462 C443 0.913 . S
C82 C23 1.085 . S
C97 C34 1.077 . S
C132 C24 1.563 . S
C147 C56 1.566 . S
C182 C8 1.483 . S
C197 C43 1.470 . S
C232 C22 1.640 . S
C247 C33 1.644 . S
C282 C17 1.562 . S
C297 C32 1.569 . S
C347 C50 1.470 . S
C332 C27 1.482 . S
C382 C30 1.640 . S
C397 C59 1.648 . S
C447 C42 1.081 . S
C432 C31 1.089 . S
