# Generated by pormake.
# Topology pth, (4,4)-cn, num edge types: 1
# Building blocks:
#     Node 0, Type 0, BuildingBlock: TATPOV_clean_sbu_0, # of connection points: 4
#     Node 1, Type 0, BuildingBlock: TATPOV_clean_sbu_0, # of connection points: 4
#     Node 2, Type 0, BuildingBlock: TATPOV_clean_sbu_0, # of connection points: 4
#     Node 3, Type 1, BuildingBlock: MUDLON_clean_sbu_0, # of connection points: 4
#     Node 4, Type 1, BuildingBlock: MUDLON_clean_sbu_0, # of connection points: 4
#     Node 5, Type 1, BuildingBlock: MUDLON_clean_sbu_0, # of connection points: 4
#     Edge 6, Type (0, 1), BuildingBlock: KIFKEQ_clean_linker_1, # of connection points: 2
#     Edge 7, Type (0, 1), BuildingBlock: KIFKEQ_clean_linker_1, # of connection points: 2
#     Edge 8, Type (0, 1), BuildingBlock: KIFKEQ_clean_linker_1, # of connection points: 2
#     Edge 9, Type (0, 1), BuildingBlock: KIFKEQ_clean_linker_1, # of connection points: 2
#     Edge 10, Type (0, 1), BuildingBlock: KIFKEQ_clean_linker_1, # of connection points: 2
#     Edge 11, Type (0, 1), BuildingBlock: KIFKEQ_clean_linker_1, # of connection points: 2
#     Edge 12, Type (0, 1), BuildingBlock: KIFKEQ_clean_linker_1, # of connection points: 2
#     Edge 13, Type (0, 1), BuildingBlock: KIFKEQ_clean_linker_1, # of connection points: 2
#     Edge 14, Type (0, 1), BuildingBlock: KIFKEQ_clean_linker_1, # of connection points: 2
#     Edge 15, Type (0, 1), BuildingBlock: KIFKEQ_clean_linker_1, # of connection points: 2
#     Edge 16, Type (0, 1), BuildingBlock: KIFKEQ_clean_linker_1, # of connection points: 2
#     Edge 17, Type (0, 1), BuildingBlock: KIFKEQ_clean_linker_1, # of connection points: 2
# Relax obj value: 0.072
# Max RMSD: 0.185
# Mean RMSD: 0.119
data_MOF--net-pth--node1-TATPOV_clean_sbu_0--node2-MUDLON_clean_sbu_0--edge1-KIFKEQ_clean_linker_1
_symmetry_space_group_name_H-M    P1
_symmetry_Int_Tables_number       1
_symmetry_cell_setting            triclinic
loop_
_symmetry_equiv_pos_as_xyz
'x, y, z'
_cell_length_a     22.895122
_cell_length_b     22.976761
_cell_length_c     59.182181
_cell_angle_alpha  93.109257
_cell_angle_beta   91.264286
_cell_angle_gamma 119.72611
loop_
_atom_site_label
_atom_site_type_symbol
_atom_site_fract_x
_atom_site_fract_y
_atom_site_fract_z
_atom_type_partial_charge
Zn0 Zn 0.16645 0.00757 0.06445 0.0
Zn1 Zn 0.13644 0.09073 0.08828 0.0
O2 O 0.14971 0.03472 0.1122 0.0
O3 O 0.17803 0.96888 0.09278 0.0
O4 O 0.11643 0.15382 0.10759 0.0
O5 O 0.24608 0.08546 0.05229 0.0
O6 O 0.21972 0.15448 0.07064 0.0
C7 C 0.16654 0.98939 0.11153 0.0
C8 C 0.03505 0.98957 0.05176 0.0
O9 O 0.05081 0.03621 0.06734 0.0
O10 O 0.07552 0.96839 0.04736 0.0
C11 C 0.05946 0.13285 0.11614 0.0
O12 O 1.01294 0.06946 0.11207 0.0
C13 C 0.25734 0.14457 0.05717 0.0
Zn14 Zn 0.23931 0.14421 0.39457 0.0
Zn15 Zn 0.13834 0.11087 0.42191 0.0
O16 O 0.21892 0.12631 0.44359 0.0
O17 O 0.30143 0.15317 0.42056 0.0
O18 O 0.06126 0.08676 0.44282 0.0
O19 O 0.23661 0.22603 0.38647 0.0
O20 O 0.14958 0.19675 0.40755 0.0
C21 C 0.2802 0.14339 0.44032 0.0
C22 C 0.1253 0.01452 0.38129 0.0
O23 O 0.10161 0.02707 0.39902 0.0
O24 O 0.18342 0.05696 0.37559 0.0
C25 C 1.00001 0.05459 0.43522 0.0
O26 O 0.98665 0.03706 0.41341 0.0
C27 C 0.19155 0.2369 0.39419 0.0
Zn28 Zn 0.20085 0.98088 0.78329 0.0
Zn29 Zn 0.11454 0.00521 0.75973 0.0
O30 O 0.16258 0.9806 0.7348 0.0
O31 O 0.23103 0.95741 0.75402 0.0
O32 O 0.04663 0.01953 0.74211 0.0
O33 O 0.12481 0.90849 0.79914 0.0
O34 O 0.05448 0.92998 0.78035 0.0
C35 C 0.20676 0.96215 0.73523 0.0
C36 C 0.22322 0.11628 0.79213 0.0
O37 O 0.17407 0.09648 0.77756 0.0
O38 O 0.24436 0.07682 0.79728 0.0
C39 C 0.06232 0.05897 0.72623 0.0
O40 O 0.12541 0.09218 0.72079 0.0
C41 C 0.06546 0.89714 0.79497 0.0
Mg42 Mg 0.06458 0.56995 0.26218 0.0
C43 C 0.11264 0.55704 0.30874 0.0
O44 O 0.06501 0.56981 0.31469 0.0
C45 C 0.08412 0.65455 0.22428 0.0
O46 O 0.02917 0.59778 0.21792 0.0
C47 C 0.9894 0.44466 0.22519 0.0
O48 O 0.93682 0.4532 0.22381 0.0
O49 O 0.03905 0.48276 0.23895 0.0
O50 O 0.12795 0.56057 0.2881 0.0
O51 O 0.98848 0.58021 0.28089 0.0
C52 C 0.96472 0.61671 0.27454 0.0
O53 O 0.96888 0.63122 0.25329 0.0
O54 O 0.1154 0.65876 0.24289 0.0
Mg55 Mg 0.61049 0.03599 0.58713 0.0
C56 C 0.60565 0.13215 0.554 0.0
O57 O 0.65952 0.13309 0.54634 0.0
C58 C 0.69183 0.03197 0.62395 0.0
O59 O 0.64486 0.96974 0.61805 0.0
C60 C 0.46557 0.96385 0.60093 0.0
O61 O 0.45673 0.99062 0.58304 0.0
O62 O 0.52251 0.96815 0.6049 0.0
O63 O 0.58128 0.10251 0.57181 0.0
O64 O 0.6488 0.99336 0.56153 0.0
C65 C 0.63289 0.98437 0.54039 0.0
O66 O 0.58221 0.9912 0.53303 0.0
O67 O 0.69161 0.0789 0.61351 0.0
Mg68 Mg 0.57398 0.60527 0.92278 0.0
C69 C 0.4814 0.55824 0.88069 0.0
O70 O 0.53819 0.59849 0.87162 0.0
C71 C 0.60683 0.71053 0.96086 0.0
O72 O 0.56664 0.65684 0.97123 0.0
C73 C 0.52193 0.4747 0.94496 0.0
O74 O 0.50091 0.45083 0.92387 0.0
O75 O 0.55791 0.53783 0.94925 0.0
O76 O 0.48019 0.55851 0.90217 0.0
O77 O 0.65188 0.61672 0.9002 0.0
C78 C 0.71341 0.65775 0.9059 0.0
O79 O 0.72955 0.68696 0.92656 0.0
O80 O 0.61089 0.7045 0.93955 0.0
H81 H 0.94192 0.1052 0.13569 0.0
H82 H 0.14722 0.26404 0.13061 0.0
H83 H 0.92192 0.17878 0.16176 0.0
H84 H 0.1269 0.33761 0.15644 0.0
H85 H 0.09345 0.41896 0.22361 0.0
H86 H 0.1076 0.34375 0.19682 0.0
H87 H 0.91352 0.28295 0.16397 0.0
H88 H 0.89877 0.35847 0.19111 0.0
C89 C 0.9827 0.15591 0.14001 0.0
C90 C 0.04635 0.17855 0.13115 0.0
C91 C 0.97104 0.19818 0.15487 0.0
C92 C 0.02289 0.26391 0.1613 0.0
C93 C 0.08615 0.28689 0.1521 0.0
C94 C 0.09771 0.2448 0.13718 0.0
C95 C 0.05344 0.38952 0.21077 0.0
C96 C 0.99498 0.39512 0.2095 0.0
C97 C 0.0619 0.34666 0.19527 0.0
C98 C 1.01211 0.30791 0.17808 0.0
C99 C 0.95276 0.31203 0.17708 0.0
C100 C 0.94436 0.35536 0.1926 0.0
H101 H 0.86446 0.97926 0.42469 0.0
H102 H 1.00891 0.09113 0.48061 0.0
H103 H 0.77258 0.95261 0.44962 0.0
H104 H 0.91702 0.06601 0.50542 0.0
H105 H 0.74146 0.96821 0.54977 0.0
H106 H 0.82763 0.97841 0.52427 0.0
H107 H 0.71889 0.0057 0.46909 0.0
H108 H 0.63189 0.99376 0.49445 0.0
C109 C 0.8767 0.99833 0.44231 0.0
C110 C 0.9442 0.03754 0.45061 0.0
C111 C 0.82387 0.98326 0.4566 0.0
C112 C 0.83711 0.00713 0.47959 0.0
C113 C 0.90473 0.04579 0.48793 0.0
C114 C 0.95757 0.06068 0.47364 0.0
C115 C 0.73533 0.9753 0.53211 0.0
C116 C 0.67976 0.98042 0.52421 0.0
C117 C 0.78517 0.98181 0.51751 0.0
C118 C 0.78091 0.99384 0.49464 0.0
C119 C 0.72377 0.99596 0.48653 0.0
C120 C 0.67377 0.98919 0.50111 0.0
H121 H 0.07423 0.8238 0.82833 0.0
H122 H 0.9322 0.86347 0.79273 0.0
H123 H 0.98804 0.75631 0.85379 0.0
H124 H 0.8459 0.79592 0.81844 0.0
H125 H 0.6926 0.63104 0.85982 0.0
H126 H 0.77569 0.67984 0.83122 0.0
H127 H 0.93241 0.78553 0.88423 0.0
H128 H 0.84975 0.73681 0.91278 0.0
C129 C 0.02443 0.8176 0.82575 0.0
C130 C 1.01039 0.84967 0.80857 0.0
C131 C 0.97512 0.77909 0.84044 0.0
C132 C 0.91039 0.77131 0.83827 0.0
C133 C 0.89523 0.80065 0.82045 0.0
C134 C 0.94478 0.83958 0.80578 0.0
C135 C 0.74496 0.66387 0.86538 0.0
C136 C 0.76455 0.68021 0.8886 0.0
C137 C 0.79241 0.69218 0.84898 0.0
C138 C 0.86051 0.73675 0.85546 0.0
C139 C 0.88043 0.75089 0.87867 0.0
C140 C 0.83297 0.72314 0.89505 0.0
H141 H 0.23741 0.92549 0.1197 0.0
H142 H 0.09724 0.97715 0.14969 0.0
H143 H 0.22559 0.85526 0.15079 0.0
H144 H 0.08454 0.90562 0.18059 0.0
H145 H 1.00077 0.67938 0.19872 0.0
H146 H 0.03004 0.77321 0.17543 0.0
H147 H 0.23998 0.85698 0.19616 0.0
H148 H 0.21031 0.76305 0.22023 0.0
C149 C 0.20502 0.92279 0.13315 0.0
C150 C 0.16775 0.95631 0.13217 0.0
C151 C 0.19866 0.88296 0.151 0.0
C152 C 0.15398 0.8749 0.16798 0.0
C153 C 0.11925 0.91103 0.16764 0.0
C154 C 0.12665 0.95201 0.15001 0.0
C155 C 0.05319 0.71802 0.19849 0.0
C156 C 0.1034 0.7137 0.21113 0.0
C157 C 0.06979 0.77205 0.18533 0.0
C158 C 0.13715 0.82241 0.18412 0.0
C159 C 0.18761 0.81876 0.19692 0.0
C160 C 0.17071 0.76523 0.21062 0.0
H161 H 0.41584 0.22418 0.44267 0.0
H162 H 0.2529 0.0838 0.48075 0.0
H163 H 0.49706 0.23423 0.47187 0.0
H164 H 0.33463 0.09098 0.5097 0.0
H165 H 0.49469 0.14141 0.56501 0.0
H166 H 0.41726 0.15365 0.53934 0.0
H167 H 0.54353 0.17057 0.48395 0.0
H168 H 0.62178 0.16127 0.5097 0.0
C169 C 0.39739 0.19523 0.45733 0.0
C170 C 0.32799 0.15257 0.4593 0.0
C171 C 0.44409 0.20069 0.47406 0.0
C172 C 0.42287 0.16259 0.49307 0.0
C173 C 0.35307 0.12164 0.49545 0.0
C174 C 0.30609 0.11712 0.47881 0.0
C175 C 0.50654 0.1492 0.54743 0.0
C176 C 0.56451 0.15037 0.53942 0.0
C177 C 0.4617 0.15546 0.53264 0.0
C178 C 0.47346 0.1625 0.50944 0.0
C179 C 0.53294 0.1663 0.5017 0.0
C180 C 0.57803 0.16077 0.51652 0.0
H181 H 0.29735 0.15842 0.83217 0.0
H182 H 0.21765 0.22695 0.77943 0.0
H183 H 0.34654 0.26836 0.85272 0.0
H184 H 0.2685 0.33836 0.8001 0.0
H185 H 0.46732 0.53892 0.83435 0.0
H186 H 0.39481 0.43303 0.81194 0.0
H187 H 0.30161 0.34091 0.87261 0.0
H188 H 0.37324 0.44636 0.89505 0.0
C189 C 0.29047 0.19704 0.82491 0.0
C190 C 0.25375 0.184 0.80412 0.0
C191 C 0.31813 0.25984 0.83682 0.0
C192 C 0.31068 0.31155 0.8281 0.0
C193 C 0.27466 0.29913 0.8072 0.0
C194 C 0.24569 0.23554 0.79542 0.0
C195 C 0.43002 0.49667 0.84283 0.0
C196 C 0.42685 0.50088 0.86655 0.0
C197 C 0.38846 0.43613 0.82997 0.0
C198 C 0.34353 0.37869 0.84064 0.0
C199 C 0.33652 0.38436 0.86404 0.0
C200 C 0.37739 0.44494 0.87685 0.0
H201 H 0.9303 0.0076 0.73581 0.0
H202 H 0.07447 0.12413 0.68765 0.0
H203 H 0.84143 0.01055 0.71347 0.0
H204 H 0.98492 0.12552 0.66491 0.0
H205 H 0.81168 0.14904 0.63536 0.0
H206 H 0.90228 0.16391 0.66215 0.0
H207 H 0.78266 0.95679 0.6778 0.0
H208 H 0.69283 0.94255 0.65175 0.0
C209 C 0.94311 0.034 0.72047 0.0
C210 C 1.00939 0.06492 0.71338 0.0
C211 C 0.89206 0.03555 0.70761 0.0
C212 C 0.90581 0.06763 0.68723 0.0
C213 C 0.97263 0.10085 0.68059 0.0
C214 C 0.02389 0.0996 0.69355 0.0
C215 C 0.80463 0.10714 0.6448 0.0
C216 C 0.74515 0.0446 0.64136 0.0
C217 C 0.85662 0.11547 0.66001 0.0
C218 C 0.84977 0.06154 0.67216 0.0
C219 C 0.78944 -0.00024 0.66906 0.0
C220 C 0.73796 0.99144 0.65392 0.0
H221 H 0.921 0.99417 0.06234 0.0
H222 H 1.00248 0.91897 1.01072 0.0
H223 H 0.81264 0.94103 0.04026 0.0
H224 H 0.89541 0.86696 0.98883 0.0
H225 H 0.71695 0.8181 0.94522 0.0
H226 H 0.81932 0.89834 0.96742 0.0
H227 H 0.72317 0.81776 0.02906 0.0
H228 H 0.62041 0.73727 1.00693 0.0
C229 C 0.916 0.96692 0.04623 0.0
C230 C 0.97013 0.96038 0.03833 0.0
C231 C 0.8541 0.93656 0.03364 0.0
C232 C 0.84584 0.90043 1.01274 0.0
C233 C 0.90054 0.89542 1.00468 0.0
C234 C 0.96173 0.92466 0.01736 0.0
C235 C 0.71675 0.81863 0.96353 0.0
C236 C 0.66082 0.7703 0.97427 0.0
C237 C 0.77561 0.86443 0.97623 0.0
C238 C 0.77956 0.86335 0.99992 0.0
C239 C 0.72157 0.81969 1.01082 0.0
C240 C 0.66274 0.77346 0.99811 0.0
H241 H 0.01933 0.89401 0.3925 0.0
H242 H 0.14031 0.99322 0.33686 0.0
H243 H 0.95802 0.7893 0.36789 0.0
H244 H 0.07913 0.8902 0.31255 0.0
H245 H 0.93937 0.71888 0.26748 0.0
H246 H 0.96145 0.81165 0.29476 0.0
H247 H 0.99502 0.70925 0.34818 0.0
H248 H 0.97256 0.61587 0.32096 0.0
C249 C 0.03228 0.89366 0.37501 0.0
C250 C 0.085 0.95166 0.36666 0.0
C251 C 0.99727 0.83389 0.36098 0.0
C252 C 1.01335 0.83183 0.33825 0.0
C253 C 0.06475 0.89044 0.32986 0.0
C254 C 0.10034 0.94936 0.34389 0.0
C255 C 0.94929 0.71489 0.28514 0.0
C256 C 0.9561 0.66069 0.29188 0.0
C257 C 0.96221 0.76829 0.30076 0.0
C258 C 0.98155 0.76834 0.32346 0.0
C259 C 0.9805 0.71069 0.33076 0.0
C260 C 0.96785 0.65726 0.3151 0.0
H261 H 0.26528 0.88476 0.72883 0.0
H262 H 0.20595 0.00856 0.69361 0.0
H263 H 0.31618 0.86941 0.69506 0.0
H264 H 0.26007 0.99641 0.66006 0.0
H265 H 0.33715 0.94369 0.59803 0.0
H266 H 0.2644 0.93045 0.62913 0.0
H267 H 0.41282 0.93129 0.67584 0.0
H268 H 0.48344 0.94123 0.64472 0.0
C269 C 0.26316 0.90875 0.71381 0.0
C270 C 0.23215 0.9484 0.71395 0.0
C271 C 0.29277 0.90031 0.69444 0.0
C272 C 0.29341 0.93241 0.67478 0.0
C273 C 0.26008 0.97013 0.6747 0.0
C274 C 0.22933 0.97756 0.694 0.0
C275 C 0.35343 0.9395 0.61488 0.0
C276 C 0.41632 0.94388 0.61887 0.0
C277 C 0.31201 0.93265 0.6328 0.0
C278 C 0.33281 0.93073 0.65518 0.0
C279 C 0.39429 0.93169 0.6589 0.0
C280 C 0.4352 0.93768 0.64097 0.0
H281 H 0.28101 0.27392 0.05535 0.0
H282 H 0.35276 0.14073 0.03145 0.0
H283 H 0.35546 0.35764 0.0302 0.0
H284 H 0.42692 0.22418 1.00662 0.0
H285 H 0.45481 0.33767 0.94174 0.0
H286 H 0.40098 0.26315 0.97169 0.0
H287 H 0.4752 0.43452 0.0205 0.0
H288 H 0.52919 0.50955 0.99042 0.0
C289 C 0.3136 0.26305 0.04514 0.0
C290 C 0.31014 0.20023 0.0452 0.0
C291 C 0.35634 0.31104 0.03076 0.0
C292 C 0.39627 0.29701 0.01617 0.0
C293 C 0.3958 0.23593 0.01732 0.0
C294 C 0.35338 0.18821 0.03165 0.0
C295 C 0.46048 0.35953 0.95889 0.0
C296 C 0.49618 0.42954 0.96366 0.0
C297 C 0.42986 0.31678 0.9761 0.0
C298 C 0.43377 0.34297 0.99847 0.0
C299 C 0.47089 0.41293 1.00339 0.0
C300 C 0.50218 0.45579 0.98618 0.0
H301 H 0.28898 0.34594 0.37521 0.0
H302 H 0.08388 0.25866 0.39537 0.0
H303 H 0.27877 0.43421 0.35792 0.0
H304 H 0.07295 0.34647 0.37742 0.0
H305 H 0.08256 0.53354 0.35299 0.0
H306 H 0.10782 0.46509 0.37707 0.0
H307 H 0.22108 0.43768 0.32421 0.0
H308 H 0.1971 0.50704 0.30038 0.0
C309 C 0.2417 0.34583 0.37607 0.0
C310 C 0.18689 0.29476 0.38643 0.0
C311 C 0.23581 0.39636 0.36605 0.0
C312 C 0.17478 0.39695 0.36594 0.0
C313 C 0.1209 0.34783 0.37732 0.0
C314 C 0.12699 0.29733 0.38754 0.0
C315 C 0.11394 0.51395 0.34666 0.0
C316 C 0.13745 0.52544 0.32467 0.0
C317 C 0.1279 0.47422 0.36042 0.0
C318 C 0.16587 0.44526 0.35252 0.0
C319 C 0.19222 0.45967 0.33097 0.0
C320 C 0.17831 0.49938 0.31723 0.0
loop_
_geom_bond_atom_site_label_1
_geom_bond_atom_site_label_2
_geom_bond_distance
_geom_bond_site_symmetry_2
_ccdc_geom_bond_type
Zn0 O3 2.031 1_545 S
Zn0 O5 2.049 . S
Zn0 O10 2.060 . S
Zn1 O2 1.962 . S
Zn1 O4 1.986 . S
Zn1 O6 1.996 . S
Zn1 O9 1.943 . S
O2 Zn1 1.962 . S
O2 C7 1.254 . S
O3 Zn0 2.031 1_565 S
O3 C7 1.269 1_565 S
O4 Zn1 1.986 . S
O4 C11 1.262 . S
O5 Zn0 2.049 . S
O5 C13 1.260 . S
O6 Zn1 1.996 . S
O6 C13 1.257 . S
C7 O2 1.254 . S
C7 O3 1.269 1_545 S
C8 O9 1.249 . S
C8 O10 1.281 . S
O9 Zn1 1.943 . S
O9 C8 1.249 . S
O10 Zn0 2.060 . S
O10 C8 1.281 . S
C11 O4 1.262 . S
C11 O12 1.232 . S
O12 C11 1.232 . S
C13 O5 1.260 . S
C13 O6 1.257 . S
Zn14 O17 2.031 . S
Zn14 O19 2.049 . S
Zn14 O24 2.067 . S
Zn15 O16 1.962 . S
Zn15 O18 1.986 1_455 S
Zn15 O20 1.996 . S
Zn15 O23 1.943 . S
O16 Zn15 1.962 . S
O16 C21 1.254 . S
O17 Zn14 2.031 . S
O17 C21 1.269 . S
O18 Zn15 1.986 1_655 S
O18 C25 1.262 . S
O19 Zn14 2.049 . S
O19 C27 1.260 . S
O20 Zn15 1.996 . S
O20 C27 1.257 . S
C21 O16 1.254 . S
C21 O17 1.269 . S
C22 O23 1.249 . S
C22 O24 1.270 . S
O23 Zn15 1.943 . S
O23 C22 1.249 . S
O24 Zn14 2.067 . S
O24 C22 1.270 . S
C25 O18 1.262 . S
C25 O26 1.232 . S
O26 C25 1.232 . S
C27 O19 1.260 . S
C27 O20 1.257 . S
Zn28 O31 2.031 1_565 S
Zn28 O33 2.049 . S
Zn28 O38 2.067 1_565 S
Zn29 O30 1.962 1_545 S
Zn29 O32 1.986 1_455 S
Zn29 O34 1.996 1_545 S
Zn29 O37 1.943 . S
O30 Zn29 1.962 1_565 S
O30 C35 1.254 1_565 S
O31 Zn28 2.031 1_545 S
O31 C35 1.269 . S
O32 Zn29 1.986 1_655 S
O32 C39 1.262 . S
O33 Zn28 2.049 . S
O33 C41 1.260 . S
O34 Zn29 1.996 1_565 S
O34 C41 1.257 . S
C35 O30 1.254 1_545 S
C35 O31 1.269 . S
C36 O37 1.249 . S
C36 O38 1.270 . S
O37 Zn29 1.943 . S
O37 C36 1.249 . S
O38 Zn28 2.067 1_545 S
O38 C36 1.270 . S
C39 O32 1.262 . S
C39 O40 1.232 1_655 S
O40 C39 1.232 1_455 S
C41 O33 1.260 . S
C41 O34 1.257 . S
Mg42 O49 2.141 . S
Mg42 O50 2.048 . S
Mg42 O51 2.048 . S
Mg42 O54 2.141 . S
C43 O44 1.313 . S
C43 O50 1.195 . S
O44 C43 1.313 . S
C45 O46 1.245 . S
C45 O54 1.289 . S
O46 C45 1.245 . S
C47 O48 1.245 . S
C47 O49 1.289 . S
O48 C47 1.245 . S
O49 Mg42 2.141 . S
O49 C47 1.289 . S
O50 Mg42 2.048 . S
O50 C43 1.195 . S
O51 Mg42 2.048 . S
O51 C52 1.195 . S
C52 O51 1.195 . S
C52 O53 1.313 . S
O53 C52 1.313 . S
O54 Mg42 2.141 . S
O54 C45 1.289 . S
Mg55 O62 2.141 . S
Mg55 O63 2.048 . S
Mg55 O64 2.048 . S
Mg55 O67 2.141 . S
C56 O57 1.313 1_545 S
C56 O63 1.195 . S
O57 C56 1.313 1_565 S
C58 O59 1.245 1_545 S
C58 O67 1.289 . S
O59 C58 1.245 1_565 S
C60 O61 1.245 1_545 S
C60 O62 1.289 . S
O61 C60 1.245 1_565 S
O62 Mg55 2.141 . S
O62 C60 1.289 . S
O63 Mg55 2.048 . S
O63 C56 1.195 . S
O64 Mg55 2.048 . S
O64 C65 1.195 . S
C65 O64 1.195 . S
C65 O66 1.313 1_545 S
O66 C65 1.313 1_565 S
O67 Mg55 2.141 . S
O67 C58 1.289 . S
Mg68 O75 2.141 . S
Mg68 O76 2.048 . S
Mg68 O77 2.048 . S
Mg68 O80 2.141 . S
C69 O70 1.313 . S
C69 O76 1.195 . S
O70 C69 1.313 . S
C71 O72 1.245 . S
C71 O80 1.289 . S
O72 C71 1.245 . S
C73 O74 1.245 . S
C73 O75 1.289 . S
O74 C73 1.245 . S
O75 Mg68 2.141 . S
O75 C73 1.289 . S
O76 Mg68 2.048 . S
O76 C69 1.195 . S
O77 Mg68 2.048 . S
O77 C78 1.195 . S
C78 O77 1.195 . S
C78 O79 1.313 . S
O79 C78 1.313 . S
O80 Mg68 2.141 . S
O80 C71 1.289 . S
H81 C89 0.950 1_655 S
H82 C94 0.950 . S
H83 C91 0.950 1_655 S
H84 C93 0.950 . S
H85 C95 0.950 . S
H86 C97 0.950 . S
H87 C99 0.950 1_655 S
H88 C100 0.950 1_655 S
C89 H81 0.950 1_455 S
C89 C90 1.386 . S
C89 C91 1.391 . S
C90 C89 1.386 . S
C90 C94 1.393 . S
C91 H83 0.950 1_455 S
C91 C89 1.391 . S
C91 C92 1.400 . S
C92 C91 1.400 . S
C92 C93 1.398 . S
C92 C98 1.491 . S
C93 H84 0.950 . S
C93 C92 1.398 . S
C93 C94 1.391 . S
C94 H82 0.950 . S
C94 C90 1.393 . S
C94 C93 1.391 . S
C95 H85 0.950 . S
C95 C96 1.386 . S
C95 C97 1.391 . S
C96 C95 1.386 . S
C96 C100 1.393 . S
C97 H86 0.950 . S
C97 C95 1.391 . S
C97 C98 1.400 . S
C98 C92 1.491 . S
C98 C97 1.400 . S
C98 C99 1.398 . S
C99 H87 0.950 1_455 S
C99 C98 1.398 . S
C99 C100 1.391 . S
C100 H88 0.950 1_455 S
C100 C96 1.393 . S
C100 C99 1.391 . S
H101 C109 0.950 . S
H102 C114 0.950 . S
H103 C111 0.950 1_565 S
H104 C113 0.950 . S
H105 C115 0.950 . S
H106 C117 0.950 . S
H107 C119 0.950 1_565 S
H108 C120 0.950 1_565 S
C109 H101 0.950 . S
C109 C110 1.386 1_565 S
C109 C111 1.391 1_565 S
C110 C109 1.386 1_545 S
C110 C114 1.393 . S
C111 H103 0.950 1_545 S
C111 C109 1.391 1_545 S
C111 C112 1.400 . S
C112 C111 1.400 . S
C112 C113 1.398 . S
C112 C118 1.491 . S
C113 H104 0.950 . S
C113 C112 1.398 . S
C113 C114 1.391 . S
C114 H102 0.950 . S
C114 C110 1.393 . S
C114 C113 1.391 . S
C115 H105 0.950 . S
C115 C116 1.386 . S
C115 C117 1.391 . S
C116 C115 1.386 . S
C116 C120 1.393 . S
C117 H106 0.950 . S
C117 C115 1.391 . S
C117 C118 1.400 . S
C118 C112 1.491 . S
C118 C117 1.400 . S
C118 C119 1.398 . S
C119 H107 0.950 1_545 S
C119 C118 1.398 . S
C119 C120 1.391 . S
C120 H108 0.950 1_545 S
C120 C116 1.393 . S
C120 C119 1.391 . S
H121 C129 0.950 1_455 S
H122 C134 0.950 . S
H123 C131 0.950 . S
H124 C133 0.950 . S
H125 C135 0.950 . S
H126 C137 0.950 . S
H127 C139 0.950 . S
H128 C140 0.950 . S
C129 H121 0.950 1_655 S
C129 C130 1.386 . S
C129 C131 1.391 . S
C130 C129 1.386 . S
C130 C134 1.393 . S
C131 H123 0.950 . S
C131 C129 1.391 . S
C131 C132 1.400 . S
C132 C131 1.400 . S
C132 C133 1.398 . S
C132 C138 1.491 . S
C133 H124 0.950 . S
C133 C132 1.398 . S
C133 C134 1.391 . S
C134 H122 0.950 . S
C134 C130 1.393 . S
C134 C133 1.391 . S
C135 H125 0.950 . S
C135 C136 1.386 . S
C135 C137 1.391 . S
C136 C135 1.386 . S
C136 C140 1.393 . S
C137 H126 0.950 . S
C137 C135 1.391 . S
C137 C138 1.400 . S
C138 C132 1.491 . S
C138 C137 1.400 . S
C138 C139 1.398 . S
C139 H127 0.950 . S
C139 C138 1.398 . S
C139 C140 1.391 . S
C140 H128 0.950 . S
C140 C136 1.393 . S
C140 C139 1.391 . S
H141 C149 0.950 . S
H142 C154 0.950 . S
H143 C151 0.950 . S
H144 C153 0.950 . S
H145 C155 0.950 . S
H146 C157 0.950 . S
H147 C159 0.950 . S
H148 C160 0.950 . S
C149 H141 0.950 . S
C149 C150 1.386 . S
C149 C151 1.391 . S
C150 C149 1.386 . S
C150 C154 1.393 . S
C151 H143 0.950 . S
C151 C149 1.391 . S
C151 C152 1.400 . S
C152 C151 1.400 . S
C152 C153 1.398 . S
C152 C158 1.491 . S
C153 H144 0.950 . S
C153 C152 1.398 . S
C153 C154 1.391 . S
C154 H142 0.950 . S
C154 C150 1.393 . S
C154 C153 1.391 . S
C155 H145 0.950 . S
C155 C156 1.386 . S
C155 C157 1.391 . S
C156 C155 1.386 . S
C156 C160 1.393 . S
C157 H146 0.950 . S
C157 C155 1.391 . S
C157 C158 1.400 . S
C158 C152 1.491 . S
C158 C157 1.400 . S
C158 C159 1.398 . S
C159 H147 0.950 . S
C159 C158 1.398 . S
C159 C160 1.391 . S
C160 H148 0.950 . S
C160 C156 1.393 . S
C160 C159 1.391 . S
H161 C169 0.950 . S
H162 C174 0.950 . S
H163 C171 0.950 . S
H164 C173 0.950 . S
H165 C175 0.950 . S
H166 C177 0.950 . S
H167 C179 0.950 . S
H168 C180 0.950 . S
C169 H161 0.950 . S
C169 C170 1.386 . S
C169 C171 1.391 . S
C170 C169 1.386 . S
C170 C174 1.393 . S
C171 H163 0.950 . S
C171 C169 1.391 . S
C171 C172 1.400 . S
C172 C171 1.400 . S
C172 C173 1.398 . S
C172 C178 1.491 . S
C173 H164 0.950 . S
C173 C172 1.398 . S
C173 C174 1.391 . S
C174 H162 0.950 . S
C174 C170 1.393 . S
C174 C173 1.391 . S
C175 H165 0.950 . S
C175 C176 1.386 . S
C175 C177 1.391 . S
C176 C175 1.386 . S
C176 C180 1.393 . S
C177 H166 0.950 . S
C177 C175 1.391 . S
C177 C178 1.400 . S
C178 C172 1.491 . S
C178 C177 1.400 . S
C178 C179 1.398 . S
C179 H167 0.950 . S
C179 C178 1.398 . S
C179 C180 1.391 . S
C180 H168 0.950 . S
C180 C176 1.393 . S
C180 C179 1.391 . S
H181 C189 0.950 . S
H182 C194 0.950 . S
H183 C191 0.950 . S
H184 C193 0.950 . S
H185 C195 0.950 . S
H186 C197 0.950 . S
H187 C199 0.950 . S
H188 C200 0.950 . S
C189 H181 0.950 . S
C189 C190 1.386 . S
C189 C191 1.391 . S
C190 C189 1.386 . S
C190 C194 1.393 . S
C191 H183 0.950 . S
C191 C189 1.391 . S
C191 C192 1.400 . S
C192 C191 1.400 . S
C192 C193 1.398 . S
C192 C198 1.491 . S
C193 H184 0.950 . S
C193 C192 1.398 . S
C193 C194 1.391 . S
C194 H182 0.950 . S
C194 C190 1.393 . S
C194 C193 1.391 . S
C195 H185 0.950 . S
C195 C196 1.386 . S
C195 C197 1.391 . S
C196 C195 1.386 . S
C196 C200 1.393 . S
C197 H186 0.950 . S
C197 C195 1.391 . S
C197 C198 1.400 . S
C198 C192 1.491 . S
C198 C197 1.400 . S
C198 C199 1.398 . S
C199 H187 0.950 . S
C199 C198 1.398 . S
C199 C200 1.391 . S
C200 H188 0.950 . S
C200 C196 1.393 . S
C200 C199 1.391 . S
H201 C209 0.950 1_565 S
H202 C214 0.950 . S
H203 C211 0.948 1_565 S
H204 C213 0.950 . S
H205 C215 0.950 . S
H206 C217 0.950 . S
H207 C219 0.950 . S
H208 C220 0.950 . S
C209 H201 0.950 1_545 S
C209 C210 1.386 . S
C209 C211 1.390 . S
C210 C209 1.386 . S
C210 C214 1.393 . S
C211 H203 0.948 1_545 S
C211 C209 1.390 . S
C211 C212 1.403 . S
C212 C211 1.403 . S
C212 C213 1.398 . S
C212 C218 1.491 . S
C213 H204 0.950 . S
C213 C212 1.398 . S
C213 C214 1.391 . S
C214 H202 0.950 . S
C214 C210 1.393 . S
C214 C213 1.391 . S
C215 H205 0.950 . S
C215 C216 1.386 . S
C215 C217 1.391 . S
C216 C215 1.386 . S
C216 C220 1.393 1_545 S
C217 H206 0.950 . S
C217 C215 1.391 . S
C217 C218 1.400 . S
C218 C212 1.491 . S
C218 C217 1.400 . S
C218 C219 1.398 1_545 S
C219 H207 0.950 . S
C219 C218 1.398 1_565 S
C219 C220 1.391 . S
C220 H208 0.950 . S
C220 C216 1.393 1_565 S
C220 C219 1.391 . S
H221 C229 0.950 . S
H222 C234 0.950 1_545 S
H223 C231 0.950 . S
H224 C233 0.950 1_556 S
H225 C235 0.950 . S
H226 C237 0.950 . S
H227 C239 0.955 . S
H228 C240 0.950 . S
C229 H221 0.950 . S
C229 C230 1.386 . S
C229 C231 1.391 . S
C230 C229 1.386 . S
C230 C234 1.393 . S
C231 H223 0.950 . S
C231 C229 1.391 . S
C231 C232 1.400 . S
C232 C231 1.400 . S
C232 C233 1.398 . S
C232 C238 1.491 1_554 S
C233 H224 0.950 1_554 S
C233 C232 1.398 . S
C233 C234 1.391 . S
C234 H222 0.950 1_565 S
C234 C230 1.393 . S
C234 C233 1.391 . S
C235 H225 0.950 . S
C235 C236 1.386 . S
C235 C237 1.391 . S
C236 C235 1.386 . S
C236 C240 1.393 . S
C237 H226 0.950 . S
C237 C235 1.391 . S
C237 C238 1.400 . S
C238 C232 1.491 1_556 S
C238 C237 1.400 . S
C238 C239 1.398 . S
C239 H227 0.955 . S
C239 C238 1.398 . S
C239 C240 1.391 . S
C240 H228 0.950 . S
C240 C236 1.393 . S
C240 C239 1.391 . S
H241 C249 0.950 . S
H242 C254 0.948 . S
H243 C251 0.950 . S
H244 C253 0.950 1_655 S
H245 C255 0.950 1_655 S
H246 C257 0.950 1_655 S
H247 C259 0.950 . S
H248 C260 0.950 . S
C249 H241 0.950 . S
C249 C250 1.386 . S
C249 C251 1.391 . S
C250 C249 1.386 . S
C250 C254 1.394 1_455 S
C251 H243 0.950 . S
C251 C249 1.391 . S
C251 C252 1.400 . S
C252 C251 1.400 . S
C252 C253 1.398 . S
C252 C258 1.491 . S
C253 H244 0.950 1_455 S
C253 C252 1.398 . S
C253 C254 1.392 1_455 S
C254 H242 0.948 . S
C254 C250 1.394 1_655 S
C254 C253 1.392 1_655 S
C255 H245 0.950 1_455 S
C255 C256 1.386 . S
C255 C257 1.391 . S
C256 C255 1.386 . S
C256 C260 1.393 . S
C257 H246 0.950 1_455 S
C257 C255 1.391 . S
C257 C258 1.400 . S
C258 C252 1.491 . S
C258 C257 1.400 . S
C258 C259 1.398 . S
C259 H247 0.950 . S
C259 C258 1.398 . S
C259 C260 1.391 . S
C260 H248 0.950 . S
C260 C256 1.393 . S
C260 C259 1.391 . S
H261 C269 0.950 1_565 S
H262 C274 0.950 . S
H263 C271 0.950 . S
H264 C273 0.950 . S
H265 C275 0.950 . S
H266 C277 0.950 . S
H267 C279 0.950 . S
H268 C280 0.950 . S
C269 H261 0.950 1_545 S
C269 C270 1.386 . S
C269 C271 1.391 . S
C270 C269 1.386 . S
C270 C274 1.393 . S
C271 H263 0.950 . S
C271 C269 1.391 . S
C271 C272 1.400 . S
C272 C271 1.400 . S
C272 C273 1.398 . S
C272 C278 1.491 . S
C273 H264 0.950 . S
C273 C272 1.398 . S
C273 C274 1.391 . S
C274 H262 0.950 . S
C274 C270 1.393 . S
C274 C273 1.391 . S
C275 H265 0.950 . S
C275 C276 1.386 . S
C275 C277 1.391 . S
C276 C275 1.386 . S
C276 C280 1.393 . S
C277 H266 0.950 . S
C277 C275 1.391 . S
C277 C278 1.400 . S
C278 C272 1.491 . S
C278 C277 1.400 . S
C278 C279 1.398 . S
C279 H267 0.950 . S
C279 C278 1.398 . S
C279 C280 1.391 . S
C280 H268 0.950 . S
C280 C276 1.393 . S
C280 C279 1.391 . S
H281 C289 0.950 . S
H282 C294 0.950 . S
H283 C291 0.950 1_556 S
H284 C293 0.950 . S
H285 C295 0.950 . S
H286 C297 0.950 . S
H287 C299 0.950 . S
H288 C300 0.950 . S
C289 H281 0.950 . S
C289 C290 1.386 . S
C289 C291 1.391 . S
C290 C289 1.386 . S
C290 C294 1.393 . S
C291 H283 0.950 1_554 S
C291 C289 1.391 . S
C291 C292 1.400 . S
C292 C291 1.400 . S
C292 C293 1.398 . S
C292 C298 1.491 1_554 S
C293 H284 0.950 . S
C293 C292 1.398 . S
C293 C294 1.391 . S
C294 H282 0.950 . S
C294 C290 1.393 . S
C294 C293 1.391 . S
C295 H285 0.950 . S
C295 C296 1.386 . S
C295 C297 1.391 . S
C296 C295 1.386 . S
C296 C300 1.393 . S
C297 H286 0.950 . S
C297 C295 1.391 . S
C297 C298 1.400 . S
C298 C292 1.491 1_556 S
C298 C297 1.400 . S
C298 C299 1.398 . S
C299 H287 0.950 . S
C299 C298 1.398 . S
C299 C300 1.391 . S
C300 H288 0.950 . S
C300 C296 1.393 . S
C300 C299 1.391 . S
H301 C309 0.950 . S
H302 C314 0.950 1_655 S
H303 C311 0.950 . S
H304 C313 0.950 1_655 S
H305 C315 0.950 1_655 S
H306 C317 0.950 1_655 S
H307 C319 0.950 . S
H308 C320 0.950 . S
C309 H301 0.950 . S
C309 C310 1.386 . S
C309 C311 1.391 . S
C310 C309 1.386 . S
C310 C314 1.393 . S
C311 H303 0.950 . S
C311 C309 1.391 . S
C311 C312 1.400 . S
C312 C311 1.400 . S
C312 C313 1.398 . S
C312 C318 1.491 . S
C313 H304 0.950 1_455 S
C313 C312 1.398 . S
C313 C314 1.391 . S
C314 H302 0.950 1_455 S
C314 C310 1.393 . S
C314 C313 1.391 . S
C315 H305 0.950 1_455 S
C315 C316 1.386 . S
C315 C317 1.391 . S
C316 C315 1.386 . S
C316 C320 1.393 . S
C317 H306 0.950 1_455 S
C317 C315 1.391 . S
C317 C318 1.400 . S
C318 C312 1.491 . S
C318 C317 1.400 . S
C318 C319 1.398 . S
C319 H307 0.950 . S
C319 C318 1.398 . S
C319 C320 1.391 . S
C320 H308 0.950 . S
C320 C316 1.393 . S
C320 C319 1.391 . S
C96 C47 1.270 . S
C90 C11 1.254 . S
C110 C25 1.382 . S
C116 C65 1.404 . S
C130 C41 1.362 1_655 S
C136 C78 1.427 . S
C150 C7 1.336 1_565 S
C156 C45 1.331 . S
C176 C56 1.454 . S
C170 C21 1.460 . S
C190 C36 1.386 . S
C196 C69 1.474 . S
C216 C58 1.330 . S
C210 C39 1.325 . S
C230 C8 1.347 1_665 S
C236 C71 1.396 . S
C256 C52 1.516 . S
C250 C22 1.464 1_565 S
C276 C60 1.374 . S
C270 C35 1.383 . S
C296 C73 1.353 . S
C290 C13 1.311 . S
C310 C27 1.401 . S
C316 C43 1.468 . S
