# Generated by pormake.
# Topology soc, (4,6)-cn, num edge types: 1
# Building blocks:
#     Node 0, Type 0, BuildingBlock: ESEHIV_clean_sbu_0, # of connection points: 4
#     Node 1, Type 0, BuildingBlock: ESEHIV_clean_sbu_0, # of connection points: 4
#     Node 2, Type 0, BuildingBlock: ESEHIV_clean_sbu_0, # of connection points: 4
#     Node 3, Type 0, BuildingBlock: ESEHIV_clean_sbu_0, # of connection points: 4
#     Node 4, Type 0, BuildingBlock: ESEHIV_clean_sbu_0, # of connection points: 4
#     Node 5, Type 0, BuildingBlock: ESEHIV_clean_sbu_0, # of connection points: 4
#     Node 6, Type 0, BuildingBlock: ESEHIV_clean_sbu_0, # of connection points: 4
#     Node 7, Type 0, BuildingBlock: ESEHIV_clean_sbu_0, # of connection points: 4
#     Node 8, Type 0, BuildingBlock: ESEHIV_clean_sbu_0, # of connection points: 4
#     Node 9, Type 0, BuildingBlock: ESEHIV_clean_sbu_0, # of connection points: 4
#     Node 10, Type 0, BuildingBlock: ESEHIV_clean_sbu_0, # of connection points: 4
#     Node 11, Type 0, BuildingBlock: ESEHIV_clean_sbu_0, # of connection points: 4
#     Node 12, Type 1, BuildingBlock: KUMBUR_clean_sbu_0, # of connection points: 6
#     Node 13, Type 1, BuildingBlock: KUMBUR_clean_sbu_0, # of connection points: 6
#     Node 14, Type 1, BuildingBlock: KUMBUR_clean_sbu_0, # of connection points: 6
#     Node 15, Type 1, BuildingBlock: KUMBUR_clean_sbu_0, # of connection points: 6
#     Node 16, Type 1, BuildingBlock: KUMBUR_clean_sbu_0, # of connection points: 6
#     Node 17, Type 1, BuildingBlock: KUMBUR_clean_sbu_0, # of connection points: 6
#     Node 18, Type 1, BuildingBlock: KUMBUR_clean_sbu_0, # of connection points: 6
#     Node 19, Type 1, BuildingBlock: KUMBUR_clean_sbu_0, # of connection points: 6
#     Edge 20, Type (0, 1), BuildingBlock: KIFKEQ_clean_linker_1, # of connection points: 2
#     Edge 21, Type (0, 1), BuildingBlock: KIFKEQ_clean_linker_1, # of connection points: 2
#     Edge 22, Type (0, 1), BuildingBlock: KIFKEQ_clean_linker_1, # of connection points: 2
#     Edge 23, Type (0, 1), BuildingBlock: KIFKEQ_clean_linker_1, # of connection points: 2
#     Edge 24, Type (0, 1), BuildingBlock: KIFKEQ_clean_linker_1, # of connection points: 2
#     Edge 25, Type (0, 1), BuildingBlock: KIFKEQ_clean_linker_1, # of connection points: 2
#     Edge 26, Type (0, 1), BuildingBlock: KIFKEQ_clean_linker_1, # of connection points: 2
#     Edge 27, Type (0, 1), BuildingBlock: KIFKEQ_clean_linker_1, # of connection points: 2
#     Edge 28, Type (0, 1), BuildingBlock: KIFKEQ_clean_linker_1, # of connection points: 2
#     Edge 29, Type (0, 1), BuildingBlock: KIFKEQ_clean_linker_1, # of connection points: 2
#     Edge 30, Type (0, 1), BuildingBlock: KIFKEQ_clean_linker_1, # of connection points: 2
#     Edge 31, Type (0, 1), BuildingBlock: KIFKEQ_clean_linker_1, # of connection points: 2
#     Edge 32, Type (0, 1), BuildingBlock: KIFKEQ_clean_linker_1, # of connection points: 2
#     Edge 33, Type (0, 1), BuildingBlock: KIFKEQ_clean_linker_1, # of connection points: 2
#     Edge 34, Type (0, 1), BuildingBlock: KIFKEQ_clean_linker_1, # of connection points: 2
#     Edge 35, Type (0, 1), BuildingBlock: KIFKEQ_clean_linker_1, # of connection points: 2
#     Edge 36, Type (0, 1), BuildingBlock: KIFKEQ_clean_linker_1, # of connection points: 2
#     Edge 37, Type (0, 1), BuildingBlock: KIFKEQ_clean_linker_1, # of connection points: 2
#     Edge 38, Type (0, 1), BuildingBlock: KIFKEQ_clean_linker_1, # of connection points: 2
#     Edge 39, Type (0, 1), BuildingBlock: KIFKEQ_clean_linker_1, # of connection points: 2
#     Edge 40, Type (0, 1), BuildingBlock: KIFKEQ_clean_linker_1, # of connection points: 2
#     Edge 41, Type (0, 1), BuildingBlock: KIFKEQ_clean_linker_1, # of connection points: 2
#     Edge 42, Type (0, 1), BuildingBlock: KIFKEQ_clean_linker_1, # of connection points: 2
#     Edge 43, Type (0, 1), BuildingBlock: KIFKEQ_clean_linker_1, # of connection points: 2
#     Edge 44, Type (0, 1), BuildingBlock: KIFKEQ_clean_linker_1, # of connection points: 2
#     Edge 45, Type (0, 1), BuildingBlock: KIFKEQ_clean_linker_1, # of connection points: 2
#     Edge 46, Type (0, 1), BuildingBlock: KIFKEQ_clean_linker_1, # of connection points: 2
#     Edge 47, Type (0, 1), BuildingBlock: KIFKEQ_clean_linker_1, # of connection points: 2
#     Edge 48, Type (0, 1), BuildingBlock: KIFKEQ_clean_linker_1, # of connection points: 2
#     Edge 49, Type (0, 1), BuildingBlock: KIFKEQ_clean_linker_1, # of connection points: 2
#     Edge 50, Type (0, 1), BuildingBlock: KIFKEQ_clean_linker_1, # of connection points: 2
#     Edge 51, Type (0, 1), BuildingBlock: KIFKEQ_clean_linker_1, # of connection points: 2
#     Edge 52, Type (0, 1), BuildingBlock: KIFKEQ_clean_linker_1, # of connection points: 2
#     Edge 53, Type (0, 1), BuildingBlock: KIFKEQ_clean_linker_1, # of connection points: 2
#     Edge 54, Type (0, 1), BuildingBlock: KIFKEQ_clean_linker_1, # of connection points: 2
#     Edge 55, Type (0, 1), BuildingBlock: KIFKEQ_clean_linker_1, # of connection points: 2
#     Edge 56, Type (0, 1), BuildingBlock: KIFKEQ_clean_linker_1, # of connection points: 2
#     Edge 57, Type (0, 1), BuildingBlock: KIFKEQ_clean_linker_1, # of connection points: 2
#     Edge 58, Type (0, 1), BuildingBlock: KIFKEQ_clean_linker_1, # of connection points: 2
#     Edge 59, Type (0, 1), BuildingBlock: KIFKEQ_clean_linker_1, # of connection points: 2
#     Edge 60, Type (0, 1), BuildingBlock: KIFKEQ_clean_linker_1, # of connection points: 2
#     Edge 61, Type (0, 1), BuildingBlock: KIFKEQ_clean_linker_1, # of connection points: 2
#     Edge 62, Type (0, 1), BuildingBlock: KIFKEQ_clean_linker_1, # of connection points: 2
#     Edge 63, Type (0, 1), BuildingBlock: KIFKEQ_clean_linker_1, # of connection points: 2
#     Edge 64, Type (0, 1), BuildingBlock: KIFKEQ_clean_linker_1, # of connection points: 2
#     Edge 65, Type (0, 1), BuildingBlock: KIFKEQ_clean_linker_1, # of connection points: 2
#     Edge 66, Type (0, 1), BuildingBlock: KIFKEQ_clean_linker_1, # of connection points: 2
#     Edge 67, Type (0, 1), BuildingBlock: KIFKEQ_clean_linker_1, # of connection points: 2
# Relax obj value: 0.067
# Max RMSD: 0.198
# Mean RMSD: 0.140
data_MOF--net-soc--node1-ESEHIV_clean_sbu_0--node2-KUMBUR_clean_sbu_0--edge1-KIFKEQ_clean_linker_1
_symmetry_space_group_name_H-M    P1
_symmetry_Int_Tables_number       1
_symmetry_cell_setting            triclinic
loop_
_symmetry_equiv_pos_as_xyz
'x, y, z'
_cell_length_a     51.683433
_cell_length_b     50.098098
_cell_length_c     41.708947
_cell_angle_alpha  83.736693
_cell_angle_beta   81.633415
_cell_angle_gamma 72.785286
loop_
_atom_site_label
_atom_site_type_symbol
_atom_site_fract_x
_atom_site_fract_y
_atom_site_fract_z
_atom_type_partial_charge
Cu0 Cu 0.04756 0.0526 0.36798 0.0
N1 N 0.0603 0.07184 0.39557 0.0
N2 N 0.08294 0.09885 0.41201 0.0
C3 C 0.0808 0.08386 0.38787 0.0
C4 C 0.06312 0.0957 0.43587 0.0
C5 C 0.04924 0.07913 0.42567 0.0
O6 O 0.0797 0.02894 0.34345 0.0
C7 C 1.01476 0.10582 0.34419 0.0
O8 O 0.03245 0.11579 0.3549 0.0
H9 H 0.09325 0.08229 0.36457 0.0
H10 H 0.03166 0.07366 0.43877 0.0
N11 N 0.02948 0.02833 0.39185 0.0
N12 N 1.0016 1.00091 0.40164 0.0
C13 C 1.0085 0.02177 0.38227 0.0
C14 C 0.03616 1.01119 0.41836 0.0
C15 C 1.01894 0.99425 0.42452 0.0
C16 C 0.08029 1.00622 0.33181 0.0
O17 O 0.05726 1.00079 0.3298 0.0
H18 H 0.99954 0.03111 0.36035 0.0
H19 H 0.05295 1.01039 0.43154 0.0
O20 O 1.01963 0.07934 0.34389 0.0
H21 H 0.05806 0.10565 0.45861 0.0
H22 H 1.01949 0.97804 0.44401 0.0
Cu23 Cu 0.05589 0.05664 0.75418 0.0
N24 N 0.04184 0.03536 0.73036 0.0
N25 N 1.01882 1.00676 0.71844 0.0
C26 C 1.02332 0.02131 0.74162 0.0
C27 C 0.0352 0.01209 0.69166 0.0
C28 C 0.04938 0.02944 0.69912 0.0
O29 O 1.02585 0.08355 0.77811 0.0
C30 C 0.10492 0.0179 0.76045 0.0
O31 O 0.10535 0.02336 0.72888 0.0
H32 H 1.01399 0.0212 0.76657 0.0
H33 H 0.06466 0.03662 0.68299 0.0
N34 N 0.07443 0.07934 0.72754 0.0
N35 N 0.10317 0.10553 0.71448 0.0
C36 C 0.09249 0.08992 0.73809 0.0
C37 C 0.07328 0.08896 0.69618 0.0
C38 C 0.09129 0.10491 0.68794 0.0
C39 C 1.00849 0.09884 0.75994 0.0
O40 O 1.01137 0.09331 0.72933 0.0
H41 H 0.09811 0.0857 0.76254 0.0
H42 H 0.06019 0.08494 0.68046 0.0
O43 O 0.08357 0.03018 0.77874 0.0
H44 H 0.03706 1.00399 0.66818 0.0
H45 H 0.09514 0.11545 0.66444 0.0
Cu46 Cu 0.34747 0.05356 0.12053 0.0
N47 N 0.37579 0.02938 0.09545 0.0
N48 N 0.39039 0.99434 0.06228 0.0
C49 C 0.37452 1.00395 0.0896 0.0
C50 C 0.40257 0.01438 0.05059 0.0
C51 C 0.39358 0.03597 0.07118 0.0
O52 O 0.32656 0.02836 0.14359 0.0
C53 C 0.34055 0.10159 0.07802 0.0
O54 O 0.36201 0.10247 0.09082 0.0
H55 H 0.3595 0.99436 0.10262 0.0
H56 H 0.39744 0.05619 0.06671 0.0
N57 N 0.36028 0.07098 0.15022 0.0
N58 N 0.36241 0.10232 0.18346 0.0
C59 C 0.34794 0.09628 0.16217 0.0
C60 C 0.38333 0.06077 0.16443 0.0
C61 C 0.3846 0.07996 0.18512 0.0
C62 C 0.32797 0.01986 0.17352 0.0
O63 O 0.33912 0.03232 0.19145 0.0
H64 H 0.32861 0.10985 0.1556 0.0
H65 H 0.39804 0.04066 0.16024 0.0
O66 O 0.32932 0.0822 0.08837 0.0
H67 H 0.41522 0.01447 0.02751 0.0
H68 H 0.40071 0.07778 0.19999 0.0
Cu69 Cu 0.07742 0.29898 0.11419 0.0
N70 N 0.1061 0.27547 0.08866 0.0
N71 N 0.13806 0.26419 0.04605 0.0
C72 C 0.12012 0.2851 0.06249 0.0
C73 C 0.13524 0.24035 0.06288 0.0
C74 C 0.11545 0.24738 0.08909 0.0
O75 O 0.09454 0.31957 0.1386 0.0
C76 C 0.04449 0.30263 0.06788 0.0
O77 O 0.05453 0.27559 0.07464 0.0
H78 H 0.11682 0.30719 0.05556 0.0
H79 H 0.10784 0.23303 0.10646 0.0
N80 N 0.05691 0.28005 0.14414 0.0
N81 N 1.02018 0.27351 0.1759 0.0
C82 C 0.02982 0.29024 0.15269 0.0
C83 C 0.06458 0.25578 0.1624 0.0
C84 C 0.04198 0.25182 0.18221 0.0
C85 C 0.11014 0.30397 0.15863 0.0
O86 O 0.11314 0.27693 0.16083 0.0
H87 H 1.01751 0.30993 0.14257 0.0
H88 H 0.08513 0.24198 0.1617 0.0
O89 O 0.05182 0.31946 0.08322 0.0
H90 H 0.146 0.2193 0.05624 0.0
H91 H 0.04153 0.23428 0.1997 0.0
Cu92 Cu 0.78383 0.03834 1.00987 0.0
N93 N 0.80237 0.05794 0.97863 0.0
N94 N 0.80972 0.09557 0.94927 0.0
C95 C 0.79165 0.08509 0.96927 0.0
C96 C 0.83272 0.07408 0.94552 0.0
C97 C 0.82808 0.05079 0.96355 0.0
O98 O 0.76222 0.06697 0.03962 0.0
C99 C 0.78482 0.99773 0.97117 0.0
O100 O 0.81058 0.99574 0.97229 0.0
H101 H 0.77139 0.09732 0.9784 0.0
H102 H 0.84267 0.03041 0.96596 0.0
N103 N 0.80649 1.01181 0.03638 0.0
N104 N 0.81653 0.97981 0.07772 0.0
C105 C 0.79655 0.99784 0.06225 0.0
C106 C 0.83383 1.00247 0.03549 0.0
C107 C 0.8401 0.98249 0.06091 0.0
C108 C 0.7781 0.07739 0.05189 0.0
O109 O 0.8045 0.06745 0.04366 0.0
H110 H 0.77496 1.00052 0.06918 0.0
H111 H 0.84823 1.00962 1.01784 0.0
O112 O 0.76679 0.01694 0.98661 0.0
H113 H 0.85164 0.07523 0.9312 0.0
H114 H 0.86034 0.971 0.06671 0.0
Cu115 Cu 0.04017 0.77049 1.02147 0.0
N116 N 1.02317 0.75507 0.99423 0.0
N117 N 0.99251 0.75145 0.96323 0.0
C118 C 1.0008 0.76872 0.97962 0.0
C119 C 1.01044 0.72596 0.96781 0.0
C120 C 0.02917 0.72822 0.987 0.0
O121 O 1.01161 0.78866 0.05641 0.0
C122 C 0.07638 0.78332 0.96698 0.0
O123 O 0.06795 0.76552 0.95334 0.0
H124 H 0.99072 0.79087 0.98127 0.0
H125 H 0.04557 0.71129 0.99572 0.0
N126 N 0.0654 0.74336 0.04381 0.0
N127 N 0.09929 0.73481 0.07466 0.0
C128 C 0.07355 0.74988 0.07037 0.0
C129 C 0.08657 0.72296 0.03105 0.0
C130 C 0.10746 0.71752 0.05017 0.0
C131 C 0.99508 0.77465 0.06939 0.0
O132 O 0.99739 0.75057 0.0579 0.0
H133 H 0.06258 0.76846 0.08299 0.0
H134 H 0.08832 0.71557 1.00721 0.0
O135 O 0.06473 0.79108 0.99518 0.0
H136 H 1.00961 0.70679 0.95886 0.0
H137 H 0.128 0.7042 0.04442 0.0
Cu138 Cu 0.5428 0.54983 0.84892 0.0
N139 N 0.55117 0.57313 0.8754 0.0
N140 N 0.57097 0.60238 0.89232 0.0
C141 C 0.57174 0.58506 0.86925 0.0
C142 C 0.54907 0.60104 0.91384 0.0
C143 C 0.53691 0.58305 0.90332 0.0
O144 O 0.57697 0.52865 0.82583 0.0
C145 C 0.5138 0.59775 0.81214 0.0
O146 O 0.53486 0.60692 0.81384 0.0
H147 H 0.58672 0.58131 0.84801 0.0
H148 H 0.51859 0.57806 0.91476 0.0
N149 N 0.52762 0.52412 0.87454 0.0
N150 N 0.50209 0.49479 0.88944 0.0
C151 C 0.50694 0.51533 0.86773 0.0
C152 C 0.53619 0.50876 0.9015 0.0
C153 C 0.52045 0.49064 0.91079 0.0
C154 C 0.57973 0.50533 0.81428 0.0
O155 O 0.55791 0.49736 0.81285 0.0
H156 H 0.49641 0.52315 0.84651 0.0
H157 H 0.55303 0.51027 0.91315 0.0
O158 O 0.51472 0.57273 0.82279 0.0
H159 H 0.54172 0.6129 0.93516 0.0
H160 H 0.52245 0.47556 0.93159 0.0
Cu161 Cu 0.56178 0.56371 0.24885 0.0
N162 N 0.54359 0.54612 0.22566 0.0
N163 N 0.51713 0.5199 0.21733 0.0
C164 C 0.52254 0.53589 0.23814 0.0
C165 C 0.53531 0.52024 0.19071 0.0
C166 C 0.55154 0.5364 0.19587 0.0
O167 O 0.53422 0.59106 0.2755 0.0
C168 C 0.60746 0.51943 0.25174 0.0
O169 O 0.60706 0.52635 0.2205 0.0
H170 H 0.51255 0.53862 0.26273 0.0
H171 H 0.5689 0.53944 0.17968 0.0
N172 N 0.58297 0.5839 0.22201 0.0
N173 N 0.61441 0.60699 0.2084 0.0
C174 C 0.60127 0.59411 0.23269 0.0
C175 C 0.58437 0.59077 0.1898 0.0
C176 C 0.60389 0.60489 0.18131 0.0
C177 C 0.52249 0.61377 0.25982 0.0
O178 O 0.52903 0.61636 0.22825 0.0
H179 H 0.60536 0.59143 0.25775 0.0
H180 H 0.57207 0.586 0.17361 0.0
O181 O 0.58817 0.53356 0.27136 0.0
H182 H 0.53726 0.50889 0.16942 0.0
H183 H 0.60977 0.61311 0.15715 0.0
Cu184 Cu 0.84418 0.57418 0.60075 0.0
N185 N 0.86897 0.58593 0.56911 0.0
N186 N 0.88452 0.60775 0.52417 0.0
C187 C 0.8647 0.59648 0.53859 0.0
C188 C 0.90209 0.60403 0.54624 0.0
C189 C 0.89253 0.59047 0.57386 0.0
O190 O 0.82667 0.60555 0.6288 0.0
C191 C 0.80566 0.56685 0.55769 0.0
O192 O 0.79991 0.59333 0.54697 0.0
H193 H 0.84652 0.59783 0.52791 0.0
H194 H 0.90144 0.58574 0.59641 0.0
N195 N 0.86267 0.54308 0.62573 0.0
N196 N 0.86782 0.50134 0.6534 0.0
C197 C 0.85006 0.52572 0.64397 0.0
C198 C 0.88946 0.52942 0.62367 0.0
C199 C 0.89272 0.50378 0.64093 0.0
C200 C 0.84224 0.61056 0.64714 0.0
O201 O 0.86691 0.59334 0.64768 0.0
H202 H 0.82809 0.53042 0.64844 0.0
H203 H 0.90536 0.53652 0.6087 0.0
O204 O 0.82106 0.55792 0.58012 0.0
H205 H 0.91984 0.61175 0.54315 0.0
H206 H 0.91179 0.48745 0.64204 0.0
Cu207 Cu 0.57394 0.81098 0.59097 0.0
N208 N 0.60508 0.78923 0.56512 0.0
N209 N 0.6411 0.77937 0.52582 0.0
C210 C 0.61903 0.79927 0.53875 0.0
C211 C 0.64089 0.75591 0.54521 0.0
C212 C 0.61895 0.76204 0.56926 0.0
O213 O 0.5889 0.829 0.6202 0.0
C214 C 0.54738 0.82469 0.53698 0.0
O215 O 0.55989 0.79796 0.53414 0.0
H216 H 0.61318 0.821 0.52961 0.0
H217 H 0.61379 0.74767 0.58865 0.0
N218 N 0.54979 0.79197 0.61601 0.0
N219 N 0.51218 0.78566 0.64772 0.0
C220 C 0.52599 0.80424 0.63423 0.0
C221 C 0.55095 0.76468 0.61783 0.0
C222 C 0.5281 0.76075 0.63726 0.0
C223 C 0.59702 0.81469 0.64595 0.0
O224 O 0.59277 0.78999 0.65265 0.0
H225 H 0.51891 0.82651 0.63726 0.0
H226 H 0.56692 0.74877 0.60527 0.0
O227 O 0.55113 0.83642 0.56086 0.0
H228 H 0.65545 0.73552 0.54238 0.0
H229 H 0.52331 0.74099 0.64237 0.0
Cu230 Cu 0.28068 0.52767 0.53391 0.0
N231 N 0.30042 0.54893 0.50595 0.0
N232 N 0.3091 0.58647 0.47669 0.0
C233 C 0.29136 0.57687 0.49871 0.0
C234 C 0.33016 0.56351 0.46989 0.0
C235 C 0.32471 0.54047 0.48779 0.0
O236 O 0.25701 0.55435 0.564 0.0
C237 C 0.26132 0.51385 0.47831 0.0
O238 O 0.2688 0.53518 0.46296 0.0
H239 H 0.27199 0.58985 0.50937 0.0
H240 H 0.33729 0.51899 0.487 0.0
N241 N 0.30231 0.49818 0.55901 0.0
N242 N 0.31216 0.46366 0.5984 0.0
C243 C 0.29228 0.48229 0.58302 0.0
C244 C 0.32955 0.48924 0.559 0.0
C245 C 0.33568 0.46801 0.58323 0.0
C246 C 0.26891 0.56001 0.58606 0.0
O247 O 0.29463 0.54634 0.58804 0.0
H248 H 0.27066 0.48504 0.58967 0.0
H249 H 0.34394 0.49786 0.54299 0.0
O250 O 0.26245 0.50925 0.50883 0.0
H251 H 0.34794 0.56315 0.45248 0.0
H252 H 0.35593 0.4567 0.58913 0.0
Cu253 Cu 0.52985 0.27781 0.53316 0.0
N254 N 0.56184 0.25816 0.50841 0.0
N255 N 0.60473 0.249 0.48359 0.0
C256 C 0.58294 0.26855 0.49713 0.0
C257 C 0.59677 0.22541 0.48614 0.0
C258 C 0.57039 0.23109 0.50153 0.0
O259 O 0.54102 0.30497 0.55463 0.0
C260 C 0.4944 0.27535 0.48973 0.0
O261 O 0.50878 0.24896 0.49262 0.0
H262 H 0.58239 0.29 0.49953 0.0
H263 H 0.55868 0.21624 0.50824 0.0
N264 N 0.51807 0.25455 0.56674 0.0
N265 N 0.49486 0.24355 0.61324 0.0
C266 C 0.49528 0.26257 0.58781 0.0
C267 C 0.53236 0.22945 0.57919 0.0
C268 C 0.51814 0.22271 0.60804 0.0
C269 C 0.56003 0.29351 0.57248 0.0
O270 O 0.5696 0.26611 0.57483 0.0
H271 H 0.48035 0.28286 0.5858 0.0
H272 H 0.55256 0.21779 0.56929 0.0
O273 O 0.50017 0.29296 0.50544 0.0
H274 H 0.60937 0.20517 0.4786 0.0
H275 H 0.52489 0.20455 0.62462 0.0
Tb276 Tb 0.27511 0.30197 0.35939 0.0
C277 C 0.31345 0.32109 0.21546 0.0
C278 C 0.35038 0.27955 0.20295 0.0
C279 C 0.32253 0.30489 0.161 0.0
C280 C 0.33444 0.29892 0.22527 0.0
C281 C 0.30768 0.32487 0.183 0.0
C282 C 0.34384 0.28221 0.17099 0.0
C283 C 0.27492 0.36911 0.19585 0.0
N284 N 0.29979 0.33999 0.23742 0.0
C285 C 0.28145 0.36443 0.22778 0.0
C286 C 0.28781 0.34906 0.17346 0.0
Tb287 Tb 0.3116 0.33027 0.28926 0.0
N288 N 0.34032 0.29744 0.25617 0.0
C289 C 0.36342 0.2783 0.26549 0.0
C290 C 0.37298 0.25877 0.21309 0.0
C291 C 0.37982 0.25848 0.24432 0.0
H292 H 0.27129 0.38 0.24491 0.0
H293 H 0.39763 0.2429 0.25219 0.0
H294 H 0.35565 0.26737 0.15356 0.0
H295 H 0.25993 0.38816 0.18854 0.0
H296 H 0.36895 0.27759 0.28958 0.0
H297 H 0.18911 0.39102 0.3917 0.0
H298 H 0.38573 0.24342 0.19674 0.0
H299 H 0.31427 0.25356 0.4062 0.0
H300 H 0.21813 0.35507 0.35617 0.0
H301 H 0.32511 0.24748 0.46273 0.0
H302 H 0.31822 0.30721 0.13603 0.0
H303 H 0.19977 0.39196 0.44743 0.0
H304 H 0.22897 0.36934 0.49187 0.0
H305 H 0.28277 0.35278 0.14873 0.0
H306 H 0.26611 0.33014 0.51131 0.0
N307 N 0.24571 0.33568 0.39096 0.0
C308 C 0.22313 0.35488 0.38041 0.0
C309 C 0.21263 0.37598 0.43192 0.0
C310 C 0.2348 0.35534 0.44325 0.0
C311 C 0.20652 0.37546 0.40053 0.0
C312 C 0.25094 0.33514 0.42199 0.0
H313 H 0.30183 0.28425 0.50075 0.0
N314 N 0.28566 0.29377 0.41182 0.0
C315 C 0.31015 0.26621 0.45459 0.0
C316 C 0.27177 0.31339 0.43282 0.0
C317 C 0.30389 0.26969 0.42259 0.0
C318 C 0.29702 0.28705 0.47595 0.0
C319 C 0.27719 0.3108 0.46533 0.0
O320 O 0.27017 0.26155 0.37047 0.0
O321 O 0.29911 0.29477 0.31265 0.0
O322 O 0.27676 0.32195 0.27219 0.0
O323 O 0.24822 0.32157 0.32097 0.0
O324 O 0.30635 0.26274 0.3476 0.0
O325 O 0.23578 0.2969 0.3619 0.0
O326 O 0.31651 0.37076 0.28029 0.0
O327 O 0.28806 0.33706 0.33618 0.0
O328 O 0.31061 0.30944 0.37604 0.0
O329 O 0.3389 0.31015 0.32702 0.0
O330 O 0.28079 0.36967 0.30236 0.0
O331 O 0.35135 0.33482 0.28425 0.0
C332 C 0.31316 0.26977 0.31775 0.0
C333 C 0.22729 0.25962 0.39773 0.0
C334 C 0.19607 0.23151 0.41908 0.0
C335 C 0.21189 0.24171 0.3927 0.0
C336 C 0.19641 0.23928 0.45045 0.0
C337 C 0.22681 0.26723 0.42919 0.0
C338 C 0.21156 0.25703 0.45535 0.0
C339 C 0.25253 0.32307 0.28862 0.0
C340 C 0.24385 0.27017 0.37016 0.0
C341 C 0.26207 0.33153 0.48632 0.0
C342 C 0.24091 0.35382 0.47526 0.0
C343 C 0.27444 0.36232 0.33226 0.0
C344 C 0.35799 0.37417 0.25058 0.0
C345 C 0.37432 0.39094 0.25611 0.0
C346 C 0.38694 0.40454 0.22975 0.0
C347 C 0.38335 0.40089 0.19795 0.0
C348 C 0.35512 0.3705 0.21856 0.0
C349 C 0.36772 0.38379 0.19244 0.0
C350 C 0.33476 0.30847 0.35937 0.0
C351 C 0.343 0.36187 0.27827 0.0
H352 H 0.21197 0.2361 0.36831 0.0
H353 H 0.18514 0.23139 0.47142 0.0
H354 H 0.23825 0.28099 0.43362 0.0
H355 H 0.21154 0.26286 0.4796 0.0
H356 H 0.37669 0.39392 0.28076 0.0
H357 H 0.39294 0.41106 0.17733 0.0
H358 H 0.34294 0.35765 0.21365 0.0
H359 H 0.36523 0.38094 0.16783 0.0
Tb360 Tb 0.81147 0.3148 0.34389 0.0
C361 C 0.73145 0.25597 0.3315 0.0
C362 C 0.74594 0.20577 0.32775 0.0
C363 C 0.69976 0.22855 0.35085 0.0
C364 C 0.75142 0.23201 0.32288 0.0
C365 C 0.70516 0.25462 0.34511 0.0
C366 C 0.72021 0.20411 0.34252 0.0
C367 C 0.69089 0.30499 0.344 0.0
N368 N 0.73734 0.2808 0.3249 0.0
C369 C 0.71721 0.30524 0.3304 0.0
C370 C 0.68486 0.27955 0.35161 0.0
Tb371 Tb 0.77931 0.27961 0.29668 0.0
N372 N 0.77547 0.23471 0.30724 0.0
C373 C 0.79378 0.21215 0.29281 0.0
C374 C 0.76588 0.18225 0.31593 0.0
C375 C 0.78977 0.18555 0.29789 0.0
H376 H 0.72101 0.32515 0.32443 0.0
H377 H 0.80478 0.16779 0.28717 0.0
H378 H 0.71561 0.18417 0.34646 0.0
H379 H 0.67525 0.32449 0.34853 0.0
H380 H 0.81157 0.21481 0.27723 0.0
H381 H 0.83029 0.38976 0.24686 0.0
H382 H 0.76246 0.16175 0.3192 0.0
H383 H 0.851 0.27752 0.39833 0.0
H384 H 0.80255 0.36435 0.28353 0.0
H385 H 0.89999 0.26293 0.40573 0.0
H386 H 0.67967 0.22713 0.36109 0.0
H387 H 0.88003 0.37768 0.24912 0.0
H388 H 0.92131 0.34771 0.27444 0.0
H389 H 0.66444 0.27941 0.36209 0.0
H390 H 0.9406 0.31183 0.31651 0.0
N391 N 0.836 0.33771 0.30654 0.0
C392 C 0.82413 0.35865 0.28487 0.0
C393 C 0.86789 0.36645 0.26542 0.0
C394 C 0.87991 0.34524 0.28791 0.0
C395 C 0.83984 0.37328 0.26404 0.0
C396 C 0.86313 0.33135 0.3086 0.0
H397 H 0.93282 0.27995 0.36561 0.0
N398 N 0.85658 0.29995 0.35271 0.0
C399 C 0.89302 0.27623 0.38462 0.0
C400 C 0.87394 0.31117 0.33197 0.0
C401 C 0.86538 0.28431 0.38022 0.0
C402 C 0.91148 0.28585 0.36191 0.0
C403 C 0.90189 0.3043 0.33575 0.0
O404 O 0.80902 0.32494 0.39239 0.0
O405 O 0.77778 0.29732 0.34234 0.0
O406 O 0.76306 0.325 0.28689 0.0
O407 O 0.77395 0.34473 0.3292 0.0
O408 O 0.79666 0.28923 0.38409 0.0
O409 O 0.80015 0.35732 0.35443 0.0
O410 O 0.75085 0.29931 0.26413 0.0
O411 O 0.80911 0.30253 0.2963 0.0
O412 O 0.83647 0.27098 0.34174 0.0
O413 O 0.80969 0.24682 0.32262 0.0
O414 O 0.81861 0.26981 0.26638 0.0
O415 O 0.78299 0.26257 0.25134 0.0
C416 C 0.77787 0.28453 0.37029 0.0
C417 C 0.81853 0.36777 0.3988 0.0
C418 C 0.82014 0.40821 0.42616 0.0
C419 C 0.80495 0.39261 0.41472 0.0
C420 C 0.84875 0.39857 0.4218 0.0
C421 C 0.84713 0.35871 0.39537 0.0
C422 C 0.86208 0.37395 0.40669 0.0
C423 C 0.75999 0.34633 0.3046 0.0
C424 C 0.80301 0.35184 0.3851 0.0
C425 C 0.91901 0.31706 0.31428 0.0
C426 C 0.90801 0.3376 0.29045 0.0
C427 C 0.82736 0.28892 0.27542 0.0
C428 C 0.73921 0.26618 0.23656 0.0
C429 C 0.74655 0.24481 0.21463 0.0
C430 C 0.72692 0.23245 0.20736 0.0
C431 C 0.70005 0.24153 0.22272 0.0
C432 C 0.71203 0.27486 0.2512 0.0
C433 C 0.69275 0.2625 0.24444 0.0
C434 C 0.83151 0.24762 0.33552 0.0
C435 C 0.7597 0.2793 0.24438 0.0
H436 H 0.78286 0.39997 0.41774 0.0
H437 H 0.86084 0.41003 0.43048 0.0
H438 H 0.85815 0.33988 0.38397 0.0
H439 H 0.88415 0.36662 0.4037 0.0
H440 H 0.76735 0.2381 0.20299 0.0
H441 H 0.68465 0.23215 0.21823 0.0
H442 H 0.7055 0.2912 0.26805 0.0
H443 H 0.67199 0.26924 0.25613 0.0
Tb444 Tb 0.8119 0.76884 0.27416 0.0
C445 C 0.81417 0.81512 0.40145 0.0
C446 C 0.76657 0.839 0.41653 0.0
C447 C 0.79625 0.81912 0.45849 0.0
C448 C 0.7887 0.82906 0.3926 0.0
C449 C 0.81847 0.81059 0.43446 0.0
C450 C 0.77033 0.83331 0.44953 0.0
C451 C 0.86671 0.79247 0.41734 0.0
N452 N 0.8351 0.80749 0.37754 0.0
C453 C 0.86141 0.79769 0.38496 0.0
C454 C 0.84509 0.79855 0.44224 0.0
Tb455 Tb 0.82434 0.81653 0.32523 0.0
N456 N 0.78595 0.83425 0.36046 0.0
C457 C 0.76196 0.85127 0.35068 0.0
C458 C 0.74159 0.85501 0.40656 0.0
C459 C 0.73942 0.86156 0.3735 0.0
H460 H 0.8782 0.79297 0.36573 0.0
H461 H 0.72033 0.87442 0.36554 0.0
H462 H 0.7535 0.84045 0.46827 0.0
H463 H 0.88746 0.78384 0.42305 0.0
H464 H 0.75968 0.85652 0.32531 0.0
H465 H 0.91361 0.7121 0.22439 0.0
H466 H 0.72407 0.86296 0.42417 0.0
H467 H 0.75511 0.79693 0.23982 0.0
H468 H 0.87712 0.73015 0.26796 0.0
H469 H 0.7414 0.80571 0.18443 0.0
H470 H 0.79906 0.81557 0.48401 0.0
H471 H 0.90498 0.72234 0.16692 0.0
H472 H 0.87175 0.74386 0.12641 0.0
H473 H 0.84925 0.79469 0.46731 0.0
H474 H 0.82484 0.76912 0.11551 0.0
N475 N 0.84783 0.75141 0.23576 0.0
C476 C 0.87282 0.7349 0.24312 0.0
C477 C 0.88877 0.73039 0.186 0.0
C478 C 0.86278 0.74599 0.17865 0.0
C479 C 0.8937 0.72455 0.2184 0.0
C480 C 0.84246 0.75614 0.20439 0.0
H481 H 0.77602 0.79197 0.13702 0.0
N482 N 0.79721 0.77905 0.22384 0.0
C483 C 0.76254 0.79587 0.18796 0.0
C484 C 0.81621 0.77029 0.19823 0.0
C485 C 0.77037 0.79083 0.21929 0.0
C486 C 0.78214 0.78809 0.16126 0.0
C487 C 0.80933 0.77485 0.16621 0.0
O488 O 0.78153 0.74827 0.2753 0.0
O489 O 0.80002 0.78911 0.31957 0.0
O490 O 0.83544 0.77506 0.35054 0.0
O491 O 0.83973 0.74527 0.30931 0.0
O492 O 0.76949 0.78564 0.29639 0.0
O493 O 0.82327 0.72491 0.28051 0.0
O494 O 0.85436 0.83692 0.32762 0.0
O495 O 0.83687 0.79517 0.2809 0.0
O496 O 0.80577 0.80911 0.24649 0.0
O497 O 0.79859 0.83969 0.28731 0.0
O498 O 0.86698 0.80124 0.30249 0.0
O499 O 0.81381 0.86034 0.31751 0.0
C500 C 0.77443 0.79374 0.32243 0.0
C501 C 0.79846 0.70507 0.25083 0.0
C502 C 0.77374 0.67935 0.22599 0.0
C503 C 0.77499 0.69635 0.25031 0.0
C504 C 0.79618 0.67182 0.20188 0.0
C505 C 0.82084 0.69633 0.22703 0.0
C506 C 0.81953 0.68012 0.20259 0.0
C507 C 0.84357 0.75013 0.3386 0.0
C508 C 0.79925 0.72358 0.27584 0.0
C509 C 0.82965 0.76564 0.14033 0.0
C510 C 0.85635 0.75126 0.14654 0.0
C511 C 0.86237 0.79154 0.27727 0.0
C512 C 0.83563 0.881 0.35008 0.0
C513 C 0.8577 0.89178 0.35158 0.0
C514 C 0.85625 0.91038 0.37537 0.0
C515 C 0.8328 0.91725 0.39816 0.0
C516 C 0.81221 0.88897 0.37267 0.0
C517 C 0.81099 0.90664 0.39672 0.0
C518 C 0.79813 0.83465 0.2568 0.0
C519 C 0.83704 0.8617 0.32493 0.0
H520 H 0.75796 0.7025 0.26908 0.0
H521 H 0.79573 0.65956 0.18225 0.0
H522 H 0.83943 0.70197 0.22714 0.0
H523 H 0.83674 0.67393 0.18408 0.0
H524 H 0.87562 0.88621 0.33386 0.0
H525 H 0.83128 0.93092 0.41718 0.0
H526 H 0.79464 0.88179 0.37176 0.0
H527 H 0.79295 0.91233 0.41418 0.0
Tb528 Tb 0.29136 0.78802 0.29376 0.0
C529 C 0.30064 0.88772 0.35821 0.0
C530 C 0.33407 0.90507 0.32198 0.0
C531 C 0.29877 0.93694 0.35602 0.0
C532 C 0.32318 0.88294 0.33494 0.0
C533 C 0.28843 0.91466 0.36942 0.0
C534 C 0.32152 0.93216 0.33231 0.0
C535 C 0.25762 0.89526 0.40747 0.0
N536 N 0.29098 0.86578 0.37029 0.0
C537 C 0.27042 0.86892 0.39561 0.0
C538 C 0.26647 0.9183 0.3941 0.0
Tb539 Tb 0.31432 0.82349 0.34993 0.0
N540 N 0.33471 0.8565 0.32543 0.0
C541 C 0.35824 0.85051 0.30434 0.0
C542 C 0.35743 0.89926 0.29931 0.0
C543 C 0.36972 0.87181 0.29073 0.0
H544 H 0.26356 0.85113 0.40607 0.0
H545 H 0.38799 0.86703 0.27351 0.0
H546 H 0.32948 0.94947 0.32246 0.0
H547 H 0.24099 0.89777 0.42697 0.0
H548 H 0.36799 0.82947 0.29728 0.0
H549 H 0.22087 0.74266 0.3738 0.0
H550 H 0.36633 0.91572 0.28863 0.0
H551 H 0.33924 0.76144 0.2343 0.0
H552 H 0.23889 0.78109 0.34756 0.0
H553 H 0.36273 0.71473 0.21397 0.0
H554 H 0.28955 0.95785 0.36413 0.0
H555 H 0.24436 0.69377 0.36055 0.0
H556 H 0.28178 0.66025 0.32696 0.0
H557 H 0.25654 0.93868 0.40338 0.0
H558 H 0.32035 0.65263 0.28343 0.0
N559 N 0.27271 0.75424 0.32006 0.0
C560 C 0.24931 0.75989 0.34138 0.0
C561 C 0.25233 0.71057 0.34882 0.0
C562 C 0.27535 0.70511 0.32562 0.0
C563 C 0.23899 0.73815 0.35633 0.0
C564 C 0.28495 0.72772 0.31121 0.0
H565 H 0.3505 0.67286 0.2409 0.0
N566 N 0.31469 0.7459 0.27299 0.0
C567 C 0.3471 0.71686 0.23461 0.0
C568 C 0.30662 0.7234 0.2868 0.0
C569 C 0.33374 0.74326 0.2461 0.0
C570 C 0.34015 0.69327 0.24989 0.0
C571 C 0.31938 0.6964 0.276 0.0
O572 O 0.28525 0.79439 0.24439 0.0
O573 O 0.30388 0.82381 0.30167 0.0
O574 O 0.27497 0.85047 0.33781 0.0
O575 O 0.256 0.81952 0.31822 0.0
O576 O 0.31392 0.81025 0.2564 0.0
O577 O 0.25234 0.79166 0.28211 0.0
O578 O 0.31869 0.81247 0.3992 0.0
O579 O 0.30261 0.78721 0.34165 0.0
O580 O 0.33165 0.76191 0.30372 0.0
O581 O 0.34991 0.79292 0.32458 0.0
O582 O 0.28975 0.80234 0.38593 0.0
O583 O 0.35231 0.81984 0.36588 0.0
C584 C 0.31527 0.82928 0.2739 0.0
C585 C 0.23986 0.81465 0.23206 0.0
C586 C 0.2056 0.82148 0.19509 0.0
C587 C 0.2257 0.80375 0.21314 0.0
C588 C 0.19977 0.85065 0.19651 0.0
C589 C 0.23397 0.84368 0.23333 0.0
C590 C 0.21394 0.86161 0.2155 0.0
C591 C 0.25398 0.84418 0.32906 0.0
C592 C 0.25971 0.79468 0.25103 0.0
C593 C 0.31064 0.6736 0.29114 0.0
C594 C 0.28867 0.67794 0.31593 0.0
C595 C 0.29029 0.78218 0.36897 0.0
C596 C 0.34657 0.83531 0.41913 0.0
C597 C 0.37264 0.83811 0.42071 0.0
C598 C 0.37654 0.85541 0.44307 0.0
C599 C 0.35377 0.87055 0.46305 0.0
C600 C 0.32438 0.85004 0.44024 0.0
C601 C 0.32793 0.86787 0.46154 0.0
C602 C 0.35244 0.7687 0.31226 0.0
C603 C 0.34274 0.81645 0.3963 0.0
H604 H 0.22998 0.7812 0.21315 0.0
H605 H 0.18447 0.86494 0.1828 0.0
H606 H 0.24464 0.85235 0.24816 0.0
H607 H 0.20932 0.88406 0.21647 0.0
H608 H 0.38989 0.82651 0.40486 0.0
H609 H 0.35602 0.88361 0.4809 0.0
H610 H 0.30427 0.84756 0.44079 0.0
H611 H 0.31066 0.87913 0.47755 0.0
Tb612 Tb 0.30711 0.8093 0.84839 0.0
C613 C 0.22079 0.78495 0.78997 0.0
C614 C 0.21825 0.74291 0.82343 0.0
C615 C 0.17749 0.7738 0.80268 0.0
C616 C 0.23354 0.76079 0.80767 0.0
C617 C 0.19278 0.79124 0.78651 0.0
C618 C 0.19017 0.74976 0.82121 0.0
C619 C 0.19742 0.83026 0.74912 0.0
N620 N 0.23591 0.80188 0.77539 0.0
C621 C 0.225 0.8232 0.75337 0.0
C622 C 0.18108 0.81452 0.76627 0.0
Tb623 Tb 0.28121 0.78786 0.78336 0.0
N624 N 0.26073 0.75492 0.80968 0.0
C625 C 0.27381 0.73082 0.8266 0.0
C626 C 0.23158 0.71865 0.84107 0.0
C627 C 0.25948 0.71255 0.84251 0.0
H628 H 0.23762 0.83517 0.73949 0.0
H629 H 0.26999 0.69379 0.85611 0.0
H630 H 0.17814 0.73639 0.83341 0.0
H631 H 0.18885 0.8477 0.73245 0.0
H632 H 0.29513 0.72541 0.82901 0.0
H633 H 0.36154 0.87994 0.78362 0.0
H634 H 0.22054 0.70448 0.85359 0.0
H635 H 0.32295 0.76041 0.90887 0.0
H636 H 0.32158 0.86248 0.80045 0.0
H637 H 0.36294 0.73791 0.93809 0.0
H638 H 0.15591 0.77852 0.80065 0.0
H639 H 0.4052 0.85605 0.80541 0.0
H640 H 0.43112 0.81887 0.84362 0.0
H641 H 0.15969 0.81998 0.76293 0.0
H642 H 0.43137 0.78065 0.88605 0.0
N643 N 0.34259 0.8278 0.83031 0.0
C644 C 0.34047 0.85155 0.81003 0.0
C645 C 0.38775 0.84806 0.81273 0.0
C646 C 0.38928 0.82496 0.83523 0.0
C647 C 0.36313 0.86163 0.80043 0.0
C648 C 0.36603 0.81527 0.84379 0.0
H649 H 0.40593 0.75071 0.92181 0.0
N650 N 0.34331 0.78517 0.8756 0.0
C651 C 0.36422 0.75335 0.9181 0.0
C652 C 0.36628 0.79357 0.86751 0.0
C653 C 0.3416 0.76615 0.90147 0.0
C654 C 0.38845 0.76066 0.90886 0.0
C655 C 0.38962 0.7812 0.88353 0.0
O656 O 0.28292 0.8191 0.89288 0.0
O657 O 0.27265 0.79969 0.83302 0.0
O658 O 0.25634 0.83045 0.79263 0.0
O659 O 0.28222 0.84713 0.82285 0.0
O660 O 0.2841 0.78268 0.87734 0.0
O661 O 0.30826 0.84471 0.87123 0.0
O662 O 0.28643 0.79499 0.73281 0.0
O663 O 0.31452 0.79965 0.79786 0.0
O664 O 0.33411 0.76719 0.83941 0.0
O665 O 0.31777 0.75358 0.79601 0.0
O666 O 0.30376 0.81452 0.7532 0.0
O667 O 0.2862 0.75399 0.75453 0.0
C668 C 0.26582 0.78562 0.85823 0.0
C669 C 0.30476 0.83596 0.92884 0.0
C670 C 0.32603 0.85385 0.96731 0.0
C671 C 0.31612 0.85635 0.93699 0.0
C672 C 0.32529 0.83036 0.98879 0.0
C673 C 0.30368 0.81307 0.95135 0.0
C674 C 0.31421 0.81016 0.9808 0.0
C675 C 0.26179 0.85095 0.80532 0.0
C676 C 0.29355 0.8386 0.89745 0.0
C677 C 0.41314 0.7901 0.87425 0.0
C678 C 0.413 0.81186 0.85007 0.0
C679 C 0.32163 0.8132 0.77233 0.0
C680 C 0.26659 0.76896 0.7046 0.0
C681 C 0.26295 0.74325 0.6984 0.0
C682 C 0.24551 0.74235 0.67563 0.0
C683 C 0.23093 0.76761 0.66028 0.0
C684 C 0.25287 0.7936 0.68729 0.0
C685 C 0.23473 0.79296 0.66599 0.0
C686 C 0.33519 0.74889 0.81811 0.0
C687 C 0.28562 0.7701 0.72764 0.0
H688 H 0.31657 0.87439 0.92024 0.0
H689 H 0.33318 0.82768 1.01198 0.0
H690 H 0.29475 0.79721 0.9463 0.0
H691 H 0.31354 0.79229 0.99767 0.0
H692 H 0.2744 0.72398 0.71038 0.0
H693 H 0.21685 0.76775 0.64336 0.0
H694 H 0.25605 0.81357 0.6901 0.0
H695 H 0.22388 0.81217 0.65342 0.0
Tb696 Tb 0.30734 0.25286 0.80317 0.0
C697 C 0.30243 0.30071 0.9324 0.0
C698 C 0.25487 0.32704 0.94118 0.0
C699 C 0.27951 0.30647 0.98743 0.0
C700 C 0.27864 0.31565 0.92009 0.0
C701 C 0.30347 0.29668 0.96621 0.0
C702 C 0.2552 0.32162 0.97491 0.0
C703 C 0.35228 0.27692 0.95536 0.0
N704 N 0.3251 0.29195 0.91107 0.0
C705 C 0.35016 0.28162 0.92203 0.0
C706 C 0.32875 0.284 0.97758 0.0
Tb707 Tb 0.31958 0.29964 0.85687 0.0
N708 N 0.27935 0.32067 0.88741 0.0
C709 C 0.2575 0.33905 0.87438 0.0
C710 C 0.23185 0.34429 0.92776 0.0
C711 C 0.23336 0.35074 0.89425 0.0
H712 H 0.3684 0.27587 0.90492 0.0
H713 H 0.21588 0.36462 0.88367 0.0
H714 H 0.23705 0.32984 0.99152 0.0
H715 H 0.37203 0.26783 0.96388 0.0
H716 H 0.25817 0.34415 0.84853 0.0
H717 H 0.40717 0.17678 0.79599 0.0
H718 H 0.21315 0.35338 0.94309 0.0
H719 H 0.26648 0.27816 0.74612 0.0
H720 H 0.36435 0.20481 0.82377 0.0
H721 H 0.27011 0.28172 0.68613 0.0
H722 H 0.27976 0.30328 1.01351 0.0
H723 H 0.41689 0.18227 0.73622 0.0
H724 H 0.40104 0.20468 0.68304 0.0
H725 H 0.33044 0.28051 1.00338 0.0
H726 H 0.36384 0.23397 0.65298 0.0
N727 N 0.34907 0.22657 0.78034 0.0
C728 C 0.36779 0.20755 0.79772 0.0
C729 C 0.3978 0.19468 0.74829 0.0
C730 C 0.37829 0.21338 0.7305 0.0
C731 C 0.39234 0.19146 0.78201 0.0
C732 C 0.35373 0.22901 0.7474 0.0
H733 H 0.31469 0.26228 0.65389 0.0
N734 N 0.30885 0.25813 0.74771 0.0
C735 C 0.28803 0.27171 0.69827 0.0
C736 C 0.33292 0.24549 0.7305 0.0
C737 C 0.28604 0.26958 0.7322 0.0
C738 C 0.31324 0.26082 0.68017 0.0
C739 C 0.33593 0.24681 0.69625 0.0
O740 O 0.27338 0.24068 0.79444 0.0
O741 O 0.29347 0.27605 0.84578 0.0
O742 O 0.32679 0.25893 0.88435 0.0
O743 O 0.32099 0.22863 0.84846 0.0
O744 O 0.26449 0.27541 0.8181 0.0
O745 O 0.30899 0.2103 0.81094 0.0
O746 O 0.35202 0.31657 0.85959 0.0
O747 O 0.33344 0.27609 0.8146 0.0
O748 O 0.30429 0.29302 0.7747 0.0
O749 O 0.30018 0.32399 0.81468 0.0
O750 O 0.36272 0.2792 0.84044 0.0
O751 O 0.31277 0.34312 0.8487 0.0
C752 C 0.26805 0.28327 0.84511 0.0
C753 C 0.28623 0.1961 0.77337 0.0
C754 C 0.2622 0.17332 0.74339 0.0
C755 C 0.26227 0.1898 0.76881 0.0
C756 C 0.28636 0.16411 0.72211 0.0
C757 C 0.31028 0.18534 0.7527 0.0
C758 C 0.3102 0.16988 0.72698 0.0
C759 C 0.32709 0.23385 0.87664 0.0
C760 C 0.28592 0.21413 0.79932 0.0
C761 C 0.36099 0.23286 0.67929 0.0
C762 C 0.38213 0.21612 0.69641 0.0
C763 C 0.35886 0.26943 0.81485 0.0
C764 C 0.33748 0.36169 0.87949 0.0
C765 C 0.35865 0.37454 0.87578 0.0
C766 C 0.35902 0.39371 0.89799 0.0
C767 C 0.3383 0.39925 0.92433 0.0
C768 C 0.31683 0.36798 0.90572 0.0
C769 C 0.3174 0.38644 0.9281 0.0
C770 C 0.29957 0.31865 0.78428 0.0
C771 C 0.33681 0.34225 0.85564 0.0
H772 H 0.24396 0.1973 0.78546 0.0
H773 H 0.28696 0.1523 0.70163 0.0
H774 H 0.32924 0.18872 0.75636 0.0
H775 H 0.32875 0.16221 0.71081 0.0
H776 H 0.37437 0.37012 0.85525 0.0
H777 H 0.33828 0.41347 0.94213 0.0
H778 H 0.30006 0.35894 0.90881 0.0
H779 H 0.30145 0.391 0.94834 0.0
Tb780 Tb 0.79124 0.29381 0.78149 0.0
C781 C 0.80512 0.3954 0.83788 0.0
C782 C 0.84193 0.40965 0.8048 0.0
C783 C 0.80474 0.44429 0.8331 0.0
C784 C 0.82923 0.38874 0.81726 0.0
C785 C 0.79277 0.42315 0.84647 0.0
C786 C 0.8293 0.43754 0.81233 0.0
C787 C 0.75895 0.40661 0.88279 0.0
N788 N 0.79427 0.37436 0.85045 0.0
C789 C 0.77211 0.37935 0.87381 0.0
C790 C 0.76916 0.42866 0.86882 0.0
Tb791 Tb 0.81806 0.33045 0.83474 0.0
N792 N 0.84076 0.36158 0.81045 0.0
C793 C 0.86596 0.35364 0.79289 0.0
C794 C 0.86725 0.40178 0.78578 0.0
C795 C 0.87946 0.37359 0.78016 0.0
H796 H 0.76422 0.36234 0.88477 0.0
H797 H 0.8992 0.36724 0.76583 0.0
H798 H 0.83861 0.45395 0.80272 0.0
H799 H 0.74103 0.41059 0.90058 0.0
H800 H 0.8756 0.33191 0.78831 0.0
H801 H 0.71412 0.25714 0.85995 0.0
H802 H 0.8777 0.4172 0.77578 0.0
H803 H 0.83874 0.26196 0.72467 0.0
H804 H 0.73584 0.29242 0.83246 0.0
H805 H 0.86064 0.21368 0.70844 0.0
H806 H 0.79548 0.46579 0.83922 0.0
H807 H 0.73579 0.20684 0.85192 0.0
H808 H 0.77343 0.16974 0.82318 0.0
H809 H 0.75902 0.44972 0.876 0.0
H810 H 0.81335 0.15786 0.7816 0.0
N811 N 0.76967 0.26257 0.80877 0.0
C812 C 0.74546 0.27063 0.82833 0.0
C813 C 0.74534 0.22228 0.83954 0.0
C814 C 0.76941 0.21428 0.81829 0.0
C815 C 0.73302 0.25065 0.84404 0.0
C816 C 0.78092 0.23525 0.80275 0.0
H817 H 0.84577 0.17422 0.7382 0.0
N818 N 0.81228 0.24985 0.7639 0.0
C819 C 0.84453 0.21758 0.72855 0.0
C820 C 0.80306 0.22861 0.77941 0.0
C821 C 0.83202 0.24491 0.73775 0.0
C822 C 0.83612 0.19535 0.74546 0.0
C823 C 0.81481 0.20076 0.7709 0.0
O824 O 0.78427 0.30075 0.73232 0.0
O825 O 0.80999 0.32571 0.78687 0.0
O826 O 0.78138 0.35891 0.81621 0.0
O827 O 0.7592 0.32672 0.80738 0.0
O828 O 0.8168 0.31086 0.74228 0.0
O829 O 0.75063 0.30675 0.77029 0.0
O830 O 0.82133 0.32468 0.88486 0.0
O831 O 0.80111 0.29727 0.82897 0.0
O832 O 0.82978 0.26616 0.79453 0.0
O833 O 0.85176 0.29619 0.81139 0.0
O834 O 0.79249 0.3123 0.87306 0.0
O835 O 0.85714 0.3217 0.85032 0.0
C836 C 0.82211 0.32831 0.75886 0.0
C837 C 0.74466 0.28993 0.72189 0.0
C838 C 0.70639 0.28736 0.69498 0.0
C839 C 0.71932 0.30307 0.71001 0.0
C840 C 0.71919 0.25867 0.69177 0.0
C841 C 0.75703 0.26133 0.71782 0.0
C842 C 0.74436 0.24585 0.70296 0.0
C843 C 0.75914 0.35262 0.8114 0.0
C844 C 0.7579 0.30574 0.73912 0.0
C845 C 0.80444 0.17947 0.7875 0.0
C846 C 0.78174 0.18622 0.81118 0.0
C847 C 0.78923 0.29339 0.85683 0.0
C848 C 0.85573 0.34187 0.90002 0.0
C849 C 0.88154 0.33376 0.91166 0.0
C850 C 0.88903 0.35198 0.93003 0.0
C851 C 0.87042 0.37827 0.93618 0.0
C852 C 0.83759 0.36805 0.90753 0.0
C853 C 0.84498 0.38615 0.92503 0.0
C854 C 0.85183 0.2716 0.8016 0.0
C855 C 0.84728 0.32304 0.88092 0.0
H856 H 0.70954 0.32516 0.7129 0.0
H857 H 0.70981 0.24618 0.68017 0.0
H858 H 0.77654 0.25082 0.72599 0.0
H859 H 0.75411 0.22378 0.70008 0.0
H860 H 0.89561 0.31345 0.90656 0.0
H861 H 0.87515 0.39253 0.95063 0.0
H862 H 0.81737 0.37452 0.90052 0.0
H863 H 0.83067 0.40624 0.93051 0.0
Tb864 Tb 0.76409 0.80113 0.84289 0.0
C865 C 0.80475 0.82198 0.69969 0.0
C866 C 0.83707 0.778 0.68496 0.0
C867 C 0.81135 0.80869 0.64412 0.0
C868 C 0.82343 0.79727 0.70841 0.0
C869 C 0.79886 0.82836 0.66732 0.0
C870 C 0.83042 0.78352 0.65294 0.0
C871 C 0.77053 0.8739 0.68284 0.0
N872 N 0.79335 0.84042 0.72279 0.0
C873 C 0.77711 0.8666 0.71462 0.0
C874 C 0.78119 0.85458 0.65915 0.0
Tb875 Tb 0.80457 0.82634 0.77441 0.0
N876 N 0.82948 0.79302 0.73946 0.0
C877 C 0.85066 0.77074 0.74797 0.0
C878 C 0.85754 0.75427 0.69416 0.0
C879 C 0.86465 0.75087 0.72567 0.0
H880 H 0.7686 0.8816 0.73281 0.0
H881 H 0.88085 0.73288 0.73289 0.0
H882 H 0.84045 0.76883 0.63464 0.0
H883 H 0.7572 0.89441 0.67666 0.0
H884 H 0.85644 0.76754 0.7722 0.0
H885 H 0.68925 0.89658 0.88112 0.0
H886 H 0.86843 0.73887 0.67694 0.0
H887 H 0.79821 0.74601 0.88641 0.0
H888 H 0.71335 0.86071 0.843 0.0
H889 H 0.80909 0.73423 0.94286 0.0
H890 H 0.80691 0.81305 0.61916 0.0
H891 H 0.70108 0.89147 0.93727 0.0
H892 H 0.72827 0.86198 0.98053 0.0
H893 H 0.77613 0.86031 0.63454 0.0
H894 H 0.76095 0.81763 0.99745 0.0
N895 N 0.73944 0.83542 0.87672 0.0
C896 C 0.71883 0.85793 0.86737 0.0
C897 C 0.71182 0.87556 0.9206 0.0
C898 C 0.73176 0.85168 0.93063 0.0
C899 C 0.70503 0.87847 0.88896 0.0
C900 C 0.74519 0.83171 0.90788 0.0
H901 H 0.79089 0.76959 0.98368 0.0
N902 N 0.7747 0.78793 0.89489 0.0
C903 C 0.79634 0.75485 0.93597 0.0
C904 C 0.7635 0.807 0.91734 0.0
C905 C 0.79007 0.76158 0.90402 0.0
C906 C 0.7861 0.77488 0.95892 0.0
C907 C 0.76905 0.80121 0.94987 0.0
O908 O 0.75339 0.76327 0.85094 0.0
O909 O 0.78674 0.79358 0.79539 0.0
O910 O 0.76726 0.82442 0.75692 0.0
O911 O 0.73846 0.82624 0.8057 0.0
O912 O 0.79001 0.75999 0.82826 0.0
O913 O 0.72263 0.80276 0.84629 0.0
O914 O 0.81588 0.86384 0.76428 0.0
O915 O 0.78197 0.83364 0.82178 0.0
O916 O 0.8023 0.80082 0.8599 0.0
O917 O 0.83044 0.80012 0.81061 0.0
O918 O 0.7788 0.86752 0.79005 0.0
O919 O 0.84571 0.82469 0.77446 0.0
C920 C 0.79735 0.76744 0.79872 0.0
C921 C 0.71017 0.76639 0.88019 0.0
C922 C 0.68187 0.73579 0.90287 0.0
C923 C 0.69781 0.74555 0.87643 0.0
C924 C 0.67848 0.74729 0.93304 0.0
C925 C 0.70627 0.77765 0.91044 0.0
C926 C 0.69057 0.7681 0.9367 0.0
C927 C 0.74264 0.82816 0.7734 0.0
C928 C 0.72736 0.7758 0.85255 0.0
C929 C 0.75676 0.82152 0.97239 0.0
C930 C 0.73815 0.84676 0.96276 0.0
C931 C 0.77162 0.8598 0.81955 0.0
C932 C 0.86122 0.85876 0.73983 0.0
C933 C 0.87732 0.87571 0.74559 0.0
C934 C 0.89712 0.88158 0.72099 0.0
C935 C 0.90014 0.87072 0.69052 0.0
C936 C 0.86464 0.8483 0.70919 0.0
C937 C 0.88391 0.85434 0.68468 0.0
C938 C 0.8267 0.79703 0.84288 0.0
C939 C 0.84163 0.85132 0.76614 0.0
H940 H 0.7009 0.73672 0.85309 0.0
H941 H 0.66607 0.74054 0.95372 0.0
H942 H 0.71525 0.79387 0.9138 0.0
H943 H 0.68766 0.77693 0.95996 0.0
H944 H 0.87491 0.88371 0.7693 0.0
H945 H 0.91498 0.87508 0.67107 0.0
H946 H 0.85262 0.83529 0.70423 0.0
H947 H 0.88641 0.84614 0.66111 0.0
H948 H 0.09647 0.11801 0.46397 0.0
H949 H 0.11041 0.12015 0.35912 0.0
H950 H 0.12378 0.15009 0.46342 0.0
H951 H 0.13822 0.15199 0.35879 0.0
H952 H 0.20856 0.18798 0.37883 0.0
H953 H 0.18205 0.15528 0.37559 0.0
H954 H 0.11904 0.19991 0.44626 0.0
H955 H 0.14504 0.23267 0.44909 0.0
C956 C 0.1052 0.12532 0.44075 0.0
C957 C 0.10078 0.11652 0.4116 0.0
C958 C 0.12096 0.14377 0.44046 0.0
C959 C 0.13299 0.15389 0.41104 0.0
C960 C 0.12937 0.1445 0.38189 0.0
C961 C 0.1134 0.12613 0.38214 0.0
C962 C 0.18886 0.19107 0.3933 0.0
C963 C 0.1792 0.21281 0.41459 0.0
C964 C 0.1737 0.17226 0.39151 0.0
C965 C 0.14861 0.17468 0.41108 0.0
C966 C 0.13858 0.19698 0.43145 0.0
C967 C 0.15356 0.21579 0.43307 0.0
H968 H 0.99636 0.16198 0.35147 0.0
H969 H 0.97055 0.09326 0.32609 0.0
H970 H 0.9501 0.19257 0.35079 0.0
H971 H 0.92391 0.12441 0.32501 0.0
H972 H 0.86118 0.22978 0.38667 0.0
H973 H 0.90523 0.19421 0.38695 0.0
H974 H 0.89695 0.17016 0.2936 0.0
H975 H 0.85356 0.20681 0.29265 0.0
C976 C 0.98093 0.1534 0.34534 0.0
C977 C 0.9873 0.12501 0.33897 0.0
C978 C 0.95429 0.17095 0.34525 0.0
C979 C 0.93324 0.16079 0.33843 0.0
C980 C 0.9397 0.13279 0.33051 0.0
C981 C 0.96643 0.115 0.33102 0.0
C982 C 0.86865 0.21681 0.36632 0.0
C983 C 0.85386 0.22131 0.33959 0.0
C984 C 0.89386 0.19638 0.36648 0.0
C985 C 0.90477 0.17964 0.34005 0.0
C986 C 0.88903 0.18262 0.31439 0.0
C987 C 0.86389 0.20337 0.31409 0.0
H988 H 0.99981 0.94802 0.42289 0.0
H989 H 0.95705 0.02325 0.36982 0.0
H990 H 0.96543 0.92569 0.41483 0.0
H991 H 0.92351 1.00059 0.36059 0.0
H992 H 0.85114 0.96476 0.38481 0.0
H993 H 0.88667 0.9858 0.39098 0.0
H994 H 0.94774 0.90697 0.37354 0.0
H995 H 0.91175 0.88549 0.36856 0.0
C996 C 0.98312 0.95984 0.40955 0.0
C997 C 0.98125 0.98754 0.39713 0.0
C998 C 0.96359 0.94687 0.40453 0.0
C999 C 0.94166 0.96131 0.38704 0.0
C1000 C 0.93992 0.98892 0.37449 0.0
C1001 C 0.95937 1.00186 0.37952 0.0
C1002 C 0.87213 0.95181 0.38243 0.0
C1003 C 0.87856 0.92335 0.37648 0.0
C1004 C 0.89257 0.96399 0.38561 0.0
C1005 C 0.92013 0.94812 0.38278 0.0
C1006 C 0.9267 0.91973 0.37623 0.0
C1007 C 0.90613 0.90749 0.373 0.0
H1008 H 0.12713 1.00106 0.35766 0.0
H1009 H 0.09222 0.95946 0.29733 0.0
H1010 H 0.16758 0.96152 0.35722 0.0
H1011 H 0.13383 0.92021 0.29487 0.0
H1012 H 0.20207 0.84155 0.32313 0.0
H1013 H 0.16028 0.88063 0.32207 0.0
H1014 H 0.20683 0.93836 0.32866 0.0
H1015 H 0.24722 0.89987 0.33215 0.0
C1016 C 0.12842 0.98375 0.34346 0.0
C1017 C 0.10646 0.98361 0.32732 0.0
C1018 C 0.15183 0.96089 0.34307 0.0
C1019 C 0.15443 0.93735 0.32579 0.0
C1020 C 0.13262 0.93756 0.30891 0.0
C1021 C 0.10885 0.96028 0.30994 0.0
C1022 C 0.20316 0.86261 0.32472 0.0
C1023 C 0.22807 0.86731 0.32826 0.0
C1024 C 0.17923 0.88515 0.32376 0.0
C1025 C 0.17978 0.91298 0.32569 0.0
C1026 C 0.20499 0.91744 0.32824 0.0
C1027 C 0.22851 0.89507 0.32997 0.0
H1028 H 0.15675 1.00777 0.73177 0.0
H1029 H 0.1087 0.98279 0.81685 0.0
H1030 H 0.19658 0.97063 0.74566 0.0
H1031 H 0.14902 0.94471 0.83065 0.0
H1032 H 0.23507 0.88701 0.85223 0.0
H1033 H 0.19772 0.93043 0.8456 0.0
H1034 H 0.20703 0.92023 0.74264 0.0
H1035 H 0.24423 0.87772 0.74933 0.0
C1036 C 0.15475 0.99442 0.75369 0.0
C1037 C 0.12943 0.99795 0.77294 0.0
C1038 C 0.17764 0.97303 0.7616 0.0
C1039 C 0.17592 0.95428 0.78887 0.0
C1040 C 0.15103 0.95882 0.80945 0.0
C1041 C 0.12794 0.98057 0.80158 0.0
C1042 C 0.22939 0.89456 0.82816 0.0
C1043 C 0.24246 0.87912 0.80123 0.0
C1044 C 0.20783 0.91914 0.82443 0.0
C1045 C 0.19934 0.92885 0.7936 0.0
C1046 C 0.21315 0.91364 0.76669 0.0
C1047 C 0.23436 0.88912 0.77049 0.0
H1048 H 0.1086 0.13059 0.76624 0.0
H1049 H 0.14478 0.11002 0.66889 0.0
H1050 H 0.14608 0.14947 0.7726 0.0
H1051 H 0.18241 0.12866 0.67531 0.0
H1052 H 0.26011 0.12367 0.72367 0.0
H1053 H 0.22031 0.11049 0.71456 0.0
H1054 H 0.16794 0.18979 0.74627 0.0
H1055 H 0.20798 0.20393 0.75391 0.0
C1056 C 0.1245 0.13029 0.74617 0.0
C1057 C 0.12392 0.11874 0.71713 0.0
C1058 C 0.14578 0.14126 0.74972 0.0
C1059 C 0.16713 0.1404 0.72449 0.0
C1060 C 0.16623 0.12944 0.69517 0.0
C1061 C 0.14468 0.11895 0.69142 0.0
C1062 C 0.24024 0.13869 0.7281 0.0
C1063 C 0.23746 0.1651 0.73914 0.0
C1064 C 0.21742 0.13099 0.72299 0.0
C1065 C 0.19113 0.14922 0.72941 0.0
C1066 C 0.18806 0.17536 0.74115 0.0
C1067 C 0.21101 0.18333 0.74573 0.0
H1068 H 0.96153 0.12256 0.73383 0.0
H1069 H 1.00563 0.13181 0.81031 0.0
H1070 H 0.92621 0.16531 0.74745 0.0
H1071 H 0.96968 0.17541 0.824 0.0
H1072 H 0.90665 0.27029 0.79646 0.0
H1073 H 0.94649 0.2283 0.79068 0.0
H1074 H 0.8923 0.17613 0.80105 0.0
H1075 H 0.85346 0.2168 0.80706 0.0
C1076 C 0.96364 0.13368 0.75372 0.0
C1077 C 0.98629 0.12361 0.77117 0.0
C1078 C 0.94341 0.15827 0.76143 0.0
C1079 C 0.94527 0.17376 0.78665 0.0
C1080 C 0.96791 0.16395 0.80425 0.0
C1081 C 0.98821 0.13887 0.79673 0.0
C1082 C 0.9034 0.24979 0.79791 0.0
C1083 C 0.87675 0.24715 0.80132 0.0
C1084 C 0.92613 0.22581 0.79475 0.0
C1085 C 0.92239 0.19902 0.79503 0.0
C1086 C 0.89584 0.19647 0.80026 0.0
C1087 C 0.87348 0.22004 0.80342 0.0
H1088 H 0.97653 1.00478 0.76561 0.0
H1089 H 1.02103 0.96652 0.67836 0.0
H1090 H 0.94758 0.97352 0.77046 0.0
H1091 H 0.99143 0.93676 0.68221 0.0
H1092 H 0.9524 0.86816 0.70879 0.0
H1093 H 0.98188 0.89753 0.71166 0.0
H1094 H 0.91181 0.96365 0.74712 0.0
H1095 H 0.88242 0.93351 0.74528 0.0
C1096 C 0.98024 0.98981 0.74745 0.0
C1097 C 1.00132 0.98843 0.72155 0.0
C1098 C 0.96338 0.97202 0.75006 0.0
C1099 C 0.96713 0.95236 0.72686 0.0
C1100 C 0.98812 0.95113 0.70098 0.0
C1101 C 1.00498 0.9687 0.69847 0.0
C1102 C 0.94335 0.88889 0.71749 0.0
C1103 C 0.91508 0.89863 0.7265 0.0
C1104 C 0.96022 0.90587 0.71893 0.0
C1105 C 0.94928 0.93333 0.72897 0.0
C1106 C 0.92107 0.94265 0.73938 0.0
C1107 C 0.90417 0.92541 0.7383 0.0
H1108 H 0.34126 0.15604 0.16073 0.0
H1109 H 0.36827 0.1048 0.24606 0.0
H1110 H 0.33154 0.19823 0.19017 0.0
H1111 H 0.357 0.14629 0.27637 0.0
H1112 H 0.29156 0.26661 0.26223 0.0
H1113 H 0.30365 0.2268 0.2286 0.0
H1114 H 0.36914 0.18422 0.28613 0.0
H1115 H 0.35555 0.22324 0.32075 0.0
C1116 C 0.34476 0.15387 0.18598 0.0
C1117 C 0.35565 0.1272 0.20109 0.0
C1118 C 0.33908 0.17804 0.20301 0.0
C1119 C 0.3436 0.17609 0.23587 0.0
C1120 C 0.35399 0.14912 0.25096 0.0
C1121 C 0.36026 0.12513 0.2337 0.0
C1122 C 0.30875 0.24884 0.26727 0.0
C1123 C 0.32282 0.24808 0.29389 0.0
C1124 C 0.3158 0.2259 0.24794 0.0
C1125 C 0.33724 0.20171 0.25465 0.0
C1126 C 0.35194 0.20178 0.28059 0.0
C1127 C 0.34445 0.22436 0.30028 0.0
H1128 H 1.00337 0.26429 0.23935 0.0
H1129 H 0.97441 0.29328 0.14641 0.0
H1130 H 0.95654 0.27161 0.26497 0.0
H1131 H 0.92751 0.29899 0.17124 0.0
H1132 H 0.84295 0.32385 0.22713 0.0
H1133 H 0.88942 0.32287 0.20368 0.0
H1134 H 0.92093 0.25235 0.27073 0.0
H1135 H 0.8751 0.25472 0.29454 0.0
C1136 C 0.98687 0.27194 0.2244 0.0
C1137 C 0.99245 0.27805 0.19094 0.0
C1138 C 0.95996 0.27602 0.23897 0.0
C1139 C 0.93792 0.28562 0.22026 0.0
C1140 C 0.94367 0.29202 0.18671 0.0
C1141 C 0.97059 0.28856 0.17232 0.0
C1142 C 0.85999 0.30886 0.23746 0.0
C1143 C 0.85535 0.29059 0.26418 0.0
C1144 C 0.88667 0.30784 0.22361 0.0
C1145 C 0.90933 0.28776 0.23548 0.0
C1146 C 0.90437 0.26886 0.26152 0.0
C1147 C 0.87781 0.27014 0.27538 0.0
H1148 H 0.84919 0.9277 0.09032 0.0
H1149 H 0.77577 0.98887 0.12745 0.0
H1150 H 0.84135 0.89411 0.13504 0.0
H1151 H 0.76783 0.95518 0.1722 0.0
H1152 H 0.78725 0.89094 0.26495 0.0
H1153 H 0.79064 0.92783 0.22231 0.0
H1154 H 0.80452 0.86874 0.14932 0.0
H1155 H 0.80119 0.83216 0.19126 0.0
C1156 C 0.83157 0.93404 0.10825 0.0
C1157 C 0.81301 0.96079 0.10533 0.0
C1158 C 0.82693 0.91478 0.13364 0.0
C1159 C 0.80381 0.92201 0.15682 0.0
C1160 C 0.78576 0.94909 0.15462 0.0
C1161 C 0.79022 0.96825 0.12895 0.0
C1162 C 0.79046 0.88594 0.23981 0.0
C1163 C 0.79423 0.85839 0.23169 0.0
C1164 C 0.79245 0.90707 0.21543 0.0
C1165 C 0.79842 0.90092 0.18262 0.0
C1166 C 0.80047 0.8739 0.17447 0.0
C1167 C 0.79825 0.85296 0.19866 0.0
H1168 H 0.1514 0.73641 0.05688 0.0
H1169 H 0.08531 0.75338 0.13479 0.0
H1170 H 0.17736 0.75763 0.08531 0.0
H1171 H 0.1115 0.77416 0.16387 0.0
H1172 H 0.15091 0.83822 0.1886 0.0
H1173 H 0.1261 0.8157 0.15987 0.0
H1174 H 0.20141 0.75311 0.13084 0.0
H1175 H 0.22629 0.77647 0.15794 0.0
C1176 C 0.14275 0.74393 0.08057 0.0
C1177 C 0.11636 0.74308 0.09374 0.0
C1178 C 0.15758 0.75627 0.09685 0.0
C1179 C 0.14646 0.76789 0.1268 0.0
C1180 C 0.12048 0.766 0.14054 0.0
C1181 C 0.10558 0.75384 0.12412 0.0
C1182 C 0.16221 0.81995 0.17559 0.0
C1183 C 0.19057 0.8091 0.17574 0.0
C1184 C 0.14793 0.80674 0.15955 0.0
C1185 C 0.16168 0.78234 0.14331 0.0
C1186 C 0.19013 0.77191 0.14288 0.0
C1187 C 0.20438 0.78517 0.15875 0.0
H1188 H 0.38769 0.9938 0.99782 0.0
H1189 H 0.38614 0.94435 0.08903 0.0
H1190 H 0.37366 0.95953 0.97206 0.0
H1191 H 0.37282 0.90977 0.06339 0.0
H1192 H 0.31138 0.87831 0.02451 0.0
H1193 H 0.33059 0.91088 0.04503 0.0
H1194 H 0.38351 0.91164 0.95482 0.0
H1195 H 0.36367 0.87899 0.93398 0.0
C1196 C 0.38519 0.97514 1.01208 0.0
C1197 C 0.38782 0.97176 0.0455 0.0
C1198 C 0.37706 0.95555 0.99737 0.0
C1199 C 0.37152 0.93219 1.01581 0.0
C1200 C 0.37614 0.92791 0.04866 0.0
C1201 C 0.38401 0.94753 0.06333 0.0
C1202 C 0.32711 0.88543 1.00902 0.0
C1203 C 0.33626 0.87586 0.97781 0.0
C1204 C 0.33829 0.90396 1.02086 0.0
C1205 C 0.3591 0.91339 1.0019 0.0
C1206 C 0.36757 0.90472 0.97008 0.0
C1207 C 0.35621 0.88612 0.95811 0.0
H1208 H 0.18395 0.22543 0.02227 0.0
H1209 H 0.13243 0.30912 1.00163 0.0
H1210 H 0.21389 0.23014 0.97269 0.0
H1211 H 0.16319 0.31429 0.95288 0.0
H1212 H 0.2124 0.30328 0.85068 0.0
H1213 H 0.1797 0.29852 0.89842 0.0
H1214 H 0.24669 0.25469 0.95287 0.0
H1215 H 0.27852 0.25883 0.90568 0.0
C1216 C 0.17891 0.24483 1.00724 0.0
C1217 C 0.15573 0.2669 1.01632 0.0
C1218 C 0.1963 0.24767 0.97888 0.0
C1219 C 0.19111 0.27271 0.95883 0.0
C1220 C 0.16773 0.29464 0.96758 0.0
C1221 C 0.15026 0.29177 0.9959 0.0
C1222 C 0.21998 0.29271 0.87296 0.0
C1223 C 0.24818 0.28184 0.87442 0.0
C1224 C 0.20132 0.29007 0.90034 0.0
C1225 C 0.21053 0.27609 0.92955 0.0
C1226 C 0.23873 0.26512 0.93073 0.0
C1227 C 0.25717 0.26774 0.90353 0.0
H1228 H 0.7633 0.13256 0.93149 0.0
H1229 H 0.84734 0.12396 0.94143 0.0
H1230 H 0.75694 0.18167 0.91164 0.0
H1231 H 0.84095 0.17295 0.92285 0.0
H1232 H 0.83242 0.24736 0.85245 0.0
H1233 H 0.83559 0.20015 0.87361 0.0
H1234 H 0.75504 0.22877 0.92614 0.0
H1235 H 0.75122 0.27654 0.90128 0.0
C1236 C 0.78032 0.14129 0.92966 0.0
C1237 C 0.80593 0.1244 0.93753 0.0
C1238 C 0.77664 0.16942 0.91855 0.0
C1239 C 0.79845 0.18124 0.91545 0.0
C1240 C 0.82385 0.16441 0.92419 0.0
C1241 C 0.82759 0.13629 0.9348 0.0
C1242 C 0.81479 0.24344 0.8667 0.0
C1243 C 0.79077 0.26515 0.87264 0.0
C1244 C 0.81694 0.2164 0.88011 0.0
C1245 C 0.79548 0.21045 0.90146 0.0
C1246 C 0.77177 0.23253 0.90921 0.0
C1247 C 0.76961 0.25983 0.8952 0.0
H1248 H 0.98545 0.72437 0.91368 0.0
H1249 H 0.94572 0.79401 0.97285 0.0
H1250 H 0.94528 0.73478 0.88523 0.0
H1251 H 0.90582 0.805 0.94363 0.0
H1252 H 0.8282 0.79806 0.90823 0.0
H1253 H 0.86818 0.78685 0.93722 0.0
H1254 H 0.92056 0.76932 0.84684 0.0
H1255 H 0.88062 0.7798 0.81794 0.0
C1256 C 0.96817 0.74191 0.92066 0.0
C1257 C 0.96892 0.75829 0.94568 0.0
C1258 C 0.94518 0.74807 0.90407 0.0
C1259 C 0.92223 0.77075 0.91208 0.0
C1260 C 0.92298 0.7872 0.93703 0.0
C1261 C 0.94604 0.78109 0.95355 0.0
C1262 C 0.84821 0.79148 0.89454 0.0
C1263 C 0.85108 0.78958 0.86072 0.0
C1264 C 0.87119 0.78537 0.91116 0.0
C1265 C 0.89768 0.77718 0.89442 0.0
C1266 C 0.90052 0.77521 0.86062 0.0
C1267 C 0.87755 0.78138 0.84399 0.0
H1268 H 0.13878 0.34318 0.14242 0.0
H1269 H 0.11769 0.28715 0.22105 0.0
H1270 H 0.17155 0.35216 0.17429 0.0
H1271 H 0.14983 0.29614 0.25275 0.0
H1272 H 0.1984 0.33008 0.31175 0.0
H1273 H 0.16106 0.33128 0.28128 0.0
H1274 H 0.21639 0.32239 0.19248 0.0
H1275 H 0.25375 0.32059 0.22287 0.0
C1276 C 0.14054 0.33347 0.16682 0.0
C1277 C 0.12556 0.31458 0.1793 0.0
C1278 C 0.15951 0.33832 0.18495 0.0
C1279 C 0.16345 0.32478 0.21612 0.0
C1280 C 0.14725 0.30716 0.22908 0.0
C1281 C 0.12881 0.30196 0.21084 0.0
C1282 C 0.20264 0.32858 0.28571 0.0
C1283 C 0.22925 0.32544 0.26989 0.0
C1284 C 0.18117 0.32928 0.2682 0.0
C1285 C 0.1856 0.32708 0.23432 0.0
C1286 C 0.21204 0.32466 0.2184 0.0
C1287 C 0.23356 0.32362 0.23594 0.0
H1288 H 0.09273 0.79031 0.90217 0.0
H1289 H 0.11912 0.78897 0.99588 0.0
H1290 H 0.13761 0.79237 0.87551 0.0
H1291 H 0.16441 0.79042 0.96915 0.0
H1292 H 0.2498 0.7529 0.90909 0.0
H1293 H 0.20369 0.75582 0.93581 0.0
H1294 H 0.1705 0.82347 0.86674 0.0
H1295 H 0.21682 0.82136 0.84095 0.0
C1296 C 0.10795 0.79106 0.91711 0.0
C1297 C 0.10203 0.78991 0.95124 0.0
C1298 C 0.13377 0.79217 0.90176 0.0
C1299 C 0.15484 0.79141 0.92006 0.0
C1300 C 0.14878 0.79089 0.95422 0.0
C1301 C 0.12267 0.79044 0.96959 0.0
C1302 C 0.23266 0.76836 0.8995 0.0
C1303 C 0.23713 0.78635 0.87223 0.0
C1304 C 0.20618 0.77016 0.915 0.0
C1305 C 0.18319 0.78992 0.9036 0.0
C1306 C 0.18761 0.80786 0.87615 0.0
C1307 C 0.21422 0.80646 0.86109 0.0
H1308 H 0.32438 0.09168 1.02145 0.0
H1309 H 0.33965 0.15601 0.07037 0.0
H1310 H 0.32128 0.12212 0.97106 0.0
H1311 H 0.33532 0.18683 1.02106 0.0
H1312 H 0.36141 0.22287 0.92321 0.0
H1313 H 0.36181 0.19099 0.97158 0.0
H1314 H 0.29872 0.16305 0.93993 0.0
H1315 H 0.29908 0.19465 0.89086 0.0
C1316 C 0.32618 0.11266 1.02168 0.0
C1317 C 0.3323 0.12148 0.0498 0.0
C1318 C 0.32453 0.13013 0.99276 0.0
C1319 C 0.32873 0.15684 0.99153 0.0
C1320 C 0.33296 0.16613 1.02049 0.0
C1321 C 0.33503 0.1486 0.04902 0.0
C1322 C 0.34775 0.20981 0.92652 0.0
C1323 C 0.33016 0.2114 0.90333 0.0
C1324 C 0.34776 0.19161 0.95445 0.0
C1325 C 0.32982 0.17471 0.96031 0.0
C1326 C 0.31291 0.17555 0.93637 0.0
C1327 C 0.31317 0.1936 0.90814 0.0
H1328 H 0.03611 0.27105 0.02391 0.0
H1329 H 1.00742 0.35465 0.05709 0.0
H1330 H 1.00105 0.28277 0.98781 0.0
H1331 H 0.97158 0.36643 1.02081 0.0
H1332 H 0.92336 0.384 0.93288 0.0
H1333 H 0.96208 0.37339 0.96405 0.0
H1334 H 0.95245 0.29104 0.99245 0.0
H1335 H 0.91367 0.30171 0.96133 0.0
C1336 C 1.0223 0.29207 0.02348 0.0
C1337 C 1.02449 0.31186 0.04372 0.0
C1338 C 1.00202 0.29872 1.0028 0.0
C1339 C 0.98314 0.32539 1.00164 0.0
C1340 C 0.98586 0.34567 1.02095 0.0
C1341 C 1.00636 0.33897 0.04178 0.0
C1342 C 0.92961 0.36353 0.94564 0.0
C1343 C 0.91524 0.34374 0.9447 0.0
C1344 C 0.95174 0.35754 0.96367 0.0
C1345 C 0.96031 0.33149 0.98112 0.0
C1346 C 0.94663 0.31127 0.97912 0.0
C1347 C 0.92442 0.3173 0.96111 0.0
H1348 H 0.73559 0.99837 0.95045 0.0
H1349 H 0.82019 0.95014 0.94907 0.0
H1350 H 0.72827 0.96428 0.91677 0.0
H1351 H 0.81316 0.91724 0.9157 0.0
H1352 H 0.79441 0.84852 0.87686 0.0
H1353 H 0.79233 0.88078 0.917 0.0
H1354 H 0.74144 0.94804 0.8605 0.0
H1355 H 0.74241 0.91486 0.82085 0.0
C1356 C 0.7525 0.98053 0.94325 0.0
C1357 C 0.77847 0.97714 0.9525 0.0
C1358 C 0.74838 0.96109 0.92381 0.0
C1359 C 0.77007 0.93777 0.91365 0.0
C1360 C 0.79577 0.93444 0.92346 0.0
C1361 C 0.79986 0.95367 0.9425 0.0
C1362 C 0.78207 0.86987 0.87334 0.0
C1363 C 0.76812 0.87887 0.84588 0.0
C1364 C 0.78115 0.88863 0.89626 0.0
C1365 C 0.76696 0.91724 0.89195 0.0
C1366 C 0.75235 0.92617 0.86488 0.0
C1367 C 0.75308 0.90722 0.84202 0.0
H1368 H 0.94455 0.76735 0.08023 0.0
H1369 H 0.99839 0.80005 0.12397 0.0
H1370 H 0.9124 0.77362 0.12969 0.0
H1371 H 0.96613 0.80601 0.17418 0.0
H1372 H 0.91789 0.77341 0.26882 0.0
H1373 H 0.9492 0.77349 0.21861 0.0
H1374 H 0.88049 0.81029 0.16474 0.0
H1375 H 0.84955 0.81091 0.21483 0.0
C1376 C 0.94931 0.77641 0.10028 0.0
C1377 C 0.974 0.78347 0.09788 0.0
C1378 C 0.9308 0.77999 0.12874 0.0
C1379 C 0.93657 0.79022 0.15617 0.0
C1380 C 0.96104 0.7979 0.15364 0.0
C1381 C 0.9794 0.79484 0.12473 0.0
C1382 C 0.90947 0.7815 0.24623 0.0
C1383 C 0.88098 0.79115 0.24594 0.0
C1384 C 0.92746 0.78174 0.21743 0.0
C1385 C 0.9175 0.79172 0.18737 0.0
C1386 C 0.88901 0.80206 0.18724 0.0
C1387 C 0.8711 0.80218 0.21611 0.0
H1388 H 0.32455 0.97624 0.14074 0.0
H1389 H 0.31829 1.00273 0.23735 0.0
H1390 H 0.32092 0.93017 0.16403 0.0
H1391 H 0.31441 0.95702 0.26046 0.0
H1392 H 0.28178 0.88112 0.29036 0.0
H1393 H 0.28286 0.927 0.26571 0.0
H1394 H 0.34963 0.88799 0.19553 0.0
H1395 H 0.34885 0.84168 0.22129 0.0
C1396 C 0.32191 0.97247 0.16691 0.0
C1397 C 0.32162 0.99334 0.18713 0.0
C1398 C 0.32013 0.94593 0.18026 0.0
C1399 C 0.31751 0.93977 0.21416 0.0
C1400 C 0.31624 0.96101 0.2343 0.0
C1401 C 0.31846 0.98728 0.22099 0.0
C1402 C 0.2971 0.88216 0.27033 0.0
C1403 C 0.31599 0.85761 0.25892 0.0
C1404 C 0.29757 0.90862 0.25583 0.0
C1405 C 0.31649 0.91134 0.22873 0.0
C1406 C 0.33473 0.88673 0.21634 0.0
C1407 C 0.33442 0.86021 0.23121 0.0
H1408 H 0.72575 0.10241 0.08139 0.0
H1409 H 0.80928 0.10513 0.07307 0.0
H1410 H 0.71259 0.13965 0.11958 0.0
H1411 H 0.79626 0.14195 0.10991 0.0
H1412 H 0.77213 0.18689 0.20237 0.0
H1413 H 0.78264 0.14916 0.16597 0.0
H1414 H 0.70811 0.1893 0.12339 0.0
H1415 H 0.6975 0.22687 0.16008 0.0
C1416 C 0.74122 0.11094 0.08753 0.0
C1417 C 0.76858 0.10051 0.07428 0.0
C1418 C 0.73372 0.13232 0.10932 0.0
C1419 C 0.75345 0.14363 0.11824 0.0
C1420 C 0.78059 0.1334 0.10442 0.0
C1421 C 0.78801 0.11224 0.08294 0.0
C1422 C 0.75813 0.18781 0.18503 0.0
C1423 C 0.73405 0.20999 0.18411 0.0
C1424 C 0.76408 0.16612 0.16416 0.0
C1425 C 0.74623 0.16611 0.14158 0.0
C1426 C 0.72212 0.18831 0.14072 0.0
C1427 C 0.71612 0.20995 0.16169 0.0
H1428 H 0.58023 0.62402 0.94505 0.0
H1429 H 0.60223 0.62066 0.84129 0.0
H1430 H 0.60825 0.65512 0.94615 0.0
H1431 H 0.63135 0.65077 0.84264 0.0
H1432 H 0.65376 0.73211 0.85338 0.0
H1433 H 0.62839 0.6986 0.85002 0.0
H1434 H 0.65443 0.65647 0.94084 0.0
H1435 H 0.67935 0.69021 0.94435 0.0
C1436 C 0.59108 0.6298 0.92244 0.0
C1437 C 0.58875 0.6198 0.89307 0.0
C1438 C 0.6075 0.64741 0.92313 0.0
C1439 C 0.6222 0.65548 0.89448 0.0
C1440 C 0.62014 0.64525 0.86513 0.0
C1441 C 0.60364 0.62765 0.86443 0.0
C1442 C 0.65433 0.71546 0.87238 0.0
C1443 C 0.66837 0.71398 0.89927 0.0
C1444 C 0.6398 0.6962 0.87047 0.0
C1445 C 0.6391 0.67491 0.89532 0.0
C1446 C 0.65396 0.67293 0.92163 0.0
C1447 C 0.66833 0.69224 0.92361 0.0
H1448 H 0.50388 0.65355 0.79398 0.0
H1449 H 0.4638 0.58804 0.814 0.0
H1450 H 0.45973 0.68841 0.79211 0.0
H1451 H 0.41942 0.62327 0.81202 0.0
H1452 H 0.34572 0.70237 0.78263 0.0
H1453 H 0.38861 0.6643 0.77567 0.0
H1454 H 0.42319 0.70212 0.84045 0.0
H1455 H 0.38122 0.7393 0.84744 0.0
C1456 C 0.48573 0.64646 0.79735 0.0
C1457 C 0.48746 0.61796 0.8046 0.0
C1458 C 0.46039 0.66651 0.79639 0.0
C1459 C 0.4361 0.65861 0.80243 0.0
C1460 C 0.4378 0.62996 0.80726 0.0
C1461 C 0.46325 0.60982 0.80845 0.0
C1462 C 0.36241 0.70235 0.79561 0.0
C1463 C 0.35979 0.72407 0.81575 0.0
C1464 C 0.38694 0.68058 0.79158 0.0
C1465 C 0.4094 0.68049 0.80712 0.0
C1466 C 0.40646 0.70181 0.82767 0.0
C1467 C 0.38209 0.72311 0.83201 0.0
H1468 H 0.50437 0.44191 0.91466 0.0
H1469 H 0.45438 0.51376 0.86323 0.0
H1470 H 0.47018 0.41716 0.91469 0.0
H1471 H 0.42069 0.48872 0.86232 0.0
H1472 H 0.35242 0.449 0.90431 0.0
H1473 H 0.38753 0.47287 0.90117 0.0
H1474 H 0.44955 0.39588 0.87823 0.0
H1475 H 0.41425 0.3717 0.8823 0.0
C1476 C 0.48611 0.45245 0.90338 0.0
C1477 C 0.4821 0.47991 0.88908 0.0
C1478 C 0.46667 0.43812 0.90303 0.0
C1479 C 0.4427 0.45095 0.88851 0.0
C1480 C 0.43881 0.47831 0.87399 0.0
C1481 C 0.45826 0.49259 0.87424 0.0
C1482 C 0.37355 0.43712 0.89869 0.0
C1483 C 0.38056 0.4084 0.8938 0.0
C1484 C 0.39367 0.45088 0.89655 0.0
C1485 C 0.42136 0.4363 0.88949 0.0
C1486 C 0.42841 0.40765 0.88405 0.0
C1487 C 0.4082 0.39387 0.88605 0.0
H1488 H 0.59401 0.45642 0.78386 0.0
H1489 H 0.62761 0.50794 0.83264 0.0
H1490 H 0.63777 0.42039 0.78068 0.0
H1491 H 0.67092 0.47154 0.83088 0.0
H1492 H 0.75261 0.4091 0.80357 0.0
H1493 H 0.71053 0.44672 0.80024 0.0
H1494 H 0.66484 0.38583 0.81398 0.0
H1495 H 0.70714 0.34817 0.81599 0.0
C1496 C 0.6108 0.46014 0.79373 0.0
C1497 C 0.60725 0.48509 0.80852 0.0
C1498 C 0.63587 0.43931 0.79225 0.0
C1499 C 0.65798 0.4427 0.80592 0.0
C1500 C 0.65461 0.46813 0.81972 0.0
C1501 C 0.62965 0.4891 0.82082 0.0
C1502 C 0.73358 0.40371 0.80594 0.0
C1503 C 0.7333 0.37556 0.81019 0.0
C1504 C 0.70934 0.42537 0.80413 0.0
C1505 C 0.68405 0.41953 0.80682 0.0
C1506 C 0.68384 0.39129 0.81114 0.0
C1507 C 0.70814 0.36961 0.8126 0.0
H1508 H 0.65172 0.49089 0.2135 0.0
H1509 H 0.6151 0.49358 0.31354 0.0
H1510 H 0.68824 0.45043 0.22783 0.0
H1511 H 0.65231 0.45213 0.32799 0.0
H1512 H 0.74105 0.39286 0.34029 0.0
H1513 H 0.70389 0.43519 0.33006 0.0
H1514 H 0.69188 0.40122 0.24443 0.0
H1515 H 0.72891 0.35934 0.25424 0.0
C1516 C 0.65136 0.48285 0.23869 0.0
C1517 C 0.63016 0.49545 0.26232 0.0
C1518 C 0.6724 0.45945 0.24685 0.0
C1519 C 0.67304 0.44773 0.27894 0.0
C1520 C 0.65238 0.4607 0.30301 0.0
C1521 C 0.63105 0.48435 0.29475 0.0
C1522 C 0.7306 0.3945 0.31914 0.0
C1523 C 0.73824 0.3727 0.29791 0.0
C1524 C 0.70911 0.41866 0.31352 0.0
C1525 C 0.69497 0.42165 0.28639 0.0
C1526 C 0.70257 0.39979 0.26533 0.0
C1527 C 0.72386 0.37569 0.271 0.0
H1528 H 0.65749 0.60809 0.16344 0.0
H1529 H 0.6204 0.63327 0.25908 0.0
H1530 H 0.69533 0.62662 0.16864 0.0
H1531 H 0.65834 0.65181 0.26434 0.0
H1532 H 0.71929 0.70723 0.24132 0.0
H1533 H 0.67978 0.6907 0.23769 0.0
H1534 H 0.73356 0.61231 0.205 0.0
H1535 H 0.77292 0.62814 0.2097 0.0
C1536 C 0.65729 0.61784 0.18542 0.0
C1537 C 0.63603 0.61913 0.21088 0.0
C1538 C 0.67904 0.62825 0.18851 0.0
C1539 C 0.67983 0.64054 0.21696 0.0
C1540 C 0.65821 0.64254 0.2421 0.0
C1541 C 0.63664 0.63174 0.23919 0.0
C1542 C 0.72273 0.6863 0.23385 0.0
C1543 C 0.7494 0.66919 0.22545 0.0
C1544 C 0.70008 0.67692 0.23163 0.0
C1545 C 0.70362 0.65037 0.22064 0.0
C1546 C 0.7302 0.63309 0.21289 0.0
C1547 C 0.75276 0.64227 0.2155 0.0
H1548 H 0.51181 0.66889 0.24075 0.0
H1549 H 0.48481 0.61152 0.31336 0.0
H1550 H 0.47263 0.70706 0.25922 0.0
H1551 H 0.44513 0.65 0.33189 0.0
H1552 H 0.36139 0.71262 0.30911 0.0
H1553 H 0.40434 0.67625 0.30337 0.0
H1554 H 0.44773 0.73755 0.30501 0.0
H1555 H 0.40411 0.77457 0.31097 0.0
C1556 C 0.4977 0.66456 0.26113 0.0
C1557 C 0.50125 0.63715 0.27545 0.0
C1558 C 0.47533 0.68653 0.27185 0.0
C1559 C 0.45565 0.68159 0.29688 0.0
C1560 C 0.45989 0.65442 0.31237 0.0
C1561 C 0.48264 0.63242 0.30194 0.0
C1562 C 0.37995 0.71858 0.30841 0.0
C1563 C 0.37919 0.74674 0.31012 0.0
C1564 C 0.40467 0.6975 0.30553 0.0
C1565 C 0.42949 0.70389 0.30392 0.0
C1566 C 0.4289 0.73196 0.30617 0.0
C1567 C 0.40395 0.75315 0.30957 0.0
H1568 H 0.52565 0.46721 0.20045 0.0
H1569 H 0.46558 0.5352 0.24795 0.0
H1570 H 0.49303 0.43956 0.20886 0.0
H1571 H 0.43254 0.50768 0.25582 0.0
H1572 H 0.37848 0.46003 0.21188 0.0
H1573 H 0.40953 0.48848 0.21339 0.0
H1574 H 0.46578 0.41754 0.25839 0.0
H1575 H 0.43428 0.38929 0.2576 0.0
C1576 C 0.50542 0.47622 0.21267 0.0
C1577 C 0.49806 0.50341 0.22338 0.0
C1578 C 0.48685 0.46032 0.21774 0.0
C1579 C 0.46028 0.47145 0.23305 0.0
C1580 C 0.4529 0.4986 0.24395 0.0
C1581 C 0.47175 0.51429 0.23954 0.0
C1582 C 0.39723 0.45076 0.22271 0.0
C1583 C 0.40401 0.42255 0.23474 0.0
C1584 C 0.41494 0.46701 0.22364 0.0
C1585 C 0.44009 0.45519 0.23592 0.0
C1586 C 0.44655 0.42714 0.24872 0.0
C1587 C 0.42853 0.41105 0.24845 0.0
H1588 H 0.87547 0.62878 0.67857 0.0
H1589 H 0.79154 0.64972 0.65964 0.0
H1590 H 0.86443 0.66823 0.71165 0.0
H1591 H 0.7802 0.68955 0.69406 0.0
H1592 H 0.77746 0.77258 0.73937 0.0
H1593 H 0.78727 0.73622 0.70063 0.0
H1594 H 0.8404 0.67891 0.76445 0.0
H1595 H 0.83114 0.71525 0.80224 0.0
C1596 C 0.85449 0.64171 0.68159 0.0
C1597 C 0.83432 0.63565 0.66668 0.0
C1598 C 0.84815 0.66444 0.70078 0.0
C1599 C 0.82133 0.68193 0.70611 0.0
C1600 C 0.80111 0.67655 0.69046 0.0
C1601 C 0.80755 0.65363 0.67091 0.0
C1602 C 0.79166 0.75238 0.74466 0.0
C1603 C 0.80426 0.747 0.77336 0.0
C1604 C 0.79696 0.7314 0.72272 0.0
C1605 C 0.81484 0.7046 0.72917 0.0
C1606 C 0.827 0.69938 0.75819 0.0
C1607 C 0.82167 0.72019 0.77997 0.0
H1608 H 0.49117 0.74787 0.6872 0.0
H1609 H 0.47217 0.83558 0.6549 0.0
H1610 H 0.44645 0.75581 0.71848 0.0
H1611 H 0.42764 0.84377 0.68738 0.0
H1612 H 0.33813 0.84272 0.71857 0.0
H1613 H 0.38395 0.83722 0.6902 0.0
H1614 H 0.41686 0.77426 0.76441 0.0
H1615 H 0.37092 0.77935 0.79201 0.0
C1616 C 0.47759 0.76894 0.68668 0.0
C1617 C 0.48571 0.79095 0.6679 0.0
C1618 C 0.45178 0.77361 0.70519 0.0
C1619 C 0.4329 0.80051 0.7058 0.0
C1620 C 0.44117 0.82264 0.68743 0.0
C1621 C 0.46706 0.81797 0.6689 0.0
C1622 C 0.35519 0.82788 0.72903 0.0
C1623 C 0.35052 0.81164 0.75786 0.0
C1624 C 0.38167 0.82479 0.71276 0.0
C1625 C 0.40462 0.80514 0.72459 0.0
C1626 C 0.39997 0.7893 0.75391 0.0
C1627 C 0.37342 0.7924 0.77013 0.0
H1628 H 0.26986 0.44104 0.61567 0.0
H1629 H 0.34695 0.44127 0.64379 0.0
H1630 H 0.26427 0.40809 0.6619 0.0
H1631 H 0.34175 0.40772 0.68941 0.0
H1632 H 0.31349 0.36715 0.78573 0.0
H1633 H 0.31512 0.40321 0.74181 0.0
H1634 H 0.28322 0.35947 0.68052 0.0
H1635 H 0.28075 0.32411 0.7248 0.0
C1636 C 0.2856 0.43418 0.63172 0.0
C1637 C 0.30888 0.44394 0.6258 0.0
C1638 C 0.28251 0.41502 0.65813 0.0
C1639 C 0.30253 0.40516 0.67954 0.0
C1640 C 0.32572 0.41505 0.67374 0.0
C1641 C 0.32888 0.43409 0.64725 0.0
C1642 C 0.30634 0.36544 0.76312 0.0
C1643 C 0.29722 0.34236 0.75883 0.0
C1644 C 0.30762 0.38599 0.73771 0.0
C1645 C 0.29961 0.38419 0.70734 0.0
C1646 C 0.28951 0.3617 0.7035 0.0
C1647 C 0.28838 0.3411 0.72887 0.0
H1648 H 0.60451 0.31065 0.54916 0.0
H1649 H 0.54723 0.30829 0.63462 0.0
H1650 H 0.63664 0.31826 0.58219 0.0
H1651 H 0.57891 0.31669 0.66792 0.0
H1652 H 0.69289 0.33032 0.64807 0.0
H1653 H 0.65226 0.34311 0.61919 0.0
H1654 H 0.62005 0.28381 0.68346 0.0
H1655 H 0.6602 0.27152 0.71205 0.0
C1656 C 0.59821 0.31338 0.57481 0.0
C1657 C 0.57323 0.3094 0.58927 0.0
C1658 C 0.61669 0.3176 0.59388 0.0
C1659 C 0.61064 0.31765 0.62792 0.0
C1660 C 0.58449 0.31631 0.64188 0.0
C1661 C 0.56609 0.31199 0.62278 0.0
C1662 C 0.67663 0.32079 0.65654 0.0
C1663 C 0.67965 0.29993 0.68226 0.0
C1664 C 0.65348 0.32788 0.63985 0.0
C1665 C 0.63281 0.31443 0.64879 0.0
C1666 C 0.6352 0.29496 0.67601 0.0
C1667 C 0.65832 0.28776 0.69239 0.0
H1668 H 0.78516 0.57446 0.49898 0.0
H1669 H 0.81066 0.51159 0.57641 0.0
H1670 H 0.78083 0.53839 0.46675 0.0
H1671 H 0.80663 0.47565 0.54417 0.0
H1672 H 0.8246 0.46013 0.40593 0.0
H1673 H 0.81417 0.5004 0.43849 0.0
H1674 H 0.77798 0.45543 0.51813 0.0
H1675 H 0.78871 0.41494 0.48517 0.0
C1676 C 0.78934 0.55308 0.50943 0.0
C1677 C 0.79848 0.546 0.54026 0.0
C1678 C 0.78704 0.53232 0.49082 0.0
C1679 C 0.79359 0.50397 0.50265 0.0
C1680 C 0.80115 0.49721 0.53427 0.0
C1681 C 0.80363 0.51789 0.55275 0.0
C1682 C 0.8136 0.45924 0.43002 0.0
C1683 C 0.80728 0.43451 0.44293 0.0
C1684 C 0.80759 0.48234 0.44877 0.0
C1685 C 0.79539 0.48121 0.48114 0.0
C1686 C 0.78764 0.45697 0.49343 0.0
C1687 C 0.79344 0.43389 0.47446 0.0
H1688 H 0.63669 0.82266 0.47862 0.0
H1689 H 0.69113 0.74288 0.50781 0.0
H1690 H 0.66931 0.82713 0.43147 0.0
H1691 H 0.72305 0.7468 0.46 0.0
H1692 H 0.78716 0.77058 0.38367 0.0
H1693 H 0.7558 0.76849 0.43322 0.0
H1694 H 0.68756 0.81037 0.37993 0.0
H1695 H 0.71912 0.81326 0.33096 0.0
C1696 C 0.65551 0.80599 0.47522 0.0
C1697 C 0.66079 0.78231 0.49757 0.0
C1698 C 0.67428 0.80843 0.4477 0.0
C1699 C 0.69908 0.78728 0.44133 0.0
C1700 C 0.70449 0.76378 0.46387 0.0
C1701 C 0.68578 0.76136 0.4914 0.0
C1702 C 0.76549 0.77974 0.38271 0.0
C1703 C 0.75576 0.79287 0.35346 0.0
C1704 C 0.74734 0.77824 0.41113 0.0
C1705 C 0.7188 0.78939 0.41111 0.0
C1706 C 0.70922 0.80206 0.38153 0.0
C1707 C 0.72736 0.80356 0.35322 0.0
H1708 H 0.34928 0.61004 0.45098 0.0
H1709 H 0.26172 0.62798 0.47006 0.0
H1710 H 0.3443 0.65723 0.42612 0.0
H1711 H 0.25664 0.67525 0.44469 0.0
H1712 H 0.25849 0.76735 0.42223 0.0
H1713 H 0.26247 0.72059 0.44946 0.0
H1714 H 0.33113 0.68577 0.37914 0.0
H1715 H 0.32775 0.73214 0.35354 0.0
C1716 C 0.32892 0.62394 0.44966 0.0
C1717 C 0.30595 0.61492 0.46252 0.0
C1718 C 0.32601 0.65115 0.43527 0.0
C1719 C 0.30002 0.67028 0.43305 0.0
C1720 C 0.27701 0.66138 0.44624 0.0
C1721 C 0.27993 0.63414 0.46081 0.0
C1722 C 0.27438 0.74961 0.41268 0.0
C1723 C 0.2923 0.75352 0.38497 0.0
C1724 C 0.27659 0.72274 0.42813 0.0
C1725 C 0.29711 0.6991 0.41659 0.0
C1726 C 0.31524 0.70326 0.38917 0.0
C1727 C 0.31303 0.73003 0.37393 0.0
H1728 H 0.44923 0.32206 0.49086 0.0
H1729 H 0.48779 0.24618 0.44183 0.0
H1730 H 0.41058 0.33192 0.4589 0.0
H1731 H 0.44967 0.25597 0.4102 0.0
H1732 H 0.38936 0.29415 0.33679 0.0
H1733 H 0.42781 0.28897 0.36702 0.0
H1734 H 0.37217 0.31139 0.45398 0.0
H1735 H 0.33362 0.3168 0.42371 0.0
C1736 C 0.44963 0.30768 0.47308 0.0
C1737 C 0.47166 0.28333 0.46899 0.0
C1738 C 0.42741 0.31319 0.45493 0.0
C1739 C 0.42696 0.29473 0.4319 0.0
C1740 C 0.44935 0.27082 0.42739 0.0
C1741 C 0.47122 0.26514 0.44574 0.0
C1742 C 0.38524 0.29804 0.36233 0.0
C1743 C 0.35829 0.30556 0.3778 0.0
C1744 C 0.40735 0.29499 0.37973 0.0
C1745 C 0.40318 0.29968 0.41303 0.0
C1746 C 0.37619 0.30782 0.42835 0.0
C1747 C 0.35407 0.31059 0.41102 0.0
H1748 H 0.60598 0.79614 0.70818 0.0
H1749 H 0.62721 0.85221 0.62946 0.0
H1750 H 0.63894 0.80432 0.73923 0.0
H1751 H 0.66045 0.86049 0.66078 0.0
H1752 H 0.74294 0.8282 0.70755 0.0
H1753 H 0.70506 0.83065 0.67784 0.0
H1754 H 0.65065 0.83931 0.76743 0.0
H1755 H 0.68855 0.83717 0.7973 0.0
C1756 C 0.61738 0.81062 0.6977 0.0
C1757 C 0.61401 0.82345 0.66627 0.0
C1758 C 0.63622 0.81543 0.71562 0.0
C1759 C 0.65246 0.83297 0.70248 0.0
C1760 C 0.64841 0.84667 0.67149 0.0
C1761 C 0.62922 0.84212 0.65366 0.0
C1762 C 0.72285 0.8313 0.72094 0.0
C1763 C 0.71895 0.83254 0.75493 0.0
C1764 C 0.70105 0.83273 0.70381 0.0
C1765 C 0.67479 0.83512 0.72022 0.0
C1766 C 0.67067 0.83721 0.75407 0.0
C1767 C 0.69244 0.83604 0.77119 0.0
H1768 H 0.6271 0.28876 0.49704 0.0
H1769 H 0.64336 0.21654 0.44134 0.0
H1770 H 0.67072 0.29553 0.47403 0.0
H1771 H 0.68728 0.22304 0.41872 0.0
H1772 H 0.77219 0.23299 0.39229 0.0
H1773 H 0.73213 0.22258 0.42433 0.0
H1774 H 0.69118 0.31142 0.42516 0.0
H1775 H 0.73144 0.32133 0.39422 0.0
C1776 C 0.63979 0.27442 0.47968 0.0
C1777 C 0.63125 0.25237 0.47071 0.0
C1778 C 0.665 0.27829 0.46644 0.0
C1779 C 0.68248 0.26025 0.44379 0.0
C1780 C 0.67443 0.23754 0.43582 0.0
C1781 C 0.64912 0.23374 0.44894 0.0
C1782 C 0.75453 0.25011 0.39959 0.0
C1783 C 0.75423 0.27787 0.38989 0.0
C1784 C 0.73157 0.24424 0.41783 0.0
C1785 C 0.7081 0.26611 0.42715 0.0
C1786 C 0.70878 0.29395 0.41887 0.0
C1787 C 0.73168 0.29972 0.40073 0.0
H1788 H 0.87094 0.59759 0.46768 0.0
H1789 H 0.89554 0.65743 0.51393 0.0
H1790 H 0.86577 0.62898 0.41843 0.0
H1791 H 0.8888 0.6897 0.46598 0.0
H1792 H 0.82324 0.70625 0.35592 0.0
H1793 H 0.83632 0.66955 0.39872 0.0
H1794 H 0.90215 0.7024 0.413 0.0
H1795 H 0.88765 0.74002 0.37141 0.0
C1796 C 0.87528 0.61751 0.46712 0.0
C1797 C 0.88372 0.62513 0.49437 0.0
C1798 C 0.87212 0.63565 0.43909 0.0
C1799 C 0.87663 0.66216 0.43806 0.0
C1800 C 0.88567 0.66936 0.46532 0.0
C1801 C 0.88944 0.65093 0.49298 0.0
C1802 C 0.84072 0.70524 0.36804 0.0
C1803 C 0.85434 0.72591 0.36082 0.0
C1804 C 0.84838 0.68413 0.3925 0.0
C1805 C 0.87025 0.68294 0.40976 0.0
C1806 C 0.88475 0.70298 0.40103 0.0
C1807 C 0.87662 0.72446 0.37708 0.0
H1808 H 0.54671 0.81352 0.47524 0.0
H1809 H 0.49976 0.86602 0.55114 0.0
H1810 H 0.50732 0.82618 0.44514 0.0
H1811 H 0.45996 0.87833 0.52127 0.0
H1812 H 0.39314 0.90031 0.45533 0.0
H1813 H 0.43687 0.8991 0.47218 0.0
H1814 H 0.46639 0.81041 0.45889 0.0
H1815 H 0.42286 0.81144 0.44276 0.0
C1816 C 0.5281 0.82834 0.48509 0.0
C1817 C 0.52613 0.83852 0.51569 0.0
C1818 C 0.50551 0.83545 0.46794 0.0
C1819 C 0.48037 0.85272 0.48116 0.0
C1820 C 0.47907 0.865 0.51039 0.0
C1821 C 0.50185 0.858 0.52752 0.0
C1822 C 0.40907 0.88059 0.45576 0.0
C1823 C 0.40437 0.8559 0.44793 0.0
C1824 C 0.4341 0.87996 0.46536 0.0
C1825 C 0.45506 0.85469 0.46695 0.0
C1826 C 0.45084 0.83035 0.45744 0.0
C1827 C 0.42582 0.83094 0.44809 0.0
H1828 H 0.25575 0.51795 0.41358 0.0
H1829 H 0.25637 0.46146 0.49965 0.0
H1830 H 0.25485 0.48106 0.38066 0.0
H1831 H 0.25513 0.42453 0.4666 0.0
H1832 H 0.29662 0.35927 0.38917 0.0
H1833 H 0.28814 0.39581 0.42639 0.0
H1834 H 0.22916 0.45075 0.36744 0.0
H1835 H 0.23765 0.41371 0.33017 0.0
C1836 C 0.25517 0.49782 0.42562 0.0
C1837 C 0.25631 0.49272 0.4593 0.0
C1838 C 0.25453 0.47664 0.4067 0.0
C1839 C 0.25513 0.44969 0.42089 0.0
C1840 C 0.25503 0.44492 0.4548 0.0
C1841 C 0.25552 0.46619 0.47379 0.0
C1842 C 0.28128 0.37876 0.38457 0.0
C1843 C 0.26731 0.38328 0.35709 0.0
C1844 C 0.27643 0.39986 0.40596 0.0
C1845 C 0.2579 0.42631 0.40004 0.0
C1846 C 0.2437 0.43072 0.37268 0.0
C1847 C 0.24845 0.4095 0.3514 0.0
H1848 H 0.50667 0.23773 0.67478 0.0
H1849 H 0.44016 0.25766 0.61683 0.0
H1850 H 0.4745 0.24596 0.72399 0.0
H1851 H 0.40757 0.2638 0.66589 0.0
H1852 H 0.35267 0.29649 0.75468 0.0
H1853 H 0.38585 0.29143 0.70675 0.0
H1854 H 0.44485 0.23091 0.76156 0.0
H1855 H 0.41172 0.23785 0.81003 0.0
C1856 C 0.48502 0.24339 0.67283 0.0
C1857 C 0.47576 0.24705 0.64224 0.0
C1858 C 0.46646 0.24795 0.70103 0.0
C1859 C 0.43812 0.25557 0.69939 0.0
C1860 C 0.42905 0.25869 0.66849 0.0
C1861 C 0.44766 0.2549 0.64026 0.0
C1862 C 0.37263 0.28197 0.75637 0.0
C1863 C 0.37924 0.26654 0.78567 0.0
C1864 C 0.39182 0.27893 0.72873 0.0
C1865 C 0.41816 0.26018 0.72959 0.0
C1866 C 0.42503 0.24575 0.75957 0.0
C1867 C 0.40595 0.24941 0.78742 0.0
H1868 H 0.8196 0.48883 0.65692 0.0
H1869 H 0.90119 0.45673 0.6847 0.0
H1870 H 0.80893 0.44677 0.6818 0.0
H1871 H 0.89044 0.41408 0.709 0.0
H1872 H 0.79171 0.38268 0.76312 0.0
H1873 H 0.80333 0.42436 0.73787 0.0
H1874 H 0.87843 0.37238 0.69051 0.0
H1875 H 0.86686 0.33037 0.71685 0.0
C1876 C 0.83525 0.47308 0.6686 0.0
C1877 C 0.8613 0.47649 0.66889 0.0
C1878 C 0.82909 0.4488 0.68273 0.0
C1879 C 0.84885 0.42716 0.69727 0.0
C1880 C 0.87492 0.43033 0.69756 0.0
C1881 C 0.88104 0.45479 0.68366 0.0
C1882 C 0.81098 0.38013 0.74806 0.0
C1883 C 0.82912 0.35345 0.74333 0.0
C1884 C 0.81741 0.40399 0.73305 0.0
C1885 C 0.84196 0.40162 0.71256 0.0
C1886 C 0.85963 0.37481 0.7067 0.0
C1887 C 0.85302 0.35086 0.72161 0.0
H1888 H 0.22767 0.60733 0.57243 0.0
H1889 H 0.28325 0.56853 0.64314 0.0
H1890 H 0.21605 0.65169 0.59821 0.0
H1891 H 0.27227 0.61261 0.66829 0.0
H1892 H 0.24244 0.69506 0.71465 0.0
H1893 H 0.24073 0.6504 0.69762 0.0
H1894 H 0.24284 0.68414 0.59773 0.0
H1895 H 0.24457 0.7283 0.61459 0.0
C1896 C 0.23679 0.60807 0.59399 0.0
C1897 C 0.25658 0.58459 0.60555 0.0
C1898 C 0.2304 0.63352 0.60856 0.0
C1899 C 0.2436 0.63585 0.635 0.0
C1900 C 0.26161 0.61165 0.64812 0.0
C1901 C 0.26803 0.58636 0.63354 0.0
C1902 C 0.24248 0.69288 0.68909 0.0
C1903 C 0.24358 0.71529 0.66603 0.0
C1904 C 0.24136 0.66737 0.67933 0.0
C1905 C 0.2414 0.66373 0.6463 0.0
C1906 C 0.24206 0.68635 0.62342 0.0
C1907 C 0.24318 0.71171 0.63313 0.0
loop_
_geom_bond_atom_site_label_1
_geom_bond_atom_site_label_2
_geom_bond_distance
_geom_bond_site_symmetry_2
_ccdc_geom_bond_type
Cu0 N1 1.999 . S
Cu0 O6 1.974 . S
Cu0 N11 1.985 . S
Cu0 O20 1.959 1_455 S
N1 Cu0 1.999 . S
N1 C3 1.263 . S
N1 C5 1.389 . S
N2 C3 1.358 . S
N2 C4 1.400 . S
C3 N1 1.263 . S
C3 N2 1.358 . S
C3 H9 0.930 . S
C4 N2 1.400 . S
C4 C5 1.351 . S
C4 H21 0.930 . S
C5 N1 1.389 . S
C5 C4 1.351 . S
C5 H10 0.930 . S
O6 Cu0 1.974 . S
O6 C16 1.282 1_545 S
C7 O8 1.261 . S
C7 O20 1.251 . S
O8 C7 1.261 . S
H9 C3 0.930 . S
H10 C5 0.930 . S
N11 Cu0 1.985 . S
N11 C13 1.335 1_455 S
N11 C14 1.390 1_545 S
N12 C13 1.345 1_565 S
N12 C15 1.336 . S
C13 N11 1.335 1_655 S
C13 N12 1.345 1_545 S
C13 H18 0.930 . S
C14 N11 1.390 1_565 S
C14 C15 1.346 1_455 S
C14 H19 0.930 . S
C15 N12 1.336 . S
C15 C14 1.346 1_655 S
C15 H22 0.921 . S
C16 O6 1.282 1_565 S
C16 O17 1.216 1_565 S
O17 C16 1.216 1_545 S
H18 C13 0.930 . S
H19 C14 0.930 . S
O20 Cu0 1.959 1_655 S
O20 C7 1.251 . S
H21 C4 0.930 . S
H22 C15 0.921 . S
Cu23 N24 1.999 . S
Cu23 O29 1.974 1_455 S
Cu23 N34 1.985 . S
Cu23 O43 1.959 . S
N24 Cu23 1.999 . S
N24 C26 1.263 1_455 S
N24 C28 1.389 1_545 S
N25 C26 1.358 1_565 S
N25 C27 1.400 . S
C26 N24 1.263 1_655 S
C26 N25 1.358 1_545 S
C26 H32 0.930 . S
C27 N25 1.400 . S
C27 C28 1.351 1_655 S
C27 H44 0.930 . S
C28 N24 1.389 1_565 S
C28 C27 1.351 1_455 S
C28 H33 0.930 . S
O29 Cu23 1.974 1_655 S
O29 C39 1.282 . S
C30 O31 1.261 . S
C30 O43 1.251 . S
O31 C30 1.261 . S
H32 C26 0.930 . S
H33 C28 0.930 . S
N34 Cu23 1.985 . S
N34 C36 1.335 . S
N34 C37 1.390 . S
N35 C36 1.345 . S
N35 C38 1.336 . S
C36 N34 1.335 . S
C36 N35 1.345 . S
C36 H41 0.930 . S
C37 N34 1.390 . S
C37 C38 1.346 . S
C37 H42 0.930 . S
C38 N35 1.336 . S
C38 C37 1.346 . S
C38 H45 0.929 . S
C39 O29 1.282 . S
C39 O40 1.216 . S
O40 C39 1.216 . S
H41 C36 0.930 . S
H42 C37 0.930 . S
O43 Cu23 1.959 . S
O43 C30 1.251 . S
H44 C27 0.930 . S
H45 C38 0.929 . S
Cu46 N47 1.999 . S
Cu46 O52 1.974 . S
Cu46 N57 1.985 . S
Cu46 O66 1.959 . S
N47 Cu46 1.999 . S
N47 C49 1.263 . S
N47 C51 1.389 . S
N48 C49 1.358 . S
N48 C50 1.400 . S
C49 N47 1.263 . S
C49 N48 1.358 . S
C49 H55 0.930 . S
C50 N48 1.400 . S
C50 C51 1.351 . S
C50 H67 0.930 1_554 S
C51 N47 1.389 . S
C51 C50 1.351 . S
C51 H56 0.930 . S
O52 Cu46 1.974 . S
O52 C62 1.282 . S
C53 O54 1.261 . S
C53 O66 1.251 . S
O54 C53 1.261 . S
H55 C49 0.930 . S
H56 C51 0.930 . S
N57 Cu46 1.985 . S
N57 C59 1.335 . S
N57 C60 1.390 . S
N58 C59 1.345 . S
N58 C61 1.336 . S
C59 N57 1.335 . S
C59 N58 1.345 . S
C59 H64 0.930 . S
C60 N57 1.390 . S
C60 C61 1.346 . S
C60 H65 0.930 . S
C61 N58 1.336 . S
C61 C60 1.346 . S
C61 H68 0.929 . S
C62 O52 1.282 . S
C62 O63 1.216 . S
O63 C62 1.216 . S
H64 C59 0.930 . S
H65 C60 0.930 . S
O66 Cu46 1.959 . S
O66 C53 1.251 . S
H67 C50 0.930 1_556 S
H68 C61 0.929 . S
Cu69 N70 1.999 . S
Cu69 O75 1.974 . S
Cu69 N80 1.985 . S
Cu69 O89 1.959 . S
N70 Cu69 1.999 . S
N70 C72 1.263 . S
N70 C74 1.389 . S
N71 C72 1.358 . S
N71 C73 1.400 1_554 S
C72 N70 1.263 . S
C72 N71 1.358 . S
C72 H78 0.930 . S
C73 N71 1.400 1_556 S
C73 C74 1.351 1_556 S
C73 H90 0.930 . S
C74 N70 1.389 . S
C74 C73 1.351 1_554 S
C74 H79 0.930 . S
O75 Cu69 1.974 . S
O75 C85 1.282 . S
C76 O77 1.261 . S
C76 O89 1.251 . S
O77 C76 1.261 . S
H78 C72 0.930 . S
H79 C74 0.930 . S
N80 Cu69 1.985 . S
N80 C82 1.335 1_455 S
N80 C83 1.390 . S
N81 C82 1.345 . S
N81 C84 1.336 1_655 S
C82 N80 1.335 1_655 S
C82 N81 1.345 . S
C82 H87 0.930 . S
C83 N80 1.390 . S
C83 C84 1.346 . S
C83 H88 0.930 . S
C84 N81 1.336 1_455 S
C84 C83 1.346 . S
C84 H91 0.929 . S
C85 O75 1.282 . S
C85 O86 1.216 . S
O86 C85 1.216 . S
H87 C82 0.930 . S
H88 C83 0.930 . S
O89 Cu69 1.959 . S
O89 C76 1.251 . S
H90 C73 0.930 . S
H91 C84 0.929 . S
Cu92 N93 1.999 1_554 S
Cu92 O98 1.974 . S
Cu92 N103 1.985 1_545 S
Cu92 O112 1.959 1_544 S
N93 Cu92 1.999 1_556 S
N93 C95 1.263 . S
N93 C97 1.389 . S
N94 C95 1.358 . S
N94 C96 1.400 . S
C95 N93 1.263 . S
C95 N94 1.358 . S
C95 H101 0.930 . S
C96 N94 1.400 . S
C96 C97 1.351 . S
C96 H113 0.930 . S
C97 N93 1.389 . S
C97 C96 1.351 . S
C97 H102 0.930 . S
O98 Cu92 1.974 . S
O98 C108 1.282 . S
C99 O100 1.261 . S
C99 O112 1.251 . S
O100 C99 1.261 . S
H101 C95 0.930 . S
H102 C97 0.930 . S
N103 Cu92 1.985 1_565 S
N103 C105 1.335 . S
N103 C106 1.390 . S
N104 C105 1.345 . S
N104 C107 1.336 . S
C105 N103 1.335 . S
C105 N104 1.345 . S
C105 H110 0.930 . S
C106 N103 1.390 . S
C106 C107 1.346 . S
C106 H111 0.930 . S
C107 N104 1.336 . S
C107 C106 1.346 . S
C107 H114 0.929 . S
C108 O98 1.282 . S
C108 O109 1.216 . S
O109 C108 1.216 . S
H110 C105 0.930 . S
H111 C106 0.930 . S
O112 Cu92 1.959 1_566 S
O112 C99 1.251 . S
H113 C96 0.930 . S
H114 C107 0.929 . S
Cu115 N116 1.999 1_454 S
Cu115 O121 1.974 1_455 S
Cu115 N126 1.985 . S
Cu115 O135 1.959 1_554 S
N116 Cu115 1.999 1_656 S
N116 C118 1.263 . S
N116 C120 1.389 . S
N117 C118 1.358 . S
N117 C119 1.400 . S
C118 N116 1.263 . S
C118 N117 1.358 . S
C118 H124 0.930 . S
C119 N117 1.400 . S
C119 C120 1.351 . S
C119 H136 0.930 . S
C120 N116 1.389 . S
C120 C119 1.351 . S
C120 H125 0.930 1_655 S
O121 Cu115 1.974 1_655 S
O121 C131 1.282 . S
C122 O123 1.261 . S
C122 O135 1.251 . S
O123 C122 1.261 . S
H124 C118 0.930 . S
H125 C120 0.930 1_455 S
N126 Cu115 1.985 . S
N126 C128 1.335 . S
N126 C129 1.390 . S
N127 C128 1.345 . S
N127 C130 1.336 . S
C128 N126 1.335 . S
C128 N127 1.345 . S
C128 H133 0.930 . S
C129 N126 1.390 . S
C129 C130 1.346 . S
C129 H134 0.930 1_455 S
C130 N127 1.336 . S
C130 C129 1.346 . S
C130 H137 0.929 . S
C131 O121 1.282 . S
C131 O132 1.216 . S
O132 C131 1.216 . S
H133 C128 0.930 . S
H134 C129 0.930 1_655 S
O135 Cu115 1.959 1_556 S
O135 C122 1.251 . S
H136 C119 0.930 . S
H137 C130 0.929 . S
Cu138 N139 1.999 . S
Cu138 O144 1.974 . S
Cu138 N149 1.985 . S
Cu138 O158 1.959 . S
N139 Cu138 1.999 . S
N139 C141 1.263 . S
N139 C143 1.389 . S
N140 C141 1.358 . S
N140 C142 1.400 . S
C141 N139 1.263 . S
C141 N140 1.358 . S
C141 H147 0.930 . S
C142 N140 1.400 . S
C142 C143 1.351 . S
C142 H159 0.930 . S
C143 N139 1.389 . S
C143 C142 1.351 . S
C143 H148 0.930 . S
O144 Cu138 1.974 . S
O144 C154 1.282 . S
C145 O146 1.261 . S
C145 O158 1.251 . S
O146 C145 1.261 . S
H147 C141 0.930 . S
H148 C143 0.930 . S
N149 Cu138 1.985 . S
N149 C151 1.335 . S
N149 C152 1.390 . S
N150 C151 1.345 . S
N150 C153 1.336 . S
C151 N149 1.335 . S
C151 N150 1.345 . S
C151 H156 0.930 . S
C152 N149 1.390 . S
C152 C153 1.346 . S
C152 H157 0.930 . S
C153 N150 1.336 . S
C153 C152 1.346 . S
C153 H160 0.929 . S
C154 O144 1.282 . S
C154 O155 1.216 . S
O155 C154 1.216 . S
H156 C151 0.930 . S
H157 C152 0.930 . S
O158 Cu138 1.959 . S
O158 C145 1.251 . S
H159 C142 0.930 . S
H160 C153 0.929 . S
Cu161 N162 1.999 . S
Cu161 O167 1.974 . S
Cu161 N172 1.985 . S
Cu161 O181 1.959 . S
N162 Cu161 1.999 . S
N162 C164 1.263 . S
N162 C166 1.389 . S
N163 C164 1.358 . S
N163 C165 1.400 . S
C164 N162 1.263 . S
C164 N163 1.358 . S
C164 H170 0.930 . S
C165 N163 1.400 . S
C165 C166 1.351 . S
C165 H182 0.930 . S
C166 N162 1.389 . S
C166 C165 1.351 . S
C166 H171 0.930 . S
O167 Cu161 1.974 . S
O167 C177 1.282 . S
C168 O169 1.261 . S
C168 O181 1.251 . S
O169 C168 1.261 . S
H170 C164 0.930 . S
H171 C166 0.930 . S
N172 Cu161 1.985 . S
N172 C174 1.335 . S
N172 C175 1.390 . S
N173 C174 1.345 . S
N173 C176 1.336 . S
C174 N172 1.335 . S
C174 N173 1.345 . S
C174 H179 0.930 . S
C175 N172 1.390 . S
C175 C176 1.346 . S
C175 H180 0.930 . S
C176 N173 1.336 . S
C176 C175 1.346 . S
C176 H183 0.929 . S
C177 O167 1.282 . S
C177 O178 1.216 . S
O178 C177 1.216 . S
H179 C174 0.930 . S
H180 C175 0.930 . S
O181 Cu161 1.959 . S
O181 C168 1.251 . S
H182 C165 0.930 . S
H183 C176 0.929 . S
Cu184 N185 1.999 . S
Cu184 O190 1.974 . S
Cu184 N195 1.985 . S
Cu184 O204 1.959 . S
N185 Cu184 1.999 . S
N185 C187 1.263 . S
N185 C189 1.389 . S
N186 C187 1.358 . S
N186 C188 1.400 . S
C187 N185 1.263 . S
C187 N186 1.358 . S
C187 H193 0.930 . S
C188 N186 1.400 . S
C188 C189 1.351 . S
C188 H205 0.930 . S
C189 N185 1.389 . S
C189 C188 1.351 . S
C189 H194 0.930 . S
O190 Cu184 1.974 . S
O190 C200 1.282 . S
C191 O192 1.261 . S
C191 O204 1.251 . S
O192 C191 1.261 . S
H193 C187 0.930 . S
H194 C189 0.930 . S
N195 Cu184 1.985 . S
N195 C197 1.335 . S
N195 C198 1.390 . S
N196 C197 1.345 . S
N196 C199 1.336 . S
C197 N195 1.335 . S
C197 N196 1.345 . S
C197 H202 0.930 . S
C198 N195 1.390 . S
C198 C199 1.346 . S
C198 H203 0.930 . S
C199 N196 1.336 . S
C199 C198 1.346 . S
C199 H206 0.929 . S
C200 O190 1.282 . S
C200 O201 1.216 . S
O201 C200 1.216 . S
H202 C197 0.930 . S
H203 C198 0.930 . S
O204 Cu184 1.959 . S
O204 C191 1.251 . S
H205 C188 0.930 . S
H206 C199 0.929 . S
Cu207 N208 1.999 . S
Cu207 O213 1.974 . S
Cu207 N218 1.985 . S
Cu207 O227 1.959 . S
N208 Cu207 1.999 . S
N208 C210 1.263 . S
N208 C212 1.389 . S
N209 C210 1.358 . S
N209 C211 1.400 . S
C210 N208 1.263 . S
C210 N209 1.358 . S
C210 H216 0.930 . S
C211 N209 1.400 . S
C211 C212 1.351 . S
C211 H228 0.930 . S
C212 N208 1.389 . S
C212 C211 1.351 . S
C212 H217 0.930 . S
O213 Cu207 1.974 . S
O213 C223 1.282 . S
C214 O215 1.261 . S
C214 O227 1.251 . S
O215 C214 1.261 . S
H216 C210 0.930 . S
H217 C212 0.930 . S
N218 Cu207 1.985 . S
N218 C220 1.335 . S
N218 C221 1.390 . S
N219 C220 1.345 . S
N219 C222 1.336 . S
C220 N218 1.335 . S
C220 N219 1.345 . S
C220 H225 0.930 . S
C221 N218 1.390 . S
C221 C222 1.346 . S
C221 H226 0.930 . S
C222 N219 1.336 . S
C222 C221 1.346 . S
C222 H229 0.929 . S
C223 O213 1.282 . S
C223 O224 1.216 . S
O224 C223 1.216 . S
H225 C220 0.930 . S
H226 C221 0.930 . S
O227 Cu207 1.959 . S
O227 C214 1.251 . S
H228 C211 0.930 . S
H229 C222 0.929 . S
Cu230 N231 1.999 . S
Cu230 O236 1.974 . S
Cu230 N241 1.985 . S
Cu230 O250 1.959 . S
N231 Cu230 1.999 . S
N231 C233 1.263 . S
N231 C235 1.389 . S
N232 C233 1.358 . S
N232 C234 1.400 . S
C233 N231 1.263 . S
C233 N232 1.358 . S
C233 H239 0.930 . S
C234 N232 1.400 . S
C234 C235 1.351 . S
C234 H251 0.930 . S
C235 N231 1.389 . S
C235 C234 1.351 . S
C235 H240 0.930 . S
O236 Cu230 1.974 . S
O236 C246 1.282 . S
C237 O238 1.261 . S
C237 O250 1.251 . S
O238 C237 1.261 . S
H239 C233 0.930 . S
H240 C235 0.930 . S
N241 Cu230 1.985 . S
N241 C243 1.335 . S
N241 C244 1.390 . S
N242 C243 1.345 . S
N242 C245 1.336 . S
C243 N241 1.335 . S
C243 N242 1.345 . S
C243 H248 0.930 . S
C244 N241 1.390 . S
C244 C245 1.346 . S
C244 H249 0.930 . S
C245 N242 1.336 . S
C245 C244 1.346 . S
C245 H252 0.929 . S
C246 O236 1.282 . S
C246 O247 1.216 . S
O247 C246 1.216 . S
H248 C243 0.930 . S
H249 C244 0.930 . S
O250 Cu230 1.959 . S
O250 C237 1.251 . S
H251 C234 0.930 . S
H252 C245 0.929 . S
Cu253 N254 1.999 . S
Cu253 O259 1.974 . S
Cu253 N264 1.985 . S
Cu253 O273 1.959 . S
N254 Cu253 1.999 . S
N254 C256 1.263 . S
N254 C258 1.389 . S
N255 C256 1.358 . S
N255 C257 1.400 . S
C256 N254 1.263 . S
C256 N255 1.358 . S
C256 H262 0.930 . S
C257 N255 1.400 . S
C257 C258 1.351 . S
C257 H274 0.930 . S
C258 N254 1.389 . S
C258 C257 1.351 . S
C258 H263 0.930 . S
O259 Cu253 1.974 . S
O259 C269 1.282 . S
C260 O261 1.261 . S
C260 O273 1.251 . S
O261 C260 1.261 . S
H262 C256 0.930 . S
H263 C258 0.930 . S
N264 Cu253 1.985 . S
N264 C266 1.335 . S
N264 C267 1.390 . S
N265 C266 1.345 . S
N265 C268 1.336 . S
C266 N264 1.335 . S
C266 N265 1.345 . S
C266 H271 0.930 . S
C267 N264 1.390 . S
C267 C268 1.346 . S
C267 H272 0.930 . S
C268 N265 1.336 . S
C268 C267 1.346 . S
C268 H275 0.929 . S
C269 O259 1.282 . S
C269 O270 1.216 . S
O270 C269 1.216 . S
H271 C266 0.930 . S
H272 C267 0.930 . S
O273 Cu253 1.959 . S
O273 C260 1.251 . S
H274 C257 0.930 . S
H275 C268 0.929 . S
Tb276 N307 2.660 . S
Tb276 N314 2.600 . S
Tb276 O320 2.546 . S
Tb276 O321 2.610 . S
Tb276 O323 2.320 . S
Tb276 O324 2.552 . S
Tb276 O325 2.413 . S
Tb276 O327 2.362 . S
Tb276 O328 2.421 . S
Tb276 C340 2.833 . S
C277 C280 1.432 . S
C277 C281 1.414 . S
C277 N284 1.359 . S
C278 C280 1.417 . S
C278 C282 1.432 . S
C278 C290 1.410 . S
C279 C281 1.444 . S
C279 C282 1.317 . S
C279 H302 0.929 . S
C280 C277 1.432 . S
C280 C278 1.417 . S
C280 N288 1.360 . S
C281 C277 1.414 . S
C281 C279 1.444 . S
C281 C286 1.385 . S
C282 C278 1.432 . S
C282 C279 1.317 . S
C282 H294 0.930 . S
C283 C285 1.392 . S
C283 C286 1.370 . S
C283 H295 0.931 . S
N284 C277 1.359 . S
N284 C285 1.327 . S
N284 Tb287 2.600 . S
C285 C283 1.392 . S
C285 N284 1.327 . S
C285 H292 0.930 . S
C286 C281 1.385 . S
C286 C283 1.370 . S
C286 H305 0.930 . S
Tb287 N284 2.600 . S
Tb287 N288 2.660 . S
Tb287 O321 2.362 . S
Tb287 O322 2.421 . S
Tb287 O326 2.546 . S
Tb287 O327 2.610 . S
Tb287 O329 2.320 . S
Tb287 O330 2.552 . S
Tb287 O331 2.413 . S
Tb287 C351 2.833 . S
N288 C280 1.360 . S
N288 Tb287 2.660 . S
N288 C289 1.305 . S
C289 N288 1.305 . S
C289 C291 1.407 . S
C289 H296 0.930 . S
C290 C278 1.410 . S
C290 C291 1.345 . S
C290 H298 0.930 . S
C291 C289 1.407 . S
C291 C290 1.345 . S
C291 H293 0.930 . S
H292 C285 0.930 . S
H293 C291 0.930 . S
H294 C282 0.930 . S
H295 C283 0.931 . S
H296 C289 0.930 . S
H297 C311 0.930 . S
H298 C290 0.930 . S
H299 C317 0.930 . S
H300 C308 0.930 . S
H301 C315 0.931 . S
H302 C279 0.929 . S
H303 C309 0.930 . S
H304 C342 0.930 . S
H305 C286 0.930 . S
H306 C341 0.929 . S
N307 Tb276 2.660 . S
N307 C308 1.305 . S
N307 C312 1.360 . S
C308 H300 0.930 . S
C308 N307 1.305 . S
C308 C311 1.407 . S
C309 H303 0.930 . S
C309 C310 1.410 . S
C309 C311 1.345 . S
C310 C309 1.410 . S
C310 C312 1.417 . S
C310 C342 1.432 . S
C311 H297 0.930 . S
C311 C308 1.407 . S
C311 C309 1.345 . S
C312 N307 1.360 . S
C312 C310 1.417 . S
C312 C316 1.432 . S
H313 C318 0.930 . S
N314 Tb276 2.600 . S
N314 C316 1.359 . S
N314 C317 1.327 . S
C315 H301 0.931 . S
C315 C317 1.392 . S
C315 C318 1.370 . S
C316 C312 1.432 . S
C316 N314 1.359 . S
C316 C319 1.414 . S
C317 H299 0.930 . S
C317 N314 1.327 . S
C317 C315 1.392 . S
C318 H313 0.930 . S
C318 C315 1.370 . S
C318 C319 1.385 . S
C319 C316 1.414 . S
C319 C318 1.385 . S
C319 C341 1.444 . S
O320 Tb276 2.546 . S
O320 C340 1.251 . S
O321 Tb276 2.610 . S
O321 Tb287 2.362 . S
O321 C332 1.283 . S
O322 Tb287 2.421 . S
O322 C339 1.262 . S
O323 Tb276 2.320 . S
O323 C339 1.260 . S
O324 Tb276 2.552 . S
O324 C332 1.243 . S
O325 Tb276 2.413 . S
O325 C340 1.256 . S
O326 Tb287 2.546 . S
O326 C351 1.251 . S
O327 Tb276 2.362 . S
O327 Tb287 2.610 . S
O327 C343 1.283 . S
O328 Tb276 2.421 . S
O328 C350 1.262 . S
O329 Tb287 2.320 . S
O329 C350 1.260 . S
O330 Tb287 2.552 . S
O330 C343 1.243 . S
O331 Tb287 2.413 . S
O331 C351 1.256 . S
C332 O321 1.283 . S
C332 O324 1.243 . S
C333 C335 1.382 . S
C333 C337 1.393 . S
C333 C340 1.500 . S
C334 C335 1.400 . S
C334 C336 1.384 . S
C335 C333 1.382 . S
C335 C334 1.400 . S
C335 H352 0.930 . S
C336 C334 1.384 . S
C336 C338 1.392 . S
C336 H353 0.931 . S
C337 C333 1.393 . S
C337 C338 1.401 . S
C337 H354 0.930 . S
C338 C336 1.392 . S
C338 C337 1.401 . S
C338 H355 0.930 . S
C339 O322 1.262 . S
C339 O323 1.260 . S
C340 Tb276 2.833 . S
C340 O320 1.251 . S
C340 O325 1.256 . S
C340 C333 1.500 . S
C341 H306 0.929 . S
C341 C319 1.444 . S
C341 C342 1.317 . S
C342 H304 0.930 . S
C342 C310 1.432 . S
C342 C341 1.317 . S
C343 O327 1.283 . S
C343 O330 1.243 . S
C344 C345 1.382 . S
C344 C348 1.393 . S
C344 C351 1.500 . S
C345 C344 1.382 . S
C345 C346 1.400 . S
C345 H356 0.930 . S
C346 C345 1.400 . S
C346 C347 1.384 . S
C347 C346 1.384 . S
C347 C349 1.392 . S
C347 H357 0.931 . S
C348 C344 1.393 . S
C348 C349 1.401 . S
C348 H358 0.930 . S
C349 C347 1.392 . S
C349 C348 1.401 . S
C349 H359 0.930 . S
C350 O328 1.262 . S
C350 O329 1.260 . S
C351 Tb287 2.833 . S
C351 O326 1.251 . S
C351 O331 1.256 . S
C351 C344 1.500 . S
H352 C335 0.930 . S
H353 C336 0.931 . S
H354 C337 0.930 . S
H355 C338 0.930 . S
H356 C345 0.930 . S
H357 C347 0.931 . S
H358 C348 0.930 . S
H359 C349 0.930 . S
Tb360 N391 2.660 . S
Tb360 N398 2.600 . S
Tb360 O404 2.546 . S
Tb360 O405 2.610 . S
Tb360 O407 2.320 . S
Tb360 O408 2.552 . S
Tb360 O409 2.413 . S
Tb360 O411 2.362 . S
Tb360 O412 2.421 . S
Tb360 C424 2.833 . S
C361 C364 1.432 . S
C361 C365 1.414 . S
C361 N368 1.359 . S
C362 C364 1.417 . S
C362 C366 1.432 . S
C362 C374 1.410 . S
C363 C365 1.444 . S
C363 C366 1.317 . S
C363 H386 0.929 . S
C364 C361 1.432 . S
C364 C362 1.417 . S
C364 N372 1.360 . S
C365 C361 1.414 . S
C365 C363 1.444 . S
C365 C370 1.385 . S
C366 C362 1.432 . S
C366 C363 1.317 . S
C366 H378 0.930 . S
C367 C369 1.392 . S
C367 C370 1.370 . S
C367 H379 0.931 . S
N368 C361 1.359 . S
N368 C369 1.327 . S
N368 Tb371 2.600 . S
C369 C367 1.392 . S
C369 N368 1.327 . S
C369 H376 0.930 . S
C370 C365 1.385 . S
C370 C367 1.370 . S
C370 H389 0.930 . S
Tb371 N368 2.600 . S
Tb371 N372 2.660 . S
Tb371 O405 2.362 . S
Tb371 O406 2.421 . S
Tb371 O410 2.546 . S
Tb371 O411 2.610 . S
Tb371 O413 2.320 . S
Tb371 O414 2.552 . S
Tb371 O415 2.413 . S
Tb371 C435 2.833 . S
N372 C364 1.360 . S
N372 Tb371 2.660 . S
N372 C373 1.305 . S
C373 N372 1.305 . S
C373 C375 1.407 . S
C373 H380 0.930 . S
C374 C362 1.410 . S
C374 C375 1.345 . S
C374 H382 0.930 . S
C375 C373 1.407 . S
C375 C374 1.345 . S
C375 H377 0.930 . S
H376 C369 0.930 . S
H377 C375 0.930 . S
H378 C366 0.930 . S
H379 C367 0.931 . S
H380 C373 0.930 . S
H381 C395 0.930 . S
H382 C374 0.930 . S
H383 C401 0.930 . S
H384 C392 0.930 . S
H385 C399 0.931 . S
H386 C363 0.929 . S
H387 C393 0.930 . S
H388 C426 0.930 . S
H389 C370 0.930 . S
H390 C425 0.929 . S
N391 Tb360 2.660 . S
N391 C392 1.305 . S
N391 C396 1.360 . S
C392 H384 0.930 . S
C392 N391 1.305 . S
C392 C395 1.407 . S
C393 H387 0.930 . S
C393 C394 1.410 . S
C393 C395 1.345 . S
C394 C393 1.410 . S
C394 C396 1.417 . S
C394 C426 1.432 . S
C395 H381 0.930 . S
C395 C392 1.407 . S
C395 C393 1.345 . S
C396 N391 1.360 . S
C396 C394 1.417 . S
C396 C400 1.432 . S
H397 C402 0.930 . S
N398 Tb360 2.600 . S
N398 C400 1.359 . S
N398 C401 1.327 . S
C399 H385 0.931 . S
C399 C401 1.392 . S
C399 C402 1.370 . S
C400 C396 1.432 . S
C400 N398 1.359 . S
C400 C403 1.414 . S
C401 H383 0.930 . S
C401 N398 1.327 . S
C401 C399 1.392 . S
C402 H397 0.930 . S
C402 C399 1.370 . S
C402 C403 1.385 . S
C403 C400 1.414 . S
C403 C402 1.385 . S
C403 C425 1.444 . S
O404 Tb360 2.546 . S
O404 C424 1.251 . S
O405 Tb360 2.610 . S
O405 Tb371 2.362 . S
O405 C416 1.283 . S
O406 Tb371 2.421 . S
O406 C423 1.262 . S
O407 Tb360 2.320 . S
O407 C423 1.260 . S
O408 Tb360 2.552 . S
O408 C416 1.243 . S
O409 Tb360 2.413 . S
O409 C424 1.256 . S
O410 Tb371 2.546 . S
O410 C435 1.251 . S
O411 Tb360 2.362 . S
O411 Tb371 2.610 . S
O411 C427 1.283 . S
O412 Tb360 2.421 . S
O412 C434 1.262 . S
O413 Tb371 2.320 . S
O413 C434 1.260 . S
O414 Tb371 2.552 . S
O414 C427 1.243 . S
O415 Tb371 2.413 . S
O415 C435 1.256 . S
C416 O405 1.283 . S
C416 O408 1.243 . S
C417 C419 1.382 . S
C417 C421 1.393 . S
C417 C424 1.500 . S
C418 C419 1.400 . S
C418 C420 1.384 . S
C419 C417 1.382 . S
C419 C418 1.400 . S
C419 H436 0.930 . S
C420 C418 1.384 . S
C420 C422 1.392 . S
C420 H437 0.931 . S
C421 C417 1.393 . S
C421 C422 1.401 . S
C421 H438 0.930 . S
C422 C420 1.392 . S
C422 C421 1.401 . S
C422 H439 0.930 . S
C423 O406 1.262 . S
C423 O407 1.260 . S
C424 Tb360 2.833 . S
C424 O404 1.251 . S
C424 O409 1.256 . S
C424 C417 1.500 . S
C425 H390 0.929 . S
C425 C403 1.444 . S
C425 C426 1.317 . S
C426 H388 0.930 . S
C426 C394 1.432 . S
C426 C425 1.317 . S
C427 O411 1.283 . S
C427 O414 1.243 . S
C428 C429 1.382 . S
C428 C432 1.393 . S
C428 C435 1.500 . S
C429 C428 1.382 . S
C429 C430 1.400 . S
C429 H440 0.930 . S
C430 C429 1.400 . S
C430 C431 1.384 . S
C431 C430 1.384 . S
C431 C433 1.392 . S
C431 H441 0.931 . S
C432 C428 1.393 . S
C432 C433 1.401 . S
C432 H442 0.930 . S
C433 C431 1.392 . S
C433 C432 1.401 . S
C433 H443 0.930 . S
C434 O412 1.262 . S
C434 O413 1.260 . S
C435 Tb371 2.833 . S
C435 O410 1.251 . S
C435 O415 1.256 . S
C435 C428 1.500 . S
H436 C419 0.930 . S
H437 C420 0.931 . S
H438 C421 0.930 . S
H439 C422 0.930 . S
H440 C429 0.930 . S
H441 C431 0.931 . S
H442 C432 0.930 . S
H443 C433 0.930 . S
Tb444 N475 2.660 . S
Tb444 N482 2.600 . S
Tb444 O488 2.546 . S
Tb444 O489 2.610 . S
Tb444 O491 2.320 . S
Tb444 O492 2.552 . S
Tb444 O493 2.413 . S
Tb444 O495 2.362 . S
Tb444 O496 2.421 . S
Tb444 C508 2.833 . S
C445 C448 1.432 . S
C445 C449 1.414 . S
C445 N452 1.359 . S
C446 C448 1.417 . S
C446 C450 1.432 . S
C446 C458 1.410 . S
C447 C449 1.444 . S
C447 C450 1.317 . S
C447 H470 0.929 . S
C448 C445 1.432 . S
C448 C446 1.417 . S
C448 N456 1.360 . S
C449 C445 1.414 . S
C449 C447 1.444 . S
C449 C454 1.385 . S
C450 C446 1.432 . S
C450 C447 1.317 . S
C450 H462 0.930 . S
C451 C453 1.392 . S
C451 C454 1.370 . S
C451 H463 0.931 . S
N452 C445 1.359 . S
N452 C453 1.327 . S
N452 Tb455 2.600 . S
C453 C451 1.392 . S
C453 N452 1.327 . S
C453 H460 0.930 . S
C454 C449 1.385 . S
C454 C451 1.370 . S
C454 H473 0.930 . S
Tb455 N452 2.600 . S
Tb455 N456 2.660 . S
Tb455 O489 2.362 . S
Tb455 O490 2.421 . S
Tb455 O494 2.546 . S
Tb455 O495 2.610 . S
Tb455 O497 2.320 . S
Tb455 O498 2.552 . S
Tb455 O499 2.413 . S
Tb455 C519 2.833 . S
N456 C448 1.360 . S
N456 Tb455 2.660 . S
N456 C457 1.305 . S
C457 N456 1.305 . S
C457 C459 1.407 . S
C457 H464 0.930 . S
C458 C446 1.410 . S
C458 C459 1.345 . S
C458 H466 0.930 . S
C459 C457 1.407 . S
C459 C458 1.345 . S
C459 H461 0.930 . S
H460 C453 0.930 . S
H461 C459 0.930 . S
H462 C450 0.930 . S
H463 C451 0.931 . S
H464 C457 0.930 . S
H465 C479 0.930 . S
H466 C458 0.930 . S
H467 C485 0.930 . S
H468 C476 0.930 . S
H469 C483 0.931 . S
H470 C447 0.929 . S
H471 C477 0.930 . S
H472 C510 0.930 . S
H473 C454 0.930 . S
H474 C509 0.929 . S
N475 Tb444 2.660 . S
N475 C476 1.305 . S
N475 C480 1.360 . S
C476 H468 0.930 . S
C476 N475 1.305 . S
C476 C479 1.407 . S
C477 H471 0.930 . S
C477 C478 1.410 . S
C477 C479 1.345 . S
C478 C477 1.410 . S
C478 C480 1.417 . S
C478 C510 1.432 . S
C479 H465 0.930 . S
C479 C476 1.407 . S
C479 C477 1.345 . S
C480 N475 1.360 . S
C480 C478 1.417 . S
C480 C484 1.432 . S
H481 C486 0.930 . S
N482 Tb444 2.600 . S
N482 C484 1.359 . S
N482 C485 1.327 . S
C483 H469 0.931 . S
C483 C485 1.392 . S
C483 C486 1.370 . S
C484 C480 1.432 . S
C484 N482 1.359 . S
C484 C487 1.414 . S
C485 H467 0.930 . S
C485 N482 1.327 . S
C485 C483 1.392 . S
C486 H481 0.930 . S
C486 C483 1.370 . S
C486 C487 1.385 . S
C487 C484 1.414 . S
C487 C486 1.385 . S
C487 C509 1.444 . S
O488 Tb444 2.546 . S
O488 C508 1.251 . S
O489 Tb444 2.610 . S
O489 Tb455 2.362 . S
O489 C500 1.283 . S
O490 Tb455 2.421 . S
O490 C507 1.262 . S
O491 Tb444 2.320 . S
O491 C507 1.260 . S
O492 Tb444 2.552 . S
O492 C500 1.243 . S
O493 Tb444 2.413 . S
O493 C508 1.256 . S
O494 Tb455 2.546 . S
O494 C519 1.251 . S
O495 Tb444 2.362 . S
O495 Tb455 2.610 . S
O495 C511 1.283 . S
O496 Tb444 2.421 . S
O496 C518 1.262 . S
O497 Tb455 2.320 . S
O497 C518 1.260 . S
O498 Tb455 2.552 . S
O498 C511 1.243 . S
O499 Tb455 2.413 . S
O499 C519 1.256 . S
C500 O489 1.283 . S
C500 O492 1.243 . S
C501 C503 1.382 . S
C501 C505 1.393 . S
C501 C508 1.500 . S
C502 C503 1.400 . S
C502 C504 1.384 . S
C503 C501 1.382 . S
C503 C502 1.400 . S
C503 H520 0.930 . S
C504 C502 1.384 . S
C504 C506 1.392 . S
C504 H521 0.931 . S
C505 C501 1.393 . S
C505 C506 1.401 . S
C505 H522 0.930 . S
C506 C504 1.392 . S
C506 C505 1.401 . S
C506 H523 0.930 . S
C507 O490 1.262 . S
C507 O491 1.260 . S
C508 Tb444 2.833 . S
C508 O488 1.251 . S
C508 O493 1.256 . S
C508 C501 1.500 . S
C509 H474 0.929 . S
C509 C487 1.444 . S
C509 C510 1.317 . S
C510 H472 0.930 . S
C510 C478 1.432 . S
C510 C509 1.317 . S
C511 O495 1.283 . S
C511 O498 1.243 . S
C512 C513 1.382 . S
C512 C516 1.393 . S
C512 C519 1.500 . S
C513 C512 1.382 . S
C513 C514 1.400 . S
C513 H524 0.930 . S
C514 C513 1.400 . S
C514 C515 1.384 . S
C515 C514 1.384 . S
C515 C517 1.392 . S
C515 H525 0.931 . S
C516 C512 1.393 . S
C516 C517 1.401 . S
C516 H526 0.930 . S
C517 C515 1.392 . S
C517 C516 1.401 . S
C517 H527 0.930 . S
C518 O496 1.262 . S
C518 O497 1.260 . S
C519 Tb455 2.833 . S
C519 O494 1.251 . S
C519 O499 1.256 . S
C519 C512 1.500 . S
H520 C503 0.930 . S
H521 C504 0.931 . S
H522 C505 0.930 . S
H523 C506 0.930 . S
H524 C513 0.930 . S
H525 C515 0.931 . S
H526 C516 0.930 . S
H527 C517 0.930 . S
Tb528 N559 2.660 . S
Tb528 N566 2.600 . S
Tb528 O572 2.546 . S
Tb528 O573 2.610 . S
Tb528 O575 2.320 . S
Tb528 O576 2.552 . S
Tb528 O577 2.413 . S
Tb528 O579 2.362 . S
Tb528 O580 2.421 . S
Tb528 C592 2.833 . S
C529 C532 1.432 . S
C529 C533 1.414 . S
C529 N536 1.359 . S
C530 C532 1.417 . S
C530 C534 1.432 . S
C530 C542 1.410 . S
C531 C533 1.444 . S
C531 C534 1.317 . S
C531 H554 0.929 . S
C532 C529 1.432 . S
C532 C530 1.417 . S
C532 N540 1.360 . S
C533 C529 1.414 . S
C533 C531 1.444 . S
C533 C538 1.385 . S
C534 C530 1.432 . S
C534 C531 1.317 . S
C534 H546 0.930 . S
C535 C537 1.392 . S
C535 C538 1.370 . S
C535 H547 0.931 . S
N536 C529 1.359 . S
N536 C537 1.327 . S
N536 Tb539 2.600 . S
C537 C535 1.392 . S
C537 N536 1.327 . S
C537 H544 0.930 . S
C538 C533 1.385 . S
C538 C535 1.370 . S
C538 H557 0.930 . S
Tb539 N536 2.600 . S
Tb539 N540 2.660 . S
Tb539 O573 2.362 . S
Tb539 O574 2.421 . S
Tb539 O578 2.546 . S
Tb539 O579 2.610 . S
Tb539 O581 2.320 . S
Tb539 O582 2.552 . S
Tb539 O583 2.413 . S
Tb539 C603 2.833 . S
N540 C532 1.360 . S
N540 Tb539 2.660 . S
N540 C541 1.305 . S
C541 N540 1.305 . S
C541 C543 1.407 . S
C541 H548 0.930 . S
C542 C530 1.410 . S
C542 C543 1.345 . S
C542 H550 0.930 . S
C543 C541 1.407 . S
C543 C542 1.345 . S
C543 H545 0.930 . S
H544 C537 0.930 . S
H545 C543 0.930 . S
H546 C534 0.930 . S
H547 C535 0.931 . S
H548 C541 0.930 . S
H549 C563 0.930 . S
H550 C542 0.930 . S
H551 C569 0.930 . S
H552 C560 0.930 . S
H553 C567 0.931 . S
H554 C531 0.929 . S
H555 C561 0.930 . S
H556 C594 0.930 . S
H557 C538 0.930 . S
H558 C593 0.929 . S
N559 Tb528 2.660 . S
N559 C560 1.305 . S
N559 C564 1.360 . S
C560 H552 0.930 . S
C560 N559 1.305 . S
C560 C563 1.407 . S
C561 H555 0.930 . S
C561 C562 1.410 . S
C561 C563 1.345 . S
C562 C561 1.410 . S
C562 C564 1.417 . S
C562 C594 1.432 . S
C563 H549 0.930 . S
C563 C560 1.407 . S
C563 C561 1.345 . S
C564 N559 1.360 . S
C564 C562 1.417 . S
C564 C568 1.432 . S
H565 C570 0.930 . S
N566 Tb528 2.600 . S
N566 C568 1.359 . S
N566 C569 1.327 . S
C567 H553 0.931 . S
C567 C569 1.392 . S
C567 C570 1.370 . S
C568 C564 1.432 . S
C568 N566 1.359 . S
C568 C571 1.414 . S
C569 H551 0.930 . S
C569 N566 1.327 . S
C569 C567 1.392 . S
C570 H565 0.930 . S
C570 C567 1.370 . S
C570 C571 1.385 . S
C571 C568 1.414 . S
C571 C570 1.385 . S
C571 C593 1.444 . S
O572 Tb528 2.546 . S
O572 C592 1.251 . S
O573 Tb528 2.610 . S
O573 Tb539 2.362 . S
O573 C584 1.283 . S
O574 Tb539 2.421 . S
O574 C591 1.262 . S
O575 Tb528 2.320 . S
O575 C591 1.260 . S
O576 Tb528 2.552 . S
O576 C584 1.243 . S
O577 Tb528 2.413 . S
O577 C592 1.256 . S
O578 Tb539 2.546 . S
O578 C603 1.251 . S
O579 Tb528 2.362 . S
O579 Tb539 2.610 . S
O579 C595 1.283 . S
O580 Tb528 2.421 . S
O580 C602 1.262 . S
O581 Tb539 2.320 . S
O581 C602 1.260 . S
O582 Tb539 2.552 . S
O582 C595 1.243 . S
O583 Tb539 2.413 . S
O583 C603 1.256 . S
C584 O573 1.283 . S
C584 O576 1.243 . S
C585 C587 1.382 . S
C585 C589 1.393 . S
C585 C592 1.500 . S
C586 C587 1.400 . S
C586 C588 1.384 . S
C587 C585 1.382 . S
C587 C586 1.400 . S
C587 H604 0.930 . S
C588 C586 1.384 . S
C588 C590 1.392 . S
C588 H605 0.931 . S
C589 C585 1.393 . S
C589 C590 1.401 . S
C589 H606 0.930 . S
C590 C588 1.392 . S
C590 C589 1.401 . S
C590 H607 0.930 . S
C591 O574 1.262 . S
C591 O575 1.260 . S
C592 Tb528 2.833 . S
C592 O572 1.251 . S
C592 O577 1.256 . S
C592 C585 1.500 . S
C593 H558 0.929 . S
C593 C571 1.444 . S
C593 C594 1.317 . S
C594 H556 0.930 . S
C594 C562 1.432 . S
C594 C593 1.317 . S
C595 O579 1.283 . S
C595 O582 1.243 . S
C596 C597 1.382 . S
C596 C600 1.393 . S
C596 C603 1.500 . S
C597 C596 1.382 . S
C597 C598 1.400 . S
C597 H608 0.930 . S
C598 C597 1.400 . S
C598 C599 1.384 . S
C599 C598 1.384 . S
C599 C601 1.392 . S
C599 H609 0.931 . S
C600 C596 1.393 . S
C600 C601 1.401 . S
C600 H610 0.930 . S
C601 C599 1.392 . S
C601 C600 1.401 . S
C601 H611 0.930 . S
C602 O580 1.262 . S
C602 O581 1.260 . S
C603 Tb539 2.833 . S
C603 O578 1.251 . S
C603 O583 1.256 . S
C603 C596 1.500 . S
H604 C587 0.930 . S
H605 C588 0.931 . S
H606 C589 0.930 . S
H607 C590 0.930 . S
H608 C597 0.930 . S
H609 C599 0.931 . S
H610 C600 0.930 . S
H611 C601 0.930 . S
Tb612 N643 2.660 . S
Tb612 N650 2.600 . S
Tb612 O656 2.546 . S
Tb612 O657 2.610 . S
Tb612 O659 2.320 . S
Tb612 O660 2.552 . S
Tb612 O661 2.413 . S
Tb612 O663 2.362 . S
Tb612 O664 2.421 . S
Tb612 C676 2.833 . S
C613 C616 1.432 . S
C613 C617 1.414 . S
C613 N620 1.359 . S
C614 C616 1.417 . S
C614 C618 1.432 . S
C614 C626 1.410 . S
C615 C617 1.444 . S
C615 C618 1.317 . S
C615 H638 0.929 . S
C616 C613 1.432 . S
C616 C614 1.417 . S
C616 N624 1.360 . S
C617 C613 1.414 . S
C617 C615 1.444 . S
C617 C622 1.385 . S
C618 C614 1.432 . S
C618 C615 1.317 . S
C618 H630 0.930 . S
C619 C621 1.392 . S
C619 C622 1.370 . S
C619 H631 0.931 . S
N620 C613 1.359 . S
N620 C621 1.327 . S
N620 Tb623 2.600 . S
C621 C619 1.392 . S
C621 N620 1.327 . S
C621 H628 0.930 . S
C622 C617 1.385 . S
C622 C619 1.370 . S
C622 H641 0.930 . S
Tb623 N620 2.600 . S
Tb623 N624 2.660 . S
Tb623 O657 2.362 . S
Tb623 O658 2.421 . S
Tb623 O662 2.546 . S
Tb623 O663 2.610 . S
Tb623 O665 2.320 . S
Tb623 O666 2.552 . S
Tb623 O667 2.413 . S
Tb623 C687 2.833 . S
N624 C616 1.360 . S
N624 Tb623 2.660 . S
N624 C625 1.305 . S
C625 N624 1.305 . S
C625 C627 1.407 . S
C625 H632 0.930 . S
C626 C614 1.410 . S
C626 C627 1.345 . S
C626 H634 0.930 . S
C627 C625 1.407 . S
C627 C626 1.345 . S
C627 H629 0.930 . S
H628 C621 0.930 . S
H629 C627 0.930 . S
H630 C618 0.930 . S
H631 C619 0.931 . S
H632 C625 0.930 . S
H633 C647 0.930 . S
H634 C626 0.930 . S
H635 C653 0.930 . S
H636 C644 0.930 . S
H637 C651 0.931 . S
H638 C615 0.929 . S
H639 C645 0.930 . S
H640 C678 0.930 . S
H641 C622 0.930 . S
H642 C677 0.929 . S
N643 Tb612 2.660 . S
N643 C644 1.305 . S
N643 C648 1.360 . S
C644 H636 0.930 . S
C644 N643 1.305 . S
C644 C647 1.407 . S
C645 H639 0.930 . S
C645 C646 1.410 . S
C645 C647 1.345 . S
C646 C645 1.410 . S
C646 C648 1.417 . S
C646 C678 1.432 . S
C647 H633 0.930 . S
C647 C644 1.407 . S
C647 C645 1.345 . S
C648 N643 1.360 . S
C648 C646 1.417 . S
C648 C652 1.432 . S
H649 C654 0.930 . S
N650 Tb612 2.600 . S
N650 C652 1.359 . S
N650 C653 1.327 . S
C651 H637 0.931 . S
C651 C653 1.392 . S
C651 C654 1.370 . S
C652 C648 1.432 . S
C652 N650 1.359 . S
C652 C655 1.414 . S
C653 H635 0.930 . S
C653 N650 1.327 . S
C653 C651 1.392 . S
C654 H649 0.930 . S
C654 C651 1.370 . S
C654 C655 1.385 . S
C655 C652 1.414 . S
C655 C654 1.385 . S
C655 C677 1.444 . S
O656 Tb612 2.546 . S
O656 C676 1.251 . S
O657 Tb612 2.610 . S
O657 Tb623 2.362 . S
O657 C668 1.283 . S
O658 Tb623 2.421 . S
O658 C675 1.262 . S
O659 Tb612 2.320 . S
O659 C675 1.260 . S
O660 Tb612 2.552 . S
O660 C668 1.243 . S
O661 Tb612 2.413 . S
O661 C676 1.256 . S
O662 Tb623 2.546 . S
O662 C687 1.251 . S
O663 Tb612 2.362 . S
O663 Tb623 2.610 . S
O663 C679 1.283 . S
O664 Tb612 2.421 . S
O664 C686 1.262 . S
O665 Tb623 2.320 . S
O665 C686 1.260 . S
O666 Tb623 2.552 . S
O666 C679 1.243 . S
O667 Tb623 2.413 . S
O667 C687 1.256 . S
C668 O657 1.283 . S
C668 O660 1.243 . S
C669 C671 1.382 . S
C669 C673 1.393 . S
C669 C676 1.500 . S
C670 C671 1.400 . S
C670 C672 1.384 . S
C671 C669 1.382 . S
C671 C670 1.400 . S
C671 H688 0.930 . S
C672 C670 1.384 . S
C672 C674 1.392 . S
C672 H689 0.931 . S
C673 C669 1.393 . S
C673 C674 1.401 . S
C673 H690 0.930 . S
C674 C672 1.392 . S
C674 C673 1.401 . S
C674 H691 0.930 . S
C675 O658 1.262 . S
C675 O659 1.260 . S
C676 Tb612 2.833 . S
C676 O656 1.251 . S
C676 O661 1.256 . S
C676 C669 1.500 . S
C677 H642 0.929 . S
C677 C655 1.444 . S
C677 C678 1.317 . S
C678 H640 0.930 . S
C678 C646 1.432 . S
C678 C677 1.317 . S
C679 O663 1.283 . S
C679 O666 1.243 . S
C680 C681 1.382 . S
C680 C684 1.393 . S
C680 C687 1.500 . S
C681 C680 1.382 . S
C681 C682 1.400 . S
C681 H692 0.930 . S
C682 C681 1.400 . S
C682 C683 1.384 . S
C683 C682 1.384 . S
C683 C685 1.392 . S
C683 H693 0.931 . S
C684 C680 1.393 . S
C684 C685 1.401 . S
C684 H694 0.930 . S
C685 C683 1.392 . S
C685 C684 1.401 . S
C685 H695 0.930 . S
C686 O664 1.262 . S
C686 O665 1.260 . S
C687 Tb623 2.833 . S
C687 O662 1.251 . S
C687 O667 1.256 . S
C687 C680 1.500 . S
H688 C671 0.930 . S
H689 C672 0.931 . S
H690 C673 0.930 . S
H691 C674 0.930 . S
H692 C681 0.930 . S
H693 C683 0.931 . S
H694 C684 0.930 . S
H695 C685 0.930 . S
Tb696 N727 2.660 . S
Tb696 N734 2.600 . S
Tb696 O740 2.546 . S
Tb696 O741 2.610 . S
Tb696 O743 2.320 . S
Tb696 O744 2.552 . S
Tb696 O745 2.413 . S
Tb696 O747 2.362 . S
Tb696 O748 2.421 . S
Tb696 C760 2.833 . S
C697 C700 1.432 . S
C697 C701 1.414 . S
C697 N704 1.359 . S
C698 C700 1.417 . S
C698 C702 1.432 . S
C698 C710 1.410 . S
C699 C701 1.444 . S
C699 C702 1.317 . S
C699 H722 0.929 . S
C700 C697 1.432 . S
C700 C698 1.417 . S
C700 N708 1.360 . S
C701 C697 1.414 . S
C701 C699 1.444 . S
C701 C706 1.385 . S
C702 C698 1.432 . S
C702 C699 1.317 . S
C702 H714 0.930 . S
C703 C705 1.392 . S
C703 C706 1.370 . S
C703 H715 0.931 . S
N704 C697 1.359 . S
N704 C705 1.327 . S
N704 Tb707 2.600 . S
C705 C703 1.392 . S
C705 N704 1.327 . S
C705 H712 0.930 . S
C706 C701 1.385 . S
C706 C703 1.370 . S
C706 H725 0.930 . S
Tb707 N704 2.600 . S
Tb707 N708 2.660 . S
Tb707 O741 2.362 . S
Tb707 O742 2.421 . S
Tb707 O746 2.546 . S
Tb707 O747 2.610 . S
Tb707 O749 2.320 . S
Tb707 O750 2.552 . S
Tb707 O751 2.413 . S
Tb707 C771 2.833 . S
N708 C700 1.360 . S
N708 Tb707 2.660 . S
N708 C709 1.305 . S
C709 N708 1.305 . S
C709 C711 1.407 . S
C709 H716 0.930 . S
C710 C698 1.410 . S
C710 C711 1.345 . S
C710 H718 0.930 . S
C711 C709 1.407 . S
C711 C710 1.345 . S
C711 H713 0.930 . S
H712 C705 0.930 . S
H713 C711 0.930 . S
H714 C702 0.930 . S
H715 C703 0.931 . S
H716 C709 0.930 . S
H717 C731 0.930 . S
H718 C710 0.930 . S
H719 C737 0.930 . S
H720 C728 0.930 . S
H721 C735 0.931 . S
H722 C699 0.929 . S
H723 C729 0.930 . S
H724 C762 0.930 . S
H725 C706 0.930 . S
H726 C761 0.929 . S
N727 Tb696 2.660 . S
N727 C728 1.305 . S
N727 C732 1.360 . S
C728 H720 0.930 . S
C728 N727 1.305 . S
C728 C731 1.407 . S
C729 H723 0.930 . S
C729 C730 1.410 . S
C729 C731 1.345 . S
C730 C729 1.410 . S
C730 C732 1.417 . S
C730 C762 1.432 . S
C731 H717 0.930 . S
C731 C728 1.407 . S
C731 C729 1.345 . S
C732 N727 1.360 . S
C732 C730 1.417 . S
C732 C736 1.432 . S
H733 C738 0.930 . S
N734 Tb696 2.600 . S
N734 C736 1.359 . S
N734 C737 1.327 . S
C735 H721 0.931 . S
C735 C737 1.392 . S
C735 C738 1.370 . S
C736 C732 1.432 . S
C736 N734 1.359 . S
C736 C739 1.414 . S
C737 H719 0.930 . S
C737 N734 1.327 . S
C737 C735 1.392 . S
C738 H733 0.930 . S
C738 C735 1.370 . S
C738 C739 1.385 . S
C739 C736 1.414 . S
C739 C738 1.385 . S
C739 C761 1.444 . S
O740 Tb696 2.546 . S
O740 C760 1.251 . S
O741 Tb696 2.610 . S
O741 Tb707 2.362 . S
O741 C752 1.283 . S
O742 Tb707 2.421 . S
O742 C759 1.262 . S
O743 Tb696 2.320 . S
O743 C759 1.260 . S
O744 Tb696 2.552 . S
O744 C752 1.243 . S
O745 Tb696 2.413 . S
O745 C760 1.256 . S
O746 Tb707 2.546 . S
O746 C771 1.251 . S
O747 Tb696 2.362 . S
O747 Tb707 2.610 . S
O747 C763 1.283 . S
O748 Tb696 2.421 . S
O748 C770 1.262 . S
O749 Tb707 2.320 . S
O749 C770 1.260 . S
O750 Tb707 2.552 . S
O750 C763 1.243 . S
O751 Tb707 2.413 . S
O751 C771 1.256 . S
C752 O741 1.283 . S
C752 O744 1.243 . S
C753 C755 1.382 . S
C753 C757 1.393 . S
C753 C760 1.500 . S
C754 C755 1.400 . S
C754 C756 1.384 . S
C755 C753 1.382 . S
C755 C754 1.400 . S
C755 H772 0.930 . S
C756 C754 1.384 . S
C756 C758 1.392 . S
C756 H773 0.931 . S
C757 C753 1.393 . S
C757 C758 1.401 . S
C757 H774 0.930 . S
C758 C756 1.392 . S
C758 C757 1.401 . S
C758 H775 0.930 . S
C759 O742 1.262 . S
C759 O743 1.260 . S
C760 Tb696 2.833 . S
C760 O740 1.251 . S
C760 O745 1.256 . S
C760 C753 1.500 . S
C761 H726 0.929 . S
C761 C739 1.444 . S
C761 C762 1.317 . S
C762 H724 0.930 . S
C762 C730 1.432 . S
C762 C761 1.317 . S
C763 O747 1.283 . S
C763 O750 1.243 . S
C764 C765 1.382 . S
C764 C768 1.393 . S
C764 C771 1.500 . S
C765 C764 1.382 . S
C765 C766 1.400 . S
C765 H776 0.930 . S
C766 C765 1.400 . S
C766 C767 1.384 . S
C767 C766 1.384 . S
C767 C769 1.392 . S
C767 H777 0.931 . S
C768 C764 1.393 . S
C768 C769 1.401 . S
C768 H778 0.930 . S
C769 C767 1.392 . S
C769 C768 1.401 . S
C769 H779 0.930 . S
C770 O748 1.262 . S
C770 O749 1.260 . S
C771 Tb707 2.833 . S
C771 O746 1.251 . S
C771 O751 1.256 . S
C771 C764 1.500 . S
H772 C755 0.930 . S
H773 C756 0.931 . S
H774 C757 0.930 . S
H775 C758 0.930 . S
H776 C765 0.930 . S
H777 C767 0.931 . S
H778 C768 0.930 . S
H779 C769 0.930 . S
Tb780 N811 2.660 . S
Tb780 N818 2.600 . S
Tb780 O824 2.546 . S
Tb780 O825 2.610 . S
Tb780 O827 2.320 . S
Tb780 O828 2.552 . S
Tb780 O829 2.413 . S
Tb780 O831 2.362 . S
Tb780 O832 2.421 . S
Tb780 C844 2.833 . S
C781 C784 1.432 . S
C781 C785 1.414 . S
C781 N788 1.359 . S
C782 C784 1.417 . S
C782 C786 1.432 . S
C782 C794 1.410 . S
C783 C785 1.444 . S
C783 C786 1.317 . S
C783 H806 0.929 . S
C784 C781 1.432 . S
C784 C782 1.417 . S
C784 N792 1.360 . S
C785 C781 1.414 . S
C785 C783 1.444 . S
C785 C790 1.385 . S
C786 C782 1.432 . S
C786 C783 1.317 . S
C786 H798 0.930 . S
C787 C789 1.392 . S
C787 C790 1.370 . S
C787 H799 0.931 . S
N788 C781 1.359 . S
N788 C789 1.327 . S
N788 Tb791 2.600 . S
C789 C787 1.392 . S
C789 N788 1.327 . S
C789 H796 0.930 . S
C790 C785 1.385 . S
C790 C787 1.370 . S
C790 H809 0.930 . S
Tb791 N788 2.600 . S
Tb791 N792 2.660 . S
Tb791 O825 2.362 . S
Tb791 O826 2.421 . S
Tb791 O830 2.546 . S
Tb791 O831 2.610 . S
Tb791 O833 2.320 . S
Tb791 O834 2.552 . S
Tb791 O835 2.413 . S
Tb791 C855 2.833 . S
N792 C784 1.360 . S
N792 Tb791 2.660 . S
N792 C793 1.305 . S
C793 N792 1.305 . S
C793 C795 1.407 . S
C793 H800 0.930 . S
C794 C782 1.410 . S
C794 C795 1.345 . S
C794 H802 0.930 . S
C795 C793 1.407 . S
C795 C794 1.345 . S
C795 H797 0.930 . S
H796 C789 0.930 . S
H797 C795 0.930 . S
H798 C786 0.930 . S
H799 C787 0.931 . S
H800 C793 0.930 . S
H801 C815 0.930 . S
H802 C794 0.930 . S
H803 C821 0.930 . S
H804 C812 0.930 . S
H805 C819 0.931 . S
H806 C783 0.929 . S
H807 C813 0.930 . S
H808 C846 0.930 . S
H809 C790 0.930 . S
H810 C845 0.929 . S
N811 Tb780 2.660 . S
N811 C812 1.305 . S
N811 C816 1.360 . S
C812 H804 0.930 . S
C812 N811 1.305 . S
C812 C815 1.407 . S
C813 H807 0.930 . S
C813 C814 1.410 . S
C813 C815 1.345 . S
C814 C813 1.410 . S
C814 C816 1.417 . S
C814 C846 1.432 . S
C815 H801 0.930 . S
C815 C812 1.407 . S
C815 C813 1.345 . S
C816 N811 1.360 . S
C816 C814 1.417 . S
C816 C820 1.432 . S
H817 C822 0.930 . S
N818 Tb780 2.600 . S
N818 C820 1.359 . S
N818 C821 1.327 . S
C819 H805 0.931 . S
C819 C821 1.392 . S
C819 C822 1.370 . S
C820 C816 1.432 . S
C820 N818 1.359 . S
C820 C823 1.414 . S
C821 H803 0.930 . S
C821 N818 1.327 . S
C821 C819 1.392 . S
C822 H817 0.930 . S
C822 C819 1.370 . S
C822 C823 1.385 . S
C823 C820 1.414 . S
C823 C822 1.385 . S
C823 C845 1.444 . S
O824 Tb780 2.546 . S
O824 C844 1.251 . S
O825 Tb780 2.610 . S
O825 Tb791 2.362 . S
O825 C836 1.283 . S
O826 Tb791 2.421 . S
O826 C843 1.262 . S
O827 Tb780 2.320 . S
O827 C843 1.260 . S
O828 Tb780 2.552 . S
O828 C836 1.243 . S
O829 Tb780 2.413 . S
O829 C844 1.256 . S
O830 Tb791 2.546 . S
O830 C855 1.251 . S
O831 Tb780 2.362 . S
O831 Tb791 2.610 . S
O831 C847 1.283 . S
O832 Tb780 2.421 . S
O832 C854 1.262 . S
O833 Tb791 2.320 . S
O833 C854 1.260 . S
O834 Tb791 2.552 . S
O834 C847 1.243 . S
O835 Tb791 2.413 . S
O835 C855 1.256 . S
C836 O825 1.283 . S
C836 O828 1.243 . S
C837 C839 1.382 . S
C837 C841 1.393 . S
C837 C844 1.500 . S
C838 C839 1.400 . S
C838 C840 1.384 . S
C839 C837 1.382 . S
C839 C838 1.400 . S
C839 H856 0.930 . S
C840 C838 1.384 . S
C840 C842 1.392 . S
C840 H857 0.931 . S
C841 C837 1.393 . S
C841 C842 1.401 . S
C841 H858 0.930 . S
C842 C840 1.392 . S
C842 C841 1.401 . S
C842 H859 0.930 . S
C843 O826 1.262 . S
C843 O827 1.260 . S
C844 Tb780 2.833 . S
C844 O824 1.251 . S
C844 O829 1.256 . S
C844 C837 1.500 . S
C845 H810 0.929 . S
C845 C823 1.444 . S
C845 C846 1.317 . S
C846 H808 0.930 . S
C846 C814 1.432 . S
C846 C845 1.317 . S
C847 O831 1.283 . S
C847 O834 1.243 . S
C848 C849 1.382 . S
C848 C852 1.393 . S
C848 C855 1.500 . S
C849 C848 1.382 . S
C849 C850 1.400 . S
C849 H860 0.930 . S
C850 C849 1.400 . S
C850 C851 1.384 . S
C851 C850 1.384 . S
C851 C853 1.392 . S
C851 H861 0.931 . S
C852 C848 1.393 . S
C852 C853 1.401 . S
C852 H862 0.930 . S
C853 C851 1.392 . S
C853 C852 1.401 . S
C853 H863 0.930 . S
C854 O832 1.262 . S
C854 O833 1.260 . S
C855 Tb791 2.833 . S
C855 O830 1.251 . S
C855 O835 1.256 . S
C855 C848 1.500 . S
H856 C839 0.930 . S
H857 C840 0.931 . S
H858 C841 0.930 . S
H859 C842 0.930 . S
H860 C849 0.930 . S
H861 C851 0.931 . S
H862 C852 0.930 . S
H863 C853 0.930 . S
Tb864 N895 2.660 . S
Tb864 N902 2.600 . S
Tb864 O908 2.546 . S
Tb864 O909 2.610 . S
Tb864 O911 2.320 . S
Tb864 O912 2.552 . S
Tb864 O913 2.413 . S
Tb864 O915 2.362 . S
Tb864 O916 2.421 . S
Tb864 C928 2.833 . S
C865 C868 1.432 . S
C865 C869 1.414 . S
C865 N872 1.359 . S
C866 C868 1.417 . S
C866 C870 1.432 . S
C866 C878 1.410 . S
C867 C869 1.444 . S
C867 C870 1.317 . S
C867 H890 0.929 . S
C868 C865 1.432 . S
C868 C866 1.417 . S
C868 N876 1.360 . S
C869 C865 1.414 . S
C869 C867 1.444 . S
C869 C874 1.385 . S
C870 C866 1.432 . S
C870 C867 1.317 . S
C870 H882 0.930 . S
C871 C873 1.392 . S
C871 C874 1.370 . S
C871 H883 0.931 . S
N872 C865 1.359 . S
N872 C873 1.327 . S
N872 Tb875 2.600 . S
C873 C871 1.392 . S
C873 N872 1.327 . S
C873 H880 0.930 . S
C874 C869 1.385 . S
C874 C871 1.370 . S
C874 H893 0.930 . S
Tb875 N872 2.600 . S
Tb875 N876 2.660 . S
Tb875 O909 2.362 . S
Tb875 O910 2.421 . S
Tb875 O914 2.546 . S
Tb875 O915 2.610 . S
Tb875 O917 2.320 . S
Tb875 O918 2.552 . S
Tb875 O919 2.413 . S
Tb875 C939 2.833 . S
N876 C868 1.360 . S
N876 Tb875 2.660 . S
N876 C877 1.305 . S
C877 N876 1.305 . S
C877 C879 1.407 . S
C877 H884 0.930 . S
C878 C866 1.410 . S
C878 C879 1.345 . S
C878 H886 0.930 . S
C879 C877 1.407 . S
C879 C878 1.345 . S
C879 H881 0.930 . S
H880 C873 0.930 . S
H881 C879 0.930 . S
H882 C870 0.930 . S
H883 C871 0.931 . S
H884 C877 0.930 . S
H885 C899 0.930 . S
H886 C878 0.930 . S
H887 C905 0.930 . S
H888 C896 0.930 . S
H889 C903 0.931 . S
H890 C867 0.929 . S
H891 C897 0.930 . S
H892 C930 0.930 . S
H893 C874 0.930 . S
H894 C929 0.929 . S
N895 Tb864 2.660 . S
N895 C896 1.305 . S
N895 C900 1.360 . S
C896 H888 0.930 . S
C896 N895 1.305 . S
C896 C899 1.407 . S
C897 H891 0.930 . S
C897 C898 1.410 . S
C897 C899 1.345 . S
C898 C897 1.410 . S
C898 C900 1.417 . S
C898 C930 1.432 . S
C899 H885 0.930 . S
C899 C896 1.407 . S
C899 C897 1.345 . S
C900 N895 1.360 . S
C900 C898 1.417 . S
C900 C904 1.432 . S
H901 C906 0.930 . S
N902 Tb864 2.600 . S
N902 C904 1.359 . S
N902 C905 1.327 . S
C903 H889 0.931 . S
C903 C905 1.392 . S
C903 C906 1.370 . S
C904 C900 1.432 . S
C904 N902 1.359 . S
C904 C907 1.414 . S
C905 H887 0.930 . S
C905 N902 1.327 . S
C905 C903 1.392 . S
C906 H901 0.930 . S
C906 C903 1.370 . S
C906 C907 1.385 . S
C907 C904 1.414 . S
C907 C906 1.385 . S
C907 C929 1.444 . S
O908 Tb864 2.546 . S
O908 C928 1.251 . S
O909 Tb864 2.610 . S
O909 Tb875 2.362 . S
O909 C920 1.283 . S
O910 Tb875 2.421 . S
O910 C927 1.262 . S
O911 Tb864 2.320 . S
O911 C927 1.260 . S
O912 Tb864 2.552 . S
O912 C920 1.243 . S
O913 Tb864 2.413 . S
O913 C928 1.256 . S
O914 Tb875 2.546 . S
O914 C939 1.251 . S
O915 Tb864 2.362 . S
O915 Tb875 2.610 . S
O915 C931 1.283 . S
O916 Tb864 2.421 . S
O916 C938 1.262 . S
O917 Tb875 2.320 . S
O917 C938 1.260 . S
O918 Tb875 2.552 . S
O918 C931 1.243 . S
O919 Tb875 2.413 . S
O919 C939 1.256 . S
C920 O909 1.283 . S
C920 O912 1.243 . S
C921 C923 1.382 . S
C921 C925 1.393 . S
C921 C928 1.500 . S
C922 C923 1.400 . S
C922 C924 1.384 . S
C923 C921 1.382 . S
C923 C922 1.400 . S
C923 H940 0.930 . S
C924 C922 1.384 . S
C924 C926 1.392 . S
C924 H941 0.931 . S
C925 C921 1.393 . S
C925 C926 1.401 . S
C925 H942 0.930 . S
C926 C924 1.392 . S
C926 C925 1.401 . S
C926 H943 0.930 . S
C927 O910 1.262 . S
C927 O911 1.260 . S
C928 Tb864 2.833 . S
C928 O908 1.251 . S
C928 O913 1.256 . S
C928 C921 1.500 . S
C929 H894 0.929 . S
C929 C907 1.444 . S
C929 C930 1.317 . S
C930 H892 0.930 . S
C930 C898 1.432 . S
C930 C929 1.317 . S
C931 O915 1.283 . S
C931 O918 1.243 . S
C932 C933 1.382 . S
C932 C936 1.393 . S
C932 C939 1.500 . S
C933 C932 1.382 . S
C933 C934 1.400 . S
C933 H944 0.930 . S
C934 C933 1.400 . S
C934 C935 1.384 . S
C935 C934 1.384 . S
C935 C937 1.392 . S
C935 H945 0.931 . S
C936 C932 1.393 . S
C936 C937 1.401 . S
C936 H946 0.930 . S
C937 C935 1.392 . S
C937 C936 1.401 . S
C937 H947 0.930 . S
C938 O916 1.262 . S
C938 O917 1.260 . S
C939 Tb875 2.833 . S
C939 O914 1.251 . S
C939 O919 1.256 . S
C939 C932 1.500 . S
H940 C923 0.930 . S
H941 C924 0.931 . S
H942 C925 0.930 . S
H943 C926 0.930 . S
H944 C933 0.930 . S
H945 C935 0.931 . S
H946 C936 0.930 . S
H947 C937 0.930 . S
H948 C956 0.950 . S
H949 C961 0.950 . S
H950 C958 0.950 . S
H951 C960 0.950 . S
H952 C962 0.950 . S
H953 C964 0.950 . S
H954 C966 0.950 . S
H955 C967 0.950 . S
C956 H948 0.950 . S
C956 C957 1.386 . S
C956 C958 1.391 . S
C957 C956 1.386 . S
C957 C961 1.393 . S
C958 H950 0.950 . S
C958 C956 1.391 . S
C958 C959 1.400 . S
C959 C958 1.400 . S
C959 C960 1.398 . S
C959 C965 1.491 . S
C960 H951 0.950 . S
C960 C959 1.398 . S
C960 C961 1.391 . S
C961 H949 0.950 . S
C961 C957 1.393 . S
C961 C960 1.391 . S
C962 H952 0.950 . S
C962 C963 1.386 . S
C962 C964 1.391 . S
C963 C962 1.386 . S
C963 C967 1.393 . S
C964 H953 0.950 . S
C964 C962 1.391 . S
C964 C965 1.400 . S
C965 C959 1.491 . S
C965 C964 1.400 . S
C965 C966 1.398 . S
C966 H954 0.950 . S
C966 C965 1.398 . S
C966 C967 1.391 . S
C967 H955 0.950 . S
C967 C963 1.393 . S
C967 C966 1.391 . S
H968 C976 0.950 . S
H969 C981 0.950 . S
H970 C978 0.950 . S
H971 C980 0.950 . S
H972 C982 0.950 . S
H973 C984 0.950 . S
H974 C986 0.950 . S
H975 C987 0.950 . S
C976 H968 0.950 . S
C976 C977 1.386 . S
C976 C978 1.391 . S
C977 C976 1.386 . S
C977 C981 1.393 . S
C978 H970 0.950 . S
C978 C976 1.391 . S
C978 C979 1.400 . S
C979 C978 1.400 . S
C979 C980 1.398 . S
C979 C985 1.491 . S
C980 H971 0.950 . S
C980 C979 1.398 . S
C980 C981 1.391 . S
C981 H969 0.950 . S
C981 C977 1.393 . S
C981 C980 1.391 . S
C982 H972 0.950 . S
C982 C983 1.386 . S
C982 C984 1.391 . S
C983 C982 1.386 . S
C983 C987 1.393 . S
C984 H973 0.950 . S
C984 C982 1.391 . S
C984 C985 1.400 . S
C985 C979 1.491 . S
C985 C984 1.400 . S
C985 C986 1.398 . S
C986 H974 0.950 . S
C986 C985 1.398 . S
C986 C987 1.391 . S
C987 H975 0.950 . S
C987 C983 1.393 . S
C987 C986 1.391 . S
H988 C996 0.950 . S
H989 C1001 0.950 1_545 S
H990 C998 0.950 . S
H991 C1000 0.950 . S
H992 C1002 0.950 . S
H993 C1004 0.950 . S
H994 C1006 0.950 . S
H995 C1007 0.950 . S
C996 H988 0.950 . S
C996 C997 1.386 . S
C996 C998 1.391 . S
C997 C996 1.386 . S
C997 C1001 1.393 . S
C998 H990 0.950 . S
C998 C996 1.391 . S
C998 C999 1.400 . S
C999 C998 1.400 . S
C999 C1000 1.398 . S
C999 C1005 1.491 . S
C1000 H991 0.950 . S
C1000 C999 1.398 . S
C1000 C1001 1.391 . S
C1001 H989 0.950 1_565 S
C1001 C997 1.393 . S
C1001 C1000 1.391 . S
C1002 H992 0.950 . S
C1002 C1003 1.386 . S
C1002 C1004 1.391 . S
C1003 C1002 1.386 . S
C1003 C1007 1.393 . S
C1004 H993 0.950 . S
C1004 C1002 1.391 . S
C1004 C1005 1.400 . S
C1005 C999 1.491 . S
C1005 C1004 1.400 . S
C1005 C1006 1.398 . S
C1006 H994 0.950 . S
C1006 C1005 1.398 . S
C1006 C1007 1.391 . S
C1007 H995 0.950 . S
C1007 C1003 1.393 . S
C1007 C1006 1.391 . S
H1008 C1016 0.950 . S
H1009 C1021 0.950 . S
H1010 C1018 0.950 . S
H1011 C1020 0.950 . S
H1012 C1022 0.950 . S
H1013 C1024 0.950 . S
H1014 C1026 0.950 . S
H1015 C1027 0.950 . S
C1016 H1008 0.950 . S
C1016 C1017 1.386 . S
C1016 C1018 1.391 . S
C1017 C1016 1.386 . S
C1017 C1021 1.393 . S
C1018 H1010 0.950 . S
C1018 C1016 1.391 . S
C1018 C1019 1.400 . S
C1019 C1018 1.400 . S
C1019 C1020 1.398 . S
C1019 C1025 1.491 . S
C1020 H1011 0.950 . S
C1020 C1019 1.398 . S
C1020 C1021 1.391 . S
C1021 H1009 0.950 . S
C1021 C1017 1.393 . S
C1021 C1020 1.391 . S
C1022 H1012 0.950 . S
C1022 C1023 1.386 . S
C1022 C1024 1.391 . S
C1023 C1022 1.386 . S
C1023 C1027 1.393 . S
C1024 H1013 0.950 . S
C1024 C1022 1.391 . S
C1024 C1025 1.400 . S
C1025 C1019 1.491 . S
C1025 C1024 1.400 . S
C1025 C1026 1.398 . S
C1026 H1014 0.950 . S
C1026 C1025 1.398 . S
C1026 C1027 1.391 . S
C1027 H1015 0.950 . S
C1027 C1023 1.393 . S
C1027 C1026 1.391 . S
H1028 C1036 0.950 . S
H1029 C1041 0.950 . S
H1030 C1038 0.950 . S
H1031 C1040 0.950 . S
H1032 C1042 0.950 . S
H1033 C1044 0.950 . S
H1034 C1046 0.950 . S
H1035 C1047 0.950 . S
C1036 H1028 0.950 . S
C1036 C1037 1.386 . S
C1036 C1038 1.391 . S
C1037 C1036 1.386 . S
C1037 C1041 1.393 . S
C1038 H1030 0.950 . S
C1038 C1036 1.391 . S
C1038 C1039 1.400 . S
C1039 C1038 1.400 . S
C1039 C1040 1.398 . S
C1039 C1045 1.491 . S
C1040 H1031 0.950 . S
C1040 C1039 1.398 . S
C1040 C1041 1.391 . S
C1041 H1029 0.950 . S
C1041 C1037 1.393 . S
C1041 C1040 1.391 . S
C1042 H1032 0.950 . S
C1042 C1043 1.386 . S
C1042 C1044 1.391 . S
C1043 C1042 1.386 . S
C1043 C1047 1.393 . S
C1044 H1033 0.950 . S
C1044 C1042 1.391 . S
C1044 C1045 1.400 . S
C1045 C1039 1.491 . S
C1045 C1044 1.400 . S
C1045 C1046 1.398 . S
C1046 H1034 0.950 . S
C1046 C1045 1.398 . S
C1046 C1047 1.391 . S
C1047 H1035 0.950 . S
C1047 C1043 1.393 . S
C1047 C1046 1.391 . S
H1048 C1056 0.950 . S
H1049 C1061 0.950 . S
H1050 C1058 0.950 . S
H1051 C1060 0.950 . S
H1052 C1062 0.950 . S
H1053 C1064 0.950 . S
H1054 C1066 0.950 . S
H1055 C1067 0.950 . S
C1056 H1048 0.950 . S
C1056 C1057 1.386 . S
C1056 C1058 1.391 . S
C1057 C1056 1.386 . S
C1057 C1061 1.393 . S
C1058 H1050 0.950 . S
C1058 C1056 1.391 . S
C1058 C1059 1.400 . S
C1059 C1058 1.400 . S
C1059 C1060 1.398 . S
C1059 C1065 1.491 . S
C1060 H1051 0.950 . S
C1060 C1059 1.398 . S
C1060 C1061 1.391 . S
C1061 H1049 0.950 . S
C1061 C1057 1.393 . S
C1061 C1060 1.391 . S
C1062 H1052 0.950 . S
C1062 C1063 1.386 . S
C1062 C1064 1.391 . S
C1063 C1062 1.386 . S
C1063 C1067 1.393 . S
C1064 H1053 0.950 . S
C1064 C1062 1.391 . S
C1064 C1065 1.400 . S
C1065 C1059 1.491 . S
C1065 C1064 1.400 . S
C1065 C1066 1.398 . S
C1066 H1054 0.950 . S
C1066 C1065 1.398 . S
C1066 C1067 1.391 . S
C1067 H1055 0.950 . S
C1067 C1063 1.393 . S
C1067 C1066 1.391 . S
H1068 C1076 0.950 . S
H1069 C1081 0.950 . S
H1070 C1078 0.950 . S
H1071 C1080 0.950 . S
H1072 C1082 0.950 . S
H1073 C1084 0.950 . S
H1074 C1086 0.950 . S
H1075 C1087 0.950 . S
C1076 H1068 0.950 . S
C1076 C1077 1.386 . S
C1076 C1078 1.391 . S
C1077 C1076 1.386 . S
C1077 C1081 1.393 . S
C1078 H1070 0.950 . S
C1078 C1076 1.391 . S
C1078 C1079 1.400 . S
C1079 C1078 1.400 . S
C1079 C1080 1.398 . S
C1079 C1085 1.491 . S
C1080 H1071 0.950 . S
C1080 C1079 1.398 . S
C1080 C1081 1.391 . S
C1081 H1069 0.950 . S
C1081 C1077 1.393 . S
C1081 C1080 1.391 . S
C1082 H1072 0.950 . S
C1082 C1083 1.386 . S
C1082 C1084 1.391 . S
C1083 C1082 1.386 . S
C1083 C1087 1.393 . S
C1084 H1073 0.950 . S
C1084 C1082 1.391 . S
C1084 C1085 1.400 . S
C1085 C1079 1.491 . S
C1085 C1084 1.400 . S
C1085 C1086 1.398 . S
C1086 H1074 0.950 . S
C1086 C1085 1.398 . S
C1086 C1087 1.391 . S
C1087 H1075 0.950 . S
C1087 C1083 1.393 . S
C1087 C1086 1.391 . S
H1088 C1096 0.950 1_545 S
H1089 C1101 0.950 . S
H1090 C1098 0.950 . S
H1091 C1100 0.950 . S
H1092 C1102 0.950 . S
H1093 C1104 0.950 . S
H1094 C1106 0.950 . S
H1095 C1107 0.950 . S
C1096 H1088 0.950 1_565 S
C1096 C1097 1.386 . S
C1096 C1098 1.391 . S
C1097 C1096 1.386 . S
C1097 C1101 1.393 . S
C1098 H1090 0.950 . S
C1098 C1096 1.391 . S
C1098 C1099 1.400 . S
C1099 C1098 1.400 . S
C1099 C1100 1.398 . S
C1099 C1105 1.491 . S
C1100 H1091 0.950 . S
C1100 C1099 1.398 . S
C1100 C1101 1.391 . S
C1101 H1089 0.950 . S
C1101 C1097 1.393 . S
C1101 C1100 1.391 . S
C1102 H1092 0.950 . S
C1102 C1103 1.386 . S
C1102 C1104 1.391 . S
C1103 C1102 1.386 . S
C1103 C1107 1.393 . S
C1104 H1093 0.950 . S
C1104 C1102 1.391 . S
C1104 C1105 1.400 . S
C1105 C1099 1.491 . S
C1105 C1104 1.400 . S
C1105 C1106 1.398 . S
C1106 H1094 0.950 . S
C1106 C1105 1.398 . S
C1106 C1107 1.391 . S
C1107 H1095 0.950 . S
C1107 C1103 1.393 . S
C1107 C1106 1.391 . S
H1108 C1116 0.950 . S
H1109 C1121 0.950 . S
H1110 C1118 0.950 . S
H1111 C1120 0.950 . S
H1112 C1122 0.950 . S
H1113 C1124 0.950 . S
H1114 C1126 0.950 . S
H1115 C1127 0.950 . S
C1116 H1108 0.950 . S
C1116 C1117 1.386 . S
C1116 C1118 1.391 . S
C1117 C1116 1.386 . S
C1117 C1121 1.393 . S
C1118 H1110 0.950 . S
C1118 C1116 1.391 . S
C1118 C1119 1.400 . S
C1119 C1118 1.400 . S
C1119 C1120 1.398 . S
C1119 C1125 1.491 . S
C1120 H1111 0.950 . S
C1120 C1119 1.398 . S
C1120 C1121 1.391 . S
C1121 H1109 0.950 . S
C1121 C1117 1.393 . S
C1121 C1120 1.391 . S
C1122 H1112 0.950 . S
C1122 C1123 1.386 . S
C1122 C1124 1.391 . S
C1123 C1122 1.386 . S
C1123 C1127 1.393 . S
C1124 H1113 0.950 . S
C1124 C1122 1.391 . S
C1124 C1125 1.400 . S
C1125 C1119 1.491 . S
C1125 C1124 1.400 . S
C1125 C1126 1.398 . S
C1126 H1114 0.950 . S
C1126 C1125 1.398 . S
C1126 C1127 1.391 . S
C1127 H1115 0.950 . S
C1127 C1123 1.393 . S
C1127 C1126 1.391 . S
H1128 C1136 0.950 . S
H1129 C1141 0.950 . S
H1130 C1138 0.950 . S
H1131 C1140 0.950 . S
H1132 C1142 0.950 . S
H1133 C1144 0.950 . S
H1134 C1146 0.950 . S
H1135 C1147 0.950 . S
C1136 H1128 0.950 . S
C1136 C1137 1.386 . S
C1136 C1138 1.391 . S
C1137 C1136 1.386 . S
C1137 C1141 1.393 . S
C1138 H1130 0.950 . S
C1138 C1136 1.391 . S
C1138 C1139 1.400 . S
C1139 C1138 1.400 . S
C1139 C1140 1.398 . S
C1139 C1145 1.491 . S
C1140 H1131 0.950 . S
C1140 C1139 1.398 . S
C1140 C1141 1.391 . S
C1141 H1129 0.950 . S
C1141 C1137 1.393 . S
C1141 C1140 1.391 . S
C1142 H1132 0.950 . S
C1142 C1143 1.386 . S
C1142 C1144 1.391 . S
C1143 C1142 1.386 . S
C1143 C1147 1.393 . S
C1144 H1133 0.950 . S
C1144 C1142 1.391 . S
C1144 C1145 1.400 . S
C1145 C1139 1.491 . S
C1145 C1144 1.400 . S
C1145 C1146 1.398 . S
C1146 H1134 0.950 . S
C1146 C1145 1.398 . S
C1146 C1147 1.391 . S
C1147 H1135 0.950 . S
C1147 C1143 1.393 . S
C1147 C1146 1.391 . S
H1148 C1156 0.950 . S
H1149 C1161 0.950 . S
H1150 C1158 0.950 . S
H1151 C1160 0.950 . S
H1152 C1162 0.950 . S
H1153 C1164 0.950 . S
H1154 C1166 0.950 . S
H1155 C1167 0.950 . S
C1156 H1148 0.950 . S
C1156 C1157 1.386 . S
C1156 C1158 1.391 . S
C1157 C1156 1.386 . S
C1157 C1161 1.393 . S
C1158 H1150 0.950 . S
C1158 C1156 1.391 . S
C1158 C1159 1.400 . S
C1159 C1158 1.400 . S
C1159 C1160 1.398 . S
C1159 C1165 1.491 . S
C1160 H1151 0.950 . S
C1160 C1159 1.398 . S
C1160 C1161 1.391 . S
C1161 H1149 0.950 . S
C1161 C1157 1.393 . S
C1161 C1160 1.391 . S
C1162 H1152 0.950 . S
C1162 C1163 1.386 . S
C1162 C1164 1.391 . S
C1163 C1162 1.386 . S
C1163 C1167 1.393 . S
C1164 H1153 0.950 . S
C1164 C1162 1.391 . S
C1164 C1165 1.400 . S
C1165 C1159 1.491 . S
C1165 C1164 1.400 . S
C1165 C1166 1.398 . S
C1166 H1154 0.950 . S
C1166 C1165 1.398 . S
C1166 C1167 1.391 . S
C1167 H1155 0.950 . S
C1167 C1163 1.393 . S
C1167 C1166 1.391 . S
H1168 C1176 0.950 . S
H1169 C1181 0.950 . S
H1170 C1178 0.950 . S
H1171 C1180 0.950 . S
H1172 C1182 0.950 . S
H1173 C1184 0.950 . S
H1174 C1186 0.950 . S
H1175 C1187 0.950 . S
C1176 H1168 0.950 . S
C1176 C1177 1.386 . S
C1176 C1178 1.391 . S
C1177 C1176 1.386 . S
C1177 C1181 1.393 . S
C1178 H1170 0.950 . S
C1178 C1176 1.391 . S
C1178 C1179 1.400 . S
C1179 C1178 1.400 . S
C1179 C1180 1.398 . S
C1179 C1185 1.491 . S
C1180 H1171 0.950 . S
C1180 C1179 1.398 . S
C1180 C1181 1.391 . S
C1181 H1169 0.950 . S
C1181 C1177 1.393 . S
C1181 C1180 1.391 . S
C1182 H1172 0.950 . S
C1182 C1183 1.386 . S
C1182 C1184 1.391 . S
C1183 C1182 1.386 . S
C1183 C1187 1.393 . S
C1184 H1173 0.950 . S
C1184 C1182 1.391 . S
C1184 C1185 1.400 . S
C1185 C1179 1.491 . S
C1185 C1184 1.400 . S
C1185 C1186 1.398 . S
C1186 H1174 0.950 . S
C1186 C1185 1.398 . S
C1186 C1187 1.391 . S
C1187 H1175 0.950 . S
C1187 C1183 1.393 . S
C1187 C1186 1.391 . S
H1188 C1196 0.950 . S
H1189 C1201 0.950 . S
H1190 C1198 0.950 . S
H1191 C1200 0.950 . S
H1192 C1202 0.950 . S
H1193 C1204 0.950 . S
H1194 C1206 0.950 . S
H1195 C1207 0.950 . S
C1196 H1188 0.950 . S
C1196 C1197 1.386 1_556 S
C1196 C1198 1.391 1_545 S
C1197 C1196 1.386 1_554 S
C1197 C1201 1.393 1_545 S
C1198 H1190 0.950 . S
C1198 C1196 1.391 1_565 S
C1198 C1199 1.400 . S
C1199 C1198 1.400 . S
C1199 C1200 1.398 1_556 S
C1199 C1205 1.491 . S
C1200 H1191 0.950 . S
C1200 C1199 1.398 1_554 S
C1200 C1201 1.391 . S
C1201 H1189 0.950 . S
C1201 C1197 1.393 1_565 S
C1201 C1200 1.391 . S
C1202 H1192 0.950 . S
C1202 C1203 1.386 . S
C1202 C1204 1.391 . S
C1203 C1202 1.386 . S
C1203 C1207 1.393 . S
C1204 H1193 0.950 . S
C1204 C1202 1.391 . S
C1204 C1205 1.400 . S
C1205 C1199 1.491 . S
C1205 C1204 1.400 . S
C1205 C1206 1.398 . S
C1206 H1194 0.950 . S
C1206 C1205 1.398 . S
C1206 C1207 1.391 . S
C1207 H1195 0.950 . S
C1207 C1203 1.393 . S
C1207 C1206 1.391 . S
H1208 C1216 0.950 . S
H1209 C1221 0.950 . S
H1210 C1218 0.950 . S
H1211 C1220 0.950 . S
H1212 C1222 0.950 . S
H1213 C1224 0.950 . S
H1214 C1226 0.950 . S
H1215 C1227 0.950 . S
C1216 H1208 0.950 . S
C1216 C1217 1.386 . S
C1216 C1218 1.391 . S
C1217 C1216 1.386 . S
C1217 C1221 1.393 . S
C1218 H1210 0.950 . S
C1218 C1216 1.391 . S
C1218 C1219 1.400 . S
C1219 C1218 1.400 . S
C1219 C1220 1.398 . S
C1219 C1225 1.491 . S
C1220 H1211 0.950 . S
C1220 C1219 1.398 . S
C1220 C1221 1.391 . S
C1221 H1209 0.950 . S
C1221 C1217 1.393 . S
C1221 C1220 1.391 . S
C1222 H1212 0.950 . S
C1222 C1223 1.386 . S
C1222 C1224 1.391 . S
C1223 C1222 1.386 . S
C1223 C1227 1.393 . S
C1224 H1213 0.950 . S
C1224 C1222 1.391 . S
C1224 C1225 1.400 . S
C1225 C1219 1.491 . S
C1225 C1224 1.400 . S
C1225 C1226 1.398 . S
C1226 H1214 0.950 . S
C1226 C1225 1.398 . S
C1226 C1227 1.391 . S
C1227 H1215 0.950 . S
C1227 C1223 1.393 . S
C1227 C1226 1.391 . S
H1228 C1236 0.950 . S
H1229 C1241 0.950 . S
H1230 C1238 0.950 . S
H1231 C1240 0.950 . S
H1232 C1242 0.950 . S
H1233 C1244 0.950 . S
H1234 C1246 0.950 . S
H1235 C1247 0.950 . S
C1236 H1228 0.950 . S
C1236 C1237 1.386 . S
C1236 C1238 1.391 . S
C1237 C1236 1.386 . S
C1237 C1241 1.393 . S
C1238 H1230 0.950 . S
C1238 C1236 1.391 . S
C1238 C1239 1.400 . S
C1239 C1238 1.400 . S
C1239 C1240 1.398 . S
C1239 C1245 1.491 . S
C1240 H1231 0.950 . S
C1240 C1239 1.398 . S
C1240 C1241 1.391 . S
C1241 H1229 0.950 . S
C1241 C1237 1.393 . S
C1241 C1240 1.391 . S
C1242 H1232 0.950 . S
C1242 C1243 1.386 . S
C1242 C1244 1.391 . S
C1243 C1242 1.386 . S
C1243 C1247 1.393 . S
C1244 H1233 0.950 . S
C1244 C1242 1.391 . S
C1244 C1245 1.400 . S
C1245 C1239 1.491 . S
C1245 C1244 1.400 . S
C1245 C1246 1.398 . S
C1246 H1234 0.950 . S
C1246 C1245 1.398 . S
C1246 C1247 1.391 . S
C1247 H1235 0.950 . S
C1247 C1243 1.393 . S
C1247 C1246 1.391 . S
H1248 C1256 0.950 . S
H1249 C1261 0.950 . S
H1250 C1258 0.950 . S
H1251 C1260 0.950 . S
H1252 C1262 0.950 . S
H1253 C1264 0.950 . S
H1254 C1266 0.950 . S
H1255 C1267 0.950 . S
C1256 H1248 0.950 . S
C1256 C1257 1.386 . S
C1256 C1258 1.391 . S
C1257 C1256 1.386 . S
C1257 C1261 1.393 . S
C1258 H1250 0.950 . S
C1258 C1256 1.391 . S
C1258 C1259 1.400 . S
C1259 C1258 1.400 . S
C1259 C1260 1.398 . S
C1259 C1265 1.491 . S
C1260 H1251 0.950 . S
C1260 C1259 1.398 . S
C1260 C1261 1.391 . S
C1261 H1249 0.950 . S
C1261 C1257 1.393 . S
C1261 C1260 1.391 . S
C1262 H1252 0.950 . S
C1262 C1263 1.386 . S
C1262 C1264 1.391 . S
C1263 C1262 1.386 . S
C1263 C1267 1.393 . S
C1264 H1253 0.950 . S
C1264 C1262 1.391 . S
C1264 C1265 1.400 . S
C1265 C1259 1.491 . S
C1265 C1264 1.400 . S
C1265 C1266 1.398 . S
C1266 H1254 0.950 . S
C1266 C1265 1.398 . S
C1266 C1267 1.391 . S
C1267 H1255 0.950 . S
C1267 C1263 1.393 . S
C1267 C1266 1.391 . S
H1268 C1276 0.950 . S
H1269 C1281 0.950 . S
H1270 C1278 0.950 . S
H1271 C1280 0.950 . S
H1272 C1282 0.950 . S
H1273 C1284 0.950 . S
H1274 C1286 0.950 . S
H1275 C1287 0.950 . S
C1276 H1268 0.950 . S
C1276 C1277 1.386 . S
C1276 C1278 1.391 . S
C1277 C1276 1.386 . S
C1277 C1281 1.393 . S
C1278 H1270 0.950 . S
C1278 C1276 1.391 . S
C1278 C1279 1.400 . S
C1279 C1278 1.400 . S
C1279 C1280 1.398 . S
C1279 C1285 1.491 . S
C1280 H1271 0.950 . S
C1280 C1279 1.398 . S
C1280 C1281 1.391 . S
C1281 H1269 0.950 . S
C1281 C1277 1.393 . S
C1281 C1280 1.391 . S
C1282 H1272 0.950 . S
C1282 C1283 1.386 . S
C1282 C1284 1.391 . S
C1283 C1282 1.386 . S
C1283 C1287 1.393 . S
C1284 H1273 0.950 . S
C1284 C1282 1.391 . S
C1284 C1285 1.400 . S
C1285 C1279 1.491 . S
C1285 C1284 1.400 . S
C1285 C1286 1.398 . S
C1286 H1274 0.950 . S
C1286 C1285 1.398 . S
C1286 C1287 1.391 . S
C1287 H1275 0.950 . S
C1287 C1283 1.393 . S
C1287 C1286 1.391 . S
H1288 C1296 0.950 . S
H1289 C1301 0.950 . S
H1290 C1298 0.950 . S
H1291 C1300 0.950 . S
H1292 C1302 0.950 . S
H1293 C1304 0.950 . S
H1294 C1306 0.950 . S
H1295 C1307 0.950 . S
C1296 H1288 0.950 . S
C1296 C1297 1.386 . S
C1296 C1298 1.391 . S
C1297 C1296 1.386 . S
C1297 C1301 1.393 . S
C1298 H1290 0.950 . S
C1298 C1296 1.391 . S
C1298 C1299 1.400 . S
C1299 C1298 1.400 . S
C1299 C1300 1.398 . S
C1299 C1305 1.491 . S
C1300 H1291 0.950 . S
C1300 C1299 1.398 . S
C1300 C1301 1.391 . S
C1301 H1289 0.950 . S
C1301 C1297 1.393 . S
C1301 C1300 1.391 . S
C1302 H1292 0.950 . S
C1302 C1303 1.386 . S
C1302 C1304 1.391 . S
C1303 C1302 1.386 . S
C1303 C1307 1.393 . S
C1304 H1293 0.950 . S
C1304 C1302 1.391 . S
C1304 C1305 1.400 . S
C1305 C1299 1.491 . S
C1305 C1304 1.400 . S
C1305 C1306 1.398 . S
C1306 H1294 0.950 . S
C1306 C1305 1.398 . S
C1306 C1307 1.391 . S
C1307 H1295 0.950 . S
C1307 C1303 1.393 . S
C1307 C1306 1.391 . S
H1308 C1316 0.950 . S
H1309 C1321 0.950 . S
H1310 C1318 0.950 . S
H1311 C1320 0.950 . S
H1312 C1322 0.950 . S
H1313 C1324 0.950 . S
H1314 C1326 0.950 . S
H1315 C1327 0.950 . S
C1316 H1308 0.950 . S
C1316 C1317 1.386 1_556 S
C1316 C1318 1.391 . S
C1317 C1316 1.386 1_554 S
C1317 C1321 1.393 . S
C1318 H1310 0.950 . S
C1318 C1316 1.391 . S
C1318 C1319 1.400 . S
C1319 C1318 1.400 . S
C1319 C1320 1.398 . S
C1319 C1325 1.491 . S
C1320 H1311 0.950 . S
C1320 C1319 1.398 . S
C1320 C1321 1.391 1_556 S
C1321 H1309 0.950 . S
C1321 C1317 1.393 . S
C1321 C1320 1.391 1_554 S
C1322 H1312 0.950 . S
C1322 C1323 1.386 . S
C1322 C1324 1.391 . S
C1323 C1322 1.386 . S
C1323 C1327 1.393 . S
C1324 H1313 0.950 . S
C1324 C1322 1.391 . S
C1324 C1325 1.400 . S
C1325 C1319 1.491 . S
C1325 C1324 1.400 . S
C1325 C1326 1.398 . S
C1326 H1314 0.950 . S
C1326 C1325 1.398 . S
C1326 C1327 1.391 . S
C1327 H1315 0.950 . S
C1327 C1323 1.393 . S
C1327 C1326 1.391 . S
H1328 C1336 0.950 . S
H1329 C1341 0.949 . S
H1330 C1338 0.950 . S
H1331 C1340 0.950 . S
H1332 C1342 0.950 . S
H1333 C1344 0.950 . S
H1334 C1346 0.950 . S
H1335 C1347 0.950 . S
C1336 H1328 0.950 . S
C1336 C1337 1.386 . S
C1336 C1338 1.391 . S
C1337 C1336 1.386 . S
C1337 C1341 1.374 1_554 S
C1338 H1330 0.950 . S
C1338 C1336 1.391 . S
C1338 C1339 1.400 1_554 S
C1339 C1338 1.400 1_556 S
C1339 C1340 1.398 . S
C1339 C1345 1.491 . S
C1340 H1331 0.950 . S
C1340 C1339 1.398 . S
C1340 C1341 1.411 . S
C1341 H1329 0.949 . S
C1341 C1337 1.374 1_556 S
C1341 C1340 1.411 . S
C1342 H1332 0.950 . S
C1342 C1343 1.386 . S
C1342 C1344 1.391 . S
C1343 C1342 1.386 . S
C1343 C1347 1.393 . S
C1344 H1333 0.950 . S
C1344 C1342 1.391 . S
C1344 C1345 1.400 . S
C1345 C1339 1.491 . S
C1345 C1344 1.400 . S
C1345 C1346 1.398 . S
C1346 H1334 0.950 . S
C1346 C1345 1.398 . S
C1346 C1347 1.391 . S
C1347 H1335 0.950 . S
C1347 C1343 1.393 . S
C1347 C1346 1.391 . S
H1348 C1356 0.950 . S
H1349 C1361 0.950 . S
H1350 C1358 0.950 . S
H1351 C1360 0.950 . S
H1352 C1362 0.950 . S
H1353 C1364 0.950 . S
H1354 C1366 0.950 . S
H1355 C1367 0.950 . S
C1356 H1348 0.950 . S
C1356 C1357 1.386 . S
C1356 C1358 1.391 . S
C1357 C1356 1.386 . S
C1357 C1361 1.393 . S
C1358 H1350 0.950 . S
C1358 C1356 1.391 . S
C1358 C1359 1.400 . S
C1359 C1358 1.400 . S
C1359 C1360 1.398 . S
C1359 C1365 1.491 . S
C1360 H1351 0.950 . S
C1360 C1359 1.398 . S
C1360 C1361 1.391 . S
C1361 H1349 0.950 . S
C1361 C1357 1.393 . S
C1361 C1360 1.391 . S
C1362 H1352 0.950 . S
C1362 C1363 1.386 . S
C1362 C1364 1.391 . S
C1363 C1362 1.386 . S
C1363 C1367 1.393 . S
C1364 H1353 0.950 . S
C1364 C1362 1.391 . S
C1364 C1365 1.400 . S
C1365 C1359 1.491 . S
C1365 C1364 1.400 . S
C1365 C1366 1.398 . S
C1366 H1354 0.950 . S
C1366 C1365 1.398 . S
C1366 C1367 1.391 . S
C1367 H1355 0.950 . S
C1367 C1363 1.393 . S
C1367 C1366 1.391 . S
H1368 C1376 0.950 . S
H1369 C1381 0.950 . S
H1370 C1378 0.950 . S
H1371 C1380 0.950 . S
H1372 C1382 0.950 . S
H1373 C1384 0.950 . S
H1374 C1386 0.950 . S
H1375 C1387 0.950 . S
C1376 H1368 0.950 . S
C1376 C1377 1.386 . S
C1376 C1378 1.391 . S
C1377 C1376 1.386 . S
C1377 C1381 1.393 . S
C1378 H1370 0.950 . S
C1378 C1376 1.391 . S
C1378 C1379 1.400 . S
C1379 C1378 1.400 . S
C1379 C1380 1.398 . S
C1379 C1385 1.491 . S
C1380 H1371 0.950 . S
C1380 C1379 1.398 . S
C1380 C1381 1.391 . S
C1381 H1369 0.950 . S
C1381 C1377 1.393 . S
C1381 C1380 1.391 . S
C1382 H1372 0.950 . S
C1382 C1383 1.386 . S
C1382 C1384 1.391 . S
C1383 C1382 1.386 . S
C1383 C1387 1.393 . S
C1384 H1373 0.950 . S
C1384 C1382 1.391 . S
C1384 C1385 1.400 . S
C1385 C1379 1.491 . S
C1385 C1384 1.400 . S
C1385 C1386 1.398 . S
C1386 H1374 0.950 . S
C1386 C1385 1.398 . S
C1386 C1387 1.391 . S
C1387 H1375 0.950 . S
C1387 C1383 1.393 . S
C1387 C1386 1.391 . S
H1388 C1396 0.950 . S
H1389 C1401 0.950 1_545 S
H1390 C1398 0.950 . S
H1391 C1400 0.950 . S
H1392 C1402 0.950 . S
H1393 C1404 0.950 . S
H1394 C1406 0.950 . S
H1395 C1407 0.950 . S
C1396 H1388 0.950 . S
C1396 C1397 1.361 1_565 S
C1396 C1398 1.391 . S
C1397 C1396 1.361 1_545 S
C1397 C1401 1.383 1_545 S
C1398 H1390 0.950 . S
C1398 C1396 1.391 . S
C1398 C1399 1.400 . S
C1399 C1398 1.400 . S
C1399 C1400 1.398 . S
C1399 C1405 1.491 . S
C1400 H1391 0.950 . S
C1400 C1399 1.398 . S
C1400 C1401 1.391 . S
C1401 H1389 0.950 1_565 S
C1401 C1397 1.383 1_565 S
C1401 C1400 1.391 . S
C1402 H1392 0.950 . S
C1402 C1403 1.386 . S
C1402 C1404 1.391 . S
C1403 C1402 1.386 . S
C1403 C1407 1.393 . S
C1404 H1393 0.950 . S
C1404 C1402 1.391 . S
C1404 C1405 1.400 . S
C1405 C1399 1.491 . S
C1405 C1404 1.400 . S
C1405 C1406 1.398 . S
C1406 H1394 0.950 . S
C1406 C1405 1.398 . S
C1406 C1407 1.391 . S
C1407 H1395 0.950 . S
C1407 C1403 1.393 . S
C1407 C1406 1.391 . S
H1408 C1416 0.950 . S
H1409 C1421 0.950 . S
H1410 C1418 0.950 . S
H1411 C1420 0.950 . S
H1412 C1422 0.950 . S
H1413 C1424 0.950 . S
H1414 C1426 0.950 . S
H1415 C1427 0.950 . S
C1416 H1408 0.950 . S
C1416 C1417 1.386 . S
C1416 C1418 1.391 . S
C1417 C1416 1.386 . S
C1417 C1421 1.393 . S
C1418 H1410 0.950 . S
C1418 C1416 1.391 . S
C1418 C1419 1.400 . S
C1419 C1418 1.400 . S
C1419 C1420 1.398 . S
C1419 C1425 1.491 . S
C1420 H1411 0.950 . S
C1420 C1419 1.398 . S
C1420 C1421 1.391 . S
C1421 H1409 0.950 . S
C1421 C1417 1.393 . S
C1421 C1420 1.391 . S
C1422 H1412 0.950 . S
C1422 C1423 1.386 . S
C1422 C1424 1.391 . S
C1423 C1422 1.386 . S
C1423 C1427 1.393 . S
C1424 H1413 0.950 . S
C1424 C1422 1.391 . S
C1424 C1425 1.400 . S
C1425 C1419 1.491 . S
C1425 C1424 1.400 . S
C1425 C1426 1.398 . S
C1426 H1414 0.950 . S
C1426 C1425 1.398 . S
C1426 C1427 1.391 . S
C1427 H1415 0.950 . S
C1427 C1423 1.393 . S
C1427 C1426 1.391 . S
H1428 C1436 0.950 . S
H1429 C1441 0.950 . S
H1430 C1438 0.950 . S
H1431 C1440 0.950 . S
H1432 C1442 0.950 . S
H1433 C1444 0.950 . S
H1434 C1446 0.950 . S
H1435 C1447 0.950 . S
C1436 H1428 0.950 . S
C1436 C1437 1.386 . S
C1436 C1438 1.391 . S
C1437 C1436 1.386 . S
C1437 C1441 1.393 . S
C1438 H1430 0.950 . S
C1438 C1436 1.391 . S
C1438 C1439 1.400 . S
C1439 C1438 1.400 . S
C1439 C1440 1.398 . S
C1439 C1445 1.491 . S
C1440 H1431 0.950 . S
C1440 C1439 1.398 . S
C1440 C1441 1.391 . S
C1441 H1429 0.950 . S
C1441 C1437 1.393 . S
C1441 C1440 1.391 . S
C1442 H1432 0.950 . S
C1442 C1443 1.386 . S
C1442 C1444 1.391 . S
C1443 C1442 1.386 . S
C1443 C1447 1.393 . S
C1444 H1433 0.950 . S
C1444 C1442 1.391 . S
C1444 C1445 1.400 . S
C1445 C1439 1.491 . S
C1445 C1444 1.400 . S
C1445 C1446 1.398 . S
C1446 H1434 0.950 . S
C1446 C1445 1.398 . S
C1446 C1447 1.391 . S
C1447 H1435 0.950 . S
C1447 C1443 1.393 . S
C1447 C1446 1.391 . S
H1448 C1456 0.950 . S
H1449 C1461 0.950 . S
H1450 C1458 0.950 . S
H1451 C1460 0.950 . S
H1452 C1462 0.950 . S
H1453 C1464 0.950 . S
H1454 C1466 0.950 . S
H1455 C1467 0.950 . S
C1456 H1448 0.950 . S
C1456 C1457 1.386 . S
C1456 C1458 1.391 . S
C1457 C1456 1.386 . S
C1457 C1461 1.393 . S
C1458 H1450 0.950 . S
C1458 C1456 1.391 . S
C1458 C1459 1.400 . S
C1459 C1458 1.400 . S
C1459 C1460 1.398 . S
C1459 C1465 1.491 . S
C1460 H1451 0.950 . S
C1460 C1459 1.398 . S
C1460 C1461 1.391 . S
C1461 H1449 0.950 . S
C1461 C1457 1.393 . S
C1461 C1460 1.391 . S
C1462 H1452 0.950 . S
C1462 C1463 1.386 . S
C1462 C1464 1.391 . S
C1463 C1462 1.386 . S
C1463 C1467 1.393 . S
C1464 H1453 0.950 . S
C1464 C1462 1.391 . S
C1464 C1465 1.400 . S
C1465 C1459 1.491 . S
C1465 C1464 1.400 . S
C1465 C1466 1.398 . S
C1466 H1454 0.950 . S
C1466 C1465 1.398 . S
C1466 C1467 1.391 . S
C1467 H1455 0.950 . S
C1467 C1463 1.393 . S
C1467 C1466 1.391 . S
H1468 C1476 0.950 . S
H1469 C1481 0.950 . S
H1470 C1478 0.950 . S
H1471 C1480 0.950 . S
H1472 C1482 0.950 . S
H1473 C1484 0.950 . S
H1474 C1486 0.950 . S
H1475 C1487 0.950 . S
C1476 H1468 0.950 . S
C1476 C1477 1.386 . S
C1476 C1478 1.391 . S
C1477 C1476 1.386 . S
C1477 C1481 1.393 . S
C1478 H1470 0.950 . S
C1478 C1476 1.391 . S
C1478 C1479 1.400 . S
C1479 C1478 1.400 . S
C1479 C1480 1.398 . S
C1479 C1485 1.491 . S
C1480 H1471 0.950 . S
C1480 C1479 1.398 . S
C1480 C1481 1.391 . S
C1481 H1469 0.950 . S
C1481 C1477 1.393 . S
C1481 C1480 1.391 . S
C1482 H1472 0.950 . S
C1482 C1483 1.386 . S
C1482 C1484 1.391 . S
C1483 C1482 1.386 . S
C1483 C1487 1.393 . S
C1484 H1473 0.950 . S
C1484 C1482 1.391 . S
C1484 C1485 1.400 . S
C1485 C1479 1.491 . S
C1485 C1484 1.400 . S
C1485 C1486 1.398 . S
C1486 H1474 0.950 . S
C1486 C1485 1.398 . S
C1486 C1487 1.391 . S
C1487 H1475 0.950 . S
C1487 C1483 1.393 . S
C1487 C1486 1.391 . S
H1488 C1496 0.950 . S
H1489 C1501 0.950 . S
H1490 C1498 0.950 . S
H1491 C1500 0.950 . S
H1492 C1502 0.950 . S
H1493 C1504 0.950 . S
H1494 C1506 0.950 . S
H1495 C1507 0.950 . S
C1496 H1488 0.950 . S
C1496 C1497 1.386 . S
C1496 C1498 1.391 . S
C1497 C1496 1.386 . S
C1497 C1501 1.393 . S
C1498 H1490 0.950 . S
C1498 C1496 1.391 . S
C1498 C1499 1.400 . S
C1499 C1498 1.400 . S
C1499 C1500 1.398 . S
C1499 C1505 1.491 . S
C1500 H1491 0.950 . S
C1500 C1499 1.398 . S
C1500 C1501 1.391 . S
C1501 H1489 0.950 . S
C1501 C1497 1.393 . S
C1501 C1500 1.391 . S
C1502 H1492 0.950 . S
C1502 C1503 1.386 . S
C1502 C1504 1.391 . S
C1503 C1502 1.386 . S
C1503 C1507 1.393 . S
C1504 H1493 0.950 . S
C1504 C1502 1.391 . S
C1504 C1505 1.400 . S
C1505 C1499 1.491 . S
C1505 C1504 1.400 . S
C1505 C1506 1.398 . S
C1506 H1494 0.950 . S
C1506 C1505 1.398 . S
C1506 C1507 1.391 . S
C1507 H1495 0.950 . S
C1507 C1503 1.393 . S
C1507 C1506 1.391 . S
H1508 C1516 0.950 . S
H1509 C1521 0.950 . S
H1510 C1518 0.950 . S
H1511 C1520 0.950 . S
H1512 C1522 0.950 . S
H1513 C1524 0.950 . S
H1514 C1526 0.950 . S
H1515 C1527 0.950 . S
C1516 H1508 0.950 . S
C1516 C1517 1.386 . S
C1516 C1518 1.391 . S
C1517 C1516 1.386 . S
C1517 C1521 1.393 . S
C1518 H1510 0.950 . S
C1518 C1516 1.391 . S
C1518 C1519 1.400 . S
C1519 C1518 1.400 . S
C1519 C1520 1.398 . S
C1519 C1525 1.491 . S
C1520 H1511 0.950 . S
C1520 C1519 1.398 . S
C1520 C1521 1.391 . S
C1521 H1509 0.950 . S
C1521 C1517 1.393 . S
C1521 C1520 1.391 . S
C1522 H1512 0.950 . S
C1522 C1523 1.386 . S
C1522 C1524 1.391 . S
C1523 C1522 1.386 . S
C1523 C1527 1.393 . S
C1524 H1513 0.950 . S
C1524 C1522 1.391 . S
C1524 C1525 1.400 . S
C1525 C1519 1.491 . S
C1525 C1524 1.400 . S
C1525 C1526 1.398 . S
C1526 H1514 0.950 . S
C1526 C1525 1.398 . S
C1526 C1527 1.391 . S
C1527 H1515 0.950 . S
C1527 C1523 1.393 . S
C1527 C1526 1.391 . S
H1528 C1536 0.950 . S
H1529 C1541 0.950 . S
H1530 C1538 0.950 . S
H1531 C1540 0.950 . S
H1532 C1542 0.950 . S
H1533 C1544 0.950 . S
H1534 C1546 0.950 . S
H1535 C1547 0.950 . S
C1536 H1528 0.950 . S
C1536 C1537 1.386 . S
C1536 C1538 1.391 . S
C1537 C1536 1.386 . S
C1537 C1541 1.393 . S
C1538 H1530 0.950 . S
C1538 C1536 1.391 . S
C1538 C1539 1.400 . S
C1539 C1538 1.400 . S
C1539 C1540 1.398 . S
C1539 C1545 1.491 . S
C1540 H1531 0.950 . S
C1540 C1539 1.398 . S
C1540 C1541 1.391 . S
C1541 H1529 0.950 . S
C1541 C1537 1.393 . S
C1541 C1540 1.391 . S
C1542 H1532 0.950 . S
C1542 C1543 1.386 . S
C1542 C1544 1.391 . S
C1543 C1542 1.386 . S
C1543 C1547 1.393 . S
C1544 H1533 0.950 . S
C1544 C1542 1.391 . S
C1544 C1545 1.400 . S
C1545 C1539 1.491 . S
C1545 C1544 1.400 . S
C1545 C1546 1.398 . S
C1546 H1534 0.950 . S
C1546 C1545 1.398 . S
C1546 C1547 1.391 . S
C1547 H1535 0.950 . S
C1547 C1543 1.393 . S
C1547 C1546 1.391 . S
H1548 C1556 0.950 . S
H1549 C1561 0.950 . S
H1550 C1558 0.950 . S
H1551 C1560 0.950 . S
H1552 C1562 0.950 . S
H1553 C1564 0.950 . S
H1554 C1566 0.950 . S
H1555 C1567 0.950 . S
C1556 H1548 0.950 . S
C1556 C1557 1.386 . S
C1556 C1558 1.391 . S
C1557 C1556 1.386 . S
C1557 C1561 1.393 . S
C1558 H1550 0.950 . S
C1558 C1556 1.391 . S
C1558 C1559 1.400 . S
C1559 C1558 1.400 . S
C1559 C1560 1.398 . S
C1559 C1565 1.491 . S
C1560 H1551 0.950 . S
C1560 C1559 1.398 . S
C1560 C1561 1.391 . S
C1561 H1549 0.950 . S
C1561 C1557 1.393 . S
C1561 C1560 1.391 . S
C1562 H1552 0.950 . S
C1562 C1563 1.386 . S
C1562 C1564 1.391 . S
C1563 C1562 1.386 . S
C1563 C1567 1.393 . S
C1564 H1553 0.950 . S
C1564 C1562 1.391 . S
C1564 C1565 1.400 . S
C1565 C1559 1.491 . S
C1565 C1564 1.400 . S
C1565 C1566 1.398 . S
C1566 H1554 0.950 . S
C1566 C1565 1.398 . S
C1566 C1567 1.391 . S
C1567 H1555 0.950 . S
C1567 C1563 1.393 . S
C1567 C1566 1.391 . S
H1568 C1576 0.950 . S
H1569 C1581 0.950 . S
H1570 C1578 0.950 . S
H1571 C1580 0.950 . S
H1572 C1582 0.950 . S
H1573 C1584 0.950 . S
H1574 C1586 0.950 . S
H1575 C1587 0.950 . S
C1576 H1568 0.950 . S
C1576 C1577 1.386 . S
C1576 C1578 1.391 . S
C1577 C1576 1.386 . S
C1577 C1581 1.393 . S
C1578 H1570 0.950 . S
C1578 C1576 1.391 . S
C1578 C1579 1.400 . S
C1579 C1578 1.400 . S
C1579 C1580 1.398 . S
C1579 C1585 1.491 . S
C1580 H1571 0.950 . S
C1580 C1579 1.398 . S
C1580 C1581 1.391 . S
C1581 H1569 0.950 . S
C1581 C1577 1.393 . S
C1581 C1580 1.391 . S
C1582 H1572 0.950 . S
C1582 C1583 1.386 . S
C1582 C1584 1.391 . S
C1583 C1582 1.386 . S
C1583 C1587 1.393 . S
C1584 H1573 0.950 . S
C1584 C1582 1.391 . S
C1584 C1585 1.400 . S
C1585 C1579 1.491 . S
C1585 C1584 1.400 . S
C1585 C1586 1.398 . S
C1586 H1574 0.950 . S
C1586 C1585 1.398 . S
C1586 C1587 1.391 . S
C1587 H1575 0.950 . S
C1587 C1583 1.393 . S
C1587 C1586 1.391 . S
H1588 C1596 0.950 . S
H1589 C1601 0.950 . S
H1590 C1598 0.950 . S
H1591 C1600 0.950 . S
H1592 C1602 0.950 . S
H1593 C1604 0.950 . S
H1594 C1606 0.950 . S
H1595 C1607 0.950 . S
C1596 H1588 0.950 . S
C1596 C1597 1.386 . S
C1596 C1598 1.391 . S
C1597 C1596 1.386 . S
C1597 C1601 1.393 . S
C1598 H1590 0.950 . S
C1598 C1596 1.391 . S
C1598 C1599 1.400 . S
C1599 C1598 1.400 . S
C1599 C1600 1.398 . S
C1599 C1605 1.491 . S
C1600 H1591 0.950 . S
C1600 C1599 1.398 . S
C1600 C1601 1.391 . S
C1601 H1589 0.950 . S
C1601 C1597 1.393 . S
C1601 C1600 1.391 . S
C1602 H1592 0.950 . S
C1602 C1603 1.386 . S
C1602 C1604 1.391 . S
C1603 C1602 1.386 . S
C1603 C1607 1.393 . S
C1604 H1593 0.950 . S
C1604 C1602 1.391 . S
C1604 C1605 1.400 . S
C1605 C1599 1.491 . S
C1605 C1604 1.400 . S
C1605 C1606 1.398 . S
C1606 H1594 0.950 . S
C1606 C1605 1.398 . S
C1606 C1607 1.391 . S
C1607 H1595 0.950 . S
C1607 C1603 1.393 . S
C1607 C1606 1.391 . S
H1608 C1616 0.950 . S
H1609 C1621 0.950 . S
H1610 C1618 0.950 . S
H1611 C1620 0.950 . S
H1612 C1622 0.950 . S
H1613 C1624 0.950 . S
H1614 C1626 0.950 . S
H1615 C1627 0.950 . S
C1616 H1608 0.950 . S
C1616 C1617 1.386 . S
C1616 C1618 1.391 . S
C1617 C1616 1.386 . S
C1617 C1621 1.393 . S
C1618 H1610 0.950 . S
C1618 C1616 1.391 . S
C1618 C1619 1.400 . S
C1619 C1618 1.400 . S
C1619 C1620 1.398 . S
C1619 C1625 1.491 . S
C1620 H1611 0.950 . S
C1620 C1619 1.398 . S
C1620 C1621 1.391 . S
C1621 H1609 0.950 . S
C1621 C1617 1.393 . S
C1621 C1620 1.391 . S
C1622 H1612 0.950 . S
C1622 C1623 1.386 . S
C1622 C1624 1.391 . S
C1623 C1622 1.386 . S
C1623 C1627 1.393 . S
C1624 H1613 0.950 . S
C1624 C1622 1.391 . S
C1624 C1625 1.400 . S
C1625 C1619 1.491 . S
C1625 C1624 1.400 . S
C1625 C1626 1.398 . S
C1626 H1614 0.950 . S
C1626 C1625 1.398 . S
C1626 C1627 1.391 . S
C1627 H1615 0.950 . S
C1627 C1623 1.393 . S
C1627 C1626 1.391 . S
H1628 C1636 0.950 . S
H1629 C1641 0.950 . S
H1630 C1638 0.950 . S
H1631 C1640 0.950 . S
H1632 C1642 0.950 . S
H1633 C1644 0.950 . S
H1634 C1646 0.950 . S
H1635 C1647 0.950 . S
C1636 H1628 0.950 . S
C1636 C1637 1.386 . S
C1636 C1638 1.391 . S
C1637 C1636 1.386 . S
C1637 C1641 1.393 . S
C1638 H1630 0.950 . S
C1638 C1636 1.391 . S
C1638 C1639 1.400 . S
C1639 C1638 1.400 . S
C1639 C1640 1.398 . S
C1639 C1645 1.491 . S
C1640 H1631 0.950 . S
C1640 C1639 1.398 . S
C1640 C1641 1.391 . S
C1641 H1629 0.950 . S
C1641 C1637 1.393 . S
C1641 C1640 1.391 . S
C1642 H1632 0.950 . S
C1642 C1643 1.386 . S
C1642 C1644 1.391 . S
C1643 C1642 1.386 . S
C1643 C1647 1.393 . S
C1644 H1633 0.950 . S
C1644 C1642 1.391 . S
C1644 C1645 1.400 . S
C1645 C1639 1.491 . S
C1645 C1644 1.400 . S
C1645 C1646 1.398 . S
C1646 H1634 0.950 . S
C1646 C1645 1.398 . S
C1646 C1647 1.391 . S
C1647 H1635 0.950 . S
C1647 C1643 1.393 . S
C1647 C1646 1.391 . S
H1648 C1656 0.950 . S
H1649 C1661 0.950 . S
H1650 C1658 0.950 . S
H1651 C1660 0.950 . S
H1652 C1662 0.950 . S
H1653 C1664 0.950 . S
H1654 C1666 0.950 . S
H1655 C1667 0.950 . S
C1656 H1648 0.950 . S
C1656 C1657 1.386 . S
C1656 C1658 1.391 . S
C1657 C1656 1.386 . S
C1657 C1661 1.393 . S
C1658 H1650 0.950 . S
C1658 C1656 1.391 . S
C1658 C1659 1.400 . S
C1659 C1658 1.400 . S
C1659 C1660 1.398 . S
C1659 C1665 1.491 . S
C1660 H1651 0.950 . S
C1660 C1659 1.398 . S
C1660 C1661 1.391 . S
C1661 H1649 0.950 . S
C1661 C1657 1.393 . S
C1661 C1660 1.391 . S
C1662 H1652 0.950 . S
C1662 C1663 1.386 . S
C1662 C1664 1.391 . S
C1663 C1662 1.386 . S
C1663 C1667 1.393 . S
C1664 H1653 0.950 . S
C1664 C1662 1.391 . S
C1664 C1665 1.400 . S
C1665 C1659 1.491 . S
C1665 C1664 1.400 . S
C1665 C1666 1.398 . S
C1666 H1654 0.950 . S
C1666 C1665 1.398 . S
C1666 C1667 1.391 . S
C1667 H1655 0.950 . S
C1667 C1663 1.393 . S
C1667 C1666 1.391 . S
H1668 C1676 0.950 . S
H1669 C1681 0.950 . S
H1670 C1678 0.950 . S
H1671 C1680 0.950 . S
H1672 C1682 0.950 . S
H1673 C1684 0.950 . S
H1674 C1686 0.950 . S
H1675 C1687 0.950 . S
C1676 H1668 0.950 . S
C1676 C1677 1.386 . S
C1676 C1678 1.391 . S
C1677 C1676 1.386 . S
C1677 C1681 1.393 . S
C1678 H1670 0.950 . S
C1678 C1676 1.391 . S
C1678 C1679 1.400 . S
C1679 C1678 1.400 . S
C1679 C1680 1.398 . S
C1679 C1685 1.491 . S
C1680 H1671 0.950 . S
C1680 C1679 1.398 . S
C1680 C1681 1.391 . S
C1681 H1669 0.950 . S
C1681 C1677 1.393 . S
C1681 C1680 1.391 . S
C1682 H1672 0.950 . S
C1682 C1683 1.386 . S
C1682 C1684 1.391 . S
C1683 C1682 1.386 . S
C1683 C1687 1.393 . S
C1684 H1673 0.950 . S
C1684 C1682 1.391 . S
C1684 C1685 1.400 . S
C1685 C1679 1.491 . S
C1685 C1684 1.400 . S
C1685 C1686 1.398 . S
C1686 H1674 0.950 . S
C1686 C1685 1.398 . S
C1686 C1687 1.391 . S
C1687 H1675 0.950 . S
C1687 C1683 1.393 . S
C1687 C1686 1.391 . S
H1688 C1696 0.950 . S
H1689 C1701 0.950 . S
H1690 C1698 0.950 . S
H1691 C1700 0.950 . S
H1692 C1702 0.950 . S
H1693 C1704 0.950 . S
H1694 C1706 0.950 . S
H1695 C1707 0.950 . S
C1696 H1688 0.950 . S
C1696 C1697 1.386 . S
C1696 C1698 1.391 . S
C1697 C1696 1.386 . S
C1697 C1701 1.393 . S
C1698 H1690 0.950 . S
C1698 C1696 1.391 . S
C1698 C1699 1.400 . S
C1699 C1698 1.400 . S
C1699 C1700 1.398 . S
C1699 C1705 1.491 . S
C1700 H1691 0.950 . S
C1700 C1699 1.398 . S
C1700 C1701 1.391 . S
C1701 H1689 0.950 . S
C1701 C1697 1.393 . S
C1701 C1700 1.391 . S
C1702 H1692 0.950 . S
C1702 C1703 1.386 . S
C1702 C1704 1.391 . S
C1703 C1702 1.386 . S
C1703 C1707 1.393 . S
C1704 H1693 0.950 . S
C1704 C1702 1.391 . S
C1704 C1705 1.400 . S
C1705 C1699 1.491 . S
C1705 C1704 1.400 . S
C1705 C1706 1.398 . S
C1706 H1694 0.950 . S
C1706 C1705 1.398 . S
C1706 C1707 1.391 . S
C1707 H1695 0.950 . S
C1707 C1703 1.393 . S
C1707 C1706 1.391 . S
H1708 C1716 0.950 . S
H1709 C1721 0.950 . S
H1710 C1718 0.950 . S
H1711 C1720 0.950 . S
H1712 C1722 0.950 . S
H1713 C1724 0.950 . S
H1714 C1726 0.950 . S
H1715 C1727 0.950 . S
C1716 H1708 0.950 . S
C1716 C1717 1.386 . S
C1716 C1718 1.391 . S
C1717 C1716 1.386 . S
C1717 C1721 1.393 . S
C1718 H1710 0.950 . S
C1718 C1716 1.391 . S
C1718 C1719 1.400 . S
C1719 C1718 1.400 . S
C1719 C1720 1.398 . S
C1719 C1725 1.491 . S
C1720 H1711 0.950 . S
C1720 C1719 1.398 . S
C1720 C1721 1.391 . S
C1721 H1709 0.950 . S
C1721 C1717 1.393 . S
C1721 C1720 1.391 . S
C1722 H1712 0.950 . S
C1722 C1723 1.386 . S
C1722 C1724 1.391 . S
C1723 C1722 1.386 . S
C1723 C1727 1.393 . S
C1724 H1713 0.950 . S
C1724 C1722 1.391 . S
C1724 C1725 1.400 . S
C1725 C1719 1.491 . S
C1725 C1724 1.400 . S
C1725 C1726 1.398 . S
C1726 H1714 0.950 . S
C1726 C1725 1.398 . S
C1726 C1727 1.391 . S
C1727 H1715 0.950 . S
C1727 C1723 1.393 . S
C1727 C1726 1.391 . S
H1728 C1736 0.950 . S
H1729 C1741 0.950 . S
H1730 C1738 0.950 . S
H1731 C1740 0.950 . S
H1732 C1742 0.950 . S
H1733 C1744 0.950 . S
H1734 C1746 0.950 . S
H1735 C1747 0.950 . S
C1736 H1728 0.950 . S
C1736 C1737 1.386 . S
C1736 C1738 1.391 . S
C1737 C1736 1.386 . S
C1737 C1741 1.393 . S
C1738 H1730 0.950 . S
C1738 C1736 1.391 . S
C1738 C1739 1.400 . S
C1739 C1738 1.400 . S
C1739 C1740 1.398 . S
C1739 C1745 1.491 . S
C1740 H1731 0.950 . S
C1740 C1739 1.398 . S
C1740 C1741 1.391 . S
C1741 H1729 0.950 . S
C1741 C1737 1.393 . S
C1741 C1740 1.391 . S
C1742 H1732 0.950 . S
C1742 C1743 1.386 . S
C1742 C1744 1.391 . S
C1743 C1742 1.386 . S
C1743 C1747 1.393 . S
C1744 H1733 0.950 . S
C1744 C1742 1.391 . S
C1744 C1745 1.400 . S
C1745 C1739 1.491 . S
C1745 C1744 1.400 . S
C1745 C1746 1.398 . S
C1746 H1734 0.950 . S
C1746 C1745 1.398 . S
C1746 C1747 1.391 . S
C1747 H1735 0.950 . S
C1747 C1743 1.393 . S
C1747 C1746 1.391 . S
H1748 C1756 0.950 . S
H1749 C1761 0.950 . S
H1750 C1758 0.950 . S
H1751 C1760 0.950 . S
H1752 C1762 0.950 . S
H1753 C1764 0.950 . S
H1754 C1766 0.950 . S
H1755 C1767 0.950 . S
C1756 H1748 0.950 . S
C1756 C1757 1.386 . S
C1756 C1758 1.391 . S
C1757 C1756 1.386 . S
C1757 C1761 1.393 . S
C1758 H1750 0.950 . S
C1758 C1756 1.391 . S
C1758 C1759 1.400 . S
C1759 C1758 1.400 . S
C1759 C1760 1.398 . S
C1759 C1765 1.491 . S
C1760 H1751 0.950 . S
C1760 C1759 1.398 . S
C1760 C1761 1.391 . S
C1761 H1749 0.950 . S
C1761 C1757 1.393 . S
C1761 C1760 1.391 . S
C1762 H1752 0.950 . S
C1762 C1763 1.386 . S
C1762 C1764 1.391 . S
C1763 C1762 1.386 . S
C1763 C1767 1.393 . S
C1764 H1753 0.950 . S
C1764 C1762 1.391 . S
C1764 C1765 1.400 . S
C1765 C1759 1.491 . S
C1765 C1764 1.400 . S
C1765 C1766 1.398 . S
C1766 H1754 0.950 . S
C1766 C1765 1.398 . S
C1766 C1767 1.391 . S
C1767 H1755 0.950 . S
C1767 C1763 1.393 . S
C1767 C1766 1.391 . S
H1768 C1776 0.950 . S
H1769 C1781 0.950 . S
H1770 C1778 0.950 . S
H1771 C1780 0.950 . S
H1772 C1782 0.950 . S
H1773 C1784 0.950 . S
H1774 C1786 0.950 . S
H1775 C1787 0.950 . S
C1776 H1768 0.950 . S
C1776 C1777 1.386 . S
C1776 C1778 1.391 . S
C1777 C1776 1.386 . S
C1777 C1781 1.393 . S
C1778 H1770 0.950 . S
C1778 C1776 1.391 . S
C1778 C1779 1.400 . S
C1779 C1778 1.400 . S
C1779 C1780 1.398 . S
C1779 C1785 1.491 . S
C1780 H1771 0.950 . S
C1780 C1779 1.398 . S
C1780 C1781 1.391 . S
C1781 H1769 0.950 . S
C1781 C1777 1.393 . S
C1781 C1780 1.391 . S
C1782 H1772 0.950 . S
C1782 C1783 1.386 . S
C1782 C1784 1.391 . S
C1783 C1782 1.386 . S
C1783 C1787 1.393 . S
C1784 H1773 0.950 . S
C1784 C1782 1.391 . S
C1784 C1785 1.400 . S
C1785 C1779 1.491 . S
C1785 C1784 1.400 . S
C1785 C1786 1.398 . S
C1786 H1774 0.950 . S
C1786 C1785 1.398 . S
C1786 C1787 1.391 . S
C1787 H1775 0.950 . S
C1787 C1783 1.393 . S
C1787 C1786 1.391 . S
H1788 C1796 0.950 . S
H1789 C1801 0.950 . S
H1790 C1798 0.950 . S
H1791 C1800 0.950 . S
H1792 C1802 0.950 . S
H1793 C1804 0.950 . S
H1794 C1806 0.950 . S
H1795 C1807 0.950 . S
C1796 H1788 0.950 . S
C1796 C1797 1.386 . S
C1796 C1798 1.391 . S
C1797 C1796 1.386 . S
C1797 C1801 1.393 . S
C1798 H1790 0.950 . S
C1798 C1796 1.391 . S
C1798 C1799 1.400 . S
C1799 C1798 1.400 . S
C1799 C1800 1.398 . S
C1799 C1805 1.491 . S
C1800 H1791 0.950 . S
C1800 C1799 1.398 . S
C1800 C1801 1.391 . S
C1801 H1789 0.950 . S
C1801 C1797 1.393 . S
C1801 C1800 1.391 . S
C1802 H1792 0.950 . S
C1802 C1803 1.386 . S
C1802 C1804 1.391 . S
C1803 C1802 1.386 . S
C1803 C1807 1.393 . S
C1804 H1793 0.950 . S
C1804 C1802 1.391 . S
C1804 C1805 1.400 . S
C1805 C1799 1.491 . S
C1805 C1804 1.400 . S
C1805 C1806 1.398 . S
C1806 H1794 0.950 . S
C1806 C1805 1.398 . S
C1806 C1807 1.391 . S
C1807 H1795 0.950 . S
C1807 C1803 1.393 . S
C1807 C1806 1.391 . S
H1808 C1816 0.950 . S
H1809 C1821 0.950 . S
H1810 C1818 0.950 . S
H1811 C1820 0.950 . S
H1812 C1822 0.950 . S
H1813 C1824 0.950 . S
H1814 C1826 0.950 . S
H1815 C1827 0.950 . S
C1816 H1808 0.950 . S
C1816 C1817 1.386 . S
C1816 C1818 1.391 . S
C1817 C1816 1.386 . S
C1817 C1821 1.393 . S
C1818 H1810 0.950 . S
C1818 C1816 1.391 . S
C1818 C1819 1.400 . S
C1819 C1818 1.400 . S
C1819 C1820 1.398 . S
C1819 C1825 1.491 . S
C1820 H1811 0.950 . S
C1820 C1819 1.398 . S
C1820 C1821 1.391 . S
C1821 H1809 0.950 . S
C1821 C1817 1.393 . S
C1821 C1820 1.391 . S
C1822 H1812 0.950 . S
C1822 C1823 1.386 . S
C1822 C1824 1.391 . S
C1823 C1822 1.386 . S
C1823 C1827 1.393 . S
C1824 H1813 0.950 . S
C1824 C1822 1.391 . S
C1824 C1825 1.400 . S
C1825 C1819 1.491 . S
C1825 C1824 1.400 . S
C1825 C1826 1.398 . S
C1826 H1814 0.950 . S
C1826 C1825 1.398 . S
C1826 C1827 1.391 . S
C1827 H1815 0.950 . S
C1827 C1823 1.393 . S
C1827 C1826 1.391 . S
H1828 C1836 0.950 . S
H1829 C1841 0.950 . S
H1830 C1838 0.950 . S
H1831 C1840 0.950 . S
H1832 C1842 0.950 . S
H1833 C1844 0.950 . S
H1834 C1846 0.950 . S
H1835 C1847 0.950 . S
C1836 H1828 0.950 . S
C1836 C1837 1.386 . S
C1836 C1838 1.391 . S
C1837 C1836 1.386 . S
C1837 C1841 1.393 . S
C1838 H1830 0.950 . S
C1838 C1836 1.391 . S
C1838 C1839 1.400 . S
C1839 C1838 1.400 . S
C1839 C1840 1.398 . S
C1839 C1845 1.491 . S
C1840 H1831 0.950 . S
C1840 C1839 1.398 . S
C1840 C1841 1.391 . S
C1841 H1829 0.950 . S
C1841 C1837 1.393 . S
C1841 C1840 1.391 . S
C1842 H1832 0.950 . S
C1842 C1843 1.386 . S
C1842 C1844 1.391 . S
C1843 C1842 1.386 . S
C1843 C1847 1.393 . S
C1844 H1833 0.950 . S
C1844 C1842 1.391 . S
C1844 C1845 1.400 . S
C1845 C1839 1.491 . S
C1845 C1844 1.400 . S
C1845 C1846 1.398 . S
C1846 H1834 0.950 . S
C1846 C1845 1.398 . S
C1846 C1847 1.391 . S
C1847 H1835 0.950 . S
C1847 C1843 1.393 . S
C1847 C1846 1.391 . S
H1848 C1856 0.950 . S
H1849 C1861 0.950 . S
H1850 C1858 0.950 . S
H1851 C1860 0.950 . S
H1852 C1862 0.950 . S
H1853 C1864 0.950 . S
H1854 C1866 0.950 . S
H1855 C1867 0.950 . S
C1856 H1848 0.950 . S
C1856 C1857 1.386 . S
C1856 C1858 1.391 . S
C1857 C1856 1.386 . S
C1857 C1861 1.393 . S
C1858 H1850 0.950 . S
C1858 C1856 1.391 . S
C1858 C1859 1.400 . S
C1859 C1858 1.400 . S
C1859 C1860 1.398 . S
C1859 C1865 1.491 . S
C1860 H1851 0.950 . S
C1860 C1859 1.398 . S
C1860 C1861 1.391 . S
C1861 H1849 0.950 . S
C1861 C1857 1.393 . S
C1861 C1860 1.391 . S
C1862 H1852 0.950 . S
C1862 C1863 1.386 . S
C1862 C1864 1.391 . S
C1863 C1862 1.386 . S
C1863 C1867 1.393 . S
C1864 H1853 0.950 . S
C1864 C1862 1.391 . S
C1864 C1865 1.400 . S
C1865 C1859 1.491 . S
C1865 C1864 1.400 . S
C1865 C1866 1.398 . S
C1866 H1854 0.950 . S
C1866 C1865 1.398 . S
C1866 C1867 1.391 . S
C1867 H1855 0.950 . S
C1867 C1863 1.393 . S
C1867 C1866 1.391 . S
H1868 C1876 0.950 . S
H1869 C1881 0.950 . S
H1870 C1878 0.950 . S
H1871 C1880 0.950 . S
H1872 C1882 0.950 . S
H1873 C1884 0.950 . S
H1874 C1886 0.950 . S
H1875 C1887 0.950 . S
C1876 H1868 0.950 . S
C1876 C1877 1.386 . S
C1876 C1878 1.391 . S
C1877 C1876 1.386 . S
C1877 C1881 1.393 . S
C1878 H1870 0.950 . S
C1878 C1876 1.391 . S
C1878 C1879 1.400 . S
C1879 C1878 1.400 . S
C1879 C1880 1.398 . S
C1879 C1885 1.491 . S
C1880 H1871 0.950 . S
C1880 C1879 1.398 . S
C1880 C1881 1.391 . S
C1881 H1869 0.950 . S
C1881 C1877 1.393 . S
C1881 C1880 1.391 . S
C1882 H1872 0.950 . S
C1882 C1883 1.386 . S
C1882 C1884 1.391 . S
C1883 C1882 1.386 . S
C1883 C1887 1.393 . S
C1884 H1873 0.950 . S
C1884 C1882 1.391 . S
C1884 C1885 1.400 . S
C1885 C1879 1.491 . S
C1885 C1884 1.400 . S
C1885 C1886 1.398 . S
C1886 H1874 0.950 . S
C1886 C1885 1.398 . S
C1886 C1887 1.391 . S
C1887 H1875 0.950 . S
C1887 C1883 1.393 . S
C1887 C1886 1.391 . S
H1888 C1896 0.950 . S
H1889 C1901 0.950 . S
H1890 C1898 0.950 . S
H1891 C1900 0.950 . S
H1892 C1902 0.950 . S
H1893 C1904 0.950 . S
H1894 C1906 0.950 . S
H1895 C1907 0.950 . S
C1896 H1888 0.950 . S
C1896 C1897 1.386 . S
C1896 C1898 1.391 . S
C1897 C1896 1.386 . S
C1897 C1901 1.393 . S
C1898 H1890 0.950 . S
C1898 C1896 1.391 . S
C1898 C1899 1.400 . S
C1899 C1898 1.400 . S
C1899 C1900 1.398 . S
C1899 C1905 1.491 . S
C1900 H1891 0.950 . S
C1900 C1899 1.398 . S
C1900 C1901 1.391 . S
C1901 H1889 0.950 . S
C1901 C1897 1.393 . S
C1901 C1900 1.391 . S
C1902 H1892 0.950 . S
C1902 C1903 1.386 . S
C1902 C1904 1.391 . S
C1903 C1902 1.386 . S
C1903 C1907 1.393 . S
C1904 H1893 0.950 . S
C1904 C1902 1.391 . S
C1904 C1905 1.400 . S
C1905 C1899 1.491 . S
C1905 C1904 1.400 . S
C1905 C1906 1.398 . S
C1906 H1894 0.950 . S
C1906 C1905 1.398 . S
C1906 C1907 1.391 . S
C1907 H1895 0.950 . S
C1907 C1903 1.393 . S
C1907 C1906 1.391 . S
C963 C334 1.223 . S
C957 N2 1.345 . S
C983 C434 2.150 . S
C977 C7 2.161 . S
C1003 C514 1.219 . S
C997 N12 1.400 . S
C1017 C16 1.934 . S
C1023 C591 1.966 . S
C1043 C675 2.190 . S
C1037 C30 2.202 1_565 S
C1063 C754 1.048 . S
C1057 N35 1.275 . S
C1077 C39 2.045 . S
C1083 C854 2.025 . S
C1103 C934 1.168 . S
C1097 N25 1.222 . S
C1123 C332 1.098 . S
C1117 N58 1.125 . S
C1137 N81 1.867 . S
C1143 C427 1.861 . S
C1163 C518 1.168 . S
C1157 N104 1.100 . S
C1177 N127 1.155 . S
C1183 C586 0.936 . S
C1203 C670 0.825 . S
C1197 N48 0.841 . S
C1223 C752 1.451 . S
C1217 N71 1.396 1_556 S
C1237 N94 1.414 . S
C1243 C847 1.429 . S
C1263 C938 1.541 . S
C1257 N117 1.513 . S
C1277 C85 2.112 . S
C1283 C339 2.119 . S
C1297 C122 2.374 . S
C1303 C668 2.344 . S
C1317 C53 1.759 . S
C1323 C759 1.802 . S
C1343 C850 1.247 . S
C1337 C76 1.488 1_655 S
C1363 C931 1.738 . S
C1357 C99 1.816 . S
C1383 C511 1.910 . S
C1377 C131 1.938 . S
C1403 C584 1.893 . S
C1397 C62 1.977 . S
C1417 C108 1.165 . S
C1423 C430 1.005 . S
C1443 C922 1.200 . S
C1437 N140 1.388 . S
C1457 C145 2.151 . S
C1463 C686 2.140 . S
C1483 C766 1.159 . S
C1477 N150 1.294 . S
C1497 C154 1.932 . S
C1503 C843 1.960 . S
C1523 C423 2.189 . S
C1517 C168 2.201 . S
C1537 N173 1.147 . S
C1543 C502 1.040 . S
C1563 C602 2.037 . S
C1557 C177 2.051 . S
C1583 C346 1.125 . S
C1577 N163 1.217 . S
C1603 C920 1.519 . S
C1597 C200 1.574 . S
C1623 C679 2.162 . S
C1617 N219 2.165 . S
C1637 N242 1.387 . S
C1643 C770 1.461 . S
C1663 C838 1.155 . S
C1657 C269 1.462 . S
C1683 C418 0.943 . S
C1677 C191 1.131 . S
C1697 N209 1.667 . S
C1703 C500 1.716 . S
C1717 N232 1.712 . S
C1723 C595 1.730 . S
C1737 C260 2.023 . S
C1743 C350 2.018 . S
C1757 C223 1.791 . S
C1763 C927 1.796 . S
C1777 N255 1.958 . S
C1783 C416 1.949 . S
C1797 N186 1.333 . S
C1803 C507 1.403 . S
C1823 C598 0.983 . S
C1817 C214 1.162 . S
C1843 C343 1.427 . S
C1837 C237 1.501 . S
C1863 C763 1.517 . S
C1857 N265 1.463 . S
C1883 C836 1.512 . S
C1877 N196 1.510 . S
C1903 C682 0.835 . S
C1897 C246 0.851 . S
