# Generated by pormake.
# Topology ftw, (4,12)-cn, num edge types: 1
# Building blocks:
#     Node 0, Type 0, BuildingBlock: ESEHIV_clean_sbu_0, # of connection points: 4
#     Node 1, Type 0, BuildingBlock: ESEHIV_clean_sbu_0, # of connection points: 4
#     Node 2, Type 0, BuildingBlock: ESEHIV_clean_sbu_0, # of connection points: 4
#     Node 3, Type 1, BuildingBlock: QEWDON_clean_sbu_0, # of connection points: 12
#     Edge 4, Type (0, 1), BuildingBlock: KIFKEQ_clean_linker_1, # of connection points: 2
#     Edge 5, Type (0, 1), BuildingBlock: KIFKEQ_clean_linker_1, # of connection points: 2
#     Edge 6, Type (0, 1), BuildingBlock: KIFKEQ_clean_linker_1, # of connection points: 2
#     Edge 7, Type (0, 1), BuildingBlock: KIFKEQ_clean_linker_1, # of connection points: 2
#     Edge 8, Type (0, 1), BuildingBlock: KIFKEQ_clean_linker_1, # of connection points: 2
#     Edge 9, Type (0, 1), BuildingBlock: KIFKEQ_clean_linker_1, # of connection points: 2
#     Edge 10, Type (0, 1), BuildingBlock: KIFKEQ_clean_linker_1, # of connection points: 2
#     Edge 11, Type (0, 1), BuildingBlock: KIFKEQ_clean_linker_1, # of connection points: 2
#     Edge 12, Type (0, 1), BuildingBlock: KIFKEQ_clean_linker_1, # of connection points: 2
#     Edge 13, Type (0, 1), BuildingBlock: KIFKEQ_clean_linker_1, # of connection points: 2
#     Edge 14, Type (0, 1), BuildingBlock: KIFKEQ_clean_linker_1, # of connection points: 2
#     Edge 15, Type (0, 1), BuildingBlock: KIFKEQ_clean_linker_1, # of connection points: 2
# Relax obj value: 0.058
# Max RMSD: 0.167
# Mean RMSD: 0.145
data_MOF--net-ftw--node1-ESEHIV_clean_sbu_0--node2-QEWDON_clean_sbu_0--edge1-KIFKEQ_clean_linker_1
_symmetry_space_group_name_H-M    P1
_symmetry_Int_Tables_number       1
_symmetry_cell_setting            triclinic
loop_
_symmetry_equiv_pos_as_xyz
'x, y, z'
_cell_length_a     26.227071
_cell_length_b     25.574545
_cell_length_c     24.977861
_cell_angle_alpha  86.829969
_cell_angle_beta   86.810274
_cell_angle_gamma 93.067777
loop_
_atom_site_label
_atom_site_type_symbol
_atom_site_fract_x
_atom_site_fract_y
_atom_site_fract_z
_atom_type_partial_charge
Cu0 Cu 0.01948 0.50524 0.47646 0.0
N1 N 0.06256 0.46416 0.43704 0.0
N2 N 0.08553 0.39894 0.38645 0.0
C3 C 0.04802 0.41803 0.41776 0.0
C4 C 0.12531 0.4348 0.38612 0.0
C5 C 0.11095 0.47508 0.41727 0.0
O6 O 0.97627 0.45628 0.52379 0.0
C7 C 0.95245 0.5816 0.43006 0.0
O8 O 0.93345 0.58923 0.47855 0.0
H9 H 0.00962 0.40036 0.42444 0.0
H10 H 0.13358 0.51058 0.42353 0.0
N11 N 0.05826 0.54845 0.51859 0.0
N12 N 0.07795 0.60938 0.57598 0.0
C13 C 0.04287 0.59088 0.54322 0.0
C14 C 0.10488 0.54 0.53616 0.0
C15 C 0.11727 0.57771 0.57133 0.0
C16 C 0.95233 0.46833 0.56667 0.0
O17 O 0.94936 0.51795 0.57672 0.0
H18 H 0.00596 0.60683 0.53877 0.0
H19 H 0.12726 0.50723 0.52617 0.0
O20 O 0.98522 0.54719 0.42339 0.0
H21 H 0.16177 0.43282 0.36404 0.0
H22 H 0.15121 0.57976 0.59405 0.0
Cu23 Cu 0.51837 0.97994 0.47162 0.0
N24 N 0.54498 0.92853 0.51633 0.0
N25 N 0.58718 0.89224 0.58299 0.0
C26 C 0.57718 0.93717 0.55546 0.0
C27 C 0.56013 0.85392 0.56005 0.0
C28 C 0.53413 0.87642 0.51906 0.0
O29 O 0.57671 0.0161 0.43012 0.0
C30 C 0.44179 -0.00127 0.54736 0.0
O31 O 0.432 0.94876 0.5401 0.0
H32 H 0.59159 0.97593 0.56456 0.0
H33 H 0.50832 0.85626 0.49379 0.0
N34 N 0.47623 0.94785 0.42328 0.0
N35 N 0.41304 0.93248 0.36837 0.0
C36 C 0.43001 0.96163 0.40816 0.0
C37 C 0.48909 0.90893 0.39204 0.0
C38 C 0.4503 0.89922 0.35838 0.0
C39 C 0.57333 0.03577 0.3825 0.0
O40 O 0.52783 0.0391 0.36349 0.0
H41 H 0.40994 -0.00684 0.42533 0.0
H42 H 0.52506 0.89015 0.39248 0.0
O43 O 0.47856 0.02304 0.51899 0.0
H44 H 0.55901 0.81254 0.57204 0.0
H45 H 0.45075 0.87133 0.32736 0.0
Cu46 Cu 0.47737 0.46912 0.17072 0.0
N47 N 0.44944 0.50991 0.11738 0.0
N48 N 0.41499 0.57802 0.07668 0.0
C49 C 0.42869 0.55621 0.12371 0.0
C50 C 0.42809 0.54436 0.03919 0.0
C51 C 0.44947 0.50227 0.06452 0.0
O52 O 0.44146 0.47707 0.23977 0.0
C53 C 0.55906 0.5373 0.19534 0.0
O54 O 0.52217 0.56167 0.21938 0.0
H55 H 0.42431 0.57379 0.16202 0.0
H56 H 0.46452 0.46877 0.04574 0.0
N57 N 0.47623 0.39919 0.15363 0.0
N58 N 0.50452 0.31967 0.1407 0.0
C59 C 0.51391 0.36659 0.16171 0.0
C60 C 0.44174 0.37235 0.12639 0.0
C61 C 0.45879 0.32319 0.11873 0.0
C62 C 0.39713 0.45787 0.25604 0.0
O63 O 0.38045 0.46437 0.30564 0.0
H64 H 0.54885 0.37853 0.17984 0.0
H65 H 0.40788 0.38818 0.11078 0.0
O66 O 0.54799 0.49496 0.17307 0.0
H67 H 0.42212 0.54954 0.99674 0.0
H68 H 0.43966 0.29329 0.0969 0.0
Zn69 Zn 0.17311 0.13979 0.96015 0.0
Zn70 Zn 0.10465 0.11659 0.0725 0.0
O71 O 0.11787 0.08968 0.9992 0.0
H72 H 0.10224 0.05828 0.98583 0.0
C73 C 0.90282 0.20662 0.88569 0.0
O74 O 0.89654 0.22489 0.93362 0.0
Zn75 Zn 0.9105 0.88187 0.09275 0.0
Zn76 Zn 0.88376 0.84669 0.97425 0.0
O77 O 0.90733 0.90846 0.01618 0.0
H78 H 0.91635 0.94382 1.00183 0.0
Zn79 Zn 0.88557 0.10889 0.95155 0.0
O80 O 0.9417 0.08761 1.00081 0.0
Zn81 Zn 0.9083 0.07837 0.07539 0.0
H82 H 0.97652 0.08046 0.9902 0.0
Zn83 Zn 0.10955 0.91759 0.94972 0.0
O84 O 0.05632 0.92072 1.01215 0.0
H85 H 0.02181 0.9317 1.00968 0.0
Zn86 Zn 0.0982 0.92133 0.07687 0.0
C87 C 0.05964 0.84799 0.87844 0.0
O88 O 0.04201 0.82591 0.92504 0.0
O89 O 0.19697 0.20162 1.00513 0.0
O90 O 0.14169 0.18878 0.07653 0.0
O91 O 0.85747 0.78274 0.02391 0.0
O92 O 0.87794 0.80724 0.10451 0.0
O93 O 0.81742 0.12098 0.99278 0.0
O94 O 0.83646 0.10442 0.07748 0.0
C95 C 0.13655 0.02047 0.12756 0.0
O96 O 0.17554 0.88508 0.97293 0.0
O97 O 0.16445 0.88623 0.0616 0.0
O98 O 0.8447 0.86076 0.9048 0.0
C99 C 0.17846 0.21559 0.0502 0.0
O100 O 0.21144 0.12152 0.88729 0.0
C101 C 0.86927 0.9774 0.13294 0.0
O102 O 0.90174 0.15721 0.88164 0.0
C103 C 0.85801 0.77368 0.07459 0.0
O104 O 0.08737 0.89033 0.87757 0.0
C105 C 0.99702 0.13153 0.12594 0.0
O106 O 0.13785 0.07013 0.12679 0.0
O107 O 0.11147 -0.00285 0.09288 0.0
C108 C 0.80511 0.11862 0.04296 0.0
O109 O 0.8678 0.92762 0.13809 0.0
O110 O 0.90244 0.00145 0.09983 0.0
C111 C 0.0133 0.86582 0.14241 0.0
O112 O 0.94904 0.12061 0.12572 0.0
O113 O 0.02696 0.11319 0.09039 0.0
C114 C 0.19042 0.87449 0.01973 0.0
O115 O 0.0612 0.87739 0.13823 0.0
O116 O 0.98498 0.88846 0.10964 0.0
C117 C 0.79631 0.85285 0.90794 0.0
O118 O 0.77332 0.83699 0.95454 0.0
C119 C 0.2584 0.1346 0.87505 0.0
O120 O 0.28468 0.1609 0.90903 0.0
H121 H 0.1409 0.3799 0.29465 0.0
H122 H 0.01963 0.31389 0.40658 0.0
H123 H 0.12433 0.30865 0.23565 0.0
H124 H 0.00259 0.24377 0.34677 0.0
H125 H 0.94057 0.19728 0.1826 0.0
H126 H 0.96751 0.25518 0.25071 0.0
H127 H 0.1207 0.2026 0.2335 0.0
H128 H 0.09371 0.14415 0.16449 0.0
C129 C 0.11149 0.34982 0.30734 0.0
C130 C 0.08092 0.35337 0.35504 0.0
C131 C 0.10215 0.30897 0.2735 0.0
C132 C 0.06202 0.27114 0.28661 0.0
C133 C 0.0334 0.27292 0.33554 0.0
C134 C 0.04297 0.31334 0.36955 0.0
C135 C 0.98011 0.19775 0.19311 0.0
C136 C 0.01531 0.16645 0.16719 0.0
C137 C 0.99537 0.23083 0.2324 0.0
C138 C 0.04624 0.23353 0.24694 0.0
C139 C 0.08146 0.20183 0.22201 0.0
C140 C 0.06609 0.16854 0.1824 0.0
H141 H 0.67399 0.02544 0.40499 0.0
H142 H 0.57829 0.06648 0.27554 0.0
H143 H 0.74769 0.02555 0.34066 0.0
H144 H 0.65181 0.06648 0.21155 0.0
H145 H 0.76832 0.96513 0.12065 0.0
H146 H 0.69889 -0.00723 0.17951 0.0
H147 H 0.8086 0.07507 0.2719 0.0
H148 H 0.87851 0.04739 0.21174 0.0
C149 C 0.66881 0.03564 0.36305 0.0
C150 C 0.61991 0.04528 0.34551 0.0
C151 C 0.71121 0.03595 0.32614 0.0
C152 C 0.70565 0.04556 0.2708 0.0
C153 C 0.6574 0.05838 0.25377 0.0
C154 C 0.61518 0.05848 0.29062 0.0
C155 C 0.77743 -0.00955 0.15258 0.0
C156 C 0.82855 0.00452 0.1615 0.0
C157 C 0.73767 0.00635 0.18639 0.0
C158 C 0.74807 0.03596 0.23072 0.0
C159 C 0.79933 0.05197 0.23834 0.0
C160 C 0.83927 0.03668 0.2037 0.0
H161 H 0.91301 0.67904 0.43218 0.0
H162 H 0.97259 0.56826 0.32369 0.0
H163 H 0.91698 0.74636 0.35812 0.0
H164 H 0.97578 0.63502 0.25008 0.0
H165 H 0.06528 0.78359 0.17618 0.0
H166 H 0.03798 0.7127 0.24136 0.0
H167 H 0.89019 0.77779 0.26308 0.0
H168 H 0.91805 0.85011 0.19665 0.0
C169 C 0.92549 0.66857 0.39231 0.0
C170 C 0.94348 0.61858 0.38406 0.0
C171 C 0.92759 0.70712 0.34987 0.0
C172 C 0.94759 0.69622 0.29855 0.0
C173 C 0.96111 0.64487 0.28945 0.0
C174 C 0.95922 0.60658 0.33167 0.0
C175 C 0.02679 0.78291 0.19451 0.0
C176 C 0.99377 0.82245 0.18114 0.0
C177 C 0.01095 0.74186 0.23156 0.0
C178 C 0.96169 0.7392 0.25692 0.0
C179 C 0.92832 0.77875 0.24391 0.0
C180 C 0.9441 0.81988 0.20581 0.0
H181 H 0.36628 0.86076 0.30786 0.0
H182 H 0.35533 0.01779 0.3616 0.0
H183 H 0.2933 0.87323 0.25319 0.0
H184 H 0.28214 0.02968 0.30773 0.0
H185 H 0.13052 0.02821 0.23503 0.0
H186 H 0.19273 0.00016 0.29852 0.0
H187 H 0.2761 0.92749 0.17123 0.0
H188 H 0.21392 0.9562 0.10804 0.0
C189 C 0.34848 0.89793 0.30821 0.0
C190 C 0.36734 0.93839 0.33912 0.0
C191 C 0.30644 0.90494 0.27691 0.0
C192 C 0.28181 0.95239 0.27609 0.0
C193 C 0.29967 -0.00772 0.30808 0.0
C194 C 0.34186 0.98542 0.33909 0.0
C195 C 0.16123 0.00464 0.22123 0.0
C196 C 0.16651 -0.00736 0.16712 0.0
C197 C 0.19715 0.9891 0.25735 0.0
C198 C 0.23952 0.96174 0.23993 0.0
C199 C 0.2434 0.94761 0.18622 0.0
C200 C 0.20739 0.96328 0.15007 0.0
H201 H 0.98937 0.6369 0.62508 0.0
H202 H 0.15256 0.67247 0.61289 0.0
H203 H 0.97966 0.70077 0.69336 0.0
H204 H 0.143 0.7356 0.68213 0.0
H205 H 0.10553 0.87402 0.77877 0.0
H206 H 0.10625 0.82093 0.70056 0.0
H207 H 0.00362 0.70435 0.78781 0.0
H208 H 0.00249 0.75748 0.86588 0.0
C209 C 0.0231 0.6589 0.63638 0.0
C210 C 0.07181 0.64963 0.61359 0.0
C211 C 0.01756 0.69511 0.67588 0.0
C212 C 0.06054 0.72311 0.69317 0.0
C213 C 0.10907 0.715 0.66925 0.0
C214 C 0.11465 0.6785 0.63003 0.0
C215 C 0.08245 0.83747 0.78102 0.0
C216 C 0.05429 0.81974 0.82874 0.0
C217 C 0.08316 0.80694 0.73632 0.0
C218 C 0.05541 0.75827 0.73824 0.0
C219 C 0.02516 0.74184 0.78498 0.0
C220 C 0.02469 0.7722 0.82981 0.0
H221 H 0.35938 0.95621 0.60877 0.0
H222 H 0.45771 0.0975 0.58514 0.0
H223 H 0.31473 -0.00778 0.68462 0.0
H224 H 0.41175 0.13449 0.66107 0.0
H225 H 0.35916 0.15138 0.83989 0.0
H226 H 0.40148 0.12292 0.75799 0.0
H227 H 0.25706 0.05608 0.71113 0.0
H228 H 0.21502 0.08336 0.79369 0.0
C229 C 0.37117 -0.00463 0.61933 0.0
C230 C 0.41239 0.02384 0.59075 0.0
C231 C 0.34516 0.01625 0.66284 0.0
C232 C 0.35939 0.0664 0.67925 0.0
C233 C 0.40003 0.09548 0.65003 0.0
C234 C 0.42617 0.07448 0.60621 0.0
C235 C 0.33633 0.13077 0.81205 0.0
C236 C 0.28366 0.11934 0.82375 0.0
C237 C 0.36062 0.11478 0.76475 0.0
C238 C 0.33289 0.08694 0.72777 0.0
C239 C 0.27993 0.07663 0.73896 0.0
C240 C 0.25569 0.0925 0.78631 0.0
H241 H 0.97508 0.36501 0.5702 0.0
H242 H 0.89516 0.47809 0.66025 0.0
H243 H 0.96122 0.30094 0.64594 0.0
H244 H 0.87943 0.41329 0.73539 0.0
H245 H 0.91925 0.31304 0.8817 0.0
H246 H 0.92646 0.37383 0.80302 0.0
H247 H 0.90357 0.24435 0.70114 0.0
H248 H 0.89828 0.18325 0.78009 0.0
C249 C 0.9535 0.37586 0.60574 0.0
C250 C 0.93658 0.42691 0.60926 0.0
C251 C 0.9454 0.33894 0.64928 0.0
C252 C 0.91974 0.35194 0.69731 0.0
C253 C 0.9005 0.40219 0.69966 0.0
C254 C 0.90905 0.43927 0.65631 0.0
C255 C 0.91587 0.29747 0.84252 0.0
C256 C 0.90831 0.24323 0.83725 0.0
C257 C 0.9195 0.33246 0.79727 0.0
C258 C 0.91515 0.31427 0.74546 0.0
C259 C 0.90767 0.25988 0.74022 0.0
C260 C 0.9045 0.22478 0.78555 0.0
H261 H 0.66667 0.95707 0.60806 0.0
H262 H 0.57823 0.81478 0.66226 0.0
H263 H 0.71741 0.94884 0.68674 0.0
H264 H 0.62999 0.8056 0.73973 0.0
H265 H 0.69302 0.83756 0.90185 0.0
H266 H 0.64323 0.84794 0.82297 0.0
H267 H 0.78135 0.89413 0.72576 0.0
H268 H 0.83128 0.88457 0.80506 0.0
C269 C 0.658 0.92405 0.63668 0.0
C270 C 0.6182 0.88668 0.62876 0.0
C271 C 0.68748 0.91903 0.68152 0.0
C272 C 0.67773 0.87662 0.71963 0.0
C273 C 0.63816 0.8391 0.71152 0.0
C274 C 0.60882 0.84404 0.66667 0.0
C275 C 0.71286 0.85003 0.86372 0.0
C276 C 0.7662 0.86013 0.85981 0.0
C277 C 0.68429 0.85567 0.81838 0.0
C278 C 0.7083 0.87159 0.76794 0.0
C279 C 0.7616 0.88226 0.76409 0.0
C280 C 0.79025 0.87652 0.8095 0.0
H281 H 0.35067 0.48919 0.16557 0.0
H282 H 0.36904 0.35512 0.27356 0.0
H283 H 0.29476 0.43536 0.1121 0.0
H284 H 0.31218 0.30154 0.22133 0.0
H285 H 0.16356 0.24295 0.1535 0.0
H286 H 0.21554 0.3045 0.20131 0.0
H287 H 0.30541 0.34987 0.05467 0.0
H288 H 0.25382 0.28712 1.00655 0.0
C289 C 0.34376 0.44794 0.17692 0.0
C290 C 0.36557 0.42559 0.22223 0.0
C291 C 0.31128 0.41739 0.14689 0.0
C292 C 0.2994 0.36432 0.16254 0.0
C293 C 0.32066 0.34239 0.20849 0.0
C294 C 0.35333 0.37281 0.23813 0.0
C295 C 0.19373 0.26649 0.13111 0.0
C296 C 0.20459 0.25962 0.07628 0.0
C297 C 0.22366 0.30159 0.15861 0.0
C298 C 0.26464 0.33151 0.13174 0.0
C299 C 0.27389 0.32724 0.07625 0.0
C300 C 0.24436 0.2913 0.0488 0.0
H301 H 0.3465 0.61797 0.14527 0.0
H302 H 0.42699 0.64698 0.99025 0.0
H303 H 0.30084 0.69722 0.13084 0.0
H304 H 0.38254 0.72772 0.97604 0.0
H305 H 0.23898 0.81973 0.94324 0.0
H306 H 0.30003 0.75307 0.95727 0.0
H307 H 0.30492 0.78958 0.12398 0.0
H308 H 0.24166 0.85454 0.11044 0.0
C309 C 0.3551 0.642 0.10849 0.0
C310 C 0.39006 0.6263 0.06878 0.0
C311 C 0.32918 0.68769 0.10025 0.0
C312 C 0.33805 0.71918 0.05229 0.0
C313 C 0.37415 0.70407 1.01311 0.0
C314 C 0.39963 0.6579 0.02114 0.0
C315 C 0.25375 0.81426 0.98269 0.0
C316 C 0.23492 0.842 0.02591 0.0
C317 C 0.28906 0.77606 0.99072 0.0
C318 C 0.30691 0.76523 0.042 0.0
C319 C 0.29096 0.79586 0.08427 0.0
C320 C 0.25505 0.83353 0.07642 0.0
H321 H 0.50246 0.24169 0.07045 0.0
H322 H 0.58736 0.30307 0.19897 0.0
H323 H 0.56844 0.18099 0.05315 0.0
H324 H 0.65487 0.24489 0.17913 0.0
H325 H 0.76601 0.12347 0.14651 0.0
H326 H 0.68619 0.16005 0.1766 0.0
H327 H 0.65145 0.19203 1.01116 0.0
H328 H 0.72979 0.15368 0.98135 0.0
C329 C 0.53475 0.24213 0.09549 0.0
C330 C 0.5399 0.27859 0.1353 0.0
C331 C 0.57302 0.20751 0.0851 0.0
C332 C 0.61761 0.20877 0.11385 0.0
C333 C 0.62112 0.24263 0.1561 0.0
C334 C 0.5826 0.27681 0.16692 0.0
C335 C 0.74077 0.13729 0.11664 0.0
C336 C 0.75446 0.13586 0.06153 0.0
C337 C 0.69513 0.15861 0.13388 0.0
C338 C 0.66235 0.17925 0.09638 0.0
C339 C 0.67519 0.17579 0.04131 0.0
C340 C 0.72054 0.1542 0.02412 0.0
H341 H 0.64278 0.50207 0.14054 0.0
H342 H 0.59408 0.62933 0.23438 0.0
H343 H 0.72544 0.54931 0.11942 0.0
H344 H 0.67601 0.6768 0.21246 0.0
H345 H 0.83237 0.74975 0.18158 0.0
H346 H 0.76828 0.68321 0.21951 0.0
H347 H 0.75031 0.62652 0.06151 0.0
H348 H 0.8148 0.69188 0.02392 0.0
C349 C 0.64991 0.53978 0.15727 0.0
C350 C 0.61154 0.56224 0.18857 0.0
C351 C 0.69724 0.56692 0.14501 0.0
C352 C 0.70727 0.61706 0.16384 0.0
C353 C 0.66992 0.63806 0.19771 0.0
C354 C 0.62265 0.61097 0.20993 0.0
C355 C 0.81578 0.72217 0.15517 0.0
C356 C 0.8282 0.72676 0.09953 0.0
C357 C 0.77872 0.68427 0.17688 0.0
C358 C 0.75351 0.65006 0.14346 0.0
C359 C 0.76904 0.65197 0.08857 0.0
C360 C 0.80593 0.68981 0.06689 0.0
loop_
_geom_bond_atom_site_label_1
_geom_bond_atom_site_label_2
_geom_bond_distance
_geom_bond_site_symmetry_2
_ccdc_geom_bond_type
Cu0 N1 1.999 . S
Cu0 O6 1.974 . S
Cu0 N11 1.985 . S
Cu0 O20 1.959 . S
N1 Cu0 1.999 . S
N1 C3 1.263 . S
N1 C5 1.389 . S
N2 C3 1.358 . S
N2 C4 1.400 . S
C3 N1 1.263 . S
C3 N2 1.358 . S
C3 H9 0.930 1_455 S
C4 N2 1.400 . S
C4 C5 1.351 . S
C4 H21 0.930 . S
C5 N1 1.389 . S
C5 C4 1.351 . S
C5 H10 0.930 . S
O6 Cu0 1.974 . S
O6 C16 1.282 1_455 S
C7 O8 1.261 . S
C7 O20 1.251 1_655 S
O8 C7 1.261 . S
H9 C3 0.930 1_655 S
H10 C5 0.930 . S
N11 Cu0 1.985 . S
N11 C13 1.335 . S
N11 C14 1.390 1_455 S
N12 C13 1.345 . S
N12 C15 1.336 1_455 S
C13 N11 1.335 . S
C13 N12 1.345 . S
C13 H18 0.930 . S
C14 N11 1.390 1_655 S
C14 C15 1.346 . S
C14 H19 0.930 . S
C15 N12 1.336 1_655 S
C15 C14 1.346 . S
C15 H22 0.929 . S
C16 O6 1.282 1_655 S
C16 O17 1.216 . S
O17 C16 1.216 . S
H18 C13 0.930 . S
H19 C14 0.930 . S
O20 Cu0 1.959 . S
O20 C7 1.251 1_455 S
H21 C4 0.930 . S
H22 C15 0.929 . S
Cu23 N24 1.999 . S
Cu23 O29 1.974 . S
Cu23 N34 1.985 . S
Cu23 O43 1.959 . S
N24 Cu23 1.999 . S
N24 C26 1.263 . S
N24 C28 1.389 . S
N25 C26 1.358 . S
N25 C27 1.400 . S
C26 N24 1.263 . S
C26 N25 1.358 . S
C26 H32 0.930 1_565 S
C27 N25 1.400 . S
C27 C28 1.351 . S
C27 H44 0.930 . S
C28 N24 1.389 . S
C28 C27 1.351 . S
C28 H33 0.930 . S
O29 Cu23 1.974 . S
O29 C39 1.282 1_565 S
C30 O31 1.261 . S
C30 O43 1.251 1_545 S
O31 C30 1.261 . S
H32 C26 0.930 1_545 S
H33 C28 0.930 . S
N34 Cu23 1.985 . S
N34 C36 1.335 . S
N34 C37 1.390 1_565 S
N35 C36 1.345 . S
N35 C38 1.336 1_565 S
C36 N34 1.335 . S
C36 N35 1.345 . S
C36 H41 0.930 . S
C37 N34 1.390 1_545 S
C37 C38 1.346 . S
C37 H42 0.930 . S
C38 N35 1.336 1_545 S
C38 C37 1.346 . S
C38 H45 0.929 . S
C39 O29 1.282 1_545 S
C39 O40 1.216 . S
O40 C39 1.216 . S
H41 C36 0.930 . S
H42 C37 0.930 . S
O43 Cu23 1.959 . S
O43 C30 1.251 1_565 S
H44 C27 0.930 . S
H45 C38 0.929 . S
Cu46 N47 1.999 . S
Cu46 O52 1.974 . S
Cu46 N57 1.985 1_556 S
Cu46 O66 1.959 . S
N47 Cu46 1.999 . S
N47 C49 1.263 1_556 S
N47 C51 1.389 . S
N48 C49 1.358 1_556 S
N48 C50 1.400 . S
C49 N47 1.263 1_554 S
C49 N48 1.358 1_554 S
C49 H55 0.930 . S
C50 N48 1.400 . S
C50 C51 1.351 . S
C50 H67 0.930 . S
C51 N47 1.389 . S
C51 C50 1.351 . S
C51 H56 0.930 . S
O52 Cu46 1.974 . S
O52 C62 1.280 1_556 S
C53 O54 1.261 . S
C53 O66 1.251 1_554 S
O54 C53 1.261 . S
H55 C49 0.930 . S
H56 C51 0.930 . S
N57 Cu46 1.985 1_554 S
N57 C59 1.335 1_554 S
N57 C60 1.390 . S
N58 C59 1.345 1_554 S
N58 C61 1.336 . S
C59 N57 1.335 1_556 S
C59 N58 1.345 1_556 S
C59 H64 0.930 . S
C60 N57 1.390 . S
C60 C61 1.346 . S
C60 H65 0.930 . S
C61 N58 1.336 . S
C61 C60 1.346 . S
C61 H68 0.929 . S
C62 O52 1.280 1_554 S
C62 O63 1.216 . S
O63 C62 1.216 . S
H64 C59 0.930 . S
H65 C60 0.930 . S
O66 Cu46 1.959 . S
O66 C53 1.251 1_556 S
H67 C50 0.930 . S
H68 C61 0.929 . S
Zn69 O71 1.933 1_556 S
Zn69 O89 1.985 . S
Zn69 O100 1.955 . S
Zn70 O71 1.911 . S
Zn70 O90 1.970 . S
Zn70 O106 1.945 . S
Zn70 O113 1.981 . S
O71 Zn69 1.933 1_554 S
O71 Zn70 1.911 . S
O71 H72 0.841 . S
H72 O71 0.841 . S
C73 O74 1.246 . S
C73 O102 1.276 1_455 S
O74 C73 1.246 . S
Zn75 O77 1.911 . S
Zn75 O92 1.970 . S
Zn75 O109 1.945 . S
Zn75 O116 1.981 . S
Zn76 O77 1.933 1_556 S
Zn76 O91 1.985 . S
Zn76 O98 1.955 . S
O77 Zn75 1.911 . S
O77 Zn76 1.933 1_554 S
O77 H78 0.841 . S
H78 O77 0.841 . S
Zn79 O80 1.933 1_556 S
Zn79 O93 1.985 . S
Zn79 O102 1.955 . S
O80 Zn79 1.933 1_554 S
O80 Zn81 1.911 . S
O80 H82 0.841 . S
Zn81 O80 1.911 . S
Zn81 O94 1.970 . S
Zn81 O110 1.981 . S
Zn81 O112 1.945 . S
H82 O80 0.841 . S
Zn83 O84 1.933 1_556 S
Zn83 O96 1.985 . S
Zn83 O104 1.955 . S
O84 Zn83 1.933 1_554 S
O84 H85 0.841 . S
O84 Zn86 1.911 . S
H85 O84 0.841 . S
Zn86 O84 1.911 . S
Zn86 O97 1.970 . S
Zn86 O107 1.981 . S
Zn86 O115 1.945 . S
C87 O88 1.246 . S
C87 O104 1.276 1_655 S
O88 C87 1.246 . S
O89 Zn69 1.985 . S
O89 C99 1.245 1_556 S
O90 Zn70 1.970 . S
O90 C99 1.263 . S
O91 Zn76 1.985 . S
O91 C103 1.245 1_556 S
O92 Zn75 1.970 . S
O92 C103 1.263 . S
O93 Zn79 1.985 . S
O93 C108 1.245 1_556 S
O94 Zn81 1.970 . S
O94 C108 1.263 . S
C95 O106 1.281 . S
C95 O107 1.234 1_545 S
O96 Zn83 1.985 . S
O96 C114 1.245 1_556 S
O97 Zn86 1.970 . S
O97 C114 1.263 . S
O98 Zn76 1.955 . S
O98 C117 1.276 1_565 S
C99 O89 1.245 1_554 S
C99 O90 1.263 . S
O100 Zn69 1.955 . S
O100 C119 1.276 . S
C101 O109 1.262 . S
C101 O110 1.245 1_565 S
O102 C73 1.276 1_655 S
O102 Zn79 1.955 . S
C103 O91 1.245 1_554 S
C103 O92 1.263 . S
O104 Zn83 1.955 . S
O104 C87 1.276 1_455 S
C105 O112 1.262 1_455 S
C105 O113 1.245 . S
O106 Zn70 1.945 . S
O106 C95 1.281 . S
O107 Zn86 1.981 . S
O107 C95 1.234 1_565 S
C108 O93 1.245 1_554 S
C108 O94 1.263 . S
O109 Zn75 1.945 . S
O109 C101 1.262 . S
O110 Zn81 1.981 . S
O110 C101 1.245 1_545 S
C111 O115 1.262 1_655 S
C111 O116 1.245 . S
O112 Zn81 1.945 . S
O112 C105 1.262 1_655 S
O113 Zn70 1.981 . S
O113 C105 1.245 . S
C114 O96 1.245 1_554 S
C114 O97 1.263 . S
O115 Zn86 1.945 . S
O115 C111 1.262 1_455 S
O116 Zn75 1.981 . S
O116 C111 1.245 . S
C117 O98 1.276 1_545 S
C117 O118 1.246 . S
O118 C117 1.246 . S
C119 O100 1.276 . S
C119 O120 1.246 1_545 S
O120 C119 1.246 1_565 S
H121 C129 0.950 . S
H122 C134 0.950 . S
H123 C131 0.950 . S
H124 C133 0.950 . S
H125 C135 0.950 . S
H126 C137 0.950 . S
H127 C139 0.950 . S
H128 C140 0.950 . S
C129 H121 0.950 . S
C129 C130 1.386 . S
C129 C131 1.391 . S
C130 C129 1.386 . S
C130 C134 1.393 1_455 S
C131 H123 0.950 . S
C131 C129 1.391 . S
C131 C132 1.400 . S
C132 C131 1.400 . S
C132 C133 1.398 1_455 S
C132 C138 1.491 . S
C133 H124 0.950 . S
C133 C132 1.398 1_655 S
C133 C134 1.391 . S
C134 H122 0.950 . S
C134 C130 1.393 1_655 S
C134 C133 1.391 . S
C135 H125 0.950 . S
C135 C136 1.386 1_655 S
C135 C137 1.391 . S
C136 C135 1.386 1_455 S
C136 C140 1.393 . S
C137 H126 0.950 . S
C137 C135 1.391 . S
C137 C138 1.400 1_655 S
C138 C132 1.491 . S
C138 C137 1.400 1_455 S
C138 C139 1.398 . S
C139 H127 0.950 . S
C139 C138 1.398 . S
C139 C140 1.391 . S
C140 H128 0.950 . S
C140 C136 1.393 . S
C140 C139 1.391 . S
H141 C149 0.950 . S
H142 C154 0.950 . S
H143 C151 0.950 . S
H144 C153 0.950 . S
H145 C155 0.950 . S
H146 C157 0.950 . S
H147 C159 0.950 . S
H148 C160 0.950 . S
C149 H141 0.950 . S
C149 C150 1.386 1_565 S
C149 C151 1.391 . S
C150 C149 1.386 1_545 S
C150 C154 1.393 . S
C151 H143 0.950 . S
C151 C149 1.391 . S
C151 C152 1.400 1_565 S
C152 C151 1.400 1_545 S
C152 C153 1.398 . S
C152 C158 1.491 . S
C153 H144 0.950 . S
C153 C152 1.398 . S
C153 C154 1.391 . S
C154 H142 0.950 . S
C154 C150 1.393 . S
C154 C153 1.391 . S
C155 H145 0.950 . S
C155 C156 1.386 . S
C155 C157 1.391 . S
C156 C155 1.386 . S
C156 C160 1.393 1_545 S
C157 H146 0.950 . S
C157 C155 1.391 . S
C157 C158 1.400 . S
C158 C152 1.491 . S
C158 C157 1.400 . S
C158 C159 1.398 1_545 S
C159 H147 0.950 . S
C159 C158 1.398 1_565 S
C159 C160 1.391 . S
C160 H148 0.950 . S
C160 C156 1.393 1_565 S
C160 C159 1.391 . S
H161 C169 0.950 . S
H162 C174 0.950 . S
H163 C171 0.950 . S
H164 C173 0.950 . S
H165 C175 0.950 . S
H166 C177 0.950 . S
H167 C179 0.950 . S
H168 C180 0.950 . S
C169 H161 0.950 . S
C169 C170 1.386 . S
C169 C171 1.391 . S
C170 C169 1.386 . S
C170 C174 1.393 1_655 S
C171 H163 0.950 . S
C171 C169 1.391 . S
C171 C172 1.400 . S
C172 C171 1.400 . S
C172 C173 1.398 1_655 S
C172 C178 1.491 . S
C173 H164 0.950 . S
C173 C172 1.398 1_455 S
C173 C174 1.391 . S
C174 H162 0.950 . S
C174 C170 1.393 1_455 S
C174 C173 1.391 . S
C175 H165 0.950 . S
C175 C176 1.386 1_455 S
C175 C177 1.391 . S
C176 C175 1.386 1_655 S
C176 C180 1.393 . S
C177 H166 0.950 . S
C177 C175 1.391 . S
C177 C178 1.400 1_455 S
C178 C172 1.491 . S
C178 C177 1.400 1_655 S
C178 C179 1.398 . S
C179 H167 0.950 . S
C179 C178 1.398 . S
C179 C180 1.391 . S
C180 H168 0.950 . S
C180 C176 1.393 . S
C180 C179 1.391 . S
H181 C189 0.950 . S
H182 C194 0.950 . S
H183 C191 0.950 . S
H184 C193 0.950 . S
H185 C195 0.950 . S
H186 C197 0.950 . S
H187 C199 0.950 . S
H188 C200 0.950 . S
C189 H181 0.950 . S
C189 C190 1.386 . S
C189 C191 1.391 . S
C190 C189 1.386 . S
C190 C194 1.393 1_565 S
C191 H183 0.950 . S
C191 C189 1.391 . S
C191 C192 1.400 . S
C192 C191 1.400 . S
C192 C193 1.398 1_565 S
C192 C198 1.491 . S
C193 H184 0.950 . S
C193 C192 1.398 1_545 S
C193 C194 1.391 . S
C194 H182 0.950 . S
C194 C190 1.393 1_545 S
C194 C193 1.391 . S
C195 H185 0.950 . S
C195 C196 1.386 1_545 S
C195 C197 1.391 . S
C196 C195 1.386 1_565 S
C196 C200 1.393 . S
C197 H186 0.950 . S
C197 C195 1.391 . S
C197 C198 1.400 1_545 S
C198 C192 1.491 . S
C198 C197 1.400 1_565 S
C198 C199 1.398 . S
C199 H187 0.950 . S
C199 C198 1.398 . S
C199 C200 1.391 . S
C200 H188 0.950 . S
C200 C196 1.393 . S
C200 C199 1.391 . S
H201 C209 0.950 . S
H202 C214 0.950 . S
H203 C211 0.950 . S
H204 C213 0.950 . S
H205 C215 0.950 . S
H206 C217 0.950 . S
H207 C219 0.950 . S
H208 C220 0.950 . S
C209 H201 0.950 . S
C209 C210 1.386 1_655 S
C209 C211 1.391 . S
C210 C209 1.386 1_455 S
C210 C214 1.393 . S
C211 H203 0.950 . S
C211 C209 1.391 . S
C211 C212 1.400 1_655 S
C212 C211 1.400 1_455 S
C212 C213 1.398 . S
C212 C218 1.491 1_455 S
C213 H204 0.950 . S
C213 C212 1.398 . S
C213 C214 1.391 . S
C214 H202 0.950 . S
C214 C210 1.393 . S
C214 C213 1.391 . S
C215 H205 0.950 . S
C215 C216 1.386 1_455 S
C215 C217 1.391 . S
C216 C215 1.386 1_655 S
C216 C220 1.393 . S
C217 H206 0.950 . S
C217 C215 1.391 . S
C217 C218 1.400 1_455 S
C218 C212 1.491 1_655 S
C218 C217 1.400 1_655 S
C218 C219 1.398 . S
C219 H207 0.950 . S
C219 C218 1.398 . S
C219 C220 1.391 . S
C220 H208 0.950 . S
C220 C216 1.393 . S
C220 C219 1.391 . S
H221 C229 0.950 . S
H222 C234 0.950 1_565 S
H223 C231 0.950 . S
H224 C233 0.950 . S
H225 C235 0.950 . S
H226 C237 0.950 . S
H227 C239 0.950 . S
H228 C240 0.950 . S
C229 H221 0.950 . S
C229 C230 1.386 . S
C229 C231 1.391 . S
C230 C229 1.386 . S
C230 C234 1.393 . S
C231 H223 0.950 . S
C231 C229 1.391 . S
C231 C232 1.400 . S
C232 C231 1.400 . S
C232 C233 1.398 1_545 S
C232 C238 1.491 . S
C233 H224 0.950 . S
C233 C232 1.398 1_565 S
C233 C234 1.391 1_565 S
C234 H222 0.950 1_545 S
C234 C230 1.393 . S
C234 C233 1.391 1_545 S
C235 H225 0.950 . S
C235 C236 1.386 . S
C235 C237 1.391 . S
C236 C235 1.386 . S
C236 C240 1.393 1_565 S
C237 H226 0.950 . S
C237 C235 1.391 . S
C237 C238 1.400 1_565 S
C238 C232 1.491 . S
C238 C237 1.400 1_545 S
C238 C239 1.398 . S
C239 H227 0.950 . S
C239 C238 1.398 . S
C239 C240 1.391 . S
C240 H228 0.950 . S
C240 C236 1.393 1_545 S
C240 C239 1.391 . S
H241 C249 0.950 . S
H242 C254 0.950 . S
H243 C251 0.950 . S
H244 C253 0.950 . S
H245 C255 0.950 . S
H246 C257 0.950 . S
H247 C259 0.950 . S
H248 C260 0.950 . S
C249 H241 0.950 . S
C249 C250 1.386 1_455 S
C249 C251 1.391 . S
C250 C249 1.386 1_655 S
C250 C254 1.393 . S
C251 H243 0.950 . S
C251 C249 1.391 . S
C251 C252 1.400 . S
C252 C251 1.400 . S
C252 C253 1.398 1_455 S
C252 C258 1.491 . S
C253 H244 0.950 . S
C253 C252 1.398 1_655 S
C253 C254 1.391 . S
C254 H242 0.950 . S
C254 C250 1.393 . S
C254 C253 1.391 . S
C255 H245 0.950 . S
C255 C256 1.386 1_655 S
C255 C257 1.391 . S
C256 C255 1.386 1_455 S
C256 C260 1.393 . S
C257 H246 0.950 . S
C257 C255 1.391 . S
C257 C258 1.400 1_655 S
C258 C252 1.491 . S
C258 C257 1.400 1_455 S
C258 C259 1.398 . S
C259 H247 0.950 . S
C259 C258 1.398 . S
C259 C260 1.391 . S
C260 H248 0.950 . S
C260 C256 1.393 . S
C260 C259 1.391 . S
H261 C269 0.950 . S
H262 C274 0.950 . S
H263 C271 0.950 . S
H264 C273 0.950 . S
H265 C275 0.950 . S
H266 C277 0.950 . S
H267 C279 0.950 1_565 S
H268 C280 0.950 . S
C269 H261 0.950 . S
C269 C270 1.386 . S
C269 C271 1.391 . S
C270 C269 1.386 . S
C270 C274 1.393 . S
C271 H263 0.950 . S
C271 C269 1.391 . S
C271 C272 1.400 1_565 S
C272 C271 1.400 1_545 S
C272 C273 1.398 . S
C272 C278 1.491 . S
C273 H264 0.950 . S
C273 C272 1.398 . S
C273 C274 1.391 1_545 S
C274 H262 0.950 . S
C274 C270 1.393 . S
C274 C273 1.391 1_565 S
C275 H265 0.950 . S
C275 C276 1.386 . S
C275 C277 1.391 . S
C276 C275 1.386 . S
C276 C280 1.393 . S
C277 H266 0.950 . S
C277 C275 1.391 . S
C277 C278 1.400 . S
C278 C272 1.491 . S
C278 C277 1.400 . S
C278 C279 1.398 . S
C279 H267 0.950 1_545 S
C279 C278 1.398 . S
C279 C280 1.391 . S
C280 H268 0.950 . S
C280 C276 1.393 . S
C280 C279 1.391 . S
H281 C289 0.950 1_556 S
H282 C294 0.950 . S
H283 C291 0.950 1_556 S
H284 C293 0.950 . S
H285 C295 0.950 . S
H286 C297 0.950 . S
H287 C299 0.950 . S
H288 C300 0.950 . S
C289 H281 0.950 1_554 S
C289 C290 1.386 . S
C289 C291 1.391 . S
C290 C289 1.386 . S
C290 C294 1.393 . S
C291 H283 0.950 1_554 S
C291 C289 1.391 . S
C291 C292 1.400 . S
C292 C291 1.400 . S
C292 C293 1.398 . S
C292 C298 1.491 . S
C293 H284 0.950 . S
C293 C292 1.398 . S
C293 C294 1.391 . S
C294 H282 0.950 . S
C294 C290 1.393 . S
C294 C293 1.391 . S
C295 H285 0.950 . S
C295 C296 1.386 . S
C295 C297 1.391 . S
C296 C295 1.386 . S
C296 C300 1.393 1_554 S
C297 H286 0.950 . S
C297 C295 1.391 . S
C297 C298 1.400 . S
C298 C292 1.491 . S
C298 C297 1.400 . S
C298 C299 1.398 1_554 S
C299 H287 0.950 . S
C299 C298 1.398 1_556 S
C299 C300 1.391 . S
C300 H288 0.950 . S
C300 C296 1.393 1_556 S
C300 C299 1.391 . S
H301 C309 0.950 . S
H302 C314 0.950 . S
H303 C311 0.950 . S
H304 C313 0.950 . S
H305 C315 0.950 . S
H306 C317 0.950 . S
H307 C319 0.950 . S
H308 C320 0.950 . S
C309 H301 0.950 . S
C309 C310 1.386 . S
C309 C311 1.391 . S
C310 C309 1.386 . S
C310 C314 1.393 1_554 S
C311 H303 0.950 . S
C311 C309 1.391 . S
C311 C312 1.400 . S
C312 C311 1.400 . S
C312 C313 1.398 1_554 S
C312 C318 1.491 . S
C313 H304 0.950 . S
C313 C312 1.398 1_556 S
C313 C314 1.391 . S
C314 H302 0.950 . S
C314 C310 1.393 1_556 S
C314 C313 1.391 . S
C315 H305 0.950 . S
C315 C316 1.386 1_556 S
C315 C317 1.391 . S
C316 C315 1.386 1_554 S
C316 C320 1.393 . S
C317 H306 0.950 . S
C317 C315 1.391 . S
C317 C318 1.400 1_556 S
C318 C312 1.491 . S
C318 C317 1.400 1_554 S
C318 C319 1.398 . S
C319 H307 0.950 . S
C319 C318 1.398 . S
C319 C320 1.391 . S
C320 H308 0.950 . S
C320 C316 1.393 . S
C320 C319 1.391 . S
H321 C329 0.950 . S
H322 C334 0.950 . S
H323 C331 0.950 . S
H324 C333 0.950 . S
H325 C335 0.950 . S
H326 C337 0.950 . S
H327 C339 0.950 . S
H328 C340 0.950 . S
C329 H321 0.950 . S
C329 C330 1.386 1_556 S
C329 C331 1.391 . S
C330 C329 1.386 1_554 S
C330 C334 1.393 . S
C331 H323 0.950 . S
C331 C329 1.391 . S
C331 C332 1.400 1_556 S
C332 C331 1.400 1_554 S
C332 C333 1.398 . S
C332 C338 1.491 . S
C333 H324 0.950 . S
C333 C332 1.398 . S
C333 C334 1.391 . S
C334 H322 0.950 . S
C334 C330 1.393 . S
C334 C333 1.391 . S
C335 H325 0.950 . S
C335 C336 1.386 . S
C335 C337 1.391 . S
C336 C335 1.386 . S
C336 C340 1.393 1_554 S
C337 H326 0.950 . S
C337 C335 1.391 . S
C337 C338 1.400 . S
C338 C332 1.491 . S
C338 C337 1.400 . S
C338 C339 1.398 1_554 S
C339 H327 0.950 . S
C339 C338 1.398 1_556 S
C339 C340 1.391 . S
C340 H328 0.950 . S
C340 C336 1.393 1_556 S
C340 C339 1.391 . S
H341 C349 0.950 1_556 S
H342 C354 0.950 . S
H343 C351 0.950 1_556 S
H344 C353 0.950 . S
H345 C355 0.950 . S
H346 C357 0.950 . S
H347 C359 0.950 1_556 S
H348 C360 0.950 1_556 S
C349 H341 0.950 1_554 S
C349 C350 1.386 . S
C349 C351 1.391 . S
C350 C349 1.386 . S
C350 C354 1.393 . S
C351 H343 0.950 1_554 S
C351 C349 1.391 . S
C351 C352 1.400 . S
C352 C351 1.400 . S
C352 C353 1.398 . S
C352 C358 1.491 . S
C353 H344 0.950 . S
C353 C352 1.398 . S
C353 C354 1.391 . S
C354 H342 0.950 . S
C354 C350 1.393 . S
C354 C353 1.391 . S
C355 H345 0.950 . S
C355 C356 1.386 . S
C355 C357 1.391 . S
C356 C355 1.386 . S
C356 C360 1.393 . S
C357 H346 0.950 . S
C357 C355 1.391 . S
C357 C358 1.400 . S
C358 C352 1.491 . S
C358 C357 1.400 . S
C358 C359 1.398 . S
C359 H347 0.950 1_554 S
C359 C358 1.398 . S
C359 C360 1.391 . S
C360 H348 0.950 1_554 S
C360 C356 1.393 . S
C360 C359 1.391 . S
C136 C105 1.338 . S
C130 N2 1.367 . S
C156 C101 1.734 1_545 S
C150 C39 1.786 . S
C176 C111 1.553 . S
C170 C7 1.649 . S
C196 C95 1.494 1_565 S
C190 N35 1.538 . S
C210 N12 1.434 . S
C216 C87 1.431 . S
C236 C119 1.833 1_565 S
C230 C30 1.954 . S
C250 C16 1.750 . S
C256 C73 1.638 . S
C270 N25 1.697 . S
C276 C117 1.608 . S
C290 C62 1.310 . S
C296 C99 1.293 . S
C310 N48 1.070 1_554 S
C316 C114 1.079 . S
C336 C108 1.079 . S
C330 N58 1.057 . S
C356 C103 1.325 . S
C350 C53 1.345 . S
