# Generated by pormake.
# Topology soc, (4,6)-cn, num edge types: 1
# Building blocks:
#     Node 0, Type 0, BuildingBlock: ESEHIV_clean_sbu_0, # of connection points: 4
#     Node 1, Type 0, BuildingBlock: ESEHIV_clean_sbu_0, # of connection points: 4
#     Node 2, Type 0, BuildingBlock: ESEHIV_clean_sbu_0, # of connection points: 4
#     Node 3, Type 0, BuildingBlock: ESEHIV_clean_sbu_0, # of connection points: 4
#     Node 4, Type 0, BuildingBlock: ESEHIV_clean_sbu_0, # of connection points: 4
#     Node 5, Type 0, BuildingBlock: ESEHIV_clean_sbu_0, # of connection points: 4
#     Node 6, Type 0, BuildingBlock: ESEHIV_clean_sbu_0, # of connection points: 4
#     Node 7, Type 0, BuildingBlock: ESEHIV_clean_sbu_0, # of connection points: 4
#     Node 8, Type 0, BuildingBlock: ESEHIV_clean_sbu_0, # of connection points: 4
#     Node 9, Type 0, BuildingBlock: ESEHIV_clean_sbu_0, # of connection points: 4
#     Node 10, Type 0, BuildingBlock: ESEHIV_clean_sbu_0, # of connection points: 4
#     Node 11, Type 0, BuildingBlock: ESEHIV_clean_sbu_0, # of connection points: 4
#     Node 12, Type 1, BuildingBlock: BETDEL_clean_sbu_0, # of connection points: 6
#     Node 13, Type 1, BuildingBlock: BETDEL_clean_sbu_0, # of connection points: 6
#     Node 14, Type 1, BuildingBlock: BETDEL_clean_sbu_0, # of connection points: 6
#     Node 15, Type 1, BuildingBlock: BETDEL_clean_sbu_0, # of connection points: 6
#     Node 16, Type 1, BuildingBlock: BETDEL_clean_sbu_0, # of connection points: 6
#     Node 17, Type 1, BuildingBlock: BETDEL_clean_sbu_0, # of connection points: 6
#     Node 18, Type 1, BuildingBlock: BETDEL_clean_sbu_0, # of connection points: 6
#     Node 19, Type 1, BuildingBlock: BETDEL_clean_sbu_0, # of connection points: 6
#     Edge 20, Type (0, 1), BuildingBlock: XUDNAN_clean_linker_2, # of connection points: 2
#     Edge 21, Type (0, 1), BuildingBlock: XUDNAN_clean_linker_2, # of connection points: 2
#     Edge 22, Type (0, 1), BuildingBlock: XUDNAN_clean_linker_2, # of connection points: 2
#     Edge 23, Type (0, 1), BuildingBlock: XUDNAN_clean_linker_2, # of connection points: 2
#     Edge 24, Type (0, 1), BuildingBlock: XUDNAN_clean_linker_2, # of connection points: 2
#     Edge 25, Type (0, 1), BuildingBlock: XUDNAN_clean_linker_2, # of connection points: 2
#     Edge 26, Type (0, 1), BuildingBlock: XUDNAN_clean_linker_2, # of connection points: 2
#     Edge 27, Type (0, 1), BuildingBlock: XUDNAN_clean_linker_2, # of connection points: 2
#     Edge 28, Type (0, 1), BuildingBlock: XUDNAN_clean_linker_2, # of connection points: 2
#     Edge 29, Type (0, 1), BuildingBlock: XUDNAN_clean_linker_2, # of connection points: 2
#     Edge 30, Type (0, 1), BuildingBlock: XUDNAN_clean_linker_2, # of connection points: 2
#     Edge 31, Type (0, 1), BuildingBlock: XUDNAN_clean_linker_2, # of connection points: 2
#     Edge 32, Type (0, 1), BuildingBlock: XUDNAN_clean_linker_2, # of connection points: 2
#     Edge 33, Type (0, 1), BuildingBlock: XUDNAN_clean_linker_2, # of connection points: 2
#     Edge 34, Type (0, 1), BuildingBlock: XUDNAN_clean_linker_2, # of connection points: 2
#     Edge 35, Type (0, 1), BuildingBlock: XUDNAN_clean_linker_2, # of connection points: 2
#     Edge 36, Type (0, 1), BuildingBlock: XUDNAN_clean_linker_2, # of connection points: 2
#     Edge 37, Type (0, 1), BuildingBlock: XUDNAN_clean_linker_2, # of connection points: 2
#     Edge 38, Type (0, 1), BuildingBlock: XUDNAN_clean_linker_2, # of connection points: 2
#     Edge 39, Type (0, 1), BuildingBlock: XUDNAN_clean_linker_2, # of connection points: 2
#     Edge 40, Type (0, 1), BuildingBlock: XUDNAN_clean_linker_2, # of connection points: 2
#     Edge 41, Type (0, 1), BuildingBlock: XUDNAN_clean_linker_2, # of connection points: 2
#     Edge 42, Type (0, 1), BuildingBlock: XUDNAN_clean_linker_2, # of connection points: 2
#     Edge 43, Type (0, 1), BuildingBlock: XUDNAN_clean_linker_2, # of connection points: 2
#     Edge 44, Type (0, 1), BuildingBlock: XUDNAN_clean_linker_2, # of connection points: 2
#     Edge 45, Type (0, 1), BuildingBlock: XUDNAN_clean_linker_2, # of connection points: 2
#     Edge 46, Type (0, 1), BuildingBlock: XUDNAN_clean_linker_2, # of connection points: 2
#     Edge 47, Type (0, 1), BuildingBlock: XUDNAN_clean_linker_2, # of connection points: 2
#     Edge 48, Type (0, 1), BuildingBlock: XUDNAN_clean_linker_2, # of connection points: 2
#     Edge 49, Type (0, 1), BuildingBlock: XUDNAN_clean_linker_2, # of connection points: 2
#     Edge 50, Type (0, 1), BuildingBlock: XUDNAN_clean_linker_2, # of connection points: 2
#     Edge 51, Type (0, 1), BuildingBlock: XUDNAN_clean_linker_2, # of connection points: 2
#     Edge 52, Type (0, 1), BuildingBlock: XUDNAN_clean_linker_2, # of connection points: 2
#     Edge 53, Type (0, 1), BuildingBlock: XUDNAN_clean_linker_2, # of connection points: 2
#     Edge 54, Type (0, 1), BuildingBlock: XUDNAN_clean_linker_2, # of connection points: 2
#     Edge 55, Type (0, 1), BuildingBlock: XUDNAN_clean_linker_2, # of connection points: 2
#     Edge 56, Type (0, 1), BuildingBlock: XUDNAN_clean_linker_2, # of connection points: 2
#     Edge 57, Type (0, 1), BuildingBlock: XUDNAN_clean_linker_2, # of connection points: 2
#     Edge 58, Type (0, 1), BuildingBlock: XUDNAN_clean_linker_2, # of connection points: 2
#     Edge 59, Type (0, 1), BuildingBlock: XUDNAN_clean_linker_2, # of connection points: 2
#     Edge 60, Type (0, 1), BuildingBlock: XUDNAN_clean_linker_2, # of connection points: 2
#     Edge 61, Type (0, 1), BuildingBlock: XUDNAN_clean_linker_2, # of connection points: 2
#     Edge 62, Type (0, 1), BuildingBlock: XUDNAN_clean_linker_2, # of connection points: 2
#     Edge 63, Type (0, 1), BuildingBlock: XUDNAN_clean_linker_2, # of connection points: 2
#     Edge 64, Type (0, 1), BuildingBlock: XUDNAN_clean_linker_2, # of connection points: 2
#     Edge 65, Type (0, 1), BuildingBlock: XUDNAN_clean_linker_2, # of connection points: 2
#     Edge 66, Type (0, 1), BuildingBlock: XUDNAN_clean_linker_2, # of connection points: 2
#     Edge 67, Type (0, 1), BuildingBlock: XUDNAN_clean_linker_2, # of connection points: 2
# Relax obj value: 0.114
# Max RMSD: 0.170
# Mean RMSD: 0.147
data_MOF--net-soc--node1-ESEHIV_clean_sbu_0--node2-BETDEL_clean_sbu_0--edge1-XUDNAN_clean_linker_2
_symmetry_space_group_name_H-M    P1
_symmetry_Int_Tables_number       1
_symmetry_cell_setting            triclinic
loop_
_symmetry_equiv_pos_as_xyz
'x, y, z'
_cell_length_a     46.502129
_cell_length_b     44.770272
_cell_length_c     42.23412
_cell_angle_alpha  88.841795
_cell_angle_beta   89.610071
_cell_angle_gamma 80.437055
loop_
_atom_site_label
_atom_site_type_symbol
_atom_site_fract_x
_atom_site_fract_y
_atom_site_fract_z
_atom_type_partial_charge
Cu0 Cu 0.02327 0.02576 0.3007 0.0
N1 N 0.04417 0.05185 0.32172 0.0
N2 N 0.07376 0.08635 0.32592 0.0
C3 C 0.06359 0.06655 0.30692 0.0
C4 C 0.06028 0.08381 0.35403 0.0
C5 C 0.04186 0.06266 0.3513 0.0
O6 O 0.05222 0.99611 0.27873 0.0
C7 C 0.97191 0.06607 0.28906 0.0
O8 O 0.96763 0.05856 0.31871 0.0
H9 H 0.06961 0.06311 0.28231 0.0
H10 H 0.02705 0.05658 0.36923 0.0
N11 N 1.00274 1.00297 0.32782 0.0
N12 N 0.9705 0.97351 0.34342 0.0
C13 C 0.98048 0.98909 0.31911 0.0
C14 C 1.0073 0.99567 0.35862 0.0
C15 C 0.98744 0.97763 0.36833 0.0
C16 C 0.07232 0.98279 0.29706 0.0
O17 O 0.07146 0.99043 0.32697 0.0
H18 H 0.97168 0.99072 0.29537 0.0
H19 H 0.02421 1.00249 0.3729 0.0
O20 O 0.99493 0.05322 0.27487 0.0
H21 H 0.06248 0.09725 0.37461 0.0
H22 H 0.98611 0.96777 0.39178 0.0
Cu23 Cu 0.0266 0.02042 0.74372 0.0
N24 N 1.00839 0.9993 0.71417 0.0
N25 N 0.97971 0.96783 0.69625 0.0
C26 C 0.99069 0.97938 0.72199 0.0
C27 C 0.99121 0.98119 0.67123 0.0
C28 C 1.0089 1.0005 0.68236 0.0
O29 O 0.99571 0.04904 0.7637 0.0
C30 C 0.06631 0.96946 0.7564 0.0
O31 O 0.06426 0.96869 0.72545 0.0
H32 H 0.98623 0.97352 0.74627 0.0
H33 H 1.02103 0.01455 0.66824 0.0
N34 N 0.05353 0.0427 0.72619 0.0
N35 N 0.09163 0.06737 0.7276 0.0
C36 C 0.07699 0.04751 0.74249 0.0
C37 C 0.05326 0.05984 0.69963 0.0
C38 C 0.07681 0.07504 0.70039 0.0
C39 C 0.9801 0.06676 0.74411 0.0
O40 O 0.98627 0.06407 0.71381 0.0
H41 H 0.0825 0.0371 0.76543 0.0
H42 H 0.03654 0.06226 0.68167 0.0
O43 O 0.05024 0.99053 0.77131 0.0
H44 H 0.98691 0.97779 0.64655 0.0
H45 H 0.08166 0.09154 0.68296 0.0
Cu46 Cu 0.35212 0.02302 0.03764 0.0
N47 N 0.37702 0.99565 0.01348 0.0
N48 N 0.38966 0.95861 0.97898 0.0
C49 C 0.36842 0.9807 0.98894 0.0
C50 C 0.41275 0.96011 0.99778 0.0
C51 C 0.40488 0.98308 0.01906 0.0
O52 O 0.33284 0.99898 0.06767 0.0
C53 C 0.32071 0.07724 0.0093 0.0
O54 O 0.32683 0.0902 0.03548 0.0
H55 H 0.34629 0.9845 0.98013 0.0
H56 H 0.41794 0.98906 0.03829 0.0
N57 N 0.37333 0.04678 0.0607 0.0
N58 N 0.38284 0.07668 0.09951 0.0
C59 C 0.36709 0.05562 0.0905 0.0
C60 C 0.39396 0.0625 0.05042 0.0
C61 C 0.39981 0.08116 0.07437 0.0
C62 C 0.31701 0.9804 0.05819 0.0
O63 O 0.31024 0.98071 0.02803 0.0
H64 H 0.34973 0.04844 0.1044 0.0
H65 H 0.40286 0.06169 0.02667 0.0
O66 O 0.32703 0.04853 1.00733 0.0
H67 H 0.4334 0.94487 0.99719 0.0
H68 H 0.41449 0.09754 0.073 0.0
Cu69 Cu 0.0366 0.31107 0.04506 0.0
N70 N 0.05652 0.33201 0.01567 0.0
N71 N 0.09154 0.33989 0.98168 0.0
C72 C 0.08411 0.32266 1.00588 0.0
C73 C 0.06779 0.36085 0.97568 0.0
C74 C 0.04619 0.35606 0.99692 0.0
O75 O 0.0655 0.28938 0.07491 0.0
C76 C 0.99111 0.30306 1.00609 0.0
O77 O 0.98596 0.33243 0.01039 0.0
H78 H 0.09808 0.30279 0.01542 0.0
H79 H 0.02426 0.36865 0.99792 0.0
N80 N 1.01036 0.3369 0.06981 0.0
N81 N 0.97175 0.35137 0.10117 0.0
C82 C 0.98682 0.32874 0.08407 0.0
C83 C 1.01051 0.36568 0.0781 0.0
C84 C 0.98669 0.3747 0.09744 0.0
C85 C 0.0837 0.30496 0.08599 0.0
O86 O 0.08227 0.33328 0.07653 0.0
H87 H 0.98085 0.30659 0.08145 0.0
H88 H 0.02686 0.37902 0.07082 0.0
O89 O 1.01319 0.28735 0.01989 0.0
H90 H 0.06612 0.37805 0.95709 0.0
H91 H 0.98121 0.39663 0.10823 0.0
Cu92 Cu 0.72673 0.02234 0.02725 0.0
N93 N 0.70109 0.05229 1.00532 0.0
N94 N 0.68653 0.09062 0.97124 0.0
C95 C 0.70767 0.06728 0.97902 0.0
C96 C 0.66531 0.08995 0.99303 0.0
C97 C 0.67442 0.06629 0.01415 0.0
O98 O 0.75722 0.04109 0.04619 0.0
C99 C 0.75016 0.98556 0.97311 0.0
O100 O 0.75996 1.0091 0.96079 0.0
H101 H 0.72798 0.06185 0.96624 0.0
H102 H 0.66304 0.06064 0.03528 0.0
N103 N 0.70855 1.00755 0.06223 0.0
N104 N 0.70307 0.97297 0.0997 0.0
C105 C 0.70996 0.97791 0.06917 0.0
C106 C 0.70034 0.022 0.0893 0.0
C107 C 0.69692 1.00066 0.11253 0.0
C108 C 0.7704 0.06083 0.03313 0.0
O109 O 0.76941 0.06454 1.00225 0.0
H110 H 0.71872 0.96019 0.053 0.0
H111 H 0.69936 0.04605 0.09259 0.0
O112 O 0.73815 0.98736 1.00034 0.0
H113 H 0.6455 0.10641 0.99468 0.0
H114 H 0.69189 1.00505 0.13723 0.0
Cu115 Cu 1.02134 0.71999 1.00444 0.0
N116 N 1.00185 0.69843 0.9769 0.0
N117 N 0.97044 0.69322 0.93846 0.0
C118 C 0.98959 0.70997 0.94956 0.0
C119 C 0.97074 0.67012 0.95956 0.0
C120 C 0.99022 0.67337 0.98328 0.0
O121 O 0.98962 0.7441 0.02828 0.0
C122 C 0.06494 0.7572 0.988 0.0
O123 O 0.06235 0.76632 0.01742 0.0
H124 H 0.99252 0.73178 0.9397 0.0
H125 H 0.99384 0.65988 1.00485 0.0
N126 N 0.04378 0.69414 0.03341 0.0
N127 N 0.08037 0.68134 0.06762 0.0
C128 C 0.07202 0.69468 0.03952 0.0
C129 C 0.03406 0.67912 0.05814 0.0
C130 C 0.05659 0.67135 0.07944 0.0
C131 C 0.99016 0.74954 0.05782 0.0
O132 O 1.01539 0.74693 0.07231 0.0
H133 H 0.08538 0.70738 0.02533 0.0
H134 H 1.0115 0.67679 0.06195 0.0
O135 O 0.04779 0.74006 0.97804 0.0
H136 H 0.95667 0.65316 0.95884 0.0
H137 H 0.05504 0.66118 0.10273 0.0
Cu138 Cu 0.52924 0.52179 0.81695 0.0
N139 N 0.54856 0.54987 0.83675 0.0
N140 N 0.57276 0.58888 0.84011 0.0
C141 C 0.55708 0.57359 0.82141 0.0
C142 C 0.57416 0.57423 0.86844 0.0
C143 C 0.55903 0.55024 0.86636 0.0
O144 O 0.55885 0.49201 0.79649 0.0
C145 C 0.48215 0.56497 0.80464 0.0
O146 O 0.4869 0.56884 0.83477 0.0
H147 H 0.55272 0.57885 0.7966 0.0
H148 H 0.55651 0.53384 0.88488 0.0
N149 N 0.50783 0.50023 0.84409 0.0
N150 N 0.47365 0.47181 0.85479 0.0
C151 C 0.48335 0.49116 0.83412 0.0
C152 C 0.51383 0.48626 0.87242 0.0
C153 C 0.49278 0.46844 0.87898 0.0
C154 C 0.57749 0.47737 0.81559 0.0
O155 O 0.5755 0.48416 0.84569 0.0
H156 H 0.47389 0.49707 0.81102 0.0
H157 H 0.53278 0.48766 0.88662 0.0
O158 O 0.49943 0.54493 0.78964 0.0
H159 H 0.58544 0.58031 0.88908 0.0
H160 H 0.49205 0.45357 0.89939 0.0
Cu161 Cu 0.53362 0.52255 0.25159 0.0
N162 N 0.51414 0.50014 0.2243 0.0
N163 N 0.48272 0.47085 0.20791 0.0
C164 C 0.49194 0.48558 0.23253 0.0
C165 C 0.49998 0.47632 0.18331 0.0
C166 C 0.51938 0.49425 0.19351 0.0
O167 O 0.50388 0.55236 0.27249 0.0
C168 C 0.58047 0.47752 0.26255 0.0
O169 O 0.58449 0.48484 0.23278 0.0
H170 H 0.48257 0.4861 0.25608 0.0
H171 H 0.53628 0.50217 0.17955 0.0
N172 N 0.55839 0.54531 0.23007 0.0
N173 N 0.59596 0.56996 0.22185 0.0
C174 C 0.58351 0.55181 0.24171 0.0
C175 C 0.55473 0.56002 0.20188 0.0
C176 C 0.57785 0.57534 0.1968 0.0
C177 C 0.48579 0.56743 0.25304 0.0
O178 O 0.48848 0.56088 0.22289 0.0
H179 H 0.59217 0.54387 0.26466 0.0
H180 H 0.53641 0.55995 0.18628 0.0
O181 O 0.55854 0.49182 0.27746 0.0
H182 H 0.49903 0.46757 0.15971 0.0
H183 H 0.58115 0.58925 0.17626 0.0
Cu184 Cu 0.83301 0.52681 0.53322 0.0
N185 N 0.85671 0.53815 0.50052 0.0
N186 N 0.87093 0.5636 0.45868 0.0
C187 C 0.84985 0.56214 0.48057 0.0
C188 C 0.89177 0.53947 0.4651 0.0
C189 C 0.88288 0.52376 0.49076 0.0
O190 O 0.81574 0.56342 0.55537 0.0
C191 C 0.81809 0.47896 0.50214 0.0
O192 O 0.84601 0.46996 0.50756 0.0
H193 H 0.82983 0.57827 0.48229 0.0
H194 H 0.89447 0.50299 0.50118 0.0
N195 N 0.85473 0.50076 0.56289 0.0
N196 N 0.8659 0.46396 0.59969 0.0
C197 C 0.84472 0.4797 0.58123 0.0
C198 C 0.88312 0.49854 0.57009 0.0
C199 C 0.89009 0.47588 0.59266 0.0
C200 C 0.83436 0.5798 0.56332 0.0
O201 O 0.86192 0.57066 0.55619 0.0
H202 H 0.82227 0.47618 0.58098 0.0
H203 H 0.89781 0.5123 0.55954 0.0
O204 O 0.80601 0.50455 0.51259 0.0
H205 H 0.91176 0.53319 0.45178 0.0
H206 H 0.91152 0.46853 0.60263 0.0
Cu207 Cu 0.53404 0.78397 0.54082 0.0
N208 N 0.56393 0.76406 0.51427 0.0
N209 N 0.60119 0.75987 0.47949 0.0
C210 C 0.58296 0.77858 0.49831 0.0
C211 C 0.59325 0.7324 0.48391 0.0
C212 C 0.57035 0.73503 0.50524 0.0
O213 O 0.55345 0.80551 0.57166 0.0
C214 C 0.4983 0.79405 0.48965 0.0
O215 O 0.50884 0.76506 0.48764 0.0
H216 H 0.58276 0.8027 0.49988 0.0
H217 H 0.55882 0.71711 0.51278 0.0
N218 N 0.51192 0.75943 0.56414 0.0
N219 N 0.47461 0.74779 0.5932 0.0
C220 C 0.48725 0.77023 0.58026 0.0
C221 C 0.51507 0.72907 0.56742 0.0
C222 C 0.49191 0.72186 0.58499 0.0
C223 C 0.5752 0.78901 0.58494 0.0
O224 O 0.58184 0.7604 0.57729 0.0
H225 H 0.47809 0.79405 0.58133 0.0
H226 H 0.5326 0.71317 0.55745 0.0
O227 O 0.50639 0.80878 0.5126 0.0
H228 H 0.60315 0.71176 0.47252 0.0
H229 H 0.48782 0.69929 0.59087 0.0
Cu230 Cu 0.25368 0.51543 0.53253 0.0
N231 N 0.27477 0.54177 0.51084 0.0
N232 N 0.28256 0.5771 0.47477 0.0
C233 C 0.26479 0.55774 0.4847 0.0
C234 C 0.30491 0.57278 0.49562 0.0
C235 C 0.30001 0.551 0.51784 0.0
O236 O 0.2264 0.53836 0.56158 0.0
C237 C 0.25205 0.48137 0.47963 0.0
O238 O 0.27952 0.48499 0.47973 0.0
H239 H 0.24401 0.55597 0.47423 0.0
H240 H 0.31351 0.54301 0.53804 0.0
N241 N 0.27605 0.48644 0.5586 0.0
N242 N 0.28202 0.44984 0.59613 0.0
C243 C 0.26373 0.4732 0.5828 0.0
C244 C 0.3035 0.47126 0.55653 0.0
C245 C 0.3073 0.44868 0.57986 0.0
C246 C 0.21807 0.56687 0.56012 0.0
O247 O 0.22337 0.58201 0.5344 0.0
H248 H 0.24119 0.48012 0.58966 0.0
H249 H 0.3191 0.47531 0.5385 0.0
O250 O 0.23523 0.49343 0.50143 0.0
H251 H 0.32333 0.58469 0.49525 0.0
H252 H 0.32657 0.43172 0.58332 0.0
Cu253 Cu 0.52229 0.22887 0.50927 0.0
N254 N 0.54813 0.20758 0.48027 0.0
N255 N 0.58716 0.19637 0.44884 0.0
C256 C 0.57527 0.2127 0.47359 0.0
C257 C 0.56662 0.18049 0.43936 0.0
C258 C 0.54255 0.18745 0.45885 0.0
O259 O 0.54496 0.25145 0.5364 0.0
C260 C 0.46751 0.24214 0.47839 0.0
O261 O 0.46377 0.21656 0.49224 0.0
H262 H 0.58556 0.2292 0.48566 0.0
H263 H 0.52204 0.17923 0.4569 0.0
N264 N 0.5065 0.20242 0.5366 0.0
N265 N 0.47906 0.18657 0.57513 0.0
C266 C 0.48677 0.21074 0.55961 0.0
C267 C 0.51179 0.17198 0.5377 0.0
C268 C 0.49486 0.16211 0.5614 0.0
C269 C 0.56572 0.23502 0.55156 0.0
O270 O 0.57 0.2056 0.54741 0.0
H271 H 0.47769 0.23412 0.56416 0.0
H272 H 0.52682 0.15797 0.52229 0.0
O273 O 0.49091 0.25274 0.48365 0.0
H274 H 0.56871 0.16531 0.41955 0.0
H275 H 0.49441 0.13873 0.56804 0.0
Dy276 Dy 0.25684 0.26259 0.2965 0.0
C277 C 0.33417 0.34097 0.24413 0.0
C278 C 0.21506 0.22597 0.2988 0.0
Dy279 Dy 0.2965 0.30248 0.2625 0.0
O280 O 0.22783 0.23458 0.32362 0.0
O281 O 0.22527 0.23727 0.27345 0.0
O282 O 0.28117 0.26145 0.34221 0.0
O283 O 0.30304 0.26676 0.29909 0.0
C284 C 0.30491 0.26783 0.32897 0.0
C285 C 0.24715 0.29641 0.23182 0.0
O286 O 0.31955 0.25726 0.24686 0.0
O287 O 0.28442 0.22936 0.26482 0.0
O288 O 0.31473 0.33205 0.22634 0.0
O289 O 0.33309 0.32886 0.27224 0.0
O290 O 0.27127 0.29969 0.2176 0.0
O291 O 0.25001 0.29906 0.26127 0.0
O292 O 0.23694 0.30769 0.31569 0.0
O293 O 0.27468 0.3331 0.30004 0.0
C294 C 0.30853 0.23179 0.24863 0.0
C295 C 0.25073 0.33137 0.31684 0.0
Dy296 Dy 0.78321 0.29433 0.29647 0.0
C297 C 0.77177 0.21237 0.19574 0.0
C298 C 0.7792 0.3377 0.34165 0.0
Dy299 Dy 0.76897 0.25072 0.24567 0.0
O300 O 0.79888 0.31343 0.3409 0.0
O301 O 0.76183 0.33835 0.31763 0.0
O302 O 0.83092 0.27521 0.29167 0.0
O303 O 0.79957 0.24698 0.28488 0.0
C304 C 0.82641 0.24854 0.28336 0.0
C305 C 0.72586 0.29636 0.25894 0.0
O306 O 0.75083 0.22839 0.28748 0.0
O307 O 0.75448 0.26684 0.32304 0.0
O308 O 0.77795 0.20386 0.22489 0.0
O309 O 0.76348 0.24151 0.19418 0.0
O310 O 0.72125 0.27005 0.24972 0.0
O311 O 0.7527 0.29775 0.25731 0.0
O312 O 0.79822 0.3176 0.25412 0.0
O313 O 0.8033 0.27489 0.22311 0.0
C314 C 0.74571 0.24116 0.3155 0.0
C315 C 0.80842 0.30264 0.22867 0.0
Dy316 Dy 0.78119 0.73691 0.258 0.0
C317 C 0.83196 0.83635 0.30255 0.0
C318 C 0.751 0.69048 0.24829 0.0
Dy319 Dy 0.81066 0.78641 0.28247 0.0
O320 O 0.77788 0.68698 0.25812 0.0
O321 O 0.74109 0.71903 0.24358 0.0
O322 O 0.77525 0.75964 0.21111 0.0
O323 O 0.77272 0.78701 0.25132 0.0
C324 C 0.77205 0.7871 0.22125 0.0
C325 C 0.83421 0.72999 0.30265 0.0
O326 O 0.77062 0.79389 0.31371 0.0
O327 O 0.75202 0.75123 0.2992 0.0
O328 O 0.82408 0.81545 0.32081 0.0
O329 O 0.82746 0.83044 0.27316 0.0
O330 O 0.84928 0.75123 0.29632 0.0
O331 O 0.8076 0.74045 0.29946 0.0
O332 O 0.82409 0.7275 0.23187 0.0
O333 O 0.83453 0.77598 0.23668 0.0
C334 C 0.75138 0.77518 0.3172 0.0
C335 C 0.83916 0.74912 0.22328 0.0
Dy336 Dy 0.26431 0.76559 0.24322 0.0
C337 C 0.34561 0.81124 0.33207 0.0
C338 C 0.22611 0.75018 0.20051 0.0
Dy339 Dy 0.30419 0.79768 0.29195 0.0
O340 O 0.22049 0.7535 0.2307 0.0
O341 O 0.25197 0.75601 0.19405 0.0
O342 O 0.29923 0.72533 0.23267 0.0
O343 O 0.30813 0.7586 0.26196 0.0
C344 C 0.31904 0.73353 0.25049 0.0
C345 C 0.2489 0.82867 0.2863 0.0
O346 O 0.31234 0.82103 0.24536 0.0
O347 O 0.27399 0.80643 0.21679 0.0
O348 O 0.31786 0.81458 0.33809 0.0
O349 O 0.35106 0.80018 0.30389 0.0
O350 O 0.2687 0.83691 0.30419 0.0
O351 O 0.26022 0.80437 0.27348 0.0
O352 O 0.25371 0.74537 0.28959 0.0
O353 O 0.29262 0.75723 0.31938 0.0
C354 C 0.29539 0.82249 0.21974 0.0
C355 C 0.2707 0.74187 0.31509 0.0
Dy356 Dy 0.28555 0.78171 0.8055 0.0
C357 C 0.23477 0.69847 0.73469 0.0
C358 C 0.30984 0.81812 0.84487 0.0
Dy359 Dy 0.25316 0.74114 0.77127 0.0
O360 O 0.30963 0.78947 0.84929 0.0
O361 O 0.29588 0.8276 0.81895 0.0
O362 O 0.32754 0.75184 0.7971 0.0
O363 O 0.29015 0.73153 0.8037 0.0
C364 C 0.31715 0.72683 0.79673 0.0
C365 C 0.2219 0.79654 0.77753 0.0
O366 O 0.23316 0.7355 0.81914 0.0
O367 O 0.24928 0.77708 0.8399 0.0
O368 O 0.24474 0.69361 0.76335 0.0
O369 O 0.235 0.7264 0.72618 0.0
O370 O 0.2109 0.77188 0.77588 0.0
O371 O 0.24916 0.79124 0.77215 0.0
O372 O 0.30366 0.78964 0.75703 0.0
O373 O 0.28825 0.74764 0.73624 0.0
C374 C 0.23264 0.75577 0.84166 0.0
C375 C 0.30398 0.7697 0.73414 0.0
Dy376 Dy 0.27276 0.2333 0.781 0.0
C377 C 0.34699 0.32519 0.80659 0.0
C378 C 0.24293 0.18611 0.77725 0.0
Dy379 Dy 0.31658 0.27852 0.80229 0.0
O380 O 0.25219 0.20029 0.75306 0.0
O381 O 0.25033 0.19746 0.80353 0.0
O382 O 0.24775 0.26572 0.74467 0.0
O383 O 0.28177 0.27751 0.76981 0.0
C384 C 0.26358 0.28671 0.74864 0.0
C385 C 0.31466 0.2294 0.83923 0.0
O386 O 0.27597 0.29678 0.82903 0.0
O387 O 0.24915 0.25734 0.8221 0.0
O388 O 0.35712 0.29717 0.81459 0.0
O389 O 0.32054 0.32747 0.79586 0.0
O390 O 0.322 0.25427 0.84958 0.0
O391 O 0.31206 0.23104 0.80949 0.0
O392 O 0.31345 0.21578 0.75371 0.0
O393 O 0.33948 0.25593 0.7599 0.0
C394 C 0.25349 0.28281 0.8355 0.0
C395 C 0.33539 0.23038 0.7463 0.0
Dy396 Dy 0.75777 0.26604 0.75055 0.0
C397 C 0.84372 0.2731 0.84902 0.0
C398 C 0.71205 0.26781 0.70916 0.0
Dy399 Dy 0.79762 0.27599 0.80798 0.0
O400 O 0.71346 0.28688 0.73163 0.0
O401 O 0.73559 0.24753 0.70945 0.0
O402 O 0.79522 0.23346 0.73014 0.0
O403 O 0.79095 0.23803 0.77934 0.0
C404 C 0.80715 0.22586 0.75757 0.0
C405 C 0.74817 0.31608 0.80113 0.0
O406 O 0.81963 0.29624 0.76687 0.0
O407 O 0.7835 0.29914 0.7283 0.0
O408 O 0.81972 0.2927 0.85019 0.0
O409 O 0.84259 0.25537 0.82526 0.0
O410 O 0.76031 0.3087 0.82852 0.0
O411 O 0.76436 0.30389 0.77936 0.0
O412 O 0.7351 0.24692 0.79212 0.0
O413 O 0.77196 0.243 0.82995 0.0
C414 C 0.80878 0.30541 0.73853 0.0
C415 C 0.74624 0.23756 0.82029 0.0
Dy416 Dy 0.74693 0.7663 0.77779 0.0
C417 C 0.83387 0.83541 0.73158 0.0
C418 C 0.70163 0.73536 0.78896 0.0
Dy419 Dy 0.79009 0.80439 0.7491 0.0
O420 O 0.72782 0.72776 0.80009 0.0
O421 O 0.70011 0.75997 0.77179 0.0
O422 O 0.77551 0.75441 0.82004 0.0
O423 O 0.7947 0.76178 0.77585 0.0
C424 C 0.79948 0.75721 0.80512 0.0
C425 C 0.73698 0.81353 0.72265 0.0
O426 O 0.80423 0.76032 0.72553 0.0
O427 O 0.76073 0.74227 0.73204 0.0
O428 O 0.81659 0.82476 0.71245 0.0
O429 O 0.82731 0.8292 0.76069 0.0
O430 O 0.7606 0.81618 0.70727 0.0
O431 O 0.7425 0.80911 0.75165 0.0
O432 O 0.73781 0.80654 0.80953 0.0
O433 O 0.777 0.82975 0.79361 0.0
C434 C 0.78605 0.74201 0.71724 0.0
C435 C 0.75484 0.8274 0.81296 0.0
H436 H 0.11038 0.11174 0.36396 0.0
H437 H 0.08003 0.10993 0.26712 0.0
H438 H 0.11245 0.14552 0.25074 0.0
H439 H 0.11631 0.19181 0.36337 0.0
H440 H 0.14895 0.18653 0.38701 0.0
H441 H 0.12318 0.16081 0.39169 0.0
H442 H 0.16415 0.1155 0.38058 0.0
H443 H 0.19003 0.14109 0.37586 0.0
H444 H 0.18528 0.1155 0.34463 0.0
H445 H 0.14787 0.18068 0.24412 0.0
H446 H 0.18511 0.21357 0.2475 0.0
H447 H 0.19343 0.19434 0.3485 0.0
C448 C 0.11043 0.119 0.33937 0.0
C449 C 0.09272 0.10767 0.31681 0.0
C450 C 0.09368 0.11764 0.2848 0.0
C451 C 0.11191 0.13812 0.27525 0.0
C452 C 0.12916 0.14863 0.29793 0.0
C453 C 0.12867 0.13952 0.32933 0.0
C454 C 0.14985 0.15423 0.34865 0.0
C455 C 0.1336 0.17455 0.37419 0.0
C456 C 0.17374 0.13014 0.36329 0.0
C457 C 0.16226 0.17293 0.32311 0.0
C458 C 0.14986 0.16927 0.29408 0.0
C459 C 0.15774 0.18376 0.2667 0.0
C460 C 0.17897 0.20239 0.26889 0.0
C461 C 0.19221 0.20651 0.29823 0.0
C462 C 0.18362 0.19167 0.32578 0.0
H463 H 0.91345 0.08076 0.29844 0.0
H464 H 0.98613 0.11172 0.25069 0.0
H465 H 0.95494 0.16123 0.23915 0.0
H466 H 0.8549 0.12264 0.24458 0.0
H467 H 0.82968 0.12987 0.2772 0.0
H468 H 0.8565 0.09579 0.27718 0.0
H469 H 0.8749 0.10966 0.33187 0.0
H470 H 0.84856 0.14393 0.33186 0.0
H471 H 0.88675 0.14568 0.33641 0.0
H472 H 0.91837 0.21023 0.24225 0.0
H473 H 0.8779 0.25218 0.25351 0.0
H474 H 0.82784 0.18805 0.29545 0.0
C475 C 0.92247 0.0976 0.28453 0.0
C476 C 0.95211 0.09237 0.27517 0.0
C477 C 0.96334 0.11507 0.25752 0.0
C478 C 0.94581 0.14332 0.25108 0.0
C479 C 0.91692 0.14818 0.26179 0.0
C480 C 0.90511 0.12558 0.27737 0.0
C481 C 0.87403 0.13689 0.28797 0.0
C482 C 0.85251 0.12031 0.2707 0.0
C483 C 0.8709 0.13386 0.32416 0.0
C484 C 0.87056 0.1698 0.27732 0.0
C485 C 0.89552 0.17593 0.26224 0.0
C486 C 0.89851 0.20546 0.25328 0.0
C487 C 0.87553 0.22916 0.25994 0.0
C488 C 0.84974 0.22321 0.275 0.0
C489 C 0.8471 0.19308 0.28328 0.0
H490 H 0.9488 0.94829 0.29204 0.0
H491 H 0.93854 0.95851 0.39372 0.0
H492 H 0.89981 0.92712 0.39353 0.0
H493 H 0.87124 0.95097 0.27469 0.0
H494 H 0.87832 0.92309 0.24419 0.0
H495 H 0.90455 0.94746 0.25195 0.0
H496 H 0.94461 0.90048 0.26078 0.0
H497 H 0.91855 0.87599 0.25299 0.0
H498 H 0.93869 0.87182 0.28958 0.0
H499 H 0.86423 0.89215 0.38306 0.0
H500 H 0.83426 0.85603 0.36281 0.0
H501 H 0.86571 0.86993 0.26764 0.0
C502 C 0.93816 0.9444 0.31423 0.0
C503 C 0.947 0.95596 0.34295 0.0
C504 C 0.93264 0.94968 0.37146 0.0
C505 C 0.91037 0.93203 0.37157 0.0
C506 C 0.90241 0.92087 0.34295 0.0
C507 C 0.91576 0.92687 0.31476 0.0
C508 C 0.9037 0.91126 0.28744 0.0
C509 C 0.88855 0.93459 0.26313 0.0
C510 C 0.92782 0.88854 0.27179 0.0
C511 C 0.8818 0.89518 0.30478 0.0
C512 C 0.88137 0.90114 0.33678 0.0
C513 C 0.86411 0.88762 0.35799 0.0
C514 C 0.84715 0.86715 0.34629 0.0
C515 C 0.84742 0.8605 0.31366 0.0
C516 C 0.86466 0.87507 0.29261 0.0
H517 H 0.12438 0.96592 0.32586 0.0
H518 H 0.07486 0.94518 0.24498 0.0
H519 H 0.11435 0.90217 0.23246 0.0
H520 H 0.19562 0.94892 0.28972 0.0
H521 H 0.21252 0.93387 0.32624 0.0
H522 H 0.18073 0.96292 0.32713 0.0
H523 H 0.15456 0.92839 0.36345 0.0
H524 H 0.18611 0.89909 0.36234 0.0
H525 H 0.15106 0.89102 0.35055 0.0
H526 H 0.16035 0.85861 0.23156 0.0
H527 H 0.20754 0.82378 0.24003 0.0
H528 H 0.2245 0.87581 0.32118 0.0
C529 C 0.12175 0.95253 0.30533 0.0
C530 C 0.09643 0.95888 0.28647 0.0
C531 C 0.09414 0.94085 0.25969 0.0
C532 C 0.11642 0.91628 0.25255 0.0
C533 C 0.14089 0.91029 0.27226 0.0
C534 C 0.14362 0.92836 0.29787 0.0
C535 C 0.17163 0.91787 0.31569 0.0
C536 C 0.19128 0.94234 0.31461 0.0
C537 C 0.16545 0.90854 0.35003 0.0
C538 C 0.1844 0.89077 0.29648 0.0
C539 C 0.16658 0.88639 0.2715 0.0
C540 C 0.17438 0.8621 0.25101 0.0
C541 C 0.2011 0.84231 0.25604 0.0
C542 C 0.21964 0.84711 0.28125 0.0
C543 C 0.21086 0.87154 0.30163 0.0
H544 H 0.07252 0.90865 0.75462 0.0
H545 H 0.11334 0.98158 0.78936 0.0
H546 H 0.15858 0.94501 0.80085 0.0
H547 H 0.10801 0.84905 0.81214 0.0
H548 H 0.11044 0.82034 0.78248 0.0
H549 H 0.08081 0.85188 0.78152 0.0
H550 H 0.09473 0.86408 0.7237 0.0
H551 H 0.12484 0.83318 0.72473 0.0
H552 H 0.13111 0.87097 0.71505 0.0
H553 H 0.20209 0.90038 0.80025 0.0
H554 H 0.23626 0.85153 0.79519 0.0
H555 H 0.16475 0.80906 0.76311 0.0
C556 C 0.09059 0.91663 0.76593 0.0
C557 C 0.08939 0.94764 0.77184 0.0
C558 C 0.11367 0.95766 0.78561 0.0
C559 C 0.13952 0.93709 0.79183 0.0
C560 C 0.14041 0.90663 0.78455 0.0
C561 C 0.11617 0.89641 0.77272 0.0
C562 C 0.12271 0.86305 0.76549 0.0
C563 C 0.10441 0.84502 0.78668 0.0
C564 C 0.11808 0.85753 0.73016 0.0
C565 C 0.15462 0.85615 0.77413 0.0
C566 C 0.16472 0.8814 0.78497 0.0
C567 C 0.19419 0.88039 0.79235 0.0
C568 C 0.21351 0.85271 0.78915 0.0
C569 C 0.20311 0.82658 0.7789 0.0
C570 C 0.17333 0.82858 0.77132 0.0
H571 H 0.12816 0.09925 0.69501 0.0
H572 H 0.11039 0.06501 0.78899 0.0
H573 H 0.15017 0.08777 0.81052 0.0
H574 H 0.20745 0.09088 0.70324 0.0
H575 H 0.20952 0.12573 0.68188 0.0
H576 H 0.18118 0.10427 0.67282 0.0
H577 H 0.14199 0.15149 0.68288 0.0
H578 H 0.17017 0.17308 0.69188 0.0
H579 H 0.14151 0.1704 0.72022 0.0
H580 H 0.18937 0.11735 0.82324 0.0
H581 H 0.22499 0.15254 0.82576 0.0
H582 H 0.21737 0.16833 0.72425 0.0
C583 C 0.13262 0.09632 0.72007 0.0
C584 C 0.11594 0.0799 0.74 0.0
C585 C 0.12285 0.07679 0.77276 0.0
C586 C 0.1455 0.08981 0.78542 0.0
C587 C 0.16121 0.10598 0.76518 0.0
C588 C 0.15514 0.10931 0.73322 0.0
C589 C 0.17436 0.12927 0.71702 0.0
C590 C 0.19431 0.11147 0.69228 0.0
C591 C 0.1559 0.15774 0.70214 0.0
C592 C 0.19171 0.1371 0.74505 0.0
C593 C 0.18393 0.1232 0.77257 0.0
C594 C 0.19589 0.12811 0.80181 0.0
C595 C 0.21606 0.14812 0.80303 0.0
C596 C 0.22398 0.16291 0.7752 0.0
C597 C 0.21196 0.15697 0.74582 0.0
H598 H 0.94494 0.10653 0.7058 0.0
H599 H 0.95853 0.07956 0.80457 0.0
H600 H 0.91612 0.11825 0.81934 0.0
H601 H 0.92394 0.18642 0.71792 0.0
H602 H 0.89734 0.19103 0.68661 0.0
H603 H 0.92888 0.16174 0.68442 0.0
H604 H 0.89533 0.12143 0.67819 0.0
H605 H 0.86369 0.15057 0.68036 0.0
H606 H 0.86748 0.11855 0.70746 0.0
H607 H 0.87097 0.15989 0.82251 0.0
H608 H 0.82784 0.19972 0.81396 0.0
H609 H 0.84509 0.19872 0.71295 0.0
C610 C 0.9392 0.10868 0.73063 0.0
C611 C 0.95516 0.08994 0.75406 0.0
C612 C 0.94669 0.09365 0.78621 0.0
C613 C 0.92264 0.11557 0.79478 0.0
C614 C 0.90738 0.13358 0.77092 0.0
C615 C 0.91545 0.13028 0.7395 0.0
C616 C 0.89549 0.15193 0.71814 0.0
C617 C 0.91243 0.17409 0.70076 0.0
C618 C 0.87956 0.13458 0.69466 0.0
C619 C 0.87466 0.168 0.74233 0.0
C620 C 0.88184 0.15723 0.7727 0.0
C621 C 0.86535 0.16851 0.79884 0.0
C622 C 0.84095 0.19123 0.79377 0.0
C623 C 0.83331 0.20249 0.76282 0.0
C624 C 0.85047 0.19066 0.73688 0.0
H625 H 0.94761 0.94977 0.7458 0.0
H626 H 0.96595 0.93602 0.64553 0.0
H627 H 0.93129 0.90025 0.64431 0.0
H628 H 0.94219 0.87154 0.76486 0.0
H629 H 0.91326 0.88145 0.79329 0.0
H630 H 0.93961 0.90622 0.78646 0.0
H631 H 0.89786 0.95068 0.77365 0.0
H632 H 0.8714 0.92607 0.78039 0.0
H633 H 0.87193 0.94645 0.7432 0.0
H634 H 0.89335 0.86737 0.65319 0.0
H635 H 0.85576 0.83826 0.67216 0.0
H636 H 0.86385 0.87085 0.76719 0.0
C637 C 0.94479 0.93915 0.72355 0.0
C638 C 0.95975 0.94619 0.6957 0.0
C639 C 0.9547 0.93167 0.66717 0.0
C640 C 0.9351 0.91105 0.66624 0.0
C641 C 0.92079 0.90483 0.69405 0.0
C642 C 0.9255 0.91827 0.72224 0.0
C643 C 0.90724 0.90763 0.74877 0.0
C644 C 0.92675 0.8907 0.77488 0.0
C645 C 0.88584 0.9343 0.76229 0.0
C646 C 0.89132 0.88628 0.73099 0.0
C647 C 0.89943 0.88512 0.69942 0.0
C648 C 0.88701 0.86789 0.6779 0.0
C649 C 0.86566 0.85149 0.68889 0.0
C650 C 0.8571 0.8522 0.72113 0.0
C651 C 0.87026 0.86966 0.74249 0.0
H652 H 0.3851 0.13655 0.10567 0.0
H653 H 0.36882 0.05626 0.15715 0.0
H654 H 0.35319 0.08723 0.20382 0.0
H655 H 0.41008 0.17629 0.17558 0.0
H656 H 0.39215 0.21275 0.16108 0.0
H657 H 0.40644 0.18367 0.13355 0.0
H658 H 0.35554 0.18863 0.10752 0.0
H659 H 0.34104 0.21744 0.13507 0.0
H660 H 0.32441 0.18403 0.1317 0.0
H661 H 0.33248 0.12708 0.24118 0.0
H662 H 0.31011 0.17343 0.26847 0.0
H663 H 0.34099 0.22842 0.19397 0.0
C664 C 0.37928 0.12538 0.12717 0.0
C665 C 0.37828 0.094 0.12794 0.0
C666 C 0.36963 0.08029 0.15614 0.0
C667 C 0.36088 0.09766 0.18277 0.0
C668 C 0.36113 0.1287 0.18089 0.0
C669 C 0.37042 0.14246 0.15399 0.0
C670 C 0.36602 0.1766 0.15723 0.0
C671 C 0.39543 0.188 0.15684 0.0
C672 C 0.34553 0.1926 0.13135 0.0
C673 C 0.35185 0.1799 0.18966 0.0
C674 C 0.34947 0.15193 0.20295 0.0
C675 C 0.33478 0.14909 0.2314 0.0
C676 C 0.32199 0.17553 0.2466 0.0
C677 C 0.32411 0.2044 0.23343 0.0
C678 C 0.33965 0.20658 0.20487 0.0
H679 H 0.94925 0.30114 0.12046 0.0
H680 H 0.93377 0.39949 0.12377 0.0
H681 H 0.88922 0.3978 0.15511 0.0
H682 H 0.87363 0.29291 0.11145 0.0
H683 H 0.87735 0.25887 0.13567 0.0
H684 H 0.90815 0.26775 0.11344 0.0
H685 H 0.93858 0.26427 0.16499 0.0
H686 H 0.90791 0.25533 0.18733 0.0
H687 H 0.92482 0.28704 0.19824 0.0
H688 H 0.84724 0.38528 0.18812 0.0
H689 H 0.81084 0.36276 0.21945 0.0
H690 H 0.85227 0.27299 0.19171 0.0
C691 C 0.93649 0.32247 0.12727 0.0
C692 C 0.94539 0.3505 0.11941 0.0
C693 C 0.92791 0.37766 0.12962 0.0
C694 C 0.90235 0.37697 0.14732 0.0
C695 C 0.89431 0.34897 0.15448 0.0
C696 C 0.91082 0.32222 0.14467 0.0
C697 C 0.89755 0.29506 0.15571 0.0
C698 C 0.88864 0.27763 0.12737 0.0
C699 C 0.91846 0.27421 0.17788 0.0
C700 C 0.87109 0.31072 0.17349 0.0
C701 C 0.86966 0.34182 0.17259 0.0
C702 C 0.84797 0.36099 0.18868 0.0
C703 C 0.82741 0.348 0.20642 0.0
C704 C 0.82852 0.31619 0.20766 0.0
C705 C 0.85048 0.29742 0.19063 0.0
H706 H 0.72246 0.9591 0.1601 0.0
H707 H 0.69325 0.92074 0.07495 0.0
H708 H 0.70577 0.86953 0.09863 0.0
H709 H 0.78324 0.90286 0.17431 0.0
H710 H 0.77978 0.90169 0.21683 0.0
H711 H 0.76594 0.93596 0.19498 0.0
H712 H 0.71481 0.93655 0.21984 0.0
H713 H 0.72857 0.90244 0.24209 0.0
H714 H 0.69735 0.90366 0.21674 0.0
H715 H 0.72578 0.82323 0.12789 0.0
H716 H 0.74901 0.78265 0.16346 0.0
H717 H 0.76451 0.84912 0.23217 0.0
C718 C 0.71796 0.93995 0.14687 0.0
C719 C 0.70683 0.94384 0.11562 0.0
C720 C 0.7019 0.91819 0.09876 0.0
C721 C 0.70886 0.88907 0.11206 0.0
C722 C 0.72059 0.88592 0.14241 0.0
C723 C 0.72483 0.91053 0.1599 0.0
C724 C 0.73909 0.90029 0.1915 0.0
C725 C 0.76877 0.91083 0.19456 0.0
C726 C 0.71873 0.9114 0.21919 0.0
C727 C 0.74273 0.86609 0.18859 0.0
C728 C 0.73182 0.85857 0.15998 0.0
C729 C 0.73396 0.82875 0.1506 0.0
C730 C 0.74738 0.80584 0.17102 0.0
C731 C 0.75837 0.81266 0.20079 0.0
C732 C 0.75595 0.84326 0.20976 0.0
H733 H 0.08575 0.69287 0.13018 0.0
H734 H 0.13375 0.67935 0.04185 0.0
H735 H 0.17685 0.69394 0.06734 0.0
H736 H 0.11207 0.75783 0.15208 0.0
H737 H 0.11469 0.74904 0.19391 0.0
H738 H 0.08852 0.73415 0.17021 0.0
H739 H 0.11018 0.67949 0.18839 0.0
H740 H 0.13614 0.69423 0.21262 0.0
H741 H 0.14867 0.66605 0.18354 0.0
H742 H 0.21241 0.71475 0.10007 0.0
H743 H 0.24071 0.73686 0.13976 0.0
H744 H 0.17053 0.7366 0.20804 0.0
C745 C 0.10566 0.69199 0.11656 0.0
C746 C 0.10658 0.68475 0.08407 0.0
C747 C 0.13272 0.68478 0.06674 0.0
C748 C 0.15724 0.69303 0.08101 0.0
C749 C 0.1553 0.70107 0.11273 0.0
C750 C 0.13038 0.70026 0.13049 0.0
C751 C 0.13371 0.71158 0.16371 0.0
C752 C 0.11089 0.73982 0.17035 0.0
C753 C 0.13209 0.68633 0.18853 0.0
C754 C 0.16418 0.7194 0.16157 0.0
C755 C 0.17614 0.71308 0.1319 0.0
C756 C 0.20349 0.71942 0.12352 0.0
C757 C 0.21931 0.73214 0.1462 0.0
C758 C 0.20783 0.73834 0.17696 0.0
C759 C 0.17985 0.73196 0.18472 0.0
H760 H 0.35294 0.96295 0.9286 0.0
H761 H 0.41677 0.9001 0.98179 0.0
H762 H 0.40513 0.85799 0.95032 0.0
H763 H 0.29995 0.91653 0.92502 0.0
H764 H 0.28801 0.92736 0.88529 0.0
H765 H 0.30362 0.9534 0.90914 0.0
H766 H 0.34243 0.95785 0.86579 0.0
H767 H 0.32673 0.93206 0.84158 0.0
H768 H 0.36491 0.92403 0.85154 0.0
H769 H 0.38239 0.82225 0.91876 0.0
H770 H 0.35315 0.79487 0.88484 0.0
H771 H 0.30454 0.88029 0.8501 0.0
C772 C 0.36479 0.94039 0.93325 0.0
C773 C 0.38585 0.93486 0.95765 0.0
C774 C 0.40093 0.90503 0.96296 0.0
C775 C 0.39432 0.88091 0.94533 0.0
C776 C 0.37282 0.88703 0.92219 0.0
C777 C 0.35858 0.91605 0.91569 0.0
C778 C 0.33545 0.91615 0.89047 0.0
C779 C 0.30496 0.92912 0.90326 0.0
C780 C 0.34283 0.93355 0.86057 0.0
C781 C 0.33835 0.8825 0.88452 0.0
C782 C 0.36008 0.86622 0.90315 0.0
C783 C 0.3657 0.83473 0.90363 0.0
C784 C 0.34883 0.81941 0.88443 0.0
C785 C 0.32675 0.83552 0.86477 0.0
C786 C 0.32155 0.8675 0.86464 0.0
H787 H 0.0987 0.3334 0.9185 0.0
H788 H 0.14519 0.33418 1.00679 0.0
H789 H 0.19234 0.32326 0.978 0.0
H790 H 0.1457 0.27018 0.88757 0.0
H791 H 0.14331 0.28377 0.84705 0.0
H792 H 0.11353 0.29518 0.87397 0.0
H793 H 0.11628 0.3516 0.86172 0.0
H794 H 0.1461 0.34033 0.83471 0.0
H795 H 0.15033 0.36513 0.86683 0.0
H796 H 0.23413 0.31211 0.93951 0.0
H797 H 0.26779 0.29564 0.89514 0.0
H798 H 0.194 0.29669 0.83279 0.0
C799 C 0.11891 0.33184 0.93149 0.0
C800 C 0.11864 0.33517 0.96463 0.0
C801 C 0.14526 0.33201 0.9813 0.0
C802 C 0.17199 0.32591 0.96515 0.0
C803 C 0.17161 0.32252 0.93241 0.0
C804 C 0.14576 0.32497 0.9158 0.0
C805 C 0.15138 0.31761 0.8812 0.0
C806 C 0.13767 0.29004 0.87192 0.0
C807 C 0.14037 0.34532 0.85986 0.0
C808 C 0.18437 0.31031 0.88101 0.0
C809 C 0.19563 0.314 0.91064 0.0
C810 C 0.22557 0.30911 0.91624 0.0
C811 C 0.24449 0.29991 0.89097 0.0
C812 C 0.23332 0.29501 0.86081 0.0
C813 C 0.20294 0.30028 0.85576 0.0
H814 H 0.73501 0.11341 0.95517 0.0
H815 H 0.64291 0.12098 0.93469 0.0
H816 H 0.64737 0.16052 0.89362 0.0
H817 H 0.7386 0.19273 0.9465 0.0
H818 H 0.77457 0.18619 0.92917 0.0
H819 H 0.76369 0.1587 0.9565 0.0
H820 H 0.77625 0.11696 0.91463 0.0
H821 H 0.7872 0.14428 0.88718 0.0
H822 H 0.75976 0.12245 0.87598 0.0
H823 H 0.66333 0.19781 0.85275 0.0
H824 H 0.68833 0.23121 0.81848 0.0
H825 H 0.76927 0.19964 0.86842 0.0
C826 C 0.71582 0.12318 0.94186 0.0
C827 C 0.68867 0.11392 0.94772 0.0
C828 C 0.66388 0.12782 0.93043 0.0
C829 C 0.66627 0.15017 0.90708 0.0
C830 C 0.69352 0.1586 0.90172 0.0
C831 C 0.71776 0.14565 0.91891 0.0
C832 C 0.7445 0.15879 0.90922 0.0
C833 C 0.756 0.17507 0.937 0.0
C834 C 0.76832 0.13415 0.89596 0.0
C835 C 0.7317 0.18099 0.88357 0.0
C836 C 0.70232 0.18054 0.87936 0.0
C837 C 0.68626 0.1985 0.85608 0.0
C838 C 0.70064 0.21734 0.83668 0.0
C839 C 0.73068 0.21826 0.84093 0.0
C840 C 0.7462 0.19986 0.86481 0.0
H841 H 0.9128 0.69008 0.93945 0.0
H842 H 0.98129 0.71768 0.88148 0.0
H843 H 0.94515 0.73629 0.83963 0.0
H844 H 0.86968 0.6662 0.87613 0.0
H845 H 0.83545 0.68116 0.89473 0.0
H846 H 0.86715 0.66823 0.91868 0.0
H847 H 0.86091 0.72061 0.94527 0.0
H848 H 0.82932 0.73376 0.92126 0.0
H849 H 0.8595 0.75436 0.92091 0.0
H850 H 0.90081 0.7522 0.80431 0.0
H851 H 0.85197 0.76588 0.7797 0.0
H852 H 0.81276 0.73043 0.86279 0.0
C853 C 0.92023 0.69946 0.91766 0.0
C854 C 0.94984 0.70205 0.91333 0.0
C855 C 0.95868 0.71538 0.88499 0.0
C856 C 0.93834 0.72594 0.86118 0.0
C857 C 0.90918 0.72335 0.86632 0.0
C858 C 0.90015 0.71058 0.89398 0.0
C859 C 0.86742 0.71199 0.89459 0.0
C860 C 0.85947 0.67999 0.89611 0.0
C861 C 0.85348 0.73133 0.92214 0.0
C862 C 0.85939 0.72744 0.86293 0.0
C863 C 0.88375 0.73362 0.84678 0.0
C864 C 0.88161 0.74752 0.8168 0.0
C865 C 0.85385 0.75522 0.80302 0.0
C866 C 0.8287 0.74932 0.81943 0.0
C867 C 0.83162 0.73537 0.84976 0.0
H868 H 0.14227 0.30259 0.08231 0.0
H869 H 0.07358 0.28385 0.14556 0.0
H870 H 0.10854 0.27716 0.19037 0.0
H871 H 0.20218 0.24762 0.12138 0.0
H872 H 0.22842 0.27237 0.11379 0.0
H873 H 0.19862 0.27217 0.08677 0.0
H874 H 0.1837 0.33007 0.09326 0.0
H875 H 0.213 0.33041 0.12076 0.0
H876 H 0.17603 0.34508 0.13228 0.0
H877 H 0.14944 0.28191 0.22952 0.0
H878 H 0.19426 0.28881 0.25789 0.0
H879 H 0.23748 0.29878 0.16799 0.0
C880 C 0.13493 0.29591 0.1054 0.0
C881 C 0.10543 0.29316 0.1105 0.0
C882 C 0.09628 0.28527 0.1411 0.0
C883 C 0.11595 0.28174 0.16669 0.0
C884 C 0.14479 0.28559 0.16107 0.0
C885 C 0.15443 0.29159 0.13092 0.0
C886 C 0.18621 0.29546 0.13113 0.0
C887 C 0.20496 0.27041 0.11215 0.0
C888 C 0.18993 0.32713 0.11862 0.0
C889 C 0.19276 0.29184 0.16623 0.0
C890 C 0.16858 0.28639 0.18322 0.0
C891 C 0.16874 0.28515 0.2163 0.0
C892 C 0.19434 0.289 0.23226 0.0
C893 C 0.21974 0.29322 0.2152 0.0
C894 C 0.2187 0.29478 0.18174 0.0
H895 H 0.08316 0.73322 0.92971 0.0
H896 H 0.10585 0.79215 1.00263 0.0
H897 H 0.15117 0.79695 0.97377 0.0
H898 H 0.15512 0.69341 0.91634 0.0
H899 H 0.15122 0.69099 0.87408 0.0
H900 H 0.11968 0.69305 0.89944 0.0
H901 H 0.09405 0.74016 0.86797 0.0
H902 H 0.12538 0.73799 0.84225 0.0
H903 H 0.11223 0.77251 0.86279 0.0
H904 H 0.19483 0.79433 0.9381 0.0
H905 H 0.23266 0.78678 0.89662 0.0
H906 H 0.18276 0.72914 0.84621 0.0
C907 C 0.09745 0.74749 0.93942 0.0
C908 C 0.09069 0.76242 0.96855 0.0
C909 C 0.11029 0.78056 0.98043 0.0
C910 C 0.13622 0.78336 0.96421 0.0
C911 C 0.14246 0.76791 0.936 0.0
C912 C 0.12356 0.75052 0.92349 0.0
C913 C 0.13576 0.73607 0.89284 0.0
C914 C 0.14074 0.70132 0.89587 0.0
C915 C 0.11566 0.74736 0.8648 0.0
C916 C 0.16455 0.74787 0.89022 0.0
C917 C 0.16787 0.76622 0.91542 0.0
C918 C 0.19242 0.78004 0.91826 0.0
C919 C 0.21389 0.77552 0.89451 0.0
C920 C 0.21095 0.75721 0.86808 0.0
C921 C 0.18596 0.74294 0.86623 0.0
H922 H 0.31454 0.13904 1.00307 0.0
H923 H 0.30903 0.05828 0.94985 0.0
H924 H 0.30268 0.08923 0.90047 0.0
H925 H 0.26232 0.19265 0.95413 0.0
H926 H 0.28364 0.22251 0.95798 0.0
H927 H 0.28348 0.19468 0.9894 0.0
H928 H 0.33987 0.18209 0.9865 0.0
H929 H 0.34021 0.20958 0.95492 0.0
H930 H 0.35725 0.17084 0.94933 0.0
H931 H 0.30235 0.12853 0.85595 0.0
H932 H 0.30717 0.17263 0.82102 0.0
H933 H 0.31338 0.22703 0.90368 0.0
C934 C 0.3112 0.1279 0.9812 0.0
C935 C 0.31212 0.09618 0.98047 0.0
C936 C 0.3082 0.08254 0.95113 0.0
C937 C 0.3046 0.09996 0.92291 0.0
C938 C 0.3048 0.13103 0.92437 0.0
C939 C 0.30771 0.1449 0.95287 0.0
C940 C 0.30942 0.17817 0.94792 0.0
C941 C 0.28315 0.19818 0.96327 0.0
C942 C 0.33841 0.18558 0.9604 0.0
C943 C 0.30796 0.18071 0.91215 0.0
C944 C 0.30491 0.15342 0.89893 0.0
C945 C 0.30435 0.15007 0.86613 0.0
C946 C 0.3071 0.17521 0.84647 0.0
C947 C 0.31049 0.20322 0.85967 0.0
C948 C 0.3107 0.20592 0.89292 0.0
H949 H 0.93683 0.32902 0.98702 0.0
H950 H 1.00138 0.24814 0.97526 0.0
H951 H 0.97003 0.23052 0.9345 0.0
H952 H 0.87253 0.29338 0.97679 0.0
H953 H 0.85286 0.32603 0.95612 0.0
H954 H 0.8797 0.33073 0.98536 0.0
H955 H 0.90659 0.35945 0.94379 0.0
H956 H 0.88004 0.35461 0.91434 0.0
H957 H 0.91824 0.34153 0.90696 0.0
H958 H 0.93241 0.22428 0.89153 0.0
H959 H 0.89138 0.2282 0.85368 0.0
H960 H 0.85171 0.31294 0.89532 0.0
C961 C 0.94436 0.30739 0.97619 0.0
C962 C 0.97166 0.28996 0.98433 0.0
C963 C 0.98051 0.26178 0.96958 0.0
C964 C 0.96287 0.2517 0.94631 0.0
C965 C 0.93634 0.26992 0.93836 0.0
C966 C 0.92705 0.29701 0.95326 0.0
C967 C 0.89807 0.3129 0.94031 0.0
C968 C 0.87439 0.31592 0.96619 0.0
C969 C 0.90093 0.34395 0.92547 0.0
C970 C 0.8925 0.29082 0.91532 0.0
C971 C 0.91479 0.26615 0.91444 0.0
C972 C 0.91479 0.24337 0.89235 0.0
C973 C 0.89144 0.24584 0.87086 0.0
C974 C 0.86832 0.27082 0.87165 0.0
C975 C 0.86895 0.29347 0.89428 0.0
H976 H 0.7757 0.97138 0.9148 0.0
H977 H 0.72266 0.93759 0.98796 0.0
H978 H 0.71755 0.89415 0.95483 0.0
H979 H 0.73669 0.95113 0.84849 0.0
H980 H 0.7686 0.93967 0.82439 0.0
H981 H 0.7689 0.96793 0.85407 0.0
H982 H 0.81464 0.93588 0.87975 0.0
H983 H 0.81463 0.90768 0.84993 0.0
H984 H 0.81386 0.89703 0.89128 0.0
H985 H 0.7158 0.85563 0.91253 0.0
H986 H 0.72151 0.82239 0.8661 0.0
H987 H 0.77702 0.87997 0.82117 0.0
C988 C 0.76324 0.95471 0.92399 0.0
C989 C 0.74956 0.95807 0.95405 0.0
C990 C 0.73345 0.93563 0.9651 0.0
C991 C 0.7303 0.91085 0.94639 0.0
C992 C 0.7436 0.90851 0.91671 0.0
C993 C 0.7601 0.92958 0.90572 0.0
C994 C 0.77232 0.92154 0.87301 0.0
C995 C 0.76094 0.94656 0.84855 0.0
C996 C 0.80585 0.91515 0.87354 0.0
C997 C 0.75985 0.89289 0.86725 0.0
C998 C 0.7432 0.88587 0.89266 0.0
C999 C 0.72897 0.86078 0.89256 0.0
C1000 C 0.7322 0.84211 0.86599 0.0
C1001 C 0.74973 0.84845 0.83994 0.0
C1002 C 0.76356 0.87434 0.8407 0.0
H1003 H 0.97811 0.77306 0.11744 0.0
H1004 H 0.94127 0.72671 0.04231 0.0
H1005 H 0.8996 0.72047 0.07684 0.0
H1006 H 0.95797 0.72948 0.18209 0.0
H1007 H 0.94835 0.76078 0.20842 0.0
H1008 H 0.97509 0.76263 0.17771 0.0
H1009 H 0.94509 0.8126 0.15576 0.0
H1010 H 0.9185 0.81117 0.18674 0.0
H1011 H 0.90725 0.81385 0.14588 0.0
H1012 H 0.86438 0.71447 0.12153 0.0
H1013 H 0.83363 0.71728 0.16982 0.0
H1014 H 0.89032 0.77155 0.21452 0.0
C1015 C 0.961 0.76209 0.10809 0.0
C1016 C 0.96302 0.75047 0.07704 0.0
C1017 C 0.94017 0.73614 0.06579 0.0
C1018 C 0.91647 0.73223 0.08537 0.0
C1019 C 0.91549 0.74327 0.11605 0.0
C1020 C 0.93673 0.75864 0.1271 0.0
C1021 C 0.92998 0.76894 0.16081 0.0
C1022 C 0.95429 0.7546 0.1836 0.0
C1023 C 0.9249 0.80371 0.16238 0.0
C1024 C 0.90195 0.75651 0.16713 0.0
C1025 C 0.89424 0.74134 0.14116 0.0
C1026 C 0.87 0.72666 0.14184 0.0
C1027 C 0.85279 0.72813 0.16947 0.0
C1028 C 0.85952 0.74465 0.19587 0.0
C1029 C 0.88454 0.75889 0.19461 0.0
H1030 H 0.32988 0.96995 0.12218 0.0
H1031 H 0.28869 0.93436 0.04235 0.0
H1032 H 0.28092 0.89035 0.07493 0.0
H1033 H 0.36681 0.89873 0.15302 0.0
H1034 H 0.36059 0.90788 0.19414 0.0
H1035 H 0.3627 0.93758 0.1652 0.0
H1036 H 0.31189 0.96532 0.18251 0.0
H1037 H 0.30976 0.93589 0.21176 0.0
H1038 H 0.2813 0.94529 0.18272 0.0
H1039 H 0.27945 0.84942 0.11382 0.0
H1040 H 0.27934 0.81503 0.15948 0.0
H1041 H 0.31988 0.87583 0.21701 0.0
C1042 C 0.31894 0.95304 0.1117 0.0
C1043 C 0.30993 0.95573 0.07953 0.0
C1044 C 0.29577 0.93302 0.06679 0.0
C1045 C 0.29135 0.90777 0.0851 0.0
C1046 C 0.30097 0.90549 0.11633 0.0
C1047 C 0.31408 0.92758 0.12984 0.0
C1048 C 0.32187 0.91928 0.16429 0.0
C1049 C 0.35496 0.91566 0.16946 0.0
C1050 C 0.30521 0.94285 0.18664 0.0
C1051 C 0.31125 0.88897 0.16778 0.0
C1052 C 0.29948 0.88164 0.13956 0.0
C1053 C 0.28831 0.85501 0.13615 0.0
C1054 C 0.28837 0.8356 0.16242 0.0
C1055 C 0.29933 0.84272 0.19215 0.0
C1056 C 0.31145 0.86963 0.19468 0.0
H1057 H 0.77413 0.06125 0.09813 0.0
H1058 H 0.78606 0.11454 0.01344 0.0
H1059 H 0.79116 0.15803 0.04654 0.0
H1060 H 0.7307 0.11734 0.13881 0.0
H1061 H 0.74581 0.10741 0.17754 0.0
H1062 H 0.74736 0.07885 0.14793 0.0
H1063 H 0.80347 0.06588 0.15378 0.0
H1064 H 0.80211 0.09411 0.18384 0.0
H1065 H 0.82516 0.09558 0.14955 0.0
H1066 H 0.78681 0.19786 0.08766 0.0
H1067 H 0.77958 0.22988 0.13491 0.0
H1068 H 0.77309 0.15072 0.19371 0.0
C1069 C 0.77875 0.08174 0.08657 0.0
C1070 C 0.77976 0.08437 0.0531 0.0
C1071 C 0.78543 0.11178 0.03896 0.0
C1072 C 0.78825 0.13671 0.05759 0.0
C1073 C 0.78585 0.13377 0.09038 0.0
C1074 C 0.7819 0.10679 0.10484 0.0
C1075 C 0.77851 0.11017 0.14044 0.0
C1076 C 0.74883 0.10302 0.15183 0.0
C1077 C 0.80382 0.09025 0.15793 0.0
C1078 C 0.7801 0.14353 0.14358 0.0
C1079 C 0.78433 0.15668 0.11436 0.0
C1080 C 0.78415 0.1877 0.11073 0.0
C1081 C 0.77981 0.20573 0.13766 0.0
C1082 C 0.77601 0.19269 0.16788 0.0
C1083 C 0.77639 0.16115 0.1709 0.0
H1084 H 0.62528 0.60089 0.8594 0.0
H1085 H 0.55132 0.63427 0.79921 0.0
H1086 H 0.57549 0.67677 0.78094 0.0
H1087 H 0.64197 0.67445 0.88177 0.0
H1088 H 0.68085 0.66197 0.88041 0.0
H1089 H 0.65692 0.63532 0.89012 0.0
H1090 H 0.67934 0.60111 0.84445 0.0
H1091 H 0.70327 0.62768 0.83456 0.0
H1092 H 0.67957 0.61682 0.80483 0.0
H1093 H 0.60826 0.71509 0.76842 0.0
H1094 H 0.64793 0.74529 0.7612 0.0
H1095 H 0.70121 0.68604 0.82829 0.0
C1096 C 0.61401 0.61745 0.84279 0.0
C1097 C 0.58635 0.61442 0.83083 0.0
C1098 C 0.57256 0.63613 0.80853 0.0
C1099 C 0.58607 0.66039 0.79815 0.0
C1100 C 0.61349 0.66255 0.81012 0.0
C1101 C 0.62737 0.6416 0.83188 0.0
C1102 C 0.65738 0.64826 0.83984 0.0
C1103 C 0.65938 0.65543 0.87513 0.0
C1104 C 0.6813 0.6219 0.83034 0.0
C1105 C 0.65826 0.67613 0.8191 0.0
C1106 C 0.63263 0.68416 0.80234 0.0
C1107 C 0.6284 0.70904 0.78147 0.0
C1108 C 0.65101 0.72606 0.77753 0.0
C1109 C 0.67756 0.71797 0.79417 0.0
C1110 C 0.68111 0.69274 0.81527 0.0
H1111 H 0.4727 0.62483 0.79142 0.0
H1112 H 0.43145 0.54515 0.79061 0.0
H1113 H 0.38309 0.57774 0.78383 0.0
H1114 H 0.42301 0.66724 0.83724 0.0
H1115 H 0.42381 0.70318 0.81754 0.0
H1116 H 0.45516 0.67379 0.81588 0.0
H1117 H 0.45432 0.67605 0.75448 0.0
H1118 H 0.42337 0.70613 0.756 0.0
H1119 H 0.42123 0.67254 0.73392 0.0
H1120 H 0.33824 0.62068 0.78663 0.0
H1121 H 0.30314 0.66874 0.79322 0.0
H1122 H 0.3755 0.71861 0.79076 0.0
C1123 C 0.45361 0.61428 0.7881 0.0
C1124 C 0.45571 0.58261 0.79044 0.0
C1125 C 0.43024 0.56942 0.78766 0.0
C1126 C 0.4027 0.5878 0.78415 0.0
C1127 C 0.40117 0.61924 0.78316 0.0
C1128 C 0.42618 0.63225 0.78427 0.0
C1129 C 0.41894 0.66637 0.78551 0.0
C1130 C 0.43093 0.67831 0.81584 0.0
C1131 C 0.43012 0.68113 0.75569 0.0
C1132 C 0.38603 0.6706 0.78607 0.0
C1133 C 0.37588 0.64338 0.7846 0.0
C1134 C 0.34603 0.64214 0.78717 0.0
C1135 C 0.32624 0.66943 0.7911 0.0
C1136 C 0.33655 0.69738 0.79248 0.0
C1137 C 0.36678 0.69768 0.78962 0.0
H1138 H 0.47224 0.41236 0.86801 0.0
H1139 H 0.42227 0.49438 0.82751 0.0
H1140 H 0.38388 0.4657 0.81146 0.0
H1141 H 0.45729 0.3638 0.80758 0.0
H1142 H 0.45471 0.33181 0.83341 0.0
H1143 H 0.47715 0.35905 0.84434 0.0
H1144 H 0.44899 0.36806 0.89737 0.0
H1145 H 0.4267 0.34054 0.88678 0.0
H1146 H 0.40983 0.37836 0.8969 0.0
H1147 H 0.35229 0.42799 0.79748 0.0
H1148 H 0.32849 0.38365 0.78787 0.0
H1149 H 0.39936 0.32545 0.83614 0.0
C1150 C 0.45285 0.42431 0.85649 0.0
C1151 C 0.45 0.4556 0.84918 0.0
C1152 C 0.42474 0.47042 0.83329 0.0
C1153 C 0.40288 0.45433 0.82411 0.0
C1154 C 0.40667 0.42337 0.8309 0.0
C1155 C 0.43091 0.40848 0.84686 0.0
C1156 C 0.4302 0.37479 0.84983 0.0
C1157 C 0.45639 0.35628 0.83277 0.0
C1158 C 0.42884 0.36486 0.8848 0.0
C1159 C 0.40187 0.3731 0.83291 0.0
C1160 C 0.38863 0.40143 0.82229 0.0
C1161 C 0.36238 0.4057 0.8058 0.0
C1162 C 0.34909 0.38039 0.80036 0.0
C1163 C 0.36216 0.3512 0.81119 0.0
C1164 C 0.38897 0.34753 0.8275 0.0
H1165 H 0.61238 0.43736 0.8537 0.0
H1166 H 0.59621 0.46186 0.75472 0.0
H1167 H 0.63755 0.42199 0.73961 0.0
H1168 H 0.68923 0.42398 0.84988 0.0
H1169 H 0.69339 0.39251 0.87771 0.0
H1170 H 0.66202 0.42194 0.88011 0.0
H1171 H 0.62787 0.38194 0.87601 0.0
H1172 H 0.65915 0.35234 0.87369 0.0
H1173 H 0.63185 0.35652 0.84311 0.0
H1174 H 0.68297 0.38065 0.73628 0.0
H1175 H 0.72653 0.34131 0.74468 0.0
H1176 H 0.711 0.34389 0.84598 0.0
C1177 C 0.61734 0.4344 0.82875 0.0
C1178 C 0.60109 0.45288 0.80535 0.0
C1179 C 0.60831 0.44797 0.77304 0.0
C1180 C 0.63177 0.42541 0.7643 0.0
C1181 C 0.64752 0.40785 0.78815 0.0
C1182 C 0.64036 0.41204 0.81971 0.0
C1183 C 0.66065 0.39069 0.84104 0.0
C1184 C 0.6773 0.40834 0.8635 0.0
C1185 C 0.64387 0.36909 0.85954 0.0
C1186 C 0.68078 0.37393 0.81666 0.0
C1187 C 0.67291 0.38404 0.78625 0.0
C1188 C 0.68901 0.3724 0.75998 0.0
C1189 C 0.71365 0.34996 0.76497 0.0
C1190 C 0.72185 0.33923 0.79595 0.0
C1191 C 0.70511 0.35145 0.82202 0.0
H1192 H 0.63911 0.46447 0.25571 0.0
H1193 H 0.56552 0.42989 0.29717 0.0
H1194 H 0.59685 0.37999 0.30639 0.0
H1195 H 0.66733 0.40325 0.21377 0.0
H1196 H 0.70536 0.40456 0.22028 0.0
H1197 H 0.67897 0.43869 0.22229 0.0
H1198 H 0.69594 0.44805 0.27891 0.0
H1199 H 0.72274 0.41401 0.27719 0.0
H1200 H 0.69653 0.41889 0.30908 0.0
H1201 H 0.6335 0.3317 0.30044 0.0
H1202 H 0.67402 0.29074 0.28664 0.0
H1203 H 0.725 0.35758 0.25274 0.0
C1204 C 0.62996 0.44671 0.26794 0.0
C1205 C 0.60004 0.45101 0.27612 0.0
C1206 C 0.58853 0.42719 0.29141 0.0
C1207 C 0.60615 0.39874 0.29649 0.0
C1208 C 0.63535 0.39483 0.28685 0.0
C1209 C 0.64738 0.41849 0.27375 0.0
C1210 C 0.67874 0.40808 0.26353 0.0
C1211 C 0.68281 0.41399 0.22786 0.0
C1212 C 0.69973 0.42315 0.28336 0.0
C1213 C 0.68204 0.37449 0.2712 0.0
C1214 C 0.65682 0.36728 0.28476 0.0
C1215 C 0.65359 0.33724 0.29069 0.0
C1216 C 0.67661 0.31412 0.28258 0.0
C1217 C 0.70265 0.32111 0.26899 0.0
C1218 C 0.70554 0.35171 0.26376 0.0
H1219 H 0.60722 0.62552 0.2044 0.0
H1220 H 0.6447 0.5412 0.2513 0.0
H1221 H 0.69002 0.56177 0.26117 0.0
H1222 H 0.67352 0.64195 0.16701 0.0
H1223 H 0.66455 0.68209 0.17356 0.0
H1224 H 0.63589 0.65999 0.16881 0.0
H1225 H 0.61353 0.67882 0.22268 0.0
H1226 H 0.64208 0.70099 0.22755 0.0
H1227 H 0.63592 0.67366 0.2577 0.0
H1228 H 0.73135 0.5923 0.26626 0.0
H1229 H 0.76355 0.63119 0.26896 0.0
H1230 H 0.69787 0.69569 0.22035 0.0
C1231 C 0.62513 0.61128 0.21635 0.0
C1232 C 0.62257 0.58171 0.22692 0.0
C1233 C 0.64622 0.56396 0.24314 0.0
C1234 C 0.67207 0.5754 0.24868 0.0
C1235 C 0.67384 0.60474 0.23807 0.0
C1236 C 0.65089 0.62249 0.22244 0.0
C1237 C 0.65762 0.65381 0.21491 0.0
C1238 C 0.65792 0.6598 0.17894 0.0
C1239 C 0.63601 0.67825 0.23172 0.0
C1240 C 0.68793 0.65096 0.22874 0.0
C1241 C 0.6971 0.62243 0.24175 0.0
C1242 C 0.72437 0.6147 0.25609 0.0
C1243 C 0.74255 0.63683 0.25745 0.0
C1244 C 0.73317 0.66633 0.24483 0.0
C1245 C 0.70561 0.67328 0.23016 0.0
H1246 H 0.4365 0.58801 0.22056 0.0
H1247 H 0.48228 0.60441 0.30584 0.0
H1248 H 0.44504 0.65024 0.31552 0.0
H1249 H 0.41825 0.66357 0.19456 0.0
H1250 H 0.38316 0.65902 0.17931 0.0
H1251 H 0.41239 0.62719 0.18086 0.0
H1252 H 0.38013 0.5962 0.21411 0.0
H1253 H 0.35063 0.62777 0.21222 0.0
H1254 H 0.36336 0.61177 0.2501 0.0
H1255 H 0.40189 0.69731 0.31289 0.0
H1256 H 0.35769 0.73551 0.30055 0.0
H1257 H 0.34323 0.68565 0.21693 0.0
C1258 C 0.43871 0.60098 0.24152 0.0
C1259 C 0.46237 0.59261 0.26241 0.0
C1260 C 0.4642 0.61024 0.28961 0.0
C1261 C 0.44323 0.63642 0.29512 0.0
C1262 C 0.42053 0.64445 0.27334 0.0
C1263 C 0.41818 0.62677 0.2473 0.0
C1264 C 0.39236 0.63961 0.22695 0.0
C1265 C 0.40214 0.64783 0.19345 0.0
C1266 C 0.37032 0.61753 0.2258 0.0
C1267 C 0.38039 0.66758 0.2452 0.0
C1268 C 0.39667 0.6704 0.27192 0.0
C1269 C 0.38911 0.69507 0.29201 0.0
C1270 C 0.36414 0.71682 0.28474 0.0
C1271 C 0.34714 0.71361 0.2577 0.0
C1272 C 0.35576 0.6888 0.23778 0.0
H1273 H 0.46262 0.43984 0.25763 0.0
H1274 H 0.44944 0.46174 0.15765 0.0
H1275 H 0.40999 0.4312 0.15651 0.0
H1276 H 0.45021 0.36292 0.25388 0.0
H1277 H 0.43136 0.3635 0.29135 0.0
H1278 H 0.45836 0.38752 0.28467 0.0
H1279 H 0.42042 0.43455 0.29887 0.0
H1280 H 0.39331 0.41066 0.30564 0.0
H1281 H 0.38629 0.44209 0.27786 0.0
H1282 H 0.37204 0.39844 0.16586 0.0
H1283 H 0.3384 0.36476 0.18496 0.0
H1284 H 0.37568 0.36336 0.27899 0.0
C1285 C 0.45127 0.43845 0.23557 0.0
C1286 C 0.45929 0.45323 0.20766 0.0
C1287 C 0.44407 0.45039 0.17921 0.0
C1288 C 0.42147 0.43321 0.17837 0.0
C1289 C 0.41424 0.41886 0.20618 0.0
C1290 C 0.42866 0.42122 0.23427 0.0
C1291 C 0.41679 0.40304 0.26063 0.0
C1292 C 0.4406 0.37774 0.27337 0.0
C1293 C 0.4034 0.42383 0.28732 0.0
C1294 C 0.39348 0.39011 0.24292 0.0
C1295 C 0.39237 0.39966 0.21156 0.0
C1296 C 0.3727 0.39082 0.19037 0.0
C1297 C 0.35367 0.37168 0.20145 0.0
C1298 C 0.35443 0.36144 0.23341 0.0
C1299 C 0.37462 0.37083 0.25441 0.0
H1300 H 0.78972 0.59673 0.60685 0.0
H1301 H 0.86191 0.62797 0.55793 0.0
H1302 H 0.85473 0.67395 0.58972 0.0
H1303 H 0.74478 0.67393 0.6173 0.0
H1304 H 0.73253 0.66448 0.65625 0.0
H1305 H 0.74059 0.63548 0.62698 0.0
H1306 H 0.77681 0.60361 0.66584 0.0
H1307 H 0.7691 0.63263 0.69503 0.0
H1308 H 0.80612 0.62009 0.68224 0.0
H1309 H 0.84419 0.71315 0.62943 0.0
H1310 H 0.82885 0.74612 0.6742 0.0
H1311 H 0.76264 0.69163 0.69921 0.0
C1312 C 0.80339 0.61372 0.60234 0.0
C1313 C 0.82633 0.60886 0.57982 0.0
C1314 C 0.84426 0.6312 0.57505 0.0
C1315 C 0.84032 0.65746 0.59294 0.0
C1316 C 0.81827 0.66122 0.61561 0.0
C1317 C 0.79984 0.64027 0.62031 0.0
C1318 C 0.77914 0.64941 0.64784 0.0
C1319 C 0.74737 0.65623 0.6364 0.0
C1320 C 0.78304 0.62498 0.6743 0.0
C1321 C 0.78956 0.67814 0.65828 0.0
C1322 C 0.81201 0.68445 0.63905 0.0
C1323 C 0.82638 0.70872 0.64447 0.0
C1324 C 0.81759 0.72722 0.67019 0.0
C1325 C 0.79455 0.72152 0.69037 0.0
C1326 C 0.78019 0.6967 0.68413 0.0
H1327 H 0.4562 0.78054 0.64553 0.0
H1328 H 0.42995 0.72065 0.57607 0.0
H1329 H 0.38176 0.72401 0.60221 0.0
H1330 H 0.42247 0.74749 0.71135 0.0
H1331 H 0.4117 0.78256 0.73179 0.0
H1332 H 0.44321 0.77788 0.70619 0.0
H1333 H 0.42107 0.82597 0.67409 0.0
H1334 H 0.38943 0.83088 0.69955 0.0
H1335 H 0.38516 0.82856 0.65733 0.0
H1336 H 0.33725 0.73274 0.63592 0.0
H1337 H 0.30034 0.74193 0.67807 0.0
H1338 H 0.35513 0.79435 0.72882 0.0
C1339 C 0.44004 0.76853 0.63576 0.0
C1340 C 0.44652 0.75055 0.60858 0.0
C1341 C 0.42525 0.73453 0.59677 0.0
C1342 C 0.39784 0.73646 0.61139 0.0
C1343 C 0.39207 0.75422 0.63817 0.0
C1344 C 0.41262 0.76969 0.65059 0.0
C1345 C 0.40142 0.78514 0.68114 0.0
C1346 C 0.42085 0.77251 0.70929 0.0
C1347 C 0.39914 0.81969 0.67782 0.0
C1348 C 0.37137 0.776 0.68383 0.0
C1349 C 0.36647 0.75843 0.65851 0.0
C1350 C 0.34083 0.7465 0.65583 0.0
C1351 C 0.31992 0.75192 0.67999 0.0
C1352 C 0.32461 0.76901 0.70684 0.0
C1353 C 0.35057 0.78167 0.70842 0.0
H1354 H 0.31834 0.41339 0.63744 0.0
H1355 H 0.22798 0.43678 0.60769 0.0
H1356 H 0.21385 0.4011 0.64704 0.0
H1357 H 0.31724 0.33408 0.64861 0.0
H1358 H 0.34036 0.32948 0.68304 0.0
H1359 H 0.34382 0.35863 0.65393 0.0
H1360 H 0.33549 0.39908 0.69763 0.0
H1361 H 0.33208 0.36985 0.72673 0.0
H1362 H 0.30333 0.40201 0.72222 0.0
H1363 H 0.20902 0.36103 0.68603 0.0
H1364 H 0.21425 0.31733 0.7232 0.0
H1365 H 0.30703 0.31863 0.73012 0.0
C1366 C 0.29559 0.41108 0.63935 0.0
C1367 C 0.27427 0.42854 0.61964 0.0
C1368 C 0.24473 0.42459 0.62288 0.0
C1369 C 0.23641 0.40413 0.64514 0.0
C1370 C 0.25777 0.38756 0.66424 0.0
C1371 C 0.28678 0.39062 0.66171 0.0
C1372 C 0.30529 0.36875 0.68451 0.0
C1373 C 0.32801 0.34641 0.66644 0.0
C1374 C 0.3199 0.38597 0.70923 0.0
C1375 C 0.28209 0.35278 0.69969 0.0
C1376 C 0.25486 0.3642 0.68756 0.0
C1377 C 0.23012 0.35214 0.69609 0.0
C1378 C 0.23328 0.32736 0.7172 0.0
C1379 C 0.26086 0.3151 0.72985 0.0
C1380 C 0.28556 0.32823 0.72141 0.0
H1381 H 0.61846 0.20736 0.57405 0.0
H1382 H 0.55654 0.29096 0.58007 0.0
H1383 H 0.58764 0.30917 0.62061 0.0
H1384 H 0.63564 0.19848 0.65532 0.0
H1385 H 0.6737 0.18383 0.64896 0.0
H1386 H 0.64721 0.17828 0.61971 0.0
H1387 H 0.67567 0.20363 0.57676 0.0
H1388 H 0.7024 0.20908 0.60583 0.0
H1389 H 0.68388 0.241 0.58314 0.0
H1390 H 0.62479 0.3164 0.66343 0.0
H1391 H 0.66551 0.31351 0.70151 0.0
H1392 H 0.70332 0.2256 0.66559 0.0
C1393 C 0.61143 0.22963 0.58368 0.0
C1394 C 0.58494 0.24771 0.57392 0.0
C1395 C 0.57676 0.27676 0.58705 0.0
C1396 C 0.59426 0.28721 0.61018 0.0
C1397 C 0.62004 0.26848 0.61961 0.0
C1398 C 0.6287 0.24043 0.60641 0.0
C1399 C 0.65718 0.22444 0.62049 0.0
C1400 C 0.65317 0.19449 0.63711 0.0
C1401 C 0.6812 0.21924 0.59504 0.0
C1402 C 0.66313 0.24761 0.64415 0.0
C1403 C 0.64147 0.27287 0.6434 0.0
C1404 C 0.64193 0.29683 0.66392 0.0
C1405 C 0.6651 0.29495 0.68554 0.0
C1406 C 0.68762 0.26939 0.68642 0.0
C1407 C 0.68653 0.24551 0.66535 0.0
H1408 H 0.83577 0.42015 0.4872 0.0
H1409 H 0.7667 0.49632 0.46921 0.0
H1410 H 0.74643 0.46675 0.42826 0.0
H1411 H 0.84928 0.40054 0.40952 0.0
H1412 H 0.85661 0.3602 0.41689 0.0
H1413 H 0.86301 0.38565 0.44748 0.0
H1414 H 0.82903 0.36166 0.48574 0.0
H1415 H 0.82278 0.3358 0.45536 0.0
H1416 H 0.79233 0.3595 0.47369 0.0
H1417 H 0.73746 0.43029 0.3849 0.0
H1418 H 0.73936 0.38995 0.34521 0.0
H1419 H 0.81479 0.33864 0.39243 0.0
C1420 C 0.816 0.43049 0.47516 0.0
C1421 C 0.80277 0.46053 0.48138 0.0
C1422 C 0.77702 0.47322 0.465 0.0
C1423 C 0.76545 0.45662 0.44166 0.0
C1424 C 0.77974 0.42733 0.43536 0.0
C1425 C 0.80426 0.41431 0.45202 0.0
C1426 C 0.81681 0.38335 0.43972 0.0
C1427 C 0.84827 0.38241 0.42769 0.0
C1428 C 0.81512 0.35862 0.46514 0.0
C1429 C 0.79609 0.38121 0.4128 0.0
C1430 C 0.77465 0.4066 0.41074 0.0
C1431 C 0.75392 0.41017 0.38663 0.0
C1432 C 0.75522 0.38723 0.36415 0.0
C1433 C 0.77718 0.36123 0.3659 0.0
C1434 C 0.79765 0.35819 0.39067 0.0
H1435 H 0.62446 0.72933 0.42733 0.0
H1436 H 0.62946 0.80844 0.48348 0.0
H1437 H 0.66734 0.82216 0.44736 0.0
H1438 H 0.70134 0.71053 0.41109 0.0
H1439 H 0.69617 0.69823 0.37147 0.0
H1440 H 0.6691 0.69513 0.4015 0.0
H1441 H 0.6295 0.72646 0.36584 0.0
H1442 H 0.65652 0.72975 0.33578 0.0
H1443 H 0.63459 0.76335 0.35124 0.0
H1444 H 0.70592 0.82676 0.40484 0.0
H1445 H 0.74147 0.82127 0.36052 0.0
H1446 H 0.71097 0.73903 0.33295 0.0
C1447 C 0.63358 0.74943 0.43231 0.0
C1448 C 0.62368 0.76778 0.45843 0.0
C1449 C 0.63619 0.79414 0.46352 0.0
C1450 C 0.6579 0.80208 0.44316 0.0
C1451 C 0.66703 0.7835 0.41765 0.0
C1452 C 0.65525 0.75769 0.41223 0.0
C1453 C 0.66895 0.74137 0.38334 0.0
C1454 C 0.68483 0.70943 0.3924 0.0
C1455 C 0.64602 0.74018 0.35753 0.0
C1456 C 0.69034 0.76195 0.37338 0.0
C1457 C 0.68896 0.78617 0.39339 0.0
C1458 C 0.70708 0.80789 0.389 0.0
C1459 C 0.72721 0.80462 0.3637 0.0
C1460 C 0.7291 0.77981 0.34301 0.0
C1461 C 0.71015 0.75841 0.34805 0.0
H1462 H 0.31004 0.62611 0.46226 0.0
H1463 H 0.24326 0.57802 0.42688 0.0
H1464 H 0.23165 0.61648 0.3849 0.0
H1465 H 0.2729 0.70162 0.44612 0.0
H1466 H 0.30507 0.71593 0.43298 0.0
H1467 H 0.30818 0.68498 0.46137 0.0
H1468 H 0.34504 0.65208 0.4248 0.0
H1469 H 0.34226 0.68303 0.39646 0.0
H1470 H 0.33512 0.64658 0.38439 0.0
H1471 H 0.22603 0.66026 0.34724 0.0
H1472 H 0.23012 0.70418 0.31275 0.0
H1473 H 0.30224 0.7234 0.36961 0.0
C1474 C 0.2931 0.62341 0.44568 0.0
C1475 C 0.27726 0.59896 0.44873 0.0
C1476 C 0.25532 0.59667 0.42608 0.0
C1477 C 0.24857 0.61844 0.40184 0.0
C1478 C 0.26413 0.64238 0.39999 0.0
C1479 C 0.28624 0.64484 0.42093 0.0
C1480 C 0.3002 0.67242 0.41273 0.0
C1481 C 0.29635 0.69508 0.43992 0.0
C1482 C 0.33257 0.66296 0.40408 0.0
C1483 C 0.28236 0.68501 0.384 0.0
C1484 C 0.26153 0.66738 0.37734 0.0
C1485 C 0.24233 0.67421 0.3521 0.0
C1486 C 0.24482 0.69936 0.33266 0.0
C1487 C 0.26652 0.71745 0.33827 0.0
C1488 C 0.28531 0.71023 0.36463 0.0
H1489 H 0.40906 0.24216 0.47931 0.0
H1490 H 0.47762 0.27059 0.42198 0.0
H1491 H 0.4428 0.28307 0.37746 0.0
H1492 H 0.37656 0.20648 0.4212 0.0
H1493 H 0.3395 0.21863 0.43408 0.0
H1494 H 0.36881 0.21519 0.46219 0.0
H1495 H 0.35285 0.27112 0.47809 0.0
H1496 H 0.32314 0.27462 0.45035 0.0
H1497 H 0.34889 0.30056 0.44791 0.0
H1498 H 0.40159 0.28476 0.33668 0.0
H1499 H 0.35675 0.28198 0.3062 0.0
H1500 H 0.31467 0.2563 0.39202 0.0
C1501 C 0.41655 0.2518 0.45766 0.0
C1502 C 0.44598 0.25558 0.45412 0.0
C1503 C 0.45506 0.26796 0.42535 0.0
C1504 C 0.43546 0.27488 0.39989 0.0
C1505 C 0.40674 0.26989 0.40384 0.0
C1506 C 0.3972 0.25934 0.43237 0.0
C1507 C 0.3656 0.25509 0.43055 0.0
C1508 C 0.36246 0.22188 0.4374 0.0
C1509 C 0.34649 0.27664 0.45306 0.0
C1510 C 0.35898 0.26391 0.39625 0.0
C1511 C 0.38295 0.27229 0.38108 0.0
C1512 C 0.38252 0.27901 0.34861 0.0
C1513 C 0.35695 0.27741 0.33144 0.0
C1514 C 0.33199 0.26961 0.3468 0.0
C1515 C 0.33318 0.2629 0.37966 0.0
H1516 H 0.63379 0.78236 0.58263 0.0
H1517 H 0.55912 0.82095 0.63888 0.0
H1518 H 0.5924 0.83223 0.68129 0.0
H1519 H 0.67726 0.74674 0.64392 0.0
H1520 H 0.71118 0.75506 0.62804 0.0
H1521 H 0.68158 0.75181 0.6018 0.0
H1522 H 0.68306 0.8056 0.57857 0.0
H1523 H 0.71305 0.80881 0.60436 0.0
H1524 H 0.68061 0.83714 0.60489 0.0
H1525 H 0.63486 0.8329 0.72015 0.0
H1526 H 0.68221 0.83089 0.74786 0.0
H1527 H 0.72799 0.79584 0.66329 0.0
C1528 C 0.62451 0.79381 0.60362 0.0
C1529 C 0.59406 0.80102 0.60763 0.0
C1530 C 0.58249 0.81574 0.63535 0.0
C1531 C 0.60122 0.82193 0.65957 0.0
C1532 C 0.63131 0.81375 0.65523 0.0
C1533 C 0.64281 0.8007 0.62751 0.0
C1534 C 0.67575 0.79405 0.62831 0.0
C1535 C 0.68709 0.7599 0.62535 0.0
C1536 C 0.68889 0.81251 0.60251 0.0
C1537 C 0.68115 0.80492 0.66102 0.0
C1538 C 0.65535 0.8158 0.67651 0.0
C1539 C 0.65516 0.82504 0.70794 0.0
C1540 C 0.68204 0.82368 0.72354 0.0
C1541 C 0.70855 0.8137 0.70743 0.0
C1542 C 0.70798 0.80416 0.67589 0.0
H1543 H 0.60128 0.19215 0.38618 0.0
H1544 H 0.6362 0.20437 0.47907 0.0
H1545 H 0.68318 0.211 0.45469 0.0
H1546 H 0.67006 0.15215 0.35048 0.0
H1547 H 0.66277 0.17121 0.31267 0.0
H1548 H 0.63296 0.16383 0.33753 0.0
H1549 H 0.61094 0.22095 0.33566 0.0
H1550 H 0.6406 0.22845 0.31082 0.0
H1551 H 0.63303 0.24831 0.34741 0.0
H1552 H 0.72392 0.22189 0.42057 0.0
H1553 H 0.75607 0.23691 0.37853 0.0
H1554 H 0.69602 0.21666 0.30709 0.0
C1555 C 0.6191 0.19541 0.40138 0.0
C1556 C 0.61519 0.19761 0.43456 0.0
C1557 C 0.63873 0.20277 0.45363 0.0
C1558 C 0.66553 0.20634 0.44001 0.0
C1559 C 0.66853 0.20461 0.40722 0.0
C1560 C 0.64603 0.19921 0.38809 0.0
C1561 C 0.65427 0.20097 0.35332 0.0
C1562 C 0.65507 0.1702 0.33757 0.0
C1563 C 0.63347 0.22617 0.33579 0.0
C1564 C 0.68465 0.20887 0.35594 0.0
C1565 C 0.69246 0.21059 0.38731 0.0
C1566 C 0.71833 0.22003 0.39594 0.0
C1567 C 0.73643 0.22854 0.37193 0.0
C1568 C 0.72873 0.22736 0.33968 0.0
C1569 C 0.70281 0.2168 0.33156 0.0
H1570 H 0.824 0.59716 0.42905 0.0
H1571 H 0.91859 0.58138 0.43166 0.0
H1572 H 0.91946 0.62007 0.38942 0.0
H1573 H 0.8171 0.6101 0.34377 0.0
H1574 H 0.78563 0.63939 0.34711 0.0
H1575 H 0.79231 0.6095 0.37669 0.0
H1576 H 0.79093 0.64929 0.42064 0.0
H1577 H 0.78407 0.67925 0.39122 0.0
H1578 H 0.81465 0.67725 0.41762 0.0
H1579 H 0.91014 0.6624 0.34894 0.0
H1580 H 0.89107 0.70543 0.3131 0.0
H1581 H 0.80262 0.69326 0.33596 0.0
C1582 C 0.8449 0.60186 0.4208 0.0
C1583 C 0.87126 0.58609 0.43372 0.0
C1584 C 0.89813 0.59278 0.42192 0.0
C1585 C 0.89885 0.61483 0.39797 0.0
C1586 C 0.87251 0.62991 0.38581 0.0
C1587 C 0.84601 0.62368 0.39673 0.0
C1588 C 0.82084 0.64363 0.38004 0.0
C1589 C 0.80292 0.62451 0.36076 0.0
C1590 C 0.80149 0.66354 0.4038 0.0
C1591 C 0.83735 0.66243 0.35852 0.0
C1592 C 0.86713 0.65406 0.36212 0.0
C1593 C 0.88687 0.66898 0.34571 0.0
C1594 C 0.87587 0.69336 0.32542 0.0
C1595 C 0.84545 0.70253 0.32169 0.0
C1596 C 0.82601 0.68652 0.33811 0.0
H1597 H 0.49242 0.77578 0.42961 0.0
H1598 H 0.4535 0.84188 0.49769 0.0
H1599 H 0.41184 0.8577 0.46132 0.0
H1600 H 0.46723 0.82167 0.35689 0.0
H1601 H 0.46151 0.78841 0.33606 0.0
H1602 H 0.48982 0.78568 0.36544 0.0
H1603 H 0.46765 0.74359 0.39507 0.0
H1604 H 0.43916 0.74639 0.36609 0.0
H1605 H 0.42999 0.75105 0.40743 0.0
H1606 H 0.37106 0.85963 0.42173 0.0
H1607 H 0.33635 0.85112 0.38009 0.0
H1608 H 0.40323 0.78567 0.33641 0.0
C1609 C 0.47548 0.79415 0.43653 0.0
C1610 C 0.4761 0.80769 0.46641 0.0
C1611 C 0.45354 0.8315 0.47475 0.0
C1612 C 0.4298 0.84051 0.45427 0.0
C1613 C 0.42939 0.82588 0.42539 0.0
C1614 C 0.45198 0.80362 0.41627 0.0
C1615 C 0.44563 0.79005 0.385 0.0
C1616 C 0.46734 0.79687 0.35932 0.0
C1617 C 0.4456 0.75575 0.38864 0.0
C1618 C 0.41534 0.80721 0.37848 0.0
C1619 C 0.40638 0.82786 0.402 0.0
C1620 C 0.37813 0.84414 0.40281 0.0
C1621 C 0.35855 0.83906 0.37916 0.0
C1622 C 0.36736 0.81812 0.35487 0.0
C1623 C 0.39624 0.80239 0.35426 0.0
H1624 H 0.27814 0.46649 0.42325 0.0
H1625 H 0.20393 0.45263 0.48108 0.0
H1626 H 0.19163 0.41587 0.44222 0.0
H1627 H 0.24418 0.45926 0.34551 0.0
H1628 H 0.27801 0.44014 0.32909 0.0
H1629 H 0.27842 0.46766 0.35957 0.0
H1630 H 0.312 0.42765 0.39377 0.0
H1631 H 0.31163 0.4001 0.3635 0.0
H1632 H 0.30052 0.39198 0.40329 0.0
H1633 H 0.1918 0.37555 0.39972 0.0
H1634 H 0.20342 0.33756 0.35767 0.0
H1635 H 0.2766 0.38044 0.32804 0.0
C1636 C 0.25897 0.45616 0.42753 0.0
C1637 C 0.242 0.46234 0.45516 0.0
C1638 C 0.2171 0.44834 0.4599 0.0
C1639 C 0.21 0.42743 0.43798 0.0
C1640 C 0.22775 0.42127 0.41128 0.0
C1641 C 0.2515 0.43563 0.40589 0.0
C1642 C 0.26826 0.42406 0.37663 0.0
C1643 C 0.26713 0.44929 0.35119 0.0
C1644 C 0.29996 0.41012 0.38481 0.0
C1645 C 0.25087 0.40017 0.36683 0.0
C1646 C 0.22745 0.39888 0.38684 0.0
C1647 C 0.20976 0.37679 0.38359 0.0
C1648 C 0.21653 0.35529 0.35963 0.0
C1649 C 0.2408 0.35605 0.33931 0.0
C1650 C 0.25764 0.37929 0.34276 0.0
H1651 H 0.46047 0.23243 0.61591 0.0
H1652 H 0.44854 0.1416 0.59126 0.0
H1653 H 0.41143 0.14243 0.63331 0.0
H1654 H 0.45172 0.22404 0.70013 0.0
H1655 H 0.43206 0.26193 0.70487 0.0
H1656 H 0.45821 0.254 0.67323 0.0
H1657 H 0.41854 0.27588 0.63235 0.0
H1658 H 0.39228 0.2839 0.66387 0.0
H1659 H 0.3849 0.26088 0.63135 0.0
H1660 H 0.37444 0.15368 0.67707 0.0
H1661 H 0.34089 0.17425 0.71978 0.0
H1662 H 0.37676 0.25787 0.71572 0.0
C1663 C 0.45001 0.21273 0.61915 0.0
C1664 C 0.45763 0.18689 0.60015 0.0
C1665 C 0.44353 0.1615 0.60567 0.0
C1666 C 0.42224 0.16182 0.62942 0.0
C1667 C 0.41523 0.18768 0.64756 0.0
C1668 C 0.4287 0.21267 0.64274 0.0
C1669 C 0.41698 0.23773 0.66533 0.0
C1670 C 0.44119 0.24483 0.68719 0.0
C1671 C 0.4023 0.26628 0.64714 0.0
C1672 C 0.39479 0.22291 0.68358 0.0
C1673 C 0.39407 0.19407 0.67292 0.0
C1674 C 0.37489 0.17619 0.6857 0.0
C1675 C 0.35587 0.18812 0.70996 0.0
C1676 C 0.35622 0.21764 0.72131 0.0
C1677 C 0.37609 0.23511 0.70789 0.0
H1678 H 0.82305 0.4287 0.60249 0.0
H1679 H 0.90266 0.44364 0.6484 0.0
H1680 H 0.89838 0.40234 0.68651 0.0
H1681 H 0.78512 0.41499 0.67364 0.0
H1682 H 0.76704 0.38644 0.6568 0.0
H1683 H 0.7773 0.41604 0.63184 0.0
H1684 H 0.80646 0.37565 0.59563 0.0
H1685 H 0.79641 0.34591 0.6206 0.0
H1686 H 0.83433 0.34713 0.61261 0.0
H1687 H 0.88466 0.36055 0.72106 0.0
H1688 H 0.86152 0.32267 0.75047 0.0
H1689 H 0.79024 0.33562 0.68296 0.0
C1690 C 0.8396 0.4235 0.62054 0.0
C1691 C 0.86333 0.4396 0.62207 0.0
C1692 C 0.88453 0.43154 0.64613 0.0
C1693 C 0.88224 0.4081 0.66808 0.0
C1694 C 0.85862 0.39281 0.66583 0.0
C1695 C 0.83761 0.40023 0.64275 0.0
C1696 C 0.81381 0.38097 0.64624 0.0
C1697 C 0.78407 0.4008 0.65251 0.0
C1698 C 0.8127 0.36125 0.61703 0.0
C1699 C 0.82456 0.36182 0.67515 0.0
C1700 C 0.85056 0.36886 0.68592 0.0
C1701 C 0.86435 0.35476 0.71276 0.0
C1702 C 0.85101 0.33322 0.72932 0.0
C1703 C 0.82403 0.32602 0.7191 0.0
C1704 C 0.81095 0.34034 0.69135 0.0
H1705 H 0.2105 0.62807 0.56905 0.0
H1706 H 0.20886 0.54251 0.61868 0.0
H1707 H 0.20695 0.56853 0.66972 0.0
H1708 H 0.25816 0.6533 0.61763 0.0
H1709 H 0.24182 0.69274 0.61668 0.0
H1710 H 0.2368 0.66909 0.58398 0.0
H1711 H 0.18069 0.68298 0.58969 0.0
H1712 H 0.18548 0.70721 0.62216 0.0
H1713 H 0.16372 0.67769 0.62744 0.0
H1714 H 0.21468 0.60175 0.71504 0.0
H1715 H 0.22717 0.64077 0.75092 0.0
H1716 H 0.22293 0.70453 0.67178 0.0
C1717 C 0.20858 0.61496 0.59056 0.0
C1718 C 0.20978 0.58325 0.5898 0.0
C1719 C 0.20784 0.56686 0.6186 0.0
C1720 C 0.20676 0.58144 0.64776 0.0
C1721 C 0.20724 0.61247 0.64773 0.0
C1722 C 0.20753 0.62916 0.61984 0.0
C1723 C 0.2109 0.66155 0.62619 0.0
C1724 C 0.23856 0.66961 0.61018 0.0
C1725 C 0.18356 0.68366 0.61576 0.0
C1726 C 0.21376 0.66013 0.66186 0.0
C1727 C 0.21132 0.63174 0.67394 0.0
C1728 C 0.2159 0.62429 0.70596 0.0
C1729 C 0.22314 0.64647 0.72612 0.0
C1730 C 0.2257 0.67561 0.71408 0.0
C1731 C 0.2206 0.68254 0.68167 0.0
loop_
_geom_bond_atom_site_label_1
_geom_bond_atom_site_label_2
_geom_bond_distance
_geom_bond_site_symmetry_2
_ccdc_geom_bond_type
Cu0 N1 1.999 1_565 S
Cu0 O6 1.974 . S
Cu0 N11 1.971 1_455 S
Cu0 O20 1.959 1_465 S
N1 Cu0 1.999 1_545 S
N1 C3 1.263 . S
N1 C5 1.389 . S
N2 C3 1.358 . S
N2 C4 1.400 . S
C3 N1 1.263 . S
C3 N2 1.358 . S
C3 H9 0.930 . S
C4 N2 1.400 . S
C4 C5 1.351 . S
C4 H21 0.930 . S
C5 N1 1.389 . S
C5 C4 1.351 . S
C5 H10 0.930 . S
O6 Cu0 1.974 . S
O6 C16 1.282 . S
C7 O8 1.261 . S
C7 O20 1.251 . S
O8 C7 1.261 . S
H9 C3 0.930 . S
H10 C5 0.930 . S
N11 Cu0 1.971 1_655 S
N11 C13 1.355 . S
N11 C14 1.387 1_655 S
N12 C13 1.345 . S
N12 C15 1.336 . S
C13 N11 1.355 . S
C13 N12 1.345 . S
C13 H18 0.930 . S
C14 N11 1.387 1_455 S
C14 C15 1.346 1_455 S
C14 H19 0.930 . S
C15 N12 1.336 . S
C15 C14 1.346 1_655 S
C15 H22 0.929 . S
C16 O6 1.282 . S
C16 O17 1.216 . S
O17 C16 1.216 . S
H18 C13 0.930 . S
H19 C14 0.930 . S
O20 Cu0 1.959 1_645 S
O20 C7 1.251 . S
H21 C4 0.930 . S
H22 C15 0.929 . S
Cu23 N24 1.982 1_445 S
Cu23 O29 1.957 1_455 S
Cu23 N34 2.002 . S
Cu23 O43 1.976 1_545 S
N24 Cu23 1.982 1_665 S
N24 C26 1.263 . S
N24 C28 1.389 . S
N25 C26 1.358 . S
N25 C27 1.400 . S
C26 N24 1.263 . S
C26 N25 1.358 . S
C26 H32 0.930 1_565 S
C27 N25 1.400 . S
C27 C28 1.351 . S
C27 H44 0.930 . S
C28 N24 1.389 . S
C28 C27 1.351 . S
C28 H33 0.930 . S
O29 Cu23 1.957 1_655 S
O29 C39 1.282 . S
C30 O31 1.261 . S
C30 O43 1.251 . S
O31 C30 1.261 . S
H32 C26 0.930 1_545 S
H33 C28 0.930 . S
N34 Cu23 2.002 . S
N34 C36 1.335 . S
N34 C37 1.390 . S
N35 C36 1.345 . S
N35 C38 1.336 . S
C36 N34 1.335 . S
C36 N35 1.345 . S
C36 H41 0.930 . S
C37 N34 1.390 . S
C37 C38 1.346 . S
C37 H42 0.939 . S
C38 N35 1.336 . S
C38 C37 1.346 . S
C38 H45 0.929 . S
C39 O29 1.282 . S
C39 O40 1.216 . S
O40 C39 1.216 . S
H41 C36 0.930 . S
H42 C37 0.939 . S
O43 Cu23 1.976 1_565 S
O43 C30 1.251 . S
H44 C27 0.930 . S
H45 C38 0.929 . S
Cu46 N47 1.999 1_545 S
Cu46 O52 1.974 1_545 S
Cu46 N57 1.985 . S
Cu46 O66 1.959 . S
N47 Cu46 1.999 1_565 S
N47 C49 1.263 . S
N47 C51 1.389 1_554 S
N48 C49 1.358 1_556 S
N48 C50 1.400 . S
C49 N47 1.263 . S
C49 N48 1.358 1_554 S
C49 H55 0.930 . S
C50 N48 1.400 . S
C50 C51 1.351 . S
C50 H67 0.930 . S
C51 N47 1.389 1_556 S
C51 C50 1.351 . S
C51 H56 0.930 . S
O52 Cu46 1.974 1_565 S
O52 C62 1.282 . S
C53 O54 1.262 . S
C53 O66 1.252 . S
O54 C53 1.262 . S
H55 C49 0.930 . S
H56 C51 0.930 . S
N57 Cu46 1.985 . S
N57 C59 1.335 . S
N57 C60 1.390 . S
N58 C59 1.345 . S
N58 C61 1.336 . S
C59 N57 1.335 . S
C59 N58 1.345 . S
C59 H64 0.930 . S
C60 N57 1.390 . S
C60 C61 1.346 . S
C60 H65 0.930 . S
C61 N58 1.336 . S
C61 C60 1.346 . S
C61 H68 0.929 . S
C62 O52 1.282 . S
C62 O63 1.216 . S
O63 C62 1.216 . S
H64 C59 0.930 . S
H65 C60 0.930 . S
O66 Cu46 1.959 . S
O66 C53 1.252 . S
H67 C50 0.930 . S
H68 C61 0.929 . S
Cu69 N70 1.999 1_554 S
Cu69 O75 1.974 . S
Cu69 N80 1.985 1_455 S
Cu69 O89 1.941 1_454 S
N70 Cu69 1.999 1_556 S
N70 C72 1.263 . S
N70 C74 1.389 . S
N71 C72 1.358 . S
N71 C73 1.400 . S
C72 N70 1.263 . S
C72 N71 1.358 . S
C72 H78 0.930 1_556 S
C73 N71 1.400 . S
C73 C74 1.351 . S
C73 H90 0.930 . S
C74 N70 1.389 . S
C74 C73 1.351 . S
C74 H79 0.930 . S
O75 Cu69 1.974 . S
O75 C85 1.282 . S
C76 O77 1.261 . S
C76 O89 1.260 . S
O77 C76 1.261 . S
H78 C72 0.930 1_554 S
H79 C74 0.930 . S
N80 Cu69 1.985 1_655 S
N80 C82 1.335 . S
N80 C83 1.390 . S
N81 C82 1.345 . S
N81 C84 1.336 . S
C82 N80 1.335 . S
C82 N81 1.345 . S
C82 H87 0.930 . S
C83 N80 1.390 . S
C83 C84 1.346 . S
C83 H88 0.930 1_655 S
C84 N81 1.336 . S
C84 C83 1.346 . S
C84 H91 0.929 . S
C85 O75 1.282 . S
C85 O86 1.216 . S
O86 C85 1.216 . S
H87 C82 0.930 . S
H88 C83 0.930 1_455 S
O89 Cu69 1.941 1_656 S
O89 C76 1.260 . S
H90 C73 0.930 . S
H91 C84 0.929 . S
Cu92 N93 1.999 1_554 S
Cu92 O98 1.974 . S
Cu92 N103 1.985 1_545 S
Cu92 O112 1.959 1_544 S
N93 Cu92 1.999 1_556 S
N93 C95 1.263 . S
N93 C97 1.389 . S
N94 C95 1.358 . S
N94 C96 1.400 . S
C95 N93 1.263 . S
C95 N94 1.358 . S
C95 H101 0.930 . S
C96 N94 1.400 . S
C96 C97 1.351 . S
C96 H113 0.930 . S
C97 N93 1.389 . S
C97 C96 1.351 . S
C97 H102 0.930 . S
O98 Cu92 1.974 . S
O98 C108 1.282 . S
C99 O100 1.261 . S
C99 O112 1.251 . S
O100 C99 1.261 . S
H101 C95 0.930 . S
H102 C97 0.930 . S
N103 Cu92 1.985 1_565 S
N103 C105 1.335 . S
N103 C106 1.390 . S
N104 C105 1.345 . S
N104 C107 1.336 . S
C105 N103 1.335 . S
C105 N104 1.345 . S
C105 H110 0.930 . S
C106 N103 1.390 . S
C106 C107 1.346 . S
C106 H111 0.930 1_565 S
C107 N104 1.336 . S
C107 C106 1.346 . S
C107 H114 0.929 . S
C108 O98 1.282 . S
C108 O109 1.216 . S
O109 C108 1.216 . S
H110 C105 0.930 . S
H111 C106 0.930 1_545 S
O112 Cu92 1.959 1_566 S
O112 C99 1.251 . S
H113 C96 0.930 . S
H114 C107 0.929 . S
Cu115 N116 1.999 1_454 S
Cu115 O121 1.974 1_455 S
Cu115 N126 1.985 . S
Cu115 O135 1.959 1_554 S
N116 Cu115 1.999 1_656 S
N116 C118 1.263 . S
N116 C120 1.389 . S
N117 C118 1.358 . S
N117 C119 1.400 . S
C118 N116 1.263 . S
C118 N117 1.358 . S
C118 H124 0.930 . S
C119 N117 1.400 . S
C119 C120 1.351 . S
C119 H136 0.930 . S
C120 N116 1.389 . S
C120 C119 1.351 . S
C120 H125 0.930 1_655 S
O121 Cu115 1.974 1_655 S
O121 C131 1.282 . S
C122 O123 1.261 . S
C122 O135 1.251 . S
O123 C122 1.261 . S
H124 C118 0.930 . S
H125 C120 0.930 1_455 S
N126 Cu115 1.985 . S
N126 C128 1.335 . S
N126 C129 1.390 . S
N127 C128 1.345 . S
N127 C130 1.336 . S
C128 N126 1.335 . S
C128 N127 1.345 . S
C128 H133 0.930 . S
C129 N126 1.390 . S
C129 C130 1.346 . S
C129 H134 0.930 . S
C130 N127 1.336 . S
C130 C129 1.346 . S
C130 H137 0.929 . S
C131 O121 1.282 . S
C131 O132 1.216 . S
O132 C131 1.216 . S
H133 C128 0.930 . S
H134 C129 0.930 . S
O135 Cu115 1.959 1_556 S
O135 C122 1.251 . S
H136 C119 0.930 . S
H137 C130 0.929 . S
Cu138 N139 1.999 . S
Cu138 O144 1.974 . S
Cu138 N149 1.985 . S
Cu138 O158 1.959 . S
N139 Cu138 1.999 . S
N139 C141 1.263 . S
N139 C143 1.389 . S
N140 C141 1.358 . S
N140 C142 1.400 . S
C141 N139 1.263 . S
C141 N140 1.358 . S
C141 H147 0.930 . S
C142 N140 1.400 . S
C142 C143 1.351 . S
C142 H159 0.930 . S
C143 N139 1.389 . S
C143 C142 1.351 . S
C143 H148 0.930 . S
O144 Cu138 1.974 . S
O144 C154 1.282 . S
C145 O146 1.261 . S
C145 O158 1.251 . S
O146 C145 1.261 . S
H147 C141 0.930 . S
H148 C143 0.930 . S
N149 Cu138 1.985 . S
N149 C151 1.335 . S
N149 C152 1.390 . S
N150 C151 1.345 . S
N150 C153 1.336 . S
C151 N149 1.335 . S
C151 N150 1.345 . S
C151 H156 0.930 . S
C152 N149 1.390 . S
C152 C153 1.346 . S
C152 H157 0.930 . S
C153 N150 1.336 . S
C153 C152 1.346 . S
C153 H160 0.929 . S
C154 O144 1.282 . S
C154 O155 1.216 . S
O155 C154 1.216 . S
H156 C151 0.930 . S
H157 C152 0.930 . S
O158 Cu138 1.959 . S
O158 C145 1.251 . S
H159 C142 0.930 . S
H160 C153 0.929 . S
Cu161 N162 1.999 . S
Cu161 O167 1.974 . S
Cu161 N172 1.985 . S
Cu161 O181 1.959 . S
N162 Cu161 1.999 . S
N162 C164 1.263 . S
N162 C166 1.389 . S
N163 C164 1.358 . S
N163 C165 1.400 . S
C164 N162 1.263 . S
C164 N163 1.358 . S
C164 H170 0.930 . S
C165 N163 1.400 . S
C165 C166 1.351 . S
C165 H182 0.930 . S
C166 N162 1.389 . S
C166 C165 1.351 . S
C166 H171 0.930 . S
O167 Cu161 1.974 . S
O167 C177 1.282 . S
C168 O169 1.261 . S
C168 O181 1.251 . S
O169 C168 1.261 . S
H170 C164 0.930 . S
H171 C166 0.930 . S
N172 Cu161 1.985 . S
N172 C174 1.335 . S
N172 C175 1.390 . S
N173 C174 1.345 . S
N173 C176 1.336 . S
C174 N172 1.335 . S
C174 N173 1.345 . S
C174 H179 0.930 . S
C175 N172 1.390 . S
C175 C176 1.346 . S
C175 H180 0.930 . S
C176 N173 1.336 . S
C176 C175 1.346 . S
C176 H183 0.929 . S
C177 O167 1.282 . S
C177 O178 1.216 . S
O178 C177 1.216 . S
H179 C174 0.930 . S
H180 C175 0.930 . S
O181 Cu161 1.959 . S
O181 C168 1.251 . S
H182 C165 0.930 . S
H183 C176 0.929 . S
Cu184 N185 1.999 . S
Cu184 O190 1.974 . S
Cu184 N195 1.985 . S
Cu184 O204 1.959 . S
N185 Cu184 1.999 . S
N185 C187 1.263 . S
N185 C189 1.389 . S
N186 C187 1.358 . S
N186 C188 1.400 . S
C187 N185 1.263 . S
C187 N186 1.358 . S
C187 H193 0.930 . S
C188 N186 1.400 . S
C188 C189 1.351 . S
C188 H205 0.930 . S
C189 N185 1.389 . S
C189 C188 1.351 . S
C189 H194 0.930 . S
O190 Cu184 1.974 . S
O190 C200 1.282 . S
C191 O192 1.261 . S
C191 O204 1.251 . S
O192 C191 1.261 . S
H193 C187 0.930 . S
H194 C189 0.930 . S
N195 Cu184 1.985 . S
N195 C197 1.335 . S
N195 C198 1.390 . S
N196 C197 1.345 . S
N196 C199 1.336 . S
C197 N195 1.335 . S
C197 N196 1.345 . S
C197 H202 0.930 . S
C198 N195 1.390 . S
C198 C199 1.346 . S
C198 H203 0.930 . S
C199 N196 1.336 . S
C199 C198 1.346 . S
C199 H206 0.929 . S
C200 O190 1.282 . S
C200 O201 1.216 . S
O201 C200 1.216 . S
H202 C197 0.930 . S
H203 C198 0.930 . S
O204 Cu184 1.959 . S
O204 C191 1.251 . S
H205 C188 0.930 . S
H206 C199 0.929 . S
Cu207 N208 1.999 . S
Cu207 O213 1.974 . S
Cu207 N218 1.985 . S
Cu207 O227 1.959 . S
N208 Cu207 1.999 . S
N208 C210 1.263 . S
N208 C212 1.389 . S
N209 C210 1.358 . S
N209 C211 1.400 . S
C210 N208 1.263 . S
C210 N209 1.358 . S
C210 H216 0.930 . S
C211 N209 1.400 . S
C211 C212 1.351 . S
C211 H228 0.930 . S
C212 N208 1.389 . S
C212 C211 1.351 . S
C212 H217 0.930 . S
O213 Cu207 1.974 . S
O213 C223 1.282 . S
C214 O215 1.261 . S
C214 O227 1.251 . S
O215 C214 1.261 . S
H216 C210 0.930 . S
H217 C212 0.930 . S
N218 Cu207 1.985 . S
N218 C220 1.335 . S
N218 C221 1.390 . S
N219 C220 1.345 . S
N219 C222 1.336 . S
C220 N218 1.335 . S
C220 N219 1.345 . S
C220 H225 0.930 . S
C221 N218 1.390 . S
C221 C222 1.346 . S
C221 H226 0.930 . S
C222 N219 1.336 . S
C222 C221 1.346 . S
C222 H229 0.929 . S
C223 O213 1.282 . S
C223 O224 1.216 . S
O224 C223 1.216 . S
H225 C220 0.930 . S
H226 C221 0.930 . S
O227 Cu207 1.959 . S
O227 C214 1.251 . S
H228 C211 0.930 . S
H229 C222 0.929 . S
Cu230 N231 1.999 . S
Cu230 O236 1.974 . S
Cu230 N241 1.985 . S
Cu230 O250 1.959 . S
N231 Cu230 1.999 . S
N231 C233 1.263 . S
N231 C235 1.389 . S
N232 C233 1.358 . S
N232 C234 1.400 . S
C233 N231 1.263 . S
C233 N232 1.358 . S
C233 H239 0.930 . S
C234 N232 1.400 . S
C234 C235 1.351 . S
C234 H251 0.930 . S
C235 N231 1.389 . S
C235 C234 1.351 . S
C235 H240 0.930 . S
O236 Cu230 1.974 . S
O236 C246 1.282 . S
C237 O238 1.261 . S
C237 O250 1.251 . S
O238 C237 1.261 . S
H239 C233 0.930 . S
H240 C235 0.930 . S
N241 Cu230 1.985 . S
N241 C243 1.335 . S
N241 C244 1.390 . S
N242 C243 1.345 . S
N242 C245 1.336 . S
C243 N241 1.335 . S
C243 N242 1.345 . S
C243 H248 0.930 . S
C244 N241 1.390 . S
C244 C245 1.346 . S
C244 H249 0.930 . S
C245 N242 1.336 . S
C245 C244 1.346 . S
C245 H252 0.929 . S
C246 O236 1.282 . S
C246 O247 1.216 . S
O247 C246 1.216 . S
H248 C243 0.930 . S
H249 C244 0.930 . S
O250 Cu230 1.959 . S
O250 C237 1.251 . S
H251 C234 0.930 . S
H252 C245 0.929 . S
Cu253 N254 1.999 . S
Cu253 O259 1.974 . S
Cu253 N264 1.985 . S
Cu253 O273 1.959 . S
N254 Cu253 1.999 . S
N254 C256 1.263 . S
N254 C258 1.389 . S
N255 C256 1.358 . S
N255 C257 1.400 . S
C256 N254 1.263 . S
C256 N255 1.358 . S
C256 H262 0.930 . S
C257 N255 1.400 . S
C257 C258 1.351 . S
C257 H274 0.930 . S
C258 N254 1.389 . S
C258 C257 1.351 . S
C258 H263 0.930 . S
O259 Cu253 1.974 . S
O259 C269 1.282 . S
C260 O261 1.261 . S
C260 O273 1.251 . S
O261 C260 1.261 . S
H262 C256 0.930 . S
H263 C258 0.930 . S
N264 Cu253 1.985 . S
N264 C266 1.335 . S
N264 C267 1.390 . S
N265 C266 1.345 . S
N265 C268 1.336 . S
C266 N264 1.335 . S
C266 N265 1.345 . S
C266 H271 0.930 . S
C267 N264 1.390 . S
C267 C268 1.346 . S
C267 H272 0.930 . S
C268 N265 1.336 . S
C268 C267 1.346 . S
C268 H275 0.929 . S
C269 O259 1.282 . S
C269 O270 1.216 . S
O270 C269 1.216 . S
H271 C266 0.930 . S
H272 C267 0.930 . S
O273 Cu253 1.959 . S
O273 C260 1.251 . S
H274 C257 0.930 . S
H275 C268 0.929 . S
Dy276 O280 2.398 . S
Dy276 O281 2.491 . S
Dy276 O282 2.403 . S
Dy276 O283 2.664 . S
Dy276 O287 2.326 . S
Dy276 O291 2.310 . S
Dy276 O292 2.351 . S
C277 O288 1.185 . S
C277 O289 1.355 . S
C278 O280 1.185 . S
C278 O281 1.355 . S
Dy279 O283 2.310 . S
Dy279 O286 2.351 . S
Dy279 O288 2.398 . S
Dy279 O289 2.491 . S
Dy279 O290 2.403 . S
Dy279 O291 2.664 . S
Dy279 O293 2.326 . S
O280 Dy276 2.398 . S
O280 C278 1.185 . S
O281 Dy276 2.491 . S
O281 C278 1.355 . S
O282 Dy276 2.403 . S
O282 C284 1.254 . S
O283 Dy276 2.664 . S
O283 Dy279 2.310 . S
O283 C284 1.268 . S
C284 O282 1.254 . S
C284 O283 1.268 . S
C285 O290 1.254 . S
C285 O291 1.268 . S
O286 Dy279 2.351 . S
O286 C294 1.249 . S
O287 Dy276 2.326 . S
O287 C294 1.267 . S
O288 C277 1.185 . S
O288 Dy279 2.398 . S
O289 C277 1.355 . S
O289 Dy279 2.491 . S
O290 Dy279 2.403 . S
O290 C285 1.254 . S
O291 Dy276 2.310 . S
O291 Dy279 2.664 . S
O291 C285 1.268 . S
O292 Dy276 2.351 . S
O292 C295 1.249 . S
O293 Dy279 2.326 . S
O293 C295 1.267 . S
C294 O286 1.249 . S
C294 O287 1.267 . S
C295 O292 1.249 . S
C295 O293 1.267 . S
Dy296 O300 2.398 . S
Dy296 O301 2.491 . S
Dy296 O302 2.403 . S
Dy296 O303 2.664 . S
Dy296 O307 2.326 . S
Dy296 O311 2.310 . S
Dy296 O312 2.351 . S
C297 O308 1.185 . S
C297 O309 1.355 . S
C298 O300 1.185 . S
C298 O301 1.355 . S
Dy299 O303 2.310 . S
Dy299 O306 2.351 . S
Dy299 O308 2.398 . S
Dy299 O309 2.491 . S
Dy299 O310 2.403 . S
Dy299 O311 2.664 . S
Dy299 O313 2.326 . S
O300 Dy296 2.398 . S
O300 C298 1.185 . S
O301 Dy296 2.491 . S
O301 C298 1.355 . S
O302 Dy296 2.403 . S
O302 C304 1.254 . S
O303 Dy296 2.664 . S
O303 Dy299 2.310 . S
O303 C304 1.268 . S
C304 O302 1.254 . S
C304 O303 1.268 . S
C305 O310 1.254 . S
C305 O311 1.268 . S
O306 Dy299 2.351 . S
O306 C314 1.249 . S
O307 Dy296 2.326 . S
O307 C314 1.267 . S
O308 C297 1.185 . S
O308 Dy299 2.398 . S
O309 C297 1.355 . S
O309 Dy299 2.491 . S
O310 Dy299 2.403 . S
O310 C305 1.254 . S
O311 Dy296 2.310 . S
O311 Dy299 2.664 . S
O311 C305 1.268 . S
O312 Dy296 2.351 . S
O312 C315 1.249 . S
O313 Dy299 2.326 . S
O313 C315 1.267 . S
C314 O306 1.249 . S
C314 O307 1.267 . S
C315 O312 1.249 . S
C315 O313 1.267 . S
Dy316 O320 2.398 . S
Dy316 O321 2.491 . S
Dy316 O322 2.403 . S
Dy316 O323 2.664 . S
Dy316 O327 2.326 . S
Dy316 O331 2.310 . S
Dy316 O332 2.351 . S
C317 O328 1.185 . S
C317 O329 1.355 . S
C318 O320 1.185 . S
C318 O321 1.355 . S
Dy319 O323 2.310 . S
Dy319 O326 2.351 . S
Dy319 O328 2.398 . S
Dy319 O329 2.491 . S
Dy319 O330 2.403 . S
Dy319 O331 2.664 . S
Dy319 O333 2.326 . S
O320 Dy316 2.398 . S
O320 C318 1.185 . S
O321 Dy316 2.491 . S
O321 C318 1.355 . S
O322 Dy316 2.403 . S
O322 C324 1.254 . S
O323 Dy316 2.664 . S
O323 Dy319 2.310 . S
O323 C324 1.268 . S
C324 O322 1.254 . S
C324 O323 1.268 . S
C325 O330 1.254 . S
C325 O331 1.268 . S
O326 Dy319 2.351 . S
O326 C334 1.249 . S
O327 Dy316 2.326 . S
O327 C334 1.267 . S
O328 C317 1.185 . S
O328 Dy319 2.398 . S
O329 C317 1.355 . S
O329 Dy319 2.491 . S
O330 Dy319 2.403 . S
O330 C325 1.254 . S
O331 Dy316 2.310 . S
O331 Dy319 2.664 . S
O331 C325 1.268 . S
O332 Dy316 2.351 . S
O332 C335 1.249 . S
O333 Dy319 2.326 . S
O333 C335 1.267 . S
C334 O326 1.249 . S
C334 O327 1.267 . S
C335 O332 1.249 . S
C335 O333 1.267 . S
Dy336 O340 2.398 . S
Dy336 O341 2.491 . S
Dy336 O342 2.403 . S
Dy336 O343 2.664 . S
Dy336 O347 2.326 . S
Dy336 O351 2.310 . S
Dy336 O352 2.351 . S
C337 O348 1.185 . S
C337 O349 1.355 . S
C338 O340 1.185 . S
C338 O341 1.355 . S
Dy339 O343 2.310 . S
Dy339 O346 2.351 . S
Dy339 O348 2.398 . S
Dy339 O349 2.491 . S
Dy339 O350 2.403 . S
Dy339 O351 2.664 . S
Dy339 O353 2.326 . S
O340 Dy336 2.398 . S
O340 C338 1.185 . S
O341 Dy336 2.491 . S
O341 C338 1.355 . S
O342 Dy336 2.403 . S
O342 C344 1.254 . S
O343 Dy336 2.664 . S
O343 Dy339 2.310 . S
O343 C344 1.268 . S
C344 O342 1.254 . S
C344 O343 1.268 . S
C345 O350 1.254 . S
C345 O351 1.268 . S
O346 Dy339 2.351 . S
O346 C354 1.249 . S
O347 Dy336 2.326 . S
O347 C354 1.267 . S
O348 C337 1.185 . S
O348 Dy339 2.398 . S
O349 C337 1.355 . S
O349 Dy339 2.491 . S
O350 Dy339 2.403 . S
O350 C345 1.254 . S
O351 Dy336 2.310 . S
O351 Dy339 2.664 . S
O351 C345 1.268 . S
O352 Dy336 2.351 . S
O352 C355 1.249 . S
O353 Dy339 2.326 . S
O353 C355 1.267 . S
C354 O346 1.249 . S
C354 O347 1.267 . S
C355 O352 1.249 . S
C355 O353 1.267 . S
Dy356 O360 2.398 . S
Dy356 O361 2.491 . S
Dy356 O362 2.403 . S
Dy356 O363 2.664 . S
Dy356 O367 2.326 . S
Dy356 O371 2.310 . S
Dy356 O372 2.351 . S
C357 O368 1.185 . S
C357 O369 1.355 . S
C358 O360 1.185 . S
C358 O361 1.355 . S
Dy359 O363 2.310 . S
Dy359 O366 2.351 . S
Dy359 O368 2.398 . S
Dy359 O369 2.491 . S
Dy359 O370 2.403 . S
Dy359 O371 2.664 . S
Dy359 O373 2.326 . S
O360 Dy356 2.398 . S
O360 C358 1.185 . S
O361 Dy356 2.491 . S
O361 C358 1.355 . S
O362 Dy356 2.403 . S
O362 C364 1.254 . S
O363 Dy356 2.664 . S
O363 Dy359 2.310 . S
O363 C364 1.268 . S
C364 O362 1.254 . S
C364 O363 1.268 . S
C365 O370 1.254 . S
C365 O371 1.268 . S
O366 Dy359 2.351 . S
O366 C374 1.249 . S
O367 Dy356 2.326 . S
O367 C374 1.267 . S
O368 C357 1.185 . S
O368 Dy359 2.398 . S
O369 C357 1.355 . S
O369 Dy359 2.491 . S
O370 Dy359 2.403 . S
O370 C365 1.254 . S
O371 Dy356 2.310 . S
O371 Dy359 2.664 . S
O371 C365 1.268 . S
O372 Dy356 2.351 . S
O372 C375 1.249 . S
O373 Dy359 2.326 . S
O373 C375 1.267 . S
C374 O366 1.249 . S
C374 O367 1.267 . S
C375 O372 1.249 . S
C375 O373 1.267 . S
Dy376 O380 2.398 . S
Dy376 O381 2.491 . S
Dy376 O382 2.403 . S
Dy376 O383 2.664 . S
Dy376 O387 2.326 . S
Dy376 O391 2.310 . S
Dy376 O392 2.351 . S
C377 O388 1.185 . S
C377 O389 1.355 . S
C378 O380 1.185 . S
C378 O381 1.355 . S
Dy379 O383 2.310 . S
Dy379 O386 2.351 . S
Dy379 O388 2.398 . S
Dy379 O389 2.491 . S
Dy379 O390 2.403 . S
Dy379 O391 2.664 . S
Dy379 O393 2.326 . S
O380 Dy376 2.398 . S
O380 C378 1.185 . S
O381 Dy376 2.491 . S
O381 C378 1.355 . S
O382 Dy376 2.403 . S
O382 C384 1.254 . S
O383 Dy376 2.664 . S
O383 Dy379 2.310 . S
O383 C384 1.268 . S
C384 O382 1.254 . S
C384 O383 1.268 . S
C385 O390 1.254 . S
C385 O391 1.268 . S
O386 Dy379 2.351 . S
O386 C394 1.249 . S
O387 Dy376 2.326 . S
O387 C394 1.267 . S
O388 C377 1.185 . S
O388 Dy379 2.398 . S
O389 C377 1.355 . S
O389 Dy379 2.491 . S
O390 Dy379 2.403 . S
O390 C385 1.254 . S
O391 Dy376 2.310 . S
O391 Dy379 2.664 . S
O391 C385 1.268 . S
O392 Dy376 2.351 . S
O392 C395 1.249 . S
O393 Dy379 2.326 . S
O393 C395 1.267 . S
C394 O386 1.249 . S
C394 O387 1.267 . S
C395 O392 1.249 . S
C395 O393 1.267 . S
Dy396 O400 2.398 . S
Dy396 O401 2.491 . S
Dy396 O402 2.403 . S
Dy396 O403 2.664 . S
Dy396 O407 2.326 . S
Dy396 O411 2.310 . S
Dy396 O412 2.351 . S
C397 O408 1.185 . S
C397 O409 1.355 . S
C398 O400 1.185 . S
C398 O401 1.355 . S
Dy399 O403 2.310 . S
Dy399 O406 2.351 . S
Dy399 O408 2.398 . S
Dy399 O409 2.491 . S
Dy399 O410 2.403 . S
Dy399 O411 2.664 . S
Dy399 O413 2.326 . S
O400 Dy396 2.398 . S
O400 C398 1.185 . S
O401 Dy396 2.491 . S
O401 C398 1.355 . S
O402 Dy396 2.403 . S
O402 C404 1.254 . S
O403 Dy396 2.664 . S
O403 Dy399 2.310 . S
O403 C404 1.268 . S
C404 O402 1.254 . S
C404 O403 1.268 . S
C405 O410 1.254 . S
C405 O411 1.268 . S
O406 Dy399 2.351 . S
O406 C414 1.249 . S
O407 Dy396 2.326 . S
O407 C414 1.267 . S
O408 C397 1.185 . S
O408 Dy399 2.398 . S
O409 C397 1.355 . S
O409 Dy399 2.491 . S
O410 Dy399 2.403 . S
O410 C405 1.254 . S
O411 Dy396 2.310 . S
O411 Dy399 2.664 . S
O411 C405 1.268 . S
O412 Dy396 2.351 . S
O412 C415 1.249 . S
O413 Dy399 2.326 . S
O413 C415 1.267 . S
C414 O406 1.249 . S
C414 O407 1.267 . S
C415 O412 1.249 . S
C415 O413 1.267 . S
Dy416 O420 2.398 . S
Dy416 O421 2.491 . S
Dy416 O422 2.403 . S
Dy416 O423 2.664 . S
Dy416 O427 2.326 . S
Dy416 O431 2.310 . S
Dy416 O432 2.351 . S
C417 O428 1.185 . S
C417 O429 1.355 . S
C418 O420 1.185 . S
C418 O421 1.355 . S
Dy419 O423 2.310 . S
Dy419 O426 2.351 . S
Dy419 O428 2.398 . S
Dy419 O429 2.491 . S
Dy419 O430 2.403 . S
Dy419 O431 2.664 . S
Dy419 O433 2.326 . S
O420 Dy416 2.398 . S
O420 C418 1.185 . S
O421 Dy416 2.491 . S
O421 C418 1.355 . S
O422 Dy416 2.403 . S
O422 C424 1.254 . S
O423 Dy416 2.664 . S
O423 Dy419 2.310 . S
O423 C424 1.268 . S
C424 O422 1.254 . S
C424 O423 1.268 . S
C425 O430 1.254 . S
C425 O431 1.268 . S
O426 Dy419 2.351 . S
O426 C434 1.249 . S
O427 Dy416 2.326 . S
O427 C434 1.267 . S
O428 C417 1.185 . S
O428 Dy419 2.398 . S
O429 C417 1.355 . S
O429 Dy419 2.491 . S
O430 Dy419 2.403 . S
O430 C425 1.254 . S
O431 Dy416 2.310 . S
O431 Dy419 2.664 . S
O431 C425 1.268 . S
O432 Dy416 2.351 . S
O432 C435 1.249 . S
O433 Dy419 2.326 . S
O433 C435 1.267 . S
C434 O426 1.249 . S
C434 O427 1.267 . S
C435 O432 1.249 . S
C435 O433 1.267 . S
H436 C448 0.930 . S
H437 C450 0.930 . S
H438 C451 0.930 . S
H439 C455 0.959 . S
H440 C455 0.959 . S
H441 C455 0.961 . S
H442 C456 0.960 . S
H443 C456 0.961 . S
H444 C456 0.959 . S
H445 C459 0.929 . S
H446 C460 0.931 . S
H447 C462 0.930 . S
C448 H436 0.930 . S
C448 C449 1.399 . S
C448 C453 1.399 . S
C449 C448 1.399 . S
C449 C450 1.376 . S
C450 H437 0.930 . S
C450 C449 1.376 . S
C450 C451 1.388 . S
C451 H438 0.930 . S
C451 C450 1.388 . S
C451 C452 1.390 . S
C452 C451 1.390 . S
C452 C453 1.394 . S
C452 C458 1.465 . S
C453 C448 1.399 . S
C453 C452 1.394 . S
C453 C454 1.516 . S
C454 C453 1.516 . S
C454 C455 1.502 . S
C454 C456 1.561 . S
C454 C457 1.526 . S
C455 H439 0.959 . S
C455 H440 0.959 . S
C455 H441 0.961 . S
C455 C454 1.502 . S
C456 H442 0.960 . S
C456 H443 0.961 . S
C456 H444 0.959 . S
C456 C454 1.561 . S
C457 C454 1.526 . S
C457 C458 1.396 . S
C457 C462 1.390 . S
C458 C452 1.465 . S
C458 C457 1.396 . S
C458 C459 1.399 . S
C459 H445 0.929 . S
C459 C458 1.399 . S
C459 C460 1.385 . S
C460 H446 0.931 . S
C460 C459 1.385 . S
C460 C461 1.389 . S
C461 C460 1.389 . S
C461 C462 1.387 . S
C462 H447 0.930 . S
C462 C457 1.390 . S
C462 C461 1.387 . S
H463 C475 0.930 . S
H464 C477 0.930 . S
H465 C478 0.930 . S
H466 C482 0.959 . S
H467 C482 0.959 . S
H468 C482 0.961 . S
H469 C483 0.960 . S
H470 C483 0.961 . S
H471 C483 0.959 . S
H472 C486 0.929 . S
H473 C487 0.931 . S
H474 C489 0.930 . S
C475 H463 0.930 . S
C475 C476 1.399 . S
C475 C480 1.399 . S
C476 C475 1.399 . S
C476 C477 1.376 . S
C477 H464 0.930 . S
C477 C476 1.376 . S
C477 C478 1.388 . S
C478 H465 0.930 . S
C478 C477 1.388 . S
C478 C479 1.390 . S
C479 C478 1.390 . S
C479 C480 1.394 . S
C479 C485 1.465 . S
C480 C475 1.399 . S
C480 C479 1.394 . S
C480 C481 1.516 . S
C481 C480 1.516 . S
C481 C482 1.502 . S
C481 C483 1.561 . S
C481 C484 1.526 . S
C482 H466 0.959 . S
C482 H467 0.959 . S
C482 H468 0.961 . S
C482 C481 1.502 . S
C483 H469 0.960 . S
C483 H470 0.961 . S
C483 H471 0.959 . S
C483 C481 1.561 . S
C484 C481 1.526 . S
C484 C485 1.396 . S
C484 C489 1.390 . S
C485 C479 1.465 . S
C485 C484 1.396 . S
C485 C486 1.399 . S
C486 H472 0.929 . S
C486 C485 1.399 . S
C486 C487 1.385 . S
C487 H473 0.931 . S
C487 C486 1.385 . S
C487 C488 1.389 . S
C488 C487 1.389 . S
C488 C489 1.387 . S
C489 H474 0.930 . S
C489 C484 1.390 . S
C489 C488 1.387 . S
H490 C502 0.930 . S
H491 C504 0.930 . S
H492 C505 0.930 . S
H493 C509 0.959 . S
H494 C509 0.959 . S
H495 C509 0.961 . S
H496 C510 0.960 . S
H497 C510 0.961 . S
H498 C510 0.959 . S
H499 C513 0.929 . S
H500 C514 0.931 . S
H501 C516 0.930 . S
C502 H490 0.930 . S
C502 C503 1.399 . S
C502 C507 1.399 . S
C503 C502 1.399 . S
C503 C504 1.376 . S
C504 H491 0.930 . S
C504 C503 1.376 . S
C504 C505 1.388 . S
C505 H492 0.930 . S
C505 C504 1.388 . S
C505 C506 1.390 . S
C506 C505 1.390 . S
C506 C507 1.394 . S
C506 C512 1.465 . S
C507 C502 1.399 . S
C507 C506 1.394 . S
C507 C508 1.516 . S
C508 C507 1.516 . S
C508 C509 1.502 . S
C508 C510 1.561 . S
C508 C511 1.526 . S
C509 H493 0.959 . S
C509 H494 0.959 . S
C509 H495 0.961 . S
C509 C508 1.502 . S
C510 H496 0.960 . S
C510 H497 0.961 . S
C510 H498 0.959 . S
C510 C508 1.561 . S
C511 C508 1.526 . S
C511 C512 1.396 . S
C511 C516 1.390 . S
C512 C506 1.465 . S
C512 C511 1.396 . S
C512 C513 1.399 . S
C513 H499 0.929 . S
C513 C512 1.399 . S
C513 C514 1.385 . S
C514 H500 0.931 . S
C514 C513 1.385 . S
C514 C515 1.389 . S
C515 C514 1.389 . S
C515 C516 1.387 . S
C516 H501 0.930 . S
C516 C511 1.390 . S
C516 C515 1.387 . S
H517 C529 0.930 . S
H518 C531 0.930 . S
H519 C532 0.930 . S
H520 C536 0.959 . S
H521 C536 0.959 . S
H522 C536 0.961 . S
H523 C537 0.960 . S
H524 C537 0.961 . S
H525 C537 0.959 . S
H526 C540 0.929 . S
H527 C541 0.931 . S
H528 C543 0.930 . S
C529 H517 0.930 . S
C529 C530 1.399 . S
C529 C534 1.399 . S
C530 C529 1.399 . S
C530 C531 1.376 . S
C531 H518 0.930 . S
C531 C530 1.376 . S
C531 C532 1.388 . S
C532 H519 0.930 . S
C532 C531 1.388 . S
C532 C533 1.390 . S
C533 C532 1.390 . S
C533 C534 1.394 . S
C533 C539 1.465 . S
C534 C529 1.399 . S
C534 C533 1.394 . S
C534 C535 1.516 . S
C535 C534 1.516 . S
C535 C536 1.502 . S
C535 C537 1.561 . S
C535 C538 1.526 . S
C536 H520 0.959 . S
C536 H521 0.959 . S
C536 H522 0.961 . S
C536 C535 1.502 . S
C537 H523 0.960 . S
C537 H524 0.961 . S
C537 H525 0.959 . S
C537 C535 1.561 . S
C538 C535 1.526 . S
C538 C539 1.396 . S
C538 C543 1.390 . S
C539 C533 1.465 . S
C539 C538 1.396 . S
C539 C540 1.399 . S
C540 H526 0.929 . S
C540 C539 1.399 . S
C540 C541 1.385 . S
C541 H527 0.931 . S
C541 C540 1.385 . S
C541 C542 1.389 . S
C542 C541 1.389 . S
C542 C543 1.387 . S
C543 H528 0.930 . S
C543 C538 1.390 . S
C543 C542 1.387 . S
H544 C556 0.930 . S
H545 C558 0.930 . S
H546 C559 0.930 . S
H547 C563 0.959 . S
H548 C563 0.959 . S
H549 C563 0.961 . S
H550 C564 0.960 . S
H551 C564 0.961 . S
H552 C564 0.959 . S
H553 C567 0.929 . S
H554 C568 0.931 . S
H555 C570 0.930 . S
C556 H544 0.930 . S
C556 C557 1.399 . S
C556 C561 1.399 . S
C557 C556 1.399 . S
C557 C558 1.376 . S
C558 H545 0.930 . S
C558 C557 1.376 . S
C558 C559 1.388 . S
C559 H546 0.930 . S
C559 C558 1.388 . S
C559 C560 1.390 . S
C560 C559 1.390 . S
C560 C561 1.394 . S
C560 C566 1.465 . S
C561 C556 1.399 . S
C561 C560 1.394 . S
C561 C562 1.516 . S
C562 C561 1.516 . S
C562 C563 1.502 . S
C562 C564 1.561 . S
C562 C565 1.526 . S
C563 H547 0.959 . S
C563 H548 0.959 . S
C563 H549 0.961 . S
C563 C562 1.502 . S
C564 H550 0.960 . S
C564 H551 0.961 . S
C564 H552 0.959 . S
C564 C562 1.561 . S
C565 C562 1.526 . S
C565 C566 1.396 . S
C565 C570 1.390 . S
C566 C560 1.465 . S
C566 C565 1.396 . S
C566 C567 1.399 . S
C567 H553 0.929 . S
C567 C566 1.399 . S
C567 C568 1.385 . S
C568 H554 0.931 . S
C568 C567 1.385 . S
C568 C569 1.389 . S
C569 C568 1.389 . S
C569 C570 1.387 . S
C570 H555 0.930 . S
C570 C565 1.390 . S
C570 C569 1.387 . S
H571 C583 0.930 . S
H572 C585 0.930 . S
H573 C586 0.930 . S
H574 C590 0.959 . S
H575 C590 0.959 . S
H576 C590 0.961 . S
H577 C591 0.960 . S
H578 C591 0.961 . S
H579 C591 0.959 . S
H580 C594 0.929 . S
H581 C595 0.931 . S
H582 C597 0.930 . S
C583 H571 0.930 . S
C583 C584 1.399 . S
C583 C588 1.399 . S
C584 C583 1.399 . S
C584 C585 1.376 . S
C585 H572 0.930 . S
C585 C584 1.376 . S
C585 C586 1.388 . S
C586 H573 0.930 . S
C586 C585 1.388 . S
C586 C587 1.390 . S
C587 C586 1.390 . S
C587 C588 1.394 . S
C587 C593 1.465 . S
C588 C583 1.399 . S
C588 C587 1.394 . S
C588 C589 1.516 . S
C589 C588 1.516 . S
C589 C590 1.502 . S
C589 C591 1.561 . S
C589 C592 1.526 . S
C590 H574 0.959 . S
C590 H575 0.959 . S
C590 H576 0.961 . S
C590 C589 1.502 . S
C591 H577 0.960 . S
C591 H578 0.961 . S
C591 H579 0.959 . S
C591 C589 1.561 . S
C592 C589 1.526 . S
C592 C593 1.396 . S
C592 C597 1.390 . S
C593 C587 1.465 . S
C593 C592 1.396 . S
C593 C594 1.399 . S
C594 H580 0.929 . S
C594 C593 1.399 . S
C594 C595 1.385 . S
C595 H581 0.931 . S
C595 C594 1.385 . S
C595 C596 1.389 . S
C596 C595 1.389 . S
C596 C597 1.387 . S
C597 H582 0.930 . S
C597 C592 1.390 . S
C597 C596 1.387 . S
H598 C610 0.930 . S
H599 C612 0.930 . S
H600 C613 0.930 . S
H601 C617 0.959 . S
H602 C617 0.959 . S
H603 C617 0.961 . S
H604 C618 0.960 . S
H605 C618 0.961 . S
H606 C618 0.959 . S
H607 C621 0.929 . S
H608 C622 0.931 . S
H609 C624 0.930 . S
C610 H598 0.930 . S
C610 C611 1.399 . S
C610 C615 1.399 . S
C611 C610 1.399 . S
C611 C612 1.376 . S
C612 H599 0.930 . S
C612 C611 1.376 . S
C612 C613 1.388 . S
C613 H600 0.930 . S
C613 C612 1.388 . S
C613 C614 1.390 . S
C614 C613 1.390 . S
C614 C615 1.394 . S
C614 C620 1.465 . S
C615 C610 1.399 . S
C615 C614 1.394 . S
C615 C616 1.516 . S
C616 C615 1.516 . S
C616 C617 1.502 . S
C616 C618 1.561 . S
C616 C619 1.526 . S
C617 H601 0.959 . S
C617 H602 0.959 . S
C617 H603 0.961 . S
C617 C616 1.502 . S
C618 H604 0.960 . S
C618 H605 0.961 . S
C618 H606 0.959 . S
C618 C616 1.561 . S
C619 C616 1.526 . S
C619 C620 1.396 . S
C619 C624 1.390 . S
C620 C614 1.465 . S
C620 C619 1.396 . S
C620 C621 1.399 . S
C621 H607 0.929 . S
C621 C620 1.399 . S
C621 C622 1.385 . S
C622 H608 0.931 . S
C622 C621 1.385 . S
C622 C623 1.389 . S
C623 C622 1.389 . S
C623 C624 1.387 . S
C624 H609 0.930 . S
C624 C619 1.390 . S
C624 C623 1.387 . S
H625 C637 0.930 . S
H626 C639 0.930 . S
H627 C640 0.930 . S
H628 C644 0.959 . S
H629 C644 0.959 . S
H630 C644 0.961 . S
H631 C645 0.960 . S
H632 C645 0.961 . S
H633 C645 0.959 . S
H634 C648 0.929 . S
H635 C649 0.931 . S
H636 C651 0.930 . S
C637 H625 0.930 . S
C637 C638 1.399 . S
C637 C642 1.399 . S
C638 C637 1.399 . S
C638 C639 1.376 . S
C639 H626 0.930 . S
C639 C638 1.376 . S
C639 C640 1.388 . S
C640 H627 0.930 . S
C640 C639 1.388 . S
C640 C641 1.390 . S
C641 C640 1.390 . S
C641 C642 1.394 . S
C641 C647 1.465 . S
C642 C637 1.399 . S
C642 C641 1.394 . S
C642 C643 1.516 . S
C643 C642 1.516 . S
C643 C644 1.502 . S
C643 C645 1.561 . S
C643 C646 1.526 . S
C644 H628 0.959 . S
C644 H629 0.959 . S
C644 H630 0.961 . S
C644 C643 1.502 . S
C645 H631 0.960 . S
C645 H632 0.961 . S
C645 H633 0.959 . S
C645 C643 1.561 . S
C646 C643 1.526 . S
C646 C647 1.396 . S
C646 C651 1.390 . S
C647 C641 1.465 . S
C647 C646 1.396 . S
C647 C648 1.399 . S
C648 H634 0.929 . S
C648 C647 1.399 . S
C648 C649 1.385 . S
C649 H635 0.931 . S
C649 C648 1.385 . S
C649 C650 1.389 . S
C650 C649 1.389 . S
C650 C651 1.387 . S
C651 H636 0.930 . S
C651 C646 1.390 . S
C651 C650 1.387 . S
H652 C664 0.930 . S
H653 C666 0.930 . S
H654 C667 0.930 . S
H655 C671 0.959 . S
H656 C671 0.959 . S
H657 C671 0.961 . S
H658 C672 0.960 . S
H659 C672 0.961 . S
H660 C672 0.959 . S
H661 C675 0.929 . S
H662 C676 0.931 . S
H663 C678 0.930 . S
C664 H652 0.930 . S
C664 C665 1.399 . S
C664 C669 1.399 . S
C665 C664 1.399 . S
C665 C666 1.376 . S
C666 H653 0.930 . S
C666 C665 1.376 . S
C666 C667 1.388 . S
C667 H654 0.930 . S
C667 C666 1.388 . S
C667 C668 1.390 . S
C668 C667 1.390 . S
C668 C669 1.394 . S
C668 C674 1.465 . S
C669 C664 1.399 . S
C669 C668 1.394 . S
C669 C670 1.516 . S
C670 C669 1.516 . S
C670 C671 1.502 . S
C670 C672 1.561 . S
C670 C673 1.526 . S
C671 H655 0.959 . S
C671 H656 0.959 . S
C671 H657 0.961 . S
C671 C670 1.502 . S
C672 H658 0.960 . S
C672 H659 0.961 . S
C672 H660 0.959 . S
C672 C670 1.561 . S
C673 C670 1.526 . S
C673 C674 1.396 . S
C673 C678 1.390 . S
C674 C668 1.465 . S
C674 C673 1.396 . S
C674 C675 1.399 . S
C675 H661 0.929 . S
C675 C674 1.399 . S
C675 C676 1.385 . S
C676 H662 0.931 . S
C676 C675 1.385 . S
C676 C677 1.389 . S
C677 C676 1.389 . S
C677 C678 1.387 . S
C678 H663 0.930 . S
C678 C673 1.390 . S
C678 C677 1.387 . S
H679 C691 0.930 . S
H680 C693 0.930 . S
H681 C694 0.930 . S
H682 C698 0.959 . S
H683 C698 0.959 . S
H684 C698 0.961 . S
H685 C699 0.960 . S
H686 C699 0.961 . S
H687 C699 0.959 . S
H688 C702 0.929 . S
H689 C703 0.931 . S
H690 C705 0.930 . S
C691 H679 0.930 . S
C691 C692 1.399 . S
C691 C696 1.399 . S
C692 C691 1.399 . S
C692 C693 1.376 . S
C693 H680 0.930 . S
C693 C692 1.376 . S
C693 C694 1.388 . S
C694 H681 0.930 . S
C694 C693 1.388 . S
C694 C695 1.390 . S
C695 C694 1.390 . S
C695 C696 1.394 . S
C695 C701 1.465 . S
C696 C691 1.399 . S
C696 C695 1.394 . S
C696 C697 1.516 . S
C697 C696 1.516 . S
C697 C698 1.502 . S
C697 C699 1.561 . S
C697 C700 1.526 . S
C698 H682 0.959 . S
C698 H683 0.959 . S
C698 H684 0.961 . S
C698 C697 1.502 . S
C699 H685 0.960 . S
C699 H686 0.961 . S
C699 H687 0.959 . S
C699 C697 1.561 . S
C700 C697 1.526 . S
C700 C701 1.396 . S
C700 C705 1.390 . S
C701 C695 1.465 . S
C701 C700 1.396 . S
C701 C702 1.399 . S
C702 H688 0.929 . S
C702 C701 1.399 . S
C702 C703 1.385 . S
C703 H689 0.931 . S
C703 C702 1.385 . S
C703 C704 1.389 . S
C704 C703 1.389 . S
C704 C705 1.387 . S
C705 H690 0.930 . S
C705 C700 1.390 . S
C705 C704 1.387 . S
H706 C718 0.930 . S
H707 C720 0.930 . S
H708 C721 0.930 . S
H709 C725 0.959 . S
H710 C725 0.959 . S
H711 C725 0.961 . S
H712 C726 0.960 . S
H713 C726 0.961 . S
H714 C726 0.959 . S
H715 C729 0.929 . S
H716 C730 0.931 . S
H717 C732 0.930 . S
C718 H706 0.930 . S
C718 C719 1.399 . S
C718 C723 1.399 . S
C719 C718 1.399 . S
C719 C720 1.376 . S
C720 H707 0.930 . S
C720 C719 1.376 . S
C720 C721 1.388 . S
C721 H708 0.930 . S
C721 C720 1.388 . S
C721 C722 1.390 . S
C722 C721 1.390 . S
C722 C723 1.394 . S
C722 C728 1.465 . S
C723 C718 1.399 . S
C723 C722 1.394 . S
C723 C724 1.516 . S
C724 C723 1.516 . S
C724 C725 1.502 . S
C724 C726 1.561 . S
C724 C727 1.526 . S
C725 H709 0.959 . S
C725 H710 0.959 . S
C725 H711 0.961 . S
C725 C724 1.502 . S
C726 H712 0.960 . S
C726 H713 0.961 . S
C726 H714 0.959 . S
C726 C724 1.561 . S
C727 C724 1.526 . S
C727 C728 1.396 . S
C727 C732 1.390 . S
C728 C722 1.465 . S
C728 C727 1.396 . S
C728 C729 1.399 . S
C729 H715 0.929 . S
C729 C728 1.399 . S
C729 C730 1.385 . S
C730 H716 0.931 . S
C730 C729 1.385 . S
C730 C731 1.389 . S
C731 C730 1.389 . S
C731 C732 1.387 . S
C732 H717 0.930 . S
C732 C727 1.390 . S
C732 C731 1.387 . S
H733 C745 0.930 . S
H734 C747 0.930 . S
H735 C748 0.930 . S
H736 C752 0.959 . S
H737 C752 0.959 . S
H738 C752 0.961 . S
H739 C753 0.960 . S
H740 C753 0.961 . S
H741 C753 0.959 . S
H742 C756 0.929 . S
H743 C757 0.931 . S
H744 C759 0.930 . S
C745 H733 0.930 . S
C745 C746 1.399 . S
C745 C750 1.399 . S
C746 C745 1.399 . S
C746 C747 1.376 . S
C747 H734 0.930 . S
C747 C746 1.376 . S
C747 C748 1.388 . S
C748 H735 0.930 . S
C748 C747 1.388 . S
C748 C749 1.390 . S
C749 C748 1.390 . S
C749 C750 1.394 . S
C749 C755 1.465 . S
C750 C745 1.399 . S
C750 C749 1.394 . S
C750 C751 1.516 . S
C751 C750 1.516 . S
C751 C752 1.502 . S
C751 C753 1.561 . S
C751 C754 1.526 . S
C752 H736 0.959 . S
C752 H737 0.959 . S
C752 H738 0.961 . S
C752 C751 1.502 . S
C753 H739 0.960 . S
C753 H740 0.961 . S
C753 H741 0.959 . S
C753 C751 1.561 . S
C754 C751 1.526 . S
C754 C755 1.396 . S
C754 C759 1.390 . S
C755 C749 1.465 . S
C755 C754 1.396 . S
C755 C756 1.399 . S
C756 H742 0.929 . S
C756 C755 1.399 . S
C756 C757 1.385 . S
C757 H743 0.931 . S
C757 C756 1.385 . S
C757 C758 1.389 . S
C758 C757 1.389 . S
C758 C759 1.387 . S
C759 H744 0.930 . S
C759 C754 1.390 . S
C759 C758 1.387 . S
H760 C772 0.930 . S
H761 C774 0.930 . S
H762 C775 0.930 . S
H763 C779 0.959 . S
H764 C779 0.959 . S
H765 C779 0.961 . S
H766 C780 0.960 . S
H767 C780 0.961 . S
H768 C780 0.959 . S
H769 C783 0.929 . S
H770 C784 0.931 . S
H771 C786 0.930 . S
C772 H760 0.930 . S
C772 C773 1.399 . S
C772 C777 1.399 . S
C773 C772 1.399 . S
C773 C774 1.376 . S
C774 H761 0.930 . S
C774 C773 1.376 . S
C774 C775 1.388 . S
C775 H762 0.930 . S
C775 C774 1.388 . S
C775 C776 1.390 . S
C776 C775 1.390 . S
C776 C777 1.394 . S
C776 C782 1.465 . S
C777 C772 1.399 . S
C777 C776 1.394 . S
C777 C778 1.516 . S
C778 C777 1.516 . S
C778 C779 1.502 . S
C778 C780 1.561 . S
C778 C781 1.526 . S
C779 H763 0.959 . S
C779 H764 0.959 . S
C779 H765 0.961 . S
C779 C778 1.502 . S
C780 H766 0.960 . S
C780 H767 0.961 . S
C780 H768 0.959 . S
C780 C778 1.561 . S
C781 C778 1.526 . S
C781 C782 1.396 . S
C781 C786 1.390 . S
C782 C776 1.465 . S
C782 C781 1.396 . S
C782 C783 1.399 . S
C783 H769 0.929 . S
C783 C782 1.399 . S
C783 C784 1.385 . S
C784 H770 0.931 . S
C784 C783 1.385 . S
C784 C785 1.389 . S
C785 C784 1.389 . S
C785 C786 1.387 . S
C786 H771 0.930 . S
C786 C781 1.390 . S
C786 C785 1.387 . S
H787 C799 0.930 . S
H788 C801 0.930 . S
H789 C802 0.930 . S
H790 C806 0.959 . S
H791 C806 0.959 . S
H792 C806 0.961 . S
H793 C807 0.960 . S
H794 C807 0.961 . S
H795 C807 0.959 . S
H796 C810 0.929 . S
H797 C811 0.931 . S
H798 C813 0.930 . S
C799 H787 0.930 . S
C799 C800 1.399 . S
C799 C804 1.399 . S
C800 C799 1.399 . S
C800 C801 1.376 . S
C801 H788 0.930 . S
C801 C800 1.376 . S
C801 C802 1.388 . S
C802 H789 0.930 . S
C802 C801 1.388 . S
C802 C803 1.390 . S
C803 C802 1.390 . S
C803 C804 1.394 . S
C803 C809 1.465 . S
C804 C799 1.399 . S
C804 C803 1.394 . S
C804 C805 1.516 . S
C805 C804 1.516 . S
C805 C806 1.502 . S
C805 C807 1.561 . S
C805 C808 1.526 . S
C806 H790 0.959 . S
C806 H791 0.959 . S
C806 H792 0.961 . S
C806 C805 1.502 . S
C807 H793 0.960 . S
C807 H794 0.961 . S
C807 H795 0.959 . S
C807 C805 1.561 . S
C808 C805 1.526 . S
C808 C809 1.396 . S
C808 C813 1.390 . S
C809 C803 1.465 . S
C809 C808 1.396 . S
C809 C810 1.399 . S
C810 H796 0.929 . S
C810 C809 1.399 . S
C810 C811 1.385 . S
C811 H797 0.931 . S
C811 C810 1.385 . S
C811 C812 1.389 . S
C812 C811 1.389 . S
C812 C813 1.387 . S
C813 H798 0.930 . S
C813 C808 1.390 . S
C813 C812 1.387 . S
H814 C826 0.930 . S
H815 C828 0.930 . S
H816 C829 0.930 . S
H817 C833 0.959 . S
H818 C833 0.959 . S
H819 C833 0.961 . S
H820 C834 0.960 . S
H821 C834 0.961 . S
H822 C834 0.959 . S
H823 C837 0.929 . S
H824 C838 0.931 . S
H825 C840 0.930 . S
C826 H814 0.930 . S
C826 C827 1.399 . S
C826 C831 1.399 . S
C827 C826 1.399 . S
C827 C828 1.376 . S
C828 H815 0.930 . S
C828 C827 1.376 . S
C828 C829 1.388 . S
C829 H816 0.930 . S
C829 C828 1.388 . S
C829 C830 1.390 . S
C830 C829 1.390 . S
C830 C831 1.394 . S
C830 C836 1.465 . S
C831 C826 1.399 . S
C831 C830 1.394 . S
C831 C832 1.516 . S
C832 C831 1.516 . S
C832 C833 1.502 . S
C832 C834 1.561 . S
C832 C835 1.526 . S
C833 H817 0.959 . S
C833 H818 0.959 . S
C833 H819 0.961 . S
C833 C832 1.502 . S
C834 H820 0.960 . S
C834 H821 0.961 . S
C834 H822 0.959 . S
C834 C832 1.561 . S
C835 C832 1.526 . S
C835 C836 1.396 . S
C835 C840 1.390 . S
C836 C830 1.465 . S
C836 C835 1.396 . S
C836 C837 1.399 . S
C837 H823 0.929 . S
C837 C836 1.399 . S
C837 C838 1.385 . S
C838 H824 0.931 . S
C838 C837 1.385 . S
C838 C839 1.389 . S
C839 C838 1.389 . S
C839 C840 1.387 . S
C840 H825 0.930 . S
C840 C835 1.390 . S
C840 C839 1.387 . S
H841 C853 0.930 . S
H842 C855 0.930 . S
H843 C856 0.930 . S
H844 C860 0.959 . S
H845 C860 0.959 . S
H846 C860 0.961 . S
H847 C861 0.960 . S
H848 C861 0.961 . S
H849 C861 0.959 . S
H850 C864 0.929 . S
H851 C865 0.931 . S
H852 C867 0.930 . S
C853 H841 0.930 . S
C853 C854 1.399 . S
C853 C858 1.399 . S
C854 C853 1.399 . S
C854 C855 1.376 . S
C855 H842 0.930 . S
C855 C854 1.376 . S
C855 C856 1.388 . S
C856 H843 0.930 . S
C856 C855 1.388 . S
C856 C857 1.390 . S
C857 C856 1.390 . S
C857 C858 1.394 . S
C857 C863 1.465 . S
C858 C853 1.399 . S
C858 C857 1.394 . S
C858 C859 1.516 . S
C859 C858 1.516 . S
C859 C860 1.502 . S
C859 C861 1.561 . S
C859 C862 1.526 . S
C860 H844 0.959 . S
C860 H845 0.959 . S
C860 H846 0.961 . S
C860 C859 1.502 . S
C861 H847 0.960 . S
C861 H848 0.961 . S
C861 H849 0.959 . S
C861 C859 1.561 . S
C862 C859 1.526 . S
C862 C863 1.396 . S
C862 C867 1.390 . S
C863 C857 1.465 . S
C863 C862 1.396 . S
C863 C864 1.399 . S
C864 H850 0.929 . S
C864 C863 1.399 . S
C864 C865 1.385 . S
C865 H851 0.931 . S
C865 C864 1.385 . S
C865 C866 1.389 . S
C866 C865 1.389 . S
C866 C867 1.387 . S
C867 H852 0.930 . S
C867 C862 1.390 . S
C867 C866 1.387 . S
H868 C880 0.930 . S
H869 C882 0.930 . S
H870 C883 0.930 . S
H871 C887 0.959 . S
H872 C887 0.959 . S
H873 C887 0.961 . S
H874 C888 0.960 . S
H875 C888 0.961 . S
H876 C888 0.959 . S
H877 C891 0.929 . S
H878 C892 0.931 . S
H879 C894 0.930 . S
C880 H868 0.930 . S
C880 C881 1.399 . S
C880 C885 1.399 . S
C881 C880 1.399 . S
C881 C882 1.376 . S
C882 H869 0.930 . S
C882 C881 1.376 . S
C882 C883 1.388 . S
C883 H870 0.930 . S
C883 C882 1.388 . S
C883 C884 1.390 . S
C884 C883 1.390 . S
C884 C885 1.394 . S
C884 C890 1.465 . S
C885 C880 1.399 . S
C885 C884 1.394 . S
C885 C886 1.516 . S
C886 C885 1.516 . S
C886 C887 1.502 . S
C886 C888 1.561 . S
C886 C889 1.526 . S
C887 H871 0.959 . S
C887 H872 0.959 . S
C887 H873 0.961 . S
C887 C886 1.502 . S
C888 H874 0.960 . S
C888 H875 0.961 . S
C888 H876 0.959 . S
C888 C886 1.561 . S
C889 C886 1.526 . S
C889 C890 1.396 . S
C889 C894 1.390 . S
C890 C884 1.465 . S
C890 C889 1.396 . S
C890 C891 1.399 . S
C891 H877 0.929 . S
C891 C890 1.399 . S
C891 C892 1.385 . S
C892 H878 0.931 . S
C892 C891 1.385 . S
C892 C893 1.389 . S
C893 C892 1.389 . S
C893 C894 1.387 . S
C894 H879 0.930 . S
C894 C889 1.390 . S
C894 C893 1.387 . S
H895 C907 0.930 . S
H896 C909 0.930 . S
H897 C910 0.930 . S
H898 C914 0.959 . S
H899 C914 0.959 . S
H900 C914 0.961 . S
H901 C915 0.960 . S
H902 C915 0.961 . S
H903 C915 0.959 . S
H904 C918 0.929 . S
H905 C919 0.931 . S
H906 C921 0.930 . S
C907 H895 0.930 . S
C907 C908 1.399 . S
C907 C912 1.399 . S
C908 C907 1.399 . S
C908 C909 1.376 . S
C909 H896 0.930 . S
C909 C908 1.376 . S
C909 C910 1.388 . S
C910 H897 0.930 . S
C910 C909 1.388 . S
C910 C911 1.390 . S
C911 C910 1.390 . S
C911 C912 1.394 . S
C911 C917 1.465 . S
C912 C907 1.399 . S
C912 C911 1.394 . S
C912 C913 1.516 . S
C913 C912 1.516 . S
C913 C914 1.502 . S
C913 C915 1.561 . S
C913 C916 1.526 . S
C914 H898 0.959 . S
C914 H899 0.959 . S
C914 H900 0.961 . S
C914 C913 1.502 . S
C915 H901 0.960 . S
C915 H902 0.961 . S
C915 H903 0.959 . S
C915 C913 1.561 . S
C916 C913 1.526 . S
C916 C917 1.396 . S
C916 C921 1.390 . S
C917 C911 1.465 . S
C917 C916 1.396 . S
C917 C918 1.399 . S
C918 H904 0.929 . S
C918 C917 1.399 . S
C918 C919 1.385 . S
C919 H905 0.931 . S
C919 C918 1.385 . S
C919 C920 1.389 . S
C920 C919 1.389 . S
C920 C921 1.387 . S
C921 H906 0.930 . S
C921 C916 1.390 . S
C921 C920 1.387 . S
H922 C934 0.930 . S
H923 C936 0.930 . S
H924 C937 0.930 . S
H925 C941 0.959 . S
H926 C941 0.959 . S
H927 C941 0.961 . S
H928 C942 0.960 . S
H929 C942 0.961 . S
H930 C942 0.959 . S
H931 C945 0.929 . S
H932 C946 0.931 . S
H933 C948 0.930 . S
C934 H922 0.930 . S
C934 C935 1.399 . S
C934 C939 1.399 . S
C935 C934 1.399 . S
C935 C936 1.376 . S
C936 H923 0.930 . S
C936 C935 1.376 . S
C936 C937 1.388 . S
C937 H924 0.930 . S
C937 C936 1.388 . S
C937 C938 1.390 . S
C938 C937 1.390 . S
C938 C939 1.394 . S
C938 C944 1.465 . S
C939 C934 1.399 . S
C939 C938 1.394 . S
C939 C940 1.516 . S
C940 C939 1.516 . S
C940 C941 1.502 . S
C940 C942 1.561 . S
C940 C943 1.526 . S
C941 H925 0.959 . S
C941 H926 0.959 . S
C941 H927 0.961 . S
C941 C940 1.502 . S
C942 H928 0.960 . S
C942 H929 0.961 . S
C942 H930 0.959 . S
C942 C940 1.561 . S
C943 C940 1.526 . S
C943 C944 1.396 . S
C943 C948 1.390 . S
C944 C938 1.465 . S
C944 C943 1.396 . S
C944 C945 1.399 . S
C945 H931 0.929 . S
C945 C944 1.399 . S
C945 C946 1.385 . S
C946 H932 0.931 . S
C946 C945 1.385 . S
C946 C947 1.389 . S
C947 C946 1.389 . S
C947 C948 1.387 . S
C948 H933 0.930 . S
C948 C943 1.390 . S
C948 C947 1.387 . S
H949 C961 0.930 . S
H950 C963 0.930 . S
H951 C964 0.930 . S
H952 C968 0.959 . S
H953 C968 0.959 . S
H954 C968 0.961 . S
H955 C969 0.960 . S
H956 C969 0.961 . S
H957 C969 0.959 . S
H958 C972 0.929 . S
H959 C973 0.931 . S
H960 C975 0.930 . S
C961 H949 0.930 . S
C961 C962 1.399 . S
C961 C966 1.399 . S
C962 C961 1.399 . S
C962 C963 1.376 . S
C963 H950 0.930 . S
C963 C962 1.376 . S
C963 C964 1.388 . S
C964 H951 0.930 . S
C964 C963 1.388 . S
C964 C965 1.390 . S
C965 C964 1.390 . S
C965 C966 1.394 . S
C965 C971 1.465 . S
C966 C961 1.399 . S
C966 C965 1.394 . S
C966 C967 1.516 . S
C967 C966 1.516 . S
C967 C968 1.502 . S
C967 C969 1.561 . S
C967 C970 1.526 . S
C968 H952 0.959 . S
C968 H953 0.959 . S
C968 H954 0.961 . S
C968 C967 1.502 . S
C969 H955 0.960 . S
C969 H956 0.961 . S
C969 H957 0.959 . S
C969 C967 1.561 . S
C970 C967 1.526 . S
C970 C971 1.396 . S
C970 C975 1.390 . S
C971 C965 1.465 . S
C971 C970 1.396 . S
C971 C972 1.399 . S
C972 H958 0.929 . S
C972 C971 1.399 . S
C972 C973 1.385 . S
C973 H959 0.931 . S
C973 C972 1.385 . S
C973 C974 1.389 . S
C974 C973 1.389 . S
C974 C975 1.387 . S
C975 H960 0.930 . S
C975 C970 1.390 . S
C975 C974 1.387 . S
H976 C988 0.930 . S
H977 C990 0.930 . S
H978 C991 0.930 . S
H979 C995 0.959 . S
H980 C995 0.959 . S
H981 C995 0.961 . S
H982 C996 0.960 . S
H983 C996 0.961 . S
H984 C996 0.959 . S
H985 C999 0.929 . S
H986 C1000 0.931 . S
H987 C1002 0.930 . S
C988 H976 0.930 . S
C988 C989 1.399 . S
C988 C993 1.399 . S
C989 C988 1.399 . S
C989 C990 1.376 . S
C990 H977 0.930 . S
C990 C989 1.376 . S
C990 C991 1.388 . S
C991 H978 0.930 . S
C991 C990 1.388 . S
C991 C992 1.390 . S
C992 C991 1.390 . S
C992 C993 1.394 . S
C992 C998 1.465 . S
C993 C988 1.399 . S
C993 C992 1.394 . S
C993 C994 1.516 . S
C994 C993 1.516 . S
C994 C995 1.502 . S
C994 C996 1.561 . S
C994 C997 1.526 . S
C995 H979 0.959 . S
C995 H980 0.959 . S
C995 H981 0.961 . S
C995 C994 1.502 . S
C996 H982 0.960 . S
C996 H983 0.961 . S
C996 H984 0.959 . S
C996 C994 1.561 . S
C997 C994 1.526 . S
C997 C998 1.396 . S
C997 C1002 1.390 . S
C998 C992 1.465 . S
C998 C997 1.396 . S
C998 C999 1.399 . S
C999 H985 0.929 . S
C999 C998 1.399 . S
C999 C1000 1.385 . S
C1000 H986 0.931 . S
C1000 C999 1.385 . S
C1000 C1001 1.389 . S
C1001 C1000 1.389 . S
C1001 C1002 1.387 . S
C1002 H987 0.930 . S
C1002 C997 1.390 . S
C1002 C1001 1.387 . S
H1003 C1015 0.930 . S
H1004 C1017 0.930 . S
H1005 C1018 0.930 . S
H1006 C1022 0.959 . S
H1007 C1022 0.959 . S
H1008 C1022 0.961 . S
H1009 C1023 0.960 . S
H1010 C1023 0.961 . S
H1011 C1023 0.959 . S
H1012 C1026 0.929 . S
H1013 C1027 0.931 . S
H1014 C1029 0.930 . S
C1015 H1003 0.930 . S
C1015 C1016 1.399 . S
C1015 C1020 1.399 . S
C1016 C1015 1.399 . S
C1016 C1017 1.376 . S
C1017 H1004 0.930 . S
C1017 C1016 1.376 . S
C1017 C1018 1.388 . S
C1018 H1005 0.930 . S
C1018 C1017 1.388 . S
C1018 C1019 1.390 . S
C1019 C1018 1.390 . S
C1019 C1020 1.394 . S
C1019 C1025 1.465 . S
C1020 C1015 1.399 . S
C1020 C1019 1.394 . S
C1020 C1021 1.516 . S
C1021 C1020 1.516 . S
C1021 C1022 1.502 . S
C1021 C1023 1.561 . S
C1021 C1024 1.526 . S
C1022 H1006 0.959 . S
C1022 H1007 0.959 . S
C1022 H1008 0.961 . S
C1022 C1021 1.502 . S
C1023 H1009 0.960 . S
C1023 H1010 0.961 . S
C1023 H1011 0.959 . S
C1023 C1021 1.561 . S
C1024 C1021 1.526 . S
C1024 C1025 1.396 . S
C1024 C1029 1.390 . S
C1025 C1019 1.465 . S
C1025 C1024 1.396 . S
C1025 C1026 1.399 . S
C1026 H1012 0.929 . S
C1026 C1025 1.399 . S
C1026 C1027 1.385 . S
C1027 H1013 0.931 . S
C1027 C1026 1.385 . S
C1027 C1028 1.389 . S
C1028 C1027 1.389 . S
C1028 C1029 1.387 . S
C1029 H1014 0.930 . S
C1029 C1024 1.390 . S
C1029 C1028 1.387 . S
H1030 C1042 0.930 . S
H1031 C1044 0.930 . S
H1032 C1045 0.930 . S
H1033 C1049 0.959 . S
H1034 C1049 0.959 . S
H1035 C1049 0.961 . S
H1036 C1050 0.960 . S
H1037 C1050 0.961 . S
H1038 C1050 0.959 . S
H1039 C1053 0.929 . S
H1040 C1054 0.931 . S
H1041 C1056 0.930 . S
C1042 H1030 0.930 . S
C1042 C1043 1.399 . S
C1042 C1047 1.399 . S
C1043 C1042 1.399 . S
C1043 C1044 1.376 . S
C1044 H1031 0.930 . S
C1044 C1043 1.376 . S
C1044 C1045 1.388 . S
C1045 H1032 0.930 . S
C1045 C1044 1.388 . S
C1045 C1046 1.390 . S
C1046 C1045 1.390 . S
C1046 C1047 1.394 . S
C1046 C1052 1.465 . S
C1047 C1042 1.399 . S
C1047 C1046 1.394 . S
C1047 C1048 1.516 . S
C1048 C1047 1.516 . S
C1048 C1049 1.502 . S
C1048 C1050 1.561 . S
C1048 C1051 1.526 . S
C1049 H1033 0.959 . S
C1049 H1034 0.959 . S
C1049 H1035 0.961 . S
C1049 C1048 1.502 . S
C1050 H1036 0.960 . S
C1050 H1037 0.961 . S
C1050 H1038 0.959 . S
C1050 C1048 1.561 . S
C1051 C1048 1.526 . S
C1051 C1052 1.396 . S
C1051 C1056 1.390 . S
C1052 C1046 1.465 . S
C1052 C1051 1.396 . S
C1052 C1053 1.399 . S
C1053 H1039 0.929 . S
C1053 C1052 1.399 . S
C1053 C1054 1.385 . S
C1054 H1040 0.931 . S
C1054 C1053 1.385 . S
C1054 C1055 1.389 . S
C1055 C1054 1.389 . S
C1055 C1056 1.387 . S
C1056 H1041 0.930 . S
C1056 C1051 1.390 . S
C1056 C1055 1.387 . S
H1057 C1069 0.930 . S
H1058 C1071 0.930 . S
H1059 C1072 0.930 . S
H1060 C1076 0.959 . S
H1061 C1076 0.959 . S
H1062 C1076 0.961 . S
H1063 C1077 0.960 . S
H1064 C1077 0.961 . S
H1065 C1077 0.959 . S
H1066 C1080 0.929 . S
H1067 C1081 0.931 . S
H1068 C1083 0.930 . S
C1069 H1057 0.930 . S
C1069 C1070 1.399 . S
C1069 C1074 1.399 . S
C1070 C1069 1.399 . S
C1070 C1071 1.376 . S
C1071 H1058 0.930 . S
C1071 C1070 1.376 . S
C1071 C1072 1.388 . S
C1072 H1059 0.930 . S
C1072 C1071 1.388 . S
C1072 C1073 1.390 . S
C1073 C1072 1.390 . S
C1073 C1074 1.394 . S
C1073 C1079 1.465 . S
C1074 C1069 1.399 . S
C1074 C1073 1.394 . S
C1074 C1075 1.516 . S
C1075 C1074 1.516 . S
C1075 C1076 1.502 . S
C1075 C1077 1.561 . S
C1075 C1078 1.526 . S
C1076 H1060 0.959 . S
C1076 H1061 0.959 . S
C1076 H1062 0.961 . S
C1076 C1075 1.502 . S
C1077 H1063 0.960 . S
C1077 H1064 0.961 . S
C1077 H1065 0.959 . S
C1077 C1075 1.561 . S
C1078 C1075 1.526 . S
C1078 C1079 1.396 . S
C1078 C1083 1.390 . S
C1079 C1073 1.465 . S
C1079 C1078 1.396 . S
C1079 C1080 1.399 . S
C1080 H1066 0.929 . S
C1080 C1079 1.399 . S
C1080 C1081 1.385 . S
C1081 H1067 0.931 . S
C1081 C1080 1.385 . S
C1081 C1082 1.389 . S
C1082 C1081 1.389 . S
C1082 C1083 1.387 . S
C1083 H1068 0.930 . S
C1083 C1078 1.390 . S
C1083 C1082 1.387 . S
H1084 C1096 0.930 . S
H1085 C1098 0.930 . S
H1086 C1099 0.930 . S
H1087 C1103 0.959 . S
H1088 C1103 0.959 . S
H1089 C1103 0.961 . S
H1090 C1104 0.960 . S
H1091 C1104 0.961 . S
H1092 C1104 0.959 . S
H1093 C1107 0.929 . S
H1094 C1108 0.931 . S
H1095 C1110 0.930 . S
C1096 H1084 0.930 . S
C1096 C1097 1.399 . S
C1096 C1101 1.399 . S
C1097 C1096 1.399 . S
C1097 C1098 1.376 . S
C1098 H1085 0.930 . S
C1098 C1097 1.376 . S
C1098 C1099 1.388 . S
C1099 H1086 0.930 . S
C1099 C1098 1.388 . S
C1099 C1100 1.390 . S
C1100 C1099 1.390 . S
C1100 C1101 1.394 . S
C1100 C1106 1.465 . S
C1101 C1096 1.399 . S
C1101 C1100 1.394 . S
C1101 C1102 1.516 . S
C1102 C1101 1.516 . S
C1102 C1103 1.502 . S
C1102 C1104 1.561 . S
C1102 C1105 1.526 . S
C1103 H1087 0.959 . S
C1103 H1088 0.959 . S
C1103 H1089 0.961 . S
C1103 C1102 1.502 . S
C1104 H1090 0.960 . S
C1104 H1091 0.961 . S
C1104 H1092 0.959 . S
C1104 C1102 1.561 . S
C1105 C1102 1.526 . S
C1105 C1106 1.396 . S
C1105 C1110 1.390 . S
C1106 C1100 1.465 . S
C1106 C1105 1.396 . S
C1106 C1107 1.399 . S
C1107 H1093 0.929 . S
C1107 C1106 1.399 . S
C1107 C1108 1.385 . S
C1108 H1094 0.931 . S
C1108 C1107 1.385 . S
C1108 C1109 1.389 . S
C1109 C1108 1.389 . S
C1109 C1110 1.387 . S
C1110 H1095 0.930 . S
C1110 C1105 1.390 . S
C1110 C1109 1.387 . S
H1111 C1123 0.930 . S
H1112 C1125 0.930 . S
H1113 C1126 0.930 . S
H1114 C1130 0.959 . S
H1115 C1130 0.959 . S
H1116 C1130 0.961 . S
H1117 C1131 0.960 . S
H1118 C1131 0.961 . S
H1119 C1131 0.959 . S
H1120 C1134 0.929 . S
H1121 C1135 0.931 . S
H1122 C1137 0.930 . S
C1123 H1111 0.930 . S
C1123 C1124 1.399 . S
C1123 C1128 1.399 . S
C1124 C1123 1.399 . S
C1124 C1125 1.376 . S
C1125 H1112 0.930 . S
C1125 C1124 1.376 . S
C1125 C1126 1.388 . S
C1126 H1113 0.930 . S
C1126 C1125 1.388 . S
C1126 C1127 1.390 . S
C1127 C1126 1.390 . S
C1127 C1128 1.394 . S
C1127 C1133 1.465 . S
C1128 C1123 1.399 . S
C1128 C1127 1.394 . S
C1128 C1129 1.516 . S
C1129 C1128 1.516 . S
C1129 C1130 1.502 . S
C1129 C1131 1.561 . S
C1129 C1132 1.526 . S
C1130 H1114 0.959 . S
C1130 H1115 0.959 . S
C1130 H1116 0.961 . S
C1130 C1129 1.502 . S
C1131 H1117 0.960 . S
C1131 H1118 0.961 . S
C1131 H1119 0.959 . S
C1131 C1129 1.561 . S
C1132 C1129 1.526 . S
C1132 C1133 1.396 . S
C1132 C1137 1.390 . S
C1133 C1127 1.465 . S
C1133 C1132 1.396 . S
C1133 C1134 1.399 . S
C1134 H1120 0.929 . S
C1134 C1133 1.399 . S
C1134 C1135 1.385 . S
C1135 H1121 0.931 . S
C1135 C1134 1.385 . S
C1135 C1136 1.389 . S
C1136 C1135 1.389 . S
C1136 C1137 1.387 . S
C1137 H1122 0.930 . S
C1137 C1132 1.390 . S
C1137 C1136 1.387 . S
H1138 C1150 0.930 . S
H1139 C1152 0.930 . S
H1140 C1153 0.930 . S
H1141 C1157 0.959 . S
H1142 C1157 0.959 . S
H1143 C1157 0.961 . S
H1144 C1158 0.960 . S
H1145 C1158 0.961 . S
H1146 C1158 0.959 . S
H1147 C1161 0.929 . S
H1148 C1162 0.931 . S
H1149 C1164 0.930 . S
C1150 H1138 0.930 . S
C1150 C1151 1.399 . S
C1150 C1155 1.399 . S
C1151 C1150 1.399 . S
C1151 C1152 1.376 . S
C1152 H1139 0.930 . S
C1152 C1151 1.376 . S
C1152 C1153 1.388 . S
C1153 H1140 0.930 . S
C1153 C1152 1.388 . S
C1153 C1154 1.390 . S
C1154 C1153 1.390 . S
C1154 C1155 1.394 . S
C1154 C1160 1.465 . S
C1155 C1150 1.399 . S
C1155 C1154 1.394 . S
C1155 C1156 1.516 . S
C1156 C1155 1.516 . S
C1156 C1157 1.502 . S
C1156 C1158 1.561 . S
C1156 C1159 1.526 . S
C1157 H1141 0.959 . S
C1157 H1142 0.959 . S
C1157 H1143 0.961 . S
C1157 C1156 1.502 . S
C1158 H1144 0.960 . S
C1158 H1145 0.961 . S
C1158 H1146 0.959 . S
C1158 C1156 1.561 . S
C1159 C1156 1.526 . S
C1159 C1160 1.396 . S
C1159 C1164 1.390 . S
C1160 C1154 1.465 . S
C1160 C1159 1.396 . S
C1160 C1161 1.399 . S
C1161 H1147 0.929 . S
C1161 C1160 1.399 . S
C1161 C1162 1.385 . S
C1162 H1148 0.931 . S
C1162 C1161 1.385 . S
C1162 C1163 1.389 . S
C1163 C1162 1.389 . S
C1163 C1164 1.387 . S
C1164 H1149 0.930 . S
C1164 C1159 1.390 . S
C1164 C1163 1.387 . S
H1165 C1177 0.930 . S
H1166 C1179 0.930 . S
H1167 C1180 0.930 . S
H1168 C1184 0.959 . S
H1169 C1184 0.959 . S
H1170 C1184 0.961 . S
H1171 C1185 0.960 . S
H1172 C1185 0.961 . S
H1173 C1185 0.959 . S
H1174 C1188 0.929 . S
H1175 C1189 0.931 . S
H1176 C1191 0.930 . S
C1177 H1165 0.930 . S
C1177 C1178 1.399 . S
C1177 C1182 1.399 . S
C1178 C1177 1.399 . S
C1178 C1179 1.376 . S
C1179 H1166 0.930 . S
C1179 C1178 1.376 . S
C1179 C1180 1.388 . S
C1180 H1167 0.930 . S
C1180 C1179 1.388 . S
C1180 C1181 1.390 . S
C1181 C1180 1.390 . S
C1181 C1182 1.394 . S
C1181 C1187 1.465 . S
C1182 C1177 1.399 . S
C1182 C1181 1.394 . S
C1182 C1183 1.516 . S
C1183 C1182 1.516 . S
C1183 C1184 1.502 . S
C1183 C1185 1.561 . S
C1183 C1186 1.526 . S
C1184 H1168 0.959 . S
C1184 H1169 0.959 . S
C1184 H1170 0.961 . S
C1184 C1183 1.502 . S
C1185 H1171 0.960 . S
C1185 H1172 0.961 . S
C1185 H1173 0.959 . S
C1185 C1183 1.561 . S
C1186 C1183 1.526 . S
C1186 C1187 1.396 . S
C1186 C1191 1.390 . S
C1187 C1181 1.465 . S
C1187 C1186 1.396 . S
C1187 C1188 1.399 . S
C1188 H1174 0.929 . S
C1188 C1187 1.399 . S
C1188 C1189 1.385 . S
C1189 H1175 0.931 . S
C1189 C1188 1.385 . S
C1189 C1190 1.389 . S
C1190 C1189 1.389 . S
C1190 C1191 1.387 . S
C1191 H1176 0.930 . S
C1191 C1186 1.390 . S
C1191 C1190 1.387 . S
H1192 C1204 0.930 . S
H1193 C1206 0.930 . S
H1194 C1207 0.930 . S
H1195 C1211 0.959 . S
H1196 C1211 0.959 . S
H1197 C1211 0.961 . S
H1198 C1212 0.960 . S
H1199 C1212 0.961 . S
H1200 C1212 0.959 . S
H1201 C1215 0.929 . S
H1202 C1216 0.931 . S
H1203 C1218 0.930 . S
C1204 H1192 0.930 . S
C1204 C1205 1.399 . S
C1204 C1209 1.399 . S
C1205 C1204 1.399 . S
C1205 C1206 1.376 . S
C1206 H1193 0.930 . S
C1206 C1205 1.376 . S
C1206 C1207 1.388 . S
C1207 H1194 0.930 . S
C1207 C1206 1.388 . S
C1207 C1208 1.390 . S
C1208 C1207 1.390 . S
C1208 C1209 1.394 . S
C1208 C1214 1.465 . S
C1209 C1204 1.399 . S
C1209 C1208 1.394 . S
C1209 C1210 1.516 . S
C1210 C1209 1.516 . S
C1210 C1211 1.502 . S
C1210 C1212 1.561 . S
C1210 C1213 1.526 . S
C1211 H1195 0.959 . S
C1211 H1196 0.959 . S
C1211 H1197 0.961 . S
C1211 C1210 1.502 . S
C1212 H1198 0.960 . S
C1212 H1199 0.961 . S
C1212 H1200 0.959 . S
C1212 C1210 1.561 . S
C1213 C1210 1.526 . S
C1213 C1214 1.396 . S
C1213 C1218 1.390 . S
C1214 C1208 1.465 . S
C1214 C1213 1.396 . S
C1214 C1215 1.399 . S
C1215 H1201 0.929 . S
C1215 C1214 1.399 . S
C1215 C1216 1.385 . S
C1216 H1202 0.931 . S
C1216 C1215 1.385 . S
C1216 C1217 1.389 . S
C1217 C1216 1.389 . S
C1217 C1218 1.387 . S
C1218 H1203 0.930 . S
C1218 C1213 1.390 . S
C1218 C1217 1.387 . S
H1219 C1231 0.930 . S
H1220 C1233 0.930 . S
H1221 C1234 0.930 . S
H1222 C1238 0.959 . S
H1223 C1238 0.959 . S
H1224 C1238 0.961 . S
H1225 C1239 0.960 . S
H1226 C1239 0.961 . S
H1227 C1239 0.959 . S
H1228 C1242 0.929 . S
H1229 C1243 0.931 . S
H1230 C1245 0.930 . S
C1231 H1219 0.930 . S
C1231 C1232 1.399 . S
C1231 C1236 1.399 . S
C1232 C1231 1.399 . S
C1232 C1233 1.376 . S
C1233 H1220 0.930 . S
C1233 C1232 1.376 . S
C1233 C1234 1.388 . S
C1234 H1221 0.930 . S
C1234 C1233 1.388 . S
C1234 C1235 1.390 . S
C1235 C1234 1.390 . S
C1235 C1236 1.394 . S
C1235 C1241 1.465 . S
C1236 C1231 1.399 . S
C1236 C1235 1.394 . S
C1236 C1237 1.516 . S
C1237 C1236 1.516 . S
C1237 C1238 1.502 . S
C1237 C1239 1.561 . S
C1237 C1240 1.526 . S
C1238 H1222 0.959 . S
C1238 H1223 0.959 . S
C1238 H1224 0.961 . S
C1238 C1237 1.502 . S
C1239 H1225 0.960 . S
C1239 H1226 0.961 . S
C1239 H1227 0.959 . S
C1239 C1237 1.561 . S
C1240 C1237 1.526 . S
C1240 C1241 1.396 . S
C1240 C1245 1.390 . S
C1241 C1235 1.465 . S
C1241 C1240 1.396 . S
C1241 C1242 1.399 . S
C1242 H1228 0.929 . S
C1242 C1241 1.399 . S
C1242 C1243 1.385 . S
C1243 H1229 0.931 . S
C1243 C1242 1.385 . S
C1243 C1244 1.389 . S
C1244 C1243 1.389 . S
C1244 C1245 1.387 . S
C1245 H1230 0.930 . S
C1245 C1240 1.390 . S
C1245 C1244 1.387 . S
H1246 C1258 0.930 . S
H1247 C1260 0.930 . S
H1248 C1261 0.930 . S
H1249 C1265 0.959 . S
H1250 C1265 0.959 . S
H1251 C1265 0.961 . S
H1252 C1266 0.960 . S
H1253 C1266 0.961 . S
H1254 C1266 0.959 . S
H1255 C1269 0.929 . S
H1256 C1270 0.931 . S
H1257 C1272 0.930 . S
C1258 H1246 0.930 . S
C1258 C1259 1.399 . S
C1258 C1263 1.399 . S
C1259 C1258 1.399 . S
C1259 C1260 1.376 . S
C1260 H1247 0.930 . S
C1260 C1259 1.376 . S
C1260 C1261 1.388 . S
C1261 H1248 0.930 . S
C1261 C1260 1.388 . S
C1261 C1262 1.390 . S
C1262 C1261 1.390 . S
C1262 C1263 1.394 . S
C1262 C1268 1.465 . S
C1263 C1258 1.399 . S
C1263 C1262 1.394 . S
C1263 C1264 1.516 . S
C1264 C1263 1.516 . S
C1264 C1265 1.502 . S
C1264 C1266 1.561 . S
C1264 C1267 1.526 . S
C1265 H1249 0.959 . S
C1265 H1250 0.959 . S
C1265 H1251 0.961 . S
C1265 C1264 1.502 . S
C1266 H1252 0.960 . S
C1266 H1253 0.961 . S
C1266 H1254 0.959 . S
C1266 C1264 1.561 . S
C1267 C1264 1.526 . S
C1267 C1268 1.396 . S
C1267 C1272 1.390 . S
C1268 C1262 1.465 . S
C1268 C1267 1.396 . S
C1268 C1269 1.399 . S
C1269 H1255 0.929 . S
C1269 C1268 1.399 . S
C1269 C1270 1.385 . S
C1270 H1256 0.931 . S
C1270 C1269 1.385 . S
C1270 C1271 1.389 . S
C1271 C1270 1.389 . S
C1271 C1272 1.387 . S
C1272 H1257 0.930 . S
C1272 C1267 1.390 . S
C1272 C1271 1.387 . S
H1273 C1285 0.930 . S
H1274 C1287 0.930 . S
H1275 C1288 0.930 . S
H1276 C1292 0.959 . S
H1277 C1292 0.959 . S
H1278 C1292 0.961 . S
H1279 C1293 0.960 . S
H1280 C1293 0.961 . S
H1281 C1293 0.959 . S
H1282 C1296 0.929 . S
H1283 C1297 0.931 . S
H1284 C1299 0.930 . S
C1285 H1273 0.930 . S
C1285 C1286 1.399 . S
C1285 C1290 1.399 . S
C1286 C1285 1.399 . S
C1286 C1287 1.376 . S
C1287 H1274 0.930 . S
C1287 C1286 1.376 . S
C1287 C1288 1.388 . S
C1288 H1275 0.930 . S
C1288 C1287 1.388 . S
C1288 C1289 1.390 . S
C1289 C1288 1.390 . S
C1289 C1290 1.394 . S
C1289 C1295 1.465 . S
C1290 C1285 1.399 . S
C1290 C1289 1.394 . S
C1290 C1291 1.516 . S
C1291 C1290 1.516 . S
C1291 C1292 1.502 . S
C1291 C1293 1.561 . S
C1291 C1294 1.526 . S
C1292 H1276 0.959 . S
C1292 H1277 0.959 . S
C1292 H1278 0.961 . S
C1292 C1291 1.502 . S
C1293 H1279 0.960 . S
C1293 H1280 0.961 . S
C1293 H1281 0.959 . S
C1293 C1291 1.561 . S
C1294 C1291 1.526 . S
C1294 C1295 1.396 . S
C1294 C1299 1.390 . S
C1295 C1289 1.465 . S
C1295 C1294 1.396 . S
C1295 C1296 1.399 . S
C1296 H1282 0.929 . S
C1296 C1295 1.399 . S
C1296 C1297 1.385 . S
C1297 H1283 0.931 . S
C1297 C1296 1.385 . S
C1297 C1298 1.389 . S
C1298 C1297 1.389 . S
C1298 C1299 1.387 . S
C1299 H1284 0.930 . S
C1299 C1294 1.390 . S
C1299 C1298 1.387 . S
H1300 C1312 0.930 . S
H1301 C1314 0.930 . S
H1302 C1315 0.930 . S
H1303 C1319 0.959 . S
H1304 C1319 0.959 . S
H1305 C1319 0.961 . S
H1306 C1320 0.960 . S
H1307 C1320 0.961 . S
H1308 C1320 0.959 . S
H1309 C1323 0.929 . S
H1310 C1324 0.931 . S
H1311 C1326 0.930 . S
C1312 H1300 0.930 . S
C1312 C1313 1.399 . S
C1312 C1317 1.399 . S
C1313 C1312 1.399 . S
C1313 C1314 1.376 . S
C1314 H1301 0.930 . S
C1314 C1313 1.376 . S
C1314 C1315 1.388 . S
C1315 H1302 0.930 . S
C1315 C1314 1.388 . S
C1315 C1316 1.390 . S
C1316 C1315 1.390 . S
C1316 C1317 1.394 . S
C1316 C1322 1.465 . S
C1317 C1312 1.399 . S
C1317 C1316 1.394 . S
C1317 C1318 1.516 . S
C1318 C1317 1.516 . S
C1318 C1319 1.502 . S
C1318 C1320 1.561 . S
C1318 C1321 1.526 . S
C1319 H1303 0.959 . S
C1319 H1304 0.959 . S
C1319 H1305 0.961 . S
C1319 C1318 1.502 . S
C1320 H1306 0.960 . S
C1320 H1307 0.961 . S
C1320 H1308 0.959 . S
C1320 C1318 1.561 . S
C1321 C1318 1.526 . S
C1321 C1322 1.396 . S
C1321 C1326 1.390 . S
C1322 C1316 1.465 . S
C1322 C1321 1.396 . S
C1322 C1323 1.399 . S
C1323 H1309 0.929 . S
C1323 C1322 1.399 . S
C1323 C1324 1.385 . S
C1324 H1310 0.931 . S
C1324 C1323 1.385 . S
C1324 C1325 1.389 . S
C1325 C1324 1.389 . S
C1325 C1326 1.387 . S
C1326 H1311 0.930 . S
C1326 C1321 1.390 . S
C1326 C1325 1.387 . S
H1327 C1339 0.930 . S
H1328 C1341 0.930 . S
H1329 C1342 0.930 . S
H1330 C1346 0.959 . S
H1331 C1346 0.959 . S
H1332 C1346 0.961 . S
H1333 C1347 0.960 . S
H1334 C1347 0.961 . S
H1335 C1347 0.959 . S
H1336 C1350 0.929 . S
H1337 C1351 0.931 . S
H1338 C1353 0.930 . S
C1339 H1327 0.930 . S
C1339 C1340 1.399 . S
C1339 C1344 1.399 . S
C1340 C1339 1.399 . S
C1340 C1341 1.376 . S
C1341 H1328 0.930 . S
C1341 C1340 1.376 . S
C1341 C1342 1.388 . S
C1342 H1329 0.930 . S
C1342 C1341 1.388 . S
C1342 C1343 1.390 . S
C1343 C1342 1.390 . S
C1343 C1344 1.394 . S
C1343 C1349 1.465 . S
C1344 C1339 1.399 . S
C1344 C1343 1.394 . S
C1344 C1345 1.516 . S
C1345 C1344 1.516 . S
C1345 C1346 1.502 . S
C1345 C1347 1.561 . S
C1345 C1348 1.526 . S
C1346 H1330 0.959 . S
C1346 H1331 0.959 . S
C1346 H1332 0.961 . S
C1346 C1345 1.502 . S
C1347 H1333 0.960 . S
C1347 H1334 0.961 . S
C1347 H1335 0.959 . S
C1347 C1345 1.561 . S
C1348 C1345 1.526 . S
C1348 C1349 1.396 . S
C1348 C1353 1.390 . S
C1349 C1343 1.465 . S
C1349 C1348 1.396 . S
C1349 C1350 1.399 . S
C1350 H1336 0.929 . S
C1350 C1349 1.399 . S
C1350 C1351 1.385 . S
C1351 H1337 0.931 . S
C1351 C1350 1.385 . S
C1351 C1352 1.389 . S
C1352 C1351 1.389 . S
C1352 C1353 1.387 . S
C1353 H1338 0.930 . S
C1353 C1348 1.390 . S
C1353 C1352 1.387 . S
H1354 C1366 0.930 . S
H1355 C1368 0.930 . S
H1356 C1369 0.930 . S
H1357 C1373 0.959 . S
H1358 C1373 0.959 . S
H1359 C1373 0.961 . S
H1360 C1374 0.960 . S
H1361 C1374 0.961 . S
H1362 C1374 0.959 . S
H1363 C1377 0.929 . S
H1364 C1378 0.931 . S
H1365 C1380 0.930 . S
C1366 H1354 0.930 . S
C1366 C1367 1.399 . S
C1366 C1371 1.399 . S
C1367 C1366 1.399 . S
C1367 C1368 1.376 . S
C1368 H1355 0.930 . S
C1368 C1367 1.376 . S
C1368 C1369 1.388 . S
C1369 H1356 0.930 . S
C1369 C1368 1.388 . S
C1369 C1370 1.390 . S
C1370 C1369 1.390 . S
C1370 C1371 1.394 . S
C1370 C1376 1.465 . S
C1371 C1366 1.399 . S
C1371 C1370 1.394 . S
C1371 C1372 1.516 . S
C1372 C1371 1.516 . S
C1372 C1373 1.502 . S
C1372 C1374 1.561 . S
C1372 C1375 1.526 . S
C1373 H1357 0.959 . S
C1373 H1358 0.959 . S
C1373 H1359 0.961 . S
C1373 C1372 1.502 . S
C1374 H1360 0.960 . S
C1374 H1361 0.961 . S
C1374 H1362 0.959 . S
C1374 C1372 1.561 . S
C1375 C1372 1.526 . S
C1375 C1376 1.396 . S
C1375 C1380 1.390 . S
C1376 C1370 1.465 . S
C1376 C1375 1.396 . S
C1376 C1377 1.399 . S
C1377 H1363 0.929 . S
C1377 C1376 1.399 . S
C1377 C1378 1.385 . S
C1378 H1364 0.931 . S
C1378 C1377 1.385 . S
C1378 C1379 1.389 . S
C1379 C1378 1.389 . S
C1379 C1380 1.387 . S
C1380 H1365 0.930 . S
C1380 C1375 1.390 . S
C1380 C1379 1.387 . S
H1381 C1393 0.930 . S
H1382 C1395 0.930 . S
H1383 C1396 0.930 . S
H1384 C1400 0.959 . S
H1385 C1400 0.959 . S
H1386 C1400 0.961 . S
H1387 C1401 0.960 . S
H1388 C1401 0.961 . S
H1389 C1401 0.959 . S
H1390 C1404 0.929 . S
H1391 C1405 0.931 . S
H1392 C1407 0.930 . S
C1393 H1381 0.930 . S
C1393 C1394 1.399 . S
C1393 C1398 1.399 . S
C1394 C1393 1.399 . S
C1394 C1395 1.376 . S
C1395 H1382 0.930 . S
C1395 C1394 1.376 . S
C1395 C1396 1.388 . S
C1396 H1383 0.930 . S
C1396 C1395 1.388 . S
C1396 C1397 1.390 . S
C1397 C1396 1.390 . S
C1397 C1398 1.394 . S
C1397 C1403 1.465 . S
C1398 C1393 1.399 . S
C1398 C1397 1.394 . S
C1398 C1399 1.516 . S
C1399 C1398 1.516 . S
C1399 C1400 1.502 . S
C1399 C1401 1.561 . S
C1399 C1402 1.526 . S
C1400 H1384 0.959 . S
C1400 H1385 0.959 . S
C1400 H1386 0.961 . S
C1400 C1399 1.502 . S
C1401 H1387 0.960 . S
C1401 H1388 0.961 . S
C1401 H1389 0.959 . S
C1401 C1399 1.561 . S
C1402 C1399 1.526 . S
C1402 C1403 1.396 . S
C1402 C1407 1.390 . S
C1403 C1397 1.465 . S
C1403 C1402 1.396 . S
C1403 C1404 1.399 . S
C1404 H1390 0.929 . S
C1404 C1403 1.399 . S
C1404 C1405 1.385 . S
C1405 H1391 0.931 . S
C1405 C1404 1.385 . S
C1405 C1406 1.389 . S
C1406 C1405 1.389 . S
C1406 C1407 1.387 . S
C1407 H1392 0.930 . S
C1407 C1402 1.390 . S
C1407 C1406 1.387 . S
H1408 C1420 0.930 . S
H1409 C1422 0.930 . S
H1410 C1423 0.930 . S
H1411 C1427 0.959 . S
H1412 C1427 0.959 . S
H1413 C1427 0.961 . S
H1414 C1428 0.960 . S
H1415 C1428 0.961 . S
H1416 C1428 0.959 . S
H1417 C1431 0.929 . S
H1418 C1432 0.931 . S
H1419 C1434 0.930 . S
C1420 H1408 0.930 . S
C1420 C1421 1.399 . S
C1420 C1425 1.399 . S
C1421 C1420 1.399 . S
C1421 C1422 1.376 . S
C1422 H1409 0.930 . S
C1422 C1421 1.376 . S
C1422 C1423 1.388 . S
C1423 H1410 0.930 . S
C1423 C1422 1.388 . S
C1423 C1424 1.390 . S
C1424 C1423 1.390 . S
C1424 C1425 1.394 . S
C1424 C1430 1.465 . S
C1425 C1420 1.399 . S
C1425 C1424 1.394 . S
C1425 C1426 1.516 . S
C1426 C1425 1.516 . S
C1426 C1427 1.502 . S
C1426 C1428 1.561 . S
C1426 C1429 1.526 . S
C1427 H1411 0.959 . S
C1427 H1412 0.959 . S
C1427 H1413 0.961 . S
C1427 C1426 1.502 . S
C1428 H1414 0.960 . S
C1428 H1415 0.961 . S
C1428 H1416 0.959 . S
C1428 C1426 1.561 . S
C1429 C1426 1.526 . S
C1429 C1430 1.396 . S
C1429 C1434 1.390 . S
C1430 C1424 1.465 . S
C1430 C1429 1.396 . S
C1430 C1431 1.399 . S
C1431 H1417 0.929 . S
C1431 C1430 1.399 . S
C1431 C1432 1.385 . S
C1432 H1418 0.931 . S
C1432 C1431 1.385 . S
C1432 C1433 1.389 . S
C1433 C1432 1.389 . S
C1433 C1434 1.387 . S
C1434 H1419 0.930 . S
C1434 C1429 1.390 . S
C1434 C1433 1.387 . S
H1435 C1447 0.930 . S
H1436 C1449 0.930 . S
H1437 C1450 0.930 . S
H1438 C1454 0.959 . S
H1439 C1454 0.959 . S
H1440 C1454 0.961 . S
H1441 C1455 0.960 . S
H1442 C1455 0.961 . S
H1443 C1455 0.959 . S
H1444 C1458 0.929 . S
H1445 C1459 0.931 . S
H1446 C1461 0.930 . S
C1447 H1435 0.930 . S
C1447 C1448 1.399 . S
C1447 C1452 1.399 . S
C1448 C1447 1.399 . S
C1448 C1449 1.376 . S
C1449 H1436 0.930 . S
C1449 C1448 1.376 . S
C1449 C1450 1.388 . S
C1450 H1437 0.930 . S
C1450 C1449 1.388 . S
C1450 C1451 1.390 . S
C1451 C1450 1.390 . S
C1451 C1452 1.394 . S
C1451 C1457 1.465 . S
C1452 C1447 1.399 . S
C1452 C1451 1.394 . S
C1452 C1453 1.516 . S
C1453 C1452 1.516 . S
C1453 C1454 1.502 . S
C1453 C1455 1.561 . S
C1453 C1456 1.526 . S
C1454 H1438 0.959 . S
C1454 H1439 0.959 . S
C1454 H1440 0.961 . S
C1454 C1453 1.502 . S
C1455 H1441 0.960 . S
C1455 H1442 0.961 . S
C1455 H1443 0.959 . S
C1455 C1453 1.561 . S
C1456 C1453 1.526 . S
C1456 C1457 1.396 . S
C1456 C1461 1.390 . S
C1457 C1451 1.465 . S
C1457 C1456 1.396 . S
C1457 C1458 1.399 . S
C1458 H1444 0.929 . S
C1458 C1457 1.399 . S
C1458 C1459 1.385 . S
C1459 H1445 0.931 . S
C1459 C1458 1.385 . S
C1459 C1460 1.389 . S
C1460 C1459 1.389 . S
C1460 C1461 1.387 . S
C1461 H1446 0.930 . S
C1461 C1456 1.390 . S
C1461 C1460 1.387 . S
H1462 C1474 0.930 . S
H1463 C1476 0.930 . S
H1464 C1477 0.930 . S
H1465 C1481 0.959 . S
H1466 C1481 0.959 . S
H1467 C1481 0.961 . S
H1468 C1482 0.960 . S
H1469 C1482 0.961 . S
H1470 C1482 0.959 . S
H1471 C1485 0.929 . S
H1472 C1486 0.931 . S
H1473 C1488 0.930 . S
C1474 H1462 0.930 . S
C1474 C1475 1.399 . S
C1474 C1479 1.399 . S
C1475 C1474 1.399 . S
C1475 C1476 1.376 . S
C1476 H1463 0.930 . S
C1476 C1475 1.376 . S
C1476 C1477 1.388 . S
C1477 H1464 0.930 . S
C1477 C1476 1.388 . S
C1477 C1478 1.390 . S
C1478 C1477 1.390 . S
C1478 C1479 1.394 . S
C1478 C1484 1.465 . S
C1479 C1474 1.399 . S
C1479 C1478 1.394 . S
C1479 C1480 1.516 . S
C1480 C1479 1.516 . S
C1480 C1481 1.502 . S
C1480 C1482 1.561 . S
C1480 C1483 1.526 . S
C1481 H1465 0.959 . S
C1481 H1466 0.959 . S
C1481 H1467 0.961 . S
C1481 C1480 1.502 . S
C1482 H1468 0.960 . S
C1482 H1469 0.961 . S
C1482 H1470 0.959 . S
C1482 C1480 1.561 . S
C1483 C1480 1.526 . S
C1483 C1484 1.396 . S
C1483 C1488 1.390 . S
C1484 C1478 1.465 . S
C1484 C1483 1.396 . S
C1484 C1485 1.399 . S
C1485 H1471 0.929 . S
C1485 C1484 1.399 . S
C1485 C1486 1.385 . S
C1486 H1472 0.931 . S
C1486 C1485 1.385 . S
C1486 C1487 1.389 . S
C1487 C1486 1.389 . S
C1487 C1488 1.387 . S
C1488 H1473 0.930 . S
C1488 C1483 1.390 . S
C1488 C1487 1.387 . S
H1489 C1501 0.930 . S
H1490 C1503 0.930 . S
H1491 C1504 0.930 . S
H1492 C1508 0.959 . S
H1493 C1508 0.959 . S
H1494 C1508 0.961 . S
H1495 C1509 0.960 . S
H1496 C1509 0.961 . S
H1497 C1509 0.959 . S
H1498 C1512 0.929 . S
H1499 C1513 0.931 . S
H1500 C1515 0.930 . S
C1501 H1489 0.930 . S
C1501 C1502 1.399 . S
C1501 C1506 1.399 . S
C1502 C1501 1.399 . S
C1502 C1503 1.376 . S
C1503 H1490 0.930 . S
C1503 C1502 1.376 . S
C1503 C1504 1.388 . S
C1504 H1491 0.930 . S
C1504 C1503 1.388 . S
C1504 C1505 1.390 . S
C1505 C1504 1.390 . S
C1505 C1506 1.394 . S
C1505 C1511 1.465 . S
C1506 C1501 1.399 . S
C1506 C1505 1.394 . S
C1506 C1507 1.516 . S
C1507 C1506 1.516 . S
C1507 C1508 1.502 . S
C1507 C1509 1.561 . S
C1507 C1510 1.526 . S
C1508 H1492 0.959 . S
C1508 H1493 0.959 . S
C1508 H1494 0.961 . S
C1508 C1507 1.502 . S
C1509 H1495 0.960 . S
C1509 H1496 0.961 . S
C1509 H1497 0.959 . S
C1509 C1507 1.561 . S
C1510 C1507 1.526 . S
C1510 C1511 1.396 . S
C1510 C1515 1.390 . S
C1511 C1505 1.465 . S
C1511 C1510 1.396 . S
C1511 C1512 1.399 . S
C1512 H1498 0.929 . S
C1512 C1511 1.399 . S
C1512 C1513 1.385 . S
C1513 H1499 0.931 . S
C1513 C1512 1.385 . S
C1513 C1514 1.389 . S
C1514 C1513 1.389 . S
C1514 C1515 1.387 . S
C1515 H1500 0.930 . S
C1515 C1510 1.390 . S
C1515 C1514 1.387 . S
H1516 C1528 0.930 . S
H1517 C1530 0.930 . S
H1518 C1531 0.930 . S
H1519 C1535 0.959 . S
H1520 C1535 0.959 . S
H1521 C1535 0.961 . S
H1522 C1536 0.960 . S
H1523 C1536 0.961 . S
H1524 C1536 0.959 . S
H1525 C1539 0.929 . S
H1526 C1540 0.931 . S
H1527 C1542 0.930 . S
C1528 H1516 0.930 . S
C1528 C1529 1.399 . S
C1528 C1533 1.399 . S
C1529 C1528 1.399 . S
C1529 C1530 1.376 . S
C1530 H1517 0.930 . S
C1530 C1529 1.376 . S
C1530 C1531 1.388 . S
C1531 H1518 0.930 . S
C1531 C1530 1.388 . S
C1531 C1532 1.390 . S
C1532 C1531 1.390 . S
C1532 C1533 1.394 . S
C1532 C1538 1.465 . S
C1533 C1528 1.399 . S
C1533 C1532 1.394 . S
C1533 C1534 1.516 . S
C1534 C1533 1.516 . S
C1534 C1535 1.502 . S
C1534 C1536 1.561 . S
C1534 C1537 1.526 . S
C1535 H1519 0.959 . S
C1535 H1520 0.959 . S
C1535 H1521 0.961 . S
C1535 C1534 1.502 . S
C1536 H1522 0.960 . S
C1536 H1523 0.961 . S
C1536 H1524 0.959 . S
C1536 C1534 1.561 . S
C1537 C1534 1.526 . S
C1537 C1538 1.396 . S
C1537 C1542 1.390 . S
C1538 C1532 1.465 . S
C1538 C1537 1.396 . S
C1538 C1539 1.399 . S
C1539 H1525 0.929 . S
C1539 C1538 1.399 . S
C1539 C1540 1.385 . S
C1540 H1526 0.931 . S
C1540 C1539 1.385 . S
C1540 C1541 1.389 . S
C1541 C1540 1.389 . S
C1541 C1542 1.387 . S
C1542 H1527 0.930 . S
C1542 C1537 1.390 . S
C1542 C1541 1.387 . S
H1543 C1555 0.930 . S
H1544 C1557 0.930 . S
H1545 C1558 0.930 . S
H1546 C1562 0.959 . S
H1547 C1562 0.959 . S
H1548 C1562 0.961 . S
H1549 C1563 0.960 . S
H1550 C1563 0.961 . S
H1551 C1563 0.959 . S
H1552 C1566 0.929 . S
H1553 C1567 0.931 . S
H1554 C1569 0.930 . S
C1555 H1543 0.930 . S
C1555 C1556 1.399 . S
C1555 C1560 1.399 . S
C1556 C1555 1.399 . S
C1556 C1557 1.376 . S
C1557 H1544 0.930 . S
C1557 C1556 1.376 . S
C1557 C1558 1.388 . S
C1558 H1545 0.930 . S
C1558 C1557 1.388 . S
C1558 C1559 1.390 . S
C1559 C1558 1.390 . S
C1559 C1560 1.394 . S
C1559 C1565 1.465 . S
C1560 C1555 1.399 . S
C1560 C1559 1.394 . S
C1560 C1561 1.516 . S
C1561 C1560 1.516 . S
C1561 C1562 1.502 . S
C1561 C1563 1.561 . S
C1561 C1564 1.526 . S
C1562 H1546 0.959 . S
C1562 H1547 0.959 . S
C1562 H1548 0.961 . S
C1562 C1561 1.502 . S
C1563 H1549 0.960 . S
C1563 H1550 0.961 . S
C1563 H1551 0.959 . S
C1563 C1561 1.561 . S
C1564 C1561 1.526 . S
C1564 C1565 1.396 . S
C1564 C1569 1.390 . S
C1565 C1559 1.465 . S
C1565 C1564 1.396 . S
C1565 C1566 1.399 . S
C1566 H1552 0.929 . S
C1566 C1565 1.399 . S
C1566 C1567 1.385 . S
C1567 H1553 0.931 . S
C1567 C1566 1.385 . S
C1567 C1568 1.389 . S
C1568 C1567 1.389 . S
C1568 C1569 1.387 . S
C1569 H1554 0.930 . S
C1569 C1564 1.390 . S
C1569 C1568 1.387 . S
H1570 C1582 0.930 . S
H1571 C1584 0.930 . S
H1572 C1585 0.930 . S
H1573 C1589 0.959 . S
H1574 C1589 0.959 . S
H1575 C1589 0.961 . S
H1576 C1590 0.960 . S
H1577 C1590 0.961 . S
H1578 C1590 0.959 . S
H1579 C1593 0.929 . S
H1580 C1594 0.931 . S
H1581 C1596 0.930 . S
C1582 H1570 0.930 . S
C1582 C1583 1.399 . S
C1582 C1587 1.399 . S
C1583 C1582 1.399 . S
C1583 C1584 1.376 . S
C1584 H1571 0.930 . S
C1584 C1583 1.376 . S
C1584 C1585 1.388 . S
C1585 H1572 0.930 . S
C1585 C1584 1.388 . S
C1585 C1586 1.390 . S
C1586 C1585 1.390 . S
C1586 C1587 1.394 . S
C1586 C1592 1.465 . S
C1587 C1582 1.399 . S
C1587 C1586 1.394 . S
C1587 C1588 1.516 . S
C1588 C1587 1.516 . S
C1588 C1589 1.502 . S
C1588 C1590 1.561 . S
C1588 C1591 1.526 . S
C1589 H1573 0.959 . S
C1589 H1574 0.959 . S
C1589 H1575 0.961 . S
C1589 C1588 1.502 . S
C1590 H1576 0.960 . S
C1590 H1577 0.961 . S
C1590 H1578 0.959 . S
C1590 C1588 1.561 . S
C1591 C1588 1.526 . S
C1591 C1592 1.396 . S
C1591 C1596 1.390 . S
C1592 C1586 1.465 . S
C1592 C1591 1.396 . S
C1592 C1593 1.399 . S
C1593 H1579 0.929 . S
C1593 C1592 1.399 . S
C1593 C1594 1.385 . S
C1594 H1580 0.931 . S
C1594 C1593 1.385 . S
C1594 C1595 1.389 . S
C1595 C1594 1.389 . S
C1595 C1596 1.387 . S
C1596 H1581 0.930 . S
C1596 C1591 1.390 . S
C1596 C1595 1.387 . S
H1597 C1609 0.930 . S
H1598 C1611 0.930 . S
H1599 C1612 0.930 . S
H1600 C1616 0.959 . S
H1601 C1616 0.959 . S
H1602 C1616 0.961 . S
H1603 C1617 0.960 . S
H1604 C1617 0.961 . S
H1605 C1617 0.959 . S
H1606 C1620 0.929 . S
H1607 C1621 0.931 . S
H1608 C1623 0.930 . S
C1609 H1597 0.930 . S
C1609 C1610 1.399 . S
C1609 C1614 1.399 . S
C1610 C1609 1.399 . S
C1610 C1611 1.376 . S
C1611 H1598 0.930 . S
C1611 C1610 1.376 . S
C1611 C1612 1.388 . S
C1612 H1599 0.930 . S
C1612 C1611 1.388 . S
C1612 C1613 1.390 . S
C1613 C1612 1.390 . S
C1613 C1614 1.394 . S
C1613 C1619 1.465 . S
C1614 C1609 1.399 . S
C1614 C1613 1.394 . S
C1614 C1615 1.516 . S
C1615 C1614 1.516 . S
C1615 C1616 1.502 . S
C1615 C1617 1.561 . S
C1615 C1618 1.526 . S
C1616 H1600 0.959 . S
C1616 H1601 0.959 . S
C1616 H1602 0.961 . S
C1616 C1615 1.502 . S
C1617 H1603 0.960 . S
C1617 H1604 0.961 . S
C1617 H1605 0.959 . S
C1617 C1615 1.561 . S
C1618 C1615 1.526 . S
C1618 C1619 1.396 . S
C1618 C1623 1.390 . S
C1619 C1613 1.465 . S
C1619 C1618 1.396 . S
C1619 C1620 1.399 . S
C1620 H1606 0.929 . S
C1620 C1619 1.399 . S
C1620 C1621 1.385 . S
C1621 H1607 0.931 . S
C1621 C1620 1.385 . S
C1621 C1622 1.389 . S
C1622 C1621 1.389 . S
C1622 C1623 1.387 . S
C1623 H1608 0.930 . S
C1623 C1618 1.390 . S
C1623 C1622 1.387 . S
H1624 C1636 0.930 . S
H1625 C1638 0.930 . S
H1626 C1639 0.930 . S
H1627 C1643 0.959 . S
H1628 C1643 0.959 . S
H1629 C1643 0.961 . S
H1630 C1644 0.960 . S
H1631 C1644 0.961 . S
H1632 C1644 0.959 . S
H1633 C1647 0.929 . S
H1634 C1648 0.931 . S
H1635 C1650 0.930 . S
C1636 H1624 0.930 . S
C1636 C1637 1.399 . S
C1636 C1641 1.399 . S
C1637 C1636 1.399 . S
C1637 C1638 1.376 . S
C1638 H1625 0.930 . S
C1638 C1637 1.376 . S
C1638 C1639 1.388 . S
C1639 H1626 0.930 . S
C1639 C1638 1.388 . S
C1639 C1640 1.390 . S
C1640 C1639 1.390 . S
C1640 C1641 1.394 . S
C1640 C1646 1.465 . S
C1641 C1636 1.399 . S
C1641 C1640 1.394 . S
C1641 C1642 1.516 . S
C1642 C1641 1.516 . S
C1642 C1643 1.502 . S
C1642 C1644 1.561 . S
C1642 C1645 1.526 . S
C1643 H1627 0.959 . S
C1643 H1628 0.959 . S
C1643 H1629 0.961 . S
C1643 C1642 1.502 . S
C1644 H1630 0.960 . S
C1644 H1631 0.961 . S
C1644 H1632 0.959 . S
C1644 C1642 1.561 . S
C1645 C1642 1.526 . S
C1645 C1646 1.396 . S
C1645 C1650 1.390 . S
C1646 C1640 1.465 . S
C1646 C1645 1.396 . S
C1646 C1647 1.399 . S
C1647 H1633 0.929 . S
C1647 C1646 1.399 . S
C1647 C1648 1.385 . S
C1648 H1634 0.931 . S
C1648 C1647 1.385 . S
C1648 C1649 1.389 . S
C1649 C1648 1.389 . S
C1649 C1650 1.387 . S
C1650 H1635 0.930 . S
C1650 C1645 1.390 . S
C1650 C1649 1.387 . S
H1651 C1663 0.930 . S
H1652 C1665 0.930 . S
H1653 C1666 0.930 . S
H1654 C1670 0.959 . S
H1655 C1670 0.959 . S
H1656 C1670 0.961 . S
H1657 C1671 0.960 . S
H1658 C1671 0.961 . S
H1659 C1671 0.959 . S
H1660 C1674 0.929 . S
H1661 C1675 0.931 . S
H1662 C1677 0.930 . S
C1663 H1651 0.930 . S
C1663 C1664 1.399 . S
C1663 C1668 1.399 . S
C1664 C1663 1.399 . S
C1664 C1665 1.376 . S
C1665 H1652 0.930 . S
C1665 C1664 1.376 . S
C1665 C1666 1.388 . S
C1666 H1653 0.930 . S
C1666 C1665 1.388 . S
C1666 C1667 1.390 . S
C1667 C1666 1.390 . S
C1667 C1668 1.394 . S
C1667 C1673 1.465 . S
C1668 C1663 1.399 . S
C1668 C1667 1.394 . S
C1668 C1669 1.516 . S
C1669 C1668 1.516 . S
C1669 C1670 1.502 . S
C1669 C1671 1.561 . S
C1669 C1672 1.526 . S
C1670 H1654 0.959 . S
C1670 H1655 0.959 . S
C1670 H1656 0.961 . S
C1670 C1669 1.502 . S
C1671 H1657 0.960 . S
C1671 H1658 0.961 . S
C1671 H1659 0.959 . S
C1671 C1669 1.561 . S
C1672 C1669 1.526 . S
C1672 C1673 1.396 . S
C1672 C1677 1.390 . S
C1673 C1667 1.465 . S
C1673 C1672 1.396 . S
C1673 C1674 1.399 . S
C1674 H1660 0.929 . S
C1674 C1673 1.399 . S
C1674 C1675 1.385 . S
C1675 H1661 0.931 . S
C1675 C1674 1.385 . S
C1675 C1676 1.389 . S
C1676 C1675 1.389 . S
C1676 C1677 1.387 . S
C1677 H1662 0.930 . S
C1677 C1672 1.390 . S
C1677 C1676 1.387 . S
H1678 C1690 0.930 . S
H1679 C1692 0.930 . S
H1680 C1693 0.930 . S
H1681 C1697 0.959 . S
H1682 C1697 0.959 . S
H1683 C1697 0.961 . S
H1684 C1698 0.960 . S
H1685 C1698 0.961 . S
H1686 C1698 0.959 . S
H1687 C1701 0.929 . S
H1688 C1702 0.931 . S
H1689 C1704 0.930 . S
C1690 H1678 0.930 . S
C1690 C1691 1.399 . S
C1690 C1695 1.399 . S
C1691 C1690 1.399 . S
C1691 C1692 1.376 . S
C1692 H1679 0.930 . S
C1692 C1691 1.376 . S
C1692 C1693 1.388 . S
C1693 H1680 0.930 . S
C1693 C1692 1.388 . S
C1693 C1694 1.390 . S
C1694 C1693 1.390 . S
C1694 C1695 1.394 . S
C1694 C1700 1.465 . S
C1695 C1690 1.399 . S
C1695 C1694 1.394 . S
C1695 C1696 1.516 . S
C1696 C1695 1.516 . S
C1696 C1697 1.502 . S
C1696 C1698 1.561 . S
C1696 C1699 1.526 . S
C1697 H1681 0.959 . S
C1697 H1682 0.959 . S
C1697 H1683 0.961 . S
C1697 C1696 1.502 . S
C1698 H1684 0.960 . S
C1698 H1685 0.961 . S
C1698 H1686 0.959 . S
C1698 C1696 1.561 . S
C1699 C1696 1.526 . S
C1699 C1700 1.396 . S
C1699 C1704 1.390 . S
C1700 C1694 1.465 . S
C1700 C1699 1.396 . S
C1700 C1701 1.399 . S
C1701 H1687 0.929 . S
C1701 C1700 1.399 . S
C1701 C1702 1.385 . S
C1702 H1688 0.931 . S
C1702 C1701 1.385 . S
C1702 C1703 1.389 . S
C1703 C1702 1.389 . S
C1703 C1704 1.387 . S
C1704 H1689 0.930 . S
C1704 C1699 1.390 . S
C1704 C1703 1.387 . S
H1705 C1717 0.930 . S
H1706 C1719 0.930 . S
H1707 C1720 0.930 . S
H1708 C1724 0.959 . S
H1709 C1724 0.959 . S
H1710 C1724 0.961 . S
H1711 C1725 0.960 . S
H1712 C1725 0.961 . S
H1713 C1725 0.959 . S
H1714 C1728 0.929 . S
H1715 C1729 0.931 . S
H1716 C1731 0.930 . S
C1717 H1705 0.930 . S
C1717 C1718 1.399 . S
C1717 C1722 1.399 . S
C1718 C1717 1.399 . S
C1718 C1719 1.376 . S
C1719 H1706 0.930 . S
C1719 C1718 1.376 . S
C1719 C1720 1.388 . S
C1720 H1707 0.930 . S
C1720 C1719 1.388 . S
C1720 C1721 1.390 . S
C1721 C1720 1.390 . S
C1721 C1722 1.394 . S
C1721 C1727 1.465 . S
C1722 C1717 1.399 . S
C1722 C1721 1.394 . S
C1722 C1723 1.516 . S
C1723 C1722 1.516 . S
C1723 C1724 1.502 . S
C1723 C1725 1.561 . S
C1723 C1726 1.526 . S
C1724 H1708 0.959 . S
C1724 H1709 0.959 . S
C1724 H1710 0.961 . S
C1724 C1723 1.502 . S
C1725 H1711 0.960 . S
C1725 H1712 0.961 . S
C1725 H1713 0.959 . S
C1725 C1723 1.561 . S
C1726 C1723 1.526 . S
C1726 C1727 1.396 . S
C1726 C1731 1.390 . S
C1727 C1721 1.465 . S
C1727 C1726 1.396 . S
C1727 C1728 1.399 . S
C1728 H1714 0.929 . S
C1728 C1727 1.399 . S
C1728 C1729 1.385 . S
C1729 H1715 0.931 . S
C1729 C1728 1.385 . S
C1729 C1730 1.389 . S
C1730 C1729 1.389 . S
C1730 C1731 1.387 . S
C1731 H1716 0.930 . S
C1731 C1726 1.390 . S
C1731 C1730 1.387 . S
C461 C278 1.708 . S
C449 N2 1.705 . S
C488 C304 2.326 . S
C476 C7 2.378 . S
C515 C317 1.690 . S
C503 N12 1.662 . S
C530 C16 1.656 . S
C542 C345 1.717 . S
C569 C365 2.452 . S
C557 C30 2.440 . S
C596 C378 1.586 . S
C584 N35 1.504 . S
C611 C39 1.858 . S
C623 C404 1.769 . S
C650 C417 1.490 . S
C638 N25 1.498 . S
C677 C294 1.275 . S
C665 N58 1.139 . S
C692 N81 1.421 . S
C704 C315 1.429 . S
C731 C324 1.297 . S
C719 N104 1.348 . S
C746 N127 1.244 . S
C758 C338 1.262 . S
C785 C358 0.885 . S
C773 N48 0.966 . S
C812 C394 1.602 . S
C800 N71 1.577 . S
C827 N94 1.006 . S
C839 C415 1.021 . S
C866 C424 1.701 . S
C854 N117 1.746 . S
C881 C85 2.156 . S
C893 C285 2.103 . S
C908 C122 1.840 . S
C920 C374 1.853 . S
C935 C53 1.824 1_556 S
C947 C385 1.817 . S
C974 C397 1.505 . S
C962 C76 1.511 . S
C1001 C435 1.697 . S
C989 C99 1.687 . S
C1028 C335 1.911 . S
C1016 C131 1.920 . S
C1055 C354 1.313 . S
C1043 C62 1.268 . S
C1070 C108 1.219 . S
C1082 C297 1.253 . S
C1109 C418 1.768 . S
C1097 N140 1.773 . S
C1124 C145 2.356 . S
C1136 C364 2.351 . S
C1163 C377 1.655 . S
C1151 N150 1.567 . S
C1178 C154 1.657 . S
C1190 C405 1.730 . S
C1217 C305 2.410 . S
C1205 C168 2.440 . S
C1232 N173 1.476 . S
C1244 C318 1.437 . S
C1271 C344 1.799 . S
C1259 C177 1.839 . S
C1298 C277 1.562 . S
C1286 N163 1.573 . S
C1325 C434 1.663 . S
C1313 C200 1.703 . S
C1352 C375 1.782 . S
C1340 N219 1.732 . S
C1367 N242 1.559 . S
C1379 C384 1.541 . S
C1406 C398 1.426 . S
C1394 C269 1.551 . S
C1433 C298 1.295 . S
C1421 C191 1.281 . S
C1448 N209 1.760 . S
C1460 C334 1.813 . S
C1475 N232 1.310 . S
C1487 C355 1.286 . S
C1502 C260 2.210 . S
C1514 C284 2.164 . S
C1529 C223 1.852 . S
C1541 C425 1.860 . S
C1556 N255 1.362 . S
C1568 C314 1.467 . S
C1583 N186 1.333 . S
C1595 C325 1.284 . S
C1622 C337 1.191 . S
C1610 C214 1.206 . S
C1649 C295 1.404 . S
C1637 C237 1.425 . S
C1676 C395 1.477 . S
C1664 N265 1.468 . S
C1703 C414 0.935 . S
C1691 N196 0.914 . S
C1730 C357 0.854 . S
C1718 C246 0.907 . S
