# Generated by pormake.
# Topology gar, (4,6)-cn, num edge types: 1
# Building blocks:
#     Node 0, Type 0, BuildingBlock: CEKHIL_clean_sbu_0, # of connection points: 4
#     Node 1, Type 0, BuildingBlock: CEKHIL_clean_sbu_0, # of connection points: 4
#     Node 2, Type 0, BuildingBlock: CEKHIL_clean_sbu_0, # of connection points: 4
#     Node 3, Type 0, BuildingBlock: CEKHIL_clean_sbu_0, # of connection points: 4
#     Node 4, Type 0, BuildingBlock: CEKHIL_clean_sbu_0, # of connection points: 4
#     Node 5, Type 0, BuildingBlock: CEKHIL_clean_sbu_0, # of connection points: 4
#     Node 6, Type 0, BuildingBlock: CEKHIL_clean_sbu_0, # of connection points: 4
#     Node 7, Type 0, BuildingBlock: CEKHIL_clean_sbu_0, # of connection points: 4
#     Node 8, Type 0, BuildingBlock: CEKHIL_clean_sbu_0, # of connection points: 4
#     Node 9, Type 0, BuildingBlock: CEKHIL_clean_sbu_0, # of connection points: 4
#     Node 10, Type 0, BuildingBlock: CEKHIL_clean_sbu_0, # of connection points: 4
#     Node 11, Type 0, BuildingBlock: CEKHIL_clean_sbu_0, # of connection points: 4
#     Node 12, Type 0, BuildingBlock: CEKHIL_clean_sbu_0, # of connection points: 4
#     Node 13, Type 0, BuildingBlock: CEKHIL_clean_sbu_0, # of connection points: 4
#     Node 14, Type 0, BuildingBlock: CEKHIL_clean_sbu_0, # of connection points: 4
#     Node 15, Type 0, BuildingBlock: CEKHIL_clean_sbu_0, # of connection points: 4
#     Node 16, Type 0, BuildingBlock: CEKHIL_clean_sbu_0, # of connection points: 4
#     Node 17, Type 0, BuildingBlock: CEKHIL_clean_sbu_0, # of connection points: 4
#     Node 18, Type 0, BuildingBlock: CEKHIL_clean_sbu_0, # of connection points: 4
#     Node 19, Type 0, BuildingBlock: CEKHIL_clean_sbu_0, # of connection points: 4
#     Node 20, Type 0, BuildingBlock: CEKHIL_clean_sbu_0, # of connection points: 4
#     Node 21, Type 0, BuildingBlock: CEKHIL_clean_sbu_0, # of connection points: 4
#     Node 22, Type 0, BuildingBlock: CEKHIL_clean_sbu_0, # of connection points: 4
#     Node 23, Type 0, BuildingBlock: CEKHIL_clean_sbu_0, # of connection points: 4
#     Node 24, Type 1, BuildingBlock: MIFKUJ_clean_sbu_0, # of connection points: 6
#     Node 25, Type 1, BuildingBlock: MIFKUJ_clean_sbu_0, # of connection points: 6
#     Node 26, Type 1, BuildingBlock: MIFKUJ_clean_sbu_0, # of connection points: 6
#     Node 27, Type 1, BuildingBlock: MIFKUJ_clean_sbu_0, # of connection points: 6
#     Node 28, Type 1, BuildingBlock: MIFKUJ_clean_sbu_0, # of connection points: 6
#     Node 29, Type 1, BuildingBlock: MIFKUJ_clean_sbu_0, # of connection points: 6
#     Node 30, Type 1, BuildingBlock: MIFKUJ_clean_sbu_0, # of connection points: 6
#     Node 31, Type 1, BuildingBlock: MIFKUJ_clean_sbu_0, # of connection points: 6
#     Node 32, Type 1, BuildingBlock: MIFKUJ_clean_sbu_0, # of connection points: 6
#     Node 33, Type 1, BuildingBlock: MIFKUJ_clean_sbu_0, # of connection points: 6
#     Node 34, Type 1, BuildingBlock: MIFKUJ_clean_sbu_0, # of connection points: 6
#     Node 35, Type 1, BuildingBlock: MIFKUJ_clean_sbu_0, # of connection points: 6
#     Node 36, Type 1, BuildingBlock: MIFKUJ_clean_sbu_0, # of connection points: 6
#     Node 37, Type 1, BuildingBlock: MIFKUJ_clean_sbu_0, # of connection points: 6
#     Node 38, Type 1, BuildingBlock: MIFKUJ_clean_sbu_0, # of connection points: 6
#     Node 39, Type 1, BuildingBlock: MIFKUJ_clean_sbu_0, # of connection points: 6
#     Edge 40, Type (0, 1), BuildingBlock: AJUNOK_clean_linker_0, # of connection points: 2
#     Edge 41, Type (0, 1), BuildingBlock: AJUNOK_clean_linker_0, # of connection points: 2
#     Edge 42, Type (0, 1), BuildingBlock: AJUNOK_clean_linker_0, # of connection points: 2
#     Edge 43, Type (0, 1), BuildingBlock: AJUNOK_clean_linker_0, # of connection points: 2
#     Edge 44, Type (0, 1), BuildingBlock: AJUNOK_clean_linker_0, # of connection points: 2
#     Edge 45, Type (0, 1), BuildingBlock: AJUNOK_clean_linker_0, # of connection points: 2
#     Edge 46, Type (0, 1), BuildingBlock: AJUNOK_clean_linker_0, # of connection points: 2
#     Edge 47, Type (0, 1), BuildingBlock: AJUNOK_clean_linker_0, # of connection points: 2
#     Edge 48, Type (0, 1), BuildingBlock: AJUNOK_clean_linker_0, # of connection points: 2
#     Edge 49, Type (0, 1), BuildingBlock: AJUNOK_clean_linker_0, # of connection points: 2
#     Edge 50, Type (0, 1), BuildingBlock: AJUNOK_clean_linker_0, # of connection points: 2
#     Edge 51, Type (0, 1), BuildingBlock: AJUNOK_clean_linker_0, # of connection points: 2
#     Edge 52, Type (0, 1), BuildingBlock: AJUNOK_clean_linker_0, # of connection points: 2
#     Edge 53, Type (0, 1), BuildingBlock: AJUNOK_clean_linker_0, # of connection points: 2
#     Edge 54, Type (0, 1), BuildingBlock: AJUNOK_clean_linker_0, # of connection points: 2
#     Edge 55, Type (0, 1), BuildingBlock: AJUNOK_clean_linker_0, # of connection points: 2
#     Edge 56, Type (0, 1), BuildingBlock: AJUNOK_clean_linker_0, # of connection points: 2
#     Edge 57, Type (0, 1), BuildingBlock: AJUNOK_clean_linker_0, # of connection points: 2
#     Edge 58, Type (0, 1), BuildingBlock: AJUNOK_clean_linker_0, # of connection points: 2
#     Edge 59, Type (0, 1), BuildingBlock: AJUNOK_clean_linker_0, # of connection points: 2
#     Edge 60, Type (0, 1), BuildingBlock: AJUNOK_clean_linker_0, # of connection points: 2
#     Edge 61, Type (0, 1), BuildingBlock: AJUNOK_clean_linker_0, # of connection points: 2
#     Edge 62, Type (0, 1), BuildingBlock: AJUNOK_clean_linker_0, # of connection points: 2
#     Edge 63, Type (0, 1), BuildingBlock: AJUNOK_clean_linker_0, # of connection points: 2
#     Edge 64, Type (0, 1), BuildingBlock: AJUNOK_clean_linker_0, # of connection points: 2
#     Edge 65, Type (0, 1), BuildingBlock: AJUNOK_clean_linker_0, # of connection points: 2
#     Edge 66, Type (0, 1), BuildingBlock: AJUNOK_clean_linker_0, # of connection points: 2
#     Edge 67, Type (0, 1), BuildingBlock: AJUNOK_clean_linker_0, # of connection points: 2
#     Edge 68, Type (0, 1), BuildingBlock: AJUNOK_clean_linker_0, # of connection points: 2
#     Edge 69, Type (0, 1), BuildingBlock: AJUNOK_clean_linker_0, # of connection points: 2
#     Edge 70, Type (0, 1), BuildingBlock: AJUNOK_clean_linker_0, # of connection points: 2
#     Edge 71, Type (0, 1), BuildingBlock: AJUNOK_clean_linker_0, # of connection points: 2
#     Edge 72, Type (0, 1), BuildingBlock: AJUNOK_clean_linker_0, # of connection points: 2
#     Edge 73, Type (0, 1), BuildingBlock: AJUNOK_clean_linker_0, # of connection points: 2
#     Edge 74, Type (0, 1), BuildingBlock: AJUNOK_clean_linker_0, # of connection points: 2
#     Edge 75, Type (0, 1), BuildingBlock: AJUNOK_clean_linker_0, # of connection points: 2
#     Edge 76, Type (0, 1), BuildingBlock: AJUNOK_clean_linker_0, # of connection points: 2
#     Edge 77, Type (0, 1), BuildingBlock: AJUNOK_clean_linker_0, # of connection points: 2
#     Edge 78, Type (0, 1), BuildingBlock: AJUNOK_clean_linker_0, # of connection points: 2
#     Edge 79, Type (0, 1), BuildingBlock: AJUNOK_clean_linker_0, # of connection points: 2
#     Edge 80, Type (0, 1), BuildingBlock: AJUNOK_clean_linker_0, # of connection points: 2
#     Edge 81, Type (0, 1), BuildingBlock: AJUNOK_clean_linker_0, # of connection points: 2
#     Edge 82, Type (0, 1), BuildingBlock: AJUNOK_clean_linker_0, # of connection points: 2
#     Edge 83, Type (0, 1), BuildingBlock: AJUNOK_clean_linker_0, # of connection points: 2
#     Edge 84, Type (0, 1), BuildingBlock: AJUNOK_clean_linker_0, # of connection points: 2
#     Edge 85, Type (0, 1), BuildingBlock: AJUNOK_clean_linker_0, # of connection points: 2
#     Edge 86, Type (0, 1), BuildingBlock: AJUNOK_clean_linker_0, # of connection points: 2
#     Edge 87, Type (0, 1), BuildingBlock: AJUNOK_clean_linker_0, # of connection points: 2
#     Edge 88, Type (0, 1), BuildingBlock: AJUNOK_clean_linker_0, # of connection points: 2
#     Edge 89, Type (0, 1), BuildingBlock: AJUNOK_clean_linker_0, # of connection points: 2
#     Edge 90, Type (0, 1), BuildingBlock: AJUNOK_clean_linker_0, # of connection points: 2
#     Edge 91, Type (0, 1), BuildingBlock: AJUNOK_clean_linker_0, # of connection points: 2
#     Edge 92, Type (0, 1), BuildingBlock: AJUNOK_clean_linker_0, # of connection points: 2
#     Edge 93, Type (0, 1), BuildingBlock: AJUNOK_clean_linker_0, # of connection points: 2
#     Edge 94, Type (0, 1), BuildingBlock: AJUNOK_clean_linker_0, # of connection points: 2
#     Edge 95, Type (0, 1), BuildingBlock: AJUNOK_clean_linker_0, # of connection points: 2
#     Edge 96, Type (0, 1), BuildingBlock: AJUNOK_clean_linker_0, # of connection points: 2
#     Edge 97, Type (0, 1), BuildingBlock: AJUNOK_clean_linker_0, # of connection points: 2
#     Edge 98, Type (0, 1), BuildingBlock: AJUNOK_clean_linker_0, # of connection points: 2
#     Edge 99, Type (0, 1), BuildingBlock: AJUNOK_clean_linker_0, # of connection points: 2
#     Edge 100, Type (0, 1), BuildingBlock: AJUNOK_clean_linker_0, # of connection points: 2
#     Edge 101, Type (0, 1), BuildingBlock: AJUNOK_clean_linker_0, # of connection points: 2
#     Edge 102, Type (0, 1), BuildingBlock: AJUNOK_clean_linker_0, # of connection points: 2
#     Edge 103, Type (0, 1), BuildingBlock: AJUNOK_clean_linker_0, # of connection points: 2
#     Edge 104, Type (0, 1), BuildingBlock: AJUNOK_clean_linker_0, # of connection points: 2
#     Edge 105, Type (0, 1), BuildingBlock: AJUNOK_clean_linker_0, # of connection points: 2
#     Edge 106, Type (0, 1), BuildingBlock: AJUNOK_clean_linker_0, # of connection points: 2
#     Edge 107, Type (0, 1), BuildingBlock: AJUNOK_clean_linker_0, # of connection points: 2
#     Edge 108, Type (0, 1), BuildingBlock: AJUNOK_clean_linker_0, # of connection points: 2
#     Edge 109, Type (0, 1), BuildingBlock: AJUNOK_clean_linker_0, # of connection points: 2
#     Edge 110, Type (0, 1), BuildingBlock: AJUNOK_clean_linker_0, # of connection points: 2
#     Edge 111, Type (0, 1), BuildingBlock: AJUNOK_clean_linker_0, # of connection points: 2
#     Edge 112, Type (0, 1), BuildingBlock: AJUNOK_clean_linker_0, # of connection points: 2
#     Edge 113, Type (0, 1), BuildingBlock: AJUNOK_clean_linker_0, # of connection points: 2
#     Edge 114, Type (0, 1), BuildingBlock: AJUNOK_clean_linker_0, # of connection points: 2
#     Edge 115, Type (0, 1), BuildingBlock: AJUNOK_clean_linker_0, # of connection points: 2
#     Edge 116, Type (0, 1), BuildingBlock: AJUNOK_clean_linker_0, # of connection points: 2
#     Edge 117, Type (0, 1), BuildingBlock: AJUNOK_clean_linker_0, # of connection points: 2
#     Edge 118, Type (0, 1), BuildingBlock: AJUNOK_clean_linker_0, # of connection points: 2
#     Edge 119, Type (0, 1), BuildingBlock: AJUNOK_clean_linker_0, # of connection points: 2
#     Edge 120, Type (0, 1), BuildingBlock: AJUNOK_clean_linker_0, # of connection points: 2
#     Edge 121, Type (0, 1), BuildingBlock: AJUNOK_clean_linker_0, # of connection points: 2
#     Edge 122, Type (0, 1), BuildingBlock: AJUNOK_clean_linker_0, # of connection points: 2
#     Edge 123, Type (0, 1), BuildingBlock: AJUNOK_clean_linker_0, # of connection points: 2
#     Edge 124, Type (0, 1), BuildingBlock: AJUNOK_clean_linker_0, # of connection points: 2
#     Edge 125, Type (0, 1), BuildingBlock: AJUNOK_clean_linker_0, # of connection points: 2
#     Edge 126, Type (0, 1), BuildingBlock: AJUNOK_clean_linker_0, # of connection points: 2
#     Edge 127, Type (0, 1), BuildingBlock: AJUNOK_clean_linker_0, # of connection points: 2
#     Edge 128, Type (0, 1), BuildingBlock: AJUNOK_clean_linker_0, # of connection points: 2
#     Edge 129, Type (0, 1), BuildingBlock: AJUNOK_clean_linker_0, # of connection points: 2
#     Edge 130, Type (0, 1), BuildingBlock: AJUNOK_clean_linker_0, # of connection points: 2
#     Edge 131, Type (0, 1), BuildingBlock: AJUNOK_clean_linker_0, # of connection points: 2
#     Edge 132, Type (0, 1), BuildingBlock: AJUNOK_clean_linker_0, # of connection points: 2
#     Edge 133, Type (0, 1), BuildingBlock: AJUNOK_clean_linker_0, # of connection points: 2
#     Edge 134, Type (0, 1), BuildingBlock: AJUNOK_clean_linker_0, # of connection points: 2
#     Edge 135, Type (0, 1), BuildingBlock: AJUNOK_clean_linker_0, # of connection points: 2
# Relax obj value: 0.105
# Max RMSD: 0.307
# Mean RMSD: 0.133
data_MOF--net-gar--node1-CEKHIL_clean_sbu_0--node2-MIFKUJ_clean_sbu_0--edge1-AJUNOK_clean_linker_0
_symmetry_space_group_name_H-M    P1
_symmetry_Int_Tables_number       1
_symmetry_cell_setting            triclinic
loop_
_symmetry_equiv_pos_as_xyz
'x, y, z'
_cell_length_a     42.70497
_cell_length_b     42.228797
_cell_length_c     39.684296
_cell_angle_alpha  94.828441
_cell_angle_beta   95.013985
_cell_angle_gamma 99.751802
loop_
_atom_site_label
_atom_site_type_symbol
_atom_site_fract_x
_atom_site_fract_y
_atom_site_fract_z
_atom_type_partial_charge
Co0 Co 0.04256 0.28653 0.4242 0.0
O1 O 0.08671 0.28252 0.42903 0.0
O2 O 0.05333 0.26726 0.38214 0.0
C3 C 0.04935 0.33781 0.44825 0.0
O4 O 0.99659 0.28731 0.40815 0.0
Co5 Co 1.00459 0.29872 0.48551 0.0
O6 O 0.97091 0.30551 0.45044 0.0
C7 C 0.01877 0.2336 0.46785 0.0
C8 C 0.08198 0.2703 0.39742 0.0
C9 C 0.97191 0.29639 0.41917 0.0
O10 O 0.03023 0.24297 0.44071 0.0
O11 O 0.00951 0.25275 0.49009 0.0
O12 O 0.05403 0.33171 0.41661 0.0
O13 O 0.04335 0.3129 0.46495 0.0
Co14 Co 0.01354 0.75679 0.64018 0.0
O15 O 0.96833 0.75522 0.63668 0.0
O16 O 0.99699 0.74114 0.68068 0.0
C17 C 0.02559 0.80699 0.62401 0.0
O18 O 0.06059 0.75661 0.65319 0.0
Co19 Co 0.049 0.76385 0.57515 0.0
O20 O 0.0871 0.77145 0.60894 0.0
C21 C 0.01216 0.70058 0.58616 0.0
C22 C 0.96953 0.74552 0.6668 0.0
C23 C 0.08665 0.76454 0.6396 0.0
O24 O 0.00761 0.71148 0.61637 0.0
O25 O 0.02539 0.71849 0.56504 0.0
O26 O 0.02064 0.80281 0.65527 0.0
O27 O 0.02013 0.78106 0.60322 0.0
Co28 Co 0.54453 0.79156 0.91811 0.0
O29 O 0.5892 0.79035 0.92179 0.0
O30 O 0.55541 0.77288 0.87561 0.0
C31 C 0.54859 0.84248 0.94157 0.0
O32 O 0.49745 0.78972 0.90419 0.0
Co33 Co 0.5091 0.8015 0.9823 0.0
O34 O 0.47404 0.80768 0.94865 0.0
C35 C 0.52624 0.73812 0.96308 0.0
C36 C 0.58444 0.77765 0.89039 0.0
C37 C 0.47336 0.79846 0.91713 0.0
O38 O 0.53569 0.74796 0.93528 0.0
O39 O 0.51665 0.75627 0.98604 0.0
O40 O 0.5528 0.8367 0.90974 0.0
O41 O 0.54534 0.81775 0.95879 0.0
Co42 Co 0.50934 0.25726 0.12914 0.0
O43 O 0.46392 0.25157 0.12734 0.0
O44 O 0.49605 0.24017 0.17018 0.0
C45 C 0.51654 0.30723 0.11291 0.0
O46 O 0.55705 0.26122 0.14041 0.0
Co47 Co 0.54354 0.26806 0.0638 0.0
O48 O 0.58233 0.27932 0.09664 0.0
C49 C 0.50954 0.20318 0.07407 0.0
C50 C 0.46737 0.24185 0.15737 0.0
C51 C 0.58263 0.27197 0.12716 0.0
O52 O 0.50609 0.21275 0.10498 0.0
O53 O 0.52111 0.22232 0.05312 0.0
O54 O 0.51298 0.30278 0.14444 0.0
O55 O 0.51272 0.28147 0.09204 0.0
Co56 Co 0.037 0.78145 0.16929 0.0
O57 O 0.99177 0.77623 0.16081 0.0
O58 O 0.01711 0.76729 0.20921 0.0
C59 C 0.04508 0.82989 0.14807 0.0
O60 O 0.08411 0.78526 0.18689 0.0
Co61 Co 0.07735 0.78682 0.10803 0.0
O62 O 0.11301 0.79999 0.14438 0.0
C63 C 0.04338 0.72319 0.12187 0.0
C64 C 0.99026 0.76884 0.19166 0.0
C65 C 0.11111 0.79369 0.17504 0.0
O66 O 0.03561 0.73567 0.14996 0.0
O67 O 0.05766 0.73989 0.10043 0.0
O68 O 0.03946 0.82794 0.17954 0.0
O69 O 0.04408 0.80268 0.13036 0.0
Co70 Co 0.52117 0.76353 0.38732 0.0
O71 O 0.5667 0.7717 0.39692 0.0
O72 O 0.54042 0.74625 0.34889 0.0
C73 C 0.51463 0.81355 0.40461 0.0
O74 O 0.47415 0.7524 0.36802 0.0
Co75 Co 0.47921 0.7697 0.44683 0.0
O76 O 0.44404 0.76369 0.40974 0.0
C77 C 0.51453 0.71607 0.44058 0.0
C78 C 0.56761 0.75777 0.36674 0.0
C79 C 0.44702 0.75527 0.37874 0.0
O80 O 0.5191 0.72203 0.40984 0.0
O81 O 0.50201 0.73449 0.46064 0.0
O82 O 0.52255 0.80718 0.37426 0.0
O83 O 0.51402 0.7907 0.42423 0.0
Co84 Co 0.53781 0.2816 0.67677 0.0
O85 O 0.4929 0.27235 0.66295 0.0
O86 O 0.51523 0.26541 0.71367 0.0
C87 C 0.54432 0.32977 0.65548 0.0
O88 O 0.58271 0.28891 0.7011 0.0
Co89 Co 0.58812 0.2926 0.62589 0.0
O90 O 0.61902 0.30765 0.66672 0.0
C91 C 0.55441 0.22661 0.63247 0.0
C92 C 0.48935 0.2641 0.69334 0.0
C93 C 0.61144 0.30048 0.69581 0.0
O94 O 0.54208 0.23702 0.65871 0.0
O95 O 0.57101 0.24516 0.61418 0.0
O96 O 0.53566 0.32719 0.68588 0.0
O97 O 0.54828 0.30339 0.63888 0.0
Co98 Co 0.01545 0.2573 0.895 0.0
O99 O 0.06018 0.26886 0.90928 0.0
O100 O 0.03992 0.24278 0.85951 0.0
C101 C 1.00629 0.30688 0.91199 0.0
O102 O 0.97049 0.24357 0.86994 0.0
Co103 Co 0.96464 0.26117 0.94555 0.0
O104 O 0.93627 0.2617 0.90366 0.0
C105 C 1.00595 0.21166 0.94856 0.0
C106 C 0.0651 0.25693 0.87947 0.0
C107 C 0.94299 0.25075 0.87484 0.0
O108 O 0.01386 0.21615 0.91837 0.0
O109 O 0.98895 0.22904 0.96426 0.0
O110 O 0.01561 0.3009 0.88217 0.0
O111 O 1.00353 0.28312 0.93046 0.0
Co112 Co 0.41429 0.02868 0.309 0.0
O113 O 0.4156 0.07248 0.29786 0.0
O114 O 0.37182 0.03503 0.29481 0.0
C115 C 0.44688 0.04163 0.35815 0.0
O116 O 0.4017 0.98192 0.31845 0.0
Co117 Co 0.47309 0.9949 0.31802 0.0
O118 O 0.44359 0.95897 0.33359 0.0
C119 C 0.44517 0.00396 0.24905 0.0
C120 C 0.38478 0.06442 0.29116 0.0
C121 C 0.41358 0.9579 0.32846 0.0
O122 O 0.42145 0.01461 0.26102 0.0
O123 O 0.46875 0.99736 0.26771 0.0
O124 O 0.41668 0.04329 0.35752 0.0
O125 O 0.45647 0.03386 0.32922 0.0
Co126 Co 0.27034 0.135 0.48914 0.0
O127 O 0.31662 0.14259 0.4958 0.0
O128 O 0.28584 0.09604 0.50068 0.0
C129 C 0.26824 0.16103 0.4404 0.0
O130 O 0.2221 0.11612 0.485 0.0
Co131 Co 0.23094 0.18984 0.48744 0.0
O132 O 0.19299 0.15509 0.47961 0.0
C133 C 0.2628 0.1767 0.5529 0.0
C134 C 0.31453 0.11275 0.50245 0.0
C135 C 0.19489 0.12564 0.48226 0.0
O136 O 0.26923 0.15012 0.5389 0.0
O137 O 0.25022 0.19666 0.53594 0.0
O138 O 0.27135 0.1308 0.43902 0.0
O139 O 0.26703 0.17422 0.47054 0.0
Co140 Co 0.15183 0.01402 0.81101 0.0
O141 O 0.14223 0.96717 0.80498 0.0
O142 O 0.18968 0.99597 0.80171 0.0
C143 C 0.12474 0.01824 0.85814 0.0
O144 O 0.17322 0.06179 0.81622 0.0
Co145 Co 0.10201 0.05888 0.81055 0.0
O146 O 0.13827 0.09513 0.82345 0.0
C147 C 0.1153 0.026 0.74575 0.0
C148 C 0.17208 0.96755 0.8005 0.0
C149 C 0.16672 0.09037 0.82154 0.0
O150 O 0.13952 0.01629 0.7608 0.0
O151 O 0.09612 0.04044 0.76171 0.0
O152 O 0.15403 0.01314 0.86086 0.0
O153 O 0.11268 0.02006 0.82765 0.0
Co154 Co 0.24958 0.8742 0.99622 0.0
O155 O 0.20575 0.87555 0.00323 0.0
O156 O 0.24553 0.91728 0.01366 0.0
C157 C 0.23911 0.84527 0.94428 0.0
O158 O 0.29721 0.88363 0.99211 0.0
Co159 Co 0.27587 0.80978 0.98548 0.0
O160 O 0.3166 0.83823 0.97984 0.0
C161 C 0.26755 0.83721 0.05496 0.0
C162 C 0.21528 0.90599 0.01354 0.0
C163 C 0.32029 0.8688 0.98604 0.0
O164 O 0.2588 0.86246 0.04379 0.0
O165 O 0.27276 0.81325 0.03559 0.0
O166 O 0.24024 0.8764 0.94708 0.0
O167 O 0.24224 0.83283 0.97255 0.0
Co168 Co 0.27683 0.39778 0.0549 0.0
O169 O 0.23076 0.38782 0.04916 0.0
O170 O 0.25853 0.43369 0.07453 0.0
C171 C 0.28156 0.38162 -0.00014 0.0
O172 O 0.32492 0.4182 0.0628 0.0
Co173 Co 0.31758 0.34487 0.04205 0.0
O174 O 0.35273 0.38178 0.04157 0.0
C175 C 0.28139 0.34521 0.10228 0.0
C176 C 0.23073 0.41673 0.06292 0.0
C177 C 0.35115 0.41039 0.0534 0.0
O178 O 0.27719 0.37458 0.09869 0.0
O179 O 0.29422 0.32885 0.08046 0.0
O180 O 0.27646 0.41051 0.00844 0.0
O181 O 0.28209 0.36337 0.02425 0.0
Co182 Co 0.79037 0.14298 0.03973 0.0
O183 O 0.8352 0.14914 0.03467 0.0
O184 O 0.80793 0.10613 0.0537 0.0
C185 C 0.7772 0.15726 0.98799 0.0
O186 O 0.7433 0.12738 0.04584 0.0
Co187 Co 0.75471 0.20117 0.03672 0.0
O188 O 0.71621 0.16772 0.0366 0.0
C189 C 0.79822 0.19666 0.09699 0.0
C190 C 0.8346 0.12034 0.04379 0.0
C191 C 0.71709 0.13866 0.04251 0.0
O192 O 0.79885 0.16683 0.08715 0.0
O193 O 0.7856 0.21527 0.07822 0.0
O194 O 0.78146 0.12798 0.9915 0.0
O195 O 0.78314 0.17718 0.01506 0.0
Co196 Co 0.13872 0.49554 0.26482 0.0
O197 O 0.13608 0.45086 0.27209 0.0
O198 O 0.17522 0.47994 0.2486 0.0
C199 C 0.12699 0.51157 0.31688 0.0
O200 O 0.15069 0.54249 0.25556 0.0
Co201 Co 0.07908 0.52818 0.26789 0.0
O202 O 0.11001 0.56836 0.26538 0.0
C203 C 0.08348 0.48348 0.20902 0.0
C204 C 0.16338 0.45282 0.25973 0.0
C205 C 0.13855 0.56835 0.2583 0.0
O206 O 0.11327 0.48416 0.21858 0.0
O207 O 0.06477 0.49548 0.22787 0.0
O208 O 0.15589 0.50768 0.31224 0.0
O209 O 0.10594 0.50274 0.29103 0.0
Co210 Co 0.77914 0.89167 0.54515 0.0
O211 O 0.73315 0.88419 0.53943 0.0
O212 O 0.76269 0.9294 0.56387 0.0
C213 C 0.78266 0.87291 0.4905 0.0
O214 O 0.82771 0.90942 0.55293 0.0
Co215 Co 0.81639 0.83527 0.5334 0.0
O216 O 0.85289 0.87063 0.53199 0.0
C217 C 0.78242 0.84092 0.59487 0.0
C218 C 0.73437 0.91366 0.5522 0.0
C219 C 0.8532 0.89964 0.54401 0.0
O220 O 0.77876 0.8701 0.58968 0.0
O221 O 0.79393 0.8227 0.5736 0.0
O222 O 0.77941 0.90264 0.498 0.0
O223 O 0.78236 0.85563 0.51567 0.0
Co224 Co 0.89988 0.0117 0.25695 0.0
O225 O 0.90874 0.05834 0.26138 0.0
O226 O 0.86316 0.02921 0.23802 0.0
C227 C 0.91775 0.00807 0.31195 0.0
O228 O 0.88107 0.96266 0.25049 0.0
Co229 Co 0.95513 0.97368 0.26893 0.0
O230 O 0.91943 0.93809 0.27292 0.0
C231 C 0.94962 0.0065 0.20664 0.0
C232 C 0.87976 0.05772 0.24833 0.0
C233 C 0.89058 0.93731 0.26106 0.0
O234 O 0.9209 0.01051 0.2121 0.0
O235 O 0.96794 0.99532 0.22809 0.0
O236 O 0.88884 0.01261 0.30394 0.0
O237 O 0.9352 0.00803 0.28707 0.0
Co238 Co 0.29447 0.64949 0.53567 0.0
O239 O 0.33884 0.6504 0.52987 0.0
O240 O 0.30817 0.61133 0.55185 0.0
C241 C 0.28198 0.66286 0.48302 0.0
O242 O 0.24701 0.63908 0.54292 0.0
Co243 Co 0.26438 0.71136 0.52885 0.0
O244 O 0.22397 0.68044 0.52742 0.0
C245 C 0.30675 0.7067 0.5897 0.0
C246 C 0.3355 0.62224 0.54112 0.0
C247 C 0.22211 0.65198 0.53647 0.0
O248 O 0.3052 0.67596 0.58199 0.0
O249 O 0.29673 0.72504 0.56875 0.0
O250 O 0.28347 0.63299 0.48747 0.0
O251 O 0.29016 0.68306 0.50956 0.0
Co252 Co 0.4009 0.50662 0.75921 0.0
O253 O 0.41115 0.55315 0.76588 0.0
O254 O 0.36472 0.52621 0.74244 0.0
C255 C 0.41966 0.50113 0.81343 0.0
O256 O 0.38033 0.45796 0.75109 0.0
Co257 Co 0.45341 0.46537 0.76731 0.0
O258 O 0.41722 0.43032 0.77106 0.0
C259 C 0.44903 0.50176 0.70732 0.0
C260 C 0.38209 0.554 0.7542 0.0
C261 C 0.38844 0.43157 0.76058 0.0
O262 O 0.42088 0.50678 0.7138 0.0
O263 O 0.46662 0.48836 0.72741 0.0
O264 O 0.39079 0.50614 0.8063 0.0
O265 O 0.43658 0.50098 0.78806 0.0
Co266 Co 0.64541 1.00176 0.76624 0.0
O267 O 0.63829 0.95697 0.77319 0.0
O268 O 0.68092 0.98249 0.75251 0.0
C269 C 0.63299 0.01817 0.81772 0.0
O270 O 0.6615 0.04841 0.75793 0.0
Co271 Co 0.58862 0.03907 0.76799 0.0
O272 O 0.62209 0.07699 0.76497 0.0
C273 C 0.59113 0.99241 0.71016 0.0
C274 C 0.66646 0.95635 0.76373 0.0
C275 C 0.65066 0.07509 0.75926 0.0
O276 O 0.62088 0.99222 0.71931 0.0
O277 O 0.57312 0.00534 0.72915 0.0
O278 O 0.66145 0.01237 0.81415 0.0
O279 O 0.61269 0.0113 0.79107 0.0
Co280 Co 0.77002 0.63717 0.99248 0.0
O281 O 0.81612 0.64627 0.99733 0.0
O282 O 0.78746 0.5985 0.00136 0.0
C283 C 0.7657 0.66482 0.94516 0.0
O284 O 0.72222 0.61679 0.98881 0.0
Co285 Co 0.72908 0.69038 0.99628 0.0
O286 O 0.69161 0.65509 0.99077 0.0
C287 C 0.76216 0.67429 0.05951 0.0
C288 C 0.81562 0.6162 0.00226 0.0
C289 C 0.69475 0.6256 0.98924 0.0
O290 O 0.76994 0.6496 0.043 0.0
O291 O 0.74817 0.69472 0.04482 0.0
O292 O 0.76981 0.63489 0.94253 0.0
O293 O 0.76487 0.67698 0.9759 0.0
Co294 Co 0.91146 0.53399 0.80631 0.0
O295 O 0.91918 0.57816 0.79582 0.0
O296 O 0.87212 0.54549 0.78905 0.0
C297 C 0.94127 0.54266 0.85699 0.0
O298 O 0.89217 0.48865 0.81418 0.0
Co299 Co 0.96204 0.49086 0.81845 0.0
O300 O 0.92703 0.45774 0.83042 0.0
C301 C 0.94342 0.50669 0.74893 0.0
C302 C 0.88864 0.5737 0.78631 0.0
C303 C 0.89844 0.4621 0.82395 0.0
O304 O 0.9201 0.51914 0.75932 0.0
O305 O 0.96381 0.49636 0.76885 0.0
O306 O 0.91206 0.54807 0.85463 0.0
O307 O 0.95166 0.53343 0.82895 0.0
Co308 Co 0.75576 0.38509 0.49715 0.0
O309 O 0.71152 0.38528 0.50476 0.0
O310 O 0.75027 0.42796 0.51319 0.0
C311 C 0.74606 0.35483 0.44608 0.0
O312 O 0.80312 0.39679 0.49245 0.0
Co313 Co 0.7876 0.32433 0.48632 0.0
O314 O 0.8254 0.35461 0.47579 0.0
C315 C 0.77618 0.34957 0.55566 0.0
C316 C 0.72034 0.41606 0.51409 0.0
C317 C 0.82717 0.38477 0.48359 0.0
O318 O 0.76559 0.37413 0.54492 0.0
O319 O 0.78388 0.327 0.53623 0.0
O320 O 0.74566 0.38572 0.4479 0.0
O321 O 0.75052 0.34331 0.47468 0.0
Co322 Co 0.65339 0.51808 0.31346 0.0
O323 O 0.64496 0.47129 0.30661 0.0
O324 O 0.69175 0.50165 0.30346 0.0
C325 C 0.62646 0.51985 0.36109 0.0
O326 O 0.67369 0.56636 0.31917 0.0
Co327 Co 0.60187 0.56065 0.31376 0.0
O328 O 0.637 0.59829 0.32226 0.0
C329 C 0.61639 0.53013 0.24822 0.0
C330 C 0.67489 0.47284 0.30188 0.0
C331 C 0.66591 0.59462 0.32155 0.0
O332 O 0.64071 0.52072 0.26336 0.0
O333 O 0.59682 0.54382 0.26441 0.0
O334 O 0.65605 0.51572 0.36301 0.0
O335 O 0.61407 0.52247 0.33087 0.0
Zn336 Zn 0.06542 1.00142 0.05037 0.0
Zn337 Zn 1.001 0.03755 0.01194 0.0
C338 C 0.05227 0.95162 0.08927 0.0
O339 O 0.06454 0.97685 0.11091 0.0
C340 C 0.02196 0.10631 0.02788 0.0
O341 O 1.00114 0.10504 0.05038 0.0
O342 O 0.11249 0.99818 0.06257 0.0
O343 O 0.06026 0.00975 0.00016 0.0
O344 O 0.0168 0.01746 0.96966 0.0
C345 C 0.12961 0.99575 0.03806 0.0
O346 O 0.12006 0.00485 0.00882 0.0
O347 O 0.0475 0.95542 0.05781 0.0
C348 C 0.94248 0.05502 0.0303 0.0
O349 O 0.95616 0.05078 0.05998 0.0
O350 O 0.95669 0.05024 0.0038 0.0
O351 O 0.99817 0.01123 0.05314 0.0
O352 O 0.04386 0.02789 0.08458 0.0
O353 O 0.03081 0.08047 0.01702 0.0
C354 C 0.04605 0.01427 0.97184 0.0
C355 C 0.01346 0.02023 0.08227 0.0
Zn356 Zn 0.25704 0.74656 0.30166 0.0
Zn357 Zn 0.2964 0.78435 0.2503 0.0
C358 C 0.21079 0.69745 0.26852 0.0
O359 O 0.19442 0.71764 0.28278 0.0
C360 C 0.33852 0.83301 0.28929 0.0
O361 O 0.35648 0.8164 0.2724 0.0
O362 O 0.24513 0.73235 0.34609 0.0
O363 O 0.30507 0.75585 0.31269 0.0
O364 O 0.32439 0.75259 0.26334 0.0
C365 C 0.25515 0.70634 0.35166 0.0
O366 O 0.2693 0.6921 0.32816 0.0
O367 O 0.24098 0.70571 0.26992 0.0
C368 C 0.29242 0.82327 0.19847 0.0
O369 O 0.27646 0.83613 0.22123 0.0
O370 O 0.30673 0.80039 0.20624 0.0
O371 O 0.24954 0.76758 0.2388 0.0
O372 O 0.23209 0.78102 0.28691 0.0
O373 O 0.30832 0.82411 0.28467 0.0
C374 C 0.32759 0.75087 0.29517 0.0
C375 C 0.22867 0.77871 0.25467 0.0
Zn376 Zn 0.48784 0.03562 0.54452 0.0
Zn377 Zn 0.56522 0.99554 0.51486 0.0
C378 C 0.52037 0.0895 0.59024 0.0
O379 O 0.51237 0.06898 0.6124 0.0
C380 C 0.52307 0.93806 0.47865 0.0
O381 O 0.49891 0.94937 0.49041 0.0
O382 O 0.43995 0.04075 0.53558 0.0
O383 O 0.50475 0.01755 0.50166 0.0
O384 O 0.55217 0.02774 0.48334 0.0
C385 C 0.43096 0.06588 0.54908 0.0
O386 O 0.45119 0.0856 0.57138 0.0
O387 O 0.51312 0.08038 0.55871 0.0
C388 C 0.61781 0.96945 0.54264 0.0
O389 O 0.5928 0.94897 0.54906 0.0
O390 O 0.61314 0.99497 0.52921 0.0
O391 O 0.53718 0.99864 0.55227 0.0
O392 O 0.49934 0.00835 0.58296 0.0
O393 O 0.5513 0.95335 0.48683 0.0
C394 C 0.5234 0.0329 0.48281 0.0
C395 C 0.52542 0.99782 0.58041 0.0
Zn396 Zn 0.30603 0.24091 0.76443 0.0
Zn397 Zn 0.24716 0.28115 0.80343 0.0
C398 C 0.28745 0.20609 0.70045 0.0
O399 O 0.29897 0.18483 0.71797 0.0
C400 C 0.27074 0.3319 0.8575 0.0
O401 O 0.25955 0.3498 0.83544 0.0
O402 O 0.35111 0.23421 0.75926 0.0
O403 O 0.31266 0.28823 0.78428 0.0
O404 O 0.26952 0.30683 0.76781 0.0
C405 C 0.36273 0.25171 0.73721 0.0
O406 O 0.3453 0.27077 0.72298 0.0
O407 O 0.28564 0.23339 0.71578 0.0
C408 C 0.19255 0.2785 0.83577 0.0
O409 O 0.21437 0.27221 0.85833 0.0
O410 O 0.20041 0.28504 0.80652 0.0
O411 O 0.24525 0.23283 0.80467 0.0
O412 O 0.2823 0.20571 0.78919 0.0
O413 O 0.27035 0.30225 0.84834 0.0
C414 C 0.29988 0.31004 0.77108 0.0
C415 C 0.25593 0.20652 0.8015 0.0
Zn416 Zn 0.04646 0.9845 0.53871 0.0
Zn417 Zn 0.0095 0.03926 0.51263 0.0
C418 C 0.08612 0.01081 0.59839 0.0
O419 O 0.10637 0.99996 0.57925 0.0
C420 C 0.96739 0.01604 0.45425 0.0
O421 O 0.9484 0.02469 0.47629 0.0
O422 O 0.05759 0.94124 0.54887 0.0
O423 O 0.99819 0.97101 0.52605 0.0
O424 O 0.98033 0.01474 0.5432 0.0
C425 C 0.04521 0.93278 0.57556 0.0
O426 O 0.02806 0.95157 0.59077 0.0
O427 O 0.05764 0.01017 0.58528 0.0
C428 C 0.01067 0.0971 0.48508 0.0
O429 O 0.02547 0.08051 0.46411 0.0
O430 O 0.99908 0.08362 0.50985 0.0
O431 O 0.05771 0.05089 0.52467 0.0
O432 O 0.07547 0.0076 0.50625 0.0
O433 O 0.99683 0.01782 0.4644 0.0
C434 C 0.97614 0.98417 0.53774 0.0
C435 C 0.079 0.03827 0.51078 0.0
Zn436 Zn 0.26169 0.80006 0.76242 0.0
Zn437 Zn 0.3008 0.72889 0.79092 0.0
C438 C 0.21288 0.77508 0.71231 0.0
O439 O 0.23665 0.7879 0.69611 0.0
C440 C 0.34939 0.75934 0.841 0.0
O441 O 0.32824 0.74451 0.85915 0.0
O442 O 0.25243 0.84712 0.76928 0.0
O443 O 0.28184 0.78625 0.80424 0.0
O444 O 0.26949 0.7406 0.82509 0.0
C445 C 0.22628 0.84853 0.78241 0.0
O446 O 0.21072 0.82174 0.7919 0.0
O447 O 0.21818 0.77344 0.7441 0.0
C448 C 0.33746 0.67685 0.78252 0.0
O449 O 0.35985 0.70249 0.78355 0.0
O450 O 0.30888 0.68103 0.78612 0.0
O451 O 0.28551 0.73957 0.74353 0.0
O452 O 0.29301 0.78949 0.72935 0.0
O453 O 0.34308 0.75722 0.80889 0.0
C454 C 0.26638 0.7701 0.82464 0.0
C455 C 0.29893 0.7607 0.7257 0.0
Zn456 Zn 0.53486 0.0303 0.99041 0.0
Zn457 Zn 0.49396 0.99815 0.04793 0.0
C458 C 0.58759 0.07103 0.02581 0.0
O459 O 0.57095 0.09072 0.01159 0.0
C460 C 0.44604 0.94628 0.02637 0.0
O461 O 0.46763 0.9346 0.0448 0.0
O462 O 0.55265 0.03883 0.94725 0.0
O463 O 0.51399 0.98453 0.98179 0.0
O464 O 0.52802 0.97311 0.03273 0.0
C465 C 0.57538 0.02369 0.94243 0.0
O466 O 0.58285 0.00405 0.96459 0.0
O467 O 0.57557 0.04109 0.02357 0.0
C468 C 0.46319 1.00109 0.1063 0.0
O469 O 0.44597 0.01576 0.08573 0.0
O470 O 0.48699 0.99032 0.09568 0.0
O471 O 0.49928 0.04709 0.05044 0.0
O472 O 0.50564 0.06061 0.9988 0.0
O473 O 0.45203 0.97601 0.02147 0.0
C474 C 0.52465 0.96552 0.00081 0.0
C475 C 0.49922 0.06755 0.02875 0.0
Zn476 Zn 0.29818 0.22241 0.25284 0.0
Zn477 Zn 0.24386 0.28828 0.29335 0.0
C478 C 0.34921 0.22432 0.21869 0.0
O479 O 0.32444 0.20726 0.19948 0.0
C480 C 0.19497 0.27482 0.33068 0.0
O481 O 0.21808 0.29403 0.35027 0.0
O482 O 0.29783 0.17422 0.2491 0.0
O483 O 0.28553 0.23531 0.29949 0.0
O484 O 0.26818 0.27106 0.33283 0.0
C485 C 0.31653 0.16881 0.27397 0.0
O486 O 0.32824 0.1924 0.29778 0.0
O487 O 0.34475 0.23734 0.24763 0.0
C488 C 0.22171 0.34012 0.27072 0.0
O489 O 0.20981 0.31555 0.24809 0.0
O490 O 0.24026 0.33556 0.29616 0.0
O491 O 0.25701 0.27702 0.24639 0.0
O492 O 0.27716 0.24276 0.21366 0.0
O493 O 0.19881 0.26768 0.29966 0.0
C494 C 0.27747 0.24407 0.32845 0.0
C495 C 0.26563 0.26861 0.21759 0.0
Zn496 Zn 0.54271 0.49005 0.04042 0.0
Zn497 Zn 0.5108 0.54645 0.01459 0.0
C498 C 0.58613 0.51091 0.10031 0.0
O499 O 0.60411 0.49654 0.08103 0.0
C500 C 0.47073 0.52065 0.95552 0.0
O501 O 0.45104 0.53056 0.97602 0.0
O502 O 0.5513 0.44566 0.04647 0.0
O503 O 0.49402 0.47929 0.03265 0.0
O504 O 0.47811 0.52544 0.04426 0.0
C505 C 0.53914 0.43622 0.07287 0.0
O506 O 0.52484 0.45576 0.09111 0.0
O507 O 0.55848 0.51401 0.08747 0.0
C508 C 0.52166 0.60363 0.98633 0.0
O509 O 0.53943 0.58571 0.97081 0.0
O510 O 0.50413 0.59131 0.00792 0.0
O511 O 0.55846 0.55509 0.03042 0.0
O512 O 0.57001 0.51101 0.00566 0.0
O513 O 0.5 0.52319 0.9668 0.0
C514 C 0.47257 0.49475 0.04176 0.0
C515 C 0.57747 0.54122 0.01405 0.0
Zn516 Zn 0.75505 0.30191 0.25781 0.0
Zn517 Zn 0.79933 0.22938 0.29317 0.0
C518 C 0.707 0.29313 0.20541 0.0
O519 O 0.73007 0.31283 0.19409 0.0
C520 C 0.85146 0.25452 0.33853 0.0
O521 O 0.83237 0.23633 0.35618 0.0
O522 O 0.75142 0.34985 0.26796 0.0
O523 O 0.76244 0.27897 0.29897 0.0
O524 O 0.77482 0.24426 0.3331 0.0
C525 C 0.72596 0.35292 0.2817 0.0
O526 O 0.70825 0.32674 0.29005 0.0
O527 O 0.71218 0.28265 0.23404 0.0
C528 C 0.83092 0.17902 0.26898 0.0
O529 O 0.84598 0.20514 0.25767 0.0
O530 O 0.80701 0.18177 0.28569 0.0
O531 O 0.77809 0.24364 0.25032 0.0
O532 O 0.78607 0.28807 0.22551 0.0
O533 O 0.8432 0.25589 0.30718 0.0
C534 C 0.76475 0.27061 0.32879 0.0
C535 C 0.79162 0.25946 0.2281 0.0
Zn536 Zn 0.04269 0.53348 0.49797 0.0
Zn537 Zn 0.00685 0.49909 0.55479 0.0
C538 C 0.09164 0.58144 0.52567 0.0
O539 O 0.07117 0.59546 0.50833 0.0
C540 C 0.95624 0.45395 0.51666 0.0
O541 O 0.97503 0.43411 0.52634 0.0
O542 O 0.05672 0.54324 0.4528 0.0
O543 O 0.03154 0.48556 0.48957 0.0
O544 O 0.03899 0.47146 0.54103 0.0
C545 C 0.08191 0.53184 0.4481 0.0
O546 O 0.09454 0.51714 0.47238 0.0
O547 O 0.08351 0.55157 0.52922 0.0
C548 C 0.97213 0.50393 0.60891 0.0
O549 O 0.9595 0.52104 0.58699 0.0
O550 O 0.99444 0.4894 0.60042 0.0
O551 O 0.01888 0.54787 0.56193 0.0
O552 O 0.00799 0.5578 0.50943 0.0
O553 O 0.96538 0.48422 0.5242 0.0
C554 C 0.03931 0.46547 0.50918 0.0
C555 C 0.00904 0.56606 0.54104 0.0
Zn556 Zn 0.80928 0.74316 0.26881 0.0
Zn557 Zn 0.74923 0.77685 0.29133 0.0
C558 C 0.79186 0.70358 0.20681 0.0
O559 O 0.80773 0.6859 0.22519 0.0
C560 C 0.77119 0.8194 0.34938 0.0
O561 O 0.7615 0.83819 0.3274 0.0
O562 O 0.85519 0.73725 0.26293 0.0
O563 O 0.81634 0.79177 0.28322 0.0
O564 O 0.77374 0.80929 0.2626 0.0
C565 C 0.86402 0.75408 0.23909 0.0
O566 O 0.84303 0.76892 0.22382 0.0
O567 O 0.78666 0.73025 0.22083 0.0
C568 C 0.6938 0.76472 0.32095 0.0
O569 O 0.71396 0.74878 0.33594 0.0
O570 O 0.70311 0.78157 0.29724 0.0
O571 O 0.74355 0.72844 0.27678 0.0
O572 O 0.78624 0.713 0.29989 0.0
O573 O 0.77048 0.78977 0.33942 0.0
C574 C 0.80396 0.8138 0.26994 0.0
C575 C 0.756 0.70838 0.29342 0.0
Zn576 Zn 0.76594 0.25562 0.81365 0.0
Zn577 Zn 0.78745 0.28364 0.75249 0.0
C578 C 0.72241 0.20218 0.78349 0.0
O579 O 0.70563 0.21705 0.80375 0.0
C580 C 0.8012 0.35151 0.78136 0.0
O581 O 0.78236 0.35618 0.75507 0.0
O582 O 0.76027 0.23981 0.85897 0.0
O583 O 0.81346 0.26989 0.81601 0.0
O584 O 0.81666 0.25148 0.76327 0.0
C585 C 0.77563 0.21688 0.86289 0.0
O586 O 0.79153 0.20749 0.83816 0.0
O587 O 0.75134 0.21461 0.78154 0.0
C588 C 0.77207 0.31044 0.69076 0.0
O589 O 0.74527 0.31065 0.70442 0.0
O590 O 0.79417 0.29864 0.70619 0.0
O591 O 0.73935 0.27087 0.75149 0.0
O592 O 0.73639 0.28755 0.80468 0.0
O593 O 0.80524 0.32301 0.78578 0.0
C594 C 0.82888 0.25754 0.794 0.0
C595 C 0.72456 0.28357 0.77389 0.0
Zn596 Zn 0.79691 0.73055 0.7543 0.0
Zn597 Zn 0.75147 0.79315 0.79531 0.0
C598 C 0.84712 0.73995 0.71782 0.0
O599 O 0.82256 0.72453 0.69715 0.0
C600 C 0.70106 0.77772 0.83034 0.0
O601 O 0.72418 0.79473 0.85175 0.0
O602 O 0.80146 0.68378 0.7452 0.0
O603 O 0.78653 0.73179 0.80331 0.0
O604 O 0.77659 0.77471 0.8331 0.0
C605 C 0.82514 0.68043 0.76566 0.0
O606 O 0.83807 0.70429 0.78872 0.0
O607 O 0.84227 0.75104 0.74743 0.0
C608 C 0.72742 0.84633 0.78148 0.0
O609 O 0.71358 0.82328 0.75798 0.0
O610 O 0.74762 0.84018 0.80454 0.0
O611 O 0.76198 0.7917 0.74646 0.0
O612 O 0.76971 0.74722 0.71751 0.0
O613 O 0.70622 0.77171 0.79955 0.0
C614 C 0.78082 0.7455 0.83126 0.0
C615 C 0.76663 0.77675 0.71879 0.0
Zn616 Zn 0.56147 0.49707 0.55208 0.0
Zn617 Zn 0.49745 0.53484 0.50977 0.0
C618 C 0.54933 0.45026 0.5942 0.0
O619 O 0.5637 0.47627 0.6137 0.0
C620 C 0.51855 0.5899 0.48247 0.0
O621 O 0.5039 0.56894 0.45738 0.0
O622 O 0.60782 0.4934 0.5648 0.0
O623 O 0.55856 0.50162 0.50131 0.0
O624 O 0.5168 0.51259 0.47037 0.0
C625 C 0.62967 0.50019 0.54541 0.0
O626 O 0.62599 0.52023 0.52242 0.0
O627 O 0.54239 0.45258 0.5627 0.0
C628 C 0.44469 0.55923 0.52738 0.0
O629 O 0.46674 0.56771 0.55327 0.0
O630 O 0.45142 0.54285 0.5012 0.0
O631 O 0.49465 0.51299 0.55374 0.0
O632 O 0.54132 0.52688 0.5841 0.0
O633 O 0.52064 0.58113 0.51248 0.0
C634 C 0.54482 0.50563 0.47261 0.0
C635 C 0.51086 0.52143 0.58244 0.0
Zn636 Zn 0.9826 0.52906 0.0429 0.0
Zn637 Zn 0.0568 0.492 0.01824 0.0
C638 C 0.00662 0.58521 0.08554 0.0
O639 O 0.98922 0.5678 0.10535 0.0
C640 C 0.03258 0.43897 0.9709 0.0
O641 O 0.04769 0.45934 0.95199 0.0
O642 O 0.93606 0.53768 0.03594 0.0
O643 O 0.99773 0.50702 0.00141 0.0
O644 O 0.04364 0.51869 0.98068 0.0
C645 C 0.93392 0.56353 0.02192 0.0
O646 O 0.95974 0.57918 0.01105 0.0
O647 O 0.00916 0.57298 0.05575 0.0
C648 C 0.10844 0.4609 0.04096 0.0
O649 O 0.08304 0.4412 0.04779 0.0
O650 O 0.1044 0.48681 0.0279 0.0
O651 O 0.03863 0.51241 0.05802 0.0
O652 O 0.9944 0.50287 0.08148 0.0
O653 O 0.03227 0.44763 0.00233 0.0
C654 C 0.0142 0.52144 0.98021 0.0
C655 C 0.0231 0.4984 0.08001 0.0
C656 C 0.01953 0.19002 0.00322 0.0
C657 C 0.0164 0.18574 0.96736 0.0
C658 C 0.02369 0.16468 0.02266 0.0
C659 C 0.02536 0.13404 0.00717 0.0
H660 H 0.01738 0.21291 0.01653 0.0
H661 H 0.02417 0.16876 0.05005 0.0
S662 S 0.0213 0.11068 0.91419 0.0
N663 N 0.01744 0.14905 0.91713 0.0
N664 N 0.02571 0.10118 0.95366 0.0
C665 C 0.02451 0.12987 0.97135 0.0
C666 C 0.01999 0.15581 0.95144 0.0
C667 C 0.14323 0.79221 0.23162 0.0
C668 C 0.14154 0.79234 0.19597 0.0
C669 C 0.17163 0.7887 0.25082 0.0
C670 C 0.19918 0.78461 0.23499 0.0
H671 H 0.12244 0.7946 0.24476 0.0
H672 H 0.17175 0.78843 0.2781 0.0
S673 S 0.207 0.78228 0.14215 0.0
N674 N 0.17017 0.78781 0.1458 0.0
N675 N 0.2226 0.78077 0.1813 0.0
C676 C 0.19769 0.78484 0.19938 0.0
C677 C 0.16917 0.7888 0.18006 0.0
C678 C 0.54148 0.86984 0.42008 0.0
C679 C 0.51384 0.84642 0.41865 0.0
C680 C 0.54378 0.89977 0.43886 0.0
C681 C 0.51831 0.9074 0.45645 0.0
H682 H 0.56206 0.8644 0.40809 0.0
H683 H 0.56605 0.91672 0.44022 0.0
S684 S 0.43933 0.85489 0.45676 0.0
N685 N 0.4598 0.83289 0.43385 0.0
N686 N 0.46343 0.88975 0.46844 0.0
C687 C 0.48979 0.88466 0.45343 0.0
C688 C 0.48777 0.85391 0.43477 0.0
C689 C 0.43082 0.26111 0.68265 0.0
C690 C 0.45707 0.25667 0.70458 0.0
C691 C 0.40034 0.25837 0.69335 0.0
C692 C 0.39467 0.25068 0.72628 0.0
H693 H 0.43387 0.26787 0.65725 0.0
H694 H 0.38112 0.2629 0.67574 0.0
S695 S 0.45452 0.23409 0.79283 0.0
N696 N 0.47509 0.24242 0.76032 0.0
N697 N 0.41722 0.23677 0.78027 0.0
C698 C 0.42023 0.24457 0.74805 0.0
C699 C 0.4516 0.24774 0.73725 0.0
C700 C 0.03708 0.84261 0.57767 0.0
C701 C 0.0355 0.83927 0.61257 0.0
C702 C 0.0427 0.87319 0.56572 0.0
C703 C 0.04673 0.90132 0.58831 0.0
H704 H 0.03267 0.8215 0.55926 0.0
H705 H 0.04193 0.87477 0.53856 0.0
S706 S 0.04943 0.90602 0.68229 0.0
N707 N 0.042 0.86695 0.66978 0.0
N708 N 0.05225 0.92425 0.64721 0.0
C709 C 0.04721 0.89836 0.62334 0.0
C710 C 0.04167 0.86735 0.63553 0.0
C711 C 0.41416 0.79362 0.91158 0.0
C712 C 0.44239 0.79391 0.8957 0.0
C713 C 0.38417 0.78405 0.89316 0.0
C714 C 0.38108 0.77479 0.85802 0.0
H715 H 0.41504 0.79923 0.93882 0.0
H716 H 0.36323 0.78284 0.90689 0.0
S717 S 0.44715 0.77586 0.80315 0.0
N718 N 0.46521 0.78736 0.84184 0.0
N719 N 0.40851 0.76971 0.8072 0.0
C720 C 0.4089 0.77728 0.84122 0.0
C721 C 0.43964 0.78671 0.86007 0.0
C722 C 0.50925 0.15802 0.02941 0.0
C723 C 0.50231 0.16822 0.06221 0.0
C724 C 0.50654 0.12539 0.01837 0.0
C725 C 0.49691 0.10137 0.03962 0.0
H726 H 0.51794 0.17532 0.01222 0.0
H727 H 0.51341 0.11917 0.99335 0.0
S728 S 0.4711 0.11468 0.12587 0.0
N729 N 0.48177 0.15137 0.1145 0.0
N730 N 0.47694 0.08969 0.09367 0.0
C731 C 0.488 0.11095 0.07174 0.0
C732 C 0.49063 0.14442 0.08303 0.0
C733 C 0.10791 0.26669 0.34364 0.0
C734 C 0.10879 0.26359 0.37878 0.0
C735 C 0.13558 0.26737 0.32689 0.0
C736 C 0.16468 0.26486 0.34491 0.0
H737 H 0.08637 0.27093 0.32954 0.0
H738 H 0.13472 0.27237 0.30052 0.0
S739 S 0.17765 0.24899 0.43512 0.0
N740 N 0.13972 0.2527 0.42948 0.0
N741 N 0.19165 0.25385 0.39805 0.0
C742 C 0.16502 0.25857 0.37913 0.0
C743 C 0.13703 0.25798 0.39611 0.0
C744 C 0.99546 0.02875 0.17523 0.0
C745 C 0.96318 0.01371 0.17413 0.0
C746 C 0.01135 0.03107 0.14566 0.0
C747 C 0.99588 0.01795 0.1135 0.0
H748 H 0.00885 0.0383 0.19945 0.0
H749 H 0.03613 0.04286 0.14817 0.0
S750 S 0.91164 0.97442 0.09691 0.0
N751 N 0.91638 0.98521 0.13827 0.0
N752 N 0.94617 0.98805 0.08288 0.0
C753 C 0.96347 1.00269 0.1121 0.0
C754 C 0.94714 1.00104 0.14224 0.0
C755 C 0.26432 0.65168 0.42082 0.0
C756 C 0.27142 0.67366 0.45018 0.0
C757 C 0.25728 0.66229 0.389 0.0
C758 C 0.2566 0.69508 0.38564 0.0
H759 H 0.26529 0.62635 0.42219 0.0
H760 H 0.25324 0.64485 0.36671 0.0
S761 S 0.27245 0.76224 0.45466 0.0
N762 N 0.27673 0.72982 0.47376 0.0
N763 N 0.26264 0.74926 0.41413 0.0
C764 C 0.26224 0.71706 0.41488 0.0
C765 C 0.26993 0.70645 0.44714 0.0
C766 C 0.54528 0.97072 0.66691 0.0
C767 C 0.57792 0.98429 0.67431 0.0
C768 C 0.52855 0.97351 0.63559 0.0
C769 C 0.544 0.98973 0.61057 0.0
H770 H 0.53203 0.96003 0.68645 0.0
H771 H 0.5031 0.9643 0.63157 0.0
S772 S 0.62896 0.0297 0.61743 0.0
N773 N 0.62509 0.01377 0.65374 0.0
N774 N 0.59365 0.01951 0.59515 0.0
C775 C 0.57698 1.00184 0.61692 0.0
C776 C 0.59402 0.99883 0.6487 0.0
C777 C 0.28279 0.38981 0.93812 0.0
C778 C 0.28292 0.36907 0.96405 0.0
C779 C 0.28036 0.37777 0.90374 0.0
C780 C 0.27801 0.34454 0.89394 0.0
H781 H 0.28367 0.41544 0.94432 0.0
H782 H 0.27942 0.3946 0.88468 0.0
S783 S 0.2786 0.28016 0.95219 0.0
N784 N 0.28168 0.31375 0.97762 0.0
N785 N 0.27722 0.29123 0.9133 0.0
C786 C 0.27941 0.32372 0.91974 0.0
C787 C 0.28182 0.33595 0.9547 0.0
C788 C 0.91031 0.00614 0.3736 0.0
C789 C 0.93057 0.00592 0.34755 0.0
C790 C 0.92232 0.00777 0.40785 0.0
C791 C 0.95514 0.00936 0.4176 0.0
H792 H 0.88504 0.00596 0.36764 0.0
H793 H 0.90573 0.00882 0.42689 0.0
S794 S 0.01798 0.00679 0.35894 0.0
N795 N 0.98484 0.00522 0.33364 0.0
N796 N 0.0074 0.00844 0.39799 0.0
C797 C 0.97546 0.00759 0.39169 0.0
C798 C 0.96319 0.00587 0.35671 0.0
C799 C 0.3123 0.75468 0.63263 0.0
C800 C 0.31453 0.72178 0.62546 0.0
C801 C 0.30967 0.76788 0.66555 0.0
C802 C 0.30951 0.74891 0.69292 0.0
H803 H 0.31024 0.77008 0.61236 0.0
H804 H 0.30562 0.79253 0.66899 0.0
S805 S 0.32491 0.66476 0.68974 0.0
N806 N 0.32349 0.67281 0.64973 0.0
N807 N 0.31905 0.69774 0.71192 0.0
C808 C 0.31592 0.71731 0.68689 0.0
C809 C 0.31842 0.70375 0.65315 0.0
C810 C 0.63409 0.01128 0.87902 0.0
C811 C 0.62235 0.02554 0.85103 0.0
C812 C 0.61929 0.01178 0.90902 0.0
C813 C 0.59251 0.02682 0.91199 0.0
H814 H 0.65353 0.99794 0.87707 0.0
H815 H 0.6283 0.99932 0.92954 0.0
S816 S 0.55637 0.07225 0.84737 0.0
N817 N 0.58525 0.05832 0.82913 0.0
N818 N 0.55736 0.05961 0.88563 0.0
C819 C 0.58214 0.04325 0.88495 0.0
C820 C 0.59711 0.04249 0.85437 0.0
C821 C 0.26328 0.29387 0.1277 0.0
C822 C 0.27173 0.32792 0.1323 0.0
C823 C 0.2599 0.27519 0.15524 0.0
C824 C 0.26438 0.28951 0.18895 0.0
H825 H 0.2604 0.28123 0.1024 0.0
H826 H 0.25462 0.24913 0.15004 0.0
S827 S 0.2864 0.37765 0.21555 0.0
N828 N 0.2837 0.37522 0.17358 0.0
N829 N 0.27763 0.34016 0.22548 0.0
C830 C 0.27155 0.32363 0.19408 0.0
C831 C 0.27504 0.3428 0.1658 0.0
C832 C 0.20304 0.95635 0.04415 0.0
C833 C 0.19251 0.92721 0.02303 0.0
C834 C 0.1821 0.97794 0.05108 0.0
C835 C 0.15015 0.97106 0.03684 0.0
H836 H 0.22776 0.96281 0.05485 0.0
H837 H 0.19124 1.00063 0.06638 0.0
S838 S 0.111 0.89883 0.97925 0.0
N839 N 0.14794 0.89296 0.98807 0.0
N840 N 0.10897 0.93355 0.00067 0.0
C841 C 0.13926 0.94184 0.01628 0.0
C842 C 0.16033 0.91986 0.00951 0.0
C843 C 0.64959 0.60881 0.0229 0.0
C844 C 0.66619 0.60186 0.99489 0.0
C845 C 0.62157 0.5886 0.02907 0.0
C846 C 0.60866 0.56038 0.00748 0.0
H847 H 0.65833 0.63033 0.04028 0.0
H848 H 0.60979 0.59538 0.05097 0.0
S849 S 0.64204 0.53188 0.92952 0.0
N850 N 0.66748 0.56502 0.94485 0.0
N851 N 0.61434 0.52695 0.95618 0.0
C852 C 0.62513 0.55285 0.97942 0.0
C853 C 0.654 0.57356 0.97319 0.0
C854 C 0.67114 0.41298 0.30111 0.0
C855 C 0.68904 0.44307 0.29623 0.0
C856 C 0.68362 0.38445 0.29669 0.0
C857 C 0.71459 0.38443 0.28686 0.0
H858 H 0.64719 0.41133 0.30867 0.0
H859 H 0.66851 0.36209 0.30082 0.0
S860 S 0.77155 0.45693 0.27082 0.0
N861 N 0.73965 0.47127 0.28119 0.0
N862 N 0.76298 0.41749 0.27248 0.0
C863 C 0.73286 0.41437 0.28184 0.0
C864 C 0.72016 0.44365 0.28663 0.0
C865 C 0.88498 0.3944 0.47386 0.0
C866 C 0.85904 0.40602 0.48703 0.0
C867 C 0.91634 0.41115 0.48194 0.0
C868 C 0.92296 0.44042 0.50303 0.0
H869 H 0.88125 0.37143 0.45838 0.0
H870 H 0.93569 0.40049 0.4726 0.0
S871 S 0.86408 0.48216 0.54341 0.0
N872 N 0.84239 0.44955 0.52169 0.0
N873 N 0.90135 0.481 0.53617 0.0
C874 C 0.89731 0.45331 0.51492 0.0
C875 C 0.86533 0.43614 0.50706 0.0
C876 C 0.34878 0.10031 0.31076 0.0
C877 C 0.36481 0.08857 0.28438 0.0
C878 C 0.33153 0.12525 0.3064 0.0
C879 C 0.32878 0.13841 0.27513 0.0
H880 H 0.35072 0.09108 0.33539 0.0
H881 H 0.32125 0.13511 0.32806 0.0
S882 S 0.36608 0.11533 0.19798 0.0
N883 N 0.3771 0.09145 0.22602 0.0
N884 N 0.34341 0.13771 0.21725 0.0
C885 C 0.34377 0.12599 0.2481 0.0
C886 C 0.36216 0.10115 0.25288 0.0
C887 C 0.37003 0.1203 0.53131 0.0
C888 C 0.34348 0.09944 0.51363 0.0
C889 C 0.39758 0.10886 0.54301 0.0
C890 C 0.40029 0.07606 0.53701 0.0
H891 H 0.36943 0.14577 0.53662 0.0
H892 H 0.41719 0.12623 0.55649 0.0
S893 S 0.33785 0.01151 0.4905 0.0
N894 N 0.32154 0.04431 0.49022 0.0
N895 N 0.37387 0.02293 0.51115 0.0
C896 C 0.37404 0.05491 0.51884 0.0
C897 C 0.34554 0.06654 0.50751 0.0
C898 C 0.67973 0.65099 0.30559 0.0
C899 C 0.69025 0.6239 0.31803 0.0
C900 C 0.70121 0.67767 0.29794 0.0
C901 C 0.73454 0.67925 0.30292 0.0
H902 H 0.65446 0.6513 0.30047 0.0
H903 H 0.69127 0.69719 0.28761 0.0
S904 S 0.77504 0.6157 0.337 0.0
N905 N 0.73659 0.60071 0.33601 0.0
N906 N 0.77714 0.65154 0.32264 0.0
C907 C 0.74563 0.6528 0.31635 0.0
C908 C 0.72353 0.62508 0.32361 0.0
C909 C 0.87784 0.40289 0.82358 0.0
C910 C 0.87156 0.43439 0.82185 0.0
C911 C 0.85398 0.3759 0.81316 0.0
C912 C 0.82312 0.37938 0.80034 0.0
H913 H 0.90181 0.39892 0.83083 0.0
H914 H 0.86046 0.35229 0.81279 0.0
S915 S 0.79223 0.45608 0.79804 0.0
N916 N 0.83035 0.4672 0.81224 0.0
N917 N 0.78601 0.41628 0.79189 0.0
C918 C 0.81565 0.41049 0.80169 0.0
C919 C 0.83974 0.43803 0.8127 0.0
C920 C 0.03911 0.88769 0.15001 0.0
C921 C 0.04721 0.86053 0.13221 0.0
C922 C 0.03955 0.91665 0.13519 0.0
C923 C 0.04785 0.91951 0.10192 0.0
H924 H 0.03227 0.88664 0.1756 0.0
H925 H 0.03361 0.93712 0.15006 0.0
S926 S 0.07232 0.85607 0.04494 0.0
N927 N 0.06455 0.83859 0.07968 0.0
N928 N 0.06521 0.89318 0.05188 0.0
C929 C 0.05579 0.89257 0.08367 0.0
C930 C 0.05558 0.86306 0.09885 0.0
C931 C 0.91213 0.28004 0.83693 0.0
C932 C 0.91891 0.25026 0.84584 0.0
C933 C 0.88409 0.28177 0.81671 0.0
C934 C 0.86185 0.25386 0.80462 0.0
H935 H 0.92755 0.30235 0.84764 0.0
H936 H 0.87874 0.30528 0.81241 0.0
S937 S 0.86986 0.16978 0.81803 0.0
N938 N 0.90248 0.19197 0.83901 0.0
N939 N 0.84951 0.19533 0.80066 0.0
C940 C 0.86938 0.22373 0.81124 0.0
C941 C 0.89805 0.22191 0.832 0.0
C942 C 0.54557 0.17973 0.58802 0.0
C943 C 0.54859 0.19154 0.62255 0.0
C944 C 0.53756 0.14656 0.57785 0.0
C945 C 0.53262 0.12399 0.60188 0.0
H946 H 0.54829 0.19627 0.5686 0.0
H947 H 0.53439 0.13871 0.55088 0.0
S948 S 0.5419 0.14277 0.69586 0.0
N949 N 0.54885 0.17833 0.68096 0.0
N950 N 0.5343 0.11594 0.66213 0.0
C951 C 0.53728 0.13553 0.63667 0.0
C952 C 0.54507 0.16932 0.64693 0.0
C953 C 0.60455 0.76555 0.32119 0.0
C954 C 0.59865 0.75651 0.35368 0.0
C955 C 0.6355 0.76872 0.31068 0.0
C956 C 0.66127 0.76235 0.33215 0.0
H957 H 0.58543 0.77129 0.30431 0.0
H958 H 0.63922 0.77606 0.28562 0.0
S959 S 0.65726 0.73635 0.41922 0.0
N960 N 0.62041 0.74043 0.40675 0.0
N961 N 0.67816 0.74567 0.38726 0.0
C962 C 0.6552 0.75252 0.36443 0.0
C963 C 0.62398 0.74978 0.37513 0.0
C964 C 0.02407 0.17724 0.44789 0.0
C965 C 0.01568 0.19885 0.47309 0.0
C966 C 0.02157 0.1444 0.45182 0.0
C967 C 0.01059 0.13161 0.48112 0.0
H968 H 0.03281 0.18565 0.42481 0.0
H969 H 0.02865 0.129 0.43171 0.0
S970 S 0.98541 0.17754 0.5548 0.0
N971 N 0.99566 0.20488 0.52853 0.0
N972 N 0.9911 0.14297 0.53584 0.0
C973 C 1.00179 0.15272 0.50646 0.0
C974 C 1.00435 0.18634 0.50249 0.0
C975 C 0.64202 0.28678 0.13306 0.0
C976 C 0.6139 0.27586 0.14787 0.0
C977 C 0.67195 0.2916 0.15176 0.0
C978 C 0.67512 0.28557 0.18604 0.0
H979 H 0.64107 0.29199 0.10676 0.0
H980 H 0.69277 0.30034 0.13918 0.0
S981 S 0.60936 0.25669 0.23729 0.0
N982 N 0.59131 0.25901 0.19929 0.0
N983 N 0.64785 0.26807 0.23434 0.0
C984 C 0.64741 0.27423 0.20124 0.0
C985 C 0.61674 0.26942 0.18221 0.0
C986 C 0.54564 0.88149 0.99164 0.0
C987 C 0.5436 0.87431 0.95614 0.0
C988 C 0.53992 0.91119 0.00604 0.0
C989 C 0.53161 0.93459 0.98541 0.0
H990 H 0.55171 0.86404 0.00847 0.0
H991 H 0.54168 0.91565 0.03348 0.0
S992 S 0.52246 0.92699 0.89072 0.0
N993 N 0.53245 0.89264 0.90069 0.0
N994 N 0.52151 0.94824 0.92732 0.0
C995 C 0.52951 0.92756 0.94975 0.0
C996 C 0.53557 0.89748 0.93523 0.0
C997 C 0.93532 0.76543 0.70841 0.0
C998 C 0.94066 0.74104 0.68435 0.0
C999 C 0.90517 0.76461 0.72029 0.0
C1000 C 0.8796 0.73959 0.70795 0.0
H1001 H 0.95409 0.78594 0.71687 0.0
H1002 H 0.90151 0.78426 0.73802 0.0
S1003 S 0.88341 0.66795 0.64819 0.0
N1004 N 0.91948 0.69011 0.65095 0.0
N1005 N 0.86297 0.68794 0.67328 0.0
C1006 C 0.88544 0.71424 0.68521 0.0
C1007 C 0.91598 0.71516 0.67332 0.0
C1008 C 0.07313 1.00111 0.88308 0.0
C1009 C 0.10475 0.01851 0.88709 0.0
C1010 C 0.0537 1.0003 0.91013 0.0
C1011 C 0.06505 0.01729 0.94205 0.0
H1012 H 0.06358 0.98731 0.85904 0.0
H1013 H 0.03001 0.98569 0.90626 0.0
S1014 S 0.14345 0.07187 0.96345 0.0
N1015 N 0.14503 0.05585 0.92433 0.0
N1016 N 0.10802 0.05622 0.97418 0.0
C1017 C 0.09583 0.03647 0.94556 0.0
C1018 C 0.11584 0.03655 0.91841 0.0
C1019 C 0.75293 0.34971 0.61092 0.0
C1020 C 0.77841 0.34543 0.59209 0.0
C1021 C 0.75161 0.33907 0.64331 0.0
C1022 C 0.77587 0.32405 0.65798 0.0
H1023 H 0.73304 0.35958 0.59983 0.0
H1024 H 0.73088 0.3418 0.65644 0.0
S1025 S 0.85012 0.31213 0.62053 0.0
N1026 N 0.83009 0.32871 0.5914 0.0
N1027 N 0.82782 0.30891 0.65244 0.0
C1028 C 0.80255 0.32177 0.64021 0.0
C1029 C 0.80376 0.33243 0.60719 0.0
C1030 C 0.49716 0.03212 0.38958 0.0
C1031 C 0.46841 0.04426 0.39001 0.0
C1032 C 0.51658 0.03108 0.41965 0.0
C1033 C 0.50811 0.04242 0.4513 0.0
H1034 H 0.50416 0.02196 0.36603 0.0
H1035 H 0.53723 0.01944 0.41821 0.0
S1036 S 0.43954 0.08339 0.46542 0.0
N1037 N 0.4352 0.07245 0.42412 0.0
N1038 N 0.47203 0.07086 0.48073 0.0
C1039 C 0.48096 0.0571 0.45178 0.0
C1040 C 0.46102 0.05794 0.42114 0.0
C1041 C 0.75561 0.70327 0.1157 0.0
C1042 C 0.76923 0.67989 0.09729 0.0
C1043 C 0.76256 0.71031 0.15101 0.0
C1044 C 0.78334 0.69421 0.16968 0.0
H1045 H 0.73947 0.71658 0.10275 0.0
H1046 H 0.75167 0.72874 0.16372 0.0
S1047 S 0.82565 0.63096 0.13407 0.0
N1048 N 0.80468 0.64062 0.10076 0.0
N1049 N 0.81763 0.65364 0.16704 0.0
C1050 C 0.79685 0.67041 0.15179 0.0
C1051 C 0.78983 0.6633 0.1157 0.0
C1052 C 0.07718 0.0167 0.69299 0.0
C1053 C 0.10893 0.0214 0.70814 0.0
C1054 C 0.07007 0.0144 0.65762 0.0
C1055 C 0.09444 0.01684 0.63582 0.0
H1056 H 0.05752 0.01454 0.70865 0.0
H1057 H 0.04521 0.00997 0.64732 0.0
S1058 S 0.18164 0.03211 0.66278 0.0
N1059 N 0.16501 0.03025 0.69876 0.0
N1060 N 0.15182 0.02605 0.63218 0.0
C1061 C 0.12636 0.02216 0.65066 0.0
C1062 C 0.13357 0.02433 0.68678 0.0
C1063 C 0.73908 0.30065 0.41323 0.0
C1064 C 0.74783 0.33452 0.41423 0.0
C1065 C 0.74426 0.27997 0.38546 0.0
C1066 C 0.75832 0.29241 0.35761 0.0
H1067 H 0.72862 0.28996 0.43445 0.0
H1068 H 0.73736 0.25412 0.38588 0.0
S1069 S 0.7889 0.37889 0.34937 0.0
N1070 N 0.77282 0.37929 0.38572 0.0
N1071 N 0.78337 0.34056 0.33395 0.0
C1072 C 0.76746 0.3262 0.3584 0.0
C1073 C 0.76193 0.34724 0.38655 0.0
C1074 C 0.43352 0.02127 0.1913 0.0
C1075 C 0.44646 1.00024 0.21195 0.0
C1076 C 0.43832 0.02076 0.1568 0.0
C1077 C 0.45614 0.99919 0.14185 0.0
H1078 H 0.42079 0.03913 0.20212 0.0
H1079 H 0.42893 0.03818 0.14209 0.0
S1080 S 0.49047 0.93578 0.18383 0.0
N1081 N 0.47457 0.95481 0.21419 0.0
N1082 N 0.48364 0.95397 0.14941 0.0
C1083 C 0.46764 0.97689 0.16181 0.0
C1084 C 0.46275 0.97737 0.19685 0.0
C1085 C 0.77477 0.67307 0.88416 0.0
C1086 C 0.76822 0.6856 0.91627 0.0
C1087 C 0.77944 0.69274 0.8574 0.0
C1088 C 0.77783 0.72603 0.86132 0.0
H1089 H 0.7766 0.64782 0.87963 0.0
H1090 H 0.78414 0.6815 0.83326 0.0
S1091 S 0.76143 0.771 0.94055 0.0
N1092 N 0.76031 0.73367 0.95043 0.0
N1093 N 0.76931 0.77045 0.90054 0.0
C1094 C 0.77132 0.73887 0.89339 0.0
C1095 C 0.76646 0.71878 0.92064 0.0
C1096 C 0.86507 0.07635 0.05657 0.0
C1097 C 0.86182 0.10339 0.03914 0.0
C1098 C 0.89065 0.06 0.05232 0.0
C1099 C 0.91335 0.06947 0.02974 0.0
H1100 H 0.84818 0.06818 0.0742 0.0
H1101 H 0.89297 0.04003 0.06725 0.0
S1102 S 0.91513 0.13796 0.97705 0.0
N1103 N 0.88326 0.13851 0.99772 0.0
N1104 N 0.93087 0.10721 0.98947 0.0
C1105 C 0.90993 0.09582 0.01139 0.0
C1106 C 0.88429 0.11294 0.01619 0.0
C1107 C 0.41074 0.42367 0.05949 0.0
C1108 C 0.38139 0.43466 0.05562 0.0
C1109 C 0.43977 0.44365 0.05604 0.0
C1110 C 0.44118 0.47587 0.04865 0.0
H1111 H 0.4113 0.39888 0.06431 0.0
H1112 H 0.46133 0.43335 0.05852 0.0
S1113 S 0.37152 0.51731 0.03707 0.0
N1114 N 0.35568 0.48048 0.04485 0.0
N1115 N 0.41049 0.51831 0.03873 0.0
C1116 C 0.41223 0.4878 0.04608 0.0
C1117 C 0.38236 0.4672 0.04951 0.0
C1118 C 0.38972 0.61258 0.77539 0.0
C1119 C 0.36923 0.58481 0.75908 0.0
C1120 C 0.37875 0.64148 0.78336 0.0
C1121 C 0.34658 0.64434 0.77571 0.0
H1122 H 0.4147 0.61209 0.78251 0.0
H1123 H 0.39588 0.66189 0.79582 0.0
S1124 S 0.28293 0.57943 0.73176 0.0
N1125 N 0.31501 0.56235 0.73464 0.0
N1126 N 0.29427 0.61681 0.7499 0.0
C1127 C 0.3256 0.61686 0.75935 0.0
C1128 C 0.33695 0.5872 0.75089 0.0
C1129 C 0.16302 0.64837 0.52984 0.0
C1130 C 0.18939 0.63349 0.53831 0.0
C1131 C 0.13175 0.63167 0.52792 0.0
C1132 C 0.12498 0.59909 0.53423 0.0
H1133 H 0.16633 0.67312 0.52361 0.0
H1134 H 0.11273 0.64438 0.52021 0.0
S1135 S 0.18474 0.5496 0.56173 0.0
N1136 N 0.20639 0.58478 0.55637 0.0
N1137 N 0.1471 0.55315 0.55245 0.0
C1138 C 0.15082 0.58416 0.54462 0.0
C1139 C 0.18307 0.60136 0.54667 0.0
C1140 C 0.71337 0.9281 0.75972 0.0
C1141 C 0.68262 0.92862 0.76976 0.0
C1142 C 0.72927 0.90237 0.76609 0.0
C1143 C 0.7151 0.87664 0.78298 0.0
H1144 H 0.72504 0.94739 0.74639 0.0
H1145 H 0.75227 0.90208 0.75679 0.0
S1146 S 0.63632 0.86693 0.81657 0.0
N1147 N 0.63947 0.90136 0.79919 0.0
N1148 N 0.66965 0.85332 0.81069 0.0
C1149 C 0.68502 0.87724 0.79408 0.0
C1150 C 0.66869 0.90317 0.7876 0.0
C1151 C 0.70358 0.9583 0.5686 0.0
C1152 C 0.70522 0.92904 0.54934 0.0
C1153 C 0.67583 0.97251 0.56556 0.0
C1154 C 0.64893 0.95805 0.54296 0.0
H1155 H 0.72359 0.96998 0.58655 0.0
H1156 H 0.67513 0.99435 0.58161 0.0
S1157 S 0.64204 0.88378 0.48397 0.0
N1158 N 0.6779 0.88788 0.50479 0.0
N1159 N 0.6265 0.91441 0.4995 0.0
C1160 C 0.65076 0.9296 0.52286 0.0
C1161 C 0.67867 0.91516 0.5259 0.0
C1162 C 0.37486 0.37408 0.77384 0.0
C1163 C 0.36437 0.401 0.76073 0.0
C1164 C 0.3539 0.34528 0.77647 0.0
C1165 C 0.32095 0.3414 0.76628 0.0
H1166 H 0.39975 0.37509 0.78275 0.0
H1167 H 0.36391 0.32593 0.78709 0.0
S1168 S 0.28066 0.4032 0.72797 0.0
N1169 N 0.31844 0.42113 0.73583 0.0
N1170 N 0.27884 0.36678 0.74083 0.0
C1171 C 0.30989 0.36772 0.75238 0.0
C1172 C 0.33153 0.39742 0.74962 0.0
C1173 C 0.14371 0.62636 0.24811 0.0
C1174 C 0.1586 0.59991 0.25467 0.0
C1175 C 0.16134 0.65762 0.24996 0.0
C1176 C 0.19462 0.66377 0.2583 0.0
H1177 H 0.11798 0.62315 0.24283 0.0
H1178 H 0.14855 0.67737 0.24641 0.0
S1179 S 0.24565 0.60267 0.2746 0.0
N1180 N 0.20903 0.58162 0.26733 0.0
N1181 N 0.24224 0.64054 0.27046 0.0
C1182 C 0.21019 0.63734 0.2625 0.0
C1183 C 0.19216 0.60536 0.26079 0.0
C1184 C 0.51401 0.67806 0.48588 0.0
C1185 C 0.52169 0.68562 0.45319 0.0
C1186 C 0.5161 0.64776 0.49691 0.0
C1187 C 0.52588 0.62392 0.47565 0.0
H1188 H 0.50478 0.69504 0.50263 0.0
H1189 H 0.50772 0.64224 0.52111 0.0
S1190 S 0.55442 0.63284 0.39076 0.0
N1191 N 0.54394 0.66783 0.40188 0.0
N1192 N 0.54738 0.61078 0.42261 0.0
C1193 C 0.53613 0.63187 0.44422 0.0
C1194 C 0.53418 0.66274 0.43298 0.0
C1195 C 0.63834 0.27178 0.73887 0.0
C1196 C 0.63746 0.30005 0.72266 0.0
C1197 C 0.66601 0.26769 0.75857 0.0
C1198 C 0.69331 0.29196 0.76332 0.0
H1199 H 0.61847 0.25172 0.73419 0.0
H1200 H 0.6666 0.24473 0.76846 0.0
S1201 S 0.7008 0.37275 0.73189 0.0
N1202 N 0.66474 0.35406 0.71594 0.0
N1203 N 0.71601 0.34697 0.7547 0.0
C1204 C 0.69151 0.32146 0.75011 0.0
C1205 C 0.66374 0.32534 0.72925 0.0
C1206 C 0.01124 0.36569 0.90636 0.0
C1207 C 1.00627 0.34012 0.92681 0.0
C1208 C 0.01789 0.39777 0.92081 0.0
C1209 C 0.01987 0.40545 0.95624 0.0
H1210 H 0.0115 0.36093 0.87914 0.0
H1211 H 0.02283 0.4166 0.90409 0.0
S1212 S 1.00486 0.34741 0.02066 0.0
N1213 N 1.00056 0.32464 0.98409 0.0
N1214 N 0.01327 0.38499 0.01115 0.0
C1215 C 0.01264 0.38021 0.97677 0.0
C1216 C 1.00578 0.3475 0.96206 0.0
C1217 C 0.95033 0.74386 0.22958 0.0
C1218 C 0.95934 0.76607 0.20616 0.0
C1219 C 0.91952 0.74008 0.24067 0.0
C1220 C 0.89703 0.75857 0.2288 0.0
H1221 H 0.96676 0.72874 0.23855 0.0
H1222 H 0.91313 0.72224 0.25812 0.0
S1223 S 0.91124 0.82328 0.17081 0.0
N1224 N 0.94475 0.80884 0.17411 0.0
N1225 N 0.88756 0.80206 0.19455 0.0
C1226 C 0.9066 0.78179 0.20644 0.0
C1227 C 0.93759 0.78548 0.19526 0.0
C1228 C 0.53106 0.36664 0.12631 0.0
C1229 C 0.52557 0.33967 0.10195 0.0
C1230 C 0.53712 0.39788 0.11658 0.0
C1231 C 0.53821 0.40326 0.08221 0.0
H1232 H 0.52983 0.36372 0.15305 0.0
H1233 H 0.54017 0.41803 0.1361 0.0
S1234 S 0.52696 0.34096 0.0086 0.0
N1235 N 0.52278 0.32031 0.04194 0.0
N1236 N 0.53454 0.37939 0.02382 0.0
C1237 C 0.53419 0.37662 0.05767 0.0
C1238 C 0.52771 0.34468 0.06751 0.0
C1239 C 0.91329 0.29521 0.40889 0.0
C1240 C 0.94218 0.29192 0.3956 0.0
C1241 C 0.88398 0.28481 0.38931 0.0
C1242 C 0.88242 0.27139 0.3555 0.0
H1243 H 0.91302 0.30414 0.43525 0.0
H1244 H 0.86226 0.28606 0.4012 0.0
S1245 S 0.95058 0.2611 0.30672 0.0
N1246 N 0.96722 0.27693 0.34492 0.0
N1247 N 0.91168 0.25788 0.30825 0.0
C1248 C 0.9109 0.27028 0.34084 0.0
C1249 C 0.94093 0.28045 0.36087 0.0
C1250 C 1.00293 0.65445 0.5408 0.0
C1251 C 1.00507 0.66534 0.57561 0.0
C1252 C 1.00264 0.62205 0.52983 0.0
C1253 C 1.00468 0.59909 0.55322 0.0
H1254 H 1.00273 0.67134 0.52172 0.0
H1255 H 1.00223 0.61535 0.50282 0.0
S1256 S 1.00618 0.61407 0.64707 0.0
N1257 N 1.00587 0.64985 0.63332 0.0
N1258 N 1.00537 0.58881 0.61278 0.0
C1259 C 1.00464 0.60914 0.58804 0.0
C1260 C 1.00475 0.64226 0.59921 0.0
C1261 C 0.63943 0.76656 0.89175 0.0
C1262 C 0.61159 0.77074 0.8724 0.0
C1263 C 0.66776 0.76604 0.87694 0.0
C1264 C 0.66932 0.76972 0.84225 0.0
H1265 H 0.63977 0.76514 0.91892 0.0
H1266 H 0.68906 0.76445 0.89324 0.0
S1267 S 0.60227 0.77785 0.77965 0.0
N1268 N 0.5864 0.77569 0.81608 0.0
N1269 N 0.64014 0.77476 0.78815 0.0
C1270 C 0.64114 0.77137 0.82195 0.0
C1271 C 0.61208 0.77191 0.8371 0.0
C1272 C 0.49639 0.52003 0.67619 0.0
C1273 C 0.46291 0.5109 0.6754 0.0
C1274 C 0.51154 0.52425 0.6464 0.0
C1275 C 0.494 0.5192 0.61414 0.0
H1276 H 0.51128 0.52334 0.70022 0.0
H1277 H 0.53733 0.53075 0.64875 0.0
S1278 S 0.40543 0.49599 0.59781 0.0
N1279 N 0.41255 0.49809 0.63959 0.0
N1280 N 0.44063 0.50536 0.5835 0.0
C1281 C 0.46028 0.51092 0.61301 0.0
C1282 C 0.44486 0.50702 0.64356 0.0
C1283 C 0.75205 0.18859 0.94663 0.0
C1284 C 0.77489 0.16944 0.95476 0.0
C1285 C 0.7522 0.20376 0.91659 0.0
C1286 C 0.77561 0.20066 0.89428 0.0
H1287 H 0.7342 0.19205 0.96373 0.0
H1288 H 0.73401 0.21813 0.91095 0.0
S1289 S 0.84302 0.15625 0.9071 0.0
N1290 N 0.82255 0.14974 0.94 0.0
N1291 N 0.82362 0.17886 0.88397 0.0
C1292 C 0.79895 0.18196 0.90272 0.0
C1293 C 0.7984 0.16618 0.93293 0.0
C1294 C 0.03843 0.46462 0.16393 0.0
C1295 C 0.07131 0.47609 0.17274 0.0
C1296 C 0.02329 0.46947 0.13247 0.0
C1297 C 0.04047 0.4862 0.10882 0.0
H1298 H 0.0238 0.45427 0.18262 0.0
H1299 H 0.99761 0.46211 0.1277 0.0
S1300 S 0.1279 0.51781 0.11838 0.0
N1301 N 0.12123 0.50134 0.15389 0.0
N1302 N 0.0929 0.5118 0.09547 0.0
C1303 C 0.07393 0.49516 0.11617 0.0
C1304 C 0.08935 0.48962 0.14794 0.0
C1305 C 0.78724 0.87876 0.42879 0.0
C1306 C 0.7834 0.85869 0.45516 0.0
C1307 C 0.78478 0.86571 0.39477 0.0
C1308 C 0.77834 0.83207 0.38575 0.0
H1309 H 0.79144 0.90478 0.43434 0.0
H1310 H 0.78713 0.88222 0.3753 0.0
S1311 S 0.76671 0.76891 0.44528 0.0
N1312 N 0.77352 0.8033 0.47 0.0
N1313 N 0.76879 0.77895 0.40614 0.0
C1314 C 0.77549 0.8117 0.41196 0.0
C1315 C 0.77802 0.82497 0.44663 0.0
C1316 C 0.41343 0.49865 0.87519 0.0
C1317 C 0.43362 0.50115 0.84905 0.0
C1318 C 0.42585 0.50326 0.90947 0.0
C1319 C 0.45901 0.51066 0.91915 0.0
H1320 H 0.38773 0.49411 0.8692 0.0
H1321 H 0.40916 0.50204 0.92857 0.0
S1322 S 0.52233 0.51784 0.86047 0.0
N1323 N 0.48861 0.50963 0.8351 0.0
N1324 N 0.51191 0.51848 0.89958 0.0
C1325 C 0.47957 0.51161 0.89326 0.0
C1326 C 0.46688 0.50683 0.85823 0.0
C1327 C 0.81839 0.24286 0.14097 0.0
C1328 C 0.80687 0.20953 0.13305 0.0
C1329 C 0.81603 0.25847 0.17302 0.0
C1330 C 0.80176 0.24142 0.19828 0.0
H1331 H 0.82706 0.25744 0.12138 0.0
H1332 H 0.82338 0.28446 0.17713 0.0
S1333 S 0.7716 0.1528 0.19145 0.0
N1334 N 0.7844 0.15928 0.15417 0.0
N1335 N 0.77877 0.1884 0.21397 0.0
C1336 C 0.79281 0.20748 0.1916 0.0
C1337 C 0.79576 0.19158 0.1591 0.0
C1338 C 0.1345 0.51408 0.37978 0.0
C1339 C 0.11786 0.52175 0.35041 0.0
C1340 C 0.1233 0.51875 0.41153 0.0
C1341 C 0.09523 0.53155 0.41505 0.0
H1342 H 0.15541 0.50288 0.37805 0.0
H1343 H 0.13626 0.51122 0.43326 0.0
S1344 S 0.04603 0.5604 0.34634 0.0
N1345 N 0.07418 0.54612 0.32709 0.0
N1346 N 0.05313 0.5552 0.38687 0.0
C1347 C 0.07962 0.54138 0.38614 0.0
C1348 C 0.09093 0.53635 0.35376 0.0
C1349 C 0.76529 0.79259 0.62557 0.0
C1350 C 0.77418 0.82649 0.62675 0.0
C1351 C 0.76224 0.77684 0.65518 0.0
C1352 C 0.76766 0.79422 0.68753 0.0
H1353 H 0.76143 0.77782 0.60138 0.0
H1354 H 0.75603 0.75073 0.65265 0.0
S1355 S 0.79203 0.88339 0.70501 0.0
N1356 N 0.78846 0.8769 0.66313 0.0
N1357 N 0.78251 0.8476 0.71897 0.0
C1358 C 0.77572 0.82829 0.68916 0.0
C1359 C 0.77894 0.84434 0.65881 0.0
C1360 C 0.70515 0.4707 0.52281 0.0
C1361 C 0.69758 0.43711 0.52457 0.0
C1362 C 0.68355 0.49115 0.53086 0.0
C1363 C 0.6539 0.479 0.54191 0.0
H1364 H 0.72757 0.48124 0.5141 0.0
H1365 H 0.68989 0.51662 0.52781 0.0
S1366 S 0.62296 0.39296 0.55201 0.0
N1367 N 0.65851 0.3927 0.53875 0.0
N1368 N 0.61825 0.43107 0.55467 0.0
C1369 C 0.64642 0.44555 0.54482 0.0
C1370 C 0.66815 0.42464 0.53591 0.0
C1371 C 0.16345 0.06906 0.48605 0.0
C1372 C 0.16468 0.10279 0.48669 0.0
C1373 C 0.1357 0.04813 0.49315 0.0
C1374 C 0.10821 0.06005 0.50189 0.0
H1375 H 0.18416 0.05874 0.48033 0.0
H1376 H 0.13608 0.0225 0.49244 0.0
S1377 S 0.09898 0.14643 0.50778 0.0
N1378 N 0.13527 0.14674 0.49665 0.0
N1379 N 0.08448 0.1082 0.51082 0.0
C1380 C 0.10926 0.0937 0.50256 0.0
C1381 C 0.13703 0.11477 0.49477 0.0
C1382 C 0.217 0.93786 0.78652 0.0
C1383 C 0.18553 0.93712 0.79527 0.0
C1384 C 0.23012 0.90938 0.78209 0.0
C1385 C 0.21244 0.87893 0.78657 0.0
H1386 H 0.2317 0.96066 0.78303 0.0
H1387 H 0.25437 0.91132 0.77542 0.0
S1388 S 0.12879 0.86365 0.80937 0.0
N1389 N 0.13709 0.90307 0.80798 0.0
N1390 N 0.16132 0.85012 0.79998 0.0
C1391 C 0.18089 0.87798 0.79525 0.0
C1392 C 0.16757 0.90683 0.79949 0.0
C1393 C 0.36151 0.91817 0.98255 0.0
C1394 C 0.35313 0.88721 0.99321 0.0
C1395 C 0.39192 0.93693 0.99257 0.0
C1396 C 0.41469 0.92558 0.01414 0.0
H1397 H 0.34437 0.92802 0.96665 0.0
H1398 H 0.39738 0.96067 0.98383 0.0
S1399 S 0.40265 0.84722 0.05181 0.0
N1400 N 0.36898 0.84682 0.02791 0.0
N1401 N 0.42564 0.88177 0.04709 0.0
C1402 C 0.40622 0.89468 0.02515 0.0
C1403 C 0.37556 0.8756 0.01465 0.0
C1404 C 0.839 0.5954 0.77084 0.0
C1405 C 0.87269 0.59986 0.77482 0.0
C1406 C 0.82312 0.62117 0.76489 0.0
C1407 C 0.84053 0.65203 0.76283 0.0
H1408 H 0.82474 0.57227 0.77402 0.0
H1409 H 0.79732 0.6174 0.76418 0.0
S1410 S 0.92841 0.6753 0.76511 0.0
N1411 N 0.9225 0.63667 0.77141 0.0
N1412 N 0.89257 0.68508 0.76078 0.0
C1413 C 0.87395 0.65627 0.76411 0.0
C1414 C 0.8901 0.63014 0.76995 0.0
C1415 C 0.84511 0.5704 0.01425 0.0
C1416 C 0.84576 0.603 0.00829 0.0
C1417 C 0.87353 0.55768 0.01928 0.0
C1418 C 0.9037 0.577 0.01826 0.0
H1419 H 0.82248 0.55448 0.01484 0.0
H1420 H 0.87179 0.53244 0.02339 0.0
S1421 S 0.91872 0.66439 0.00565 0.0
N1422 N 0.87949 0.65451 0.00317 0.0
N1423 N 0.93229 0.63096 0.01251 0.0
C1424 C 0.90458 0.60976 0.01297 0.0
C1425 C 0.87583 0.62264 0.00802 0.0
C1426 C 0.21768 0.11767 0.80078 0.0
C1427 C 0.19247 0.11907 0.8213 0.0
C1428 C 0.23911 0.14577 0.7957 0.0
C1429 C 0.23629 0.17637 0.81104 0.0
H1430 H 0.2199 0.09499 0.78711 0.0
H1431 H 0.25707 0.14364 0.77838 0.0
S1432 S 0.17787 0.19221 0.87172 0.0
N1433 N 0.16833 0.15306 0.86004 0.0
N1434 N 0.20868 0.20533 0.85113 0.0
C1435 C 0.21251 0.17759 0.83338 0.0
C1436 C 0.19063 0.14915 0.83834 0.0
C1437 C 0.35974 0.92269 0.31366 0.0
C1438 C 0.39182 0.92628 0.32786 0.0
C1439 C 0.34105 0.89203 0.30416 0.0
C1440 C 0.35383 0.86397 0.30847 0.0
H1441 H 0.34962 0.94359 0.30746 0.0
H1442 H 0.3175 0.89038 0.29079 0.0
S1443 S 0.4333 0.8596 0.35168 0.0
N1444 N 0.43314 0.89865 0.35141 0.0
N1445 N 0.39811 0.84124 0.33295 0.0
C1446 C 0.38446 0.86709 0.32585 0.0
C1447 C 0.40341 0.8982 0.33578 0.0
C1448 C 0.54961 0.38958 0.65916 0.0
C1449 C 0.54507 0.35992 0.63907 0.0
C1450 C 0.54998 0.41849 0.64427 0.0
C1451 C 0.54541 0.41884 0.6087 0.0
H1452 H 0.55337 0.39055 0.68662 0.0
H1453 H 0.55422 0.4408 0.66092 0.0
S1454 S 0.53003 0.34713 0.54485 0.0
N1455 N 0.53428 0.33222 0.58179 0.0
N1456 N 0.53466 0.38664 0.55382 0.0
C1457 C 0.53987 0.38919 0.5883 0.0
C1458 C 0.53988 0.35971 0.60348 0.0
C1459 C 0.38785 0.74136 0.36758 0.0
C1460 C 0.4175 0.74958 0.3547 0.0
C1461 C 0.35911 0.74034 0.34748 0.0
C1462 C 0.35856 0.74745 0.31344 0.0
H1463 H 0.38674 0.73651 0.39387 0.0
H1464 H 0.3371 0.73479 0.35919 0.0
S1465 S 0.42947 0.76818 0.26648 0.0
N1466 N 0.4446 0.76336 0.30508 0.0
N1467 N 0.39029 0.76093 0.26694 0.0
C1468 C 0.38793 0.75399 0.29952 0.0
C1469 C 0.41745 0.75518 0.32021 0.0
C1470 C 0.03324 0.67444 0.07964 0.0
C1471 C 0.03554 0.68778 0.11367 0.0
C1472 C 0.02501 0.6411 0.07091 0.0
C1473 C 0.01877 0.61981 0.09588 0.0
H1474 H 0.0371 0.68988 0.05938 0.0
H1475 H 0.02257 0.63209 0.04425 0.0
S1476 S 0.02529 0.64212 0.18906 0.0
N1477 N 0.03352 0.6769 0.17277 0.0
N1478 N 0.01798 0.61414 0.15634 0.0
C1479 C 0.02212 0.63268 0.13014 0.0
C1480 C 0.03049 0.66668 0.13904 0.0
C1481 C 0.10266 0.25353 0.8342 0.0
C1482 C 0.09762 0.26261 0.86806 0.0
C1483 C 0.13323 0.26029 0.8229 0.0
C1484 C 0.15965 0.27625 0.84518 0.0
H1485 H 0.08293 0.24103 0.81633 0.0
H1486 H 0.13639 0.25197 0.79705 0.0
S1487 S 0.15925 0.30704 0.93542 0.0
N1488 N 0.12191 0.28985 0.92312 0.0
N1489 N 0.17877 0.30232 0.90181 0.0
C1490 C 0.1548 0.28609 0.87869 0.0
C1491 C 0.12395 0.27932 0.89017 0.0
C1492 C 0.50394 0.6887 0.98936 0.0
C1493 C 0.52568 0.70392 0.96855 0.0
C1494 C 0.50263 0.65621 0.99472 0.0
C1495 C 0.52313 0.63775 0.97964 0.0
H1496 H 0.48752 0.70188 0.00134 0.0
H1497 H 0.48537 0.64555 0.01083 0.0
S1498 S 0.5857 0.66693 0.92438 0.0
N1499 N 0.5689 0.69855 0.93363 0.0
N1500 N 0.56668 0.63753 0.94378 0.0
C1501 C 0.54524 0.65281 0.95897 0.0
C1502 C 0.54644 0.68587 0.95339 0.0
C1503 C 0.14543 0.78185 0.64704 0.0
C1504 C 0.11792 0.76603 0.6597 0.0
C1505 C 0.17565 0.78355 0.66396 0.0
C1506 C 0.18009 0.76986 0.69473 0.0
H1507 H 0.1438 0.7934 0.62374 0.0
H1508 H 0.1957 0.7965 0.65287 0.0
S1509 S 0.11624 0.72445 0.7386 0.0
N1510 N 0.09701 0.73528 0.70468 0.0
N1511 N 0.15446 0.73905 0.73705 0.0
C1512 C 0.15294 0.75373 0.70793 0.0
C1513 C 0.12176 0.75175 0.69036 0.0
C1514 C 0.04463 0.37623 0.49843 0.0
C1515 C 0.0485 0.3708 0.46363 0.0
C1516 C 0.04269 0.40708 0.51337 0.0
C1517 C 0.04427 0.43358 0.49399 0.0
H1518 H 0.04278 0.35646 0.51427 0.0
H1519 H 0.03913 0.40994 0.54007 0.0
S1520 S 0.05591 0.43245 0.40207 0.0
N1521 N 0.05508 0.39476 0.41053 0.0
N1522 N 0.05127 0.45247 0.43827 0.0
C1523 C 0.04882 0.42853 0.45928 0.0
C1524 C 0.05096 0.39722 0.44419 0.0
C1525 C 0.41183 0.2153 0.15893 0.0
C1526 C 0.4395 0.23439 0.17607 0.0
C1527 C 0.38317 0.21157 0.17365 0.0
C1528 C 0.38092 0.22742 0.20584 0.0
H1529 H 0.41217 0.20367 0.13357 0.0
H1530 H 0.36245 0.19672 0.15906 0.0
S1531 S 0.44739 0.27997 0.26122 0.0
N1532 N 0.46385 0.26872 0.22703 0.0
N1533 N 0.40946 0.2623 0.25484 0.0
C1534 C 0.40881 0.246 0.22371 0.0
C1535 C 0.43828 0.24935 0.20876 0.0
C1536 C 0.57807 0.52945 0.38989 0.0
C1537 C 0.60608 0.5159 0.38981 0.0
C1538 C 0.55754 0.52483 0.41573 0.0
C1539 C 0.56388 0.50612 0.44251 0.0
H1540 H 0.57215 0.54416 0.37001 0.0
H1541 H 0.537 0.53674 0.41511 0.0
S1542 S 0.63132 0.46111 0.45112 0.0
N1543 N 0.63738 0.48053 0.41721 0.0
N1544 N 0.59856 0.47102 0.4649 0.0
C1545 C 0.59105 0.49123 0.44176 0.0
C1546 C 0.61219 0.49635 0.41577 0.0
C1547 C 0.29478 0.81531 0.10338 0.0
C1548 C 0.27438 0.83601 0.09197 0.0
C1549 C 0.30166 0.81264 0.1379 0.0
C1550 C 0.28836 0.83044 0.16266 0.0
H1551 H 0.30557 0.80077 0.08548 0.0
H1552 H 0.31691 0.79574 0.14508 0.0
S1553 S 0.23452 0.88927 0.14644 0.0
N1554 N 0.24186 0.87566 0.10823 0.0
N1555 N 0.25471 0.87064 0.1735 0.0
C1556 C 0.26872 0.85212 0.15179 0.0
C1557 C 0.26174 0.85489 0.11639 0.0
C1558 C 0.94549 0.53457 0.91866 0.0
C1559 C 0.96047 0.54257 0.88973 0.0
C1560 C 0.96336 0.52914 0.94823 0.0
C1561 C 0.99696 0.53224 0.95034 0.0
H1562 H 0.91969 0.53066 0.91787 0.0
H1563 H 0.95042 0.521 0.96906 0.0
S1564 S 0.04768 0.55706 0.88252 0.0
N1565 N 0.01081 0.55614 0.86552 0.0
N1566 N 0.04451 0.54683 0.92149 0.0
C1567 C 0.01231 0.54229 0.92217 0.0
C1568 C 0.99403 0.54727 0.89181 0.0
C1569 C 0.27425 0.16073 0.61182 0.0
C1570 C 0.26936 0.18476 0.59046 0.0
C1571 C 0.27942 0.16776 0.64731 0.0
C1572 C 0.27997 0.19913 0.66297 0.0
H1573 H 0.27382 0.13618 0.60114 0.0
H1574 H 0.2831 0.14835 0.66255 0.0
S1575 S 0.27012 0.27128 0.61863 0.0
N1576 N 0.26654 0.24173 0.58781 0.0
N1577 N 0.2761 0.25465 0.65423 0.0
C1578 C 0.2753 0.22344 0.64197 0.0
C1579 C 0.27008 0.21635 0.60585 0.0
C1580 C 0.58 0.52899 0.19479 0.0
C1581 C 0.61009 0.52556 0.21034 0.0
C1582 C 0.57291 0.52529 0.15936 0.0
C1583 C 0.59556 0.51797 0.13764 0.0
H1584 H 0.56136 0.53423 0.2101 0.0
H1585 H 0.54915 0.52753 0.14903 0.0
S1586 S 0.67874 0.50857 0.16494 0.0
N1587 N 0.66328 0.51583 0.2009 0.0
N1588 N 0.65007 0.50889 0.1343 0.0
C1589 C 0.62603 0.51513 0.1527 0.0
C1590 C 0.63324 0.51884 0.18895 0.0
C1591 C 0.25359 0.84082 0.88459 0.0
C1592 C 0.24075 0.82588 0.91177 0.0
C1593 C 0.26046 0.82239 0.85603 0.0
C1594 C 0.25435 0.78822 0.85315 0.0
H1595 H 0.26001 0.86688 0.88611 0.0
H1596 H 0.27198 0.83527 0.83671 0.0
S1597 S 0.21647 0.7376 0.91547 0.0
N1598 N 0.21915 0.77504 0.9328 0.0
N1599 N 0.2317 0.74048 0.87878 0.0
C1600 C 0.23965 0.77306 0.87926 0.0
C1601 C 0.2329 0.79186 0.90857 0.0
C1602 C 0.96511 0.48221 0.69874 0.0
C1603 C 0.94783 0.5049 0.71239 0.0
C1604 C 0.97217 0.48159 0.665 0.0
C1605 C 0.96224 0.50364 0.6436 0.0
H1606 H 0.97365 0.46496 0.71435 0.0
H1607 H 0.98591 0.46392 0.65582 0.0
S1608 S 0.91636 0.56811 0.667 0.0
N1609 N 0.92077 0.54995 0.70191 0.0
N1610 N 0.93395 0.54879 0.63835 0.0
C1611 C 0.94431 0.52607 0.65667 0.0
C1612 C 0.93709 0.52668 0.6911 0.0
C1613 C 0.27816 0.21507 0.41722 0.0
C1614 C 0.27043 0.18107 0.41093 0.0
C1615 C 0.28107 0.2351 0.39061 0.0
C1616 C 0.27653 0.22216 0.35634 0.0
H1617 H 0.28221 0.22649 0.44308 0.0
H1618 H 0.28691 0.26101 0.39701 0.0
S1619 S 0.25113 0.13517 0.32568 0.0
N1620 N 0.2558 0.13564 0.3675 0.0
N1621 N 0.26025 0.17319 0.31762 0.0
C1622 C 0.2679 0.18826 0.3496 0.0
C1623 C 0.26515 0.16779 0.37678 0.0
C1624 C 0.37758 0.59369 0.56556 0.0
C1625 C 0.36029 0.60216 0.5371 0.0
C1626 C 0.40403 0.57844 0.56182 0.0
C1627 C 0.41376 0.57059 0.52947 0.0
H1628 H 0.37154 0.60018 0.59088 0.0
H1629 H 0.4175 0.57354 0.58463 0.0
S1630 S 0.37381 0.58493 0.44684 0.0
N1631 N 0.353 0.59993 0.47551 0.0
N1632 N 0.4022 0.57048 0.46841 0.0
C1633 C 0.39539 0.57732 0.50074 0.0
C1634 C 0.36883 0.5934 0.50461 0.0
C1635 C 0.88667 0.95565 0.54446 0.0
C1636 C 0.88463 0.92224 0.54694 0.0
C1637 C 0.91635 0.97589 0.54251 0.0
C1638 C 0.94507 0.96347 0.54275 0.0
H1639 H 0.86513 0.96601 0.54271 0.0
H1640 H 0.91661 1.0012 0.53961 0.0
S1641 S 0.95325 0.87859 0.55361 0.0
N1642 N 0.91463 0.87863 0.55335 0.0
N1643 N 0.96949 0.91599 0.54872 0.0
C1644 C 0.94334 0.93042 0.54675 0.0
C1645 C 0.91344 0.91006 0.54912 0.0
C1646 C 0.83416 0.0882 0.25612 0.0
C1647 C 0.86607 0.08807 0.24942 0.0
C1648 C 0.82272 0.11748 0.26268 0.0
C1649 C 0.84261 0.14772 0.26224 0.0
H1650 H 0.81827 0.06559 0.25761 0.0
H1651 H 0.79818 0.11639 0.26816 0.0
S1652 S 0.92775 0.16039 0.24459 0.0
N1653 N 0.91694 0.12079 0.24193 0.0
N1654 N 0.89577 0.17519 0.25358 0.0
C1655 C 0.87429 0.14765 0.25465 0.0
C1656 C 0.88591 0.11806 0.24843 0.0
C1657 C 0.66124 0.13188 0.05751 0.0
C1658 C 0.68597 0.11765 0.04498 0.0
C1659 C 0.6297 0.11527 0.0539 0.0
C1660 C 0.62155 0.08361 0.03792 0.0
H1661 H 0.66599 0.15675 0.06866 0.0
H1662 H 0.61122 0.12802 0.06199 0.0
S1663 S 0.67757 0.03441 0.00287 0.0
N1664 N 0.70052 0.06918 0.01782 0.0
N1665 N 0.64101 0.03777 0.01134 0.0
C1666 C 0.6463 0.06814 0.02747 0.0
C1667 C 0.67862 0.0852 0.03097 0.0
C1668 C 0.1912 0.41733 0.29371 0.0
C1669 C 0.18138 0.4263 0.26169 0.0
C1670 C 0.20622 0.39046 0.29657 0.0
C1671 C 0.21094 0.37125 0.26744 0.0
H1672 H 0.18679 0.43091 0.31669 0.0
H1673 H 0.21267 0.3838 0.32169 0.0
S1674 S 0.19022 0.38559 0.17776 0.0
N1675 N 0.17863 0.41529 0.2005 0.0
N1676 N 0.20546 0.36382 0.2055 0.0
C1677 C 0.20173 0.38052 0.23525 0.0
C1678 C 0.18726 0.40835 0.23245 0.0
C1679 C 0.17121 0.40849 0.05841 0.0
C1680 C 0.20049 0.43003 0.06129 0.0
C1681 C 0.14201 0.41903 0.05228 0.0
C1682 C 0.14051 0.45159 0.04803 0.0
H1683 H 0.17081 0.383 0.06042 0.0
H1684 H 0.12035 0.40112 0.05009 0.0
S1685 S 0.21035 0.51809 0.05358 0.0
N1686 N 0.22628 0.48581 0.06009 0.0
N1687 N 0.17127 0.50555 0.04786 0.0
C1688 C 0.16961 0.47359 0.05116 0.0
C1689 C 0.19955 0.46286 0.05805 0.0
C1690 C 0.83441 0.90278 0.25516 0.0
C1691 C 0.86798 0.90555 0.26046 0.0
C1692 C 0.81362 0.87318 0.25762 0.0
C1693 C 0.8255 0.84518 0.26578 0.0
H1694 H 0.82406 0.92373 0.24976 0.0
H1695 H 0.78808 0.87246 0.25376 0.0
S1696 S 0.91152 0.83889 0.28037 0.0
N1697 N 0.91176 0.87648 0.27217 0.0
N1698 N 0.87349 0.82254 0.27831 0.0
C1699 C 0.85902 0.8477 0.27054 0.0
C1700 C 0.87996 0.87731 0.26746 0.0
C1701 C 0.70363 0.11149 0.77373 0.0
C1702 C 0.67248 0.10572 0.75692 0.0
C1703 C 0.72153 0.14295 0.77942 0.0
C1704 C 0.70875 0.16929 0.76828 0.0
H1705 H 0.71317 0.09214 0.78497 0.0
H1706 H 0.74426 0.14701 0.795 0.0
S1707 S 0.63147 0.16581 0.71677 0.0
N1708 N 0.63195 0.12806 0.7245 0.0
N1709 N 0.66558 0.187 0.73536 0.0
C1710 C 0.67908 0.1633 0.74867 0.0
C1711 C 0.66094 0.13148 0.74287 0.0
loop_
_geom_bond_atom_site_label_1
_geom_bond_atom_site_label_2
_geom_bond_distance
_geom_bond_site_symmetry_2
_ccdc_geom_bond_type
Co0 O1 2.216 . S
Co0 O2 2.091 . S
Co0 O4 2.004 1_455 S
Co0 O10 2.021 . S
Co0 O12 2.137 . S
Co0 O13 2.244 . S
O1 Co0 2.216 . S
O1 C8 1.247 . S
O2 Co0 2.091 . S
O2 C8 1.261 . S
C3 O12 1.247 . S
C3 O13 1.272 . S
O4 Co0 2.004 1_655 S
O4 C9 1.259 . S
Co5 O6 2.061 . S
Co5 O11 2.052 1_655 S
Co5 O13 2.135 1_655 S
O6 Co5 2.061 . S
O6 C9 1.235 . S
C7 O10 1.238 . S
C7 O11 1.241 . S
C8 O1 1.247 . S
C8 O2 1.261 . S
C9 O4 1.259 . S
C9 O6 1.235 . S
O10 Co0 2.021 . S
O10 C7 1.238 . S
O11 Co5 2.052 1_455 S
O11 C7 1.241 . S
O12 Co0 2.137 . S
O12 C3 1.247 . S
O13 Co0 2.244 . S
O13 C3 1.272 . S
O13 Co5 2.135 1_455 S
Co14 O15 2.216 1_455 S
Co14 O16 2.091 1_455 S
Co14 O18 2.004 . S
Co14 O24 2.021 . S
Co14 O26 2.137 . S
Co14 O27 2.244 . S
O15 Co14 2.216 1_655 S
O15 C22 1.247 . S
O16 Co14 2.091 1_655 S
O16 C22 1.261 . S
C17 O26 1.247 . S
C17 O27 1.272 . S
O18 Co14 2.004 . S
O18 C23 1.259 . S
Co19 O20 2.061 . S
Co19 O25 2.052 . S
Co19 O27 2.135 . S
O20 Co19 2.061 . S
O20 C23 1.235 . S
C21 O24 1.238 . S
C21 O25 1.241 . S
C22 O15 1.247 . S
C22 O16 1.261 . S
C23 O18 1.259 . S
C23 O20 1.235 . S
O24 Co14 2.021 . S
O24 C21 1.238 . S
O25 Co19 2.052 . S
O25 C21 1.241 . S
O26 Co14 2.137 . S
O26 C17 1.247 . S
O27 Co14 2.244 . S
O27 C17 1.272 . S
O27 Co19 2.135 . S
Co28 O29 2.216 . S
Co28 O30 2.091 . S
Co28 O32 2.004 . S
Co28 O38 2.021 . S
Co28 O40 2.137 . S
Co28 O41 2.244 . S
O29 Co28 2.216 . S
O29 C36 1.247 . S
O30 Co28 2.091 . S
O30 C36 1.261 . S
C31 O40 1.247 . S
C31 O41 1.272 . S
O32 Co28 2.004 . S
O32 C37 1.259 . S
Co33 O34 2.061 . S
Co33 O39 2.052 . S
Co33 O41 2.135 . S
O34 Co33 2.061 . S
O34 C37 1.235 . S
C35 O38 1.238 . S
C35 O39 1.241 . S
C36 O29 1.247 . S
C36 O30 1.261 . S
C37 O32 1.259 . S
C37 O34 1.235 . S
O38 Co28 2.021 . S
O38 C35 1.238 . S
O39 Co33 2.052 . S
O39 C35 1.241 . S
O40 Co28 2.137 . S
O40 C31 1.247 . S
O41 Co28 2.244 . S
O41 C31 1.272 . S
O41 Co33 2.135 . S
Co42 O43 2.216 . S
Co42 O44 2.091 . S
Co42 O46 2.004 . S
Co42 O52 2.021 . S
Co42 O54 2.137 . S
Co42 O55 2.244 . S
O43 Co42 2.216 . S
O43 C50 1.247 . S
O44 Co42 2.091 . S
O44 C50 1.261 . S
C45 O54 1.247 . S
C45 O55 1.272 . S
O46 Co42 2.004 . S
O46 C51 1.259 . S
Co47 O48 2.061 . S
Co47 O53 2.052 . S
Co47 O55 2.135 . S
O48 Co47 2.061 . S
O48 C51 1.235 . S
C49 O52 1.238 . S
C49 O53 1.241 . S
C50 O43 1.247 . S
C50 O44 1.261 . S
C51 O46 1.259 . S
C51 O48 1.235 . S
O52 Co42 2.021 . S
O52 C49 1.238 . S
O53 Co47 2.052 . S
O53 C49 1.241 . S
O54 Co42 2.137 . S
O54 C45 1.247 . S
O55 Co42 2.244 . S
O55 C45 1.272 . S
O55 Co47 2.135 . S
Co56 O57 2.216 1_455 S
Co56 O58 2.091 . S
Co56 O60 2.004 . S
Co56 O66 2.021 . S
Co56 O68 2.137 . S
Co56 O69 2.244 . S
O57 Co56 2.216 1_655 S
O57 C64 1.247 . S
O58 Co56 2.091 . S
O58 C64 1.261 1_455 S
C59 O68 1.247 . S
C59 O69 1.272 . S
O60 Co56 2.004 . S
O60 C65 1.259 . S
Co61 O62 2.061 . S
Co61 O67 2.052 . S
Co61 O69 2.135 . S
O62 Co61 2.061 . S
O62 C65 1.235 . S
C63 O66 1.238 . S
C63 O67 1.241 . S
C64 O57 1.247 . S
C64 O58 1.261 1_655 S
C65 O60 1.259 . S
C65 O62 1.235 . S
O66 Co56 2.021 . S
O66 C63 1.238 . S
O67 Co61 2.052 . S
O67 C63 1.241 . S
O68 Co56 2.137 . S
O68 C59 1.247 . S
O69 Co56 2.244 . S
O69 C59 1.272 . S
O69 Co61 2.135 . S
Co70 O71 2.216 . S
Co70 O72 2.091 . S
Co70 O74 2.004 . S
Co70 O80 2.021 . S
Co70 O82 2.137 . S
Co70 O83 2.244 . S
O71 Co70 2.216 . S
O71 C78 1.247 . S
O72 Co70 2.091 . S
O72 C78 1.261 . S
C73 O82 1.247 . S
C73 O83 1.272 . S
O74 Co70 2.004 . S
O74 C79 1.259 . S
Co75 O76 2.061 . S
Co75 O81 2.052 . S
Co75 O83 2.135 . S
O76 Co75 2.061 . S
O76 C79 1.235 . S
C77 O80 1.238 . S
C77 O81 1.241 . S
C78 O71 1.247 . S
C78 O72 1.261 . S
C79 O74 1.259 . S
C79 O76 1.235 . S
O80 Co70 2.021 . S
O80 C77 1.238 . S
O81 Co75 2.052 . S
O81 C77 1.241 . S
O82 Co70 2.137 . S
O82 C73 1.247 . S
O83 Co70 2.244 . S
O83 C73 1.272 . S
O83 Co75 2.135 . S
Co84 O85 2.216 . S
Co84 O86 2.091 . S
Co84 O88 2.004 . S
Co84 O94 2.021 . S
Co84 O96 2.137 . S
Co84 O97 2.244 . S
O85 Co84 2.216 . S
O85 C92 1.247 . S
O86 Co84 2.091 . S
O86 C92 1.261 . S
C87 O96 1.247 . S
C87 O97 1.272 . S
O88 Co84 2.004 . S
O88 C93 1.259 . S
Co89 O90 2.061 . S
Co89 O95 2.052 . S
Co89 O97 2.135 . S
O90 Co89 2.061 . S
O90 C93 1.235 . S
C91 O94 1.238 . S
C91 O95 1.241 . S
C92 O85 1.247 . S
C92 O86 1.261 . S
C93 O88 1.259 . S
C93 O90 1.235 . S
O94 Co84 2.021 . S
O94 C91 1.238 . S
O95 Co89 2.052 . S
O95 C91 1.241 . S
O96 Co84 2.137 . S
O96 C87 1.247 . S
O97 Co84 2.244 . S
O97 C87 1.272 . S
O97 Co89 2.135 . S
Co98 O99 2.216 . S
Co98 O100 2.091 . S
Co98 O102 2.004 1_455 S
Co98 O108 2.021 . S
Co98 O110 2.137 . S
Co98 O111 2.244 1_455 S
O99 Co98 2.216 . S
O99 C106 1.247 . S
O100 Co98 2.091 . S
O100 C106 1.261 . S
C101 O110 1.247 . S
C101 O111 1.272 1_455 S
O102 Co98 2.004 1_655 S
O102 C107 1.259 . S
Co103 O104 2.061 . S
Co103 O109 2.052 . S
Co103 O111 2.135 . S
O104 Co103 2.061 . S
O104 C107 1.235 . S
C105 O108 1.238 1_655 S
C105 O109 1.241 . S
C106 O99 1.247 . S
C106 O100 1.261 . S
C107 O102 1.259 . S
C107 O104 1.235 . S
O108 Co98 2.021 . S
O108 C105 1.238 1_455 S
O109 Co103 2.052 . S
O109 C105 1.241 . S
O110 Co98 2.137 . S
O110 C101 1.247 . S
O111 Co98 2.244 1_655 S
O111 C101 1.272 1_655 S
O111 Co103 2.135 . S
Co112 O113 2.216 . S
Co112 O114 2.091 . S
Co112 O116 2.004 1_545 S
Co112 O122 2.021 . S
Co112 O124 2.137 . S
Co112 O125 2.244 . S
O113 Co112 2.216 . S
O113 C120 1.247 . S
O114 Co112 2.091 . S
O114 C120 1.261 . S
C115 O124 1.247 . S
C115 O125 1.272 . S
O116 Co112 2.004 1_565 S
O116 C121 1.259 . S
Co117 O118 2.061 . S
Co117 O123 2.052 1_565 S
Co117 O125 2.135 1_565 S
O118 Co117 2.061 . S
O118 C121 1.235 . S
C119 O122 1.238 . S
C119 O123 1.241 . S
C120 O113 1.247 . S
C120 O114 1.261 . S
C121 O116 1.259 . S
C121 O118 1.235 . S
O122 Co112 2.021 . S
O122 C119 1.238 . S
O123 Co117 2.052 1_545 S
O123 C119 1.241 . S
O124 Co112 2.137 . S
O124 C115 1.247 . S
O125 Co112 2.244 . S
O125 C115 1.272 . S
O125 Co117 2.135 1_545 S
Co126 O127 2.216 . S
Co126 O128 2.091 . S
Co126 O130 2.004 . S
Co126 O136 2.021 . S
Co126 O138 2.137 . S
Co126 O139 2.244 . S
O127 Co126 2.216 . S
O127 C134 1.247 . S
O128 Co126 2.091 . S
O128 C134 1.261 . S
C129 O138 1.247 . S
C129 O139 1.272 . S
O130 Co126 2.004 . S
O130 C135 1.259 . S
Co131 O132 2.061 . S
Co131 O137 2.052 . S
Co131 O139 2.135 . S
O132 Co131 2.061 . S
O132 C135 1.235 . S
C133 O136 1.238 . S
C133 O137 1.241 . S
C134 O127 1.247 . S
C134 O128 1.261 . S
C135 O130 1.259 . S
C135 O132 1.235 . S
O136 Co126 2.021 . S
O136 C133 1.238 . S
O137 Co131 2.052 . S
O137 C133 1.241 . S
O138 Co126 2.137 . S
O138 C129 1.247 . S
O139 Co126 2.244 . S
O139 C129 1.272 . S
O139 Co131 2.135 . S
Co140 O141 2.216 1_545 S
Co140 O142 2.091 1_545 S
Co140 O144 2.004 . S
Co140 O150 2.021 . S
Co140 O152 2.137 . S
Co140 O153 2.244 . S
O141 Co140 2.216 1_565 S
O141 C148 1.247 . S
O142 Co140 2.091 1_565 S
O142 C148 1.261 . S
C143 O152 1.247 . S
C143 O153 1.272 . S
O144 Co140 2.004 . S
O144 C149 1.259 . S
Co145 O146 2.061 . S
Co145 O151 2.052 . S
Co145 O153 2.135 . S
O146 Co145 2.061 . S
O146 C149 1.235 . S
C147 O150 1.238 . S
C147 O151 1.241 . S
C148 O141 1.247 . S
C148 O142 1.261 . S
C149 O144 1.259 . S
C149 O146 1.235 . S
O150 Co140 2.021 . S
O150 C147 1.238 . S
O151 Co145 2.052 . S
O151 C147 1.241 . S
O152 Co140 2.137 . S
O152 C143 1.247 . S
O153 Co140 2.244 . S
O153 C143 1.272 . S
O153 Co145 2.135 . S
Co154 O155 2.216 . S
Co154 O156 2.091 . S
Co154 O158 2.004 . S
Co154 O164 2.021 . S
Co154 O166 2.137 1_554 S
Co154 O167 2.244 1_554 S
O155 Co154 2.216 . S
O155 C162 1.247 . S
O156 Co154 2.091 . S
O156 C162 1.261 . S
C157 O166 1.247 . S
C157 O167 1.272 . S
O158 Co154 2.004 . S
O158 C163 1.259 . S
Co159 O160 2.061 . S
Co159 O165 2.052 . S
Co159 O167 2.135 1_554 S
O160 Co159 2.061 . S
O160 C163 1.235 . S
C161 O164 1.238 . S
C161 O165 1.241 . S
C162 O155 1.247 . S
C162 O156 1.261 . S
C163 O158 1.259 . S
C163 O160 1.235 . S
O164 Co154 2.021 . S
O164 C161 1.238 . S
O165 Co159 2.052 . S
O165 C161 1.241 . S
O166 Co154 2.137 1_556 S
O166 C157 1.247 . S
O167 Co154 2.244 1_556 S
O167 C157 1.272 . S
O167 Co159 2.135 1_556 S
Co168 O169 2.216 . S
Co168 O170 2.091 . S
Co168 O172 2.004 . S
Co168 O178 2.021 . S
Co168 O180 2.137 1_554 S
Co168 O181 2.244 . S
O169 Co168 2.216 . S
O169 C176 1.247 . S
O170 Co168 2.091 . S
O170 C176 1.261 . S
C171 O180 1.247 . S
C171 O181 1.272 1_556 S
O172 Co168 2.004 . S
O172 C177 1.259 . S
Co173 O174 2.061 . S
Co173 O179 2.052 . S
Co173 O181 2.135 . S
O174 Co173 2.061 . S
O174 C177 1.235 . S
C175 O178 1.238 . S
C175 O179 1.241 . S
C176 O169 1.247 . S
C176 O170 1.261 . S
C177 O172 1.259 . S
C177 O174 1.235 . S
O178 Co168 2.021 . S
O178 C175 1.238 . S
O179 Co173 2.052 . S
O179 C175 1.241 . S
O180 Co168 2.137 1_556 S
O180 C171 1.247 . S
O181 Co168 2.244 . S
O181 C171 1.272 1_554 S
O181 Co173 2.135 . S
Co182 O183 2.216 . S
Co182 O184 2.091 . S
Co182 O186 2.004 . S
Co182 O192 2.021 . S
Co182 O194 2.137 1_554 S
Co182 O195 2.244 . S
O183 Co182 2.216 . S
O183 C190 1.247 . S
O184 Co182 2.091 . S
O184 C190 1.261 . S
C185 O194 1.247 . S
C185 O195 1.272 1_556 S
O186 Co182 2.004 . S
O186 C191 1.259 . S
Co187 O188 2.061 . S
Co187 O193 2.052 . S
Co187 O195 2.135 . S
O188 Co187 2.061 . S
O188 C191 1.235 . S
C189 O192 1.238 . S
C189 O193 1.241 . S
C190 O183 1.247 . S
C190 O184 1.261 . S
C191 O186 1.259 . S
C191 O188 1.235 . S
O192 Co182 2.021 . S
O192 C189 1.238 . S
O193 Co187 2.052 . S
O193 C189 1.241 . S
O194 Co182 2.137 1_556 S
O194 C185 1.247 . S
O195 Co182 2.244 . S
O195 C185 1.272 1_554 S
O195 Co187 2.135 . S
Co196 O197 2.216 . S
Co196 O198 2.091 . S
Co196 O200 2.004 . S
Co196 O206 2.021 . S
Co196 O208 2.137 . S
Co196 O209 2.244 . S
O197 Co196 2.216 . S
O197 C204 1.247 . S
O198 Co196 2.091 . S
O198 C204 1.261 . S
C199 O208 1.247 . S
C199 O209 1.272 . S
O200 Co196 2.004 . S
O200 C205 1.259 . S
Co201 O202 2.061 . S
Co201 O207 2.052 . S
Co201 O209 2.135 . S
O202 Co201 2.061 . S
O202 C205 1.235 . S
C203 O206 1.238 . S
C203 O207 1.241 . S
C204 O197 1.247 . S
C204 O198 1.261 . S
C205 O200 1.259 . S
C205 O202 1.235 . S
O206 Co196 2.021 . S
O206 C203 1.238 . S
O207 Co201 2.052 . S
O207 C203 1.241 . S
O208 Co196 2.137 . S
O208 C199 1.247 . S
O209 Co196 2.244 . S
O209 C199 1.272 . S
O209 Co201 2.135 . S
Co210 O211 2.216 . S
Co210 O212 2.091 . S
Co210 O214 2.004 . S
Co210 O220 2.021 . S
Co210 O222 2.137 . S
Co210 O223 2.244 . S
O211 Co210 2.216 . S
O211 C218 1.247 . S
O212 Co210 2.091 . S
O212 C218 1.261 . S
C213 O222 1.247 . S
C213 O223 1.272 . S
O214 Co210 2.004 . S
O214 C219 1.259 . S
Co215 O216 2.061 . S
Co215 O221 2.052 . S
Co215 O223 2.135 . S
O216 Co215 2.061 . S
O216 C219 1.235 . S
C217 O220 1.238 . S
C217 O221 1.241 . S
C218 O211 1.247 . S
C218 O212 1.261 . S
C219 O214 1.259 . S
C219 O216 1.235 . S
O220 Co210 2.021 . S
O220 C217 1.238 . S
O221 Co215 2.052 . S
O221 C217 1.241 . S
O222 Co210 2.137 . S
O222 C213 1.247 . S
O223 Co210 2.244 . S
O223 C213 1.272 . S
O223 Co215 2.135 . S
Co224 O225 2.216 . S
Co224 O226 2.091 . S
Co224 O228 2.004 1_545 S
Co224 O234 2.021 . S
Co224 O236 2.137 . S
Co224 O237 2.244 . S
O225 Co224 2.216 . S
O225 C232 1.247 . S
O226 Co224 2.091 . S
O226 C232 1.261 . S
C227 O236 1.247 . S
C227 O237 1.272 . S
O228 Co224 2.004 1_565 S
O228 C233 1.259 . S
Co229 O230 2.061 . S
Co229 O235 2.052 . S
Co229 O237 2.135 1_565 S
O230 Co229 2.061 . S
O230 C233 1.235 . S
C231 O234 1.238 . S
C231 O235 1.241 1_545 S
C232 O225 1.247 . S
C232 O226 1.261 . S
C233 O228 1.259 . S
C233 O230 1.235 . S
O234 Co224 2.021 . S
O234 C231 1.238 . S
O235 Co229 2.052 . S
O235 C231 1.241 1_565 S
O236 Co224 2.137 . S
O236 C227 1.247 . S
O237 Co224 2.244 . S
O237 C227 1.272 . S
O237 Co229 2.135 1_545 S
Co238 O239 2.216 . S
Co238 O240 2.091 . S
Co238 O242 2.004 . S
Co238 O248 2.021 . S
Co238 O250 2.137 . S
Co238 O251 2.244 . S
O239 Co238 2.216 . S
O239 C246 1.247 . S
O240 Co238 2.091 . S
O240 C246 1.261 . S
C241 O250 1.247 . S
C241 O251 1.272 . S
O242 Co238 2.004 . S
O242 C247 1.259 . S
Co243 O244 2.061 . S
Co243 O249 2.052 . S
Co243 O251 2.135 . S
O244 Co243 2.061 . S
O244 C247 1.235 . S
C245 O248 1.238 . S
C245 O249 1.241 . S
C246 O239 1.247 . S
C246 O240 1.261 . S
C247 O242 1.259 . S
C247 O244 1.235 . S
O248 Co238 2.021 . S
O248 C245 1.238 . S
O249 Co243 2.052 . S
O249 C245 1.241 . S
O250 Co238 2.137 . S
O250 C241 1.247 . S
O251 Co238 2.244 . S
O251 C241 1.272 . S
O251 Co243 2.135 . S
Co252 O253 2.216 . S
Co252 O254 2.091 . S
Co252 O256 2.004 . S
Co252 O262 2.021 . S
Co252 O264 2.137 . S
Co252 O265 2.244 . S
O253 Co252 2.216 . S
O253 C260 1.247 . S
O254 Co252 2.091 . S
O254 C260 1.261 . S
C255 O264 1.247 . S
C255 O265 1.272 . S
O256 Co252 2.004 . S
O256 C261 1.259 . S
Co257 O258 2.061 . S
Co257 O263 2.052 . S
Co257 O265 2.135 . S
O258 Co257 2.061 . S
O258 C261 1.235 . S
C259 O262 1.238 . S
C259 O263 1.241 . S
C260 O253 1.247 . S
C260 O254 1.261 . S
C261 O256 1.259 . S
C261 O258 1.235 . S
O262 Co252 2.021 . S
O262 C259 1.238 . S
O263 Co257 2.052 . S
O263 C259 1.241 . S
O264 Co252 2.137 . S
O264 C255 1.247 . S
O265 Co252 2.244 . S
O265 C255 1.272 . S
O265 Co257 2.135 . S
Co266 O267 2.216 . S
Co266 O268 2.091 . S
Co266 O270 2.004 1_565 S
Co266 O276 2.021 . S
Co266 O278 2.137 . S
Co266 O279 2.244 1_565 S
O267 Co266 2.216 . S
O267 C274 1.247 . S
O268 Co266 2.091 . S
O268 C274 1.261 . S
C269 O278 1.233 1_545 S
C269 O279 1.284 . S
O270 Co266 2.004 1_545 S
O270 C275 1.259 . S
Co271 O272 2.061 . S
Co271 O277 2.052 . S
Co271 O279 2.135 . S
O272 Co271 2.061 . S
O272 C275 1.235 . S
C273 O276 1.248 . S
C273 O277 1.227 1_565 S
C274 O267 1.247 . S
C274 O268 1.261 . S
C275 O270 1.259 . S
C275 O272 1.235 . S
O276 Co266 2.021 . S
O276 C273 1.248 . S
O277 Co271 2.052 . S
O277 C273 1.227 1_545 S
O278 Co266 2.137 . S
O278 C269 1.233 1_565 S
O279 Co266 2.244 1_545 S
O279 C269 1.284 . S
O279 Co271 2.135 . S
Co280 O281 2.216 1_556 S
Co280 O282 2.094 . S
Co280 O284 2.004 . S
Co280 O290 2.021 1_556 S
Co280 O292 2.137 . S
Co280 O293 2.244 . S
O281 Co280 2.216 1_554 S
O281 C288 1.247 . S
O282 Co280 2.094 . S
O282 C288 1.264 1_556 S
C283 O292 1.247 . S
C283 O293 1.272 . S
O284 Co280 2.004 . S
O284 C289 1.259 . S
Co285 O286 2.063 1_554 S
Co285 O291 2.064 . S
Co285 O293 2.126 1_554 S
O286 Co285 2.063 1_556 S
O286 C289 1.235 . S
C287 O290 1.238 . S
C287 O291 1.241 . S
C288 O281 1.247 . S
C288 O282 1.264 1_554 S
C289 O284 1.259 . S
C289 O286 1.235 . S
O290 Co280 2.021 1_554 S
O290 C287 1.238 . S
O291 Co285 2.064 . S
O291 C287 1.241 . S
O292 Co280 2.137 . S
O292 C283 1.247 . S
O293 Co280 2.244 . S
O293 C283 1.272 . S
O293 Co285 2.126 1_556 S
Co294 O295 2.216 . S
Co294 O296 2.091 . S
Co294 O298 2.004 . S
Co294 O304 2.021 . S
Co294 O306 2.137 . S
Co294 O307 2.244 . S
O295 Co294 2.216 . S
O295 C302 1.247 . S
O296 Co294 2.091 . S
O296 C302 1.261 . S
C297 O306 1.247 . S
C297 O307 1.272 . S
O298 Co294 2.004 . S
O298 C303 1.259 . S
Co299 O300 2.061 . S
Co299 O305 2.052 . S
Co299 O307 2.135 . S
O300 Co299 2.061 . S
O300 C303 1.235 . S
C301 O304 1.238 . S
C301 O305 1.241 . S
C302 O295 1.247 . S
C302 O296 1.261 . S
C303 O298 1.259 . S
C303 O300 1.235 . S
O304 Co294 2.021 . S
O304 C301 1.238 . S
O305 Co299 2.052 . S
O305 C301 1.241 . S
O306 Co294 2.137 . S
O306 C297 1.247 . S
O307 Co294 2.244 . S
O307 C297 1.272 . S
O307 Co299 2.135 . S
Co308 O309 2.216 . S
Co308 O310 2.091 . S
Co308 O312 2.004 . S
Co308 O318 2.021 . S
Co308 O320 2.137 . S
Co308 O321 2.244 . S
O309 Co308 2.216 . S
O309 C316 1.247 . S
O310 Co308 2.091 . S
O310 C316 1.261 . S
C311 O320 1.247 . S
C311 O321 1.272 . S
O312 Co308 2.004 . S
O312 C317 1.259 . S
Co313 O314 2.061 . S
Co313 O319 2.052 . S
Co313 O321 2.135 . S
O314 Co313 2.061 . S
O314 C317 1.235 . S
C315 O318 1.238 . S
C315 O319 1.241 . S
C316 O309 1.247 . S
C316 O310 1.261 . S
C317 O312 1.259 . S
C317 O314 1.235 . S
O318 Co308 2.021 . S
O318 C315 1.238 . S
O319 Co313 2.052 . S
O319 C315 1.241 . S
O320 Co308 2.137 . S
O320 C311 1.247 . S
O321 Co308 2.244 . S
O321 C311 1.272 . S
O321 Co313 2.135 . S
Co322 O323 2.216 . S
Co322 O324 2.091 . S
Co322 O326 2.004 . S
Co322 O332 2.021 . S
Co322 O334 2.137 . S
Co322 O335 2.244 . S
O323 Co322 2.216 . S
O323 C330 1.247 . S
O324 Co322 2.091 . S
O324 C330 1.261 . S
C325 O334 1.247 . S
C325 O335 1.272 . S
O326 Co322 2.004 . S
O326 C331 1.259 . S
Co327 O328 2.061 . S
Co327 O333 2.052 . S
Co327 O335 2.135 . S
O328 Co327 2.061 . S
O328 C331 1.235 . S
C329 O332 1.238 . S
C329 O333 1.241 . S
C330 O323 1.247 . S
C330 O324 1.261 . S
C331 O326 1.259 . S
C331 O328 1.235 . S
O332 Co322 2.021 . S
O332 C329 1.238 . S
O333 Co327 2.052 . S
O333 C329 1.241 . S
O334 Co322 2.137 . S
O334 C325 1.247 . S
O335 Co322 2.244 . S
O335 C325 1.272 . S
O335 Co327 2.135 . S
Zn336 O342 1.969 . S
Zn336 O343 1.965 1_565 S
Zn336 O347 2.024 . S
Zn336 O352 1.953 1_565 S
Zn337 O344 1.969 1_654 S
Zn337 O350 1.969 1_554 S
Zn337 O351 1.965 . S
Zn337 O353 2.024 1_655 S
C338 O339 1.229 . S
C338 O347 1.058 . S
O339 C338 1.229 . S
C340 O341 1.229 1_454 S
C340 O353 1.058 . S
O341 C340 1.229 1_656 S
O342 Zn336 1.969 . S
O342 C345 1.267 . S
O343 Zn336 1.965 1_545 S
O343 C354 1.260 1_554 S
O344 Zn337 1.969 1_456 S
O344 C354 1.258 . S
C345 O342 1.267 . S
C345 O346 1.228 . S
O346 C345 1.228 . S
O347 Zn336 2.024 . S
O347 C338 1.058 . S
C348 O349 1.228 . S
C348 O350 1.267 1_554 S
O349 C348 1.228 . S
O350 Zn337 1.969 1_556 S
O350 C348 1.267 1_556 S
O351 Zn337 1.965 . S
O351 C355 1.260 1_655 S
O352 Zn336 1.953 1_545 S
O352 C355 1.285 . S
O353 Zn337 2.024 1_455 S
O353 C340 1.058 . S
C354 O343 1.260 1_556 S
C354 O344 1.258 . S
C355 O351 1.260 1_455 S
C355 O352 1.285 . S
Zn356 O362 1.969 . S
Zn356 O363 1.965 . S
Zn356 O367 2.024 . S
Zn356 O372 1.969 . S
Zn357 O364 1.969 . S
Zn357 O370 1.969 . S
Zn357 O371 1.965 . S
Zn357 O373 2.024 . S
C358 O359 1.229 . S
C358 O367 1.058 . S
O359 C358 1.229 . S
C360 O361 1.229 . S
C360 O373 1.058 . S
O361 C360 1.229 . S
O362 Zn356 1.969 . S
O362 C365 1.267 . S
O363 Zn356 1.965 . S
O363 C374 1.260 . S
O364 Zn357 1.969 . S
O364 C374 1.258 . S
C365 O362 1.267 . S
C365 O366 1.228 . S
O366 C365 1.228 . S
O367 Zn356 2.024 . S
O367 C358 1.058 . S
C368 O369 1.228 . S
C368 O370 1.267 . S
O369 C368 1.228 . S
O370 Zn357 1.969 . S
O370 C368 1.267 . S
O371 Zn357 1.965 . S
O371 C375 1.260 . S
O372 Zn356 1.969 . S
O372 C375 1.258 . S
O373 Zn357 2.024 . S
O373 C360 1.058 . S
C374 O363 1.260 . S
C374 O364 1.258 . S
C375 O371 1.260 . S
C375 O372 1.258 . S
Zn376 O382 1.969 . S
Zn376 O383 1.965 . S
Zn376 O387 2.024 . S
Zn376 O392 1.969 . S
Zn377 O384 1.969 . S
Zn377 O390 1.969 . S
Zn377 O391 1.965 1_565 S
Zn377 O393 2.024 . S
C378 O379 1.229 . S
C378 O387 1.058 . S
O379 C378 1.229 . S
C380 O381 1.229 . S
C380 O393 1.058 . S
O381 C380 1.229 . S
O382 Zn376 1.969 . S
O382 C385 1.267 . S
O383 Zn376 1.965 . S
O383 C394 1.260 . S
O384 Zn377 1.969 . S
O384 C394 1.258 1_565 S
C385 O382 1.267 . S
C385 O386 1.228 . S
O386 C385 1.228 . S
O387 Zn376 2.024 . S
O387 C378 1.058 . S
C388 O389 1.228 . S
C388 O390 1.267 . S
O389 C388 1.228 . S
O390 Zn377 1.969 . S
O390 C388 1.267 . S
O391 Zn377 1.965 1_545 S
O391 C395 1.260 . S
O392 Zn376 1.969 . S
O392 C395 1.258 . S
O393 Zn377 2.024 . S
O393 C380 1.058 . S
C394 O383 1.260 . S
C394 O384 1.258 1_545 S
C395 O391 1.260 . S
C395 O392 1.258 . S
Zn396 O402 1.969 . S
Zn396 O403 1.965 . S
Zn396 O407 2.024 . S
Zn396 O412 1.969 . S
Zn397 O404 1.969 . S
Zn397 O410 1.969 . S
Zn397 O411 1.965 . S
Zn397 O413 2.024 . S
C398 O399 1.229 . S
C398 O407 1.058 . S
O399 C398 1.229 . S
C400 O401 1.229 . S
C400 O413 1.058 . S
O401 C400 1.229 . S
O402 Zn396 1.969 . S
O402 C405 1.267 . S
O403 Zn396 1.965 . S
O403 C414 1.260 . S
O404 Zn397 1.969 . S
O404 C414 1.258 . S
C405 O402 1.267 . S
C405 O406 1.228 . S
O406 C405 1.228 . S
O407 Zn396 2.024 . S
O407 C398 1.058 . S
C408 O409 1.228 . S
C408 O410 1.267 . S
O409 C408 1.228 . S
O410 Zn397 1.969 . S
O410 C408 1.267 . S
O411 Zn397 1.965 . S
O411 C415 1.260 . S
O412 Zn396 1.969 . S
O412 C415 1.258 . S
O413 Zn397 2.024 . S
O413 C400 1.058 . S
C414 O403 1.260 . S
C414 O404 1.258 . S
C415 O411 1.260 . S
C415 O412 1.258 . S
Zn416 O422 1.969 . S
Zn416 O423 1.965 1_455 S
Zn416 O427 2.024 1_565 S
Zn416 O432 1.969 1_565 S
Zn417 O424 1.969 1_455 S
Zn417 O430 1.969 1_455 S
Zn417 O431 1.965 . S
Zn417 O433 2.024 . S
C418 O419 1.229 1_545 S
C418 O427 1.058 . S
O419 C418 1.229 1_565 S
C420 O421 1.229 . S
C420 O433 1.058 1_655 S
O421 C420 1.229 . S
O422 Zn416 1.969 . S
O422 C425 1.267 . S
O423 Zn416 1.965 1_655 S
O423 C434 1.260 . S
O424 Zn417 1.969 1_655 S
O424 C434 1.258 1_545 S
C425 O422 1.267 . S
C425 O426 1.228 . S
O426 C425 1.228 . S
O427 Zn416 2.024 1_545 S
O427 C418 1.058 . S
C428 O429 1.228 . S
C428 O430 1.267 1_455 S
O429 C428 1.228 . S
O430 Zn417 1.969 1_655 S
O430 C428 1.267 1_655 S
O431 Zn417 1.965 . S
O431 C435 1.260 . S
O432 Zn416 1.969 1_545 S
O432 C435 1.258 . S
O433 Zn417 2.024 . S
O433 C420 1.058 1_455 S
C434 O423 1.260 . S
C434 O424 1.258 1_565 S
C435 O431 1.260 . S
C435 O432 1.258 . S
Zn436 O442 1.969 . S
Zn436 O443 1.965 . S
Zn436 O447 2.024 . S
Zn436 O452 1.969 . S
Zn437 O444 1.969 . S
Zn437 O450 1.969 . S
Zn437 O451 1.965 . S
Zn437 O453 2.024 . S
C438 O439 1.229 . S
C438 O447 1.058 . S
O439 C438 1.229 . S
C440 O441 1.229 . S
C440 O453 1.058 . S
O441 C440 1.229 . S
O442 Zn436 1.969 . S
O442 C445 1.267 . S
O443 Zn436 1.965 . S
O443 C454 1.260 . S
O444 Zn437 1.969 . S
O444 C454 1.258 . S
C445 O442 1.267 . S
C445 O446 1.228 . S
O446 C445 1.228 . S
O447 Zn436 2.024 . S
O447 C438 1.058 . S
C448 O449 1.228 . S
C448 O450 1.267 . S
O449 C448 1.228 . S
O450 Zn437 1.969 . S
O450 C448 1.267 . S
O451 Zn437 1.965 . S
O451 C455 1.260 . S
O452 Zn436 1.969 . S
O452 C455 1.258 . S
O453 Zn437 2.024 . S
O453 C440 1.058 . S
C454 O443 1.260 . S
C454 O444 1.258 . S
C455 O451 1.260 . S
C455 O452 1.258 . S
Zn456 O462 1.969 . S
Zn456 O463 1.965 1_545 S
Zn456 O467 2.024 1_556 S
Zn456 O472 1.969 1_556 S
Zn457 O464 1.969 . S
Zn457 O470 1.969 . S
Zn457 O471 1.965 1_565 S
Zn457 O473 2.024 . S
C458 O459 1.229 . S
C458 O467 1.058 . S
O459 C458 1.229 . S
C460 O461 1.229 . S
C460 O473 1.058 . S
O461 C460 1.229 . S
O462 Zn456 1.969 . S
O462 C465 1.267 . S
O463 Zn456 1.965 1_565 S
O463 C474 1.260 1_556 S
O464 Zn457 1.969 . S
O464 C474 1.258 . S
C465 O462 1.267 . S
C465 O466 1.228 . S
O466 C465 1.228 . S
O467 Zn456 2.024 1_554 S
O467 C458 1.058 . S
C468 O469 1.235 . S
C468 O470 1.262 1_545 S
O469 C468 1.235 . S
O470 Zn457 1.969 . S
O470 C468 1.262 1_565 S
O471 Zn457 1.965 1_545 S
O471 C475 1.260 . S
O472 Zn456 1.969 1_554 S
O472 C475 1.258 . S
O473 Zn457 2.024 . S
O473 C460 1.058 . S
C474 O463 1.260 1_554 S
C474 O464 1.258 . S
C475 O471 1.260 . S
C475 O472 1.258 . S
Zn476 O482 1.969 . S
Zn476 O483 1.965 . S
Zn476 O487 2.024 . S
Zn476 O492 1.969 . S
Zn477 O484 1.969 . S
Zn477 O490 1.969 . S
Zn477 O491 1.965 . S
Zn477 O493 2.024 . S
C478 O479 1.229 . S
C478 O487 1.058 . S
O479 C478 1.229 . S
C480 O481 1.229 . S
C480 O493 1.058 . S
O481 C480 1.229 . S
O482 Zn476 1.969 . S
O482 C485 1.267 . S
O483 Zn476 1.965 . S
O483 C494 1.260 . S
O484 Zn477 1.969 . S
O484 C494 1.258 . S
C485 O482 1.267 . S
C485 O486 1.228 . S
O486 C485 1.228 . S
O487 Zn476 2.024 . S
O487 C478 1.058 . S
C488 O489 1.228 . S
C488 O490 1.267 . S
O489 C488 1.228 . S
O490 Zn477 1.969 . S
O490 C488 1.267 . S
O491 Zn477 1.965 . S
O491 C495 1.260 . S
O492 Zn476 1.969 . S
O492 C495 1.258 . S
O493 Zn477 2.024 . S
O493 C480 1.058 . S
C494 O483 1.260 . S
C494 O484 1.258 . S
C495 O491 1.260 . S
C495 O492 1.258 . S
Zn496 O502 1.969 . S
Zn496 O503 1.965 . S
Zn496 O507 2.024 . S
Zn496 O512 1.969 . S
Zn497 O504 1.969 1_556 S
Zn497 O510 1.969 1_556 S
Zn497 O511 1.965 1_556 S
Zn497 O513 2.024 . S
C498 O499 1.229 . S
C498 O507 1.058 . S
O499 C498 1.229 . S
C500 O501 1.229 . S
C500 O513 1.058 . S
O501 C500 1.229 . S
O502 Zn496 1.969 . S
O502 C505 1.267 . S
O503 Zn496 1.965 . S
O503 C514 1.260 . S
O504 Zn497 1.969 1_554 S
O504 C514 1.258 . S
C505 O502 1.267 . S
C505 O506 1.228 . S
O506 C505 1.228 . S
O507 Zn496 2.024 . S
O507 C498 1.058 . S
C508 O509 1.228 . S
C508 O510 1.267 1_556 S
O509 C508 1.228 . S
O510 Zn497 1.969 1_554 S
O510 C508 1.267 1_554 S
O511 Zn497 1.965 1_554 S
O511 C515 1.260 . S
O512 Zn496 1.969 . S
O512 C515 1.258 . S
O513 Zn497 2.024 . S
O513 C500 1.058 . S
C514 O503 1.260 . S
C514 O504 1.258 . S
C515 O511 1.260 . S
C515 O512 1.258 . S
Zn516 O522 1.969 . S
Zn516 O523 1.965 . S
Zn516 O527 2.024 . S
Zn516 O532 1.969 . S
Zn517 O524 1.969 . S
Zn517 O530 1.969 . S
Zn517 O531 1.965 . S
Zn517 O533 2.024 . S
C518 O519 1.229 . S
C518 O527 1.058 . S
O519 C518 1.229 . S
C520 O521 1.229 . S
C520 O533 1.058 . S
O521 C520 1.229 . S
O522 Zn516 1.969 . S
O522 C525 1.267 . S
O523 Zn516 1.965 . S
O523 C534 1.260 . S
O524 Zn517 1.969 . S
O524 C534 1.258 . S
C525 O522 1.267 . S
C525 O526 1.228 . S
O526 C525 1.228 . S
O527 Zn516 2.024 . S
O527 C518 1.058 . S
C528 O529 1.228 . S
C528 O530 1.267 . S
O529 C528 1.228 . S
O530 Zn517 1.969 . S
O530 C528 1.267 . S
O531 Zn517 1.965 . S
O531 C535 1.260 . S
O532 Zn516 1.969 . S
O532 C535 1.258 . S
O533 Zn517 2.024 . S
O533 C520 1.058 . S
C534 O523 1.260 . S
C534 O524 1.258 . S
C535 O531 1.260 . S
C535 O532 1.258 . S
Zn536 O542 1.969 . S
Zn536 O543 1.965 . S
Zn536 O547 2.024 . S
Zn536 O552 1.969 . S
Zn537 O544 1.952 1_655 S
Zn537 O550 1.969 . S
Zn537 O551 1.965 1_655 S
Zn537 O553 2.024 . S
C538 O539 1.229 . S
C538 O547 1.058 . S
O539 C538 1.229 . S
C540 O541 1.229 . S
C540 O553 1.058 . S
O541 C540 1.229 . S
O542 Zn536 1.969 . S
O542 C545 1.267 . S
O543 Zn536 1.965 . S
O543 C554 1.260 . S
O544 Zn537 1.952 1_455 S
O544 C554 1.279 . S
C545 O542 1.267 . S
C545 O546 1.228 . S
O546 C545 1.228 . S
O547 Zn536 2.024 . S
O547 C538 1.058 . S
C548 O549 1.228 . S
C548 O550 1.267 . S
O549 C548 1.228 . S
O550 Zn537 1.969 . S
O550 C548 1.267 . S
O551 Zn537 1.965 1_455 S
O551 C555 1.260 . S
O552 Zn536 1.969 . S
O552 C555 1.258 . S
O553 Zn537 2.024 . S
O553 C540 1.058 . S
C554 O543 1.260 . S
C554 O544 1.279 . S
C555 O551 1.260 . S
C555 O552 1.258 . S
Zn556 O562 1.969 . S
Zn556 O563 1.965 . S
Zn556 O567 2.024 . S
Zn556 O572 1.969 . S
Zn557 O564 1.969 . S
Zn557 O570 1.969 . S
Zn557 O571 1.965 . S
Zn557 O573 2.024 . S
C558 O559 1.229 . S
C558 O567 1.058 . S
O559 C558 1.229 . S
C560 O561 1.229 . S
C560 O573 1.058 . S
O561 C560 1.229 . S
O562 Zn556 1.969 . S
O562 C565 1.267 . S
O563 Zn556 1.965 . S
O563 C574 1.260 . S
O564 Zn557 1.969 . S
O564 C574 1.258 . S
C565 O562 1.267 . S
C565 O566 1.228 . S
O566 C565 1.228 . S
O567 Zn556 2.024 . S
O567 C558 1.058 . S
C568 O569 1.228 . S
C568 O570 1.267 . S
O569 C568 1.228 . S
O570 Zn557 1.969 . S
O570 C568 1.267 . S
O571 Zn557 1.965 . S
O571 C575 1.260 . S
O572 Zn556 1.969 . S
O572 C575 1.258 . S
O573 Zn557 2.024 . S
O573 C560 1.058 . S
C574 O563 1.260 . S
C574 O564 1.258 . S
C575 O571 1.260 . S
C575 O572 1.258 . S
Zn576 O582 1.969 . S
Zn576 O583 1.965 . S
Zn576 O587 2.024 . S
Zn576 O592 1.969 . S
Zn577 O584 1.969 . S
Zn577 O590 1.969 . S
Zn577 O591 1.965 . S
Zn577 O593 2.024 . S
C578 O579 1.229 . S
C578 O587 1.058 . S
O579 C578 1.229 . S
C580 O581 1.229 . S
C580 O593 1.058 . S
O581 C580 1.229 . S
O582 Zn576 1.969 . S
O582 C585 1.267 . S
O583 Zn576 1.965 . S
O583 C594 1.260 . S
O584 Zn577 1.969 . S
O584 C594 1.258 . S
C585 O582 1.267 . S
C585 O586 1.228 . S
O586 C585 1.228 . S
O587 Zn576 2.024 . S
O587 C578 1.058 . S
C588 O589 1.228 . S
C588 O590 1.267 . S
O589 C588 1.228 . S
O590 Zn577 1.969 . S
O590 C588 1.267 . S
O591 Zn577 1.965 . S
O591 C595 1.260 . S
O592 Zn576 1.969 . S
O592 C595 1.258 . S
O593 Zn577 2.024 . S
O593 C580 1.058 . S
C594 O583 1.260 . S
C594 O584 1.258 . S
C595 O591 1.260 . S
C595 O592 1.258 . S
Zn596 O602 1.969 . S
Zn596 O603 1.965 . S
Zn596 O607 2.024 . S
Zn596 O612 1.969 . S
Zn597 O604 1.969 . S
Zn597 O610 1.969 . S
Zn597 O611 1.965 . S
Zn597 O613 2.024 . S
C598 O599 1.229 . S
C598 O607 1.058 . S
O599 C598 1.229 . S
C600 O601 1.229 . S
C600 O613 1.058 . S
O601 C600 1.229 . S
O602 Zn596 1.969 . S
O602 C605 1.267 . S
O603 Zn596 1.965 . S
O603 C614 1.260 . S
O604 Zn597 1.969 . S
O604 C614 1.258 . S
C605 O602 1.267 . S
C605 O606 1.228 . S
O606 C605 1.228 . S
O607 Zn596 2.024 . S
O607 C598 1.058 . S
C608 O609 1.228 . S
C608 O610 1.267 . S
O609 C608 1.228 . S
O610 Zn597 1.969 . S
O610 C608 1.267 . S
O611 Zn597 1.965 . S
O611 C615 1.260 . S
O612 Zn596 1.969 . S
O612 C615 1.258 . S
O613 Zn597 2.024 . S
O613 C600 1.058 . S
C614 O603 1.260 . S
C614 O604 1.258 . S
C615 O611 1.260 . S
C615 O612 1.258 . S
Zn616 O622 1.969 . S
Zn616 O623 1.965 . S
Zn616 O627 2.024 . S
Zn616 O632 1.969 . S
Zn617 O624 1.969 . S
Zn617 O630 1.969 . S
Zn617 O631 1.965 . S
Zn617 O633 2.024 . S
C618 O619 1.229 . S
C618 O627 1.058 . S
O619 C618 1.229 . S
C620 O621 1.229 . S
C620 O633 1.058 . S
O621 C620 1.229 . S
O622 Zn616 1.969 . S
O622 C625 1.267 . S
O623 Zn616 1.965 . S
O623 C634 1.260 . S
O624 Zn617 1.969 . S
O624 C634 1.258 . S
C625 O622 1.267 . S
C625 O626 1.228 . S
O626 C625 1.228 . S
O627 Zn616 2.024 . S
O627 C618 1.058 . S
C628 O629 1.228 . S
C628 O630 1.267 . S
O629 C628 1.228 . S
O630 Zn617 1.969 . S
O630 C628 1.267 . S
O631 Zn617 1.965 . S
O631 C635 1.260 . S
O632 Zn616 1.969 . S
O632 C635 1.258 . S
O633 Zn617 2.024 . S
O633 C620 1.058 . S
C634 O623 1.260 . S
C634 O624 1.258 . S
C635 O631 1.260 . S
C635 O632 1.258 . S
Zn636 O642 1.969 . S
Zn636 O643 1.965 . S
Zn636 O647 2.024 1_655 S
Zn636 O652 1.969 1_655 S
Zn637 O644 1.969 1_554 S
Zn637 O650 1.969 . S
Zn637 O651 1.965 . S
Zn637 O653 2.024 . S
C638 O639 1.233 . S
C638 O647 1.058 . S
O639 C638 1.233 . S
C640 O641 1.229 . S
C640 O653 1.058 1_556 S
O641 C640 1.229 . S
O642 Zn636 1.969 . S
O642 C645 1.267 . S
O643 Zn636 1.965 . S
O643 C654 1.260 1_654 S
O644 Zn637 1.969 1_556 S
O644 C654 1.258 . S
C645 O642 1.267 . S
C645 O646 1.228 . S
O646 C645 1.228 . S
O647 Zn636 2.024 1_455 S
O647 C638 1.058 . S
C648 O649 1.228 . S
C648 O650 1.267 . S
O649 C648 1.228 . S
O650 Zn637 1.969 . S
O650 C648 1.267 . S
O651 Zn637 1.965 . S
O651 C655 1.260 . S
O652 Zn636 1.969 1_455 S
O652 C655 1.258 . S
O653 Zn637 2.024 . S
O653 C640 1.058 1_554 S
C654 O643 1.260 1_456 S
C654 O644 1.258 . S
C655 O651 1.260 . S
C655 O652 1.258 . S
C656 C657 1.369 . S
C656 C658 1.419 1_556 S
C656 H660 0.930 . S
C657 C656 1.369 . S
C657 C666 1.429 1_455 S
C658 C656 1.419 1_554 S
C658 C659 1.363 1_554 S
C658 H661 0.929 . S
C659 C658 1.363 1_556 S
C659 C665 1.410 1_455 S
H660 C656 0.930 . S
H661 C658 0.929 . S
S662 N663 1.613 . S
S662 N664 1.610 . S
N663 S662 1.613 . S
N663 C666 1.350 . S
N664 S662 1.610 . S
N664 C665 1.362 . S
C665 C659 1.410 1_655 S
C665 N664 1.362 . S
C665 C666 1.446 . S
C666 C657 1.429 1_655 S
C666 N663 1.350 . S
C666 C665 1.446 . S
C667 C668 1.369 . S
C667 C669 1.419 . S
C667 H671 0.930 . S
C668 C667 1.369 . S
C668 C677 1.429 . S
C669 C667 1.419 . S
C669 C670 1.363 . S
C669 H672 0.929 . S
C670 C669 1.363 . S
C670 C676 1.428 . S
H671 C667 0.930 . S
H672 C669 0.929 . S
S673 N674 1.613 . S
S673 N675 1.610 . S
N674 S673 1.613 . S
N674 C677 1.350 . S
N675 S673 1.610 . S
N675 C676 1.351 . S
C676 C670 1.428 . S
C676 N675 1.351 . S
C676 C677 1.434 . S
C677 C668 1.429 . S
C677 N674 1.350 . S
C677 C676 1.434 . S
C678 C679 1.369 . S
C678 C680 1.419 . S
C678 H682 0.930 . S
C679 C678 1.369 . S
C679 C688 1.429 . S
C680 C678 1.419 . S
C680 C681 1.363 . S
C680 H683 0.929 . S
C681 C680 1.363 . S
C681 C687 1.428 . S
H682 C678 0.930 . S
H683 C680 0.929 . S
S684 N685 1.613 . S
S684 N686 1.610 . S
N685 S684 1.613 . S
N685 C688 1.350 . S
N686 S684 1.610 . S
N686 C687 1.351 . S
C687 C681 1.428 . S
C687 N686 1.351 . S
C687 C688 1.434 . S
C688 C679 1.429 . S
C688 N685 1.350 . S
C688 C687 1.434 . S
C689 C690 1.369 . S
C689 C691 1.419 . S
C689 H693 0.930 . S
C690 C689 1.369 . S
C690 C699 1.429 . S
C691 C689 1.419 . S
C691 C692 1.363 . S
C691 H694 0.929 . S
C692 C691 1.363 . S
C692 C698 1.428 . S
H693 C689 0.930 . S
H694 C691 0.929 . S
S695 N696 1.613 . S
S695 N697 1.610 . S
N696 S695 1.613 . S
N696 C699 1.350 . S
N697 S695 1.610 . S
N697 C698 1.351 . S
C698 C692 1.428 . S
C698 N697 1.351 . S
C698 C699 1.434 . S
C699 C690 1.429 . S
C699 N696 1.350 . S
C699 C698 1.434 . S
C700 C701 1.369 . S
C700 C702 1.419 . S
C700 H704 0.930 . S
C701 C700 1.369 . S
C701 C710 1.429 . S
C702 C700 1.419 . S
C702 C703 1.363 . S
C702 H705 0.929 . S
C703 C702 1.363 . S
C703 C709 1.428 . S
H704 C700 0.930 . S
H705 C702 0.929 . S
S706 N707 1.613 . S
S706 N708 1.610 . S
N707 S706 1.613 . S
N707 C710 1.350 . S
N708 S706 1.610 . S
N708 C709 1.351 . S
C709 C703 1.428 . S
C709 N708 1.351 . S
C709 C710 1.434 . S
C710 C701 1.429 . S
C710 N707 1.350 . S
C710 C709 1.434 . S
C711 C712 1.369 . S
C711 C713 1.419 . S
C711 H715 0.930 . S
C712 C711 1.369 . S
C712 C721 1.429 . S
C713 C711 1.419 . S
C713 C714 1.363 . S
C713 H716 0.929 . S
C714 C713 1.363 . S
C714 C720 1.428 . S
H715 C711 0.930 . S
H716 C713 0.929 . S
S717 N718 1.613 . S
S717 N719 1.610 . S
N718 S717 1.613 . S
N718 C721 1.350 . S
N719 S717 1.610 . S
N719 C720 1.351 . S
C720 C714 1.428 . S
C720 N719 1.351 . S
C720 C721 1.434 . S
C721 C712 1.429 . S
C721 N718 1.350 . S
C721 C720 1.434 . S
C722 C723 1.369 . S
C722 C724 1.419 . S
C722 H726 0.930 . S
C723 C722 1.369 . S
C723 C732 1.429 . S
C724 C722 1.419 . S
C724 C725 1.363 . S
C724 H727 0.929 . S
C725 C724 1.363 . S
C725 C731 1.428 . S
H726 C722 0.930 . S
H727 C724 0.929 . S
S728 N729 1.613 . S
S728 N730 1.610 . S
N729 S728 1.613 . S
N729 C732 1.350 . S
N730 S728 1.610 . S
N730 C731 1.351 . S
C731 C725 1.428 . S
C731 N730 1.351 . S
C731 C732 1.434 . S
C732 C723 1.429 . S
C732 N729 1.350 . S
C732 C731 1.434 . S
C733 C734 1.369 . S
C733 C735 1.419 . S
C733 H737 0.930 . S
C734 C733 1.369 . S
C734 C743 1.429 . S
C735 C733 1.419 . S
C735 C736 1.363 . S
C735 H738 0.929 . S
C736 C735 1.363 . S
C736 C742 1.428 . S
H737 C733 0.930 . S
H738 C735 0.929 . S
S739 N740 1.613 . S
S739 N741 1.610 . S
N740 S739 1.613 . S
N740 C743 1.350 . S
N741 S739 1.610 . S
N741 C742 1.351 . S
C742 C736 1.428 . S
C742 N741 1.351 . S
C742 C743 1.434 . S
C743 C734 1.429 . S
C743 N740 1.350 . S
C743 C742 1.434 . S
C744 C745 1.369 . S
C744 C746 1.419 . S
C744 H748 0.930 . S
C745 C744 1.369 . S
C745 C754 1.429 . S
C746 C744 1.419 . S
C746 C747 1.363 . S
C746 H749 0.929 1_655 S
C747 C746 1.363 . S
C747 C753 1.428 . S
H748 C744 0.930 . S
H749 C746 0.929 1_455 S
S750 N751 1.613 . S
S750 N752 1.610 1_565 S
N751 S750 1.613 . S
N751 C754 1.350 1_565 S
N752 S750 1.610 1_545 S
N752 C753 1.351 . S
C753 C747 1.428 . S
C753 N752 1.351 . S
C753 C754 1.434 . S
C754 C745 1.429 . S
C754 N751 1.350 1_545 S
C754 C753 1.434 . S
C755 C756 1.369 . S
C755 C757 1.419 . S
C755 H759 0.930 . S
C756 C755 1.369 . S
C756 C765 1.429 . S
C757 C755 1.419 . S
C757 C758 1.363 . S
C757 H760 0.929 . S
C758 C757 1.363 . S
C758 C764 1.428 . S
H759 C755 0.930 . S
H760 C757 0.929 . S
S761 N762 1.613 . S
S761 N763 1.610 . S
N762 S761 1.613 . S
N762 C765 1.350 . S
N763 S761 1.610 . S
N763 C764 1.351 . S
C764 C758 1.428 . S
C764 N763 1.351 . S
C764 C765 1.434 . S
C765 C756 1.429 . S
C765 N762 1.350 . S
C765 C764 1.434 . S
C766 C767 1.369 . S
C766 C768 1.419 . S
C766 H770 0.930 . S
C767 C766 1.369 . S
C767 C776 1.429 1_565 S
C768 C766 1.419 . S
C768 C769 1.367 . S
C768 H771 0.929 . S
C769 C768 1.367 . S
C769 C775 1.430 1_565 S
H770 C766 0.930 . S
H771 C768 0.929 . S
S772 N773 1.613 . S
S772 N774 1.610 . S
N773 S772 1.613 . S
N773 C776 1.350 . S
N774 S772 1.610 . S
N774 C775 1.351 . S
C775 C769 1.430 1_545 S
C775 N774 1.351 . S
C775 C776 1.434 . S
C776 C767 1.429 1_545 S
C776 N773 1.350 . S
C776 C775 1.434 . S
C777 C778 1.369 . S
C777 C779 1.419 . S
C777 H781 0.930 . S
C778 C777 1.369 . S
C778 C787 1.429 . S
C779 C777 1.419 . S
C779 C780 1.363 . S
C779 H782 0.929 . S
C780 C779 1.363 . S
C780 C786 1.428 . S
H781 C777 0.930 . S
H782 C779 0.929 . S
S783 N784 1.613 . S
S783 N785 1.610 . S
N784 S783 1.613 . S
N784 C787 1.350 . S
N785 S783 1.610 . S
N785 C786 1.351 . S
C786 C780 1.428 . S
C786 N785 1.351 . S
C786 C787 1.434 . S
C787 C778 1.429 . S
C787 N784 1.350 . S
C787 C786 1.434 . S
C788 C789 1.369 . S
C788 C790 1.419 . S
C788 H792 0.930 . S
C789 C788 1.369 . S
C789 C798 1.429 . S
C790 C788 1.419 . S
C790 C791 1.363 . S
C790 H793 0.929 . S
C791 C790 1.363 . S
C791 C797 1.428 . S
H792 C788 0.930 . S
H793 C790 0.929 . S
S794 N795 1.621 1_455 S
S794 N796 1.610 . S
N795 S794 1.621 1_655 S
N795 C798 1.350 . S
N796 S794 1.610 . S
N796 C797 1.351 1_455 S
C797 C791 1.428 . S
C797 N796 1.351 1_655 S
C797 C798 1.434 . S
C798 C789 1.429 . S
C798 N795 1.350 . S
C798 C797 1.434 . S
C799 C800 1.369 . S
C799 C801 1.419 . S
C799 H803 0.930 . S
C800 C799 1.369 . S
C800 C809 1.429 . S
C801 C799 1.419 . S
C801 C802 1.363 . S
C801 H804 0.929 . S
C802 C801 1.363 . S
C802 C808 1.428 . S
H803 C799 0.930 . S
H804 C801 0.929 . S
S805 N806 1.613 . S
S805 N807 1.610 . S
N806 S805 1.613 . S
N806 C809 1.350 . S
N807 S805 1.610 . S
N807 C808 1.351 . S
C808 C802 1.428 . S
C808 N807 1.351 . S
C808 C809 1.434 . S
C809 C800 1.429 . S
C809 N806 1.350 . S
C809 C808 1.434 . S
C810 C811 1.369 1_565 S
C810 C812 1.431 . S
C810 H814 0.930 . S
C811 C810 1.369 1_545 S
C811 C820 1.429 . S
C812 C810 1.431 . S
C812 C813 1.329 1_565 S
C812 H815 0.953 . S
C813 C812 1.329 1_545 S
C813 C819 1.428 . S
H814 C810 0.930 . S
H815 C812 0.953 . S
S816 N817 1.613 . S
S816 N818 1.610 . S
N817 S816 1.613 . S
N817 C820 1.350 . S
N818 S816 1.610 . S
N818 C819 1.351 . S
C819 C813 1.428 . S
C819 N818 1.351 . S
C819 C820 1.434 . S
C820 C811 1.429 . S
C820 N817 1.350 . S
C820 C819 1.434 . S
C821 C822 1.369 . S
C821 C823 1.419 . S
C821 H825 0.930 . S
C822 C821 1.369 . S
C822 C831 1.429 . S
C823 C821 1.419 . S
C823 C824 1.363 . S
C823 H826 0.929 . S
C824 C823 1.363 . S
C824 C830 1.428 . S
H825 C821 0.930 . S
H826 C823 0.929 . S
S827 N828 1.613 . S
S827 N829 1.610 . S
N828 S827 1.613 . S
N828 C831 1.350 . S
N829 S827 1.610 . S
N829 C830 1.351 . S
C830 C824 1.428 . S
C830 N829 1.351 . S
C830 C831 1.434 . S
C831 C822 1.429 . S
C831 N828 1.350 . S
C831 C830 1.434 . S
C832 C833 1.369 . S
C832 C834 1.419 . S
C832 H836 0.930 . S
C833 C832 1.369 . S
C833 C842 1.429 . S
C834 C832 1.419 . S
C834 C835 1.363 . S
C834 H837 0.929 . S
C835 C834 1.363 . S
C835 C841 1.428 . S
H836 C832 0.930 . S
H837 C834 0.929 . S
S838 N839 1.613 . S
S838 N840 1.610 1_556 S
N839 S838 1.613 . S
N839 C842 1.350 1_556 S
N840 S838 1.610 1_554 S
N840 C841 1.351 . S
C841 C835 1.428 . S
C841 N840 1.351 . S
C841 C842 1.434 . S
C842 C833 1.429 . S
C842 N839 1.350 1_554 S
C842 C841 1.434 . S
C843 C844 1.369 1_554 S
C843 C845 1.419 . S
C843 H847 0.930 . S
C844 C843 1.369 1_556 S
C844 C853 1.429 . S
C845 C843 1.419 . S
C845 C846 1.363 . S
C845 H848 0.929 . S
C846 C845 1.363 . S
C846 C852 1.428 1_554 S
H847 C843 0.930 . S
H848 C845 0.929 . S
S849 N850 1.613 . S
S849 N851 1.610 . S
N850 S849 1.613 . S
N850 C853 1.350 . S
N851 S849 1.610 . S
N851 C852 1.351 . S
C852 C846 1.428 1_556 S
C852 N851 1.351 . S
C852 C853 1.434 . S
C853 C844 1.429 . S
C853 N850 1.350 . S
C853 C852 1.434 . S
C854 C855 1.369 . S
C854 C856 1.419 . S
C854 H858 0.930 . S
C855 C854 1.369 . S
C855 C864 1.429 . S
C856 C854 1.419 . S
C856 C857 1.363 . S
C856 H859 0.929 . S
C857 C856 1.363 . S
C857 C863 1.428 . S
H858 C854 0.930 . S
H859 C856 0.929 . S
S860 N861 1.613 . S
S860 N862 1.610 . S
N861 S860 1.613 . S
N861 C864 1.350 . S
N862 S860 1.610 . S
N862 C863 1.351 . S
C863 C857 1.428 . S
C863 N862 1.351 . S
C863 C864 1.434 . S
C864 C855 1.429 . S
C864 N861 1.350 . S
C864 C863 1.434 . S
C865 C866 1.369 . S
C865 C867 1.419 . S
C865 H869 0.930 . S
C866 C865 1.369 . S
C866 C875 1.429 . S
C867 C865 1.419 . S
C867 C868 1.363 . S
C867 H870 0.929 . S
C868 C867 1.363 . S
C868 C874 1.428 . S
H869 C865 0.930 . S
H870 C867 0.929 . S
S871 N872 1.613 . S
S871 N873 1.610 . S
N872 S871 1.613 . S
N872 C875 1.350 . S
N873 S871 1.610 . S
N873 C874 1.351 . S
C874 C868 1.428 . S
C874 N873 1.351 . S
C874 C875 1.434 . S
C875 C866 1.429 . S
C875 N872 1.350 . S
C875 C874 1.434 . S
C876 C877 1.369 . S
C876 C878 1.419 . S
C876 H880 0.930 . S
C877 C876 1.369 . S
C877 C886 1.429 . S
C878 C876 1.419 . S
C878 C879 1.363 . S
C878 H881 0.929 . S
C879 C878 1.363 . S
C879 C885 1.428 . S
H880 C876 0.930 . S
H881 C878 0.929 . S
S882 N883 1.613 . S
S882 N884 1.610 . S
N883 S882 1.613 . S
N883 C886 1.350 . S
N884 S882 1.610 . S
N884 C885 1.351 . S
C885 C879 1.428 . S
C885 N884 1.351 . S
C885 C886 1.434 . S
C886 C877 1.429 . S
C886 N883 1.350 . S
C886 C885 1.434 . S
C887 C888 1.369 . S
C887 C889 1.419 . S
C887 H891 0.930 . S
C888 C887 1.369 . S
C888 C897 1.429 . S
C889 C887 1.419 . S
C889 C890 1.363 . S
C889 H892 0.929 . S
C890 C889 1.363 . S
C890 C896 1.428 . S
H891 C887 0.930 . S
H892 C889 0.929 . S
S893 N894 1.613 . S
S893 N895 1.610 . S
N894 S893 1.613 . S
N894 C897 1.350 . S
N895 S893 1.610 . S
N895 C896 1.351 . S
C896 C890 1.428 . S
C896 N895 1.351 . S
C896 C897 1.434 . S
C897 C888 1.429 . S
C897 N894 1.350 . S
C897 C896 1.434 . S
C898 C899 1.369 . S
C898 C900 1.419 . S
C898 H902 0.930 . S
C899 C898 1.369 . S
C899 C908 1.429 . S
C900 C898 1.419 . S
C900 C901 1.363 . S
C900 H903 0.929 . S
C901 C900 1.363 . S
C901 C907 1.428 . S
H902 C898 0.930 . S
H903 C900 0.929 . S
S904 N905 1.613 . S
S904 N906 1.610 . S
N905 S904 1.613 . S
N905 C908 1.350 . S
N906 S904 1.610 . S
N906 C907 1.351 . S
C907 C901 1.428 . S
C907 N906 1.351 . S
C907 C908 1.434 . S
C908 C899 1.429 . S
C908 N905 1.350 . S
C908 C907 1.434 . S
C909 C910 1.369 . S
C909 C911 1.419 . S
C909 H913 0.930 . S
C910 C909 1.369 . S
C910 C919 1.429 . S
C911 C909 1.419 . S
C911 C912 1.363 . S
C911 H914 0.929 . S
C912 C911 1.363 . S
C912 C918 1.428 . S
H913 C909 0.930 . S
H914 C911 0.929 . S
S915 N916 1.613 . S
S915 N917 1.610 . S
N916 S915 1.613 . S
N916 C919 1.350 . S
N917 S915 1.610 . S
N917 C918 1.351 . S
C918 C912 1.428 . S
C918 N917 1.351 . S
C918 C919 1.434 . S
C919 C910 1.429 . S
C919 N916 1.350 . S
C919 C918 1.434 . S
C920 C921 1.369 . S
C920 C922 1.419 . S
C920 H924 0.930 1_455 S
C921 C920 1.369 . S
C921 C930 1.429 . S
C922 C920 1.419 . S
C922 C923 1.363 . S
C922 H925 0.929 1_455 S
C923 C922 1.363 . S
C923 C929 1.428 . S
H924 C920 0.930 1_655 S
H925 C922 0.929 1_655 S
S926 N927 1.613 . S
S926 N928 1.610 . S
N927 S926 1.613 . S
N927 C930 1.350 . S
N928 S926 1.610 . S
N928 C929 1.351 . S
C929 C923 1.428 . S
C929 N928 1.351 . S
C929 C930 1.434 . S
C930 C921 1.429 . S
C930 N927 1.350 . S
C930 C929 1.434 . S
C931 C932 1.369 . S
C931 C933 1.419 . S
C931 H935 0.930 . S
C932 C931 1.369 . S
C932 C941 1.429 . S
C933 C931 1.419 . S
C933 C934 1.363 . S
C933 H936 0.929 . S
C934 C933 1.363 . S
C934 C940 1.428 . S
H935 C931 0.930 . S
H936 C933 0.929 . S
S937 N938 1.613 . S
S937 N939 1.610 . S
N938 S937 1.613 . S
N938 C941 1.350 . S
N939 S937 1.610 . S
N939 C940 1.351 . S
C940 C934 1.428 . S
C940 N939 1.351 . S
C940 C941 1.434 . S
C941 C932 1.429 . S
C941 N938 1.350 . S
C941 C940 1.434 . S
C942 C943 1.369 . S
C942 C944 1.419 . S
C942 H946 0.930 . S
C943 C942 1.369 . S
C943 C952 1.429 . S
C944 C942 1.419 . S
C944 C945 1.363 . S
C944 H947 0.929 . S
C945 C944 1.363 . S
C945 C951 1.428 . S
H946 C942 0.930 . S
H947 C944 0.929 . S
S948 N949 1.613 . S
S948 N950 1.610 . S
N949 S948 1.613 . S
N949 C952 1.350 . S
N950 S948 1.610 . S
N950 C951 1.351 . S
C951 C945 1.428 . S
C951 N950 1.351 . S
C951 C952 1.434 . S
C952 C943 1.429 . S
C952 N949 1.350 . S
C952 C951 1.434 . S
C953 C954 1.369 . S
C953 C955 1.419 . S
C953 H957 0.930 . S
C954 C953 1.369 . S
C954 C963 1.429 . S
C955 C953 1.419 . S
C955 C956 1.363 . S
C955 H958 0.929 . S
C956 C955 1.363 . S
C956 C962 1.428 . S
H957 C953 0.930 . S
H958 C955 0.929 . S
S959 N960 1.613 . S
S959 N961 1.610 . S
N960 S959 1.613 . S
N960 C963 1.350 . S
N961 S959 1.610 . S
N961 C962 1.351 . S
C962 C956 1.428 . S
C962 N961 1.351 . S
C962 C963 1.434 . S
C963 C954 1.429 . S
C963 N960 1.350 . S
C963 C962 1.434 . S
C964 C965 1.369 . S
C964 C966 1.419 . S
C964 H968 0.930 . S
C965 C964 1.369 . S
C965 C974 1.429 . S
C966 C964 1.419 . S
C966 C967 1.363 . S
C966 H969 0.929 . S
C967 C966 1.363 . S
C967 C973 1.428 . S
H968 C964 0.930 . S
H969 C966 0.929 . S
S970 N971 1.613 1_655 S
S970 N972 1.610 . S
N971 S970 1.613 1_455 S
N971 C974 1.350 . S
N972 S970 1.610 . S
N972 C973 1.351 1_655 S
C973 C967 1.428 . S
C973 N972 1.351 1_455 S
C973 C974 1.434 . S
C974 C965 1.429 . S
C974 N971 1.350 . S
C974 C973 1.434 . S
C975 C976 1.369 . S
C975 C977 1.419 . S
C975 H979 0.930 . S
C976 C975 1.369 . S
C976 C985 1.429 . S
C977 C975 1.419 . S
C977 C978 1.363 . S
C977 H980 0.929 . S
C978 C977 1.363 . S
C978 C984 1.428 . S
H979 C975 0.930 . S
H980 C977 0.929 . S
S981 N982 1.613 . S
S981 N983 1.610 . S
N982 S981 1.613 . S
N982 C985 1.350 . S
N983 S981 1.610 . S
N983 C984 1.351 . S
C984 C978 1.428 . S
C984 N983 1.351 . S
C984 C985 1.434 . S
C985 C976 1.429 . S
C985 N982 1.350 . S
C985 C984 1.434 . S
C986 C987 1.369 . S
C986 C988 1.419 1_556 S
C986 H990 0.930 . S
C987 C986 1.369 . S
C987 C996 1.429 . S
C988 C986 1.419 1_554 S
C988 C989 1.363 1_554 S
C988 H991 0.929 . S
C989 C988 1.363 1_556 S
C989 C995 1.428 . S
H990 C986 0.930 . S
H991 C988 0.929 . S
S992 N993 1.613 . S
S992 N994 1.610 . S
N993 S992 1.613 . S
N993 C996 1.350 . S
N994 S992 1.610 . S
N994 C995 1.351 . S
C995 C989 1.428 . S
C995 N994 1.351 . S
C995 C996 1.434 . S
C996 C987 1.429 . S
C996 N993 1.350 . S
C996 C995 1.434 . S
C997 C998 1.369 . S
C997 C999 1.419 . S
C997 H1001 0.930 . S
C998 C997 1.369 . S
C998 C1007 1.429 . S
C999 C997 1.419 . S
C999 C1000 1.363 . S
C999 H1002 0.929 . S
C1000 C999 1.363 . S
C1000 C1006 1.428 . S
H1001 C997 0.930 . S
H1002 C999 0.929 . S
S1003 N1004 1.613 . S
S1003 N1005 1.610 . S
N1004 S1003 1.613 . S
N1004 C1007 1.350 . S
N1005 S1003 1.610 . S
N1005 C1006 1.351 . S
C1006 C1000 1.428 . S
C1006 N1005 1.351 . S
C1006 C1007 1.434 . S
C1007 C998 1.429 . S
C1007 N1004 1.350 . S
C1007 C1006 1.434 . S
C1008 C1009 1.369 1_565 S
C1008 C1010 1.419 . S
C1008 H1012 0.930 . S
C1009 C1008 1.369 1_545 S
C1009 C1018 1.429 . S
C1010 C1008 1.419 . S
C1010 C1011 1.363 1_565 S
C1010 H1013 0.929 . S
C1011 C1010 1.363 1_545 S
C1011 C1017 1.428 . S
H1012 C1008 0.930 . S
H1013 C1010 0.929 . S
S1014 N1015 1.613 . S
S1014 N1016 1.610 . S
N1015 S1014 1.613 . S
N1015 C1018 1.350 . S
N1016 S1014 1.610 . S
N1016 C1017 1.351 . S
C1017 C1011 1.428 . S
C1017 N1016 1.351 . S
C1017 C1018 1.434 . S
C1018 C1009 1.429 . S
C1018 N1015 1.350 . S
C1018 C1017 1.434 . S
C1019 C1020 1.369 . S
C1019 C1021 1.419 . S
C1019 H1023 0.930 . S
C1020 C1019 1.369 . S
C1020 C1029 1.429 . S
C1021 C1019 1.419 . S
C1021 C1022 1.363 . S
C1021 H1024 0.929 . S
C1022 C1021 1.363 . S
C1022 C1028 1.428 . S
H1023 C1019 0.930 . S
H1024 C1021 0.929 . S
S1025 N1026 1.613 . S
S1025 N1027 1.610 . S
N1026 S1025 1.613 . S
N1026 C1029 1.350 . S
N1027 S1025 1.610 . S
N1027 C1028 1.351 . S
C1028 C1022 1.428 . S
C1028 N1027 1.351 . S
C1028 C1029 1.434 . S
C1029 C1020 1.429 . S
C1029 N1026 1.350 . S
C1029 C1028 1.434 . S
C1030 C1031 1.369 . S
C1030 C1032 1.419 . S
C1030 H1034 0.930 . S
C1031 C1030 1.369 . S
C1031 C1040 1.429 . S
C1032 C1030 1.419 . S
C1032 C1033 1.363 . S
C1032 H1035 0.921 1_545 S
C1033 C1032 1.363 . S
C1033 C1039 1.428 . S
H1034 C1030 0.930 . S
H1035 C1032 0.921 1_565 S
S1036 N1037 1.613 . S
S1036 N1038 1.610 . S
N1037 S1036 1.613 . S
N1037 C1040 1.350 . S
N1038 S1036 1.610 . S
N1038 C1039 1.351 . S
C1039 C1033 1.428 . S
C1039 N1038 1.351 . S
C1039 C1040 1.434 . S
C1040 C1031 1.429 . S
C1040 N1037 1.350 . S
C1040 C1039 1.434 . S
C1041 C1042 1.369 . S
C1041 C1043 1.419 . S
C1041 H1045 0.930 . S
C1042 C1041 1.369 . S
C1042 C1051 1.429 . S
C1043 C1041 1.419 . S
C1043 C1044 1.363 . S
C1043 H1046 0.929 . S
C1044 C1043 1.363 . S
C1044 C1050 1.428 . S
H1045 C1041 0.930 . S
H1046 C1043 0.929 . S
S1047 N1048 1.613 . S
S1047 N1049 1.610 . S
N1048 S1047 1.613 . S
N1048 C1051 1.350 . S
N1049 S1047 1.610 . S
N1049 C1050 1.351 . S
C1050 C1044 1.428 . S
C1050 N1049 1.351 . S
C1050 C1051 1.434 . S
C1051 C1042 1.429 . S
C1051 N1048 1.350 . S
C1051 C1050 1.434 . S
C1052 C1053 1.369 1_565 S
C1052 C1054 1.419 . S
C1052 H1056 0.930 . S
C1053 C1052 1.369 1_545 S
C1053 C1062 1.429 . S
C1054 C1052 1.419 . S
C1054 C1055 1.363 1_565 S
C1054 H1057 0.929 . S
C1055 C1054 1.363 1_545 S
C1055 C1061 1.428 . S
H1056 C1052 0.930 . S
H1057 C1054 0.929 . S
S1058 N1059 1.613 . S
S1058 N1060 1.610 . S
N1059 S1058 1.613 . S
N1059 C1062 1.350 . S
N1060 S1058 1.610 . S
N1060 C1061 1.351 . S
C1061 C1055 1.428 . S
C1061 N1060 1.351 . S
C1061 C1062 1.434 . S
C1062 C1053 1.429 . S
C1062 N1059 1.350 . S
C1062 C1061 1.434 . S
C1063 C1064 1.369 . S
C1063 C1065 1.419 . S
C1063 H1067 0.930 . S
C1064 C1063 1.369 . S
C1064 C1073 1.429 . S
C1065 C1063 1.419 . S
C1065 C1066 1.363 . S
C1065 H1068 0.929 . S
C1066 C1065 1.363 . S
C1066 C1072 1.428 . S
H1067 C1063 0.930 . S
H1068 C1065 0.929 . S
S1069 N1070 1.613 . S
S1069 N1071 1.610 . S
N1070 S1069 1.613 . S
N1070 C1073 1.350 . S
N1071 S1069 1.610 . S
N1071 C1072 1.351 . S
C1072 C1066 1.428 . S
C1072 N1071 1.351 . S
C1072 C1073 1.434 . S
C1073 C1064 1.429 . S
C1073 N1070 1.350 . S
C1073 C1072 1.434 . S
C1074 C1075 1.369 . S
C1074 C1076 1.419 . S
C1074 H1078 0.930 . S
C1075 C1074 1.369 . S
C1075 C1084 1.429 1_545 S
C1076 C1074 1.419 . S
C1076 C1077 1.378 . S
C1076 H1079 0.929 . S
C1077 C1076 1.378 . S
C1077 C1083 1.419 1_545 S
H1078 C1074 0.930 . S
H1079 C1076 0.929 . S
S1080 N1081 1.613 . S
S1080 N1082 1.610 . S
N1081 S1080 1.613 . S
N1081 C1084 1.350 . S
N1082 S1080 1.610 . S
N1082 C1083 1.351 . S
C1083 C1077 1.419 1_565 S
C1083 N1082 1.351 . S
C1083 C1084 1.434 . S
C1084 C1075 1.429 1_565 S
C1084 N1081 1.350 . S
C1084 C1083 1.434 . S
C1085 C1086 1.369 . S
C1085 C1087 1.419 . S
C1085 H1089 0.930 . S
C1086 C1085 1.369 . S
C1086 C1095 1.429 . S
C1087 C1085 1.419 . S
C1087 C1088 1.363 . S
C1087 H1090 0.929 . S
C1088 C1087 1.363 . S
C1088 C1094 1.428 . S
H1089 C1085 0.930 . S
H1090 C1087 0.929 . S
S1091 N1092 1.613 . S
S1091 N1093 1.610 . S
N1092 S1091 1.613 . S
N1092 C1095 1.350 . S
N1093 S1091 1.610 . S
N1093 C1094 1.351 . S
C1094 C1088 1.428 . S
C1094 N1093 1.351 . S
C1094 C1095 1.434 . S
C1095 C1086 1.429 . S
C1095 N1092 1.350 . S
C1095 C1094 1.434 . S
C1096 C1097 1.369 . S
C1096 C1098 1.419 . S
C1096 H1100 0.930 . S
C1097 C1096 1.369 . S
C1097 C1106 1.429 . S
C1098 C1096 1.419 . S
C1098 C1099 1.363 . S
C1098 H1101 0.929 . S
C1099 C1098 1.363 . S
C1099 C1105 1.428 1_554 S
H1100 C1096 0.930 . S
H1101 C1098 0.929 . S
S1102 N1103 1.613 . S
S1102 N1104 1.610 . S
N1103 S1102 1.613 . S
N1103 C1106 1.350 1_556 S
N1104 S1102 1.610 . S
N1104 C1105 1.351 . S
C1105 C1099 1.428 1_556 S
C1105 N1104 1.351 . S
C1105 C1106 1.434 1_556 S
C1106 C1097 1.429 . S
C1106 N1103 1.350 1_554 S
C1106 C1105 1.434 1_554 S
C1107 C1108 1.369 . S
C1107 C1109 1.419 . S
C1107 H1111 0.930 . S
C1108 C1107 1.369 . S
C1108 C1117 1.429 . S
C1109 C1107 1.419 . S
C1109 C1110 1.363 . S
C1109 H1112 0.929 . S
C1110 C1109 1.363 . S
C1110 C1116 1.428 . S
H1111 C1107 0.930 . S
H1112 C1109 0.929 . S
S1113 N1114 1.613 . S
S1113 N1115 1.610 . S
N1114 S1113 1.613 . S
N1114 C1117 1.350 . S
N1115 S1113 1.610 . S
N1115 C1116 1.351 . S
C1116 C1110 1.428 . S
C1116 N1115 1.351 . S
C1116 C1117 1.434 . S
C1117 C1108 1.429 . S
C1117 N1114 1.350 . S
C1117 C1116 1.434 . S
C1118 C1119 1.369 . S
C1118 C1120 1.419 . S
C1118 H1122 0.930 . S
C1119 C1118 1.369 . S
C1119 C1128 1.429 . S
C1120 C1118 1.419 . S
C1120 C1121 1.363 . S
C1120 H1123 0.929 . S
C1121 C1120 1.363 . S
C1121 C1127 1.428 . S
H1122 C1118 0.930 . S
H1123 C1120 0.929 . S
S1124 N1125 1.613 . S
S1124 N1126 1.610 . S
N1125 S1124 1.613 . S
N1125 C1128 1.350 . S
N1126 S1124 1.610 . S
N1126 C1127 1.351 . S
C1127 C1121 1.428 . S
C1127 N1126 1.351 . S
C1127 C1128 1.434 . S
C1128 C1119 1.429 . S
C1128 N1125 1.350 . S
C1128 C1127 1.434 . S
C1129 C1130 1.369 . S
C1129 C1131 1.419 . S
C1129 H1133 0.930 . S
C1130 C1129 1.369 . S
C1130 C1139 1.429 . S
C1131 C1129 1.419 . S
C1131 C1132 1.363 . S
C1131 H1134 0.929 . S
C1132 C1131 1.363 . S
C1132 C1138 1.428 . S
H1133 C1129 0.930 . S
H1134 C1131 0.929 . S
S1135 N1136 1.613 . S
S1135 N1137 1.610 . S
N1136 S1135 1.613 . S
N1136 C1139 1.350 . S
N1137 S1135 1.610 . S
N1137 C1138 1.351 . S
C1138 C1132 1.428 . S
C1138 N1137 1.351 . S
C1138 C1139 1.434 . S
C1139 C1130 1.429 . S
C1139 N1136 1.350 . S
C1139 C1138 1.434 . S
C1140 C1141 1.369 . S
C1140 C1142 1.419 . S
C1140 H1144 0.930 . S
C1141 C1140 1.369 . S
C1141 C1150 1.429 . S
C1142 C1140 1.419 . S
C1142 C1143 1.363 . S
C1142 H1145 0.929 . S
C1143 C1142 1.363 . S
C1143 C1149 1.428 . S
H1144 C1140 0.930 . S
H1145 C1142 0.929 . S
S1146 N1147 1.613 . S
S1146 N1148 1.610 . S
N1147 S1146 1.613 . S
N1147 C1150 1.350 . S
N1148 S1146 1.610 . S
N1148 C1149 1.351 . S
C1149 C1143 1.428 . S
C1149 N1148 1.351 . S
C1149 C1150 1.434 . S
C1150 C1141 1.429 . S
C1150 N1147 1.350 . S
C1150 C1149 1.434 . S
C1151 C1152 1.369 . S
C1151 C1153 1.419 . S
C1151 H1155 0.930 . S
C1152 C1151 1.369 . S
C1152 C1161 1.429 . S
C1153 C1151 1.419 . S
C1153 C1154 1.363 . S
C1153 H1156 0.929 . S
C1154 C1153 1.363 . S
C1154 C1160 1.428 . S
H1155 C1151 0.930 . S
H1156 C1153 0.929 . S
S1157 N1158 1.613 . S
S1157 N1159 1.610 . S
N1158 S1157 1.613 . S
N1158 C1161 1.350 . S
N1159 S1157 1.610 . S
N1159 C1160 1.351 . S
C1160 C1154 1.428 . S
C1160 N1159 1.351 . S
C1160 C1161 1.434 . S
C1161 C1152 1.429 . S
C1161 N1158 1.350 . S
C1161 C1160 1.434 . S
C1162 C1163 1.369 . S
C1162 C1164 1.419 . S
C1162 H1166 0.930 . S
C1163 C1162 1.369 . S
C1163 C1172 1.429 . S
C1164 C1162 1.419 . S
C1164 C1165 1.363 . S
C1164 H1167 0.929 . S
C1165 C1164 1.363 . S
C1165 C1171 1.428 . S
H1166 C1162 0.930 . S
H1167 C1164 0.929 . S
S1168 N1169 1.613 . S
S1168 N1170 1.610 . S
N1169 S1168 1.613 . S
N1169 C1172 1.350 . S
N1170 S1168 1.610 . S
N1170 C1171 1.351 . S
C1171 C1165 1.428 . S
C1171 N1170 1.351 . S
C1171 C1172 1.434 . S
C1172 C1163 1.429 . S
C1172 N1169 1.350 . S
C1172 C1171 1.434 . S
C1173 C1174 1.369 . S
C1173 C1175 1.419 . S
C1173 H1177 0.930 . S
C1174 C1173 1.369 . S
C1174 C1183 1.429 . S
C1175 C1173 1.419 . S
C1175 C1176 1.363 . S
C1175 H1178 0.929 . S
C1176 C1175 1.363 . S
C1176 C1182 1.428 . S
H1177 C1173 0.930 . S
H1178 C1175 0.929 . S
S1179 N1180 1.613 . S
S1179 N1181 1.610 . S
N1180 S1179 1.613 . S
N1180 C1183 1.350 . S
N1181 S1179 1.610 . S
N1181 C1182 1.351 . S
C1182 C1176 1.428 . S
C1182 N1181 1.351 . S
C1182 C1183 1.434 . S
C1183 C1174 1.429 . S
C1183 N1180 1.350 . S
C1183 C1182 1.434 . S
C1184 C1185 1.369 . S
C1184 C1186 1.419 . S
C1184 H1188 0.930 . S
C1185 C1184 1.369 . S
C1185 C1194 1.429 . S
C1186 C1184 1.419 . S
C1186 C1187 1.363 . S
C1186 H1189 0.929 . S
C1187 C1186 1.363 . S
C1187 C1193 1.428 . S
H1188 C1184 0.930 . S
H1189 C1186 0.929 . S
S1190 N1191 1.613 . S
S1190 N1192 1.610 . S
N1191 S1190 1.613 . S
N1191 C1194 1.350 . S
N1192 S1190 1.610 . S
N1192 C1193 1.351 . S
C1193 C1187 1.428 . S
C1193 N1192 1.351 . S
C1193 C1194 1.434 . S
C1194 C1185 1.429 . S
C1194 N1191 1.350 . S
C1194 C1193 1.434 . S
C1195 C1196 1.369 . S
C1195 C1197 1.419 . S
C1195 H1199 0.930 . S
C1196 C1195 1.369 . S
C1196 C1205 1.429 . S
C1197 C1195 1.419 . S
C1197 C1198 1.363 . S
C1197 H1200 0.929 . S
C1198 C1197 1.363 . S
C1198 C1204 1.428 . S
H1199 C1195 0.930 . S
H1200 C1197 0.929 . S
S1201 N1202 1.613 . S
S1201 N1203 1.610 . S
N1202 S1201 1.613 . S
N1202 C1205 1.350 . S
N1203 S1201 1.610 . S
N1203 C1204 1.351 . S
C1204 C1198 1.428 . S
C1204 N1203 1.351 . S
C1204 C1205 1.434 . S
C1205 C1196 1.429 . S
C1205 N1202 1.350 . S
C1205 C1204 1.434 . S
C1206 C1207 1.369 1_655 S
C1206 C1208 1.419 . S
C1206 H1210 0.930 . S
C1207 C1206 1.369 1_455 S
C1207 C1216 1.429 . S
C1208 C1206 1.419 . S
C1208 C1209 1.363 1_655 S
C1208 H1211 0.929 . S
C1209 C1208 1.363 1_455 S
C1209 C1215 1.428 1_556 S
H1210 C1206 0.930 . S
H1211 C1208 0.929 . S
S1212 N1213 1.613 1_554 S
S1212 N1214 1.610 . S
N1213 S1212 1.613 1_556 S
N1213 C1216 1.350 . S
N1214 S1212 1.610 . S
N1214 C1215 1.351 . S
C1215 C1209 1.428 1_554 S
C1215 N1214 1.351 . S
C1215 C1216 1.434 1_554 S
C1216 C1207 1.429 . S
C1216 N1213 1.350 . S
C1216 C1215 1.434 1_556 S
C1217 C1218 1.369 . S
C1217 C1219 1.419 . S
C1217 H1221 0.930 . S
C1218 C1217 1.369 . S
C1218 C1227 1.429 . S
C1219 C1217 1.419 . S
C1219 C1220 1.363 . S
C1219 H1222 0.929 . S
C1220 C1219 1.363 . S
C1220 C1226 1.428 . S
H1221 C1217 0.930 . S
H1222 C1219 0.929 . S
S1223 N1224 1.613 . S
S1223 N1225 1.610 . S
N1224 S1223 1.613 . S
N1224 C1227 1.350 . S
N1225 S1223 1.610 . S
N1225 C1226 1.351 . S
C1226 C1220 1.428 . S
C1226 N1225 1.351 . S
C1226 C1227 1.434 . S
C1227 C1218 1.429 . S
C1227 N1224 1.350 . S
C1227 C1226 1.434 . S
C1228 C1229 1.369 . S
C1228 C1230 1.419 . S
C1228 H1232 0.930 . S
C1229 C1228 1.369 . S
C1229 C1238 1.429 . S
C1230 C1228 1.419 . S
C1230 C1231 1.363 . S
C1230 H1233 0.929 . S
C1231 C1230 1.363 . S
C1231 C1237 1.428 . S
H1232 C1228 0.930 . S
H1233 C1230 0.929 . S
S1234 N1235 1.613 . S
S1234 N1236 1.610 . S
N1235 S1234 1.613 . S
N1235 C1238 1.350 . S
N1236 S1234 1.610 . S
N1236 C1237 1.351 . S
C1237 C1231 1.428 . S
C1237 N1236 1.351 . S
C1237 C1238 1.434 . S
C1238 C1229 1.429 . S
C1238 N1235 1.350 . S
C1238 C1237 1.434 . S
C1239 C1240 1.369 . S
C1239 C1241 1.419 . S
C1239 H1243 0.930 . S
C1240 C1239 1.369 . S
C1240 C1249 1.429 . S
C1241 C1239 1.419 . S
C1241 C1242 1.363 . S
C1241 H1244 0.929 . S
C1242 C1241 1.363 . S
C1242 C1248 1.428 . S
H1243 C1239 0.930 . S
H1244 C1241 0.929 . S
S1245 N1246 1.613 . S
S1245 N1247 1.610 . S
N1246 S1245 1.613 . S
N1246 C1249 1.350 . S
N1247 S1245 1.610 . S
N1247 C1248 1.351 . S
C1248 C1242 1.428 . S
C1248 N1247 1.351 . S
C1248 C1249 1.434 . S
C1249 C1240 1.429 . S
C1249 N1246 1.350 . S
C1249 C1248 1.434 . S
C1250 C1251 1.369 . S
C1250 C1252 1.419 . S
C1250 H1254 0.930 . S
C1251 C1250 1.369 . S
C1251 C1260 1.429 1_455 S
C1252 C1250 1.419 . S
C1252 C1253 1.363 . S
C1252 H1255 0.929 . S
C1253 C1252 1.363 . S
C1253 C1259 1.428 . S
H1254 C1250 0.930 . S
H1255 C1252 0.929 . S
S1256 N1257 1.613 . S
S1256 N1258 1.610 . S
N1257 S1256 1.613 . S
N1257 C1260 1.356 . S
N1258 S1256 1.610 . S
N1258 C1259 1.351 1_655 S
C1259 C1253 1.428 . S
C1259 N1258 1.351 1_455 S
C1259 C1260 1.427 1_455 S
C1260 C1251 1.429 1_655 S
C1260 N1257 1.356 . S
C1260 C1259 1.427 1_655 S
C1261 C1262 1.369 . S
C1261 C1263 1.419 . S
C1261 H1265 0.930 . S
C1262 C1261 1.369 . S
C1262 C1271 1.429 . S
C1263 C1261 1.419 . S
C1263 C1264 1.363 . S
C1263 H1266 0.929 . S
C1264 C1263 1.363 . S
C1264 C1270 1.428 . S
H1265 C1261 0.930 . S
H1266 C1263 0.929 . S
S1267 N1268 1.613 . S
S1267 N1269 1.610 . S
N1268 S1267 1.613 . S
N1268 C1271 1.350 . S
N1269 S1267 1.610 . S
N1269 C1270 1.351 . S
C1270 C1264 1.428 . S
C1270 N1269 1.351 . S
C1270 C1271 1.434 . S
C1271 C1262 1.429 . S
C1271 N1268 1.350 . S
C1271 C1270 1.434 . S
C1272 C1273 1.369 . S
C1272 C1274 1.419 . S
C1272 H1276 0.930 . S
C1273 C1272 1.369 . S
C1273 C1282 1.429 . S
C1274 C1272 1.419 . S
C1274 C1275 1.363 . S
C1274 H1277 0.929 . S
C1275 C1274 1.363 . S
C1275 C1281 1.428 . S
H1276 C1272 0.930 . S
H1277 C1274 0.929 . S
S1278 N1279 1.613 . S
S1278 N1280 1.610 . S
N1279 S1278 1.613 . S
N1279 C1282 1.350 . S
N1280 S1278 1.610 . S
N1280 C1281 1.351 . S
C1281 C1275 1.428 . S
C1281 N1280 1.351 . S
C1281 C1282 1.434 . S
C1282 C1273 1.429 . S
C1282 N1279 1.350 . S
C1282 C1281 1.434 . S
C1283 C1284 1.369 . S
C1283 C1285 1.419 . S
C1283 H1287 0.930 . S
C1284 C1283 1.369 . S
C1284 C1293 1.429 . S
C1285 C1283 1.419 . S
C1285 C1286 1.363 . S
C1285 H1288 0.929 . S
C1286 C1285 1.363 . S
C1286 C1292 1.428 . S
H1287 C1283 0.930 . S
H1288 C1285 0.929 . S
S1289 N1290 1.613 . S
S1289 N1291 1.610 . S
N1290 S1289 1.613 . S
N1290 C1293 1.350 . S
N1291 S1289 1.610 . S
N1291 C1292 1.351 . S
C1292 C1286 1.428 . S
C1292 N1291 1.351 . S
C1292 C1293 1.434 . S
C1293 C1284 1.429 . S
C1293 N1290 1.350 . S
C1293 C1292 1.434 . S
C1294 C1295 1.369 . S
C1294 C1296 1.419 . S
C1294 H1298 0.930 . S
C1295 C1294 1.369 . S
C1295 C1304 1.429 . S
C1296 C1294 1.419 . S
C1296 C1297 1.363 . S
C1296 H1299 0.929 . S
C1297 C1296 1.363 . S
C1297 C1303 1.428 . S
H1298 C1294 0.930 . S
H1299 C1296 0.929 . S
S1300 N1301 1.613 . S
S1300 N1302 1.610 . S
N1301 S1300 1.613 . S
N1301 C1304 1.350 . S
N1302 S1300 1.610 . S
N1302 C1303 1.351 . S
C1303 C1297 1.428 . S
C1303 N1302 1.351 . S
C1303 C1304 1.434 . S
C1304 C1295 1.429 . S
C1304 N1301 1.350 . S
C1304 C1303 1.434 . S
C1305 C1306 1.369 . S
C1305 C1307 1.419 . S
C1305 H1309 0.930 . S
C1306 C1305 1.369 . S
C1306 C1315 1.429 . S
C1307 C1305 1.419 . S
C1307 C1308 1.363 . S
C1307 H1310 0.929 . S
C1308 C1307 1.363 . S
C1308 C1314 1.428 . S
H1309 C1305 0.930 . S
H1310 C1307 0.929 . S
S1311 N1312 1.613 . S
S1311 N1313 1.610 . S
N1312 S1311 1.613 . S
N1312 C1315 1.350 . S
N1313 S1311 1.610 . S
N1313 C1314 1.351 . S
C1314 C1308 1.428 . S
C1314 N1313 1.351 . S
C1314 C1315 1.434 . S
C1315 C1306 1.429 . S
C1315 N1312 1.350 . S
C1315 C1314 1.434 . S
C1316 C1317 1.369 . S
C1316 C1318 1.419 . S
C1316 H1320 0.930 . S
C1317 C1316 1.369 . S
C1317 C1326 1.429 . S
C1318 C1316 1.419 . S
C1318 C1319 1.363 . S
C1318 H1321 0.929 . S
C1319 C1318 1.363 . S
C1319 C1325 1.428 . S
H1320 C1316 0.930 . S
H1321 C1318 0.929 . S
S1322 N1323 1.613 . S
S1322 N1324 1.610 . S
N1323 S1322 1.613 . S
N1323 C1326 1.350 . S
N1324 S1322 1.610 . S
N1324 C1325 1.351 . S
C1325 C1319 1.428 . S
C1325 N1324 1.351 . S
C1325 C1326 1.434 . S
C1326 C1317 1.429 . S
C1326 N1323 1.350 . S
C1326 C1325 1.434 . S
C1327 C1328 1.369 . S
C1327 C1329 1.419 . S
C1327 H1331 0.930 . S
C1328 C1327 1.369 . S
C1328 C1337 1.429 . S
C1329 C1327 1.419 . S
C1329 C1330 1.363 . S
C1329 H1332 0.929 . S
C1330 C1329 1.363 . S
C1330 C1336 1.428 . S
H1331 C1327 0.930 . S
H1332 C1329 0.929 . S
S1333 N1334 1.613 . S
S1333 N1335 1.610 . S
N1334 S1333 1.613 . S
N1334 C1337 1.350 . S
N1335 S1333 1.610 . S
N1335 C1336 1.351 . S
C1336 C1330 1.428 . S
C1336 N1335 1.351 . S
C1336 C1337 1.434 . S
C1337 C1328 1.429 . S
C1337 N1334 1.350 . S
C1337 C1336 1.434 . S
C1338 C1339 1.369 . S
C1338 C1340 1.419 . S
C1338 H1342 0.930 . S
C1339 C1338 1.369 . S
C1339 C1348 1.429 . S
C1340 C1338 1.419 . S
C1340 C1341 1.363 . S
C1340 H1343 0.929 . S
C1341 C1340 1.363 . S
C1341 C1347 1.428 . S
H1342 C1338 0.930 . S
H1343 C1340 0.929 . S
S1344 N1345 1.613 . S
S1344 N1346 1.610 . S
N1345 S1344 1.613 . S
N1345 C1348 1.350 . S
N1346 S1344 1.610 . S
N1346 C1347 1.351 . S
C1347 C1341 1.428 . S
C1347 N1346 1.351 . S
C1347 C1348 1.434 . S
C1348 C1339 1.429 . S
C1348 N1345 1.350 . S
C1348 C1347 1.434 . S
C1349 C1350 1.369 . S
C1349 C1351 1.419 . S
C1349 H1353 0.930 . S
C1350 C1349 1.369 . S
C1350 C1359 1.429 . S
C1351 C1349 1.419 . S
C1351 C1352 1.363 . S
C1351 H1354 0.929 . S
C1352 C1351 1.363 . S
C1352 C1358 1.428 . S
H1353 C1349 0.930 . S
H1354 C1351 0.929 . S
S1355 N1356 1.613 . S
S1355 N1357 1.610 . S
N1356 S1355 1.613 . S
N1356 C1359 1.350 . S
N1357 S1355 1.610 . S
N1357 C1358 1.351 . S
C1358 C1352 1.428 . S
C1358 N1357 1.351 . S
C1358 C1359 1.434 . S
C1359 C1350 1.429 . S
C1359 N1356 1.350 . S
C1359 C1358 1.434 . S
C1360 C1361 1.369 . S
C1360 C1362 1.419 . S
C1360 H1364 0.930 . S
C1361 C1360 1.369 . S
C1361 C1370 1.429 . S
C1362 C1360 1.419 . S
C1362 C1363 1.363 . S
C1362 H1365 0.929 . S
C1363 C1362 1.363 . S
C1363 C1369 1.428 . S
H1364 C1360 0.930 . S
H1365 C1362 0.929 . S
S1366 N1367 1.613 . S
S1366 N1368 1.610 . S
N1367 S1366 1.613 . S
N1367 C1370 1.350 . S
N1368 S1366 1.610 . S
N1368 C1369 1.351 . S
C1369 C1363 1.428 . S
C1369 N1368 1.351 . S
C1369 C1370 1.434 . S
C1370 C1361 1.429 . S
C1370 N1367 1.350 . S
C1370 C1369 1.434 . S
C1371 C1372 1.369 . S
C1371 C1373 1.419 . S
C1371 H1375 0.930 . S
C1372 C1371 1.369 . S
C1372 C1381 1.429 . S
C1373 C1371 1.419 . S
C1373 C1374 1.363 . S
C1373 H1376 0.929 . S
C1374 C1373 1.363 . S
C1374 C1380 1.428 . S
H1375 C1371 0.930 . S
H1376 C1373 0.929 . S
S1377 N1378 1.613 . S
S1377 N1379 1.610 . S
N1378 S1377 1.613 . S
N1378 C1381 1.350 . S
N1379 S1377 1.610 . S
N1379 C1380 1.351 . S
C1380 C1374 1.428 . S
C1380 N1379 1.351 . S
C1380 C1381 1.434 . S
C1381 C1372 1.429 . S
C1381 N1378 1.350 . S
C1381 C1380 1.434 . S
C1382 C1383 1.369 . S
C1382 C1384 1.419 . S
C1382 H1386 0.930 . S
C1383 C1382 1.369 . S
C1383 C1392 1.429 . S
C1384 C1382 1.419 . S
C1384 C1385 1.363 . S
C1384 H1387 0.929 . S
C1385 C1384 1.363 . S
C1385 C1391 1.428 . S
H1386 C1382 0.930 . S
H1387 C1384 0.929 . S
S1388 N1389 1.613 . S
S1388 N1390 1.610 . S
N1389 S1388 1.613 . S
N1389 C1392 1.350 . S
N1390 S1388 1.610 . S
N1390 C1391 1.351 . S
C1391 C1385 1.428 . S
C1391 N1390 1.351 . S
C1391 C1392 1.434 . S
C1392 C1383 1.429 . S
C1392 N1389 1.350 . S
C1392 C1391 1.434 . S
C1393 C1394 1.369 . S
C1393 C1395 1.419 . S
C1393 H1397 0.930 1_554 S
C1394 C1393 1.369 . S
C1394 C1403 1.429 . S
C1395 C1393 1.419 . S
C1395 C1396 1.363 . S
C1395 H1398 0.929 1_554 S
C1396 C1395 1.363 . S
C1396 C1402 1.428 . S
H1397 C1393 0.930 1_556 S
H1398 C1395 0.929 1_556 S
S1399 N1400 1.613 . S
S1399 N1401 1.610 . S
N1400 S1399 1.613 . S
N1400 C1403 1.350 . S
N1401 S1399 1.610 . S
N1401 C1402 1.351 . S
C1402 C1396 1.428 . S
C1402 N1401 1.351 . S
C1402 C1403 1.434 . S
C1403 C1394 1.429 . S
C1403 N1400 1.350 . S
C1403 C1402 1.434 . S
C1404 C1405 1.369 . S
C1404 C1406 1.419 . S
C1404 H1408 0.930 . S
C1405 C1404 1.369 . S
C1405 C1414 1.429 . S
C1406 C1404 1.419 . S
C1406 C1407 1.363 . S
C1406 H1409 0.929 . S
C1407 C1406 1.363 . S
C1407 C1413 1.428 . S
H1408 C1404 0.930 . S
H1409 C1406 0.929 . S
S1410 N1411 1.613 . S
S1410 N1412 1.610 . S
N1411 S1410 1.613 . S
N1411 C1414 1.350 . S
N1412 S1410 1.610 . S
N1412 C1413 1.351 . S
C1413 C1407 1.428 . S
C1413 N1412 1.351 . S
C1413 C1414 1.434 . S
C1414 C1405 1.429 . S
C1414 N1411 1.350 . S
C1414 C1413 1.434 . S
C1415 C1416 1.369 . S
C1415 C1417 1.419 . S
C1415 H1419 0.930 . S
C1416 C1415 1.369 . S
C1416 C1425 1.429 . S
C1417 C1415 1.419 . S
C1417 C1418 1.363 . S
C1417 H1420 0.929 . S
C1418 C1417 1.363 . S
C1418 C1424 1.428 . S
H1419 C1415 0.930 . S
H1420 C1417 0.929 . S
S1421 N1422 1.613 1_554 S
S1421 N1423 1.610 . S
N1422 S1421 1.613 1_556 S
N1422 C1425 1.350 1_556 S
N1423 S1421 1.610 . S
N1423 C1424 1.351 . S
C1424 C1418 1.428 . S
C1424 N1423 1.351 . S
C1424 C1425 1.434 . S
C1425 C1416 1.429 . S
C1425 N1422 1.350 1_554 S
C1425 C1424 1.434 . S
C1426 C1427 1.369 . S
C1426 C1428 1.419 . S
C1426 H1430 0.930 . S
C1427 C1426 1.369 . S
C1427 C1436 1.429 . S
C1428 C1426 1.419 . S
C1428 C1429 1.363 . S
C1428 H1431 0.929 . S
C1429 C1428 1.363 . S
C1429 C1435 1.428 . S
H1430 C1426 0.930 . S
H1431 C1428 0.929 . S
S1432 N1433 1.613 . S
S1432 N1434 1.610 . S
N1433 S1432 1.613 . S
N1433 C1436 1.350 . S
N1434 S1432 1.610 . S
N1434 C1435 1.351 . S
C1435 C1429 1.428 . S
C1435 N1434 1.351 . S
C1435 C1436 1.434 . S
C1436 C1427 1.429 . S
C1436 N1433 1.350 . S
C1436 C1435 1.434 . S
C1437 C1438 1.369 . S
C1437 C1439 1.419 . S
C1437 H1441 0.930 . S
C1438 C1437 1.369 . S
C1438 C1447 1.429 . S
C1439 C1437 1.419 . S
C1439 C1440 1.363 . S
C1439 H1442 0.929 . S
C1440 C1439 1.363 . S
C1440 C1446 1.428 . S
H1441 C1437 0.930 . S
H1442 C1439 0.929 . S
S1443 N1444 1.613 . S
S1443 N1445 1.610 . S
N1444 S1443 1.613 . S
N1444 C1447 1.350 . S
N1445 S1443 1.610 . S
N1445 C1446 1.351 . S
C1446 C1440 1.428 . S
C1446 N1445 1.351 . S
C1446 C1447 1.434 . S
C1447 C1438 1.429 . S
C1447 N1444 1.350 . S
C1447 C1446 1.434 . S
C1448 C1449 1.369 . S
C1448 C1450 1.419 . S
C1448 H1452 0.930 . S
C1449 C1448 1.369 . S
C1449 C1458 1.429 . S
C1450 C1448 1.419 . S
C1450 C1451 1.363 . S
C1450 H1453 0.929 . S
C1451 C1450 1.363 . S
C1451 C1457 1.428 . S
H1452 C1448 0.930 . S
H1453 C1450 0.929 . S
S1454 N1455 1.613 . S
S1454 N1456 1.610 . S
N1455 S1454 1.613 . S
N1455 C1458 1.350 . S
N1456 S1454 1.610 . S
N1456 C1457 1.351 . S
C1457 C1451 1.428 . S
C1457 N1456 1.351 . S
C1457 C1458 1.434 . S
C1458 C1449 1.429 . S
C1458 N1455 1.350 . S
C1458 C1457 1.434 . S
C1459 C1460 1.369 . S
C1459 C1461 1.419 . S
C1459 H1463 0.930 . S
C1460 C1459 1.369 . S
C1460 C1469 1.429 . S
C1461 C1459 1.419 . S
C1461 C1462 1.363 . S
C1461 H1464 0.929 . S
C1462 C1461 1.363 . S
C1462 C1468 1.428 . S
H1463 C1459 0.930 . S
H1464 C1461 0.929 . S
S1465 N1466 1.613 . S
S1465 N1467 1.610 . S
N1466 S1465 1.613 . S
N1466 C1469 1.350 . S
N1467 S1465 1.610 . S
N1467 C1468 1.351 . S
C1468 C1462 1.428 . S
C1468 N1467 1.351 . S
C1468 C1469 1.434 . S
C1469 C1460 1.429 . S
C1469 N1466 1.350 . S
C1469 C1468 1.434 . S
C1470 C1471 1.369 . S
C1470 C1472 1.419 . S
C1470 H1474 0.930 . S
C1471 C1470 1.369 . S
C1471 C1480 1.429 . S
C1472 C1470 1.419 . S
C1472 C1473 1.363 . S
C1472 H1475 0.929 . S
C1473 C1472 1.363 . S
C1473 C1479 1.428 . S
H1474 C1470 0.930 . S
H1475 C1472 0.929 . S
S1476 N1477 1.613 . S
S1476 N1478 1.610 . S
N1477 S1476 1.613 . S
N1477 C1480 1.350 . S
N1478 S1476 1.610 . S
N1478 C1479 1.351 . S
C1479 C1473 1.428 . S
C1479 N1478 1.351 . S
C1479 C1480 1.434 . S
C1480 C1471 1.429 . S
C1480 N1477 1.350 . S
C1480 C1479 1.434 . S
C1481 C1482 1.369 . S
C1481 C1483 1.419 . S
C1481 H1485 0.930 . S
C1482 C1481 1.369 . S
C1482 C1491 1.429 . S
C1483 C1481 1.419 . S
C1483 C1484 1.363 . S
C1483 H1486 0.929 . S
C1484 C1483 1.363 . S
C1484 C1490 1.428 . S
H1485 C1481 0.930 . S
H1486 C1483 0.929 . S
S1487 N1488 1.613 . S
S1487 N1489 1.610 . S
N1488 S1487 1.613 . S
N1488 C1491 1.350 . S
N1489 S1487 1.610 . S
N1489 C1490 1.351 . S
C1490 C1484 1.428 . S
C1490 N1489 1.351 . S
C1490 C1491 1.434 . S
C1491 C1482 1.429 . S
C1491 N1488 1.350 . S
C1491 C1490 1.434 . S
C1492 C1493 1.369 . S
C1492 C1494 1.419 . S
C1492 H1496 0.930 . S
C1493 C1492 1.369 . S
C1493 C1502 1.429 . S
C1494 C1492 1.419 . S
C1494 C1495 1.363 . S
C1494 H1497 0.929 . S
C1495 C1494 1.363 . S
C1495 C1501 1.428 . S
H1496 C1492 0.930 . S
H1497 C1494 0.929 . S
S1498 N1499 1.613 . S
S1498 N1500 1.610 . S
N1499 S1498 1.613 . S
N1499 C1502 1.350 . S
N1500 S1498 1.610 . S
N1500 C1501 1.351 . S
C1501 C1495 1.428 . S
C1501 N1500 1.351 . S
C1501 C1502 1.434 . S
C1502 C1493 1.429 . S
C1502 N1499 1.350 . S
C1502 C1501 1.434 . S
C1503 C1504 1.369 . S
C1503 C1505 1.419 . S
C1503 H1507 0.930 . S
C1504 C1503 1.369 . S
C1504 C1513 1.429 . S
C1505 C1503 1.419 . S
C1505 C1506 1.363 . S
C1505 H1508 0.929 . S
C1506 C1505 1.363 . S
C1506 C1512 1.428 . S
H1507 C1503 0.930 . S
H1508 C1505 0.929 . S
S1509 N1510 1.613 . S
S1509 N1511 1.610 . S
N1510 S1509 1.613 . S
N1510 C1513 1.350 . S
N1511 S1509 1.610 . S
N1511 C1512 1.351 . S
C1512 C1506 1.428 . S
C1512 N1511 1.351 . S
C1512 C1513 1.434 . S
C1513 C1504 1.429 . S
C1513 N1510 1.350 . S
C1513 C1512 1.434 . S
C1514 C1515 1.369 . S
C1514 C1516 1.419 . S
C1514 H1518 0.930 . S
C1515 C1514 1.369 . S
C1515 C1524 1.429 . S
C1516 C1514 1.419 . S
C1516 C1517 1.363 . S
C1516 H1519 0.929 . S
C1517 C1516 1.363 . S
C1517 C1523 1.428 . S
H1518 C1514 0.930 . S
H1519 C1516 0.929 . S
S1520 N1521 1.613 . S
S1520 N1522 1.610 . S
N1521 S1520 1.613 . S
N1521 C1524 1.350 . S
N1522 S1520 1.610 . S
N1522 C1523 1.351 . S
C1523 C1517 1.428 . S
C1523 N1522 1.351 . S
C1523 C1524 1.434 . S
C1524 C1515 1.429 . S
C1524 N1521 1.350 . S
C1524 C1523 1.434 . S
C1525 C1526 1.369 . S
C1525 C1527 1.419 . S
C1525 H1529 0.930 . S
C1526 C1525 1.369 . S
C1526 C1535 1.429 . S
C1527 C1525 1.419 . S
C1527 C1528 1.363 . S
C1527 H1530 0.929 . S
C1528 C1527 1.363 . S
C1528 C1534 1.428 . S
H1529 C1525 0.930 . S
H1530 C1527 0.929 . S
S1531 N1532 1.613 . S
S1531 N1533 1.610 . S
N1532 S1531 1.613 . S
N1532 C1535 1.350 . S
N1533 S1531 1.610 . S
N1533 C1534 1.351 . S
C1534 C1528 1.428 . S
C1534 N1533 1.351 . S
C1534 C1535 1.434 . S
C1535 C1526 1.429 . S
C1535 N1532 1.350 . S
C1535 C1534 1.434 . S
C1536 C1537 1.369 . S
C1536 C1538 1.419 . S
C1536 H1540 0.930 . S
C1537 C1536 1.369 . S
C1537 C1546 1.429 . S
C1538 C1536 1.419 . S
C1538 C1539 1.363 . S
C1538 H1541 0.929 . S
C1539 C1538 1.363 . S
C1539 C1545 1.428 . S
H1540 C1536 0.930 . S
H1541 C1538 0.929 . S
S1542 N1543 1.613 . S
S1542 N1544 1.610 . S
N1543 S1542 1.613 . S
N1543 C1546 1.350 . S
N1544 S1542 1.610 . S
N1544 C1545 1.351 . S
C1545 C1539 1.428 . S
C1545 N1544 1.351 . S
C1545 C1546 1.434 . S
C1546 C1537 1.429 . S
C1546 N1543 1.350 . S
C1546 C1545 1.434 . S
C1547 C1548 1.369 . S
C1547 C1549 1.419 . S
C1547 H1551 0.930 . S
C1548 C1547 1.369 . S
C1548 C1557 1.429 . S
C1549 C1547 1.419 . S
C1549 C1550 1.363 . S
C1549 H1552 0.929 . S
C1550 C1549 1.363 . S
C1550 C1556 1.428 . S
H1551 C1547 0.930 . S
H1552 C1549 0.929 . S
S1553 N1554 1.613 . S
S1553 N1555 1.610 . S
N1554 S1553 1.613 . S
N1554 C1557 1.350 . S
N1555 S1553 1.610 . S
N1555 C1556 1.351 . S
C1556 C1550 1.428 . S
C1556 N1555 1.351 . S
C1556 C1557 1.434 . S
C1557 C1548 1.429 . S
C1557 N1554 1.350 . S
C1557 C1556 1.434 . S
C1558 C1559 1.369 . S
C1558 C1560 1.419 . S
C1558 H1562 0.930 . S
C1559 C1558 1.369 . S
C1559 C1568 1.429 . S
C1560 C1558 1.419 . S
C1560 C1561 1.363 . S
C1560 H1563 0.929 . S
C1561 C1560 1.363 . S
C1561 C1567 1.428 1_655 S
H1562 C1558 0.930 . S
H1563 C1560 0.929 . S
S1564 N1565 1.613 . S
S1564 N1566 1.610 . S
N1565 S1564 1.613 . S
N1565 C1568 1.350 1_455 S
N1566 S1564 1.610 . S
N1566 C1567 1.351 . S
C1567 C1561 1.428 1_455 S
C1567 N1566 1.351 . S
C1567 C1568 1.434 1_455 S
C1568 C1559 1.429 . S
C1568 N1565 1.350 1_655 S
C1568 C1567 1.434 1_655 S
C1569 C1570 1.369 . S
C1569 C1571 1.419 . S
C1569 H1573 0.930 . S
C1570 C1569 1.369 . S
C1570 C1579 1.429 . S
C1571 C1569 1.419 . S
C1571 C1572 1.363 . S
C1571 H1574 0.929 . S
C1572 C1571 1.363 . S
C1572 C1578 1.428 . S
H1573 C1569 0.930 . S
H1574 C1571 0.929 . S
S1575 N1576 1.613 . S
S1575 N1577 1.610 . S
N1576 S1575 1.613 . S
N1576 C1579 1.350 . S
N1577 S1575 1.610 . S
N1577 C1578 1.351 . S
C1578 C1572 1.428 . S
C1578 N1577 1.351 . S
C1578 C1579 1.434 . S
C1579 C1570 1.429 . S
C1579 N1576 1.350 . S
C1579 C1578 1.434 . S
C1580 C1581 1.369 . S
C1580 C1582 1.419 . S
C1580 H1584 0.930 . S
C1581 C1580 1.369 . S
C1581 C1590 1.429 . S
C1582 C1580 1.419 . S
C1582 C1583 1.363 . S
C1582 H1585 0.929 . S
C1583 C1582 1.363 . S
C1583 C1589 1.428 . S
H1584 C1580 0.930 . S
H1585 C1582 0.929 . S
S1586 N1587 1.613 . S
S1586 N1588 1.610 . S
N1587 S1586 1.613 . S
N1587 C1590 1.350 . S
N1588 S1586 1.610 . S
N1588 C1589 1.351 . S
C1589 C1583 1.428 . S
C1589 N1588 1.351 . S
C1589 C1590 1.434 . S
C1590 C1581 1.429 . S
C1590 N1587 1.350 . S
C1590 C1589 1.434 . S
C1591 C1592 1.369 . S
C1591 C1593 1.419 . S
C1591 H1595 0.930 . S
C1592 C1591 1.369 . S
C1592 C1601 1.429 . S
C1593 C1591 1.419 . S
C1593 C1594 1.363 . S
C1593 H1596 0.929 . S
C1594 C1593 1.363 . S
C1594 C1600 1.428 . S
H1595 C1591 0.930 . S
H1596 C1593 0.929 . S
S1597 N1598 1.613 . S
S1597 N1599 1.610 . S
N1598 S1597 1.613 . S
N1598 C1601 1.350 . S
N1599 S1597 1.610 . S
N1599 C1600 1.351 . S
C1600 C1594 1.428 . S
C1600 N1599 1.351 . S
C1600 C1601 1.434 . S
C1601 C1592 1.429 . S
C1601 N1598 1.350 . S
C1601 C1600 1.434 . S
C1602 C1603 1.369 . S
C1602 C1604 1.419 . S
C1602 H1606 0.930 . S
C1603 C1602 1.369 . S
C1603 C1612 1.429 . S
C1604 C1602 1.419 . S
C1604 C1605 1.363 . S
C1604 H1607 0.929 . S
C1605 C1604 1.363 . S
C1605 C1611 1.428 . S
H1606 C1602 0.930 . S
H1607 C1604 0.929 . S
S1608 N1609 1.613 . S
S1608 N1610 1.610 . S
N1609 S1608 1.613 . S
N1609 C1612 1.350 . S
N1610 S1608 1.610 . S
N1610 C1611 1.351 . S
C1611 C1605 1.428 . S
C1611 N1610 1.351 . S
C1611 C1612 1.434 . S
C1612 C1603 1.429 . S
C1612 N1609 1.350 . S
C1612 C1611 1.434 . S
C1613 C1614 1.369 . S
C1613 C1615 1.419 . S
C1613 H1617 0.930 . S
C1614 C1613 1.369 . S
C1614 C1623 1.429 . S
C1615 C1613 1.419 . S
C1615 C1616 1.363 . S
C1615 H1618 0.929 . S
C1616 C1615 1.363 . S
C1616 C1622 1.428 . S
H1617 C1613 0.930 . S
H1618 C1615 0.929 . S
S1619 N1620 1.613 . S
S1619 N1621 1.610 . S
N1620 S1619 1.613 . S
N1620 C1623 1.350 . S
N1621 S1619 1.610 . S
N1621 C1622 1.351 . S
C1622 C1616 1.428 . S
C1622 N1621 1.351 . S
C1622 C1623 1.434 . S
C1623 C1614 1.429 . S
C1623 N1620 1.350 . S
C1623 C1622 1.434 . S
C1624 C1625 1.369 . S
C1624 C1626 1.419 . S
C1624 H1628 0.930 . S
C1625 C1624 1.369 . S
C1625 C1634 1.429 . S
C1626 C1624 1.419 . S
C1626 C1627 1.363 . S
C1626 H1629 0.929 . S
C1627 C1626 1.363 . S
C1627 C1633 1.428 . S
H1628 C1624 0.930 . S
H1629 C1626 0.929 . S
S1630 N1631 1.613 . S
S1630 N1632 1.610 . S
N1631 S1630 1.613 . S
N1631 C1634 1.350 . S
N1632 S1630 1.610 . S
N1632 C1633 1.351 . S
C1633 C1627 1.428 . S
C1633 N1632 1.351 . S
C1633 C1634 1.434 . S
C1634 C1625 1.429 . S
C1634 N1631 1.350 . S
C1634 C1633 1.434 . S
C1635 C1636 1.369 . S
C1635 C1637 1.419 . S
C1635 H1639 0.930 . S
C1636 C1635 1.369 . S
C1636 C1645 1.429 . S
C1637 C1635 1.419 . S
C1637 C1638 1.363 . S
C1637 H1640 0.929 1_565 S
C1638 C1637 1.363 . S
C1638 C1644 1.428 . S
H1639 C1635 0.930 . S
H1640 C1637 0.929 1_545 S
S1641 N1642 1.613 . S
S1641 N1643 1.610 . S
N1642 S1641 1.613 . S
N1642 C1645 1.350 . S
N1643 S1641 1.610 . S
N1643 C1644 1.351 . S
C1644 C1638 1.428 . S
C1644 N1643 1.351 . S
C1644 C1645 1.434 . S
C1645 C1636 1.429 . S
C1645 N1642 1.350 . S
C1645 C1644 1.434 . S
C1646 C1647 1.369 . S
C1646 C1648 1.419 . S
C1646 H1650 0.930 . S
C1647 C1646 1.369 . S
C1647 C1656 1.429 . S
C1648 C1646 1.419 . S
C1648 C1649 1.363 . S
C1648 H1651 0.929 . S
C1649 C1648 1.363 . S
C1649 C1655 1.428 . S
H1650 C1646 0.930 . S
H1651 C1648 0.929 . S
S1652 N1653 1.613 . S
S1652 N1654 1.610 . S
N1653 S1652 1.613 . S
N1653 C1656 1.350 . S
N1654 S1652 1.610 . S
N1654 C1655 1.351 . S
C1655 C1649 1.428 . S
C1655 N1654 1.351 . S
C1655 C1656 1.434 . S
C1656 C1647 1.429 . S
C1656 N1653 1.350 . S
C1656 C1655 1.434 . S
C1657 C1658 1.369 . S
C1657 C1659 1.419 . S
C1657 H1661 0.930 . S
C1658 C1657 1.369 . S
C1658 C1667 1.429 . S
C1659 C1657 1.419 . S
C1659 C1660 1.363 . S
C1659 H1662 0.929 . S
C1660 C1659 1.363 . S
C1660 C1666 1.428 . S
H1661 C1657 0.930 . S
H1662 C1659 0.929 . S
S1663 N1664 1.613 . S
S1663 N1665 1.610 . S
N1664 S1663 1.613 . S
N1664 C1667 1.350 1_556 S
N1665 S1663 1.610 . S
N1665 C1666 1.351 1_556 S
C1666 C1660 1.428 . S
C1666 N1665 1.351 1_554 S
C1666 C1667 1.434 . S
C1667 C1658 1.429 . S
C1667 N1664 1.350 1_554 S
C1667 C1666 1.434 . S
C1668 C1669 1.369 . S
C1668 C1670 1.419 . S
C1668 H1672 0.930 . S
C1669 C1668 1.369 . S
C1669 C1678 1.429 . S
C1670 C1668 1.419 . S
C1670 C1671 1.363 . S
C1670 H1673 0.929 . S
C1671 C1670 1.363 . S
C1671 C1677 1.428 . S
H1672 C1668 0.930 . S
H1673 C1670 0.929 . S
S1674 N1675 1.613 . S
S1674 N1676 1.610 . S
N1675 S1674 1.613 . S
N1675 C1678 1.350 . S
N1676 S1674 1.610 . S
N1676 C1677 1.351 . S
C1677 C1671 1.428 . S
C1677 N1676 1.351 . S
C1677 C1678 1.434 . S
C1678 C1669 1.429 . S
C1678 N1675 1.350 . S
C1678 C1677 1.434 . S
C1679 C1680 1.369 . S
C1679 C1681 1.419 . S
C1679 H1683 0.930 . S
C1680 C1679 1.369 . S
C1680 C1689 1.429 . S
C1681 C1679 1.419 . S
C1681 C1682 1.363 . S
C1681 H1684 0.929 1_554 S
C1682 C1681 1.363 . S
C1682 C1688 1.428 . S
H1683 C1679 0.930 . S
H1684 C1681 0.929 1_556 S
S1685 N1686 1.613 . S
S1685 N1687 1.610 . S
N1686 S1685 1.613 . S
N1686 C1689 1.350 . S
N1687 S1685 1.610 . S
N1687 C1688 1.351 . S
C1688 C1682 1.428 . S
C1688 N1687 1.351 . S
C1688 C1689 1.434 . S
C1689 C1680 1.429 . S
C1689 N1686 1.350 . S
C1689 C1688 1.434 . S
C1690 C1691 1.369 . S
C1690 C1692 1.419 . S
C1690 H1694 0.930 . S
C1691 C1690 1.369 . S
C1691 C1700 1.429 . S
C1692 C1690 1.419 . S
C1692 C1693 1.363 . S
C1692 H1695 0.929 . S
C1693 C1692 1.363 . S
C1693 C1699 1.428 . S
H1694 C1690 0.930 . S
H1695 C1692 0.929 . S
S1696 N1697 1.613 . S
S1696 N1698 1.610 . S
N1697 S1696 1.613 . S
N1697 C1700 1.350 . S
N1698 S1696 1.610 . S
N1698 C1699 1.351 . S
C1699 C1693 1.428 . S
C1699 N1698 1.351 . S
C1699 C1700 1.434 . S
C1700 C1691 1.429 . S
C1700 N1697 1.350 . S
C1700 C1699 1.434 . S
C1701 C1702 1.369 . S
C1701 C1703 1.419 . S
C1701 H1705 0.930 . S
C1702 C1701 1.369 . S
C1702 C1711 1.429 . S
C1703 C1701 1.419 . S
C1703 C1704 1.363 . S
C1703 H1706 0.929 . S
C1704 C1703 1.363 . S
C1704 C1710 1.428 . S
H1705 C1701 0.930 . S
H1706 C1703 0.929 . S
S1707 N1708 1.613 . S
S1707 N1709 1.610 . S
N1708 S1707 1.613 . S
N1708 C1711 1.350 . S
N1709 S1707 1.610 . S
N1709 C1710 1.351 . S
C1710 C1704 1.428 . S
C1710 N1709 1.351 . S
C1710 C1711 1.434 . S
C1711 C1702 1.429 . S
C1711 N1708 1.350 . S
C1711 C1710 1.434 . S
C657 C105 1.573 1_455 S
C659 C340 1.326 1_556 S
C668 C65 1.584 . S
C670 C375 1.545 . S
C679 C73 1.253 . S
C681 C380 1.128 . S
C692 C405 1.378 . S
C690 C92 1.468 . S
C701 C17 1.512 . S
C703 C425 1.421 . S
C714 C440 1.118 . S
C712 C37 1.249 . S
C725 C475 1.564 . S
C723 C49 1.543 . S
C734 C8 1.566 . S
C736 C480 1.290 . S
C747 C355 1.640 1_655 S
C745 C231 1.701 . S
C756 C241 1.159 . S
C758 C365 1.079 . S
C769 C395 1.439 1_565 S
C767 C273 1.425 . S
C780 C400 1.197 . S
C778 C171 1.321 . S
C789 C227 1.305 . S
C791 C420 1.192 . S
C802 C455 1.452 . S
C800 C245 1.432 . S
C813 C465 1.085 . S
C811 C269 1.170 . S
C824 C495 1.635 . S
C822 C175 1.697 . S
C835 C345 1.377 . S
C833 C162 1.605 . S
C844 C289 1.800 . S
C846 C515 1.779 . S
C857 C525 1.480 . S
C855 C330 1.617 . S
C868 C540 1.075 . S
C866 C317 1.198 . S
C877 C120 1.577 . S
C879 C485 1.358 . S
C888 C134 1.635 . S
C890 C385 1.497 . S
C899 C331 1.766 . S
C901 C575 1.743 . S
C912 C580 1.069 . S
C910 C303 1.181 . S
C923 C338 1.329 . S
C921 C59 1.591 . S
C934 C594 1.576 . S
C932 C107 1.602 . S
C943 C91 1.227 . S
C945 C378 1.146 . S
C954 C78 1.489 . S
C956 C568 1.397 . S
C967 C428 1.463 . S
C965 C7 1.501 . S
C976 C51 1.261 . S
C978 C518 1.133 . S
C989 C474 1.587 1_556 S
C987 C31 1.623 . S
C1000 C598 1.290 . S
C998 C22 1.538 . S
C1011 C354 1.651 . S
C1009 C143 1.757 . S
C1022 C588 1.111 . S
C1020 C315 1.122 . S
C1031 C115 1.508 . S
C1033 C394 1.469 . S
C1042 C287 1.298 . S
C1044 C558 1.213 . S
C1053 C147 1.280 . S
C1055 C418 1.220 . S
C1066 C534 1.469 . S
C1064 C311 1.512 . S
C1075 C119 1.126 . S
C1077 C468 1.115 . S
C1086 C283 1.746 . S
C1088 C614 1.650 . S
C1097 C190 1.566 . S
C1099 C348 1.390 . S
C1108 C177 1.810 . S
C1110 C514 1.803 . S
C1119 C260 1.616 . S
C1121 C448 1.490 . S
C1130 C247 1.210 . S
C1132 C538 1.103 . S
C1143 C608 1.356 . S
C1141 C274 1.547 . S
C1152 C218 1.628 . S
C1154 C388 1.519 . S
C1165 C414 1.767 . S
C1163 C261 1.779 . S
C1176 C358 1.081 . S
C1174 C205 1.195 . S
C1185 C77 1.574 . S
C1187 C620 1.333 . S
C1198 C595 1.549 . S
C1196 C93 1.586 . S
C1207 C101 1.252 . S
C1209 C640 1.127 . S
C1218 C64 1.470 . S
C1220 C565 1.370 . S
C1229 C45 1.513 . S
C1231 C505 1.428 . S
C1242 C520 1.115 . S
C1240 C9 1.250 . S
C1253 C555 1.562 . S
C1251 C21 1.541 . S
C1264 C600 1.301 . S
C1262 C36 1.558 . S
C1275 C635 1.640 . S
C1273 C259 1.698 . S
C1284 C185 1.162 . S
C1286 C585 1.069 . S
C1297 C655 1.447 . S
C1295 C203 1.425 . S
C1308 C560 1.197 . S
C1306 C213 1.321 . S
C1319 C500 1.187 . S
C1317 C255 1.306 . S
C1328 C189 1.423 . S
C1330 C535 1.450 . S
C1341 C545 1.085 . S
C1339 C199 1.164 . S
C1350 C217 1.694 . S
C1352 C615 1.632 . S
C1363 C625 1.376 . S
C1361 C316 1.605 . S
C1372 C135 1.797 . S
C1374 C435 1.777 . S
C1385 C445 1.469 . S
C1383 C148 1.624 . S
C1396 C460 1.071 . S
C1394 C163 1.198 . S
C1407 C605 1.349 . S
C1405 C302 1.582 . S
C1416 C288 1.639 . S
C1418 C645 1.489 . S
C1429 C415 1.741 . S
C1427 C149 1.764 . S
C1440 C360 1.059 . S
C1438 C121 1.184 . S
C1449 C87 1.585 . S
C1451 C618 1.342 . S
C1462 C374 1.574 . S
C1460 C79 1.600 . S
C1471 C63 1.226 . S
C1473 C638 1.147 . S
C1482 C106 1.486 . S
C1484 C408 1.402 . S
C1493 C35 1.507 . S
C1495 C508 1.456 . S
C1506 C438 1.133 . S
C1504 C23 1.261 . S
C1515 C3 1.624 . S
C1517 C554 1.589 . S
C1526 C50 1.528 . S
C1528 C478 1.305 . S
C1539 C634 1.658 . S
C1537 C325 1.754 . S
C1548 C161 1.134 . S
C1550 C368 1.098 . S
C1561 C654 1.470 1_655 S
C1559 C297 1.507 . S
C1570 C133 1.291 . S
C1572 C398 1.225 . S
C1581 C329 1.285 . S
C1583 C498 1.214 . S
C1594 C454 1.475 . S
C1592 C157 1.513 . S
C1603 C301 1.140 . S
C1605 C548 1.102 . S
C1616 C494 1.641 . S
C1614 C129 1.748 . S
C1627 C628 1.394 . S
C1625 C246 1.564 . S
C1638 C434 1.803 . S
C1636 C219 1.810 . S
C1647 C232 1.615 . S
C1649 C528 1.490 . S
C1660 C458 1.092 . S
C1658 C191 1.211 . S
C1669 C204 1.547 . S
C1671 C488 1.353 . S
C1680 C176 1.633 . S
C1682 C648 1.516 . S
C1693 C574 1.765 . S
C1691 C233 1.777 . S
C1704 C578 1.079 . S
C1702 C275 1.193 . S
