# Generated by pormake.
# Topology gar, (4,6)-cn, num edge types: 1
# Building blocks:
#     Node 0, Type 0, BuildingBlock: NAHDIM_clean_sbu_0, # of connection points: 4
#     Node 1, Type 0, BuildingBlock: NAHDIM_clean_sbu_0, # of connection points: 4
#     Node 2, Type 0, BuildingBlock: NAHDIM_clean_sbu_0, # of connection points: 4
#     Node 3, Type 0, BuildingBlock: NAHDIM_clean_sbu_0, # of connection points: 4
#     Node 4, Type 0, BuildingBlock: NAHDIM_clean_sbu_0, # of connection points: 4
#     Node 5, Type 0, BuildingBlock: NAHDIM_clean_sbu_0, # of connection points: 4
#     Node 6, Type 0, BuildingBlock: NAHDIM_clean_sbu_0, # of connection points: 4
#     Node 7, Type 0, BuildingBlock: NAHDIM_clean_sbu_0, # of connection points: 4
#     Node 8, Type 0, BuildingBlock: NAHDIM_clean_sbu_0, # of connection points: 4
#     Node 9, Type 0, BuildingBlock: NAHDIM_clean_sbu_0, # of connection points: 4
#     Node 10, Type 0, BuildingBlock: NAHDIM_clean_sbu_0, # of connection points: 4
#     Node 11, Type 0, BuildingBlock: NAHDIM_clean_sbu_0, # of connection points: 4
#     Node 12, Type 0, BuildingBlock: NAHDIM_clean_sbu_0, # of connection points: 4
#     Node 13, Type 0, BuildingBlock: NAHDIM_clean_sbu_0, # of connection points: 4
#     Node 14, Type 0, BuildingBlock: NAHDIM_clean_sbu_0, # of connection points: 4
#     Node 15, Type 0, BuildingBlock: NAHDIM_clean_sbu_0, # of connection points: 4
#     Node 16, Type 0, BuildingBlock: NAHDIM_clean_sbu_0, # of connection points: 4
#     Node 17, Type 0, BuildingBlock: NAHDIM_clean_sbu_0, # of connection points: 4
#     Node 18, Type 0, BuildingBlock: NAHDIM_clean_sbu_0, # of connection points: 4
#     Node 19, Type 0, BuildingBlock: NAHDIM_clean_sbu_0, # of connection points: 4
#     Node 20, Type 0, BuildingBlock: NAHDIM_clean_sbu_0, # of connection points: 4
#     Node 21, Type 0, BuildingBlock: NAHDIM_clean_sbu_0, # of connection points: 4
#     Node 22, Type 0, BuildingBlock: NAHDIM_clean_sbu_0, # of connection points: 4
#     Node 23, Type 0, BuildingBlock: NAHDIM_clean_sbu_0, # of connection points: 4
#     Node 24, Type 1, BuildingBlock: CUKXOW_clean_sbu_0, # of connection points: 6
#     Node 25, Type 1, BuildingBlock: CUKXOW_clean_sbu_0, # of connection points: 6
#     Node 26, Type 1, BuildingBlock: CUKXOW_clean_sbu_0, # of connection points: 6
#     Node 27, Type 1, BuildingBlock: CUKXOW_clean_sbu_0, # of connection points: 6
#     Node 28, Type 1, BuildingBlock: CUKXOW_clean_sbu_0, # of connection points: 6
#     Node 29, Type 1, BuildingBlock: CUKXOW_clean_sbu_0, # of connection points: 6
#     Node 30, Type 1, BuildingBlock: CUKXOW_clean_sbu_0, # of connection points: 6
#     Node 31, Type 1, BuildingBlock: CUKXOW_clean_sbu_0, # of connection points: 6
#     Node 32, Type 1, BuildingBlock: CUKXOW_clean_sbu_0, # of connection points: 6
#     Node 33, Type 1, BuildingBlock: CUKXOW_clean_sbu_0, # of connection points: 6
#     Node 34, Type 1, BuildingBlock: CUKXOW_clean_sbu_0, # of connection points: 6
#     Node 35, Type 1, BuildingBlock: CUKXOW_clean_sbu_0, # of connection points: 6
#     Node 36, Type 1, BuildingBlock: CUKXOW_clean_sbu_0, # of connection points: 6
#     Node 37, Type 1, BuildingBlock: CUKXOW_clean_sbu_0, # of connection points: 6
#     Node 38, Type 1, BuildingBlock: CUKXOW_clean_sbu_0, # of connection points: 6
#     Node 39, Type 1, BuildingBlock: CUKXOW_clean_sbu_0, # of connection points: 6
#     Edge 40, Type (0, 1), BuildingBlock: CIFDUS_clean_linker_0, # of connection points: 2
#     Edge 41, Type (0, 1), BuildingBlock: CIFDUS_clean_linker_0, # of connection points: 2
#     Edge 42, Type (0, 1), BuildingBlock: CIFDUS_clean_linker_0, # of connection points: 2
#     Edge 43, Type (0, 1), BuildingBlock: CIFDUS_clean_linker_0, # of connection points: 2
#     Edge 44, Type (0, 1), BuildingBlock: CIFDUS_clean_linker_0, # of connection points: 2
#     Edge 45, Type (0, 1), BuildingBlock: CIFDUS_clean_linker_0, # of connection points: 2
#     Edge 46, Type (0, 1), BuildingBlock: CIFDUS_clean_linker_0, # of connection points: 2
#     Edge 47, Type (0, 1), BuildingBlock: CIFDUS_clean_linker_0, # of connection points: 2
#     Edge 48, Type (0, 1), BuildingBlock: CIFDUS_clean_linker_0, # of connection points: 2
#     Edge 49, Type (0, 1), BuildingBlock: CIFDUS_clean_linker_0, # of connection points: 2
#     Edge 50, Type (0, 1), BuildingBlock: CIFDUS_clean_linker_0, # of connection points: 2
#     Edge 51, Type (0, 1), BuildingBlock: CIFDUS_clean_linker_0, # of connection points: 2
#     Edge 52, Type (0, 1), BuildingBlock: CIFDUS_clean_linker_0, # of connection points: 2
#     Edge 53, Type (0, 1), BuildingBlock: CIFDUS_clean_linker_0, # of connection points: 2
#     Edge 54, Type (0, 1), BuildingBlock: CIFDUS_clean_linker_0, # of connection points: 2
#     Edge 55, Type (0, 1), BuildingBlock: CIFDUS_clean_linker_0, # of connection points: 2
#     Edge 56, Type (0, 1), BuildingBlock: CIFDUS_clean_linker_0, # of connection points: 2
#     Edge 57, Type (0, 1), BuildingBlock: CIFDUS_clean_linker_0, # of connection points: 2
#     Edge 58, Type (0, 1), BuildingBlock: CIFDUS_clean_linker_0, # of connection points: 2
#     Edge 59, Type (0, 1), BuildingBlock: CIFDUS_clean_linker_0, # of connection points: 2
#     Edge 60, Type (0, 1), BuildingBlock: CIFDUS_clean_linker_0, # of connection points: 2
#     Edge 61, Type (0, 1), BuildingBlock: CIFDUS_clean_linker_0, # of connection points: 2
#     Edge 62, Type (0, 1), BuildingBlock: CIFDUS_clean_linker_0, # of connection points: 2
#     Edge 63, Type (0, 1), BuildingBlock: CIFDUS_clean_linker_0, # of connection points: 2
#     Edge 64, Type (0, 1), BuildingBlock: CIFDUS_clean_linker_0, # of connection points: 2
#     Edge 65, Type (0, 1), BuildingBlock: CIFDUS_clean_linker_0, # of connection points: 2
#     Edge 66, Type (0, 1), BuildingBlock: CIFDUS_clean_linker_0, # of connection points: 2
#     Edge 67, Type (0, 1), BuildingBlock: CIFDUS_clean_linker_0, # of connection points: 2
#     Edge 68, Type (0, 1), BuildingBlock: CIFDUS_clean_linker_0, # of connection points: 2
#     Edge 69, Type (0, 1), BuildingBlock: CIFDUS_clean_linker_0, # of connection points: 2
#     Edge 70, Type (0, 1), BuildingBlock: CIFDUS_clean_linker_0, # of connection points: 2
#     Edge 71, Type (0, 1), BuildingBlock: CIFDUS_clean_linker_0, # of connection points: 2
#     Edge 72, Type (0, 1), BuildingBlock: CIFDUS_clean_linker_0, # of connection points: 2
#     Edge 73, Type (0, 1), BuildingBlock: CIFDUS_clean_linker_0, # of connection points: 2
#     Edge 74, Type (0, 1), BuildingBlock: CIFDUS_clean_linker_0, # of connection points: 2
#     Edge 75, Type (0, 1), BuildingBlock: CIFDUS_clean_linker_0, # of connection points: 2
#     Edge 76, Type (0, 1), BuildingBlock: CIFDUS_clean_linker_0, # of connection points: 2
#     Edge 77, Type (0, 1), BuildingBlock: CIFDUS_clean_linker_0, # of connection points: 2
#     Edge 78, Type (0, 1), BuildingBlock: CIFDUS_clean_linker_0, # of connection points: 2
#     Edge 79, Type (0, 1), BuildingBlock: CIFDUS_clean_linker_0, # of connection points: 2
#     Edge 80, Type (0, 1), BuildingBlock: CIFDUS_clean_linker_0, # of connection points: 2
#     Edge 81, Type (0, 1), BuildingBlock: CIFDUS_clean_linker_0, # of connection points: 2
#     Edge 82, Type (0, 1), BuildingBlock: CIFDUS_clean_linker_0, # of connection points: 2
#     Edge 83, Type (0, 1), BuildingBlock: CIFDUS_clean_linker_0, # of connection points: 2
#     Edge 84, Type (0, 1), BuildingBlock: CIFDUS_clean_linker_0, # of connection points: 2
#     Edge 85, Type (0, 1), BuildingBlock: CIFDUS_clean_linker_0, # of connection points: 2
#     Edge 86, Type (0, 1), BuildingBlock: CIFDUS_clean_linker_0, # of connection points: 2
#     Edge 87, Type (0, 1), BuildingBlock: CIFDUS_clean_linker_0, # of connection points: 2
#     Edge 88, Type (0, 1), BuildingBlock: CIFDUS_clean_linker_0, # of connection points: 2
#     Edge 89, Type (0, 1), BuildingBlock: CIFDUS_clean_linker_0, # of connection points: 2
#     Edge 90, Type (0, 1), BuildingBlock: CIFDUS_clean_linker_0, # of connection points: 2
#     Edge 91, Type (0, 1), BuildingBlock: CIFDUS_clean_linker_0, # of connection points: 2
#     Edge 92, Type (0, 1), BuildingBlock: CIFDUS_clean_linker_0, # of connection points: 2
#     Edge 93, Type (0, 1), BuildingBlock: CIFDUS_clean_linker_0, # of connection points: 2
#     Edge 94, Type (0, 1), BuildingBlock: CIFDUS_clean_linker_0, # of connection points: 2
#     Edge 95, Type (0, 1), BuildingBlock: CIFDUS_clean_linker_0, # of connection points: 2
#     Edge 96, Type (0, 1), BuildingBlock: CIFDUS_clean_linker_0, # of connection points: 2
#     Edge 97, Type (0, 1), BuildingBlock: CIFDUS_clean_linker_0, # of connection points: 2
#     Edge 98, Type (0, 1), BuildingBlock: CIFDUS_clean_linker_0, # of connection points: 2
#     Edge 99, Type (0, 1), BuildingBlock: CIFDUS_clean_linker_0, # of connection points: 2
#     Edge 100, Type (0, 1), BuildingBlock: CIFDUS_clean_linker_0, # of connection points: 2
#     Edge 101, Type (0, 1), BuildingBlock: CIFDUS_clean_linker_0, # of connection points: 2
#     Edge 102, Type (0, 1), BuildingBlock: CIFDUS_clean_linker_0, # of connection points: 2
#     Edge 103, Type (0, 1), BuildingBlock: CIFDUS_clean_linker_0, # of connection points: 2
#     Edge 104, Type (0, 1), BuildingBlock: CIFDUS_clean_linker_0, # of connection points: 2
#     Edge 105, Type (0, 1), BuildingBlock: CIFDUS_clean_linker_0, # of connection points: 2
#     Edge 106, Type (0, 1), BuildingBlock: CIFDUS_clean_linker_0, # of connection points: 2
#     Edge 107, Type (0, 1), BuildingBlock: CIFDUS_clean_linker_0, # of connection points: 2
#     Edge 108, Type (0, 1), BuildingBlock: CIFDUS_clean_linker_0, # of connection points: 2
#     Edge 109, Type (0, 1), BuildingBlock: CIFDUS_clean_linker_0, # of connection points: 2
#     Edge 110, Type (0, 1), BuildingBlock: CIFDUS_clean_linker_0, # of connection points: 2
#     Edge 111, Type (0, 1), BuildingBlock: CIFDUS_clean_linker_0, # of connection points: 2
#     Edge 112, Type (0, 1), BuildingBlock: CIFDUS_clean_linker_0, # of connection points: 2
#     Edge 113, Type (0, 1), BuildingBlock: CIFDUS_clean_linker_0, # of connection points: 2
#     Edge 114, Type (0, 1), BuildingBlock: CIFDUS_clean_linker_0, # of connection points: 2
#     Edge 115, Type (0, 1), BuildingBlock: CIFDUS_clean_linker_0, # of connection points: 2
#     Edge 116, Type (0, 1), BuildingBlock: CIFDUS_clean_linker_0, # of connection points: 2
#     Edge 117, Type (0, 1), BuildingBlock: CIFDUS_clean_linker_0, # of connection points: 2
#     Edge 118, Type (0, 1), BuildingBlock: CIFDUS_clean_linker_0, # of connection points: 2
#     Edge 119, Type (0, 1), BuildingBlock: CIFDUS_clean_linker_0, # of connection points: 2
#     Edge 120, Type (0, 1), BuildingBlock: CIFDUS_clean_linker_0, # of connection points: 2
#     Edge 121, Type (0, 1), BuildingBlock: CIFDUS_clean_linker_0, # of connection points: 2
#     Edge 122, Type (0, 1), BuildingBlock: CIFDUS_clean_linker_0, # of connection points: 2
#     Edge 123, Type (0, 1), BuildingBlock: CIFDUS_clean_linker_0, # of connection points: 2
#     Edge 124, Type (0, 1), BuildingBlock: CIFDUS_clean_linker_0, # of connection points: 2
#     Edge 125, Type (0, 1), BuildingBlock: CIFDUS_clean_linker_0, # of connection points: 2
#     Edge 126, Type (0, 1), BuildingBlock: CIFDUS_clean_linker_0, # of connection points: 2
#     Edge 127, Type (0, 1), BuildingBlock: CIFDUS_clean_linker_0, # of connection points: 2
#     Edge 128, Type (0, 1), BuildingBlock: CIFDUS_clean_linker_0, # of connection points: 2
#     Edge 129, Type (0, 1), BuildingBlock: CIFDUS_clean_linker_0, # of connection points: 2
#     Edge 130, Type (0, 1), BuildingBlock: CIFDUS_clean_linker_0, # of connection points: 2
#     Edge 131, Type (0, 1), BuildingBlock: CIFDUS_clean_linker_0, # of connection points: 2
#     Edge 132, Type (0, 1), BuildingBlock: CIFDUS_clean_linker_0, # of connection points: 2
#     Edge 133, Type (0, 1), BuildingBlock: CIFDUS_clean_linker_0, # of connection points: 2
#     Edge 134, Type (0, 1), BuildingBlock: CIFDUS_clean_linker_0, # of connection points: 2
#     Edge 135, Type (0, 1), BuildingBlock: CIFDUS_clean_linker_0, # of connection points: 2
# Relax obj value: 0.126
# Max RMSD: 0.226
# Mean RMSD: 0.152
data_MOF--net-gar--node1-NAHDIM_clean_sbu_0--node2-CUKXOW_clean_sbu_0--edge1-CIFDUS_clean_linker_0
_symmetry_space_group_name_H-M    P1
_symmetry_Int_Tables_number       1
_symmetry_cell_setting            triclinic
loop_
_symmetry_equiv_pos_as_xyz
'x, y, z'
_cell_length_a     49.436902
_cell_length_b     47.027602
_cell_length_c     46.1818
_cell_angle_alpha  93.95884
_cell_angle_beta   95.559357
_cell_angle_gamma 99.395201
loop_
_atom_site_label
_atom_site_type_symbol
_atom_site_fract_x
_atom_site_fract_y
_atom_site_fract_z
_atom_type_partial_charge
C0 C 0.05845 0.24321 0.37397 0.0
O1 O 0.04439 0.22292 0.38736 0.0
O2 O 0.02389 0.25088 0.43568 0.0
Zn3 Zn 0.0311 0.28151 0.40786 0.0
O4 O 0.04639 0.32098 0.42829 0.0
C5 C 0.97799 0.26079 0.37769 0.0
O6 O 0.98363 0.2361 0.38613 0.0
O7 O 0.05637 0.26955 0.37978 0.0
C8 C 0.04026 0.32793 0.45361 0.0
O9 O 0.02507 0.30845 0.46696 0.0
C10 C 0.04297 0.24449 0.45311 0.0
O11 O 0.06789 0.25978 0.45464 0.0
O12 O 0.99551 0.28375 0.38458 0.0
C13 C 0.95995 0.78672 0.65365 0.0
O14 O 0.9773 0.76832 0.65345 0.0
O15 O 0.97789 0.7613 0.58009 0.0
Zn16 Zn 0.98411 0.80071 0.60227 0.0
O17 O 0.98162 0.83284 0.57598 0.0
C18 C 0.04445 0.81788 0.61681 0.0
O19 O 0.04489 0.82839 0.5912 0.0
O20 O 0.95802 0.80259 0.63262 0.0
C21 C 0.99229 0.85827 0.58668 0.0
O22 O 1.00365 0.86231 0.61388 0.0
C23 C 0.99321 0.75729 0.56014 0.0
O24 O 0.01035 0.77949 0.5531 0.0
O25 O 0.0217 0.80602 0.62473 0.0
C26 C 0.56052 0.78659 0.86148 0.0
O27 O 0.5435 0.80468 0.85561 0.0
O28 O 0.52191 0.73932 0.93035 0.0
Zn29 Zn 0.52631 0.77363 0.90703 0.0
O30 O 0.53258 0.80979 0.93419 0.0
C31 C 0.47116 0.75462 0.87646 0.0
O32 O 0.47091 0.73142 0.89081 0.0
O33 O 0.55758 0.77163 0.88316 0.0
C34 C 0.51512 0.81104 0.95251 0.0
O35 O 0.49552 0.78862 0.95316 0.0
C36 C 0.54197 0.7369 0.94882 0.0
O37 O 0.56429 0.75679 0.95163 0.0
O38 O 0.49232 0.77433 0.8801 0.0
C39 C 0.4503 0.26665 0.13854 0.0
O40 O 0.45868 0.24304 0.12877 0.0
O41 O 0.49308 0.26071 0.07905 0.0
Zn42 Zn 0.48968 0.2968 0.10298 0.0
O43 O 0.48289 0.32778 0.07715 0.0
C44 C 0.53154 0.29037 0.146 0.0
O45 O 0.5144 0.26593 0.14616 0.0
O46 O 0.45989 0.29077 0.12954 0.0
C47 C 0.50321 0.34428 0.06908 0.0
O48 O 0.52837 0.34021 0.07739 0.0
C49 C 0.47367 0.24306 0.06426 0.0
O50 O 0.44822 0.24797 0.06359 0.0
O51 O 0.52542 0.30867 0.12858 0.0
C52 C 0.94401 0.76271 0.1775 0.0
O53 O 0.94127 0.7577 0.14893 0.0
O54 O 1.00103 0.73131 0.14313 0.0
Zn55 Zn 1.00192 0.76909 0.16832 0.0
O56 O 1.00178 0.80208 0.14186 0.0
C57 C 0.0516 0.75991 0.20576 0.0
O58 O 0.04055 0.73237 0.20182 0.0
O59 O 0.96822 0.76751 0.19114 0.0
C60 C 0.02445 0.81835 0.13897 0.0
O61 O 0.04741 0.81302 0.15258 0.0
C62 C 0.01765 0.73193 0.12367 0.0
O63 O 0.03406 0.75635 0.12114 0.0
O64 O 0.03825 0.77843 0.19516 0.0
C65 C 0.58864 0.79019 0.34874 0.0
O66 O 0.59177 0.78213 0.37535 0.0
O67 O 0.53226 0.75591 0.38662 0.0
Zn68 Zn 0.53342 0.79238 0.3649 0.0
O69 O 0.53779 0.82795 0.3942 0.0
C70 C 0.48037 0.76422 0.33329 0.0
O71 O 0.4899 0.74064 0.33962 0.0
O72 O 0.56529 0.796 0.33905 0.0
C73 C 0.52496 0.84854 0.38806 0.0
O74 O 0.51024 0.84675 0.36254 0.0
C75 C 0.54284 0.75365 0.41245 0.0
O76 O 0.55711 0.77671 0.42786 0.0
O77 O 0.4957 0.78869 0.34061 0.0
C78 C 0.43919 0.25129 0.67477 0.0
O79 O 0.43616 0.24013 0.64754 0.0
O80 O 0.4944 0.21951 0.64097 0.0
Zn81 Zn 0.49733 0.25857 0.66465 0.0
O82 O 0.49798 0.29101 0.63737 0.0
C83 C 0.54362 0.24357 0.70167 0.0
O84 O 0.52841 0.21773 0.69638 0.0
O85 O 0.46358 0.25985 0.68744 0.0
C86 C 0.51189 0.31571 0.64661 0.0
O87 O 0.52552 0.31894 0.67283 0.0
C88 C 0.5076 0.2172 0.61878 0.0
O89 O 0.52185 0.24066 0.6103 0.0
O90 O 0.53426 0.26498 0.69146 0.0
C91 C 0.08395 0.30628 0.84697 0.0
O92 O 0.09008 0.31694 0.87431 0.0
O93 O 0.02676 0.26301 0.88645 0.0
Zn94 Zn 0.02657 0.29756 0.86277 0.0
O95 O 0.02932 0.33359 0.89113 0.0
C96 C 0.97272 0.26711 0.83506 0.0
O97 O 0.98225 0.24473 0.84493 0.0
O98 O 0.05862 0.29813 0.83713 0.0
C99 C 0.01233 0.33106 0.91026 0.0
O100 O 0.99544 0.30636 0.91008 0.0
C101 C 0.03951 0.26204 0.91155 0.0
O102 O 0.05528 0.28547 0.92468 0.0
O103 O 0.98839 0.2918 0.83861 0.0
C104 C 0.3846 0.12342 0.26754 0.0
O105 O 0.40799 0.12977 0.28462 0.0
O106 O 0.42302 0.06323 0.22141 0.0
Zn107 Zn 0.40119 0.0663 0.25663 0.0
O108 O 0.42556 0.06986 0.29574 0.0
C109 C 0.36216 0.01539 0.23218 0.0
O110 O 0.36794 0.02517 0.20713 0.0
O111 O 0.37829 0.09858 0.25354 0.0
C112 C 0.41391 0.07156 0.31907 0.0
O113 O 0.38738 0.07257 0.31684 0.0
C114 C 0.44884 0.063 0.22372 0.0
O115 O 0.46252 0.06584 0.24989 0.0
O116 O 0.37398 0.02932 0.25582 0.0
C117 C 0.33961 0.14328 0.54949 0.0
O118 O 0.3347 0.1645 0.56711 0.0
O119 O 0.2942 0.19153 0.53869 0.0
Zn120 Zn 0.2965 0.15891 0.51 0.0
O121 O 0.302 0.17607 0.47206 0.0
C122 C 0.24185 0.12684 0.48687 0.0
O123 O 0.24563 0.13929 0.46266 0.0
O124 O 0.32654 0.13783 0.5241 0.0
C125 C 0.28732 0.19524 0.46635 0.0
O126 O 0.26951 0.20094 0.48435 0.0
C127 C 0.31135 0.21503 0.54293 0.0
O128 O 0.33356 0.21835 0.52918 0.0
O129 O 0.2607 0.1317 0.50818 0.0
C130 C 0.19057 0.97195 0.79068 0.0
O131 O 0.18058 0.9793 0.7654 0.0
O132 O 0.14024 0.01358 0.77233 0.0
Zn133 Zn 0.16207 0.01643 0.81206 0.0
O134 O 0.13549 0.01311 0.84249 0.0
C135 C 0.19768 0.06634 0.79711 0.0
O136 O 0.19576 0.0499 0.77255 0.0
O137 O 0.18557 0.98509 0.81405 0.0
C138 C 0.12059 0.03267 0.84378 0.0
O139 O 0.12407 0.05344 0.82615 0.0
C140 C 0.11444 0.00455 0.76685 0.0
O141 O 0.10009 0.99512 0.78779 0.0
O142 O 0.18569 0.05618 0.81824 0.0
C143 C 0.16687 0.92227 0.05318 0.0
O144 O 0.16899 0.90492 0.07409 0.0
O145 O 0.21326 0.8692 0.06593 0.0
Zn146 Zn 0.21345 0.89612 0.03189 0.0
O147 O 0.20894 0.87208 0.9921 0.0
C148 C 0.26634 0.93557 0.05477 0.0
O149 O 0.25662 0.93611 0.08026 0.0
O150 O 0.18318 0.92212 0.03336 0.0
C151 C 0.22817 0.85787 0.98733 0.0
O152 O 0.24797 0.858 0.00849 0.0
C153 C 0.23529 0.86339 0.07936 0.0
O154 O 0.25919 0.87434 0.0711 0.0
O155 O 0.2515 0.9213 0.03279 0.0
C156 C 0.21294 0.43253 0.0235 0.0
O157 O 0.2135 0.40765 0.00902 0.0
O158 O 0.25279 0.39141 0.08473 0.0
Zn159 Zn 0.26097 0.41793 0.0538 0.0
O160 O 0.2616 0.39149 0.01862 0.0
C161 C 0.31846 0.43625 0.07719 0.0
O162 O 0.31499 0.41245 0.0907 0.0
O163 O 0.2312 0.44172 0.0449 0.0
C164 C 0.27655 0.37213 0.0165 0.0
O165 O 0.29519 0.3697 0.03804 0.0
C166 C 0.22872 0.37716 0.08528 0.0
O167 O 0.208 0.38277 0.06788 0.0
O168 O 0.29809 0.44302 0.06186 0.0
C169 C 0.84875 0.13678 0.01032 0.0
O170 O 0.85954 0.16441 0.01333 0.0
O171 O 0.80421 0.18392 0.0478 0.0
Zn172 Zn 0.79592 0.15918 0.00846 0.0
O173 O 0.79699 0.18381 0.97292 0.0
C174 C 0.73601 0.1486 0.99804 0.0
O175 O 0.74072 0.17433 0.98831 0.0
O176 O 0.82254 0.12961 0.00731 0.0
C177 C 0.78524 0.17198 0.94818 0.0
O178 O 0.77491 0.14424 0.94603 0.0
C179 C 0.79192 0.2051 0.0536 0.0
O180 O 0.77518 0.21282 0.03288 0.0
O181 O 0.75641 0.13725 0.00775 0.0
C182 C 0.15063 0.43194 0.2795 0.0
O183 O 0.13175 0.42821 0.25688 0.0
O184 O 0.11014 0.48182 0.25056 0.0
Zn185 Zn 0.12705 0.48414 0.29324 0.0
O186 O 0.09866 0.48138 0.32359 0.0
C187 C 0.16985 0.52992 0.28227 0.0
O188 O 0.17113 0.51154 0.25989 0.0
O189 O 0.15185 0.45355 0.29809 0.0
C190 C 0.0945 0.50395 0.33834 0.0
O191 O 0.10765 0.52929 0.33291 0.0
C192 C 0.08578 0.48472 0.24099 0.0
O193 O 0.06796 0.48825 0.2597 0.0
O194 O 0.15245 0.5229 0.30023 0.0
C195 C 0.73633 0.95021 0.52788 0.0
O196 O 0.73963 0.93142 0.50669 0.0
O197 O 0.78143 0.90677 0.58953 0.0
Zn198 Zn 0.78384 0.93091 0.5559 0.0
O199 O 0.78238 0.90326 0.52096 0.0
C200 C 0.84067 0.95187 0.57737 0.0
O201 O 0.83682 0.92973 0.59322 0.0
O202 O 0.75275 0.95364 0.55131 0.0
C203 C 0.79705 0.88348 0.52075 0.0
O204 O 0.81447 0.88175 0.54366 0.0
C205 C 0.76496 0.88289 0.58835 0.0
O206 O 0.74606 0.87531 0.56592 0.0
O207 O 0.82061 0.95713 0.56035 0.0
C208 C 0.83918 0.10943 0.245 0.0
O209 O 0.86576 0.11973 0.24885 0.0
O210 O 0.88271 0.06164 0.20811 0.0
Zn211 Zn 0.86125 0.05776 0.24354 0.0
O212 O 0.88609 0.07053 0.28097 0.0
C213 C 0.83669 0.9982 0.22364 0.0
O214 O 0.83964 0.00708 0.19759 0.0
O215 O 0.8314 0.08221 0.24134 0.0
C216 C 0.90517 0.0565 0.28833 0.0
O217 O 0.9087 0.03443 0.27089 0.0
C218 C 0.90788 0.0736 0.20915 0.0
O219 O 0.92131 0.08501 0.23427 0.0
O220 O 0.84422 0.01608 0.24598 0.0
C221 C 0.36681 0.65265 0.51585 0.0
O222 O 0.37353 0.67935 0.52785 0.0
O223 O 0.31719 0.69093 0.55072 0.0
Zn224 Zn 0.31123 0.66713 0.51093 0.0
O225 O 0.30714 0.69119 0.47562 0.0
C226 C 0.25234 0.64705 0.50377 0.0
O227 O 0.25215 0.67211 0.49293 0.0
O228 O 0.34163 0.64292 0.50684 0.0
C229 C 0.29565 0.67811 0.4513 0.0
O230 O 0.28804 0.64988 0.44961 0.0
C231 C 0.30156 0.70911 0.55652 0.0
O232 O 0.28403 0.71492 0.53544 0.0
O233 O 0.27528 0.63976 0.51227 0.0
C234 C 0.31407 0.60399 0.74392 0.0
O235 O 0.32046 0.5946 0.76942 0.0
O236 O 0.37292 0.55907 0.69684 0.0
Zn237 Zn 0.34988 0.56579 0.72968 0.0
O238 O 0.37486 0.57994 0.76623 0.0
C239 C 0.31819 0.50847 0.7169 0.0
O240 O 0.31883 0.51558 0.68992 0.0
O241 O 0.3241 0.59414 0.72175 0.0
C242 C 0.39307 0.56473 0.77307 0.0
O243 O 0.39531 0.54247 0.75516 0.0
C244 C 0.39632 0.57403 0.69431 0.0
O245 O 0.40568 0.59703 0.71249 0.0
O246 O 0.32914 0.52708 0.73771 0.0
C247 C 0.64075 0.92441 0.77362 0.0
O248 O 0.61775 0.9179 0.75591 0.0
O249 O 0.59847 0.97224 0.74349 0.0
Zn250 Zn 0.6201 0.97872 0.78425 0.0
O251 O 0.59409 0.977 0.81662 0.0
C252 C 0.63344 0.03809 0.77253 0.0
O253 O 0.60758 0.03208 0.76111 0.0
O254 O 0.64593 0.94888 0.78852 0.0
C255 C 0.59373 0.9985 0.83493 0.0
O256 O 0.61079 0.02273 0.83333 0.0
C257 C 0.57303 0.97391 0.73825 0.0
O258 O 0.5587 0.97772 0.7603 0.0
O259 O 0.64387 0.01873 0.78549 0.0
C260 C 0.79701 0.59416 0.99997 0.0
O261 O 0.78116 0.5945 0.0212 0.0
O262 O 0.76356 0.64881 0.02246 0.0
Zn263 Zn 0.76424 0.63376 0.98134 0.0
O264 O 0.7694 0.66803 0.9578 0.0
C265 C 0.70777 0.61285 0.9544 0.0
O266 O 0.71056 0.63581 0.93958 0.0
O267 O 0.79395 0.6101 0.97922 0.0
C268 C 0.75554 0.68806 0.9627 0.0
O269 O 0.73732 0.685 0.98166 0.0
C270 C 0.77994 0.67099 0.0344 0.0
O271 O 0.79917 0.68399 0.01976 0.0
O272 O 0.72811 0.60786 0.971 0.0
C273 C 0.88514 0.62143 0.76799 0.0
O274 O 0.90528 0.62792 0.78935 0.0
O275 O 0.93142 0.56413 0.72478 0.0
Zn276 Zn 0.90721 0.56675 0.75836 0.0
O277 O 0.93027 0.57292 0.79851 0.0
C278 C 0.87184 0.51273 0.73459 0.0
O279 O 0.88005 0.52078 0.70973 0.0
O280 O 0.88281 0.59761 0.75232 0.0
C281 C 0.95238 0.56239 0.80272 0.0
O282 O 0.96112 0.5491 0.78039 0.0
C283 C 0.94494 0.58651 0.71557 0.0
O284 O 0.94365 0.61203 0.72833 0.0
O285 O 0.88093 0.52871 0.75798 0.0
C286 C 0.67099 0.41753 0.5318 0.0
O287 O 0.65974 0.3906 0.5233 0.0
O288 O 0.72762 0.37468 0.57152 0.0
Zn289 Zn 0.72576 0.39709 0.53462 0.0
O290 O 0.72145 0.37113 0.49572 0.0
C291 C 0.78154 0.43004 0.55423 0.0
O292 O 0.77902 0.419 0.57939 0.0
O293 O 0.69712 0.42399 0.53701 0.0
C294 C 0.74386 0.36438 0.48793 0.0
O295 O 0.76672 0.37306 0.50543 0.0
C296 C 0.74261 0.35552 0.57657 0.0
O297 O 0.75761 0.34772 0.55645 0.0
O298 O 0.76173 0.4241 0.53395 0.0
C299 C 0.6711 0.4654 0.28088 0.0
O300 O 0.65578 0.4667 0.25629 0.0
O301 O 0.62594 0.51263 0.25977 0.0
Zn302 Zn 0.64673 0.5145 0.29997 0.0
O303 O 0.61932 0.51059 0.3296 0.0
C304 C 0.68948 0.56177 0.29155 0.0
O305 O 0.69275 0.54408 0.26936 0.0
O306 O 0.67028 0.48339 0.3025 0.0
C307 C 0.60453 0.53021 0.33155 0.0
O308 O 0.60851 0.55186 0.31503 0.0
C309 C 0.6003 0.50252 0.25468 0.0
O310 O 0.58681 0.49186 0.27571 0.0
O311 O 0.67112 0.55361 0.3081 0.0
Tb312 Tb 0.02801 0.07199 0.02324 0.0
C313 C 0.02841 0.02204 0.97465 0.0
Tb314 Tb 0.00702 0.00825 0.0353 0.0
O315 O 0.07031 0.06408 0.02166 0.0
O316 O 0.04382 0.03902 0.04562 0.0
O317 O 0.02577 0.0494 0.98035 0.0
C318 C 0.00569 0.95453 0.05078 0.0
O319 O 0.02405 1.00233 0.99371 0.0
C320 C 0.96798 0.03882 0.02109 0.0
C321 C 1.00406 0.05822 0.0829 0.0
O322 O 0.98742 0.96243 0.0322 0.0
O323 O 0.02435 0.97671 0.06025 0.0
O324 O 0.96393 0.01571 0.03512 0.0
O325 O 0.99179 0.04107 0.01282 0.0
O326 O 0.00618 0.03058 0.07796 0.0
O327 O 0.0089 0.07768 0.06365 0.0
C328 C 0.03312 0.12515 0.00517 0.0
O329 O 0.04404 0.11885 0.03023 0.0
O330 O 0.01932 0.10177 0.99093 0.0
C331 C 0.06708 0.04118 0.03593 0.0
Tb332 Tb 0.27194 0.80893 0.27508 0.0
C333 C 0.32444 0.77831 0.27835 0.0
Tb334 Tb 0.26349 0.74304 0.26431 0.0
O335 O 0.28912 0.80849 0.32019 0.0
O336 O 0.26064 0.77317 0.29992 0.0
O337 O 0.31465 0.80256 0.27379 0.0
C338 C 0.2558 0.68577 0.26805 0.0
O339 O 0.30804 0.75278 0.27778 0.0
C340 C 0.26038 0.77254 0.21776 0.0
C341 C 0.21088 0.77246 0.26479 0.0
O342 O 0.26454 0.69878 0.24592 0.0
O343 O 0.25225 0.70507 0.28801 0.0
O344 O 0.24604 0.74704 0.21904 0.0
O345 O 0.27651 0.77895 0.24085 0.0
O346 O 0.22146 0.74867 0.26851 0.0
O347 O 0.22663 0.79826 0.26423 0.0
C348 C 0.27872 0.86527 0.26718 0.0
O349 O 0.27337 0.85416 0.29141 0.0
O350 O 0.27952 0.84459 0.24742 0.0
C351 C 0.27731 0.78212 0.32258 0.0
Tb352 Tb 0.54885 0.02583 0.50934 0.0
C353 C 0.53558 0.00432 0.5718 0.0
Tb354 Tb 0.49148 0.02512 0.5279 0.0
O355 O 0.55452 0.07307 0.50835 0.0
O356 O 0.53014 0.05233 0.53749 0.0
O357 O 0.55328 0.00789 0.55182 0.0
C358 C 0.4492 0.04212 0.55107 0.0
O359 O 0.51005 0.0099 0.56745 0.0
C360 C 0.49611 0.98138 0.49144 0.0
C361 C 0.5035 0.04285 0.46508 0.0
O362 O 0.45134 0.01522 0.54483 0.0
O363 O 0.47057 0.05895 0.5441 0.0
O364 O 0.47343 0.99171 0.493 0.0
O365 O 0.51395 0.99385 0.51166 0.0
O366 O 0.48972 0.0474 0.48781 0.0
O367 O 0.52604 0.03083 0.46756 0.0
C368 C 0.59728 0.01231 0.49837 0.0
O369 O 0.59358 0.03166 0.51831 0.0
O370 O 0.57365 1.00094 0.484 0.0
C371 C 0.53796 0.07643 0.52802 0.0
Tb372 Tb 0.2804 0.29407 0.80314 0.0
C373 C 0.28326 0.34923 0.76827 0.0
Tb374 Tb 0.26217 0.28498 0.74003 0.0
O375 O 0.32311 0.30694 0.79526 0.0
O376 O 0.29693 0.27598 0.76633 0.0
O377 O 0.28305 0.33968 0.79469 0.0
C378 C 0.26423 0.28393 0.68272 0.0
O379 O 0.27725 0.33137 0.74422 0.0
C380 C 0.22183 0.28995 0.77248 0.0
C381 C 0.25876 0.23013 0.77398 0.0
O382 O 0.24242 0.27473 0.69522 0.0
O383 O 0.28463 0.29361 0.70248 0.0
O384 O 0.21849 0.27493 0.74733 0.0
O385 O 0.24628 0.30352 0.77664 0.0
O386 O 0.26192 0.24019 0.74825 0.0
O387 O 0.26247 0.2477 0.79834 0.0
C388 C 0.28346 0.29686 0.86119 0.0
O389 O 0.30405 0.29586 0.84606 0.0
O390 O 0.26128 0.29629 0.84364 0.0
C391 C 0.32086 0.29112 0.77073 0.0
Tb392 Tb 0.0203 0.05479 0.49085 0.0
C393 C 0.98186 0.03936 0.5385 0.0
Tb394 Tb 0.04706 0.0515 0.55336 0.0
O395 O 1.0042 0.00807 0.48785 0.0
O396 O 0.04059 0.02532 0.51363 0.0
O397 O 0.98427 0.05252 0.51416 0.0
C398 C 0.06649 0.03436 0.60404 0.0
O399 O 1.00349 0.03321 0.55485 0.0
C400 C 0.04464 0.10409 0.53975 0.0
C401 C 0.08474 0.06946 0.50472 0.0
O402 O 0.04501 0.04682 0.60014 0.0
O403 O 0.07693 0.03168 0.57957 0.0
O404 O 0.06194 0.098 0.56041 0.0
O405 O 0.0275 0.08158 0.53079 0.0
O406 O 0.08291 0.05625 0.52913 0.0
O407 O 0.06279 0.0748 0.48855 0.0
C408 C 1.00314 0.06392 0.43627 0.0
O409 O 0.02054 0.04722 0.44382 0.0
O410 O 0.99554 0.07601 0.45962 0.0
C411 C 0.02349 1.00252 0.50657 0.0
Tb412 Tb 0.27689 0.784 0.779 0.0
C413 C 0.23417 0.80123 0.82024 0.0
Tb414 Tb 0.21796 0.7851 0.75163 0.0
O415 O 0.28334 0.83076 0.79102 0.0
O416 O 0.25675 0.81201 0.75438 0.0
O417 O 0.25713 0.79011 0.81867 0.0
C418 C 0.16999 0.79784 0.72988 0.0
O419 O 0.21737 0.80393 0.79657 0.0
C420 C 0.23024 0.73401 0.76049 0.0
C421 C 0.26149 0.77147 0.70979 0.0
O422 O 0.17282 0.77761 0.74714 0.0
O423 O 0.19411 0.81104 0.72524 0.0
O424 O 0.21275 0.73841 0.73913 0.0
O425 O 0.2381 0.7572 0.77638 0.0
O426 O 0.23809 0.78144 0.71213 0.0
O427 O 0.27846 0.76805 0.73307 0.0
C428 C 0.32353 0.76739 0.79929 0.0
O429 O 0.32193 0.79088 0.78646 0.0
O430 O 0.29892 0.75339 0.80075 0.0
C431 C 0.26528 0.83522 0.77016 0.0
Tb432 Tb 0.47245 0.01219 0.01165 0.0
C433 C 0.51749 0.97311 0.01345 0.0
Tb434 Tb 0.53384 0.04173 0.02307 0.0
O435 O 0.47921 0.99537 0.9676 0.0
O436 O 0.50266 0.03374 0.98746 0.0
O437 O 0.49177 0.97467 0.01846 0.0
C438 C 0.58724 0.06167 0.0194 0.0
O439 O 0.53622 0.99637 0.01127 0.0
C440 C 0.50727 0.0405 0.06952 0.0
C441 C 0.48828 0.0809 0.01906 0.0
O442 O 0.57781 0.04423 0.03811 0.0
O443 O 0.56661 0.06781 1.00285 0.0
O444 O 0.5297 0.05854 0.06741 0.0
O445 O 0.50328 0.02155 0.048 0.0
O446 O 0.51451 0.07938 0.01622 0.0
O447 O 0.46923 0.05771 0.02048 0.0
C448 C 0.41891 0.9923 0.01513 0.0
O449 O 0.42887 0.00495 0.99338 0.0
O450 O 0.43912 0.99052 0.03468 0.0
C451 C 0.50004 0.01565 0.96554 0.0
Tb452 Tb 0.22616 0.24955 0.25772 0.0
C453 C 0.26521 0.26651 0.31797 0.0
Tb454 Tb 0.28625 0.27974 0.25876 0.0
O455 O 0.23613 0.20894 0.2386 0.0
O456 O 0.2655 0.23835 0.26597 0.0
O457 O 0.23971 0.26233 0.30431 0.0
C458 C 0.33801 0.28547 0.24572 0.0
O459 O 0.28748 0.27055 0.30391 0.0
C460 C 0.25011 0.31399 0.26648 0.0
C461 C 0.2468 0.26495 0.19813 0.0
O462 O 0.32598 0.30682 0.254 0.0
O463 O 0.32105 0.2614 0.24543 0.0
O464 O 0.27599 0.32089 0.27706 0.0
O465 O 0.24705 0.29069 0.25058 0.0
O466 O 0.2722 0.27171 0.21193 0.0
O467 O 0.22477 0.25716 0.2119 0.0
C468 C 0.17336 0.24162 0.26754 0.0
O469 O 0.18653 0.26401 0.2571 0.0
O470 O 0.18986 0.22312 0.27201 0.0
C471 C 0.26194 0.21528 0.24949 0.0
Tb472 Tb 0.49176 0.54224 0.98074 0.0
C473 C 0.45602 0.52355 0.02969 0.0
Tb474 Tb 0.52142 0.5414 0.04245 0.0
O475 O 0.48027 0.49491 0.97845 0.0
O476 O 0.5167 0.51609 1.00235 0.0
O477 O 0.45633 0.5362 0.00487 0.0
C478 C 0.54389 0.52598 0.0925 0.0
O479 O 0.47896 0.51954 0.04541 0.0
C480 C 0.51262 0.59238 0.02873 0.0
C481 C 0.55575 0.56384 0.99283 0.0
O482 O 0.5241 0.541 0.09003 0.0
O483 O 0.55096 0.51962 0.06687 0.0
O484 O 0.53228 0.58859 0.04813 0.0
O485 O 0.49753 0.56835 0.02078 0.0
O486 O 0.55646 0.55082 0.01744 0.0
O487 O 0.53248 0.56666 0.97744 0.0
C488 C 0.47451 0.55059 0.92617 0.0
O489 O 0.49136 0.5334 0.93388 0.0
O490 O 0.467 0.56316 0.94931 0.0
C491 C 0.50164 0.49195 0.99585 0.0
Tb492 Tb 0.78835 0.29797 0.27622 0.0
C493 C 0.74502 0.30326 0.3216 0.0
Tb494 Tb 0.72599 0.28132 0.25481 0.0
O495 O 0.78457 0.34347 0.28554 0.0
O496 O 0.7579 0.31678 0.25335 0.0
O497 O 0.77078 0.3004 0.31777 0.0
C498 C 0.67323 0.28218 0.2381 0.0
O499 O 0.72488 0.29919 0.29972 0.0
C500 C 0.75228 0.23758 0.26156 0.0
C501 C 0.7682 0.27835 0.20856 0.0
O502 O 0.69389 0.30069 0.23204 0.0
O503 O 0.68222 0.26295 0.25361 0.0
O504 O 0.72947 0.23577 0.2445 0.0
O505 O 0.75696 0.26188 0.27622 0.0
O506 O 0.74266 0.28154 0.21299 0.0
O507 O 0.78868 0.28118 0.23021 0.0
C508 C 0.84008 0.2961 0.2967 0.0
O509 O 0.833 0.31172 0.276 0.0
O510 O 0.81824 0.2819 0.30574 0.0
C511 C 0.76241 0.34125 0.26736 0.0
Tb512 Tb 0.98695 0.52153 0.5255 0.0
C513 C 0.03251 0.48332 0.52447 0.0
Tb514 Tb 0.04721 0.55208 0.52847 0.0
O515 O 0.98927 0.50243 0.4809 0.0
O516 O 0.01278 0.54232 0.49656 0.0
O517 O 0.00771 0.48513 0.53224 0.0
C518 C 0.0974 0.57371 0.5154 0.0
O519 O 0.05007 0.50623 0.51851 0.0
C520 C 0.02604 0.55105 0.57858 0.0
C521 C 1.00112 0.59035 0.53001 0.0
O522 O 0.09236 0.55962 0.53808 0.0
O523 O 0.07432 0.5755 0.50038 0.0
O524 O 0.04585 0.57106 0.57308 0.0
O525 O 0.02135 0.53169 0.55758 0.0
O526 O 0.02646 0.58902 0.52346 0.0
O527 O 0.98326 0.56706 0.53435 0.0
C528 C 0.9366 0.50088 0.53885 0.0
O529 O 0.94203 0.51105 0.51419 0.0
O530 O 0.9594 0.5022 0.55559 0.0
C531 C 0.00855 0.5231 0.47549 0.0
Tb532 Tb 0.78207 0.78584 0.309 0.0
C533 C 0.78666 0.83817 0.26796 0.0
Tb534 Tb 0.76709 0.7741 0.24072 0.0
O535 O 0.82719 0.78734 0.31021 0.0
O536 O 0.80173 0.78073 0.2717 0.0
O537 O 0.78447 0.82958 0.29462 0.0
C538 C 0.76901 0.75857 0.18478 0.0
O539 O 0.78307 0.82001 0.2441 0.0
C540 C 0.72675 0.784 0.27169 0.0
C541 C 0.76799 0.72164 0.2805 0.0
O542 O 0.78534 0.77988 0.19999 0.0
O543 O 0.75112 0.74631 0.2009 0.0
O544 O 0.72697 0.78875 0.24423 0.0
O545 O 0.74685 0.77176 0.27869 0.0
O546 O 0.77175 0.73137 0.25451 0.0
O547 O 0.76799 0.73911 0.3045 0.0
C548 C 0.77378 0.80144 0.36309 0.0
O549 O 0.79033 0.7838 0.35612 0.0
O550 O 0.76212 0.81013 0.3397 0.0
C551 C 0.82652 0.78278 0.28197 0.0
Tb552 Tb 0.76584 0.31062 0.77707 0.0
C553 C 0.81575 0.27629 0.7784 0.0
Tb554 Tb 0.75458 0.24419 0.76656 0.0
O555 O 0.78404 0.30906 0.82213 0.0
O556 O 0.75457 0.275 0.80218 0.0
O557 O 0.80645 0.29998 0.77097 0.0
C558 C 0.73542 0.18783 0.76866 0.0
O559 O 0.79875 0.25201 0.78158 0.0
C560 C 0.76617 0.27276 0.72073 0.0
C561 C 0.70365 0.27909 0.76548 0.0
O562 O 0.75403 0.20352 0.78753 0.0
O563 O 0.7283 0.20371 0.74833 0.0
O564 O 0.77189 0.24711 0.72433 0.0
O565 O 0.75292 0.27962 0.74119 0.0
O566 O 0.71251 0.25383 0.76691 0.0
O567 O 0.72082 0.30439 0.7683 0.0
C568 C 0.77862 0.3662 0.76742 0.0
O569 O 0.76616 0.3567 0.7894 0.0
O570 O 0.78304 0.34439 0.75084 0.0
C571 C 0.77164 0.28292 0.82455 0.0
Tb572 Tb 0.74542 0.77008 0.77836 0.0
C573 C 0.78321 0.78899 0.83908 0.0
Tb574 Tb 0.80399 0.80406 0.78012 0.0
O575 O 0.7584 0.73054 0.75969 0.0
O576 O 0.78574 0.7617 0.78681 0.0
O577 O 0.75792 0.78364 0.82486 0.0
C578 C 0.85576 0.81658 0.76689 0.0
O579 O 0.80565 0.79518 0.82552 0.0
C580 C 0.76608 0.83554 0.78935 0.0
C581 C 0.76574 0.78535 0.71926 0.0
O582 O 0.83823 0.83437 0.76683 0.0
O583 O 0.84438 0.79238 0.7757 0.0
O584 O 0.79182 0.843 0.80025 0.0
O585 O 0.76363 0.81292 0.77225 0.0
O586 O 0.79091 0.79228 0.73352 0.0
O587 O 0.74359 0.77744 0.73265 0.0
C588 C 0.69264 0.75769 0.78791 0.0
O589 O 0.70386 0.78005 0.77589 0.0
O590 O 0.7111 0.74164 0.79403 0.0
C591 C 0.78404 0.7387 0.77068 0.0
Tb592 Tb 0.52385 0.55872 0.51879 0.0
C593 C 0.51455 0.51254 0.46296 0.0
Tb594 Tb 0.49478 0.49529 0.52328 0.0
O595 O 0.56404 0.54877 0.53834 0.0
O596 O 0.53389 0.51716 0.51721 0.0
O597 O 0.51801 0.54016 0.47335 0.0
C598 C 0.49301 0.44439 0.54606 0.0
O599 O 0.50862 0.49082 0.4797 0.0
C600 C 0.46191 0.53071 0.50562 0.0
C601 C 0.4989 0.54374 0.57754 0.0
O602 O 0.47588 0.44951 0.52446 0.0
O603 O 0.51064 0.46776 0.55442 0.0
O604 O 0.45563 0.50256 0.50057 0.0
O605 O 0.48374 0.53655 0.52295 0.0
O606 O 0.49401 0.51586 0.56757 0.0
O607 O 0.50875 0.56463 0.56139 0.0
C608 C 0.53281 0.61162 0.49974 0.0
O609 O 0.54698 0.60325 0.52185 0.0
O610 O 0.5137 0.59033 0.48876 0.0
C611 C 0.55661 0.52093 0.53253 0.0
Tb612 Tb 0.04249 0.53374 0.01938 0.0
C613 C 0.02382 0.50794 0.07868 0.0
Tb614 Tb 0.98262 0.52129 0.02812 0.0
O615 O 0.04355 0.58032 0.02328 0.0
O616 O 0.01671 0.55316 0.04598 0.0
O617 O 0.04338 0.51248 0.06077 0.0
C618 C 0.9299 0.52448 0.03247 0.0
O619 O 0.99831 0.5121 0.0712 0.0
C620 C 1.00244 0.4769 0.00583 0.0
C621 C 1.00053 0.55069 0.97147 0.0
O622 O 0.93925 0.51212 0.01052 0.0
O623 O 0.95023 0.53484 0.05219 0.0
O624 O 0.98254 0.47444 0.02241 0.0
O625 O 0.0083 0.503 1.0009 0.0
O626 O 0.98282 0.54853 0.9914 0.0
O627 O 0.02519 0.54301 0.9763 0.0
C628 C 0.09329 0.52478 0.01197 0.0
O629 O 0.08748 0.54682 0.02714 0.0
O630 O 0.07059 0.50833 1.00079 0.0
C631 C 0.02346 0.57893 0.0397 0.0
H632 H 0.06159 0.25183 0.96587 0.0
H633 H 0.00857 0.21054 0.88951 0.0
H634 H 1.00149 0.1653 0.91237 0.0
H635 H 0.01053 0.13711 0.95333 0.0
H636 H 0.06359 0.17677 0.02998 0.0
H637 H 0.07033 0.22311 0.00782 0.0
C638 C 0.04852 0.23292 0.95425 0.0
C639 C 0.03571 0.23466 0.92594 0.0
C640 C 0.04446 0.20673 0.96758 0.0
C641 C 0.01875 0.20993 0.91125 0.0
C642 C 0.01463 0.18398 0.92431 0.0
C643 C 0.02351 0.15592 0.96528 0.0
C644 C 0.03657 0.15363 0.9932 0.0
C645 C 0.02739 0.18213 0.95237 0.0
C646 C 0.0533 0.17812 0.00844 0.0
C647 C 0.05719 0.20452 0.99574 0.0
H648 H 0.08292 0.72828 0.23759 0.0
H649 H 0.08582 0.81182 0.2038 0.0
H650 H 0.13503 0.82434 0.22086 0.0
H651 H 0.17837 0.80988 0.24212 0.0
H652 H 0.17411 0.72622 0.27629 0.0
H653 H 0.12467 0.71578 0.26263 0.0
C654 C 0.09421 0.74935 0.23418 0.0
C655 C 0.08065 0.76889 0.21916 0.0
C656 C 0.12251 0.75644 0.24406 0.0
C657 C 0.09566 0.79624 0.21524 0.0
C658 C 0.1239 0.80342 0.22493 0.0
C659 C 0.16655 0.78959 0.247 0.0
C660 C 0.18023 0.76881 0.25994 0.0
C661 C 0.13773 0.78347 0.23892 0.0
C662 C 0.16442 0.74259 0.26604 0.0
C663 C 0.13599 0.73649 0.25822 0.0
H664 H 0.49067 0.88788 0.38581 0.0
H665 H 0.55899 0.86497 0.43928 0.0
H666 H 0.55741 0.90523 0.47543 0.0
H667 H 0.53515 0.9461 0.49271 0.0
H668 H 0.46528 0.96634 0.43962 0.0
H669 H 0.46901 0.92816 0.40247 0.0
C670 C 0.50537 0.89172 0.40527 0.0
C671 C 0.52494 0.87339 0.40977 0.0
C672 C 0.50397 0.91446 0.42613 0.0
C673 C 0.54366 0.87867 0.43528 0.0
C674 C 0.54276 0.90171 0.45596 0.0
C675 C 0.52091 0.94216 0.4729 0.0
C676 C 0.4999 0.9589 0.46891 0.0
C677 C 0.52282 0.91962 0.45176 0.0
C678 C 0.48148 0.95358 0.44326 0.0
C679 C 0.48361 0.93177 0.42198 0.0
H680 H 0.43678 0.28342 0.72592 0.0
H681 H 0.38526 0.22808 0.65663 0.0
H682 H 0.34413 0.23519 0.67965 0.0
H683 H 0.3224 0.25714 0.71997 0.0
H684 H 0.3743 0.31426 0.78768 0.0
H685 H 0.41521 0.30633 0.76502 0.0
C686 C 0.41659 0.27273 0.71594 0.0
C687 C 0.41432 0.25504 0.68965 0.0
C688 C 0.39286 0.27724 0.7291 0.0
C689 C 0.38781 0.24173 0.67691 0.0
C690 C 0.36417 0.24579 0.69007 0.0
C691 C 0.34267 0.26788 0.72966 0.0
C692 C 0.34518 0.28619 0.7556 0.0
C693 C 0.36637 0.26352 0.71621 0.0
C694 C 0.37165 0.30001 0.76779 0.0
C695 C 0.39517 0.29547 0.75484 0.0
H696 H 0.03443 0.90259 0.58835 0.0
H697 H 0.95382 0.86825 0.54381 0.0
H698 H 0.95627 0.91004 0.51456 0.0
H699 H 0.98122 0.95702 0.50268 0.0
H700 H 0.06376 0.98809 0.54381 0.0
H701 H 0.06078 0.94703 0.57361 0.0
C702 C 0.01741 0.90434 0.57225 0.0
C703 C 0.99386 0.88275 0.56837 0.0
C704 C 0.01933 0.92786 0.55508 0.0
C705 C 0.97213 0.88478 0.5471 0.0
C706 C 0.97352 0.90862 0.53045 0.0
C707 C 0.99858 0.9546 0.51801 0.0
C708 C 0.02238 0.97598 0.52188 0.0
C709 C 0.99701 0.93036 0.53433 0.0
C710 C 0.04488 0.97248 0.54144 0.0
C711 C 0.04327 0.94886 0.55822 0.0
H712 H 0.42047 0.72048 0.86863 0.0
H713 H 0.46645 0.79892 0.84235 0.0
H714 H 0.42504 0.80878 0.81464 0.0
H715 H 0.37525 0.79687 0.80034 0.0
H716 H 0.3288 0.71912 0.82706 0.0
H717 H 0.37094 0.70712 0.85195 0.0
C718 C 0.42148 0.73959 0.85664 0.0
C719 C 0.44646 0.75904 0.8578 0.0
C720 C 0.39749 0.74534 0.84093 0.0
C721 C 0.44744 0.78367 0.84205 0.0
C722 C 0.42377 0.78938 0.82617 0.0
C723 C 0.37445 0.7772 0.81143 0.0
C724 C 0.3491 0.75901 0.81216 0.0
C725 C 0.39862 0.77063 0.82587 0.0
C726 C 0.34819 0.73352 0.82643 0.0
C727 C 0.37223 0.72667 0.84066 0.0
H728 H 0.43778 0.19297 0.0476 0.0
H729 H 0.52357 0.23181 0.05147 0.0
H730 H 0.53525 0.18537 0.03517 0.0
H731 H 0.52187 0.1332 0.02405 0.0
H732 H 0.43646 0.09353 0.02231 0.0
H733 H 0.4239 0.14085 0.03331 0.0
C734 C 0.45894 0.19133 0.04443 0.0
C735 C 0.47979 0.21572 0.05092 0.0
C736 C 0.46565 0.16438 0.03567 0.0
C737 C 0.50716 0.21327 0.04685 0.0
C738 C 0.51388 0.18673 0.03756 0.0
C739 C 0.50043 0.13486 0.02572 0.0
C740 C 0.48021 0.10978 0.02257 0.0
C741 C 0.4934 0.16202 0.03258 0.0
C742 C 0.45253 0.11244 0.0248 0.0
C743 C 0.4453 0.13951 0.03113 0.0
H744 H 0.07482 0.27392 0.32974 0.0
H745 H 0.08326 0.1955 0.37038 0.0
H746 H 0.11752 0.18571 0.33781 0.0
H747 H 0.14854 0.20245 0.30138 0.0
H748 H 0.13965 0.28108 0.26124 0.0
H749 H 0.10162 0.28748 0.28957 0.0
C750 C 0.08405 0.25459 0.33132 0.0
C751 C 0.07701 0.23573 0.35269 0.0
C752 C 0.10352 0.2491 0.31255 0.0
C753 C 0.08858 0.21043 0.35417 0.0
C754 C 0.10816 0.20485 0.3356 0.0
C755 C 0.13778 0.22056 0.29838 0.0
C756 C 0.14691 0.2414 0.27955 0.0
C757 C 0.11625 0.2244 0.31517 0.0
C758 C 0.13295 0.26482 0.27575 0.0
C759 C 0.11136 0.26861 0.29207 0.0
H760 H 0.96304 0.07838 0.20618 0.0
H761 H 0.88507 0.06782 0.15241 0.0
H762 H 0.90867 0.06524 0.10839 0.0
H763 H 0.95118 0.06309 0.08526 0.0
H764 H 0.02854 0.06928 0.1388 0.0
H765 H 0.00567 0.07678 0.18296 0.0
C766 C 0.95126 0.07579 0.18481 0.0
C767 C 0.92234 0.07332 0.18255 0.0
C768 C 0.9649 0.07357 0.15963 0.0
C769 C 0.90731 0.06963 0.15473 0.0
C770 C 0.9208 0.0682 0.12956 0.0
C771 C 0.96299 0.06659 0.10664 0.0
C772 C 0.99143 0.06619 0.10907 0.0
C773 C 0.94952 0.06979 0.13177 0.0
C774 C 0.00664 0.06999 0.13668 0.0
C775 C 0.99354 0.07408 0.16181 0.0
H776 H 0.32011 0.73171 0.43885 0.0
H777 H 0.25536 0.66052 0.4062 0.0
H778 H 0.24303 0.68639 0.36416 0.0
H779 H 0.2502 0.72988 0.33674 0.0
H780 H 0.31757 0.79901 0.36723 0.0
H781 H 0.32875 0.77391 0.4101 0.0
C782 C 0.3033 0.72191 0.42254 0.0
C783 C 0.2887 0.69424 0.42577 0.0
C784 C 0.29665 0.73667 0.39796 0.0
C785 C 0.26709 0.68174 0.40425 0.0
C786 C 0.25993 0.69656 0.38017 0.0
C787 C 0.26773 0.73904 0.35234 0.0
C788 C 0.28328 0.76603 0.34838 0.0
C789 C 0.2746 0.72404 0.37671 0.0
C790 C 0.30524 0.77821 0.36961 0.0
C791 C 0.31174 0.76383 0.39418 0.0
H792 H 0.59839 0.97315 0.68824 0.0
H793 H 0.52011 0.97981 0.71983 0.0
H794 H 0.50116 0.98831 0.671 0.0
H795 H 0.50756 0.99686 0.6199 0.0
H796 H 0.58616 0.99067 0.58866 0.0
H797 H 0.60398 0.97893 0.63658 0.0
C798 C 0.57709 0.97614 0.68444 0.0
C799 C 0.5608 0.97595 0.70785 0.0
C800 C 0.56633 0.98132 0.65629 0.0
C801 C 0.53322 0.97989 0.70234 0.0
C802 C 0.52234 0.98484 0.67438 0.0
C803 C 0.52852 0.99271 0.62344 0.0
C804 C 0.54544 0.99488 0.60053 0.0
C805 C 0.53883 0.98609 0.65126 0.0
C806 C 0.57256 0.98933 0.60573 0.0
C807 C 0.58286 0.9826 0.63324 0.0
H808 H 0.31481 0.34591 0.99179 0.0
H809 H 0.2291 0.35526 0.98104 0.0
H810 H 0.22279 0.32838 0.9332 0.0
H811 H 0.24277 0.30767 0.89232 0.0
H812 H 0.32919 0.30149 0.90054 0.0
H813 H 0.33409 0.32114 0.95169 0.0
C814 C 0.29471 0.34157 0.9791 0.0
C815 C 0.27255 0.35278 0.98957 0.0
C816 C 0.29142 0.32682 0.95118 0.0
C817 C 0.24655 0.34717 0.97308 0.0
C818 C 0.2429 0.33178 0.9458 0.0
C819 C 0.26256 0.31013 0.90549 0.0
C820 C 0.28564 0.30349 0.89288 0.0
C821 C 0.26537 0.32233 0.93429 0.0
C822 C 0.31118 0.30666 0.90999 0.0
C823 C 0.314 0.318 0.93911 0.0
H824 H 0.9531 0.0385 0.30526 0.0
H825 H 0.89638 0.09203 0.33469 0.0
H826 H 0.92323 0.10141 0.38273 0.0
H827 H 0.96088 0.09111 0.41756 0.0
H828 H 0.01724 0.03748 0.38748 0.0
H829 H 0.99272 0.03177 0.33846 0.0
C830 C 0.94668 0.05236 0.32212 0.0
C831 C 0.92259 0.06421 0.31654 0.0
C832 C 0.96218 0.05765 0.34961 0.0
C833 C 0.91479 0.08249 0.33848 0.0
C834 C 0.9301 0.08784 0.36598 0.0
C835 C 0.96798 0.07858 0.40011 0.0
C836 C 0.99064 0.06454 0.40609 0.0
C837 C 0.95356 0.0751 0.37196 0.0
C838 C 0.99974 0.04839 0.38338 0.0
C839 C 0.98568 0.04501 0.35537 0.0
H840 H 0.26975 0.74711 0.57503 0.0
H841 H 0.33006 0.69686 0.60718 0.0
H842 H 0.32403 0.71247 0.65755 0.0
H843 H 0.29955 0.7386 0.69267 0.0
H844 H 0.23873 0.78776 0.65898 0.0
H845 H 0.24708 0.77432 0.60934 0.0
C846 C 0.28183 0.73971 0.59298 0.0
C847 C 0.30031 0.72075 0.58716 0.0
C848 C 0.27802 0.74847 0.62182 0.0
C849 C 0.31572 0.7115 0.61089 0.0
C850 C 0.31219 0.72035 0.63976 0.0
C851 C 0.28835 0.74659 0.67447 0.0
C852 C 0.26843 0.76413 0.67978 0.0
C853 C 0.2931 0.73856 0.64555 0.0
C854 C 0.25401 0.77408 0.65579 0.0
C855 C 0.25879 0.76645 0.62724 0.0
H856 H 0.58703 0.04128 0.87505 0.0
H857 H 0.55665 0.95145 0.84643 0.0
H858 H 0.52492 0.94873 0.88408 0.0
H859 H 0.50571 0.97202 0.92548 0.0
H860 H 0.53583 0.06205 0.95285 0.0
H861 H 0.56782 0.06447 0.91562 0.0
C862 C 0.57351 0.02105 0.87697 0.0
C863 C 0.57434 0.99661 0.85781 0.0
C864 C 0.55526 0.01966 0.89861 0.0
C865 C 0.55653 0.97064 0.86078 0.0
C866 C 0.53834 0.96906 0.88234 0.0
C867 C 0.51923 0.99216 0.92315 0.0
C868 C 0.51866 0.01677 0.94216 0.0
C869 C 0.53748 0.99345 0.90139 0.0
C870 C 0.53629 0.04269 0.93893 0.0
C871 C 0.55445 0.04413 0.91748 0.0
H872 H 0.26495 0.34152 0.09642 0.0
H873 H 0.1837 0.35649 0.11223 0.0
H874 H 0.17946 0.31711 0.14455 0.0
H875 H 0.20182 0.28365 0.17323 0.0
H876 H 0.28369 0.26995 0.15796 0.0
H877 H 0.28424 0.30275 0.11925 0.0
C878 C 0.24627 0.33602 0.10686 0.0
C879 C 0.22497 0.35223 0.10282 0.0
C880 C 0.24397 0.31336 0.12503 0.0
C881 C 0.20049 0.34446 0.11555 0.0
C882 C 0.19806 0.32195 0.13388 0.0
C883 C 0.21936 0.28696 0.16071 0.0
C884 C 0.24287 0.27478 0.1687 0.0
C885 C 0.22001 0.30682 0.1394 0.0
C886 C 0.26545 0.2793 0.1523 0.0
C887 C 0.26592 0.29832 0.13045 0.0
H888 H 0.15565 0.96093 0.01346 0.0
H889 H 0.13056 0.92818 0.09347 0.0
H890 H 0.09717 0.96097 0.09518 0.0
H891 H 0.07566 1.00053 0.07477 0.0
H892 H 0.10085 0.03286 0.99473 0.0
H893 H 0.13321 0.99903 0.9923 0.0
C894 C 0.14283 0.96085 0.03123 0.0
C895 C 0.14592 0.94202 0.05334 0.0
C896 C 0.12345 0.97986 0.03212 0.0
C897 C 0.1289 0.94236 0.07612 0.0
C898 C 0.10965 0.96117 0.07714 0.0
C899 C 0.08785 0.99974 0.05656 0.0
C900 C 0.08556 0.0191 0.03484 0.0
C901 C 0.10676 0.98016 0.05534 0.0
C902 C 0.10219 0.01832 0.01183 0.0
C903 C 0.12075 0.9989 0.01036 0.0
H904 H 0.65823 0.62872 0.93941 0.0
H905 H 0.69571 0.5614 0.97778 0.0
H906 H 0.65159 0.54006 0.99299 0.0
H907 H 0.60343 0.54294 0.99914 0.0
H908 H 0.56572 0.61 0.9608 0.0
H909 H 0.60898 0.62925 0.94206 0.0
C910 C 0.65661 0.60904 0.95053 0.0
C911 C 0.68022 0.59683 0.95771 0.0
C912 C 0.63131 0.59719 0.95975 0.0
C913 C 0.67782 0.57134 0.97219 0.0
C914 C 0.65267 0.55921 0.98107 0.0
C915 C 0.60478 0.5618 0.98673 0.0
C916 C 0.58173 0.57529 0.9816 0.0
C917 C 0.62951 0.57247 0.97575 0.0
C918 C 0.58338 0.59934 0.96502 0.0
C919 C 0.60804 0.61031 0.95429 0.0
H920 H 0.67666 0.42352 0.2394 0.0
H921 H 0.70731 0.45867 0.32752 0.0
H922 H 0.73863 0.42362 0.3309 0.0
H923 H 0.75747 0.38298 0.30875 0.0
H924 H 0.72688 0.34801 0.22078 0.0
H925 H 0.69526 0.3829 0.2174 0.0
C926 C 0.69016 0.42353 0.25937 0.0
C927 C 0.68965 0.44375 0.28314 0.0
C928 C 0.70812 0.40334 0.26118 0.0
C929 C 0.70726 0.44337 0.30887 0.0
C930 C 0.72523 0.42336 0.31083 0.0
C931 C 0.74396 0.3832 0.28883 0.0
C932 C 0.7442 0.36295 0.26512 0.0
C933 C 0.7259 0.40332 0.28709 0.0
C934 C 0.7266 0.36318 0.23945 0.0
C935 C 0.70867 0.38319 0.23747 0.0
H936 H 0.82994 0.44165 0.58984 0.0
H937 H 0.79289 0.45595 0.50467 0.0
H938 H 0.83739 0.48007 0.49271 0.0
H939 H 0.88742 0.49504 0.50544 0.0
H940 H 0.92452 0.48023 0.59028 0.0
H941 H 0.8795 0.45847 0.60335 0.0
C942 C 0.83153 0.45026 0.56876 0.0
C943 C 0.80811 0.44684 0.54818 0.0
C944 C 0.85727 0.46387 0.56186 0.0
C945 C 0.81059 0.45817 0.52094 0.0
C946 C 0.83606 0.47194 0.51402 0.0
C947 C 0.88554 0.48715 0.5268 0.0
C948 C 0.90914 0.48899 0.54678 0.0
C949 C 0.85961 0.47455 0.53413 0.0
C950 C 0.90656 0.47884 0.57446 0.0
C951 C 0.88085 0.46642 0.58196 0.0
H952 H 0.33561 0.11843 0.23281 0.0
H953 H 0.38937 0.17549 0.2993 0.0
H954 H 0.35637 0.20877 0.29934 0.0
H955 H 0.3115 0.22086 0.2821 0.0
H956 H 0.25802 0.16508 0.21465 0.0
H957 H 0.29143 0.13189 0.21372 0.0
C958 C 0.34018 0.1382 0.24722 0.0
C959 C 0.36498 0.14429 0.26613 0.0
C960 C 0.32106 0.15739 0.24713 0.0
C961 C 0.37053 0.17013 0.28454 0.0
C962 C 0.3516 0.1892 0.28465 0.0
C963 C 0.30732 0.20167 0.26685 0.0
C964 C 0.28242 0.19557 0.24825 0.0
C965 C 0.32673 0.18294 0.26624 0.0
C966 C 0.27707 0.17029 0.22912 0.0
C967 C 0.29618 0.15134 0.22857 0.0
H968 H 0.33764 0.08604 0.53779 0.0
H969 H 0.38877 0.1629 0.58181 0.0
H970 H 0.42687 0.13618 0.59085 0.0
H971 H 0.44717 0.09301 0.5796 0.0
H972 H 0.39592 0.01578 0.53663 0.0
H973 H 0.35577 0.04027 0.53458 0.0
C974 C 0.35704 0.09672 0.54971 0.0
C975 C 0.36086 0.12638 0.55857 0.0
C976 C 0.37858 0.08117 0.55509 0.0
C977 C 0.38567 0.14007 0.5746 0.0
C978 C 0.40738 0.12485 0.57972 0.0
C979 C 0.42698 0.08135 0.57064 0.0
C980 C 0.42429 0.05293 0.55797 0.0
C981 C 0.4043 0.09567 0.56919 0.0
C982 C 0.39823 0.03772 0.54656 0.0
C983 C 0.37543 0.05182 0.54507 0.0
H984 H 0.72617 0.58755 0.25706 0.0
H985 H 0.68885 0.60303 0.33611 0.0
H986 H 0.71247 0.65322 0.34142 0.0
H987 H 0.74065 0.69368 0.32152 0.0
H988 H 0.77625 0.67861 0.24129 0.0
H989 H 0.75668 0.62727 0.23881 0.0
C990 C 0.72339 0.60179 0.27561 0.0
C991 C 0.70557 0.59153 0.29601 0.0
C992 C 0.73672 0.63077 0.27833 0.0
C993 C 0.70229 0.61035 0.31995 0.0
C994 C 0.7158 0.63909 0.32303 0.0
C995 C 0.7446 0.67909 0.30379 0.0
C996 C 0.75986 0.69003 0.28159 0.0
C997 C 0.73267 0.64968 0.30208 0.0
C998 C 0.76449 0.67081 0.25861 0.0
C999 C 0.75323 0.64144 0.25712 0.0
H1000 H 0.84233 0.49466 0.77898 0.0
H1001 H 0.85839 0.46842 0.69173 0.0
H1002 H 0.82902 0.42168 0.6934 0.0
H1003 H 0.80113 0.38709 0.72065 0.0
H1004 H 0.78425 0.41295 0.80754 0.0
H1005 H 0.81118 0.46116 0.80486 0.0
C1006 C 0.83933 0.47874 0.76031 0.0
C1007 C 0.85283 0.48496 0.73539 0.0
C1008 C 0.82218 0.45188 0.76131 0.0
C1009 C 0.84838 0.46423 0.71123 0.0
C1010 C 0.83158 0.43744 0.71216 0.0
C1011 C 0.80303 0.40343 0.73884 0.0
C1012 C 0.79087 0.39651 0.76431 0.0
C1013 C 0.81868 0.43091 0.7372 0.0
C1014 C 0.79337 0.41785 0.78767 0.0
C1015 C 0.80893 0.44532 0.78621 0.0
H1016 H 0.98262 0.83352 0.103 0.0
H1017 H 0.06857 0.86025 0.13578 0.0
H1018 H 0.0705 0.90361 0.10979 0.0
H1019 H 0.04746 0.9354 0.08023 0.0
H1020 H 0.96202 0.90964 0.04621 0.0
H1021 H 0.96021 0.86429 0.06993 0.0
C1022 C 1.00176 0.84879 0.10434 0.0
C1023 C 0.02531 0.84372 0.12159 0.0
C1024 C 1.00283 0.87384 0.08915 0.0
C1025 C 0.05006 0.86359 0.12283 0.0
C1026 C 0.05123 0.88847 0.10798 0.0
C1027 C 0.0285 0.91972 0.07781 0.0
C1028 C 1.00486 0.92579 0.06178 0.0
C1029 C 0.02769 0.89399 0.09145 0.0
C1030 C 0.98048 0.9053 0.05849 0.0
C1031 C 0.97944 0.8795 0.07216 0.0
H1032 H 0.9452 0.30801 0.81193 0.0
H1033 H 0.93362 0.21833 0.83026 0.0
H1034 H 0.88466 0.21277 0.81344 0.0
H1035 H 0.84431 0.23377 0.79559 0.0
H1036 H 0.85599 0.32334 0.7767 0.0
H1037 H 0.90527 0.32827 0.7914 0.0
C1038 C 0.93203 0.28719 0.81204 0.0
C1039 C 0.94327 0.26372 0.82254 0.0
C1040 C 0.90366 0.28403 0.80226 0.0
C1041 C 0.92573 0.23688 0.82238 0.0
C1042 C 0.89758 0.23363 0.81279 0.0
C1043 C 0.85763 0.25431 0.79441 0.0
C1044 C 0.84617 0.27811 0.78508 0.0
C1045 C 0.8862 0.25713 0.80298 0.0
C1046 C 0.86398 0.30454 0.78377 0.0
C1047 C 0.89231 0.30747 0.79227 0.0
H1048 H 0.52955 0.20567 0.56825 0.0
H1049 H 0.48879 0.16365 0.6363 0.0
H1050 H 0.49439 0.11647 0.61423 0.0
H1051 H 0.51316 0.0873 0.57701 0.0
H1052 H 0.55215 0.12922 0.50795 0.0
H1053 H 0.54547 0.17629 0.52933 0.0
C1054 C 0.52173 0.18621 0.57821 0.0
C1055 C 0.50893 0.18834 0.60407 0.0
C1056 C 0.52496 0.1591 0.56536 0.0
C1057 C 0.49875 0.16276 0.61645 0.0
C1058 C 0.50204 0.13574 0.60389 0.0
C1059 C 0.51969 0.10667 0.56631 0.0
C1060 C 0.5329 0.1047 0.54072 0.0
C1061 C 0.5154 0.13366 0.57853 0.0
C1062 C 0.5419 0.13012 0.52761 0.0
C1063 C 0.53805 0.15705 0.53981 0.0
H1064 H 0.6382 0.77369 0.36188 0.0
H1065 H 0.59198 0.81064 0.29444 0.0
H1066 H 0.63079 0.81307 0.26489 0.0
H1067 H 0.6781 0.80391 0.25794 0.0
H1068 H 0.72234 0.76474 0.32521 0.0
H1069 H 0.6844 0.76438 0.35505 0.0
C1070 C 0.63653 0.78238 0.34075 0.0
C1071 C 0.61209 0.79198 0.3305 0.0
C1072 C 0.65878 0.78348 0.32382 0.0
C1073 C 0.61046 0.80303 0.30294 0.0
C1074 C 0.6327 0.80445 0.28601 0.0
C1075 C 0.67942 0.79547 0.27919 0.0
C1076 C 0.70334 0.78488 0.2895 0.0
C1077 C 0.657 0.79465 0.29617 0.0
C1078 C 0.70454 0.77363 0.31694 0.0
C1079 C 0.6827 0.77318 0.334 0.0
H1080 H 0.07738 0.22685 0.4949 0.0
H1081 H 0.99706 0.20243 0.44582 0.0
H1082 H 0.99014 0.15676 0.46844 0.0
H1083 H 0.00766 0.1229 0.50116 0.0
H1084 H 0.08776 0.14804 0.55037 0.0
H1085 H 0.09396 0.19421 0.52881 0.0
C1086 C 0.05829 0.21164 0.48928 0.0
C1087 C 0.03786 0.21802 0.46866 0.0
C1088 C 0.05442 0.18544 0.50233 0.0
C1089 C 0.01314 0.1981 0.46172 0.0
C1090 C 0.00918 0.1719 0.47455 0.0
C1091 C 0.02641 0.13855 0.50707 0.0
C1092 C 0.04727 0.13213 0.52711 0.0
C1093 C 0.0298 0.1652 0.49467 0.0
C1094 C 0.07139 0.15259 0.53495 0.0
C1095 C 0.07499 0.17897 0.52262 0.0
H1096 H 0.54894 0.25623 0.18621 0.0
H1097 H 0.57421 0.33556 0.14677 0.0
H1098 H 0.61997 0.34111 0.1739 0.0
H1099 H 0.65365 0.32147 0.20586 0.0
H1100 H 0.62865 0.24166 0.24437 0.0
H1101 H 0.58165 0.23833 0.22066 0.0
C1102 C 0.56438 0.27485 0.18367 0.0
C1103 C 0.55831 0.29528 0.16426 0.0
C1104 C 0.59063 0.27774 0.19906 0.0
C1105 C 0.57843 0.31944 0.16145 0.0
C1106 C 0.6046 0.32261 0.1769 0.0
C1107 C 0.6378 0.3035 0.20924 0.0
C1108 C 0.64445 0.28168 0.22652 0.0
C1109 C 0.61105 0.3016 0.1953 0.0
C1110 C 0.62388 0.25862 0.23101 0.0
C1111 C 0.59709 0.25668 0.21742 0.0
H1112 H 0.552 0.86132 0.95605 0.0
H1113 H 0.4772 0.82203 0.98899 0.0
H1114 H 0.47301 0.8684 0.01354 0.0
H1115 H 0.48793 0.92082 0.02156 0.0
H1116 H 0.56226 0.96047 0.988 0.0
H1117 H 0.56946 0.91317 0.96825 0.0
C1118 C 0.53496 0.86282 0.96887 0.0
C1119 C 0.51475 0.83831 0.97031 0.0
C1120 C 0.53251 0.88964 0.98278 0.0
C1121 C 0.49295 0.84058 0.98729 0.0
C1122 C 0.49048 0.86712 1.00133 0.0
C1123 C 0.50592 0.91912 0.01028 0.0
C1124 C 0.52434 0.94421 0.00604 0.0
C1125 C 0.50974 0.89192 0.9986 0.0
C1126 C 0.54771 0.94153 0.99163 0.0
C1127 C 0.55177 0.91448 0.98013 0.0
H1128 H 0.93484 0.8318 0.66921 0.0
H1129 H 0.94908 0.74828 0.69425 0.0
H1130 H 0.92093 0.75215 0.73452 0.0
H1131 H 0.88933 0.77744 0.75999 0.0
H1132 H 0.87464 0.8607 0.73483 0.0
H1133 H 0.9066 0.85918 0.69771 0.0
C1134 C 0.9318 0.81448 0.68351 0.0
C1135 C 0.94363 0.78958 0.67849 0.0
C1136 C 0.9158 0.81695 0.70676 0.0
C1137 C 0.94 0.76756 0.69753 0.0
C1138 C 0.92397 0.76978 0.72059 0.0
C1139 C 0.89365 0.79555 0.74683 0.0
C1140 C 0.87966 0.8191 0.74999 0.0
C1141 C 0.91146 0.79417 0.72513 0.0
C1142 C 0.88531 0.84241 0.73283 0.0
C1143 C 0.90333 0.84139 0.71141 0.0
H1144 H 0.10732 0.99269 0.88261 0.0
H1145 H 0.08558 0.07102 0.85047 0.0
H1146 H 0.05189 0.07187 0.88545 0.0
H1147 H 0.03157 0.05306 0.92764 0.0
H1148 H 0.05425 0.97609 0.96188 0.0
H1149 H 0.08394 0.97154 0.923 0.0
C1150 C 0.09509 0.00984 0.88316 0.0
C1151 C 0.09926 0.03197 0.8642 0.0
C1152 C 0.07576 0.01034 0.90353 0.0
C1153 C 0.08305 0.05387 0.86499 0.0
C1154 C 0.06368 0.05436 0.88494 0.0
C1155 C 0.04262 0.03496 0.92636 0.0
C1156 C 0.04083 0.01507 0.94775 0.0
C1157 C 0.06026 0.03304 0.90463 0.0
C1158 C 0.05509 0.99162 0.94558 0.0
C1159 C 0.07235 0.9892 0.92355 0.0
H1160 H 0.77147 0.31347 0.59336 0.0
H1161 H 0.7181 0.36989 0.62504 0.0
H1162 H 0.72187 0.35034 0.67267 0.0
H1163 H 0.73964 0.31663 0.70521 0.0
H1164 H 0.79207 0.25944 0.67329 0.0
H1165 H 0.78953 0.28004 0.626 0.0
C1166 C 0.7606 0.32152 0.61063 0.0
C1167 C 0.74442 0.34313 0.60543 0.0
C1168 C 0.7628 0.3101 0.63802 0.0
C1169 C 0.73058 0.35322 0.62824 0.0
C1170 C 0.73279 0.34209 0.65557 0.0
C1171 C 0.75071 0.30883 0.68797 0.0
C1172 C 0.76612 0.28656 0.69278 0.0
C1173 C 0.74879 0.3205 0.6607 0.0
C1174 C 0.78012 0.27656 0.67015 0.0
C1175 C 0.7786 0.2883 0.64309 0.0
H1176 H 0.46492 0.05661 0.3323 0.0
H1177 H 0.39686 0.08412 0.37196 0.0
H1178 H 0.41919 0.07927 0.42029 0.0
H1179 H 0.45665 0.06491 0.45141 0.0
H1180 H 0.52439 0.03587 0.4125 0.0
H1181 H 0.5037 0.04378 0.36407 0.0
C1182 C 0.45512 0.06182 0.35154 0.0
C1183 C 0.42913 0.07064 0.34835 0.0
C1184 C 0.46797 0.05858 0.37952 0.0
C1185 C 0.41674 0.07714 0.3736 0.0
C1186 C 0.42951 0.07437 0.40135 0.0
C1187 C 0.4671 0.0605 0.43243 0.0
C1188 C 0.49211 0.04975 0.43579 0.0
C1189 C 0.45492 0.06473 0.40458 0.0
C1190 C 0.50517 0.04417 0.41074 0.0
C1191 C 0.49329 0.04863 0.38294 0.0
H1192 H 0.8059 0.72195 0.06324 0.0
H1193 H 0.74315 0.64794 0.0702 0.0
H1194 H 0.73322 0.66941 0.11662 0.0
H1195 H 0.74231 0.70901 0.1553 0.0
H1196 H 0.80556 0.7826 0.14934 0.0
H1197 H 0.81514 0.76165 0.10222 0.0
C1198 C 0.79018 0.71047 0.07499 0.0
C1199 C 0.77532 0.68342 0.06329 0.0
C1200 C 0.78445 0.72297 0.10166 0.0
C1201 C 0.75491 0.66882 0.07872 0.0
C1202 C 0.74913 0.68109 0.10524 0.0
C1203 C 0.75798 0.72055 0.14349 0.0
C1204 C 0.77307 0.74729 0.15544 0.0
C1205 C 0.76367 0.70818 0.11682 0.0
C1206 C 0.79355 0.76201 0.14027 0.0
C1207 C 0.79914 0.74999 0.11348 0.0
H1208 H 0.13706 0.00633 0.71584 0.0
H1209 H 0.06048 0.00884 0.75269 0.0
H1210 H 0.03848 0.01792 0.70525 0.0
H1211 H 0.04184 0.02768 0.65374 0.0
H1212 H 0.11787 0.02259 0.61668 0.0
H1213 H 0.13929 0.01196 0.66371 0.0
C1214 C 0.11551 0.0087 0.71341 0.0
C1215 C 0.10047 0.0072 0.73771 0.0
C1216 C 0.10297 0.0136 0.68609 0.0
C1217 C 0.07247 0.00988 0.73424 0.0
C1218 C 0.05992 0.01521 0.70718 0.0
C1219 C 0.06305 0.0241 0.65605 0.0
C1220 C 0.07842 0.02621 0.63204 0.0
C1221 C 0.07509 0.01753 0.68304 0.0
C1222 C 0.10572 0.02116 0.635 0.0
C1223 C 0.11798 0.01513 0.66185 0.0
H1224 H 0.7063 0.3555 0.43834 0.0
H1225 H 0.78574 0.33802 0.4727 0.0
H1226 H 0.79255 0.31678 0.42509 0.0
H1227 H 0.77763 0.3055 0.37303 0.0
H1228 H 0.69858 0.32272 0.33737 0.0
H1229 H 0.69003 0.3414 0.3858 0.0
C1230 C 0.7249 0.34669 0.43545 0.0
C1231 C 0.74552 0.34862 0.4592 0.0
C1232 C 0.72894 0.33457 0.40761 0.0
C1233 C 0.76956 0.33714 0.45492 0.0
C1234 C 0.77355 0.32494 0.4276 0.0
C1235 C 0.75843 0.31317 0.37578 0.0
C1236 C 0.73888 0.31273 0.35141 0.0
C1237 C 0.75365 0.32398 0.40367 0.0
C1238 C 0.71405 0.32266 0.35565 0.0
C1239 C 0.70914 0.33347 0.3834 0.0
H1240 H 0.42638 0.04765 0.167 0.0
H1241 H 0.50432 0.06952 0.22117 0.0
H1242 H 0.52891 0.06338 0.17853 0.0
H1243 H 0.5286 0.05275 0.12566 0.0
H1244 H 0.45131 0.0319 0.07106 0.0
H1245 H 0.42614 0.03603 0.11383 0.0
C1246 C 0.44874 0.05109 0.16947 0.0
C1247 C 0.46343 0.05918 0.19736 0.0
C1248 C 0.46288 0.04728 0.14476 0.0
C1249 C 0.49242 0.06333 0.20009 0.0
C1250 C 0.50656 0.0598 0.17567 0.0
C1251 C 0.50622 0.04876 0.12323 0.0
C1252 C 0.49175 0.04085 0.09536 0.0
C1253 C 0.49204 0.05186 0.14792 0.0
C1254 C 0.46283 0.03632 0.09239 0.0
C1255 C 0.44848 0.03934 0.11685 0.0
H1256 H 0.80138 0.71276 0.94044 0.0
H1257 H 0.71651 0.72053 0.94765 0.0
H1258 H 0.7195 0.75832 0.91373 0.0
H1259 H 0.74401 0.78297 0.87641 0.0
H1260 H 0.82877 0.7746 0.86881 0.0
H1261 H 0.82845 0.74426 0.90949 0.0
C1262 C 0.78369 0.72305 0.93483 0.0
C1263 C 0.75858 0.71352 0.94579 0.0
C1264 C 0.7856 0.74476 0.91546 0.0
C1265 C 0.73596 0.72739 0.93911 0.0
C1266 C 0.73766 0.74895 0.91975 0.0
C1267 C 0.76266 0.7752 0.88422 0.0
C1268 C 0.78613 0.78043 0.86918 0.0
C1269 C 0.76207 0.75701 0.90699 0.0
C1270 C 0.81033 0.77075 0.87986 0.0
C1271 C 0.81007 0.75304 0.9029 0.0
H1272 H 0.90484 0.14531 0.01248 0.0
H1273 H 0.8341 0.07782 0.01101 0.0
H1274 H 0.86446 0.04163 0.01441 0.0
H1275 H 0.91161 0.02907 0.01823 0.0
H1276 H 0.98147 0.09714 0.02021 0.0
H1277 H 0.95128 0.13293 0.01593 0.0
C1278 C 0.89595 0.12269 0.01282 0.0
C1279 C 0.8671 0.11446 0.01148 0.0
C1280 C 0.91353 0.10195 0.01466 0.0
C1281 C 0.85616 0.08492 0.01193 0.0
C1282 C 0.87356 0.06415 0.01393 0.0
C1283 C 0.92014 0.05174 0.01755 0.0
C1284 C 0.94895 0.06029 0.01849 0.0
C1285 C 0.90233 0.0724 0.01538 0.0
C1286 C 0.95958 0.08976 0.018 0.0
C1287 C 0.9422 0.11035 0.01607 0.0
H1288 H 0.33199 0.48386 0.04846 0.0
H1289 H 0.36783 0.4253 0.10249 0.0
H1290 H 0.41409 0.44875 0.09437 0.0
H1291 H 0.44403 0.48317 0.06829 0.0
H1292 H 0.40713 0.53989 0.01272 0.0
H1293 H 0.3616 0.51978 0.02511 0.0
C1294 C 0.34988 0.47637 0.05878 0.0
C1295 C 0.34643 0.45269 0.07584 0.0
C1296 C 0.37625 0.48945 0.0535 0.0
C1297 C 0.36989 0.44343 0.08915 0.0
C1298 C 0.39635 0.45675 0.08442 0.0
C1299 C 0.42605 0.49135 0.05921 0.0
C1300 C 0.42895 0.51281 0.03943 0.0
C1301 C 0.39974 0.47936 0.06607 0.0
C1302 C 0.40545 0.52314 0.02773 0.0
C1303 C 0.37938 0.51171 0.03484 0.0
H1304 H 0.29775 0.63527 0.7884 0.0
H1305 H 0.29128 0.62377 0.6943 0.0
H1306 H 0.26317 0.66197 0.69104 0.0
H1307 H 0.24144 0.69963 0.71517 0.0
H1308 H 0.25025 0.71233 0.80915 0.0
H1309 H 0.27631 0.67246 0.81231 0.0
C1310 C 0.29006 0.64093 0.76714 0.0
C1311 C 0.29652 0.62659 0.74164 0.0
C1312 C 0.27427 0.66308 0.76546 0.0
C1313 C 0.28659 0.63446 0.71428 0.0
C1314 C 0.27049 0.65627 0.7124 0.0
C1315 C 0.24878 0.69329 0.73627 0.0
C1316 C 0.24392 0.70858 0.76194 0.0
C1317 C 0.26427 0.67079 0.73786 0.0
C1318 C 0.25382 0.70069 0.78918 0.0
C1319 C 0.26872 0.67799 0.79097 0.0
H1320 H 0.20236 0.64801 0.47498 0.0
H1321 H 0.24331 0.60466 0.54116 0.0
H1322 H 0.19885 0.57733 0.55034 0.0
H1323 H 0.14789 0.56776 0.54119 0.0
H1324 H 0.10776 0.61028 0.47366 0.0
H1325 H 0.15232 0.63591 0.46335 0.0
C1326 C 0.20157 0.63247 0.49132 0.0
C1327 C 0.22599 0.62854 0.50756 0.0
C1328 C 0.17606 0.6168 0.49633 0.0
C1329 C 0.22474 0.60805 0.52836 0.0
C1330 C 0.19933 0.59252 0.53371 0.0
C1331 C 0.14902 0.58253 0.52414 0.0
C1332 C 0.12467 0.58742 0.50841 0.0
C1333 C 0.1748 0.59703 0.51811 0.0
C1334 C 0.12628 0.60633 0.48616 0.0
C1335 C 0.15173 0.621 0.48026 0.0
H1336 H 0.68973 0.92957 0.80872 0.0
H1337 H 0.63721 0.87319 0.74076 0.0
H1338 H 0.6709 0.84076 0.73994 0.0
H1339 H 0.71638 0.82952 0.75653 0.0
H1340 H 0.76839 0.88427 0.82575 0.0
H1341 H 0.73419 0.91645 0.82761 0.0
C1342 C 0.68559 0.91013 0.79382 0.0
C1343 C 0.66094 0.90407 0.77469 0.0
C1344 C 0.70512 0.89135 0.79347 0.0
C1345 C 0.65595 0.87861 0.75567 0.0
C1346 C 0.67527 0.85999 0.75512 0.0
C1347 C 0.71995 0.84808 0.77252 0.0
C1348 C 0.74475 0.85424 0.79125 0.0
C1349 C 0.70004 0.86627 0.77369 0.0
C1350 C 0.74943 0.87898 0.81114 0.0
C1351 C 0.72986 0.89739 0.81222 0.0
H1352 H 0.6936 0.94195 0.48481 0.0
H1353 H 0.72746 0.99547 0.56391 0.0
H1354 H 0.68854 0.02141 0.55982 0.0
H1355 H 0.64369 0.02693 0.53553 0.0
H1356 H 0.6083 0.97174 0.45812 0.0
H1357 H 0.64933 0.94864 0.45948 0.0
C1358 C 0.69258 0.95941 0.50105 0.0
C1359 C 0.71333 0.96666 0.52472 0.0
C1360 C 0.66994 0.97396 0.4988 0.0
C1361 C 0.71166 0.98932 0.5456 0.0
C1362 C 0.68945 0.00422 0.54325 0.0
C1363 C 0.64516 0.01014 0.51871 0.0
C1364 C 0.62318 1.00104 0.49671 0.0
C1365 C 0.66833 0.99646 0.52017 0.0
C1366 C 0.62512 0.97912 0.47519 0.0
C1367 C 0.64847 0.96584 0.47607 0.0
H1368 H 0.32021 0.48468 0.76931 0.0
H1369 H 0.29235 0.46435 0.67751 0.0
H1370 H 0.27826 0.41376 0.68583 0.0
H1371 H 0.27588 0.37508 0.71826 0.0
H1372 H 0.30389 0.39414 0.8101 0.0
H1373 H 0.31576 0.44561 0.80263 0.0
C1374 C 0.31082 0.46924 0.75117 0.0
C1375 C 0.30748 0.47835 0.72276 0.0
C1376 C 0.30294 0.43998 0.75606 0.0
C1377 C 0.29528 0.458 0.69954 0.0
C1378 C 0.28724 0.42902 0.70426 0.0
C1379 C 0.28454 0.39039 0.73678 0.0
C1380 C 0.28921 0.38066 0.7647 0.0
C1381 C 0.29136 0.41973 0.7323 0.0
C1382 C 0.30014 0.401 0.78837 0.0
C1383 C 0.30697 0.43042 0.78409 0.0
H1384 H 0.20426 0.55368 0.24438 0.0
H1385 H 0.17482 0.57159 0.32765 0.0
H1386 H 0.20136 0.62052 0.3318 0.0
H1387 H 0.23016 0.65924 0.3103 0.0
H1388 H 0.25799 0.64246 0.22613 0.0
H1389 H 0.23518 0.59187 0.22399 0.0
C1390 C 0.2038 0.56819 0.26356 0.0
C1391 C 0.18739 0.55898 0.28558 0.0
C1392 C 0.21883 0.59648 0.26564 0.0
C1393 C 0.18711 0.57811 0.31028 0.0
C1394 C 0.2023 0.60612 0.3127 0.0
C1395 C 0.23157 0.64439 0.29167 0.0
C1396 C 0.24568 0.65449 0.26837 0.0
C1397 C 0.21786 0.61567 0.29031 0.0
C1398 C 0.24728 0.63511 0.24434 0.0
C1399 C 0.23411 0.60627 0.24306 0.0
H1400 H 0.56722 0.73894 0.46381 0.0
H1401 H 0.50808 0.70439 0.38968 0.0
H1402 H 0.49958 0.65793 0.41045 0.0
H1403 H 0.50868 0.62691 0.44954 0.0
H1404 H 0.56861 0.66024 0.52312 0.0
H1405 H 0.577 0.70733 0.50279 0.0
C1406 C 0.55248 0.72125 0.4522 0.0
C1407 C 0.5383 0.72529 0.42519 0.0
C1408 C 0.54777 0.69435 0.4642 0.0
C1409 C 0.51936 0.702 0.41043 0.0
C1410 C 0.51442 0.67537 0.42232 0.0
C1411 C 0.52354 0.64452 0.46116 0.0
C1412 C 0.53794 0.6402 0.48784 0.0
C1413 C 0.52845 0.6713 0.44917 0.0
C1414 C 0.55726 0.66309 0.50256 0.0
C1415 C 0.56205 0.68999 0.49092 0.0
H1416 H 0.58285 0.29298 0.71455 0.0
H1417 H 0.56865 0.20119 0.72405 0.0
H1418 H 0.61582 0.20447 0.7463 0.0
H1419 H 0.66202 0.23244 0.76058 0.0
H1420 H 0.67719 0.3242 0.75128 0.0
H1421 H 0.62895 0.32184 0.73199 0.0
C1422 C 0.59 0.27374 0.72172 0.0
C1423 C 0.57202 0.24683 0.71734 0.0
C1424 C 0.61748 0.27571 0.73461 0.0
C1425 C 0.58182 0.2222 0.72691 0.0
C1426 C 0.60892 0.22402 0.73969 0.0
C1427 C 0.65482 0.25207 0.75467 0.0
C1428 C 0.6735 0.27845 0.7574 0.0
C1429 C 0.62707 0.25054 0.74329 0.0
C1430 C 0.66347 0.30356 0.7496 0.0
C1431 C 0.63582 0.30221 0.73836 0.0
H1432 H 0.03473 0.38854 0.91073 0.0
H1433 H 0.98572 0.32799 0.95905 0.0
H1434 H 0.97972 0.36728 0.99373 0.0
H1435 H 0.98633 0.41924 0.0093 0.0
H1436 H 0.03326 0.48023 0.95985 0.0
H1437 H 0.0424 0.44065 0.92718 0.0
C1438 C 0.02295 0.38394 0.92899 0.0
C1439 C 0.01061 0.35529 0.93211 0.0
C1440 C 0.01919 0.40682 0.9488 0.0
C1441 C 0.99532 0.3498 0.9559 0.0
C1442 C 0.99186 0.37229 0.97584 0.0
C1443 C 0.99874 0.42381 0.99151 0.0
C1444 C 0.00934 0.45263 0.98727 0.0
C1445 C 1.00337 0.40093 0.97232 0.0
C1446 C 0.02524 0.45823 0.96398 0.0
C1447 C 0.0303 0.43558 0.94509 0.0
H1448 H 0.94207 0.77899 0.2352 0.0
H1449 H 0.88981 0.74942 0.15488 0.0
H1450 H 0.84888 0.75276 0.1797 0.0
H1451 H 0.82768 0.76415 0.22455 0.0
H1452 H 0.8801 0.79475 0.3043 0.0
H1453 H 0.92095 0.79061 0.27963 0.0
C1454 C 0.92174 0.77316 0.22312 0.0
C1455 C 0.91918 0.76394 0.19317 0.0
C1456 C 0.89818 0.77534 0.23749 0.0
C1457 C 0.89255 0.7566 0.17793 0.0
C1458 C 0.86904 0.75852 0.19211 0.0
C1459 C 0.84803 0.77031 0.23632 0.0
C1460 C 0.8508 0.78014 0.26609 0.0
C1461 C 0.87157 0.76799 0.22188 0.0
C1462 C 0.87736 0.78723 0.28132 0.0
C1463 C 0.90078 0.78488 0.26722 0.0
H1464 H 0.54129 0.38988 0.05932 0.0
H1465 H 0.45465 0.35404 0.04138 0.0
H1466 H 0.44666 0.39613 0.01571 0.0
H1467 H 0.46408 0.44408 1.00001 0.0
H1468 H 0.55034 0.48041 0.01975 0.0
H1469 H 0.55875 0.43717 0.04314 0.0
C1470 C 0.5207 0.39114 0.04959 0.0
C1471 C 0.49862 0.36891 0.05223 0.0
C1472 C 0.51618 0.41556 0.03533 0.0
C1473 C 0.472 0.37096 0.0397 0.0
C1474 C 0.4674 0.395 0.02503 0.0
C1475 C 0.48471 0.44229 0.00922 0.0
C1476 C 0.50657 0.46521 0.00838 0.0
C1477 C 0.48929 0.41754 0.02294 0.0
C1478 C 0.5332 0.463 0.02052 0.0
C1479 C 0.53802 0.4383 0.03378 0.0
H1480 H 0.96446 0.30375 0.34573 0.0
H1481 H 0.93119 0.2207 0.37376 0.0
H1482 H 0.88565 0.22418 0.35017 0.0
H1483 H 0.85497 0.25176 0.32382 0.0
H1484 H 0.88785 0.33384 0.29386 0.0
H1485 H 0.93416 0.32981 0.31591 0.0
C1486 C 0.94724 0.2864 0.34658 0.0
C1487 C 0.95104 0.26216 0.36172 0.0
C1488 C 0.92118 0.28842 0.33275 0.0
C1489 C 0.92872 0.2396 0.36229 0.0
C1490 C 0.90269 0.2416 0.34889 0.0
C1491 C 0.87234 0.26873 0.32209 0.0
C1492 C 0.86822 0.29324 0.30773 0.0
C1493 C 0.89865 0.26606 0.33444 0.0
C1494 C 0.89074 0.31486 0.305 0.0
C1495 C 0.91709 0.31257 0.31764 0.0
H1496 H 0.96264 0.70637 0.57177 0.0
H1497 H 0.02755 0.74149 0.52152 0.0
H1498 H 0.0345 0.6928 0.50631 0.0
H1499 H 0.02474 0.64053 0.51026 0.0
H1500 H 0.95997 0.60506 0.56041 0.0
H1501 H 0.95028 0.65354 0.57243 0.0
C1502 C 0.97808 0.70337 0.5572 0.0
C1503 C 0.99471 0.72762 0.54806 0.0
C1504 C 0.98213 0.67524 0.54863 0.0
C1505 C 0.01452 0.72329 0.52904 0.0
C1506 C 0.01859 0.69542 0.52037 0.0
C1507 C 0.00834 0.64337 0.52362 0.0
C1508 C 0.99323 0.61923 0.53456 0.0
C1509 C 1.00294 0.67129 0.53053 0.0
C1510 C 0.97186 0.62325 0.5516 0.0
C1511 C 0.96639 0.651 0.55861 0.0
H1512 H 0.59176 0.74426 0.86109 0.0
H1513 H 0.57895 0.82155 0.82018 0.0
H1514 H 0.61718 0.8174 0.79124 0.0
H1515 H 0.65605 0.79375 0.78021 0.0
H1516 H 0.66952 0.71705 0.82167 0.0
H1517 H 0.62867 0.71863 0.84739 0.0
C1518 C 0.59727 0.76016 0.84578 0.0
C1519 C 0.58278 0.78338 0.84303 0.0
C1520 C 0.61918 0.7576 0.82921 0.0
C1521 C 0.58989 0.80356 0.8228 0.0
C1522 C 0.61171 0.80119 0.80624 0.0
C1523 C 0.64974 0.77709 0.79449 0.0
C1524 C 0.66567 0.75535 0.79919 0.0
C1525 C 0.6267 0.77853 0.80958 0.0
C1526 C 0.65742 0.73392 0.81772 0.0
C1527 C 0.63424 0.73496 0.83256 0.0
H1528 H 0.44431 0.60309 0.6782 0.0
H1529 H 0.38777 0.52191 0.66229 0.0
H1530 H 0.41663 0.50427 0.62766 0.0
H1531 H 0.45645 0.51243 0.60022 0.0
H1532 H 0.51161 0.59449 0.61278 0.0
H1533 H 0.48508 0.61101 0.65086 0.0
C1534 C 0.43833 0.58154 0.66717 0.0
C1535 C 0.4138 0.56394 0.67277 0.0
C1536 C 0.45491 0.57156 0.6469 0.0
C1537 C 0.40637 0.53606 0.65825 0.0
C1538 C 0.42296 0.52585 0.63853 0.0
C1539 C 0.46311 0.53372 0.61169 0.0
C1540 C 0.48619 0.55209 0.60389 0.0
C1541 C 0.44715 0.54345 0.63257 0.0
C1542 C 0.49405 0.57985 0.61855 0.0
C1543 C 0.47876 0.58937 0.64015 0.0
H1544 H 0.81058 0.22682 0.93923 0.0
H1545 H 0.74801 0.1561 0.90008 0.0
H1546 H 0.73759 0.18405 0.85919 0.0
H1547 H 0.74527 0.22925 0.83474 0.0
H1548 H 0.81012 0.29855 0.87151 0.0
H1549 H 0.82004 0.27106 0.91315 0.0
C1550 C 0.79472 0.21752 0.92173 0.0
C1551 C 0.78013 0.18933 0.92293 0.0
C1552 C 0.78901 0.23364 0.89781 0.0
C1553 C 0.75973 0.17764 0.89985 0.0
C1554 C 0.75362 0.19368 0.87639 0.0
C1555 C 0.76192 0.23805 0.85154 0.0
C1556 C 0.77712 0.26577 0.84973 0.0
C1557 C 0.76805 0.22174 0.87512 0.0
C1558 C 0.79808 0.27724 0.87227 0.0
C1559 C 0.80384 0.26148 0.89612 0.0
H1560 H 0.03494 0.48599 0.2127 0.0
H1561 H 0.11982 0.48715 0.19739 0.0
H1562 H 0.1082 0.49305 0.14574 0.0
H1563 H 0.07421 0.50029 0.10511 0.0
H1564 H 0.9893 0.49857 0.12103 0.0
H1565 H 1.00071 0.49036 0.17182 0.0
C1566 C 0.05091 0.48737 0.19808 0.0
C1567 C 0.07826 0.48628 0.20913 0.0
C1568 C 0.0441 0.49075 0.16831 0.0
C1569 C 0.09858 0.48793 0.18965 0.0
C1570 C 0.09196 0.49138 0.16003 0.0
C1571 C 0.05813 0.49786 0.11959 0.0
C1572 C 0.03092 0.50026 0.109 0.0
C1573 C 0.06482 0.49316 0.14913 0.0
C1574 C 0.01045 0.49696 0.1283 0.0
C1575 C 0.01694 0.4923 0.15753 0.0
H1576 H 0.75755 0.8761 0.47502 0.0
H1577 H 0.83075 0.84456 0.50821 0.0
H1578 H 0.82813 0.81331 0.46306 0.0
H1579 H 0.80728 0.79845 0.41244 0.0
H1580 H 0.73503 0.83165 0.37944 0.0
H1581 H 0.73477 0.8585 0.42652 0.0
C1582 C 0.7729 0.86231 0.47247 0.0
C1583 C 0.79456 0.86296 0.49467 0.0
C1584 C 0.77138 0.84469 0.44654 0.0
C1585 C 0.81399 0.8446 0.49128 0.0
C1586 C 0.81252 0.82675 0.46549 0.0
C1587 C 0.79125 0.81117 0.41584 0.0
C1588 C 0.77136 0.8134 0.39267 0.0
C1589 C 0.79162 0.82708 0.44275 0.0
C1590 C 0.75066 0.8299 0.39707 0.0
C1591 C 0.75055 0.84529 0.42388 0.0
H1592 H 0.43553 0.53884 0.7921 0.0
H1593 H 0.38601 0.60119 0.81952 0.0
H1594 H 0.40825 0.60387 0.8695 0.0
H1595 H 0.43898 0.58512 0.9062 0.0
H1596 H 0.48781 0.52239 0.87807 0.0
H1597 H 0.46865 0.52327 0.82757 0.0
C1598 C 0.42977 0.55323 0.80893 0.0
C1599 C 0.40895 0.56948 0.80222 0.0
C1600 C 0.44235 0.55441 0.83756 0.0
C1601 C 0.40195 0.58833 0.82418 0.0
C1602 C 0.41455 0.58979 0.85279 0.0
C1603 C 0.44552 0.57189 0.88891 0.0
C1604 C 0.46445 0.55348 0.89573 0.0
C1605 C 0.43431 0.57239 0.85986 0.0
C1606 C 0.47305 0.53657 0.87327 0.0
C1607 C 0.46213 0.53704 0.84441 0.0
H1608 H 0.76397 0.24641 0.07327 0.0
H1609 H 0.82411 0.19472 0.10254 0.0
H1610 H 0.82407 0.21469 0.15296 0.0
H1611 H 0.80438 0.24459 0.18937 0.0
H1612 H 0.74258 0.29399 0.15916 0.0
H1613 H 0.74604 0.27739 0.1087 0.0
C1614 C 0.77732 0.23965 0.09056 0.0
C1615 C 0.79396 0.21897 0.08396 0.0
C1616 C 0.77684 0.25083 0.11953 0.0
C1617 C 0.81104 0.21055 0.10686 0.0
C1618 C 0.811 0.22195 0.13577 0.0
C1619 C 0.79206 0.25207 0.17167 0.0
C1620 C 0.77326 0.27056 0.17807 0.0
C1621 C 0.79365 0.24181 0.14247 0.0
C1622 C 0.75712 0.2797 0.15489 0.0
C1623 C 0.75906 0.27018 0.12598 0.0
H1624 H 0.08342 0.54833 0.37373 0.0
H1625 H 0.06444 0.45541 0.35738 0.0
H1626 H 0.03567 0.45293 0.39781 0.0
H1627 H 0.01631 0.47742 0.43866 0.0
H1628 H 0.03617 0.57029 0.45431 0.0
H1629 H 0.06414 0.57249 0.41352 0.0
C1630 C 0.07294 0.52746 0.37882 0.0
C1631 C 0.07616 0.50209 0.36232 0.0
C1632 C 0.05655 0.5262 0.40216 0.0
C1633 C 0.06237 0.47533 0.36953 0.0
C1634 C 0.04589 0.4739 0.39272 0.0
C1635 C 0.02662 0.49811 0.43292 0.0
C1636 C 0.02433 0.52369 0.44966 0.0
C1637 C 0.04284 0.49921 0.40927 0.0
C1638 C 0.03794 0.55029 0.4421 0.0
C1639 C 0.05384 0.55158 0.41865 0.0
H1640 H 0.72757 0.84009 0.60596 0.0
H1641 H 0.81354 0.87949 0.61896 0.0
H1642 H 0.82231 0.84745 0.65661 0.0
H1643 H 0.80494 0.81273 0.68932 0.0
H1644 H 0.71815 0.7767 0.68127 0.0
H1645 H 0.71052 0.80196 0.63742 0.0
C1646 C 0.7482 0.84141 0.61696 0.0
C1647 C 0.76976 0.86242 0.61017 0.0
C1648 C 0.753 0.82339 0.63926 0.0
C1649 C 0.79647 0.86392 0.62433 0.0
C1650 C 0.80158 0.84546 0.64569 0.0
C1651 C 0.78437 0.80982 0.67776 0.0
C1652 C 0.76208 0.79319 0.68887 0.0
C1653 C 0.77988 0.8257 0.65383 0.0
C1654 C 0.73568 0.78954 0.6733 0.0
C1655 C 0.73124 0.80423 0.6484 0.0
H1656 H 0.61551 0.41211 0.51766 0.0
H1657 H 0.68689 0.4743 0.55375 0.0
H1658 H 0.65802 0.51158 0.55887 0.0
H1659 H 0.61212 0.52703 0.55184 0.0
H1660 H 0.54204 0.46439 0.51316 0.0
H1661 H 0.57047 0.42712 0.51084 0.0
C1662 C 0.62482 0.43377 0.52675 0.0
C1663 C 0.6534 0.44024 0.53525 0.0
C1664 C 0.60816 0.4552 0.5294 0.0
C1665 C 0.66497 0.46859 0.5469 0.0
C1666 C 0.64844 0.48999 0.54989 0.0
C1667 C 0.6031 0.50516 0.5432 0.0
C1668 C 0.57474 0.49855 0.53326 0.0
C1669 C 0.61995 0.48362 0.54108 0.0
C1670 C 0.56355 0.47014 0.52165 0.0
C1671 C 0.57991 0.4487 0.52002 0.0
H1672 H 0.19281 0.12716 0.45507 0.0
H1673 H 0.23002 0.09026 0.52881 0.0
H1674 H 0.18455 0.06786 0.5399 0.0
H1675 H 0.13432 0.06162 0.53077 0.0
H1676 H 0.09696 0.09999 0.45806 0.0
H1677 H 0.14243 0.11891 0.44451 0.0
C1678 C 0.19098 0.11384 0.47329 0.0
C1679 C 0.21469 0.11045 0.49115 0.0
C1680 C 0.16476 0.10154 0.47994 0.0
C1681 C 0.21201 0.09332 0.51482 0.0
C1682 C 0.18604 0.08056 0.52123 0.0
C1683 C 0.13607 0.07396 0.51185 0.0
C1684 C 0.11225 0.07947 0.49559 0.0
C1685 C 0.16227 0.08503 0.5043 0.0
C1686 C 0.11494 0.09543 0.47105 0.0
C1687 C 0.14096 0.1063 0.46325 0.0
H1688 H 0.19851 0.93544 0.74541 0.0
H1689 H 0.21894 0.95482 0.83847 0.0
H1690 H 0.2451 0.915 0.84013 0.0
H1691 H 0.26139 0.87393 0.81518 0.0
H1692 H 0.23938 0.85375 0.72256 0.0
H1693 H 0.21467 0.89472 0.72061 0.0
C1694 C 0.20879 0.93109 0.76606 0.0
C1695 C 0.20681 0.94816 0.79176 0.0
C1696 C 0.22354 0.90803 0.7669 0.0
C1697 C 0.22011 0.94203 0.81835 0.0
C1698 C 0.23511 0.91928 0.81932 0.0
C1699 C 0.25144 0.87881 0.79457 0.0
C1700 C 0.25216 0.86107 0.76901 0.0
C1701 C 0.23692 0.9021 0.79374 0.0
C1702 C 0.2389 0.86717 0.74248 0.0
C1703 C 0.22483 0.89055 0.74137 0.0
H1704 H 0.29025 0.94787 0.00521 0.0
H1705 H 0.30823 0.95154 0.09885 0.0
H1706 H 0.35695 0.96888 0.09484 0.0
H1707 H 0.39489 0.98184 0.06462 0.0
H1708 H 0.37663 0.9809 0.97135 0.0
H1709 H 0.32773 0.96361 0.97526 0.0
C1710 C 0.3048 0.9526 0.02475 0.0
C1711 C 0.29553 0.94827 0.05228 0.0
C1712 C 0.33282 0.9629 0.02232 0.0
C1713 C 0.31469 0.95475 0.07739 0.0
C1714 C 0.34263 0.96455 0.07511 0.0
C1715 C 0.38016 0.97779 0.04518 0.0
C1716 C 0.38932 0.9823 0.01769 0.0
C1717 C 0.35199 0.96847 0.04769 0.0
C1718 C 0.37003 0.97746 0.99272 0.0
C1719 C 0.34209 0.96758 0.99496 0.0
H1720 H 0.88467 0.67368 0.79713 0.0
H1721 H 0.83885 0.61305 0.72828 0.0
H1722 H 0.8038 0.64401 0.72233 0.0
H1723 H 0.78525 0.68803 0.73782 0.0
H1724 H 0.83142 0.7476 0.80732 0.0
H1725 H 0.86706 0.71762 0.81162 0.0
C1726 C 0.8671 0.66722 0.78071 0.0
C1727 C 0.86447 0.64094 0.76329 0.0
C1728 C 0.84695 0.68507 0.77745 0.0
C1729 C 0.84149 0.63311 0.74207 0.0
C1730 C 0.82136 0.65082 0.73866 0.0
C1731 C 0.80319 0.69444 0.75377 0.0
C1732 C 0.80573 0.72023 0.77198 0.0
C1733 C 0.82372 0.67678 0.7564 0.0
C1734 C 0.82907 0.72817 0.79265 0.0
C1735 C 0.84946 0.7109 0.79529 0.0
H1736 H 0.82378 0.57795 0.04818 0.0
H1737 H 0.81966 0.57171 0.95416 0.0
H1738 H 0.85839 0.54529 0.95611 0.0
H1739 H 0.89572 0.52794 0.98465 0.0
H1740 H 0.90342 0.53935 0.07868 0.0
H1741 H 0.86055 0.55935 0.07681 0.0
C1742 C 0.83119 0.57046 0.02815 0.0
C1743 C 0.81908 0.57671 1.00108 0.0
C1744 C 0.85399 0.55624 0.02951 0.0
C1745 C 0.82892 0.56726 0.97523 0.0
C1746 C 0.85096 0.55213 0.97634 0.0
C1747 C 0.88764 0.53426 0.0047 0.0
C1748 C 0.90233 0.5321 0.03176 0.0
C1749 C 0.86395 0.54701 1.00336 0.0
C1750 C 0.89217 0.5408 0.05765 0.0
C1751 C 0.86784 0.55234 0.05656 0.0
H1752 H 0.22165 0.09487 0.75457 0.0
H1753 H 0.20379 0.10711 0.84378 0.0
H1754 H 0.22257 0.15868 0.84518 0.0
H1755 H 0.24165 0.20088 0.82 0.0
H1756 H 0.25815 0.18799 0.73031 0.0
H1757 H 0.24239 0.13622 0.73031 0.0
C1758 C 0.22204 0.10872 0.77444 0.0
C1759 C 0.2112 0.09709 0.79897 0.0
C1760 C 0.23252 0.13837 0.77498 0.0
C1761 C 0.21195 0.11545 0.82453 0.0
C1762 C 0.22264 0.14499 0.82533 0.0
C1763 C 0.24204 0.18672 0.80055 0.0
C1764 C 0.25095 0.19845 0.77516 0.0
C1765 C 0.23262 0.15679 0.80053 0.0
C1766 C 0.25123 0.17971 0.75013 0.0
C1767 C 0.24223 0.15001 0.75007 0.0
H1768 H 0.3386 0.9945 0.27891 0.0
H1769 H 0.343 0.97415 0.18707 0.0
H1770 H 0.31486 0.92671 0.1892 0.0
H1771 H 0.29244 0.88952 0.21809 0.0
H1772 H 0.2881 0.90977 0.30986 0.0
H1773 H 0.31239 0.95896 0.30673 0.0
C1774 C 0.33326 0.97976 0.25931 0.0
C1775 C 0.34321 0.9877 0.23297 0.0
C1776 C 0.31706 0.95253 0.26068 0.0
C1777 C 0.33575 0.96853 0.20767 0.0
C1778 C 0.31969 0.94137 0.20887 0.0
C1779 C 0.29641 0.9049 0.23727 0.0
C1780 C 0.28871 0.89609 0.26421 0.0
C1781 C 0.31068 0.93295 0.23537 0.0
C1782 C 0.29385 0.91613 0.2889 0.0
C1783 C 0.30789 0.94416 0.28715 0.0
H1784 H 0.47734 0.32203 0.59793 0.0
H1785 H 0.5479 0.36631 0.65558 0.0
H1786 H 0.54855 0.40916 0.62889 0.0
H1787 H 0.52858 0.43486 0.59052 0.0
H1788 H 0.45736 0.39258 0.53303 0.0
H1789 H 0.45748 0.34816 0.55818 0.0
C1790 C 0.49294 0.341 0.60448 0.0
C1791 C 0.51251 0.3409 0.62884 0.0
C1792 C 0.49302 0.36598 0.58915 0.0
C1793 C 0.5325 0.36575 0.6371 0.0
C1794 C 0.53293 0.39033 0.62182 0.0
C1795 C 0.51307 0.41591 0.5834 0.0
C1796 C 0.49292 0.41699 0.56003 0.0
C1797 C 0.51317 0.39079 0.59806 0.0
C1798 C 0.47305 0.39226 0.55102 0.0
C1799 C 0.47314 0.36691 0.56541 0.0
H1800 H 0.45293 0.80823 0.31841 0.0
H1801 H 0.44203 0.7153 0.31897 0.0
H1802 H 0.39344 0.71132 0.30108 0.0
H1803 H 0.35331 0.73415 0.28733 0.0
H1804 H 0.36404 0.82706 0.28646 0.0
H1805 H 0.41313 0.83093 0.30216 0.0
C1806 C 0.43999 0.78708 0.31441 0.0
C1807 C 0.45127 0.76214 0.32022 0.0
C1808 C 0.41185 0.78487 0.3041 0.0
C1809 C 0.43407 0.73493 0.3148 0.0
C1810 C 0.40616 0.73259 0.30458 0.0
C1811 C 0.36637 0.75526 0.29034 0.0
C1812 C 0.35475 0.78024 0.28574 0.0
C1813 C 0.39472 0.75742 0.29947 0.0
C1814 C 0.37221 0.80737 0.28976 0.0
C1815 C 0.40039 0.80966 0.29884 0.0
H1816 H 0.99213 0.67574 0.1263 0.0
H1817 H 0.04702 0.72949 0.07713 0.0
H1818 H 0.05215 0.68733 0.04598 0.0
H1819 H 0.04293 0.63504 0.0337 0.0
H1820 H 0.9893 0.58027 0.08292 0.0
H1821 H 0.98155 0.62282 0.11267 0.0
C1822 C 1.00507 0.67822 0.10867 0.0
C1823 C 0.01927 0.70584 0.10427 0.0
C1824 C 0.00818 0.65366 0.09076 0.0
C1825 C 0.03596 0.70858 0.08126 0.0
C1826 C 0.03892 0.68444 0.06332 0.0
C1827 C 0.02938 0.63242 0.05081 0.0
C1828 C 0.01677 0.60457 0.05615 0.0
C1829 C 0.0254 0.65687 0.06805 0.0
C1830 C 0.99922 0.60152 0.07835 0.0
C1831 C 0.99488 0.62584 0.09544 0.0
H1832 H 0.13899 0.32834 0.85813 0.0
H1833 H 0.07981 0.27346 0.79476 0.0
H1834 H 0.11701 0.2632 0.76655 0.0
H1835 H 0.16671 0.26891 0.76029 0.0
H1836 H 0.22537 0.32609 0.82213 0.0
H1837 H 0.18826 0.33598 0.85058 0.0
C1838 C 0.13416 0.31421 0.83808 0.0
C1839 C 0.10649 0.30165 0.82873 0.0
C1840 C 0.15571 0.30855 0.82178 0.0
C1841 C 0.10078 0.28355 0.80254 0.0
C1842 C 0.12212 0.27756 0.7864 0.0
C1843 C 0.17136 0.28353 0.78 0.0
C1844 C 0.19896 0.29625 0.78936 0.0
C1845 C 0.1497 0.28977 0.79589 0.0
C1846 C 0.2045 0.31544 0.81475 0.0
C1847 C 0.1832 0.32131 0.83094 0.0
H1848 H 0.49856 0.69326 0.94901 0.0
H1849 H 0.58185 0.7245 0.98869 0.0
H1850 H 0.57956 0.68295 0.01773 0.0
H1851 H 0.55433 0.63739 0.03115 0.0
H1852 H 0.47127 0.6058 0.99163 0.0
H1853 H 0.47298 0.64798 0.96311 0.0
C1854 C 0.5162 0.69103 0.96405 0.0
C1855 C 0.54035 0.71194 0.96666 0.0
C1856 C 0.51477 0.66708 0.98066 0.0
C1857 C 0.56301 0.70873 0.98626 0.0
C1858 C 0.56173 0.68499 1.00289 0.0
C1859 C 0.53652 0.63993 0.0165 0.0
C1860 C 0.51274 0.61863 0.01325 0.0
C1861 C 0.53776 0.66405 1.00021 0.0
C1862 C 0.48987 0.62191 0.99411 0.0
C1863 C 0.49084 0.64599 0.97792 0.0
H1864 H 0.0506 0.79259 0.66745 0.0
H1865 H 0.09606 0.84631 0.61017 0.0
H1866 H 0.13876 0.84697 0.64189 0.0
H1867 H 0.16342 0.83008 0.68441 0.0
H1868 H 0.11816 0.77438 0.74005 0.0
H1869 H 0.0749 0.77704 0.71061 0.0
C1870 C 0.0698 0.8046 0.66193 0.0
C1871 C 0.07017 0.81926 0.63639 0.0
C1872 C 0.09424 0.80458 0.68001 0.0
C1873 C 0.09524 0.83469 0.6296 0.0
C1874 C 0.11965 0.83513 0.64775 0.0
C1875 C 0.14402 0.81884 0.69025 0.0
C1876 C 0.14381 0.80206 0.71426 0.0
C1877 C 0.11941 0.81986 0.6728 0.0
C1878 C 0.11869 0.78742 0.72161 0.0
C1879 C 0.09403 0.78886 0.70475 0.0
H1880 H 0.02813 0.34979 0.50575 0.0
H1881 H 0.06696 0.37478 0.42943 0.0
H1882 H 0.07175 0.42575 0.44703 0.0
H1883 H 0.05982 0.46327 0.48128 0.0
H1884 H 0.01832 0.43762 0.55566 0.0
H1885 H 0.02013 0.38695 0.54198 0.0
C1886 C 0.03801 0.36633 0.49313 0.0
C1887 C 0.04684 0.35844 0.46614 0.0
C1888 C 0.04021 0.39556 0.50307 0.0
C1889 C 0.05978 0.38021 0.45021 0.0
C1890 C 0.06251 0.40941 0.46023 0.0
C1891 C 0.05191 0.4466 0.49487 0.0
C1892 C 0.039 0.45404 0.51943 0.0
C1893 C 0.05212 0.41736 0.48625 0.0
C1894 C 0.02832 0.43229 0.53663 0.0
C1895 C 0.02924 0.40334 0.52874 0.0
H1896 H 0.43414 0.31207 0.16766 0.0
H1897 H 0.42299 0.21871 0.15985 0.0
H1898 H 0.38976 0.21681 0.19574 0.0
H1899 H 0.36151 0.24138 0.22633 0.0
H1900 H 0.37106 0.3345 0.233 0.0
H1901 H 0.40802 0.33688 0.20103 0.0
C1902 C 0.42448 0.29129 0.17382 0.0
C1903 C 0.43074 0.26554 0.1608 0.0
C1904 C 0.40537 0.29036 0.1944 0.0
C1905 C 0.41835 0.23883 0.16934 0.0
C1906 C 0.39941 0.23772 0.18991 0.0
C1907 C 0.37201 0.26223 0.22116 0.0
C1908 C 0.36362 0.28775 0.23174 0.0
C1909 C 0.39249 0.26331 0.2022 0.0
C1910 C 0.37733 0.31462 0.22508 0.0
C1911 C 0.39823 0.31593 0.20662 0.0
H1912 H 0.5868 0.48585 0.36401 0.0
H1913 H 0.57358 0.5713 0.34422 0.0
H1914 H 0.54039 0.57091 0.37992 0.0
H1915 H 0.51906 0.54879 0.42018 0.0
H1916 H 0.53334 0.4643 0.44191 0.0
H1917 H 0.5613 0.46138 0.40126 0.0
C1918 C 0.57652 0.5043 0.36739 0.0
C1919 C 0.58305 0.52878 0.35183 0.0
C1920 C 0.55745 0.50401 0.38809 0.0
C1921 C 0.56921 0.55231 0.35611 0.0
C1922 C 0.55015 0.5521 0.37648 0.0
C1923 C 0.52781 0.52944 0.41568 0.0
C1924 C 0.52439 0.50695 0.43425 0.0
C1925 C 0.54462 0.52838 0.39305 0.0
C1926 C 0.53556 0.48189 0.42791 0.0
C1927 C 0.55188 0.48038 0.4049 0.0
H1928 H 0.27733 0.86007 0.12063 0.0
H1929 H 0.19173 0.82467 0.09419 0.0
H1930 H 0.19189 0.7927 0.13403 0.0
H1931 H 0.21688 0.77436 0.1765 0.0
H1932 H 0.30181 0.81224 0.20344 0.0
H1933 H 0.30141 0.84355 0.16345 0.0
C1934 C 0.25866 0.84536 0.12348 0.0
C1935 C 0.2346 0.84467 0.10419 0.0
C1936 C 0.25884 0.82736 0.14661 0.0
C1937 C 0.21054 0.8257 0.10864 0.0
C1938 C 0.21066 0.80733 0.1314 0.0
C1939 C 0.23528 0.78939 0.17342 0.0
C1940 C 0.25941 0.79088 0.19285 0.0
C1941 C 0.23476 0.80783 0.15048 0.0
C1942 C 0.28299 0.8107 0.18886 0.0
C1943 C 0.28279 0.82861 0.16595 0.0
H1944 H 0.93594 0.57983 0.85519 0.0
H1945 H 1.00149 0.54491 0.81772 0.0
H1946 H 0.02352 0.54062 0.86643 0.0
H1947 H 0.02257 0.54333 0.91982 0.0
H1948 H 0.95624 0.57686 0.95718 0.0
H1949 H 0.93651 0.58531 0.90872 0.0
C1950 C 0.9552 0.57159 0.85765 0.0
C1951 C 0.96686 0.56257 0.83264 0.0
C1952 C 0.9677 0.56879 0.88588 0.0
C1953 C 0.99186 0.55189 0.83644 0.0
C1954 C 1.00454 0.5494 0.86437 0.0
C1955 C 1.00407 0.55295 0.91743 0.0
C1956 C 0.99097 0.55935 0.94227 0.0
C1957 C 0.99243 0.5573 0.88929 0.0
C1958 C 0.96681 0.57157 0.93857 0.0
C1959 C 0.95541 0.57638 0.91077 0.0
H1960 H 0.2626 0.22478 0.55826 0.0
H1961 H 0.35026 0.25406 0.57753 0.0
H1962 H 0.34253 0.28296 0.62122 0.0
H1963 H 0.31137 0.29296 0.65748 0.0
H1964 H 0.22403 0.26086 0.63928 0.0
H1965 H 0.23096 0.24039 0.59101 0.0
C1966 C 0.27996 0.23792 0.57179 0.0
C1967 C 0.30694 0.23699 0.56526 0.0
C1968 C 0.27537 0.2538 0.59695 0.0
C1969 C 0.32931 0.25444 0.58239 0.0
C1970 C 0.3249 0.27078 0.60737 0.0
C1971 C 0.2938 0.28212 0.64261 0.0
C1972 C 0.26729 0.27792 0.65182 0.0
C1973 C 0.2981 0.26964 0.61543 0.0
C1974 C 0.24462 0.26403 0.63254 0.0
C1975 C 0.2486 0.25224 0.60509 0.0
H1976 H 0.62014 0.50153 0.202 0.0
H1977 H 0.54688 0.50922 0.24352 0.0
H1978 H 0.5227 0.51705 0.1968 0.0
H1979 H 0.52305 0.52366 0.14442 0.0
H1980 H 0.59505 0.51238 0.10216 0.0
H1981 H 0.61911 0.50388 0.1488 0.0
C1982 C 0.59885 0.5048 0.2007 0.0
C1983 C 0.58534 0.50507 0.22607 0.0
C1984 C 0.58492 0.50871 0.17369 0.0
C1985 C 0.55765 0.50888 0.22419 0.0
C1986 C 0.54386 0.51348 0.19754 0.0
C1987 C 0.54396 0.5192 0.14551 0.0
C1988 C 0.55746 0.51892 0.12017 0.0
C1989 C 0.55738 0.51373 0.17222 0.0
C1990 C 0.58436 0.51273 0.12155 0.0
C1991 C 0.59811 0.50796 0.14816 0.0
H1992 H 0.19842 0.86199 0.93444 0.0
H1993 H 0.26251 0.82044 0.97436 0.0
H1994 H 0.26933 0.79881 0.92685 0.0
H1995 H 0.25882 0.79303 0.87372 0.0
H1996 H 0.19528 0.83454 0.83275 0.0
H1997 H 0.18659 0.85456 0.8806 0.0
C1998 C 0.21366 0.84796 0.93276 0.0
C1999 C 0.22996 0.84302 0.95813 0.0
C2000 C 0.21775 0.83561 0.90504 0.0
C2001 C 0.24971 0.82484 0.95537 0.0
C2002 C 0.25369 0.8124 0.9281 0.0
C2003 C 0.24296 0.80634 0.87516 0.0
C2004 C 0.22777 0.81217 0.84948 0.0
C2005 C 0.23811 0.8179 0.90276 0.0
C2006 C 0.20725 0.82946 0.85203 0.0
C2007 C 0.2023 0.84104 0.87946 0.0
H2008 H 0.95084 0.53762 0.68221 0.0
H2009 H 0.97684 0.6303 0.69243 0.0
H2010 H 1.00417 0.62744 0.6515 0.0
H2011 H 0.02078 0.59886 0.61239 0.0
H2012 H 0.99544 0.50633 0.60193 0.0
H2013 H 0.96773 0.50887 0.64297 0.0
C2014 C 0.96252 0.55719 0.67554 0.0
C2015 C 0.96171 0.58415 0.69059 0.0
C2016 C 0.97829 0.55544 0.65175 0.0
C2017 C 0.97698 0.60924 0.68143 0.0
C2018 C 0.99269 0.60766 0.65794 0.0
C2019 C 0.00929 0.57925 0.61922 0.0
C2020 C 0.00988 0.55247 0.60394 0.0
C2021 C 0.99353 0.58091 0.64294 0.0
C2022 C 0.99483 0.52726 0.61296 0.0
C2023 C 0.97915 0.5287 0.63658 0.0
H2024 H 0.25268 0.22914 0.44405 0.0
H2025 H 0.32634 0.19489 0.42835 0.0
H2026 H 0.32803 0.21789 0.38255 0.0
H2027 H 0.30643 0.24411 0.34534 0.0
H2028 H 0.23072 0.27491 0.35917 0.0
H2029 H 0.23227 0.25733 0.40786 0.0
C2030 C 0.26925 0.22689 0.43074 0.0
C2031 C 0.28924 0.21016 0.43942 0.0
C2032 C 0.26977 0.23965 0.40426 0.0
C2033 C 0.31057 0.20744 0.42196 0.0
C2034 C 0.31159 0.22065 0.39586 0.0
C2035 C 0.29062 0.2476 0.3593 0.0
C2036 C 0.26856 0.26089 0.34889 0.0
C2037 C 0.29104 0.23638 0.38659 0.0
C2038 C 0.24791 0.26476 0.36687 0.0
C2039 C 0.24872 0.25459 0.39456 0.0
H2040 H 0.36079 0.59719 0.49054 0.0
H2041 H 0.42126 0.66593 0.53706 0.0
H2042 H 0.45625 0.63494 0.53638 0.0
H2043 H 0.46935 0.58764 0.52474 0.0
H2044 H 0.40928 0.51865 0.4784 0.0
H2045 H 0.37464 0.55044 0.47661 0.0
C2046 C 0.38164 0.60545 0.50042 0.0
C2047 C 0.38822 0.63388 0.51401 0.0
C2048 C 0.40181 0.58745 0.49999 0.0
C2049 C 0.41546 0.64418 0.52654 0.0
C2050 C 0.43556 0.62645 0.52618 0.0
C2051 C 0.44876 0.57964 0.51397 0.0
C2052 C 0.44187 0.55078 0.50181 0.0
C2053 C 0.42892 0.59797 0.51325 0.0
C2054 C 0.4151 0.54077 0.48795 0.0
C2055 C 0.39526 0.55892 0.48701 0.0
H2056 H 0.85562 0.99775 0.54636 0.0
H2057 H 0.88867 0.94307 0.60717 0.0
H2058 H 0.93544 0.96706 0.60228 0.0
H2059 H 0.96698 1.00085 0.57779 0.0
H2060 H 0.93371 0.05456 0.51604 0.0
H2061 H 0.88699 0.03373 0.52447 0.0
C2062 C 0.87302 0.99125 0.55879 0.0
C2063 C 0.86866 0.96849 0.57688 0.0
C2064 C 0.89984 0.00487 0.55563 0.0
C2065 C 0.89144 0.96046 0.59297 0.0
C2066 C 0.91822 0.97412 0.59015 0.0
C2067 C 0.94954 0.00832 0.56649 0.0
C2068 C 0.95385 0.02909 0.54618 0.0
C2069 C 0.92267 0.99597 0.57111 0.0
C2070 C 0.93099 0.03843 0.53163 0.0
C2071 C 0.90424 0.02653 0.53641 0.0
H2072 H 0.85005 0.16779 0.25362 0.0
H2073 H 0.78261 0.09569 0.23958 0.0
H2074 H 0.74956 0.12893 0.2435 0.0
H2075 H 0.73997 0.17897 0.25159 0.0
H2076 H 0.80807 0.24975 0.26341 0.0
H2077 H 0.84065 0.21684 0.26038 0.0
C2078 C 0.82813 0.15924 0.25136 0.0
C2079 C 0.81887 0.12929 0.24636 0.0
C2080 C 0.80934 0.17835 0.25376 0.0
C2081 C 0.79034 0.11869 0.24344 0.0
C2082 C 0.77141 0.13768 0.24572 0.0
C2083 C 0.76198 0.18704 0.25368 0.0
C2084 C 0.77172 0.21692 0.25933 0.0
C2085 C 0.78068 0.1676 0.25102 0.0
C2086 C 0.80014 0.22706 0.26125 0.0
C2087 C 0.81881 0.20811 0.25875 0.0
H2088 H 0.7164 0.10366 0.02928 0.0
H2089 H 0.69065 0.15989 0.96588 0.0
H2090 H 0.6427 0.13723 0.96607 0.0
H2091 H 0.6077 0.10257 0.98522 0.0
H2092 H 0.6325 0.04753 0.05011 0.0
H2093 H 0.68103 0.06842 0.04833 0.0
C2094 C 0.70029 0.11077 0.01537 0.0
C2095 C 0.70716 0.13348 0.99763 0.0
C2096 C 0.67253 0.09793 0.01593 0.0
C2097 C 0.68599 0.1426 0.97989 0.0
C2098 C 0.65851 0.12963 0.97994 0.0
C2099 C 0.62376 0.09508 0.99889 0.0
C2100 C 0.61659 0.07359 0.01777 0.0
C2101 C 0.6515 0.10748 0.99804 0.0
C2102 C 0.63755 0.06412 0.03542 0.0
C2103 C 0.66529 0.07606 0.0344 0.0
H2104 H 0.15201 0.38326 0.24475 0.0
H2105 H 0.19564 0.43598 0.32043 0.0
H2106 H 0.23038 0.40437 0.32336 0.0
H2107 H 0.24898 0.36183 0.30365 0.0
H2108 H 0.20465 0.30998 0.22779 0.0
H2109 H 0.16977 0.34098 0.2258 0.0
C2110 C 0.16904 0.38786 0.26198 0.0
C2111 C 0.17114 0.41207 0.28229 0.0
C2112 C 0.18894 0.36965 0.26352 0.0
C2113 C 0.19341 0.41752 0.30449 0.0
C2114 C 0.21336 0.39946 0.30615 0.0
C2115 C 0.23164 0.3574 0.28676 0.0
C2116 C 0.2293 0.33343 0.2661 0.0
C2117 C 0.21146 0.37551 0.28566 0.0
C2118 C 0.20676 0.32796 0.24428 0.0
C2119 C 0.18681 0.34579 0.243 0.0
H2120 H 0.20635 0.48569 0.04654 0.0
H2121 H 0.16968 0.41598 0.9816 0.0
H2122 H 0.13112 0.44074 0.96964 0.0
H2123 H 0.10574 0.47966 0.98056 0.0
H2124 H 0.14086 0.54903 0.0461 0.0
H2125 H 0.1825 0.52731 0.0544 0.0
C2126 C 0.19 0.47604 0.02965 0.0
C2127 C 0.1907 0.44884 0.01531 0.0
C2128 C 0.16771 0.49037 0.02289 0.0
C2129 C 0.16955 0.43676 0.99322 0.0
C2130 C 0.14747 0.45091 0.98628 0.0
C2131 C 0.12275 0.4903 0.99628 0.0
C2132 C 0.12034 0.51568 0.01287 0.0
C2133 C 0.14609 0.47738 1.00137 0.0
C2134 C 0.14242 0.52943 0.03307 0.0
C2135 C 0.16606 0.51689 0.03798 0.0
H2136 H 0.82732 0.97331 0.27415 0.0
H2137 H 0.82101 0.95401 0.18071 0.0
H2138 H 0.80416 0.90317 0.18621 0.0
H2139 H 0.79247 0.86404 0.21743 0.0
H2140 H 0.79887 0.88301 0.31096 0.0
H2141 H 0.81427 0.93417 0.30541 0.0
C2142 C 0.82218 0.95802 0.25496 0.0
C2143 C 0.82554 0.96752 0.22705 0.0
C2144 C 0.81252 0.92874 0.25826 0.0
C2145 C 0.81869 0.94737 0.20245 0.0
C2146 C 0.80905 0.91824 0.20556 0.0
C2147 C 0.7971 0.87929 0.23667 0.0
C2148 C 0.79457 0.86951 0.2646 0.0
C2149 C 0.80607 0.90867 0.23336 0.0
C2150 C 0.80062 0.88979 0.28918 0.0
C2151 C 0.80949 0.9191 0.28604 0.0
H2152 H 0.68345 0.06377 0.80176 0.0
H2153 H 0.6211 0.07595 0.73372 0.0
H2154 H 0.64798 0.12221 0.72549 0.0
H2155 H 0.68857 0.15976 0.73787 0.0
H2156 H 0.75004 0.1502 0.80764 0.0
H2157 H 0.72438 0.10237 0.81479 0.0
C2158 C 0.67583 0.07656 0.78513 0.0
C2159 C 0.65025 0.06635 0.76842 0.0
C2160 C 0.6913 0.10357 0.7807 0.0
C2161 C 0.64058 0.08329 0.74705 0.0
C2162 C 0.656 0.10975 0.74221 0.0
C2163 C 0.6965 0.14708 0.75445 0.0
C2164 C 0.72126 0.15825 0.77198 0.0
C2165 C 0.68131 0.12013 0.75891 0.0
C2166 C 0.7311 0.14185 0.79371 0.0
C2167 C 0.71637 0.11459 0.79786 0.0
loop_
_geom_bond_atom_site_label_1
_geom_bond_atom_site_label_2
_geom_bond_distance
_geom_bond_site_symmetry_2
_ccdc_geom_bond_type
C0 O1 1.160 . S
C0 O7 1.185 . S
O1 C0 1.160 . S
O2 Zn3 1.899 . S
O2 C10 1.284 . S
Zn3 O2 1.899 . S
Zn3 O4 2.032 . S
Zn3 O7 2.086 . S
Zn3 O12 1.977 1_455 S
O4 Zn3 2.032 . S
O4 C8 1.278 . S
C5 O6 1.203 . S
C5 O12 1.267 . S
O6 C5 1.203 . S
O7 C0 1.185 . S
O7 Zn3 2.086 . S
C8 O4 1.278 . S
C8 O9 1.211 1_455 S
O9 C8 1.211 1_655 S
C10 O2 1.284 . S
C10 O11 1.273 . S
O11 C10 1.273 . S
O12 Zn3 1.977 1_655 S
O12 C5 1.267 . S
C13 O14 1.160 . S
C13 O20 1.185 . S
O14 C13 1.160 . S
O15 Zn16 1.899 . S
O15 C23 1.284 . S
Zn16 O15 1.899 . S
Zn16 O17 2.032 . S
Zn16 O20 2.086 . S
Zn16 O25 1.977 1_655 S
O17 Zn16 2.032 . S
O17 C21 1.278 1_655 S
C18 O19 1.203 . S
C18 O25 1.267 . S
O19 C18 1.203 . S
O20 C13 1.185 . S
O20 Zn16 2.086 . S
C21 O17 1.278 1_455 S
C21 O22 1.211 . S
O22 C21 1.211 . S
C23 O15 1.284 . S
C23 O24 1.273 1_655 S
O24 C23 1.273 1_455 S
O25 Zn16 1.977 1_455 S
O25 C18 1.267 . S
C26 O27 1.160 . S
C26 O33 1.185 . S
O27 C26 1.160 . S
O28 Zn29 1.899 . S
O28 C36 1.284 . S
Zn29 O28 1.899 . S
Zn29 O30 2.032 . S
Zn29 O33 2.086 . S
Zn29 O38 1.977 . S
O30 Zn29 2.032 . S
O30 C34 1.278 . S
C31 O32 1.203 . S
C31 O38 1.267 . S
O32 C31 1.203 . S
O33 C26 1.185 . S
O33 Zn29 2.086 . S
C34 O30 1.278 . S
C34 O35 1.211 . S
O35 C34 1.211 . S
C36 O28 1.284 . S
C36 O37 1.273 . S
O37 C36 1.273 . S
O38 Zn29 1.977 . S
O38 C31 1.267 . S
C39 O40 1.160 . S
C39 O46 1.185 . S
O40 C39 1.160 . S
O41 Zn42 1.899 . S
O41 C49 1.284 . S
Zn42 O41 1.899 . S
Zn42 O43 2.032 . S
Zn42 O46 2.086 . S
Zn42 O51 1.977 . S
O43 Zn42 2.032 . S
O43 C47 1.278 . S
C44 O45 1.203 . S
C44 O51 1.267 . S
O45 C44 1.203 . S
O46 C39 1.185 . S
O46 Zn42 2.086 . S
C47 O43 1.278 . S
C47 O48 1.211 . S
O48 C47 1.211 . S
C49 O41 1.284 . S
C49 O50 1.273 . S
O50 C49 1.273 . S
O51 Zn42 1.977 . S
O51 C44 1.267 . S
C52 O53 1.160 . S
C52 O59 1.185 . S
O53 C52 1.160 . S
O54 Zn55 1.899 . S
O54 C62 1.286 . S
Zn55 O54 1.899 . S
Zn55 O56 2.032 1_455 S
Zn55 O59 2.086 1_455 S
Zn55 O64 1.977 . S
O56 Zn55 2.032 1_655 S
O56 C60 1.278 1_655 S
C57 O58 1.203 . S
C57 O64 1.267 . S
O58 C57 1.203 . S
O59 C52 1.185 . S
O59 Zn55 2.086 1_655 S
C60 O56 1.278 1_455 S
C60 O61 1.211 . S
O61 C60 1.211 . S
C62 O54 1.286 . S
C62 O63 1.273 . S
O63 C62 1.273 . S
O64 Zn55 1.977 . S
O64 C57 1.267 . S
C65 O66 1.160 . S
C65 O72 1.185 . S
O66 C65 1.160 . S
O67 Zn68 1.899 . S
O67 C75 1.284 . S
Zn68 O67 1.899 . S
Zn68 O69 2.032 . S
Zn68 O72 2.086 . S
Zn68 O77 1.977 . S
O69 Zn68 2.032 . S
O69 C73 1.278 . S
C70 O71 1.203 . S
C70 O77 1.267 . S
O71 C70 1.203 . S
O72 C65 1.185 . S
O72 Zn68 2.086 . S
C73 O69 1.278 . S
C73 O74 1.211 . S
O74 C73 1.211 . S
C75 O67 1.284 . S
C75 O76 1.273 . S
O76 C75 1.273 . S
O77 Zn68 1.977 . S
O77 C70 1.267 . S
C78 O79 1.160 . S
C78 O85 1.185 . S
O79 C78 1.160 . S
O80 Zn81 1.899 . S
O80 C88 1.284 . S
Zn81 O80 1.899 . S
Zn81 O82 2.032 . S
Zn81 O85 2.086 . S
Zn81 O90 1.977 . S
O82 Zn81 2.032 . S
O82 C86 1.278 . S
C83 O84 1.203 . S
C83 O90 1.267 . S
O84 C83 1.203 . S
O85 C78 1.185 . S
O85 Zn81 2.086 . S
C86 O82 1.278 . S
C86 O87 1.211 . S
O87 C86 1.211 . S
C88 O80 1.284 . S
C88 O89 1.273 . S
O89 C88 1.273 . S
O90 Zn81 1.977 . S
O90 C83 1.267 . S
C91 O92 1.160 . S
C91 O98 1.185 . S
O92 C91 1.160 . S
O93 Zn94 1.899 . S
O93 C101 1.284 . S
Zn94 O93 1.899 . S
Zn94 O95 2.032 . S
Zn94 O98 2.086 . S
Zn94 O103 1.977 1_455 S
O95 Zn94 2.032 . S
O95 C99 1.278 . S
C96 O97 1.203 . S
C96 O103 1.267 . S
O97 C96 1.203 . S
O98 C91 1.185 . S
O98 Zn94 2.086 . S
C99 O95 1.278 . S
C99 O100 1.211 1_455 S
O100 C99 1.211 1_655 S
C101 O93 1.284 . S
C101 O102 1.273 1_455 S
O102 C101 1.273 1_655 S
O103 Zn94 1.977 1_655 S
O103 C96 1.267 . S
C104 O105 1.160 . S
C104 O111 1.185 . S
O105 C104 1.160 . S
O106 Zn107 1.899 . S
O106 C114 1.284 . S
Zn107 O106 1.899 . S
Zn107 O108 2.032 . S
Zn107 O111 2.086 . S
Zn107 O116 1.977 . S
O108 Zn107 2.032 . S
O108 C112 1.278 . S
C109 O110 1.203 . S
C109 O116 1.267 1_565 S
O110 C109 1.203 . S
O111 C104 1.185 . S
O111 Zn107 2.086 . S
C112 O108 1.278 . S
C112 O113 1.211 . S
O113 C112 1.211 . S
C114 O106 1.284 . S
C114 O115 1.273 . S
O115 C114 1.273 . S
O116 Zn107 1.977 . S
O116 C109 1.267 1_545 S
C117 O118 1.160 . S
C117 O124 1.185 . S
O118 C117 1.160 . S
O119 Zn120 1.899 . S
O119 C127 1.284 . S
Zn120 O119 1.899 . S
Zn120 O121 2.032 . S
Zn120 O124 2.086 . S
Zn120 O129 1.977 . S
O121 Zn120 2.032 . S
O121 C125 1.278 . S
C122 O123 1.203 . S
C122 O129 1.267 . S
O123 C122 1.203 . S
O124 C117 1.185 . S
O124 Zn120 2.086 . S
C125 O121 1.278 . S
C125 O126 1.211 . S
O126 C125 1.211 . S
C127 O119 1.284 . S
C127 O128 1.273 . S
O128 C127 1.273 . S
O129 Zn120 1.977 . S
O129 C122 1.267 . S
C130 O131 1.160 . S
C130 O137 1.185 . S
O131 C130 1.160 . S
O132 Zn133 1.899 . S
O132 C140 1.284 . S
Zn133 O132 1.899 . S
Zn133 O134 2.032 . S
Zn133 O137 2.086 . S
Zn133 O142 1.977 1_565 S
O134 Zn133 2.032 . S
O134 C138 1.278 1_565 S
C135 O136 1.203 . S
C135 O142 1.267 . S
O136 C135 1.203 . S
O137 C130 1.185 . S
O137 Zn133 2.086 . S
C138 O134 1.278 1_545 S
C138 O139 1.211 . S
O139 C138 1.211 . S
C140 O132 1.284 . S
C140 O141 1.273 1_565 S
O141 C140 1.273 1_545 S
O142 Zn133 1.977 1_545 S
O142 C135 1.267 . S
C143 O144 1.160 . S
C143 O150 1.185 . S
O144 C143 1.160 . S
O145 Zn146 1.899 . S
O145 C153 1.284 . S
Zn146 O145 1.899 . S
Zn146 O147 2.032 1_554 S
Zn146 O150 2.086 . S
Zn146 O155 1.977 . S
O147 Zn146 2.032 1_556 S
O147 C151 1.278 . S
C148 O149 1.203 . S
C148 O155 1.267 . S
O149 C148 1.203 . S
O150 C143 1.185 . S
O150 Zn146 2.086 . S
C151 O147 1.278 . S
C151 O152 1.211 . S
O152 C151 1.211 . S
C153 O145 1.284 . S
C153 O154 1.273 . S
O154 C153 1.273 . S
O155 Zn146 1.977 . S
O155 C148 1.267 . S
C156 O157 1.160 . S
C156 O163 1.185 . S
O157 C156 1.160 . S
O158 Zn159 1.899 . S
O158 C166 1.284 . S
Zn159 O158 1.899 . S
Zn159 O160 2.032 1_554 S
Zn159 O163 2.086 . S
Zn159 O168 1.977 . S
O160 Zn159 2.032 1_556 S
O160 C164 1.278 . S
C161 O162 1.203 . S
C161 O168 1.267 . S
O162 C161 1.203 . S
O163 C156 1.185 . S
O163 Zn159 2.086 . S
C164 O160 1.278 . S
C164 O165 1.211 . S
O165 C164 1.211 . S
C166 O158 1.284 . S
C166 O167 1.273 . S
O167 C166 1.273 . S
O168 Zn159 1.977 . S
O168 C161 1.267 . S
C169 O170 1.160 . S
C169 O176 1.185 1_554 S
O170 C169 1.160 . S
O171 Zn172 1.899 . S
O171 C179 1.284 . S
Zn172 O171 1.899 . S
Zn172 O173 2.032 1_554 S
Zn172 O176 2.086 1_554 S
Zn172 O181 1.977 1_554 S
O173 Zn172 2.032 1_556 S
O173 C177 1.278 . S
C174 O175 1.208 . S
C174 O181 1.263 1_554 S
O175 C174 1.208 . S
O176 C169 1.185 1_556 S
O176 Zn172 2.086 1_556 S
C177 O173 1.278 . S
C177 O178 1.211 . S
O178 C177 1.211 . S
C179 O171 1.284 . S
C179 O180 1.273 . S
O180 C179 1.273 . S
O181 Zn172 1.977 1_556 S
O181 C174 1.263 1_556 S
C182 O183 1.160 . S
C182 O189 1.185 . S
O183 C182 1.160 . S
O184 Zn185 1.899 . S
O184 C192 1.284 . S
Zn185 O184 1.899 . S
Zn185 O186 2.032 . S
Zn185 O189 2.086 . S
Zn185 O194 1.977 . S
O186 Zn185 2.032 . S
O186 C190 1.278 . S
C187 O188 1.203 . S
C187 O194 1.267 . S
O188 C187 1.203 . S
O189 C182 1.185 . S
O189 Zn185 2.086 . S
C190 O186 1.278 . S
C190 O191 1.211 . S
O191 C190 1.211 . S
C192 O184 1.284 . S
C192 O193 1.273 . S
O193 C192 1.273 . S
O194 Zn185 1.977 . S
O194 C187 1.267 . S
C195 O196 1.160 . S
C195 O202 1.185 . S
O196 C195 1.160 . S
O197 Zn198 1.899 . S
O197 C205 1.284 . S
Zn198 O197 1.899 . S
Zn198 O199 2.032 . S
Zn198 O202 2.086 . S
Zn198 O207 1.977 . S
O199 Zn198 2.032 . S
O199 C203 1.278 . S
C200 O201 1.203 . S
C200 O207 1.267 . S
O201 C200 1.203 . S
O202 C195 1.185 . S
O202 Zn198 2.086 . S
C203 O199 1.278 . S
C203 O204 1.211 . S
O204 C203 1.211 . S
C205 O197 1.284 . S
C205 O206 1.273 . S
O206 C205 1.273 . S
O207 Zn198 1.977 . S
O207 C200 1.267 . S
C208 O209 1.160 . S
C208 O215 1.185 . S
O209 C208 1.160 . S
O210 Zn211 1.899 . S
O210 C218 1.284 . S
Zn211 O210 1.899 . S
Zn211 O212 2.032 . S
Zn211 O215 2.086 . S
Zn211 O220 1.977 . S
O212 Zn211 2.032 . S
O212 C216 1.278 . S
C213 O214 1.203 1_545 S
C213 O220 1.267 . S
O214 C213 1.203 1_565 S
O215 C208 1.185 . S
O215 Zn211 2.086 . S
C216 O212 1.278 . S
C216 O217 1.211 . S
O217 C216 1.211 . S
C218 O210 1.284 . S
C218 O219 1.273 . S
O219 C218 1.273 . S
O220 Zn211 1.977 . S
O220 C213 1.267 . S
C221 O222 1.160 . S
C221 O228 1.185 . S
O222 C221 1.160 . S
O223 Zn224 1.899 . S
O223 C231 1.284 . S
Zn224 O223 1.899 . S
Zn224 O225 2.032 . S
Zn224 O228 2.086 . S
Zn224 O233 1.977 . S
O225 Zn224 2.032 . S
O225 C229 1.278 . S
C226 O227 1.203 . S
C226 O233 1.267 . S
O227 C226 1.203 . S
O228 C221 1.185 . S
O228 Zn224 2.086 . S
C229 O225 1.278 . S
C229 O230 1.211 . S
O230 C229 1.211 . S
C231 O223 1.284 . S
C231 O232 1.273 . S
O232 C231 1.273 . S
O233 Zn224 1.977 . S
O233 C226 1.267 . S
C234 O235 1.160 . S
C234 O241 1.185 . S
O235 C234 1.160 . S
O236 Zn237 1.899 . S
O236 C244 1.284 . S
Zn237 O236 1.899 . S
Zn237 O238 2.032 . S
Zn237 O241 2.086 . S
Zn237 O246 1.977 . S
O238 Zn237 2.032 . S
O238 C242 1.278 . S
C239 O240 1.203 . S
C239 O246 1.267 . S
O240 C239 1.203 . S
O241 C234 1.185 . S
O241 Zn237 2.086 . S
C242 O238 1.278 . S
C242 O243 1.211 . S
O243 C242 1.211 . S
C244 O236 1.284 . S
C244 O245 1.273 . S
O245 C244 1.273 . S
O246 Zn237 1.977 . S
O246 C239 1.267 . S
C247 O248 1.160 . S
C247 O254 1.185 . S
O248 C247 1.160 . S
O249 Zn250 1.899 . S
O249 C257 1.284 . S
Zn250 O249 1.899 . S
Zn250 O251 2.032 1_545 S
Zn250 O254 2.086 1_545 S
Zn250 O259 1.977 . S
O251 Zn250 2.032 1_565 S
O251 C255 1.278 1_565 S
C252 O253 1.203 . S
C252 O259 1.267 . S
O253 C252 1.203 . S
O254 C247 1.185 . S
O254 Zn250 2.086 1_565 S
C255 O251 1.278 1_545 S
C255 O256 1.211 . S
O256 C255 1.211 . S
C257 O249 1.284 . S
C257 O258 1.273 . S
O258 C257 1.273 . S
O259 Zn250 1.977 . S
O259 C252 1.267 . S
C260 O261 1.160 . S
C260 O267 1.185 1_554 S
O261 C260 1.160 . S
O262 Zn263 1.899 . S
O262 C270 1.284 . S
Zn263 O262 1.899 . S
Zn263 O264 2.032 1_554 S
Zn263 O267 2.086 1_554 S
Zn263 O272 1.977 1_554 S
O264 Zn263 2.032 1_556 S
O264 C268 1.278 . S
C265 O266 1.196 1_556 S
C265 O272 1.271 . S
O266 C265 1.196 1_554 S
O267 C260 1.185 1_556 S
O267 Zn263 2.086 1_556 S
C268 O264 1.278 . S
C268 O269 1.211 . S
O269 C268 1.211 . S
C270 O262 1.284 . S
C270 O271 1.273 . S
O271 C270 1.273 . S
O272 Zn263 1.977 1_556 S
O272 C265 1.271 . S
C273 O274 1.160 . S
C273 O280 1.185 . S
O274 C273 1.160 . S
O275 Zn276 1.899 . S
O275 C283 1.284 . S
Zn276 O275 1.899 . S
Zn276 O277 2.032 . S
Zn276 O280 2.086 . S
Zn276 O285 1.977 . S
O277 Zn276 2.032 . S
O277 C281 1.278 . S
C278 O279 1.203 . S
C278 O285 1.267 . S
O279 C278 1.203 . S
O280 C273 1.185 . S
O280 Zn276 2.086 . S
C281 O277 1.278 . S
C281 O282 1.211 . S
O282 C281 1.211 . S
C283 O275 1.284 . S
C283 O284 1.273 . S
O284 C283 1.273 . S
O285 Zn276 1.977 . S
O285 C278 1.267 . S
C286 O287 1.160 . S
C286 O293 1.185 . S
O287 C286 1.160 . S
O288 Zn289 1.899 . S
O288 C296 1.284 . S
Zn289 O288 1.899 . S
Zn289 O290 2.032 . S
Zn289 O293 2.086 . S
Zn289 O298 1.977 . S
O290 Zn289 2.032 . S
O290 C294 1.278 . S
C291 O292 1.203 . S
C291 O298 1.267 . S
O292 C291 1.203 . S
O293 C286 1.185 . S
O293 Zn289 2.086 . S
C294 O290 1.278 . S
C294 O295 1.211 . S
O295 C294 1.211 . S
C296 O288 1.284 . S
C296 O297 1.273 . S
O297 C296 1.273 . S
O298 Zn289 1.977 . S
O298 C291 1.267 . S
C299 O300 1.160 . S
C299 O306 1.185 . S
O300 C299 1.160 . S
O301 Zn302 1.899 . S
O301 C309 1.284 . S
Zn302 O301 1.899 . S
Zn302 O303 2.032 . S
Zn302 O306 2.086 . S
Zn302 O311 1.977 . S
O303 Zn302 2.032 . S
O303 C307 1.278 . S
C304 O305 1.203 . S
C304 O311 1.267 . S
O305 C304 1.203 . S
O306 C299 1.185 . S
O306 Zn302 2.086 . S
C307 O303 1.278 . S
C307 O308 1.211 . S
O308 C307 1.211 . S
C309 O301 1.284 . S
C309 O310 1.273 . S
O310 C309 1.273 . S
O311 Zn302 1.977 . S
O311 C304 1.267 . S
Tb312 O315 2.453 . S
Tb312 O316 2.596 . S
Tb312 O317 2.374 1_554 S
Tb312 O325 2.343 1_455 S
Tb312 O327 2.353 . S
Tb312 O329 2.427 . S
Tb312 O330 2.513 1_554 S
C313 O317 1.251 . S
C313 O319 1.263 1_445 S
Tb314 O316 2.343 1_665 S
Tb314 O319 2.353 1_554 S
Tb314 O322 2.427 . S
Tb314 O323 2.513 . S
Tb314 O324 2.453 1_564 S
Tb314 O325 2.596 1_565 S
Tb314 O326 2.374 1_565 S
O315 Tb312 2.453 . S
O315 C331 1.245 . S
O316 Tb312 2.596 . S
O316 Tb314 2.343 1_445 S
O316 C331 1.259 . S
O317 Tb312 2.374 1_556 S
O317 C313 1.251 . S
C318 O322 1.275 1_455 S
C318 O323 1.246 1_455 S
O319 C313 1.263 1_665 S
O319 Tb314 2.353 1_556 S
C320 O324 1.245 . S
C320 O325 1.259 1_556 S
C321 O326 1.250 . S
C321 O327 1.263 1_655 S
O322 Tb314 2.427 . S
O322 C318 1.275 1_655 S
O323 Tb314 2.513 . S
O323 C318 1.246 1_655 S
O324 Tb314 2.453 1_546 S
O324 C320 1.245 . S
O325 Tb312 2.343 1_655 S
O325 Tb314 2.596 1_545 S
O325 C320 1.259 1_554 S
O326 Tb314 2.374 1_545 S
O326 C321 1.250 . S
O327 Tb312 2.353 . S
O327 C321 1.263 1_455 S
C328 O329 1.275 1_556 S
C328 O330 1.246 . S
O329 Tb312 2.427 . S
O329 C328 1.275 1_554 S
O330 Tb312 2.513 1_556 S
O330 C328 1.246 . S
C331 O315 1.245 . S
C331 O316 1.259 . S
Tb332 O335 2.453 . S
Tb332 O336 2.596 . S
Tb332 O337 2.374 . S
Tb332 O345 2.343 . S
Tb332 O347 2.353 . S
Tb332 O349 2.427 . S
Tb332 O350 2.513 . S
C333 O337 1.251 . S
C333 O339 1.263 . S
Tb334 O336 2.343 . S
Tb334 O339 2.353 . S
Tb334 O342 2.427 . S
Tb334 O343 2.513 . S
Tb334 O344 2.453 . S
Tb334 O345 2.596 . S
Tb334 O346 2.374 . S
O335 Tb332 2.453 . S
O335 C351 1.245 . S
O336 Tb332 2.596 . S
O336 Tb334 2.343 . S
O336 C351 1.259 . S
O337 Tb332 2.374 . S
O337 C333 1.251 . S
C338 O342 1.275 . S
C338 O343 1.246 . S
O339 C333 1.263 . S
O339 Tb334 2.353 . S
C340 O344 1.245 . S
C340 O345 1.259 . S
C341 O346 1.250 . S
C341 O347 1.263 . S
O342 Tb334 2.427 . S
O342 C338 1.275 . S
O343 Tb334 2.513 . S
O343 C338 1.246 . S
O344 Tb334 2.453 . S
O344 C340 1.245 . S
O345 Tb332 2.343 . S
O345 Tb334 2.596 . S
O345 C340 1.259 . S
O346 Tb334 2.374 . S
O346 C341 1.250 . S
O347 Tb332 2.353 . S
O347 C341 1.263 . S
C348 O349 1.275 . S
C348 O350 1.246 . S
O349 Tb332 2.427 . S
O349 C348 1.275 . S
O350 Tb332 2.513 . S
O350 C348 1.246 . S
C351 O335 1.245 . S
C351 O336 1.259 . S
Tb352 O355 2.453 . S
Tb352 O356 2.596 . S
Tb352 O357 2.374 . S
Tb352 O365 2.343 . S
Tb352 O367 2.353 . S
Tb352 O369 2.427 . S
Tb352 O370 2.513 . S
C353 O357 1.251 . S
C353 O359 1.263 . S
Tb354 O356 2.343 . S
Tb354 O359 2.353 . S
Tb354 O362 2.427 . S
Tb354 O363 2.513 . S
Tb354 O364 2.453 1_545 S
Tb354 O365 2.596 . S
Tb354 O366 2.374 . S
O355 Tb352 2.453 . S
O355 C371 1.245 . S
O356 Tb352 2.596 . S
O356 Tb354 2.343 . S
O356 C371 1.259 . S
O357 Tb352 2.374 . S
O357 C353 1.251 . S
C358 O362 1.275 . S
C358 O363 1.246 . S
O359 C353 1.263 . S
O359 Tb354 2.353 . S
C360 O364 1.245 . S
C360 O365 1.259 1_565 S
C361 O366 1.250 . S
C361 O367 1.263 . S
O362 Tb354 2.427 . S
O362 C358 1.275 . S
O363 Tb354 2.513 . S
O363 C358 1.246 . S
O364 Tb354 2.453 1_565 S
O364 C360 1.245 . S
O365 Tb352 2.343 . S
O365 Tb354 2.596 . S
O365 C360 1.259 1_545 S
O366 Tb354 2.374 . S
O366 C361 1.250 . S
O367 Tb352 2.353 . S
O367 C361 1.263 . S
C368 O369 1.275 . S
C368 O370 1.246 . S
O369 Tb352 2.427 . S
O369 C368 1.275 . S
O370 Tb352 2.513 . S
O370 C368 1.246 . S
C371 O355 1.245 . S
C371 O356 1.259 . S
Tb372 O375 2.453 . S
Tb372 O376 2.596 . S
Tb372 O377 2.374 . S
Tb372 O385 2.343 . S
Tb372 O387 2.353 . S
Tb372 O389 2.427 . S
Tb372 O390 2.513 . S
C373 O377 1.251 . S
C373 O379 1.263 . S
Tb374 O376 2.343 . S
Tb374 O379 2.353 . S
Tb374 O382 2.427 . S
Tb374 O383 2.513 . S
Tb374 O384 2.453 . S
Tb374 O385 2.596 . S
Tb374 O386 2.374 . S
O375 Tb372 2.453 . S
O375 C391 1.245 . S
O376 Tb372 2.596 . S
O376 Tb374 2.343 . S
O376 C391 1.259 . S
O377 Tb372 2.374 . S
O377 C373 1.251 . S
C378 O382 1.275 . S
C378 O383 1.246 . S
O379 C373 1.263 . S
O379 Tb374 2.353 . S
C380 O384 1.245 . S
C380 O385 1.259 . S
C381 O386 1.250 . S
C381 O387 1.263 . S
O382 Tb374 2.427 . S
O382 C378 1.275 . S
O383 Tb374 2.513 . S
O383 C378 1.246 . S
O384 Tb374 2.453 . S
O384 C380 1.245 . S
O385 Tb372 2.343 . S
O385 Tb374 2.596 . S
O385 C380 1.259 . S
O386 Tb374 2.374 . S
O386 C381 1.250 . S
O387 Tb372 2.353 . S
O387 C381 1.263 . S
C388 O389 1.275 . S
C388 O390 1.246 . S
O389 Tb372 2.427 . S
O389 C388 1.275 . S
O390 Tb372 2.513 . S
O390 C388 1.246 . S
C391 O375 1.245 . S
C391 O376 1.259 . S
Tb392 O395 2.453 1_545 S
Tb392 O396 2.596 . S
Tb392 O397 2.374 1_455 S
Tb392 O405 2.343 . S
Tb392 O407 2.353 . S
Tb392 O409 2.427 . S
Tb392 O410 2.513 1_455 S
C393 O397 1.251 . S
C393 O399 1.263 . S
Tb394 O396 2.343 . S
Tb394 O399 2.353 1_455 S
Tb394 O402 2.427 . S
Tb394 O403 2.513 . S
Tb394 O404 2.453 . S
Tb394 O405 2.596 . S
Tb394 O406 2.374 . S
O395 Tb392 2.453 1_565 S
O395 C411 1.245 . S
O396 Tb392 2.596 . S
O396 Tb394 2.343 . S
O396 C411 1.259 1_545 S
O397 Tb392 2.374 1_655 S
O397 C393 1.251 . S
C398 O402 1.275 . S
C398 O403 1.246 . S
O399 C393 1.263 . S
O399 Tb394 2.353 1_655 S
C400 O404 1.245 . S
C400 O405 1.259 . S
C401 O406 1.250 . S
C401 O407 1.263 . S
O402 Tb394 2.427 . S
O402 C398 1.275 . S
O403 Tb394 2.513 . S
O403 C398 1.246 . S
O404 Tb394 2.453 . S
O404 C400 1.245 . S
O405 Tb392 2.343 . S
O405 Tb394 2.596 . S
O405 C400 1.259 . S
O406 Tb394 2.374 . S
O406 C401 1.250 . S
O407 Tb392 2.353 . S
O407 C401 1.263 . S
C408 O409 1.275 1_655 S
C408 O410 1.246 . S
O409 Tb392 2.427 . S
O409 C408 1.275 1_455 S
O410 Tb392 2.513 1_655 S
O410 C408 1.246 . S
C411 O395 1.245 . S
C411 O396 1.259 1_565 S
Tb412 O415 2.453 . S
Tb412 O416 2.596 . S
Tb412 O417 2.374 . S
Tb412 O425 2.343 . S
Tb412 O427 2.353 . S
Tb412 O429 2.427 . S
Tb412 O430 2.513 . S
C413 O417 1.251 . S
C413 O419 1.263 . S
Tb414 O416 2.343 . S
Tb414 O419 2.353 . S
Tb414 O422 2.427 . S
Tb414 O423 2.513 . S
Tb414 O424 2.453 . S
Tb414 O425 2.596 . S
Tb414 O426 2.374 . S
O415 Tb412 2.453 . S
O415 C431 1.245 . S
O416 Tb412 2.596 . S
O416 Tb414 2.343 . S
O416 C431 1.259 . S
O417 Tb412 2.374 . S
O417 C413 1.251 . S
C418 O422 1.275 . S
C418 O423 1.246 . S
O419 C413 1.263 . S
O419 Tb414 2.353 . S
C420 O424 1.245 . S
C420 O425 1.259 . S
C421 O426 1.250 . S
C421 O427 1.263 . S
O422 Tb414 2.427 . S
O422 C418 1.275 . S
O423 Tb414 2.513 . S
O423 C418 1.246 . S
O424 Tb414 2.453 . S
O424 C420 1.245 . S
O425 Tb412 2.343 . S
O425 Tb414 2.596 . S
O425 C420 1.259 . S
O426 Tb414 2.374 . S
O426 C421 1.250 . S
O427 Tb412 2.353 . S
O427 C421 1.263 . S
C428 O429 1.275 . S
C428 O430 1.246 . S
O429 Tb412 2.427 . S
O429 C428 1.275 . S
O430 Tb412 2.513 . S
O430 C428 1.246 . S
C431 O415 1.245 . S
C431 O416 1.259 . S
Tb432 O435 2.453 . S
Tb432 O436 2.596 . S
Tb432 O437 2.374 1_545 S
Tb432 O445 2.343 1_556 S
Tb432 O447 2.353 1_556 S
Tb432 O449 2.427 1_556 S
Tb432 O450 2.513 1_546 S
C433 O437 1.251 1_554 S
C433 O439 1.263 . S
Tb434 O436 2.343 1_554 S
Tb434 O439 2.353 1_545 S
Tb434 O442 2.427 . S
Tb434 O443 2.513 . S
Tb434 O444 2.453 . S
Tb434 O445 2.596 . S
Tb434 O446 2.374 . S
O435 Tb432 2.453 . S
O435 C451 1.245 . S
O436 Tb432 2.596 . S
O436 Tb434 2.343 1_556 S
O436 C451 1.259 . S
O437 Tb432 2.374 1_565 S
O437 C433 1.251 1_556 S
C438 O442 1.275 . S
C438 O443 1.246 . S
O439 C433 1.263 . S
O439 Tb434 2.353 1_565 S
C440 O444 1.245 . S
C440 O445 1.259 . S
C441 O446 1.250 . S
C441 O447 1.263 . S
O442 Tb434 2.427 . S
O442 C438 1.275 . S
O443 Tb434 2.513 . S
O443 C438 1.246 . S
O444 Tb434 2.453 . S
O444 C440 1.245 . S
O445 Tb432 2.343 1_554 S
O445 Tb434 2.596 . S
O445 C440 1.259 . S
O446 Tb434 2.374 . S
O446 C441 1.250 . S
O447 Tb432 2.353 1_554 S
O447 C441 1.263 . S
C448 O449 1.275 . S
C448 O450 1.246 1_545 S
O449 Tb432 2.427 1_554 S
O449 C448 1.275 . S
O450 Tb432 2.513 1_564 S
O450 C448 1.246 1_565 S
C451 O435 1.245 . S
C451 O436 1.259 . S
Tb452 O455 2.453 . S
Tb452 O456 2.596 . S
Tb452 O457 2.374 . S
Tb452 O465 2.343 . S
Tb452 O467 2.353 . S
Tb452 O469 2.427 . S
Tb452 O470 2.513 . S
C453 O457 1.251 . S
C453 O459 1.263 . S
Tb454 O456 2.343 . S
Tb454 O459 2.353 . S
Tb454 O462 2.427 . S
Tb454 O463 2.513 . S
Tb454 O464 2.453 . S
Tb454 O465 2.596 . S
Tb454 O466 2.374 . S
O455 Tb452 2.453 . S
O455 C471 1.245 . S
O456 Tb452 2.596 . S
O456 Tb454 2.343 . S
O456 C471 1.259 . S
O457 Tb452 2.374 . S
O457 C453 1.251 . S
C458 O462 1.275 . S
C458 O463 1.246 . S
O459 C453 1.263 . S
O459 Tb454 2.353 . S
C460 O464 1.245 . S
C460 O465 1.259 . S
C461 O466 1.250 . S
C461 O467 1.263 . S
O462 Tb454 2.427 . S
O462 C458 1.275 . S
O463 Tb454 2.513 . S
O463 C458 1.246 . S
O464 Tb454 2.453 . S
O464 C460 1.245 . S
O465 Tb452 2.343 . S
O465 Tb454 2.596 . S
O465 C460 1.259 . S
O466 Tb454 2.374 . S
O466 C461 1.250 . S
O467 Tb452 2.353 . S
O467 C461 1.263 . S
C468 O469 1.275 . S
C468 O470 1.246 . S
O469 Tb452 2.427 . S
O469 C468 1.275 . S
O470 Tb452 2.513 . S
O470 C468 1.246 . S
C471 O455 1.245 . S
C471 O456 1.259 . S
Tb472 O475 2.453 1_556 S
Tb472 O476 2.596 1_556 S
Tb472 O477 2.374 1_556 S
Tb472 O485 2.343 1_556 S
Tb472 O487 2.353 . S
Tb472 O489 2.427 . S
Tb472 O490 2.513 . S
C473 O477 1.251 . S
C473 O479 1.263 . S
Tb474 O476 2.343 . S
Tb474 O479 2.353 . S
Tb474 O482 2.427 . S
Tb474 O483 2.513 . S
Tb474 O484 2.453 . S
Tb474 O485 2.596 . S
Tb474 O486 2.374 . S
O475 Tb472 2.453 1_554 S
O475 C491 1.245 . S
O476 Tb472 2.596 1_554 S
O476 Tb474 2.343 . S
O476 C491 1.259 . S
O477 Tb472 2.374 1_554 S
O477 C473 1.251 . S
C478 O482 1.275 . S
C478 O483 1.246 . S
O479 C473 1.263 . S
O479 Tb474 2.353 . S
C480 O484 1.245 . S
C480 O485 1.260 . S
C481 O486 1.250 . S
C481 O487 1.263 1_554 S
O482 Tb474 2.427 . S
O482 C478 1.275 . S
O483 Tb474 2.513 . S
O483 C478 1.246 . S
O484 Tb474 2.453 . S
O484 C480 1.245 . S
O485 Tb472 2.343 1_554 S
O485 Tb474 2.596 . S
O485 C480 1.260 . S
O486 Tb474 2.374 . S
O486 C481 1.250 . S
O487 Tb472 2.353 . S
O487 C481 1.263 1_556 S
C488 O489 1.275 . S
C488 O490 1.246 . S
O489 Tb472 2.427 . S
O489 C488 1.275 . S
O490 Tb472 2.513 . S
O490 C488 1.246 . S
C491 O475 1.245 . S
C491 O476 1.259 . S
Tb492 O495 2.453 . S
Tb492 O496 2.596 . S
Tb492 O497 2.374 . S
Tb492 O505 2.343 . S
Tb492 O507 2.353 . S
Tb492 O509 2.427 . S
Tb492 O510 2.513 . S
C493 O497 1.251 . S
C493 O499 1.263 . S
Tb494 O496 2.343 . S
Tb494 O499 2.353 . S
Tb494 O502 2.427 . S
Tb494 O503 2.513 . S
Tb494 O504 2.453 . S
Tb494 O505 2.596 . S
Tb494 O506 2.374 . S
O495 Tb492 2.453 . S
O495 C511 1.245 . S
O496 Tb492 2.596 . S
O496 Tb494 2.343 . S
O496 C511 1.259 . S
O497 Tb492 2.374 . S
O497 C493 1.251 . S
C498 O502 1.275 . S
C498 O503 1.246 . S
O499 C493 1.263 . S
O499 Tb494 2.353 . S
C500 O504 1.245 . S
C500 O505 1.259 . S
C501 O506 1.250 . S
C501 O507 1.263 . S
O502 Tb494 2.427 . S
O502 C498 1.275 . S
O503 Tb494 2.513 . S
O503 C498 1.246 . S
O504 Tb494 2.453 . S
O504 C500 1.245 . S
O505 Tb492 2.343 . S
O505 Tb494 2.596 . S
O505 C500 1.259 . S
O506 Tb494 2.374 . S
O506 C501 1.250 . S
O507 Tb492 2.353 . S
O507 C501 1.263 . S
C508 O509 1.275 . S
C508 O510 1.246 . S
O509 Tb492 2.427 . S
O509 C508 1.275 . S
O510 Tb492 2.513 . S
O510 C508 1.246 . S
C511 O495 1.245 . S
C511 O496 1.259 . S
Tb512 O515 2.453 1_655 S
Tb512 O516 2.596 1_655 S
Tb512 O517 2.374 . S
Tb512 O525 2.343 . S
Tb512 O527 2.353 . S
Tb512 O529 2.427 . S
Tb512 O530 2.513 . S
C513 O517 1.251 1_455 S
C513 O519 1.263 . S
Tb514 O516 2.343 . S
Tb514 O519 2.353 . S
Tb514 O522 2.427 . S
Tb514 O523 2.513 . S
Tb514 O524 2.453 . S
Tb514 O525 2.596 1_455 S
Tb514 O526 2.374 . S
O515 Tb512 2.453 1_455 S
O515 C531 1.245 . S
O516 Tb512 2.596 1_455 S
O516 Tb514 2.343 . S
O516 C531 1.259 . S
O517 Tb512 2.374 . S
O517 C513 1.251 1_655 S
C518 O522 1.275 . S
C518 O523 1.246 . S
O519 C513 1.263 . S
O519 Tb514 2.353 . S
C520 O524 1.245 1_655 S
C520 O525 1.259 . S
C521 O526 1.250 . S
C521 O527 1.263 1_455 S
O522 Tb514 2.427 . S
O522 C518 1.275 . S
O523 Tb514 2.513 . S
O523 C518 1.246 . S
O524 Tb514 2.453 . S
O524 C520 1.245 1_455 S
O525 Tb512 2.343 . S
O525 Tb514 2.596 1_655 S
O525 C520 1.259 . S
O526 Tb514 2.374 . S
O526 C521 1.250 . S
O527 Tb512 2.353 . S
O527 C521 1.263 1_655 S
C528 O529 1.275 . S
C528 O530 1.246 . S
O529 Tb512 2.427 . S
O529 C528 1.275 . S
O530 Tb512 2.513 . S
O530 C528 1.246 . S
C531 O515 1.245 . S
C531 O516 1.259 . S
Tb532 O535 2.453 . S
Tb532 O536 2.596 . S
Tb532 O537 2.374 . S
Tb532 O545 2.343 . S
Tb532 O547 2.353 . S
Tb532 O549 2.427 . S
Tb532 O550 2.513 . S
C533 O537 1.251 . S
C533 O539 1.263 . S
Tb534 O536 2.343 . S
Tb534 O539 2.353 . S
Tb534 O542 2.427 . S
Tb534 O543 2.513 . S
Tb534 O544 2.453 . S
Tb534 O545 2.596 . S
Tb534 O546 2.374 . S
O535 Tb532 2.453 . S
O535 C551 1.245 . S
O536 Tb532 2.596 . S
O536 Tb534 2.343 . S
O536 C551 1.259 . S
O537 Tb532 2.374 . S
O537 C533 1.251 . S
C538 O542 1.275 . S
C538 O543 1.246 . S
O539 C533 1.263 . S
O539 Tb534 2.353 . S
C540 O544 1.245 . S
C540 O545 1.259 . S
C541 O546 1.250 . S
C541 O547 1.263 . S
O542 Tb534 2.427 . S
O542 C538 1.275 . S
O543 Tb534 2.513 . S
O543 C538 1.246 . S
O544 Tb534 2.453 . S
O544 C540 1.245 . S
O545 Tb532 2.343 . S
O545 Tb534 2.596 . S
O545 C540 1.259 . S
O546 Tb534 2.374 . S
O546 C541 1.250 . S
O547 Tb532 2.353 . S
O547 C541 1.263 . S
C548 O549 1.275 . S
C548 O550 1.246 . S
O549 Tb532 2.427 . S
O549 C548 1.275 . S
O550 Tb532 2.513 . S
O550 C548 1.246 . S
C551 O535 1.245 . S
C551 O536 1.259 . S
Tb552 O555 2.453 . S
Tb552 O556 2.596 . S
Tb552 O557 2.374 . S
Tb552 O565 2.343 . S
Tb552 O567 2.353 . S
Tb552 O569 2.427 . S
Tb552 O570 2.513 . S
C553 O557 1.251 . S
C553 O559 1.263 . S
Tb554 O556 2.343 . S
Tb554 O559 2.353 . S
Tb554 O562 2.427 . S
Tb554 O563 2.513 . S
Tb554 O564 2.453 . S
Tb554 O565 2.596 . S
Tb554 O566 2.374 . S
O555 Tb552 2.453 . S
O555 C571 1.245 . S
O556 Tb552 2.596 . S
O556 Tb554 2.343 . S
O556 C571 1.259 . S
O557 Tb552 2.374 . S
O557 C553 1.251 . S
C558 O562 1.275 . S
C558 O563 1.246 . S
O559 C553 1.263 . S
O559 Tb554 2.353 . S
C560 O564 1.245 . S
C560 O565 1.259 . S
C561 O566 1.250 . S
C561 O567 1.263 . S
O562 Tb554 2.427 . S
O562 C558 1.275 . S
O563 Tb554 2.513 . S
O563 C558 1.246 . S
O564 Tb554 2.453 . S
O564 C560 1.245 . S
O565 Tb552 2.343 . S
O565 Tb554 2.596 . S
O565 C560 1.259 . S
O566 Tb554 2.374 . S
O566 C561 1.250 . S
O567 Tb552 2.353 . S
O567 C561 1.263 . S
C568 O569 1.275 . S
C568 O570 1.246 . S
O569 Tb552 2.427 . S
O569 C568 1.275 . S
O570 Tb552 2.513 . S
O570 C568 1.246 . S
C571 O555 1.245 . S
C571 O556 1.259 . S
Tb572 O575 2.453 . S
Tb572 O576 2.596 . S
Tb572 O577 2.374 . S
Tb572 O585 2.343 . S
Tb572 O587 2.353 . S
Tb572 O589 2.427 . S
Tb572 O590 2.513 . S
C573 O577 1.251 . S
C573 O579 1.263 . S
Tb574 O576 2.343 . S
Tb574 O579 2.353 . S
Tb574 O582 2.427 . S
Tb574 O583 2.513 . S
Tb574 O584 2.453 . S
Tb574 O585 2.596 . S
Tb574 O586 2.374 . S
O575 Tb572 2.453 . S
O575 C591 1.245 . S
O576 Tb572 2.596 . S
O576 Tb574 2.343 . S
O576 C591 1.259 . S
O577 Tb572 2.374 . S
O577 C573 1.251 . S
C578 O582 1.275 . S
C578 O583 1.246 . S
O579 C573 1.263 . S
O579 Tb574 2.353 . S
C580 O584 1.245 . S
C580 O585 1.259 . S
C581 O586 1.250 . S
C581 O587 1.263 . S
O582 Tb574 2.427 . S
O582 C578 1.275 . S
O583 Tb574 2.513 . S
O583 C578 1.246 . S
O584 Tb574 2.453 . S
O584 C580 1.245 . S
O585 Tb572 2.343 . S
O585 Tb574 2.596 . S
O585 C580 1.259 . S
O586 Tb574 2.374 . S
O586 C581 1.250 . S
O587 Tb572 2.353 . S
O587 C581 1.263 . S
C588 O589 1.275 . S
C588 O590 1.246 . S
O589 Tb572 2.427 . S
O589 C588 1.275 . S
O590 Tb572 2.513 . S
O590 C588 1.246 . S
C591 O575 1.245 . S
C591 O576 1.259 . S
Tb592 O595 2.453 . S
Tb592 O596 2.596 . S
Tb592 O597 2.374 . S
Tb592 O605 2.343 . S
Tb592 O607 2.353 . S
Tb592 O609 2.427 . S
Tb592 O610 2.513 . S
C593 O597 1.251 . S
C593 O599 1.263 . S
Tb594 O596 2.343 . S
Tb594 O599 2.353 . S
Tb594 O602 2.427 . S
Tb594 O603 2.513 . S
Tb594 O604 2.453 . S
Tb594 O605 2.596 . S
Tb594 O606 2.374 . S
O595 Tb592 2.453 . S
O595 C611 1.245 . S
O596 Tb592 2.596 . S
O596 Tb594 2.343 . S
O596 C611 1.259 . S
O597 Tb592 2.374 . S
O597 C593 1.251 . S
C598 O602 1.275 . S
C598 O603 1.246 . S
O599 C593 1.263 . S
O599 Tb594 2.353 . S
C600 O604 1.245 . S
C600 O605 1.259 . S
C601 O606 1.250 . S
C601 O607 1.263 . S
O602 Tb594 2.427 . S
O602 C598 1.275 . S
O603 Tb594 2.513 . S
O603 C598 1.246 . S
O604 Tb594 2.453 . S
O604 C600 1.245 . S
O605 Tb592 2.343 . S
O605 Tb594 2.596 . S
O605 C600 1.259 . S
O606 Tb594 2.374 . S
O606 C601 1.250 . S
O607 Tb592 2.353 . S
O607 C601 1.263 . S
C608 O609 1.275 . S
C608 O610 1.246 . S
O609 Tb592 2.427 . S
O609 C608 1.275 . S
O610 Tb592 2.513 . S
O610 C608 1.246 . S
C611 O595 1.245 . S
C611 O596 1.259 . S
Tb612 O615 2.453 . S
Tb612 O616 2.596 . S
Tb612 O617 2.374 . S
Tb612 O625 2.345 . S
Tb612 O627 2.353 1_554 S
Tb612 O629 2.427 1_554 S
Tb612 O630 2.513 . S
C613 O617 1.251 . S
C613 O619 1.263 1_455 S
Tb614 O616 2.343 1_655 S
Tb614 O619 2.353 . S
Tb614 O622 2.427 . S
Tb614 O623 2.513 . S
Tb614 O624 2.455 . S
Tb614 O625 2.608 1_655 S
Tb614 O626 2.374 1_554 S
O615 Tb612 2.453 . S
O615 C631 1.245 . S
O616 Tb612 2.596 . S
O616 Tb614 2.343 1_455 S
O616 C631 1.259 . S
O617 Tb612 2.374 . S
O617 C613 1.251 . S
C618 O622 1.275 . S
C618 O623 1.246 . S
O619 C613 1.263 1_655 S
O619 Tb614 2.353 . S
C620 O624 1.241 1_456 S
C620 O625 1.254 1_556 S
C621 O626 1.250 1_455 S
C621 O627 1.263 . S
O622 Tb614 2.427 . S
O622 C618 1.275 . S
O623 Tb614 2.513 . S
O623 C618 1.246 . S
O624 Tb614 2.455 . S
O624 C620 1.241 1_654 S
O625 Tb612 2.345 . S
O625 Tb614 2.608 1_455 S
O625 C620 1.254 1_554 S
O626 Tb614 2.374 1_556 S
O626 C621 1.250 1_655 S
O627 Tb612 2.353 1_556 S
O627 C621 1.263 . S
C628 O629 1.275 . S
C628 O630 1.246 1_556 S
O629 Tb612 2.427 1_556 S
O629 C628 1.275 . S
O630 Tb612 2.513 . S
O630 C628 1.246 1_554 S
C631 O615 1.245 . S
C631 O616 1.259 . S
H632 C638 0.930 . S
H633 C641 0.930 . S
H634 C642 0.930 . S
H635 C643 0.930 . S
H636 C646 0.930 . S
H637 C647 0.930 1_554 S
C638 H632 0.930 . S
C638 C639 1.355 . S
C638 C640 1.415 . S
C639 C638 1.355 . S
C639 C641 1.419 1_455 S
C640 C638 1.415 . S
C640 C645 1.425 1_455 S
C640 C647 1.409 . S
C641 H633 0.930 . S
C641 C639 1.419 1_655 S
C641 C642 1.362 . S
C642 H634 0.930 . S
C642 C641 1.362 . S
C642 C645 1.409 . S
C643 H635 0.930 . S
C643 C644 1.355 1_655 S
C643 C645 1.415 . S
C644 C643 1.355 1_455 S
C644 C646 1.419 1_556 S
C645 C640 1.425 1_655 S
C645 C642 1.409 . S
C645 C643 1.415 . S
C646 H636 0.930 . S
C646 C644 1.419 1_554 S
C646 C647 1.362 1_554 S
C647 H637 0.930 1_556 S
C647 C640 1.409 . S
C647 C646 1.362 1_556 S
H648 C654 0.930 . S
H649 C657 0.930 . S
H650 C658 0.930 . S
H651 C659 0.930 . S
H652 C662 0.930 . S
H653 C663 0.930 . S
C654 H648 0.930 . S
C654 C655 1.355 . S
C654 C656 1.415 . S
C655 C654 1.355 . S
C655 C657 1.419 . S
C656 C654 1.415 . S
C656 C661 1.425 . S
C656 C663 1.409 . S
C657 H649 0.930 . S
C657 C655 1.419 . S
C657 C658 1.362 . S
C658 H650 0.930 . S
C658 C657 1.362 . S
C658 C661 1.409 . S
C659 H651 0.930 . S
C659 C660 1.355 . S
C659 C661 1.415 . S
C660 C659 1.355 . S
C660 C662 1.419 . S
C661 C656 1.425 . S
C661 C658 1.409 . S
C661 C659 1.415 . S
C662 H652 0.930 . S
C662 C660 1.419 . S
C662 C663 1.362 . S
C663 H653 0.930 . S
C663 C656 1.409 . S
C663 C662 1.362 . S
H664 C670 0.930 . S
H665 C673 0.930 . S
H666 C674 0.930 . S
H667 C675 0.930 . S
H668 C678 0.930 . S
H669 C679 0.930 . S
C670 H664 0.930 . S
C670 C671 1.355 . S
C670 C672 1.415 . S
C671 C670 1.355 . S
C671 C673 1.419 . S
C672 C670 1.415 . S
C672 C677 1.425 . S
C672 C679 1.409 . S
C673 H665 0.930 . S
C673 C671 1.419 . S
C673 C674 1.362 . S
C674 H666 0.930 . S
C674 C673 1.362 . S
C674 C677 1.409 . S
C675 H667 0.930 . S
C675 C676 1.355 . S
C675 C677 1.415 . S
C676 C675 1.355 . S
C676 C678 1.419 . S
C677 C672 1.425 . S
C677 C674 1.409 . S
C677 C675 1.415 . S
C678 H668 0.930 . S
C678 C676 1.419 . S
C678 C679 1.362 . S
C679 H669 0.930 . S
C679 C672 1.409 . S
C679 C678 1.362 . S
H680 C686 0.930 . S
H681 C689 0.930 . S
H682 C690 0.930 . S
H683 C691 0.930 . S
H684 C694 0.930 . S
H685 C695 0.930 . S
C686 H680 0.930 . S
C686 C687 1.355 . S
C686 C688 1.415 . S
C687 C686 1.355 . S
C687 C689 1.419 . S
C688 C686 1.415 . S
C688 C693 1.425 . S
C688 C695 1.409 . S
C689 H681 0.930 . S
C689 C687 1.419 . S
C689 C690 1.362 . S
C690 H682 0.930 . S
C690 C689 1.362 . S
C690 C693 1.409 . S
C691 H683 0.930 . S
C691 C692 1.355 . S
C691 C693 1.415 . S
C692 C691 1.355 . S
C692 C694 1.419 . S
C693 C688 1.425 . S
C693 C690 1.409 . S
C693 C691 1.415 . S
C694 H684 0.930 . S
C694 C692 1.419 . S
C694 C695 1.362 . S
C695 H685 0.930 . S
C695 C688 1.409 . S
C695 C694 1.362 . S
H696 C702 0.930 . S
H697 C705 0.930 . S
H698 C706 0.930 . S
H699 C707 0.930 . S
H700 C710 0.930 . S
H701 C711 0.930 . S
C702 H696 0.930 . S
C702 C703 1.355 . S
C702 C704 1.415 . S
C703 C702 1.355 . S
C703 C705 1.419 . S
C704 C702 1.415 . S
C704 C709 1.425 . S
C704 C711 1.409 . S
C705 H697 0.930 . S
C705 C703 1.419 . S
C705 C706 1.362 . S
C706 H698 0.930 . S
C706 C705 1.362 . S
C706 C709 1.409 . S
C707 H699 0.930 . S
C707 C708 1.355 . S
C707 C709 1.415 . S
C708 C707 1.355 . S
C708 C710 1.419 . S
C709 C704 1.425 . S
C709 C706 1.409 . S
C709 C707 1.415 . S
C710 H700 0.930 . S
C710 C708 1.419 . S
C710 C711 1.362 . S
C711 H701 0.930 . S
C711 C704 1.409 . S
C711 C710 1.362 . S
H712 C718 0.930 . S
H713 C721 0.930 . S
H714 C722 0.930 . S
H715 C723 0.930 . S
H716 C726 0.930 . S
H717 C727 0.930 . S
C718 H712 0.930 . S
C718 C719 1.355 . S
C718 C720 1.415 . S
C719 C718 1.355 . S
C719 C721 1.419 . S
C720 C718 1.415 . S
C720 C725 1.425 . S
C720 C727 1.409 . S
C721 H713 0.930 . S
C721 C719 1.419 . S
C721 C722 1.362 . S
C722 H714 0.930 . S
C722 C721 1.362 . S
C722 C725 1.409 . S
C723 H715 0.930 . S
C723 C724 1.355 . S
C723 C725 1.415 . S
C724 C723 1.355 . S
C724 C726 1.419 . S
C725 C720 1.425 . S
C725 C722 1.409 . S
C725 C723 1.415 . S
C726 H716 0.930 . S
C726 C724 1.419 . S
C726 C727 1.362 . S
C727 H717 0.930 . S
C727 C720 1.409 . S
C727 C726 1.362 . S
H728 C734 0.930 . S
H729 C737 0.930 . S
H730 C738 0.930 . S
H731 C739 0.930 . S
H732 C742 0.930 . S
H733 C743 0.930 . S
C734 H728 0.930 . S
C734 C735 1.355 . S
C734 C736 1.415 . S
C735 C734 1.355 . S
C735 C737 1.419 . S
C736 C734 1.415 . S
C736 C741 1.425 . S
C736 C743 1.409 . S
C737 H729 0.930 . S
C737 C735 1.419 . S
C737 C738 1.362 . S
C738 H730 0.930 . S
C738 C737 1.362 . S
C738 C741 1.409 . S
C739 H731 0.930 . S
C739 C740 1.355 . S
C739 C741 1.415 . S
C740 C739 1.355 . S
C740 C742 1.419 . S
C741 C736 1.425 . S
C741 C738 1.409 . S
C741 C739 1.415 . S
C742 H732 0.930 . S
C742 C740 1.419 . S
C742 C743 1.362 . S
C743 H733 0.930 . S
C743 C736 1.409 . S
C743 C742 1.362 . S
H744 C750 0.930 . S
H745 C753 0.930 . S
H746 C754 0.930 . S
H747 C755 0.930 . S
H748 C758 0.930 . S
H749 C759 0.930 . S
C750 H744 0.930 . S
C750 C751 1.355 . S
C750 C752 1.415 . S
C751 C750 1.355 . S
C751 C753 1.419 . S
C752 C750 1.415 . S
C752 C757 1.425 . S
C752 C759 1.409 . S
C753 H745 0.930 . S
C753 C751 1.419 . S
C753 C754 1.362 . S
C754 H746 0.930 . S
C754 C753 1.362 . S
C754 C757 1.409 . S
C755 H747 0.930 . S
C755 C756 1.355 . S
C755 C757 1.415 . S
C756 C755 1.355 . S
C756 C758 1.419 . S
C757 C752 1.425 . S
C757 C754 1.409 . S
C757 C755 1.415 . S
C758 H748 0.930 . S
C758 C756 1.419 . S
C758 C759 1.362 . S
C759 H749 0.930 . S
C759 C752 1.409 . S
C759 C758 1.362 . S
H760 C766 0.930 . S
H761 C769 0.930 . S
H762 C770 0.930 . S
H763 C771 0.930 . S
H764 C774 0.930 1_455 S
H765 C775 0.919 1_455 S
C766 H760 0.930 . S
C766 C767 1.355 . S
C766 C768 1.415 . S
C767 C766 1.355 . S
C767 C769 1.419 . S
C768 C766 1.415 . S
C768 C773 1.425 . S
C768 C775 1.409 . S
C769 H761 0.930 . S
C769 C767 1.419 . S
C769 C770 1.362 . S
C770 H762 0.930 . S
C770 C769 1.362 . S
C770 C773 1.409 . S
C771 H763 0.930 . S
C771 C772 1.355 . S
C771 C773 1.415 . S
C772 C771 1.355 . S
C772 C774 1.419 . S
C773 C768 1.425 . S
C773 C770 1.409 . S
C773 C771 1.415 . S
C774 H764 0.930 1_655 S
C774 C772 1.419 . S
C774 C775 1.362 . S
C775 H765 0.919 1_655 S
C775 C768 1.409 . S
C775 C774 1.362 . S
H776 C782 0.930 . S
H777 C785 0.930 . S
H778 C786 0.930 . S
H779 C787 0.930 . S
H780 C790 0.930 . S
H781 C791 0.930 . S
C782 H776 0.930 . S
C782 C783 1.355 . S
C782 C784 1.415 . S
C783 C782 1.355 . S
C783 C785 1.419 . S
C784 C782 1.415 . S
C784 C789 1.425 . S
C784 C791 1.409 . S
C785 H777 0.930 . S
C785 C783 1.419 . S
C785 C786 1.362 . S
C786 H778 0.930 . S
C786 C785 1.362 . S
C786 C789 1.409 . S
C787 H779 0.930 . S
C787 C788 1.355 . S
C787 C789 1.415 . S
C788 C787 1.355 . S
C788 C790 1.419 . S
C789 C784 1.425 . S
C789 C786 1.409 . S
C789 C787 1.415 . S
C790 H780 0.930 . S
C790 C788 1.419 . S
C790 C791 1.362 . S
C791 H781 0.930 . S
C791 C784 1.409 . S
C791 C790 1.362 . S
H792 C798 0.930 . S
H793 C801 0.930 . S
H794 C802 0.930 . S
H795 C803 0.930 1_565 S
H796 C806 0.930 . S
H797 C807 0.930 . S
C798 H792 0.930 . S
C798 C799 1.355 . S
C798 C800 1.415 . S
C799 C798 1.355 . S
C799 C801 1.419 1_545 S
C800 C798 1.415 . S
C800 C805 1.425 . S
C800 C807 1.409 . S
C801 H793 0.930 . S
C801 C799 1.419 1_565 S
C801 C802 1.362 . S
C802 H794 0.930 . S
C802 C801 1.362 . S
C802 C805 1.409 1_565 S
C803 H795 0.930 1_545 S
C803 C804 1.355 . S
C803 C805 1.415 . S
C804 C803 1.355 . S
C804 C806 1.419 . S
C805 C800 1.425 . S
C805 C802 1.409 1_545 S
C805 C803 1.415 . S
C806 H796 0.930 . S
C806 C804 1.419 . S
C806 C807 1.362 . S
C807 H797 0.930 . S
C807 C800 1.409 . S
C807 C806 1.362 . S
H808 C814 0.930 . S
H809 C817 0.930 . S
H810 C818 0.930 . S
H811 C819 0.930 . S
H812 C822 0.930 . S
H813 C823 0.930 . S
C814 H808 0.930 . S
C814 C815 1.355 . S
C814 C816 1.415 . S
C815 C814 1.355 . S
C815 C817 1.419 . S
C816 C814 1.415 . S
C816 C821 1.425 . S
C816 C823 1.409 . S
C817 H809 0.930 . S
C817 C815 1.419 . S
C817 C818 1.362 . S
C818 H810 0.930 . S
C818 C817 1.362 . S
C818 C821 1.409 . S
C819 H811 0.930 . S
C819 C820 1.355 . S
C819 C821 1.415 . S
C820 C819 1.355 . S
C820 C822 1.419 . S
C821 C816 1.425 . S
C821 C818 1.409 . S
C821 C819 1.415 . S
C822 H812 0.930 . S
C822 C820 1.419 . S
C822 C823 1.362 . S
C823 H813 0.930 . S
C823 C816 1.409 . S
C823 C822 1.362 . S
H824 C830 0.930 . S
H825 C833 0.930 . S
H826 C834 0.930 . S
H827 C835 0.930 . S
H828 C838 0.963 . S
H829 C839 0.930 1_455 S
C830 H824 0.930 . S
C830 C831 1.355 . S
C830 C832 1.415 . S
C831 C830 1.355 . S
C831 C833 1.419 . S
C832 C830 1.415 . S
C832 C837 1.425 . S
C832 C839 1.409 . S
C833 H825 0.930 . S
C833 C831 1.419 . S
C833 C834 1.362 . S
C834 H826 0.930 . S
C834 C833 1.362 . S
C834 C837 1.409 . S
C835 H827 0.930 . S
C835 C836 1.355 . S
C835 C837 1.415 . S
C836 C835 1.355 . S
C836 C838 1.393 1_655 S
C837 C832 1.425 . S
C837 C834 1.409 . S
C837 C835 1.415 . S
C838 H828 0.963 . S
C838 C836 1.393 1_455 S
C838 C839 1.356 1_455 S
C839 H829 0.930 1_655 S
C839 C832 1.409 . S
C839 C838 1.356 1_655 S
H840 C846 0.930 . S
H841 C849 0.930 . S
H842 C850 0.930 . S
H843 C851 0.930 . S
H844 C854 0.930 . S
H845 C855 0.930 . S
C846 H840 0.930 . S
C846 C847 1.355 . S
C846 C848 1.415 . S
C847 C846 1.355 . S
C847 C849 1.419 . S
C848 C846 1.415 . S
C848 C853 1.425 . S
C848 C855 1.409 . S
C849 H841 0.930 . S
C849 C847 1.419 . S
C849 C850 1.362 . S
C850 H842 0.930 . S
C850 C849 1.362 . S
C850 C853 1.409 . S
C851 H843 0.930 . S
C851 C852 1.355 . S
C851 C853 1.415 . S
C852 C851 1.355 . S
C852 C854 1.419 . S
C853 C848 1.425 . S
C853 C850 1.409 . S
C853 C851 1.415 . S
C854 H844 0.930 . S
C854 C852 1.419 . S
C854 C855 1.362 . S
C855 H845 0.930 . S
C855 C848 1.409 . S
C855 C854 1.362 . S
H856 C862 0.930 . S
H857 C865 0.930 . S
H858 C866 0.930 . S
H859 C867 0.930 1_565 S
H860 C870 0.930 . S
H861 C871 0.930 . S
C862 H856 0.930 . S
C862 C863 1.355 . S
C862 C864 1.415 . S
C863 C862 1.355 . S
C863 C865 1.419 1_545 S
C864 C862 1.415 . S
C864 C869 1.425 . S
C864 C871 1.409 . S
C865 H857 0.930 . S
C865 C863 1.419 1_565 S
C865 C866 1.362 . S
C866 H858 0.930 . S
C866 C865 1.362 . S
C866 C869 1.409 1_565 S
C867 H859 0.930 1_545 S
C867 C868 1.355 . S
C867 C869 1.415 . S
C868 C867 1.355 . S
C868 C870 1.419 . S
C869 C864 1.425 . S
C869 C866 1.409 1_545 S
C869 C867 1.415 . S
C870 H860 0.930 . S
C870 C868 1.419 . S
C870 C871 1.362 . S
C871 H861 0.930 . S
C871 C864 1.409 . S
C871 C870 1.362 . S
H872 C878 0.930 . S
H873 C881 0.930 . S
H874 C882 0.930 . S
H875 C883 0.930 . S
H876 C886 0.930 . S
H877 C887 0.930 . S
C878 H872 0.930 . S
C878 C879 1.355 . S
C878 C880 1.415 . S
C879 C878 1.355 . S
C879 C881 1.419 . S
C880 C878 1.415 . S
C880 C885 1.425 . S
C880 C887 1.409 . S
C881 H873 0.930 . S
C881 C879 1.419 . S
C881 C882 1.362 . S
C882 H874 0.930 . S
C882 C881 1.362 . S
C882 C885 1.409 . S
C883 H875 0.930 . S
C883 C884 1.355 . S
C883 C885 1.415 . S
C884 C883 1.355 . S
C884 C886 1.419 . S
C885 C880 1.425 . S
C885 C882 1.409 . S
C885 C883 1.415 . S
C886 H876 0.930 . S
C886 C884 1.419 . S
C886 C887 1.362 . S
C887 H877 0.930 . S
C887 C880 1.409 . S
C887 C886 1.362 . S
H888 C894 0.930 1_556 S
H889 C897 0.930 . S
H890 C898 0.930 . S
H891 C899 0.930 . S
H892 C902 0.930 . S
H893 C903 0.930 . S
C894 H888 0.930 1_554 S
C894 C895 1.355 . S
C894 C896 1.415 . S
C895 C894 1.355 . S
C895 C897 1.419 . S
C896 C894 1.415 . S
C896 C901 1.425 . S
C896 C903 1.409 1_554 S
C897 H889 0.930 . S
C897 C895 1.419 . S
C897 C898 1.362 . S
C898 H890 0.930 . S
C898 C897 1.362 . S
C898 C901 1.409 . S
C899 H891 0.930 . S
C899 C900 1.355 . S
C899 C901 1.415 . S
C900 C899 1.355 . S
C900 C902 1.419 1_554 S
C901 C896 1.425 . S
C901 C898 1.409 . S
C901 C899 1.415 . S
C902 H892 0.930 . S
C902 C900 1.419 1_556 S
C902 C903 1.362 . S
C903 H893 0.930 . S
C903 C896 1.409 1_556 S
C903 C902 1.362 . S
H904 C910 0.930 . S
H905 C913 0.930 . S
H906 C914 0.930 . S
H907 C915 0.930 . S
H908 C918 0.930 . S
H909 C919 0.930 . S
C910 H904 0.930 . S
C910 C911 1.355 . S
C910 C912 1.415 . S
C911 C910 1.355 . S
C911 C913 1.418 1_556 S
C912 C910 1.415 . S
C912 C917 1.421 1_556 S
C912 C919 1.409 . S
C913 H905 0.930 . S
C913 C911 1.418 1_554 S
C913 C914 1.364 . S
C914 H906 0.930 . S
C914 C913 1.364 . S
C914 C917 1.409 . S
C915 H907 0.930 . S
C915 C916 1.355 . S
C915 C917 1.421 . S
C916 C915 1.355 . S
C916 C918 1.415 1_554 S
C917 C912 1.421 1_554 S
C917 C914 1.409 . S
C917 C915 1.421 . S
C918 H908 0.930 . S
C918 C916 1.415 1_556 S
C918 C919 1.369 . S
C919 H909 0.930 . S
C919 C912 1.409 . S
C919 C918 1.369 . S
H920 C926 0.930 . S
H921 C929 0.930 . S
H922 C930 0.930 . S
H923 C931 0.930 . S
H924 C934 0.930 . S
H925 C935 0.930 . S
C926 H920 0.930 . S
C926 C927 1.355 . S
C926 C928 1.415 . S
C927 C926 1.355 . S
C927 C929 1.419 . S
C928 C926 1.415 . S
C928 C933 1.425 . S
C928 C935 1.409 . S
C929 H921 0.930 . S
C929 C927 1.419 . S
C929 C930 1.362 . S
C930 H922 0.930 . S
C930 C929 1.362 . S
C930 C933 1.409 . S
C931 H923 0.930 . S
C931 C932 1.355 . S
C931 C933 1.415 . S
C932 C931 1.355 . S
C932 C934 1.419 . S
C933 C928 1.425 . S
C933 C930 1.409 . S
C933 C931 1.415 . S
C934 H924 0.930 . S
C934 C932 1.419 . S
C934 C935 1.362 . S
C935 H925 0.930 . S
C935 C928 1.409 . S
C935 C934 1.362 . S
H936 C942 0.930 . S
H937 C945 0.930 . S
H938 C946 0.930 . S
H939 C947 0.930 . S
H940 C950 0.930 . S
H941 C951 0.930 . S
C942 H936 0.930 . S
C942 C943 1.355 . S
C942 C944 1.415 . S
C943 C942 1.355 . S
C943 C945 1.419 . S
C944 C942 1.415 . S
C944 C949 1.425 . S
C944 C951 1.409 . S
C945 H937 0.930 . S
C945 C943 1.419 . S
C945 C946 1.362 . S
C946 H938 0.930 . S
C946 C945 1.362 . S
C946 C949 1.409 . S
C947 H939 0.930 . S
C947 C948 1.355 . S
C947 C949 1.415 . S
C948 C947 1.355 . S
C948 C950 1.419 . S
C949 C944 1.425 . S
C949 C946 1.409 . S
C949 C947 1.415 . S
C950 H940 0.930 . S
C950 C948 1.419 . S
C950 C951 1.362 . S
C951 H941 0.930 . S
C951 C944 1.409 . S
C951 C950 1.362 . S
H952 C958 0.930 . S
H953 C961 0.930 . S
H954 C962 0.930 . S
H955 C963 0.930 . S
H956 C966 0.930 . S
H957 C967 0.930 . S
C958 H952 0.930 . S
C958 C959 1.355 . S
C958 C960 1.415 . S
C959 C958 1.355 . S
C959 C961 1.419 . S
C960 C958 1.415 . S
C960 C965 1.425 . S
C960 C967 1.409 . S
C961 H953 0.930 . S
C961 C959 1.419 . S
C961 C962 1.362 . S
C962 H954 0.930 . S
C962 C961 1.362 . S
C962 C965 1.409 . S
C963 H955 0.930 . S
C963 C964 1.355 . S
C963 C965 1.415 . S
C964 C963 1.355 . S
C964 C966 1.419 . S
C965 C960 1.425 . S
C965 C962 1.409 . S
C965 C963 1.415 . S
C966 H956 0.930 . S
C966 C964 1.419 . S
C966 C967 1.362 . S
C967 H957 0.930 . S
C967 C960 1.409 . S
C967 C966 1.362 . S
H968 C974 0.930 . S
H969 C977 0.930 . S
H970 C978 0.930 . S
H971 C979 0.930 . S
H972 C982 0.930 . S
H973 C983 0.930 . S
C974 H968 0.930 . S
C974 C975 1.355 . S
C974 C976 1.415 . S
C975 C974 1.355 . S
C975 C977 1.419 . S
C976 C974 1.415 . S
C976 C981 1.425 . S
C976 C983 1.409 . S
C977 H969 0.930 . S
C977 C975 1.419 . S
C977 C978 1.362 . S
C978 H970 0.930 . S
C978 C977 1.362 . S
C978 C981 1.409 . S
C979 H971 0.930 . S
C979 C980 1.355 . S
C979 C981 1.415 . S
C980 C979 1.355 . S
C980 C982 1.419 . S
C981 C976 1.425 . S
C981 C978 1.409 . S
C981 C979 1.415 . S
C982 H972 0.930 . S
C982 C980 1.419 . S
C982 C983 1.362 . S
C983 H973 0.930 . S
C983 C976 1.409 . S
C983 C982 1.362 . S
H984 C990 0.930 . S
H985 C993 0.930 . S
H986 C994 0.930 . S
H987 C995 0.930 . S
H988 C998 0.930 . S
H989 C999 0.930 . S
C990 H984 0.930 . S
C990 C991 1.355 . S
C990 C992 1.415 . S
C991 C990 1.355 . S
C991 C993 1.419 . S
C992 C990 1.415 . S
C992 C997 1.425 . S
C992 C999 1.409 . S
C993 H985 0.930 . S
C993 C991 1.419 . S
C993 C994 1.362 . S
C994 H986 0.930 . S
C994 C993 1.362 . S
C994 C997 1.409 . S
C995 H987 0.930 . S
C995 C996 1.355 . S
C995 C997 1.415 . S
C996 C995 1.355 . S
C996 C998 1.419 . S
C997 C992 1.425 . S
C997 C994 1.409 . S
C997 C995 1.415 . S
C998 H988 0.930 . S
C998 C996 1.419 . S
C998 C999 1.362 . S
C999 H989 0.930 . S
C999 C992 1.409 . S
C999 C998 1.362 . S
H1000 C1006 0.930 . S
H1001 C1009 0.930 . S
H1002 C1010 0.930 . S
H1003 C1011 0.930 . S
H1004 C1014 0.930 . S
H1005 C1015 0.930 . S
C1006 H1000 0.930 . S
C1006 C1007 1.355 . S
C1006 C1008 1.415 . S
C1007 C1006 1.355 . S
C1007 C1009 1.419 . S
C1008 C1006 1.415 . S
C1008 C1013 1.425 . S
C1008 C1015 1.409 . S
C1009 H1001 0.930 . S
C1009 C1007 1.419 . S
C1009 C1010 1.362 . S
C1010 H1002 0.930 . S
C1010 C1009 1.362 . S
C1010 C1013 1.409 . S
C1011 H1003 0.930 . S
C1011 C1012 1.355 . S
C1011 C1013 1.415 . S
C1012 C1011 1.355 . S
C1012 C1014 1.419 . S
C1013 C1008 1.425 . S
C1013 C1010 1.409 . S
C1013 C1011 1.415 . S
C1014 H1004 0.930 . S
C1014 C1012 1.419 . S
C1014 C1015 1.362 . S
C1015 H1005 0.930 . S
C1015 C1008 1.409 . S
C1015 C1014 1.362 . S
H1016 C1022 0.930 . S
H1017 C1025 0.930 . S
H1018 C1026 0.930 . S
H1019 C1027 0.930 . S
H1020 C1030 0.930 . S
H1021 C1031 0.930 . S
C1022 H1016 0.930 . S
C1022 C1023 1.355 1_655 S
C1022 C1024 1.415 . S
C1023 C1022 1.355 1_455 S
C1023 C1025 1.419 . S
C1024 C1022 1.415 . S
C1024 C1029 1.425 1_655 S
C1024 C1031 1.409 . S
C1025 H1017 0.930 . S
C1025 C1023 1.419 . S
C1025 C1026 1.362 . S
C1026 H1018 0.930 . S
C1026 C1025 1.362 . S
C1026 C1029 1.409 . S
C1027 H1019 0.930 . S
C1027 C1028 1.355 . S
C1027 C1029 1.415 . S
C1028 C1027 1.355 . S
C1028 C1030 1.419 1_455 S
C1029 C1024 1.425 1_455 S
C1029 C1026 1.409 . S
C1029 C1027 1.415 . S
C1030 H1020 0.930 . S
C1030 C1028 1.419 1_655 S
C1030 C1031 1.362 . S
C1031 H1021 0.930 . S
C1031 C1024 1.409 . S
C1031 C1030 1.362 . S
H1032 C1038 0.930 . S
H1033 C1041 0.930 . S
H1034 C1042 0.930 . S
H1035 C1043 0.930 . S
H1036 C1046 0.930 . S
H1037 C1047 0.930 . S
C1038 H1032 0.930 . S
C1038 C1039 1.355 . S
C1038 C1040 1.415 . S
C1039 C1038 1.355 . S
C1039 C1041 1.419 . S
C1040 C1038 1.415 . S
C1040 C1045 1.425 . S
C1040 C1047 1.409 . S
C1041 H1033 0.930 . S
C1041 C1039 1.419 . S
C1041 C1042 1.362 . S
C1042 H1034 0.930 . S
C1042 C1041 1.362 . S
C1042 C1045 1.409 . S
C1043 H1035 0.930 . S
C1043 C1044 1.355 . S
C1043 C1045 1.415 . S
C1044 C1043 1.355 . S
C1044 C1046 1.419 . S
C1045 C1040 1.425 . S
C1045 C1042 1.409 . S
C1045 C1043 1.415 . S
C1046 H1036 0.930 . S
C1046 C1044 1.419 . S
C1046 C1047 1.362 . S
C1047 H1037 0.930 . S
C1047 C1040 1.409 . S
C1047 C1046 1.362 . S
H1048 C1054 0.930 . S
H1049 C1057 0.930 . S
H1050 C1058 0.930 . S
H1051 C1059 0.930 . S
H1052 C1062 0.930 . S
H1053 C1063 0.930 . S
C1054 H1048 0.930 . S
C1054 C1055 1.355 . S
C1054 C1056 1.415 . S
C1055 C1054 1.355 . S
C1055 C1057 1.419 . S
C1056 C1054 1.415 . S
C1056 C1061 1.425 . S
C1056 C1063 1.409 . S
C1057 H1049 0.930 . S
C1057 C1055 1.419 . S
C1057 C1058 1.362 . S
C1058 H1050 0.930 . S
C1058 C1057 1.362 . S
C1058 C1061 1.409 . S
C1059 H1051 0.930 . S
C1059 C1060 1.355 . S
C1059 C1061 1.415 . S
C1060 C1059 1.355 . S
C1060 C1062 1.419 . S
C1061 C1056 1.425 . S
C1061 C1058 1.409 . S
C1061 C1059 1.415 . S
C1062 H1052 0.930 . S
C1062 C1060 1.419 . S
C1062 C1063 1.362 . S
C1063 H1053 0.930 . S
C1063 C1056 1.409 . S
C1063 C1062 1.362 . S
H1064 C1070 0.930 . S
H1065 C1073 0.930 . S
H1066 C1074 0.930 . S
H1067 C1075 0.930 . S
H1068 C1078 0.930 . S
H1069 C1079 0.930 . S
C1070 H1064 0.930 . S
C1070 C1071 1.355 . S
C1070 C1072 1.415 . S
C1071 C1070 1.355 . S
C1071 C1073 1.419 . S
C1072 C1070 1.415 . S
C1072 C1077 1.425 . S
C1072 C1079 1.409 . S
C1073 H1065 0.930 . S
C1073 C1071 1.419 . S
C1073 C1074 1.362 . S
C1074 H1066 0.930 . S
C1074 C1073 1.362 . S
C1074 C1077 1.409 . S
C1075 H1067 0.930 . S
C1075 C1076 1.355 . S
C1075 C1077 1.415 . S
C1076 C1075 1.355 . S
C1076 C1078 1.419 . S
C1077 C1072 1.425 . S
C1077 C1074 1.409 . S
C1077 C1075 1.415 . S
C1078 H1068 0.930 . S
C1078 C1076 1.419 . S
C1078 C1079 1.362 . S
C1079 H1069 0.930 . S
C1079 C1072 1.409 . S
C1079 C1078 1.362 . S
H1080 C1086 0.930 . S
H1081 C1089 0.930 . S
H1082 C1090 0.930 . S
H1083 C1091 0.930 . S
H1084 C1094 0.930 . S
H1085 C1095 0.930 . S
C1086 H1080 0.930 . S
C1086 C1087 1.355 . S
C1086 C1088 1.415 . S
C1087 C1086 1.355 . S
C1087 C1089 1.419 1_455 S
C1088 C1086 1.415 . S
C1088 C1093 1.425 1_455 S
C1088 C1095 1.409 . S
C1089 H1081 0.930 . S
C1089 C1087 1.419 1_655 S
C1089 C1090 1.362 . S
C1090 H1082 0.930 . S
C1090 C1089 1.362 . S
C1090 C1093 1.409 . S
C1091 H1083 0.930 . S
C1091 C1092 1.355 1_655 S
C1091 C1093 1.415 . S
C1092 C1091 1.355 1_455 S
C1092 C1094 1.419 . S
C1093 C1088 1.425 1_655 S
C1093 C1090 1.409 . S
C1093 C1091 1.415 . S
C1094 H1084 0.930 . S
C1094 C1092 1.419 . S
C1094 C1095 1.362 . S
C1095 H1085 0.930 . S
C1095 C1088 1.409 . S
C1095 C1094 1.362 . S
H1096 C1102 0.930 . S
H1097 C1105 0.930 . S
H1098 C1106 0.930 . S
H1099 C1107 0.930 . S
H1100 C1110 0.930 . S
H1101 C1111 0.930 . S
C1102 H1096 0.930 . S
C1102 C1103 1.355 . S
C1102 C1104 1.415 . S
C1103 C1102 1.355 . S
C1103 C1105 1.419 . S
C1104 C1102 1.415 . S
C1104 C1109 1.425 . S
C1104 C1111 1.409 . S
C1105 H1097 0.930 . S
C1105 C1103 1.419 . S
C1105 C1106 1.362 . S
C1106 H1098 0.930 . S
C1106 C1105 1.362 . S
C1106 C1109 1.409 . S
C1107 H1099 0.930 . S
C1107 C1108 1.355 . S
C1107 C1109 1.415 . S
C1108 C1107 1.355 . S
C1108 C1110 1.419 . S
C1109 C1104 1.425 . S
C1109 C1106 1.409 . S
C1109 C1107 1.415 . S
C1110 H1100 0.930 . S
C1110 C1108 1.419 . S
C1110 C1111 1.362 . S
C1111 H1101 0.930 . S
C1111 C1104 1.409 . S
C1111 C1110 1.362 . S
H1112 C1118 0.930 . S
H1113 C1121 0.930 . S
H1114 C1122 0.930 . S
H1115 C1123 0.930 . S
H1116 C1126 0.930 . S
H1117 C1127 0.930 . S
C1118 H1112 0.930 . S
C1118 C1119 1.355 . S
C1118 C1120 1.415 . S
C1119 C1118 1.355 . S
C1119 C1121 1.419 . S
C1120 C1118 1.415 . S
C1120 C1125 1.425 . S
C1120 C1127 1.409 1_556 S
C1121 H1113 0.930 . S
C1121 C1119 1.419 . S
C1121 C1122 1.362 . S
C1122 H1114 0.930 . S
C1122 C1121 1.362 . S
C1122 C1125 1.409 . S
C1123 H1115 0.930 . S
C1123 C1124 1.355 . S
C1123 C1125 1.415 . S
C1124 C1123 1.355 . S
C1124 C1126 1.419 1_556 S
C1125 C1120 1.425 . S
C1125 C1122 1.409 . S
C1125 C1123 1.415 . S
C1126 H1116 0.930 . S
C1126 C1124 1.419 1_554 S
C1126 C1127 1.362 . S
C1127 H1117 0.930 . S
C1127 C1120 1.409 1_554 S
C1127 C1126 1.362 . S
H1128 C1134 0.930 . S
H1129 C1137 0.930 . S
H1130 C1138 0.930 . S
H1131 C1139 0.930 . S
H1132 C1142 0.930 . S
H1133 C1143 0.930 . S
C1134 H1128 0.930 . S
C1134 C1135 1.355 . S
C1134 C1136 1.415 . S
C1135 C1134 1.355 . S
C1135 C1137 1.419 . S
C1136 C1134 1.415 . S
C1136 C1141 1.425 . S
C1136 C1143 1.409 . S
C1137 H1129 0.930 . S
C1137 C1135 1.419 . S
C1137 C1138 1.362 . S
C1138 H1130 0.930 . S
C1138 C1137 1.362 . S
C1138 C1141 1.409 . S
C1139 H1131 0.930 . S
C1139 C1140 1.355 . S
C1139 C1141 1.415 . S
C1140 C1139 1.355 . S
C1140 C1142 1.419 . S
C1141 C1136 1.425 . S
C1141 C1138 1.409 . S
C1141 C1139 1.415 . S
C1142 H1132 0.930 . S
C1142 C1140 1.419 . S
C1142 C1143 1.362 . S
C1143 H1133 0.930 . S
C1143 C1136 1.409 . S
C1143 C1142 1.362 . S
H1144 C1150 0.930 . S
H1145 C1153 0.930 . S
H1146 C1154 0.930 . S
H1147 C1155 0.930 . S
H1148 C1158 0.901 1_655 S
H1149 C1159 0.930 . S
C1150 H1144 0.930 . S
C1150 C1151 1.345 1_565 S
C1150 C1152 1.415 . S
C1151 C1150 1.345 1_545 S
C1151 C1153 1.434 . S
C1152 C1150 1.415 . S
C1152 C1157 1.425 1_565 S
C1152 C1159 1.409 . S
C1153 H1145 0.930 . S
C1153 C1151 1.434 . S
C1153 C1154 1.362 . S
C1154 H1146 0.930 . S
C1154 C1153 1.362 . S
C1154 C1157 1.409 . S
C1155 H1147 0.930 . S
C1155 C1156 1.361 . S
C1155 C1157 1.415 . S
C1156 C1155 1.361 . S
C1156 C1158 1.410 1_545 S
C1157 C1152 1.425 1_545 S
C1157 C1154 1.409 . S
C1157 C1155 1.415 . S
C1158 H1148 0.901 1_455 S
C1158 C1156 1.410 1_565 S
C1158 C1159 1.362 . S
C1159 H1149 0.930 . S
C1159 C1152 1.409 . S
C1159 C1158 1.362 . S
H1160 C1166 0.930 . S
H1161 C1169 0.930 . S
H1162 C1170 0.930 . S
H1163 C1171 0.930 . S
H1164 C1174 0.930 . S
H1165 C1175 0.930 . S
C1166 H1160 0.930 . S
C1166 C1167 1.355 . S
C1166 C1168 1.415 . S
C1167 C1166 1.355 . S
C1167 C1169 1.419 . S
C1168 C1166 1.415 . S
C1168 C1173 1.425 . S
C1168 C1175 1.409 . S
C1169 H1161 0.930 . S
C1169 C1167 1.419 . S
C1169 C1170 1.362 . S
C1170 H1162 0.930 . S
C1170 C1169 1.362 . S
C1170 C1173 1.409 . S
C1171 H1163 0.930 . S
C1171 C1172 1.355 . S
C1171 C1173 1.415 . S
C1172 C1171 1.355 . S
C1172 C1174 1.419 . S
C1173 C1168 1.425 . S
C1173 C1170 1.409 . S
C1173 C1171 1.415 . S
C1174 H1164 0.930 . S
C1174 C1172 1.419 . S
C1174 C1175 1.362 . S
C1175 H1165 0.930 . S
C1175 C1168 1.409 . S
C1175 C1174 1.362 . S
H1176 C1182 0.930 . S
H1177 C1185 0.930 . S
H1178 C1186 0.930 . S
H1179 C1187 0.930 . S
H1180 C1190 0.930 . S
H1181 C1191 0.930 . S
C1182 H1176 0.930 . S
C1182 C1183 1.355 . S
C1182 C1184 1.415 . S
C1183 C1182 1.355 . S
C1183 C1185 1.419 . S
C1184 C1182 1.415 . S
C1184 C1189 1.425 . S
C1184 C1191 1.409 . S
C1185 H1177 0.930 . S
C1185 C1183 1.419 . S
C1185 C1186 1.362 . S
C1186 H1178 0.930 . S
C1186 C1185 1.362 . S
C1186 C1189 1.409 . S
C1187 H1179 0.930 . S
C1187 C1188 1.355 . S
C1187 C1189 1.415 . S
C1188 C1187 1.355 . S
C1188 C1190 1.419 . S
C1189 C1184 1.425 . S
C1189 C1186 1.409 . S
C1189 C1187 1.415 . S
C1190 H1180 0.930 . S
C1190 C1188 1.419 . S
C1190 C1191 1.362 . S
C1191 H1181 0.930 . S
C1191 C1184 1.409 . S
C1191 C1190 1.362 . S
H1192 C1198 0.930 . S
H1193 C1201 0.930 . S
H1194 C1202 0.930 . S
H1195 C1203 0.930 . S
H1196 C1206 0.930 . S
H1197 C1207 0.930 . S
C1198 H1192 0.930 . S
C1198 C1199 1.355 . S
C1198 C1200 1.415 . S
C1199 C1198 1.355 . S
C1199 C1201 1.419 . S
C1200 C1198 1.415 . S
C1200 C1205 1.425 . S
C1200 C1207 1.409 . S
C1201 H1193 0.930 . S
C1201 C1199 1.419 . S
C1201 C1202 1.362 . S
C1202 H1194 0.930 . S
C1202 C1201 1.362 . S
C1202 C1205 1.409 . S
C1203 H1195 0.930 . S
C1203 C1204 1.355 . S
C1203 C1205 1.415 . S
C1204 C1203 1.355 . S
C1204 C1206 1.419 . S
C1205 C1200 1.425 . S
C1205 C1202 1.409 . S
C1205 C1203 1.415 . S
C1206 H1196 0.930 . S
C1206 C1204 1.419 . S
C1206 C1207 1.362 . S
C1207 H1197 0.930 . S
C1207 C1200 1.409 . S
C1207 C1206 1.362 . S
H1208 C1214 0.930 . S
H1209 C1217 0.930 . S
H1210 C1218 0.930 . S
H1211 C1219 0.930 . S
H1212 C1222 0.930 . S
H1213 C1223 0.930 . S
C1214 H1208 0.930 . S
C1214 C1215 1.335 1_565 S
C1214 C1216 1.415 . S
C1215 C1214 1.335 1_545 S
C1215 C1217 1.461 . S
C1216 C1214 1.415 . S
C1216 C1221 1.425 1_565 S
C1216 C1223 1.409 . S
C1217 H1209 0.930 . S
C1217 C1215 1.461 . S
C1217 C1218 1.362 . S
C1218 H1210 0.930 . S
C1218 C1217 1.362 . S
C1218 C1221 1.409 . S
C1219 H1211 0.930 . S
C1219 C1220 1.355 . S
C1219 C1221 1.415 . S
C1220 C1219 1.355 . S
C1220 C1222 1.419 1_545 S
C1221 C1216 1.425 1_545 S
C1221 C1218 1.409 . S
C1221 C1219 1.415 . S
C1222 H1212 0.930 . S
C1222 C1220 1.419 1_565 S
C1222 C1223 1.362 . S
C1223 H1213 0.930 . S
C1223 C1216 1.409 . S
C1223 C1222 1.362 . S
H1224 C1230 0.930 . S
H1225 C1233 0.930 . S
H1226 C1234 0.930 . S
H1227 C1235 0.930 . S
H1228 C1238 0.930 . S
H1229 C1239 0.930 . S
C1230 H1224 0.930 . S
C1230 C1231 1.355 . S
C1230 C1232 1.415 . S
C1231 C1230 1.355 . S
C1231 C1233 1.419 . S
C1232 C1230 1.415 . S
C1232 C1237 1.425 . S
C1232 C1239 1.409 . S
C1233 H1225 0.930 . S
C1233 C1231 1.419 . S
C1233 C1234 1.362 . S
C1234 H1226 0.930 . S
C1234 C1233 1.362 . S
C1234 C1237 1.409 . S
C1235 H1227 0.930 . S
C1235 C1236 1.355 . S
C1235 C1237 1.415 . S
C1236 C1235 1.355 . S
C1236 C1238 1.419 . S
C1237 C1232 1.425 . S
C1237 C1234 1.409 . S
C1237 C1235 1.415 . S
C1238 H1228 0.930 . S
C1238 C1236 1.419 . S
C1238 C1239 1.362 . S
C1239 H1229 0.930 . S
C1239 C1232 1.409 . S
C1239 C1238 1.362 . S
H1240 C1246 0.930 . S
H1241 C1249 0.930 . S
H1242 C1250 0.930 1_565 S
H1243 C1251 0.932 . S
H1244 C1254 0.930 . S
H1245 C1255 0.930 . S
C1246 H1240 0.930 . S
C1246 C1247 1.355 . S
C1246 C1248 1.415 . S
C1247 C1246 1.355 . S
C1247 C1249 1.419 . S
C1248 C1246 1.415 . S
C1248 C1253 1.425 . S
C1248 C1255 1.409 . S
C1249 H1241 0.930 . S
C1249 C1247 1.419 . S
C1249 C1250 1.362 . S
C1250 H1242 0.930 1_545 S
C1250 C1249 1.362 . S
C1250 C1253 1.409 . S
C1251 H1243 0.932 . S
C1251 C1252 1.355 . S
C1251 C1253 1.415 . S
C1252 C1251 1.355 . S
C1252 C1254 1.419 . S
C1253 C1248 1.425 . S
C1253 C1250 1.409 . S
C1253 C1251 1.415 . S
C1254 H1244 0.930 . S
C1254 C1252 1.419 . S
C1254 C1255 1.362 . S
C1255 H1245 0.930 . S
C1255 C1248 1.409 . S
C1255 C1254 1.362 . S
H1256 C1262 0.930 . S
H1257 C1265 0.930 . S
H1258 C1266 0.930 . S
H1259 C1267 0.930 . S
H1260 C1270 0.930 . S
H1261 C1271 0.930 . S
C1262 H1256 0.930 . S
C1262 C1263 1.355 . S
C1262 C1264 1.415 . S
C1263 C1262 1.355 . S
C1263 C1265 1.419 . S
C1264 C1262 1.415 . S
C1264 C1269 1.425 . S
C1264 C1271 1.409 . S
C1265 H1257 0.930 . S
C1265 C1263 1.419 . S
C1265 C1266 1.362 . S
C1266 H1258 0.930 . S
C1266 C1265 1.362 . S
C1266 C1269 1.409 . S
C1267 H1259 0.930 . S
C1267 C1268 1.355 . S
C1267 C1269 1.415 . S
C1268 C1267 1.355 . S
C1268 C1270 1.419 . S
C1269 C1264 1.425 . S
C1269 C1266 1.409 . S
C1269 C1267 1.415 . S
C1270 H1260 0.930 . S
C1270 C1268 1.419 . S
C1270 C1271 1.362 . S
C1271 H1261 0.930 . S
C1271 C1264 1.409 . S
C1271 C1270 1.362 . S
H1272 C1278 0.930 . S
H1273 C1281 0.930 . S
H1274 C1282 0.930 . S
H1275 C1283 0.930 . S
H1276 C1286 0.930 . S
H1277 C1287 0.930 . S
C1278 H1272 0.930 . S
C1278 C1279 1.355 1_554 S
C1278 C1280 1.415 . S
C1279 C1278 1.355 1_556 S
C1279 C1281 1.419 . S
C1280 C1278 1.415 . S
C1280 C1285 1.425 1_554 S
C1280 C1287 1.409 . S
C1281 H1273 0.930 . S
C1281 C1279 1.419 . S
C1281 C1282 1.362 . S
C1282 H1274 0.930 . S
C1282 C1281 1.362 . S
C1282 C1285 1.409 . S
C1283 H1275 0.930 . S
C1283 C1284 1.355 . S
C1283 C1285 1.415 . S
C1284 C1283 1.355 . S
C1284 C1286 1.419 1_556 S
C1285 C1280 1.425 1_556 S
C1285 C1282 1.409 . S
C1285 C1283 1.415 . S
C1286 H1276 0.930 . S
C1286 C1284 1.419 1_554 S
C1286 C1287 1.362 . S
C1287 H1277 0.930 . S
C1287 C1280 1.409 . S
C1287 C1286 1.362 . S
H1288 C1294 0.930 . S
H1289 C1297 0.930 . S
H1290 C1298 0.930 . S
H1291 C1299 0.930 . S
H1292 C1302 0.930 . S
H1293 C1303 0.930 . S
C1294 H1288 0.930 . S
C1294 C1295 1.355 . S
C1294 C1296 1.415 . S
C1295 C1294 1.355 . S
C1295 C1297 1.419 . S
C1296 C1294 1.415 . S
C1296 C1301 1.425 . S
C1296 C1303 1.409 . S
C1297 H1289 0.930 . S
C1297 C1295 1.419 . S
C1297 C1298 1.362 . S
C1298 H1290 0.930 . S
C1298 C1297 1.362 . S
C1298 C1301 1.409 . S
C1299 H1291 0.930 . S
C1299 C1300 1.355 . S
C1299 C1301 1.415 . S
C1300 C1299 1.355 . S
C1300 C1302 1.419 . S
C1301 C1296 1.425 . S
C1301 C1298 1.409 . S
C1301 C1299 1.415 . S
C1302 H1292 0.930 . S
C1302 C1300 1.419 . S
C1302 C1303 1.362 . S
C1303 H1293 0.930 . S
C1303 C1296 1.409 . S
C1303 C1302 1.362 . S
H1304 C1310 0.930 . S
H1305 C1313 0.930 . S
H1306 C1314 0.930 . S
H1307 C1315 0.930 . S
H1308 C1318 0.930 . S
H1309 C1319 0.930 . S
C1310 H1304 0.930 . S
C1310 C1311 1.355 . S
C1310 C1312 1.415 . S
C1311 C1310 1.355 . S
C1311 C1313 1.419 . S
C1312 C1310 1.415 . S
C1312 C1317 1.425 . S
C1312 C1319 1.409 . S
C1313 H1305 0.930 . S
C1313 C1311 1.419 . S
C1313 C1314 1.362 . S
C1314 H1306 0.930 . S
C1314 C1313 1.362 . S
C1314 C1317 1.409 . S
C1315 H1307 0.930 . S
C1315 C1316 1.355 . S
C1315 C1317 1.415 . S
C1316 C1315 1.355 . S
C1316 C1318 1.419 . S
C1317 C1312 1.425 . S
C1317 C1314 1.409 . S
C1317 C1315 1.415 . S
C1318 H1308 0.930 . S
C1318 C1316 1.419 . S
C1318 C1319 1.362 . S
C1319 H1309 0.930 . S
C1319 C1312 1.409 . S
C1319 C1318 1.362 . S
H1320 C1326 0.930 . S
H1321 C1329 0.930 . S
H1322 C1330 0.930 . S
H1323 C1331 0.930 . S
H1324 C1334 0.930 . S
H1325 C1335 0.930 . S
C1326 H1320 0.930 . S
C1326 C1327 1.355 . S
C1326 C1328 1.415 . S
C1327 C1326 1.355 . S
C1327 C1329 1.419 . S
C1328 C1326 1.415 . S
C1328 C1333 1.425 . S
C1328 C1335 1.409 . S
C1329 H1321 0.930 . S
C1329 C1327 1.419 . S
C1329 C1330 1.362 . S
C1330 H1322 0.930 . S
C1330 C1329 1.362 . S
C1330 C1333 1.409 . S
C1331 H1323 0.930 . S
C1331 C1332 1.355 . S
C1331 C1333 1.415 . S
C1332 C1331 1.355 . S
C1332 C1334 1.419 . S
C1333 C1328 1.425 . S
C1333 C1330 1.409 . S
C1333 C1331 1.415 . S
C1334 H1324 0.930 . S
C1334 C1332 1.419 . S
C1334 C1335 1.362 . S
C1335 H1325 0.930 . S
C1335 C1328 1.409 . S
C1335 C1334 1.362 . S
H1336 C1342 0.930 . S
H1337 C1345 0.930 . S
H1338 C1346 0.930 . S
H1339 C1347 0.930 . S
H1340 C1350 0.930 . S
H1341 C1351 0.930 . S
C1342 H1336 0.930 . S
C1342 C1343 1.355 . S
C1342 C1344 1.415 . S
C1343 C1342 1.355 . S
C1343 C1345 1.419 . S
C1344 C1342 1.415 . S
C1344 C1349 1.425 . S
C1344 C1351 1.409 . S
C1345 H1337 0.930 . S
C1345 C1343 1.419 . S
C1345 C1346 1.362 . S
C1346 H1338 0.930 . S
C1346 C1345 1.362 . S
C1346 C1349 1.409 . S
C1347 H1339 0.930 . S
C1347 C1348 1.355 . S
C1347 C1349 1.415 . S
C1348 C1347 1.355 . S
C1348 C1350 1.419 . S
C1349 C1344 1.425 . S
C1349 C1346 1.409 . S
C1349 C1347 1.415 . S
C1350 H1340 0.930 . S
C1350 C1348 1.419 . S
C1350 C1351 1.362 . S
C1351 H1341 0.930 . S
C1351 C1344 1.409 . S
C1351 C1350 1.362 . S
H1352 C1358 0.930 . S
H1353 C1361 0.930 . S
H1354 C1362 0.930 1_545 S
H1355 C1363 0.930 1_545 S
H1356 C1366 0.930 . S
H1357 C1367 0.930 . S
C1358 H1352 0.930 . S
C1358 C1359 1.355 . S
C1358 C1360 1.415 . S
C1359 C1358 1.355 . S
C1359 C1361 1.419 . S
C1360 C1358 1.415 . S
C1360 C1365 1.425 . S
C1360 C1367 1.409 . S
C1361 H1353 0.930 . S
C1361 C1359 1.419 . S
C1361 C1362 1.362 . S
C1362 H1354 0.930 1_565 S
C1362 C1361 1.362 . S
C1362 C1365 1.409 . S
C1363 H1355 0.930 1_565 S
C1363 C1364 1.355 . S
C1363 C1365 1.415 . S
C1364 C1363 1.355 . S
C1364 C1366 1.419 . S
C1365 C1360 1.425 . S
C1365 C1362 1.409 . S
C1365 C1363 1.415 . S
C1366 H1356 0.930 . S
C1366 C1364 1.419 . S
C1366 C1367 1.362 . S
C1367 H1357 0.930 . S
C1367 C1360 1.409 . S
C1367 C1366 1.362 . S
H1368 C1374 0.930 . S
H1369 C1377 0.930 . S
H1370 C1378 0.930 . S
H1371 C1379 0.930 . S
H1372 C1382 0.930 . S
H1373 C1383 0.930 . S
C1374 H1368 0.930 . S
C1374 C1375 1.355 . S
C1374 C1376 1.415 . S
C1375 C1374 1.355 . S
C1375 C1377 1.419 . S
C1376 C1374 1.415 . S
C1376 C1381 1.425 . S
C1376 C1383 1.409 . S
C1377 H1369 0.930 . S
C1377 C1375 1.419 . S
C1377 C1378 1.362 . S
C1378 H1370 0.930 . S
C1378 C1377 1.362 . S
C1378 C1381 1.409 . S
C1379 H1371 0.930 . S
C1379 C1380 1.355 . S
C1379 C1381 1.415 . S
C1380 C1379 1.355 . S
C1380 C1382 1.419 . S
C1381 C1376 1.425 . S
C1381 C1378 1.409 . S
C1381 C1379 1.415 . S
C1382 H1372 0.930 . S
C1382 C1380 1.419 . S
C1382 C1383 1.362 . S
C1383 H1373 0.930 . S
C1383 C1376 1.409 . S
C1383 C1382 1.362 . S
H1384 C1390 0.930 . S
H1385 C1393 0.930 . S
H1386 C1394 0.930 . S
H1387 C1395 0.930 . S
H1388 C1398 0.930 . S
H1389 C1399 0.930 . S
C1390 H1384 0.930 . S
C1390 C1391 1.355 . S
C1390 C1392 1.415 . S
C1391 C1390 1.355 . S
C1391 C1393 1.419 . S
C1392 C1390 1.415 . S
C1392 C1397 1.425 . S
C1392 C1399 1.409 . S
C1393 H1385 0.930 . S
C1393 C1391 1.419 . S
C1393 C1394 1.362 . S
C1394 H1386 0.930 . S
C1394 C1393 1.362 . S
C1394 C1397 1.409 . S
C1395 H1387 0.930 . S
C1395 C1396 1.355 . S
C1395 C1397 1.415 . S
C1396 C1395 1.355 . S
C1396 C1398 1.419 . S
C1397 C1392 1.425 . S
C1397 C1394 1.409 . S
C1397 C1395 1.415 . S
C1398 H1388 0.930 . S
C1398 C1396 1.419 . S
C1398 C1399 1.362 . S
C1399 H1389 0.930 . S
C1399 C1392 1.409 . S
C1399 C1398 1.362 . S
H1400 C1406 0.930 . S
H1401 C1409 0.930 . S
H1402 C1410 0.930 . S
H1403 C1411 0.930 . S
H1404 C1414 0.930 . S
H1405 C1415 0.930 . S
C1406 H1400 0.930 . S
C1406 C1407 1.355 . S
C1406 C1408 1.415 . S
C1407 C1406 1.355 . S
C1407 C1409 1.419 . S
C1408 C1406 1.415 . S
C1408 C1413 1.425 . S
C1408 C1415 1.409 . S
C1409 H1401 0.930 . S
C1409 C1407 1.419 . S
C1409 C1410 1.362 . S
C1410 H1402 0.930 . S
C1410 C1409 1.362 . S
C1410 C1413 1.409 . S
C1411 H1403 0.930 . S
C1411 C1412 1.355 . S
C1411 C1413 1.415 . S
C1412 C1411 1.355 . S
C1412 C1414 1.419 . S
C1413 C1408 1.425 . S
C1413 C1410 1.409 . S
C1413 C1411 1.415 . S
C1414 H1404 0.930 . S
C1414 C1412 1.419 . S
C1414 C1415 1.362 . S
C1415 H1405 0.930 . S
C1415 C1408 1.409 . S
C1415 C1414 1.362 . S
H1416 C1422 0.930 . S
H1417 C1425 0.930 . S
H1418 C1426 0.930 . S
H1419 C1427 0.930 . S
H1420 C1430 0.930 . S
H1421 C1431 0.930 . S
C1422 H1416 0.930 . S
C1422 C1423 1.355 . S
C1422 C1424 1.415 . S
C1423 C1422 1.355 . S
C1423 C1425 1.419 . S
C1424 C1422 1.415 . S
C1424 C1429 1.425 . S
C1424 C1431 1.409 . S
C1425 H1417 0.930 . S
C1425 C1423 1.419 . S
C1425 C1426 1.362 . S
C1426 H1418 0.930 . S
C1426 C1425 1.362 . S
C1426 C1429 1.409 . S
C1427 H1419 0.930 . S
C1427 C1428 1.355 . S
C1427 C1429 1.415 . S
C1428 C1427 1.355 . S
C1428 C1430 1.419 . S
C1429 C1424 1.425 . S
C1429 C1426 1.409 . S
C1429 C1427 1.415 . S
C1430 H1420 0.930 . S
C1430 C1428 1.419 . S
C1430 C1431 1.362 . S
C1431 H1421 0.930 . S
C1431 C1424 1.409 . S
C1431 C1430 1.362 . S
H1432 C1438 0.930 . S
H1433 C1441 0.930 . S
H1434 C1442 0.930 . S
H1435 C1443 0.930 . S
H1436 C1446 0.930 . S
H1437 C1447 0.930 . S
C1438 H1432 0.930 . S
C1438 C1439 1.355 . S
C1438 C1440 1.415 . S
C1439 C1438 1.355 . S
C1439 C1441 1.419 1_455 S
C1440 C1438 1.415 . S
C1440 C1445 1.425 . S
C1440 C1447 1.409 . S
C1441 H1433 0.930 . S
C1441 C1439 1.419 1_655 S
C1441 C1442 1.362 . S
C1442 H1434 0.930 . S
C1442 C1441 1.362 . S
C1442 C1445 1.409 1_655 S
C1443 H1435 0.930 . S
C1443 C1444 1.355 1_655 S
C1443 C1445 1.415 1_655 S
C1444 C1443 1.355 1_455 S
C1444 C1446 1.419 . S
C1445 C1440 1.425 . S
C1445 C1442 1.409 1_455 S
C1445 C1443 1.415 1_455 S
C1446 H1436 0.930 . S
C1446 C1444 1.419 . S
C1446 C1447 1.362 . S
C1447 H1437 0.930 . S
C1447 C1440 1.409 . S
C1447 C1446 1.362 . S
H1448 C1454 0.930 . S
H1449 C1457 0.930 . S
H1450 C1458 0.930 . S
H1451 C1459 0.930 . S
H1452 C1462 0.930 . S
H1453 C1463 0.930 . S
C1454 H1448 0.930 . S
C1454 C1455 1.355 . S
C1454 C1456 1.415 . S
C1455 C1454 1.355 . S
C1455 C1457 1.419 . S
C1456 C1454 1.415 . S
C1456 C1461 1.425 . S
C1456 C1463 1.409 . S
C1457 H1449 0.930 . S
C1457 C1455 1.419 . S
C1457 C1458 1.362 . S
C1458 H1450 0.930 . S
C1458 C1457 1.362 . S
C1458 C1461 1.409 . S
C1459 H1451 0.930 . S
C1459 C1460 1.355 . S
C1459 C1461 1.415 . S
C1460 C1459 1.355 . S
C1460 C1462 1.419 . S
C1461 C1456 1.425 . S
C1461 C1458 1.409 . S
C1461 C1459 1.415 . S
C1462 H1452 0.930 . S
C1462 C1460 1.419 . S
C1462 C1463 1.362 . S
C1463 H1453 0.930 . S
C1463 C1456 1.409 . S
C1463 C1462 1.362 . S
H1464 C1470 0.930 . S
H1465 C1473 0.930 . S
H1466 C1474 0.930 . S
H1467 C1475 0.930 . S
H1468 C1478 0.930 . S
H1469 C1479 0.930 . S
C1470 H1464 0.930 . S
C1470 C1471 1.355 . S
C1470 C1472 1.415 . S
C1471 C1470 1.355 . S
C1471 C1473 1.419 . S
C1472 C1470 1.415 . S
C1472 C1477 1.425 . S
C1472 C1479 1.409 . S
C1473 H1465 0.930 . S
C1473 C1471 1.419 . S
C1473 C1474 1.362 . S
C1474 H1466 0.930 . S
C1474 C1473 1.362 . S
C1474 C1477 1.409 . S
C1475 H1467 0.930 . S
C1475 C1476 1.355 . S
C1475 C1477 1.415 . S
C1476 C1475 1.355 . S
C1476 C1478 1.419 . S
C1477 C1472 1.425 . S
C1477 C1474 1.409 . S
C1477 C1475 1.415 . S
C1478 H1468 0.930 . S
C1478 C1476 1.419 . S
C1478 C1479 1.362 . S
C1479 H1469 0.930 . S
C1479 C1472 1.409 . S
C1479 C1478 1.362 . S
H1480 C1486 0.930 . S
H1481 C1489 0.930 . S
H1482 C1490 0.930 . S
H1483 C1491 0.930 . S
H1484 C1494 0.930 . S
H1485 C1495 0.930 . S
C1486 H1480 0.930 . S
C1486 C1487 1.355 . S
C1486 C1488 1.415 . S
C1487 C1486 1.355 . S
C1487 C1489 1.419 . S
C1488 C1486 1.415 . S
C1488 C1493 1.425 . S
C1488 C1495 1.409 . S
C1489 H1481 0.930 . S
C1489 C1487 1.419 . S
C1489 C1490 1.362 . S
C1490 H1482 0.930 . S
C1490 C1489 1.362 . S
C1490 C1493 1.409 . S
C1491 H1483 0.930 . S
C1491 C1492 1.355 . S
C1491 C1493 1.415 . S
C1492 C1491 1.355 . S
C1492 C1494 1.419 . S
C1493 C1488 1.425 . S
C1493 C1490 1.409 . S
C1493 C1491 1.415 . S
C1494 H1484 0.930 . S
C1494 C1492 1.419 . S
C1494 C1495 1.362 . S
C1495 H1485 0.930 . S
C1495 C1488 1.409 . S
C1495 C1494 1.362 . S
H1496 C1502 0.930 . S
H1497 C1505 0.930 . S
H1498 C1506 0.930 . S
H1499 C1507 0.930 . S
H1500 C1510 0.930 . S
H1501 C1511 0.930 . S
C1502 H1496 0.930 . S
C1502 C1503 1.355 . S
C1502 C1504 1.415 . S
C1503 C1502 1.355 . S
C1503 C1505 1.419 1_655 S
C1504 C1502 1.415 . S
C1504 C1509 1.425 1_655 S
C1504 C1511 1.409 . S
C1505 H1497 0.930 . S
C1505 C1503 1.419 1_455 S
C1505 C1506 1.362 . S
C1506 H1498 0.930 . S
C1506 C1505 1.362 . S
C1506 C1509 1.409 . S
C1507 H1499 0.930 . S
C1507 C1508 1.355 1_455 S
C1507 C1509 1.415 . S
C1508 C1507 1.355 1_655 S
C1508 C1510 1.419 . S
C1509 C1504 1.425 1_455 S
C1509 C1506 1.409 . S
C1509 C1507 1.415 . S
C1510 H1500 0.930 . S
C1510 C1508 1.419 . S
C1510 C1511 1.362 . S
C1511 H1501 0.930 . S
C1511 C1504 1.409 . S
C1511 C1510 1.362 . S
H1512 C1518 0.930 . S
H1513 C1521 0.930 . S
H1514 C1522 0.930 . S
H1515 C1523 0.930 . S
H1516 C1526 0.930 . S
H1517 C1527 0.930 . S
C1518 H1512 0.930 . S
C1518 C1519 1.355 . S
C1518 C1520 1.415 . S
C1519 C1518 1.355 . S
C1519 C1521 1.419 . S
C1520 C1518 1.415 . S
C1520 C1525 1.425 . S
C1520 C1527 1.409 . S
C1521 H1513 0.930 . S
C1521 C1519 1.419 . S
C1521 C1522 1.362 . S
C1522 H1514 0.930 . S
C1522 C1521 1.362 . S
C1522 C1525 1.409 . S
C1523 H1515 0.930 . S
C1523 C1524 1.355 . S
C1523 C1525 1.415 . S
C1524 C1523 1.355 . S
C1524 C1526 1.419 . S
C1525 C1520 1.425 . S
C1525 C1522 1.409 . S
C1525 C1523 1.415 . S
C1526 H1516 0.930 . S
C1526 C1524 1.419 . S
C1526 C1527 1.362 . S
C1527 H1517 0.930 . S
C1527 C1520 1.409 . S
C1527 C1526 1.362 . S
H1528 C1534 0.930 . S
H1529 C1537 0.930 . S
H1530 C1538 0.930 . S
H1531 C1539 0.930 . S
H1532 C1542 0.930 . S
H1533 C1543 0.930 . S
C1534 H1528 0.930 . S
C1534 C1535 1.355 . S
C1534 C1536 1.415 . S
C1535 C1534 1.355 . S
C1535 C1537 1.419 . S
C1536 C1534 1.415 . S
C1536 C1541 1.425 . S
C1536 C1543 1.409 . S
C1537 H1529 0.930 . S
C1537 C1535 1.419 . S
C1537 C1538 1.362 . S
C1538 H1530 0.930 . S
C1538 C1537 1.362 . S
C1538 C1541 1.409 . S
C1539 H1531 0.930 . S
C1539 C1540 1.355 . S
C1539 C1541 1.415 . S
C1540 C1539 1.355 . S
C1540 C1542 1.419 . S
C1541 C1536 1.425 . S
C1541 C1538 1.409 . S
C1541 C1539 1.415 . S
C1542 H1532 0.930 . S
C1542 C1540 1.419 . S
C1542 C1543 1.362 . S
C1543 H1533 0.930 . S
C1543 C1536 1.409 . S
C1543 C1542 1.362 . S
H1544 C1550 0.930 . S
H1545 C1553 0.930 . S
H1546 C1554 0.930 . S
H1547 C1555 0.930 . S
H1548 C1558 0.930 . S
H1549 C1559 0.930 . S
C1550 H1544 0.930 . S
C1550 C1551 1.355 . S
C1550 C1552 1.415 . S
C1551 C1550 1.355 . S
C1551 C1553 1.419 . S
C1552 C1550 1.415 . S
C1552 C1557 1.425 . S
C1552 C1559 1.409 . S
C1553 H1545 0.930 . S
C1553 C1551 1.419 . S
C1553 C1554 1.362 . S
C1554 H1546 0.930 . S
C1554 C1553 1.362 . S
C1554 C1557 1.409 . S
C1555 H1547 0.930 . S
C1555 C1556 1.355 . S
C1555 C1557 1.415 . S
C1556 C1555 1.355 . S
C1556 C1558 1.419 . S
C1557 C1552 1.425 . S
C1557 C1554 1.409 . S
C1557 C1555 1.415 . S
C1558 H1548 0.930 . S
C1558 C1556 1.419 . S
C1558 C1559 1.362 . S
C1559 H1549 0.930 . S
C1559 C1552 1.409 . S
C1559 C1558 1.362 . S
H1560 C1566 0.930 . S
H1561 C1569 0.930 . S
H1562 C1570 0.930 . S
H1563 C1571 0.930 . S
H1564 C1574 0.930 . S
H1565 C1575 0.930 . S
C1566 H1560 0.930 . S
C1566 C1567 1.355 . S
C1566 C1568 1.415 . S
C1567 C1566 1.355 . S
C1567 C1569 1.419 . S
C1568 C1566 1.415 . S
C1568 C1573 1.425 . S
C1568 C1575 1.409 . S
C1569 H1561 0.930 . S
C1569 C1567 1.419 . S
C1569 C1570 1.362 . S
C1570 H1562 0.930 . S
C1570 C1569 1.362 . S
C1570 C1573 1.409 . S
C1571 H1563 0.930 . S
C1571 C1572 1.355 . S
C1571 C1573 1.415 . S
C1572 C1571 1.355 . S
C1572 C1574 1.419 . S
C1573 C1568 1.425 . S
C1573 C1570 1.409 . S
C1573 C1571 1.415 . S
C1574 H1564 0.930 . S
C1574 C1572 1.419 . S
C1574 C1575 1.362 . S
C1575 H1565 0.930 . S
C1575 C1568 1.409 . S
C1575 C1574 1.362 . S
H1576 C1582 0.930 . S
H1577 C1585 0.930 . S
H1578 C1586 0.930 . S
H1579 C1587 0.930 . S
H1580 C1590 0.930 . S
H1581 C1591 0.930 . S
C1582 H1576 0.930 . S
C1582 C1583 1.355 . S
C1582 C1584 1.415 . S
C1583 C1582 1.355 . S
C1583 C1585 1.419 . S
C1584 C1582 1.415 . S
C1584 C1589 1.425 . S
C1584 C1591 1.409 . S
C1585 H1577 0.930 . S
C1585 C1583 1.419 . S
C1585 C1586 1.362 . S
C1586 H1578 0.930 . S
C1586 C1585 1.362 . S
C1586 C1589 1.409 . S
C1587 H1579 0.930 . S
C1587 C1588 1.355 . S
C1587 C1589 1.415 . S
C1588 C1587 1.355 . S
C1588 C1590 1.419 . S
C1589 C1584 1.425 . S
C1589 C1586 1.409 . S
C1589 C1587 1.415 . S
C1590 H1580 0.930 . S
C1590 C1588 1.419 . S
C1590 C1591 1.362 . S
C1591 H1581 0.930 . S
C1591 C1584 1.409 . S
C1591 C1590 1.362 . S
H1592 C1598 0.930 . S
H1593 C1601 0.930 . S
H1594 C1602 0.930 . S
H1595 C1603 0.930 . S
H1596 C1606 0.930 . S
H1597 C1607 0.930 . S
C1598 H1592 0.930 . S
C1598 C1599 1.355 . S
C1598 C1600 1.415 . S
C1599 C1598 1.355 . S
C1599 C1601 1.419 . S
C1600 C1598 1.415 . S
C1600 C1605 1.425 . S
C1600 C1607 1.409 . S
C1601 H1593 0.930 . S
C1601 C1599 1.419 . S
C1601 C1602 1.362 . S
C1602 H1594 0.930 . S
C1602 C1601 1.362 . S
C1602 C1605 1.409 . S
C1603 H1595 0.930 . S
C1603 C1604 1.355 . S
C1603 C1605 1.415 . S
C1604 C1603 1.355 . S
C1604 C1606 1.419 . S
C1605 C1600 1.425 . S
C1605 C1602 1.409 . S
C1605 C1603 1.415 . S
C1606 H1596 0.930 . S
C1606 C1604 1.419 . S
C1606 C1607 1.362 . S
C1607 H1597 0.930 . S
C1607 C1600 1.409 . S
C1607 C1606 1.362 . S
H1608 C1614 0.930 . S
H1609 C1617 0.930 . S
H1610 C1618 0.930 . S
H1611 C1619 0.930 . S
H1612 C1622 0.930 . S
H1613 C1623 0.930 . S
C1614 H1608 0.930 . S
C1614 C1615 1.355 . S
C1614 C1616 1.415 . S
C1615 C1614 1.355 . S
C1615 C1617 1.419 . S
C1616 C1614 1.415 . S
C1616 C1621 1.425 . S
C1616 C1623 1.409 . S
C1617 H1609 0.930 . S
C1617 C1615 1.419 . S
C1617 C1618 1.362 . S
C1618 H1610 0.930 . S
C1618 C1617 1.362 . S
C1618 C1621 1.409 . S
C1619 H1611 0.930 . S
C1619 C1620 1.355 . S
C1619 C1621 1.415 . S
C1620 C1619 1.355 . S
C1620 C1622 1.419 . S
C1621 C1616 1.425 . S
C1621 C1618 1.409 . S
C1621 C1619 1.415 . S
C1622 H1612 0.930 . S
C1622 C1620 1.419 . S
C1622 C1623 1.362 . S
C1623 H1613 0.930 . S
C1623 C1616 1.409 . S
C1623 C1622 1.362 . S
H1624 C1630 0.930 . S
H1625 C1633 0.930 . S
H1626 C1634 0.930 . S
H1627 C1635 0.930 . S
H1628 C1638 0.930 . S
H1629 C1639 0.930 . S
C1630 H1624 0.930 . S
C1630 C1631 1.355 . S
C1630 C1632 1.415 . S
C1631 C1630 1.355 . S
C1631 C1633 1.419 . S
C1632 C1630 1.415 . S
C1632 C1637 1.425 . S
C1632 C1639 1.409 . S
C1633 H1625 0.930 . S
C1633 C1631 1.419 . S
C1633 C1634 1.362 . S
C1634 H1626 0.930 . S
C1634 C1633 1.362 . S
C1634 C1637 1.409 . S
C1635 H1627 0.930 . S
C1635 C1636 1.355 . S
C1635 C1637 1.415 . S
C1636 C1635 1.355 . S
C1636 C1638 1.419 . S
C1637 C1632 1.425 . S
C1637 C1634 1.409 . S
C1637 C1635 1.415 . S
C1638 H1628 0.930 . S
C1638 C1636 1.419 . S
C1638 C1639 1.362 . S
C1639 H1629 0.930 . S
C1639 C1632 1.409 . S
C1639 C1638 1.362 . S
H1640 C1646 0.930 . S
H1641 C1649 0.930 . S
H1642 C1650 0.930 . S
H1643 C1651 0.930 . S
H1644 C1654 0.930 . S
H1645 C1655 0.930 . S
C1646 H1640 0.930 . S
C1646 C1647 1.355 . S
C1646 C1648 1.415 . S
C1647 C1646 1.355 . S
C1647 C1649 1.419 . S
C1648 C1646 1.415 . S
C1648 C1653 1.425 . S
C1648 C1655 1.409 . S
C1649 H1641 0.930 . S
C1649 C1647 1.419 . S
C1649 C1650 1.362 . S
C1650 H1642 0.930 . S
C1650 C1649 1.362 . S
C1650 C1653 1.409 . S
C1651 H1643 0.930 . S
C1651 C1652 1.355 . S
C1651 C1653 1.415 . S
C1652 C1651 1.355 . S
C1652 C1654 1.419 . S
C1653 C1648 1.425 . S
C1653 C1650 1.409 . S
C1653 C1651 1.415 . S
C1654 H1644 0.930 . S
C1654 C1652 1.419 . S
C1654 C1655 1.362 . S
C1655 H1645 0.930 . S
C1655 C1648 1.409 . S
C1655 C1654 1.362 . S
H1656 C1662 0.930 . S
H1657 C1665 0.930 . S
H1658 C1666 0.930 . S
H1659 C1667 0.930 . S
H1660 C1670 0.930 . S
H1661 C1671 0.930 . S
C1662 H1656 0.930 . S
C1662 C1663 1.355 . S
C1662 C1664 1.415 . S
C1663 C1662 1.355 . S
C1663 C1665 1.419 . S
C1664 C1662 1.415 . S
C1664 C1669 1.425 . S
C1664 C1671 1.409 . S
C1665 H1657 0.930 . S
C1665 C1663 1.419 . S
C1665 C1666 1.362 . S
C1666 H1658 0.930 . S
C1666 C1665 1.362 . S
C1666 C1669 1.409 . S
C1667 H1659 0.930 . S
C1667 C1668 1.355 . S
C1667 C1669 1.415 . S
C1668 C1667 1.355 . S
C1668 C1670 1.419 . S
C1669 C1664 1.425 . S
C1669 C1666 1.409 . S
C1669 C1667 1.415 . S
C1670 H1660 0.930 . S
C1670 C1668 1.419 . S
C1670 C1671 1.362 . S
C1671 H1661 0.930 . S
C1671 C1664 1.409 . S
C1671 C1670 1.362 . S
H1672 C1678 0.930 . S
H1673 C1681 0.930 . S
H1674 C1682 0.930 . S
H1675 C1683 0.930 . S
H1676 C1686 0.930 . S
H1677 C1687 0.930 . S
C1678 H1672 0.930 . S
C1678 C1679 1.355 . S
C1678 C1680 1.415 . S
C1679 C1678 1.355 . S
C1679 C1681 1.419 . S
C1680 C1678 1.415 . S
C1680 C1685 1.425 . S
C1680 C1687 1.409 . S
C1681 H1673 0.930 . S
C1681 C1679 1.419 . S
C1681 C1682 1.362 . S
C1682 H1674 0.930 . S
C1682 C1681 1.362 . S
C1682 C1685 1.409 . S
C1683 H1675 0.930 . S
C1683 C1684 1.355 . S
C1683 C1685 1.415 . S
C1684 C1683 1.355 . S
C1684 C1686 1.419 . S
C1685 C1680 1.425 . S
C1685 C1682 1.409 . S
C1685 C1683 1.415 . S
C1686 H1676 0.930 . S
C1686 C1684 1.419 . S
C1686 C1687 1.362 . S
C1687 H1677 0.930 . S
C1687 C1680 1.409 . S
C1687 C1686 1.362 . S
H1688 C1694 0.930 . S
H1689 C1697 0.930 . S
H1690 C1698 0.930 . S
H1691 C1699 0.930 . S
H1692 C1702 0.930 . S
H1693 C1703 0.930 . S
C1694 H1688 0.930 . S
C1694 C1695 1.355 . S
C1694 C1696 1.415 . S
C1695 C1694 1.355 . S
C1695 C1697 1.419 . S
C1696 C1694 1.415 . S
C1696 C1701 1.425 . S
C1696 C1703 1.409 . S
C1697 H1689 0.930 . S
C1697 C1695 1.419 . S
C1697 C1698 1.362 . S
C1698 H1690 0.930 . S
C1698 C1697 1.362 . S
C1698 C1701 1.409 . S
C1699 H1691 0.930 . S
C1699 C1700 1.355 . S
C1699 C1701 1.415 . S
C1700 C1699 1.355 . S
C1700 C1702 1.419 . S
C1701 C1696 1.425 . S
C1701 C1698 1.409 . S
C1701 C1699 1.415 . S
C1702 H1692 0.930 . S
C1702 C1700 1.419 . S
C1702 C1703 1.362 . S
C1703 H1693 0.930 . S
C1703 C1696 1.409 . S
C1703 C1702 1.362 . S
H1704 C1710 0.930 . S
H1705 C1713 0.930 . S
H1706 C1714 0.930 . S
H1707 C1715 0.930 . S
H1708 C1718 0.930 . S
H1709 C1719 0.930 . S
C1710 H1704 0.930 . S
C1710 C1711 1.355 . S
C1710 C1712 1.415 . S
C1711 C1710 1.355 . S
C1711 C1713 1.419 . S
C1712 C1710 1.415 . S
C1712 C1717 1.425 . S
C1712 C1719 1.409 1_565 S
C1713 H1705 0.930 . S
C1713 C1711 1.419 . S
C1713 C1714 1.362 . S
C1714 H1706 0.930 . S
C1714 C1713 1.362 . S
C1714 C1717 1.409 . S
C1715 H1707 0.930 . S
C1715 C1716 1.355 . S
C1715 C1717 1.415 . S
C1716 C1715 1.355 . S
C1716 C1718 1.419 1_565 S
C1717 C1712 1.425 . S
C1717 C1714 1.409 . S
C1717 C1715 1.415 . S
C1718 H1708 0.930 . S
C1718 C1716 1.419 1_545 S
C1718 C1719 1.362 . S
C1719 H1709 0.930 . S
C1719 C1712 1.409 1_545 S
C1719 C1718 1.362 . S
H1720 C1726 0.930 . S
H1721 C1729 0.930 . S
H1722 C1730 0.930 . S
H1723 C1731 0.930 . S
H1724 C1734 0.930 . S
H1725 C1735 0.930 . S
C1726 H1720 0.930 . S
C1726 C1727 1.355 . S
C1726 C1728 1.415 . S
C1727 C1726 1.355 . S
C1727 C1729 1.419 . S
C1728 C1726 1.415 . S
C1728 C1733 1.425 . S
C1728 C1735 1.409 . S
C1729 H1721 0.930 . S
C1729 C1727 1.419 . S
C1729 C1730 1.362 . S
C1730 H1722 0.930 . S
C1730 C1729 1.362 . S
C1730 C1733 1.409 . S
C1731 H1723 0.930 . S
C1731 C1732 1.355 . S
C1731 C1733 1.415 . S
C1732 C1731 1.355 . S
C1732 C1734 1.419 . S
C1733 C1728 1.425 . S
C1733 C1730 1.409 . S
C1733 C1731 1.415 . S
C1734 H1724 0.930 . S
C1734 C1732 1.419 . S
C1734 C1735 1.362 . S
C1735 H1725 0.930 . S
C1735 C1728 1.409 . S
C1735 C1734 1.362 . S
H1736 C1742 0.930 . S
H1737 C1745 0.928 1_556 S
H1738 C1746 0.930 . S
H1739 C1747 0.930 . S
H1740 C1750 0.930 . S
H1741 C1751 0.930 . S
C1742 H1736 0.930 . S
C1742 C1743 1.358 . S
C1742 C1744 1.415 . S
C1743 C1742 1.358 . S
C1743 C1745 1.427 . S
C1744 C1742 1.415 . S
C1744 C1749 1.425 . S
C1744 C1751 1.409 . S
C1745 H1737 0.928 1_554 S
C1745 C1743 1.427 . S
C1745 C1746 1.362 . S
C1746 H1738 0.930 . S
C1746 C1745 1.362 . S
C1746 C1749 1.409 . S
C1747 H1739 0.930 . S
C1747 C1748 1.355 . S
C1747 C1749 1.415 . S
C1748 C1747 1.355 . S
C1748 C1750 1.419 . S
C1749 C1744 1.425 . S
C1749 C1746 1.409 . S
C1749 C1747 1.415 . S
C1750 H1740 0.930 . S
C1750 C1748 1.419 . S
C1750 C1751 1.362 . S
C1751 H1741 0.930 . S
C1751 C1744 1.409 . S
C1751 C1750 1.362 . S
H1752 C1758 0.930 . S
H1753 C1761 0.930 . S
H1754 C1762 0.930 . S
H1755 C1763 0.930 . S
H1756 C1766 0.930 . S
H1757 C1767 0.930 . S
C1758 H1752 0.930 . S
C1758 C1759 1.355 . S
C1758 C1760 1.415 . S
C1759 C1758 1.355 . S
C1759 C1761 1.419 . S
C1760 C1758 1.415 . S
C1760 C1765 1.425 . S
C1760 C1767 1.409 . S
C1761 H1753 0.930 . S
C1761 C1759 1.419 . S
C1761 C1762 1.362 . S
C1762 H1754 0.930 . S
C1762 C1761 1.362 . S
C1762 C1765 1.409 . S
C1763 H1755 0.930 . S
C1763 C1764 1.355 . S
C1763 C1765 1.415 . S
C1764 C1763 1.355 . S
C1764 C1766 1.419 . S
C1765 C1760 1.425 . S
C1765 C1762 1.409 . S
C1765 C1763 1.415 . S
C1766 H1756 0.930 . S
C1766 C1764 1.419 . S
C1766 C1767 1.362 . S
C1767 H1757 0.930 . S
C1767 C1760 1.409 . S
C1767 C1766 1.362 . S
H1768 C1774 0.930 . S
H1769 C1777 0.930 . S
H1770 C1778 0.930 . S
H1771 C1779 0.930 . S
H1772 C1782 0.930 . S
H1773 C1783 0.930 . S
C1774 H1768 0.930 . S
C1774 C1775 1.355 . S
C1774 C1776 1.415 . S
C1775 C1774 1.355 . S
C1775 C1777 1.419 . S
C1776 C1774 1.415 . S
C1776 C1781 1.425 . S
C1776 C1783 1.409 . S
C1777 H1769 0.930 . S
C1777 C1775 1.419 . S
C1777 C1778 1.362 . S
C1778 H1770 0.930 . S
C1778 C1777 1.362 . S
C1778 C1781 1.409 . S
C1779 H1771 0.930 . S
C1779 C1780 1.355 . S
C1779 C1781 1.415 . S
C1780 C1779 1.355 . S
C1780 C1782 1.419 . S
C1781 C1776 1.425 . S
C1781 C1778 1.409 . S
C1781 C1779 1.415 . S
C1782 H1772 0.930 . S
C1782 C1780 1.419 . S
C1782 C1783 1.362 . S
C1783 H1773 0.930 . S
C1783 C1776 1.409 . S
C1783 C1782 1.362 . S
H1784 C1790 0.930 . S
H1785 C1793 0.930 . S
H1786 C1794 0.930 . S
H1787 C1795 0.930 . S
H1788 C1798 0.930 . S
H1789 C1799 0.930 . S
C1790 H1784 0.930 . S
C1790 C1791 1.355 . S
C1790 C1792 1.415 . S
C1791 C1790 1.355 . S
C1791 C1793 1.419 . S
C1792 C1790 1.415 . S
C1792 C1797 1.425 . S
C1792 C1799 1.409 . S
C1793 H1785 0.930 . S
C1793 C1791 1.419 . S
C1793 C1794 1.362 . S
C1794 H1786 0.930 . S
C1794 C1793 1.362 . S
C1794 C1797 1.409 . S
C1795 H1787 0.930 . S
C1795 C1796 1.355 . S
C1795 C1797 1.415 . S
C1796 C1795 1.355 . S
C1796 C1798 1.419 . S
C1797 C1792 1.425 . S
C1797 C1794 1.409 . S
C1797 C1795 1.415 . S
C1798 H1788 0.930 . S
C1798 C1796 1.419 . S
C1798 C1799 1.362 . S
C1799 H1789 0.930 . S
C1799 C1792 1.409 . S
C1799 C1798 1.362 . S
H1800 C1806 0.930 . S
H1801 C1809 0.930 . S
H1802 C1810 0.930 . S
H1803 C1811 0.930 . S
H1804 C1814 0.930 . S
H1805 C1815 0.930 . S
C1806 H1800 0.930 . S
C1806 C1807 1.355 . S
C1806 C1808 1.415 . S
C1807 C1806 1.355 . S
C1807 C1809 1.419 . S
C1808 C1806 1.415 . S
C1808 C1813 1.425 . S
C1808 C1815 1.409 . S
C1809 H1801 0.930 . S
C1809 C1807 1.419 . S
C1809 C1810 1.362 . S
C1810 H1802 0.930 . S
C1810 C1809 1.362 . S
C1810 C1813 1.409 . S
C1811 H1803 0.930 . S
C1811 C1812 1.355 . S
C1811 C1813 1.415 . S
C1812 C1811 1.355 . S
C1812 C1814 1.419 . S
C1813 C1808 1.425 . S
C1813 C1810 1.409 . S
C1813 C1811 1.415 . S
C1814 H1804 0.930 . S
C1814 C1812 1.419 . S
C1814 C1815 1.362 . S
C1815 H1805 0.930 . S
C1815 C1808 1.409 . S
C1815 C1814 1.362 . S
H1816 C1822 0.930 . S
H1817 C1825 0.930 . S
H1818 C1826 0.930 . S
H1819 C1827 0.930 . S
H1820 C1830 0.930 . S
H1821 C1831 0.930 . S
C1822 H1816 0.930 . S
C1822 C1823 1.355 . S
C1822 C1824 1.415 . S
C1823 C1822 1.355 . S
C1823 C1825 1.419 1_455 S
C1824 C1822 1.415 . S
C1824 C1829 1.425 . S
C1824 C1831 1.409 . S
C1825 H1817 0.930 . S
C1825 C1823 1.419 1_655 S
C1825 C1826 1.362 . S
C1826 H1818 0.930 . S
C1826 C1825 1.362 . S
C1826 C1829 1.409 1_655 S
C1827 H1819 0.930 . S
C1827 C1828 1.355 . S
C1827 C1829 1.415 . S
C1828 C1827 1.355 . S
C1828 C1830 1.419 . S
C1829 C1824 1.425 . S
C1829 C1826 1.409 1_455 S
C1829 C1827 1.415 . S
C1830 H1820 0.930 . S
C1830 C1828 1.419 . S
C1830 C1831 1.362 . S
C1831 H1821 0.930 . S
C1831 C1824 1.409 . S
C1831 C1830 1.362 . S
H1832 C1838 0.930 . S
H1833 C1841 0.930 . S
H1834 C1842 0.930 . S
H1835 C1843 0.930 . S
H1836 C1846 0.930 . S
H1837 C1847 0.930 . S
C1838 H1832 0.930 . S
C1838 C1839 1.355 . S
C1838 C1840 1.415 . S
C1839 C1838 1.355 . S
C1839 C1841 1.419 . S
C1840 C1838 1.415 . S
C1840 C1845 1.425 . S
C1840 C1847 1.409 . S
C1841 H1833 0.930 . S
C1841 C1839 1.419 . S
C1841 C1842 1.362 . S
C1842 H1834 0.930 . S
C1842 C1841 1.362 . S
C1842 C1845 1.409 . S
C1843 H1835 0.930 . S
C1843 C1844 1.355 . S
C1843 C1845 1.415 . S
C1844 C1843 1.355 . S
C1844 C1846 1.419 . S
C1845 C1840 1.425 . S
C1845 C1842 1.409 . S
C1845 C1843 1.415 . S
C1846 H1836 0.930 . S
C1846 C1844 1.419 . S
C1846 C1847 1.362 . S
C1847 H1837 0.930 . S
C1847 C1840 1.409 . S
C1847 C1846 1.362 . S
H1848 C1854 0.930 . S
H1849 C1857 0.930 . S
H1850 C1858 0.930 1_554 S
H1851 C1859 0.930 1_554 S
H1852 C1862 0.930 . S
H1853 C1863 0.930 . S
C1854 H1848 0.930 . S
C1854 C1855 1.355 . S
C1854 C1856 1.415 . S
C1855 C1854 1.355 . S
C1855 C1857 1.419 . S
C1856 C1854 1.415 . S
C1856 C1861 1.425 . S
C1856 C1863 1.409 . S
C1857 H1849 0.930 . S
C1857 C1855 1.419 . S
C1857 C1858 1.362 . S
C1858 H1850 0.930 1_556 S
C1858 C1857 1.362 . S
C1858 C1861 1.409 . S
C1859 H1851 0.930 1_556 S
C1859 C1860 1.355 . S
C1859 C1861 1.415 . S
C1860 C1859 1.355 . S
C1860 C1862 1.419 . S
C1861 C1856 1.425 . S
C1861 C1858 1.409 . S
C1861 C1859 1.415 . S
C1862 H1852 0.930 . S
C1862 C1860 1.419 . S
C1862 C1863 1.362 . S
C1863 H1853 0.930 . S
C1863 C1856 1.409 . S
C1863 C1862 1.362 . S
H1864 C1870 0.930 . S
H1865 C1873 0.930 . S
H1866 C1874 0.930 . S
H1867 C1875 0.930 . S
H1868 C1878 0.930 . S
H1869 C1879 0.930 . S
C1870 H1864 0.930 . S
C1870 C1871 1.355 . S
C1870 C1872 1.415 . S
C1871 C1870 1.355 . S
C1871 C1873 1.419 . S
C1872 C1870 1.415 . S
C1872 C1877 1.425 . S
C1872 C1879 1.409 . S
C1873 H1865 0.930 . S
C1873 C1871 1.419 . S
C1873 C1874 1.362 . S
C1874 H1866 0.930 . S
C1874 C1873 1.362 . S
C1874 C1877 1.409 . S
C1875 H1867 0.930 . S
C1875 C1876 1.355 . S
C1875 C1877 1.415 . S
C1876 C1875 1.355 . S
C1876 C1878 1.419 . S
C1877 C1872 1.425 . S
C1877 C1874 1.409 . S
C1877 C1875 1.415 . S
C1878 H1868 0.930 . S
C1878 C1876 1.419 . S
C1878 C1879 1.362 . S
C1879 H1869 0.930 . S
C1879 C1872 1.409 . S
C1879 C1878 1.362 . S
H1880 C1886 0.927 1_655 S
H1881 C1889 0.930 . S
H1882 C1890 0.930 . S
H1883 C1891 0.930 . S
H1884 C1894 0.947 . S
H1885 C1895 0.930 . S
C1886 H1880 0.927 1_455 S
C1886 C1887 1.355 . S
C1886 C1888 1.415 . S
C1887 C1886 1.355 . S
C1887 C1889 1.419 . S
C1888 C1886 1.415 . S
C1888 C1893 1.425 . S
C1888 C1895 1.409 1_455 S
C1889 H1881 0.930 . S
C1889 C1887 1.419 . S
C1889 C1890 1.362 . S
C1890 H1882 0.930 . S
C1890 C1889 1.362 . S
C1890 C1893 1.409 . S
C1891 H1883 0.930 . S
C1891 C1892 1.355 . S
C1891 C1893 1.415 . S
C1892 C1891 1.355 . S
C1892 C1894 1.406 1_455 S
C1893 C1888 1.425 . S
C1893 C1890 1.409 . S
C1893 C1891 1.415 . S
C1894 H1884 0.947 . S
C1894 C1892 1.406 1_655 S
C1894 C1895 1.360 . S
C1895 H1885 0.930 . S
C1895 C1888 1.409 1_655 S
C1895 C1894 1.360 . S
H1896 C1902 0.930 . S
H1897 C1905 0.930 . S
H1898 C1906 0.930 . S
H1899 C1907 0.930 . S
H1900 C1910 0.930 . S
H1901 C1911 0.930 . S
C1902 H1896 0.930 . S
C1902 C1903 1.355 . S
C1902 C1904 1.415 . S
C1903 C1902 1.355 . S
C1903 C1905 1.419 . S
C1904 C1902 1.415 . S
C1904 C1909 1.425 . S
C1904 C1911 1.409 . S
C1905 H1897 0.930 . S
C1905 C1903 1.419 . S
C1905 C1906 1.362 . S
C1906 H1898 0.930 . S
C1906 C1905 1.362 . S
C1906 C1909 1.409 . S
C1907 H1899 0.930 . S
C1907 C1908 1.355 . S
C1907 C1909 1.415 . S
C1908 C1907 1.355 . S
C1908 C1910 1.419 . S
C1909 C1904 1.425 . S
C1909 C1906 1.409 . S
C1909 C1907 1.415 . S
C1910 H1900 0.930 . S
C1910 C1908 1.419 . S
C1910 C1911 1.362 . S
C1911 H1901 0.930 . S
C1911 C1904 1.409 . S
C1911 C1910 1.362 . S
H1912 C1918 0.930 . S
H1913 C1921 0.930 . S
H1914 C1922 0.930 . S
H1915 C1923 0.930 . S
H1916 C1926 0.930 . S
H1917 C1927 0.930 . S
C1918 H1912 0.930 . S
C1918 C1919 1.355 . S
C1918 C1920 1.415 . S
C1919 C1918 1.355 . S
C1919 C1921 1.419 . S
C1920 C1918 1.415 . S
C1920 C1925 1.425 . S
C1920 C1927 1.409 . S
C1921 H1913 0.930 . S
C1921 C1919 1.419 . S
C1921 C1922 1.362 . S
C1922 H1914 0.930 . S
C1922 C1921 1.362 . S
C1922 C1925 1.409 . S
C1923 H1915 0.930 . S
C1923 C1924 1.355 . S
C1923 C1925 1.415 . S
C1924 C1923 1.355 . S
C1924 C1926 1.419 . S
C1925 C1920 1.425 . S
C1925 C1922 1.409 . S
C1925 C1923 1.415 . S
C1926 H1916 0.930 . S
C1926 C1924 1.419 . S
C1926 C1927 1.362 . S
C1927 H1917 0.930 . S
C1927 C1920 1.409 . S
C1927 C1926 1.362 . S
H1928 C1934 0.930 . S
H1929 C1937 0.930 . S
H1930 C1938 0.930 . S
H1931 C1939 0.930 . S
H1932 C1942 0.930 . S
H1933 C1943 0.930 . S
C1934 H1928 0.930 . S
C1934 C1935 1.355 . S
C1934 C1936 1.415 . S
C1935 C1934 1.355 . S
C1935 C1937 1.419 . S
C1936 C1934 1.415 . S
C1936 C1941 1.425 . S
C1936 C1943 1.409 . S
C1937 H1929 0.930 . S
C1937 C1935 1.419 . S
C1937 C1938 1.362 . S
C1938 H1930 0.930 . S
C1938 C1937 1.362 . S
C1938 C1941 1.409 . S
C1939 H1931 0.930 . S
C1939 C1940 1.355 . S
C1939 C1941 1.415 . S
C1940 C1939 1.355 . S
C1940 C1942 1.419 . S
C1941 C1936 1.425 . S
C1941 C1938 1.409 . S
C1941 C1939 1.415 . S
C1942 H1932 0.930 . S
C1942 C1940 1.419 . S
C1942 C1943 1.362 . S
C1943 H1933 0.930 . S
C1943 C1936 1.409 . S
C1943 C1942 1.362 . S
H1944 C1950 0.930 . S
H1945 C1953 0.930 . S
H1946 C1954 0.930 . S
H1947 C1955 0.930 . S
H1948 C1958 0.930 . S
H1949 C1959 0.930 . S
C1950 H1944 0.930 . S
C1950 C1951 1.355 . S
C1950 C1952 1.415 . S
C1951 C1950 1.355 . S
C1951 C1953 1.419 . S
C1952 C1950 1.415 . S
C1952 C1957 1.425 . S
C1952 C1959 1.409 . S
C1953 H1945 0.930 . S
C1953 C1951 1.419 . S
C1953 C1954 1.362 . S
C1954 H1946 0.930 . S
C1954 C1953 1.362 . S
C1954 C1957 1.409 . S
C1955 H1947 0.930 . S
C1955 C1956 1.355 . S
C1955 C1957 1.415 . S
C1956 C1955 1.355 . S
C1956 C1958 1.419 . S
C1957 C1952 1.425 . S
C1957 C1954 1.409 . S
C1957 C1955 1.415 . S
C1958 H1948 0.930 . S
C1958 C1956 1.419 . S
C1958 C1959 1.362 . S
C1959 H1949 0.930 . S
C1959 C1952 1.409 . S
C1959 C1958 1.362 . S
H1960 C1966 0.930 . S
H1961 C1969 0.930 . S
H1962 C1970 0.930 . S
H1963 C1971 0.930 . S
H1964 C1974 0.930 . S
H1965 C1975 0.930 . S
C1966 H1960 0.930 . S
C1966 C1967 1.355 . S
C1966 C1968 1.415 . S
C1967 C1966 1.355 . S
C1967 C1969 1.419 . S
C1968 C1966 1.415 . S
C1968 C1973 1.425 . S
C1968 C1975 1.409 . S
C1969 H1961 0.930 . S
C1969 C1967 1.419 . S
C1969 C1970 1.362 . S
C1970 H1962 0.930 . S
C1970 C1969 1.362 . S
C1970 C1973 1.409 . S
C1971 H1963 0.930 . S
C1971 C1972 1.355 . S
C1971 C1973 1.415 . S
C1972 C1971 1.355 . S
C1972 C1974 1.419 . S
C1973 C1968 1.425 . S
C1973 C1970 1.409 . S
C1973 C1971 1.415 . S
C1974 H1964 0.930 . S
C1974 C1972 1.419 . S
C1974 C1975 1.362 . S
C1975 H1965 0.930 . S
C1975 C1968 1.409 . S
C1975 C1974 1.362 . S
H1976 C1982 0.930 . S
H1977 C1985 0.930 . S
H1978 C1986 0.930 . S
H1979 C1987 0.930 . S
H1980 C1990 0.930 . S
H1981 C1991 0.930 . S
C1982 H1976 0.930 . S
C1982 C1983 1.355 . S
C1982 C1984 1.415 . S
C1983 C1982 1.355 . S
C1983 C1985 1.419 . S
C1984 C1982 1.415 . S
C1984 C1989 1.425 . S
C1984 C1991 1.409 . S
C1985 H1977 0.930 . S
C1985 C1983 1.419 . S
C1985 C1986 1.362 . S
C1986 H1978 0.930 . S
C1986 C1985 1.362 . S
C1986 C1989 1.409 . S
C1987 H1979 0.930 . S
C1987 C1988 1.355 . S
C1987 C1989 1.415 . S
C1988 C1987 1.355 . S
C1988 C1990 1.419 . S
C1989 C1984 1.425 . S
C1989 C1986 1.409 . S
C1989 C1987 1.415 . S
C1990 H1980 0.930 . S
C1990 C1988 1.419 . S
C1990 C1991 1.362 . S
C1991 H1981 0.930 . S
C1991 C1984 1.409 . S
C1991 C1990 1.362 . S
H1992 C1998 0.930 . S
H1993 C2001 0.930 . S
H1994 C2002 0.930 . S
H1995 C2003 0.930 . S
H1996 C2006 0.930 . S
H1997 C2007 0.930 . S
C1998 H1992 0.930 . S
C1998 C1999 1.355 . S
C1998 C2000 1.415 . S
C1999 C1998 1.355 . S
C1999 C2001 1.419 . S
C2000 C1998 1.415 . S
C2000 C2005 1.425 . S
C2000 C2007 1.409 . S
C2001 H1993 0.930 . S
C2001 C1999 1.419 . S
C2001 C2002 1.362 . S
C2002 H1994 0.930 . S
C2002 C2001 1.362 . S
C2002 C2005 1.409 . S
C2003 H1995 0.930 . S
C2003 C2004 1.355 . S
C2003 C2005 1.415 . S
C2004 C2003 1.355 . S
C2004 C2006 1.419 . S
C2005 C2000 1.425 . S
C2005 C2002 1.409 . S
C2005 C2003 1.415 . S
C2006 H1996 0.930 . S
C2006 C2004 1.419 . S
C2006 C2007 1.362 . S
C2007 H1997 0.930 . S
C2007 C2000 1.409 . S
C2007 C2006 1.362 . S
H2008 C2014 0.930 . S
H2009 C2017 0.930 . S
H2010 C2018 0.930 . S
H2011 C2019 0.930 1_455 S
H2012 C2022 0.930 . S
H2013 C2023 0.930 . S
C2014 H2008 0.930 . S
C2014 C2015 1.355 . S
C2014 C2016 1.415 . S
C2015 C2014 1.355 . S
C2015 C2017 1.419 . S
C2016 C2014 1.415 . S
C2016 C2021 1.425 . S
C2016 C2023 1.409 . S
C2017 H2009 0.930 . S
C2017 C2015 1.419 . S
C2017 C2018 1.362 . S
C2018 H2010 0.930 . S
C2018 C2017 1.362 . S
C2018 C2021 1.409 . S
C2019 H2011 0.930 1_655 S
C2019 C2020 1.355 . S
C2019 C2021 1.415 . S
C2020 C2019 1.355 . S
C2020 C2022 1.419 . S
C2021 C2016 1.425 . S
C2021 C2018 1.409 . S
C2021 C2019 1.415 . S
C2022 H2012 0.930 . S
C2022 C2020 1.419 . S
C2022 C2023 1.362 . S
C2023 H2013 0.930 . S
C2023 C2016 1.409 . S
C2023 C2022 1.362 . S
H2024 C2030 0.930 . S
H2025 C2033 0.930 . S
H2026 C2034 0.930 . S
H2027 C2035 0.930 . S
H2028 C2038 0.930 . S
H2029 C2039 0.930 . S
C2030 H2024 0.930 . S
C2030 C2031 1.355 . S
C2030 C2032 1.415 . S
C2031 C2030 1.355 . S
C2031 C2033 1.419 . S
C2032 C2030 1.415 . S
C2032 C2037 1.425 . S
C2032 C2039 1.409 . S
C2033 H2025 0.930 . S
C2033 C2031 1.419 . S
C2033 C2034 1.362 . S
C2034 H2026 0.930 . S
C2034 C2033 1.362 . S
C2034 C2037 1.409 . S
C2035 H2027 0.930 . S
C2035 C2036 1.355 . S
C2035 C2037 1.415 . S
C2036 C2035 1.355 . S
C2036 C2038 1.419 . S
C2037 C2032 1.425 . S
C2037 C2034 1.409 . S
C2037 C2035 1.415 . S
C2038 H2028 0.930 . S
C2038 C2036 1.419 . S
C2038 C2039 1.362 . S
C2039 H2029 0.930 . S
C2039 C2032 1.409 . S
C2039 C2038 1.362 . S
H2040 C2046 0.930 . S
H2041 C2049 0.930 . S
H2042 C2050 0.930 . S
H2043 C2051 0.930 . S
H2044 C2054 0.930 . S
H2045 C2055 0.930 . S
C2046 H2040 0.930 . S
C2046 C2047 1.355 . S
C2046 C2048 1.415 . S
C2047 C2046 1.355 . S
C2047 C2049 1.419 . S
C2048 C2046 1.415 . S
C2048 C2053 1.425 . S
C2048 C2055 1.409 . S
C2049 H2041 0.930 . S
C2049 C2047 1.419 . S
C2049 C2050 1.362 . S
C2050 H2042 0.930 . S
C2050 C2049 1.362 . S
C2050 C2053 1.409 . S
C2051 H2043 0.930 . S
C2051 C2052 1.355 . S
C2051 C2053 1.415 . S
C2052 C2051 1.355 . S
C2052 C2054 1.419 . S
C2053 C2048 1.425 . S
C2053 C2050 1.409 . S
C2053 C2051 1.415 . S
C2054 H2044 0.930 . S
C2054 C2052 1.419 . S
C2054 C2055 1.362 . S
C2055 H2045 0.930 . S
C2055 C2048 1.409 . S
C2055 C2054 1.362 . S
H2056 C2062 0.930 . S
H2057 C2065 0.930 . S
H2058 C2066 0.930 . S
H2059 C2067 0.930 . S
H2060 C2070 0.930 . S
H2061 C2071 0.930 . S
C2062 H2056 0.930 . S
C2062 C2063 1.355 . S
C2062 C2064 1.415 . S
C2063 C2062 1.355 . S
C2063 C2065 1.419 . S
C2064 C2062 1.415 . S
C2064 C2069 1.425 . S
C2064 C2071 1.409 1_565 S
C2065 H2057 0.930 . S
C2065 C2063 1.419 . S
C2065 C2066 1.362 . S
C2066 H2058 0.930 . S
C2066 C2065 1.362 . S
C2066 C2069 1.409 . S
C2067 H2059 0.930 . S
C2067 C2068 1.355 . S
C2067 C2069 1.415 . S
C2068 C2067 1.355 . S
C2068 C2070 1.419 1_565 S
C2069 C2064 1.425 . S
C2069 C2066 1.409 . S
C2069 C2067 1.415 . S
C2070 H2060 0.930 . S
C2070 C2068 1.419 1_545 S
C2070 C2071 1.362 . S
C2071 H2061 0.930 . S
C2071 C2064 1.409 1_545 S
C2071 C2070 1.362 . S
H2072 C2078 0.930 . S
H2073 C2081 0.930 . S
H2074 C2082 0.930 . S
H2075 C2083 0.930 . S
H2076 C2086 0.930 . S
H2077 C2087 0.930 . S
C2078 H2072 0.930 . S
C2078 C2079 1.355 . S
C2078 C2080 1.415 . S
C2079 C2078 1.355 . S
C2079 C2081 1.419 . S
C2080 C2078 1.415 . S
C2080 C2085 1.425 . S
C2080 C2087 1.409 . S
C2081 H2073 0.930 . S
C2081 C2079 1.419 . S
C2081 C2082 1.362 . S
C2082 H2074 0.930 . S
C2082 C2081 1.362 . S
C2082 C2085 1.409 . S
C2083 H2075 0.930 . S
C2083 C2084 1.355 . S
C2083 C2085 1.415 . S
C2084 C2083 1.355 . S
C2084 C2086 1.419 . S
C2085 C2080 1.425 . S
C2085 C2082 1.409 . S
C2085 C2083 1.415 . S
C2086 H2076 0.930 . S
C2086 C2084 1.419 . S
C2086 C2087 1.362 . S
C2087 H2077 0.930 . S
C2087 C2080 1.409 . S
C2087 C2086 1.362 . S
H2088 C2094 0.931 . S
H2089 C2097 0.930 . S
H2090 C2098 0.931 . S
H2091 C2099 0.930 . S
H2092 C2102 0.930 . S
H2093 C2103 0.930 . S
C2094 H2088 0.931 . S
C2094 C2095 1.361 . S
C2094 C2096 1.408 1_556 S
C2095 C2094 1.361 . S
C2095 C2097 1.419 . S
C2096 C2094 1.408 1_554 S
C2096 C2101 1.425 . S
C2096 C2103 1.409 . S
C2097 H2089 0.930 . S
C2097 C2095 1.419 . S
C2097 C2098 1.369 . S
C2098 H2090 0.931 . S
C2098 C2097 1.369 . S
C2098 C2101 1.403 1_556 S
C2099 H2091 0.930 . S
C2099 C2100 1.355 . S
C2099 C2101 1.415 . S
C2100 C2099 1.355 . S
C2100 C2102 1.419 . S
C2101 C2096 1.425 . S
C2101 C2098 1.403 1_554 S
C2101 C2099 1.415 . S
C2102 H2092 0.930 . S
C2102 C2100 1.419 . S
C2102 C2103 1.362 . S
C2103 H2093 0.930 . S
C2103 C2096 1.409 . S
C2103 C2102 1.362 . S
H2104 C2110 0.930 . S
H2105 C2113 0.930 . S
H2106 C2114 0.930 . S
H2107 C2115 0.930 . S
H2108 C2118 0.930 . S
H2109 C2119 0.930 . S
C2110 H2104 0.930 . S
C2110 C2111 1.355 . S
C2110 C2112 1.415 . S
C2111 C2110 1.355 . S
C2111 C2113 1.419 . S
C2112 C2110 1.415 . S
C2112 C2117 1.425 . S
C2112 C2119 1.409 . S
C2113 H2105 0.930 . S
C2113 C2111 1.419 . S
C2113 C2114 1.362 . S
C2114 H2106 0.930 . S
C2114 C2113 1.362 . S
C2114 C2117 1.409 . S
C2115 H2107 0.930 . S
C2115 C2116 1.355 . S
C2115 C2117 1.415 . S
C2116 C2115 1.355 . S
C2116 C2118 1.419 . S
C2117 C2112 1.425 . S
C2117 C2114 1.409 . S
C2117 C2115 1.415 . S
C2118 H2108 0.930 . S
C2118 C2116 1.419 . S
C2118 C2119 1.362 . S
C2119 H2109 0.930 . S
C2119 C2112 1.409 . S
C2119 C2118 1.362 . S
H2120 C2126 0.930 . S
H2121 C2129 0.930 1_556 S
H2122 C2130 0.930 . S
H2123 C2131 0.930 . S
H2124 C2134 0.930 . S
H2125 C2135 0.930 . S
C2126 H2120 0.930 . S
C2126 C2127 1.355 . S
C2126 C2128 1.415 . S
C2127 C2126 1.355 . S
C2127 C2129 1.419 . S
C2128 C2126 1.415 . S
C2128 C2133 1.425 1_554 S
C2128 C2135 1.409 . S
C2129 H2121 0.930 1_554 S
C2129 C2127 1.419 . S
C2129 C2130 1.362 1_554 S
C2130 H2122 0.930 . S
C2130 C2129 1.362 1_556 S
C2130 C2133 1.409 . S
C2131 H2123 0.930 . S
C2131 C2132 1.355 . S
C2131 C2133 1.415 . S
C2132 C2131 1.355 . S
C2132 C2134 1.419 1_556 S
C2133 C2128 1.425 1_556 S
C2133 C2130 1.409 . S
C2133 C2131 1.415 . S
C2134 H2124 0.930 . S
C2134 C2132 1.419 1_554 S
C2134 C2135 1.362 . S
C2135 H2125 0.930 . S
C2135 C2128 1.409 . S
C2135 C2134 1.362 . S
H2136 C2142 0.930 . S
H2137 C2145 0.930 . S
H2138 C2146 0.930 . S
H2139 C2147 0.930 . S
H2140 C2150 0.930 . S
H2141 C2151 0.930 . S
C2142 H2136 0.930 . S
C2142 C2143 1.355 . S
C2142 C2144 1.415 . S
C2143 C2142 1.355 . S
C2143 C2145 1.419 . S
C2144 C2142 1.415 . S
C2144 C2149 1.425 . S
C2144 C2151 1.409 . S
C2145 H2137 0.930 . S
C2145 C2143 1.419 . S
C2145 C2146 1.362 . S
C2146 H2138 0.930 . S
C2146 C2145 1.362 . S
C2146 C2149 1.409 . S
C2147 H2139 0.930 . S
C2147 C2148 1.355 . S
C2147 C2149 1.415 . S
C2148 C2147 1.355 . S
C2148 C2150 1.419 . S
C2149 C2144 1.425 . S
C2149 C2146 1.409 . S
C2149 C2147 1.415 . S
C2150 H2140 0.930 . S
C2150 C2148 1.419 . S
C2150 C2151 1.362 . S
C2151 H2141 0.930 . S
C2151 C2144 1.409 . S
C2151 C2150 1.362 . S
H2152 C2158 0.930 . S
H2153 C2161 0.930 . S
H2154 C2162 0.930 . S
H2155 C2163 0.930 . S
H2156 C2166 0.930 . S
H2157 C2167 0.930 . S
C2158 H2152 0.930 . S
C2158 C2159 1.355 . S
C2158 C2160 1.415 . S
C2159 C2158 1.355 . S
C2159 C2161 1.419 . S
C2160 C2158 1.415 . S
C2160 C2165 1.425 . S
C2160 C2167 1.409 . S
C2161 H2153 0.930 . S
C2161 C2159 1.419 . S
C2161 C2162 1.362 . S
C2162 H2154 0.930 . S
C2162 C2161 1.362 . S
C2162 C2165 1.409 . S
C2163 H2155 0.930 . S
C2163 C2164 1.355 . S
C2163 C2165 1.415 . S
C2164 C2163 1.355 . S
C2164 C2166 1.419 . S
C2165 C2160 1.425 . S
C2165 C2162 1.409 . S
C2165 C2163 1.415 . S
C2166 H2156 0.930 . S
C2166 C2164 1.419 . S
C2166 C2167 1.362 . S
C2167 H2157 0.930 . S
C2167 C2160 1.409 . S
C2167 C2166 1.362 . S
C639 C101 1.296 . S
C644 C328 1.263 . S
C655 C57 1.338 . S
C660 C341 1.331 . S
C671 C73 1.421 . S
C676 C360 1.397 . S
C692 C391 1.823 . S
C687 C78 1.834 . S
C703 C21 1.747 . S
C708 C411 1.748 . S
C724 C428 0.936 . S
C719 C31 0.980 . S
C740 C441 1.485 . S
C735 C49 1.482 . S
C751 C0 0.967 . S
C756 C468 1.049 . S
C772 C321 1.218 . S
C767 C218 1.268 . S
C783 C229 1.400 . S
C788 C351 1.468 . S
C804 C353 1.677 . S
C799 C257 1.730 . S
C820 C388 0.920 . S
C815 C164 0.948 . S
C831 C216 1.093 . S
C836 C408 1.204 . S
C852 C421 1.735 . S
C847 C231 1.758 . S
C868 C451 1.295 . S
C863 C255 1.312 . S
C884 C461 1.170 . S
C879 C166 1.228 . S
C900 C331 1.578 1_565 S
C895 C143 1.555 . S
C911 C265 1.717 . S
C916 C481 1.757 . S
C932 C511 1.572 . S
C927 C299 1.540 . S
C948 C528 1.228 . S
C943 C291 1.272 . S
C959 C104 1.793 . S
C964 C471 1.763 . S
C975 C117 1.201 . S
C980 C358 1.194 . S
C991 C304 1.730 . S
C996 C541 1.750 . S
C1012 C568 0.965 . S
C1007 C278 1.031 . S
C1028 C318 1.179 . S
C1023 C60 1.230 . S
C1044 C553 1.278 . S
C1039 C96 1.262 . S
C1055 C88 1.382 . S
C1060 C371 1.331 . S
C1071 C65 1.794 . S
C1076 C540 1.804 . S
C1092 C400 1.629 . S
C1087 C10 1.703 . S
C1103 C44 0.900 . S
C1108 C498 0.895 . S
C1124 C433 1.448 1_556 S
C1119 C34 1.368 . S
C1140 C578 0.943 . S
C1135 C13 0.968 . S
C1156 C313 1.229 . S
C1151 C138 1.149 . S
C1172 C560 1.390 . S
C1167 C296 1.439 . S
C1183 C112 1.558 . S
C1188 C361 1.629 . S
C1199 C270 0.854 . S
C1204 C538 0.902 . S
C1215 C140 1.079 1_545 S
C1220 C398 1.130 . S
C1236 C493 1.710 . S
C1231 C294 1.639 . S
C1247 C114 1.271 . S
C1252 C440 1.262 . S
C1263 C268 1.158 . S
C1268 C573 1.192 . S
C1279 C169 1.557 1_556 S
C1284 C320 1.545 . S
C1295 C161 1.650 . S
C1300 C473 1.689 . S
C1311 C234 1.532 . S
C1316 C420 1.515 . S
C1327 C226 1.192 . S
C1332 C518 1.167 . S
C1348 C580 1.754 . S
C1343 C247 1.716 . S
C1359 C195 1.224 . S
C1364 C368 1.191 1_565 S
C1380 C373 1.705 . S
C1375 C239 1.669 . S
C1396 C338 0.900 . S
C1391 C187 0.994 . S
C1407 C75 1.294 . S
C1412 C608 1.274 . S
C1428 C561 1.375 . S
C1423 C83 1.304 . S
C1439 C99 1.366 . S
C1444 C620 1.442 . S
C1455 C52 1.834 . S
C1460 C551 1.820 . S
C1471 C47 1.753 . S
C1476 C491 1.732 . S
C1492 C508 0.956 . S
C1487 C5 0.903 . S
C1508 C521 1.496 1_655 S
C1503 C23 1.475 . S
C1524 C588 0.952 . S
C1519 C26 1.040 . S
C1540 C601 1.237 . S
C1535 C244 1.266 . S
C1551 C177 1.411 . S
C1556 C571 1.479 . S
C1572 C613 1.699 . S
C1567 C192 1.738 . S
C1588 C548 0.922 . S
C1583 C203 0.969 . S
C1604 C488 1.198 . S
C1599 C242 1.109 . S
C1615 C179 1.755 . S
C1620 C501 1.734 . S
C1636 C531 1.325 . S
C1631 C190 1.339 . S
C1647 C205 1.238 . S
C1652 C581 1.181 . S
C1668 C611 1.590 . S
C1663 C286 1.568 . S
C1679 C122 1.729 . S
C1684 C401 1.750 . S
C1700 C431 1.572 . S
C1695 C130 1.546 . S
C1716 C448 1.258 1_565 S
C1711 C148 1.201 . S
C1732 C591 1.804 . S
C1727 C273 1.808 . S
C1743 C260 1.229 . S
C1748 C618 1.229 . S
C1764 C381 1.767 . S
C1759 C135 1.746 . S
C1780 C348 0.956 . S
C1775 C109 1.038 . S
C1791 C86 1.221 . S
C1796 C598 1.207 . S
C1812 C333 1.280 . S
C1807 C70 1.259 . S
C1823 C62 1.355 . S
C1828 C631 1.367 . S
C1839 C91 1.751 . S
C1844 C380 1.782 . S
C1855 C36 1.689 . S
C1860 C480 1.680 1_556 S
C1876 C418 0.914 . S
C1871 C18 0.882 . S
C1887 C8 1.436 . S
C1892 C513 1.435 . S
C1903 C39 0.973 . S
C1908 C458 0.924 . S
C1924 C593 1.193 . S
C1919 C307 1.201 . S
C1935 C153 1.430 . S
C1940 C340 1.415 . S
C1956 C621 1.597 1_655 S
C1951 C281 1.582 . S
C1967 C127 0.879 . S
C1972 C378 0.829 . S
C1983 C309 1.087 . S
C1988 C478 1.127 . S
C2004 C413 1.711 . S
C1999 C151 1.635 . S
C2015 C283 1.270 . S
C2020 C520 1.280 . S
C2036 C453 1.119 . S
C2031 C125 1.180 . S
C2052 C600 1.502 . S
C2047 C221 1.527 . S
C2068 C393 1.689 1_565 S
C2063 C200 1.651 . S
C2079 C208 1.534 . S
C2084 C500 1.504 . S
C2100 C438 1.186 . S
C2095 C174 1.142 1_556 S
C2111 C182 1.749 . S
C2116 C460 1.774 . S
C2127 C156 1.207 . S
C2132 C628 1.127 . S
C2148 C533 1.695 . S
C2143 C213 1.681 1_565 S
C2164 C558 0.986 . S
C2159 C252 0.957 . S
