# Generated by pormake.
# Topology pts, (4,4)-cn, num edge types: 1
# Building blocks:
#     Node 0, Type 0, BuildingBlock: ESEHIV_clean_sbu_0, # of connection points: 4
#     Node 1, Type 0, BuildingBlock: ESEHIV_clean_sbu_0, # of connection points: 4
#     Node 2, Type 1, BuildingBlock: UXUYUI_clean_sbu_0, # of connection points: 4
#     Node 3, Type 1, BuildingBlock: UXUYUI_clean_sbu_0, # of connection points: 4
#     Edge 4, Type (0, 1), BuildingBlock: AJUNOK_clean_linker_0, # of connection points: 2
#     Edge 5, Type (0, 1), BuildingBlock: AJUNOK_clean_linker_0, # of connection points: 2
#     Edge 6, Type (0, 1), BuildingBlock: AJUNOK_clean_linker_0, # of connection points: 2
#     Edge 7, Type (0, 1), BuildingBlock: AJUNOK_clean_linker_0, # of connection points: 2
#     Edge 8, Type (0, 1), BuildingBlock: AJUNOK_clean_linker_0, # of connection points: 2
#     Edge 9, Type (0, 1), BuildingBlock: AJUNOK_clean_linker_0, # of connection points: 2
#     Edge 10, Type (0, 1), BuildingBlock: AJUNOK_clean_linker_0, # of connection points: 2
#     Edge 11, Type (0, 1), BuildingBlock: AJUNOK_clean_linker_0, # of connection points: 2
# Relax obj value: 0.002
# Max RMSD: 0.096
# Mean RMSD: 0.064
data_MOF--net-pts--node1-ESEHIV_clean_sbu_0--node2-UXUYUI_clean_sbu_0--edge1-AJUNOK_clean_linker_0
_symmetry_space_group_name_H-M    P1
_symmetry_Int_Tables_number       1
_symmetry_cell_setting            triclinic
loop_
_symmetry_equiv_pos_as_xyz
'x, y, z'
_cell_length_a     24.097573
_cell_length_b     24.145288
_cell_length_c     35.796948
_cell_angle_alpha  93.597692
_cell_angle_beta   93.492563
_cell_angle_gamma 90.012436
loop_
_atom_site_label
_atom_site_type_symbol
_atom_site_fract_x
_atom_site_fract_y
_atom_site_fract_z
_atom_type_partial_charge
Cu0 Cu 0.56217 0.04155 0.02916 0.0
N1 N 0.60648 1.00097 0.99606 0.0
N2 N 0.67679 0.98847 0.95855 0.0
C3 C 0.65108 0.024 0.98224 0.0
C4 C 0.64686 0.94105 0.95695 0.0
C5 C 0.60361 0.94869 0.9805 0.0
O6 O 0.61606 0.07988 0.06461 0.0
C7 C 0.48194 0.05381 0.97495 0.0
O8 O 0.49034 1.00004 0.97424 0.0
H9 H 0.6637 0.06669 0.98892 0.0
H10 H 0.57208 0.91861 0.98545 0.0
N11 N 0.5161 1.00026 0.05709 0.0
N12 N 0.44702 0.98721 0.09461 0.0
C13 C 0.47566 0.02425 0.07664 0.0
C14 C 0.51339 0.94582 0.06286 0.0
C15 C 0.47064 0.93762 0.08611 0.0
C16 C 0.64882 0.04499 0.0797 0.0
O17 O 0.63935 0.9918 0.07192 0.0
H18 H 0.46703 0.06829 0.07727 0.0
H19 H 0.54068 0.91449 0.05133 0.0
O20 O 0.51118 0.08517 0.99852 0.0
H21 H 0.65574 0.90366 0.9401 0.0
H22 H 0.45878 0.89847 0.09651 0.0
Cu23 Cu 0.10834 0.5848 0.53091 0.0
N24 N 0.14876 0.53392 0.55871 0.0
N25 N 0.16045 0.46064 0.59345 0.0
C26 C 0.12439 0.49003 0.5724 0.0
C27 C 0.20966 0.48733 0.59326 0.0
C28 C 0.20243 0.53244 0.57148 0.0
O29 O 0.06387 0.53874 0.4936 0.0
C30 C 0.09883 0.65656 0.59159 0.0
O31 O 0.15171 0.64333 0.59419 0.0
H32 H 0.08032 0.48124 0.56817 0.0
H33 H 0.23359 0.56281 0.56634 0.0
N34 N 0.15079 0.63468 0.50664 0.0
N35 N 0.16534 0.70918 0.47456 0.0
C36 C 0.12854 0.6808 0.49286 0.0
C37 C 0.20391 0.63376 0.49689 0.0
C38 C 0.21283 0.6796 0.47665 0.0
C39 C 0.08891 0.52074 0.46492 0.0
O40 O 0.13979 0.53784 0.46103 0.0
H41 H 0.08531 0.69207 0.49499 0.0
H42 H 0.23336 0.60123 0.50286 0.0
O43 O 0.06759 0.63261 0.56538 0.0
H44 H 0.24783 0.47545 0.60814 0.0
H45 H 0.25087 0.69001 0.46403 0.0
Li46 Li 0.05975 0.14608 0.305 0.0
Li47 Li 0.06384 0.04099 0.30877 0.0
Li48 Li 0.10979 0.08883 0.25772 0.0
Li49 Li 1.00985 0.08521 0.25818 0.0
C50 C 0.17087 0.12404 0.32983 0.0
N51 N 0.26136 0.18034 0.36484 0.0
C52 C 0.18975 0.11217 0.36613 0.0
C53 C 0.1982 0.16414 0.3112 0.0
C54 C 0.23552 0.1412 0.3834 0.0
C55 C 0.24382 0.19226 0.32941 0.0
C56 C 0.94288 0.09233 0.31225 0.0
C57 C 0.85538 0.04312 0.3059 0.0
N58 N 0.82808 0.09237 0.30506 0.0
C59 C 0.91399 0.14246 0.31143 0.0
C60 C 0.91342 0.04222 0.30953 0.0
C61 C 0.85593 0.1416 0.30774 0.0
C62 C 0.03017 0.25811 0.31821 0.0
N63 N 0.0565 0.21486 0.33415 0.0
C64 C 0.07505 0.27009 0.39139 0.0
C65 C 0.07787 0.21956 0.37026 0.0
C66 C 0.04979 0.31602 0.3752 0.0
C67 C 0.02638 0.30933 0.3383 0.0
H68 H 1.01216 0.2528 0.28979 0.0
H69 H 0.09728 0.18416 0.38262 0.0
C70 C 0.13093 0.96309 0.34236 0.0
N71 N 0.07769 0.98178 0.34082 0.0
C72 C 0.14673 0.92017 0.36508 0.0
C73 C 0.05237 0.91584 0.38402 0.0
C74 C 0.03846 0.95933 0.36112 0.0
C75 C 0.1073 0.89594 0.38641 0.0
H76 H 0.16127 0.98185 0.32594 0.0
H77 H 0.99646 0.97503 0.35956 0.0
C78 C 0.07149 0.18564 0.22455 0.0
N79 N 0.10306 0.25787 0.17274 0.0
C80 C 0.05543 0.17552 0.18655 0.0
C81 C 0.10305 0.23288 0.23625 0.0
C82 C 0.072 0.21242 0.16078 0.0
C83 C 0.11872 0.2688 0.20962 0.0
C84 C 0.05143 0.98921 0.22211 0.0
C85 C 0.05905 1.01054 0.1874 0.0
C86 C 0.03358 0.9344 0.22369 0.0
C87 C 0.0481 0.97673 0.15467 0.0
C88 C 0.02301 0.9019 0.19032 0.0
N89 N 0.0304 0.92358 0.15679 0.0
C90 C 0.19596 0.02575 0.23093 0.0
C91 C 0.19518 0.1145 0.20625 0.0
C92 C 0.24073 1.00937 0.20988 0.0
N93 N 0.1737 0.07727 0.22853 0.0
C94 C 0.24016 0.09987 0.18473 0.0
C95 C 0.26302 0.0464 0.18602 0.0
H96 H 0.17839 0.99704 0.24906 0.0
H97 H 0.17746 0.15534 0.20481 0.0
C98 C 0.92231 0.1299 0.21336 0.0
N99 N 0.94274 0.08167 0.2263 0.0
C100 C 0.87417 0.12971 0.18944 0.0
C101 C 0.86804 0.03043 0.19358 0.0
C102 C 0.9163 0.03252 0.21725 0.0
C103 C 0.84661 0.07938 0.17905 0.0
H104 H 0.94371 0.16859 0.2214 0.0
H105 H 0.93245 0.99494 0.22858 0.0
O106 O 0.12588 0.09635 0.31267 0.0
O107 O 0.99973 0.09229 0.31458 0.0
O108 O 0.05523 0.15026 0.25025 0.0
O109 O 0.0617 1.02159 0.2545 0.0
H110 H 0.16902 0.0811 0.38086 0.0
H111 H 0.18446 0.17331 0.28297 0.0
H112 H 0.25048 0.13265 0.41155 0.0
H113 H 0.26533 0.22351 0.31535 0.0
H114 H 0.83205 1.00465 0.30346 0.0
H115 H 0.93616 0.18157 0.31325 0.0
H116 H 0.93516 1.00303 0.30934 0.0
H117 H 0.83303 0.18007 0.30688 0.0
H118 H 0.09364 0.27361 0.41976 0.0
H119 H 1.00564 0.34344 0.32506 0.0
H120 H 0.18954 0.9064 0.36618 0.0
H121 H 1.02028 0.89757 0.39928 0.0
H122 H 0.03022 0.13973 0.17702 0.0
H123 H 0.11549 0.24169 0.26556 0.0
H124 H 0.06001 0.20499 0.13127 0.0
H125 H 0.14333 0.30536 0.21826 0.0
H126 H 0.07345 0.05263 0.18577 0.0
H127 H 0.02767 0.9173 0.25042 0.0
H128 H 0.05373 0.99272 0.12759 0.0
H129 H 1.00893 0.85947 0.19107 0.0
H130 H 0.2579 0.96824 0.21239 0.0
H131 H 0.25627 0.12972 0.16675 0.0
H132 H 0.85949 0.16826 0.17855 0.0
H133 H 0.84763 0.99081 0.18666 0.0
Li134 Li 1.01562 0.08218 0.80313 0.0
Li135 Li 0.11837 0.08206 0.8056 0.0
Li136 Li 0.06521 0.12951 0.75482 0.0
Li137 Li 0.06728 0.02785 0.75452 0.0
C138 C 0.04424 0.19097 0.82879 0.0
N139 N 0.99627 0.2804 0.8663 0.0
C140 C 0.05879 0.20363 0.86675 0.0
C141 C 1.00552 0.22386 0.80984 0.0
C142 C 0.034 0.249 0.88524 0.0
C143 C 0.98168 0.26888 0.82932 0.0
C144 C 0.09022 0.99263 0.83925 0.0
C145 C 0.15976 0.93257 0.86609 0.0
N146 N 0.13824 0.94178 0.90017 0.0
C147 C 0.06864 1.00138 0.8745 0.0
C148 C 0.13597 0.95778 0.83492 0.0
C149 C 0.09354 0.97529 0.90496 0.0
C150 C 0.93016 0.02168 0.82775 0.0
N151 N 0.95147 0.07403 0.83162 0.0
C152 C 0.88421 0.10083 0.8758 0.0
C153 C 0.92922 0.11368 0.85488 0.0
C154 C 0.86231 0.04658 0.87303 0.0
C155 C 0.88554 1.00699 0.84825 0.0
H156 H 0.94874 0.99091 0.80915 0.0
H157 H 0.94633 0.15509 0.85753 0.0
C158 C 0.23384 0.09329 0.82056 0.0
N159 N 0.18518 0.08899 0.83749 0.0
C160 C 0.28427 0.09748 0.8419 0.0
C161 C 0.23375 0.09484 0.89801 0.0
C162 C 0.18414 0.0911 0.87552 0.0
C163 C 0.28479 0.09746 0.88116 0.0
H164 H 0.23359 0.09309 0.79036 0.0
H165 H 0.14488 0.08908 0.88843 0.0
C166 C 0.96033 0.09903 0.72532 0.0
N167 N 0.87722 0.14472 0.68053 0.0
C168 C 0.96027 0.09111 0.68631 0.0
C169 C 0.91798 0.12988 0.74158 0.0
C170 C 0.91791 0.11464 0.66414 0.0
C171 C 0.87638 0.15273 0.71845 0.0
C172 C 0.15935 0.05346 0.72358 0.0
C173 C 0.15356 0.07053 0.68695 0.0
C174 C 0.19434 1.0091 0.73173 0.0
C175 C 0.18274 0.04261 0.65899 0.0
C176 C 0.22271 0.98219 0.70297 0.0
N177 N 0.21636 0.99936 0.6675 0.0
C178 C 0.12767 0.20848 0.72432 0.0
C179 C 0.03246 0.21885 0.70567 0.0
C180 C 0.14227 0.25179 0.70277 0.0
N181 N 0.07371 0.19223 0.72502 0.0
C182 C 0.04522 0.26271 0.68379 0.0
C183 C 0.1009 0.27921 0.68178 0.0
H184 H 0.15969 0.18707 0.74021 0.0
H185 H 0.9897 0.20649 0.7072 0.0
C186 C 0.06017 0.91166 0.74183 0.0
N187 N 0.06358 0.95955 0.72404 0.0
C188 C 0.05761 0.86048 0.72132 0.0
C189 C 0.06079 0.90866 0.66436 0.0
C190 C 0.06282 0.95899 0.68598 0.0
C191 C 0.05841 0.85844 0.68204 0.0
H192 H 0.05957 0.91314 0.77203 0.0
H193 H 0.06452 0.99754 0.67236 0.0
O194 O 0.06816 0.14679 0.8103 0.0
O195 O 0.0668 1.01819 0.80914 0.0
O196 O 1.00115 0.07595 0.74746 0.0
O197 O 0.13069 0.07983 0.7513 0.0
H198 H 0.08877 0.17859 0.88178 0.0
H199 H 0.99376 0.21458 0.78052 0.0
H200 H 0.04473 0.25922 0.91465 0.0
H201 H 0.95151 0.29461 0.81504 0.0
H202 H 0.19534 0.90567 0.86318 0.0
H203 H 0.03348 0.02849 0.87845 0.0
H204 H 0.15302 0.95041 0.80781 0.0
H205 H 0.07746 0.98188 0.93245 0.0
H206 H 0.86669 0.13303 0.89389 0.0
H207 H 0.87014 0.9647 0.8453 0.0
H208 H 0.32264 0.09978 0.82779 0.0
H209 H 0.23221 0.09369 0.92812 0.0
H210 H 0.99275 0.0674 0.67329 0.0
H211 H 0.91731 0.13631 0.77172 0.0
H212 H 0.91745 0.10906 0.6339 0.0
H213 H 0.84345 0.17686 0.73064 0.0
H214 H 0.12623 0.10441 0.68004 0.0
H215 H 0.19938 0.99549 0.75995 0.0
H216 H 0.17843 0.05516 0.63047 0.0
H217 H 0.24976 0.94766 0.70885 0.0
H218 H 0.18567 0.26311 0.70206 0.0
H219 H 1.01183 0.28375 0.66888 0.0
H220 H 0.05554 0.82279 0.73608 0.0
H221 H 0.06272 0.90908 0.63423 0.0
C222 C 0.4016 0.04983 0.14062 0.0
C223 C 0.40156 0.99973 0.11822 0.0
C224 C 0.35685 0.06447 0.16246 0.0
C225 C 0.31018 0.02957 0.16284 0.0
H226 H 0.43673 0.07792 0.1414 0.0
H227 H 0.35899 0.10329 0.17941 0.0
S228 S 0.28771 0.89552 0.10736 0.0
N229 N 0.34976 0.91629 0.09665 0.0
N230 N 0.26562 0.94365 0.13772 0.0
C231 C 0.30947 0.97939 0.14053 0.0
C232 C 0.35513 0.96448 0.11826 0.0
C233 C 0.1693 0.41004 0.65139 0.0
C234 C 0.14721 0.41379 0.61439 0.0
C235 C 0.15399 0.36655 0.67296 0.0
C236 C 0.11622 0.32499 0.65828 0.0
H237 H 0.1975 0.44175 0.66406 0.0
H238 H 0.17122 0.36599 0.7016 0.0
S239 S 0.05152 0.31281 0.56131 0.0
N240 N 0.08884 0.37038 0.56305 0.0
N241 N 0.06046 0.28837 0.60332 0.0
C242 C 0.09501 0.32757 0.62092 0.0
C243 C 0.11044 0.37197 0.59905 0.0
C244 C 0.74752 0.02774 0.09821 0.0
C245 C 0.70025 0.06123 0.10232 0.0
C246 C 0.79502 0.0354 0.12236 0.0
C247 C 0.79723 0.07663 0.15192 0.0
H248 H 0.74743 0.99433 0.07652 0.0
H249 H 0.83002 1.008 0.11823 0.0
S250 S 0.68525 0.17695 0.17384 0.0
N251 N 0.65915 0.13886 0.13695 0.0
N252 N 0.7485 0.15296 0.18314 0.0
C253 C 0.75107 0.11205 0.15548 0.0
C254 C 0.70255 0.10443 0.13048 0.0
C255 C 0.10912 0.71524 0.65104 0.0
C256 C 0.07993 0.70348 0.61621 0.0
C257 C 0.10016 0.76437 0.67262 0.0
C258 C 0.06184 0.80414 0.66019 0.0
H259 H 0.14073 0.68704 0.66123 0.0
H260 H 0.12539 0.77229 0.6985 0.0
S261 S 0.97134 0.79145 0.57233 0.0
N262 N 1.00871 0.73408 0.57114 0.0
N263 N 0.99133 0.82661 0.61196 0.0
C264 C 0.03048 0.79189 0.62614 0.0
C265 C 0.03947 0.74144 0.60416 0.0
C266 C 0.42609 0.04501 0.91457 0.0
C267 C 0.43707 0.07431 0.94945 0.0
C268 C 0.37802 0.05473 0.89216 0.0
C269 C 0.33846 0.09391 0.90377 0.0
H270 H 0.45399 1.01259 0.90508 0.0
H271 H 0.37055 0.02927 0.86632 0.0
S272 S 0.34979 0.18524 0.9913 0.0
N273 N 0.40648 0.14677 0.9936 0.0
N274 N 0.31558 0.16547 0.95126 0.0
C275 C 0.3501 0.12552 0.93782 0.0
C276 C 0.39965 0.11581 0.96063 0.0
C277 C 0.04281 0.42768 0.45483 0.0
C278 C 0.06733 0.47362 0.43989 0.0
C279 C 0.03525 0.37717 0.43332 0.0
C280 C 0.05116 0.37129 0.39603 0.0
H281 H 0.03287 0.42956 0.484 0.0
H282 H 1.01847 0.34198 0.4463 0.0
S283 S 0.11296 0.48091 0.34323 0.0
N284 N 0.10408 0.51124 0.38506 0.0
N285 N 0.08968 0.41681 0.34468 0.0
C286 C 0.07273 0.41798 0.38025 0.0
C287 C 0.08086 0.46901 0.40219 0.0
C288 C 0.7258 0.98444 0.89979 0.0
C289 C 0.7246 1.00057 0.93813 0.0
C290 C 0.77039 0.9995 0.87896 0.0
C291 C 0.8156 0.03096 0.89579 0.0
H292 H 0.6913 0.96135 0.88562 0.0
H293 H 0.76895 0.98724 0.84929 0.0
S294 S 0.83515 0.07737 0.9966 0.0
N295 N 0.77408 0.04582 0.9928 0.0
N296 N 0.8582 0.0735 0.954 0.0
C297 C 0.81555 0.04576 0.93446 0.0
C298 C 0.77004 0.03068 0.95553 0.0
C299 C 0.17169 0.76091 0.41763 0.0
C300 C 0.15368 0.75768 0.45402 0.0
C301 C 0.1567 0.8058 0.3961 0.0
C302 C 0.12349 0.84941 0.41027 0.0
H303 H 0.19605 0.72761 0.40533 0.0
H304 H 0.17025 0.80569 0.36779 0.0
S305 S 0.07141 0.8633 0.50592 0.0
N306 N 0.10444 0.80337 0.50442 0.0
N307 N 0.07713 0.88834 0.46442 0.0
C308 C 0.10683 0.8474 0.44719 0.0
C309 C 0.12175 0.80146 0.46894 0.0
loop_
_geom_bond_atom_site_label_1
_geom_bond_atom_site_label_2
_geom_bond_distance
_geom_bond_site_symmetry_2
_ccdc_geom_bond_type
Cu0 N1 1.999 1_554 S
Cu0 O6 1.974 . S
Cu0 N11 1.985 . S
Cu0 O20 1.959 1_554 S
N1 Cu0 1.999 1_556 S
N1 C3 1.263 . S
N1 C5 1.389 . S
N2 C3 1.358 . S
N2 C4 1.400 . S
C3 N1 1.263 . S
C3 N2 1.358 . S
C3 H9 0.930 . S
C4 N2 1.400 . S
C4 C5 1.351 . S
C4 H21 0.930 . S
C5 N1 1.389 . S
C5 C4 1.351 . S
C5 H10 0.930 . S
O6 Cu0 1.974 . S
O6 C16 1.282 . S
C7 O8 1.261 1_545 S
C7 O20 1.251 . S
O8 C7 1.261 1_565 S
H9 C3 0.930 . S
H10 C5 0.930 . S
N11 Cu0 1.985 . S
N11 C13 1.335 . S
N11 C14 1.390 . S
N12 C13 1.345 . S
N12 C15 1.336 . S
C13 N11 1.335 . S
C13 N12 1.345 . S
C13 H18 0.930 . S
C14 N11 1.390 . S
C14 C15 1.346 . S
C14 H19 0.930 . S
C15 N12 1.336 . S
C15 C14 1.346 . S
C15 H22 0.929 . S
C16 O6 1.282 . S
C16 O17 1.216 1_545 S
O17 C16 1.216 1_565 S
H18 C13 0.930 . S
H19 C14 0.930 . S
O20 Cu0 1.959 1_556 S
O20 C7 1.251 . S
H21 C4 0.930 . S
H22 C15 0.929 . S
Cu23 N24 1.999 . S
Cu23 O29 1.974 . S
Cu23 N34 1.985 . S
Cu23 O43 1.959 . S
N24 Cu23 1.999 . S
N24 C26 1.263 . S
N24 C28 1.389 1_455 S
N25 C26 1.358 . S
N25 C27 1.400 . S
C26 N24 1.263 . S
C26 N25 1.358 . S
C26 H32 0.930 . S
C27 N25 1.400 . S
C27 C28 1.351 1_455 S
C27 H44 0.930 1_455 S
C28 N24 1.389 1_655 S
C28 C27 1.351 1_655 S
C28 H33 0.930 . S
O29 Cu23 1.974 . S
O29 C39 1.282 . S
C30 O31 1.261 . S
C30 O43 1.251 . S
O31 C30 1.261 . S
H32 C26 0.930 . S
H33 C28 0.930 . S
N34 Cu23 1.985 . S
N34 C36 1.335 . S
N34 C37 1.390 . S
N35 C36 1.345 . S
N35 C38 1.336 . S
C36 N34 1.335 . S
C36 N35 1.345 . S
C36 H41 0.930 . S
C37 N34 1.390 . S
C37 C38 1.346 . S
C37 H42 0.930 . S
C38 N35 1.336 . S
C38 C37 1.346 . S
C38 H45 0.929 . S
C39 O29 1.282 . S
C39 O40 1.216 . S
O40 C39 1.216 . S
H41 C36 0.930 . S
H42 C37 0.930 . S
O43 Cu23 1.959 . S
O43 C30 1.251 . S
H44 C27 0.930 1_655 S
H45 C38 0.929 . S
Li46 N63 1.990 . S
Li46 O106 1.956 . S
Li46 O107 1.970 1_455 S
Li46 O108 1.961 . S
Li47 N71 1.990 1_545 S
Li47 O106 1.970 . S
Li47 O107 1.956 1_455 S
Li47 O109 1.961 . S
Li48 N93 1.990 . S
Li48 O106 1.961 . S
Li48 O108 1.956 . S
Li48 O109 1.970 . S
Li49 N99 1.990 . S
Li49 O107 1.961 . S
Li49 O108 1.970 1_655 S
Li49 O109 1.956 1_655 S
C50 C52 1.348 . S
C50 C53 1.356 . S
C50 O106 1.325 . S
N51 C54 1.314 . S
N51 C55 1.279 . S
C52 C50 1.348 . S
C52 C54 1.353 . S
C52 H110 0.929 . S
C53 C50 1.356 . S
C53 C55 1.358 . S
C53 H111 0.930 . S
C54 N51 1.314 . S
C54 C52 1.353 . S
C54 H112 0.930 . S
C55 N51 1.279 . S
C55 C53 1.358 . S
C55 H113 0.930 . S
C56 C59 1.348 . S
C56 C60 1.356 . S
C56 O107 1.325 . S
C57 N58 1.279 . S
C57 C60 1.358 . S
C57 H114 0.930 . S
N58 C57 1.279 . S
N58 C61 1.314 . S
C59 C56 1.348 . S
C59 C61 1.353 . S
C59 H115 0.929 . S
C60 C56 1.356 . S
C60 C57 1.358 . S
C60 H116 0.930 . S
C61 N58 1.314 . S
C61 C59 1.353 . S
C61 H117 0.930 . S
C62 N63 1.314 . S
C62 C67 1.353 . S
C62 H68 0.930 1_455 S
N63 Li46 1.990 . S
N63 C62 1.314 . S
N63 C65 1.279 . S
C64 C65 1.358 . S
C64 C66 1.356 . S
C64 H118 0.930 . S
C65 N63 1.279 . S
C65 C64 1.358 . S
C65 H69 0.930 . S
C66 C64 1.356 . S
C66 C67 1.348 . S
C67 C62 1.353 . S
C67 C66 1.348 . S
C67 H119 0.929 1_455 S
H68 C62 0.930 1_655 S
H69 C65 0.930 . S
C70 N71 1.314 . S
C70 C72 1.353 . S
C70 H76 0.930 . S
N71 Li47 1.990 1_565 S
N71 C70 1.314 . S
N71 C74 1.279 . S
C72 C70 1.353 . S
C72 C75 1.348 . S
C72 H120 0.929 . S
C73 C74 1.358 . S
C73 C75 1.356 . S
C73 H121 0.930 1_455 S
C74 N71 1.279 . S
C74 C73 1.358 . S
C74 H77 0.930 1_455 S
C75 C72 1.348 . S
C75 C73 1.356 . S
H76 C70 0.930 . S
H77 C74 0.930 1_655 S
C78 C80 1.348 . S
C78 C81 1.356 . S
C78 O108 1.325 . S
N79 C82 1.314 . S
N79 C83 1.279 . S
C80 C78 1.348 . S
C80 C82 1.353 . S
C80 H122 0.929 1_455 S
C81 C78 1.356 . S
C81 C83 1.358 . S
C81 H123 0.930 . S
C82 N79 1.314 . S
C82 C80 1.353 . S
C82 H124 0.930 1_455 S
C83 N79 1.279 . S
C83 C81 1.358 . S
C83 H125 0.930 . S
C84 C85 1.348 . S
C84 C86 1.356 . S
C84 O109 1.325 1_565 S
C85 C84 1.348 . S
C85 C87 1.353 . S
C85 H126 0.929 . S
C86 C84 1.356 . S
C86 C88 1.358 . S
C86 H127 0.930 1_455 S
C87 C85 1.353 . S
C87 N89 1.314 . S
C87 H128 0.930 . S
C88 C86 1.358 . S
C88 N89 1.279 . S
C88 H129 0.930 1_455 S
N89 C87 1.314 . S
N89 C88 1.279 . S
C90 C92 1.353 . S
C90 N93 1.314 . S
C90 H96 0.930 . S
C91 N93 1.279 . S
C91 C94 1.358 . S
C91 H97 0.930 . S
C92 C90 1.353 . S
C92 C95 1.348 . S
C92 H130 0.929 . S
N93 Li48 1.990 . S
N93 C90 1.314 . S
N93 C91 1.279 . S
C94 C91 1.358 . S
C94 C95 1.356 . S
C94 H131 0.930 . S
C95 C92 1.348 . S
C95 C94 1.356 . S
H96 C90 0.930 . S
H97 C91 0.930 . S
C98 N99 1.314 . S
C98 C100 1.353 . S
C98 H104 0.930 . S
N99 Li49 1.990 . S
N99 C98 1.314 . S
N99 C102 1.279 . S
C100 C98 1.353 . S
C100 C103 1.348 . S
C100 H132 0.929 . S
C101 C102 1.358 . S
C101 C103 1.356 . S
C101 H133 0.930 . S
C102 N99 1.279 . S
C102 C101 1.358 . S
C102 H105 0.930 . S
C103 C100 1.348 . S
C103 C101 1.356 . S
H104 C98 0.930 . S
H105 C102 0.930 . S
O106 Li46 1.956 . S
O106 Li47 1.970 . S
O106 Li48 1.961 . S
O106 C50 1.325 . S
O107 Li46 1.970 1_655 S
O107 Li47 1.956 1_655 S
O107 Li49 1.961 . S
O107 C56 1.325 . S
O108 Li46 1.961 . S
O108 Li48 1.956 . S
O108 Li49 1.970 1_455 S
O108 C78 1.325 . S
O109 Li47 1.961 . S
O109 Li48 1.970 . S
O109 Li49 1.956 1_455 S
O109 C84 1.325 1_545 S
H110 C52 0.929 . S
H111 C53 0.930 . S
H112 C54 0.930 . S
H113 C55 0.930 . S
H114 C57 0.930 . S
H115 C59 0.929 . S
H116 C60 0.930 . S
H117 C61 0.930 . S
H118 C64 0.930 . S
H119 C67 0.929 1_655 S
H120 C72 0.929 . S
H121 C73 0.930 1_655 S
H122 C80 0.929 1_655 S
H123 C81 0.930 . S
H124 C82 0.930 1_655 S
H125 C83 0.930 . S
H126 C85 0.929 . S
H127 C86 0.930 1_655 S
H128 C87 0.930 . S
H129 C88 0.930 1_655 S
H130 C92 0.929 . S
H131 C94 0.930 . S
H132 C100 0.929 . S
H133 C101 0.930 . S
Li134 N151 1.990 1_455 S
Li134 O194 1.956 . S
Li134 O195 1.970 1_545 S
Li134 O196 1.961 . S
Li135 N159 1.990 . S
Li135 O194 1.970 . S
Li135 O195 1.956 1_545 S
Li135 O197 1.961 . S
Li136 N181 1.990 . S
Li136 O194 1.961 . S
Li136 O196 1.956 . S
Li136 O197 1.970 . S
Li137 N187 1.990 . S
Li137 O195 1.961 . S
Li137 O196 1.970 1_565 S
Li137 O197 1.956 1_565 S
C138 C140 1.348 . S
C138 C141 1.356 . S
C138 O194 1.325 . S
N139 C142 1.314 . S
N139 C143 1.279 . S
C140 C138 1.348 . S
C140 C142 1.353 . S
C140 H198 0.929 . S
C141 C138 1.356 . S
C141 C143 1.358 . S
C141 H199 0.930 . S
C142 N139 1.314 . S
C142 C140 1.353 . S
C142 H200 0.930 . S
C143 N139 1.279 . S
C143 C141 1.358 . S
C143 H201 0.930 . S
C144 C147 1.348 . S
C144 C148 1.356 . S
C144 O195 1.325 . S
C145 N146 1.279 . S
C145 C148 1.358 . S
C145 H202 0.930 . S
N146 C145 1.279 . S
N146 C149 1.314 . S
C147 C144 1.348 . S
C147 C149 1.353 . S
C147 H203 0.929 . S
C148 C144 1.356 . S
C148 C145 1.358 . S
C148 H204 0.930 . S
C149 N146 1.314 . S
C149 C147 1.353 . S
C149 H205 0.930 . S
C150 N151 1.314 . S
C150 C155 1.353 . S
C150 H156 0.930 1_545 S
N151 Li134 1.990 1_655 S
N151 C150 1.314 . S
N151 C153 1.279 . S
C152 C153 1.358 . S
C152 C154 1.356 . S
C152 H206 0.930 . S
C153 N151 1.279 . S
C153 C152 1.358 . S
C153 H157 0.930 . S
C154 C152 1.356 . S
C154 C155 1.348 . S
C155 C150 1.353 . S
C155 C154 1.348 . S
C155 H207 0.929 1_545 S
H156 C150 0.930 1_565 S
H157 C153 0.930 . S
C158 N159 1.314 . S
C158 C160 1.353 . S
C158 H164 0.930 . S
N159 Li135 1.990 . S
N159 C158 1.314 . S
N159 C162 1.279 . S
C160 C158 1.353 . S
C160 C163 1.348 . S
C160 H208 0.929 . S
C161 C162 1.358 . S
C161 C163 1.356 . S
C161 H209 0.930 1_545 S
C162 N159 1.279 . S
C162 C161 1.358 . S
C162 H165 0.930 1_545 S
C163 C160 1.348 . S
C163 C161 1.356 . S
H164 C158 0.930 . S
H165 C162 0.930 1_565 S
C166 C168 1.348 . S
C166 C169 1.356 . S
C166 O196 1.325 1_655 S
N167 C170 1.314 . S
N167 C171 1.279 . S
C168 C166 1.348 . S
C168 C170 1.353 . S
C168 H210 0.929 1_545 S
C169 C166 1.356 . S
C169 C171 1.358 . S
C169 H211 0.930 . S
C170 N167 1.314 . S
C170 C168 1.353 . S
C170 H212 0.930 1_545 S
C171 N167 1.279 . S
C171 C169 1.358 . S
C171 H213 0.930 . S
C172 C173 1.348 . S
C172 C174 1.356 . S
C172 O197 1.325 . S
C173 C172 1.348 . S
C173 C175 1.353 . S
C173 H214 0.929 . S
C174 C172 1.356 . S
C174 C176 1.358 . S
C174 H215 0.930 1_545 S
C175 C173 1.353 . S
C175 N177 1.314 . S
C175 H216 0.930 . S
C176 C174 1.358 . S
C176 N177 1.279 . S
C176 H217 0.930 1_545 S
N177 C175 1.314 . S
N177 C176 1.279 . S
C178 C180 1.353 . S
C178 N181 1.314 . S
C178 H184 0.930 . S
C179 N181 1.279 . S
C179 C182 1.358 . S
C179 H185 0.930 . S
C180 C178 1.353 . S
C180 C183 1.348 . S
C180 H218 0.929 . S
N181 Li136 1.990 . S
N181 C178 1.314 . S
N181 C179 1.279 . S
C182 C179 1.358 . S
C182 C183 1.356 . S
C182 H219 0.930 . S
C183 C180 1.348 . S
C183 C182 1.356 . S
H184 C178 0.930 . S
H185 C179 0.930 . S
C186 N187 1.314 . S
C186 C188 1.353 . S
C186 H192 0.930 . S
N187 Li137 1.990 . S
N187 C186 1.314 . S
N187 C190 1.279 . S
C188 C186 1.353 . S
C188 C191 1.348 . S
C188 H220 0.929 . S
C189 C190 1.358 . S
C189 C191 1.356 . S
C189 H221 0.930 . S
C190 N187 1.279 . S
C190 C189 1.358 . S
C190 H193 0.930 . S
C191 C188 1.348 . S
C191 C189 1.356 . S
H192 C186 0.930 . S
H193 C190 0.930 . S
O194 Li134 1.956 . S
O194 Li135 1.970 . S
O194 Li136 1.961 . S
O194 C138 1.325 . S
O195 Li134 1.970 1_565 S
O195 Li135 1.956 1_565 S
O195 Li137 1.961 . S
O195 C144 1.325 . S
O196 Li134 1.961 . S
O196 Li136 1.956 . S
O196 Li137 1.970 1_545 S
O196 C166 1.325 1_455 S
O197 Li135 1.961 . S
O197 Li136 1.970 . S
O197 Li137 1.956 1_545 S
O197 C172 1.325 . S
H198 C140 0.929 . S
H199 C141 0.930 . S
H200 C142 0.930 . S
H201 C143 0.930 . S
H202 C145 0.930 . S
H203 C147 0.929 . S
H204 C148 0.930 . S
H205 C149 0.930 . S
H206 C152 0.930 . S
H207 C155 0.929 1_565 S
H208 C160 0.929 . S
H209 C161 0.930 1_565 S
H210 C168 0.929 1_565 S
H211 C169 0.930 . S
H212 C170 0.930 1_565 S
H213 C171 0.930 . S
H214 C173 0.929 . S
H215 C174 0.930 1_565 S
H216 C175 0.930 . S
H217 C176 0.930 1_565 S
H218 C180 0.929 . S
H219 C182 0.930 . S
H220 C188 0.929 . S
H221 C189 0.930 . S
C222 C223 1.369 . S
C222 C224 1.419 . S
C222 H226 0.930 . S
C223 C222 1.369 . S
C223 C232 1.429 . S
C224 C222 1.419 . S
C224 C225 1.363 . S
C224 H227 0.929 . S
C225 C224 1.363 . S
C225 C231 1.428 . S
H226 C222 0.930 . S
H227 C224 0.929 . S
S228 N229 1.613 . S
S228 N230 1.610 . S
N229 S228 1.613 . S
N229 C232 1.350 1_565 S
N230 S228 1.610 . S
N230 C231 1.351 1_565 S
C231 C225 1.428 . S
C231 N230 1.351 1_545 S
C231 C232 1.434 . S
C232 C223 1.429 . S
C232 N229 1.350 1_545 S
C232 C231 1.434 . S
C233 C234 1.369 . S
C233 C235 1.419 . S
C233 H237 0.930 . S
C234 C233 1.369 . S
C234 C243 1.429 . S
C235 C233 1.419 . S
C235 C236 1.363 . S
C235 H238 0.929 . S
C236 C235 1.363 . S
C236 C242 1.428 . S
H237 C233 0.930 . S
H238 C235 0.929 . S
S239 N240 1.613 . S
S239 N241 1.610 . S
N240 S239 1.613 . S
N240 C243 1.350 . S
N241 S239 1.610 . S
N241 C242 1.351 . S
C242 C236 1.428 . S
C242 N241 1.351 . S
C242 C243 1.434 . S
C243 C234 1.429 . S
C243 N240 1.350 . S
C243 C242 1.434 . S
C244 C245 1.369 . S
C244 C246 1.419 . S
C244 H248 0.924 1_545 S
C245 C244 1.369 . S
C245 C254 1.429 . S
C246 C244 1.419 . S
C246 C247 1.363 . S
C246 H249 0.929 . S
C247 C246 1.363 . S
C247 C253 1.428 . S
H248 C244 0.924 1_565 S
H249 C246 0.929 . S
S250 N251 1.613 . S
S250 N252 1.610 . S
N251 S250 1.613 . S
N251 C254 1.350 . S
N252 S250 1.610 . S
N252 C253 1.351 . S
C253 C247 1.428 . S
C253 N252 1.351 . S
C253 C254 1.434 . S
C254 C245 1.429 . S
C254 N251 1.350 . S
C254 C253 1.434 . S
C255 C256 1.369 . S
C255 C257 1.419 . S
C255 H259 0.930 . S
C256 C255 1.369 . S
C256 C265 1.429 . S
C257 C255 1.419 . S
C257 C258 1.363 . S
C257 H260 0.929 . S
C258 C257 1.363 . S
C258 C264 1.428 . S
H259 C255 0.930 . S
H260 C257 0.929 . S
S261 N262 1.613 . S
S261 N263 1.610 . S
N262 S261 1.613 . S
N262 C265 1.350 . S
N263 S261 1.610 . S
N263 C264 1.351 . S
C264 C258 1.428 . S
C264 N263 1.351 . S
C264 C265 1.434 . S
C265 C256 1.429 . S
C265 N262 1.350 . S
C265 C264 1.434 . S
C266 C267 1.369 . S
C266 C268 1.419 . S
C266 H270 0.930 . S
C267 C266 1.369 . S
C267 C276 1.429 . S
C268 C266 1.419 . S
C268 C269 1.363 . S
C268 H271 0.929 . S
C269 C268 1.363 . S
C269 C275 1.428 . S
H270 C266 0.930 . S
H271 C268 0.929 . S
S272 N273 1.613 . S
S272 N274 1.610 . S
N273 S272 1.613 . S
N273 C276 1.350 . S
N274 S272 1.610 . S
N274 C275 1.351 . S
C275 C269 1.428 . S
C275 N274 1.351 . S
C275 C276 1.434 . S
C276 C267 1.429 . S
C276 N273 1.350 . S
C276 C275 1.434 . S
C277 C278 1.369 . S
C277 C279 1.419 . S
C277 H281 0.930 . S
C278 C277 1.369 . S
C278 C287 1.429 . S
C279 C277 1.419 . S
C279 C280 1.363 . S
C279 H282 0.929 . S
C280 C279 1.363 . S
C280 C286 1.428 . S
H281 C277 0.930 . S
H282 C279 0.929 . S
S283 N284 1.613 . S
S283 N285 1.610 . S
N284 S283 1.613 . S
N284 C287 1.350 . S
N285 S283 1.610 . S
N285 C286 1.351 . S
C286 C280 1.428 . S
C286 N285 1.351 . S
C286 C287 1.434 . S
C287 C278 1.429 . S
C287 N284 1.350 . S
C287 C286 1.434 . S
C288 C289 1.369 . S
C288 C290 1.419 . S
C288 H292 0.930 . S
C289 C288 1.369 . S
C289 C298 1.429 . S
C290 C288 1.419 . S
C290 C291 1.363 . S
C290 H293 0.929 . S
C291 C290 1.363 . S
C291 C297 1.428 . S
H292 C288 0.930 . S
H293 C290 0.929 . S
S294 N295 1.613 1_565 S
S294 N296 1.610 . S
N295 S294 1.613 1_545 S
N295 C298 1.350 . S
N296 S294 1.610 . S
N296 C297 1.351 1_565 S
C297 C291 1.428 . S
C297 N296 1.351 1_545 S
C297 C298 1.434 . S
C298 C289 1.429 . S
C298 N295 1.350 . S
C298 C297 1.434 . S
C299 C300 1.369 . S
C299 C301 1.419 . S
C299 H303 0.930 1_455 S
C300 C299 1.369 . S
C300 C309 1.429 . S
C301 C299 1.419 . S
C301 C302 1.363 . S
C301 H304 0.929 1_455 S
C302 C301 1.363 . S
C302 C308 1.428 . S
H303 C299 0.930 1_655 S
H304 C301 0.929 1_655 S
S305 N306 1.613 . S
S305 N307 1.610 . S
N306 S305 1.613 . S
N306 C309 1.350 . S
N307 S305 1.610 . S
N307 C308 1.351 . S
C308 C302 1.428 . S
C308 N307 1.351 . S
C308 C309 1.434 . S
C309 C300 1.429 . S
C309 N306 1.350 . S
C309 C308 1.434 . S
C225 C95 1.474 . S
C223 N12 1.437 . S
C236 C183 1.509 . S
C234 N25 1.487 . S
C247 C103 1.463 . S
C245 C16 1.462 . S
C258 C191 1.503 . S
C256 C30 1.504 . S
C269 C163 1.503 . S
C267 C7 1.505 . S
C280 C66 1.462 . S
C278 C39 1.461 . S
C291 C154 1.510 . S
C289 N2 1.489 . S
C300 N35 1.437 . S
C302 C75 1.473 . S
