# Generated by pormake.
# Topology iac, (4,6)-cn, num edge types: 1
# Building blocks:
#     Node 0, Type 0, BuildingBlock: QUQFOY_clean_sbu_3, # of connection points: 4
#     Node 1, Type 0, BuildingBlock: QUQFOY_clean_sbu_3, # of connection points: 4
#     Node 2, Type 0, BuildingBlock: QUQFOY_clean_sbu_3, # of connection points: 4
#     Node 3, Type 0, BuildingBlock: QUQFOY_clean_sbu_3, # of connection points: 4
#     Node 4, Type 0, BuildingBlock: QUQFOY_clean_sbu_3, # of connection points: 4
#     Node 5, Type 0, BuildingBlock: QUQFOY_clean_sbu_3, # of connection points: 4
#     Node 6, Type 0, BuildingBlock: QUQFOY_clean_sbu_3, # of connection points: 4
#     Node 7, Type 0, BuildingBlock: QUQFOY_clean_sbu_3, # of connection points: 4
#     Node 8, Type 0, BuildingBlock: QUQFOY_clean_sbu_3, # of connection points: 4
#     Node 9, Type 0, BuildingBlock: QUQFOY_clean_sbu_3, # of connection points: 4
#     Node 10, Type 0, BuildingBlock: QUQFOY_clean_sbu_3, # of connection points: 4
#     Node 11, Type 0, BuildingBlock: QUQFOY_clean_sbu_3, # of connection points: 4
#     Node 12, Type 0, BuildingBlock: QUQFOY_clean_sbu_3, # of connection points: 4
#     Node 13, Type 0, BuildingBlock: QUQFOY_clean_sbu_3, # of connection points: 4
#     Node 14, Type 0, BuildingBlock: QUQFOY_clean_sbu_3, # of connection points: 4
#     Node 15, Type 0, BuildingBlock: QUQFOY_clean_sbu_3, # of connection points: 4
#     Node 16, Type 0, BuildingBlock: QUQFOY_clean_sbu_3, # of connection points: 4
#     Node 17, Type 0, BuildingBlock: QUQFOY_clean_sbu_3, # of connection points: 4
#     Node 18, Type 0, BuildingBlock: QUQFOY_clean_sbu_3, # of connection points: 4
#     Node 19, Type 0, BuildingBlock: QUQFOY_clean_sbu_3, # of connection points: 4
#     Node 20, Type 0, BuildingBlock: QUQFOY_clean_sbu_3, # of connection points: 4
#     Node 21, Type 0, BuildingBlock: QUQFOY_clean_sbu_3, # of connection points: 4
#     Node 22, Type 0, BuildingBlock: QUQFOY_clean_sbu_3, # of connection points: 4
#     Node 23, Type 0, BuildingBlock: QUQFOY_clean_sbu_3, # of connection points: 4
#     Node 24, Type 1, BuildingBlock: LEVNOQ01_clean_sbu_1, # of connection points: 6
#     Node 25, Type 1, BuildingBlock: LEVNOQ01_clean_sbu_1, # of connection points: 6
#     Node 26, Type 1, BuildingBlock: LEVNOQ01_clean_sbu_1, # of connection points: 6
#     Node 27, Type 1, BuildingBlock: LEVNOQ01_clean_sbu_1, # of connection points: 6
#     Node 28, Type 1, BuildingBlock: LEVNOQ01_clean_sbu_1, # of connection points: 6
#     Node 29, Type 1, BuildingBlock: LEVNOQ01_clean_sbu_1, # of connection points: 6
#     Node 30, Type 1, BuildingBlock: LEVNOQ01_clean_sbu_1, # of connection points: 6
#     Node 31, Type 1, BuildingBlock: LEVNOQ01_clean_sbu_1, # of connection points: 6
#     Node 32, Type 1, BuildingBlock: LEVNOQ01_clean_sbu_1, # of connection points: 6
#     Node 33, Type 1, BuildingBlock: LEVNOQ01_clean_sbu_1, # of connection points: 6
#     Node 34, Type 1, BuildingBlock: LEVNOQ01_clean_sbu_1, # of connection points: 6
#     Node 35, Type 1, BuildingBlock: LEVNOQ01_clean_sbu_1, # of connection points: 6
#     Node 36, Type 1, BuildingBlock: LEVNOQ01_clean_sbu_1, # of connection points: 6
#     Node 37, Type 1, BuildingBlock: LEVNOQ01_clean_sbu_1, # of connection points: 6
#     Node 38, Type 1, BuildingBlock: LEVNOQ01_clean_sbu_1, # of connection points: 6
#     Node 39, Type 1, BuildingBlock: LEVNOQ01_clean_sbu_1, # of connection points: 6
#     Edge 40, Type (0, 1), BuildingBlock: OJICUG_clean_linker_0, # of connection points: 2
#     Edge 41, Type (0, 1), BuildingBlock: OJICUG_clean_linker_0, # of connection points: 2
#     Edge 42, Type (0, 1), BuildingBlock: OJICUG_clean_linker_0, # of connection points: 2
#     Edge 43, Type (0, 1), BuildingBlock: OJICUG_clean_linker_0, # of connection points: 2
#     Edge 44, Type (0, 1), BuildingBlock: OJICUG_clean_linker_0, # of connection points: 2
#     Edge 45, Type (0, 1), BuildingBlock: OJICUG_clean_linker_0, # of connection points: 2
#     Edge 46, Type (0, 1), BuildingBlock: OJICUG_clean_linker_0, # of connection points: 2
#     Edge 47, Type (0, 1), BuildingBlock: OJICUG_clean_linker_0, # of connection points: 2
#     Edge 48, Type (0, 1), BuildingBlock: OJICUG_clean_linker_0, # of connection points: 2
#     Edge 49, Type (0, 1), BuildingBlock: OJICUG_clean_linker_0, # of connection points: 2
#     Edge 50, Type (0, 1), BuildingBlock: OJICUG_clean_linker_0, # of connection points: 2
#     Edge 51, Type (0, 1), BuildingBlock: OJICUG_clean_linker_0, # of connection points: 2
#     Edge 52, Type (0, 1), BuildingBlock: OJICUG_clean_linker_0, # of connection points: 2
#     Edge 53, Type (0, 1), BuildingBlock: OJICUG_clean_linker_0, # of connection points: 2
#     Edge 54, Type (0, 1), BuildingBlock: OJICUG_clean_linker_0, # of connection points: 2
#     Edge 55, Type (0, 1), BuildingBlock: OJICUG_clean_linker_0, # of connection points: 2
#     Edge 56, Type (0, 1), BuildingBlock: OJICUG_clean_linker_0, # of connection points: 2
#     Edge 57, Type (0, 1), BuildingBlock: OJICUG_clean_linker_0, # of connection points: 2
#     Edge 58, Type (0, 1), BuildingBlock: OJICUG_clean_linker_0, # of connection points: 2
#     Edge 59, Type (0, 1), BuildingBlock: OJICUG_clean_linker_0, # of connection points: 2
#     Edge 60, Type (0, 1), BuildingBlock: OJICUG_clean_linker_0, # of connection points: 2
#     Edge 61, Type (0, 1), BuildingBlock: OJICUG_clean_linker_0, # of connection points: 2
#     Edge 62, Type (0, 1), BuildingBlock: OJICUG_clean_linker_0, # of connection points: 2
#     Edge 63, Type (0, 1), BuildingBlock: OJICUG_clean_linker_0, # of connection points: 2
#     Edge 64, Type (0, 1), BuildingBlock: OJICUG_clean_linker_0, # of connection points: 2
#     Edge 65, Type (0, 1), BuildingBlock: OJICUG_clean_linker_0, # of connection points: 2
#     Edge 66, Type (0, 1), BuildingBlock: OJICUG_clean_linker_0, # of connection points: 2
#     Edge 67, Type (0, 1), BuildingBlock: OJICUG_clean_linker_0, # of connection points: 2
#     Edge 68, Type (0, 1), BuildingBlock: OJICUG_clean_linker_0, # of connection points: 2
#     Edge 69, Type (0, 1), BuildingBlock: OJICUG_clean_linker_0, # of connection points: 2
#     Edge 70, Type (0, 1), BuildingBlock: OJICUG_clean_linker_0, # of connection points: 2
#     Edge 71, Type (0, 1), BuildingBlock: OJICUG_clean_linker_0, # of connection points: 2
#     Edge 72, Type (0, 1), BuildingBlock: OJICUG_clean_linker_0, # of connection points: 2
#     Edge 73, Type (0, 1), BuildingBlock: OJICUG_clean_linker_0, # of connection points: 2
#     Edge 74, Type (0, 1), BuildingBlock: OJICUG_clean_linker_0, # of connection points: 2
#     Edge 75, Type (0, 1), BuildingBlock: OJICUG_clean_linker_0, # of connection points: 2
#     Edge 76, Type (0, 1), BuildingBlock: OJICUG_clean_linker_0, # of connection points: 2
#     Edge 77, Type (0, 1), BuildingBlock: OJICUG_clean_linker_0, # of connection points: 2
#     Edge 78, Type (0, 1), BuildingBlock: OJICUG_clean_linker_0, # of connection points: 2
#     Edge 79, Type (0, 1), BuildingBlock: OJICUG_clean_linker_0, # of connection points: 2
#     Edge 80, Type (0, 1), BuildingBlock: OJICUG_clean_linker_0, # of connection points: 2
#     Edge 81, Type (0, 1), BuildingBlock: OJICUG_clean_linker_0, # of connection points: 2
#     Edge 82, Type (0, 1), BuildingBlock: OJICUG_clean_linker_0, # of connection points: 2
#     Edge 83, Type (0, 1), BuildingBlock: OJICUG_clean_linker_0, # of connection points: 2
#     Edge 84, Type (0, 1), BuildingBlock: OJICUG_clean_linker_0, # of connection points: 2
#     Edge 85, Type (0, 1), BuildingBlock: OJICUG_clean_linker_0, # of connection points: 2
#     Edge 86, Type (0, 1), BuildingBlock: OJICUG_clean_linker_0, # of connection points: 2
#     Edge 87, Type (0, 1), BuildingBlock: OJICUG_clean_linker_0, # of connection points: 2
#     Edge 88, Type (0, 1), BuildingBlock: OJICUG_clean_linker_0, # of connection points: 2
#     Edge 89, Type (0, 1), BuildingBlock: OJICUG_clean_linker_0, # of connection points: 2
#     Edge 90, Type (0, 1), BuildingBlock: OJICUG_clean_linker_0, # of connection points: 2
#     Edge 91, Type (0, 1), BuildingBlock: OJICUG_clean_linker_0, # of connection points: 2
#     Edge 92, Type (0, 1), BuildingBlock: OJICUG_clean_linker_0, # of connection points: 2
#     Edge 93, Type (0, 1), BuildingBlock: OJICUG_clean_linker_0, # of connection points: 2
#     Edge 94, Type (0, 1), BuildingBlock: OJICUG_clean_linker_0, # of connection points: 2
#     Edge 95, Type (0, 1), BuildingBlock: OJICUG_clean_linker_0, # of connection points: 2
#     Edge 96, Type (0, 1), BuildingBlock: OJICUG_clean_linker_0, # of connection points: 2
#     Edge 97, Type (0, 1), BuildingBlock: OJICUG_clean_linker_0, # of connection points: 2
#     Edge 98, Type (0, 1), BuildingBlock: OJICUG_clean_linker_0, # of connection points: 2
#     Edge 99, Type (0, 1), BuildingBlock: OJICUG_clean_linker_0, # of connection points: 2
#     Edge 100, Type (0, 1), BuildingBlock: OJICUG_clean_linker_0, # of connection points: 2
#     Edge 101, Type (0, 1), BuildingBlock: OJICUG_clean_linker_0, # of connection points: 2
#     Edge 102, Type (0, 1), BuildingBlock: OJICUG_clean_linker_0, # of connection points: 2
#     Edge 103, Type (0, 1), BuildingBlock: OJICUG_clean_linker_0, # of connection points: 2
#     Edge 104, Type (0, 1), BuildingBlock: OJICUG_clean_linker_0, # of connection points: 2
#     Edge 105, Type (0, 1), BuildingBlock: OJICUG_clean_linker_0, # of connection points: 2
#     Edge 106, Type (0, 1), BuildingBlock: OJICUG_clean_linker_0, # of connection points: 2
#     Edge 107, Type (0, 1), BuildingBlock: OJICUG_clean_linker_0, # of connection points: 2
#     Edge 108, Type (0, 1), BuildingBlock: OJICUG_clean_linker_0, # of connection points: 2
#     Edge 109, Type (0, 1), BuildingBlock: OJICUG_clean_linker_0, # of connection points: 2
#     Edge 110, Type (0, 1), BuildingBlock: OJICUG_clean_linker_0, # of connection points: 2
#     Edge 111, Type (0, 1), BuildingBlock: OJICUG_clean_linker_0, # of connection points: 2
#     Edge 112, Type (0, 1), BuildingBlock: OJICUG_clean_linker_0, # of connection points: 2
#     Edge 113, Type (0, 1), BuildingBlock: OJICUG_clean_linker_0, # of connection points: 2
#     Edge 114, Type (0, 1), BuildingBlock: OJICUG_clean_linker_0, # of connection points: 2
#     Edge 115, Type (0, 1), BuildingBlock: OJICUG_clean_linker_0, # of connection points: 2
#     Edge 116, Type (0, 1), BuildingBlock: OJICUG_clean_linker_0, # of connection points: 2
#     Edge 117, Type (0, 1), BuildingBlock: OJICUG_clean_linker_0, # of connection points: 2
#     Edge 118, Type (0, 1), BuildingBlock: OJICUG_clean_linker_0, # of connection points: 2
#     Edge 119, Type (0, 1), BuildingBlock: OJICUG_clean_linker_0, # of connection points: 2
#     Edge 120, Type (0, 1), BuildingBlock: OJICUG_clean_linker_0, # of connection points: 2
#     Edge 121, Type (0, 1), BuildingBlock: OJICUG_clean_linker_0, # of connection points: 2
#     Edge 122, Type (0, 1), BuildingBlock: OJICUG_clean_linker_0, # of connection points: 2
#     Edge 123, Type (0, 1), BuildingBlock: OJICUG_clean_linker_0, # of connection points: 2
#     Edge 124, Type (0, 1), BuildingBlock: OJICUG_clean_linker_0, # of connection points: 2
#     Edge 125, Type (0, 1), BuildingBlock: OJICUG_clean_linker_0, # of connection points: 2
#     Edge 126, Type (0, 1), BuildingBlock: OJICUG_clean_linker_0, # of connection points: 2
#     Edge 127, Type (0, 1), BuildingBlock: OJICUG_clean_linker_0, # of connection points: 2
#     Edge 128, Type (0, 1), BuildingBlock: OJICUG_clean_linker_0, # of connection points: 2
#     Edge 129, Type (0, 1), BuildingBlock: OJICUG_clean_linker_0, # of connection points: 2
#     Edge 130, Type (0, 1), BuildingBlock: OJICUG_clean_linker_0, # of connection points: 2
#     Edge 131, Type (0, 1), BuildingBlock: OJICUG_clean_linker_0, # of connection points: 2
#     Edge 132, Type (0, 1), BuildingBlock: OJICUG_clean_linker_0, # of connection points: 2
#     Edge 133, Type (0, 1), BuildingBlock: OJICUG_clean_linker_0, # of connection points: 2
#     Edge 134, Type (0, 1), BuildingBlock: OJICUG_clean_linker_0, # of connection points: 2
#     Edge 135, Type (0, 1), BuildingBlock: OJICUG_clean_linker_0, # of connection points: 2
# Relax obj value: 0.090
# Max RMSD: 0.170
# Mean RMSD: 0.086
data_MOF--net-iac--node1-QUQFOY_clean_sbu_3--node2-LEVNOQ01_clean_sbu_1--edge1-OJICUG_clean_linker_0
_symmetry_space_group_name_H-M    P1
_symmetry_Int_Tables_number       1
_symmetry_cell_setting            triclinic
loop_
_symmetry_equiv_pos_as_xyz
'x, y, z'
_cell_length_a     40.184474
_cell_length_b     40.929817
_cell_length_c     40.591144
_cell_angle_alpha  90.965436
_cell_angle_beta   89.706061
_cell_angle_gamma 90.460026
loop_
_atom_site_label
_atom_site_type_symbol
_atom_site_fract_x
_atom_site_fract_y
_atom_site_fract_z
_atom_type_partial_charge
C0 C 0.92334 0.23702 0.15965 0.0
O1 O 0.93958 0.22289 0.18196 0.0
Cd2 Cd -0.00263 0.21098 0.18064 0.0
O3 O 0.9377 0.24872 0.1345 0.0
Cd4 Cd -0.00366 0.25598 0.11823 0.0
C5 C 0.00175 0.1739 0.10414 0.0
O6 O 0.02285 0.26289 0.1717 0.0
O7 O 0.05555 0.25077 0.13104 0.0
O8 O 0.98658 0.31386 0.10881 0.0
C9 C 0.05223 0.25937 0.16103 0.0
O10 O 0.00363 0.17059 0.13524 0.0
C11 C -0.0051 0.31279 0.07862 0.0
O12 O -0.00215 0.20206 0.09182 0.0
O13 O 0.00329 0.28509 0.06676 0.0
C14 C 0.92486 0.77106 0.33755 0.0
O15 O 0.9371 0.78701 0.31367 0.0
Cd16 Cd -0.00548 0.78834 0.29575 0.0
O17 O 0.94317 0.7533 0.35517 0.0
Cd18 Cd 0.00253 0.74248 0.3601 0.0
C19 C 0.02047 0.82365 0.36597 0.0
O20 O 0.01547 0.73356 0.30139 0.0
O21 O 0.05622 0.73149 0.33579 0.0
O22 O 0.98375 0.69381 0.38765 0.0
C23 C 0.04627 0.72936 0.30631 0.0
O24 O 0.01725 0.82775 0.33517 0.0
C25 C 0.00308 0.69756 0.41215 0.0
O26 O 0.01491 0.79616 0.37894 0.0
O27 O 0.02291 0.72185 0.41199 0.0
C28 C 0.42363 0.74473 0.66208 0.0
O29 O 0.44236 0.73099 0.68271 0.0
Cd30 Cd 0.50005 0.71779 0.67615 0.0
O31 O 0.43497 0.75547 0.63506 0.0
Cd32 Cd 0.49127 0.76159 0.61187 0.0
C33 C 0.49758 0.67862 0.60081 0.0
O34 O 0.5257 0.76814 0.66179 0.0
O35 O 0.5511 0.76181 0.61515 0.0
O36 O 0.479 0.81845 0.60016 0.0
C37 C 0.55295 0.76697 0.64594 0.0
O38 O 0.50238 0.67624 0.63169 0.0
C39 C 0.48722 0.81638 0.56995 0.0
O40 O 0.49174 0.70626 0.58806 0.0
O41 O 0.49501 0.78821 0.55885 0.0
C42 C 0.4358 0.27446 0.83686 0.0
O43 O 0.45107 0.28721 0.81262 0.0
Cd44 Cd 0.50958 0.28648 0.79933 0.0
O45 O 0.45132 0.25892 0.85878 0.0
Cd46 Cd 0.50899 0.24744 0.87207 0.0
C47 C 0.53037 0.32943 0.86749 0.0
O48 O 0.52335 0.23213 0.81551 0.0
O49 O 0.55982 0.22211 0.8526 0.0
O50 O 0.48275 0.20403 0.90302 0.0
C51 C 0.55187 0.22148 0.8225 0.0
O52 O 0.52815 0.33004 0.83629 0.0
C53 C 0.503 0.2056 0.92696 0.0
O54 O 0.52434 0.30356 0.88353 0.0
O55 O 0.52535 0.22773 0.92605 0.0
C56 C 0.08782 0.00408 0.31894 0.0
O57 O 0.06376 0.01932 0.30637 0.0
Cd58 Cd 0.05498 0.03156 0.25 0.0
O59 O 0.11092 -0.00787 0.30114 0.0
Cd60 Cd 0.11891 0.98958 0.24056 0.0
C61 C 0.12786 0.0718 0.23451 0.0
O62 O 0.06151 0.98068 0.22108 0.0
O63 O 0.09778 -0.00368 0.18513 0.0
O64 O 0.13666 0.93352 0.2482 0.0
C65 C 0.06862 0.98608 0.19127 0.0
O66 O 0.09631 0.07397 0.23655 0.0
C67 C 0.16396 0.93649 0.23265 0.0
O68 O 0.14213 0.04433 0.23739 0.0
O69 O 0.17048 0.96435 0.22076 0.0
C70 C 0.31482 0.8943 0.47626 0.0
O71 O 0.30131 0.9174 0.46081 0.0
Cd72 Cd 0.24423 0.93314 0.45973 0.0
O73 O 0.29774 0.87583 0.49484 0.0
Cd74 Cd 0.23737 0.86967 0.50417 0.0
C75 C 0.22692 0.8628 0.42099 0.0
O76 O 0.22193 0.92719 0.51473 0.0
O77 O 0.1819 0.89252 0.50698 0.0
O78 O 0.25144 0.84303 0.55545 0.0
C79 C 0.19094 0.9213 0.51481 0.0
O80 O 0.22593 0.89367 0.41803 0.0
C81 C 0.23169 0.81893 0.55112 0.0
O82 O 0.23226 0.84996 0.44873 0.0
O83 O 0.2142 0.81861 0.52517 0.0
C84 C 0.40148 0.9724 0.81313 0.0
O85 O 0.42589 0.95796 0.7991 0.0
Cd86 Cd 0.44366 0.9527 0.74195 0.0
O87 O 0.38015 0.98817 0.79685 0.0
Cd88 Cd 0.36646 -0.00206 0.73963 0.0
C89 C 0.37311 0.91444 0.71773 0.0
O90 O 0.4213 -0.0001 0.71964 0.0
O91 O 0.3919 0.03782 0.70014 0.0
O92 O 0.33165 0.03771 0.76687 0.0
C93 C 0.41925 0.02265 0.69937 0.0
O94 O 0.40416 0.91212 0.72331 0.0
C95 C 0.30854 0.0368 0.74556 0.0
O96 O 0.35726 0.94115 0.72194 0.0
O97 O 0.31169 0.01647 0.72161 0.0
C98 C 0.30274 0.06444 -0.0043 0.0
O99 O 0.2809 0.04464 0.0064 0.0
Cd100 Cd 0.22473 0.06173 0.01773 0.0
O101 O 0.29485 0.09301 0.98726 0.0
Cd102 Cd 0.24597 0.12577 0.98017 0.0
C103 C 0.24243 0.13241 0.0627 0.0
O104 O 0.20453 0.08457 0.96827 0.0
O105 O 0.18511 0.13103 0.98461 0.0
O106 O 0.26349 0.13305 0.92401 0.0
C107 C 0.1794 0.10248 0.97325 0.0
O108 O 0.2287 0.10418 0.06195 0.0
C109 C 0.26205 0.164 0.92536 0.0
O110 O 0.25354 0.14543 0.03653 0.0
O111 O 0.25516 0.17713 0.95319 0.0
C112 C 0.80779 0.4081 0.98058 0.0
O113 O 0.79463 0.43172 0.96558 0.0
Cd114 Cd 0.73666 0.4443 0.96135 0.0
O115 O 0.79019 0.3867 -0.00497 0.0
Cd116 Cd 0.73076 0.37399 -0.00156 0.0
C117 C 0.72082 0.37869 0.91422 0.0
O118 O 0.71616 0.43007 0.01551 0.0
O119 O 0.67712 0.39342 0.01609 0.0
O120 O 0.75101 0.34104 0.04309 0.0
C121 C 0.68617 0.42263 0.02171 0.0
O122 O 0.72279 0.40966 0.91414 0.0
C123 C 0.72991 0.31803 0.03927 0.0
O124 O 0.72359 0.36276 0.94067 0.0
O125 O 0.70941 0.32054 0.01576 0.0
C126 C 0.90332 0.47331 0.30387 0.0
O127 O 0.92878 0.46159 0.28934 0.0
Cd128 Cd 0.9425 0.46149 0.23201 0.0
O129 O 0.88058 0.48753 0.2881 0.0
Cd130 Cd 0.86753 0.49561 0.23059 0.0
C131 C 0.87644 0.41305 0.22031 0.0
O132 O 0.92262 0.51303 0.21426 0.0
O133 O 0.88788 0.50389 0.17489 0.0
O134 O 0.8383 0.54171 0.25359 0.0
C135 C 0.91674 0.51303 0.18374 0.0
O136 O 0.90774 0.41515 0.21599 0.0
C137 C 0.81264 0.53859 0.23564 0.0
O138 O 0.85868 0.43785 0.22722 0.0
O139 O 0.81223 0.51508 0.21473 0.0
C140 C 0.81028 0.5816 0.48642 0.0
O141 O 0.79091 0.55805 0.49345 0.0
Cd142 Cd 0.73529 0.56815 0.51155 0.0
O143 O 0.79928 0.61037 0.48338 0.0
Cd144 Cd 0.74528 0.63711 0.48079 0.0
C145 C 0.75396 0.6337 0.56278 0.0
O146 O 0.70975 0.59225 0.46505 0.0
O147 O 0.68382 0.63315 0.48694 0.0
O148 O 0.76235 0.65283 0.42664 0.0
C149 C 0.68226 0.60578 0.47181 0.0
O150 O 0.7437 0.60417 0.56074 0.0
C151 C 0.75239 0.68207 0.42974 0.0
O152 O 0.75736 0.65094 0.53719 0.0
O153 O 0.74187 0.69118 0.45804 0.0
C154 C 0.56984 0.49768 0.82176 0.0
O155 O 0.54584 0.50999 0.80613 0.0
Cd156 Cd 0.54677 0.52366 0.7491 0.0
O157 O 0.59611 0.48845 0.80713 0.0
Cd158 Cd 0.61166 0.48023 0.74969 0.0
C159 C 0.62324 0.56182 0.74145 0.0
O160 O 0.55832 0.47319 0.72203 0.0
O161 O 0.60127 0.48339 0.69122 0.0
O162 O 0.61839 0.42258 0.75997 0.0
C163 C 0.57059 0.47622 0.69345 0.0
O164 O 0.59164 0.56436 0.74136 0.0
C165 C 0.64963 0.42253 0.75545 0.0
O166 O 0.63699 0.53419 0.74538 0.0
O167 O 0.66339 0.44957 0.74804 0.0
C168 C 0.95514 0.73932 0.79724 0.0
O169 O 0.97312 0.75865 0.78055 0.0
Cd170 Cd 0.02536 0.77731 0.80494 0.0
O171 O 0.9643 0.73071 0.82564 0.0
Cd172 Cd 0.00648 0.73446 0.86799 0.0
C173 C -0.00174 0.81703 0.87559 0.0
O174 O 0.05322 0.73283 0.83199 0.0
O175 O 0.06439 0.74696 0.88246 0.0
O176 O 0.00396 0.67578 0.87464 0.0
C177 C 0.07486 0.74048 0.85353 0.0
O178 O 0.0117 0.81884 0.84713 0.0
C179 C -0.0104 0.67684 0.90249 0.0
O180 O -0.0085 0.78932 0.88807 0.0
O181 O 0.98438 0.70495 0.91528 0.0
C182 C 0.9601 0.25482 0.68911 0.0
O183 O 0.98076 0.23756 0.70455 0.0
Cd184 Cd 0.03066 0.22059 0.67575 0.0
O185 O 0.96532 0.26221 0.65918 0.0
Cd186 Cd 0.00318 0.25736 0.61176 0.0
C187 C -0.00655 0.17625 0.61347 0.0
O188 O 0.05025 0.26657 0.64421 0.0
O189 O 0.06149 0.24745 0.59556 0.0
O190 O 0.98346 0.31075 0.60303 0.0
C191 C 0.07194 0.25908 0.62276 0.0
O192 O 0.01243 0.17588 0.63854 0.0
C193 C 0.98247 0.30889 0.57184 0.0
O194 O 0.98441 0.20301 0.60094 0.0
O195 O -0.00853 0.28226 0.55811 0.0
C196 C 0.46053 0.23732 0.30523 0.0
O197 O 0.47861 0.25543 0.2873 0.0
Cd198 Cd 0.5313 0.2735 0.30894 0.0
O199 O 0.47092 0.22791 0.33307 0.0
Cd200 Cd 0.51693 0.22755 0.37276 0.0
C201 C 0.50275 0.30836 0.38269 0.0
O202 O 0.55854 0.22683 0.33153 0.0
O203 O 0.57691 0.23867 0.38016 0.0
O204 O 0.50225 0.17059 0.37295 0.0
C205 C 0.58317 0.23325 0.34991 0.0
O206 O 0.51492 0.31118 0.35377 0.0
C207 C 0.50432 0.16706 0.40383 0.0
O208 O 0.49911 0.28031 0.39557 0.0
O209 O 0.5127 0.19207 0.42102 0.0
C210 C 0.46183 0.75013 0.1806 0.0
O211 O 0.48536 0.74752 0.20112 0.0
Cd212 Cd 0.53849 0.73321 0.17547 0.0
O213 O 0.46814 0.75201 0.14997 0.0
Cd214 Cd 0.50608 0.75551 0.1033 0.0
C215 C 0.50248 0.67617 0.12198 0.0
O216 O 0.55439 0.77003 0.13235 0.0
O217 O 0.56325 0.74685 0.08493 0.0
O218 O 0.47989 0.80609 0.09582 0.0
C219 C 0.57519 0.75911 0.11128 0.0
O220 O 0.52103 0.68209 0.14688 0.0
C221 C 0.47819 0.80437 0.06463 0.0
O222 O 0.49263 0.69871 0.10311 0.0
O223 O 0.48928 0.77875 0.05025 0.0
C224 C 0.94269 -0.00459 0.78075 0.0
O225 O 0.95745 0.97458 0.76254 0.0
Cd226 Cd 0.92897 0.95752 0.71286 0.0
O227 O 0.915 0.00723 0.7719 0.0
Cd228 Cd 0.87394 0.00743 0.72717 0.0
C229 C 0.85349 0.93061 0.74405 0.0
O230 O 0.9102 0.00347 0.68076 0.0
O231 O 0.85829 -0.00857 0.67163 0.0
O232 O 0.8783 0.06592 0.73272 0.0
C233 C 0.88691 -0.00198 0.66025 0.0
O234 O 0.8819 0.92416 0.73159 0.0
C235 C 0.8472 0.07067 0.73212 0.0
O236 O 0.84369 0.96 0.74729 0.0
O237 O 0.82832 0.04565 0.73021 0.0
C238 C 0.78311 0.0439 0.47942 0.0
O239 O 0.76159 0.03093 0.49824 0.0
Cd240 Cd 0.71001 0.05713 0.51506 0.0
O241 O 0.77983 0.07329 0.47 0.0
Cd242 Cd 0.74206 0.12035 0.48056 0.0
C243 C 0.73997 0.11809 0.56416 0.0
O244 O 0.68918 0.09364 0.47392 0.0
O245 O 0.6886 0.14067 0.49919 0.0
O246 O 0.73705 0.14673 0.4285 0.0
C247 C 0.67239 0.11709 0.48633 0.0
O248 O 0.72163 0.09261 0.5626 0.0
C249 C 0.75574 0.17103 0.4351 0.0
O250 O 0.75296 0.13037 0.5384 0.0
O251 O 0.77027 0.17146 0.46283 0.0
C252 C 0.55655 0.98798 0.28633 0.0
O253 O 0.53577 -0.00303 0.26488 0.0
Cd254 Cd 0.55775 0.01095 0.21038 0.0
O255 O 0.58719 0.98571 0.27902 0.0
Cd256 Cd 0.63227 0.98975 0.2397 0.0
C257 C 0.61256 0.06957 0.23909 0.0
O258 O 0.60104 0.97379 0.19295 0.0
O259 O 0.64918 -0.00466 0.18259 0.0
O260 O 0.64291 0.94016 0.26561 0.0
C261 C 0.62216 0.98333 0.17167 0.0
O262 O 0.58718 0.06264 0.22148 0.0
C263 C 0.6744 0.94198 0.26497 0.0
O264 O 0.63126 0.04757 0.2508 0.0
O265 O 0.68767 0.96753 0.25294 0.0
C266 C 0.78002 0.91469 -0.00163 0.0
O267 O 0.76192 0.93175 0.97982 0.0
Cd268 Cd 0.70295 0.92625 0.97193 0.0
O269 O 0.76757 0.89194 0.01563 0.0
Cd270 Cd 0.71208 0.86612 0.02398 0.0
C271 C 0.70814 0.84846 0.9406 0.0
O272 O 0.67922 0.91434 0.02462 0.0
O273 O 0.65105 0.86938 0.02334 0.0
O274 O 0.72903 0.86357 0.08085 0.0
C275 C 0.65099 0.90037 0.0238 0.0
O276 O 0.70136 0.8783 0.93547 0.0
C277 C 0.72444 0.83302 0.0835 0.0
O278 O 0.71431 0.8385 0.96961 0.0
O279 O 0.71306 0.81766 0.05841 0.0
C280 C 0.28701 0.55602 0.97714 0.0
O281 O 0.26347 0.53927 0.98952 0.0
Cd282 Cd 0.20984 0.56219 0.00406 0.0
O283 O 0.28418 0.58678 0.97356 0.0
Cd284 Cd 0.24476 0.63205 0.98416 0.0
C285 C 0.23418 0.61636 0.06463 0.0
O286 O 0.19612 0.60394 0.966 0.0
O287 O 0.18694 0.64756 -0.00517 0.0
O288 O 0.25871 0.65681 0.93306 0.0
C289 C 0.17514 0.6236 0.97843 0.0
O290 O 0.21533 0.59253 0.05616 0.0
C291 C 0.26482 0.68522 0.94451 0.0
O292 O 0.2514 0.63207 0.0436 0.0
O293 O 0.26316 0.68948 0.97556 0.0
C294 C 0.05474 0.48329 0.78027 0.0
O295 O 0.03662 0.49793 0.75977 0.0
Cd296 Cd 0.06061 0.51564 0.7084 0.0
O297 O 0.08546 0.47842 0.7743 0.0
Cd298 Cd 0.1301 0.48723 0.73404 0.0
C299 C 0.11698 0.56825 0.74256 0.0
O300 O 0.0971 0.47269 0.68876 0.0
O301 O 0.14254 0.49796 0.67564 0.0
O302 O 0.14971 0.43442 0.74704 0.0
C303 C 0.11703 0.48188 0.66646 0.0
O304 O 0.09179 0.56563 0.72372 0.0
C305 C 0.18005 0.44236 0.75046 0.0
O306 O 0.13307 0.54326 0.75139 0.0
O307 O 0.18806 0.47222 0.74713 0.0
C308 C 0.28329 0.41564 0.50258 0.0
O309 O 0.26577 0.43323 0.48401 0.0
Cd310 Cd 0.20685 0.42831 0.47434 0.0
O311 O 0.27023 0.39261 0.51904 0.0
Cd312 Cd 0.2138 0.36778 0.52507 0.0
C313 C 0.2114 0.35145 0.44127 0.0
O314 O 0.18003 0.41578 0.52565 0.0
O315 O 0.15335 0.36993 0.52269 0.0
O316 O 0.22748 0.36371 0.58265 0.0
C317 C 0.15229 0.40087 0.52375 0.0
O318 O 0.20544 0.3815 0.43642 0.0
C319 C 0.22214 0.33317 0.58427 0.0
O320 O 0.21665 0.34094 0.47026 0.0
O321 O 0.21228 0.31855 0.55814 0.0
C322 C 0.45056 0.49474 0.27918 0.0
O323 O 0.46664 0.47744 0.25841 0.0
Cd324 Cd 0.43951 0.4651 0.20556 0.0
O325 O 0.42121 0.5038 0.27294 0.0
Cd326 Cd 0.37591 0.50328 0.23433 0.0
C327 C 0.37048 0.42088 0.22979 0.0
O328 O 0.40801 0.51077 0.18571 0.0
O329 O 0.35644 0.49663 0.17804 0.0
O330 O 0.37024 0.5611 0.24357 0.0
C331 C 0.3844 0.50452 0.16573 0.0
O332 O 0.39764 0.42215 0.21345 0.0
C333 C 0.34178 0.55935 0.25701 0.0
O334 O 0.35829 0.4464 0.24358 0.0
O335 O 0.32868 0.53109 0.25976 0.0
O336 O 0.94111 0.04055 0.92923 0.0
Mg337 Mg 0.92471 0.0437 0.97888 0.0
O338 O 0.9794 0.00245 0.93652 0.0
Mg339 Mg 0.98787 -0.00463 -0.0071 0.0
O340 O 0.96623 0.04492 0.00678 0.0
O341 O 0.93123 0.08633 0.00697 0.0
O342 O -0.00344 0.98924 0.0497 0.0
O343 O 0.03801 0.02305 0.98746 0.0
Mg344 Mg 0.04845 0.94818 0.01139 0.0
O345 O 0.01082 0.9463 0.97801 0.0
O346 O 0.02688 0.94529 0.05854 0.0
O347 O 0.07896 0.99015 0.00227 0.0
O348 O 0.04838 0.90695 0.98112 0.0
C349 C 0.90586 0.97488 -0.00044 0.0
C350 C 0.96256 0.02072 0.91767 0.0
C351 C 0.95842 0.07377 0.01743 0.0
C352 C 0.00893 0.96846 0.06927 0.0
C353 C 0.06874 0.01764 -0.00749 0.0
C354 C 0.02186 0.91827 0.96786 0.0
O355 O 0.89571 0.00375 -0.00488 0.0
O356 O 0.93672 0.96753 -0.00201 0.0
O357 O 0.21169 0.74714 0.31334 0.0
Mg358 Mg 0.21688 0.70561 0.28199 0.0
O359 O 0.24951 0.77637 0.28705 0.0
Mg360 Mg 0.24805 0.74489 0.23962 0.0
O361 O 0.26315 0.69578 0.26578 0.0
O362 O 0.23667 0.66759 0.30534 0.0
O363 O 0.24515 0.70889 0.19453 0.0
O364 O 0.30556 0.75051 0.23284 0.0
Mg365 Mg 0.25445 0.77038 0.17451 0.0
O366 O 0.23776 0.79503 0.21508 0.0
O367 O 0.21976 0.73576 0.15615 0.0
O368 O 0.30541 0.75727 0.1788 0.0
O369 O 0.24474 0.81823 0.16586 0.0
C370 C 0.16835 0.71868 0.2421 0.0
C371 C 0.22985 0.77251 0.31141 0.0
C372 C 0.26181 0.67121 0.28579 0.0
C373 C 0.22836 0.70889 0.1681 0.0
C374 C 0.32105 0.75241 0.20538 0.0
C375 C 0.23513 0.82024 0.19622 0.0
O376 O 0.17937 0.69093 0.24885 0.0
O377 O 0.18876 0.74274 0.24287 0.0
O378 O 0.56778 0.97592 0.44125 0.0
Mg379 Mg 0.57923 0.97317 0.4929 0.0
O380 O 0.51396 0.98943 0.44221 0.0
Mg381 Mg 0.49871 -0.0046 0.49709 0.0
O382 O 0.53558 0.95806 0.51045 0.0
O383 O 0.57863 0.92624 0.51472 0.0
O384 O 0.48428 0.00268 0.55282 0.0
O385 O 0.46175 0.95217 0.49005 0.0
Mg386 Mg 0.41917 0.02149 0.50527 0.0
O387 O 0.46153 0.03219 0.482 0.0
O388 O 0.43487 0.02761 0.55471 0.0
O389 O 0.41035 0.97263 0.48989 0.0
O390 O 0.41739 0.06194 0.47338 0.0
C391 C 0.56557 0.04244 0.51434 0.0
C392 C 0.54061 0.98214 0.42648 0.0
C393 C 0.54709 0.93026 0.51845 0.0
C394 C 0.4609 0.01719 0.56872 0.0
C395 C 0.4304 0.94887 0.48676 0.0
C396 C 0.4486 0.05703 0.46836 0.0
O397 O 0.58499 0.01852 0.51862 0.0
O398 O 0.53622 0.03835 0.50308 0.0
O399 O 0.33054 0.23479 0.7592 0.0
Mg400 Mg 0.31222 0.21632 0.71329 0.0
O401 O 0.28409 0.24536 0.78817 0.0
Mg402 Mg 0.24032 0.23969 0.7524 0.0
O403 O 0.27302 0.24512 0.70957 0.0
O404 O 0.30934 0.24498 0.66956 0.0
O405 O 0.19754 0.23655 0.7164 0.0
O406 O 0.23452 0.29622 0.75569 0.0
Mg407 Mg 0.16585 0.261 0.78923 0.0
O408 O 0.20655 0.2345 0.79394 0.0
O409 O 0.14868 0.24391 0.74195 0.0
O410 O 0.18911 0.30773 0.78598 0.0
O411 O 0.17168 0.23623 0.83506 0.0
C412 C 0.26328 0.16172 0.7338 0.0
C413 C 0.31565 0.24378 0.7856 0.0
C414 C 0.28164 0.25554 0.68138 0.0
C415 C 0.16597 0.23763 0.71619 0.0
C416 C 0.21543 0.31653 0.77072 0.0
C417 C 0.20011 0.22725 0.82359 0.0
O418 O 0.28824 0.16993 0.71625 0.0
O419 O 0.24581 0.18266 0.74991 0.0
O420 O 0.02019 0.91098 0.49593 0.0
Mg421 Mg 0.0163 0.93417 0.54302 0.0
O422 O 0.00097 0.9489 0.46193 0.0
Mg423 Mg -0.00607 -0.00477 0.49359 0.0
O424 O 0.97877 0.96482 0.53552 0.0
O425 O 0.97451 0.92871 0.57453 0.0
O426 O -0.01153 0.04164 0.52598 0.0
O427 O 0.93656 -0.00177 0.4798 0.0
Mg428 Mg 0.97402 0.05867 0.4466 0.0
O429 O 0.00976 0.02513 0.45128 0.0
O430 O 0.97383 0.08251 0.49334 0.0
O431 O 0.92998 0.03123 0.43736 0.0
O432 O 0.01418 0.06198 0.41296 0.0
C433 C 0.06902 0.98275 0.53055 0.0
C434 C 0.01271 0.92053 0.46719 0.0
C435 C 0.96193 0.95303 0.55938 0.0
C436 C 0.98016 0.07131 0.52168 0.0
C437 C 0.91809 0.01093 0.45776 0.0
C438 C 0.02616 0.03664 0.4269 0.0
O439 O 0.05693 0.96616 0.55399 0.0
O440 O 0.05055 -0.00804 0.50687 0.0
O441 O 0.29308 0.7043 0.80983 0.0
Mg442 Mg 0.28346 0.67704 0.76589 0.0
O443 O 0.25569 0.74362 0.80274 0.0
Mg444 Mg 0.24168 0.74583 0.74651 0.0
O445 O 0.28255 0.71256 0.73267 0.0
O446 O 0.31955 0.6739 0.72754 0.0
O447 O 0.22967 0.74871 0.69059 0.0
O448 O 0.27707 0.78956 0.73895 0.0
Mg449 Mg 0.19606 0.80951 0.72288 0.0
O450 O 0.20022 0.77914 0.76075 0.0
O451 O 0.1841 0.7776 0.68259 0.0
O452 O 0.24515 0.82897 0.7187 0.0
O453 O 0.163 0.81794 0.7631 0.0
C454 C 0.20713 0.67165 0.7583 0.0
C455 C 0.27658 0.72863 0.82075 0.0
C456 C 0.30816 0.70133 0.71765 0.0
C457 C 0.2071 0.75927 0.67149 0.0
C458 C 0.27354 0.81765 0.72617 0.0
C459 C 0.17575 0.79248 0.7761 0.0
O460 O 0.23445 0.65733 0.764 0.0
O461 O 0.20573 0.7019 0.75141 0.0
O462 O 0.4599 0.95048 0.06565 0.0
Mg463 Mg 0.46212 0.00053 0.08203 0.0
O464 O 0.48273 0.95213 0.01519 0.0
Mg465 Mg 0.49157 0.00644 0.00336 0.0
O466 O 0.45309 0.02061 0.03896 0.0
O467 O 0.41806 0.029 0.07945 0.0
O468 O 0.49873 0.06155 -0.00788 0.0
O469 O 0.45158 0.00054 0.96285 0.0
Mg470 Mg 0.52765 0.01951 0.92794 0.0
O471 O 0.53102 -0.00703 0.96829 0.0
O472 O 0.53141 0.06798 0.94794 0.0
O473 O 0.47839 0.00576 0.91455 0.0
O474 O 0.56785 0.98524 0.92941 0.0
C475 C 0.53556 0.0162 0.07361 0.0
C476 C 0.46934 0.93646 0.03888 0.0
C477 C 0.42532 0.03207 0.04875 0.0
C478 C 0.51542 0.07962 0.97257 0.0
C479 C 0.45216 0.00014 0.93139 0.0
C480 C 0.55702 0.97814 0.95828 0.0
O481 O 0.51066 0.01853 0.09294 0.0
O482 O 0.53241 0.00973 0.04295 0.0
O483 O 0.22681 0.24336 0.17187 0.0
Mg484 Mg 0.22879 0.28373 0.20619 0.0
O485 O 0.25851 0.21356 0.20353 0.0
Mg486 Mg 0.24854 0.24139 0.25289 0.0
O487 O 0.27089 0.29148 0.23366 0.0
O488 O 0.25656 0.32152 0.18999 0.0
O489 O 0.2373 0.26773 0.30398 0.0
O490 O 0.30381 0.23239 0.26729 0.0
Mg491 Mg 0.25588 0.18973 0.31525 0.0
O492 O 0.23173 0.19313 0.27202 0.0
O493 O 0.23759 0.23002 0.34309 0.0
O494 O 0.30737 0.1923 0.30342 0.0
O495 O 0.22521 0.14961 0.30246 0.0
C496 C 0.17205 0.27008 0.23481 0.0
C497 C 0.24372 0.21785 0.17631 0.0
C498 C 0.27592 0.31639 0.2146 0.0
C499 C 0.23312 0.25929 0.33406 0.0
C500 C 0.3211 0.21308 0.28465 0.0
C501 C 0.2178 0.16517 0.27623 0.0
O502 O 0.18442 0.29795 0.22992 0.0
O503 O 0.19173 0.24625 0.239 0.0
O504 O 0.43844 0.55063 0.95299 0.0
Mg505 Mg 0.48607 0.5702 0.96593 0.0
O506 O 0.43871 0.50553 0.98321 0.0
Mg507 Mg 0.49276 0.49593 0.00236 0.0
O508 O 0.51429 0.53015 0.96636 0.0
O509 O 0.52725 0.56967 0.933 0.0
O510 O 0.54644 0.48719 0.02143 0.0
O511 O 0.50074 0.45345 0.96457 0.0
Mg512 Mg 0.50302 0.42544 0.04305 0.0
O513 O 0.47035 0.4616 0.0385 0.0
O514 O 0.54625 0.45021 0.06097 0.0
O515 O 0.51028 0.40872 -0.00607 0.0
O516 O 0.4586 0.42101 0.07121 0.0
C517 C 0.48714 0.56936 0.04119 0.0
C518 C 0.42362 0.52575 0.9648 0.0
C519 C 0.53241 0.54035 0.94263 0.0
C520 C 0.56135 0.47175 0.04411 0.0
C521 C 0.50886 0.42341 0.96658 0.0
C522 C 0.45088 0.44925 0.0602 0.0
O523 O 0.48774 0.58642 0.01532 0.0
O524 O 0.4882 0.53823 0.04046 0.0
O525 O 0.78747 0.19618 0.29972 0.0
Mg526 Mg 0.77662 0.17164 0.25436 0.0
O527 O 0.75205 0.23735 0.29361 0.0
Mg528 Mg 0.74092 0.24423 0.23743 0.0
O529 O 0.77925 0.20842 0.22272 0.0
O530 O 0.81304 0.16715 0.21643 0.0
O531 O 0.73044 0.25155 0.18172 0.0
O532 O 0.7801 0.28481 0.23528 0.0
Mg533 Mg 0.70418 0.31741 0.22091 0.0
O534 O 0.70274 0.28018 0.25183 0.0
O535 O 0.69512 0.29274 0.17488 0.0
O536 O 0.75493 0.33239 0.22569 0.0
O537 O 0.6684 0.32051 0.26029 0.0
C538 C 0.70024 0.17307 0.24442 0.0
C539 C 0.77151 0.22049 0.31145 0.0
C540 C 0.80408 0.19579 0.20754 0.0
C541 C 0.71174 0.26865 0.16345 0.0
C542 C 0.78088 0.31549 0.23055 0.0
C543 C 0.67888 0.2923 0.26881 0.0
O544 O 0.7261 0.15648 0.25045 0.0
O545 O 0.70123 0.20359 0.23878 0.0
O546 O 0.93414 0.4498 0.53554 0.0
Mg547 Mg 0.94904 0.49006 0.56514 0.0
O548 O 0.98139 0.44856 0.50721 0.0
Mg549 Mg -0.00889 0.50388 0.49531 0.0
O550 O 0.95149 0.52109 0.52872 0.0
O551 O 0.91563 0.53008 0.56839 0.0
O552 O -0.00011 0.55836 0.48423 0.0
O553 O 0.95386 0.49846 0.45315 0.0
Mg554 Mg 0.03154 0.51606 0.42197 0.0
O555 O 0.03238 0.48974 0.46263 0.0
O556 O 0.03514 0.56442 0.44205 0.0
O557 O 0.98291 0.50266 0.40607 0.0
O558 O 0.0714 0.4819 0.42585 0.0
C559 C 0.0272 0.49612 0.56613 0.0
C560 C 0.95641 0.43384 0.52015 0.0
C561 C 0.92646 0.53709 0.53945 0.0
C562 C 0.01799 0.57621 0.4658 0.0
C563 C 0.95588 0.49767 0.42184 0.0
C564 C 0.05906 0.47515 0.45423 0.0
O565 O -2e-05 0.48792 0.58012 0.0
O566 O 0.0287 0.50642 0.53677 0.0
O567 O 0.67055 0.79668 0.27215 0.0
Mg568 Mg 0.6539 0.74687 0.2737 0.0
O569 O 0.72401 0.79292 0.25637 0.0
Mg570 Mg 0.73498 0.73803 0.25046 0.0
O571 O 0.69659 0.72771 0.28772 0.0
O572 O 0.65439 0.72642 0.32169 0.0
O573 O 0.74495 0.6821 0.2455 0.0
O574 O 0.77388 0.74466 0.29202 0.0
Mg575 Mg 0.81248 0.72158 0.21953 0.0
O576 O 0.77254 0.7488 0.21234 0.0
O577 O 0.79124 0.67398 0.21572 0.0
O578 O 0.82381 0.73655 0.26856 0.0
O579 O 0.8143 0.75327 0.17809 0.0
C580 C 0.66697 0.72567 0.20339 0.0
C581 C 0.6988 0.80963 0.26562 0.0
C582 C 0.68576 0.72236 0.31675 0.0
C583 C 0.76514 0.66333 0.22996 0.0
C584 C 0.80558 0.74373 0.29337 0.0
C585 C 0.7845 0.76138 0.18623 0.0
O586 O 0.6462 0.72325 0.22701 0.0
O587 O 0.69728 0.73365 0.20821 0.0
O588 O 0.74746 0.25367 0.83573 0.0
Mg589 Mg 0.74155 0.20606 0.81578 0.0
O590 O 0.74794 0.28145 0.78891 0.0
Mg591 Mg 0.74979 0.24619 0.7439 0.0
O592 O 0.76793 0.20548 0.77412 0.0
O593 O 0.77825 0.16973 0.81245 0.0
O594 O 0.74844 0.21121 0.69727 0.0
O595 O 0.80562 0.25908 0.73455 0.0
Mg596 Mg 0.76068 0.28839 0.67363 0.0
O597 O 0.7341 0.28918 0.71536 0.0
O598 O 0.74571 0.24318 0.65323 0.0
O599 O 0.81079 0.29042 0.69039 0.0
O600 O 0.72879 0.32867 0.68002 0.0
C601 C 0.67864 0.21201 0.77319 0.0
C602 C 0.74705 0.28042 0.82027 0.0
C603 C 0.78373 0.18016 0.78317 0.0
C604 C 0.74439 0.21515 0.66628 0.0
C605 C 0.82346 0.27582 0.71473 0.0
C606 C 0.72131 0.31672 0.70825 0.0
O607 O 0.69326 0.1978 0.7967 0.0
O608 O 0.69403 0.23169 0.75398 0.0
O609 O 0.79225 0.73634 0.67616 0.0
Mg610 Mg 0.75824 0.77102 0.69501 0.0
O611 O 0.75302 0.71022 0.702 0.0
Mg612 Mg 0.7438 0.74083 0.75089 0.0
O613 O 0.76651 0.79314 0.73937 0.0
O614 O 0.77388 0.81765 0.69055 0.0
O615 O 0.73197 0.766 0.80234 0.0
O616 O 0.79845 0.72996 0.76448 0.0
Mg617 Mg 0.75238 0.69034 0.8081 0.0
O618 O 0.72354 0.69066 0.76634 0.0
O619 O 0.73636 0.72802 0.84047 0.0
O620 O 0.80413 0.68817 0.79742 0.0
O621 O 0.7229 0.64953 0.80166 0.0
C622 C 0.68414 0.76135 0.70237 0.0
C623 C 0.7752 0.71061 0.67954 0.0
C624 C 0.77565 0.81832 0.72227 0.0
C625 C 0.73003 0.75715 0.83243 0.0
C626 C 0.81694 0.71006 0.77953 0.0
C627 C 0.71209 0.66238 0.77502 0.0
O628 O 0.70776 0.76632 0.68222 0.0
O629 O 0.6904 0.75369 0.73214 0.0
O630 O 0.5841 0.48804 0.48028 0.0
Mg631 Mg 0.55598 0.44967 0.50088 0.0
O632 O 0.54218 0.52284 0.4835 0.0
Mg633 Mg 0.49206 0.49423 0.49165 0.0
O634 O 0.5126 0.44366 0.47612 0.0
O635 O 0.55211 0.40563 0.47665 0.0
O636 O 0.4408 0.46652 0.4992 0.0
O637 O 0.48261 0.50069 0.43551 0.0
Mg638 Mg 0.4304 0.54095 0.4777 0.0
O639 O 0.47154 0.54484 0.50669 0.0
O640 O 0.39997 0.50254 0.49467 0.0
O641 O 0.44514 0.53914 0.42757 0.0
O642 O 0.43372 0.58418 0.50415 0.0
C643 C 0.52267 0.46972 0.56465 0.0
C644 C 0.57282 0.51674 0.47794 0.0
C645 C 0.52331 0.4151 0.46689 0.0
C646 C 0.40994 0.47394 0.50058 0.0
C647 C 0.46625 0.51889 0.41629 0.0
C648 C 0.46123 0.57351 0.51597 0.0
O649 O 0.54471 0.45183 0.55131 0.0
O650 O 0.50325 0.48732 0.54766 0.0
O651 O 0.06343 0.46164 0.93104 0.0
Mg652 Mg 0.07838 0.46078 0.98136 0.0
O653 O 0.01388 0.48585 0.93534 0.0
Mg654 Mg 0.0033 0.49367 -0.00882 0.0
O655 O 0.03464 0.45069 0.00337 0.0
O656 O 0.07607 0.41617 0.00645 0.0
O657 O -0.00419 0.49775 0.04891 0.0
O658 O 0.95972 0.45809 0.9861 0.0
Mg659 Mg 0.94918 0.52882 0.01858 0.0
O660 O 0.97246 0.53898 0.97566 0.0
O661 O 0.97888 0.54757 0.05688 0.0
O662 O 0.92549 0.48191 0.0216 0.0
O663 O 0.92557 0.56359 -0.00747 0.0
C664 C 0.07714 0.53177 0.00137 0.0
C665 C 0.03706 0.47269 0.91808 0.0
C666 C 0.04547 0.42299 0.01286 0.0
C667 C -0.00914 0.52196 0.06849 0.0
C668 C 0.93333 0.45762 0.00341 0.0
C669 C 0.95048 0.56184 0.97237 0.0
O670 O 0.095 0.50631 0.00191 0.0
O671 O 0.0462 0.53035 -0.00471 0.0
C672 C -0.00922 0.11386 0.09447 0.0
C673 C -5e-05 0.14465 0.08212 0.0
H674 H 0.9706 0.06621 0.08292 0.0
C675 C 0.00265 0.14834 0.04786 0.0
H676 H -0.01134 0.11016 0.12076 0.0
C677 C -0.00737 0.12317 0.02645 0.0
C678 C 0.98006 0.09377 0.03884 0.0
H679 H 0.0102 0.17149 0.03753 0.0
H680 H -0.00786 0.12766 0.00021 0.0
C681 C 0.98069 0.08858 0.07289 0.0
C682 C 0.09057 0.757 0.27475 0.0
C683 C 0.07082 0.72906 0.27952 0.0
H684 H 0.13704 0.77598 0.25741 0.0
C685 C 0.07989 0.69944 0.2644 0.0
H686 H 0.08392 0.78004 0.28646 0.0
C687 C 0.11039 0.69698 0.24783 0.0
C688 C 0.13224 0.72405 0.2466 0.0
H689 H 0.065 0.6776 0.26804 0.0
H690 H 0.11827 0.67314 0.23894 0.0
C691 C 0.12095 0.75463 0.25804 0.0
C692 C 0.51642 0.84389 0.52399 0.0
C693 C 0.49448 0.84605 0.55094 0.0
H694 H 0.55089 0.8693 0.49315 0.0
C695 C 0.48541 0.87713 0.56324 0.0
H696 H 0.52369 0.82039 0.51373 0.0
C697 C 0.50066 0.90533 0.5509 0.0
C698 C 0.52556 0.90248 0.52677 0.0
H699 H 0.46828 0.87951 0.58382 0.0
H700 H 0.49489 0.92891 0.56194 0.0
C701 C 0.53223 0.87184 0.51238 0.0
C702 C 0.38294 0.24424 0.84636 0.0
C703 C 0.39933 0.27285 0.83614 0.0
H704 H 0.34129 0.21219 0.83781 0.0
C705 C 0.38171 0.29616 0.81848 0.0
H706 H 0.39592 0.22608 0.86042 0.0
C707 C 0.35019 0.28852 0.80644 0.0
C708 C 0.33651 0.25743 0.81164 0.0
H709 H 0.39365 0.31869 0.81094 0.0
H710 H 0.33867 0.30506 0.7894 0.0
C711 C 0.35163 0.23632 0.83369 0.0
C712 C 0.04 0.84618 0.41909 0.0
C713 C 0.02558 0.85154 0.38832 0.0
H714 H 0.04716 0.86378 0.46814 0.0
C715 C 0.01 0.88136 0.38227 0.0
H716 H 0.05224 0.82331 0.4242 0.0
C717 C 0.00638 0.90442 0.40773 0.0
C718 C 0.01873 0.89798 0.43927 0.0
H719 H -0.00163 0.88578 0.35876 0.0
H720 H -0.00743 0.92646 0.40309 0.0
C721 C 0.03668 0.8692 0.44432 0.0
C722 C 0.37447 0.75955 0.69566 0.0
C723 C 0.38779 0.74342 0.66796 0.0
H724 H 0.33653 0.75891 0.73273 0.0
C725 C 0.36911 0.71908 0.65164 0.0
H726 H 0.38881 0.77817 0.70868 0.0
C727 C 0.33958 0.70766 0.66574 0.0
C728 C 0.32829 0.72125 0.69562 0.0
H729 H 0.37931 0.70621 0.63038 0.0
H730 H 0.32755 0.68615 0.65522 0.0
C731 C 0.34447 0.74875 0.7092 0.0
C732 C 0.53589 0.16754 0.96047 0.0
C733 C 0.50461 0.17871 0.95052 0.0
H734 H 0.56401 0.12606 0.97535 0.0
C735 C 0.4762 0.15953 0.95674 0.0
H736 H 0.55818 0.18189 0.956 0.0
C737 C 0.4795 0.12802 0.96896 0.0
C738 C 0.51128 0.11516 0.97407 0.0
H739 H 0.45179 0.16775 0.94945 0.0
H740 H 0.45759 0.11249 0.9706 0.0
C741 C 0.53929 0.13563 0.97157 0.0
C742 C 0.08463 0.28555 0.20664 0.0
C743 C 0.08061 0.25989 0.18362 0.0
H744 H 0.11746 0.30902 0.24142 0.0
C745 C 0.10437 0.23504 0.18172 0.0
H746 H 0.06635 0.30482 0.20858 0.0
C747 C 0.13266 0.23662 0.20146 0.0
C748 C 0.13819 0.26372 0.22251 0.0
H749 H 0.1014 0.21477 0.16443 0.0
H750 H 0.15139 0.2179 0.19829 0.0
C751 C 0.11358 0.28778 0.22557 0.0
C752 C 0.03937 0.01093 0.1445 0.0
C753 C 0.0436 0.98421 0.1652 0.0
H754 H 0.02247 0.02714 0.09772 0.0
C755 C 0.02797 0.95436 0.15752 0.0
H756 H 0.05108 0.03426 0.15031 0.0
C757 C 0.01213 0.95007 0.12715 0.0
C758 C 0.01113 0.97587 0.10473 0.0
H759 H 0.03093 0.93353 0.17334 0.0
H760 H 0.00352 0.92586 0.11989 0.0
C761 C 0.02263 0.00695 0.11465 0.0
C762 C 0.23218 0.8522 0.36011 0.0
C763 C 0.22473 0.84102 0.39192 0.0
H764 H 0.24036 0.83887 0.30926 0.0
C765 C 0.21846 0.80765 0.39655 0.0
H766 H 0.23738 0.87782 0.35597 0.0
C767 C 0.22016 0.78572 0.3702 0.0
C768 C 0.22846 0.79656 0.3386 0.0
H769 H 0.21275 0.79827 0.42076 0.0
H770 H 0.2156 0.76006 0.37475 0.0
C771 C 0.23432 0.82998 0.33357 0.0
C772 C 0.44074 0.05287 0.65127 0.0
C773 C 0.44155 0.02488 0.67062 0.0
H774 H 0.44746 0.07233 0.60315 0.0
C775 C 0.4572 -0.00343 0.65813 0.0
H776 H 0.42918 0.07507 0.66048 0.0
C777 C 0.46754 -0.00507 0.62514 0.0
C778 C 0.46241 0.02166 0.60467 0.0
H779 H 0.45809 0.9746 0.67262 0.0
H780 H 0.47611 0.97184 0.61491 0.0
C781 C 0.45114 0.05127 0.61851 0.0
C782 C 0.25333 0.16616 0.86495 0.0
C783 C 0.25931 0.18281 0.89502 0.0
H784 H 0.22843 0.16769 0.81833 0.0
C785 C 0.25302 0.21643 0.8975 0.0
H786 H 0.25841 0.1403 0.86214 0.0
C787 C 0.23554 0.23169 0.87268 0.0
C788 C 0.22521 0.21366 0.84493 0.0
H789 H 0.25816 0.23002 0.92007 0.0
H790 H 0.22801 0.25687 0.87623 0.0
C791 C 0.23607 0.18161 0.83996 0.0
C792 C 0.09838 0.03061 0.37211 0.0
C793 C 0.08865 0.00224 0.35482 0.0
H794 H 0.08537 0.06415 0.41093 0.0
C795 C 0.06724 0.97976 0.37002 0.0
H796 H 0.11496 0.04819 0.36075 0.0
C797 C 0.05061 0.98873 0.39905 0.0
C798 C 0.05506 0.0203 0.41226 0.0
H799 H 0.05941 0.95773 0.35695 0.0
H800 H 0.03041 0.97342 0.4076 0.0
C801 C 0.08137 0.03979 0.40077 0.0
C802 C 0.19502 0.78206 0.58375 0.0
C803 C 0.22699 0.79432 0.57682 0.0
H804 H 0.16333 0.76034 0.62013 0.0
C805 C 0.25347 0.78646 0.59753 0.0
H806 H 0.17426 0.78754 0.5679 0.0
C807 C 0.24747 0.76969 0.62665 0.0
C808 C 0.21468 0.76176 0.63605 0.0
H809 H 0.27845 0.7952 0.59234 0.0
H810 H 0.26797 0.7666 0.64353 0.0
C811 C 0.18879 0.76625 0.61347 0.0
C812 C 0.41499 0.94978 0.86772 0.0
C813 C 0.4008 0.97466 0.84924 0.0
H814 H 0.44075 0.93842 0.91189 0.0
C815 C 0.39243 0.00439 0.86485 0.0
H816 H 0.42092 0.92638 0.85636 0.0
C817 C 0.40416 0.01138 0.89654 0.0
C818 C 0.42353 0.98836 0.91269 0.0
H819 H 0.38093 0.02377 0.85117 0.0
H820 H 0.40221 0.03612 0.90625 0.0
C821 C 0.42584 0.9565 0.89967 0.0
C822 C 0.2163 0.15307 0.11489 0.0
C823 C 0.24421 0.15117 0.094 0.0
H824 H 0.19426 0.1765 0.15735 0.0
C825 C 0.27299 0.16928 0.10206 0.0
H826 H 0.19378 0.1395 0.10904 0.0
C827 C 0.27355 0.18968 0.1301 0.0
C828 C 0.24506 0.19285 0.14992 0.0
H829 H 0.29485 0.16803 0.08637 0.0
H830 H 0.2957 0.20402 0.1355 0.0
C831 C 0.21656 0.17418 0.14238 0.0
C832 C 0.13747 0.07807 0.01006 0.0
C833 C 0.14695 0.08683 0.97812 0.0
H834 H 0.10505 0.0485 0.03952 0.0
C835 C 0.12838 0.07544 0.95105 0.0
H836 H 0.15193 0.08628 0.03114 0.0
C837 C 0.1012 0.05441 0.95589 0.0
C838 C 0.09318 0.04392 0.9877 0.0
H839 H 0.13574 0.08167 0.9262 0.0
H840 H 0.08776 0.04484 0.93472 0.0
C841 C 0.11095 0.05641 0.01481 0.0
C842 C 0.64796 0.46812 0.01077 0.0
C843 C 0.66174 0.44652 0.03326 0.0
H844 H 0.60455 0.49443 -0.00287 0.0
C845 C 0.64594 0.4416 0.06362 0.0
H846 H 0.65985 0.47201 0.98712 0.0
C847 C 0.61448 0.45459 0.06961 0.0
C848 C 0.59815 0.47184 0.04484 0.0
H849 H 0.65641 0.42505 0.08129 0.0
H850 H 0.60148 0.44782 0.09196 0.0
C851 C 0.61626 0.48091 0.01659 0.0
C852 C 0.84713 0.37407 0.255 0.0
C853 C 0.86075 0.38124 0.22406 0.0
H854 H 0.81059 0.34641 0.28131 0.0
C855 C 0.85299 0.36165 0.19655 0.0
H856 H 0.85299 0.38921 0.27641 0.0
C857 C 0.82882 0.33713 0.19943 0.0
C858 C 0.81274 0.33238 0.22978 0.0
H859 H 0.86321 0.36719 0.17251 0.0
H860 H 0.82069 0.32388 0.17754 0.0
C861 C 0.82308 0.34973 0.25785 0.0
C862 C 0.86092 0.5485 0.47767 0.0
C863 C 0.84601 0.57688 0.4903 0.0
H864 H 0.89991 0.51411 0.48343 0.0
C865 C 0.86299 0.59647 0.51358 0.0
H866 H 0.84799 0.53302 0.45991 0.0
C867 C 0.89232 0.58532 0.52755 0.0
C868 C 0.90537 0.55522 0.5173 0.0
H869 H 0.85159 0.6183 0.52388 0.0
H870 H 0.903 0.5986 0.5483 0.0
C871 C 0.8908 0.53794 0.49086 0.0
C872 C 0.18234 0.0993 0.22424 0.0
C873 C 0.14872 0.10166 0.23361 0.0
H874 H 0.23135 0.11946 0.2298 0.0
C875 C 0.13731 0.13098 0.2481 0.0
H876 H 0.19165 0.0773 0.21232 0.0
C877 C 0.16015 0.15519 0.25792 0.0
C878 C 0.19432 0.15037 0.25285 0.0
H879 H 0.11146 0.13364 0.25526 0.0
H880 H 0.1515 0.17571 0.27276 0.0
C881 C 0.20503 0.12355 0.23387 0.0
C882 C 0.36802 0.90155 0.44632 0.0
C883 C 0.35122 0.89177 0.47495 0.0
H884 H 0.41093 0.92602 0.42739 0.0
C885 C 0.36924 0.8878 0.5041 0.0
H886 H 0.35478 0.9038 0.42328 0.0
C887 C 0.4016 0.90041 0.50631 0.0
C888 C 0.41537 0.91706 0.47948 0.0
H889 H 0.35694 0.87961 0.52633 0.0
H890 H 0.41311 0.90238 0.53036 0.0
C891 C 0.4004 0.91372 0.44851 0.0
C892 C 0.77623 0.57645 0.20564 0.0
C893 C 0.78761 0.56456 0.23573 0.0
H894 H 0.75955 0.61868 0.18017 0.0
C895 C 0.78151 0.58256 0.26488 0.0
H896 H 0.78063 0.56294 0.18287 0.0
C897 C 0.76839 0.61398 0.26342 0.0
C898 C 0.76219 0.62783 0.23274 0.0
H899 H 0.78988 0.57366 0.2884 0.0
H900 H 0.76731 0.62881 0.28577 0.0
C901 C 0.76409 0.60826 0.20408 0.0
C902 C 0.70318 0.39246 0.75496 0.0
C903 C 0.6683 0.39176 0.75429 0.0
H904 H 0.74786 0.36732 0.74168 0.0
C905 C 0.65167 0.36212 0.74705 0.0
H906 H 0.71656 0.4148 0.76114 0.0
C907 C 0.66963 0.33502 0.73579 0.0
C908 C 0.70422 0.33733 0.73245 0.0
H909 H 0.62474 0.36085 0.74674 0.0
H910 H 0.65631 0.31367 0.72655 0.0
C911 C 0.72106 0.36527 0.74416 0.0
C912 C 0.98221 0.8452 0.92855 0.0
C913 C -0.00478 0.84706 0.89639 0.0
H914 H 0.98005 0.86746 0.97669 0.0
C915 C 0.01005 0.87662 0.88637 0.0
H916 H 0.97028 0.82302 0.937 0.0
C917 C 0.01534 0.90215 0.90917 0.0
C918 C 0.00543 0.89865 0.94208 0.0
H919 H 0.02013 0.87905 0.86172 0.0
H920 H 0.02976 0.92331 0.9018 0.0
C921 C 0.98749 0.87073 0.95125 0.0
C922 C 0.91031 0.243 0.72453 0.0
C923 C 0.92812 0.26442 0.70414 0.0
H924 H 0.86245 0.22995 0.74422 0.0
C925 C 0.91273 0.29294 0.69339 0.0
H926 H 0.92171 0.22084 0.73314 0.0
C927 C 0.87912 0.29823 0.69978 0.0
C928 C 0.86016 0.27497 0.71685 0.0
H929 H 0.92614 0.31012 0.67812 0.0
H930 H 0.86747 0.31942 0.68927 0.0
C931 C 0.87641 0.24824 0.73084 0.0
C932 C 0.50469 0.12817 0.45085 0.0
C933 C 0.49455 0.13593 0.41888 0.0
H934 H 0.49855 0.09562 0.49141 0.0
C935 C 0.47278 0.11463 0.40185 0.0
H936 H 0.52165 0.14406 0.46436 0.0
C937 C 0.45933 0.08744 0.41742 0.0
C938 C 0.46829 0.08058 0.4498 0.0
H939 H 0.46457 0.12 0.37716 0.0
H940 H 0.44088 0.07255 0.40468 0.0
C941 C 0.49183 0.10038 0.46613 0.0
C942 C 0.60856 0.71483 0.13338 0.0
C943 C 0.60691 0.74742 0.12334 0.0
H944 H 0.62964 0.68194 0.16796 0.0
C945 C 0.63113 0.76998 0.13373 0.0
H946 H 0.58967 0.69726 0.12575 0.0
C947 C 0.65461 0.7609 0.15692 0.0
C948 C 0.65319 0.7296 0.17052 0.0
H949 H 0.62986 0.7953 0.12647 0.0
H950 H 0.67101 0.77955 0.16721 0.0
C951 C 0.63128 0.70606 0.15745 0.0
C952 C 0.9602 0.14642 0.57132 0.0
C953 C 0.98484 0.14576 0.59568 0.0
H954 H 0.93941 0.12298 0.52879 0.0
C955 C 0.00406 0.11748 0.5991 0.0
H956 H 0.94448 0.16758 0.56854 0.0
C957 C 0.00093 0.09166 0.57627 0.0
C958 C 0.97874 0.09415 0.54985 0.0
H959 H 0.0231 0.11626 0.61783 0.0
H960 H 0.0175 0.071 0.57788 0.0
C961 C 0.95732 0.12093 0.54851 0.0
C962 C 0.63046 0.27246 0.34525 0.0
C963 C 0.61463 0.2434 0.33479 0.0
H964 H 0.66362 0.31144 0.33162 0.0
C965 C 0.62462 0.22804 0.30532 0.0
H966 H 0.6228 0.28486 0.3678 0.0
C967 C 0.64782 0.24308 0.28496 0.0
C968 C 0.66142 0.27351 0.29388 0.0
H969 H 0.61247 0.20577 0.29673 0.0
H970 H 0.65238 0.23256 0.2608 0.0
C971 C 0.6535 0.28773 0.32456 0.0
C972 C 0.44189 0.85189 0.06014 0.0
C973 C 0.46813 0.83347 0.04693 0.0
H974 H 0.42162 0.89948 0.06753 0.0
C975 C 0.49032 0.84788 0.02452 0.0
H976 H 0.42442 0.8411 0.07733 0.0
C977 C 0.48904 0.88156 0.01919 0.0
C978 C 0.46556 0.90073 0.03632 0.0
H979 H 0.51091 0.83403 0.01428 0.0
H980 H 0.50829 0.8929 0.00439 0.0
C981 C 0.4406 0.88532 0.05488 0.0
C982 C 0.9079 0.69996 0.7992 0.0
C983 C 0.92193 0.72846 0.78595 0.0
H984 H 0.86391 0.67157 0.80728 0.0
C985 C 0.90218 0.74835 0.76626 0.0
H986 H 0.92272 0.68388 0.81406 0.0
C987 C 0.8682 0.74136 0.7625 0.0
C988 C 0.85358 0.71432 0.77826 0.0
H989 H 0.91239 0.77043 0.75571 0.0
H990 H 0.8531 0.75812 0.74875 0.0
C991 C 0.87415 0.69293 0.79537 0.0
C992 C 0.94626 0.03457 0.82787 0.0
C993 C 0.95556 0.00452 0.81365 0.0
H994 H 0.94201 0.06356 0.8718 0.0
C995 C 0.97279 0.98198 0.83284 0.0
H996 H 0.93352 0.05265 0.81348 0.0
C997 C 0.97751 0.98815 0.86661 0.0
C998 C 0.96516 0.01697 0.88141 0.0
H999 H 0.98034 0.95865 0.82239 0.0
H1000 H -0.01134 0.96943 0.88142 0.0
C1001 C 0.9511 0.04078 0.86133 0.0
C1002 C 0.75129 0.13214 0.62379 0.0
C1003 C 0.73753 0.13962 0.59314 0.0
H1004 H 0.76438 0.15085 0.67196 0.0
C1005 C 0.722 0.16968 0.58885 0.0
H1006 H 0.76299 0.10875 0.62753 0.0
C1007 C 0.72229 0.19308 0.61385 0.0
C1008 C 0.7385 0.18715 0.64369 0.0
H1009 H 0.71052 0.17551 0.56557 0.0
H1010 H 0.71104 0.21652 0.60916 0.0
C1011 C 0.75187 0.15602 0.64912 0.0
C1012 C 0.52178 0.00012 0.33687 0.0
C1013 C 0.54692 0.98206 0.32089 0.0
H1014 H 0.50008 0.01456 0.3834 0.0
C1015 C 0.56697 0.96146 0.33954 0.0
H1016 H 0.50614 0.01636 0.32307 0.0
C1017 C 0.56386 0.96075 0.37365 0.0
C1018 C 0.54043 0.98043 0.39006 0.0
H1019 H 0.58626 0.94691 0.32785 0.0
H1020 H 0.58058 0.9454 0.38727 0.0
C1021 C 0.5185 -0.00074 0.37134 0.0
C1022 C 0.72772 0.78252 0.11714 0.0
C1023 C 0.73511 0.81584 0.11325 0.0
H1024 H 0.73734 0.73921 0.14446 0.0
C1025 C 0.75571 0.83191 0.13644 0.0
H1026 H 0.71178 0.76958 0.09979 0.0
C1027 C 0.77058 0.81443 0.16158 0.0
C1028 C 0.76437 0.78093 0.16432 0.0
H1029 H 0.76184 0.85759 0.13411 0.0
H1030 H 0.7879 0.82677 0.17806 0.0
C1031 C 0.74215 0.76522 0.14268 0.0
C1032 C 0.91775 0.01319 0.61027 0.0
C1033 C 0.89502 -0.00776 0.62568 0.0
H1034 H 0.95669 0.01678 0.57472 0.0
C1035 C 0.88705 0.96193 0.6111 0.0
H1036 H 0.92382 0.03684 0.62117 0.0
C1037 C 0.90632 0.95021 0.58491 0.0
C1038 C 0.9327 0.96928 0.57289 0.0
H1039 H 0.8693 0.9456 0.62265 0.0
H1040 H 0.90324 0.92501 0.5768 0.0
C1041 C 0.93627 0.00185 0.58348 0.0
C1042 C 0.79326 0.20219 0.39804 0.0
C1043 C 0.76114 0.19614 0.4102 0.0
H1044 H 0.82203 0.21584 0.35578 0.0
C1045 C 0.73356 0.20814 0.39324 0.0
H1046 H 0.81483 0.1932 0.41087 0.0
C1047 C 0.7377 0.22206 0.36231 0.0
C1048 C 0.76936 0.2229 0.34762 0.0
H1049 H 0.70857 0.2039 0.40246 0.0
H1050 H 0.71572 0.22779 0.34822 0.0
C1051 C 0.79734 0.21522 0.36662 0.0
C1052 C 0.6031 0.02617 0.13478 0.0
C1053 C 0.61034 -0.0069 0.13951 0.0
H1054 H 0.57267 0.05997 0.10898 0.0
C1055 C 0.5993 0.96943 0.1168 0.0
H1056 H 0.61129 0.04465 0.15246 0.0
C1057 C 0.57838 0.97839 0.09128 0.0
C1058 C 0.56759 0.01083 0.08915 0.0
H1059 H 0.60454 0.9438 0.12037 0.0
H1060 H 0.56745 0.95936 0.07579 0.0
C1061 C 0.58125 0.03497 0.10995 0.0
C1062 C 0.71101 0.7916 0.91756 0.0
C1063 C 0.71066 0.82534 0.91223 0.0
H1064 H 0.71679 0.74386 0.89671 0.0
C1065 C 0.71444 0.83666 0.87981 0.0
H1066 H 0.70777 0.78205 0.94211 0.0
C1067 C 0.71986 0.81464 0.85351 0.0
C1068 C 0.72142 0.7809 0.85915 0.0
H1069 H 0.7143 0.86259 0.87488 0.0
H1070 H 0.72372 0.82409 0.82901 0.0
C1071 C 0.71621 0.76969 0.8914 0.0
C1072 C 0.8336 0.92616 0.97018 0.0
C1073 C 0.81593 0.92179 -0.00033 0.0
H1074 H 0.87776 0.94507 0.94752 0.0
C1075 C 0.83178 0.92828 0.02987 0.0
H1076 H 0.8219 0.921 0.94665 0.0
C1077 C 0.86363 0.94253 0.03034 0.0
C1078 C 0.88012 0.94935 0.00064 0.0
H1079 H 0.81848 0.92505 0.05289 0.0
H1080 H 0.87416 0.95059 0.05364 0.0
C1081 C 0.86563 0.93952 0.9707 0.0
C1082 C 0.33782 0.55251 0.94224 0.0
C1083 C 0.31913 0.54066 0.9688 0.0
H1084 H 0.38551 0.55557 0.91909 0.0
C1085 C 0.3334 0.51759 0.98963 0.0
H1086 H 0.32711 0.56977 0.92542 0.0
C1087 C 0.36716 0.50963 0.98627 0.0
C1088 C 0.38686 0.52451 0.96187 0.0
H1089 H 0.31936 0.50795 0.0102 0.0
H1090 H 0.37838 0.49423 0.00454 0.0
C1091 C 0.37124 0.54426 0.9386 0.0
C1092 C 0.15018 0.60322 0.78022 0.0
C1093 C 0.13099 0.60041 0.75152 0.0
H1094 H 0.18961 0.62879 0.80484 0.0
C1095 C 0.13146 0.62593 0.72879 0.0
H1096 H 0.14967 0.58417 0.79845 0.0
C1097 C 0.15431 0.65173 0.73263 0.0
C1098 C 0.17665 0.65182 0.7591 0.0
H1099 H 0.11672 0.62431 0.70654 0.0
H1100 H 0.15669 0.66962 0.71337 0.0
C1101 C 0.17301 0.62865 0.78387 0.0
C1102 C 0.11797 0.45093 0.52012 0.0
C1103 C 0.12287 0.41791 0.51179 0.0
H1104 H 0.09266 0.49509 0.50826 0.0
C1105 C 0.10268 0.40277 0.48772 0.0
H1106 H 0.13321 0.46298 0.5387 0.0
C1107 C 0.08019 0.42122 0.46998 0.0
C1108 C 0.07695 0.4546 0.47692 0.0
H1109 H 0.10615 0.37736 0.48073 0.0
H1110 H 0.06655 0.40981 0.44983 0.0
C1111 C 0.09485 0.46917 0.50288 0.0
C1112 C 0.79717 0.90625 0.73725 0.0
C1113 C 0.82985 0.90342 0.74886 0.0
H1114 H 0.75408 0.88058 0.71923 0.0
C1115 C 0.84137 0.87267 0.75842 0.0
H1116 H 0.7878 0.92963 0.7295 0.0
C1117 C 0.8216 0.84475 0.7535 0.0
C1118 C 0.79058 0.84728 0.73816 0.0
H1119 H 0.8665 0.86996 0.76747 0.0
H1120 H 0.83191 0.82099 0.75861 0.0
C1121 C 0.77789 0.87824 0.73134 0.0
C1122 C 0.61377 0.10506 0.47227 0.0
C1123 C 0.638 0.11111 0.49629 0.0
H1124 H 0.56859 0.07965 0.46064 0.0
C1125 C 0.63149 0.10339 0.52922 0.0
H1126 H 0.6185 0.11103 0.44675 0.0
C1127 C 0.60352 0.08463 0.53702 0.0
C1128 C 0.58165 0.07445 0.51199 0.0
H1129 H 0.65008 0.10803 0.54803 0.0
H1130 H 0.60129 0.07472 0.56152 0.0
C1131 C 0.58512 0.08742 0.48034 0.0
C1132 C 0.21607 0.39766 0.73109 0.0
C1133 C 0.2041 0.41692 0.75745 0.0
H1134 H 0.23026 0.34958 0.71504 0.0
C1135 C 0.20511 0.40494 0.7895 0.0
H1136 H 0.21483 0.40643 0.70609 0.0
C1137 C 0.21347 0.37244 0.79457 0.0
C1138 C 0.22095 0.3518 0.76759 0.0
H1139 H 0.19552 0.41937 0.81002 0.0
H1140 H 0.21055 0.36256 0.81903 0.0
C1141 C 0.22479 0.36515 0.73619 0.0
C1142 C 0.33228 0.6193 0.25358 0.0
C1143 C 0.32432 0.58909 0.26772 0.0
H1144 H 0.31867 0.66941 0.24832 0.0
C1145 C 0.2987 0.58734 0.29113 0.0
H1146 H 0.35219 0.62129 0.23561 0.0
C1147 C 0.28005 0.61496 0.29895 0.0
C1148 C 0.28624 0.64464 0.28292 0.0
H1149 H 0.29254 0.56445 0.30281 0.0
H1150 H 0.25962 0.61248 0.31626 0.0
C1151 C 0.3132 0.64686 0.26093 0.0
C1152 C 0.48824 0.61811 0.59276 0.0
C1153 C 0.49631 0.64883 0.57959 0.0
H1154 H 0.4711 0.56909 0.58228 0.0
C1155 C 0.49963 0.65159 0.54529 0.0
H1156 H 0.48563 0.61519 0.61912 0.0
C1157 C 0.49177 0.62522 0.52448 0.0
C1158 C 0.48061 0.59557 0.5375 0.0
H1159 H 0.5064 0.67471 0.53442 0.0
H1160 H 0.49198 0.62878 0.49808 0.0
C1161 C 0.48022 0.59163 0.57177 0.0
C1162 C 0.58999 0.23861 0.77776 0.0
C1163 C 0.57719 0.21371 0.79764 0.0
H1164 H 0.63341 0.25744 0.75344 0.0
C1165 C 0.59488 0.18462 0.80071 0.0
H1166 H 0.57664 0.26134 0.77536 0.0
C1167 C 0.62697 0.18218 0.78791 0.0
C1168 C 0.64203 0.20916 0.77264 0.0
H1169 H 0.58528 0.16513 0.81591 0.0
H1170 H 0.64129 0.16062 0.79336 0.0
C1171 C 0.62247 0.23636 0.76525 0.0
C1172 C 0.0082 0.3406 0.02605 0.0
C1173 C -0.00095 0.34288 0.05942 0.0
H1174 H 0.03003 0.36508 0.98499 0.0
C1175 C -0.00116 0.3738 0.07521 0.0
H1176 H 0.00802 0.31727 0.01305 0.0
C1177 C 0.01118 0.40128 0.05892 0.0
C1178 C 0.0237 0.39794 0.0268 0.0
H1179 H -0.00839 0.37634 0.10087 0.0
H1180 H 0.01351 0.42433 0.07225 0.0
C1181 C 0.02068 0.36791 0.00996 0.0
C1182 C 0.87342 0.7395 0.35031 0.0
C1183 C 0.88848 0.7692 0.3414 0.0
H1184 H 0.83142 0.70786 0.34253 0.0
C1185 C 0.86858 0.79433 0.32942 0.0
H1186 H 0.88807 0.71996 0.36035 0.0
C1187 C 0.83568 0.78773 0.32063 0.0
C1188 C 0.82326 0.75569 0.32249 0.0
H1189 H 0.87943 0.8178 0.32331 0.0
H1190 H 0.82233 0.80594 0.30695 0.0
C1191 C 0.84076 0.73268 0.34064 0.0
C1192 C 0.51128 0.38547 0.88121 0.0
C1193 C 0.53363 0.35986 0.88659 0.0
H1194 H 0.48516 0.42607 0.90315 0.0
C1195 C 0.55208 0.35949 0.91569 0.0
H1196 H 0.4966 0.38594 0.85891 0.0
C1197 C 0.54538 0.38199 0.94077 0.0
C1198 C 0.52005 0.40511 0.93717 0.0
H1199 H 0.56954 0.34003 0.92016 0.0
H1200 H 0.55859 0.37994 0.96385 0.0
C1201 C 0.50444 0.40811 0.90656 0.0
C1202 C 0.87189 0.25352 0.18804 0.0
C1203 C 0.88717 0.23639 0.16205 0.0
H1204 H 0.83213 0.25363 0.22289 0.0
C1205 C 0.86977 0.21138 0.14539 0.0
H1206 H 0.88531 0.27257 0.2014 0.0
C1207 C 0.83929 0.20043 0.15778 0.0
C1208 C 0.82598 0.21494 0.1864 0.0
H1209 H 0.88154 0.19769 0.1255 0.0
H1210 H 0.828 0.17856 0.1472 0.0
C1211 C 0.84121 0.24293 0.20007 0.0
C1212 C 0.03667 0.66306 0.44871 0.0
C1213 C 0.00532 0.67226 0.43715 0.0
H1214 H 0.06553 0.62383 0.4676 0.0
C1215 C 0.97723 0.65321 0.44474 0.0
H1216 H 0.05861 0.67766 0.44343 0.0
C1217 C 0.98105 0.62314 0.45984 0.0
C1218 C 0.01309 0.61155 0.46623 0.0
H1219 H 0.95274 0.66024 0.4365 0.0
H1220 H 0.95947 0.6073 0.46241 0.0
C1221 C 0.04064 0.63244 0.46269 0.0
C1222 C 0.58953 0.75959 0.69543 0.0
C1223 C 0.58559 0.76833 0.66229 0.0
H1224 H 0.62408 0.74998 0.73439 0.0
C1225 C 0.61372 0.77643 0.6436 0.0
H1226 H 0.56809 0.75316 0.71032 0.0
C1227 C 0.64528 0.77482 0.6572 0.0
C1228 C 0.64975 0.76475 0.68989 0.0
H1229 H 0.61141 0.7836 0.61814 0.0
H1230 H 0.66629 0.78097 0.64161 0.0
C1231 C 0.62149 0.75764 0.70913 0.0
C1232 C 0.53897 0.44554 0.65093 0.0
C1233 C 0.54965 0.47555 0.66422 0.0
H1234 H 0.52099 0.42032 0.60787 0.0
C1235 C 0.54427 0.50442 0.64698 0.0
H1236 H 0.54308 0.42308 0.66402 0.0
C1237 C 0.53072 0.50301 0.61537 0.0
C1238 C 0.52342 0.47259 0.6006 0.0
H1239 H 0.55246 0.52777 0.65713 0.0
H1240 H 0.52924 0.52523 0.60132 0.0
C1241 C 0.52618 0.44403 0.61907 0.0
C1242 C 0.74555 0.36465 0.85964 0.0
C1243 C 0.72046 0.35976 0.88341 0.0
H1244 H 0.77438 0.34248 0.82045 0.0
C1245 C 0.70119 0.33119 0.88229 0.0
H1246 H 0.7609 0.38653 0.86043 0.0
C1247 C 0.7093 0.30618 0.86032 0.0
C1248 C 0.73667 0.30943 0.83902 0.0
H1249 H 0.68167 0.32708 0.90032 0.0
H1250 H 0.69516 0.28354 0.86116 0.0
C1251 C 0.75361 0.33943 0.83726 0.0
C1252 C 0.96206 0.5416 0.15364 0.0
C1253 C 0.94394 0.51299 0.15978 0.0
H1254 H -0.00693 0.56666 0.11904 0.0
C1255 C 0.9493 0.48494 0.1403 0.0
H1256 H 0.95844 0.56331 0.16883 0.0
C1257 C 0.96979 0.48644 0.11259 0.0
C1258 C 0.98417 0.51637 0.10357 0.0
H1259 H 0.93585 0.46247 0.14523 0.0
H1260 H 0.97089 0.46527 0.09626 0.0
C1261 C 0.98207 0.54334 0.12546 0.0
C1262 C 0.71956 0.72452 0.40253 0.0
C1263 C 0.74434 0.70063 0.4002 0.0
H1264 H 0.68061 0.74911 0.37758 0.0
C1265 C 0.75394 0.68857 0.36891 0.0
H1266 H 0.71191 0.7346 0.42621 0.0
C1267 C 0.73598 0.69702 0.341 0.0
C1268 C 0.70826 0.71734 0.34434 0.0
H1269 H 0.77331 0.67042 0.36639 0.0
H1270 H 0.7422 0.68584 0.31741 0.0
C1271 C 0.70126 0.73239 0.37484 0.0
C1272 C 0.59016 0.51674 0.87605 0.0
C1273 C 0.56802 0.49724 0.85758 0.0
H1274 H 0.59592 0.54606 0.91993 0.0
C1275 C 0.53964 0.48407 0.87256 0.0
H1276 H 0.61223 0.52705 0.86467 0.0
C1277 C 0.53088 0.49415 0.90426 0.0
C1278 C 0.55014 0.5179 0.92076 0.0
H1279 H 0.5224 0.46893 0.85849 0.0
H1280 H 0.50645 0.48746 0.91337 0.0
C1281 C 0.58098 0.52743 0.90761 0.0
C1282 C 0.75328 0.28405 0.08368 0.0
C1283 C 0.7258 0.29319 0.06481 0.0
H1284 H 0.76996 0.26679 0.13016 0.0
C1285 C 0.69363 0.28458 0.07538 0.0
H1286 H 0.77834 0.2902 0.07583 0.0
C1287 C 0.68877 0.27207 0.10689 0.0
C1288 C 0.71612 0.26697 0.1275 0.0
H1289 H 0.67205 0.29123 0.06115 0.0
H1290 H 0.66363 0.26951 0.11633 0.0
C1291 C 0.74846 0.27044 0.11467 0.0
C1292 C 0.918 0.44898 0.35694 0.0
C1293 C 0.9028 0.47422 0.33983 0.0
H1294 H 0.94574 0.43678 0.39961 0.0
C1295 C 0.89456 0.50342 0.35648 0.0
H1296 H 0.9239 0.42603 0.34461 0.0
C1297 C 0.90743 0.50968 0.38784 0.0
C1298 C 0.92771 0.48641 0.40243 0.0
H1299 H 0.8824 0.52302 0.34371 0.0
H1300 H 0.90544 0.53407 0.39844 0.0
C1301 C 0.93012 0.45499 0.38847 0.0
C1302 C 0.78949 0.67108 0.59641 0.0
C1303 C 0.76308 0.64845 0.59488 0.0
H1304 H 0.81498 0.70764 0.62493 0.0
C1305 C 0.74449 0.64219 0.62347 0.0
H1306 H 0.80478 0.67566 0.57489 0.0
C1307 C 0.75016 0.66075 0.65225 0.0
C1308 C 0.77474 0.68553 0.65282 0.0
H1309 H 0.72424 0.62455 0.62296 0.0
H1310 H 0.73396 0.65704 0.6733 0.0
C1311 C 0.79546 0.68924 0.62516 0.0
C1312 C 0.62205 0.59547 0.48603 0.0
C1313 C 0.65084 0.58714 0.468 0.0
H1314 H 0.57396 0.57943 0.50308 0.0
C1315 C 0.65078 0.55833 0.44873 0.0
H1316 H 0.62128 0.61773 0.50082 0.0
C1317 C 0.62404 0.53655 0.45019 0.0
C1318 C 0.59661 0.54329 0.47062 0.0
H1319 H 0.67225 0.55165 0.43391 0.0
H1320 H 0.62559 0.51359 0.4366 0.0
C1321 C 0.59497 0.57365 0.48725 0.0
C1322 C 0.14663 0.9541 0.48975 0.0
C1323 C 0.16609 0.94731 0.51733 0.0
H1324 H 0.10077 0.97301 0.47218 0.0
C1325 C 0.15709 0.96035 0.54822 0.0
H1326 H 0.15323 0.94412 0.46572 0.0
C1327 C 0.12667 0.97648 0.55214 0.0
C1328 C 0.10527 0.98 0.5251 0.0
H1329 H 0.17184 0.95526 0.56978 0.0
H1330 H 0.11845 0.9833 0.57676 0.0
C1331 C 0.11671 0.9709 0.49349 0.0
C1332 C 0.32555 0.88573 0.69208 0.0
C1333 C 0.35345 0.88471 0.71245 0.0
H1334 H 0.27844 0.86456 0.68017 0.0
C1335 C 0.35782 0.85816 0.73343 0.0
H1336 H 0.32203 0.90588 0.6755 0.0
C1337 C 0.33249 0.8349 0.73683 0.0
C1338 C 0.30291 0.83796 0.71896 0.0
H1339 H 0.37924 0.85712 0.74948 0.0
H1340 H 0.33506 0.8161 0.75508 0.0
C1341 C 0.30052 0.86236 0.69515 0.0
C1342 C 0.34905 0.0246 -0.00158 0.0
C1343 C 0.33805 0.057 -0.00035 0.0
H1344 H 0.38735 -0.00845 0.01236 0.0
C1345 C 0.35976 0.082 0.01059 0.0
H1346 H 0.33279 0.00505 0.98981 0.0
C1347 C 0.39036 0.07421 0.02417 0.0
C1348 C 0.39986 0.04156 0.0257 0.0
H1349 H 0.35177 0.10722 0.01178 0.0
H1350 H 0.40537 0.09332 0.03562 0.0
C1351 C 0.38014 0.01696 0.01111 0.0
C1352 C 0.63226 0.62186 0.75171 0.0
C1353 C 0.64445 0.59151 0.7404 0.0
H1354 H 0.64502 0.66943 0.77123 0.0
C1355 C 0.6784 0.58876 0.73252 0.0
H1356 H 0.60616 0.62479 0.75776 0.0
C1357 C 0.70036 0.61446 0.73968 0.0
C1358 C 0.68873 0.64323 0.75479 0.0
H1359 H 0.6884 0.56591 0.72314 0.0
H1360 H 0.72683 0.61063 0.73636 0.0
C1361 C 0.65439 0.64755 0.75913 0.0
C1362 C 0.85656 0.40865 0.01726 0.0
C1363 C 0.84382 0.40865 0.98517 0.0
H1364 H 0.89642 0.42487 0.0485 0.0
C1365 C 0.86475 0.41635 0.95864 0.0
H1366 H 0.84069 0.40266 0.038 0.0
C1367 C 0.89696 0.4278 0.96454 0.0
C1368 C 0.90776 0.43278 -0.00295 0.0
H1369 H 0.85527 0.41619 0.93369 0.0
H1370 H 0.91163 0.43663 0.94401 0.0
C1371 C 0.88833 0.42125 0.02326 0.0
C1372 C 0.27028 0.07309 0.71524 0.0
C1373 C 0.28338 0.06293 0.74537 0.0
H1374 H 0.2528 0.11382 0.68791 0.0
C1375 C 0.27904 0.08293 0.77355 0.0
H1376 H 0.27294 0.05807 0.69317 0.0
C1377 C 0.26682 0.1146 0.77061 0.0
C1378 C 0.25909 0.12659 0.73944 0.0
H1379 H 0.28852 0.07551 0.7972 0.0
H1380 H 0.26784 0.13091 0.79185 0.0
C1381 C 0.25862 0.10498 0.71221 0.0
C1382 C 0.20912 0.90862 0.20082 0.0
C1383 C 0.18572 0.90812 0.22658 0.0
H1384 H 0.24306 0.881 0.17093 0.0
C1385 C 0.18146 0.87939 0.24471 0.0
H1386 H 0.2131 0.93046 0.18657 0.0
C1387 C 0.19899 0.85113 0.23605 0.0
C1388 C 0.22057 0.85102 0.20875 0.0
H1389 H 0.16384 0.87847 0.26497 0.0
H1390 H 0.19439 0.829 0.24969 0.0
C1391 C 0.22617 0.88025 0.1918 0.0
C1392 C 0.48935 0.33598 0.43668 0.0
C1393 C 0.497 0.33829 0.40295 0.0
H1394 H 0.49093 0.35998 0.48398 0.0
C1395 C 0.50416 0.36929 0.38999 0.0
H1396 H 0.48325 0.31263 0.44742 0.0
C1397 C 0.50811 0.39643 0.411 0.0
C1398 C 0.50452 0.39303 0.44508 0.0
H1399 H 0.50972 0.37208 0.36404 0.0
H1400 H 0.51765 0.41901 0.40098 0.0
C1401 C 0.49333 0.36316 0.45762 0.0
C1402 C 0.40424 0.73316 0.16815 0.0
C1403 C 0.42654 0.74767 0.19061 0.0
H1404 H 0.3538 0.7228 0.15578 0.0
C1405 C 0.41424 0.76042 0.22064 0.0
H1406 H 0.41302 0.72223 0.14523 0.0
C1407 C 0.37969 0.76064 0.22682 0.0
C1408 C 0.35745 0.74804 0.203 0.0
H1409 H 0.43102 0.77148 0.23848 0.0
H1410 H 0.37036 0.77204 0.24925 0.0
C1411 C 0.37025 0.73337 0.17423 0.0
C1412 C -0.00561 0.6169 0.91204 0.0
C1413 C 0.97832 0.64671 0.91851 0.0
H1414 H -0.00196 0.56624 0.92398 0.0
C1415 C 0.95079 0.64741 0.93982 0.0
H1416 H 0.01553 0.61572 0.8954 0.0
C1417 C 0.94014 0.61902 0.95531 0.0
C1418 C 0.95736 0.58951 0.95044 0.0
H1419 H 0.93756 0.66997 0.94465 0.0
H1420 H 0.91937 0.62067 0.97236 0.0
C1421 C 0.98422 0.58856 0.92816 0.0
C1422 C 0.11459 0.22117 0.64108 0.0
C1423 C 0.10553 0.25337 0.63408 0.0
H1424 H 0.14113 0.19051 0.67428 0.0
C1425 C 0.12228 0.27964 0.64917 0.0
H1426 H 0.10143 0.20068 0.6298 0.0
C1427 C 0.1446 0.27385 0.67434 0.0
C1428 C 0.15004 0.24183 0.68456 0.0
H1429 H 0.11525 0.30459 0.64421 0.0
H1430 H 0.15526 0.29448 0.68781 0.0
C1431 C 0.13671 0.21535 0.66671 0.0
C1432 C 0.51864 0.61836 0.11175 0.0
C1433 C 0.494 0.64249 0.11253 0.0
H1434 H 0.53523 0.57427 0.08773 0.0
C1435 C 0.46328 0.63632 0.09735 0.0
H1436 H 0.54249 0.62271 0.12344 0.0
C1437 C 0.45909 0.60873 0.07737 0.0
C1438 C 0.4856 0.58718 0.07249 0.0
H1439 H 0.44377 0.65447 0.09817 0.0
H1440 H 0.43665 0.60628 0.0628 0.0
C1441 C 0.51446 0.59065 0.09153 0.0
C1442 C 0.12514 0.73043 0.82001 0.0
C1443 C 0.10816 0.75033 0.84276 0.0
H1444 H 0.16066 0.72871 0.78108 0.0
C1445 C 0.11921 0.7825 0.84869 0.0
H1446 H 0.11673 0.70563 0.81496 0.0
C1447 C 0.14423 0.79584 0.82888 0.0
C1448 C 0.15892 0.77675 0.8038 0.0
H1449 H 0.10612 0.79831 0.86598 0.0
H1450 H 0.15015 0.82163 0.83135 0.0
C1451 C 0.15061 0.74353 0.80086 0.0
C1452 C 0.98686 0.34663 0.52388 0.0
C1453 C 0.97128 0.33709 0.55331 0.0
H1454 H -0.00547 0.38574 0.48977 0.0
C1455 C 0.94724 0.35716 0.56793 0.0
H1456 H 0.0055 0.33126 0.51225 0.0
C1457 C 0.94034 0.3873 0.55482 0.0
C1458 C 0.95811 0.39868 0.52728 0.0
H1459 H 0.9348 0.35021 0.59055 0.0
H1460 H 0.9228 0.40263 0.56812 0.0
C1461 C 0.98063 0.37765 0.5111 0.0
C1462 C 0.41028 0.20202 0.31062 0.0
C1463 C 0.42635 0.22829 0.29526 0.0
H1464 H 0.36481 0.17629 0.31888 0.0
C1465 C 0.40843 0.24728 0.27303 0.0
H1466 H 0.42357 0.18662 0.32748 0.0
C1467 C 0.37437 0.2415 0.2682 0.0
C1468 C 0.35784 0.21646 0.28533 0.0
H1469 H 0.42026 0.26764 0.26075 0.0
H1470 H 0.36077 0.25747 0.25218 0.0
C1471 C 0.37651 0.19609 0.30563 0.0
C1472 C 0.47912 0.48026 0.33166 0.0
C1473 C 0.46387 0.50356 0.31188 0.0
H1474 H 0.49176 0.4669 0.38091 0.0
C1475 C 0.45486 0.53382 0.32589 0.0
H1476 H 0.48606 0.45666 0.32141 0.0
C1477 C 0.45785 0.53956 0.35963 0.0
C1478 C 0.46993 0.51512 0.38014 0.0
H1479 H 0.44335 0.55232 0.31103 0.0
H1480 H 0.44893 0.5625 0.36986 0.0
C1481 C 0.48213 0.48604 0.36569 0.0
C1482 C 0.20023 0.65073 0.1014 0.0
C1483 C 0.22909 0.63212 0.09676 0.0
H1484 H 0.17755 0.69044 0.12793 0.0
C1485 C 0.25524 0.63503 0.11929 0.0
H1486 H 0.18 0.649 0.08387 0.0
C1487 C 0.25344 0.65806 0.14503 0.0
C1488 C 0.22608 0.67919 0.14746 0.0
H1489 H 0.27779 0.62104 0.11576 0.0
H1490 H 0.27471 0.66133 0.16109 0.0
C1491 C 0.19891 0.67449 0.12635 0.0
C1492 C 0.05716 0.44993 0.83034 0.0
C1493 C 0.04214 0.47534 0.81327 0.0
H1494 H 0.06684 0.42898 0.87702 0.0
C1495 C 0.02021 0.49642 0.83015 0.0
H1496 H 0.07372 0.43303 0.81774 0.0
C1497 C 0.0164 0.49427 0.8644 0.0
C1498 C 0.03449 0.471 0.88186 0.0
H1499 H 0.00833 0.51623 0.81745 0.0
H1500 H 0.0014 0.51226 0.87736 0.0
C1501 C 0.05337 0.44777 0.86429 0.0
C1502 C 0.2529 0.32934 0.63713 0.0
C1503 C 0.23117 0.315 0.61389 0.0
H1504 H 0.28636 0.32108 0.67709 0.0
C1505 C 0.22184 0.28204 0.61708 0.0
H1506 H 0.26032 0.35476 0.63545 0.0
C1507 C 0.23641 0.26304 0.64127 0.0
C1508 C 0.26049 0.27681 0.66225 0.0
H1509 H 0.20473 0.27054 0.59982 0.0
H1510 H 0.2305 0.23719 0.64219 0.0
C1511 C 0.2678 0.31021 0.66094 0.0
C1512 C 0.41847 0.51377 0.11618 0.0
C1513 C 0.3923 0.49686 0.13124 0.0
H1514 H 0.4581 0.51083 0.08182 0.0
C1515 C 0.37987 0.46798 0.11649 0.0
H1516 H 0.42844 0.53603 0.12728 0.0
C1517 C 0.39684 0.45374 0.08983 0.0
C1518 C 0.4257 0.46877 0.07747 0.0
H1519 H 0.35967 0.45447 0.12785 0.0
H1520 H 0.38938 0.42963 0.08107 0.0
C1521 C 0.43509 0.49971 0.08951 0.0
C1522 C 0.30245 0.71407 0.90671 0.0
C1523 C 0.27101 0.71176 0.9215 0.0
H1524 H 0.32925 0.72312 0.8621 0.0
C1525 C 0.2435 0.72563 0.90596 0.0
H1526 H 0.32391 0.70331 0.91825 0.0
C1527 C 0.24644 0.73695 0.87374 0.0
C1528 C 0.27685 0.7339 0.85682 0.0
H1529 H 0.21893 0.7237 0.91693 0.0
H1530 H 0.22403 0.7435 0.86075 0.0
C1531 C 0.30542 0.72529 0.87451 0.0
C1532 C 0.10405 0.51163 0.6156 0.0
C1533 C 0.10513 0.4821 0.63265 0.0
H1534 H 0.07728 0.53947 0.58014 0.0
C1535 C 0.08609 0.45528 0.62173 0.0
H1536 H 0.1186 0.53259 0.62384 0.0
C1537 C 0.06239 0.45937 0.59748 0.0
C1538 C 0.05792 0.49018 0.58378 0.0
H1539 H 0.08697 0.43223 0.63444 0.0
H1540 H 0.04574 0.43921 0.59137 0.0
C1541 C 0.08031 0.51568 0.59099 0.0
C1542 C 0.22142 0.33975 0.38094 0.0
C1543 C 0.21362 0.32856 0.41273 0.0
H1544 H 0.23395 0.32666 0.33091 0.0
C1545 C 0.20952 0.29494 0.41745 0.0
H1546 H 0.2247 0.36561 0.37655 0.0
C1547 C 0.21449 0.27283 0.39144 0.0
C1548 C 0.22404 0.28369 0.36 0.0
H1549 H 0.20294 0.2856 0.44146 0.0
H1550 H 0.21158 0.24702 0.3963 0.0
C1551 C 0.2267 0.31748 0.35479 0.0
C1552 C 0.33819 0.42216 0.47518 0.0
C1553 C 0.31932 0.42206 0.50434 0.0
H1554 H 0.38352 0.43733 0.45181 0.0
C1555 C 0.33411 0.43248 0.534 0.0
H1556 H 0.32723 0.41407 0.45208 0.0
C1557 C 0.36618 0.44625 0.53375 0.0
C1558 C 0.38401 0.44874 0.50402 0.0
H1559 H 0.31986 0.43266 0.55673 0.0
H1560 H 0.3759 0.45734 0.55618 0.0
C1561 C 0.37046 0.43507 0.4751 0.0
C1562 C 0.83196 0.00998 0.49545 0.0
C1563 C 0.81422 0.02647 0.47109 0.0
H1564 H 0.87936 -0.00845 0.51031 0.0
C1565 C 0.82888 0.03048 0.44001 0.0
H1566 H 0.82111 0.00652 0.51965 0.0
C1567 C 0.86184 0.02124 0.43438 0.0
C1568 C 0.88117 0.00863 0.46002 0.0
H1569 H 0.81551 0.0426 0.42065 0.0
H1570 H 0.873 0.02668 0.41073 0.0
C1571 C 0.86531 0.00126 0.49003 0.0
C1572 C 0.62948 0.12199 0.21434 0.0
C1573 C 0.62383 0.10343 0.24263 0.0
H1574 H 0.65917 0.16001 0.19287 0.0
C1575 C 0.63692 0.11398 0.27293 0.0
H1576 H 0.61972 0.11397 0.19068 0.0
C1577 C 0.65915 0.14015 0.27415 0.0
C1578 C 0.66841 0.15583 0.24508 0.0
H1579 H 0.63256 0.1 0.29501 0.0
H1580 H 0.67159 0.14601 0.29716 0.0
C1581 C 0.65198 0.1482 0.21554 0.0
C1582 C 0.6193 0.95198 0.0203 0.0
C1583 C 0.62184 0.91852 0.01272 0.0
H1584 H 0.59559 -0.00286 0.00907 0.0
C1585 C 0.59953 0.90399 0.99017 0.0
H1586 H 0.63624 0.96364 0.03762 0.0
C1587 C 0.57695 0.92328 0.97334 0.0
C1588 C 0.57584 0.95696 0.97971 0.0
H1589 H 0.6012 0.87827 0.98371 0.0
H1590 H 0.56141 0.91219 0.95442 0.0
C1591 C 0.59616 0.97106 0.00407 0.0
C1592 C 0.33181 0.37972 0.25513 0.0
C1593 C 0.35017 0.39076 0.22789 0.0
H1594 H 0.2945 0.34607 0.2725 0.0
C1595 C 0.3464 0.37473 0.19727 0.0
H1596 H 0.33436 0.39177 0.27896 0.0
C1597 C 0.32306 0.34956 0.1934 0.0
C1598 C 0.30391 0.33917 0.22031 0.0
H1599 H 0.36003 0.38299 0.17582 0.0
H1600 H 0.31928 0.33882 0.1691 0.0
C1601 C 0.30923 0.35361 0.25148 0.0
C1602 C 0.12147 0.60001 0.96095 0.0
C1603 C 0.14226 0.61079 0.98649 0.0
H1604 H 0.08277 0.56662 0.94662 0.0
C1605 C 0.13622 0.60059 0.01886 0.0
H1606 H 0.12611 0.60742 0.93582 0.0
C1607 C 0.11263 0.57618 0.02478 0.0
C1608 C 0.09407 0.56317 -0.00145 0.0
H1609 H 0.15229 0.60861 0.0388 0.0
H1610 H 0.11061 0.56589 0.04913 0.0
C1611 C 0.09696 0.57665 0.96712 0.0
C1612 C 0.68107 0.89341 0.29845 0.0
C1613 C 0.69314 0.91264 0.27272 0.0
H1614 H 0.67335 0.84506 0.31595 0.0
C1615 C 0.71399 0.89859 0.24857 0.0
H1616 H 0.66504 0.90386 0.31735 0.0
C1617 C 0.71857 0.86469 0.24757 0.0
C1618 C 0.70218 0.84505 0.27067 0.0
H1619 H 0.72327 0.91304 0.22832 0.0
H1620 H 0.73204 0.8537 0.22707 0.0
C1621 C 0.68537 0.85978 0.29731 0.0
C1622 C 0.80039 0.10966 0.72855 0.0
C1623 C 0.83357 0.10351 0.73679 0.0
H1624 H 0.75863 0.14103 0.73616 0.0
C1625 C 0.85234 0.12772 0.75338 0.0
H1626 H 0.78565 0.09155 0.71526 0.0
C1627 C 0.83677 0.15575 0.76557 0.0
C1628 C 0.80276 0.16012 0.76022 0.0
H1629 H 0.87812 0.12362 0.75969 0.0
H1630 H 0.85052 0.17248 0.7815 0.0
C1631 C 0.78511 0.13807 0.74004 0.0
loop_
_geom_bond_atom_site_label_1
_geom_bond_atom_site_label_2
_geom_bond_distance
_geom_bond_site_symmetry_2
_ccdc_geom_bond_type
C0 O1 1.306 . S
C0 O3 1.160 . S
O1 C0 1.306 . S
O1 Cd2 2.228 1_655 S
Cd2 O1 2.228 1_455 S
Cd2 O6 2.273 . S
Cd2 O10 2.277 . S
O3 C0 1.160 . S
O3 Cd4 2.203 1_655 S
Cd4 O3 2.203 1_455 S
Cd4 O6 2.411 . S
Cd4 O7 2.333 . S
Cd4 O8 2.352 . S
Cd4 O12 2.279 . S
Cd4 O13 2.356 . S
C5 O10 1.209 . S
C5 O12 1.228 . S
O6 Cd2 2.273 . S
O6 Cd4 2.411 . S
O6 C9 1.320 . S
O7 Cd4 2.333 . S
O7 C9 1.214 . S
O8 Cd4 2.352 . S
O8 C11 1.258 . S
C9 O6 1.320 . S
C9 O7 1.214 . S
O10 Cd2 2.277 . S
O10 C5 1.209 . S
C11 O8 1.258 . S
C11 O13 1.282 . S
O12 Cd4 2.279 . S
O12 C5 1.228 . S
O13 Cd4 2.356 . S
O13 C11 1.282 . S
C14 O15 1.306 . S
C14 O17 1.160 . S
O15 C14 1.306 . S
O15 Cd16 2.228 1_655 S
Cd16 O15 2.228 1_455 S
Cd16 O20 2.273 . S
Cd16 O24 2.277 . S
O17 C14 1.160 . S
O17 Cd18 2.203 1_655 S
Cd18 O17 2.203 1_455 S
Cd18 O20 2.411 . S
Cd18 O21 2.333 . S
Cd18 O22 2.352 . S
Cd18 O26 2.277 . S
Cd18 O27 2.356 . S
C19 O24 1.209 . S
C19 O26 1.226 . S
O20 Cd16 2.273 . S
O20 Cd18 2.411 . S
O20 C23 1.320 . S
O21 Cd18 2.333 . S
O21 C23 1.214 . S
O22 Cd18 2.352 . S
O22 C25 1.258 . S
C23 O20 1.320 . S
C23 O21 1.214 . S
O24 Cd16 2.277 . S
O24 C19 1.209 . S
C25 O22 1.258 . S
C25 O27 1.282 . S
O26 Cd18 2.277 . S
O26 C19 1.226 . S
O27 Cd18 2.356 . S
O27 C25 1.282 . S
C28 O29 1.306 . S
C28 O31 1.160 . S
O29 C28 1.306 . S
O29 Cd30 2.228 . S
Cd30 O29 2.228 . S
Cd30 O34 2.273 . S
Cd30 O38 2.277 . S
O31 C28 1.160 . S
O31 Cd32 2.203 . S
Cd32 O31 2.203 . S
Cd32 O34 2.411 . S
Cd32 O35 2.333 . S
Cd32 O36 2.352 . S
Cd32 O40 2.277 . S
Cd32 O41 2.356 . S
C33 O38 1.209 . S
C33 O40 1.226 . S
O34 Cd30 2.273 . S
O34 Cd32 2.411 . S
O34 C37 1.320 . S
O35 Cd32 2.333 . S
O35 C37 1.214 . S
O36 Cd32 2.352 . S
O36 C39 1.258 . S
C37 O34 1.320 . S
C37 O35 1.214 . S
O38 Cd30 2.277 . S
O38 C33 1.209 . S
C39 O36 1.258 . S
C39 O41 1.282 . S
O40 Cd32 2.277 . S
O40 C33 1.226 . S
O41 Cd32 2.356 . S
O41 C39 1.282 . S
C42 O43 1.306 . S
C42 O45 1.160 . S
O43 C42 1.306 . S
O43 Cd44 2.228 . S
Cd44 O43 2.228 . S
Cd44 O48 2.273 . S
Cd44 O52 2.277 . S
O45 C42 1.160 . S
O45 Cd46 2.203 . S
Cd46 O45 2.203 . S
Cd46 O48 2.411 . S
Cd46 O49 2.333 . S
Cd46 O50 2.352 . S
Cd46 O54 2.277 . S
Cd46 O55 2.356 . S
C47 O52 1.209 . S
C47 O54 1.226 . S
O48 Cd44 2.273 . S
O48 Cd46 2.411 . S
O48 C51 1.320 . S
O49 Cd46 2.333 . S
O49 C51 1.214 . S
O50 Cd46 2.352 . S
O50 C53 1.258 . S
C51 O48 1.320 . S
C51 O49 1.214 . S
O52 Cd44 2.277 . S
O52 C47 1.209 . S
C53 O50 1.258 . S
C53 O55 1.282 . S
O54 Cd46 2.277 . S
O54 C47 1.226 . S
O55 Cd46 2.356 . S
O55 C53 1.282 . S
C56 O57 1.306 . S
C56 O59 1.166 . S
O57 C56 1.306 . S
O57 Cd58 2.228 . S
Cd58 O57 2.228 . S
Cd58 O62 2.273 . S
Cd58 O66 2.277 . S
O59 C56 1.166 . S
O59 Cd60 2.203 1_545 S
Cd60 O59 2.203 1_565 S
Cd60 O62 2.411 1_565 S
Cd60 O63 2.333 . S
Cd60 O64 2.352 . S
Cd60 O68 2.277 1_565 S
Cd60 O69 2.356 . S
C61 O66 1.209 . S
C61 O68 1.226 . S
O62 Cd58 2.273 . S
O62 Cd60 2.411 1_545 S
O62 C65 1.320 . S
O63 Cd60 2.333 . S
O63 C65 1.214 1_565 S
O64 Cd60 2.352 . S
O64 C67 1.258 . S
C65 O62 1.320 . S
C65 O63 1.214 1_545 S
O66 Cd58 2.277 . S
O66 C61 1.209 . S
C67 O64 1.258 . S
C67 O69 1.282 . S
O68 Cd60 2.277 1_545 S
O68 C61 1.226 . S
O69 Cd60 2.356 . S
O69 C67 1.282 . S
C70 O71 1.306 . S
C70 O73 1.160 . S
O71 C70 1.306 . S
O71 Cd72 2.228 . S
Cd72 O71 2.228 . S
Cd72 O76 2.273 . S
Cd72 O80 2.277 . S
O73 C70 1.160 . S
O73 Cd74 2.203 . S
Cd74 O73 2.203 . S
Cd74 O76 2.411 . S
Cd74 O77 2.333 . S
Cd74 O78 2.352 . S
Cd74 O82 2.277 . S
Cd74 O83 2.356 . S
C75 O80 1.209 . S
C75 O82 1.226 . S
O76 Cd72 2.273 . S
O76 Cd74 2.411 . S
O76 C79 1.320 . S
O77 Cd74 2.333 . S
O77 C79 1.214 . S
O78 Cd74 2.352 . S
O78 C81 1.258 . S
C79 O76 1.320 . S
C79 O77 1.214 . S
O80 Cd72 2.277 . S
O80 C75 1.209 . S
C81 O78 1.258 . S
C81 O83 1.282 . S
O82 Cd74 2.277 . S
O82 C75 1.226 . S
O83 Cd74 2.356 . S
O83 C81 1.282 . S
C84 O85 1.307 . S
C84 O87 1.159 1_565 S
O85 C84 1.307 . S
O85 Cd86 2.228 . S
Cd86 O85 2.228 . S
Cd86 O90 2.273 1_565 S
Cd86 O94 2.277 . S
O87 C84 1.159 1_545 S
O87 Cd88 2.203 . S
Cd88 O87 2.203 . S
Cd88 O90 2.411 . S
Cd88 O91 2.333 . S
Cd88 O92 2.352 . S
Cd88 O96 2.277 1_545 S
Cd88 O97 2.356 . S
C89 O94 1.209 . S
C89 O96 1.226 . S
O90 Cd86 2.273 1_545 S
O90 Cd88 2.411 . S
O90 C93 1.320 . S
O91 Cd88 2.333 . S
O91 C93 1.214 . S
O92 Cd88 2.352 . S
O92 C95 1.258 . S
C93 O90 1.320 . S
C93 O91 1.214 . S
O94 Cd86 2.277 . S
O94 C89 1.209 . S
C95 O92 1.258 . S
C95 O97 1.282 . S
O96 Cd88 2.277 1_565 S
O96 C89 1.226 . S
O97 Cd88 2.356 . S
O97 C95 1.282 . S
C98 O99 1.306 . S
C98 O101 1.168 . S
O99 C98 1.306 . S
O99 Cd100 2.228 . S
Cd100 O99 2.228 . S
Cd100 O104 2.273 . S
Cd100 O108 2.277 . S
O101 C98 1.168 . S
O101 Cd102 2.202 1_554 S
Cd102 O101 2.202 1_556 S
Cd102 O104 2.407 1_556 S
Cd102 O105 2.333 . S
Cd102 O106 2.381 . S
Cd102 O110 2.254 1_556 S
Cd102 O111 2.376 . S
C103 O108 1.209 . S
C103 O110 1.226 . S
O104 Cd100 2.273 . S
O104 Cd102 2.407 1_554 S
O104 C107 1.320 . S
O105 Cd102 2.333 . S
O105 C107 1.209 1_556 S
O106 Cd102 2.381 . S
O106 C109 1.258 . S
C107 O104 1.320 . S
C107 O105 1.209 1_554 S
O108 Cd100 2.277 . S
O108 C103 1.209 . S
C109 O106 1.258 . S
C109 O111 1.282 . S
O110 Cd102 2.254 1_554 S
O110 C103 1.226 . S
O111 Cd102 2.376 . S
O111 C109 1.282 . S
C112 O113 1.306 . S
C112 O115 1.160 1_556 S
O113 C112 1.306 . S
O113 Cd114 2.228 . S
Cd114 O113 2.228 . S
Cd114 O118 2.273 1_556 S
Cd114 O122 2.277 . S
O115 C112 1.160 1_554 S
O115 Cd116 2.203 . S
Cd116 O115 2.203 . S
Cd116 O118 2.411 . S
Cd116 O119 2.333 . S
Cd116 O120 2.352 . S
Cd116 O124 2.277 1_554 S
Cd116 O125 2.356 . S
C117 O122 1.209 . S
C117 O124 1.226 . S
O118 Cd114 2.273 1_554 S
O118 Cd116 2.411 . S
O118 C121 1.320 . S
O119 Cd116 2.333 . S
O119 C121 1.214 . S
O120 Cd116 2.352 . S
O120 C123 1.258 . S
C121 O118 1.320 . S
C121 O119 1.214 . S
O122 Cd114 2.277 . S
O122 C117 1.209 . S
C123 O120 1.258 . S
C123 O125 1.282 . S
O124 Cd116 2.277 1_556 S
O124 C117 1.226 . S
O125 Cd116 2.356 . S
O125 C123 1.282 . S
C126 O127 1.306 . S
C126 O129 1.160 . S
O127 C126 1.306 . S
O127 Cd128 2.228 . S
Cd128 O127 2.228 . S
Cd128 O132 2.273 . S
Cd128 O136 2.277 . S
O129 C126 1.160 . S
O129 Cd130 2.203 . S
Cd130 O129 2.203 . S
Cd130 O132 2.411 . S
Cd130 O133 2.333 . S
Cd130 O134 2.352 . S
Cd130 O138 2.277 . S
Cd130 O139 2.356 . S
C131 O136 1.209 . S
C131 O138 1.226 . S
O132 Cd128 2.273 . S
O132 Cd130 2.411 . S
O132 C135 1.320 . S
O133 Cd130 2.333 . S
O133 C135 1.214 . S
O134 Cd130 2.352 . S
O134 C137 1.258 . S
C135 O132 1.320 . S
C135 O133 1.214 . S
O136 Cd128 2.277 . S
O136 C131 1.209 . S
C137 O134 1.258 . S
C137 O139 1.282 . S
O138 Cd130 2.277 . S
O138 C131 1.226 . S
O139 Cd130 2.356 . S
O139 C137 1.282 . S
C140 O141 1.306 . S
C140 O143 1.160 . S
O141 C140 1.306 . S
O141 Cd142 2.228 . S
Cd142 O141 2.228 . S
Cd142 O146 2.273 . S
Cd142 O150 2.277 . S
O143 C140 1.160 . S
O143 Cd144 2.203 . S
Cd144 O143 2.203 . S
Cd144 O146 2.411 . S
Cd144 O147 2.333 . S
Cd144 O148 2.352 . S
Cd144 O152 2.277 . S
Cd144 O153 2.356 . S
C145 O150 1.209 . S
C145 O152 1.226 . S
O146 Cd142 2.273 . S
O146 Cd144 2.411 . S
O146 C149 1.320 . S
O147 Cd144 2.333 . S
O147 C149 1.214 . S
O148 Cd144 2.352 . S
O148 C151 1.258 . S
C149 O146 1.320 . S
C149 O147 1.214 . S
O150 Cd142 2.277 . S
O150 C145 1.209 . S
C151 O148 1.258 . S
C151 O153 1.282 . S
O152 Cd144 2.277 . S
O152 C145 1.226 . S
O153 Cd144 2.356 . S
O153 C151 1.282 . S
C154 O155 1.306 . S
C154 O157 1.160 . S
O155 C154 1.306 . S
O155 Cd156 2.228 . S
Cd156 O155 2.228 . S
Cd156 O160 2.273 . S
Cd156 O164 2.277 . S
O157 C154 1.160 . S
O157 Cd158 2.203 . S
Cd158 O157 2.203 . S
Cd158 O160 2.411 . S
Cd158 O161 2.333 . S
Cd158 O162 2.352 . S
Cd158 O166 2.277 . S
Cd158 O167 2.356 . S
C159 O164 1.209 . S
C159 O166 1.226 . S
O160 Cd156 2.273 . S
O160 Cd158 2.411 . S
O160 C163 1.320 . S
O161 Cd158 2.333 . S
O161 C163 1.214 . S
O162 Cd158 2.352 . S
O162 C165 1.258 . S
C163 O160 1.320 . S
C163 O161 1.214 . S
O164 Cd156 2.277 . S
O164 C159 1.209 . S
C165 O162 1.258 . S
C165 O167 1.282 . S
O166 Cd158 2.277 . S
O166 C159 1.226 . S
O167 Cd158 2.356 . S
O167 C165 1.282 . S
C168 O169 1.306 . S
C168 O171 1.160 . S
O169 C168 1.306 . S
O169 Cd170 2.228 1_655 S
Cd170 O169 2.228 1_455 S
Cd170 O174 2.273 . S
Cd170 O178 2.277 . S
O171 C168 1.160 . S
O171 Cd172 2.203 1_655 S
Cd172 O171 2.203 1_455 S
Cd172 O174 2.411 . S
Cd172 O175 2.333 . S
Cd172 O176 2.352 . S
Cd172 O180 2.277 . S
Cd172 O181 2.356 . S
C173 O178 1.209 . S
C173 O180 1.226 . S
O174 Cd170 2.273 . S
O174 Cd172 2.411 . S
O174 C177 1.320 . S
O175 Cd172 2.333 . S
O175 C177 1.214 . S
O176 Cd172 2.352 . S
O176 C179 1.258 . S
C177 O174 1.320 . S
C177 O175 1.214 . S
O178 Cd170 2.277 . S
O178 C173 1.209 . S
C179 O176 1.258 . S
C179 O181 1.282 . S
O180 Cd172 2.277 . S
O180 C173 1.226 . S
O181 Cd172 2.356 . S
O181 C179 1.282 . S
C182 O183 1.306 . S
C182 O185 1.160 . S
O183 C182 1.306 . S
O183 Cd184 2.228 1_655 S
Cd184 O183 2.228 1_455 S
Cd184 O188 2.273 . S
Cd184 O192 2.277 . S
O185 C182 1.160 . S
O185 Cd186 2.203 1_655 S
Cd186 O185 2.203 1_455 S
Cd186 O188 2.411 . S
Cd186 O189 2.333 . S
Cd186 O190 2.352 . S
Cd186 O194 2.277 . S
Cd186 O195 2.356 . S
C187 O192 1.209 . S
C187 O194 1.226 . S
O188 Cd184 2.273 . S
O188 Cd186 2.411 . S
O188 C191 1.320 . S
O189 Cd186 2.333 . S
O189 C191 1.214 . S
O190 Cd186 2.352 . S
O190 C193 1.258 . S
C191 O188 1.320 . S
C191 O189 1.214 . S
O192 Cd184 2.277 . S
O192 C187 1.209 . S
C193 O190 1.258 . S
C193 O195 1.282 . S
O194 Cd186 2.277 . S
O194 C187 1.226 . S
O195 Cd186 2.356 . S
O195 C193 1.282 . S
C196 O197 1.306 . S
C196 O199 1.160 . S
O197 C196 1.306 . S
O197 Cd198 2.228 . S
Cd198 O197 2.228 . S
Cd198 O202 2.273 . S
Cd198 O206 2.277 . S
O199 C196 1.160 . S
O199 Cd200 2.203 . S
Cd200 O199 2.203 . S
Cd200 O202 2.411 . S
Cd200 O203 2.333 . S
Cd200 O204 2.352 . S
Cd200 O208 2.277 . S
Cd200 O209 2.356 . S
C201 O206 1.209 . S
C201 O208 1.226 . S
O202 Cd198 2.273 . S
O202 Cd200 2.411 . S
O202 C205 1.320 . S
O203 Cd200 2.333 . S
O203 C205 1.214 . S
O204 Cd200 2.352 . S
O204 C207 1.258 . S
C205 O202 1.320 . S
C205 O203 1.214 . S
O206 Cd198 2.277 . S
O206 C201 1.209 . S
C207 O204 1.258 . S
C207 O209 1.282 . S
O208 Cd200 2.277 . S
O208 C201 1.226 . S
O209 Cd200 2.356 . S
O209 C207 1.282 . S
C210 O211 1.306 . S
C210 O213 1.160 . S
O211 C210 1.306 . S
O211 Cd212 2.228 . S
Cd212 O211 2.228 . S
Cd212 O216 2.273 . S
Cd212 O220 2.277 . S
O213 C210 1.160 . S
O213 Cd214 2.203 . S
Cd214 O213 2.203 . S
Cd214 O216 2.411 . S
Cd214 O217 2.333 . S
Cd214 O218 2.352 . S
Cd214 O222 2.277 . S
Cd214 O223 2.356 . S
C215 O220 1.209 . S
C215 O222 1.226 . S
O216 Cd212 2.273 . S
O216 Cd214 2.411 . S
O216 C219 1.320 . S
O217 Cd214 2.333 . S
O217 C219 1.214 . S
O218 Cd214 2.352 . S
O218 C221 1.258 . S
C219 O216 1.320 . S
C219 O217 1.214 . S
O220 Cd212 2.277 . S
O220 C215 1.209 . S
C221 O218 1.258 . S
C221 O223 1.282 . S
O222 Cd214 2.277 . S
O222 C215 1.226 . S
O223 Cd214 2.356 . S
O223 C221 1.282 . S
C224 O225 1.306 . S
C224 O227 1.160 1_565 S
O225 C224 1.306 . S
O225 Cd226 2.228 . S
Cd226 O225 2.228 . S
Cd226 O230 2.273 . S
Cd226 O234 2.277 . S
O227 C224 1.160 1_545 S
O227 Cd228 2.203 . S
Cd228 O227 2.203 . S
Cd228 O230 2.411 1_545 S
Cd228 O231 2.333 . S
Cd228 O232 2.352 . S
Cd228 O236 2.277 1_545 S
Cd228 O237 2.356 . S
C229 O234 1.209 . S
C229 O236 1.226 . S
O230 Cd226 2.273 . S
O230 Cd228 2.411 1_565 S
O230 C233 1.320 1_565 S
O231 Cd228 2.333 . S
O231 C233 1.214 . S
O232 Cd228 2.352 . S
O232 C235 1.258 . S
C233 O230 1.320 1_545 S
C233 O231 1.214 . S
O234 Cd226 2.277 . S
O234 C229 1.209 . S
C235 O232 1.258 . S
C235 O237 1.282 . S
O236 Cd228 2.277 1_565 S
O236 C229 1.226 . S
O237 Cd228 2.356 . S
O237 C235 1.282 . S
C238 O239 1.306 . S
C238 O241 1.160 . S
O239 C238 1.306 . S
O239 Cd240 2.228 . S
Cd240 O239 2.228 . S
Cd240 O244 2.273 . S
Cd240 O248 2.277 . S
O241 C238 1.160 . S
O241 Cd242 2.203 . S
Cd242 O241 2.203 . S
Cd242 O244 2.411 . S
Cd242 O245 2.333 . S
Cd242 O246 2.352 . S
Cd242 O250 2.277 . S
Cd242 O251 2.356 . S
C243 O248 1.209 . S
C243 O250 1.226 . S
O244 Cd240 2.273 . S
O244 Cd242 2.411 . S
O244 C247 1.320 . S
O245 Cd242 2.333 . S
O245 C247 1.214 . S
O246 Cd242 2.352 . S
O246 C249 1.258 . S
C247 O244 1.320 . S
C247 O245 1.214 . S
O248 Cd240 2.277 . S
O248 C243 1.209 . S
C249 O246 1.258 . S
C249 O251 1.282 . S
O250 Cd242 2.277 . S
O250 C243 1.226 . S
O251 Cd242 2.356 . S
O251 C249 1.282 . S
C252 O253 1.306 . S
C252 O255 1.160 . S
O253 C252 1.306 . S
O253 Cd254 2.228 . S
Cd254 O253 2.228 . S
Cd254 O258 2.273 . S
Cd254 O262 2.277 . S
O255 C252 1.160 . S
O255 Cd256 2.203 1_545 S
Cd256 O255 2.203 1_565 S
Cd256 O258 2.411 1_565 S
Cd256 O259 2.333 . S
Cd256 O260 2.352 . S
Cd256 O264 2.277 1_565 S
Cd256 O265 2.356 . S
C257 O262 1.209 . S
C257 O264 1.226 . S
O258 Cd254 2.273 . S
O258 Cd256 2.411 1_545 S
O258 C261 1.320 . S
O259 Cd256 2.333 . S
O259 C261 1.214 1_565 S
O260 Cd256 2.352 . S
O260 C263 1.258 . S
C261 O258 1.320 . S
C261 O259 1.214 1_545 S
O262 Cd254 2.277 . S
O262 C257 1.209 . S
C263 O260 1.258 . S
C263 O265 1.282 . S
O264 Cd256 2.277 1_545 S
O264 C257 1.226 . S
O265 Cd256 2.356 . S
O265 C263 1.282 . S
C266 O267 1.306 1_554 S
C266 O269 1.160 . S
O267 C266 1.306 1_556 S
O267 Cd268 2.228 . S
Cd268 O267 2.228 . S
Cd268 O272 2.273 1_556 S
Cd268 O276 2.277 . S
O269 C266 1.160 . S
O269 Cd270 2.203 . S
Cd270 O269 2.203 . S
Cd270 O272 2.411 . S
Cd270 O273 2.333 . S
Cd270 O274 2.352 . S
Cd270 O278 2.277 1_554 S
Cd270 O279 2.356 . S
C271 O276 1.209 . S
C271 O278 1.226 . S
O272 Cd268 2.273 1_554 S
O272 Cd270 2.411 . S
O272 C275 1.320 . S
O273 Cd270 2.333 . S
O273 C275 1.214 . S
O274 Cd270 2.352 . S
O274 C277 1.258 . S
C275 O272 1.320 . S
C275 O273 1.214 . S
O276 Cd268 2.277 . S
O276 C271 1.209 . S
C277 O274 1.258 . S
C277 O279 1.282 . S
O278 Cd270 2.277 1_556 S
O278 C271 1.226 . S
O279 Cd270 2.356 . S
O279 C277 1.282 . S
C280 O281 1.306 . S
C280 O283 1.160 1_554 S
O281 C280 1.306 . S
O281 Cd282 2.228 . S
Cd282 O281 2.228 . S
Cd282 O286 2.273 . S
Cd282 O290 2.277 . S
O283 C280 1.160 1_556 S
O283 Cd284 2.203 . S
Cd284 O283 2.203 . S
Cd284 O286 2.411 1_556 S
Cd284 O287 2.333 . S
Cd284 O288 2.352 . S
Cd284 O292 2.277 1_556 S
Cd284 O293 2.356 . S
C285 O290 1.209 . S
C285 O292 1.226 . S
O286 Cd282 2.273 . S
O286 Cd284 2.411 1_554 S
O286 C289 1.318 1_554 S
O287 Cd284 2.333 . S
O287 C289 1.218 . S
O288 Cd284 2.352 . S
O288 C291 1.258 . S
C289 O286 1.318 1_556 S
C289 O287 1.218 . S
O290 Cd282 2.277 . S
O290 C285 1.209 . S
C291 O288 1.258 . S
C291 O293 1.282 . S
O292 Cd284 2.277 1_554 S
O292 C285 1.226 . S
O293 Cd284 2.356 . S
O293 C291 1.282 . S
C294 O295 1.306 . S
C294 O297 1.160 . S
O295 C294 1.306 . S
O295 Cd296 2.228 . S
Cd296 O295 2.228 . S
Cd296 O300 2.273 . S
Cd296 O304 2.277 . S
O297 C294 1.160 . S
O297 Cd298 2.203 . S
Cd298 O297 2.203 . S
Cd298 O300 2.411 . S
Cd298 O301 2.333 . S
Cd298 O302 2.352 . S
Cd298 O306 2.277 . S
Cd298 O307 2.356 . S
C299 O304 1.209 . S
C299 O306 1.226 . S
O300 Cd296 2.273 . S
O300 Cd298 2.411 . S
O300 C303 1.320 . S
O301 Cd298 2.333 . S
O301 C303 1.214 . S
O302 Cd298 2.352 . S
O302 C305 1.258 . S
C303 O300 1.320 . S
C303 O301 1.214 . S
O304 Cd296 2.277 . S
O304 C299 1.209 . S
C305 O302 1.258 . S
C305 O307 1.282 . S
O306 Cd298 2.277 . S
O306 C299 1.226 . S
O307 Cd298 2.356 . S
O307 C305 1.282 . S
C308 O309 1.306 . S
C308 O311 1.160 . S
O309 C308 1.306 . S
O309 Cd310 2.228 . S
Cd310 O309 2.228 . S
Cd310 O314 2.273 . S
Cd310 O318 2.277 . S
O311 C308 1.160 . S
O311 Cd312 2.203 . S
Cd312 O311 2.203 . S
Cd312 O314 2.411 . S
Cd312 O315 2.333 . S
Cd312 O316 2.352 . S
Cd312 O320 2.277 . S
Cd312 O321 2.356 . S
C313 O318 1.209 . S
C313 O320 1.226 . S
O314 Cd310 2.273 . S
O314 Cd312 2.411 . S
O314 C317 1.320 . S
O315 Cd312 2.333 . S
O315 C317 1.214 . S
O316 Cd312 2.352 . S
O316 C319 1.258 . S
C317 O314 1.320 . S
C317 O315 1.214 . S
O318 Cd310 2.277 . S
O318 C313 1.209 . S
C319 O316 1.258 . S
C319 O321 1.282 . S
O320 Cd312 2.277 . S
O320 C313 1.226 . S
O321 Cd312 2.356 . S
O321 C319 1.282 . S
C322 O323 1.306 . S
C322 O325 1.160 . S
O323 C322 1.306 . S
O323 Cd324 2.228 . S
Cd324 O323 2.228 . S
Cd324 O328 2.273 . S
Cd324 O332 2.277 . S
O325 C322 1.160 . S
O325 Cd326 2.203 . S
Cd326 O325 2.203 . S
Cd326 O328 2.411 . S
Cd326 O329 2.333 . S
Cd326 O330 2.352 . S
Cd326 O334 2.277 . S
Cd326 O335 2.356 . S
C327 O332 1.209 . S
C327 O334 1.226 . S
O328 Cd324 2.273 . S
O328 Cd326 2.411 . S
O328 C331 1.320 . S
O329 Cd326 2.333 . S
O329 C331 1.214 . S
O330 Cd326 2.352 . S
O330 C333 1.258 . S
C331 O328 1.320 . S
C331 O329 1.214 . S
O332 Cd324 2.277 . S
O332 C327 1.209 . S
C333 O330 1.258 . S
C333 O335 1.282 . S
O334 Cd326 2.277 . S
O334 C327 1.226 . S
O335 Cd326 2.356 . S
O335 C333 1.282 . S
O336 Mg337 1.990 . S
O336 C350 1.253 . S
Mg337 O336 1.990 . S
Mg337 O340 2.180 1_556 S
Mg337 O341 2.117 1_556 S
Mg337 O355 2.030 . S
O338 Mg339 2.072 1_656 S
O338 C350 1.260 . S
Mg339 O338 2.072 1_454 S
Mg339 O340 2.099 1_455 S
Mg339 O342 2.079 1_545 S
Mg339 O343 2.067 1_554 S
Mg339 O345 2.099 1_544 S
Mg339 O356 2.079 1_445 S
O340 Mg337 2.180 1_554 S
O340 Mg339 2.099 1_655 S
O340 C351 1.279 . S
O341 Mg337 2.117 1_554 S
O341 C351 1.250 . S
O342 Mg339 2.079 1_565 S
O342 C352 1.264 . S
O343 Mg339 2.067 1_556 S
O343 C353 1.264 . S
Mg344 O345 2.180 1_554 S
Mg344 O346 2.030 . S
Mg344 O347 1.990 1_554 S
Mg344 O348 2.117 1_554 S
O345 Mg339 2.099 1_566 S
O345 Mg344 2.180 1_556 S
O345 C354 1.279 . S
O346 Mg344 2.030 . S
O346 C352 1.248 . S
O347 Mg344 1.990 1_556 S
O347 C353 1.253 1_565 S
O348 Mg344 2.117 1_556 S
O348 C354 1.250 . S
C349 O355 1.248 1_564 S
C349 O356 1.264 . S
C350 O336 1.253 . S
C350 O338 1.260 . S
C351 O340 1.279 . S
C351 O341 1.250 . S
C352 O342 1.264 . S
C352 O346 1.248 . S
C353 O343 1.264 . S
C353 O347 1.253 1_545 S
C354 O345 1.279 . S
C354 O348 1.250 . S
O355 Mg337 2.030 . S
O355 C349 1.248 1_546 S
O356 Mg339 2.079 1_665 S
O356 C349 1.264 . S
O357 Mg358 1.990 . S
O357 C371 1.253 . S
Mg358 O357 1.990 . S
Mg358 O361 2.180 . S
Mg358 O362 2.117 . S
Mg358 O376 2.030 . S
O359 Mg360 2.072 . S
O359 C371 1.260 . S
Mg360 O359 2.072 . S
Mg360 O361 2.099 . S
Mg360 O363 2.079 . S
Mg360 O364 2.072 . S
Mg360 O366 2.099 . S
Mg360 O377 2.079 . S
O361 Mg358 2.180 . S
O361 Mg360 2.099 . S
O361 C372 1.279 . S
O362 Mg358 2.117 . S
O362 C372 1.250 . S
O363 Mg360 2.079 . S
O363 C373 1.264 . S
O364 Mg360 2.072 . S
O364 C374 1.260 . S
Mg365 O366 2.180 . S
Mg365 O367 2.030 . S
Mg365 O368 1.990 . S
Mg365 O369 2.117 . S
O366 Mg360 2.099 . S
O366 Mg365 2.180 . S
O366 C375 1.279 . S
O367 Mg365 2.030 . S
O367 C373 1.248 . S
O368 Mg365 1.990 . S
O368 C374 1.253 . S
O369 Mg365 2.117 . S
O369 C375 1.250 . S
C370 O376 1.248 . S
C370 O377 1.264 . S
C371 O357 1.253 . S
C371 O359 1.260 . S
C372 O361 1.279 . S
C372 O362 1.250 . S
C373 O363 1.264 . S
C373 O367 1.248 . S
C374 O364 1.260 . S
C374 O368 1.253 . S
C375 O366 1.279 . S
C375 O369 1.250 . S
O376 Mg358 2.030 . S
O376 C370 1.248 . S
O377 Mg360 2.079 . S
O377 C370 1.264 . S
O378 Mg379 1.990 . S
O378 C392 1.253 . S
Mg379 O378 1.990 . S
Mg379 O382 2.180 . S
Mg379 O383 2.117 . S
Mg379 O397 2.030 1_565 S
O380 Mg381 2.072 . S
O380 C392 1.260 1_545 S
Mg381 O380 2.072 . S
Mg381 O382 2.099 1_545 S
Mg381 O384 2.079 . S
Mg381 O385 2.072 1_545 S
Mg381 O387 2.099 . S
Mg381 O398 2.079 . S
O382 Mg379 2.180 . S
O382 Mg381 2.099 1_565 S
O382 C393 1.279 . S
O383 Mg379 2.117 . S
O383 C393 1.250 . S
O384 Mg381 2.079 . S
O384 C394 1.264 . S
O385 Mg381 2.072 1_565 S
O385 C395 1.260 . S
Mg386 O387 2.180 . S
Mg386 O388 2.030 . S
Mg386 O389 1.990 . S
Mg386 O390 2.117 . S
O387 Mg381 2.099 . S
O387 Mg386 2.180 . S
O387 C396 1.279 . S
O388 Mg386 2.030 . S
O388 C394 1.248 . S
O389 Mg386 1.990 . S
O389 C395 1.253 1_545 S
O390 Mg386 2.117 . S
O390 C396 1.250 . S
C391 O397 1.248 . S
C391 O398 1.264 . S
C392 O378 1.253 . S
C392 O380 1.260 1_565 S
C393 O382 1.279 . S
C393 O383 1.250 . S
C394 O384 1.264 . S
C394 O388 1.248 . S
C395 O385 1.260 . S
C395 O389 1.253 1_565 S
C396 O387 1.279 . S
C396 O390 1.250 . S
O397 Mg379 2.030 1_545 S
O397 C391 1.248 . S
O398 Mg381 2.079 . S
O398 C391 1.264 . S
O399 Mg400 1.990 . S
O399 C413 1.253 . S
Mg400 O399 1.990 . S
Mg400 O403 2.180 . S
Mg400 O404 2.117 . S
Mg400 O418 2.030 . S
O401 Mg402 2.072 . S
O401 C413 1.260 . S
Mg402 O401 2.072 . S
Mg402 O403 2.099 . S
Mg402 O405 2.079 . S
Mg402 O406 2.072 . S
Mg402 O408 2.099 . S
Mg402 O419 2.079 . S
O403 Mg400 2.180 . S
O403 Mg402 2.099 . S
O403 C414 1.279 . S
O404 Mg400 2.117 . S
O404 C414 1.250 . S
O405 Mg402 2.079 . S
O405 C415 1.264 . S
O406 Mg402 2.072 . S
O406 C416 1.260 . S
Mg407 O408 2.180 . S
Mg407 O409 2.030 . S
Mg407 O410 1.990 . S
Mg407 O411 2.117 . S
O408 Mg402 2.099 . S
O408 Mg407 2.180 . S
O408 C417 1.279 . S
O409 Mg407 2.030 . S
O409 C415 1.248 . S
O410 Mg407 1.990 . S
O410 C416 1.253 . S
O411 Mg407 2.117 . S
O411 C417 1.250 . S
C412 O418 1.248 . S
C412 O419 1.264 . S
C413 O399 1.253 . S
C413 O401 1.260 . S
C414 O403 1.279 . S
C414 O404 1.250 . S
C415 O405 1.264 . S
C415 O409 1.248 . S
C416 O406 1.260 . S
C416 O410 1.253 . S
C417 O408 1.279 . S
C417 O411 1.250 . S
O418 Mg400 2.030 . S
O418 C412 1.248 . S
O419 Mg402 2.079 . S
O419 C412 1.264 . S
O420 Mg421 1.990 1_655 S
O420 C434 1.253 . S
Mg421 O420 1.990 1_455 S
Mg421 O424 2.179 1_455 S
Mg421 O425 2.117 1_455 S
Mg421 O439 2.030 . S
O422 Mg423 2.072 1_565 S
O422 C434 1.260 1_455 S
Mg423 O422 2.072 1_545 S
Mg423 O424 2.098 1_445 S
Mg423 O426 2.079 . S
Mg423 O427 2.072 1_455 S
Mg423 O429 2.099 . S
Mg423 O440 2.079 1_545 S
O424 Mg421 2.179 1_655 S
O424 Mg423 2.098 1_665 S
O424 C435 1.281 . S
O425 Mg421 2.117 1_655 S
O425 C435 1.250 . S
O426 Mg423 2.079 . S
O426 C436 1.264 . S
O427 Mg423 2.072 1_655 S
O427 C437 1.260 . S
Mg428 O429 2.180 1_655 S
Mg428 O430 2.030 1_655 S
Mg428 O431 1.990 . S
Mg428 O432 2.117 1_655 S
O429 Mg423 2.099 . S
O429 Mg428 2.180 1_455 S
O429 C438 1.279 . S
O430 Mg428 2.030 1_455 S
O430 C436 1.248 . S
O431 Mg428 1.990 . S
O431 C437 1.253 . S
O432 Mg428 2.117 1_455 S
O432 C438 1.250 . S
C433 O439 1.248 . S
C433 O440 1.264 . S
C434 O420 1.253 . S
C434 O422 1.260 1_655 S
C435 O424 1.281 . S
C435 O425 1.250 . S
C436 O426 1.264 . S
C436 O430 1.248 . S
C437 O427 1.260 . S
C437 O431 1.253 . S
C438 O429 1.279 . S
C438 O432 1.250 . S
O439 Mg421 2.030 . S
O439 C433 1.248 . S
O440 Mg423 2.079 1_565 S
O440 C433 1.264 . S
O441 Mg442 1.990 . S
O441 C455 1.253 . S
Mg442 O441 1.990 . S
Mg442 O445 2.180 . S
Mg442 O446 2.117 . S
Mg442 O460 2.030 . S
O443 Mg444 2.072 . S
O443 C455 1.260 . S
Mg444 O443 2.072 . S
Mg444 O445 2.099 . S
Mg444 O447 2.079 . S
Mg444 O448 2.072 . S
Mg444 O450 2.099 . S
Mg444 O461 2.079 . S
O445 Mg442 2.180 . S
O445 Mg444 2.099 . S
O445 C456 1.279 . S
O446 Mg442 2.117 . S
O446 C456 1.250 . S
O447 Mg444 2.079 . S
O447 C457 1.264 . S
O448 Mg444 2.072 . S
O448 C458 1.260 . S
Mg449 O450 2.180 . S
Mg449 O451 2.030 . S
Mg449 O452 1.990 . S
Mg449 O453 2.117 . S
O450 Mg444 2.099 . S
O450 Mg449 2.180 . S
O450 C459 1.279 . S
O451 Mg449 2.030 . S
O451 C457 1.248 . S
O452 Mg449 1.990 . S
O452 C458 1.253 . S
O453 Mg449 2.117 . S
O453 C459 1.250 . S
C454 O460 1.248 . S
C454 O461 1.264 . S
C455 O441 1.253 . S
C455 O443 1.260 . S
C456 O445 1.279 . S
C456 O446 1.250 . S
C457 O447 1.264 . S
C457 O451 1.248 . S
C458 O448 1.260 . S
C458 O452 1.253 . S
C459 O450 1.279 . S
C459 O453 1.250 . S
O460 Mg442 2.030 . S
O460 C454 1.248 . S
O461 Mg444 2.079 . S
O461 C454 1.264 . S
O462 Mg463 1.990 . S
O462 C476 1.253 . S
Mg463 O462 1.990 . S
Mg463 O466 2.180 1_565 S
Mg463 O467 2.117 1_565 S
Mg463 O481 2.030 . S
O464 Mg465 2.072 1_565 S
O464 C476 1.260 . S
Mg465 O464 2.072 1_545 S
Mg465 O466 2.099 . S
Mg465 O468 2.079 1_554 S
Mg465 O469 2.072 1_544 S
Mg465 O471 2.099 1_544 S
Mg465 O482 2.079 . S
O466 Mg463 2.180 1_545 S
O466 Mg465 2.099 . S
O466 C477 1.279 . S
O467 Mg463 2.117 1_545 S
O467 C477 1.250 . S
O468 Mg465 2.079 1_556 S
O468 C478 1.264 . S
O469 Mg465 2.072 1_566 S
O469 C479 1.260 . S
Mg470 O471 2.180 1_545 S
Mg470 O472 2.030 . S
Mg470 O473 1.990 1_545 S
Mg470 O474 2.117 1_545 S
O471 Mg465 2.099 1_566 S
O471 Mg470 2.180 1_565 S
O471 C480 1.279 . S
O472 Mg470 2.030 . S
O472 C478 1.248 . S
O473 Mg470 1.990 1_565 S
O473 C479 1.253 . S
O474 Mg470 2.117 1_565 S
O474 C480 1.250 . S
C475 O481 1.248 1_545 S
C475 O482 1.264 . S
C476 O462 1.253 . S
C476 O464 1.260 . S
C477 O466 1.279 . S
C477 O467 1.250 . S
C478 O468 1.264 . S
C478 O472 1.248 . S
C479 O469 1.260 . S
C479 O473 1.253 . S
C480 O471 1.279 . S
C480 O474 1.250 . S
O481 Mg463 2.030 . S
O481 C475 1.248 1_565 S
O482 Mg465 2.079 . S
O482 C475 1.264 . S
O483 Mg484 1.990 . S
O483 C497 1.253 . S
Mg484 O483 1.990 . S
Mg484 O487 2.180 . S
Mg484 O488 2.117 . S
Mg484 O502 2.030 . S
O485 Mg486 2.072 . S
O485 C497 1.260 . S
Mg486 O485 2.072 . S
Mg486 O487 2.099 . S
Mg486 O489 2.079 . S
Mg486 O490 2.072 . S
Mg486 O492 2.099 . S
Mg486 O503 2.079 . S
O487 Mg484 2.180 . S
O487 Mg486 2.099 . S
O487 C498 1.279 . S
O488 Mg484 2.117 . S
O488 C498 1.250 . S
O489 Mg486 2.079 . S
O489 C499 1.264 . S
O490 Mg486 2.072 . S
O490 C500 1.260 . S
Mg491 O492 2.180 . S
Mg491 O493 2.030 . S
Mg491 O494 1.990 . S
Mg491 O495 2.117 . S
O492 Mg486 2.099 . S
O492 Mg491 2.180 . S
O492 C501 1.279 . S
O493 Mg491 2.030 . S
O493 C499 1.248 . S
O494 Mg491 1.990 . S
O494 C500 1.253 . S
O495 Mg491 2.117 . S
O495 C501 1.250 . S
C496 O502 1.248 . S
C496 O503 1.264 . S
C497 O483 1.253 . S
C497 O485 1.260 . S
C498 O487 1.279 . S
C498 O488 1.250 . S
C499 O489 1.264 . S
C499 O493 1.248 . S
C500 O490 1.260 . S
C500 O494 1.253 . S
C501 O492 1.279 . S
C501 O495 1.250 . S
O502 Mg484 2.030 . S
O502 C496 1.248 . S
O503 Mg486 2.079 . S
O503 C496 1.264 . S
O504 Mg505 1.990 . S
O504 C518 1.253 . S
Mg505 O504 1.990 . S
Mg505 O508 2.180 . S
Mg505 O509 2.117 . S
Mg505 O523 2.030 1_556 S
O506 Mg507 2.072 . S
O506 C518 1.260 1_554 S
Mg507 O506 2.072 . S
Mg507 O508 2.099 1_554 S
Mg507 O510 2.079 . S
Mg507 O511 2.072 1_554 S
Mg507 O513 2.099 . S
Mg507 O524 2.079 . S
O508 Mg505 2.180 . S
O508 Mg507 2.099 1_556 S
O508 C519 1.279 . S
O509 Mg505 2.117 . S
O509 C519 1.250 . S
O510 Mg507 2.079 . S
O510 C520 1.264 . S
O511 Mg507 2.072 1_556 S
O511 C521 1.260 . S
Mg512 O513 2.180 . S
Mg512 O514 2.030 . S
Mg512 O515 1.990 . S
Mg512 O516 2.117 . S
O513 Mg507 2.099 . S
O513 Mg512 2.180 . S
O513 C522 1.279 . S
O514 Mg512 2.030 . S
O514 C520 1.248 . S
O515 Mg512 1.990 . S
O515 C521 1.253 1_554 S
O516 Mg512 2.117 . S
O516 C522 1.250 . S
C517 O523 1.248 . S
C517 O524 1.264 . S
C518 O504 1.253 . S
C518 O506 1.260 1_556 S
C519 O508 1.279 . S
C519 O509 1.250 . S
C520 O510 1.264 . S
C520 O514 1.248 . S
C521 O511 1.260 . S
C521 O515 1.253 1_556 S
C522 O513 1.279 . S
C522 O516 1.250 . S
O523 Mg505 2.030 1_554 S
O523 C517 1.248 . S
O524 Mg507 2.079 . S
O524 C517 1.264 . S
O525 Mg526 1.990 . S
O525 C539 1.253 . S
Mg526 O525 1.990 . S
Mg526 O529 2.180 . S
Mg526 O530 2.117 . S
Mg526 O544 2.030 . S
O527 Mg528 2.072 . S
O527 C539 1.260 . S
Mg528 O527 2.072 . S
Mg528 O529 2.099 . S
Mg528 O531 2.079 . S
Mg528 O532 2.072 . S
Mg528 O534 2.099 . S
Mg528 O545 2.079 . S
O529 Mg526 2.180 . S
O529 Mg528 2.099 . S
O529 C540 1.279 . S
O530 Mg526 2.117 . S
O530 C540 1.250 . S
O531 Mg528 2.079 . S
O531 C541 1.264 . S
O532 Mg528 2.072 . S
O532 C542 1.260 . S
Mg533 O534 2.180 . S
Mg533 O535 2.030 . S
Mg533 O536 1.990 . S
Mg533 O537 2.117 . S
O534 Mg528 2.099 . S
O534 Mg533 2.180 . S
O534 C543 1.279 . S
O535 Mg533 2.030 . S
O535 C541 1.248 . S
O536 Mg533 1.990 . S
O536 C542 1.253 . S
O537 Mg533 2.117 . S
O537 C543 1.250 . S
C538 O544 1.248 . S
C538 O545 1.264 . S
C539 O525 1.253 . S
C539 O527 1.260 . S
C540 O529 1.279 . S
C540 O530 1.250 . S
C541 O531 1.264 . S
C541 O535 1.248 . S
C542 O532 1.260 . S
C542 O536 1.253 . S
C543 O534 1.279 . S
C543 O537 1.250 . S
O544 Mg526 2.030 . S
O544 C538 1.248 . S
O545 Mg528 2.079 . S
O545 C538 1.264 . S
O546 Mg547 1.990 . S
O546 C560 1.253 . S
Mg547 O546 1.990 . S
Mg547 O550 2.180 . S
Mg547 O551 2.117 . S
Mg547 O565 2.030 1_655 S
O548 Mg549 2.072 . S
O548 C560 1.260 1_455 S
Mg549 O548 2.072 . S
Mg549 O550 2.099 1_455 S
Mg549 O552 2.079 . S
Mg549 O553 2.072 1_455 S
Mg549 O555 2.099 . S
Mg549 O566 2.079 . S
O550 Mg547 2.180 . S
O550 Mg549 2.099 1_655 S
O550 C561 1.279 . S
O551 Mg547 2.117 . S
O551 C561 1.250 . S
O552 Mg549 2.079 . S
O552 C562 1.264 . S
O553 Mg549 2.072 1_655 S
O553 C563 1.260 . S
Mg554 O555 2.180 . S
Mg554 O556 2.030 . S
Mg554 O557 1.990 . S
Mg554 O558 2.117 . S
O555 Mg549 2.099 . S
O555 Mg554 2.180 . S
O555 C564 1.279 . S
O556 Mg554 2.030 . S
O556 C562 1.248 . S
O557 Mg554 1.990 . S
O557 C563 1.253 1_455 S
O558 Mg554 2.117 . S
O558 C564 1.250 . S
C559 O565 1.248 . S
C559 O566 1.264 . S
C560 O546 1.253 . S
C560 O548 1.260 1_655 S
C561 O550 1.279 . S
C561 O551 1.250 . S
C562 O552 1.264 . S
C562 O556 1.248 . S
C563 O553 1.260 . S
C563 O557 1.253 1_655 S
C564 O555 1.279 . S
C564 O558 1.250 . S
O565 Mg547 2.030 1_455 S
O565 C559 1.248 . S
O566 Mg549 2.079 . S
O566 C559 1.264 . S
O567 Mg568 1.990 . S
O567 C581 1.253 . S
Mg568 O567 1.990 . S
Mg568 O571 2.180 . S
Mg568 O572 2.117 . S
Mg568 O586 2.030 . S
O569 Mg570 2.072 . S
O569 C581 1.260 . S
Mg570 O569 2.072 . S
Mg570 O571 2.099 . S
Mg570 O573 2.079 . S
Mg570 O574 2.072 . S
Mg570 O576 2.099 . S
Mg570 O587 2.079 . S
O571 Mg568 2.180 . S
O571 Mg570 2.099 . S
O571 C582 1.279 . S
O572 Mg568 2.117 . S
O572 C582 1.250 . S
O573 Mg570 2.079 . S
O573 C583 1.264 . S
O574 Mg570 2.072 . S
O574 C584 1.260 . S
Mg575 O576 2.180 . S
Mg575 O577 2.030 . S
Mg575 O578 1.990 . S
Mg575 O579 2.117 . S
O576 Mg570 2.099 . S
O576 Mg575 2.180 . S
O576 C585 1.279 . S
O577 Mg575 2.030 . S
O577 C583 1.248 . S
O578 Mg575 1.990 . S
O578 C584 1.253 . S
O579 Mg575 2.117 . S
O579 C585 1.250 . S
C580 O586 1.248 . S
C580 O587 1.264 . S
C581 O567 1.253 . S
C581 O569 1.260 . S
C582 O571 1.279 . S
C582 O572 1.250 . S
C583 O573 1.264 . S
C583 O577 1.248 . S
C584 O574 1.260 . S
C584 O578 1.253 . S
C585 O576 1.279 . S
C585 O579 1.250 . S
O586 Mg568 2.030 . S
O586 C580 1.248 . S
O587 Mg570 2.079 . S
O587 C580 1.264 . S
O588 Mg589 1.990 . S
O588 C602 1.253 . S
Mg589 O588 1.990 . S
Mg589 O592 2.180 . S
Mg589 O593 2.117 . S
Mg589 O607 2.030 . S
O590 Mg591 2.072 . S
O590 C602 1.260 . S
Mg591 O590 2.072 . S
Mg591 O592 2.099 . S
Mg591 O594 2.079 . S
Mg591 O595 2.072 . S
Mg591 O597 2.099 . S
Mg591 O608 2.079 . S
O592 Mg589 2.180 . S
O592 Mg591 2.099 . S
O592 C603 1.279 . S
O593 Mg589 2.117 . S
O593 C603 1.250 . S
O594 Mg591 2.079 . S
O594 C604 1.264 . S
O595 Mg591 2.072 . S
O595 C605 1.260 . S
Mg596 O597 2.180 . S
Mg596 O598 2.030 . S
Mg596 O599 1.990 . S
Mg596 O600 2.117 . S
O597 Mg591 2.099 . S
O597 Mg596 2.180 . S
O597 C606 1.279 . S
O598 Mg596 2.030 . S
O598 C604 1.248 . S
O599 Mg596 1.990 . S
O599 C605 1.253 . S
O600 Mg596 2.117 . S
O600 C606 1.250 . S
C601 O607 1.248 . S
C601 O608 1.264 . S
C602 O588 1.253 . S
C602 O590 1.260 . S
C603 O592 1.279 . S
C603 O593 1.250 . S
C604 O594 1.264 . S
C604 O598 1.248 . S
C605 O595 1.260 . S
C605 O599 1.253 . S
C606 O597 1.279 . S
C606 O600 1.250 . S
O607 Mg589 2.030 . S
O607 C601 1.248 . S
O608 Mg591 2.079 . S
O608 C601 1.264 . S
O609 Mg610 1.990 . S
O609 C623 1.253 . S
Mg610 O609 1.990 . S
Mg610 O613 2.180 . S
Mg610 O614 2.117 . S
Mg610 O628 2.030 . S
O611 Mg612 2.072 . S
O611 C623 1.260 . S
Mg612 O611 2.072 . S
Mg612 O613 2.099 . S
Mg612 O615 2.079 . S
Mg612 O616 2.072 . S
Mg612 O618 2.099 . S
Mg612 O629 2.079 . S
O613 Mg610 2.180 . S
O613 Mg612 2.099 . S
O613 C624 1.279 . S
O614 Mg610 2.117 . S
O614 C624 1.250 . S
O615 Mg612 2.079 . S
O615 C625 1.264 . S
O616 Mg612 2.072 . S
O616 C626 1.260 . S
Mg617 O618 2.180 . S
Mg617 O619 2.030 . S
Mg617 O620 1.990 . S
Mg617 O621 2.117 . S
O618 Mg612 2.099 . S
O618 Mg617 2.180 . S
O618 C627 1.279 . S
O619 Mg617 2.030 . S
O619 C625 1.248 . S
O620 Mg617 1.990 . S
O620 C626 1.253 . S
O621 Mg617 2.117 . S
O621 C627 1.250 . S
C622 O628 1.248 . S
C622 O629 1.264 . S
C623 O609 1.253 . S
C623 O611 1.260 . S
C624 O613 1.279 . S
C624 O614 1.250 . S
C625 O615 1.264 . S
C625 O619 1.248 . S
C626 O616 1.260 . S
C626 O620 1.253 . S
C627 O618 1.279 . S
C627 O621 1.250 . S
O628 Mg610 2.030 . S
O628 C622 1.248 . S
O629 Mg612 2.079 . S
O629 C622 1.264 . S
O630 Mg631 1.990 . S
O630 C644 1.253 . S
Mg631 O630 1.990 . S
Mg631 O634 2.180 . S
Mg631 O635 2.117 . S
Mg631 O649 2.030 . S
O632 Mg633 2.072 . S
O632 C644 1.260 . S
Mg633 O632 2.072 . S
Mg633 O634 2.099 . S
Mg633 O636 2.079 . S
Mg633 O637 2.072 . S
Mg633 O639 2.099 . S
Mg633 O650 2.079 . S
O634 Mg631 2.180 . S
O634 Mg633 2.099 . S
O634 C645 1.279 . S
O635 Mg631 2.117 . S
O635 C645 1.250 . S
O636 Mg633 2.079 . S
O636 C646 1.264 . S
O637 Mg633 2.072 . S
O637 C647 1.260 . S
Mg638 O639 2.180 . S
Mg638 O640 2.030 . S
Mg638 O641 1.990 . S
Mg638 O642 2.117 . S
O639 Mg633 2.099 . S
O639 Mg638 2.180 . S
O639 C648 1.279 . S
O640 Mg638 2.030 . S
O640 C646 1.248 . S
O641 Mg638 1.990 . S
O641 C647 1.253 . S
O642 Mg638 2.117 . S
O642 C648 1.250 . S
C643 O649 1.248 . S
C643 O650 1.264 . S
C644 O630 1.253 . S
C644 O632 1.260 . S
C645 O634 1.279 . S
C645 O635 1.250 . S
C646 O636 1.264 . S
C646 O640 1.248 . S
C647 O637 1.260 . S
C647 O641 1.253 . S
C648 O639 1.279 . S
C648 O642 1.250 . S
O649 Mg631 2.030 . S
O649 C643 1.248 . S
O650 Mg633 2.079 . S
O650 C643 1.264 . S
O651 Mg652 1.990 . S
O651 C665 1.253 . S
Mg652 O651 1.990 . S
Mg652 O655 2.180 1_556 S
Mg652 O656 2.117 1_556 S
Mg652 O670 2.030 . S
O653 Mg654 2.072 1_556 S
O653 C665 1.260 . S
Mg654 O653 2.072 1_554 S
Mg654 O655 2.099 . S
Mg654 O657 2.079 1_455 S
Mg654 O658 2.072 1_454 S
Mg654 O660 2.099 1_454 S
Mg654 O671 2.079 . S
O655 Mg652 2.180 1_554 S
O655 Mg654 2.099 . S
O655 C666 1.279 . S
O656 Mg652 2.117 1_554 S
O656 C666 1.250 . S
O657 Mg654 2.079 1_655 S
O657 C667 1.264 . S
O658 Mg654 2.072 1_656 S
O658 C668 1.260 . S
Mg659 O660 2.180 1_554 S
Mg659 O661 2.030 . S
Mg659 O662 1.990 1_554 S
Mg659 O663 2.117 1_554 S
O660 Mg654 2.099 1_656 S
O660 Mg659 2.180 1_556 S
O660 C669 1.279 . S
O661 Mg659 2.030 . S
O661 C667 1.248 . S
O662 Mg659 1.990 1_556 S
O662 C668 1.253 . S
O663 Mg659 2.117 1_556 S
O663 C669 1.250 . S
C664 O670 1.248 1_554 S
C664 O671 1.264 . S
C665 O651 1.253 . S
C665 O653 1.260 . S
C666 O655 1.279 . S
C666 O656 1.250 . S
C667 O657 1.264 . S
C667 O661 1.248 . S
C668 O658 1.260 . S
C668 O662 1.253 . S
C669 O660 1.279 . S
C669 O663 1.250 . S
O670 Mg652 2.030 . S
O670 C664 1.248 1_556 S
O671 Mg654 2.079 . S
O671 C664 1.264 . S
C672 C673 1.387 1_655 S
C672 H676 0.950 . S
C672 C681 1.390 . S
C673 C672 1.387 1_455 S
C673 C675 1.387 . S
H674 C681 0.950 . S
C675 C673 1.387 . S
C675 C677 1.390 . S
C675 H679 0.950 . S
H676 C672 0.950 . S
C677 C675 1.390 . S
C677 C678 1.387 1_455 S
C677 H680 0.950 . S
C678 C677 1.387 1_655 S
C678 C681 1.387 . S
H679 C675 0.950 . S
H680 C677 0.950 . S
C681 C672 1.390 . S
C681 H674 0.950 . S
C681 C678 1.387 . S
C682 C683 1.387 . S
C682 H686 0.950 . S
C682 C691 1.390 . S
C683 C682 1.387 . S
C683 C685 1.387 . S
H684 C691 0.950 . S
C685 C683 1.387 . S
C685 C687 1.390 . S
C685 H689 0.950 . S
H686 C682 0.950 . S
C687 C685 1.390 . S
C687 C688 1.387 . S
C687 H690 0.950 . S
C688 C687 1.387 . S
C688 C691 1.387 . S
H689 C685 0.950 . S
H690 C687 0.950 . S
C691 C682 1.390 . S
C691 H684 0.950 . S
C691 C688 1.387 . S
C692 C693 1.387 . S
C692 H696 0.950 . S
C692 C701 1.390 . S
C693 C692 1.387 . S
C693 C695 1.387 . S
H694 C701 0.950 . S
C695 C693 1.387 . S
C695 C697 1.390 . S
C695 H699 0.950 . S
H696 C692 0.950 . S
C697 C695 1.390 . S
C697 C698 1.387 . S
C697 H700 0.950 . S
C698 C697 1.387 . S
C698 C701 1.387 . S
H699 C695 0.950 . S
H700 C697 0.950 . S
C701 C692 1.390 . S
C701 H694 0.950 . S
C701 C698 1.387 . S
C702 C703 1.387 . S
C702 H706 0.950 . S
C702 C711 1.390 . S
C703 C702 1.387 . S
C703 C705 1.387 . S
H704 C711 0.950 . S
C705 C703 1.387 . S
C705 C707 1.390 . S
C705 H709 0.950 . S
H706 C702 0.950 . S
C707 C705 1.390 . S
C707 C708 1.387 . S
C707 H710 0.950 . S
C708 C707 1.387 . S
C708 C711 1.387 . S
H709 C705 0.950 . S
H710 C707 0.950 . S
C711 C702 1.390 . S
C711 H704 0.950 . S
C711 C708 1.387 . S
C712 C713 1.387 1_655 S
C712 H716 0.950 . S
C712 C721 1.390 . S
C713 C712 1.387 1_455 S
C713 C715 1.387 . S
H714 C721 0.950 . S
C715 C713 1.387 . S
C715 C717 1.390 . S
C715 H719 0.950 . S
H716 C712 0.950 . S
C717 C715 1.390 . S
C717 C718 1.387 1_455 S
C717 H720 0.950 . S
C718 C717 1.387 1_655 S
C718 C721 1.387 . S
H719 C715 0.950 . S
H720 C717 0.950 . S
C721 C712 1.390 . S
C721 H714 0.950 . S
C721 C718 1.387 . S
C722 C723 1.387 . S
C722 H726 0.950 . S
C722 C731 1.390 . S
C723 C722 1.387 . S
C723 C725 1.387 . S
H724 C731 0.950 . S
C725 C723 1.387 . S
C725 C727 1.390 . S
C725 H729 0.950 . S
H726 C722 0.950 . S
C727 C725 1.390 . S
C727 C728 1.387 . S
C727 H730 0.950 . S
C728 C727 1.387 . S
C728 C731 1.387 . S
H729 C725 0.950 . S
H730 C727 0.950 . S
C731 C722 1.390 . S
C731 H724 0.950 . S
C731 C728 1.387 . S
C732 C733 1.387 . S
C732 H736 0.950 . S
C732 C741 1.390 . S
C733 C732 1.387 . S
C733 C735 1.387 . S
H734 C741 0.950 . S
C735 C733 1.387 . S
C735 C737 1.390 . S
C735 H739 0.950 . S
H736 C732 0.950 . S
C737 C735 1.390 . S
C737 C738 1.387 . S
C737 H740 0.950 . S
C738 C737 1.387 . S
C738 C741 1.387 . S
H739 C735 0.950 . S
H740 C737 0.950 . S
C741 C732 1.390 . S
C741 H734 0.950 . S
C741 C738 1.387 . S
C742 C743 1.387 . S
C742 H746 0.950 . S
C742 C751 1.390 . S
C743 C742 1.387 . S
C743 C745 1.387 . S
H744 C751 0.950 . S
C745 C743 1.387 . S
C745 C747 1.390 . S
C745 H749 0.950 . S
H746 C742 0.950 . S
C747 C745 1.390 . S
C747 C748 1.387 . S
C747 H750 0.950 . S
C748 C747 1.387 . S
C748 C751 1.387 . S
H749 C745 0.950 . S
H750 C747 0.950 . S
C751 C742 1.390 . S
C751 H744 0.950 . S
C751 C748 1.387 . S
C752 C753 1.387 . S
C752 H756 0.950 . S
C752 C761 1.390 . S
C753 C752 1.387 . S
C753 C755 1.387 1_545 S
H754 C761 0.950 . S
C755 C753 1.387 1_565 S
C755 C757 1.390 . S
C755 H759 0.950 . S
H756 C752 0.950 . S
C757 C755 1.390 . S
C757 C758 1.387 . S
C757 H760 0.950 . S
C758 C757 1.387 . S
C758 C761 1.387 1_565 S
H759 C755 0.950 . S
H760 C757 0.950 . S
C761 C752 1.390 . S
C761 H754 0.950 . S
C761 C758 1.387 1_545 S
C762 C763 1.387 . S
C762 H766 0.950 . S
C762 C771 1.390 . S
C763 C762 1.387 . S
C763 C765 1.387 . S
H764 C771 0.950 . S
C765 C763 1.387 . S
C765 C767 1.390 . S
C765 H769 0.950 . S
H766 C762 0.950 . S
C767 C765 1.390 . S
C767 C768 1.387 . S
C767 H770 0.950 . S
C768 C767 1.387 . S
C768 C771 1.387 . S
H769 C765 0.950 . S
H770 C767 0.950 . S
C771 C762 1.390 . S
C771 H764 0.950 . S
C771 C768 1.387 . S
C772 C773 1.387 . S
C772 H776 0.950 . S
C772 C781 1.390 . S
C773 C772 1.387 . S
C773 C775 1.387 1_545 S
H774 C781 0.950 . S
C775 C773 1.387 1_565 S
C775 C777 1.390 . S
C775 H779 0.950 . S
H776 C772 0.950 . S
C777 C775 1.390 . S
C777 C778 1.387 1_565 S
C777 H780 0.950 . S
C778 C777 1.387 1_545 S
C778 C781 1.387 . S
H779 C775 0.950 . S
H780 C777 0.950 . S
C781 C772 1.390 . S
C781 H774 0.950 . S
C781 C778 1.387 . S
C782 C783 1.387 . S
C782 H786 0.950 . S
C782 C791 1.390 . S
C783 C782 1.387 . S
C783 C785 1.387 . S
H784 C791 0.950 . S
C785 C783 1.387 . S
C785 C787 1.390 . S
C785 H789 0.950 . S
H786 C782 0.950 . S
C787 C785 1.390 . S
C787 C788 1.387 . S
C787 H790 0.950 . S
C788 C787 1.387 . S
C788 C791 1.387 . S
H789 C785 0.950 . S
H790 C787 0.950 . S
C791 C782 1.390 . S
C791 H784 0.950 . S
C791 C788 1.387 . S
C792 C793 1.387 . S
C792 H796 0.950 . S
C792 C801 1.390 . S
C793 C792 1.387 . S
C793 C795 1.387 1_545 S
H794 C801 0.950 . S
C795 C793 1.387 1_565 S
C795 C797 1.390 . S
C795 H799 0.950 . S
H796 C792 0.950 . S
C797 C795 1.390 . S
C797 C798 1.387 1_565 S
C797 H800 0.950 . S
C798 C797 1.387 1_545 S
C798 C801 1.387 . S
H799 C795 0.950 . S
H800 C797 0.950 . S
C801 C792 1.390 . S
C801 H794 0.950 . S
C801 C798 1.387 . S
C802 C803 1.387 . S
C802 H806 0.950 . S
C802 C811 1.390 . S
C803 C802 1.387 . S
C803 C805 1.387 . S
H804 C811 0.950 . S
C805 C803 1.387 . S
C805 C807 1.390 . S
C805 H809 0.950 . S
H806 C802 0.950 . S
C807 C805 1.390 . S
C807 C808 1.387 . S
C807 H810 0.950 . S
C808 C807 1.387 . S
C808 C811 1.387 . S
H809 C805 0.950 . S
H810 C807 0.950 . S
C811 C802 1.390 . S
C811 H804 0.950 . S
C811 C808 1.387 . S
C812 C813 1.363 1_565 S
C812 H816 0.950 . S
C812 C821 1.390 . S
C813 C812 1.363 1_545 S
C813 C815 1.409 . S
H814 C821 0.950 . S
C815 C813 1.409 . S
C815 C817 1.390 . S
C815 H819 0.950 . S
H816 C812 0.950 . S
C817 C815 1.390 . S
C817 C818 1.387 1_545 S
C817 H820 0.950 . S
C818 C817 1.387 1_565 S
C818 C821 1.387 . S
H819 C815 0.950 . S
H820 C817 0.950 . S
C821 C812 1.390 . S
C821 H814 0.950 . S
C821 C818 1.387 . S
C822 C823 1.387 . S
C822 H826 0.950 . S
C822 C831 1.390 . S
C823 C822 1.387 . S
C823 C825 1.387 . S
H824 C831 0.950 . S
C825 C823 1.387 . S
C825 C827 1.390 . S
C825 H829 0.950 . S
H826 C822 0.950 . S
C827 C825 1.390 . S
C827 C828 1.387 . S
C827 H830 0.950 . S
C828 C827 1.387 . S
C828 C831 1.387 . S
H829 C825 0.950 . S
H830 C827 0.950 . S
C831 C822 1.390 . S
C831 H824 0.950 . S
C831 C828 1.387 . S
C832 C833 1.387 . S
C832 H836 0.950 . S
C832 C841 1.390 . S
C833 C832 1.387 . S
C833 C835 1.387 1_554 S
H834 C841 0.950 . S
C835 C833 1.387 1_556 S
C835 C837 1.390 . S
C835 H839 0.950 . S
H836 C832 0.950 . S
C837 C835 1.390 . S
C837 C838 1.387 . S
C837 H840 0.950 . S
C838 C837 1.387 . S
C838 C841 1.387 1_556 S
H839 C835 0.950 . S
H840 C837 0.950 . S
C841 C832 1.390 . S
C841 H834 0.950 . S
C841 C838 1.387 1_554 S
C842 C843 1.387 1_556 S
C842 H846 0.950 . S
C842 C851 1.390 . S
C843 C842 1.387 1_554 S
C843 C845 1.387 . S
H844 C851 0.950 . S
C845 C843 1.387 . S
C845 C847 1.390 . S
C845 H849 0.950 . S
H846 C842 0.950 . S
C847 C845 1.390 . S
C847 C848 1.387 . S
C847 H850 0.950 . S
C848 C847 1.387 . S
C848 C851 1.387 1_554 S
H849 C845 0.950 . S
H850 C847 0.950 . S
C851 C842 1.390 . S
C851 H844 0.950 . S
C851 C848 1.387 1_556 S
C852 C853 1.387 . S
C852 H856 0.950 . S
C852 C861 1.390 . S
C853 C852 1.387 . S
C853 C855 1.387 . S
H854 C861 0.950 . S
C855 C853 1.387 . S
C855 C857 1.390 . S
C855 H859 0.950 . S
H856 C852 0.950 . S
C857 C855 1.390 . S
C857 C858 1.387 . S
C857 H860 0.950 . S
C858 C857 1.387 . S
C858 C861 1.387 . S
H859 C855 0.950 . S
H860 C857 0.950 . S
C861 C852 1.390 . S
C861 H854 0.950 . S
C861 C858 1.387 . S
C862 C863 1.387 . S
C862 H866 0.950 . S
C862 C871 1.390 . S
C863 C862 1.387 . S
C863 C865 1.387 . S
H864 C871 0.950 . S
C865 C863 1.387 . S
C865 C867 1.390 . S
C865 H869 0.950 . S
H866 C862 0.950 . S
C867 C865 1.390 . S
C867 C868 1.387 . S
C867 H870 0.950 . S
C868 C867 1.387 . S
C868 C871 1.387 . S
H869 C865 0.950 . S
H870 C867 0.950 . S
C871 C862 1.390 . S
C871 H864 0.950 . S
C871 C868 1.387 . S
C872 C873 1.387 . S
C872 H876 0.950 . S
C872 C881 1.390 . S
C873 C872 1.387 . S
C873 C875 1.387 . S
H874 C881 0.950 . S
C875 C873 1.387 . S
C875 C877 1.390 . S
C875 H879 0.950 . S
H876 C872 0.950 . S
C877 C875 1.390 . S
C877 C878 1.387 . S
C877 H880 0.950 . S
C878 C877 1.387 . S
C878 C881 1.387 . S
H879 C875 0.950 . S
H880 C877 0.950 . S
C881 C872 1.390 . S
C881 H874 0.950 . S
C881 C878 1.387 . S
C882 C883 1.387 . S
C882 H886 0.950 . S
C882 C891 1.390 . S
C883 C882 1.387 . S
C883 C885 1.387 . S
H884 C891 0.950 . S
C885 C883 1.387 . S
C885 C887 1.390 . S
C885 H889 0.950 . S
H886 C882 0.950 . S
C887 C885 1.390 . S
C887 C888 1.387 . S
C887 H890 0.950 . S
C888 C887 1.387 . S
C888 C891 1.387 . S
H889 C885 0.950 . S
H890 C887 0.950 . S
C891 C882 1.390 . S
C891 H884 0.950 . S
C891 C888 1.387 . S
C892 C893 1.387 . S
C892 H896 0.950 . S
C892 C901 1.390 . S
C893 C892 1.387 . S
C893 C895 1.387 . S
H894 C901 0.950 . S
C895 C893 1.387 . S
C895 C897 1.390 . S
C895 H899 0.950 . S
H896 C892 0.950 . S
C897 C895 1.390 . S
C897 C898 1.387 . S
C897 H900 0.950 . S
C898 C897 1.387 . S
C898 C901 1.387 . S
H899 C895 0.950 . S
H900 C897 0.950 . S
C901 C892 1.390 . S
C901 H894 0.950 . S
C901 C898 1.387 . S
C902 C903 1.387 . S
C902 H906 0.950 . S
C902 C911 1.390 . S
C903 C902 1.387 . S
C903 C905 1.387 . S
H904 C911 0.950 . S
C905 C903 1.387 . S
C905 C907 1.390 . S
C905 H909 0.950 . S
H906 C902 0.950 . S
C907 C905 1.390 . S
C907 C908 1.387 . S
C907 H910 0.950 . S
C908 C907 1.387 . S
C908 C911 1.387 . S
H909 C905 0.950 . S
H910 C907 0.950 . S
C911 C902 1.390 . S
C911 H904 0.950 . S
C911 C908 1.387 . S
C912 C913 1.387 1_655 S
C912 H916 0.950 . S
C912 C921 1.390 . S
C913 C912 1.387 1_455 S
C913 C915 1.387 . S
H914 C921 0.950 . S
C915 C913 1.387 . S
C915 C917 1.390 . S
C915 H919 0.950 . S
H916 C912 0.950 . S
C917 C915 1.390 . S
C917 C918 1.387 . S
C917 H920 0.950 . S
C918 C917 1.387 . S
C918 C921 1.387 1_455 S
H919 C915 0.950 . S
H920 C917 0.950 . S
C921 C912 1.390 . S
C921 H914 0.950 . S
C921 C918 1.387 1_655 S
C922 C923 1.387 . S
C922 H926 0.950 . S
C922 C931 1.390 . S
C923 C922 1.387 . S
C923 C925 1.387 . S
H924 C931 0.950 . S
C925 C923 1.387 . S
C925 C927 1.390 . S
C925 H929 0.950 . S
H926 C922 0.950 . S
C927 C925 1.390 . S
C927 C928 1.387 . S
C927 H930 0.950 . S
C928 C927 1.387 . S
C928 C931 1.387 . S
H929 C925 0.950 . S
H930 C927 0.950 . S
C931 C922 1.390 . S
C931 H924 0.950 . S
C931 C928 1.387 . S
C932 C933 1.387 . S
C932 H936 0.950 . S
C932 C941 1.390 . S
C933 C932 1.387 . S
C933 C935 1.387 . S
H934 C941 0.950 . S
C935 C933 1.387 . S
C935 C937 1.390 . S
C935 H939 0.950 . S
H936 C932 0.950 . S
C937 C935 1.390 . S
C937 C938 1.387 . S
C937 H940 0.950 . S
C938 C937 1.387 . S
C938 C941 1.387 . S
H939 C935 0.950 . S
H940 C937 0.950 . S
C941 C932 1.390 . S
C941 H934 0.950 . S
C941 C938 1.387 . S
C942 C943 1.387 . S
C942 H946 0.950 . S
C942 C951 1.390 . S
C943 C942 1.387 . S
C943 C945 1.387 . S
H944 C951 0.950 . S
C945 C943 1.387 . S
C945 C947 1.390 . S
C945 H949 0.950 . S
H946 C942 0.950 . S
C947 C945 1.390 . S
C947 C948 1.387 . S
C947 H950 0.950 . S
C948 C947 1.387 . S
C948 C951 1.387 . S
H949 C945 0.950 . S
H950 C947 0.950 . S
C951 C942 1.390 . S
C951 H944 0.950 . S
C951 C948 1.387 . S
C952 C953 1.387 1_655 S
C952 H956 0.950 . S
C952 C961 1.390 . S
C953 C952 1.387 1_455 S
C953 C955 1.387 . S
H954 C961 0.950 . S
C955 C953 1.387 . S
C955 C957 1.390 . S
C955 H959 0.950 . S
H956 C952 0.950 . S
C957 C955 1.390 . S
C957 C958 1.387 . S
C957 H960 0.950 . S
C958 C957 1.387 . S
C958 C961 1.387 1_455 S
H959 C955 0.950 . S
H960 C957 0.950 . S
C961 C952 1.390 . S
C961 H954 0.950 . S
C961 C958 1.387 1_655 S
C962 C963 1.387 . S
C962 H966 0.950 . S
C962 C971 1.390 . S
C963 C962 1.387 . S
C963 C965 1.387 . S
H964 C971 0.950 . S
C965 C963 1.387 . S
C965 C967 1.390 . S
C965 H969 0.950 . S
H966 C962 0.950 . S
C967 C965 1.390 . S
C967 C968 1.387 . S
C967 H970 0.950 . S
C968 C967 1.387 . S
C968 C971 1.387 . S
H969 C965 0.950 . S
H970 C967 0.950 . S
C971 C962 1.390 . S
C971 H964 0.950 . S
C971 C968 1.387 . S
C972 C973 1.387 . S
C972 H976 0.950 . S
C972 C981 1.390 . S
C973 C972 1.387 . S
C973 C975 1.387 . S
H974 C981 0.950 . S
C975 C973 1.387 . S
C975 C977 1.390 . S
C975 H979 0.950 . S
H976 C972 0.950 . S
C977 C975 1.390 . S
C977 C978 1.387 . S
C977 H980 0.950 . S
C978 C977 1.387 . S
C978 C981 1.387 . S
H979 C975 0.950 . S
H980 C977 0.950 . S
C981 C972 1.390 . S
C981 H974 0.950 . S
C981 C978 1.387 . S
C982 C983 1.387 . S
C982 H986 0.950 . S
C982 C991 1.390 . S
C983 C982 1.387 . S
C983 C985 1.387 . S
H984 C991 0.950 . S
C985 C983 1.387 . S
C985 C987 1.390 . S
C985 H989 0.950 . S
H986 C982 0.950 . S
C987 C985 1.390 . S
C987 C988 1.387 . S
C987 H990 0.950 . S
C988 C987 1.387 . S
C988 C991 1.387 . S
H989 C985 0.950 . S
H990 C987 0.950 . S
C991 C982 1.390 . S
C991 H984 0.950 . S
C991 C988 1.387 . S
C992 C993 1.387 . S
C992 H996 0.950 . S
C992 C1001 1.390 . S
C993 C992 1.387 . S
C993 C995 1.387 1_545 S
H994 C1001 0.950 . S
C995 C993 1.387 1_565 S
C995 C997 1.390 . S
C995 H999 0.950 . S
H996 C992 0.950 . S
C997 C995 1.390 . S
C997 C998 1.387 1_565 S
C997 H1000 0.950 . S
C998 C997 1.387 1_545 S
C998 C1001 1.387 . S
H999 C995 0.950 . S
H1000 C997 0.950 . S
C1001 C992 1.390 . S
C1001 H994 0.950 . S
C1001 C998 1.387 . S
C1002 C1003 1.387 . S
C1002 H1006 0.950 . S
C1002 C1011 1.390 . S
C1003 C1002 1.387 . S
C1003 C1005 1.387 . S
H1004 C1011 0.950 . S
C1005 C1003 1.387 . S
C1005 C1007 1.390 . S
C1005 H1009 0.950 . S
H1006 C1002 0.950 . S
C1007 C1005 1.390 . S
C1007 C1008 1.387 . S
C1007 H1010 0.950 . S
C1008 C1007 1.387 . S
C1008 C1011 1.387 . S
H1009 C1005 0.950 . S
H1010 C1007 0.950 . S
C1011 C1002 1.390 . S
C1011 H1004 0.950 . S
C1011 C1008 1.387 . S
C1012 C1013 1.387 . S
C1012 H1016 0.950 . S
C1012 C1021 1.390 . S
C1013 C1012 1.387 . S
C1013 C1015 1.387 1_545 S
H1014 C1021 0.950 . S
C1015 C1013 1.387 1_565 S
C1015 C1017 1.390 . S
C1015 H1019 0.950 . S
H1016 C1012 0.950 . S
C1017 C1015 1.390 . S
C1017 C1018 1.387 . S
C1017 H1020 0.950 . S
C1018 C1017 1.387 . S
C1018 C1021 1.387 1_565 S
H1019 C1015 0.950 . S
H1020 C1017 0.950 . S
C1021 C1012 1.390 . S
C1021 H1014 0.950 . S
C1021 C1018 1.387 1_545 S
C1022 C1023 1.387 . S
C1022 H1026 0.950 . S
C1022 C1031 1.390 . S
C1023 C1022 1.387 . S
C1023 C1025 1.387 . S
H1024 C1031 0.950 . S
C1025 C1023 1.387 . S
C1025 C1027 1.390 . S
C1025 H1029 0.950 . S
H1026 C1022 0.950 . S
C1027 C1025 1.390 . S
C1027 C1028 1.387 . S
C1027 H1030 0.950 . S
C1028 C1027 1.387 . S
C1028 C1031 1.387 . S
H1029 C1025 0.950 . S
H1030 C1027 0.950 . S
C1031 C1022 1.390 . S
C1031 H1024 0.950 . S
C1031 C1028 1.387 . S
C1032 C1033 1.387 1_545 S
C1032 H1036 0.950 . S
C1032 C1041 1.390 . S
C1033 C1032 1.387 1_565 S
C1033 C1035 1.387 . S
H1034 C1041 0.950 . S
C1035 C1033 1.387 . S
C1035 C1037 1.390 . S
C1035 H1039 0.950 . S
H1036 C1032 0.950 . S
C1037 C1035 1.390 . S
C1037 C1038 1.387 . S
C1037 H1040 0.950 . S
C1038 C1037 1.387 . S
C1038 C1041 1.387 1_565 S
H1039 C1035 0.950 . S
H1040 C1037 0.950 . S
C1041 C1032 1.390 . S
C1041 H1034 0.950 . S
C1041 C1038 1.387 1_545 S
C1042 C1043 1.387 . S
C1042 H1046 0.950 . S
C1042 C1051 1.390 . S
C1043 C1042 1.387 . S
C1043 C1045 1.387 . S
H1044 C1051 0.950 . S
C1045 C1043 1.387 . S
C1045 C1047 1.390 . S
C1045 H1049 0.950 . S
H1046 C1042 0.950 . S
C1047 C1045 1.390 . S
C1047 C1048 1.387 . S
C1047 H1050 0.950 . S
C1048 C1047 1.387 . S
C1048 C1051 1.387 . S
H1049 C1045 0.950 . S
H1050 C1047 0.950 . S
C1051 C1042 1.390 . S
C1051 H1044 0.950 . S
C1051 C1048 1.387 . S
C1052 C1053 1.387 . S
C1052 H1056 0.950 . S
C1052 C1061 1.390 . S
C1053 C1052 1.387 . S
C1053 C1055 1.387 1_545 S
H1054 C1061 0.950 . S
C1055 C1053 1.387 1_565 S
C1055 C1057 1.390 . S
C1055 H1059 0.950 . S
H1056 C1052 0.950 . S
C1057 C1055 1.390 . S
C1057 C1058 1.387 1_565 S
C1057 H1060 0.950 . S
C1058 C1057 1.387 1_545 S
C1058 C1061 1.387 . S
H1059 C1055 0.950 . S
H1060 C1057 0.950 . S
C1061 C1052 1.390 . S
C1061 H1054 0.950 . S
C1061 C1058 1.387 . S
C1062 C1063 1.387 . S
C1062 H1066 0.950 . S
C1062 C1071 1.390 . S
C1063 C1062 1.387 . S
C1063 C1065 1.387 . S
H1064 C1071 0.950 . S
C1065 C1063 1.387 . S
C1065 C1067 1.390 . S
C1065 H1069 0.950 . S
H1066 C1062 0.950 . S
C1067 C1065 1.390 . S
C1067 C1068 1.387 . S
C1067 H1070 0.950 . S
C1068 C1067 1.387 . S
C1068 C1071 1.387 . S
H1069 C1065 0.950 . S
H1070 C1067 0.950 . S
C1071 C1062 1.390 . S
C1071 H1064 0.950 . S
C1071 C1068 1.387 . S
C1072 C1073 1.387 1_556 S
C1072 H1076 0.950 . S
C1072 C1081 1.390 . S
C1073 C1072 1.387 1_554 S
C1073 C1075 1.387 . S
H1074 C1081 0.950 . S
C1075 C1073 1.387 . S
C1075 C1077 1.390 . S
C1075 H1079 0.950 . S
H1076 C1072 0.950 . S
C1077 C1075 1.390 . S
C1077 C1078 1.387 . S
C1077 H1080 0.950 . S
C1078 C1077 1.387 . S
C1078 C1081 1.387 1_554 S
H1079 C1075 0.950 . S
H1080 C1077 0.950 . S
C1081 C1072 1.390 . S
C1081 H1074 0.950 . S
C1081 C1078 1.387 1_556 S
C1082 C1083 1.387 1_556 S
C1082 H1086 0.950 . S
C1082 C1091 1.390 . S
C1083 C1082 1.387 1_554 S
C1083 C1085 1.387 . S
H1084 C1091 0.950 . S
C1085 C1083 1.387 . S
C1085 C1087 1.390 . S
C1085 H1089 0.950 . S
H1086 C1082 0.950 . S
C1087 C1085 1.390 . S
C1087 C1088 1.387 1_554 S
C1087 H1090 0.950 . S
C1088 C1087 1.387 1_556 S
C1088 C1091 1.387 . S
H1089 C1085 0.950 . S
H1090 C1087 0.950 . S
C1091 C1082 1.390 . S
C1091 H1084 0.950 . S
C1091 C1088 1.387 . S
C1092 C1093 1.387 . S
C1092 H1096 0.950 . S
C1092 C1101 1.390 . S
C1093 C1092 1.387 . S
C1093 C1095 1.387 . S
H1094 C1101 0.950 . S
C1095 C1093 1.387 . S
C1095 C1097 1.390 . S
C1095 H1099 0.950 . S
H1096 C1092 0.950 . S
C1097 C1095 1.390 . S
C1097 C1098 1.387 . S
C1097 H1100 0.950 . S
C1098 C1097 1.387 . S
C1098 C1101 1.387 . S
H1099 C1095 0.950 . S
H1100 C1097 0.950 . S
C1101 C1092 1.390 . S
C1101 H1094 0.950 . S
C1101 C1098 1.387 . S
C1102 C1103 1.387 . S
C1102 H1106 0.950 . S
C1102 C1111 1.390 . S
C1103 C1102 1.387 . S
C1103 C1105 1.387 . S
H1104 C1111 0.950 . S
C1105 C1103 1.387 . S
C1105 C1107 1.390 . S
C1105 H1109 0.950 . S
H1106 C1102 0.950 . S
C1107 C1105 1.390 . S
C1107 C1108 1.387 . S
C1107 H1110 0.950 . S
C1108 C1107 1.387 . S
C1108 C1111 1.387 . S
H1109 C1105 0.950 . S
H1110 C1107 0.950 . S
C1111 C1102 1.390 . S
C1111 H1104 0.950 . S
C1111 C1108 1.387 . S
C1112 C1113 1.387 . S
C1112 H1116 0.950 . S
C1112 C1121 1.390 . S
C1113 C1112 1.387 . S
C1113 C1115 1.387 . S
H1114 C1121 0.950 . S
C1115 C1113 1.387 . S
C1115 C1117 1.390 . S
C1115 H1119 0.950 . S
H1116 C1112 0.950 . S
C1117 C1115 1.390 . S
C1117 C1118 1.387 . S
C1117 H1120 0.950 . S
C1118 C1117 1.387 . S
C1118 C1121 1.387 . S
H1119 C1115 0.950 . S
H1120 C1117 0.950 . S
C1121 C1112 1.390 . S
C1121 H1114 0.950 . S
C1121 C1118 1.387 . S
C1122 C1123 1.387 . S
C1122 H1126 0.950 . S
C1122 C1131 1.390 . S
C1123 C1122 1.387 . S
C1123 C1125 1.387 . S
H1124 C1131 0.950 . S
C1125 C1123 1.387 . S
C1125 C1127 1.390 . S
C1125 H1129 0.950 . S
H1126 C1122 0.950 . S
C1127 C1125 1.390 . S
C1127 C1128 1.387 . S
C1127 H1130 0.950 . S
C1128 C1127 1.387 . S
C1128 C1131 1.387 . S
H1129 C1125 0.950 . S
H1130 C1127 0.950 . S
C1131 C1122 1.390 . S
C1131 H1124 0.950 . S
C1131 C1128 1.387 . S
C1132 C1133 1.387 . S
C1132 H1136 0.950 . S
C1132 C1141 1.390 . S
C1133 C1132 1.387 . S
C1133 C1135 1.387 . S
H1134 C1141 0.950 . S
C1135 C1133 1.387 . S
C1135 C1137 1.390 . S
C1135 H1139 0.950 . S
H1136 C1132 0.950 . S
C1137 C1135 1.390 . S
C1137 C1138 1.387 . S
C1137 H1140 0.950 . S
C1138 C1137 1.387 . S
C1138 C1141 1.387 . S
H1139 C1135 0.950 . S
H1140 C1137 0.950 . S
C1141 C1132 1.390 . S
C1141 H1134 0.950 . S
C1141 C1138 1.387 . S
C1142 C1143 1.387 . S
C1142 H1146 0.950 . S
C1142 C1151 1.390 . S
C1143 C1142 1.387 . S
C1143 C1145 1.387 . S
H1144 C1151 0.950 . S
C1145 C1143 1.387 . S
C1145 C1147 1.390 . S
C1145 H1149 0.950 . S
H1146 C1142 0.950 . S
C1147 C1145 1.390 . S
C1147 C1148 1.387 . S
C1147 H1150 0.950 . S
C1148 C1147 1.387 . S
C1148 C1151 1.387 . S
H1149 C1145 0.950 . S
H1150 C1147 0.950 . S
C1151 C1142 1.390 . S
C1151 H1144 0.950 . S
C1151 C1148 1.387 . S
C1152 C1153 1.387 . S
C1152 H1156 0.950 . S
C1152 C1161 1.390 . S
C1153 C1152 1.387 . S
C1153 C1155 1.387 . S
H1154 C1161 0.950 . S
C1155 C1153 1.387 . S
C1155 C1157 1.390 . S
C1155 H1159 0.950 . S
H1156 C1152 0.950 . S
C1157 C1155 1.390 . S
C1157 C1158 1.387 . S
C1157 H1160 0.950 . S
C1158 C1157 1.387 . S
C1158 C1161 1.387 . S
H1159 C1155 0.950 . S
H1160 C1157 0.950 . S
C1161 C1152 1.390 . S
C1161 H1154 0.950 . S
C1161 C1158 1.387 . S
C1162 C1163 1.387 . S
C1162 H1166 0.950 . S
C1162 C1171 1.390 . S
C1163 C1162 1.387 . S
C1163 C1165 1.387 . S
H1164 C1171 0.950 . S
C1165 C1163 1.387 . S
C1165 C1167 1.390 . S
C1165 H1169 0.950 . S
H1166 C1162 0.950 . S
C1167 C1165 1.390 . S
C1167 C1168 1.387 . S
C1167 H1170 0.950 . S
C1168 C1167 1.387 . S
C1168 C1171 1.387 . S
H1169 C1165 0.950 . S
H1170 C1167 0.950 . S
C1171 C1162 1.390 . S
C1171 H1164 0.950 . S
C1171 C1168 1.387 . S
C1172 C1173 1.387 1_655 S
C1172 H1176 0.950 . S
C1172 C1181 1.390 . S
C1173 C1172 1.387 1_455 S
C1173 C1175 1.387 . S
H1174 C1181 0.950 . S
C1175 C1173 1.387 . S
C1175 C1177 1.390 . S
C1175 H1179 0.950 . S
H1176 C1172 0.950 . S
C1177 C1175 1.390 . S
C1177 C1178 1.387 . S
C1177 H1180 0.950 . S
C1178 C1177 1.387 . S
C1178 C1181 1.387 1_455 S
H1179 C1175 0.950 . S
H1180 C1177 0.950 . S
C1181 C1172 1.390 . S
C1181 H1174 0.950 . S
C1181 C1178 1.387 1_655 S
C1182 C1183 1.387 . S
C1182 H1186 0.950 . S
C1182 C1191 1.390 . S
C1183 C1182 1.387 . S
C1183 C1185 1.387 . S
H1184 C1191 0.950 . S
C1185 C1183 1.387 . S
C1185 C1187 1.390 . S
C1185 H1189 0.950 . S
H1186 C1182 0.950 . S
C1187 C1185 1.390 . S
C1187 C1188 1.387 . S
C1187 H1190 0.950 . S
C1188 C1187 1.387 . S
C1188 C1191 1.387 . S
H1189 C1185 0.950 . S
H1190 C1187 0.950 . S
C1191 C1182 1.390 . S
C1191 H1184 0.950 . S
C1191 C1188 1.387 . S
C1192 C1193 1.387 . S
C1192 H1196 0.950 . S
C1192 C1201 1.390 . S
C1193 C1192 1.387 . S
C1193 C1195 1.387 . S
H1194 C1201 0.950 . S
C1195 C1193 1.387 . S
C1195 C1197 1.390 . S
C1195 H1199 0.950 . S
H1196 C1192 0.950 . S
C1197 C1195 1.390 . S
C1197 C1198 1.387 . S
C1197 H1200 0.950 . S
C1198 C1197 1.387 . S
C1198 C1201 1.387 . S
H1199 C1195 0.950 . S
H1200 C1197 0.950 . S
C1201 C1192 1.390 . S
C1201 H1194 0.950 . S
C1201 C1198 1.387 . S
C1202 C1203 1.387 . S
C1202 H1206 0.950 . S
C1202 C1211 1.390 . S
C1203 C1202 1.387 . S
C1203 C1205 1.387 . S
H1204 C1211 0.950 . S
C1205 C1203 1.387 . S
C1205 C1207 1.390 . S
C1205 H1209 0.950 . S
H1206 C1202 0.950 . S
C1207 C1205 1.390 . S
C1207 C1208 1.387 . S
C1207 H1210 0.950 . S
C1208 C1207 1.387 . S
C1208 C1211 1.387 . S
H1209 C1205 0.950 . S
H1210 C1207 0.950 . S
C1211 C1202 1.390 . S
C1211 H1204 0.950 . S
C1211 C1208 1.387 . S
C1212 C1213 1.387 . S
C1212 H1216 0.950 . S
C1212 C1221 1.390 . S
C1213 C1212 1.387 . S
C1213 C1215 1.387 1_455 S
H1214 C1221 0.950 . S
C1215 C1213 1.387 1_655 S
C1215 C1217 1.390 . S
C1215 H1219 0.950 . S
H1216 C1212 0.950 . S
C1217 C1215 1.390 . S
C1217 C1218 1.387 1_655 S
C1217 H1220 0.950 . S
C1218 C1217 1.387 1_455 S
C1218 C1221 1.387 . S
H1219 C1215 0.950 . S
H1220 C1217 0.950 . S
C1221 C1212 1.390 . S
C1221 H1214 0.950 . S
C1221 C1218 1.387 . S
C1222 C1223 1.387 . S
C1222 H1226 0.950 . S
C1222 C1231 1.390 . S
C1223 C1222 1.387 . S
C1223 C1225 1.387 . S
H1224 C1231 0.950 . S
C1225 C1223 1.387 . S
C1225 C1227 1.390 . S
C1225 H1229 0.950 . S
H1226 C1222 0.950 . S
C1227 C1225 1.390 . S
C1227 C1228 1.387 . S
C1227 H1230 0.950 . S
C1228 C1227 1.387 . S
C1228 C1231 1.387 . S
H1229 C1225 0.950 . S
H1230 C1227 0.950 . S
C1231 C1222 1.390 . S
C1231 H1224 0.950 . S
C1231 C1228 1.387 . S
C1232 C1233 1.387 . S
C1232 H1236 0.950 . S
C1232 C1241 1.390 . S
C1233 C1232 1.387 . S
C1233 C1235 1.387 . S
H1234 C1241 0.950 . S
C1235 C1233 1.387 . S
C1235 C1237 1.390 . S
C1235 H1239 0.950 . S
H1236 C1232 0.950 . S
C1237 C1235 1.390 . S
C1237 C1238 1.387 . S
C1237 H1240 0.950 . S
C1238 C1237 1.387 . S
C1238 C1241 1.387 . S
H1239 C1235 0.950 . S
H1240 C1237 0.950 . S
C1241 C1232 1.390 . S
C1241 H1234 0.950 . S
C1241 C1238 1.387 . S
C1242 C1243 1.387 . S
C1242 H1246 0.950 . S
C1242 C1251 1.390 . S
C1243 C1242 1.387 . S
C1243 C1245 1.387 . S
H1244 C1251 0.950 . S
C1245 C1243 1.387 . S
C1245 C1247 1.390 . S
C1245 H1249 0.950 . S
H1246 C1242 0.950 . S
C1247 C1245 1.390 . S
C1247 C1248 1.387 . S
C1247 H1250 0.950 . S
C1248 C1247 1.387 . S
C1248 C1251 1.387 . S
H1249 C1245 0.950 . S
H1250 C1247 0.950 . S
C1251 C1242 1.390 . S
C1251 H1244 0.950 . S
C1251 C1248 1.387 . S
C1252 C1253 1.387 . S
C1252 H1256 0.950 . S
C1252 C1261 1.390 . S
C1253 C1252 1.387 . S
C1253 C1255 1.387 . S
H1254 C1261 0.950 . S
C1255 C1253 1.387 . S
C1255 C1257 1.390 . S
C1255 H1259 0.950 . S
H1256 C1252 0.950 . S
C1257 C1255 1.390 . S
C1257 C1258 1.387 . S
C1257 H1260 0.950 . S
C1258 C1257 1.387 . S
C1258 C1261 1.387 . S
H1259 C1255 0.950 . S
H1260 C1257 0.950 . S
C1261 C1252 1.390 . S
C1261 H1254 0.950 . S
C1261 C1258 1.387 . S
C1262 C1263 1.387 . S
C1262 H1266 0.950 . S
C1262 C1271 1.390 . S
C1263 C1262 1.387 . S
C1263 C1265 1.387 . S
H1264 C1271 0.950 . S
C1265 C1263 1.387 . S
C1265 C1267 1.390 . S
C1265 H1269 0.950 . S
H1266 C1262 0.950 . S
C1267 C1265 1.390 . S
C1267 C1268 1.387 . S
C1267 H1270 0.950 . S
C1268 C1267 1.387 . S
C1268 C1271 1.387 . S
H1269 C1265 0.950 . S
H1270 C1267 0.950 . S
C1271 C1262 1.390 . S
C1271 H1264 0.950 . S
C1271 C1268 1.387 . S
C1272 C1273 1.387 . S
C1272 H1276 0.950 . S
C1272 C1281 1.390 . S
C1273 C1272 1.387 . S
C1273 C1275 1.387 . S
H1274 C1281 0.950 . S
C1275 C1273 1.387 . S
C1275 C1277 1.390 . S
C1275 H1279 0.950 . S
H1276 C1272 0.950 . S
C1277 C1275 1.390 . S
C1277 C1278 1.387 . S
C1277 H1280 0.950 . S
C1278 C1277 1.387 . S
C1278 C1281 1.387 . S
H1279 C1275 0.950 . S
H1280 C1277 0.950 . S
C1281 C1272 1.390 . S
C1281 H1274 0.950 . S
C1281 C1278 1.387 . S
C1282 C1283 1.387 . S
C1282 H1286 0.950 . S
C1282 C1291 1.390 . S
C1283 C1282 1.387 . S
C1283 C1285 1.387 . S
H1284 C1291 0.950 . S
C1285 C1283 1.387 . S
C1285 C1287 1.390 . S
C1285 H1289 0.950 . S
H1286 C1282 0.950 . S
C1287 C1285 1.390 . S
C1287 C1288 1.387 . S
C1287 H1290 0.950 . S
C1288 C1287 1.387 . S
C1288 C1291 1.387 . S
H1289 C1285 0.950 . S
H1290 C1287 0.950 . S
C1291 C1282 1.390 . S
C1291 H1284 0.950 . S
C1291 C1288 1.387 . S
C1292 C1293 1.387 . S
C1292 H1296 0.950 . S
C1292 C1301 1.390 . S
C1293 C1292 1.387 . S
C1293 C1295 1.387 . S
H1294 C1301 0.950 . S
C1295 C1293 1.387 . S
C1295 C1297 1.390 . S
C1295 H1299 0.950 . S
H1296 C1292 0.950 . S
C1297 C1295 1.390 . S
C1297 C1298 1.387 . S
C1297 H1300 0.950 . S
C1298 C1297 1.387 . S
C1298 C1301 1.387 . S
H1299 C1295 0.950 . S
H1300 C1297 0.950 . S
C1301 C1292 1.390 . S
C1301 H1294 0.950 . S
C1301 C1298 1.387 . S
C1302 C1303 1.387 . S
C1302 H1306 0.950 . S
C1302 C1311 1.390 . S
C1303 C1302 1.387 . S
C1303 C1305 1.387 . S
H1304 C1311 0.950 . S
C1305 C1303 1.387 . S
C1305 C1307 1.390 . S
C1305 H1309 0.950 . S
H1306 C1302 0.950 . S
C1307 C1305 1.390 . S
C1307 C1308 1.387 . S
C1307 H1310 0.950 . S
C1308 C1307 1.387 . S
C1308 C1311 1.387 . S
H1309 C1305 0.950 . S
H1310 C1307 0.950 . S
C1311 C1302 1.390 . S
C1311 H1304 0.950 . S
C1311 C1308 1.387 . S
C1312 C1313 1.387 . S
C1312 H1316 0.950 . S
C1312 C1321 1.390 . S
C1313 C1312 1.387 . S
C1313 C1315 1.387 . S
H1314 C1321 0.950 . S
C1315 C1313 1.387 . S
C1315 C1317 1.390 . S
C1315 H1319 0.950 . S
H1316 C1312 0.950 . S
C1317 C1315 1.390 . S
C1317 C1318 1.387 . S
C1317 H1320 0.950 . S
C1318 C1317 1.387 . S
C1318 C1321 1.387 . S
H1319 C1315 0.950 . S
H1320 C1317 0.950 . S
C1321 C1312 1.390 . S
C1321 H1314 0.950 . S
C1321 C1318 1.387 . S
C1322 C1323 1.387 . S
C1322 H1326 0.950 . S
C1322 C1331 1.390 . S
C1323 C1322 1.387 . S
C1323 C1325 1.387 . S
H1324 C1331 0.950 . S
C1325 C1323 1.387 . S
C1325 C1327 1.390 . S
C1325 H1329 0.950 . S
H1326 C1322 0.950 . S
C1327 C1325 1.390 . S
C1327 C1328 1.387 . S
C1327 H1330 0.950 . S
C1328 C1327 1.387 . S
C1328 C1331 1.387 . S
H1329 C1325 0.950 . S
H1330 C1327 0.950 . S
C1331 C1322 1.390 . S
C1331 H1324 0.950 . S
C1331 C1328 1.387 . S
C1332 C1333 1.387 . S
C1332 H1336 0.950 . S
C1332 C1341 1.390 . S
C1333 C1332 1.387 . S
C1333 C1335 1.387 . S
H1334 C1341 0.950 . S
C1335 C1333 1.387 . S
C1335 C1337 1.390 . S
C1335 H1339 0.950 . S
H1336 C1332 0.950 . S
C1337 C1335 1.390 . S
C1337 C1338 1.387 . S
C1337 H1340 0.950 . S
C1338 C1337 1.387 . S
C1338 C1341 1.387 . S
H1339 C1335 0.950 . S
H1340 C1337 0.950 . S
C1341 C1332 1.390 . S
C1341 H1334 0.950 . S
C1341 C1338 1.387 . S
C1342 C1343 1.387 1_556 S
C1342 H1346 0.950 . S
C1342 C1351 1.390 . S
C1343 C1342 1.387 1_554 S
C1343 C1345 1.387 . S
H1344 C1351 0.950 . S
C1345 C1343 1.387 . S
C1345 C1347 1.390 . S
C1345 H1349 0.950 . S
H1346 C1342 0.950 . S
C1347 C1345 1.390 . S
C1347 C1348 1.387 . S
C1347 H1350 0.950 . S
C1348 C1347 1.387 . S
C1348 C1351 1.387 1_554 S
H1349 C1345 0.950 . S
H1350 C1347 0.950 . S
C1351 C1342 1.390 . S
C1351 H1344 0.950 . S
C1351 C1348 1.387 1_556 S
C1352 C1353 1.387 . S
C1352 H1356 0.950 . S
C1352 C1361 1.390 . S
C1353 C1352 1.387 . S
C1353 C1355 1.387 . S
H1354 C1361 0.950 . S
C1355 C1353 1.387 . S
C1355 C1357 1.390 . S
C1355 H1359 0.950 . S
H1356 C1352 0.950 . S
C1357 C1355 1.390 . S
C1357 C1358 1.387 . S
C1357 H1360 0.950 . S
C1358 C1357 1.387 . S
C1358 C1361 1.387 . S
H1359 C1355 0.950 . S
H1360 C1357 0.950 . S
C1361 C1352 1.390 . S
C1361 H1354 0.950 . S
C1361 C1358 1.387 . S
C1362 C1363 1.372 1_554 S
C1362 H1366 0.950 . S
C1362 C1371 1.390 . S
C1363 C1362 1.372 1_556 S
C1363 C1365 1.405 . S
H1364 C1371 0.950 . S
C1365 C1363 1.405 . S
C1365 C1367 1.390 . S
C1365 H1369 0.950 . S
H1366 C1362 0.950 . S
C1367 C1365 1.390 . S
C1367 C1368 1.387 . S
C1367 H1370 0.950 . S
C1368 C1367 1.387 . S
C1368 C1371 1.387 1_556 S
H1369 C1365 0.950 . S
H1370 C1367 0.950 . S
C1371 C1362 1.390 . S
C1371 H1364 0.950 . S
C1371 C1368 1.387 1_554 S
C1372 C1373 1.387 . S
C1372 H1376 0.950 . S
C1372 C1381 1.390 . S
C1373 C1372 1.387 . S
C1373 C1375 1.387 . S
H1374 C1381 0.950 . S
C1375 C1373 1.387 . S
C1375 C1377 1.390 . S
C1375 H1379 0.950 . S
H1376 C1372 0.950 . S
C1377 C1375 1.390 . S
C1377 C1378 1.387 . S
C1377 H1380 0.950 . S
C1378 C1377 1.387 . S
C1378 C1381 1.387 . S
H1379 C1375 0.950 . S
H1380 C1377 0.950 . S
C1381 C1372 1.390 . S
C1381 H1374 0.950 . S
C1381 C1378 1.387 . S
C1382 C1383 1.387 . S
C1382 H1386 0.950 . S
C1382 C1391 1.390 . S
C1383 C1382 1.387 . S
C1383 C1385 1.387 . S
H1384 C1391 0.950 . S
C1385 C1383 1.387 . S
C1385 C1387 1.390 . S
C1385 H1389 0.950 . S
H1386 C1382 0.950 . S
C1387 C1385 1.390 . S
C1387 C1388 1.387 . S
C1387 H1390 0.950 . S
C1388 C1387 1.387 . S
C1388 C1391 1.387 . S
H1389 C1385 0.950 . S
H1390 C1387 0.950 . S
C1391 C1382 1.390 . S
C1391 H1384 0.950 . S
C1391 C1388 1.387 . S
C1392 C1393 1.387 . S
C1392 H1396 0.950 . S
C1392 C1401 1.390 . S
C1393 C1392 1.387 . S
C1393 C1395 1.387 . S
H1394 C1401 0.950 . S
C1395 C1393 1.387 . S
C1395 C1397 1.390 . S
C1395 H1399 0.950 . S
H1396 C1392 0.950 . S
C1397 C1395 1.390 . S
C1397 C1398 1.387 . S
C1397 H1400 0.950 . S
C1398 C1397 1.387 . S
C1398 C1401 1.387 . S
H1399 C1395 0.950 . S
H1400 C1397 0.950 . S
C1401 C1392 1.390 . S
C1401 H1394 0.950 . S
C1401 C1398 1.387 . S
C1402 C1403 1.387 . S
C1402 H1406 0.950 . S
C1402 C1411 1.390 . S
C1403 C1402 1.387 . S
C1403 C1405 1.387 . S
H1404 C1411 0.950 . S
C1405 C1403 1.387 . S
C1405 C1407 1.390 . S
C1405 H1409 0.950 . S
H1406 C1402 0.950 . S
C1407 C1405 1.390 . S
C1407 C1408 1.387 . S
C1407 H1410 0.950 . S
C1408 C1407 1.387 . S
C1408 C1411 1.387 . S
H1409 C1405 0.950 . S
H1410 C1407 0.950 . S
C1411 C1402 1.390 . S
C1411 H1404 0.950 . S
C1411 C1408 1.387 . S
C1412 C1413 1.387 . S
C1412 H1416 0.950 . S
C1412 C1421 1.390 . S
C1413 C1412 1.387 . S
C1413 C1415 1.387 1_455 S
H1414 C1421 0.950 . S
C1415 C1413 1.387 1_655 S
C1415 C1417 1.390 . S
C1415 H1419 0.950 . S
H1416 C1412 0.950 . S
C1417 C1415 1.390 . S
C1417 C1418 1.387 . S
C1417 H1420 0.950 . S
C1418 C1417 1.387 . S
C1418 C1421 1.387 1_655 S
H1419 C1415 0.950 . S
H1420 C1417 0.950 . S
C1421 C1412 1.390 . S
C1421 H1414 0.950 . S
C1421 C1418 1.387 1_455 S
C1422 C1423 1.387 . S
C1422 H1426 0.950 . S
C1422 C1431 1.390 . S
C1423 C1422 1.387 . S
C1423 C1425 1.387 . S
H1424 C1431 0.950 . S
C1425 C1423 1.387 . S
C1425 C1427 1.390 . S
C1425 H1429 0.950 . S
H1426 C1422 0.950 . S
C1427 C1425 1.390 . S
C1427 C1428 1.387 . S
C1427 H1430 0.950 . S
C1428 C1427 1.387 . S
C1428 C1431 1.387 . S
H1429 C1425 0.950 . S
H1430 C1427 0.950 . S
C1431 C1422 1.390 . S
C1431 H1424 0.950 . S
C1431 C1428 1.387 . S
C1432 C1433 1.387 . S
C1432 H1436 0.950 . S
C1432 C1441 1.390 . S
C1433 C1432 1.387 . S
C1433 C1435 1.387 . S
H1434 C1441 0.950 . S
C1435 C1433 1.387 . S
C1435 C1437 1.390 . S
C1435 H1439 0.950 . S
H1436 C1432 0.950 . S
C1437 C1435 1.390 . S
C1437 C1438 1.387 . S
C1437 H1440 0.950 . S
C1438 C1437 1.387 . S
C1438 C1441 1.387 . S
H1439 C1435 0.950 . S
H1440 C1437 0.950 . S
C1441 C1432 1.390 . S
C1441 H1434 0.950 . S
C1441 C1438 1.387 . S
C1442 C1443 1.387 . S
C1442 H1446 0.950 . S
C1442 C1451 1.390 . S
C1443 C1442 1.387 . S
C1443 C1445 1.387 . S
H1444 C1451 0.950 . S
C1445 C1443 1.387 . S
C1445 C1447 1.390 . S
C1445 H1449 0.950 . S
H1446 C1442 0.950 . S
C1447 C1445 1.390 . S
C1447 C1448 1.387 . S
C1447 H1450 0.950 . S
C1448 C1447 1.387 . S
C1448 C1451 1.387 . S
H1449 C1445 0.950 . S
H1450 C1447 0.950 . S
C1451 C1442 1.390 . S
C1451 H1444 0.950 . S
C1451 C1448 1.387 . S
C1452 C1453 1.387 . S
C1452 H1456 0.950 . S
C1452 C1461 1.390 . S
C1453 C1452 1.387 . S
C1453 C1455 1.387 1_455 S
H1454 C1461 0.950 . S
C1455 C1453 1.387 1_655 S
C1455 C1457 1.390 . S
C1455 H1459 0.950 . S
H1456 C1452 0.950 . S
C1457 C1455 1.390 . S
C1457 C1458 1.387 . S
C1457 H1460 0.950 . S
C1458 C1457 1.387 . S
C1458 C1461 1.387 1_655 S
H1459 C1455 0.950 . S
H1460 C1457 0.950 . S
C1461 C1452 1.390 . S
C1461 H1454 0.950 . S
C1461 C1458 1.387 1_455 S
C1462 C1463 1.387 . S
C1462 H1466 0.950 . S
C1462 C1471 1.390 . S
C1463 C1462 1.387 . S
C1463 C1465 1.387 . S
H1464 C1471 0.950 . S
C1465 C1463 1.387 . S
C1465 C1467 1.390 . S
C1465 H1469 0.950 . S
H1466 C1462 0.950 . S
C1467 C1465 1.390 . S
C1467 C1468 1.387 . S
C1467 H1470 0.950 . S
C1468 C1467 1.387 . S
C1468 C1471 1.387 . S
H1469 C1465 0.950 . S
H1470 C1467 0.950 . S
C1471 C1462 1.390 . S
C1471 H1464 0.950 . S
C1471 C1468 1.387 . S
C1472 C1473 1.387 . S
C1472 H1476 0.950 . S
C1472 C1481 1.390 . S
C1473 C1472 1.387 . S
C1473 C1475 1.387 . S
H1474 C1481 0.950 . S
C1475 C1473 1.387 . S
C1475 C1477 1.390 . S
C1475 H1479 0.950 . S
H1476 C1472 0.950 . S
C1477 C1475 1.390 . S
C1477 C1478 1.387 . S
C1477 H1480 0.950 . S
C1478 C1477 1.387 . S
C1478 C1481 1.387 . S
H1479 C1475 0.950 . S
H1480 C1477 0.950 . S
C1481 C1472 1.390 . S
C1481 H1474 0.950 . S
C1481 C1478 1.387 . S
C1482 C1483 1.387 . S
C1482 H1486 0.950 . S
C1482 C1491 1.390 . S
C1483 C1482 1.387 . S
C1483 C1485 1.387 . S
H1484 C1491 0.950 . S
C1485 C1483 1.387 . S
C1485 C1487 1.390 . S
C1485 H1489 0.950 . S
H1486 C1482 0.950 . S
C1487 C1485 1.390 . S
C1487 C1488 1.387 . S
C1487 H1490 0.950 . S
C1488 C1487 1.387 . S
C1488 C1491 1.387 . S
H1489 C1485 0.950 . S
H1490 C1487 0.950 . S
C1491 C1482 1.390 . S
C1491 H1484 0.950 . S
C1491 C1488 1.387 . S
C1492 C1493 1.387 . S
C1492 H1496 0.950 . S
C1492 C1501 1.390 . S
C1493 C1492 1.387 . S
C1493 C1495 1.387 . S
H1494 C1501 0.950 . S
C1495 C1493 1.387 . S
C1495 C1497 1.390 . S
C1495 H1499 0.950 . S
H1496 C1492 0.950 . S
C1497 C1495 1.390 . S
C1497 C1498 1.387 . S
C1497 H1500 0.950 . S
C1498 C1497 1.387 . S
C1498 C1501 1.387 . S
H1499 C1495 0.950 . S
H1500 C1497 0.950 . S
C1501 C1492 1.390 . S
C1501 H1494 0.950 . S
C1501 C1498 1.387 . S
C1502 C1503 1.387 . S
C1502 H1506 0.950 . S
C1502 C1511 1.390 . S
C1503 C1502 1.387 . S
C1503 C1505 1.387 . S
H1504 C1511 0.950 . S
C1505 C1503 1.387 . S
C1505 C1507 1.390 . S
C1505 H1509 0.950 . S
H1506 C1502 0.950 . S
C1507 C1505 1.390 . S
C1507 C1508 1.387 . S
C1507 H1510 0.950 . S
C1508 C1507 1.387 . S
C1508 C1511 1.387 . S
H1509 C1505 0.950 . S
H1510 C1507 0.950 . S
C1511 C1502 1.390 . S
C1511 H1504 0.950 . S
C1511 C1508 1.387 . S
C1512 C1513 1.387 . S
C1512 H1516 0.950 . S
C1512 C1521 1.390 . S
C1513 C1512 1.387 . S
C1513 C1515 1.387 . S
H1514 C1521 0.950 . S
C1515 C1513 1.387 . S
C1515 C1517 1.390 . S
C1515 H1519 0.950 . S
H1516 C1512 0.950 . S
C1517 C1515 1.390 . S
C1517 C1518 1.387 . S
C1517 H1520 0.950 . S
C1518 C1517 1.387 . S
C1518 C1521 1.387 . S
H1519 C1515 0.950 . S
H1520 C1517 0.950 . S
C1521 C1512 1.390 . S
C1521 H1514 0.950 . S
C1521 C1518 1.387 . S
C1522 C1523 1.387 . S
C1522 H1526 0.950 . S
C1522 C1531 1.390 . S
C1523 C1522 1.387 . S
C1523 C1525 1.387 . S
H1524 C1531 0.950 . S
C1525 C1523 1.387 . S
C1525 C1527 1.390 . S
C1525 H1529 0.950 . S
H1526 C1522 0.950 . S
C1527 C1525 1.390 . S
C1527 C1528 1.387 . S
C1527 H1530 0.950 . S
C1528 C1527 1.387 . S
C1528 C1531 1.387 . S
H1529 C1525 0.950 . S
H1530 C1527 0.950 . S
C1531 C1522 1.390 . S
C1531 H1524 0.950 . S
C1531 C1528 1.387 . S
C1532 C1533 1.387 . S
C1532 H1536 0.950 . S
C1532 C1541 1.390 . S
C1533 C1532 1.387 . S
C1533 C1535 1.387 . S
H1534 C1541 0.950 . S
C1535 C1533 1.387 . S
C1535 C1537 1.390 . S
C1535 H1539 0.950 . S
H1536 C1532 0.950 . S
C1537 C1535 1.390 . S
C1537 C1538 1.387 . S
C1537 H1540 0.950 . S
C1538 C1537 1.387 . S
C1538 C1541 1.387 . S
H1539 C1535 0.950 . S
H1540 C1537 0.950 . S
C1541 C1532 1.390 . S
C1541 H1534 0.950 . S
C1541 C1538 1.387 . S
C1542 C1543 1.387 . S
C1542 H1546 0.950 . S
C1542 C1551 1.390 . S
C1543 C1542 1.387 . S
C1543 C1545 1.387 . S
H1544 C1551 0.950 . S
C1545 C1543 1.387 . S
C1545 C1547 1.390 . S
C1545 H1549 0.950 . S
H1546 C1542 0.950 . S
C1547 C1545 1.390 . S
C1547 C1548 1.387 . S
C1547 H1550 0.950 . S
C1548 C1547 1.387 . S
C1548 C1551 1.387 . S
H1549 C1545 0.950 . S
H1550 C1547 0.950 . S
C1551 C1542 1.390 . S
C1551 H1544 0.950 . S
C1551 C1548 1.387 . S
C1552 C1553 1.387 . S
C1552 H1556 0.950 . S
C1552 C1561 1.390 . S
C1553 C1552 1.387 . S
C1553 C1555 1.387 . S
H1554 C1561 0.950 . S
C1555 C1553 1.387 . S
C1555 C1557 1.390 . S
C1555 H1559 0.950 . S
H1556 C1552 0.950 . S
C1557 C1555 1.390 . S
C1557 C1558 1.387 . S
C1557 H1560 0.950 . S
C1558 C1557 1.387 . S
C1558 C1561 1.387 . S
H1559 C1555 0.950 . S
H1560 C1557 0.950 . S
C1561 C1552 1.390 . S
C1561 H1554 0.950 . S
C1561 C1558 1.387 . S
C1562 C1563 1.387 . S
C1562 H1566 0.950 . S
C1562 C1571 1.390 . S
C1563 C1562 1.387 . S
C1563 C1565 1.387 . S
H1564 C1571 0.950 . S
C1565 C1563 1.387 . S
C1565 C1567 1.390 . S
C1565 H1569 0.950 . S
H1566 C1562 0.950 . S
C1567 C1565 1.390 . S
C1567 C1568 1.387 . S
C1567 H1570 0.950 . S
C1568 C1567 1.387 . S
C1568 C1571 1.387 . S
H1569 C1565 0.950 . S
H1570 C1567 0.950 . S
C1571 C1562 1.390 . S
C1571 H1564 0.950 . S
C1571 C1568 1.387 . S
C1572 C1573 1.387 . S
C1572 H1576 0.950 . S
C1572 C1581 1.390 . S
C1573 C1572 1.387 . S
C1573 C1575 1.387 . S
H1574 C1581 0.950 . S
C1575 C1573 1.387 . S
C1575 C1577 1.390 . S
C1575 H1579 0.950 . S
H1576 C1572 0.950 . S
C1577 C1575 1.390 . S
C1577 C1578 1.387 . S
C1577 H1580 0.950 . S
C1578 C1577 1.387 . S
C1578 C1581 1.387 . S
H1579 C1575 0.950 . S
H1580 C1577 0.950 . S
C1581 C1572 1.390 . S
C1581 H1574 0.950 . S
C1581 C1578 1.387 . S
C1582 C1583 1.387 . S
C1582 H1586 0.950 . S
C1582 C1591 1.390 . S
C1583 C1582 1.387 . S
C1583 C1585 1.387 1_554 S
H1584 C1591 0.950 . S
C1585 C1583 1.387 1_556 S
C1585 C1587 1.390 . S
C1585 H1589 0.950 . S
H1586 C1582 0.950 . S
C1587 C1585 1.390 . S
C1587 C1588 1.387 . S
C1587 H1590 0.950 . S
C1588 C1587 1.387 . S
C1588 C1591 1.387 1_556 S
H1589 C1585 0.950 . S
H1590 C1587 0.950 . S
C1591 C1582 1.390 . S
C1591 H1584 0.950 . S
C1591 C1588 1.387 1_554 S
C1592 C1593 1.387 . S
C1592 H1596 0.950 . S
C1592 C1601 1.390 . S
C1593 C1592 1.387 . S
C1593 C1595 1.387 . S
H1594 C1601 0.950 . S
C1595 C1593 1.387 . S
C1595 C1597 1.390 . S
C1595 H1599 0.950 . S
H1596 C1592 0.950 . S
C1597 C1595 1.390 . S
C1597 C1598 1.387 . S
C1597 H1600 0.950 . S
C1598 C1597 1.387 . S
C1598 C1601 1.387 . S
H1599 C1595 0.950 . S
H1600 C1597 0.950 . S
C1601 C1592 1.390 . S
C1601 H1594 0.950 . S
C1601 C1598 1.387 . S
C1602 C1603 1.387 1_556 S
C1602 H1606 0.950 . S
C1602 C1611 1.390 . S
C1603 C1602 1.387 1_554 S
C1603 C1605 1.387 . S
H1604 C1611 0.950 . S
C1605 C1603 1.387 . S
C1605 C1607 1.390 . S
C1605 H1609 0.950 . S
H1606 C1602 0.950 . S
C1607 C1605 1.390 . S
C1607 C1608 1.387 . S
C1607 H1610 0.950 . S
C1608 C1607 1.387 . S
C1608 C1611 1.387 1_554 S
H1609 C1605 0.950 . S
H1610 C1607 0.950 . S
C1611 C1602 1.390 . S
C1611 H1604 0.950 . S
C1611 C1608 1.387 1_556 S
C1612 C1613 1.387 . S
C1612 H1616 0.950 . S
C1612 C1621 1.390 . S
C1613 C1612 1.387 . S
C1613 C1615 1.387 . S
H1614 C1621 0.950 . S
C1615 C1613 1.387 . S
C1615 C1617 1.390 . S
C1615 H1619 0.950 . S
H1616 C1612 0.950 . S
C1617 C1615 1.390 . S
C1617 C1618 1.387 . S
C1617 H1620 0.950 . S
C1618 C1617 1.387 . S
C1618 C1621 1.387 . S
H1619 C1615 0.950 . S
H1620 C1617 0.950 . S
C1621 C1612 1.390 . S
C1621 H1614 0.950 . S
C1621 C1618 1.387 . S
C1622 C1623 1.387 . S
C1622 H1626 0.950 . S
C1622 C1631 1.390 . S
C1623 C1622 1.387 . S
C1623 C1625 1.387 . S
H1624 C1631 0.950 . S
C1625 C1623 1.387 . S
C1625 C1627 1.390 . S
C1625 H1629 0.950 . S
H1626 C1622 0.950 . S
C1627 C1625 1.390 . S
C1627 C1628 1.387 . S
C1627 H1630 0.950 . S
C1628 C1627 1.387 . S
C1628 C1631 1.387 . S
H1629 C1625 0.950 . S
H1630 C1627 0.950 . S
C1631 C1622 1.390 . S
C1631 H1624 0.950 . S
C1631 C1628 1.387 . S
C678 C351 1.324 . S
C673 C5 1.431 . S
C683 C23 1.306 . S
C688 C370 1.264 . S
C693 C39 1.385 . S
C698 C393 1.309 . S
C708 C413 1.378 . S
C703 C42 1.395 . S
C713 C19 1.419 . S
C718 C434 1.393 . S
C728 C456 1.383 . S
C723 C28 1.458 . S
C738 C478 1.237 . S
C733 C53 1.274 . S
C743 C9 1.399 . S
C748 C496 1.348 . S
C753 C65 1.424 . S
C758 C352 1.375 . S
C763 C75 1.418 . S
C768 C371 1.399 . S
C778 C394 1.314 . S
C773 C93 1.345 . S
C788 C417 1.347 . S
C783 C109 1.415 . S
C793 C56 1.479 . S
C798 C438 1.385 . S
C808 C457 1.187 . S
C803 C81 1.223 . S
C818 C479 1.399 . S
C813 C84 1.426 1_545 S
C828 C497 1.364 . S
C823 C103 1.384 . S
C838 C353 1.358 . S
C833 C107 1.379 . S
C848 C520 1.255 . S
C843 C121 1.296 . S
C853 C131 1.436 . S
C858 C542 1.409 . S
C868 C561 1.388 . S
C863 C140 1.468 . S
C873 C61 1.442 . S
C878 C501 1.334 . S
C888 C395 1.373 . S
C883 C70 1.388 . S
C893 C137 1.261 . S
C898 C583 1.225 . S
C908 C606 1.281 . S
C903 C165 1.363 . S
C913 C173 1.406 . S
C918 C354 1.314 . S
C928 C605 1.290 . S
C923 C182 1.319 . S
C933 C207 1.437 . S
C938 C396 1.352 . S
C943 C219 1.320 . S
C948 C580 1.279 . S
C958 C436 1.289 . S
C953 C187 1.331 . S
C968 C543 1.347 . S
C963 C205 1.448 . S
C978 C476 1.305 . S
C973 C221 1.331 . S
C988 C626 1.399 . S
C983 C168 1.430 . S
C998 C350 1.429 . S
C993 C224 1.459 1_545 S
C1003 C243 1.312 . S
C1008 C604 1.274 . S
C1018 C392 1.327 . S
C1013 C252 1.354 . S
C1023 C277 1.369 . S
C1028 C585 1.306 . S
C1033 C233 1.476 1_565 S
C1038 C435 1.365 . S
C1043 C249 1.304 . S
C1048 C539 1.271 . S
C1058 C475 1.303 . S
C1053 C261 1.348 . S
C1063 C271 1.333 . S
C1068 C625 1.299 . S
C1073 C266 1.323 . S
C1078 C349 1.283 . S
C1083 C280 1.356 . S
C1088 C518 1.323 . S
C1093 C299 1.339 . S
C1098 C454 1.296 . S
C1103 C317 1.433 . S
C1108 C564 1.346 . S
C1118 C624 1.322 . S
C1113 C229 1.415 . S
C1128 C391 1.270 . S
C1123 C247 1.316 . S
C1138 C416 1.298 . S
C1133 C305 1.320 . S
C1148 C372 1.340 . S
C1143 C333 1.427 . S
C1153 C33 1.431 . S
C1158 C648 1.324 . S
C1168 C601 1.265 . S
C1163 C51 1.305 . S
C1178 C666 1.309 . S
C1173 C11 1.385 . S
C1183 C14 1.395 . S
C1188 C584 1.378 . S
C1193 C47 1.420 . S
C1198 C521 1.393 . S
C1208 C540 1.382 . S
C1203 C0 1.458 . S
C1218 C562 1.238 . S
C1213 C25 1.275 . S
C1228 C622 1.345 . S
C1223 C37 1.398 . S
C1238 C643 1.379 . S
C1233 C163 1.424 . S
C1243 C117 1.418 . S
C1248 C602 1.397 . S
C1253 C135 1.345 . S
C1258 C667 1.314 . S
C1268 C582 1.349 . S
C1263 C151 1.414 . S
C1278 C519 1.385 . S
C1273 C154 1.479 . S
C1283 C123 1.221 . S
C1288 C541 1.183 . S
C1298 C563 1.399 . S
C1293 C126 1.425 . S
C1303 C145 1.385 . S
C1308 C623 1.362 . S
C1318 C644 1.358 . S
C1313 C149 1.380 . S
C1328 C433 1.255 . S
C1323 C79 1.296 . S
C1338 C458 1.412 . S
C1333 C89 1.435 . S
C1343 C98 1.468 . S
C1348 C477 1.387 . S
C1358 C627 1.333 . S
C1353 C159 1.442 . S
C1363 C112 1.388 . S
C1368 C668 1.375 . S
C1378 C412 1.225 . S
C1373 C95 1.261 . S
C1388 C375 1.280 . S
C1383 C67 1.364 . S
C1393 C201 1.406 . S
C1398 C645 1.314 . S
C1408 C374 1.290 . S
C1403 C210 1.319 . S
C1418 C669 1.354 . S
C1413 C179 1.437 . S
C1423 C191 1.320 . S
C1428 C415 1.278 . S
C1433 C215 1.330 . S
C1438 C517 1.290 . S
C1443 C177 1.447 . S
C1448 C459 1.345 . S
C1453 C193 1.332 . S
C1458 C560 1.305 . S
C1463 C196 1.430 . S
C1468 C500 1.400 . S
C1478 C647 1.431 . S
C1473 C322 1.459 . S
C1483 C285 1.313 . S
C1488 C373 1.274 . S
C1498 C665 1.324 . S
C1493 C294 1.353 . S
C1503 C319 1.368 . S
C1508 C414 1.309 . S
C1513 C331 1.476 . S
C1518 C522 1.365 . S
C1528 C455 1.272 . S
C1523 C291 1.308 . S
C1533 C303 1.348 . S
C1538 C559 1.303 . S
C1548 C499 1.296 . S
C1543 C313 1.333 . S
C1558 C646 1.283 . S
C1553 C308 1.323 . S
C1568 C437 1.325 . S
C1563 C238 1.357 . S
C1573 C257 1.339 . S
C1578 C538 1.299 . S
C1588 C480 1.346 . S
C1583 C275 1.432 . S
C1598 C498 1.320 . S
C1593 C327 1.415 . S
C1603 C289 1.313 1_554 S
C1608 C664 1.270 . S
C1618 C581 1.295 . S
C1613 C263 1.319 . S
C1628 C603 1.338 . S
C1623 C235 1.427 . S
