# Generated by pormake.
# Topology anh, (6,3)-cn, num edge types: 1
# Building blocks:
#     Node 0, Type 0, BuildingBlock: CUWYAW_clean_sbu_0, # of connection points: 6
#     Node 1, Type 0, BuildingBlock: CUWYAW_clean_sbu_0, # of connection points: 6
#     Node 2, Type 0, BuildingBlock: CUWYAW_clean_sbu_0, # of connection points: 6
#     Node 3, Type 1, BuildingBlock: OLANEW_clean_sbu_2, # of connection points: 3
#     Node 4, Type 1, BuildingBlock: OLANEW_clean_sbu_2, # of connection points: 3
#     Node 5, Type 1, BuildingBlock: OLANEW_clean_sbu_2, # of connection points: 3
#     Node 6, Type 1, BuildingBlock: OLANEW_clean_sbu_2, # of connection points: 3
#     Node 7, Type 1, BuildingBlock: OLANEW_clean_sbu_2, # of connection points: 3
#     Node 8, Type 1, BuildingBlock: OLANEW_clean_sbu_2, # of connection points: 3
#     Edge 9, Type (0, 1), BuildingBlock: UVAHIK_clean_linker_0, # of connection points: 2
#     Edge 10, Type (0, 1), BuildingBlock: UVAHIK_clean_linker_0, # of connection points: 2
#     Edge 11, Type (0, 1), BuildingBlock: UVAHIK_clean_linker_0, # of connection points: 2
#     Edge 12, Type (0, 1), BuildingBlock: UVAHIK_clean_linker_0, # of connection points: 2
#     Edge 13, Type (0, 1), BuildingBlock: UVAHIK_clean_linker_0, # of connection points: 2
#     Edge 14, Type (0, 1), BuildingBlock: UVAHIK_clean_linker_0, # of connection points: 2
#     Edge 15, Type (0, 1), BuildingBlock: UVAHIK_clean_linker_0, # of connection points: 2
#     Edge 16, Type (0, 1), BuildingBlock: UVAHIK_clean_linker_0, # of connection points: 2
#     Edge 17, Type (0, 1), BuildingBlock: UVAHIK_clean_linker_0, # of connection points: 2
#     Edge 18, Type (0, 1), BuildingBlock: UVAHIK_clean_linker_0, # of connection points: 2
#     Edge 19, Type (0, 1), BuildingBlock: UVAHIK_clean_linker_0, # of connection points: 2
#     Edge 20, Type (0, 1), BuildingBlock: UVAHIK_clean_linker_0, # of connection points: 2
#     Edge 21, Type (0, 1), BuildingBlock: UVAHIK_clean_linker_0, # of connection points: 2
#     Edge 22, Type (0, 1), BuildingBlock: UVAHIK_clean_linker_0, # of connection points: 2
#     Edge 23, Type (0, 1), BuildingBlock: UVAHIK_clean_linker_0, # of connection points: 2
#     Edge 24, Type (0, 1), BuildingBlock: UVAHIK_clean_linker_0, # of connection points: 2
#     Edge 25, Type (0, 1), BuildingBlock: UVAHIK_clean_linker_0, # of connection points: 2
#     Edge 26, Type (0, 1), BuildingBlock: UVAHIK_clean_linker_0, # of connection points: 2
# Relax obj value: 0.170
# Max RMSD: 0.122
# Mean RMSD: 0.109
data_MOF--net-anh--node1-CUWYAW_clean_sbu_0--node2-OLANEW_clean_sbu_2--edge1-UVAHIK_clean_linker_0
_symmetry_space_group_name_H-M    P1
_symmetry_Int_Tables_number       1
_symmetry_cell_setting            triclinic
loop_
_symmetry_equiv_pos_as_xyz
'x, y, z'
_cell_length_a     45.343467
_cell_length_b     45.476649
_cell_length_c     64.053529
_cell_angle_alpha  89.401174
_cell_angle_beta   89.752422
_cell_angle_gamma 119.98537
loop_
_atom_site_label
_atom_site_type_symbol
_atom_site_fract_x
_atom_site_fract_y
_atom_site_fract_z
_atom_type_partial_charge
C0 C 0.99555 0.43331 0.15075 0.0
Eu1 Eu 0.02552 0.48927 0.17152 0.0
C2 C 0.96352 0.40061 0.15287 0.0
C3 C 0.9542 0.38228 0.17185 0.0
C4 C 0.92337 0.35178 0.17373 0.0
C5 C 0.90098 0.3391 0.15676 0.0
C6 C 0.91045 0.35755 0.13778 0.0
C7 C 0.94147 0.38795 0.13586 0.0
C8 C 0.02083 0.49644 0.21375 0.0
C9 C 0.98173 0.52761 0.17739 0.0
C10 C 0.09352 0.62492 0.20484 0.0
Eu11 Eu 0.06282 0.56816 0.18464 0.0
C12 C 0.12394 0.65897 0.20571 0.0
C13 C 0.11913 0.68701 0.20729 0.0
C14 C 0.14682 0.71953 0.20986 0.0
C15 C 0.18006 0.72478 0.21101 0.0
C16 C 0.18505 0.6968 0.20879 0.0
C17 C 0.15716 0.66407 0.20621 0.0
C18 C 0.05401 0.5553 0.14332 0.0
C19 C 0.10895 0.53173 0.17558 0.0
O20 O 0.9923 0.45976 0.1462 0.0
O21 O 0.01909 0.43973 0.16471 0.0
O22 O 1.00861 0.46714 0.20487 0.0
O23 O 0.03402 0.51865 0.19969 0.0
O24 O 0.98512 0.50423 0.16719 0.0
O25 O 1.00672 0.55113 0.18867 0.0
O26 O 0.09651 0.59841 0.20963 0.0
O27 O 0.07245 0.61945 0.1895 0.0
O28 O 0.05657 0.58258 0.15141 0.0
O29 O 0.06018 0.53904 0.15687 0.0
O30 O 0.10821 0.55922 0.1819 0.0
O31 O 0.08107 0.50338 0.17009 0.0
H32 H 0.97064 0.3915 0.18529 0.0
H33 H 0.91722 0.33801 0.18847 0.0
H34 H 0.89368 0.34883 0.12448 0.0
H35 H 0.94808 0.40181 0.12112 0.0
H36 H 0.09373 0.68366 0.20694 0.0
H37 H 0.14216 0.7406 0.21112 0.0
H38 H 0.21035 0.70004 0.20969 0.0
H39 H 0.16154 0.64281 0.20501 0.0
C40 C 0.48933 0.10032 0.47991 0.0
Eu41 Eu 0.51122 0.06445 0.49936 0.0
C42 C 0.50221 0.1369 0.47673 0.0
C43 C 0.53606 0.15898 0.47041 0.0
C44 C 0.54897 0.19402 0.46972 0.0
C45 C 0.52826 0.20766 0.47528 0.0
C46 C 0.49398 0.18538 0.48075 0.0
C47 C 0.48111 0.15032 0.48148 0.0
C48 C 0.51528 0.06037 0.54148 0.0
C49 C 0.59424 0.11032 0.50382 0.0
C50 C 0.57206 0.99563 0.53386 0.0
Eu51 Eu 0.55047 0.03112 0.5137 0.0
C52 C 0.56454 0.95997 0.5344 0.0
C53 C 0.58246 0.94968 0.52121 0.0
C54 C 0.57592 0.91628 0.52184 0.0
C55 C 0.55156 0.89236 0.53583 0.0
C56 C 0.53353 0.90257 0.549 0.0
C57 C 0.54002 0.93605 0.54833 0.0
C58 C 0.54674 0.03479 0.47165 0.0
C59 C 0.46768 0.98421 0.50612 0.0
O60 O 0.50618 0.0876 0.47067 0.0
O61 O 0.48037 0.08896 0.49906 0.0
O62 O 0.48853 0.05667 0.53191 0.0
O63 O 0.53919 0.0678 0.52862 0.0
O64 O 0.56634 0.10669 0.49493 0.0
O65 O 0.59352 0.08545 0.51508 0.0
O66 O 0.54869 1.00171 0.54129 0.0
O67 O 0.58662 0.01323 0.51684 0.0
O68 O 0.57289 0.03714 0.48128 0.0
O69 O 0.52294 0.0279 0.48446 0.0
O70 O 0.4953 0.98686 0.51497 0.0
O71 O 0.46842 0.01055 0.49673 0.0
H72 H 0.55287 0.14929 0.46657 0.0
H73 H 0.57557 0.21046 0.46567 0.0
H74 H 0.47726 0.19508 0.48483 0.0
H75 H 0.45488 0.13371 0.4863 0.0
H76 H 0.60167 0.96747 0.51038 0.0
H77 H 0.58994 0.90917 0.51127 0.0
H78 H 0.51493 0.8849 0.56016 0.0
H79 H 0.52601 0.94324 0.55886 0.0
C80 C 0.64269 0.58257 0.82571 0.0
Eu81 Eu 0.57929 0.55938 0.83666 0.0
C82 C 0.66262 0.5666 0.81965 0.0
C83 C 0.65092 0.53245 0.82479 0.0
C84 C 0.66981 0.5172 0.81908 0.0
C85 C 0.70105 0.53603 0.80842 0.0
C86 C 0.7127 0.57025 0.80321 0.0
C87 C 0.69345 0.58537 0.80868 0.0
C88 C 0.55729 0.55222 0.87681 0.0
C89 C 0.54025 0.47647 0.83678 0.0
C90 C 0.44093 0.49482 0.85499 0.0
Eu91 Eu 0.50345 0.51903 0.8422 0.0
C92 C 0.41261 0.50112 0.85079 0.0
C93 C 0.40139 0.50096 0.83033 0.0
C94 C 0.37333 0.50515 0.82679 0.0
C95 C 0.35624 0.50995 0.84358 0.0
C96 C 0.3681 0.5111 0.86396 0.0
C97 C 0.39596 0.50656 0.86753 0.0
C98 C 0.52483 0.52843 0.80187 0.0
C99 C 0.54186 0.6029 0.837 0.0
O100 O 0.61914 0.57902 0.81263 0.0
O101 O 0.63203 0.57765 0.84511 0.0
O102 O 0.58205 0.58002 0.86885 0.0
O103 O 0.54559 0.52888 0.86346 0.0
O104 O 0.56556 0.50514 0.82909 0.0
O105 O 0.51473 0.47636 0.84683 0.0
O106 O 0.46708 0.51857 0.86488 0.0
O107 O 0.44979 0.4816 0.83986 0.0
O108 O 0.49813 0.50108 0.80864 0.0
O109 O 0.53689 0.54994 0.8161 0.0
O110 O 0.51399 0.57407 0.84244 0.0
O111 O 0.57051 0.6035 0.8321 0.0
H112 H 0.62748 0.5177 0.83355 0.0
H113 H 0.66053 0.49098 0.82364 0.0
H114 H 0.73671 0.58529 0.79499 0.0
H115 H 0.7028 0.61176 0.80455 0.0
H116 H 0.41397 0.49716 0.81708 0.0
H117 H 0.36489 0.50448 0.81091 0.0
H118 H 0.35518 0.51444 0.8772 0.0
H119 H 0.40419 0.50678 0.88341 0.0
O120 O 0.52679 0.96615 0.24185 0.0
Cd121 Cd 0.5313 0.96404 0.20397 0.0
O122 O 0.50917 1.00267 0.23746 0.0
Cd123 Cd 0.49587 0.04017 0.24786 0.0
O124 O 0.47662 0.07411 0.25593 0.0
C125 C 0.44509 0.06479 0.2566 0.0
O126 O 0.43582 0.08633 0.26308 0.0
C127 C 0.51723 0.98563 0.24965 0.0
C128 C 0.58999 0.02247 0.19037 0.0
O129 O 0.56114 0.02129 0.19074 0.0
O130 O 0.59085 0.99579 0.19599 0.0
O131 O 0.71453 0.59777 0.59808 0.0
Cd132 Cd 0.74215 0.60892 0.56382 0.0
O133 O 0.66668 0.58277 0.58191 0.0
Cd134 Cd 0.61437 0.57302 0.58098 0.0
O135 O 0.57834 0.5912 0.57753 0.0
C136 C 0.56718 0.59237 0.55957 0.0
O137 O 0.57534 0.57974 0.54366 0.0
C138 C 0.68277 0.5872 0.59886 0.0
C139 C 0.71031 0.55054 0.53996 0.0
O140 O 0.73581 0.55678 0.55145 0.0
O141 O 0.70018 0.57229 0.53948 0.0
O142 O 0.98157 0.48437 0.91486 0.0
Cd143 Cd 0.97481 0.48105 0.87691 0.0
O144 O 0.9808 0.43612 0.92055 0.0
Cd145 Cd 0.96346 0.42014 0.88886 0.0
O146 O 0.93106 0.41494 0.86254 0.0
C147 C 0.89947 0.40092 0.86676 0.0
O148 O 0.88889 0.3883 0.88563 0.0
C149 C 0.98451 0.46397 0.92729 0.0
C150 C 0.03532 0.49211 0.85838 0.0
O151 O 1.01001 0.46203 0.86091 0.0
O152 O 0.03175 0.51709 0.86406 0.0
O153 O 0.07464 0.57728 0.44126 0.0
Cd154 Cd 0.09654 0.5987 0.47654 0.0
O155 O 0.0296 0.5285 0.45036 0.0
Cd156 Cd 0.98128 0.47884 0.44854 0.0
O157 O 0.93468 0.42889 0.45504 0.0
C158 C 0.9049 0.42494 0.45348 0.0
O159 O 0.90183 0.45096 0.4474 0.0
C160 C 0.04835 0.54951 0.4361 0.0
C161 C 0.15859 0.66108 0.47875 0.0
O162 O 0.15813 0.63266 0.47887 0.0
O163 O 0.12999 0.66018 0.47704 0.0
O164 O 0.53735 1.00483 0.76837 0.0
Cd165 Cd 0.53509 0.97842 0.80296 0.0
O166 O 0.53243 0.04825 0.779 0.0
Cd167 Cd 0.53139 0.09688 0.77826 0.0
O168 O 0.53358 0.14514 0.7877 0.0
C169 C 0.52361 0.16149 0.77621 0.0
O170 O 0.51148 0.14965 0.75766 0.0
C171 C 0.53571 0.03152 0.76415 0.0
C172 C 0.53492 0.91594 0.80437 0.0
O173 O 0.50706 0.91673 0.80383 0.0
O174 O 0.56284 0.94446 0.80355 0.0
O175 O 0.58117 0.53133 0.10512 0.0
Cd176 Cd 0.60545 0.53309 0.14017 0.0
O177 O 0.53681 0.53638 0.11394 0.0
Cd178 Cd 0.48883 0.53906 0.11313 0.0
O179 O 0.44379 0.54504 0.12039 0.0
C180 C 0.41414 0.51939 0.12322 0.0
O181 O 0.41018 0.48888 0.12131 0.0
C182 C 0.55482 0.5329 0.09981 0.0
C183 C 0.66825 0.53359 0.1426 0.0
O184 O 0.63987 0.50574 0.14104 0.0
O185 O 0.66726 0.56128 0.14234 0.0
C186 C 0.17349 0.56386 0.17319 0.0
C187 C 0.14234 0.53302 0.1728 0.0
C188 C 0.20444 0.56469 0.16912 0.0
C189 C 0.24313 0.5091 0.16768 0.0
H190 H 0.31044 0.5783 0.13065 0.0
C191 C 0.35186 0.49456 0.13158 0.0
C192 C 0.38441 0.52337 0.12916 0.0
C193 C 0.32383 0.49765 0.13766 0.0
C194 C 0.29218 0.55902 0.14125 0.0
H195 H 0.11976 0.47878 0.16818 0.0
H196 H 0.17314 0.48026 0.16123 0.0
H197 H 0.25944 0.58053 0.14052 0.0
H198 H 0.41268 0.57825 0.13114 0.0
H199 H 0.36377 0.58366 0.14196 0.0
H200 H 0.27556 0.48748 0.16845 0.0
C201 C 0.17389 0.50386 0.16476 0.0
C202 C 0.26286 0.56032 0.14693 0.0
C203 C 0.1431 0.50307 0.16865 0.0
C204 C 0.38803 0.55549 0.13281 0.0
C205 C 0.35988 0.55859 0.13894 0.0
C206 C 0.27239 0.50786 0.16208 0.0
C207 C 0.20504 0.53466 0.1648 0.0
C208 C 0.23764 0.53505 0.15997 0.0
C209 C 0.32736 0.52966 0.14161 0.0
C210 C 0.29715 0.53245 0.1485 0.0
H211 H 0.17397 0.58747 0.17627 0.0
H212 H 0.22792 0.58885 0.16946 0.0
H213 H 0.22471 0.48958 0.1781 0.0
H214 H 0.3479 0.4694 0.1288 0.0
H215 H 0.29921 0.47479 0.13907 0.0
C216 C 0.65843 0.14545 0.50517 0.0
C217 C 0.6269 0.14284 0.50055 0.0
C218 C 0.68912 0.17547 0.5006 0.0
C219 C 0.72401 0.25365 0.46713 0.0
H220 H 0.80216 0.2871 0.50339 0.0
C221 C 0.84129 0.38762 0.45596 0.0
C222 C 0.87392 0.3918 0.45878 0.0
C223 C 0.81197 0.35684 0.4611 0.0
C224 C 0.78072 0.27792 0.49295 0.0
H225 H 0.60318 0.17055 0.48836 0.0
H226 H 0.65618 0.22263 0.4807 0.0
H227 H 0.74976 0.23476 0.51272 0.0
H228 H 0.90107 0.36651 0.46933 0.0
H229 H 0.84983 0.31267 0.47826 0.0
H230 H 0.75476 0.2968 0.44745 0.0
C231 C 0.65744 0.20128 0.48732 0.0
C232 C 0.75059 0.24783 0.49831 0.0
C233 C 0.62688 0.17133 0.49182 0.0
C234 C 0.87639 0.36425 0.46693 0.0
C235 C 0.84698 0.33341 0.47218 0.0
C236 C 0.75402 0.28369 0.46183 0.0
C237 C 0.68908 0.20371 0.49135 0.0
C238 C 0.72166 0.23538 0.48555 0.0
C239 C 0.81433 0.32925 0.46928 0.0
C240 C 0.78276 0.29644 0.47472 0.0
H241 H 0.65948 0.12401 0.51184 0.0
H242 H 0.71289 0.17618 0.50381 0.0
H243 H 0.70267 0.24458 0.45661 0.0
H244 H 0.83827 0.40822 0.4498 0.0
H245 H 0.78738 0.35486 0.45893 0.0
C246 C 0.50937 0.63468 0.83661 0.0
C247 C 0.54042 0.63487 0.83487 0.0
C248 C 0.50808 0.66466 0.83361 0.0
C249 C 0.56231 0.75883 0.83315 0.0
H250 H 0.48931 0.75663 0.80069 0.0
C251 C 0.56562 0.88266 0.80669 0.0
C252 C 0.5349 0.88325 0.80675 0.0
C253 C 0.56577 0.85219 0.80997 0.0
C254 C 0.50968 0.75774 0.81002 0.0
H255 H 0.59456 0.66717 0.82884 0.0
H256 H 0.59229 0.7191 0.82368 0.0
H257 H 0.49022 0.70418 0.80738 0.0
H258 H 0.48012 0.85187 0.81019 0.0
H259 H 0.48036 0.79895 0.8162 0.0
H260 H 0.5817 0.81224 0.83597 0.0
C261 C 0.56891 0.69586 0.82749 0.0
C262 C 0.51019 0.72755 0.81386 0.0
C263 C 0.57017 0.66593 0.83035 0.0
C264 C 0.50427 0.85242 0.80993 0.0
C265 C 0.50442 0.82195 0.81329 0.0
C266 C 0.56173 0.78896 0.8294 0.0
C267 C 0.53784 0.69568 0.82895 0.0
C268 C 0.53662 0.72768 0.82538 0.0
C269 C 0.5352 0.82137 0.81352 0.0
C270 C 0.53552 0.78897 0.81767 0.0
H271 H 0.48592 0.6113 0.84005 0.0
H272 H 0.48375 0.66357 0.83509 0.0
H273 H 0.58277 0.75991 0.84238 0.0
H274 H 0.5897 0.90584 0.80422 0.0
H275 H 0.58996 0.85284 0.80962 0.0
C276 C 0.92029 0.50001 0.16679 0.0
C277 C 0.9491 0.52791 0.17534 0.0
C278 C 0.89011 0.50079 0.16366 0.0
C279 C 0.84509 0.54827 0.17788 0.0
H280 H 0.79083 0.50259 0.12957 0.0
C281 C 0.73083 0.56346 0.15103 0.0
C282 C 0.70095 0.53365 0.14539 0.0
C283 C 0.76118 0.56314 0.15466 0.0
C284 C 0.80552 0.51526 0.14323 0.0
H285 H 0.96841 0.57856 0.1874 0.0
H286 H 0.9162 0.58034 0.18149 0.0
H287 H 0.84315 0.50154 0.13611 0.0
H288 H 0.67992 0.48019 0.13891 0.0
H289 H 0.73288 0.47975 0.14495 0.0
H290 H 0.80755 0.56251 0.18466 0.0
C291 C 0.91657 0.55742 0.17759 0.0
C292 C 0.83559 0.51456 0.14708 0.0
C293 C 0.9467 0.55649 0.18093 0.0
C294 C 0.7024 0.50364 0.14318 0.0
C295 C 0.73284 0.50341 0.14657 0.0
C296 C 0.81516 0.54925 0.1739 0.0
C297 C 0.88782 0.52967 0.16874 0.0
C298 C 0.85582 0.53087 0.16454 0.0
C299 C 0.7626 0.5331 0.15251 0.0
C300 C 0.79486 0.53261 0.15657 0.0
H301 H 0.92099 0.47742 0.16243 0.0
H302 H 0.86849 0.47854 0.1573 0.0
H303 H 0.85946 0.5607 0.19167 0.0
H304 H 0.73069 0.58703 0.15293 0.0
H305 H 0.78365 0.58654 0.15899 0.0
C306 C 0.40549 0.94812 0.49809 0.0
C307 C 0.43596 0.95051 0.50514 0.0
C308 C 0.37589 0.9165 0.49616 0.0
C309 C 0.346 0.82547 0.48908 0.0
H310 H 0.25863 0.81368 0.50629 0.0
C311 C 0.22141 0.69443 0.48625 0.0
C312 C 0.19096 0.69387 0.4812 0.0
C313 C 0.25151 0.72527 0.48951 0.0
C314 C 0.28269 0.81655 0.50109 0.0
H315 H 0.45892 0.92118 0.51582 0.0
H316 H 0.40719 0.8659 0.51231 0.0
H317 H 0.31027 0.86782 0.51176 0.0
H318 H 0.16865 0.72556 0.47517 0.0
H319 H 0.22108 0.77916 0.48026 0.0
H320 H 0.31846 0.77446 0.47803 0.0
C321 C 0.40633 0.88863 0.50823 0.0
C322 C 0.3124 0.84766 0.50433 0.0
C323 C 0.43593 0.92036 0.51038 0.0
C324 C 0.19155 0.72497 0.47916 0.0
C325 C 0.22167 0.7558 0.48226 0.0
C326 C 0.31623 0.79439 0.48568 0.0
C327 C 0.37593 0.88629 0.50104 0.0
C328 C 0.34445 0.85262 0.49828 0.0
C329 C 0.25209 0.75646 0.48768 0.0
C330 C 0.28406 0.78948 0.49154 0.0
H331 H 0.40448 0.97073 0.4939 0.0
H332 H 0.3531 0.9157 0.49037 0.0
H333 H 0.3702 0.82851 0.48399 0.0
H334 H 0.22189 0.67098 0.48807 0.0
H335 H 0.27416 0.72454 0.49391 0.0
C336 C 0.5135 0.41266 0.84056 0.0
C337 C 0.53979 0.44394 0.83271 0.0
C338 C 0.51234 0.38207 0.83554 0.0
C339 C 0.54403 0.34524 0.79563 0.0
H340 H 0.51455 0.27091 0.83556 0.0
C341 C 0.51529 0.2117 0.77036 0.0
C342 C 0.52554 0.19352 0.7835 0.0
C343 C 0.51713 0.24186 0.77695 0.0
C344 C 0.52308 0.29148 0.82423 0.0
H345 H 0.58568 0.46719 0.81351 0.0
H346 H 0.58401 0.41441 0.80518 0.0
H347 H 0.51824 0.32409 0.8463 0.0
H348 H 0.54564 0.19307 0.81408 0.0
H349 H 0.54903 0.24581 0.82554 0.0
H350 H 0.54933 0.31299 0.77365 0.0
C351 C 0.56395 0.4133 0.81499 0.0
C352 C 0.52484 0.32191 0.83034 0.0
C353 C 0.56511 0.44377 0.81999 0.0
C354 C 0.53751 0.20632 0.80351 0.0
C355 C 0.53926 0.23652 0.81014 0.0
C356 C 0.54216 0.31485 0.78952 0.0
C357 C 0.53735 0.38191 0.82246 0.0
C358 C 0.53538 0.34928 0.81613 0.0
C359 C 0.52923 0.25484 0.79691 0.0
C360 C 0.5316 0.28745 0.80369 0.0
H361 H 0.49349 0.41171 0.85033 0.0
H362 H 0.49128 0.35845 0.84146 0.0
H363 H 0.55186 0.36546 0.78413 0.0
H364 H 0.50579 0.20266 0.75488 0.0
H365 H 0.50865 0.25484 0.76641 0.0
C366 C 0.51279 0.82906 0.53947 0.0
C367 C 0.54578 0.85719 0.53696 0.0
C368 C 0.5077 0.79606 0.54033 0.0
C369 C 0.54879 0.74671 0.52573 0.0
H370 H 0.49336 0.68414 0.56989 0.0
C371 C 0.54332 0.61909 0.5357 0.0
C372 C 0.55076 0.6131 0.55605 0.0
C373 C 0.53381 0.64353 0.53195 0.0
C374 C 0.50875 0.70127 0.5574 0.0
H375 H 0.59932 0.87265 0.53404 0.0
H376 H 0.59041 0.81534 0.53532 0.0
H377 H 0.49564 0.73882 0.56591 0.0
H378 H 0.55119 0.62596 0.58862 0.0
H379 H 0.53503 0.66877 0.58205 0.0
H380 H 0.56322 0.71016 0.51773 0.0
C381 C 0.56841 0.8187 0.53623 0.0
C382 C 0.50985 0.73243 0.55503 0.0
C383 C 0.57351 0.85157 0.53549 0.0
C384 C 0.5459 0.63014 0.57273 0.0
C385 C 0.53639 0.65457 0.56897 0.0
C386 C 0.5476 0.7156 0.52803 0.0
C387 C 0.53548 0.79058 0.53857 0.0
C388 C 0.53066 0.75584 0.53953 0.0
C389 C 0.5315 0.66244 0.54846 0.0
C390 C 0.52824 0.69286 0.54421 0.0
H391 H 0.49086 0.8325 0.54046 0.0
H392 H 0.48202 0.77483 0.54206 0.0
H393 H 0.56467 0.76405 0.51345 0.0
H394 H 0.54644 0.60613 0.52252 0.0
H395 H 0.52958 0.64859 0.516 0.0
C396 C 0.75664 0.53727 0.81019 0.0
C397 C 0.72236 0.52047 0.80427 0.0
C398 C 0.77555 0.52075 0.80929 0.0
C399 C 0.76183 0.43385 0.81134 0.0
H400 H 0.86039 0.48295 0.80793 0.0
C401 C 0.84284 0.39459 0.85865 0.0
C402 C 0.87609 0.4042 0.85213 0.0
C403 C 0.82255 0.40303 0.84658 0.0
C404 C 0.83285 0.46845 0.80848 0.0
H405 H 0.6816 0.47421 0.79133 0.0
H406 H 0.7149 0.44556 0.78914 0.0
H407 H 0.82906 0.5105 0.79654 0.0
H408 H 0.91309 0.42757 0.82695 0.0
H409 H 0.87725 0.44154 0.80555 0.0
H410 H 0.76561 0.39175 0.82318 0.0
C411 C 0.72696 0.47114 0.79507 0.0
C412 C 0.81486 0.48452 0.80224 0.0
C413 C 0.70791 0.48756 0.79624 0.0
C414 C 0.88769 0.42015 0.83251 0.0
C415 C 0.86722 0.42835 0.82031 0.0
C416 C 0.77979 0.41763 0.81729 0.0
C417 C 0.76071 0.48714 0.80221 0.0
C418 C 0.77923 0.46796 0.80451 0.0
C419 C 0.83486 0.42098 0.82756 0.0
C420 C 0.81559 0.43524 0.81686 0.0
H421 H 0.7683 0.56251 0.81666 0.0
H422 H 0.80121 0.53378 0.81527 0.0
H423 H 0.73443 0.42019 0.81337 0.0
H424 H 0.83304 0.38218 0.87365 0.0
H425 H 0.798 0.39724 0.85288 0.0
C426 C 0.24008 0.77235 0.20436 0.0
C427 C 0.20896 0.75927 0.21526 0.0
C428 C 0.26658 0.80542 0.208 0.0
C429 C 0.28195 0.88731 0.22916 0.0
H430 H 0.37579 0.9083 0.23301 0.0
C431 C 0.38719 0.01416 0.26139 0.0
C432 C 0.41891 0.0299 0.25109 0.0
C433 C 0.36217 0.98124 0.25626 0.0
C434 C 0.34974 0.90289 0.23175 0.0
H435 H 0.18184 0.77005 0.2392 0.0
H436 H 0.22784 0.82736 0.24557 0.0
H437 H 0.33123 0.85037 0.22542 0.0
H438 H 0.44843 0.02439 0.22631 0.0
H439 H 0.40512 0.96655 0.2177 0.0
H440 H 0.30031 0.93965 0.23567 0.0
C441 C 0.23159 0.81253 0.23383 0.0
C442 C 0.32423 0.86973 0.22737 0.0
C443 C 0.20521 0.77963 0.23019 0.0
C444 C 0.42489 0.01234 0.23523 0.0
C445 C 0.39992 0.97933 0.23014 0.0
C446 C 0.30738 0.92037 0.23357 0.0
C447 C 0.26246 0.826 0.22263 0.0
C448 C 0.28998 0.86148 0.22626 0.0
C449 C 0.36827 0.96342 0.2406 0.0
C450 C 0.34152 0.92848 0.23513 0.0
H451 H 0.24366 0.75733 0.19268 0.0
H452 H 0.28997 0.81512 0.19901 0.0
H453 H 0.25593 0.88201 0.22796 0.0
H454 H 0.38183 0.02716 0.27362 0.0
H455 H 0.33817 0.96958 0.26474 0.0
C456 C 0.56707 0.26723 0.46205 0.0
C457 C 0.5431 0.24497 0.47686 0.0
C458 C 0.58342 0.30235 0.46477 0.0
C459 C 0.57995 0.36973 0.49523 0.0
H460 H 0.67803 0.41776 0.48759 0.0
C461 C 0.66319 0.51086 0.5166 0.0
C462 C 0.69234 0.51855 0.52823 0.0
C463 C 0.64496 0.47958 0.50672 0.0
C464 C 0.65065 0.40472 0.48978 0.0
H465 H 0.51712 0.24224 0.50596 0.0
H466 H 0.54555 0.30326 0.51071 0.0
H467 H 0.64458 0.35876 0.47706 0.0
H468 H 0.72575 0.49984 0.53813 0.0
H469 H 0.69383 0.44529 0.52116 0.0
H470 H 0.58622 0.41518 0.50891 0.0
C471 C 0.55135 0.2937 0.49679 0.0
C472 C 0.63142 0.37102 0.48351 0.0
C473 C 0.53502 0.25865 0.49407 0.0
C474 C 0.70341 0.49473 0.52929 0.0
C475 C 0.68523 0.46351 0.51942 0.0
C476 C 0.59919 0.40343 0.50151 0.0
C477 C 0.57615 0.31595 0.48238 0.0
C478 C 0.59593 0.3529 0.4866 0.0
C479 C 0.65555 0.45539 0.50824 0.0
C480 C 0.63484 0.42105 0.4993 0.0
H481 H 0.57349 0.25747 0.44847 0.0
H482 H 0.60207 0.31885 0.45324 0.0
H483 H 0.5526 0.3566 0.49756 0.0
H484 H 0.65407 0.52875 0.51543 0.0
H485 H 0.62241 0.47423 0.49804 0.0
C486 C 0.32028 0.53667 0.84997 0.0
C487 C 0.32506 0.51197 0.84 0.0
C488 C 0.28975 0.53691 0.84771 0.0
C489 C 0.20007 0.47895 0.8393 0.0
H490 H 0.19408 0.56011 0.82965 0.0
C491 C 0.07018 0.47147 0.84012 0.0
C492 C 0.06834 0.49752 0.85052 0.0
C493 C 0.10172 0.475 0.83484 0.0
C494 C 0.1953 0.53724 0.83253 0.0
H495 H 0.30203 0.46857 0.81959 0.0
H496 H 0.24854 0.4688 0.81583 0.0
H497 H 0.24956 0.56346 0.82826 0.0
H498 H 0.09792 0.54821 0.86288 0.0
H499 H 0.15294 0.55394 0.85448 0.0
H500 H 0.14642 0.45289 0.84465 0.0
C501 C 0.26846 0.48803 0.82529 0.0
C502 C 0.22706 0.53919 0.83164 0.0
C503 C 0.2991 0.48804 0.82734 0.0
C504 C 0.09857 0.52774 0.8548 0.0
C505 C 0.13015 0.53107 0.84985 0.0
C506 C 0.16845 0.47707 0.84048 0.0
C507 C 0.26334 0.51218 0.83567 0.0
C508 C 0.22971 0.51009 0.83518 0.0
C509 C 0.13215 0.50442 0.84023 0.0
C510 C 0.16563 0.50623 0.83729 0.0
H511 H 0.34 0.55554 0.8597 0.0
H512 H 0.28633 0.55565 0.856 0.0
H513 H 0.20147 0.45622 0.8424 0.0
H514 H 0.04724 0.44803 0.8364 0.0
H515 H 0.10219 0.45431 0.82694 0.0
C516 C 0.85513 0.28362 0.14249 0.0
C517 C 0.86791 0.30684 0.15897 0.0
C518 C 0.82446 0.25296 0.14483 0.0
C519 C 0.76913 0.1922 0.18488 0.0
H520 H 0.69994 0.15918 0.14212 0.0
C521 C 0.6535 0.05679 0.18752 0.0
C522 C 0.62158 0.05411 0.18446 0.0
C523 C 0.68345 0.08734 0.18331 0.0
C524 C 0.71904 0.16816 0.15419 0.0
H525 H 0.85763 0.31636 0.19057 0.0
H526 H 0.80462 0.2626 0.19475 0.0
H527 H 0.75234 0.21384 0.13708 0.0
H528 H 0.59604 0.0811 0.174 0.0
H529 H 0.6485 0.13445 0.16646 0.0
H530 H 0.73596 0.14667 0.20202 0.0
C531 C 0.81856 0.26805 0.18011 0.0
C532 C 0.74907 0.19926 0.15125 0.0
C533 C 0.84901 0.2988 0.17772 0.0
C534 C 0.62025 0.08237 0.17654 0.0
C535 C 0.65025 0.11286 0.17213 0.0
C536 C 0.73934 0.16099 0.18772 0.0
C537 C 0.80607 0.24474 0.16374 0.0
C538 C 0.77432 0.21165 0.16663 0.0
C539 C 0.68214 0.11578 0.17577 0.0
C540 C 0.71395 0.14868 0.17244 0.0
H541 H 0.86918 0.28873 0.12793 0.0
H542 H 0.81557 0.2353 0.13203 0.0
H543 H 0.7883 0.20098 0.19691 0.0
H544 H 0.65542 0.03549 0.19358 0.0
H545 H 0.7077 0.08877 0.18603 0.0
C546 C 0.03927 0.56488 0.10735 0.0
C547 C 0.04677 0.54559 0.12128 0.0
C548 C 0.03239 0.55556 0.08645 0.0
C549 C 0.04428 0.50478 0.04599 0.0
H550 H 0.97278 0.51231 0.0178 0.0
C551 C 0.99726 0.45175 0.96344 0.0
C552 C 0.99192 0.47279 0.94958 0.0
C553 C 1.00394 0.46016 0.9845 0.0
C554 C 0.99302 0.51034 0.02541 0.0
H555 H 0.05322 0.50164 0.12444 0.0
H556 H 0.04046 0.48487 0.08808 0.0
H557 H 0.98431 0.52787 0.05438 0.0
H558 H 0.98958 0.51924 0.94699 0.0
H559 H 1.00128 0.5338 0.98363 0.0
H560 H 0.05281 0.48706 0.01698 0.0
C561 C 0.04034 0.50746 0.09315 0.0
C562 C 0.99968 0.51932 0.04636 0.0
C563 C 0.04735 0.51688 0.11401 0.0
C564 C 0.99349 0.50239 0.95724 0.0
C565 C 0.99999 0.51068 0.97827 0.0
C566 C 0.03752 0.49568 0.02504 0.0
C567 C 0.0328 0.52671 0.0791 0.0
C568 C 0.02548 0.51678 0.05688 0.0
C569 C 1.00522 0.48964 0.99215 0.0
C570 C 1.01193 0.49852 0.01451 0.0
H571 H 0.03879 0.58721 0.11258 0.0
H572 H 0.02716 0.57122 0.07598 0.0
H573 H 0.06466 0.50298 0.05353 0.0
H574 H 0.99622 0.42878 0.95806 0.0
H575 H 1.0076 0.44331 0.99488 0.0
C576 C 0.5125 0.02675 0.43943 0.0
C577 C 0.54245 0.0314 0.44883 0.0
C578 C 0.50806 0.02195 0.41787 0.0
C579 C 0.53541 0.99069 0.37374 0.0
H580 H 0.50592 0.04113 0.33885 0.0
C581 C 0.54302 0.98857 0.28434 0.0
C582 C 0.51766 0.98974 0.2725 0.0
C583 C 0.5443 0.99308 0.3059 0.0
C584 C 0.51364 0.02641 0.34839 0.0
H585 H 0.59146 0.03534 0.4431 0.0
H586 H 0.58353 0.02652 0.40557 0.0
H587 H 0.51123 0.05047 0.37649 0.0
H588 H 0.47266 0.99479 0.27401 0.0
H589 H 0.47455 1.00229 0.3118 0.0
H590 H 0.53737 0.96616 0.34596 0.0
C591 C 0.56346 0.02647 0.41483 0.0
C592 C 0.51678 0.03188 0.36994 0.0
C593 C 0.56806 0.03167 0.43629 0.0
C594 C 0.49311 0.9948 0.28269 0.0
C595 C 0.49416 0.999 0.30435 0.0
C596 C 0.53192 0.98493 0.3523 0.0
C597 C 0.53332 0.02127 0.40542 0.0
C598 C 0.5282 0.01443 0.38276 0.0
C599 C 0.51987 0.9983 0.31623 0.0
C600 C 0.52151 1.00308 0.33927 0.0
H601 H 0.49236 0.02642 0.44877 0.0
H602 H 0.48453 0.01788 0.41101 0.0
H603 H 0.54367 0.97642 0.38332 0.0
H604 H 0.56235 0.98484 0.27685 0.0
H605 H 0.56485 0.99301 0.3144 0.0
C606 C 0.52443 0.50845 0.76556 0.0
C607 C 0.5388 0.5342 0.78045 0.0
C608 C 0.53871 0.5138 0.74549 0.0
C609 C 0.61918 0.56267 0.7175 0.0
H610 H 0.56488 0.54524 0.66771 0.0
C611 C 0.68219 0.60231 0.63613 0.0
C612 C 0.66526 0.58141 0.61921 0.0
C613 C 0.66593 0.59649 0.65556 0.0
C614 C 0.58039 0.54974 0.68142 0.0
H615 H 0.57846 0.58604 0.78591 0.0
H616 H 0.60404 0.59496 0.75113 0.0
H617 H 0.53757 0.53417 0.70208 0.0
H618 H 0.61862 0.53729 0.60943 0.0
H619 H 0.59045 0.52639 0.64342 0.0
H620 H 0.66181 0.57725 0.69715 0.0
C621 C 0.58187 0.57066 0.75498 0.0
C622 C 0.5647 0.54351 0.70108 0.0
C623 C 0.56728 0.56552 0.77487 0.0
C624 C 0.63191 0.55432 0.6221 0.0
C625 C 0.6158 0.54812 0.64161 0.0
C626 C 0.63478 0.56838 0.69788 0.0
C627 C 0.56784 0.54482 0.74015 0.0
C628 C 0.58403 0.55023 0.71928 0.0
C629 C 0.63259 0.56912 0.65863 0.0
C630 C 0.61568 0.56231 0.67955 0.0
H631 H 0.5024 0.4841 0.76947 0.0
H632 H 0.5275 0.49347 0.73431 0.0
H633 H 0.63456 0.56762 0.73133 0.0
H634 H 0.70791 0.62344 0.63428 0.0
H635 H 0.67949 0.61365 0.66811 0.0
C636 C 0.49379 0.06102 0.57742 0.0
C637 C 0.51873 0.06079 0.56447 0.0
C638 C 0.49698 0.06167 0.59916 0.0
C639 C 0.55988 0.07703 0.64155 0.0
H640 H 0.47818 0.03012 0.67587 0.0
C641 C 0.55693 0.03538 0.72765 0.0
C642 C 0.53763 0.04217 0.74201 0.0
C643 C 0.55645 0.04203 0.70634 0.0
C644 C 0.5012 0.04368 0.66649 0.0
H645 H 0.56649 0.06086 0.56408 0.0
H646 H 0.57133 0.06018 0.60195 0.0
H647 H 0.47331 0.03149 0.63807 0.0
H648 H 0.50278 0.06143 0.7453 0.0
H649 H 0.50127 0.07233 0.70778 0.0
H650 H 0.58761 0.08751 0.67017 0.0
C651 C 0.54977 0.06104 0.59546 0.0
C652 C 0.49849 0.04462 0.64475 0.0
C653 C 0.54688 0.06106 0.57369 0.0
C654 C 0.51825 0.05636 0.73464 0.0
C655 C 0.51717 0.06231 0.71318 0.0
C656 C 0.56256 0.07551 0.66326 0.0
C657 C 0.52489 0.06144 0.60858 0.0
C658 C 0.5278 0.06118 0.63189 0.0
C659 C 0.53606 0.05492 0.69882 0.0
C660 C 0.53325 0.05872 0.67595 0.0
H661 H 0.47193 0.06111 0.57074 0.0
H662 H 0.47761 0.06272 0.60852 0.0
H663 H 0.58308 0.09074 0.63239 0.0
H664 H 0.57209 0.02442 0.73288 0.0
H665 H 0.57106 0.03586 0.69563 0.0
C666 C 0.52438 0.5159 0.90785 0.0
C667 C 0.54867 0.54757 0.89939 0.0
C668 C 0.51808 0.51174 0.92947 0.0
C669 C 0.53271 0.5606 0.97876 0.0
H670 H 0.5253 0.48002 1.00504 0.0
C671 C 0.52564 0.54269 0.06902 0.0
C672 C 0.54606 0.53025 0.07727 0.0
C673 C 0.51985 0.5418 0.04744 0.0
C674 C 0.52738 0.50273 0.99798 0.0
H675 H 0.58472 0.59985 0.90683 0.0
H676 H 0.57427 0.59259 0.94427 0.0
H677 H 0.52691 0.48493 0.96712 0.0
H678 H 0.57587 0.50659 0.0692 0.0
H679 H 0.56629 0.50553 0.03196 0.0
H680 H 0.5349 0.57913 0.00964 0.0
C681 C 0.55962 0.57098 0.93438 0.0
C682 C 0.52786 0.50536 0.97617 0.0
C683 C 0.56585 0.5751 0.91286 0.0
C684 C 0.55998 0.51641 0.06347 0.0
C685 C 0.55419 0.51547 0.04203 0.0
C686 C 0.53232 0.55801 1.00059 0.0
C687 C 0.53589 0.53919 0.94306 0.0
C688 C 0.53133 0.53467 0.96623 0.0
C689 C 0.53429 0.5284 0.03364 0.0
C690 C 0.53046 0.52938 0.01051 0.0
H691 H 0.51062 0.49427 0.89782 0.0
H692 H 0.49934 0.48699 0.93554 0.0
H693 H 0.53478 0.5833 0.9717 0.0
H694 H 0.51502 0.55408 0.07906 0.0
H695 H 0.50426 0.55185 0.04156 0.0
C696 C 0.03461 0.53479 0.24447 0.0
C697 C 0.02098 0.50198 0.23646 0.0
C698 C 0.0355 0.53971 0.26607 0.0
C699 C 0.99721 0.49537 0.3164 0.0
H700 H 0.07976 0.56829 0.33989 0.0
C701 C 0.02291 0.50968 0.40579 0.0
C702 C 0.04051 0.54283 0.41358 0.0
C703 C 0.01852 0.50425 0.38422 0.0
C704 C 0.05629 0.54808 0.33362 0.0
H705 H 0.99691 0.44852 0.24465 0.0
H706 H 0.9985 0.45701 0.28228 0.0
H707 H 0.07578 0.56024 0.30231 0.0
H708 H 0.06625 0.59622 0.40486 0.0
H709 H 0.05803 0.58685 0.36756 0.0
H710 H 0.97774 0.48324 0.34778 0.0
C711 C 1.00837 0.47899 0.27196 0.0
C712 C 0.05404 0.54347 0.31201 0.0
C713 C 1.00763 0.47413 0.2504 0.0
C714 C 0.05281 0.57033 0.39939 0.0
C715 C 0.04828 0.56495 0.37794 0.0
C716 C 0.99941 0.50006 0.33805 0.0
C717 C 0.02255 0.51186 0.2801 0.0
C718 C 0.0245 0.51706 0.30311 0.0
C719 C 0.03161 0.53187 0.36999 0.0
C720 C 0.02898 0.52653 0.34695 0.0
H721 H 0.04457 0.55664 0.23407 0.0
H722 H 0.04614 0.56533 0.27178 0.0
H723 H 0.97393 0.47499 0.31005 0.0
H724 H 1.01377 0.48795 0.41623 0.0
H725 H 1.00589 0.47842 0.37867 0.0
loop_
_geom_bond_atom_site_label_1
_geom_bond_atom_site_label_2
_geom_bond_distance
_geom_bond_site_symmetry_2
_ccdc_geom_bond_type
C0 Eu1 2.835 . S
C0 C2 1.500 . S
C0 O20 1.257 . S
C0 O21 1.260 . S
Eu1 C0 2.835 . S
Eu1 O20 2.473 . S
Eu1 O21 2.480 . S
Eu1 O22 2.430 . S
Eu1 O23 2.670 1_655 S
Eu1 O24 2.394 . S
Eu1 O29 2.355 1_655 S
Eu1 O31 2.374 1_655 S
C2 C0 1.500 . S
C2 C3 1.377 . S
C2 C7 1.377 . S
C3 C2 1.377 . S
C3 C4 1.395 . S
C3 H32 0.931 . S
C4 C3 1.395 . S
C4 C5 1.383 . S
C4 H33 0.931 . S
C5 C4 1.383 . S
C5 C6 1.394 . S
C6 C5 1.394 . S
C6 C7 1.378 . S
C6 H34 0.931 . S
C7 C2 1.377 . S
C7 C6 1.378 . S
C7 H35 0.931 . S
C8 O22 1.259 1_455 S
C8 O23 1.270 . S
C9 O24 1.251 . S
C9 O25 1.251 . S
C10 Eu11 2.835 . S
C10 C12 1.500 . S
C10 O26 1.257 . S
C10 O27 1.260 . S
Eu11 C10 2.835 . S
Eu11 O23 2.355 . S
Eu11 O25 2.374 1_455 S
Eu11 O26 2.473 . S
Eu11 O27 2.480 . S
Eu11 O28 2.430 . S
Eu11 O29 2.670 . S
Eu11 O30 2.394 . S
C12 C10 1.500 . S
C12 C13 1.377 . S
C12 C17 1.377 . S
C13 C12 1.377 . S
C13 C14 1.395 . S
C13 H36 0.931 . S
C14 C13 1.395 . S
C14 C15 1.383 . S
C14 H37 0.931 . S
C15 C14 1.383 . S
C15 C16 1.394 . S
C16 C15 1.394 . S
C16 C17 1.378 . S
C16 H38 0.931 . S
C17 C12 1.377 . S
C17 C16 1.378 . S
C17 H39 0.931 . S
C18 O28 1.259 . S
C18 O29 1.270 . S
C19 O30 1.251 . S
C19 O31 1.251 . S
O20 C0 1.257 . S
O20 Eu1 2.473 . S
O21 C0 1.260 . S
O21 Eu1 2.480 . S
O22 Eu1 2.430 . S
O22 C8 1.259 1_655 S
O23 Eu1 2.670 1_455 S
O23 C8 1.270 . S
O23 Eu11 2.355 . S
O24 Eu1 2.394 . S
O24 C9 1.251 . S
O25 C9 1.251 . S
O25 Eu11 2.374 1_655 S
O26 C10 1.257 . S
O26 Eu11 2.473 . S
O27 C10 1.260 . S
O27 Eu11 2.480 . S
O28 Eu11 2.430 . S
O28 C18 1.259 . S
O29 Eu1 2.355 1_455 S
O29 Eu11 2.670 . S
O29 C18 1.270 . S
O30 Eu11 2.394 . S
O30 C19 1.251 . S
O31 Eu1 2.374 1_455 S
O31 C19 1.251 . S
H32 C3 0.931 . S
H33 C4 0.931 . S
H34 C6 0.931 . S
H35 C7 0.931 . S
H36 C13 0.931 . S
H37 C14 0.931 . S
H38 C16 0.931 . S
H39 C17 0.931 . S
C40 Eu41 2.835 . S
C40 C42 1.500 . S
C40 O60 1.257 . S
C40 O61 1.260 . S
Eu41 C40 2.835 . S
Eu41 O60 2.473 . S
Eu41 O61 2.480 . S
Eu41 O62 2.430 . S
Eu41 O63 2.670 . S
Eu41 O64 2.394 . S
Eu41 O69 2.355 . S
Eu41 O71 2.374 1_545 S
C42 C40 1.500 . S
C42 C43 1.377 . S
C42 C47 1.377 . S
C43 C42 1.377 . S
C43 C44 1.395 . S
C43 H72 0.931 . S
C44 C43 1.395 . S
C44 C45 1.383 . S
C44 H73 0.931 . S
C45 C44 1.383 . S
C45 C46 1.394 . S
C46 C45 1.394 . S
C46 C47 1.378 . S
C46 H74 0.931 . S
C47 C42 1.377 . S
C47 C46 1.378 . S
C47 H75 0.931 . S
C48 O62 1.259 . S
C48 O63 1.270 . S
C49 O64 1.251 . S
C49 O65 1.251 . S
C50 Eu51 2.835 1_565 S
C50 C52 1.500 . S
C50 O66 1.257 . S
C50 O67 1.260 . S
Eu51 C50 2.835 1_545 S
Eu51 O63 2.355 . S
Eu51 O65 2.374 . S
Eu51 O66 2.473 1_545 S
Eu51 O67 2.480 1_545 S
Eu51 O68 2.430 . S
Eu51 O69 2.670 . S
Eu51 O70 2.394 1_545 S
C52 C50 1.500 . S
C52 C53 1.377 . S
C52 C57 1.377 . S
C53 C52 1.377 . S
C53 C54 1.395 . S
C53 H76 0.931 . S
C54 C53 1.395 . S
C54 C55 1.383 . S
C54 H77 0.931 . S
C55 C54 1.383 . S
C55 C56 1.394 . S
C56 C55 1.394 . S
C56 C57 1.378 . S
C56 H78 0.931 . S
C57 C52 1.377 . S
C57 C56 1.378 . S
C57 H79 0.931 . S
C58 O68 1.259 . S
C58 O69 1.270 . S
C59 O70 1.251 . S
C59 O71 1.251 . S
O60 C40 1.257 . S
O60 Eu41 2.473 . S
O61 C40 1.260 . S
O61 Eu41 2.480 . S
O62 Eu41 2.430 . S
O62 C48 1.259 . S
O63 Eu41 2.670 . S
O63 C48 1.270 . S
O63 Eu51 2.355 . S
O64 Eu41 2.394 . S
O64 C49 1.251 . S
O65 C49 1.251 . S
O65 Eu51 2.374 . S
O66 C50 1.257 . S
O66 Eu51 2.473 1_565 S
O67 C50 1.260 . S
O67 Eu51 2.480 1_565 S
O68 Eu51 2.430 . S
O68 C58 1.259 . S
O69 Eu41 2.355 . S
O69 Eu51 2.670 . S
O69 C58 1.270 . S
O70 Eu51 2.394 1_565 S
O70 C59 1.251 . S
O71 Eu41 2.374 1_565 S
O71 C59 1.251 . S
H72 C43 0.931 . S
H73 C44 0.931 . S
H74 C46 0.931 . S
H75 C47 0.931 . S
H76 C53 0.931 . S
H77 C54 0.931 . S
H78 C56 0.931 . S
H79 C57 0.931 . S
C80 Eu81 2.835 . S
C80 C82 1.500 . S
C80 O100 1.257 . S
C80 O101 1.260 . S
Eu81 C80 2.835 . S
Eu81 O100 2.473 . S
Eu81 O101 2.480 . S
Eu81 O102 2.430 . S
Eu81 O103 2.670 . S
Eu81 O104 2.394 . S
Eu81 O109 2.355 . S
Eu81 O111 2.374 . S
C82 C80 1.500 . S
C82 C83 1.377 . S
C82 C87 1.377 . S
C83 C82 1.377 . S
C83 C84 1.395 . S
C83 H112 0.931 . S
C84 C83 1.395 . S
C84 C85 1.383 . S
C84 H113 0.931 . S
C85 C84 1.383 . S
C85 C86 1.394 . S
C86 C85 1.394 . S
C86 C87 1.378 . S
C86 H114 0.931 . S
C87 C82 1.377 . S
C87 C86 1.378 . S
C87 H115 0.931 . S
C88 O102 1.259 . S
C88 O103 1.270 . S
C89 O104 1.251 . S
C89 O105 1.251 . S
C90 Eu91 2.835 . S
C90 C92 1.500 . S
C90 O106 1.257 . S
C90 O107 1.260 . S
Eu91 C90 2.835 . S
Eu91 O103 2.355 . S
Eu91 O105 2.374 . S
Eu91 O106 2.473 . S
Eu91 O107 2.480 . S
Eu91 O108 2.430 . S
Eu91 O109 2.670 . S
Eu91 O110 2.394 . S
C92 C90 1.500 . S
C92 C93 1.377 . S
C92 C97 1.377 . S
C93 C92 1.377 . S
C93 C94 1.395 . S
C93 H116 0.931 . S
C94 C93 1.395 . S
C94 C95 1.383 . S
C94 H117 0.931 . S
C95 C94 1.383 . S
C95 C96 1.394 . S
C96 C95 1.394 . S
C96 C97 1.378 . S
C96 H118 0.931 . S
C97 C92 1.377 . S
C97 C96 1.378 . S
C97 H119 0.931 . S
C98 O108 1.259 . S
C98 O109 1.270 . S
C99 O110 1.251 . S
C99 O111 1.251 . S
O100 C80 1.257 . S
O100 Eu81 2.473 . S
O101 C80 1.260 . S
O101 Eu81 2.480 . S
O102 Eu81 2.430 . S
O102 C88 1.259 . S
O103 Eu81 2.670 . S
O103 C88 1.270 . S
O103 Eu91 2.355 . S
O104 Eu81 2.394 . S
O104 C89 1.251 . S
O105 C89 1.251 . S
O105 Eu91 2.374 . S
O106 C90 1.257 . S
O106 Eu91 2.473 . S
O107 C90 1.260 . S
O107 Eu91 2.480 . S
O108 Eu91 2.430 . S
O108 C98 1.259 . S
O109 Eu81 2.355 . S
O109 Eu91 2.670 . S
O109 C98 1.270 . S
O110 Eu91 2.394 . S
O110 C99 1.251 . S
O111 Eu81 2.374 . S
O111 C99 1.251 . S
H112 C83 0.931 . S
H113 C84 0.931 . S
H114 C86 0.931 . S
H115 C87 0.931 . S
H116 C93 0.931 . S
H117 C94 0.931 . S
H118 C96 0.931 . S
H119 C97 0.931 . S
O120 Cd121 2.300 . S
O120 C127 1.275 . S
Cd121 O120 2.300 . S
Cd121 O129 2.381 . S
Cd121 O130 2.378 . S
O122 Cd123 2.385 1_545 S
O122 C127 1.255 . S
Cd123 O122 2.385 1_565 S
Cd123 O124 2.317 . S
O124 Cd123 2.317 . S
O124 C125 1.232 . S
C125 O124 1.232 . S
C125 O126 1.218 . S
O126 C125 1.218 . S
C127 O120 1.275 . S
C127 O122 1.255 . S
C128 O129 1.258 . S
C128 O130 1.256 . S
O129 Cd121 2.381 . S
O129 C128 1.258 . S
O130 Cd121 2.378 . S
O130 C128 1.256 . S
O131 Cd132 2.300 . S
O131 C138 1.275 . S
Cd132 O131 2.300 . S
Cd132 O140 2.381 . S
Cd132 O141 2.378 . S
O133 Cd134 2.385 . S
O133 C138 1.255 . S
Cd134 O133 2.385 . S
Cd134 O135 2.317 . S
O135 Cd134 2.317 . S
O135 C136 1.232 . S
C136 O135 1.232 . S
C136 O137 1.218 . S
O137 C136 1.218 . S
C138 O131 1.275 . S
C138 O133 1.255 . S
C139 O140 1.258 . S
C139 O141 1.256 . S
O140 Cd132 2.381 . S
O140 C139 1.258 . S
O141 Cd132 2.378 . S
O141 C139 1.256 . S
O142 Cd143 2.300 . S
O142 C149 1.272 . S
Cd143 O142 2.300 . S
Cd143 O151 2.381 . S
Cd143 O152 2.378 . S
O144 Cd145 2.385 . S
O144 C149 1.257 1_655 S
Cd145 O144 2.385 . S
Cd145 O146 2.317 . S
O146 Cd145 2.317 . S
O146 C147 1.232 . S
C147 O146 1.232 . S
C147 O148 1.218 . S
O148 C147 1.218 . S
C149 O142 1.272 . S
C149 O144 1.257 1_455 S
C150 O151 1.258 . S
C150 O152 1.256 . S
O151 Cd143 2.381 . S
O151 C150 1.258 . S
O152 Cd143 2.378 . S
O152 C150 1.256 . S
O153 Cd154 2.300 . S
O153 C160 1.275 . S
Cd154 O153 2.300 . S
Cd154 O162 2.381 . S
Cd154 O163 2.378 . S
O155 Cd156 2.385 1_455 S
O155 C160 1.255 . S
Cd156 O155 2.385 1_655 S
Cd156 O157 2.317 . S
O157 Cd156 2.317 . S
O157 C158 1.232 . S
C158 O157 1.232 . S
C158 O159 1.218 . S
O159 C158 1.218 . S
C160 O153 1.275 . S
C160 O155 1.255 . S
C161 O162 1.258 . S
C161 O163 1.256 . S
O162 Cd154 2.381 . S
O162 C161 1.258 . S
O163 Cd154 2.378 . S
O163 C161 1.256 . S
O164 Cd165 2.300 . S
O164 C171 1.275 1_565 S
Cd165 O164 2.300 . S
Cd165 O173 2.381 . S
Cd165 O174 2.378 . S
O166 Cd167 2.385 . S
O166 C171 1.255 . S
Cd167 O166 2.385 . S
Cd167 O168 2.317 . S
O168 Cd167 2.317 . S
O168 C169 1.232 . S
C169 O168 1.232 . S
C169 O170 1.218 . S
O170 C169 1.218 . S
C171 O164 1.275 1_545 S
C171 O166 1.255 . S
C172 O173 1.258 . S
C172 O174 1.256 . S
O173 Cd165 2.381 . S
O173 C172 1.258 . S
O174 Cd165 2.378 . S
O174 C172 1.256 . S
O175 Cd176 2.300 . S
O175 C182 1.275 . S
Cd176 O175 2.300 . S
Cd176 O184 2.381 . S
Cd176 O185 2.378 . S
O177 Cd178 2.385 . S
O177 C182 1.255 . S
Cd178 O177 2.385 . S
Cd178 O179 2.317 . S
O179 Cd178 2.317 . S
O179 C180 1.232 . S
C180 O179 1.232 . S
C180 O181 1.218 . S
O181 C180 1.218 . S
C182 O175 1.275 . S
C182 O177 1.255 . S
C183 O184 1.258 . S
C183 O185 1.256 . S
O184 Cd176 2.381 . S
O184 C183 1.258 . S
O185 Cd176 2.378 . S
O185 C183 1.256 . S
C186 C187 1.349 . S
C186 C188 1.327 . S
C186 H211 0.950 . S
C187 C186 1.349 . S
C187 C203 1.349 . S
C188 C186 1.327 . S
C188 C207 1.429 . S
C188 H212 0.950 . S
C189 C206 1.574 . S
C189 C208 1.368 . S
C189 H213 0.949 . S
H190 C194 0.949 . S
C191 C192 1.349 . S
C191 C193 1.327 . S
C191 H214 0.950 . S
C192 C191 1.349 . S
C192 C204 1.349 . S
C193 C191 1.327 . S
C193 C209 1.429 . S
C193 H215 0.950 . S
C194 H190 0.949 . S
C194 C202 1.574 . S
C194 C210 1.368 . S
H195 C203 0.950 . S
H196 C201 0.950 . S
H197 C202 0.949 . S
H198 C204 0.950 . S
H199 C205 0.950 . S
H200 C206 0.949 . S
C201 H196 0.950 . S
C201 C203 1.327 . S
C201 C207 1.429 . S
C202 C194 1.574 . S
C202 H197 0.949 . S
C202 C208 1.368 . S
C203 C187 1.349 . S
C203 H195 0.950 . S
C203 C201 1.327 . S
C204 C192 1.349 . S
C204 H198 0.950 . S
C204 C205 1.327 . S
C205 H199 0.950 . S
C205 C204 1.327 . S
C205 C209 1.429 . S
C206 C189 1.574 . S
C206 H200 0.949 . S
C206 C210 1.368 . S
C207 C188 1.429 . S
C207 C201 1.429 . S
C207 C208 1.523 . S
C208 C189 1.368 . S
C208 C202 1.368 . S
C208 C207 1.523 . S
C209 C193 1.429 . S
C209 C205 1.429 . S
C209 C210 1.523 . S
C210 C194 1.368 . S
C210 C206 1.368 . S
C210 C209 1.523 . S
H211 C186 0.950 . S
H212 C188 0.950 . S
H213 C189 0.949 . S
H214 C191 0.950 . S
H215 C193 0.950 . S
C216 C217 1.349 . S
C216 C218 1.327 . S
C216 H241 0.950 . S
C217 C216 1.349 . S
C217 C233 1.349 . S
C218 C216 1.327 . S
C218 C237 1.429 . S
C218 H242 0.950 . S
C219 C236 1.574 . S
C219 C238 1.368 . S
C219 H243 0.949 . S
H220 C224 0.949 . S
C221 C222 1.349 . S
C221 C223 1.327 . S
C221 H244 0.950 . S
C222 C221 1.349 . S
C222 C234 1.349 . S
C223 C221 1.327 . S
C223 C239 1.429 . S
C223 H245 0.950 . S
C224 H220 0.949 . S
C224 C232 1.574 . S
C224 C240 1.368 . S
H225 C233 0.950 . S
H226 C231 0.950 . S
H227 C232 0.949 . S
H228 C234 0.950 . S
H229 C235 0.950 . S
H230 C236 0.949 . S
C231 H226 0.950 . S
C231 C233 1.327 . S
C231 C237 1.429 . S
C232 C224 1.574 . S
C232 H227 0.949 . S
C232 C238 1.368 . S
C233 C217 1.349 . S
C233 H225 0.950 . S
C233 C231 1.327 . S
C234 C222 1.349 . S
C234 H228 0.950 . S
C234 C235 1.327 . S
C235 H229 0.950 . S
C235 C234 1.327 . S
C235 C239 1.429 . S
C236 C219 1.574 . S
C236 H230 0.949 . S
C236 C240 1.368 . S
C237 C218 1.429 . S
C237 C231 1.429 . S
C237 C238 1.523 . S
C238 C219 1.368 . S
C238 C232 1.368 . S
C238 C237 1.523 . S
C239 C223 1.429 . S
C239 C235 1.429 . S
C239 C240 1.523 . S
C240 C224 1.368 . S
C240 C236 1.368 . S
C240 C239 1.523 . S
H241 C216 0.950 . S
H242 C218 0.950 . S
H243 C219 0.949 . S
H244 C221 0.950 . S
H245 C223 0.950 . S
C246 C247 1.349 . S
C246 C248 1.327 . S
C246 H271 0.950 . S
C247 C246 1.349 . S
C247 C263 1.349 . S
C248 C246 1.327 . S
C248 C267 1.429 . S
C248 H272 0.950 . S
C249 C266 1.574 . S
C249 C268 1.368 . S
C249 H273 0.949 . S
H250 C254 0.949 . S
C251 C252 1.349 . S
C251 C253 1.327 . S
C251 H274 0.950 . S
C252 C251 1.349 . S
C252 C264 1.349 . S
C253 C251 1.327 . S
C253 C269 1.429 . S
C253 H275 0.950 . S
C254 H250 0.949 . S
C254 C262 1.574 . S
C254 C270 1.368 . S
H255 C263 0.950 . S
H256 C261 0.950 . S
H257 C262 0.949 . S
H258 C264 0.950 . S
H259 C265 0.950 . S
H260 C266 0.949 . S
C261 H256 0.950 . S
C261 C263 1.327 . S
C261 C267 1.429 . S
C262 C254 1.574 . S
C262 H257 0.949 . S
C262 C268 1.368 . S
C263 C247 1.349 . S
C263 H255 0.950 . S
C263 C261 1.327 . S
C264 C252 1.349 . S
C264 H258 0.950 . S
C264 C265 1.327 . S
C265 H259 0.950 . S
C265 C264 1.327 . S
C265 C269 1.429 . S
C266 C249 1.574 . S
C266 H260 0.949 . S
C266 C270 1.368 . S
C267 C248 1.429 . S
C267 C261 1.429 . S
C267 C268 1.523 . S
C268 C249 1.368 . S
C268 C262 1.368 . S
C268 C267 1.523 . S
C269 C253 1.429 . S
C269 C265 1.429 . S
C269 C270 1.523 . S
C270 C254 1.368 . S
C270 C266 1.368 . S
C270 C269 1.523 . S
H271 C246 0.950 . S
H272 C248 0.950 . S
H273 C249 0.949 . S
H274 C251 0.950 . S
H275 C253 0.950 . S
C276 C277 1.349 . S
C276 C278 1.327 . S
C276 H301 0.950 . S
C277 C276 1.349 . S
C277 C293 1.349 . S
C278 C276 1.327 . S
C278 C297 1.429 . S
C278 H302 0.950 . S
C279 C296 1.574 . S
C279 C298 1.368 . S
C279 H303 0.949 . S
H280 C284 0.949 . S
C281 C282 1.349 . S
C281 C283 1.327 . S
C281 H304 0.950 . S
C282 C281 1.349 . S
C282 C294 1.349 . S
C283 C281 1.327 . S
C283 C299 1.429 . S
C283 H305 0.950 . S
C284 H280 0.949 . S
C284 C292 1.574 . S
C284 C300 1.368 . S
H285 C293 0.950 . S
H286 C291 0.950 . S
H287 C292 0.949 . S
H288 C294 0.950 . S
H289 C295 0.950 . S
H290 C296 0.949 . S
C291 H286 0.950 . S
C291 C293 1.327 . S
C291 C297 1.429 . S
C292 C284 1.574 . S
C292 H287 0.949 . S
C292 C298 1.368 . S
C293 C277 1.349 . S
C293 H285 0.950 . S
C293 C291 1.327 . S
C294 C282 1.349 . S
C294 H288 0.950 . S
C294 C295 1.327 . S
C295 H289 0.950 . S
C295 C294 1.327 . S
C295 C299 1.429 . S
C296 C279 1.574 . S
C296 H290 0.949 . S
C296 C300 1.368 . S
C297 C278 1.429 . S
C297 C291 1.429 . S
C297 C298 1.523 . S
C298 C279 1.368 . S
C298 C292 1.368 . S
C298 C297 1.523 . S
C299 C283 1.429 . S
C299 C295 1.429 . S
C299 C300 1.523 . S
C300 C284 1.368 . S
C300 C296 1.368 . S
C300 C299 1.523 . S
H301 C276 0.950 . S
H302 C278 0.950 . S
H303 C279 0.949 . S
H304 C281 0.950 . S
H305 C283 0.950 . S
C306 C307 1.349 . S
C306 C308 1.327 . S
C306 H331 0.950 . S
C307 C306 1.349 . S
C307 C323 1.349 . S
C308 C306 1.327 . S
C308 C327 1.429 . S
C308 H332 0.950 . S
C309 C326 1.574 . S
C309 C328 1.368 . S
C309 H333 0.949 . S
H310 C314 0.949 . S
C311 C312 1.349 . S
C311 C313 1.327 . S
C311 H334 0.950 . S
C312 C311 1.349 . S
C312 C324 1.349 . S
C313 C311 1.327 . S
C313 C329 1.429 . S
C313 H335 0.950 . S
C314 H310 0.949 . S
C314 C322 1.574 . S
C314 C330 1.368 . S
H315 C323 0.950 . S
H316 C321 0.950 . S
H317 C322 0.949 . S
H318 C324 0.950 . S
H319 C325 0.950 . S
H320 C326 0.949 . S
C321 H316 0.950 . S
C321 C323 1.327 . S
C321 C327 1.429 . S
C322 C314 1.574 . S
C322 H317 0.949 . S
C322 C328 1.368 . S
C323 C307 1.349 . S
C323 H315 0.950 . S
C323 C321 1.327 . S
C324 C312 1.349 . S
C324 H318 0.950 . S
C324 C325 1.327 . S
C325 H319 0.950 . S
C325 C324 1.327 . S
C325 C329 1.429 . S
C326 C309 1.574 . S
C326 H320 0.949 . S
C326 C330 1.368 . S
C327 C308 1.429 . S
C327 C321 1.429 . S
C327 C328 1.523 . S
C328 C309 1.368 . S
C328 C322 1.368 . S
C328 C327 1.523 . S
C329 C313 1.429 . S
C329 C325 1.429 . S
C329 C330 1.523 . S
C330 C314 1.368 . S
C330 C326 1.368 . S
C330 C329 1.523 . S
H331 C306 0.950 . S
H332 C308 0.950 . S
H333 C309 0.949 . S
H334 C311 0.950 . S
H335 C313 0.950 . S
C336 C337 1.349 . S
C336 C338 1.327 . S
C336 H361 0.950 . S
C337 C336 1.349 . S
C337 C353 1.349 . S
C338 C336 1.327 . S
C338 C357 1.429 . S
C338 H362 0.950 . S
C339 C356 1.574 . S
C339 C358 1.368 . S
C339 H363 0.949 . S
H340 C344 0.949 . S
C341 C342 1.349 . S
C341 C343 1.327 . S
C341 H364 0.950 . S
C342 C341 1.349 . S
C342 C354 1.349 . S
C343 C341 1.327 . S
C343 C359 1.429 . S
C343 H365 0.950 . S
C344 H340 0.949 . S
C344 C352 1.574 . S
C344 C360 1.368 . S
H345 C353 0.950 . S
H346 C351 0.950 . S
H347 C352 0.949 . S
H348 C354 0.950 . S
H349 C355 0.950 . S
H350 C356 0.949 . S
C351 H346 0.950 . S
C351 C353 1.327 . S
C351 C357 1.429 . S
C352 C344 1.574 . S
C352 H347 0.949 . S
C352 C358 1.368 . S
C353 C337 1.349 . S
C353 H345 0.950 . S
C353 C351 1.327 . S
C354 C342 1.349 . S
C354 H348 0.950 . S
C354 C355 1.327 . S
C355 H349 0.950 . S
C355 C354 1.327 . S
C355 C359 1.429 . S
C356 C339 1.574 . S
C356 H350 0.949 . S
C356 C360 1.368 . S
C357 C338 1.429 . S
C357 C351 1.429 . S
C357 C358 1.523 . S
C358 C339 1.368 . S
C358 C352 1.368 . S
C358 C357 1.523 . S
C359 C343 1.429 . S
C359 C355 1.429 . S
C359 C360 1.523 . S
C360 C344 1.368 . S
C360 C356 1.368 . S
C360 C359 1.523 . S
H361 C336 0.950 . S
H362 C338 0.950 . S
H363 C339 0.949 . S
H364 C341 0.950 . S
H365 C343 0.950 . S
C366 C367 1.349 . S
C366 C368 1.327 . S
C366 H391 0.950 . S
C367 C366 1.349 . S
C367 C383 1.349 . S
C368 C366 1.327 . S
C368 C387 1.429 . S
C368 H392 0.950 . S
C369 C386 1.574 . S
C369 C388 1.368 . S
C369 H393 0.949 . S
H370 C374 0.949 . S
C371 C372 1.349 . S
C371 C373 1.327 . S
C371 H394 0.950 . S
C372 C371 1.349 . S
C372 C384 1.349 . S
C373 C371 1.327 . S
C373 C389 1.429 . S
C373 H395 0.950 . S
C374 H370 0.949 . S
C374 C382 1.574 . S
C374 C390 1.368 . S
H375 C383 0.950 . S
H376 C381 0.950 . S
H377 C382 0.949 . S
H378 C384 0.950 . S
H379 C385 0.950 . S
H380 C386 0.949 . S
C381 H376 0.950 . S
C381 C383 1.327 . S
C381 C387 1.429 . S
C382 C374 1.574 . S
C382 H377 0.949 . S
C382 C388 1.368 . S
C383 C367 1.349 . S
C383 H375 0.950 . S
C383 C381 1.327 . S
C384 C372 1.349 . S
C384 H378 0.950 . S
C384 C385 1.327 . S
C385 H379 0.950 . S
C385 C384 1.327 . S
C385 C389 1.429 . S
C386 C369 1.574 . S
C386 H380 0.949 . S
C386 C390 1.368 . S
C387 C368 1.429 . S
C387 C381 1.429 . S
C387 C388 1.523 . S
C388 C369 1.368 . S
C388 C382 1.368 . S
C388 C387 1.523 . S
C389 C373 1.429 . S
C389 C385 1.429 . S
C389 C390 1.523 . S
C390 C374 1.368 . S
C390 C386 1.368 . S
C390 C389 1.523 . S
H391 C366 0.950 . S
H392 C368 0.950 . S
H393 C369 0.949 . S
H394 C371 0.950 . S
H395 C373 0.950 . S
C396 C397 1.349 . S
C396 C398 1.327 . S
C396 H421 0.950 . S
C397 C396 1.349 . S
C397 C413 1.349 . S
C398 C396 1.327 . S
C398 C417 1.429 . S
C398 H422 0.950 . S
C399 C416 1.574 . S
C399 C418 1.368 . S
C399 H423 0.949 . S
H400 C404 0.949 . S
C401 C402 1.349 . S
C401 C403 1.327 . S
C401 H424 0.950 . S
C402 C401 1.349 . S
C402 C414 1.349 . S
C403 C401 1.327 . S
C403 C419 1.429 . S
C403 H425 0.950 . S
C404 H400 0.949 . S
C404 C412 1.574 . S
C404 C420 1.368 . S
H405 C413 0.950 . S
H406 C411 0.950 . S
H407 C412 0.949 . S
H408 C414 0.950 . S
H409 C415 0.950 . S
H410 C416 0.949 . S
C411 H406 0.950 . S
C411 C413 1.327 . S
C411 C417 1.429 . S
C412 C404 1.574 . S
C412 H407 0.949 . S
C412 C418 1.368 . S
C413 C397 1.349 . S
C413 H405 0.950 . S
C413 C411 1.327 . S
C414 C402 1.349 . S
C414 H408 0.950 . S
C414 C415 1.327 . S
C415 H409 0.950 . S
C415 C414 1.327 . S
C415 C419 1.429 . S
C416 C399 1.574 . S
C416 H410 0.949 . S
C416 C420 1.368 . S
C417 C398 1.429 . S
C417 C411 1.429 . S
C417 C418 1.523 . S
C418 C399 1.368 . S
C418 C412 1.368 . S
C418 C417 1.523 . S
C419 C403 1.429 . S
C419 C415 1.429 . S
C419 C420 1.523 . S
C420 C404 1.368 . S
C420 C416 1.368 . S
C420 C419 1.523 . S
H421 C396 0.950 . S
H422 C398 0.950 . S
H423 C399 0.949 . S
H424 C401 0.950 . S
H425 C403 0.950 . S
C426 C427 1.349 . S
C426 C428 1.327 . S
C426 H451 0.950 . S
C427 C426 1.349 . S
C427 C443 1.349 . S
C428 C426 1.327 . S
C428 C447 1.429 . S
C428 H452 0.950 . S
C429 C446 1.574 . S
C429 C448 1.368 . S
C429 H453 0.949 . S
H430 C434 0.949 . S
C431 C432 1.349 . S
C431 C433 1.327 . S
C431 H454 0.950 . S
C432 C431 1.349 . S
C432 C444 1.349 . S
C433 C431 1.327 . S
C433 C449 1.429 . S
C433 H455 0.950 . S
C434 H430 0.949 . S
C434 C442 1.574 . S
C434 C450 1.368 . S
H435 C443 0.950 . S
H436 C441 0.950 . S
H437 C442 0.949 . S
H438 C444 0.950 . S
H439 C445 0.950 . S
H440 C446 0.949 . S
C441 H436 0.950 . S
C441 C443 1.327 . S
C441 C447 1.429 . S
C442 C434 1.574 . S
C442 H437 0.949 . S
C442 C448 1.368 . S
C443 C427 1.349 . S
C443 H435 0.950 . S
C443 C441 1.327 . S
C444 C432 1.349 . S
C444 H438 0.950 . S
C444 C445 1.327 . S
C445 H439 0.950 . S
C445 C444 1.327 . S
C445 C449 1.429 . S
C446 C429 1.574 . S
C446 H440 0.949 . S
C446 C450 1.368 . S
C447 C428 1.429 . S
C447 C441 1.429 . S
C447 C448 1.523 . S
C448 C429 1.368 . S
C448 C442 1.368 . S
C448 C447 1.523 . S
C449 C433 1.429 . S
C449 C445 1.429 . S
C449 C450 1.523 . S
C450 C434 1.368 . S
C450 C446 1.368 . S
C450 C449 1.523 . S
H451 C426 0.950 . S
H452 C428 0.950 . S
H453 C429 0.949 . S
H454 C431 0.950 . S
H455 C433 0.950 . S
C456 C457 1.349 . S
C456 C458 1.327 . S
C456 H481 0.950 . S
C457 C456 1.349 . S
C457 C473 1.349 . S
C458 C456 1.327 . S
C458 C477 1.429 . S
C458 H482 0.950 . S
C459 C476 1.574 . S
C459 C478 1.368 . S
C459 H483 0.949 . S
H460 C464 0.949 . S
C461 C462 1.349 . S
C461 C463 1.327 . S
C461 H484 0.950 . S
C462 C461 1.349 . S
C462 C474 1.349 . S
C463 C461 1.327 . S
C463 C479 1.429 . S
C463 H485 0.950 . S
C464 H460 0.949 . S
C464 C472 1.574 . S
C464 C480 1.368 . S
H465 C473 0.950 . S
H466 C471 0.950 . S
H467 C472 0.949 . S
H468 C474 0.950 . S
H469 C475 0.950 . S
H470 C476 0.949 . S
C471 H466 0.950 . S
C471 C473 1.327 . S
C471 C477 1.429 . S
C472 C464 1.574 . S
C472 H467 0.949 . S
C472 C478 1.368 . S
C473 C457 1.349 . S
C473 H465 0.950 . S
C473 C471 1.327 . S
C474 C462 1.349 . S
C474 H468 0.950 . S
C474 C475 1.327 . S
C475 H469 0.950 . S
C475 C474 1.327 . S
C475 C479 1.429 . S
C476 C459 1.574 . S
C476 H470 0.949 . S
C476 C480 1.368 . S
C477 C458 1.429 . S
C477 C471 1.429 . S
C477 C478 1.523 . S
C478 C459 1.368 . S
C478 C472 1.368 . S
C478 C477 1.523 . S
C479 C463 1.429 . S
C479 C475 1.429 . S
C479 C480 1.523 . S
C480 C464 1.368 . S
C480 C476 1.368 . S
C480 C479 1.523 . S
H481 C456 0.950 . S
H482 C458 0.950 . S
H483 C459 0.949 . S
H484 C461 0.950 . S
H485 C463 0.950 . S
C486 C487 1.349 . S
C486 C488 1.327 . S
C486 H511 0.950 . S
C487 C486 1.349 . S
C487 C503 1.349 . S
C488 C486 1.327 . S
C488 C507 1.429 . S
C488 H512 0.950 . S
C489 C506 1.574 . S
C489 C508 1.368 . S
C489 H513 0.949 . S
H490 C494 0.949 . S
C491 C492 1.349 . S
C491 C493 1.327 . S
C491 H514 0.950 . S
C492 C491 1.349 . S
C492 C504 1.349 . S
C493 C491 1.327 . S
C493 C509 1.429 . S
C493 H515 0.950 . S
C494 H490 0.949 . S
C494 C502 1.574 . S
C494 C510 1.368 . S
H495 C503 0.950 . S
H496 C501 0.950 . S
H497 C502 0.949 . S
H498 C504 0.950 . S
H499 C505 0.950 . S
H500 C506 0.949 . S
C501 H496 0.950 . S
C501 C503 1.327 . S
C501 C507 1.429 . S
C502 C494 1.574 . S
C502 H497 0.949 . S
C502 C508 1.368 . S
C503 C487 1.349 . S
C503 H495 0.950 . S
C503 C501 1.327 . S
C504 C492 1.349 . S
C504 H498 0.950 . S
C504 C505 1.327 . S
C505 H499 0.950 . S
C505 C504 1.327 . S
C505 C509 1.429 . S
C506 C489 1.574 . S
C506 H500 0.949 . S
C506 C510 1.368 . S
C507 C488 1.429 . S
C507 C501 1.429 . S
C507 C508 1.523 . S
C508 C489 1.368 . S
C508 C502 1.368 . S
C508 C507 1.523 . S
C509 C493 1.429 . S
C509 C505 1.429 . S
C509 C510 1.523 . S
C510 C494 1.368 . S
C510 C506 1.368 . S
C510 C509 1.523 . S
H511 C486 0.950 . S
H512 C488 0.950 . S
H513 C489 0.949 . S
H514 C491 0.950 . S
H515 C493 0.950 . S
C516 C517 1.349 . S
C516 C518 1.327 . S
C516 H541 0.950 . S
C517 C516 1.349 . S
C517 C533 1.349 . S
C518 C516 1.327 . S
C518 C537 1.429 . S
C518 H542 0.950 . S
C519 C536 1.574 . S
C519 C538 1.368 . S
C519 H543 0.949 . S
H520 C524 0.949 . S
C521 C522 1.349 . S
C521 C523 1.327 . S
C521 H544 0.950 . S
C522 C521 1.349 . S
C522 C534 1.349 . S
C523 C521 1.327 . S
C523 C539 1.429 . S
C523 H545 0.950 . S
C524 H520 0.949 . S
C524 C532 1.574 . S
C524 C540 1.368 . S
H525 C533 0.950 . S
H526 C531 0.950 . S
H527 C532 0.949 . S
H528 C534 0.950 . S
H529 C535 0.950 . S
H530 C536 0.949 . S
C531 H526 0.950 . S
C531 C533 1.327 . S
C531 C537 1.429 . S
C532 C524 1.574 . S
C532 H527 0.949 . S
C532 C538 1.368 . S
C533 C517 1.349 . S
C533 H525 0.950 . S
C533 C531 1.327 . S
C534 C522 1.349 . S
C534 H528 0.950 . S
C534 C535 1.327 . S
C535 H529 0.950 . S
C535 C534 1.327 . S
C535 C539 1.429 . S
C536 C519 1.574 . S
C536 H530 0.949 . S
C536 C540 1.368 . S
C537 C518 1.429 . S
C537 C531 1.429 . S
C537 C538 1.523 . S
C538 C519 1.368 . S
C538 C532 1.368 . S
C538 C537 1.523 . S
C539 C523 1.429 . S
C539 C535 1.429 . S
C539 C540 1.523 . S
C540 C524 1.368 . S
C540 C536 1.368 . S
C540 C539 1.523 . S
H541 C516 0.950 . S
H542 C518 0.950 . S
H543 C519 0.949 . S
H544 C521 0.950 . S
H545 C523 0.950 . S
C546 C547 1.349 . S
C546 C548 1.327 . S
C546 H571 0.950 . S
C547 C546 1.349 . S
C547 C563 1.349 1_455 S
C548 C546 1.327 . S
C548 C567 1.429 . S
C548 H572 0.950 . S
C549 C566 1.574 . S
C549 C568 1.368 1_655 S
C549 H573 0.949 . S
H550 C554 0.949 1_556 S
C551 C552 1.349 . S
C551 C553 1.327 . S
C551 H574 0.950 . S
C552 C551 1.349 . S
C552 C564 1.349 1_655 S
C553 C551 1.327 . S
C553 C569 1.421 1_655 S
C553 H575 0.950 . S
C554 H550 0.949 1_554 S
C554 C562 1.574 . S
C554 C570 1.368 1_554 S
H555 C563 0.950 . S
H556 C561 0.950 . S
H557 C562 0.949 . S
H558 C564 0.950 . S
H559 C565 0.950 . S
H560 C566 0.949 . S
C561 H556 0.950 . S
C561 C563 1.327 . S
C561 C567 1.429 1_655 S
C562 C554 1.574 . S
C562 H557 0.949 . S
C562 C568 1.368 . S
C563 C547 1.349 1_655 S
C563 H555 0.950 . S
C563 C561 1.327 . S
C564 C552 1.349 1_455 S
C564 H558 0.950 . S
C564 C565 1.327 . S
C565 H559 0.950 . S
C565 C564 1.327 . S
C565 C569 1.436 . S
C566 C549 1.574 . S
C566 H560 0.949 . S
C566 C570 1.368 1_654 S
C567 C548 1.429 . S
C567 C561 1.429 1_455 S
C567 C568 1.523 . S
C568 C549 1.368 1_455 S
C568 C562 1.368 . S
C568 C567 1.523 . S
C569 C553 1.421 1_455 S
C569 C565 1.436 . S
C569 C570 1.523 . S
C570 C554 1.368 1_556 S
C570 C566 1.368 1_456 S
C570 C569 1.523 . S
H571 C546 0.950 . S
H572 C548 0.950 . S
H573 C549 0.949 . S
H574 C551 0.950 . S
H575 C553 0.950 . S
C576 C577 1.349 . S
C576 C578 1.327 . S
C576 H601 0.950 1_545 S
C577 C576 1.349 . S
C577 C593 1.349 . S
C578 C576 1.327 . S
C578 C597 1.429 . S
C578 H602 0.950 1_545 S
C579 C596 1.574 . S
C579 C598 1.368 . S
C579 H603 0.949 . S
H580 C584 0.949 1_565 S
C581 C582 1.349 . S
C581 C583 1.327 . S
C581 H604 0.950 . S
C582 C581 1.349 . S
C582 C594 1.349 . S
C583 C581 1.327 . S
C583 C599 1.429 . S
C583 H605 0.950 . S
C584 H580 0.949 1_545 S
C584 C592 1.574 . S
C584 C600 1.368 . S
H585 C593 0.950 . S
H586 C591 0.950 . S
H587 C592 0.949 1_565 S
H588 C594 0.950 . S
H589 C595 0.963 . S
H590 C596 0.949 . S
C591 H586 0.950 . S
C591 C593 1.327 . S
C591 C597 1.429 . S
C592 C584 1.574 . S
C592 H587 0.949 1_545 S
C592 C598 1.368 . S
C593 C577 1.349 . S
C593 H585 0.950 . S
C593 C591 1.327 . S
C594 C582 1.349 . S
C594 H588 0.950 . S
C594 C595 1.327 . S
C595 H589 0.963 . S
C595 C594 1.327 . S
C595 C599 1.429 . S
C596 C579 1.574 . S
C596 H590 0.949 . S
C596 C600 1.368 . S
C597 C578 1.429 . S
C597 C591 1.429 . S
C597 C598 1.523 . S
C598 C579 1.368 . S
C598 C592 1.368 . S
C598 C597 1.523 . S
C599 C583 1.429 . S
C599 C595 1.429 . S
C599 C600 1.523 . S
C600 C584 1.368 . S
C600 C596 1.368 . S
C600 C599 1.523 . S
H601 C576 0.950 1_565 S
H602 C578 0.950 1_565 S
H603 C579 0.949 . S
H604 C581 0.950 . S
H605 C583 0.950 . S
C606 C607 1.349 . S
C606 C608 1.327 . S
C606 H631 0.950 . S
C607 C606 1.349 . S
C607 C623 1.349 . S
C608 C606 1.327 . S
C608 C627 1.429 . S
C608 H632 0.950 . S
C609 C626 1.574 . S
C609 C628 1.368 . S
C609 H633 0.949 . S
H610 C614 0.949 . S
C611 C612 1.349 . S
C611 C613 1.327 . S
C611 H634 0.950 . S
C612 C611 1.349 . S
C612 C624 1.349 . S
C613 C611 1.327 . S
C613 C629 1.429 . S
C613 H635 0.950 . S
C614 H610 0.949 . S
C614 C622 1.574 . S
C614 C630 1.368 . S
H615 C623 0.950 . S
H616 C621 0.950 . S
H617 C622 0.949 . S
H618 C624 0.950 . S
H619 C625 0.950 . S
H620 C626 0.949 . S
C621 H616 0.950 . S
C621 C623 1.327 . S
C621 C627 1.429 . S
C622 C614 1.574 . S
C622 H617 0.949 . S
C622 C628 1.368 . S
C623 C607 1.349 . S
C623 H615 0.950 . S
C623 C621 1.327 . S
C624 C612 1.349 . S
C624 H618 0.950 . S
C624 C625 1.327 . S
C625 H619 0.950 . S
C625 C624 1.327 . S
C625 C629 1.429 . S
C626 C609 1.574 . S
C626 H620 0.949 . S
C626 C630 1.368 . S
C627 C608 1.429 . S
C627 C621 1.429 . S
C627 C628 1.523 . S
C628 C609 1.368 . S
C628 C622 1.368 . S
C628 C627 1.523 . S
C629 C613 1.429 . S
C629 C625 1.429 . S
C629 C630 1.523 . S
C630 C614 1.368 . S
C630 C626 1.368 . S
C630 C629 1.523 . S
H631 C606 0.950 . S
H632 C608 0.950 . S
H633 C609 0.949 . S
H634 C611 0.950 . S
H635 C613 0.950 . S
C636 C637 1.349 . S
C636 C638 1.327 . S
C636 H661 0.950 . S
C637 C636 1.349 . S
C637 C653 1.349 1_545 S
C638 C636 1.327 . S
C638 C657 1.429 . S
C638 H662 0.950 . S
C639 C656 1.574 . S
C639 C658 1.368 1_565 S
C639 H663 0.949 . S
H640 C644 0.949 . S
C641 C642 1.349 1_565 S
C641 C643 1.327 . S
C641 H664 0.950 . S
C642 C641 1.349 1_545 S
C642 C654 1.349 . S
C643 C641 1.327 . S
C643 C659 1.429 1_565 S
C643 H665 0.950 . S
C644 H640 0.949 . S
C644 C652 1.574 . S
C644 C660 1.368 . S
H645 C653 0.950 . S
H646 C651 0.950 . S
H647 C652 0.949 . S
H648 C654 0.950 . S
H649 C655 0.950 . S
H650 C656 0.949 . S
C651 H646 0.950 . S
C651 C653 1.327 . S
C651 C657 1.429 1_565 S
C652 C644 1.574 . S
C652 H647 0.949 . S
C652 C658 1.368 . S
C653 C637 1.349 1_565 S
C653 H645 0.950 . S
C653 C651 1.327 . S
C654 C642 1.349 . S
C654 H648 0.950 . S
C654 C655 1.327 . S
C655 H649 0.950 . S
C655 C654 1.327 . S
C655 C659 1.429 . S
C656 C639 1.574 . S
C656 H650 0.949 . S
C656 C660 1.368 1_565 S
C657 C638 1.429 . S
C657 C651 1.429 1_545 S
C657 C658 1.523 . S
C658 C639 1.368 1_545 S
C658 C652 1.368 . S
C658 C657 1.523 . S
C659 C643 1.429 1_545 S
C659 C655 1.429 . S
C659 C660 1.523 . S
C660 C644 1.368 . S
C660 C656 1.368 1_545 S
C660 C659 1.523 . S
H661 C636 0.950 . S
H662 C638 0.950 . S
H663 C639 0.949 . S
H664 C641 0.950 . S
H665 C643 0.950 . S
C666 C667 1.349 . S
C666 C668 1.327 . S
C666 H691 0.950 . S
C667 C666 1.349 . S
C667 C683 1.349 . S
C668 C666 1.327 . S
C668 C687 1.429 . S
C668 H692 0.950 . S
C669 C686 1.574 . S
C669 C688 1.368 . S
C669 H693 0.949 . S
H670 C674 0.949 1_554 S
C671 C672 1.349 . S
C671 C673 1.327 . S
C671 H694 0.950 . S
C672 C671 1.349 . S
C672 C684 1.349 . S
C673 C671 1.327 . S
C673 C689 1.429 . S
C673 H695 0.950 . S
C674 H670 0.949 1_556 S
C674 C682 1.574 . S
C674 C690 1.368 . S
H675 C683 0.950 . S
H676 C681 0.950 . S
H677 C682 0.949 . S
H678 C684 0.950 . S
H679 C685 0.950 . S
H680 C686 0.949 . S
C681 H676 0.950 . S
C681 C683 1.327 . S
C681 C687 1.429 . S
C682 C674 1.574 . S
C682 H677 0.949 . S
C682 C688 1.368 . S
C683 C667 1.349 . S
C683 H675 0.950 . S
C683 C681 1.327 . S
C684 C672 1.349 . S
C684 H678 0.950 . S
C684 C685 1.327 . S
C685 H679 0.950 . S
C685 C684 1.327 . S
C685 C689 1.429 . S
C686 C669 1.574 . S
C686 H680 0.949 . S
C686 C690 1.368 . S
C687 C668 1.429 . S
C687 C681 1.429 . S
C687 C688 1.523 . S
C688 C669 1.368 . S
C688 C682 1.368 . S
C688 C687 1.523 . S
C689 C673 1.429 . S
C689 C685 1.429 . S
C689 C690 1.523 1_554 S
C690 C674 1.368 . S
C690 C686 1.368 . S
C690 C689 1.523 1_556 S
H691 C666 0.950 . S
H692 C668 0.950 . S
H693 C669 0.949 . S
H694 C671 0.950 . S
H695 C673 0.950 . S
C696 C697 1.349 . S
C696 C698 1.327 . S
C696 H721 0.950 . S
C697 C696 1.349 . S
C697 C713 1.349 . S
C698 C696 1.327 . S
C698 C717 1.429 . S
C698 H722 0.950 . S
C699 C716 1.574 . S
C699 C718 1.368 . S
C699 H723 0.949 . S
H700 C704 0.949 . S
C701 C702 1.349 . S
C701 C703 1.327 . S
C701 H724 0.950 . S
C702 C701 1.349 . S
C702 C714 1.349 . S
C703 C701 1.327 . S
C703 C719 1.429 . S
C703 H725 0.950 . S
C704 H700 0.949 . S
C704 C712 1.574 . S
C704 C720 1.368 . S
H705 C713 0.950 . S
H706 C711 0.950 . S
H707 C712 0.949 . S
H708 C714 0.950 . S
H709 C715 0.950 . S
H710 C716 0.949 . S
C711 H706 0.950 . S
C711 C713 1.327 . S
C711 C717 1.429 . S
C712 C704 1.574 . S
C712 H707 0.949 . S
C712 C718 1.368 . S
C713 C697 1.349 . S
C713 H705 0.950 . S
C713 C711 1.327 . S
C714 C702 1.349 . S
C714 H708 0.950 . S
C714 C715 1.327 . S
C715 H709 0.950 . S
C715 C714 1.327 . S
C715 C719 1.429 . S
C716 C699 1.574 . S
C716 H710 0.949 . S
C716 C720 1.368 . S
C717 C698 1.429 . S
C717 C711 1.429 . S
C717 C718 1.523 . S
C718 C699 1.368 . S
C718 C712 1.368 . S
C718 C717 1.523 . S
C719 C703 1.429 . S
C719 C715 1.429 . S
C719 C720 1.523 . S
C720 C704 1.368 . S
C720 C716 1.368 . S
C720 C719 1.523 . S
H721 C696 0.950 . S
H722 C698 0.950 . S
H723 C699 0.949 . S
H724 C701 0.950 . S
H725 C703 0.950 . S
C187 C19 3.157 . S
C192 C180 2.828 . S
C217 C49 3.248 . S
C222 C158 2.908 . S
C247 C99 2.790 . S
C252 C172 2.744 . S
C277 C9 2.879 . S
C282 C183 2.814 . S
C312 C161 2.740 . S
C307 C59 2.787 . S
C342 C169 2.906 . S
C337 C89 3.245 . S
C367 C55 0.458 . S
C372 C136 0.708 . S
C397 C85 0.366 . S
C402 C147 0.635 . S
C427 C15 0.443 . S
C432 C125 0.706 . S
C462 C139 0.339 . S
C457 C45 0.254 . S
C492 C150 0.267 . S
C487 C95 0.130 . S
C517 C5 0.253 . S
C522 C128 0.332 . S
C552 C149 1.221 1_655 S
C547 C18 1.230 . S
C577 C58 1.247 . S
C582 C127 1.216 . S
C607 C98 1.248 . S
C612 C138 1.216 . S
C642 C171 1.651 . S
C637 C48 1.640 . S
C672 C182 1.660 . S
C667 C88 1.667 . S
C697 C8 1.643 . S
C702 C160 1.656 . S
