# Generated by pormake.
# Topology ocu, (6,8)-cn, num edge types: 1
# Building blocks:
#     Node 0, Type 0, BuildingBlock: CUKXOW_clean_sbu_0, # of connection points: 6
#     Node 1, Type 0, BuildingBlock: CUKXOW_clean_sbu_0, # of connection points: 6
#     Node 2, Type 0, BuildingBlock: CUKXOW_clean_sbu_0, # of connection points: 6
#     Node 3, Type 0, BuildingBlock: CUKXOW_clean_sbu_0, # of connection points: 6
#     Node 4, Type 0, BuildingBlock: CUKXOW_clean_sbu_0, # of connection points: 6
#     Node 5, Type 0, BuildingBlock: CUKXOW_clean_sbu_0, # of connection points: 6
#     Node 6, Type 0, BuildingBlock: CUKXOW_clean_sbu_0, # of connection points: 6
#     Node 7, Type 0, BuildingBlock: CUKXOW_clean_sbu_0, # of connection points: 6
#     Node 8, Type 1, BuildingBlock: TAGTUT_clean_sbu_1, # of connection points: 8
#     Node 9, Type 1, BuildingBlock: TAGTUT_clean_sbu_1, # of connection points: 8
#     Node 10, Type 1, BuildingBlock: TAGTUT_clean_sbu_1, # of connection points: 8
#     Node 11, Type 1, BuildingBlock: TAGTUT_clean_sbu_1, # of connection points: 8
#     Node 12, Type 1, BuildingBlock: TAGTUT_clean_sbu_1, # of connection points: 8
#     Node 13, Type 1, BuildingBlock: TAGTUT_clean_sbu_1, # of connection points: 8
#     Edge 14, Type (0, 1), BuildingBlock: MIFKUJ_clean_linker_0, # of connection points: 2
#     Edge 15, Type (0, 1), BuildingBlock: MIFKUJ_clean_linker_0, # of connection points: 2
#     Edge 16, Type (0, 1), BuildingBlock: MIFKUJ_clean_linker_0, # of connection points: 2
#     Edge 17, Type (0, 1), BuildingBlock: MIFKUJ_clean_linker_0, # of connection points: 2
#     Edge 18, Type (0, 1), BuildingBlock: MIFKUJ_clean_linker_0, # of connection points: 2
#     Edge 19, Type (0, 1), BuildingBlock: MIFKUJ_clean_linker_0, # of connection points: 2
#     Edge 20, Type (0, 1), BuildingBlock: MIFKUJ_clean_linker_0, # of connection points: 2
#     Edge 21, Type (0, 1), BuildingBlock: MIFKUJ_clean_linker_0, # of connection points: 2
#     Edge 22, Type (0, 1), BuildingBlock: MIFKUJ_clean_linker_0, # of connection points: 2
#     Edge 23, Type (0, 1), BuildingBlock: MIFKUJ_clean_linker_0, # of connection points: 2
#     Edge 24, Type (0, 1), BuildingBlock: MIFKUJ_clean_linker_0, # of connection points: 2
#     Edge 25, Type (0, 1), BuildingBlock: MIFKUJ_clean_linker_0, # of connection points: 2
#     Edge 26, Type (0, 1), BuildingBlock: MIFKUJ_clean_linker_0, # of connection points: 2
#     Edge 27, Type (0, 1), BuildingBlock: MIFKUJ_clean_linker_0, # of connection points: 2
#     Edge 28, Type (0, 1), BuildingBlock: MIFKUJ_clean_linker_0, # of connection points: 2
#     Edge 29, Type (0, 1), BuildingBlock: MIFKUJ_clean_linker_0, # of connection points: 2
#     Edge 30, Type (0, 1), BuildingBlock: MIFKUJ_clean_linker_0, # of connection points: 2
#     Edge 31, Type (0, 1), BuildingBlock: MIFKUJ_clean_linker_0, # of connection points: 2
#     Edge 32, Type (0, 1), BuildingBlock: MIFKUJ_clean_linker_0, # of connection points: 2
#     Edge 33, Type (0, 1), BuildingBlock: MIFKUJ_clean_linker_0, # of connection points: 2
#     Edge 34, Type (0, 1), BuildingBlock: MIFKUJ_clean_linker_0, # of connection points: 2
#     Edge 35, Type (0, 1), BuildingBlock: MIFKUJ_clean_linker_0, # of connection points: 2
#     Edge 36, Type (0, 1), BuildingBlock: MIFKUJ_clean_linker_0, # of connection points: 2
#     Edge 37, Type (0, 1), BuildingBlock: MIFKUJ_clean_linker_0, # of connection points: 2
#     Edge 38, Type (0, 1), BuildingBlock: MIFKUJ_clean_linker_0, # of connection points: 2
#     Edge 39, Type (0, 1), BuildingBlock: MIFKUJ_clean_linker_0, # of connection points: 2
#     Edge 40, Type (0, 1), BuildingBlock: MIFKUJ_clean_linker_0, # of connection points: 2
#     Edge 41, Type (0, 1), BuildingBlock: MIFKUJ_clean_linker_0, # of connection points: 2
#     Edge 42, Type (0, 1), BuildingBlock: MIFKUJ_clean_linker_0, # of connection points: 2
#     Edge 43, Type (0, 1), BuildingBlock: MIFKUJ_clean_linker_0, # of connection points: 2
#     Edge 44, Type (0, 1), BuildingBlock: MIFKUJ_clean_linker_0, # of connection points: 2
#     Edge 45, Type (0, 1), BuildingBlock: MIFKUJ_clean_linker_0, # of connection points: 2
#     Edge 46, Type (0, 1), BuildingBlock: MIFKUJ_clean_linker_0, # of connection points: 2
#     Edge 47, Type (0, 1), BuildingBlock: MIFKUJ_clean_linker_0, # of connection points: 2
#     Edge 48, Type (0, 1), BuildingBlock: MIFKUJ_clean_linker_0, # of connection points: 2
#     Edge 49, Type (0, 1), BuildingBlock: MIFKUJ_clean_linker_0, # of connection points: 2
#     Edge 50, Type (0, 1), BuildingBlock: MIFKUJ_clean_linker_0, # of connection points: 2
#     Edge 51, Type (0, 1), BuildingBlock: MIFKUJ_clean_linker_0, # of connection points: 2
#     Edge 52, Type (0, 1), BuildingBlock: MIFKUJ_clean_linker_0, # of connection points: 2
#     Edge 53, Type (0, 1), BuildingBlock: MIFKUJ_clean_linker_0, # of connection points: 2
#     Edge 54, Type (0, 1), BuildingBlock: MIFKUJ_clean_linker_0, # of connection points: 2
#     Edge 55, Type (0, 1), BuildingBlock: MIFKUJ_clean_linker_0, # of connection points: 2
#     Edge 56, Type (0, 1), BuildingBlock: MIFKUJ_clean_linker_0, # of connection points: 2
#     Edge 57, Type (0, 1), BuildingBlock: MIFKUJ_clean_linker_0, # of connection points: 2
#     Edge 58, Type (0, 1), BuildingBlock: MIFKUJ_clean_linker_0, # of connection points: 2
#     Edge 59, Type (0, 1), BuildingBlock: MIFKUJ_clean_linker_0, # of connection points: 2
#     Edge 60, Type (0, 1), BuildingBlock: MIFKUJ_clean_linker_0, # of connection points: 2
#     Edge 61, Type (0, 1), BuildingBlock: MIFKUJ_clean_linker_0, # of connection points: 2
# Relax obj value: 0.096
# Max RMSD: 0.232
# Mean RMSD: 0.144
data_MOF--net-ocu--node1-CUKXOW_clean_sbu_0--node2-TAGTUT_clean_sbu_1--edge1-MIFKUJ_clean_linker_0
_symmetry_space_group_name_H-M    P1
_symmetry_Int_Tables_number       1
_symmetry_cell_setting            triclinic
loop_
_symmetry_equiv_pos_as_xyz
'x, y, z'
_cell_length_a     46.612513
_cell_length_b     46.984768
_cell_length_c     50.158443
_cell_angle_alpha  92.284696
_cell_angle_beta   93.935218
_cell_angle_gamma 98.547489
loop_
_atom_site_label
_atom_site_type_symbol
_atom_site_fract_x
_atom_site_fract_y
_atom_site_fract_z
_atom_type_partial_charge
Tb0 Tb 0.26097 0.21522 0.22318 0.0
C1 C 0.30353 0.27246 0.21047 0.0
Tb2 Tb 0.26544 0.27191 0.26174 0.0
O3 O 0.2279 0.22713 0.19329 0.0
O4 O 0.24435 0.25422 0.22523 0.0
O5 O 0.29582 0.24403 0.20563 0.0
C6 C 0.25647 0.3229 0.28105 0.0
O7 O 0.29285 0.28727 0.22974 0.0
C8 C 0.29827 0.23419 0.28106 0.0
C9 C 0.22335 0.2149 0.27473 0.0
O10 O 0.28177 0.3146 0.28017 0.0
O11 O 0.23619 0.30234 0.27135 0.0
O12 O 0.29638 0.25892 0.29294 0.0
O13 O 0.28237 0.23305 0.25956 0.0
O14 O 0.22947 0.24361 0.27808 0.0
O15 O 0.23521 0.19972 0.25646 0.0
C16 C 0.27171 0.16532 0.20268 0.0
O17 O 0.24606 0.17295 0.20314 0.0
O18 O 0.29128 0.18587 0.21356 0.0
C19 C 0.22696 0.25234 0.20465 0.0
Tb20 Tb 0.71858 0.24537 0.27322 0.0
C21 C 0.73705 0.20979 0.22392 0.0
Tb22 Tb 0.76917 0.27293 0.23962 0.0
O23 O 0.68228 0.25991 0.24893 0.0
O24 O 0.72407 0.27151 0.24023 0.0
O25 O 0.72293 0.20949 0.24603 0.0
C26 C 0.80132 0.3026 0.20592 0.0
O27 O 0.75416 0.23277 0.21628 0.0
C28 C 0.79024 0.24221 0.27801 0.0
C29 C 0.75274 0.30604 0.29024 0.0
O30 O 0.77984 0.28214 0.19887 0.0
O31 O 0.80404 0.30675 0.23172 0.0
O32 O 0.80541 0.25579 0.26043 0.0
O33 O 0.76433 0.24673 0.27299 0.0
O34 O 0.76017 0.30847 0.26527 0.0
O35 O 0.74021 0.28136 0.29909 0.0
C36 C 0.68513 0.21696 0.30694 0.0
O37 O 0.68706 0.24436 0.30342 0.0
O38 O 0.70276 0.20579 0.2921 0.0
C39 C 0.69846 0.27467 0.23277 0.0
Tb40 Tb 0.72741 0.74103 0.23592 0.0
C41 C 0.70456 0.67549 0.23853 0.0
Tb42 Tb 0.76425 0.70579 0.26776 0.0
O43 O 0.73549 0.71998 0.198 0.0
O44 O 0.7671 0.72444 0.22979 0.0
O45 O 0.69716 0.70126 0.23475 0.0
C46 C 0.8035 0.6723 0.28169 0.0
O47 O 0.7308 0.67204 0.24875 0.0
C48 C 0.73058 0.73289 0.29688 0.0
C49 C 0.78163 0.77242 0.27263 0.0
O50 O 0.77985 0.67387 0.29359 0.0
O51 O 0.80465 0.68923 0.262 0.0
O52 O 0.7551 0.72566 0.30608 0.0
O53 O 0.72475 0.72206 0.27331 0.0
O54 O 0.79158 0.74752 0.2741 0.0
O55 O 0.7558 0.77431 0.26077 0.0
C56 C 0.69399 0.77898 0.21936 0.0
O57 O 0.72141 0.78028 0.21567 0.0
O58 O 0.68524 0.75595 0.23166 0.0
C59 C 0.76022 0.71285 0.20647 0.0
Tb60 Tb 0.2796 0.77922 0.22936 0.0
C61 C 0.29277 0.76881 0.29056 0.0
Tb62 Tb 0.23567 0.73593 0.2588 0.0
O63 O 0.26804 0.81673 0.25122 0.0
O64 O 0.23848 0.77887 0.24577 0.0
O65 O 0.30345 0.77753 0.2679 0.0
C66 C 0.19258 0.719 0.28918 0.0
O67 O 0.26652 0.75382 0.29175 0.0
C68 C 0.27555 0.70994 0.23536 0.0
C69 C 0.22313 0.74496 0.19775 0.0
O70 O 0.21352 0.74015 0.29519 0.0
O71 O 0.19626 0.70662 0.26626 0.0
O72 O 0.25499 0.69634 0.24853 0.0
O73 O 0.2728 0.73603 0.23818 0.0
O74 O 0.21149 0.7394 0.22081 0.0
O75 O 0.25038 0.75782 0.19631 0.0
C76 C 0.32396 0.80029 0.20219 0.0
O77 O 0.2976 0.80614 0.19807 0.0
O78 O 0.32507 0.78252 0.2212 0.0
C79 C 0.24339 0.80335 0.25814 0.0
Tb80 Tb 0.23465 0.74381 0.76036 0.0
C81 C 0.25535 0.71889 0.70653 0.0
Tb82 Tb 0.28723 0.7774 0.73384 0.0
O83 O 0.19909 0.75988 0.73704 0.0
O84 O 0.24138 0.77468 0.7308 0.0
O85 O 0.24176 0.71319 0.72864 0.0
C86 C 0.32654 0.81398 0.71201 0.0
O87 O 0.27204 0.74376 0.70307 0.0
C88 C 0.30619 0.74215 0.76977 0.0
C89 C 0.26429 0.80391 0.78416 0.0
O90 O 0.30882 0.79339 0.69876 0.0
O91 O 0.32104 0.8146 0.73695 0.0
O92 O 0.3223 0.75828 0.75468 0.0
O93 O 0.28044 0.74613 0.76337 0.0
O94 O 0.27293 0.80936 0.76007 0.0
O95 O 0.25293 0.77764 0.79026 0.0
C96 C 0.19902 0.71134 0.78971 0.0
O97 O 0.20251 0.73923 0.78991 0.0
O98 O 0.21637 0.70162 0.77356 0.0
C99 C 0.21554 0.77733 0.72317 0.0
Tb100 Tb 0.23886 0.25531 0.73248 0.0
C101 C 0.22789 0.18872 0.73016 0.0
Tb102 Tb 0.28065 0.22546 0.76494 0.0
O103 O 0.25078 0.23611 0.69494 0.0
O104 O 0.28133 0.24474 0.72753 0.0
O105 O 0.21498 0.21195 0.72909 0.0
C106 C 0.32026 0.19446 0.78298 0.0
O107 O 0.25485 0.18972 0.7408 0.0
C108 C 0.24353 0.24821 0.79354 0.0
C109 C 0.29093 0.2923 0.76795 0.0
O110 O 0.29314 0.19053 0.78824 0.0
O111 O 0.32513 0.21586 0.76754 0.0
O112 O 0.26912 0.24391 0.80277 0.0
O113 O 0.23856 0.23659 0.77016 0.0
O114 O 0.30385 0.26908 0.76969 0.0
O115 O 0.26439 0.29132 0.75636 0.0
C116 C 0.1992 0.28682 0.71533 0.0
O117 O 0.22642 0.29121 0.71038 0.0
O118 O 0.1942 0.26446 0.72956 0.0
C119 C 0.27671 0.23292 0.70425 0.0
Tb120 Tb 0.76954 0.28118 0.72013 0.0
C121 C 0.77836 0.28239 0.78271 0.0
Tb122 Tb 0.72998 0.23743 0.75018 0.0
O123 O 0.75224 0.31874 0.73621 0.0
O124 O 0.72711 0.27816 0.73421 0.0
O125 O 0.79067 0.28877 0.76022 0.0
C126 C 0.68993 0.21124 0.77961 0.0
O127 O 0.75341 0.26479 0.78323 0.0
C128 C 0.7709 0.21542 0.72603 0.0
C129 C 0.72126 0.23564 0.68778 0.0
O130 O 0.71767 0.21058 0.78323 0.0
O131 O 0.68469 0.22637 0.75928 0.0
O132 O 0.74742 0.2002 0.73328 0.0
O133 O 0.77222 0.24074 0.73617 0.0
O134 O 0.70868 0.22938 0.71019 0.0
O135 O 0.74578 0.25391 0.6872 0.0
C136 C 0.81395 0.30368 0.69348 0.0
O137 O 0.78677 0.30493 0.68648 0.0
O138 O 0.8159 0.29007 0.71529 0.0
C139 C 0.72885 0.30374 0.74403 0.0
Tb140 Tb 0.76206 0.71669 0.72263 0.0
C141 C 0.80559 0.77246 0.71188 0.0
Tb142 Tb 0.76348 0.77136 0.75958 0.0
O143 O 0.74659 0.73806 0.68769 0.0
O144 O 0.73675 0.75113 0.72566 0.0
O145 O 0.80074 0.74376 0.70957 0.0
C146 C 0.75349 0.82274 0.77754 0.0
O147 O 0.79077 0.78728 0.72772 0.0
C148 C 0.79858 0.73661 0.78063 0.0
C149 C 0.72136 0.71483 0.77246 0.0
O150 O 0.77901 0.81562 0.77491 0.0
O151 O 0.73367 0.80077 0.77062 0.0
O152 O 0.79458 0.7609 0.79207 0.0
O153 O 0.78331 0.7343 0.75874 0.0
O154 O 0.72932 0.74305 0.77786 0.0
O155 O 0.73197 0.70053 0.75274 0.0
C156 C 0.76699 0.66459 0.70254 0.0
O157 O 0.74405 0.67711 0.69907 0.0
O158 O 0.78712 0.68152 0.71715 0.0
C159 C 0.73543 0.75729 0.70121 0.0
C160 C 0.93201 0.071 0.53682 0.0
C161 C 0.95033 0.07267 0.45433 0.0
C162 C 0.95576 0.95488 0.46265 0.0
Mg163 Mg 0.98924 0.07122 0.50759 0.0
O164 O 0.97902 0.0311 0.50847 0.0
Mg165 Mg 0.939 0.01427 0.493 0.0
Mg166 Mg 1.00378 0.00341 0.49319 0.0
O167 O 0.02887 0.97588 0.47797 0.0
Mg168 Mg 0.01939 0.93592 0.48124 0.0
Mg169 Mg 0.06902 0.99368 0.49278 0.0
C170 C 0.05275 0.05188 0.52388 0.0
C171 C 0.04719 0.03937 0.45113 0.0
O172 O 0.92074 0.04794 0.52257 0.0
O173 O 0.95863 0.08246 0.53546 0.0
O174 O 0.93753 0.04778 0.45991 0.0
O175 O 0.97258 0.08538 0.46892 0.0
O176 O 0.03581 0.07116 0.52082 0.0
O177 O 0.04415 0.02492 0.51797 0.0
C178 C 0.95953 0.96788 0.53503 0.0
O179 O 0.98559 0.9715 0.52698 0.0
O180 O 0.94024 0.98202 0.5252 0.0
O181 O 0.08696 0.96056 0.46309 0.0
O182 O 0.05039 0.92369 0.45388 0.0
O183 O 0.07166 0.96106 0.52655 0.0
C184 C 0.07621 0.93634 0.45052 0.0
O185 O 0.03566 0.92406 0.52115 0.0
O186 O 0.97304 0.93609 0.4671 0.0
C187 C 0.05874 0.93718 0.5343 0.0
O188 O 0.96365 0.98212 0.46794 0.0
O189 O 0.02139 0.03505 0.45958 0.0
O190 O 0.06735 0.02601 0.4604 0.0
C191 C 0.43639 0.03034 0.04327 0.0
C192 C 0.47535 0.05678 0.96997 0.0
C193 C 0.48808 0.9494 0.95178 0.0
Mg194 Mg 0.49923 0.04874 0.02712 0.0
O195 O 0.49562 0.00907 0.01852 0.0
Mg196 Mg 0.46114 0.99085 0.99457 0.0
Mg197 Mg 0.52586 0.99478 -0.00246 0.0
O198 O 0.55629 0.98093 0.97664 0.0
Mg199 Mg 0.55337 0.94154 0.96789 0.0
Mg200 Mg 0.59151 0.00041 -0.00064 0.0
C201 C 0.56354 0.03885 0.04446 0.0
C202 C 0.56044 0.04789 0.96791 0.0
O203 O 0.43299 0.0097 0.02523 0.0
O204 O 0.46033 0.04772 0.04783 0.0
O205 O 0.4619 0.03099 0.96994 0.0
O206 O 0.49268 0.0681 0.98964 0.0
O207 O 0.54289 0.05379 0.04745 0.0
O208 O 0.56051 0.01662 0.02826 0.0
C209 C 0.48965 0.9423 0.02643 0.0
O210 O 0.51511 0.95443 0.02132 0.0
O211 O 0.46632 0.95202 0.01858 0.0
O212 O 0.61892 0.98281 0.9671 0.0
O213 O 0.59077 0.94477 0.94518 0.0
O214 O 0.59365 0.96022 0.02364 0.0
C215 C 0.61453 0.96259 0.94857 0.0
O216 O 0.56235 0.92278 0.0051 0.0
O217 O 0.50887 0.93452 0.94938 0.0
C218 C 0.58077 0.93422 0.0239 0.0
O219 O 0.49156 0.97279 0.96657 0.0
O220 O 0.53572 0.03477 0.97372 0.0
O221 O 0.58452 0.03937 0.9754 0.0
C222 C 0.94156 0.5684 0.03432 0.0
C223 C 0.95648 0.56056 0.95057 0.0
C224 C 0.96171 0.44433 0.97343 0.0
Mg225 Mg 0.99723 0.56579 0.00367 0.0
O226 O 0.98845 0.52614 0.00743 0.0
Mg227 Mg 0.94791 0.50766 -0.00424 0.0
Mg228 Mg 0.01223 0.4963 0.9942 0.0
O229 O 0.03581 0.46653 0.98099 0.0
Mg230 Mg 0.02659 0.42714 0.98593 0.0
Mg231 Mg 0.07658 0.48498 0.9919 0.0
C232 C 0.06235 0.54829 0.0163 0.0
C233 C 0.04806 0.52225 0.94574 0.0
O234 O 0.93059 0.54428 0.02178 0.0
O235 O 0.96806 0.57988 0.0322 0.0
O236 O 0.94381 0.53632 0.95814 0.0
O237 O 0.97864 0.57466 0.96429 0.0
O238 O 0.04447 0.56662 0.01289 0.0
O239 O 0.05438 0.52076 0.01456 0.0
C240 C 0.97586 0.4705 0.04202 0.0
O241 O 1.00008 0.47239 0.03115 0.0
O242 O 0.95421 0.48178 0.03239 0.0
O243 O 0.09254 0.44805 0.96489 0.0
O244 O 0.0545 0.41247 0.95698 0.0
O245 O 0.08189 0.45598 0.02936 0.0
C246 C 0.08066 0.42371 0.9532 0.0
O247 O 0.04612 0.41843 0.02497 0.0
O248 O 0.97924 0.42581 0.97752 0.0
C249 C 0.06917 0.4321 0.03767 0.0
O250 O 0.97028 0.47174 0.97408 0.0
O251 O 0.024 0.51982 0.95693 0.0
O252 O 0.06997 0.51136 0.95536 0.0
C253 C 0.43909 0.57171 0.04213 0.0
C254 C 0.45609 0.5749 0.95828 0.0
C255 C 0.45516 0.45753 0.96291 0.0
Mg256 Mg 0.49573 0.57159 0.01113 0.0
O257 O 0.4836 0.53152 0.0109 0.0
Mg258 Mg 0.44279 0.51633 -0.00365 0.0
Mg259 Mg 0.50616 0.50279 0.99404 0.0
O260 O 0.52873 0.47395 0.97724 0.0
Mg261 Mg 0.51689 0.43402 0.97955 0.0
Mg262 Mg 0.56948 0.48941 0.99188 0.0
C263 C 0.55689 0.54707 0.02812 0.0
C264 C 0.5498 0.5368 0.95099 0.0
O265 O 0.42685 0.5494 0.02744 0.0
O266 O 0.46571 0.58286 0.04012 0.0
O267 O 0.44229 0.55077 0.96458 0.0
O268 O 0.47941 0.58665 0.97209 0.0
O269 O 0.54156 0.56789 0.02612 0.0
O270 O 0.54716 0.52135 0.01872 0.0
C271 C 0.46219 0.46795 0.03643 0.0
O272 O 0.48781 0.4707 0.02753 0.0
O273 O 0.44334 0.48309 0.02757 0.0
O274 O 0.5849 0.45609 0.96096 0.0
O275 O 0.54702 0.42054 0.95162 0.0
O276 O 0.57 0.45598 0.02471 0.0
C277 C 0.57303 0.43248 0.948 0.0
O278 O 0.53194 0.42108 0.01943 0.0
O279 O 0.47085 0.43715 0.96594 0.0
C280 C 0.55556 0.43292 0.03254 0.0
O281 O 0.46498 0.48412 0.96951 0.0
O282 O 0.52447 0.53459 0.96043 0.0
O283 O 0.56882 0.52183 0.95976 0.0
C284 C 0.93333 0.53701 0.53335 0.0
C285 C 0.97426 0.55748 0.45914 0.0
C286 C 0.98679 0.4503 0.44911 0.0
Mg287 Mg 0.99662 0.55324 0.51728 0.0
O288 O 0.99238 0.51283 0.51271 0.0
Mg289 Mg 0.95857 0.49374 0.4878 0.0
Mg290 Mg 0.02338 0.49717 0.49397 0.0
O291 O 0.05434 0.48211 0.47481 0.0
Mg292 Mg 0.05146 0.44247 0.46692 0.0
Mg293 Mg 0.08871 0.50189 0.49826 0.0
C294 C 0.06107 0.54545 0.53607 0.0
C295 C 0.05953 0.54885 0.46446 0.0
O296 O 0.92962 0.51515 0.51649 0.0
O297 O 0.95755 0.55413 0.53718 0.0
O298 O 0.96042 0.53205 0.46058 0.0
O299 O 0.99105 0.56997 0.47857 0.0
O300 O 0.0411 0.56158 0.5357 0.0
O301 O 0.05709 0.51991 0.52519 0.0
C302 C 0.98536 0.44602 0.52285 0.0
O303 O 0.01115 0.45774 0.51834 0.0
O304 O 0.96241 0.4558 0.51391 0.0
O305 O 0.11724 0.48289 0.46798 0.0
O306 O 0.0897 0.44504 0.4452 0.0
O307 O 0.08858 0.46244 0.52442 0.0
C308 C 0.1135 0.46269 0.44946 0.0
O309 O 0.05851 0.42471 0.50486 0.0
O310 O 1.00717 0.43473 0.448 0.0
C311 C 0.0753 0.43655 0.52463 0.0
O312 O 0.99047 0.47458 0.46242 0.0
O313 O 0.03453 0.53634 0.46992 0.0
O314 O 0.08333 0.54005 0.47234 0.0
C315 C 0.4446 0.06962 0.5379 0.0
C316 C 0.45108 0.05625 0.45286 0.0
C317 C 0.45759 0.94099 0.48211 0.0
Mg318 Mg 0.49657 0.064 0.50285 0.0
O319 O 0.4878 0.02487 0.50914 0.0
Mg320 Mg 0.44646 0.00629 0.50158 0.0
Mg321 Mg 0.50968 0.99365 0.49581 0.0
O322 O 0.53149 0.96245 0.48233 0.0
Mg323 Mg 0.52308 0.92425 0.49195 0.0
Mg324 Mg 0.57291 0.98135 0.48895 0.0
C325 C 0.56206 0.04645 0.51054 0.0
C326 C 0.53971 0.01532 0.44304 0.0
O327 O 0.43252 0.04477 0.52754 0.0
O328 O 0.47042 0.08066 0.53273 0.0
O329 O 0.43876 0.03274 0.46229 0.0
O330 O 0.47449 0.07042 0.46449 0.0
O331 O 0.54433 0.06502 0.50775 0.0
O332 O 0.55352 0.01912 0.5111 0.0
C333 C 0.47911 0.97307 0.54856 0.0
O334 O 0.502 0.97403 0.53569 0.0
O335 O 0.45645 0.98312 0.53941 0.0
O336 O 0.58603 0.94199 0.46335 0.0
O337 O 0.54904 0.90532 0.46337 0.0
O338 O 0.58184 0.95594 0.52817 0.0
C339 C 0.57396 0.91611 0.45577 0.0
O340 O 0.54476 0.92052 0.53114 0.0
O341 O 0.47549 0.92283 0.48631 0.0
C342 C 0.56938 0.93439 0.54033 0.0
O343 O 0.46601 0.96821 0.48031 0.0
O344 O 0.51716 0.01352 0.45637 0.0
O345 O 0.56259 0.00501 0.4512 0.0
H346 H 0.1793 0.23387 0.30135 0.0
H347 H 0.14636 0.20702 0.33099 0.0
H348 H 0.18909 0.13267 0.31989 0.0
H349 H 0.22156 0.15907 0.28977 0.0
H350 H 0.10659 0.15445 0.32136 0.0
H351 H 0.19214 0.10277 0.38643 0.0
H352 H 0.24274 0.11424 0.40598 0.0
H353 H 0.24057 0.20442 0.39715 0.0
H354 H 0.1897 0.19361 0.37837 0.0
H355 H 0.04079 0.03596 0.39615 0.0
H356 H 0.0672 0.0687 0.36592 0.0
H357 H 0.10298 0.12547 0.43358 0.0
H358 H 0.07682 0.09267 0.46359 0.0
H359 H 0.14509 0.11592 0.40485 0.0
H360 H 0.05233 0.14423 0.38539 0.0
H361 H 0.99972 0.13732 0.37223 0.0
H362 H 0.015 0.1013 0.29539 0.0
H363 H 0.0677 0.10757 0.30826 0.0
C364 C 0.18166 0.21178 0.30513 0.0
C365 C 0.20311 0.1987 0.29293 0.0
C366 C 0.16269 0.19637 0.32206 0.0
C367 C 0.16512 0.1677 0.32787 0.0
C368 C 0.18669 0.15471 0.31591 0.0
C369 C 0.20522 0.16987 0.29852 0.0
C370 C 0.14528 0.15139 0.34643 0.0
C371 C 0.11508 0.14592 0.33955 0.0
C372 C 0.15601 0.14063 0.37058 0.0
C373 C 0.18715 0.14729 0.38056 0.0
C374 C 0.20243 0.12505 0.38865 0.0
C375 C 0.23111 0.13146 0.39982 0.0
C376 C 0.24485 0.16005 0.40286 0.0
C377 C 0.22993 0.18228 0.39473 0.0
C378 C 0.20116 0.17601 0.38379 0.0
C379 C 0.05339 0.056 0.40438 0.0
C380 C 0.05601 0.06215 0.4322 0.0
C381 C 0.06874 0.07467 0.3871 0.0
C382 C 0.08729 0.09984 0.39726 0.0
C383 C 0.089 0.10635 0.42502 0.0
C384 C 0.07367 0.08776 0.4422 0.0
C385 C 0.10646 0.11827 0.3795 0.0
C386 C 0.13659 0.12416 0.38652 0.0
C387 C 0.0956 0.12978 0.35577 0.0
C388 C 0.06396 0.12611 0.34789 0.0
C389 C 0.04446 0.13462 0.36576 0.0
C390 C 0.01462 0.13085 0.35834 0.0
C391 C 1.00402 0.11882 0.33301 0.0
C392 C 0.02325 0.11059 0.31502 0.0
C393 C 0.05311 0.11426 0.32236 0.0
H394 H 0.98091 0.11592 0.3273 0.0
H395 H 0.2671 0.16495 0.41137 0.0
H396 H 0.84533 0.23133 0.28162 0.0
H397 H 0.86864 0.20112 0.31178 0.0
H398 H 0.78881 0.18027 0.35016 0.0
H399 H 0.76475 0.21089 0.31923 0.0
H400 H 0.84143 0.19283 0.38715 0.0
H401 H 0.80568 0.1309 0.31046 0.0
H402 H 0.79737 0.11726 0.26226 0.0
H403 H 0.88955 0.12547 0.25563 0.0
H404 H 0.89845 0.13962 0.30372 0.0
H405 H 0.90575 0.05144 0.4167 0.0
H406 H 0.87632 0.07852 0.38792 0.0
H407 H 0.93107 0.15768 0.41572 0.0
H408 H 0.96061 0.13071 0.44474 0.0
H409 H 0.88489 0.11241 0.34715 0.0
H410 H 0.88885 0.21208 0.41966 0.0
H411 H 0.89543 0.22439 0.46821 0.0
H412 H 0.86245 0.13699 0.48429 0.0
H413 H 0.85528 0.12426 0.43586 0.0
C414 C 0.83245 0.22038 0.29639 0.0
C415 C 0.80295 0.22349 0.29774 0.0
C416 C 0.84598 0.20301 0.31373 0.0
C417 C 0.83064 0.18808 0.33326 0.0
C418 C 0.80122 0.19151 0.33526 0.0
C419 C 0.78741 0.20891 0.31751 0.0
C420 C 0.84576 0.16862 0.35072 0.0
C421 C 0.85078 0.17516 0.37841 0.0
C422 C 0.85797 0.14532 0.33956 0.0
C423 C 0.85273 0.13652 0.31068 0.0
C424 C 0.82419 0.13 0.29869 0.0
C425 C 0.81937 0.12215 0.27139 0.0
C426 C 0.84292 0.12055 0.25589 0.0
C427 C 0.87134 0.12673 0.26767 0.0
C428 C 0.87628 0.13464 0.29495 0.0
C429 C 0.91191 0.07458 0.41647 0.0
C430 C 0.93574 0.08873 0.43326 0.0
C431 C 0.8949 0.09013 0.39995 0.0
C432 C 0.9009 0.12037 0.39985 0.0
C433 C 0.92546 0.13447 0.41567 0.0
C434 C 0.94263 0.1189 0.43211 0.0
C435 C 0.88122 0.13697 0.38357 0.0
C436 C 0.87545 0.12996 0.35601 0.0
C437 C 0.86813 0.15961 0.39494 0.0
C438 C 0.87179 0.16718 0.42411 0.0
C439 C 0.88287 0.19553 0.43355 0.0
C440 C 0.88672 0.20257 0.46105 0.0
C441 C 0.87944 0.18147 0.47932 0.0
C442 C 0.86817 0.1533 0.47012 0.0
C443 C 0.86423 0.14615 0.44265 0.0
H444 H 0.88246 0.18695 0.50059 0.0
H445 H 0.83914 0.11447 0.23475 0.0
H446 H 0.834 0.77683 0.30181 0.0
H447 H 0.8577 0.81716 0.33134 0.0
H448 H 0.78987 0.86652 0.3081 0.0
H449 H 0.76563 0.82599 0.27883 0.0
H450 H 0.88104 0.86975 0.32419 0.0
H451 H 0.77705 0.9069 0.35408 0.0
H452 H 0.72712 0.8892 0.366 0.0
H453 H 0.75523 0.81177 0.39377 0.0
H454 H 0.80471 0.82849 0.38092 0.0
H455 H 0.92322 0.98598 0.43055 0.0
H456 H 0.88663 0.96566 0.39457 0.0
H457 H 0.89061 0.88037 0.42176 0.0
H458 H 0.92655 0.90026 0.4578 0.0
H459 H 0.82899 0.90741 0.39779 0.0
H460 H 0.92461 0.86058 0.36186 0.0
H461 H 0.978 0.87258 0.36179 0.0
H462 H 0.97066 0.96224 0.35642 0.0
H463 H 0.91722 0.95067 0.35604 0.0
C464 C 0.82423 0.79633 0.30271 0.0
C465 C 0.79791 0.79811 0.2879 0.0
C466 C 0.83781 0.81942 0.31965 0.0
C467 C 0.82542 0.8448 0.32219 0.0
C468 C 0.7996 0.84701 0.30683 0.0
C469 C 0.78594 0.82387 0.28988 0.0
C470 C 0.83963 0.86859 0.34118 0.0
C471 C 0.86948 0.87828 0.34 0.0
C472 C 0.82469 0.88013 0.36172 0.0
C473 C 0.79428 0.86869 0.36621 0.0
C474 C 0.77229 0.88585 0.36223 0.0
C475 C 0.74408 0.87599 0.36911 0.0
C476 C 0.73787 0.84925 0.38042 0.0
C477 C 0.75978 0.83219 0.38452 0.0
C478 C 0.78783 0.84171 0.37722 0.0
C479 C 0.91545 0.96303 0.42948 0.0
C480 C 0.9281 0.94462 0.44671 0.0
C481 C 0.89472 0.95149 0.40883 0.0
C482 C 0.88656 0.92156 0.40536 0.0
C483 C 0.89697 0.90353 0.42409 0.0
C484 C 0.91749 0.91495 0.44466 0.0
C485 C 0.87013 0.90815 0.38077 0.0
C486 C 0.84006 0.90008 0.38106 0.0
C487 C 0.88496 0.89768 0.3597 0.0
C488 C 0.91699 0.90479 0.35918 0.0
C489 C 0.93441 0.88283 0.36053 0.0
C490 C 0.96467 0.88955 0.36058 0.0
C491 C 0.97772 0.91816 0.35917 0.0
C492 C 0.96053 0.94009 0.3576 0.0
C493 C 0.93026 0.93347 0.35752 0.0
H494 H 1.00115 0.92333 0.35927 0.0
H495 H 0.71617 0.84188 0.38616 0.0
H496 H 0.25264 0.85752 0.28111 0.0
H497 H 0.22298 0.87996 0.31143 0.0
H498 H 0.16094 0.80175 0.30727 0.0
H499 H 0.18944 0.78019 0.27454 0.0
H500 H 0.1326 0.84544 0.31049 0.0
H501 H 0.21844 0.82359 0.35943 0.0
H502 H 0.27158 0.82617 0.36531 0.0
H503 H 0.28126 0.91792 0.37975 0.0
H504 H 0.22817 0.91612 0.37234 0.0
H505 H 0.06428 0.88185 0.42666 0.0
H506 H 0.09161 0.85917 0.39431 0.0
H507 H 0.15492 0.93631 0.39693 0.0
H508 H 0.128 0.95893 0.43012 0.0
H509 H 0.18237 0.89216 0.39512 0.0
H510 H 0.10005 0.91623 0.34332 0.0
H511 H 0.04794 0.91716 0.33166 0.0
H512 H 0.0326 0.8248 0.32217 0.0
H513 H 0.08459 0.82329 0.33412 0.0
C514 C 0.2326 0.84505 0.28648 0.0
C515 C 0.22401 0.81658 0.27602 0.0
C516 C 0.21566 0.85791 0.30411 0.0
C517 C 0.19009 0.84236 0.31278 0.0
C518 C 0.18078 0.81423 0.30148 0.0
C519 C 0.19737 0.80164 0.28306 0.0
C520 C 0.17362 0.85534 0.33389 0.0
C521 C 0.14349 0.85522 0.32915 0.0
C522 C 0.18766 0.86897 0.35818 0.0
C523 C 0.21929 0.86974 0.36499 0.0
C524 C 0.23187 0.84433 0.36383 0.0
C525 C 0.26204 0.84569 0.3673 0.0
C526 C 0.27983 0.87223 0.37287 0.0
C527 C 0.26745 0.89742 0.37528 0.0
C528 C 0.23732 0.89625 0.3713 0.0
C529 C 0.08403 0.89412 0.42045 0.0
C530 C 0.09371 0.92244 0.43109 0.0
C531 C 0.09964 0.88108 0.40168 0.0
C532 C 0.1252 0.89605 0.39248 0.0
C533 C 0.13526 0.92416 0.40344 0.0
C534 C 0.11977 0.93716 0.42248 0.0
C535 C 0.14141 0.88236 0.37165 0.0
C536 C 0.17147 0.88227 0.37651 0.0
C537 C 0.12737 0.86881 0.34738 0.0
C538 C 0.09617 0.86964 0.33986 0.0
C539 C 0.08553 0.89611 0.33891 0.0
C540 C 0.05602 0.89674 0.33223 0.0
C541 C 0.03696 0.87105 0.32626 0.0
C542 C 0.04739 0.84468 0.32685 0.0
C543 C 0.07688 0.84392 0.33354 0.0
H544 H 0.01412 0.87159 0.3211 0.0
H545 H 0.30321 0.87335 0.37522 0.0
H546 H 0.16192 0.76669 0.69802 0.0
H547 H 0.1386 0.79518 0.66601 0.0
H548 H 0.21769 0.85598 0.66734 0.0
H549 H 0.24159 0.82686 0.69977 0.0
H550 H 0.16685 0.88259 0.67211 0.0
H551 H 0.1978 0.81322 0.61308 0.0
H552 H 0.20425 0.76418 0.59793 0.0
H553 H 0.11159 0.73918 0.58809 0.0
H554 H 0.10454 0.78799 0.60366 0.0
H555 H 0.11008 0.95754 0.56383 0.0
H556 H 0.13792 0.9324 0.59551 0.0
H557 H 0.06972 0.85911 0.58788 0.0
H558 H 0.04186 0.88408 0.55545 0.0
H559 H 0.11863 0.83996 0.58542 0.0
H560 H 0.08729 0.90581 0.64969 0.0
H561 H 0.08011 0.95219 0.67119 0.0
H562 H 0.17173 0.98248 0.67291 0.0
H563 H 0.17956 0.93624 0.65168 0.0
C564 C 0.17465 0.78594 0.69134 0.0
C565 C 0.20377 0.79433 0.70145 0.0
C566 C 0.16117 0.80228 0.67291 0.0
C567 C 0.17621 0.82781 0.66394 0.0
C568 C 0.2055 0.83635 0.67383 0.0
C569 C 0.21927 0.81961 0.69221 0.0
C570 C 0.16063 0.8454 0.64483 0.0
C571 C 0.15684 0.8735 0.65288 0.0
C572 C 0.14659 0.83336 0.62004 0.0
C573 C 0.15065 0.80424 0.60977 0.0
C574 C 0.17878 0.79725 0.60781 0.0
C575 C 0.18255 0.76949 0.59915 0.0
C576 C 0.15835 0.74857 0.59216 0.0
C577 C 0.13031 0.75542 0.59358 0.0
C578 C 0.12641 0.78315 0.60229 0.0
C579 C 0.10061 0.93622 0.56908 0.0
C580 C 0.07345 0.92303 0.55683 0.0
C581 C 0.11669 0.92179 0.58749 0.0
C582 C 0.10615 0.89367 0.59458 0.0
C583 C 0.07864 0.8807 0.58293 0.0
C584 C 0.06252 0.89515 0.56441 0.0
C585 C 0.12448 0.87731 0.61274 0.0
C586 C 0.12877 0.84931 0.60451 0.0
C587 C 0.13883 0.88939 0.63747 0.0
C588 C 0.13397 0.91768 0.64891 0.0
C589 C 0.10587 0.92244 0.65448 0.0
C590 C 0.10172 0.94857 0.66685 0.0
C591 C 0.12544 0.97016 0.67352 0.0
C592 C 0.15339 0.9657 0.66782 0.0
C593 C 0.15772 0.9395 0.65573 0.0
H594 H 0.12213 0.99043 0.68293 0.0
H595 H 0.16137 0.72707 0.58568 0.0
H596 H 0.25463 0.14636 0.70851 0.0
H597 H 0.23449 0.11258 0.67119 0.0
H598 H 0.15011 0.13817 0.67802 0.0
H599 H 0.17034 0.17309 0.71439 0.0
H600 H 0.15186 0.0753 0.66542 0.0
H601 H 0.18327 0.17309 0.63949 0.0
H602 H 0.21679 0.21776 0.63356 0.0
H603 H 0.27239 0.16934 0.59162 0.0
H604 H 0.2395 0.12426 0.59792 0.0
H605 H 0.07756 0.10615 0.54171 0.0
H606 H 0.11958 0.11889 0.57361 0.0
H607 H 0.13728 0.03141 0.56822 0.0
H608 H 0.09436 0.01801 0.53707 0.0
H609 H 0.1791 0.11487 0.57877 0.0
H610 H 0.14323 0.01293 0.61718 0.0
H611 H 0.10026 0.97503 0.61577 0.0
H612 H 0.04555 0.03911 0.62978 0.0
H613 H 0.08811 0.07747 0.63031 0.0
C614 C 0.23159 0.14423 0.7026 0.0
C615 C 0.21413 0.16276 0.714 0.0
C616 C 0.2202 0.12498 0.68123 0.0
C617 C 0.19099 0.12325 0.67179 0.0
C618 C 0.17278 0.13936 0.68509 0.0
C619 C 0.18434 0.15927 0.70584 0.0
C620 C 0.18 0.1076 0.64623 0.0
C621 C 0.15844 0.08341 0.64646 0.0
C622 C 0.18831 0.11849 0.62152 0.0
C623 C 0.20932 0.14522 0.61978 0.0
C624 C 0.203 0.17187 0.62959 0.0
C625 C 0.22174 0.19732 0.62594 0.0
C626 C 0.24675 0.1964 0.61226 0.0
C627 C 0.25305 0.17003 0.60225 0.0
C628 C 0.23445 0.14451 0.60598 0.0
C629 C 0.09063 0.08964 0.54681 0.0
C630 C 0.08207 0.06086 0.53739 0.0
C631 C 0.11481 0.09704 0.56495 0.0
C632 C 0.131 0.07589 0.57377 0.0
C633 C 0.12453 0.04784 0.56215 0.0
C634 C 0.10006 0.04029 0.54421 0.0
C635 C 0.15113 0.08264 0.59796 0.0
C636 C 0.17403 0.10552 0.59764 0.0
C637 C 0.14385 0.07087 0.62256 0.0
C638 C 0.11872 0.0479 0.62391 0.0
C639 C 0.12203 0.01885 0.6201 0.0
C640 C 0.09774 0.99734 0.61922 0.0
C641 C 0.07022 0.00461 0.62283 0.0
C642 C 0.06688 0.03348 0.62708 0.0
C643 C 0.09103 0.05512 0.62752 0.0
H644 H 0.05149 0.98787 0.62229 0.0
H645 H 0.26125 0.21611 0.60946 0.0
H646 H 0.79774 0.24111 0.68359 0.0
H647 H 0.82285 0.21789 0.64945 0.0
H648 H 0.81587 0.14068 0.69393 0.0
H649 H 0.78845 0.16307 0.7265 0.0
H650 H 0.86745 0.19834 0.64227 0.0
H651 H 0.81407 0.07892 0.65497 0.0
H652 H 0.76812 0.05292 0.66898 0.0
H653 H 0.72506 0.12529 0.65128 0.0
H654 H 0.77028 0.15119 0.63564 0.0
H655 H 0.95137 0.10597 0.58123 0.0
H656 H 0.92356 0.13143 0.61098 0.0
H657 H 0.84427 0.09607 0.56412 0.0
H658 H 0.87219 0.0692 0.53491 0.0
H659 H 0.83121 0.0971 0.61111 0.0
H660 H 0.88027 0.17078 0.56295 0.0
H661 H 0.9205 0.20075 0.54301 0.0
H662 H 0.96204 0.22538 0.62127 0.0
H663 H 0.92228 0.19528 0.64171 0.0
C664 C 0.80171 0.21928 0.68615 0.0
C665 C 0.7909 0.20393 0.70775 0.0
C666 C 0.81614 0.20586 0.66651 0.0
C667 C 0.82073 0.17692 0.66829 0.0
C668 C 0.81172 0.16246 0.69106 0.0
C669 C 0.79637 0.17547 0.71004 0.0
C670 C 0.83454 0.16178 0.64644 0.0
C671 C 0.8594 0.1762 0.63556 0.0
C672 C 0.82366 0.13312 0.63643 0.0
C673 C 0.79581 0.11719 0.64445 0.0
C674 C 0.79473 0.08919 0.65368 0.0
C675 C 0.76876 0.07442 0.66182 0.0
C676 C 0.74371 0.08747 0.661 0.0
C677 C 0.74448 0.1152 0.65176 0.0
C678 C 0.77024 0.12987 0.6431 0.0
C679 C 0.92799 0.10349 0.57719 0.0
C680 C 0.91414 0.08548 0.55547 0.0
C681 C 0.912 0.11842 0.59418 0.0
C682 C 0.88162 0.11661 0.58969 0.0
C683 C 0.86762 0.09819 0.56822 0.0
C684 C 0.88363 0.08273 0.55144 0.0
C685 C 0.86471 0.13332 0.6078 0.0
C686 C 0.83918 0.11926 0.61784 0.0
C687 C 0.87412 0.16273 0.61607 0.0
C688 C 0.8984 0.1805 0.60386 0.0
C689 C 0.89811 0.18236 0.57591 0.0
C690 C 0.92081 0.19942 0.56452 0.0
C691 C 0.94385 0.21486 0.58086 0.0
C692 C 0.94421 0.21335 0.60864 0.0
C693 C 0.92158 0.19631 0.62014 0.0
H694 H 0.96143 0.22801 0.57202 0.0
H695 H 0.72367 0.07609 0.66748 0.0
H696 H 0.83256 0.82835 0.72047 0.0
H697 H 0.8641 0.85734 0.69146 0.0
H698 H 0.8582 0.78431 0.63554 0.0
H699 H 0.82691 0.75491 0.6648 0.0
H700 H 0.9184 0.85269 0.66942 0.0
H701 H 0.84911 0.81207 0.57269 0.0
H702 H 0.79879 0.78955 0.55854 0.0
H703 H 0.76763 0.83119 0.6262 0.0
H704 H 0.81767 0.85427 0.64047 0.0
H705 H 0.98661 0.92338 0.55659 0.0
H706 H 0.96582 0.88656 0.58663 0.0
H707 H 0.88873 0.92686 0.58884 0.0
H708 H 0.9089 0.96305 0.55959 0.0
H709 H 0.87285 0.87067 0.58063 0.0
H710 H 0.94098 0.93372 0.64199 0.0
H711 H 0.98975 0.9588 0.65811 0.0
H712 H 0.02088 0.87756 0.66391 0.0
H713 H 0.97231 0.85199 0.64753 0.0
C714 C 0.83823 0.81824 0.70218 0.0
C715 C 0.82702 0.78916 0.69508 0.0
C716 C 0.85649 0.83489 0.68562 0.0
C717 C 0.86369 0.8232 0.66117 0.0
C718 C 0.85309 0.79396 0.65427 0.0
C719 C 0.83518 0.7771 0.67108 0.0
C720 C 0.88019 0.84227 0.64214 0.0
C721 C 0.90855 0.85634 0.64988 0.0
C722 C 0.86744 0.84757 0.61671 0.0
C723 C 0.83716 0.83461 0.60777 0.0
C724 C 0.83149 0.81653 0.58444 0.0
C725 C 0.80303 0.80365 0.57642 0.0
C726 C 0.78005 0.80886 0.59152 0.0
C727 C 0.78545 0.8271 0.61457 0.0
C728 C 0.81386 0.84006 0.62264 0.0
C729 C 0.96539 0.92453 0.56371 0.0
C730 C 0.94957 0.94636 0.5553 0.0
C731 C 0.9534 0.90336 0.58088 0.0
C732 C 0.92536 0.90356 0.58999 0.0
C733 C 0.91009 0.9257 0.582 0.0
C734 C 0.92193 0.94666 0.56516 0.0
C735 C 0.91127 0.88116 0.60775 0.0
C736 C 0.88312 0.86655 0.59986 0.0
C737 C 0.9241 0.87572 0.63315 0.0
C738 C 0.95313 0.89098 0.6433 0.0
C739 C 0.95828 0.92122 0.64655 0.0
C740 C 0.98586 0.93552 0.65576 0.0
C741 C 1.00839 0.91977 0.66197 0.0
C742 C 1.00339 0.8897 0.65906 0.0
C743 C 0.97584 0.8753 0.64985 0.0
H744 H 0.02968 0.93086 0.66915 0.0
H745 H 0.75805 0.7988 0.58532 0.0
H746 H 0.23602 0.12843 0.16725 0.0
H747 H 0.24992 0.0891 0.13963 0.0
H748 H 0.33574 0.10384 0.18051 0.0
H749 H 0.3221 0.14321 0.20777 0.0
H750 H 0.29354 0.10062 0.10595 0.0
H751 H 0.36392 0.04233 0.18123 0.0
H752 H 0.36067 0.02397 0.22644 0.0
H753 H 0.26759 0.01716 0.21771 0.0
H754 H 0.2702 0.03504 0.17228 0.0
H755 H 0.42921 0.07919 0.07124 0.0
H756 H 0.38792 0.08754 0.09615 0.0
H757 H 0.34629 0.00036 0.07618 0.0
H758 H 0.38764 0.99176 0.05065 0.0
H759 H 0.349 0.02318 0.13417 0.0
H760 H 0.3151 0.04149 0.0457 0.0
H761 H 0.3196 0.06089 0.00097 0.0
H762 H 0.33836 0.14699 0.03631 0.0
H763 H 0.33444 0.12809 0.08129 0.0
C764 C 0.2576 0.12274 0.17071 0.0
C765 C 0.27817 0.1389 0.18933 0.0
C766 C 0.26546 0.1003 0.155 0.0
C767 C 0.29375 0.09347 0.15819 0.0
C768 C 0.31365 0.10847 0.17803 0.0
C769 C 0.30595 0.1311 0.19342 0.0
C770 C 0.3044 0.07434 0.13828 0.0
C771 C 0.30505 0.08318 0.11193 0.0
C772 C 0.31898 0.05131 0.14606 0.0
C773 C 0.31729 0.04011 0.17329 0.0
C774 C 0.34273 0.0367 0.18883 0.0
C775 C 0.341 0.02643 0.21454 0.0
C776 C 0.31395 0.01943 0.22495 0.0
C777 C 0.28855 0.02265 0.20965 0.0
C778 C 0.29014 0.0329 0.18393 0.0
C779 C 0.41138 0.0617 0.07216 0.0
C780 C 0.41164 0.03484 0.05893 0.0
C781 C 0.38779 0.06655 0.08632 0.0
C782 C 0.36414 0.0446 0.08774 0.0
C783 C 0.36442 0.01752 0.07512 0.0
C784 C 0.38794 0.01273 0.06054 0.0
C785 C 0.33938 0.05075 0.10259 0.0
C786 C 0.33636 0.03969 0.12795 0.0
C787 C 0.32253 0.07173 0.09395 0.0
C788 C 0.32451 0.08333 0.0669 0.0
C789 C 0.32034 0.06455 0.04395 0.0
C790 C 0.32277 0.07546 0.01854 0.0
C791 C 0.32926 0.10515 0.0158 0.0
C792 C 0.33329 0.124 0.03846 0.0
C793 C 0.3309 0.11319 0.06392 0.0
H794 H 0.33116 0.11356 -0.00389 0.0
H795 H 0.31266 0.01151 0.24487 0.0
H796 H 0.8014 0.29267 0.1521 0.0
H797 H 0.83866 0.31333 0.12316 0.0
H798 H 0.88564 0.36263 0.19119 0.0
H799 H 0.84877 0.34202 0.22006 0.0
H800 H 0.85269 0.36918 0.11382 0.0
H801 H 0.95787 0.36998 0.18429 0.0
H802 H 0.97707 0.33908 0.21762 0.0
H803 H 0.9214 0.26503 0.18055 0.0
H804 H 0.90217 0.29537 0.14674 0.0
H805 H 0.94956 0.48295 0.08627 0.0
H806 H 0.92809 0.44782 0.11661 0.0
H807 H 0.96798 0.38174 0.07776 0.0
H808 H 0.99046 0.41724 0.0479 0.0
H809 H 0.95922 0.37338 0.13337 0.0
H810 H 0.90593 0.39122 0.05102 0.0
H811 H 0.88625 0.42238 0.0181 0.0
H812 H 0.83698 0.45624 0.07769 0.0
H813 H 0.85663 0.42571 0.11112 0.0
C814 C 0.81971 0.30795 0.16075 0.0
C815 C 0.82231 0.31597 0.18813 0.0
C816 C 0.84098 0.3195 0.14433 0.0
C817 C 0.86508 0.33896 0.15524 0.0
C818 C 0.86754 0.34706 0.18259 0.0
C819 C 0.84631 0.3356 0.19894 0.0
C820 C 0.88634 0.35316 0.13782 0.0
C821 C 0.87596 0.36974 0.11781 0.0
C822 C 0.91663 0.35355 0.14301 0.0
C823 C 0.92846 0.33503 0.16304 0.0
C824 C 0.94986 0.34708 0.18312 0.0
C825 C 0.96071 0.32966 0.20214 0.0
C826 C 0.95042 0.30012 0.20124 0.0
C827 C 0.92929 0.28793 0.18128 0.0
C828 C 0.91838 0.30524 0.1622 0.0
C829 C 0.95472 0.46121 0.08504 0.0
C830 C 0.97115 0.45245 0.06473 0.0
C831 C 0.94251 0.44124 0.10228 0.0
C832 C 0.9459 0.41221 0.09875 0.0
C833 C 0.96509 0.40409 0.08055 0.0
C834 C 0.97787 0.42431 0.06358 0.0
C835 C 0.92541 0.3902 0.11039 0.0
C836 C 0.93593 0.37222 0.1291 0.0
C837 C 0.89512 0.38826 0.10392 0.0
C838 C 0.88287 0.40624 0.08362 0.0
C839 C 0.89101 0.4054 0.05714 0.0
C840 C 0.87988 0.42295 0.03839 0.0
C841 C 0.86044 0.44126 0.04579 0.0
C842 C 0.85203 0.44204 0.07197 0.0
C843 C 0.86313 0.4246 0.09083 0.0
H844 H 0.85187 0.45481 0.03121 0.0
H845 H 0.95884 0.28668 0.21599 0.0
H846 H 0.71082 0.8294 0.19645 0.0
H847 H 0.67926 0.85972 0.17425 0.0
H848 H 0.60362 0.80477 0.19797 0.0
H849 H 0.63527 0.77445 0.22057 0.0
H850 H 0.60674 0.80804 0.14304 0.0
H851 H 0.60955 0.87451 0.21797 0.0
H852 H 0.63157 0.9065 0.25655 0.0
H853 H 0.68636 0.9569 0.20494 0.0
H854 H 0.66483 0.92516 0.16613 0.0
H855 H 0.54604 0.88771 0.04127 0.0
H856 H 0.55273 0.86425 0.0833 0.0
H857 H 0.63623 0.91793 0.10008 0.0
H858 H 0.62796 0.94361 0.0598 0.0
H859 H 0.61279 0.91423 0.14307 0.0
H860 H 0.62289 0.84152 0.07269 0.0
H861 H 0.60536 0.80939 0.03293 0.0
H862 H 0.5331 0.77022 0.07425 0.0
H863 H 0.55012 0.80231 0.11417 0.0
C864 C 0.6875 0.82421 0.19745 0.0
C865 C 0.67533 0.79941 0.20966 0.0
C866 C 0.66951 0.8417 0.18508 0.0
C867 C 0.63915 0.8345 0.18465 0.0
C868 C 0.62702 0.81072 0.19832 0.0
C869 C 0.64506 0.79338 0.21099 0.0
C870 C 0.62092 0.84831 0.1655 0.0
C871 C 0.60726 0.83123 0.14333 0.0
C872 C 0.6222 0.87849 0.1658 0.0
C873 C 0.6356 0.89738 0.18916 0.0
C874 C 0.62646 0.89228 0.2149 0.0
C875 C 0.63881 0.91041 0.2368 0.0
C876 C 0.66042 0.93363 0.23322 0.0
C877 C 0.66966 0.93886 0.20771 0.0
C878 C 0.65733 0.92086 0.18575 0.0
C879 C 0.5657 0.89461 0.0541 0.0
C880 C 0.58629 0.91773 0.04752 0.0
C881 C 0.56962 0.88103 0.07803 0.0
C882 C 0.59509 0.88915 0.09489 0.0
C883 C 0.61613 0.91159 0.08772 0.0
C884 C 0.61157 0.92604 0.06451 0.0
C885 C 0.60066 0.87417 0.11972 0.0
C886 C 0.61155 0.89101 0.14303 0.0
C887 C 0.59771 0.84376 0.12017 0.0
C888 C 0.58756 0.8245 0.09623 0.0
C889 C 0.60319 0.82614 0.07321 0.0
C890 C 0.59336 0.80794 0.05067 0.0
C891 C 0.56808 0.78784 0.05103 0.0
C892 C 0.55263 0.78584 0.07397 0.0
C893 C 0.56236 0.80401 0.09656 0.0
H894 H 0.56051 0.77378 0.03356 0.0
H895 H 0.66996 0.94762 0.2502 0.0
H896 H 0.16929 0.71237 0.19308 0.0
H897 H 0.1472 0.68245 0.15419 0.0
H898 H 0.21564 0.7198 0.10699 0.0
H899 H 0.23853 0.74967 0.14606 0.0
H900 H 0.14487 0.70037 0.08411 0.0
H901 H 0.23475 0.67146 0.12706 0.0
H902 H 0.26171 0.66594 0.1698 0.0
H903 H 0.19081 0.60492 0.1926 0.0
H904 H 0.16272 0.61106 0.15022 0.0
H905 H 0.10226 0.58472 0.99263 0.0
H906 H 0.13876 0.62099 0.01745 0.0
H907 H 0.12199 0.57735 0.09024 0.0
H908 H 0.08658 0.54088 0.06521 0.0
H909 H 0.17302 0.60357 0.09637 0.0
H910 H 0.08221 0.62865 0.06601 0.0
H911 H 0.04096 0.63894 0.03646 0.0
H912 H 0.097 0.7061 0.00169 0.0
H913 H 0.13885 0.6956 0.03048 0.0
C914 C 0.17934 0.71496 0.17431 0.0
C915 C 0.20608 0.73297 0.17285 0.0
C916 C 0.16653 0.6979 0.15207 0.0
C917 C 0.18005 0.69882 0.12799 0.0
C918 C 0.20499 0.71894 0.12553 0.0
C919 C 0.21808 0.73584 0.14792 0.0
C920 C 0.17104 0.67528 0.10749 0.0
C921 C 0.1516 0.67936 0.08606 0.0
C922 C 0.17869 0.64767 0.11136 0.0
C923 C 0.19655 0.64197 0.13561 0.0
C924 C 0.22476 0.65711 0.1413 0.0
C925 C 0.24018 0.65402 0.16559 0.0
C926 C 0.22797 0.63529 0.18412 0.0
C927 C 0.20023 0.61952 0.1783 0.0
C928 C 0.18451 0.62285 0.15415 0.0
C929 C 0.10762 0.5823 0.01368 0.0
C930 C 0.09168 0.56044 0.02719 0.0
C931 C 0.12813 0.60311 0.0279 0.0
C932 C 0.13224 0.60254 0.05587 0.0
C933 C 0.11902 0.57848 0.06871 0.0
C934 C 0.09895 0.55743 0.05438 0.0
C935 C 0.14675 0.62838 0.0722 0.0
C936 C 0.16706 0.62472 0.0933 0.0
C937 C 0.13847 0.65606 0.06886 0.0
C938 C 0.11383 0.66096 0.05007 0.0
C939 C 0.0859 0.64523 0.0517 0.0
C940 C 0.06236 0.6512 0.03518 0.0
C941 C 0.06633 0.67322 0.01727 0.0
C942 C 0.09394 0.6891 0.01563 0.0
C943 C 0.11762 0.68301 0.03191 0.0
H944 H 0.04806 0.6779 0.00458 0.0
H945 H 0.24009 0.63277 0.20284 0.0
H946 H 0.29178 0.8587 0.77934 0.0
H947 H 0.31822 0.89012 0.81522 0.0
H948 H 0.28083 0.83347 0.87352 0.0
H949 H 0.25497 0.80107 0.83749 0.0
H950 H 0.3173 0.92004 0.86094 0.0
H951 H 0.33533 0.81708 0.91398 0.0
H952 H 0.32982 0.76454 0.90387 0.0
H953 H 0.34304 0.77938 0.82135 0.0
H954 H 0.34914 0.83171 0.83109 0.0
H955 H 0.43445 0.96525 0.96014 0.0
H956 H 0.38754 0.94479 0.93822 0.0
H957 H 0.42953 0.88942 0.88794 0.0
H958 H 0.47642 0.90854 0.91102 0.0
H959 H 0.38454 0.85984 0.90376 0.0
H960 H 0.40448 0.95369 0.86721 0.0
H961 H 0.41579 0.00677 0.86994 0.0
H962 H 0.33641 0.012 0.90725 0.0
H963 H 0.32485 0.95892 0.90511 0.0
C964 C 0.28843 0.85322 0.79979 0.0
C965 C 0.27219 0.82679 0.80557 0.0
C966 C 0.30339 0.87147 0.82036 0.0
C967 C 0.30216 0.86368 0.84698 0.0
C968 C 0.28251 0.83952 0.85301 0.0
C969 C 0.2678 0.82098 0.83238 0.0
C970 C 0.32583 0.87682 0.86686 0.0
C971 C 0.33177 0.90694 0.87074 0.0
C972 C 0.34519 0.85974 0.87897 0.0
C973 C 0.34224 0.82822 0.8732 0.0
C974 C 0.33714 0.80903 0.89372 0.0
C975 C 0.33395 0.77928 0.88805 0.0
C976 C 0.33597 0.76854 0.86195 0.0
C977 C 0.34141 0.78755 0.84153 0.0
C978 C 0.34476 0.81726 0.84712 0.0
C979 C 0.4339 0.94863 0.94469 0.0
C980 C 0.45938 0.93835 0.93774 0.0
C981 C 0.4069 0.93706 0.93193 0.0
C982 C 0.40496 0.91566 0.91133 0.0
C983 C 0.43041 0.90574 0.90398 0.0
C984 C 0.45727 0.9168 0.91716 0.0
C985 C 0.37659 0.90319 0.89737 0.0
C986 C 0.36972 0.87308 0.89471 0.0
C987 C 0.35726 0.92042 0.8854 0.0
C988 C 0.36397 0.95233 0.88628 0.0
C989 C 0.38953 0.96616 0.87614 0.0
C990 C 0.39598 0.99624 0.87757 0.0
C991 C 0.37687 0.01274 0.88883 0.0
C992 C 0.35122 -0.00081 0.89859 0.0
C993 C 0.3447 0.96911 0.89726 0.0
H994 H 0.38189 0.03602 0.88994 0.0
H995 H 0.33338 0.74552 0.85759 0.0
H996 H 0.18578 0.25452 0.78249 0.0
H997 H 0.15722 0.28474 0.80781 0.0
H998 H 0.23278 0.31409 0.86193 0.0
H999 H 0.26077 0.28383 0.8372 0.0
H1000 H 0.19126 0.30598 0.89036 0.0
H1001 H 0.20311 0.3545 0.80913 0.0
H1002 H 0.19985 0.3619 0.76074 0.0
H1003 H 0.10669 0.34304 0.75817 0.0
H1004 H 0.10936 0.33513 0.80656 0.0
H1005 H 0.1402 0.42839 0.95078 0.0
H1006 H 0.16711 0.39966 0.92221 0.0
H1007 H 0.0862 0.35418 0.88523 0.0
H1008 H 0.05923 0.38229 0.91393 0.0
H1009 H 0.12917 0.37104 0.84784 0.0
H1010 H 0.11959 0.3216 0.93004 0.0
H1011 H 0.12458 0.31799 0.97901 0.0
H1012 H 0.21709 0.3425 0.97914 0.0
H1013 H 0.21258 0.34667 0.93022 0.0
C1014 C 0.19624 0.26766 0.79966 0.0
C1015 C 0.22556 0.26677 0.80777 0.0
C1016 C 0.17994 0.28508 0.81415 0.0
C1017 C 0.19276 0.30239 0.83679 0.0
C1018 C 0.22211 0.30133 0.84466 0.0
C1019 C 0.2382 0.28386 0.83042 0.0
C1020 C 0.1759 0.32117 0.85275 0.0
C1021 C 0.17805 0.32042 0.88087 0.0
C1022 C 0.15805 0.33992 0.84076 0.0
C1023 C 0.15645 0.34405 0.81152 0.0
C1024 C 0.18192 0.35173 0.79827 0.0
C1025 C 0.18018 0.35604 0.77083 0.0
C1026 C 0.15307 0.35301 0.75644 0.0
C1027 C 0.12766 0.34542 0.76939 0.0
C1028 C 0.12928 0.34103 0.79682 0.0
C1029 C 0.12812 0.41242 0.93645 0.0
C1030 C 0.09747 0.40766 0.93485 0.0
C1031 C 0.14355 0.39593 0.92014 0.0
C1032 C 0.12874 0.3746 0.90153 0.0
C1033 C 0.09819 0.37046 0.89933 0.0
C1034 C 0.08278 0.38653 0.91592 0.0
C1035 C 0.14493 0.35581 0.88512 0.0
C1036 C 0.14251 0.35654 0.85706 0.0
C1037 C 0.16293 0.33738 0.89709 0.0
C1038 C 0.16571 0.33475 0.92649 0.0
C1039 C 0.14097 0.32647 0.94054 0.0
C1040 C 0.14371 0.32427 0.96829 0.0
C1041 C 0.17113 0.33009 0.98219 0.0
C1042 C 0.19586 0.33804 0.96836 0.0
C1043 C 0.19322 0.34031 0.94061 0.0
H1044 H 0.17321 0.32836 0.00367 0.0
H1045 H 0.15173 0.3567 0.73529 0.0
H1046 H 0.69768 0.17386 0.81808 0.0
H1047 H 0.66128 0.15114 0.84654 0.0
H1048 H 0.59657 0.19586 0.80825 0.0
H1049 H 0.63303 0.2186 0.77934 0.0
H1050 H 0.60151 0.19616 0.86903 0.0
H1051 H 0.57999 0.13161 0.79145 0.0
H1052 H 0.59417 0.10503 0.75226 0.0
H1053 H 0.64664 0.05936 0.8038 0.0
H1054 H 0.6322 0.08521 0.84344 0.0
H1055 H 0.52176 0.05324 0.9261 0.0
H1056 H 0.52794 0.08819 0.89115 0.0
H1057 H 0.60746 0.13032 0.93379 0.0
H1058 H 0.60141 0.09545 0.96864 0.0
H1059 H 0.57885 0.08934 0.86307 0.0
H1060 H 0.61586 0.20077 0.91937 0.0
H1061 H 0.60184 0.22888 0.95762 0.0
H1062 H 0.51468 0.18324 0.94668 0.0
H1063 H 0.52807 0.15506 0.90803 0.0
C1064 C 0.67571 0.17882 0.81572 0.0
C1065 C 0.66798 0.19774 0.79654 0.0
C1066 C 0.65501 0.16591 0.83193 0.0
C1067 C 0.6264 0.17189 0.82928 0.0
C1068 C 0.61863 0.19112 0.81044 0.0
C1069 C 0.63934 0.20388 0.79396 0.0
C1070 C 0.60493 0.15722 0.8462 0.0
C1071 C 0.59587 0.17288 0.86757 0.0
C1072 C 0.59737 0.12701 0.84376 0.0
C1073 C 0.60494 0.11021 0.82033 0.0
C1074 C 0.59438 0.11571 0.79442 0.0
C1075 C 0.60237 0.10072 0.77217 0.0
C1076 C 0.62112 0.08034 0.77559 0.0
C1077 C 0.63179 0.07483 0.80128 0.0
C1078 C 0.62355 0.08949 0.82365 0.0
C1079 C 0.53997 0.07061 0.92843 0.0
C1080 C 0.56118 0.07178 0.94991 0.0
C1081 C 0.5435 0.09041 0.90846 0.0
C1082 C 0.56807 0.11177 0.91005 0.0
C1083 C 0.58816 0.11416 0.93247 0.0
C1084 C 0.58484 0.09416 0.9522 0.0
C1085 C 0.57589 0.12817 0.88656 0.0
C1086 C 0.58316 0.11272 0.86414 0.0
C1087 C 0.58127 0.15862 0.88791 0.0
C1088 C 0.57301 0.1757 0.9109 0.0
C1089 C 0.59365 0.19683 0.925 0.0
C1090 C 0.58582 0.21274 0.94677 0.0
C1091 C 0.55739 0.20778 0.95459 0.0
C1092 C 0.5367 0.18693 0.94063 0.0
C1093 C 0.54441 0.17096 0.91884 0.0
H1094 H 0.55138 0.22011 0.97145 0.0
H1095 H 0.62748 0.06891 0.75833 0.0
H1096 H 0.84166 0.74778 0.82038 0.0
H1097 H 0.86853 0.71415 0.84379 0.0
H1098 H 0.82033 0.6434 0.79451 0.0
H1099 H 0.79341 0.67738 0.77065 0.0
H1100 H 0.82486 0.63255 0.85082 0.0
H1101 H 0.8883 0.66339 0.78311 0.0
H1102 H 0.91668 0.69867 0.75628 0.0
H1103 H 0.96742 0.73579 0.82728 0.0
H1104 H 0.93903 0.701 0.8546 0.0
H1105 H 0.91235 0.53717 0.9126 0.0
H1106 H 0.88668 0.56236 0.87884 0.0
H1107 H 0.94237 0.64198 0.90396 0.0
H1108 H 0.96903 0.61666 0.93642 0.0
H1109 H 0.93259 0.64415 0.8548 0.0
H1110 H 0.86631 0.61913 0.92326 0.0
H1111 H 0.83788 0.58565 0.95172 0.0
H1112 H 0.79262 0.53972 0.88179 0.0
H1113 H 0.82094 0.57286 0.8529 0.0
C1114 C 0.83692 0.72509 0.81428 0.0
C1115 C 0.81561 0.7154 0.79333 0.0
C1116 C 0.85236 0.70581 0.82774 0.0
C1117 C 0.84676 0.67608 0.82098 0.0
C1118 C 0.82525 0.66619 0.80015 0.0
C1119 C 0.81004 0.68567 0.7863 0.0
C1120 C 0.86335 0.65575 0.836 0.0
C1121 C 0.84839 0.63474 0.8513 0.0
C1122 C 0.89415 0.65883 0.83731 0.0
C1123 C 0.91136 0.67972 0.82093 0.0
C1124 C 0.90535 0.67922 0.79304 0.0
C1125 C 0.92147 0.6991 0.77773 0.0
C1126 C 0.9438 0.71949 0.79007 0.0
C1127 C 0.9501 0.71999 0.81775 0.0
C1128 C 0.93402 0.70018 0.83315 0.0
C1129 C 0.91945 0.55996 0.91066 0.0
C1130 C 0.94285 0.57473 0.92752 0.0
C1131 C 0.90441 0.57456 0.89147 0.0
C1132 C 0.91172 0.60456 0.88905 0.0
C1133 C 0.93586 0.61899 0.90518 0.0
C1134 C 0.95124 0.60434 0.92392 0.0
C1135 C 0.89426 0.62122 0.87032 0.0
C1136 C 0.90905 0.64166 0.85428 0.0
C1137 C 0.86332 0.61786 0.86864 0.0
C1138 C 0.84592 0.59828 0.88594 0.0
C1139 C 0.85035 0.60183 0.91397 0.0
C1140 C 0.83425 0.58293 0.93016 0.0
C1141 C 0.8135 0.56054 0.91856 0.0
C1142 C 0.80871 0.55707 0.89074 0.0
C1143 C 0.82474 0.57593 0.87444 0.0
H1144 H 0.80109 0.54592 0.93114 0.0
H1145 H 0.95626 0.73487 0.77819 0.0
H1146 H 0.17594 0.24112 0.1744 0.0
H1147 H 0.14934 0.27447 0.1506 0.0
H1148 H 0.21254 0.3459 0.18341 0.0
H1149 H 0.23841 0.31221 0.20876 0.0
H1150 H 0.16231 0.36398 0.17858 0.0
H1151 H 0.21223 0.31249 0.11779 0.0
H1152 H 0.22712 0.2698 0.09562 0.0
H1153 H 0.13887 0.24096 0.06503 0.0
H1154 H 0.12324 0.28293 0.08772 0.0
H1155 H 0.11893 0.45266 0.07058 0.0
H1156 H 0.14562 0.42585 0.10244 0.0
H1157 H 0.07997 0.35119 0.08663 0.0
H1158 H 0.05308 0.37776 0.05525 0.0
H1159 H 0.13525 0.33798 0.0824 0.0
H1160 H 0.08601 0.3894 0.14579 0.0
H1161 H 0.07235 0.43269 0.16795 0.0
H1162 H 0.16222 0.46374 0.19148 0.0
H1163 H 0.17646 0.4208 0.16911 0.0
C1164 C 0.18396 0.26399 0.17695 0.0
C1165 C 0.20935 0.27391 0.1935 0.0
C1166 C 0.16884 0.28316 0.16301 0.0
C1167 C 0.17922 0.31294 0.16419 0.0
C1168 C 0.20398 0.32313 0.18174 0.0
C1169 C 0.2188 0.30384 0.19634 0.0
C1170 C 0.16464 0.33282 0.14642 0.0
C1171 C 0.15685 0.3584 0.15747 0.0
C1172 C 0.15709 0.3259 0.11868 0.0
C1173 C 0.16652 0.3008 0.10467 0.0
C1174 C 0.19595 0.29696 0.10649 0.0
C1175 C 0.20452 0.27287 0.09384 0.0
C1176 C 0.18397 0.25273 0.07889 0.0
C1177 C 0.15477 0.25658 0.07661 0.0
C1178 C 0.14603 0.28049 0.08941 0.0
C1179 C 0.10983 0.43072 0.07422 0.0
C1180 C 0.08363 0.4176 0.06012 0.0
C1181 C 0.12522 0.41532 0.09251 0.0
C1182 C 0.11503 0.38627 0.09707 0.0
C1183 C 0.08854 0.37345 0.08355 0.0
C1184 C 0.073 0.38886 0.0656 0.0
C1185 C 0.13238 0.36863 0.1147 0.0
C1186 C 0.14084 0.34354 0.10351 0.0
C1187 C 0.14086 0.37624 0.14209 0.0
C1188 C 0.13233 0.40205 0.1555 0.0
C1189 C 0.10289 0.40559 0.15546 0.0
C1190 C 0.09503 0.43004 0.16811 0.0
C1191 C 0.11641 0.451 0.18104 0.0
C1192 C 0.14569 0.44752 0.18141 0.0
C1193 C 0.15366 0.42312 0.16876 0.0
H1194 H 0.11029 0.4699 0.19084 0.0
H1195 H 0.19067 0.23413 0.06907 0.0
H1196 H 0.18751 0.65285 0.78915 0.0
H1197 H 0.14669 0.62373 0.80819 0.0
H1198 H 0.11614 0.70119 0.83611 0.0
H1199 H 0.15731 0.73035 0.81768 0.0
H1200 H 0.11794 0.66543 0.87429 0.0
H1201 H 0.07729 0.65797 0.78495 0.0
H1202 H 0.07568 0.6505 0.73591 0.0
H1203 H 0.09003 0.56303 0.74434 0.0
H1204 H 0.09219 0.57006 0.79344 0.0
H1205 H 1.0094 0.55422 0.92235 0.0
H1206 H 0.01877 0.5882 0.88702 0.0
H1207 H 0.10294 0.56233 0.87969 0.0
H1208 H 0.09398 0.52849 0.9147 0.0
H1209 H 0.05704 0.57986 0.8276 0.0
H1210 H 0.13553 0.62723 0.91208 0.0
H1211 H 0.13916 0.63092 0.96149 0.0
H1212 H 0.0486 0.63918 0.96083 0.0
H1213 H 0.0446 0.63604 0.91141 0.0
C1214 C 0.17209 0.66358 0.79941 0.0
C1215 C 0.17554 0.69371 0.8022 0.0
C1216 C 0.14857 0.647 0.8099 0.0
C1217 C 0.12804 0.66037 0.823 0.0
C1218 C 0.13157 0.69051 0.82581 0.0
C1219 C 0.15518 0.70708 0.81549 0.0
C1220 C 0.10473 0.64273 0.83614 0.0
C1221 C 0.10388 0.64736 0.86383 0.0
C1222 C 0.08639 0.61911 0.82253 0.0
C1223 C 0.08496 0.6146 0.79295 0.0
C1224 C 0.08027 0.63718 0.77637 0.0
C1225 C 0.07924 0.63302 0.74855 0.0
C1226 C 0.08276 0.60631 0.73702 0.0
C1227 C 0.08727 0.5837 0.7533 0.0
C1228 C 0.08834 0.58775 0.78114 0.0
C1229 C 0.02964 0.55533 0.91282 0.0
C1230 C 0.05127 0.53921 0.92176 0.0
C1231 C 0.03478 0.57452 0.8925 0.0
C1232 C 0.06152 0.57761 0.881 0.0
C1233 C 0.08211 0.55996 0.88838 0.0
C1234 C 0.07706 0.54089 0.90859 0.0
C1235 C 0.07098 0.60257 0.8654 0.0
C1236 C 0.0698 0.59903 0.8375 0.0
C1237 C 0.08717 0.62751 0.87861 0.0
C1238 C 0.08976 0.6313 0.90817 0.0
C1239 C 0.1165 0.63017 0.92251 0.0
C1240 C 0.11861 0.63213 0.95047 0.0
C1241 C 0.09413 0.63526 0.96422 0.0
C1242 C 0.06754 0.63676 0.9501 0.0
C1243 C 0.06534 0.63491 0.92214 0.0
H1244 H 0.09576 0.63631 0.98582 0.0
H1245 H 0.08197 0.60313 0.71548 0.0
H1246 H 0.31176 0.14773 0.81284 0.0
H1247 H 0.34861 0.12808 0.8404 0.0
H1248 H 0.41591 0.18927 0.81069 0.0
H1249 H 0.37901 0.20866 0.7825 0.0
H1250 H 0.4335 0.13647 0.81795 0.0
H1251 H 0.39189 0.20565 0.86821 0.0
H1252 H 0.35258 0.22937 0.88529 0.0
H1253 H 0.32013 0.15258 0.9241 0.0
H1254 H 0.35895 0.12822 0.90687 0.0
H1255 H 0.49297 0.11445 0.96451 0.0
H1256 H 0.47909 0.14293 0.9272 0.0
H1257 H 0.43302 0.06601 0.88542 0.0
H1258 H 0.44656 0.03735 0.92214 0.0
H1259 H 0.41537 0.13754 0.91434 0.0
H1260 H 0.45195 0.06827 0.84309 0.0
H1261 H 0.49386 0.05016 0.82452 0.0
H1262 H 0.54008 0.13653 0.82672 0.0
H1263 H 0.49921 0.15476 0.84685 0.0
C1264 C 0.33446 0.15661 0.81182 0.0
C1265 C 0.34267 0.17986 0.79594 0.0
C1266 C 0.35543 0.14547 0.82758 0.0
C1267 C 0.38479 0.15777 0.82796 0.0
C1268 C 0.39328 0.17972 0.81073 0.0
C1269 C 0.37226 0.19074 0.79473 0.0
C1270 C 0.40599 0.1489 0.84785 0.0
C1271 C 0.42968 0.13692 0.83905 0.0
C1272 C 0.40154 0.15042 0.87546 0.0
C1273 C 0.37826 0.16506 0.8861 0.0
C1274 C 0.37626 0.19375 0.88023 0.0
C1275 C 0.35407 0.20732 0.88996 0.0
C1276 C 0.33385 0.19248 0.90573 0.0
C1277 C 0.33581 0.16405 0.91186 0.0
C1278 C 0.35792 0.15036 0.90215 0.0
C1279 C 0.4805 0.1035 0.94708 0.0
C1280 C 0.47044 0.07373 0.94645 0.0
C1281 C 0.47301 0.11975 0.9257 0.0
C1282 C 0.45598 0.10637 0.90329 0.0
C1283 C 0.4472 0.07652 0.90206 0.0
C1284 C 0.45447 0.06028 0.92338 0.0
C1285 C 0.44178 0.12371 0.88422 0.0
C1286 C 0.41939 0.13751 0.89329 0.0
C1287 C 0.44767 0.12424 0.85705 0.0
C1288 C 0.47289 0.11274 0.84703 0.0
C1289 C 0.47142 0.08322 0.84038 0.0
C1290 C 0.495 0.07293 0.82955 0.0
C1291 C 0.51981 0.0921 0.82471 0.0
C1292 C 0.52114 0.12157 0.83087 0.0
C1293 C 0.4979 0.13186 0.84222 0.0
H1294 H 0.53788 0.08414 0.81601 0.0
H1295 H 0.31669 0.20302 0.91324 0.0
H1296 H 0.82122 0.32893 0.78858 0.0
H1297 H 0.84192 0.35527 0.83005 0.0
H1298 H 0.78753 0.29616 0.87561 0.0
H1299 H 0.76608 0.26973 0.83403 0.0
H1300 H 0.80276 0.37735 0.87521 0.0
H1301 H 0.84596 0.28807 0.92751 0.0
H1302 H 0.86105 0.24067 0.91819 0.0
H1303 H 0.89259 0.26933 0.84384 0.0
H1304 H 0.87803 0.31695 0.85294 0.0
H1305 H 0.92912 0.39854 0.99334 0.0
H1306 H 0.88438 0.37106 0.9718 0.0
H1307 H 0.88323 0.43475 0.91204 0.0
H1308 H 0.92655 0.46315 0.9348 0.0
H1309 H 0.88458 0.34532 0.92818 0.0
H1310 H 0.82305 0.42977 0.87364 0.0
H1311 H 0.80582 0.47563 0.88462 0.0
H1312 H 0.80733 0.45648 0.96765 0.0
H1313 H 0.82395 0.41019 0.95713 0.0
C1314 C 0.81371 0.32133 0.80737 0.0
C1315 C 0.79206 0.29714 0.808 0.0
C1316 C 0.82545 0.33654 0.831 0.0
C1317 C 0.81607 0.32765 0.8557 0.0
C1318 C 0.79485 0.3033 0.85661 0.0
C1319 C 0.78274 0.28824 0.83288 0.0
C1320 C 0.82913 0.3439 0.88038 0.0
C1321 C 0.82062 0.37054 0.8869 0.0
C1322 C 0.85137 0.33416 0.89632 0.0
C1323 C 0.86053 0.30583 0.89073 0.0
C1324 C 0.85613 0.2842 0.9092 0.0
C1325 C 0.86461 0.25733 0.90397 0.0
C1326 C 0.87765 0.25194 0.88038 0.0
C1327 C 0.88235 0.27347 0.86203 0.0
C1328 C 0.87394 0.30038 0.86719 0.0
C1329 C 0.91848 0.40718 0.97625 0.0
C1330 C 0.93121 0.43275 0.96551 0.0
C1331 C 0.893 0.39144 0.96389 0.0
C1332 C 0.88042 0.40055 0.94009 0.0
C1333 C 0.89195 0.42739 0.93066 0.0
C1334 C 0.9169 0.44363 0.94358 0.0
C1335 C 0.85924 0.37999 0.9226 0.0
C1336 C 0.86616 0.35225 0.91726 0.0
C1337 C 0.83514 0.38867 0.90808 0.0
C1338 C 0.82482 0.41643 0.91455 0.0
C1339 C 0.81942 0.43516 0.89421 0.0
C1340 C 0.80982 0.46129 0.90036 0.0
C1341 C 0.80552 0.46898 0.92682 0.0
C1342 C 0.81073 0.45052 0.94717 0.0
C1343 C 0.82026 0.42433 0.94111 0.0
H1344 H 0.79813 0.48923 0.93155 0.0
H1345 H 0.88419 0.23113 0.87636 0.0
H1346 H 0.79314 0.86842 0.79793 0.0
H1347 H 0.78269 0.91192 0.82182 0.0
H1348 H 0.69064 0.88277 0.8054 0.0
H1349 H 0.70098 0.83984 0.78133 0.0
H1350 H 0.70256 0.94082 0.80531 0.0
H1351 H 0.72896 0.86318 0.86239 0.0
H1352 H 0.76384 0.83231 0.87955 0.0
H1353 H 0.8258 0.90744 0.90406 0.0
H1354 H 0.7913 0.9387 0.88679 0.0
H1355 H 0.6087 0.92923 0.90248 0.0
H1356 H 0.64478 0.92493 0.87063 0.0
H1357 H 0.70748 0.98599 0.91885 0.0
H1358 H 0.67105 0.99058 0.95137 0.0
H1359 H 0.72787 0.93452 0.90242 0.0
H1360 H 0.68433 0.00778 0.86269 0.0
H1361 H 0.64335 0.0328 0.84898 0.0
H1362 H 0.60948 0.96312 0.79218 0.0
H1363 H 0.6496 0.93707 0.80626 0.0
C1364 C 0.77073 0.87173 0.79901 0.0
C1365 C 0.74778 0.85064 0.78839 0.0
C1366 C 0.76482 0.89655 0.81255 0.0
C1367 C 0.73591 0.90036 0.81568 0.0
C1368 C 0.71312 0.8803 0.8032 0.0
C1369 C 0.71901 0.85563 0.78969 0.0
C1370 C 0.72866 0.92228 0.83503 0.0
C1371 C 0.7084 0.93995 0.82654 0.0
C1372 C 0.73718 0.92191 0.86265 0.0
C1373 C 0.75779 0.90319 0.87304 0.0
C1374 C 0.7501 0.87305 0.87133 0.0
C1375 C 0.76977 0.85551 0.88107 0.0
C1376 C 0.79706 0.8679 0.89281 0.0
C1377 C 0.80469 0.89787 0.89489 0.0
C1378 C 0.78511 0.9155 0.88513 0.0
C1379 C 0.63007 0.94188 0.90647 0.0
C1380 C 0.63698 0.96024 0.92954 0.0
C1381 C 0.65062 0.93958 0.88805 0.0
C1382 C 0.67855 0.95559 0.89216 0.0
C1383 C 0.68585 0.97377 0.91525 0.0
C1384 C 0.66507 0.9763 0.93375 0.0
C1385 C 0.70009 0.9512 0.87276 0.0
C1386 C 0.72315 0.93692 0.8812 0.0
C1387 C 0.69375 0.95434 0.84513 0.0
C1388 C 0.67016 0.97045 0.83555 0.0
C1389 C 0.66812 0.9977 0.84732 0.0
C1390 C 0.64495 0.01203 0.83955 0.0
C1391 C 0.62385 -0.0004 0.81967 0.0
C1392 C 0.62589 0.97277 0.80754 0.0
C1393 C 0.64886 0.95818 0.81544 0.0
H1394 H 0.60593 0.01076 0.81367 0.0
H1395 H 0.81226 0.85429 0.90035 0.0
H1396 H 0.74599 0.68998 0.15565 0.0
H1397 H 0.77524 0.66606 0.12602 0.0
H1398 H 0.84572 0.67616 0.18745 0.0
H1399 H 0.81721 0.70246 0.21647 0.0
H1400 H 0.86481 0.69024 0.13935 0.0
H1401 H 0.81381 0.58091 0.15586 0.0
H1402 H 0.77051 0.54346 0.15441 0.0
H1403 H 0.72617 0.58979 0.09665 0.0
H1404 H 0.77008 0.62618 0.09617 0.0
H1405 H 0.95826 0.60228 0.0803 0.0
H1406 H 0.92788 0.62644 0.10891 0.0
H1407 H 0.85267 0.59512 0.05489 0.0
H1408 H 0.88273 0.5691 0.02757 0.0
H1409 H 0.83468 0.59169 0.09854 0.0
H1410 H 0.89298 0.67151 0.06371 0.0
H1411 H 0.93791 0.70228 0.053 0.0
H1412 H 0.96512 0.71562 0.13667 0.0
H1413 H 0.9205 0.68462 0.14787 0.0
C1414 C 0.76765 0.68696 0.16305 0.0
C1415 C 0.77875 0.69754 0.18901 0.0
C1416 C 0.78426 0.67254 0.14611 0.0
C1417 C 0.81242 0.66764 0.15462 0.0
C1418 C 0.82381 0.67874 0.1804 0.0
C1419 C 0.80731 0.6936 0.19725 0.0
C1420 C 0.83097 0.65347 0.13603 0.0
C1421 C 0.85824 0.66856 0.13062 0.0
C1422 C 0.82244 0.62556 0.12347 0.0
C1423 C 0.79458 0.60719 0.12722 0.0
C1424 C 0.79454 0.58346 0.14337 0.0
C1425 C 0.77018 0.56202 0.14235 0.0
C1426 C 0.74545 0.56446 0.12573 0.0
C1427 C 0.74519 0.58814 0.1098 0.0
C1428 C 0.76988 0.60911 0.11008 0.0
C1429 C 0.93521 0.60054 0.07455 0.0
C1430 C 0.923 0.58364 0.05159 0.0
C1431 C 0.91776 0.61474 0.09084 0.0
C1432 C 0.88769 0.61349 0.08411 0.0
C1433 C 0.87562 0.59667 0.06096 0.0
C1434 C 0.8929 0.58173 0.04517 0.0
C1435 C 0.86854 0.62844 0.10157 0.0
C1436 C 0.84133 0.61347 0.10702 0.0
C1437 C 0.8767 0.65684 0.11323 0.0
C1438 C 0.90353 0.67551 0.10661 0.0
C1439 C 0.90864 0.68085 0.07982 0.0
C1440 C 0.93404 0.69835 0.07366 0.0
C1441 C 0.9544 0.71084 0.09414 0.0
C1442 C 0.94935 0.7059 0.12083 0.0
C1443 C 0.924 0.68839 0.1271 0.0
H1444 H 0.97405 0.72438 0.08933 0.0
H1445 H 0.72656 0.54791 0.12508 0.0
H1446 H 0.3237 0.82562 0.15439 0.0
H1447 H 0.36617 0.84298 0.12991 0.0
H1448 H 0.42318 0.81944 0.19397 0.0
H1449 H 0.38079 0.80114 0.21816 0.0
H1450 H 0.4317 0.88309 0.1657 0.0
H1451 H 0.42841 0.77975 0.15581 0.0
H1452 H 0.3993 0.73175 0.14927 0.0
H1453 H 0.36663 0.75265 0.07148 0.0
H1454 H 0.39475 0.80158 0.07815 0.0
H1455 H 0.52503 0.93389 0.06999 0.0
H1456 H 0.51299 0.89961 0.10461 0.0
H1457 H 0.43403 0.86364 0.05734 0.0
H1458 H 0.4467 0.89672 0.02246 0.0
H1459 H 0.45119 0.82367 0.08675 0.0
H1460 H 0.43706 0.92503 0.10089 0.0
H1461 H 0.45558 0.97714 0.10607 0.0
H1462 H 0.5143 0.96223 0.17207 0.0
H1463 H 0.49621 0.90998 0.16708 0.0
C1464 C 0.3453 0.82426 0.16322 0.0
C1465 C 0.34914 0.81199 0.18796 0.0
C1466 C 0.36942 0.83414 0.14932 0.0
C1467 C 0.39757 0.8323 0.16025 0.0
C1468 C 0.40153 0.8209 0.18534 0.0
C1469 C 0.37738 0.81043 0.19899 0.0
C1470 C 0.42255 0.84158 0.14468 0.0
C1471 C 0.43685 0.86989 0.14895 0.0
C1472 C 0.42861 0.82432 0.12271 0.0
C1473 C 0.41345 0.79438 0.11762 0.0
C1474 C 0.41488 0.77419 0.13737 0.0
C1475 C 0.39847 0.7468 0.13365 0.0
C1476 C 0.38097 0.73905 0.10999 0.0
C1477 C 0.38011 0.75869 0.08986 0.0
C1478 C 0.39624 0.78632 0.09363 0.0
C1479 C 0.50581 0.91775 0.06659 0.0
C1480 C 0.48662 0.9179 0.04381 0.0
C1481 C 0.49887 0.89833 0.08639 0.0
C1482 C 0.47232 0.87954 0.08378 0.0
C1483 C 0.45464 0.87793 0.05981 0.0
C1484 C 0.46172 0.89702 0.03999 0.0
C1485 C 0.45981 0.86567 0.10716 0.0
C1486 C 0.44751 0.83648 0.10431 0.0
C1487 C 0.45501 0.88238 0.13015 0.0
C1488 C 0.46553 0.91371 0.13347 0.0
C1489 C 0.45396 0.93292 0.11646 0.0
C1490 C 0.46438 0.96244 0.11935 0.0
C1491 C 0.48616 0.97298 0.13935 0.0
C1492 C 0.49748 0.95403 0.15656 0.0
C1493 C 0.48715 0.92448 0.15373 0.0
H1494 H 0.49423 0.99583 0.14155 0.0
H1495 H 0.36812 0.71784 0.10724 0.0
H1496 H 0.76956 0.19492 0.18335 0.0
H1497 H 0.75746 0.15334 0.15135 0.0
H1498 H 0.68111 0.12407 0.1927 0.0
H1499 H 0.69361 0.16445 0.22506 0.0
H1500 H 0.70045 0.0793 0.17256 0.0
H1501 H 0.68229 0.17272 0.14151 0.0
H1502 H 0.69918 0.223 0.13136 0.0
H1503 H 0.75332 0.1943 0.07304 0.0
H1504 H 0.7376 0.14375 0.08375 0.0
H1505 H 0.56972 0.05856 0.09598 0.0
H1506 H 0.61485 0.07449 0.12358 0.0
H1507 H 0.66461 0.05487 0.05765 0.0
H1508 H 0.61918 0.03834 0.02988 0.0
H1509 H 0.67674 0.11359 0.08257 0.0
H1510 H 0.67289 0.01636 0.10643 0.0
H1511 H 0.64882 0.96912 0.1193 0.0
H1512 H 0.62668 0.00779 0.19257 0.0
H1513 H 0.65011 0.05537 0.18001 0.0
C1514 C 0.7505 0.17928 0.18584 0.0
C1515 C 0.73219 0.18328 0.20637 0.0
C1516 C 0.74371 0.15548 0.16765 0.0
C1517 C 0.71809 0.13586 0.16933 0.0
C1518 C 0.70103 0.13883 0.19096 0.0
C1519 C 0.70807 0.16219 0.20936 0.0
C1520 C 0.70613 0.11506 0.14689 0.0
C1521 C 0.69559 0.08659 0.15274 0.0
C1522 C 0.70041 0.12439 0.12079 0.0
C1523 C 0.70914 0.15458 0.1137 0.0
C1524 C 0.69791 0.17716 0.12661 0.0
C1525 C 0.70731 0.20571 0.12079 0.0
C1526 C 0.72728 0.21189 0.10149 0.0
C1527 C 0.73791 0.18949 0.08802 0.0
C1528 C 0.72889 0.16089 0.09406 0.0
C1529 C 0.59027 0.05737 0.08744 0.0
C1530 C 0.59106 0.04727 0.06086 0.0
C1531 C 0.61598 0.06617 0.10327 0.0
C1532 C 0.64294 0.06539 0.0927 0.0
C1533 C 0.64392 0.05515 0.06619 0.0
C1534 C 0.61804 0.04573 0.05042 0.0
C1535 C 0.66952 0.07858 0.1089 0.0
C1536 C 0.68285 0.10567 0.10186 0.0
C1537 C 0.67686 0.0683 0.13418 0.0
C1538 C 0.66334 0.03953 0.14223 0.0
C1539 C 0.66281 0.01485 0.12525 0.0
C1540 C 0.64924 0.98798 0.13249 0.0
C1541 C 0.63618 0.98548 0.1567 0.0
C1542 C 0.63682 0.00978 0.17382 0.0
C1543 C 0.65031 0.0367 0.16667 0.0
H1544 H 0.62549 0.96475 0.1622 0.0
H1545 H 0.73451 0.23402 0.09698 0.0
H1546 H 0.68819 0.73578 0.81019 0.0
H1547 H 0.65427 0.70862 0.83844 0.0
H1548 H 0.67276 0.62894 0.80281 0.0
H1549 H 0.70594 0.65598 0.77393 0.0
H1550 H 0.61805 0.62225 0.80878 0.0
H1551 H 0.70142 0.65908 0.86867 0.0
H1552 H 0.7388 0.6965 0.8914 0.0
H1553 H 0.6722 0.73764 0.92491 0.0
H1554 H 0.6344 0.70064 0.9021 0.0
H1555 H 0.58015 0.52468 0.90907 0.0
H1556 H 0.60334 0.55746 0.87778 0.0
H1557 H 0.56519 0.62696 0.91262 0.0
H1558 H 0.54147 0.59367 0.94429 0.0
H1559 H 0.62517 0.64226 0.90704 0.0
H1560 H 0.54203 0.60077 0.85003 0.0
H1561 H 0.50619 0.56132 0.82837 0.0
H1562 H 0.57422 0.52692 0.79022 0.0
H1563 H 0.61055 0.56594 0.81197 0.0
C1564 C 0.68506 0.71246 0.80828 0.0
C1565 C 0.70008 0.69825 0.78963 0.0
C1566 C 0.66566 0.69683 0.82468 0.0
C1567 C 0.66099 0.66644 0.82336 0.0
C1568 C 0.67571 0.65226 0.80448 0.0
C1569 C 0.69487 0.66786 0.78789 0.0
C1570 C 0.64095 0.64935 0.84148 0.0
C1571 C 0.61991 0.62659 0.83028 0.0
C1572 C 0.64242 0.65509 0.86964 0.0
C1573 C 0.66509 0.67729 0.88344 0.0
C1574 C 0.69475 0.67622 0.88074 0.0
C1575 C 0.71601 0.69734 0.89366 0.0
C1576 C 0.70788 0.71949 0.90952 0.0
C1577 C 0.67846 0.72051 0.91257 0.0
C1578 C 0.65711 0.69946 0.89967 0.0
C1579 C 0.57608 0.5468 0.90978 0.0
C1580 C 0.55865 0.55638 0.92913 0.0
C1581 C 0.58947 0.56563 0.89178 0.0
C1582 C 0.58615 0.59487 0.89255 0.0
C1583 C 0.56817 0.60453 0.91147 0.0
C1584 C 0.55431 0.58542 0.9294 0.0
C1585 C 0.60269 0.61505 0.87431 0.0
C1586 C 0.62311 0.63825 0.88549 0.0
C1587 C 0.60089 0.60954 0.84617 0.0
C1588 C 0.57906 0.58621 0.83278 0.0
C1589 C 0.54939 0.5847 0.83716 0.0
C1590 C 0.52897 0.56242 0.82484 0.0
C1591 C 0.53793 0.54159 0.80797 0.0
C1592 C 0.56731 0.54306 0.80331 0.0
C1593 C 0.58782 0.56528 0.81559 0.0
H1594 H 0.52209 0.52435 0.79847 0.0
H1595 H 0.72437 0.73582 0.91951 0.0
H1596 H 0.36273 0.7432 0.78476 0.0
H1597 H 0.38583 0.71449 0.81628 0.0
H1598 H 0.30192 0.66891 0.83216 0.0
H1599 H 0.27813 0.69935 0.80093 0.0
H1600 H 0.33504 0.67565 0.87721 0.0
H1601 H 0.35141 0.63895 0.79104 0.0
H1602 H 0.36549 0.64009 0.74456 0.0
H1603 H 0.45289 0.67657 0.77239 0.0
H1604 H 0.43925 0.67603 0.81904 0.0
H1605 H 0.40113 0.56107 0.93386 0.0
H1606 H 0.37513 0.58853 0.90276 0.0
H1607 H 0.45151 0.65243 0.90204 0.0
H1608 H 0.47785 0.62523 0.93408 0.0
H1609 H 0.42045 0.63363 0.849 0.0
H1610 H 0.40104 0.66927 0.93649 0.0
H1611 H 0.38505 0.66403 0.98212 0.0
H1612 H 0.30038 0.62366 0.94994 0.0
H1613 H 0.31601 0.62826 0.90409 0.0
C1614 C 0.34892 0.72708 0.79484 0.0
C1615 C 0.31843 0.72355 0.78996 0.0
C1616 C 0.36236 0.71037 0.8129 0.0
C1617 C 0.346 0.68859 0.82626 0.0
C1618 C 0.3153 0.68527 0.822 0.0
C1619 C 0.30162 0.70262 0.80406 0.0
C1620 C 0.36149 0.66983 0.84445 0.0
C1621 C 0.35337 0.66612 0.87076 0.0
C1622 C 0.38586 0.65737 0.83657 0.0
C1623 C 0.39423 0.65765 0.80854 0.0
C1624 C 0.37359 0.64739 0.78725 0.0
C1625 C 0.3815 0.64791 0.76087 0.0
C1626 C 0.41005 0.65845 0.75552 0.0
C1627 C 0.43077 0.66843 0.77656 0.0
C1628 C 0.42297 0.66799 0.80298 0.0
C1629 C 0.41274 0.58084 0.92707 0.0
C1630 C 0.44187 0.59075 0.93673 0.0
C1631 C 0.3976 0.59666 0.90926 0.0
C1632 C 0.41108 0.6228 0.9001 0.0
C1633 C 0.44048 0.63239 0.90883 0.0
C1634 C 0.45559 0.61675 0.92716 0.0
C1635 C 0.39423 0.63995 0.88165 0.0
C1636 C 0.40207 0.6432 0.85531 0.0
C1637 C 0.3693 0.65139 0.88933 0.0
C1638 C 0.3598 0.64884 0.91686 0.0
C1639 C 0.37909 0.65905 0.93914 0.0
C1640 C 0.37008 0.65623 0.96505 0.0
C1641 C 0.34174 0.64344 0.96893 0.0
C1642 C 0.32233 0.63352 0.9469 0.0
C1643 C 0.33125 0.63625 0.92095 0.0
H1644 H 0.33481 0.64128 0.989 0.0
H1645 H 0.41613 0.65883 0.73508 0.0
H1646 H 0.33582 0.29827 0.80623 0.0
H1647 H 0.35486 0.34069 0.83487 0.0
H1648 H 0.297 0.3898 0.79227 0.0
H1649 H 0.2766 0.3467 0.76414 0.0
H1650 H 0.38175 0.39398 0.8197 0.0
H1651 H 0.28214 0.42486 0.82319 0.0
H1652 H 0.2289 0.41544 0.82596 0.0
H1653 H 0.23972 0.35972 0.89046 0.0
H1654 H 0.29293 0.36794 0.88733 0.0
H1655 H 0.42359 0.49453 0.93725 0.0
H1656 H 0.38616 0.48103 0.90039 0.0
H1657 H 0.38639 0.3913 0.915 0.0
H1658 H 0.42347 0.40437 0.95183 0.0
H1659 H 0.32631 0.42663 0.89311 0.0
H1660 H 0.42134 0.37847 0.85694 0.0
H1661 H 0.47502 0.38762 0.86081 0.0
H1662 H 0.47354 0.47885 0.86538 0.0
H1663 H 0.41984 0.47019 0.86116 0.0
C1664 C 0.32719 0.31808 0.80274 0.0
C1665 C 0.30474 0.31911 0.78285 0.0
C1666 C 0.33798 0.34231 0.81927 0.0
C1667 C 0.32691 0.36827 0.81612 0.0
C1668 C 0.30518 0.36979 0.79569 0.0
C1669 C 0.29391 0.34526 0.77934 0.0
C1670 C 0.33926 0.39329 0.83432 0.0
C1671 C 0.36946 0.40193 0.83526 0.0
C1672 C 0.32326 0.40389 0.85453 0.0
C1673 C 0.29134 0.39642 0.85455 0.0
C1674 C 0.27305 0.40997 0.83745 0.0
C1675 C 0.24292 0.40496 0.83917 0.0
C1676 C 0.23094 0.38689 0.85831 0.0
C1677 C 0.24902 0.37352 0.87552 0.0
C1678 C 0.27912 0.37815 0.87363 0.0
C1679 C 0.41484 0.47197 0.93334 0.0
C1680 C 0.42694 0.45044 0.94705 0.0
C1681 C 0.39347 0.46436 0.91227 0.0
C1682 C 0.38402 0.43524 0.90491 0.0
C1683 C 0.39364 0.4139 0.92046 0.0
C1684 C 0.4149 0.42142 0.94142 0.0
C1685 C 0.36862 0.42636 0.87863 0.0
C1686 C 0.33823 0.42028 0.8766 0.0
C1687 C 0.38436 0.41822 0.85724 0.0
C1688 C 0.41662 0.42368 0.85889 0.0
C1689 C 0.43249 0.40047 0.85859 0.0
C1690 C 0.46291 0.40557 0.86088 0.0
C1691 C 0.47769 0.4338 0.86338 0.0
C1692 C 0.46207 0.45699 0.86351 0.0
C1693 C 0.43165 0.452 0.8612 0.0
H1694 H 0.50124 0.4377 0.8652 0.0
H1695 H 0.20769 0.38348 0.85995 0.0
H1696 H 0.7222 0.3599 0.75179 0.0
H1697 H 0.69347 0.38135 0.784 0.0
H1698 H 0.66242 0.29695 0.81057 0.0
H1699 H 0.69109 0.27556 0.77812 0.0
H1700 H 0.61881 0.33223 0.80856 0.0
H1701 H 0.72007 0.34122 0.84082 0.0
H1702 H 0.77151 0.35694 0.83408 0.0
H1703 H 0.75781 0.44527 0.83649 0.0
H1704 H 0.7055 0.42995 0.84109 0.0
H1705 H 0.56669 0.37563 0.93064 0.0
H1706 H 0.59178 0.35361 0.89594 0.0
H1707 H 0.64011 0.43683 0.88245 0.0
H1708 H 0.61625 0.45856 0.91841 0.0
H1709 H 0.67459 0.40225 0.8767 0.0
H1710 H 0.57794 0.39906 0.83907 0.0
H1711 H 0.52437 0.38875 0.83638 0.0
H1712 H 0.52806 0.29813 0.83932 0.0
H1713 H 0.58172 0.30795 0.84236 0.0
C1714 C 0.70892 0.3458 0.7642 0.0
C1715 C 0.70877 0.3158 0.76204 0.0
C1716 C 0.69247 0.35815 0.78271 0.0
C1717 C 0.67585 0.34093 0.80013 0.0
C1718 C 0.67487 0.31084 0.7974 0.0
C1719 C 0.69119 0.29847 0.77864 0.0
C1720 C 0.66127 0.35442 0.82227 0.0
C1721 C 0.63106 0.34725 0.82366 0.0
C1722 C 0.67691 0.37501 0.84153 0.0
C1723 C 0.70871 0.38436 0.84092 0.0
C1724 C 0.7279 0.36399 0.83971 0.0
C1725 C 0.75722 0.37284 0.83608 0.0
C1726 C 0.76802 0.40208 0.8349 0.0
C1727 C 0.74941 0.4226 0.8373 0.0
C1728 C 0.71982 0.41382 0.84015 0.0
C1729 C 0.58277 0.38926 0.92038 0.0
C1730 C 0.58933 0.41895 0.92739 0.0
C1731 C 0.597 0.37664 0.90021 0.0
C1732 C 0.61753 0.39345 0.88569 0.0
C1733 C 0.62443 0.42311 0.89304 0.0
C1734 C 0.61071 0.43562 0.9137 0.0
C1735 C 0.63189 0.38017 0.86313 0.0
C1736 C 0.66215 0.38727 0.86168 0.0
C1737 C 0.61612 0.36035 0.84323 0.0
C1738 C 0.58386 0.35427 0.84122 0.0
C1739 C 0.56733 0.37695 0.83931 0.0
C1740 C 0.53695 0.37119 0.83771 0.0
C1741 C 0.52282 0.34281 0.83777 0.0
C1742 C 0.53905 0.32011 0.83933 0.0
C1743 C 0.56945 0.32576 0.84096 0.0
H1744 H 0.49929 0.3384 0.83655 0.0
H1745 H 0.79081 0.40882 0.83215 0.0
H1746 H 0.64375 0.2663 0.20944 0.0
H1747 H 0.62186 0.29421 0.17578 0.0
H1748 H 0.70423 0.34876 0.17187 0.0
H1749 H 0.72665 0.32013 0.20566 0.0
H1750 H 0.65541 0.3803 0.17574 0.0
H1751 H 0.6821 0.30785 0.11625 0.0
H1752 H 0.6872 0.25902 0.09949 0.0
H1753 H 0.59501 0.23277 0.10044 0.0
H1754 H 0.58931 0.28187 0.11652 0.0
H1755 H 0.60828 0.44987 0.06055 0.0
H1756 H 0.63304 0.42437 0.09406 0.0
H1757 H 0.55831 0.35783 0.09143 0.0
H1758 H 0.53358 0.38291 0.05671 0.0
H1759 H 0.60531 0.33359 0.09121 0.0
H1760 H 0.57946 0.41079 0.14562 0.0
H1761 H 0.5767 0.4619 0.15674 0.0
H1762 H 0.66996 0.48098 0.16436 0.0
H1763 H 0.67327 0.43005 0.15292 0.0
C1764 C 0.65744 0.28401 0.20123 0.0
C1765 C 0.68705 0.2908 0.21021 0.0
C1766 C 0.6448 0.30003 0.18191 0.0
C1767 C 0.66121 0.32374 0.17108 0.0
C1768 C 0.69097 0.33063 0.17986 0.0
C1769 C 0.70387 0.31412 0.19902 0.0
C1770 C 0.64667 0.34105 0.15097 0.0
C1771 C 0.64485 0.37022 0.15707 0.0
C1772 C 0.63216 0.32801 0.1268 0.0
C1773 C 0.63534 0.29834 0.11784 0.0
C1774 C 0.66296 0.29158 0.11307 0.0
C1775 C 0.66594 0.2639 0.10359 0.0
C1776 C 0.64149 0.24265 0.09919 0.0
C1777 C 0.61394 0.2492 0.10395 0.0
C1778 C 0.6108 0.27701 0.11307 0.0
C1779 C 0.59677 0.42996 0.06718 0.0
C1780 C 0.56872 0.41858 0.05566 0.0
C1781 C 0.61108 0.41536 0.08664 0.0
C1782 C 0.59766 0.38914 0.09583 0.0
C1783 C 0.56935 0.37797 0.08484 0.0
C1784 C 0.55507 0.39246 0.06503 0.0
C1785 C 0.61371 0.37292 0.11591 0.0
C1786 C 0.61574 0.34383 0.10988 0.0
C1787 C 0.62852 0.38623 0.14002 0.0
C1788 C 0.6266 0.4166 0.14825 0.0
C1789 C 0.59938 0.42589 0.14967 0.0
C1790 C 0.59771 0.45484 0.15599 0.0
C1791 C 0.62314 0.47469 0.1612 0.0
C1792 C 0.65028 0.46558 0.16031 0.0
C1793 C 0.65206 0.43665 0.15395 0.0
H1794 H 0.62182 0.49713 0.16593 0.0
H1795 H 0.64389 0.22118 0.09197 0.0
H1796 H 0.70576 0.61866 0.24912 0.0
H1797 H 0.67684 0.57671 0.22456 0.0
H1798 H 0.62831 0.63314 0.18041 0.0
H1799 H 0.65553 0.67456 0.20574 0.0
H1800 H 0.59653 0.57867 0.18253 0.0
H1801 H 0.70116 0.62166 0.15905 0.0
H1802 H 0.75056 0.63253 0.18181 0.0
H1803 H 0.74391 0.54592 0.20736 0.0
H1804 H 0.69452 0.5345 0.18473 0.0
H1805 H 0.58478 0.5975 0.05298 0.0
H1806 H 0.61404 0.60154 0.09548 0.0
H1807 H 0.6163 0.51015 0.09091 0.0
H1808 H 0.58714 0.50581 0.04823 0.0
H1809 H 0.67076 0.55781 0.12093 0.0
H1810 H 0.57157 0.5109 0.12415 0.0
H1811 H 0.51982 0.5026 0.10743 0.0
H1812 H 0.51358 0.59131 0.12641 0.0
H1813 H 0.56543 0.60019 0.14292 0.0
C1814 C 0.68827 0.62197 0.23478 0.0
C1815 C 0.68357 0.64995 0.22869 0.0
C1816 C 0.67172 0.59799 0.22081 0.0
C1817 C 0.65118 0.60189 0.19996 0.0
C1818 C 0.64419 0.62955 0.19626 0.0
C1819 C 0.66011 0.65336 0.21059 0.0
C1820 C 0.64225 0.57981 0.17786 0.0
C1821 C 0.61264 0.57304 0.16946 0.0
C1822 C 0.66321 0.57184 0.16099 0.0
C1823 C 0.69446 0.57715 0.16997 0.0
C1824 C 0.71058 0.60479 0.16896 0.0
C1825 C 0.7384 0.61114 0.18207 0.0
C1826 C 0.75029 0.59003 0.1961 0.0
C1827 C 0.73463 0.56229 0.19659 0.0
C1828 C 0.70685 0.55577 0.18343 0.0
C1829 C 0.59245 0.5784 0.06033 0.0
C1830 C 0.58287 0.5512 0.04748 0.0
C1831 C 0.60927 0.58076 0.08464 0.0
C1832 C 0.61684 0.55605 0.09641 0.0
C1833 C 0.61063 0.52943 0.08208 0.0
C1834 C 0.59385 0.52705 0.05765 0.0
C1835 C 0.62507 0.55774 0.12543 0.0
C1836 C 0.65449 0.56123 0.13469 0.0
C1837 C 0.6038 0.56159 0.1435 0.0
C1838 C 0.57234 0.55621 0.13469 0.0
C1839 C 0.55915 0.52864 0.12469 0.0
C1840 C 0.52982 0.52383 0.11524 0.0
C1841 C 0.51343 0.54642 0.11583 0.0
C1842 C 0.5263 0.57383 0.12599 0.0
C1843 C 0.55564 0.57875 0.13546 0.0
H1844 H 0.49075 0.5427 0.10842 0.0
H1845 H 0.77174 0.59509 0.20639 0.0
H1846 H 0.30246 0.73253 0.19186 0.0
H1847 H 0.3291 0.70798 0.15973 0.0
H1848 H 0.31836 0.63201 0.20572 0.0
H1849 H 0.29036 0.65595 0.23679 0.0
H1850 H 0.37648 0.68806 0.16097 0.0
H1851 H 0.3187 0.58381 0.1834 0.0
H1852 H 0.27124 0.55354 0.18739 0.0
H1853 H 0.23351 0.59545 0.12215 0.0
H1854 H 0.28041 0.62693 0.11877 0.0
H1855 H 0.46 0.60062 0.08964 0.0
H1856 H 0.43314 0.6226 0.12295 0.0
H1857 H 0.35328 0.59647 0.07361 0.0
H1858 H 0.38003 0.5728 0.04103 0.0
H1859 H 0.33977 0.59077 0.11992 0.0
H1860 H 0.39489 0.67073 0.08193 0.0
H1861 H 0.43786 0.70208 0.06783 0.0
H1862 H 0.47486 0.71223 0.14905 0.0
H1863 H 0.43222 0.68067 0.1636 0.0
C1864 C 0.30583 0.7106 0.19513 0.0
C1865 C 0.29412 0.69623 0.21692 0.0
C1866 C 0.32099 0.69639 0.17659 0.0
C1867 C 0.3251 0.66741 0.17935 0.0
C1868 C 0.31439 0.65359 0.20187 0.0
C1869 C 0.29881 0.6676 0.2201 0.0
C1870 C 0.34166 0.65244 0.15946 0.0
C1871 C 0.36833 0.66687 0.15192 0.0
C1872 C 0.33142 0.62463 0.14725 0.0
C1873 C 0.30264 0.60839 0.15155 0.0
C1874 C 0.30002 0.58708 0.17046 0.0
C1875 C 0.27326 0.56971 0.17258 0.0
C1876 C 0.24927 0.57281 0.15524 0.0
C1877 C 0.252 0.59334 0.13581 0.0
C1878 C 0.27853 0.61124 0.13405 0.0
C1879 C 0.43669 0.59955 0.08584 0.0
C1880 C 0.42226 0.58502 0.06246 0.0
C1881 C 0.42126 0.61243 0.10492 0.0
C1882 C 0.39099 0.61211 0.10085 0.0
C1883 C 0.37653 0.59728 0.07755 0.0
C1884 C 0.39188 0.58373 0.05877 0.0
C1885 C 0.37441 0.62677 0.1209 0.0
C1886 C 0.34793 0.61218 0.12865 0.0
C1887 C 0.38438 0.65488 0.13255 0.0
C1888 C 0.41048 0.67312 0.12381 0.0
C1889 C 0.41235 0.67936 0.09673 0.0
C1890 C 0.4366 0.69725 0.08868 0.0
C1891 C 0.45911 0.70908 0.10753 0.0
C1892 C 0.45744 0.703 0.13447 0.0
C1893 C 0.43323 0.68512 0.14263 0.0
H1894 H 0.47781 0.72301 0.10127 0.0
H1895 H 0.22864 0.55919 0.15673 0.0
H1896 H 0.33537 0.32627 0.22103 0.0
H1897 H 0.36703 0.35505 0.19202 0.0
H1898 H 0.35063 0.28621 0.13104 0.0
H1899 H 0.31908 0.25699 0.1602 0.0
H1900 H 0.41776 0.34826 0.16736 0.0
H1901 H 0.34506 0.31984 0.06943 0.0
H1902 H 0.29353 0.30489 0.05351 0.0
H1903 H 0.26681 0.34249 0.1254 0.0
H1904 H 0.31815 0.35806 0.14154 0.0
H1905 H 0.48665 0.42036 0.05455 0.0
H1906 H 0.46501 0.38348 0.08416 0.0
H1907 H 0.39322 0.43031 0.09333 0.0
H1908 H 0.41431 0.4666 0.06459 0.0
H1909 H 0.37306 0.37486 0.08114 0.0
H1910 H 0.44619 0.42996 0.14374 0.0
H1911 H 0.49655 0.45069 0.1595 0.0
H1912 H 0.5206 0.36596 0.15976 0.0
H1913 H 0.4704 0.34474 0.14373 0.0
C1914 C 0.3386 0.31702 0.20154 0.0
C1915 C 0.32441 0.28915 0.19308 0.0
C1916 C 0.35696 0.33356 0.18496 0.0
C1917 C 0.36137 0.32304 0.15916 0.0
C1918 C 0.34766 0.29501 0.15077 0.0
C1919 C 0.32959 0.27823 0.16755 0.0
C1920 C 0.37881 0.34211 0.14068 0.0
C1921 C 0.40801 0.35379 0.14837 0.0
C1922 C 0.36639 0.34978 0.11589 0.0
C1923 C 0.33546 0.33976 0.10682 0.0
C1924 C 0.32818 0.32484 0.08186 0.0
C1925 C 0.29902 0.31632 0.07277 0.0
C1926 C 0.27694 0.32273 0.08844 0.0
C1927 C 0.28395 0.33748 0.11332 0.0
C1928 C 0.31308 0.34611 0.12247 0.0
C1929 C 0.46647 0.42293 0.06316 0.0
C1930 C 0.45226 0.44653 0.05673 0.0
C1931 C 0.45401 0.40175 0.08007 0.0
C1932 C 0.42709 0.40374 0.09087 0.0
C1933 C 0.41364 0.42778 0.0851 0.0
C1934 C 0.42597 0.44874 0.06854 0.0
C1935 C 0.41199 0.38105 0.10771 0.0
C1936 C 0.38309 0.36877 0.09979 0.0
C1937 C 0.42462 0.37315 0.13232 0.0
C1938 C 0.45463 0.3858 0.14233 0.0
C1939 C 0.46227 0.41577 0.14702 0.0
C1940 C 0.49076 0.4276 0.15602 0.0
C1941 C 0.51175 0.40965 0.16061 0.0
C1942 C 0.5043 0.37982 0.15621 0.0
C1943 C 0.47582 0.36788 0.1472 0.0
H1944 H 0.53375 0.41885 0.16768 0.0
H1945 H 0.25441 0.31645 0.08119 0.0
H1946 H 0.81051 0.63328 0.71289 0.0
H1947 H 0.82555 0.59723 0.6825 0.0
H1948 H 0.75006 0.60105 0.62881 0.0
H1949 H 0.73459 0.6368 0.65942 0.0
H1950 H 0.80152 0.54252 0.6491 0.0
H1951 H 0.78011 0.62396 0.5743 0.0
H1952 H 0.77152 0.67456 0.57271 0.0
H1953 H 0.82954 0.69716 0.64311 0.0
H1954 H 0.83865 0.64681 0.64486 0.0
H1955 H 0.87809 0.50616 0.53274 0.0
H1956 H 0.83831 0.51721 0.5592 0.0
H1957 H 0.89413 0.59192 0.596 0.0
H1958 H 0.9335 0.58141 0.56989 0.0
H1959 H 0.84132 0.6043 0.57816 0.0
H1960 H 0.88151 0.52998 0.62867 0.0
H1961 H 0.89339 0.48084 0.63334 0.0
H1962 H 0.80352 0.44536 0.61517 0.0
H1963 H 0.79118 0.49428 0.61019 0.0
C1964 C 0.79655 0.62557 0.69511 0.0
C1965 C 0.77172 0.63806 0.68815 0.0
C1966 C 0.80499 0.60478 0.67792 0.0
C1967 C 0.78895 0.59666 0.65343 0.0
C1968 C 0.76256 0.60697 0.64774 0.0
C1969 C 0.75388 0.6275 0.66513 0.0
C1970 C 0.8035 0.58389 0.63174 0.0
C1971 C 0.80975 0.55568 0.6332 0.0
C1972 C 0.81443 0.60128 0.61128 0.0
C1973 C 0.80983 0.6317 0.6098 0.0
C1974 C 0.79111 0.63981 0.58932 0.0
C1975 C 0.78614 0.66841 0.58842 0.0
C1976 C 0.79992 0.68905 0.60783 0.0
C1977 C 0.81883 0.68116 0.62812 0.0
C1978 C 0.82389 0.65262 0.62907 0.0
C1979 C 0.88183 0.52494 0.54647 0.0
C1980 C 0.90899 0.54294 0.54912 0.0
C1981 C 0.85912 0.53115 0.56158 0.0
C1982 C 0.86334 0.5554 0.57946 0.0
C1983 C 0.89039 0.57321 0.58214 0.0
C1984 C 0.91294 0.56708 0.5672 0.0
C1985 C 0.83998 0.56296 0.59564 0.0
C1986 C 0.83214 0.59048 0.59324 0.0
C1987 C 0.82804 0.54499 0.61537 0.0
C1988 C 0.83549 0.51571 0.61874 0.0
C1989 C 0.86433 0.51167 0.62551 0.0
C1990 C 0.87114 0.48388 0.62825 0.0
C1991 C 0.84925 0.46 0.62442 0.0
C1992 C 0.82047 0.46387 0.61805 0.0
C1993 C 0.81355 0.49161 0.6153 0.0
H1994 H 0.85455 0.4385 0.62639 0.0
H1995 H 0.796 0.71115 0.60714 0.0
H1996 H 0.37358 0.84162 0.74198 0.0
H1997 H 0.41898 0.86566 0.72631 0.0
H1998 H 0.38418 0.84604 0.6445 0.0
H1999 H 0.33923 0.82057 0.66022 0.0
H2000 H 0.44014 0.84058 0.64895 0.0
H2001 H 0.38076 0.91274 0.68006 0.0
H2002 H 0.35618 0.93663 0.71473 0.0
H2003 H 0.43648 0.95449 0.76398 0.0
H2004 H 0.46143 0.93048 0.72962 0.0
H2005 H 0.43597 0.97074 0.58232 0.0
H2006 H 0.43192 0.94521 0.62302 0.0
H2007 H 0.51688 0.92069 0.61586 0.0
H2008 H 0.52099 0.94624 0.57426 0.0
H2009 H 0.46061 0.94576 0.67131 0.0
H2010 H 0.50913 0.85148 0.63886 0.0
H2011 H 0.529 0.82984 0.59978 0.0
H2012 H 0.46411 0.85949 0.54739 0.0
H2013 H 0.4436 0.88084 0.58625 0.0
C2014 C 0.37566 0.84248 0.72063 0.0
C2015 C 0.35287 0.82977 0.70218 0.0
C2016 C 0.40166 0.85603 0.71176 0.0
C2017 C 0.40489 0.8578 0.68429 0.0
C2018 C 0.38222 0.84469 0.66583 0.0
C2019 C 0.35644 0.83055 0.67474 0.0
C2020 C 0.43048 0.8755 0.6744 0.0
C2021 C 0.44511 0.8635 0.65423 0.0
C2022 C 0.43778 0.90519 0.68192 0.0
C2023 C 0.42281 0.91951 0.70253 0.0
C2024 C 0.39309 0.92162 0.69837 0.0
C2025 C 0.37911 0.93519 0.71793 0.0
C2026 C 0.39474 0.94696 0.74159 0.0
C2027 C 0.42439 0.94528 0.74569 0.0
C2028 C 0.43846 0.9317 0.72619 0.0
C2029 C 0.45402 0.96025 0.5894 0.0
C2030 C 0.4785 0.95993 0.5747 0.0
C2031 C 0.45185 0.94595 0.61296 0.0
C2032 C 0.4741 0.93103 0.62245 0.0
C2033 C 0.49947 0.93205 0.60879 0.0
C2034 C 0.50165 0.94644 0.58497 0.0
C2035 C 0.46769 0.91132 0.64411 0.0
C2036 C 0.45707 0.92261 0.66711 0.0
C2037 C 0.46347 0.88117 0.63875 0.0
C2038 C 0.47505 0.86788 0.61535 0.0
C2039 C 0.49907 0.85324 0.61899 0.0
C2040 C 0.51041 0.84102 0.59691 0.0
C2041 C 0.49789 0.84336 0.57111 0.0
C2042 C 0.47382 0.85772 0.56737 0.0
C2043 C 0.46227 0.86979 0.58941 0.0
H2044 H 0.50684 0.83405 0.55404 0.0
H2045 H 0.38389 0.95746 0.75671 0.0
H2046 H 0.14037 0.27206 0.71359 0.0
H2047 H 0.10401 0.29668 0.68992 0.0
H2048 H 0.17221 0.36335 0.67023 0.0
H2049 H 0.20855 0.33863 0.69325 0.0
H2050 H 0.11575 0.38186 0.68496 0.0
H2051 H 0.15807 0.31116 0.62824 0.0
H2052 H 0.16664 0.26139 0.61823 0.0
H2053 H 0.07475 0.23158 0.61539 0.0
H2054 H 0.06574 0.28117 0.6258 0.0
H2055 H 0.11479 0.45058 0.56747 0.0
H2056 H 0.12039 0.4238 0.60742 0.0
H2057 H 0.04758 0.35995 0.57779 0.0
H2058 H 0.04281 0.38598 0.53693 0.0
H2059 H 0.08756 0.33388 0.59505 0.0
H2060 H 0.04377 0.40557 0.63609 0.0
H2061 H 0.03243 0.45428 0.64629 0.0
H2062 H 0.11959 0.48075 0.68104 0.0
H2063 H 0.13157 0.43236 0.67056 0.0
C2064 C 0.14743 0.29226 0.7046 0.0
C2065 C 0.17713 0.30336 0.70475 0.0
C2066 C 0.12671 0.30628 0.69128 0.0
C2067 C 0.13559 0.33172 0.67846 0.0
C2068 C 0.16506 0.3438 0.68022 0.0
C2069 C 0.18576 0.32959 0.69312 0.0
C2070 C 0.11541 0.34367 0.65977 0.0
C2071 C 0.10918 0.37144 0.66534 0.0
C2072 C 0.10582 0.32934 0.63476 0.0
C2073 C 0.11128 0.29971 0.62813 0.0
C2074 C 0.13974 0.29393 0.62568 0.0
C2075 C 0.14467 0.26578 0.61991 0.0
C2076 C 0.12126 0.24332 0.61627 0.0
C2077 C 0.09287 0.24898 0.61829 0.0
C2078 C 0.08784 0.27709 0.62414 0.0
C2079 C 0.09987 0.43091 0.56946 0.0
C2080 C 0.07844 0.42037 0.54899 0.0
C2081 C 0.10278 0.41581 0.59256 0.0
C2082 C 0.08387 0.39022 0.59602 0.0
C2083 C 0.06226 0.37975 0.57569 0.0
C2084 C 0.05969 0.39458 0.55229 0.0
C2085 C 0.08916 0.37307 0.61951 0.0
C2086 C 0.0927 0.34418 0.61489 0.0
C2087 C 0.09555 0.3862 0.64559 0.0
C2088 C 0.08857 0.41534 0.65238 0.0
C2089 C 0.06056 0.42186 0.6457 0.0
C2090 C 0.05402 0.4494 0.65157 0.0
C2091 C 0.07529 0.47062 0.66428 0.0
C2092 C 0.10312 0.46429 0.67121 0.0
C2093 C 0.10978 0.43677 0.66535 0.0
H2094 H 0.07021 0.49194 0.6688 0.0
H2095 H 0.12512 0.22154 0.6118 0.0
H2096 H 0.73118 0.2483 0.636 0.0
H2097 H 0.71668 0.21662 0.59566 0.0
H2098 H 0.67351 0.15173 0.64372 0.0
H2099 H 0.68717 0.18322 0.68381 0.0
H2100 H 0.71495 0.13343 0.60447 0.0
H2101 H 0.63239 0.18732 0.61364 0.0
H2102 H 0.61161 0.23262 0.61538 0.0
H2103 H 0.64318 0.25336 0.53898 0.0
H2104 H 0.66449 0.20831 0.53701 0.0
H2105 H 0.59755 0.03435 0.55209 0.0
H2106 H 0.64014 0.06674 0.57151 0.0
H2107 H 0.6387 0.11775 0.50178 0.0
H2108 H 0.5949 0.08594 0.48309 0.0
H2109 H 0.63324 0.14978 0.54137 0.0
H2110 H 0.70208 0.08817 0.52659 0.0
H2111 H 0.7244 0.04383 0.5243 0.0
H2112 H 0.72183 0.03752 0.6093 0.0
H2113 H 0.69883 0.08137 0.61202 0.0
C2114 C 0.71826 0.22743 0.63787 0.0
C2115 C 0.70998 0.21839 0.66302 0.0
C2116 C 0.71023 0.20934 0.61489 0.0
C2117 C 0.69435 0.18183 0.6169 0.0
C2118 C 0.68599 0.17285 0.6419 0.0
C2119 C 0.69348 0.19104 0.66472 0.0
C2120 C 0.68526 0.16237 0.59304 0.0
C2121 C 0.69702 0.13671 0.59064 0.0
C2122 C 0.66319 0.16773 0.57412 0.0
C2123 C 0.65038 0.19472 0.57537 0.0
C2124 C 0.63516 0.2017 0.59736 0.0
C2125 C 0.62323 0.22729 0.59836 0.0
C2126 C 0.62618 0.24592 0.57735 0.0
C2127 C 0.64099 0.23896 0.55527 0.0
C2128 C 0.65299 0.21341 0.55421 0.0
C2129 C 0.60718 0.05169 0.5404 0.0
C2130 C 0.59291 0.0581 0.5164 0.0
C2131 C 0.63168 0.07025 0.55145 0.0
C2132 C 0.6426 0.09502 0.53826 0.0
C2133 C 0.63049 0.09905 0.51251 0.0
C2134 C 0.60558 0.08089 0.50179 0.0
C2135 C 0.66148 0.11929 0.55368 0.0
C2136 C 0.65169 0.14624 0.55454 0.0
C2137 C 0.68552 0.11503 0.57109 0.0
C2138 C 0.69875 0.08817 0.5695 0.0
C2139 C 0.70603 0.07721 0.54477 0.0
C2140 C 0.71882 0.05214 0.54339 0.0
C2141 C 0.72454 0.03787 0.56664 0.0
C2142 C 0.71743 0.0486 0.59131 0.0
C2143 C 0.70456 0.0736 0.59278 0.0
H2144 H 0.73449 0.0185 0.56553 0.0
H2145 H 0.61692 0.26571 0.57815 0.0
H2146 H 0.77592 0.36091 0.27961 0.0
H2147 H 0.80693 0.39516 0.3109 0.0
H2148 H 0.78484 0.34067 0.37587 0.0
H2149 H 0.75354 0.30629 0.34484 0.0
H2150 H 0.80228 0.4028 0.39134 0.0
H2151 H 0.83498 0.32089 0.3456 0.0
H2152 H 0.8384 0.29039 0.30512 0.0
H2153 H 0.88068 0.36381 0.26708 0.0
H2154 H 0.87723 0.3948 0.30736 0.0
H2155 H 0.96496 0.3946 0.43408 0.0
H2156 H 0.91789 0.37633 0.41056 0.0
H2157 H 0.89676 0.46269 0.40962 0.0
H2158 H 0.94368 0.48106 0.43369 0.0
H2159 H 0.89885 0.38736 0.36242 0.0
H2160 H 0.82202 0.45851 0.40845 0.0
H2161 H 0.81812 0.48537 0.45101 0.0
H2162 H 0.86476 0.42694 0.49363 0.0
H2163 H 0.86854 0.39948 0.4514 0.0
C2164 C 0.77672 0.35669 0.3007 0.0
C2165 C 0.76312 0.33043 0.30964 0.0
C2166 C 0.79426 0.37645 0.31858 0.0
C2167 C 0.79853 0.37004 0.34549 0.0
C2168 C 0.78179 0.34589 0.35512 0.0
C2169 C 0.7641 0.32613 0.33726 0.0
C2170 C 0.82523 0.38359 0.36127 0.0
C2171 C 0.82346 0.39978 0.38502 0.0
C2172 C 0.85269 0.37881 0.35326 0.0
C2173 C 0.85563 0.36016 0.32934 0.0
C2174 C 0.8449 0.33052 0.32855 0.0
C2175 C 0.84683 0.31315 0.30565 0.0
C2176 C 0.85965 0.32516 0.28349 0.0
C2177 C 0.87071 0.35455 0.28425 0.0
C2178 C 0.86882 0.37201 0.30712 0.0
C2179 C 0.95025 0.40969 0.42899 0.0
C2180 C 0.95797 0.43926 0.4357 0.0
C2181 C 0.92337 0.39923 0.41558 0.0
C2182 C 0.90381 0.41814 0.40847 0.0
C2183 C 0.91135 0.44768 0.41531 0.0
C2184 C 0.93816 0.45814 0.42901 0.0
C2185 C 0.87623 0.40686 0.39271 0.0
C2186 C 0.87782 0.39091 0.36879 0.0
C2187 C 0.84874 0.41135 0.40105 0.0
C2188 C 0.8458 0.42714 0.4267 0.0
C2189 C 0.83129 0.4513 0.42692 0.0
C2190 C 0.82913 0.46665 0.45099 0.0
C2191 C 0.84128 0.45793 0.475 0.0
C2192 C 0.85545 0.43373 0.47501 0.0
C2193 C 0.85762 0.41829 0.45101 0.0
H2194 H 0.83966 0.46989 0.49359 0.0
H2195 H 0.86109 0.31169 0.26576 0.0
H2196 H 0.67763 0.74908 0.28128 0.0
H2197 H 0.64943 0.77932 0.30677 0.0
H2198 H 0.7133 0.78438 0.37372 0.0
H2199 H 0.742 0.75527 0.34804 0.0
H2200 H 0.66437 0.77992 0.3926 0.0
H2201 H 0.70814 0.84159 0.32606 0.0
H2202 H 0.71754 0.85378 0.27979 0.0
H2203 H 0.62583 0.84927 0.25998 0.0
H2204 H 0.61596 0.83761 0.30629 0.0
H2205 H 0.62457 0.93137 0.43047 0.0
H2206 H 0.64976 0.90043 0.40248 0.0
H2207 H 0.58346 0.82821 0.41268 0.0
H2208 H 0.55827 0.85875 0.44054 0.0
H2209 H 0.63436 0.86788 0.35484 0.0
H2210 H 0.61542 0.76743 0.41781 0.0
H2211 H 0.6084 0.75522 0.46455 0.0
H2212 H 0.65524 0.83789 0.4924 0.0
H2213 H 0.66294 0.85042 0.44586 0.0
C2214 C 0.68592 0.75712 0.30124 0.0
C2215 C 0.71244 0.75028 0.31232 0.0
C2216 C 0.66974 0.77445 0.3159 0.0
C2217 C 0.67969 0.78532 0.34205 0.0
C2218 C 0.70553 0.77727 0.35342 0.0
C2219 C 0.72186 0.76038 0.3387 0.0
C2220 C 0.66369 0.80516 0.3577 0.0
C2221 C 0.65775 0.79905 0.38418 0.0
C2222 C 0.65523 0.83054 0.34718 0.0
C2223 C 0.66133 0.83884 0.31968 0.0
C2224 C 0.69002 0.8435 0.31193 0.0
C2225 C 0.69543 0.85031 0.28567 0.0
C2226 C 0.6723 0.8525 0.26699 0.0
C2227 C 0.64374 0.84787 0.27452 0.0
C2228 C 0.63824 0.84132 0.30081 0.0
C2229 C 0.61527 0.90892 0.42674 0.0
C2230 C 0.58932 0.89771 0.43802 0.0
C2231 C 0.62968 0.89124 0.41057 0.0
C2232 C 0.61875 0.8618 0.4055 0.0
C2233 C 0.59264 0.8507 0.4164 0.0
C2234 C 0.57816 0.86834 0.43237 0.0
C2235 C 0.63492 0.84241 0.38959 0.0
C2236 C 0.64092 0.84867 0.36314 0.0
C2237 C 0.64377 0.8173 0.40022 0.0
C2238 C 0.63949 0.80994 0.42832 0.0
C2239 C 0.6243 0.78296 0.43391 0.0
C2240 C 0.62021 0.77599 0.46037 0.0
C2241 C 0.63133 0.79579 0.48142 0.0
C2242 C 0.64659 0.8226 0.47606 0.0
C2243 C 0.65079 0.82966 0.44965 0.0
H2244 H 0.62819 0.7903 0.50188 0.0
H2245 H 0.6765 0.85777 0.24668 0.0
H2246 H 0.15166 0.67099 0.28316 0.0
H2247 H 0.11505 0.65505 0.31418 0.0
H2248 H 0.14205 0.7332 0.36346 0.0
H2249 H 0.17921 0.74881 0.33279 0.0
H2250 H 0.14418 0.68879 0.39178 0.0
H2251 H 0.07117 0.71747 0.33334 0.0
H2252 H 0.04277 0.72317 0.2911 0.0
H2253 H 0.01925 0.63132 0.28043 0.0
H2254 H 0.04812 0.62505 0.32222 0.0
H2255 H 0.06161 0.60483 0.48064 0.0
H2256 H 0.06912 0.64659 0.45248 0.0
H2257 H 0.0669 0.58902 0.38277 0.0
H2258 H 0.05926 0.54757 0.41089 0.0
H2259 H 0.04358 0.63789 0.37099 0.0
H2260 H 0.12905 0.6112 0.42168 0.0
H2261 H 0.15699 0.60457 0.46397 0.0
H2262 H 0.15793 0.69347 0.48794 0.0
H2263 H 0.12909 0.70035 0.44619 0.0
C2264 C 0.1494 0.68492 0.30039 0.0
C2265 C 0.16844 0.71079 0.30595 0.0
C2266 C 0.12825 0.67601 0.31793 0.0
C2267 C 0.12562 0.69309 0.34104 0.0
C2268 C 0.14366 0.71975 0.34573 0.0
C2269 C 0.16496 0.72852 0.32833 0.0
C2270 C 0.10765 0.68082 0.3622 0.0
C2271 C 0.12183 0.67848 0.38746 0.0
C2272 C 0.07858 0.66718 0.35657 0.0
C2273 C 0.06177 0.6708 0.33101 0.0
C2274 C 0.06015 0.69847 0.32188 0.0
C2275 C 0.04396 0.70181 0.298 0.0
C2276 C 0.02919 0.67763 0.28309 0.0
C2277 C 0.03065 0.65005 0.292 0.0
C2278 C 0.0469 0.6466 0.3158 0.0
C2279 C 0.06237 0.60136 0.45924 0.0
C2280 C 0.06075 0.57347 0.4477 0.0
C2281 C 0.06634 0.62504 0.44322 0.0
C2282 C 0.06896 0.62081 0.41567 0.0
C2283 C 0.06495 0.5927 0.404 0.0
C2284 C 0.06098 0.56912 0.41999 0.0
C2285 C 0.08075 0.64479 0.39959 0.0
C2286 C 0.06548 0.64927 0.37545 0.0
C2287 C 0.10893 0.66032 0.40609 0.0
C2288 C 0.12651 0.65617 0.43104 0.0
C2289 C 0.13495 0.62925 0.43611 0.0
C2290 C 0.15088 0.62543 0.46001 0.0
C2291 C 0.15901 0.64853 0.47875 0.0
C2292 C 0.15133 0.67552 0.47356 0.0
C2293 C 0.13512 0.67937 0.44982 0.0
H2294 H 0.17141 0.64557 0.49721 0.0
H2295 H 0.01661 0.68027 0.26465 0.0
H2296 H 0.29401 0.17547 0.26725 0.0
H2297 H 0.31976 0.13996 0.29019 0.0
H2298 H 0.36467 0.20756 0.34506 0.0
H2299 H 0.33939 0.24264 0.32237 0.0
H2300 H 0.40151 0.17102 0.32728 0.0
H2301 H 0.30295 0.16198 0.35666 0.0
H2302 H 0.25009 0.15031 0.3457 0.0
H2303 H 0.25903 0.06297 0.32404 0.0
H2304 H 0.31227 0.07464 0.33271 0.0
H2305 H 0.46064 0.11251 0.43983 0.0
H2306 H 0.43463 0.13704 0.40674 0.0
H2307 H 0.38144 0.05655 0.37993 0.0
H2308 H 0.40668 0.03191 0.41482 0.0
H2309 H 0.3478 0.09301 0.37626 0.0
H2310 H 0.4397 0.09631 0.34194 0.0
H2311 H 0.49281 0.104 0.33915 0.0
H2312 H 0.49657 0.19385 0.36095 0.0
H2313 H 0.44341 0.1867 0.36396 0.0
C2314 C 0.3097 0.18274 0.28394 0.0
C2315 C 0.3147 0.212 0.29284 0.0
C2316 C 0.3243 0.16238 0.29721 0.0
C2317 C 0.3442 0.17088 0.31966 0.0
C2318 C 0.34958 0.20023 0.32793 0.0
C2319 C 0.33497 0.22035 0.31489 0.0
C2320 C 0.35918 0.1498 0.33534 0.0
C2321 C 0.38973 0.1541 0.33815 0.0
C2322 C 0.344 0.12659 0.34852 0.0
C2323 C 0.31179 0.11932 0.34499 0.0
C2324 C 0.29377 0.14035 0.34925 0.0
C2325 C 0.26371 0.13377 0.34332 0.0
C2326 C 0.25118 0.10588 0.33438 0.0
C2327 C 0.26875 0.08458 0.331 0.0
C2328 C 0.29892 0.09124 0.33615 0.0
C2329 C 0.44377 0.0997 0.42673 0.0
C2330 C 0.4363 0.06992 0.43002 0.0
C2331 C 0.4288 0.11392 0.40743 0.0
C2332 C 0.40627 0.0989 0.38981 0.0
C2333 C 0.39872 0.06899 0.39292 0.0
C2334 C 0.41338 0.05475 0.41283 0.0
C2335 C 0.39044 0.11487 0.36906 0.0
C2336 C 0.35975 0.10971 0.36531 0.0
C2337 C 0.40545 0.13666 0.35403 0.0
C2338 C 0.43757 0.14092 0.35329 0.0
C2339 C 0.45188 0.11766 0.34639 0.0
C2340 C 0.482 0.12195 0.34471 0.0
C2341 C 0.49806 0.14942 0.34987 0.0
C2342 C 0.48408 0.17261 0.35692 0.0
C2343 C 0.45394 0.16847 0.35854 0.0
H2344 H 0.52129 0.15284 0.34822 0.0
H2345 H 0.22787 0.10076 0.33008 0.0
H2346 H 0.73192 0.76895 0.64863 0.0
H2347 H 0.70367 0.8016 0.62563 0.0
H2348 H 0.6726 0.82705 0.70063 0.0
H2349 H 0.70097 0.79395 0.72388 0.0
H2350 H 0.64594 0.80213 0.6196 0.0
H2351 H 0.66004 0.89749 0.69681 0.0
H2352 H 0.695 0.91861 0.73414 0.0
H2353 H 0.76461 0.88819 0.69506 0.0
H2354 H 0.73014 0.86715 0.65743 0.0
H2355 H 0.54792 0.89397 0.57503 0.0
H2356 H 0.57537 0.86806 0.60673 0.0
H2357 H 0.6551 0.92041 0.58907 0.0
H2358 H 0.62769 0.9468 0.55756 0.0
H2359 H 0.65728 0.90714 0.64241 0.0
H2360 H 0.63357 0.85471 0.55683 0.0
H2361 H 0.59923 0.83325 0.51927 0.0
H2362 H 0.55249 0.77756 0.5727 0.0
H2363 H 0.58623 0.79913 0.61069 0.0
C2364 C 0.71913 0.78148 0.66036 0.0
C2365 C 0.71881 0.77869 0.68822 0.0
C2366 C 0.70282 0.80017 0.64707 0.0
C2367 C 0.68577 0.81699 0.66117 0.0
C2368 C 0.68564 0.81458 0.68914 0.0
C2369 C 0.70195 0.79564 0.70251 0.0
C2370 C 0.66819 0.83667 0.6463 0.0
C2371 C 0.64838 0.82504 0.62479 0.0
C2372 C 0.67132 0.86675 0.65259 0.0
C2373 C 0.69246 0.88058 0.67443 0.0
C2374 C 0.68284 0.89551 0.69611 0.0
C2375 C 0.70256 0.9074 0.71734 0.0
C2376 C 0.73198 0.90466 0.71701 0.0
C2377 C 0.7418 0.89022 0.69534 0.0
C2378 C 0.72218 0.8783 0.67407 0.0
C2379 C 0.57124 0.9004 0.57816 0.0
C2380 C 0.58547 0.92243 0.56334 0.0
C2381 C 0.587 0.88541 0.59633 0.0
C2382 C 0.61755 0.89169 0.60007 0.0
C2383 C 0.63163 0.91492 0.58664 0.0
C2384 C 0.61584 0.93008 0.56853 0.0
C2385 C 0.6348 0.87247 0.61594 0.0
C2386 C 0.65463 0.88417 0.63747 0.0
C2387 C 0.63191 0.84241 0.60957 0.0
C2388 C 0.61232 0.82864 0.58661 0.0
C2389 C 0.61594 0.83792 0.56057 0.0
C2390 C 0.59656 0.82577 0.53921 0.0
C2391 C 0.57372 0.80403 0.54359 0.0
C2392 C 0.57023 0.79436 0.56933 0.0
C2393 C 0.58947 0.80655 0.59078 0.0
H2394 H 0.55872 0.79466 0.52703 0.0
H2395 H 0.74717 0.91375 0.73354 0.0
H2396 H 0.67716 0.15943 0.31245 0.0
H2397 H 0.63442 0.13007 0.32777 0.0
H2398 H 0.59659 0.20667 0.34473 0.0
H2399 H 0.63976 0.23637 0.32962 0.0
H2400 H 0.5913 0.16977 0.38446 0.0
H2401 H 0.56609 0.1639 0.29223 0.0
H2402 H 0.57325 0.15969 0.24407 0.0
H2403 H 0.59299 0.07398 0.25256 0.0
H2404 H 0.58643 0.07779 0.30083 0.0
H2405 H 0.49558 0.04018 0.4192 0.0
H2406 H 0.50083 0.07833 0.38725 0.0
H2407 H 0.59076 0.06838 0.38177 0.0
H2408 H 0.58588 0.03041 0.41343 0.0
H2409 H 0.54616 0.08189 0.33007 0.0
H2410 H 0.6072 0.13762 0.42422 0.0
H2411 H 0.60244 0.14216 0.47282 0.0
H2412 H 0.50948 0.13054 0.45912 0.0
H2413 H 0.51366 0.12694 0.4103 0.0
C2414 C 0.65988 0.17002 0.31971 0.0
C2415 C 0.6616 0.20004 0.3199 0.0
C2416 C 0.63532 0.15326 0.32806 0.0
C2417 C 0.61202 0.16624 0.33649 0.0
C2418 C 0.61419 0.19633 0.3378 0.0
C2419 C 0.63888 0.2132 0.32945 0.0
C2420 C 0.58646 0.14789 0.34548 0.0
C2421 C 0.58055 0.15109 0.37232 0.0
C2422 C 0.57204 0.12389 0.32938 0.0
C2423 C 0.5757 0.12115 0.30022 0.0
C2424 C 0.57207 0.14418 0.28386 0.0
C2425 C 0.57603 0.14187 0.25653 0.0
C2426 C 0.58355 0.11658 0.24526 0.0
C2427 C 0.58709 0.09353 0.26131 0.0
C2428 C 0.58317 0.09573 0.28866 0.0
C2429 C 0.5163 0.0457 0.41074 0.0
C2430 C 0.54058 0.03289 0.41939 0.0
C2431 C 0.51916 0.06738 0.39246 0.0
C2432 C 0.54628 0.07628 0.38276 0.0
C2433 C 0.56969 0.06168 0.38932 0.0
C2434 C 0.56688 0.04005 0.40746 0.0
C2435 C 0.55242 0.10326 0.36917 0.0
C2436 C 0.55532 0.10154 0.34161 0.0
C2437 C 0.56353 0.12894 0.38442 0.0
C2438 C 0.56075 0.13159 0.41366 0.0
C2439 C 0.58573 0.13615 0.43157 0.0
C2440 C 0.58313 0.1386 0.45913 0.0
C2441 C 0.55564 0.13632 0.46904 0.0
C2442 C 0.5307 0.13201 0.45137 0.0
C2443 C 0.53318 0.12983 0.42376 0.0
H2444 H 0.55368 0.13803 0.4904 0.0
H2445 H 0.58664 0.11484 0.2241 0.0
H2446 H 0.80707 0.64248 0.32675 0.0
H2447 H 0.85115 0.62867 0.34848 0.0
H2448 H 0.89987 0.65932 0.28251 0.0
H2449 H 0.85563 0.67287 0.26044 0.0
H2450 H 0.91697 0.60957 0.30271 0.0
H2451 H 0.90728 0.70281 0.33397 0.0
H2452 H 0.88196 0.74199 0.3499 0.0
H2453 H 0.8618 0.69671 0.42057 0.0
H2454 H 0.88654 0.65701 0.40486 0.0
H2455 H 0.99912 0.612 0.44794 0.0
H2456 H 0.9889 0.63793 0.40785 0.0
H2457 H 0.93129 0.56267 0.37419 0.0
H2458 H 0.94187 0.53661 0.41345 0.0
H2459 H 0.93808 0.65115 0.39576 0.0
H2460 H 0.92229 0.55942 0.30887 0.0
H2461 H 0.95035 0.52288 0.29217 0.0
H2462 H 0.0289 0.57037 0.33106 0.0
H2463 H 1.00145 0.60753 0.34753 0.0
C2464 C 0.82702 0.64567 0.31663 0.0
C2465 C 0.82816 0.65896 0.29217 0.0
C2466 C 0.85217 0.63798 0.32908 0.0
C2467 C 0.87879 0.64368 0.31731 0.0
C2468 C 0.87955 0.65503 0.29194 0.0
C2469 C 0.85432 0.66271 0.27943 0.0
C2470 C 0.90578 0.63928 0.33261 0.0
C2471 C 0.92197 0.61874 0.32297 0.0
C2472 C 0.91334 0.65285 0.3583 0.0
C2473 C 0.89878 0.67688 0.36819 0.0
C2474 C 0.89734 0.70113 0.35285 0.0
C2475 C 0.88308 0.72344 0.36185 0.0
C2476 C 0.87029 0.72184 0.38623 0.0
C2477 C 0.87177 0.69794 0.4017 0.0
C2478 C 0.88596 0.67554 0.39278 0.0
C2479 C 0.98474 0.60084 0.43173 0.0
C2480 C 0.97079 0.57246 0.4341 0.0
C2481 C 0.97907 0.61563 0.4088 0.0
C2482 C 0.95946 0.60222 0.38797 0.0
C2483 C 0.94697 0.57334 0.38971 0.0
C2484 C 0.95268 0.55857 0.41246 0.0
C2485 C 0.94745 0.61918 0.3669 0.0
C2486 C 0.93405 0.64246 0.37526 0.0
C2487 C 0.94314 0.60864 0.33986 0.0
C2488 C 0.95975 0.58641 0.32945 0.0
C2489 C 0.94559 0.56232 0.31362 0.0
C2490 C 0.9614 0.54141 0.30424 0.0
C2491 C 0.99139 0.54431 0.31052 0.0
C2492 C 1.00566 0.56813 0.32619 0.0
C2493 C 0.98998 0.58912 0.33557 0.0
H2494 H 1.00357 0.52806 0.30327 0.0
H2495 H 0.85924 0.73913 0.39315 0.0
H2496 H 0.34104 0.80956 0.29757 0.0
H2497 H 0.36358 0.83274 0.33939 0.0
H2498 H 0.30567 0.77506 0.38344 0.0
H2499 H 0.28198 0.7523 0.34125 0.0
H2500 H 0.30619 0.82629 0.4026 0.0
H2501 H 0.38087 0.7731 0.38695 0.0
H2502 H 0.4165 0.75053 0.3626 0.0
H2503 H 0.46145 0.83405 0.34695 0.0
H2504 H 0.42586 0.85717 0.37084 0.0
H2505 H 0.4262 0.89645 0.50495 0.0
H2506 H 0.38679 0.86294 0.48112 0.0
H2507 H 0.38265 0.92216 0.41803 0.0
H2508 H 0.42158 0.95606 0.44206 0.0
H2509 H 0.41209 0.85972 0.41854 0.0
H2510 H 0.32825 0.91123 0.42444 0.0
H2511 H 0.29127 0.93233 0.44823 0.0
H2512 H 0.26389 0.85097 0.48184 0.0
H2513 H 0.30103 0.82949 0.45843 0.0
C2514 C 0.33344 0.80126 0.31608 0.0
C2515 C 0.30968 0.77906 0.31601 0.0
C2516 C 0.34651 0.81449 0.34011 0.0
C2517 C 0.33665 0.80538 0.36468 0.0
C2518 C 0.31372 0.78237 0.36476 0.0
C2519 C 0.3003 0.76933 0.34061 0.0
C2520 C 0.34865 0.82205 0.38972 0.0
C2521 C 0.32936 0.8334 0.40611 0.0
C2522 C 0.37896 0.83064 0.39508 0.0
C2523 C 0.40057 0.81689 0.38067 0.0
C2524 C 0.39824 0.78668 0.37818 0.0
C2525 C 0.41846 0.77378 0.36447 0.0
C2526 C 0.44121 0.79084 0.35322 0.0
C2527 C 0.44383 0.82085 0.3557 0.0
C2528 C 0.42366 0.83387 0.36938 0.0
C2529 C 0.41562 0.90305 0.4868 0.0
C2530 C 0.4271 0.92852 0.47503 0.0
C2531 C 0.39308 0.88393 0.47326 0.0
C2532 C 0.38199 0.89012 0.44786 0.0
C2533 C 0.39072 0.91727 0.43784 0.0
C2534 C 0.41297 0.93664 0.45158 0.0
C2535 C 0.36938 0.86603 0.42899 0.0
C2536 C 0.38888 0.85266 0.4146 0.0
C2537 C 0.33935 0.85582 0.42535 0.0
C2538 C 0.31786 0.86896 0.44022 0.0
C2539 C 0.31477 0.89801 0.43735 0.0
C2540 C 0.29364 0.90998 0.4506 0.0
C2541 C 0.27537 0.89306 0.46669 0.0
C2542 C 0.27815 0.8641 0.46948 0.0
C2543 C 0.29922 0.85201 0.45622 0.0
H2544 H 0.25898 0.90235 0.47689 0.0
H2545 H 0.45684 0.78081 0.34261 0.0
H2546 H 0.29643 0.36512 0.3068 0.0
H2547 H 0.28633 0.40774 0.33228 0.0
H2548 H 0.19484 0.3847 0.30816 0.0
H2549 H 0.20485 0.3425 0.28261 0.0
H2550 H 0.21167 0.44341 0.31136 0.0
H2551 H 0.22455 0.35933 0.36533 0.0
H2552 H 0.25435 0.32423 0.38336 0.0
H2553 H 0.3188 0.39351 0.41714 0.0
H2554 H 0.28945 0.42899 0.39904 0.0
H2555 H 0.10814 0.43481 0.40053 0.0
H2556 H 0.14594 0.4307 0.37026 0.0
H2557 H 0.20941 0.48166 0.42633 0.0
H2558 H 0.17127 0.48615 0.45707 0.0
H2559 H 0.22535 0.42953 0.40871 0.0
H2560 H 0.19699 0.51073 0.36931 0.0
H2561 H 0.16375 0.5432 0.35238 0.0
H2562 H 0.12624 0.47902 0.29153 0.0
H2563 H 0.15885 0.44595 0.30833 0.0
C2564 C 0.27427 0.36958 0.30655 0.0
C2565 C 0.25129 0.35042 0.29319 0.0
C2566 C 0.26858 0.39391 0.32101 0.0
C2567 C 0.23984 0.39919 0.32227 0.0
C2568 C 0.2172 0.38108 0.30736 0.0
C2569 C 0.22287 0.35684 0.29297 0.0
C2570 C 0.23221 0.42065 0.34182 0.0
C2571 C 0.21493 0.44081 0.33269 0.0
C2572 C 0.23756 0.41801 0.36966 0.0
C2573 C 0.25506 0.39673 0.38059 0.0
C2574 C 0.24517 0.36703 0.37648 0.0
C2575 C 0.26195 0.34709 0.38671 0.0
C2576 C 0.2885 0.35664 0.40131 0.0
C2577 C 0.29828 0.38615 0.40577 0.0
C2578 C 0.28159 0.40618 0.39553 0.0
C2579 C 0.13007 0.4453 0.4065 0.0
C2580 C 0.13677 0.46061 0.4313 0.0
C2581 C 0.15159 0.44325 0.38899 0.0
C2582 C 0.18031 0.45636 0.39588 0.0
C2583 C 0.18724 0.47177 0.42057 0.0
C2584 C 0.1655 0.47417 0.43808 0.0
C2585 C 0.20303 0.45075 0.37813 0.0
C2586 C 0.22325 0.43353 0.38755 0.0
C2587 C 0.20017 0.45599 0.35057 0.0
C2588 C 0.1805 0.47583 0.3401 0.0
C2589 C 0.18157 0.50346 0.35239 0.0
C2590 C 0.16282 0.52199 0.34281 0.0
C2591 C 0.14291 0.51319 0.32088 0.0
C2592 C 0.14172 0.48584 0.30848 0.0
C2593 C 0.1604 0.46721 0.31799 0.0
H2594 H 0.12841 0.52756 0.3135 0.0
H2595 H 0.30147 0.34117 0.40922 0.0
H2596 H 0.3367 0.23949 0.70686 0.0
H2597 H 0.36711 0.21154 0.68093 0.0
H2598 H 0.29002 0.15701 0.64626 0.0
H2599 H 0.25977 0.18604 0.67053 0.0
H2600 H 0.337 0.12631 0.66313 0.0
H2601 H 0.31797 0.20547 0.60981 0.0
H2602 H 0.31759 0.25672 0.60132 0.0
H2603 H 0.41053 0.27372 0.61625 0.0
H2604 H 0.41137 0.22256 0.62524 0.0
H2605 H 0.38793 0.05605 0.55138 0.0
H2606 H 0.36147 0.08305 0.58148 0.0
H2607 H 0.43765 0.14728 0.59747 0.0
H2608 H 0.464 0.12077 0.56686 0.0
H2609 H 0.39302 0.1738 0.59227 0.0
H2610 H 0.41345 0.09493 0.64361 0.0
H2611 H 0.41469 0.04414 0.65357 0.0
H2612 H 0.32137 0.02683 0.64466 0.0
H2613 H 0.31957 0.07745 0.63426 0.0
C2614 C 0.32632 0.22155 0.69367 0.0
C2615 C 0.2958 0.21511 0.69053 0.0
C2616 C 0.34368 0.20558 0.67885 0.0
C2617 C 0.33087 0.18226 0.66131 0.0
C2618 C 0.30046 0.17504 0.6593 0.0
C2619 C 0.28317 0.19164 0.67323 0.0
C2620 C 0.34878 0.16612 0.64409 0.0
C2621 C 0.3491 0.13662 0.64751 0.0
C2622 C 0.3651 0.17957 0.62401 0.0
C2623 C 0.36469 0.21028 0.61852 0.0
C2624 C 0.33829 0.22018 0.61153 0.0
C2625 C 0.33799 0.2492 0.60658 0.0
C2626 C 0.36401 0.26849 0.60833 0.0
C2627 C 0.39039 0.25876 0.61496 0.0
C2628 C 0.39078 0.22975 0.61998 0.0
C2629 C 0.39916 0.07588 0.5613 0.0
C2630 C 0.42829 0.08602 0.55657 0.0
C2631 C 0.38397 0.09132 0.57874 0.0
C2632 C 0.39751 0.11719 0.59232 0.0
C2633 C 0.42651 0.12745 0.58744 0.0
C2634 C 0.44166 0.11213 0.56988 0.0
C2635 C 0.38138 0.13373 0.61118 0.0
C2636 C 0.38124 0.16337 0.60802 0.0
C2637 C 0.36544 0.12041 0.63169 0.0
C2638 C 0.3664 0.08993 0.63788 0.0
C2639 C 0.3932 0.08024 0.64356 0.0
C2640 C 0.394 0.05149 0.64932 0.0
C2641 C 0.36813 0.03225 0.64968 0.0
C2642 C 0.34139 0.04175 0.64433 0.0
C2643 C 0.34047 0.07047 0.63852 0.0
H2644 H 0.36879 0.01 0.65416 0.0
H2645 H 0.36375 0.29096 0.60447 0.0
H2646 H 0.87055 0.31328 0.71215 0.0
H2647 H 0.91282 0.32953 0.68709 0.0
H2648 H 0.85598 0.3324 0.61598 0.0
H2649 H 0.8135 0.31691 0.64115 0.0
H2650 H 0.91081 0.3027 0.61242 0.0
H2651 H 0.8744 0.39079 0.64312 0.0
H2652 H 0.86134 0.42389 0.67813 0.0
H2653 H 0.9473 0.43087 0.71695 0.0
H2654 H 0.96071 0.39745 0.68231 0.0
H2655 H 0.94326 0.39963 0.51674 0.0
H2656 H 0.93035 0.3645 0.54997 0.0
H2657 H 1.00534 0.40259 0.60147 0.0
H2658 H 0.01844 0.43793 0.56797 0.0
H2659 H 0.95669 0.40507 0.62459 0.0
H2660 H 0.99723 0.33106 0.58502 0.0
H2661 H 0.01195 0.2988 0.55029 0.0
H2662 H 0.92242 0.26407 0.5291 0.0
H2663 H 0.90706 0.29654 0.5633 0.0
C2664 C 0.86713 0.31747 0.69117 0.0
C2665 C 0.83893 0.31414 0.67848 0.0
C2666 C 0.89122 0.32655 0.67695 0.0
C2667 C 0.88733 0.33183 0.64978 0.0
C2668 C 0.85922 0.32811 0.63696 0.0
C2669 C 0.83507 0.3196 0.65132 0.0
C2670 C 0.91236 0.3429 0.63491 0.0
C2671 C 0.921 0.32504 0.6149 0.0
C2672 C 0.92658 0.37152 0.63947 0.0
C2673 C 0.91838 0.39125 0.66043 0.0
C2674 C 0.89038 0.39908 0.65933 0.0
C2675 C 0.88295 0.41798 0.67904 0.0
C2676 C 0.90344 0.42938 0.69982 0.0
C2677 C 0.93142 0.42195 0.7009 0.0
C2678 C 0.93894 0.40302 0.68124 0.0
C2679 C 0.95748 0.39989 0.5348 0.0
C2680 C 0.9816 0.42149 0.54006 0.0
C2681 C 0.95033 0.3796 0.55366 0.0
C2682 C 0.96702 0.38083 0.57817 0.0
C2683 C 0.99239 0.40115 0.58259 0.0
C2684 C 0.99977 0.42131 0.56352 0.0
C2685 C 0.9541 0.36545 0.60061 0.0
C2686 C 0.94756 0.3824 0.6224 0.0
C2687 C 0.94208 0.33592 0.59773 0.0
C2688 C 0.95098 0.31643 0.57675 0.0
C2689 C 0.98063 0.31678 0.57279 0.0
C2690 C 0.9891 0.29841 0.55319 0.0
C2691 C 0.96812 0.27946 0.53744 0.0
C2692 C 0.93864 0.27882 0.54128 0.0
C2693 C 0.93004 0.29717 0.56083 0.0
H2694 H 0.97472 0.26519 0.52233 0.0
H2695 H 0.89766 0.44405 0.71504 0.0
H2696 H 0.23085 0.66253 0.70762 0.0
H2697 H 0.21238 0.62987 0.66939 0.0
H2698 H 0.2471 0.69357 0.61574 0.0
H2699 H 0.26555 0.72664 0.65403 0.0
H2700 H 0.18979 0.67722 0.60564 0.0
H2701 H 0.27155 0.62896 0.61597 0.0
H2702 H 0.3093 0.60592 0.63977 0.0
H2703 H 0.24368 0.54052 0.66491 0.0
H2704 H 0.20547 0.56338 0.64163 0.0
H2705 H 0.0979 0.58497 0.51254 0.0
H2706 H 0.14495 0.61038 0.53169 0.0
H2707 H 0.13596 0.56114 0.60238 0.0
H2708 H 0.08976 0.53454 0.58235 0.0
H2709 H 0.19118 0.57215 0.59329 0.0
H2710 H 0.11183 0.6294 0.597 0.0
H2711 H 0.07232 0.65316 0.57698 0.0
H2712 H 0.13262 0.70193 0.5289 0.0
H2713 H 0.17242 0.67804 0.54829 0.0
C2714 C 0.23518 0.6694 0.68774 0.0
C2715 C 0.24931 0.69732 0.68385 0.0
C2716 C 0.22485 0.65056 0.66587 0.0
C2717 C 0.22851 0.65924 0.63972 0.0
C2718 C 0.2442 0.68643 0.63579 0.0
C2719 C 0.25472 0.70528 0.65771 0.0
C2720 C 0.2118 0.64181 0.61701 0.0
C2721 C 0.19075 0.65442 0.6023 0.0
C2722 C 0.21269 0.61199 0.61308 0.0
C2723 C 0.2356 0.59798 0.62706 0.0
C2724 C 0.26513 0.60977 0.62671 0.0
C2725 C 0.28663 0.59671 0.6401 0.0
C2726 C 0.27889 0.57178 0.65385 0.0
C2727 C 0.24964 0.55982 0.65422 0.0
C2728 C 0.22805 0.57279 0.64088 0.0
C2729 C 0.10642 0.57926 0.5319 0.0
C2730 C 0.09043 0.55822 0.54627 0.0
C2731 C 0.13318 0.59378 0.54285 0.0
C2732 C 0.14365 0.58815 0.56874 0.0
C2733 C 0.12831 0.56588 0.5824 0.0
C2734 C 0.1019 0.55086 0.57112 0.0
C2735 C 0.16853 0.60739 0.58296 0.0
C2736 C 0.19101 0.59514 0.59599 0.0
C2737 C 0.16881 0.63755 0.58571 0.0
C2738 C 0.14497 0.65177 0.57389 0.0
C2739 C 0.11659 0.64505 0.58201 0.0
C2740 C 0.09416 0.6585 0.57075 0.0
C2741 C 0.09994 0.67891 0.55155 0.0
C2742 C 0.12816 0.68593 0.54358 0.0
C2743 C 0.15065 0.67245 0.5547 0.0
H2744 H 0.08259 0.68939 0.54293 0.0
H2745 H 0.29557 0.56171 0.66421 0.0
loop_
_geom_bond_atom_site_label_1
_geom_bond_atom_site_label_2
_geom_bond_distance
_geom_bond_site_symmetry_2
_ccdc_geom_bond_type
Tb0 O3 2.453 . S
Tb0 O4 2.596 . S
Tb0 O5 2.374 . S
Tb0 O13 2.343 . S
Tb0 O15 2.353 . S
Tb0 O17 2.427 . S
Tb0 O18 2.513 . S
C1 O5 1.251 . S
C1 O7 1.263 . S
Tb2 O4 2.343 . S
Tb2 O7 2.353 . S
Tb2 O10 2.427 . S
Tb2 O11 2.513 . S
Tb2 O12 2.453 . S
Tb2 O13 2.596 . S
Tb2 O14 2.374 . S
O3 Tb0 2.453 . S
O3 C19 1.245 . S
O4 Tb0 2.596 . S
O4 Tb2 2.343 . S
O4 C19 1.259 . S
O5 Tb0 2.374 . S
O5 C1 1.251 . S
C6 O10 1.275 . S
C6 O11 1.246 . S
O7 C1 1.263 . S
O7 Tb2 2.353 . S
C8 O12 1.245 . S
C8 O13 1.259 . S
C9 O14 1.250 . S
C9 O15 1.263 . S
O10 Tb2 2.427 . S
O10 C6 1.275 . S
O11 Tb2 2.513 . S
O11 C6 1.246 . S
O12 Tb2 2.453 . S
O12 C8 1.245 . S
O13 Tb0 2.343 . S
O13 Tb2 2.596 . S
O13 C8 1.259 . S
O14 Tb2 2.374 . S
O14 C9 1.250 . S
O15 Tb0 2.353 . S
O15 C9 1.263 . S
C16 O17 1.275 . S
C16 O18 1.246 . S
O17 Tb0 2.427 . S
O17 C16 1.275 . S
O18 Tb0 2.513 . S
O18 C16 1.246 . S
C19 O3 1.245 . S
C19 O4 1.259 . S
Tb20 O23 2.453 . S
Tb20 O24 2.596 . S
Tb20 O25 2.374 . S
Tb20 O33 2.343 . S
Tb20 O35 2.353 . S
Tb20 O37 2.427 . S
Tb20 O38 2.513 . S
C21 O25 1.251 . S
C21 O27 1.263 . S
Tb22 O24 2.343 . S
Tb22 O27 2.353 . S
Tb22 O30 2.427 . S
Tb22 O31 2.513 . S
Tb22 O32 2.453 . S
Tb22 O33 2.596 . S
Tb22 O34 2.374 . S
O23 Tb20 2.453 . S
O23 C39 1.245 . S
O24 Tb20 2.596 . S
O24 Tb22 2.343 . S
O24 C39 1.259 . S
O25 Tb20 2.374 . S
O25 C21 1.251 . S
C26 O30 1.275 . S
C26 O31 1.246 . S
O27 C21 1.263 . S
O27 Tb22 2.353 . S
C28 O32 1.245 . S
C28 O33 1.259 . S
C29 O34 1.250 . S
C29 O35 1.263 . S
O30 Tb22 2.427 . S
O30 C26 1.275 . S
O31 Tb22 2.513 . S
O31 C26 1.246 . S
O32 Tb22 2.453 . S
O32 C28 1.245 . S
O33 Tb20 2.343 . S
O33 Tb22 2.596 . S
O33 C28 1.259 . S
O34 Tb22 2.374 . S
O34 C29 1.250 . S
O35 Tb20 2.353 . S
O35 C29 1.263 . S
C36 O37 1.275 . S
C36 O38 1.246 . S
O37 Tb20 2.427 . S
O37 C36 1.275 . S
O38 Tb20 2.513 . S
O38 C36 1.246 . S
C39 O23 1.245 . S
C39 O24 1.259 . S
Tb40 O43 2.453 . S
Tb40 O44 2.596 . S
Tb40 O45 2.374 . S
Tb40 O53 2.343 . S
Tb40 O55 2.353 . S
Tb40 O57 2.427 . S
Tb40 O58 2.513 . S
C41 O45 1.251 . S
C41 O47 1.263 . S
Tb42 O44 2.343 . S
Tb42 O47 2.353 . S
Tb42 O50 2.427 . S
Tb42 O51 2.513 . S
Tb42 O52 2.453 . S
Tb42 O53 2.596 . S
Tb42 O54 2.374 . S
O43 Tb40 2.453 . S
O43 C59 1.245 . S
O44 Tb40 2.596 . S
O44 Tb42 2.343 . S
O44 C59 1.259 . S
O45 Tb40 2.374 . S
O45 C41 1.251 . S
C46 O50 1.275 . S
C46 O51 1.246 . S
O47 C41 1.263 . S
O47 Tb42 2.353 . S
C48 O52 1.245 . S
C48 O53 1.259 . S
C49 O54 1.250 . S
C49 O55 1.263 . S
O50 Tb42 2.427 . S
O50 C46 1.275 . S
O51 Tb42 2.513 . S
O51 C46 1.246 . S
O52 Tb42 2.453 . S
O52 C48 1.245 . S
O53 Tb40 2.343 . S
O53 Tb42 2.596 . S
O53 C48 1.259 . S
O54 Tb42 2.374 . S
O54 C49 1.250 . S
O55 Tb40 2.353 . S
O55 C49 1.263 . S
C56 O57 1.275 . S
C56 O58 1.246 . S
O57 Tb40 2.427 . S
O57 C56 1.275 . S
O58 Tb40 2.513 . S
O58 C56 1.246 . S
C59 O43 1.245 . S
C59 O44 1.259 . S
Tb60 O63 2.453 . S
Tb60 O64 2.596 . S
Tb60 O65 2.374 . S
Tb60 O73 2.343 . S
Tb60 O75 2.353 . S
Tb60 O77 2.427 . S
Tb60 O78 2.513 . S
C61 O65 1.251 . S
C61 O67 1.263 . S
Tb62 O64 2.343 . S
Tb62 O67 2.353 . S
Tb62 O70 2.427 . S
Tb62 O71 2.513 . S
Tb62 O72 2.453 . S
Tb62 O73 2.596 . S
Tb62 O74 2.374 . S
O63 Tb60 2.453 . S
O63 C79 1.245 . S
O64 Tb60 2.596 . S
O64 Tb62 2.343 . S
O64 C79 1.259 . S
O65 Tb60 2.374 . S
O65 C61 1.251 . S
C66 O70 1.275 . S
C66 O71 1.246 . S
O67 C61 1.263 . S
O67 Tb62 2.353 . S
C68 O72 1.245 . S
C68 O73 1.259 . S
C69 O74 1.250 . S
C69 O75 1.263 . S
O70 Tb62 2.427 . S
O70 C66 1.275 . S
O71 Tb62 2.513 . S
O71 C66 1.246 . S
O72 Tb62 2.453 . S
O72 C68 1.245 . S
O73 Tb60 2.343 . S
O73 Tb62 2.596 . S
O73 C68 1.259 . S
O74 Tb62 2.374 . S
O74 C69 1.250 . S
O75 Tb60 2.353 . S
O75 C69 1.263 . S
C76 O77 1.275 . S
C76 O78 1.246 . S
O77 Tb60 2.427 . S
O77 C76 1.275 . S
O78 Tb60 2.513 . S
O78 C76 1.246 . S
C79 O63 1.245 . S
C79 O64 1.259 . S
Tb80 O83 2.453 . S
Tb80 O84 2.596 . S
Tb80 O85 2.374 . S
Tb80 O93 2.343 . S
Tb80 O95 2.353 . S
Tb80 O97 2.427 . S
Tb80 O98 2.513 . S
C81 O85 1.251 . S
C81 O87 1.263 . S
Tb82 O84 2.343 . S
Tb82 O87 2.353 . S
Tb82 O90 2.427 . S
Tb82 O91 2.513 . S
Tb82 O92 2.453 . S
Tb82 O93 2.596 . S
Tb82 O94 2.374 . S
O83 Tb80 2.453 . S
O83 C99 1.245 . S
O84 Tb80 2.596 . S
O84 Tb82 2.343 . S
O84 C99 1.259 . S
O85 Tb80 2.374 . S
O85 C81 1.251 . S
C86 O90 1.275 . S
C86 O91 1.246 . S
O87 C81 1.263 . S
O87 Tb82 2.353 . S
C88 O92 1.245 . S
C88 O93 1.259 . S
C89 O94 1.250 . S
C89 O95 1.263 . S
O90 Tb82 2.427 . S
O90 C86 1.275 . S
O91 Tb82 2.513 . S
O91 C86 1.246 . S
O92 Tb82 2.453 . S
O92 C88 1.245 . S
O93 Tb80 2.343 . S
O93 Tb82 2.596 . S
O93 C88 1.259 . S
O94 Tb82 2.374 . S
O94 C89 1.250 . S
O95 Tb80 2.353 . S
O95 C89 1.263 . S
C96 O97 1.275 . S
C96 O98 1.246 . S
O97 Tb80 2.427 . S
O97 C96 1.275 . S
O98 Tb80 2.513 . S
O98 C96 1.246 . S
C99 O83 1.245 . S
C99 O84 1.259 . S
Tb100 O103 2.453 . S
Tb100 O104 2.596 . S
Tb100 O105 2.374 . S
Tb100 O113 2.343 . S
Tb100 O115 2.353 . S
Tb100 O117 2.427 . S
Tb100 O118 2.513 . S
C101 O105 1.251 . S
C101 O107 1.263 . S
Tb102 O104 2.343 . S
Tb102 O107 2.353 . S
Tb102 O110 2.427 . S
Tb102 O111 2.513 . S
Tb102 O112 2.453 . S
Tb102 O113 2.596 . S
Tb102 O114 2.374 . S
O103 Tb100 2.453 . S
O103 C119 1.245 . S
O104 Tb100 2.596 . S
O104 Tb102 2.343 . S
O104 C119 1.259 . S
O105 Tb100 2.374 . S
O105 C101 1.251 . S
C106 O110 1.275 . S
C106 O111 1.246 . S
O107 C101 1.263 . S
O107 Tb102 2.353 . S
C108 O112 1.245 . S
C108 O113 1.259 . S
C109 O114 1.250 . S
C109 O115 1.263 . S
O110 Tb102 2.427 . S
O110 C106 1.275 . S
O111 Tb102 2.513 . S
O111 C106 1.246 . S
O112 Tb102 2.453 . S
O112 C108 1.245 . S
O113 Tb100 2.343 . S
O113 Tb102 2.596 . S
O113 C108 1.259 . S
O114 Tb102 2.374 . S
O114 C109 1.250 . S
O115 Tb100 2.353 . S
O115 C109 1.263 . S
C116 O117 1.275 . S
C116 O118 1.246 . S
O117 Tb100 2.427 . S
O117 C116 1.275 . S
O118 Tb100 2.513 . S
O118 C116 1.246 . S
C119 O103 1.245 . S
C119 O104 1.259 . S
Tb120 O123 2.453 . S
Tb120 O124 2.596 . S
Tb120 O125 2.374 . S
Tb120 O133 2.343 . S
Tb120 O135 2.353 . S
Tb120 O137 2.427 . S
Tb120 O138 2.513 . S
C121 O125 1.251 . S
C121 O127 1.263 . S
Tb122 O124 2.343 . S
Tb122 O127 2.353 . S
Tb122 O130 2.427 . S
Tb122 O131 2.513 . S
Tb122 O132 2.453 . S
Tb122 O133 2.596 . S
Tb122 O134 2.374 . S
O123 Tb120 2.453 . S
O123 C139 1.245 . S
O124 Tb120 2.596 . S
O124 Tb122 2.343 . S
O124 C139 1.259 . S
O125 Tb120 2.374 . S
O125 C121 1.251 . S
C126 O130 1.275 . S
C126 O131 1.246 . S
O127 C121 1.263 . S
O127 Tb122 2.353 . S
C128 O132 1.245 . S
C128 O133 1.259 . S
C129 O134 1.250 . S
C129 O135 1.263 . S
O130 Tb122 2.427 . S
O130 C126 1.275 . S
O131 Tb122 2.513 . S
O131 C126 1.246 . S
O132 Tb122 2.453 . S
O132 C128 1.245 . S
O133 Tb120 2.343 . S
O133 Tb122 2.596 . S
O133 C128 1.259 . S
O134 Tb122 2.374 . S
O134 C129 1.250 . S
O135 Tb120 2.353 . S
O135 C129 1.263 . S
C136 O137 1.275 . S
C136 O138 1.246 . S
O137 Tb120 2.427 . S
O137 C136 1.275 . S
O138 Tb120 2.513 . S
O138 C136 1.246 . S
C139 O123 1.245 . S
C139 O124 1.259 . S
Tb140 O143 2.453 . S
Tb140 O144 2.596 . S
Tb140 O145 2.374 . S
Tb140 O153 2.343 . S
Tb140 O155 2.353 . S
Tb140 O157 2.427 . S
Tb140 O158 2.513 . S
C141 O145 1.251 . S
C141 O147 1.263 . S
Tb142 O144 2.343 . S
Tb142 O147 2.353 . S
Tb142 O150 2.427 . S
Tb142 O151 2.513 . S
Tb142 O152 2.453 . S
Tb142 O153 2.596 . S
Tb142 O154 2.374 . S
O143 Tb140 2.453 . S
O143 C159 1.245 . S
O144 Tb140 2.596 . S
O144 Tb142 2.343 . S
O144 C159 1.259 . S
O145 Tb140 2.374 . S
O145 C141 1.251 . S
C146 O150 1.275 . S
C146 O151 1.246 . S
O147 C141 1.263 . S
O147 Tb142 2.353 . S
C148 O152 1.245 . S
C148 O153 1.259 . S
C149 O154 1.250 . S
C149 O155 1.263 . S
O150 Tb142 2.427 . S
O150 C146 1.275 . S
O151 Tb142 2.513 . S
O151 C146 1.246 . S
O152 Tb142 2.453 . S
O152 C148 1.245 . S
O153 Tb140 2.343 . S
O153 Tb142 2.596 . S
O153 C148 1.259 . S
O154 Tb142 2.374 . S
O154 C149 1.250 . S
O155 Tb140 2.353 . S
O155 C149 1.263 . S
C156 O157 1.275 . S
C156 O158 1.246 . S
O157 Tb140 2.427 . S
O157 C156 1.275 . S
O158 Tb140 2.513 . S
O158 C156 1.246 . S
C159 O143 1.245 . S
C159 O144 1.259 . S
C160 O172 1.241 . S
C160 O173 1.280 . S
C161 O174 1.277 . S
C161 O175 1.245 . S
C162 O186 1.247 . S
C162 O188 1.289 . S
Mg163 O164 1.926 . S
Mg163 O173 1.984 . S
Mg163 O175 1.988 . S
Mg163 O176 2.061 1_655 S
O164 Mg163 1.926 . S
O164 Mg165 1.986 . S
O164 Mg166 1.917 1_655 S
Mg165 O164 1.986 . S
Mg165 O172 2.042 . S
Mg165 O174 2.041 . S
Mg165 O180 2.038 1_545 S
Mg165 O188 2.238 1_545 S
Mg166 O164 1.917 1_455 S
Mg166 O167 1.917 1_545 S
Mg166 O177 2.106 . S
Mg166 O179 2.079 1_445 S
Mg166 O188 2.106 1_445 S
Mg166 O189 2.079 . S
O167 Mg166 1.917 1_565 S
O167 Mg168 1.926 . S
O167 Mg169 1.986 . S
Mg168 O167 1.926 . S
Mg168 O182 1.984 . S
Mg168 O185 1.988 . S
Mg168 O186 2.061 1_455 S
Mg169 O167 1.986 . S
Mg169 O177 2.238 1_565 S
Mg169 O181 2.042 . S
Mg169 O183 2.041 . S
Mg169 O190 2.038 1_565 S
C170 O176 1.247 . S
C170 O177 1.289 . S
C171 O189 1.245 . S
C171 O190 1.274 . S
O172 C160 1.241 . S
O172 Mg165 2.042 . S
O173 C160 1.280 . S
O173 Mg163 1.984 . S
O174 C161 1.277 . S
O174 Mg165 2.041 . S
O175 C161 1.245 . S
O175 Mg163 1.988 . S
O176 Mg163 2.061 1_455 S
O176 C170 1.247 . S
O177 Mg166 2.106 . S
O177 Mg169 2.238 1_545 S
O177 C170 1.289 . S
C178 O179 1.245 . S
C178 O180 1.274 . S
O179 Mg166 2.079 1_665 S
O179 C178 1.245 . S
O180 Mg165 2.038 1_565 S
O180 C178 1.274 . S
O181 Mg169 2.042 . S
O181 C184 1.241 . S
O182 Mg168 1.984 . S
O182 C184 1.280 . S
O183 Mg169 2.041 . S
O183 C187 1.277 . S
C184 O181 1.241 . S
C184 O182 1.280 . S
O185 Mg168 1.988 . S
O185 C187 1.245 . S
O186 C162 1.247 . S
O186 Mg168 2.061 1_655 S
C187 O183 1.277 . S
C187 O185 1.245 . S
O188 C162 1.289 . S
O188 Mg165 2.238 1_565 S
O188 Mg166 2.106 1_665 S
O189 Mg166 2.079 . S
O189 C171 1.245 . S
O190 Mg169 2.038 1_545 S
O190 C171 1.274 . S
C191 O203 1.241 . S
C191 O204 1.280 . S
C192 O205 1.277 . S
C192 O206 1.245 . S
C193 O217 1.247 . S
C193 O219 1.289 . S
Mg194 O195 1.926 . S
Mg194 O204 1.984 . S
Mg194 O206 1.988 1_554 S
Mg194 O207 2.061 . S
O195 Mg194 1.926 . S
O195 Mg196 1.986 1_554 S
O195 Mg197 1.917 . S
Mg196 O195 1.986 1_556 S
Mg196 O203 2.042 1_556 S
Mg196 O205 2.041 . S
Mg196 O211 2.038 1_546 S
Mg196 O219 2.238 1_545 S
Mg197 O195 1.917 . S
Mg197 O198 1.917 1_544 S
Mg197 O208 2.106 . S
Mg197 O210 2.079 1_545 S
Mg197 O219 2.106 1_544 S
Mg197 O220 2.079 1_554 S
O198 Mg197 1.917 1_566 S
O198 Mg199 1.926 . S
O198 Mg200 1.986 1_556 S
Mg199 O198 1.926 . S
Mg199 O213 1.984 . S
Mg199 O216 1.988 1_556 S
Mg199 O217 2.061 . S
Mg200 O198 1.986 1_554 S
Mg200 O208 2.238 1_565 S
Mg200 O212 2.042 1_554 S
Mg200 O214 2.041 . S
Mg200 O221 2.038 1_564 S
C201 O207 1.247 . S
C201 O208 1.289 . S
C202 O220 1.245 . S
C202 O221 1.274 . S
O203 C191 1.241 . S
O203 Mg196 2.042 1_554 S
O204 C191 1.280 . S
O204 Mg194 1.984 . S
O205 C192 1.277 . S
O205 Mg196 2.041 . S
O206 C192 1.245 . S
O206 Mg194 1.988 1_556 S
O207 Mg194 2.061 . S
O207 C201 1.247 . S
O208 Mg197 2.106 . S
O208 Mg200 2.238 1_545 S
O208 C201 1.289 . S
C209 O210 1.245 . S
C209 O211 1.274 . S
O210 Mg197 2.079 1_565 S
O210 C209 1.245 . S
O211 Mg196 2.038 1_564 S
O211 C209 1.274 . S
O212 Mg200 2.042 1_556 S
O212 C215 1.241 . S
O213 Mg199 1.984 . S
O213 C215 1.280 . S
O214 Mg200 2.041 . S
O214 C218 1.277 . S
C215 O212 1.241 . S
C215 O213 1.280 . S
O216 Mg199 1.988 1_554 S
O216 C218 1.245 . S
O217 C193 1.247 . S
O217 Mg199 2.061 . S
C218 O214 1.277 . S
C218 O216 1.245 . S
O219 C193 1.289 . S
O219 Mg196 2.238 1_565 S
O219 Mg197 2.106 1_566 S
O220 Mg197 2.079 1_556 S
O220 C202 1.245 . S
O221 Mg200 2.038 1_546 S
O221 C202 1.274 . S
C222 O234 1.241 . S
C222 O235 1.280 . S
C223 O236 1.277 . S
C223 O237 1.245 . S
C224 O248 1.247 . S
C224 O250 1.289 . S
Mg225 O226 1.926 . S
Mg225 O235 1.984 . S
Mg225 O237 1.988 1_554 S
Mg225 O238 2.061 1_655 S
O226 Mg225 1.926 . S
O226 Mg227 1.986 1_554 S
O226 Mg228 1.917 1_655 S
Mg227 O226 1.986 1_556 S
Mg227 O234 2.042 1_556 S
Mg227 O236 2.041 . S
Mg227 O242 2.038 1_556 S
Mg227 O250 2.238 . S
Mg228 O226 1.917 1_455 S
Mg228 O229 1.917 1_554 S
Mg228 O239 2.106 . S
Mg228 O241 2.079 1_455 S
Mg228 O250 2.106 1_454 S
Mg228 O251 2.079 1_554 S
O229 Mg228 1.917 1_556 S
O229 Mg230 1.926 . S
O229 Mg231 1.986 1_556 S
Mg230 O229 1.926 . S
Mg230 O244 1.984 . S
Mg230 O247 1.988 1_556 S
Mg230 O248 2.061 1_455 S
Mg231 O229 1.986 1_554 S
Mg231 O239 2.238 . S
Mg231 O243 2.042 1_554 S
Mg231 O245 2.041 . S
Mg231 O252 2.038 1_554 S
C232 O238 1.247 . S
C232 O239 1.289 . S
C233 O251 1.245 . S
C233 O252 1.274 . S
O234 C222 1.241 . S
O234 Mg227 2.042 1_554 S
O235 C222 1.280 . S
O235 Mg225 1.984 . S
O236 C223 1.277 . S
O236 Mg227 2.041 . S
O237 C223 1.245 . S
O237 Mg225 1.988 1_556 S
O238 Mg225 2.061 1_455 S
O238 C232 1.247 . S
O239 Mg228 2.106 . S
O239 Mg231 2.238 . S
O239 C232 1.289 . S
C240 O241 1.245 . S
C240 O242 1.274 . S
O241 Mg228 2.079 1_655 S
O241 C240 1.245 . S
O242 Mg227 2.038 1_554 S
O242 C240 1.274 . S
O243 Mg231 2.042 1_556 S
O243 C246 1.241 . S
O244 Mg230 1.984 . S
O244 C246 1.280 . S
O245 Mg231 2.041 . S
O245 C249 1.277 . S
C246 O243 1.241 . S
C246 O244 1.280 . S
O247 Mg230 1.988 1_554 S
O247 C249 1.245 . S
O248 C224 1.247 . S
O248 Mg230 2.061 1_655 S
C249 O245 1.277 . S
C249 O247 1.245 . S
O250 C224 1.289 . S
O250 Mg227 2.238 . S
O250 Mg228 2.106 1_656 S
O251 Mg228 2.079 1_556 S
O251 C233 1.245 . S
O252 Mg231 2.038 1_556 S
O252 C233 1.274 . S
C253 O265 1.241 . S
C253 O266 1.280 . S
C254 O267 1.277 . S
C254 O268 1.245 . S
C255 O279 1.247 . S
C255 O281 1.289 . S
Mg256 O257 1.926 . S
Mg256 O266 1.984 . S
Mg256 O268 1.988 1_554 S
Mg256 O269 2.061 . S
O257 Mg256 1.926 . S
O257 Mg258 1.986 1_554 S
O257 Mg259 1.917 . S
Mg258 O257 1.986 1_556 S
Mg258 O265 2.042 1_556 S
Mg258 O267 2.041 . S
Mg258 O273 2.038 1_556 S
Mg258 O281 2.238 . S
Mg259 O257 1.917 . S
Mg259 O260 1.917 1_554 S
Mg259 O270 2.106 . S
Mg259 O272 2.079 . S
Mg259 O281 2.106 1_554 S
Mg259 O282 2.079 1_554 S
O260 Mg259 1.917 1_556 S
O260 Mg261 1.926 . S
O260 Mg262 1.986 1_556 S
Mg261 O260 1.926 . S
Mg261 O275 1.984 . S
Mg261 O278 1.988 1_556 S
Mg261 O279 2.061 . S
Mg262 O260 1.986 1_554 S
Mg262 O270 2.238 . S
Mg262 O274 2.042 1_554 S
Mg262 O276 2.041 . S
Mg262 O283 2.038 1_554 S
C263 O269 1.247 . S
C263 O270 1.289 . S
C264 O282 1.245 . S
C264 O283 1.274 . S
O265 C253 1.241 . S
O265 Mg258 2.042 1_554 S
O266 C253 1.280 . S
O266 Mg256 1.984 . S
O267 C254 1.277 . S
O267 Mg258 2.041 . S
O268 C254 1.245 . S
O268 Mg256 1.988 1_556 S
O269 Mg256 2.061 . S
O269 C263 1.247 . S
O270 Mg259 2.106 . S
O270 Mg262 2.238 . S
O270 C263 1.289 . S
C271 O272 1.245 . S
C271 O273 1.274 . S
O272 Mg259 2.079 . S
O272 C271 1.245 . S
O273 Mg258 2.038 1_554 S
O273 C271 1.274 . S
O274 Mg262 2.042 1_556 S
O274 C277 1.241 . S
O275 Mg261 1.984 . S
O275 C277 1.280 . S
O276 Mg262 2.041 . S
O276 C280 1.277 . S
C277 O274 1.241 . S
C277 O275 1.280 . S
O278 Mg261 1.988 1_554 S
O278 C280 1.245 . S
O279 C255 1.247 . S
O279 Mg261 2.061 . S
C280 O276 1.277 . S
C280 O278 1.245 . S
O281 C255 1.289 . S
O281 Mg258 2.238 . S
O281 Mg259 2.106 1_556 S
O282 Mg259 2.079 1_556 S
O282 C264 1.245 . S
O283 Mg262 2.038 1_556 S
O283 C264 1.274 . S
C284 O296 1.241 . S
C284 O297 1.280 . S
C285 O298 1.277 . S
C285 O299 1.245 . S
C286 O310 1.247 . S
C286 O312 1.289 . S
Mg287 O288 1.926 . S
Mg287 O297 1.984 . S
Mg287 O299 1.988 . S
Mg287 O300 2.061 1_655 S
O288 Mg287 1.926 . S
O288 Mg289 1.986 . S
O288 Mg290 1.917 1_655 S
Mg289 O288 1.986 . S
Mg289 O296 2.042 . S
Mg289 O298 2.041 . S
Mg289 O304 2.038 . S
Mg289 O312 2.238 . S
Mg290 O288 1.917 1_455 S
Mg290 O291 1.917 . S
Mg290 O301 2.106 . S
Mg290 O303 2.079 1_455 S
Mg290 O312 2.106 1_455 S
Mg290 O313 2.079 . S
O291 Mg290 1.917 . S
O291 Mg292 1.926 . S
O291 Mg293 1.986 . S
Mg292 O291 1.926 . S
Mg292 O306 1.984 . S
Mg292 O309 1.988 . S
Mg292 O310 2.061 1_455 S
Mg293 O291 1.986 . S
Mg293 O301 2.238 . S
Mg293 O305 2.042 . S
Mg293 O307 2.041 . S
Mg293 O314 2.038 . S
C294 O300 1.247 . S
C294 O301 1.289 . S
C295 O313 1.245 . S
C295 O314 1.274 . S
O296 C284 1.241 . S
O296 Mg289 2.042 . S
O297 C284 1.280 . S
O297 Mg287 1.984 . S
O298 C285 1.277 . S
O298 Mg289 2.041 . S
O299 C285 1.245 . S
O299 Mg287 1.988 . S
O300 Mg287 2.061 1_455 S
O300 C294 1.247 . S
O301 Mg290 2.106 . S
O301 Mg293 2.238 . S
O301 C294 1.289 . S
C302 O303 1.245 . S
C302 O304 1.274 . S
O303 Mg290 2.079 1_655 S
O303 C302 1.245 . S
O304 Mg289 2.038 . S
O304 C302 1.274 . S
O305 Mg293 2.042 . S
O305 C308 1.241 . S
O306 Mg292 1.984 . S
O306 C308 1.280 . S
O307 Mg293 2.041 . S
O307 C311 1.277 . S
C308 O305 1.241 . S
C308 O306 1.280 . S
O309 Mg292 1.988 . S
O309 C311 1.245 . S
O310 C286 1.247 . S
O310 Mg292 2.061 1_655 S
C311 O307 1.277 . S
C311 O309 1.245 . S
O312 C286 1.289 . S
O312 Mg289 2.238 . S
O312 Mg290 2.106 1_655 S
O313 Mg290 2.079 . S
O313 C295 1.245 . S
O314 Mg293 2.038 . S
O314 C295 1.274 . S
C315 O327 1.241 . S
C315 O328 1.280 . S
C316 O329 1.277 . S
C316 O330 1.245 . S
C317 O341 1.247 . S
C317 O343 1.289 . S
Mg318 O319 1.926 . S
Mg318 O328 1.984 . S
Mg318 O330 1.988 . S
Mg318 O331 2.061 . S
O319 Mg318 1.926 . S
O319 Mg320 1.986 . S
O319 Mg321 1.917 . S
Mg320 O319 1.986 . S
Mg320 O327 2.042 . S
Mg320 O329 2.041 . S
Mg320 O335 2.038 1_545 S
Mg320 O343 2.238 1_545 S
Mg321 O319 1.917 . S
Mg321 O322 1.917 1_545 S
Mg321 O332 2.106 . S
Mg321 O334 2.079 1_545 S
Mg321 O343 2.106 1_545 S
Mg321 O344 2.079 . S
O322 Mg321 1.917 1_565 S
O322 Mg323 1.926 . S
O322 Mg324 1.986 . S
Mg323 O322 1.926 . S
Mg323 O337 1.984 . S
Mg323 O340 1.988 . S
Mg323 O341 2.061 . S
Mg324 O322 1.986 . S
Mg324 O332 2.238 1_565 S
Mg324 O336 2.042 . S
Mg324 O338 2.041 . S
Mg324 O345 2.038 1_565 S
C325 O331 1.247 . S
C325 O332 1.289 . S
C326 O344 1.245 . S
C326 O345 1.274 . S
O327 C315 1.241 . S
O327 Mg320 2.042 . S
O328 C315 1.280 . S
O328 Mg318 1.984 . S
O329 C316 1.277 . S
O329 Mg320 2.041 . S
O330 C316 1.245 . S
O330 Mg318 1.988 . S
O331 Mg318 2.061 . S
O331 C325 1.247 . S
O332 Mg321 2.106 . S
O332 Mg324 2.238 1_545 S
O332 C325 1.289 . S
C333 O334 1.245 . S
C333 O335 1.274 . S
O334 Mg321 2.079 1_565 S
O334 C333 1.245 . S
O335 Mg320 2.038 1_565 S
O335 C333 1.274 . S
O336 Mg324 2.042 . S
O336 C339 1.241 . S
O337 Mg323 1.984 . S
O337 C339 1.280 . S
O338 Mg324 2.041 . S
O338 C342 1.277 . S
C339 O336 1.241 . S
C339 O337 1.280 . S
O340 Mg323 1.988 . S
O340 C342 1.245 . S
O341 C317 1.247 . S
O341 Mg323 2.061 . S
C342 O338 1.277 . S
C342 O340 1.245 . S
O343 C317 1.289 . S
O343 Mg320 2.238 1_565 S
O343 Mg321 2.106 1_565 S
O344 Mg321 2.079 . S
O344 C326 1.245 . S
O345 Mg324 2.038 1_545 S
O345 C326 1.274 . S
H346 C364 0.951 . S
H347 C366 0.951 . S
H348 C368 0.950 . S
H349 C369 0.950 . S
H350 C371 0.950 . S
H351 C374 0.950 . S
H352 C375 0.950 . S
H353 C377 0.950 . S
H354 C378 0.950 . S
H355 C379 0.951 . S
H356 C381 0.951 . S
H357 C383 0.950 . S
H358 C384 0.950 . S
H359 C386 0.950 . S
H360 C389 0.950 . S
H361 C390 0.950 . S
H362 C392 0.950 . S
H363 C393 0.950 . S
C364 H346 0.951 . S
C364 C365 1.366 . S
C364 C366 1.388 . S
C365 C364 1.366 . S
C365 C369 1.385 . S
C366 H347 0.951 . S
C366 C364 1.388 . S
C366 C367 1.366 . S
C367 C366 1.366 . S
C367 C368 1.414 . S
C367 C370 1.499 . S
C368 H348 0.950 . S
C368 C367 1.414 . S
C368 C369 1.374 . S
C369 H349 0.950 . S
C369 C365 1.385 . S
C369 C368 1.374 . S
C370 C367 1.499 . S
C370 C371 1.373 . S
C370 C372 1.389 . S
C371 H350 0.950 . S
C371 C370 1.373 . S
C371 C387 1.377 . S
C372 C370 1.389 . S
C372 C373 1.524 . S
C372 C386 1.377 . S
C373 C372 1.524 . S
C373 C374 1.397 . S
C373 C378 1.363 . S
C374 H351 0.950 . S
C374 C373 1.397 . S
C374 C375 1.334 . S
C375 H352 0.950 . S
C375 C374 1.334 . S
C375 C376 1.287 . S
C376 C375 1.287 . S
C376 C377 1.524 . S
C376 H395 0.913 . S
C377 H353 0.950 . S
C377 C376 1.524 . S
C377 C378 1.415 . S
C378 H354 0.950 . S
C378 C373 1.363 . S
C378 C377 1.415 . S
C379 H355 0.951 . S
C379 C380 1.366 . S
C379 C381 1.388 . S
C380 C379 1.366 . S
C380 C384 1.385 . S
C381 H356 0.951 . S
C381 C379 1.388 . S
C381 C382 1.366 . S
C382 C381 1.366 . S
C382 C383 1.414 . S
C382 C385 1.499 . S
C383 H357 0.950 . S
C383 C382 1.414 . S
C383 C384 1.374 . S
C384 H358 0.950 . S
C384 C380 1.385 . S
C384 C383 1.374 . S
C385 C382 1.499 . S
C385 C386 1.373 . S
C385 C387 1.389 . S
C386 H359 0.950 . S
C386 C372 1.377 . S
C386 C385 1.373 . S
C387 C371 1.377 . S
C387 C385 1.389 . S
C387 C388 1.524 . S
C388 C387 1.524 . S
C388 C389 1.397 . S
C388 C393 1.363 . S
C389 H360 0.950 . S
C389 C388 1.397 . S
C389 C390 1.334 . S
C390 H361 0.950 . S
C390 C389 1.334 . S
C390 C391 1.287 . S
C391 C390 1.287 . S
C391 C392 1.524 . S
C391 H394 0.999 . S
C392 H362 0.950 . S
C392 C391 1.524 . S
C392 C393 1.415 . S
C393 H363 0.950 . S
C393 C388 1.363 . S
C393 C392 1.415 . S
H394 C391 0.999 . S
H395 C376 0.913 . S
H396 C414 0.951 . S
H397 C416 0.951 . S
H398 C418 0.950 . S
H399 C419 0.950 . S
H400 C421 0.950 . S
H401 C424 0.950 . S
H402 C425 0.950 . S
H403 C427 0.950 . S
H404 C428 0.950 . S
H405 C429 0.951 . S
H406 C431 0.951 . S
H407 C433 0.950 . S
H408 C434 0.950 . S
H409 C436 0.950 . S
H410 C439 0.950 . S
H411 C440 0.950 . S
H412 C442 0.950 . S
H413 C443 0.950 . S
C414 H396 0.951 . S
C414 C415 1.366 . S
C414 C416 1.388 . S
C415 C414 1.366 . S
C415 C419 1.385 . S
C416 H397 0.951 . S
C416 C414 1.388 . S
C416 C417 1.366 . S
C417 C416 1.366 . S
C417 C418 1.414 . S
C417 C420 1.499 . S
C418 H398 0.950 . S
C418 C417 1.414 . S
C418 C419 1.374 . S
C419 H399 0.950 . S
C419 C415 1.385 . S
C419 C418 1.374 . S
C420 C417 1.499 . S
C420 C421 1.373 . S
C420 C422 1.389 . S
C421 H400 0.950 . S
C421 C420 1.373 . S
C421 C437 1.377 . S
C422 C420 1.389 . S
C422 C423 1.524 . S
C422 C436 1.377 . S
C423 C422 1.524 . S
C423 C424 1.397 . S
C423 C428 1.363 . S
C424 H401 0.950 . S
C424 C423 1.397 . S
C424 C425 1.334 . S
C425 H402 0.950 . S
C425 C424 1.334 . S
C425 C426 1.287 . S
C426 C425 1.287 . S
C426 C427 1.524 . S
C426 H445 0.913 . S
C427 H403 0.950 . S
C427 C426 1.524 . S
C427 C428 1.415 . S
C428 H404 0.950 . S
C428 C423 1.363 . S
C428 C427 1.415 . S
C429 H405 0.951 . S
C429 C430 1.366 . S
C429 C431 1.388 . S
C430 C429 1.366 . S
C430 C434 1.385 . S
C431 H406 0.951 . S
C431 C429 1.388 . S
C431 C432 1.366 . S
C432 C431 1.366 . S
C432 C433 1.414 . S
C432 C435 1.499 . S
C433 H407 0.950 . S
C433 C432 1.414 . S
C433 C434 1.374 . S
C434 H408 0.950 . S
C434 C430 1.385 . S
C434 C433 1.374 . S
C435 C432 1.499 . S
C435 C436 1.373 . S
C435 C437 1.389 . S
C436 H409 0.950 . S
C436 C422 1.377 . S
C436 C435 1.373 . S
C437 C421 1.377 . S
C437 C435 1.389 . S
C437 C438 1.524 . S
C438 C437 1.524 . S
C438 C439 1.397 . S
C438 C443 1.363 . S
C439 H410 0.950 . S
C439 C438 1.397 . S
C439 C440 1.334 . S
C440 H411 0.950 . S
C440 C439 1.334 . S
C440 C441 1.287 . S
C441 C440 1.287 . S
C441 C442 1.524 . S
C441 H444 0.999 . S
C442 H412 0.950 . S
C442 C441 1.524 . S
C442 C443 1.415 . S
C443 H413 0.950 . S
C443 C438 1.363 . S
C443 C442 1.415 . S
H444 C441 0.999 . S
H445 C426 0.913 . S
H446 C464 0.951 . S
H447 C466 0.951 . S
H448 C468 0.950 . S
H449 C469 0.950 . S
H450 C471 0.950 . S
H451 C474 0.950 . S
H452 C475 0.950 . S
H453 C477 0.950 . S
H454 C478 0.950 . S
H455 C479 0.951 . S
H456 C481 0.951 . S
H457 C483 0.950 . S
H458 C484 0.950 . S
H459 C486 0.950 . S
H460 C489 0.950 . S
H461 C490 0.950 . S
H462 C492 0.950 . S
H463 C493 0.950 . S
C464 H446 0.951 . S
C464 C465 1.366 . S
C464 C466 1.388 . S
C465 C464 1.366 . S
C465 C469 1.385 . S
C466 H447 0.951 . S
C466 C464 1.388 . S
C466 C467 1.366 . S
C467 C466 1.366 . S
C467 C468 1.414 . S
C467 C470 1.499 . S
C468 H448 0.950 . S
C468 C467 1.414 . S
C468 C469 1.374 . S
C469 H449 0.950 . S
C469 C465 1.385 . S
C469 C468 1.374 . S
C470 C467 1.499 . S
C470 C471 1.373 . S
C470 C472 1.389 . S
C471 H450 0.950 . S
C471 C470 1.373 . S
C471 C487 1.377 . S
C472 C470 1.389 . S
C472 C473 1.524 . S
C472 C486 1.377 . S
C473 C472 1.524 . S
C473 C474 1.397 . S
C473 C478 1.363 . S
C474 H451 0.950 . S
C474 C473 1.397 . S
C474 C475 1.334 . S
C475 H452 0.950 . S
C475 C474 1.334 . S
C475 C476 1.287 . S
C476 C475 1.287 . S
C476 C477 1.524 . S
C476 H495 0.913 . S
C477 H453 0.950 . S
C477 C476 1.524 . S
C477 C478 1.415 . S
C478 H454 0.950 . S
C478 C473 1.363 . S
C478 C477 1.415 . S
C479 H455 0.951 . S
C479 C480 1.366 . S
C479 C481 1.388 . S
C480 C479 1.366 . S
C480 C484 1.385 . S
C481 H456 0.951 . S
C481 C479 1.388 . S
C481 C482 1.366 . S
C482 C481 1.366 . S
C482 C483 1.414 . S
C482 C485 1.499 . S
C483 H457 0.950 . S
C483 C482 1.414 . S
C483 C484 1.374 . S
C484 H458 0.950 . S
C484 C480 1.385 . S
C484 C483 1.374 . S
C485 C482 1.499 . S
C485 C486 1.373 . S
C485 C487 1.389 . S
C486 H459 0.950 . S
C486 C472 1.377 . S
C486 C485 1.373 . S
C487 C471 1.377 . S
C487 C485 1.389 . S
C487 C488 1.524 . S
C488 C487 1.524 . S
C488 C489 1.397 . S
C488 C493 1.363 . S
C489 H460 0.950 . S
C489 C488 1.397 . S
C489 C490 1.334 . S
C490 H461 0.950 . S
C490 C489 1.334 . S
C490 C491 1.287 . S
C491 C490 1.287 . S
C491 C492 1.524 . S
C491 H494 0.999 1_655 S
C492 H462 0.950 . S
C492 C491 1.524 . S
C492 C493 1.415 . S
C493 H463 0.950 . S
C493 C488 1.363 . S
C493 C492 1.415 . S
H494 C491 0.999 1_455 S
H495 C476 0.913 . S
H496 C514 0.951 . S
H497 C516 0.951 . S
H498 C518 0.950 . S
H499 C519 0.950 . S
H500 C521 0.950 . S
H501 C524 0.950 . S
H502 C525 0.950 . S
H503 C527 0.950 . S
H504 C528 0.950 . S
H505 C529 0.951 . S
H506 C531 0.951 . S
H507 C533 0.950 . S
H508 C534 0.950 . S
H509 C536 0.950 . S
H510 C539 0.950 . S
H511 C540 0.950 . S
H512 C542 0.950 . S
H513 C543 0.950 . S
C514 H496 0.951 . S
C514 C515 1.366 . S
C514 C516 1.388 . S
C515 C514 1.366 . S
C515 C519 1.385 . S
C516 H497 0.951 . S
C516 C514 1.388 . S
C516 C517 1.366 . S
C517 C516 1.366 . S
C517 C518 1.414 . S
C517 C520 1.499 . S
C518 H498 0.950 . S
C518 C517 1.414 . S
C518 C519 1.374 . S
C519 H499 0.950 . S
C519 C515 1.385 . S
C519 C518 1.374 . S
C520 C517 1.499 . S
C520 C521 1.373 . S
C520 C522 1.389 . S
C521 H500 0.950 . S
C521 C520 1.373 . S
C521 C537 1.377 . S
C522 C520 1.389 . S
C522 C523 1.524 . S
C522 C536 1.377 . S
C523 C522 1.524 . S
C523 C524 1.397 . S
C523 C528 1.363 . S
C524 H501 0.950 . S
C524 C523 1.397 . S
C524 C525 1.334 . S
C525 H502 0.950 . S
C525 C524 1.334 . S
C525 C526 1.287 . S
C526 C525 1.287 . S
C526 C527 1.524 . S
C526 H545 0.913 . S
C527 H503 0.950 . S
C527 C526 1.524 . S
C527 C528 1.415 . S
C528 H504 0.950 . S
C528 C523 1.363 . S
C528 C527 1.415 . S
C529 H505 0.951 . S
C529 C530 1.366 . S
C529 C531 1.388 . S
C530 C529 1.366 . S
C530 C534 1.385 . S
C531 H506 0.951 . S
C531 C529 1.388 . S
C531 C532 1.366 . S
C532 C531 1.366 . S
C532 C533 1.414 . S
C532 C535 1.499 . S
C533 H507 0.950 . S
C533 C532 1.414 . S
C533 C534 1.374 . S
C534 H508 0.950 . S
C534 C530 1.385 . S
C534 C533 1.374 . S
C535 C532 1.499 . S
C535 C536 1.373 . S
C535 C537 1.389 . S
C536 H509 0.950 . S
C536 C522 1.377 . S
C536 C535 1.373 . S
C537 C521 1.377 . S
C537 C535 1.389 . S
C537 C538 1.524 . S
C538 C537 1.524 . S
C538 C539 1.397 . S
C538 C543 1.363 . S
C539 H510 0.950 . S
C539 C538 1.397 . S
C539 C540 1.334 . S
C540 H511 0.950 . S
C540 C539 1.334 . S
C540 C541 1.287 . S
C541 C540 1.287 . S
C541 C542 1.524 . S
C541 H544 0.999 . S
C542 H512 0.950 . S
C542 C541 1.524 . S
C542 C543 1.415 . S
C543 H513 0.950 . S
C543 C538 1.363 . S
C543 C542 1.415 . S
H544 C541 0.999 . S
H545 C526 0.913 . S
H546 C564 0.951 . S
H547 C566 0.951 . S
H548 C568 0.950 . S
H549 C569 0.950 . S
H550 C571 0.950 . S
H551 C574 0.950 . S
H552 C575 0.950 . S
H553 C577 0.950 . S
H554 C578 0.950 . S
H555 C579 0.951 . S
H556 C581 0.951 . S
H557 C583 0.950 . S
H558 C584 0.950 . S
H559 C586 0.950 . S
H560 C589 0.950 . S
H561 C590 0.950 . S
H562 C592 0.950 . S
H563 C593 0.950 . S
C564 H546 0.951 . S
C564 C565 1.366 . S
C564 C566 1.388 . S
C565 C564 1.366 . S
C565 C569 1.385 . S
C566 H547 0.951 . S
C566 C564 1.388 . S
C566 C567 1.366 . S
C567 C566 1.366 . S
C567 C568 1.414 . S
C567 C570 1.499 . S
C568 H548 0.950 . S
C568 C567 1.414 . S
C568 C569 1.374 . S
C569 H549 0.950 . S
C569 C565 1.385 . S
C569 C568 1.374 . S
C570 C567 1.499 . S
C570 C571 1.373 . S
C570 C572 1.389 . S
C571 H550 0.950 . S
C571 C570 1.373 . S
C571 C587 1.377 . S
C572 C570 1.389 . S
C572 C573 1.524 . S
C572 C586 1.377 . S
C573 C572 1.524 . S
C573 C574 1.397 . S
C573 C578 1.363 . S
C574 H551 0.950 . S
C574 C573 1.397 . S
C574 C575 1.334 . S
C575 H552 0.950 . S
C575 C574 1.334 . S
C575 C576 1.287 . S
C576 C575 1.287 . S
C576 C577 1.524 . S
C576 H595 0.913 . S
C577 H553 0.950 . S
C577 C576 1.524 . S
C577 C578 1.415 . S
C578 H554 0.950 . S
C578 C573 1.363 . S
C578 C577 1.415 . S
C579 H555 0.951 . S
C579 C580 1.366 . S
C579 C581 1.388 . S
C580 C579 1.366 . S
C580 C584 1.385 . S
C581 H556 0.951 . S
C581 C579 1.388 . S
C581 C582 1.366 . S
C582 C581 1.366 . S
C582 C583 1.414 . S
C582 C585 1.499 . S
C583 H557 0.950 . S
C583 C582 1.414 . S
C583 C584 1.374 . S
C584 H558 0.950 . S
C584 C580 1.385 . S
C584 C583 1.374 . S
C585 C582 1.499 . S
C585 C586 1.373 . S
C585 C587 1.389 . S
C586 H559 0.950 . S
C586 C572 1.377 . S
C586 C585 1.373 . S
C587 C571 1.377 . S
C587 C585 1.389 . S
C587 C588 1.524 . S
C588 C587 1.524 . S
C588 C589 1.397 . S
C588 C593 1.363 . S
C589 H560 0.950 . S
C589 C588 1.397 . S
C589 C590 1.334 . S
C590 H561 0.950 . S
C590 C589 1.334 . S
C590 C591 1.287 . S
C591 C590 1.287 . S
C591 C592 1.524 . S
C591 H594 0.999 1_565 S
C592 H562 0.950 . S
C592 C591 1.524 . S
C592 C593 1.415 . S
C593 H563 0.950 . S
C593 C588 1.363 . S
C593 C592 1.415 . S
H594 C591 0.999 1_545 S
H595 C576 0.913 . S
H596 C614 0.951 . S
H597 C616 0.951 . S
H598 C618 0.950 . S
H599 C619 0.950 . S
H600 C621 0.950 . S
H601 C624 0.950 . S
H602 C625 0.950 . S
H603 C627 0.950 . S
H604 C628 0.950 . S
H605 C629 0.951 . S
H606 C631 0.951 . S
H607 C633 0.950 . S
H608 C634 0.950 . S
H609 C636 0.950 . S
H610 C639 0.950 . S
H611 C640 0.950 . S
H612 C642 0.950 . S
H613 C643 0.950 . S
C614 H596 0.951 . S
C614 C615 1.366 . S
C614 C616 1.388 . S
C615 C614 1.366 . S
C615 C619 1.385 . S
C616 H597 0.951 . S
C616 C614 1.388 . S
C616 C617 1.366 . S
C617 C616 1.366 . S
C617 C618 1.414 . S
C617 C620 1.499 . S
C618 H598 0.950 . S
C618 C617 1.414 . S
C618 C619 1.374 . S
C619 H599 0.950 . S
C619 C615 1.385 . S
C619 C618 1.374 . S
C620 C617 1.499 . S
C620 C621 1.373 . S
C620 C622 1.389 . S
C621 H600 0.950 . S
C621 C620 1.373 . S
C621 C637 1.377 . S
C622 C620 1.389 . S
C622 C623 1.524 . S
C622 C636 1.377 . S
C623 C622 1.524 . S
C623 C624 1.397 . S
C623 C628 1.363 . S
C624 H601 0.950 . S
C624 C623 1.397 . S
C624 C625 1.334 . S
C625 H602 0.950 . S
C625 C624 1.334 . S
C625 C626 1.287 . S
C626 C625 1.287 . S
C626 C627 1.524 . S
C626 H645 0.913 . S
C627 H603 0.950 . S
C627 C626 1.524 . S
C627 C628 1.415 . S
C628 H604 0.950 . S
C628 C623 1.363 . S
C628 C627 1.415 . S
C629 H605 0.951 . S
C629 C630 1.366 . S
C629 C631 1.388 . S
C630 C629 1.366 . S
C630 C634 1.385 . S
C631 H606 0.951 . S
C631 C629 1.388 . S
C631 C632 1.366 . S
C632 C631 1.366 . S
C632 C633 1.414 . S
C632 C635 1.499 . S
C633 H607 0.950 . S
C633 C632 1.414 . S
C633 C634 1.374 . S
C634 H608 0.950 . S
C634 C630 1.385 . S
C634 C633 1.374 . S
C635 C632 1.499 . S
C635 C636 1.373 . S
C635 C637 1.389 . S
C636 H609 0.950 . S
C636 C622 1.377 . S
C636 C635 1.373 . S
C637 C621 1.377 . S
C637 C635 1.389 . S
C637 C638 1.524 . S
C638 C637 1.524 . S
C638 C639 1.397 . S
C638 C643 1.363 . S
C639 H610 0.950 . S
C639 C638 1.397 . S
C639 C640 1.334 . S
C640 H611 0.950 . S
C640 C639 1.334 . S
C640 C641 1.287 . S
C641 C640 1.287 . S
C641 C642 1.524 . S
C641 H644 0.999 . S
C642 H612 0.950 . S
C642 C641 1.524 . S
C642 C643 1.415 . S
C643 H613 0.950 . S
C643 C638 1.363 . S
C643 C642 1.415 . S
H644 C641 0.999 . S
H645 C626 0.913 . S
H646 C664 0.951 . S
H647 C666 0.951 . S
H648 C668 0.950 . S
H649 C669 0.950 . S
H650 C671 0.950 . S
H651 C674 0.950 . S
H652 C675 0.950 . S
H653 C677 0.950 . S
H654 C678 0.950 . S
H655 C679 0.951 . S
H656 C681 0.951 . S
H657 C683 0.950 . S
H658 C684 0.950 . S
H659 C686 0.950 . S
H660 C689 0.950 . S
H661 C690 0.950 . S
H662 C692 0.950 . S
H663 C693 0.950 . S
C664 H646 0.951 . S
C664 C665 1.366 . S
C664 C666 1.388 . S
C665 C664 1.366 . S
C665 C669 1.385 . S
C666 H647 0.951 . S
C666 C664 1.388 . S
C666 C667 1.366 . S
C667 C666 1.366 . S
C667 C668 1.414 . S
C667 C670 1.499 . S
C668 H648 0.950 . S
C668 C667 1.414 . S
C668 C669 1.374 . S
C669 H649 0.950 . S
C669 C665 1.385 . S
C669 C668 1.374 . S
C670 C667 1.499 . S
C670 C671 1.373 . S
C670 C672 1.389 . S
C671 H650 0.950 . S
C671 C670 1.373 . S
C671 C687 1.377 . S
C672 C670 1.389 . S
C672 C673 1.524 . S
C672 C686 1.377 . S
C673 C672 1.524 . S
C673 C674 1.397 . S
C673 C678 1.363 . S
C674 H651 0.950 . S
C674 C673 1.397 . S
C674 C675 1.334 . S
C675 H652 0.950 . S
C675 C674 1.334 . S
C675 C676 1.287 . S
C676 C675 1.287 . S
C676 C677 1.524 . S
C676 H695 0.913 . S
C677 H653 0.950 . S
C677 C676 1.524 . S
C677 C678 1.415 . S
C678 H654 0.950 . S
C678 C673 1.363 . S
C678 C677 1.415 . S
C679 H655 0.951 . S
C679 C680 1.366 . S
C679 C681 1.388 . S
C680 C679 1.366 . S
C680 C684 1.385 . S
C681 H656 0.951 . S
C681 C679 1.388 . S
C681 C682 1.366 . S
C682 C681 1.366 . S
C682 C683 1.414 . S
C682 C685 1.499 . S
C683 H657 0.950 . S
C683 C682 1.414 . S
C683 C684 1.374 . S
C684 H658 0.950 . S
C684 C680 1.385 . S
C684 C683 1.374 . S
C685 C682 1.499 . S
C685 C686 1.373 . S
C685 C687 1.389 . S
C686 H659 0.950 . S
C686 C672 1.377 . S
C686 C685 1.373 . S
C687 C671 1.377 . S
C687 C685 1.389 . S
C687 C688 1.524 . S
C688 C687 1.524 . S
C688 C689 1.397 . S
C688 C693 1.363 . S
C689 H660 0.950 . S
C689 C688 1.397 . S
C689 C690 1.334 . S
C690 H661 0.950 . S
C690 C689 1.334 . S
C690 C691 1.287 . S
C691 C690 1.287 . S
C691 C692 1.524 . S
C691 H694 0.999 . S
C692 H662 0.950 . S
C692 C691 1.524 . S
C692 C693 1.415 . S
C693 H663 0.950 . S
C693 C688 1.363 . S
C693 C692 1.415 . S
H694 C691 0.999 . S
H695 C676 0.913 . S
H696 C714 0.951 . S
H697 C716 0.951 . S
H698 C718 0.950 . S
H699 C719 0.950 . S
H700 C721 0.950 . S
H701 C724 0.950 . S
H702 C725 0.950 . S
H703 C727 0.950 . S
H704 C728 0.950 . S
H705 C729 0.951 . S
H706 C731 0.951 . S
H707 C733 0.950 . S
H708 C734 0.950 . S
H709 C736 0.950 . S
H710 C739 0.950 . S
H711 C740 0.950 1_545 S
H712 C742 0.950 . S
H713 C743 0.950 . S
C714 H696 0.951 . S
C714 C715 1.366 . S
C714 C716 1.388 . S
C715 C714 1.366 . S
C715 C719 1.385 . S
C716 H697 0.951 . S
C716 C714 1.388 . S
C716 C717 1.366 . S
C717 C716 1.366 . S
C717 C718 1.414 . S
C717 C720 1.499 . S
C718 H698 0.950 . S
C718 C717 1.414 . S
C718 C719 1.374 . S
C719 H699 0.950 . S
C719 C715 1.385 . S
C719 C718 1.374 . S
C720 C717 1.499 . S
C720 C721 1.373 . S
C720 C722 1.389 . S
C721 H700 0.950 . S
C721 C720 1.373 . S
C721 C737 1.377 . S
C722 C720 1.389 . S
C722 C723 1.524 . S
C722 C736 1.377 . S
C723 C722 1.524 . S
C723 C724 1.397 . S
C723 C728 1.363 . S
C724 H701 0.950 . S
C724 C723 1.397 . S
C724 C725 1.334 . S
C725 H702 0.950 . S
C725 C724 1.334 . S
C725 C726 1.287 . S
C726 C725 1.287 . S
C726 C727 1.524 . S
C726 H745 0.913 . S
C727 H703 0.950 . S
C727 C726 1.524 . S
C727 C728 1.415 . S
C728 H704 0.950 . S
C728 C723 1.363 . S
C728 C727 1.415 . S
C729 H705 0.951 . S
C729 C730 1.366 . S
C729 C731 1.388 . S
C730 C729 1.366 . S
C730 C734 1.385 . S
C731 H706 0.951 . S
C731 C729 1.388 . S
C731 C732 1.366 . S
C732 C731 1.366 . S
C732 C733 1.414 . S
C732 C735 1.499 . S
C733 H707 0.950 . S
C733 C732 1.414 . S
C733 C734 1.374 . S
C734 H708 0.950 . S
C734 C730 1.385 . S
C734 C733 1.374 . S
C735 C732 1.499 . S
C735 C736 1.373 . S
C735 C737 1.389 . S
C736 H709 0.950 . S
C736 C722 1.377 . S
C736 C735 1.373 . S
C737 C721 1.377 . S
C737 C735 1.389 . S
C737 C738 1.524 . S
C738 C737 1.524 . S
C738 C739 1.397 . S
C738 C743 1.363 . S
C739 H710 0.950 . S
C739 C738 1.397 . S
C739 C740 1.334 . S
C740 H711 0.950 1_565 S
C740 C739 1.334 . S
C740 C741 1.287 . S
C741 C740 1.287 . S
C741 C742 1.524 . S
C741 H744 0.999 1_565 S
C742 H712 0.950 . S
C742 C741 1.524 . S
C742 C743 1.415 . S
C743 H713 0.950 . S
C743 C738 1.363 . S
C743 C742 1.415 . S
H744 C741 0.999 1_545 S
H745 C726 0.913 . S
H746 C764 0.951 . S
H747 C766 0.951 . S
H748 C768 0.950 . S
H749 C769 0.950 . S
H750 C771 0.950 . S
H751 C774 0.950 . S
H752 C775 0.950 . S
H753 C777 0.950 . S
H754 C778 0.950 . S
H755 C779 0.951 . S
H756 C781 0.951 . S
H757 C783 0.950 . S
H758 C784 0.950 . S
H759 C786 0.950 . S
H760 C789 0.950 . S
H761 C790 0.950 . S
H762 C792 0.950 . S
H763 C793 0.950 . S
C764 H746 0.951 . S
C764 C765 1.366 . S
C764 C766 1.388 . S
C765 C764 1.366 . S
C765 C769 1.385 . S
C766 H747 0.951 . S
C766 C764 1.388 . S
C766 C767 1.366 . S
C767 C766 1.366 . S
C767 C768 1.414 . S
C767 C770 1.499 . S
C768 H748 0.950 . S
C768 C767 1.414 . S
C768 C769 1.374 . S
C769 H749 0.950 . S
C769 C765 1.385 . S
C769 C768 1.374 . S
C770 C767 1.499 . S
C770 C771 1.373 . S
C770 C772 1.389 . S
C771 H750 0.950 . S
C771 C770 1.373 . S
C771 C787 1.377 . S
C772 C770 1.389 . S
C772 C773 1.524 . S
C772 C786 1.377 . S
C773 C772 1.524 . S
C773 C774 1.397 . S
C773 C778 1.363 . S
C774 H751 0.950 . S
C774 C773 1.397 . S
C774 C775 1.334 . S
C775 H752 0.950 . S
C775 C774 1.334 . S
C775 C776 1.287 . S
C776 C775 1.287 . S
C776 C777 1.524 . S
C776 H795 0.913 . S
C777 H753 0.950 . S
C777 C776 1.524 . S
C777 C778 1.415 . S
C778 H754 0.950 . S
C778 C773 1.363 . S
C778 C777 1.415 . S
C779 H755 0.951 . S
C779 C780 1.366 . S
C779 C781 1.388 . S
C780 C779 1.366 . S
C780 C784 1.385 . S
C781 H756 0.951 . S
C781 C779 1.388 . S
C781 C782 1.366 . S
C782 C781 1.366 . S
C782 C783 1.414 . S
C782 C785 1.499 . S
C783 H757 0.950 . S
C783 C782 1.414 . S
C783 C784 1.374 . S
C784 H758 0.950 . S
C784 C780 1.385 . S
C784 C783 1.374 . S
C785 C782 1.499 . S
C785 C786 1.373 . S
C785 C787 1.389 . S
C786 H759 0.950 . S
C786 C772 1.377 . S
C786 C785 1.373 . S
C787 C771 1.377 . S
C787 C785 1.389 . S
C787 C788 1.524 . S
C788 C787 1.524 . S
C788 C789 1.397 . S
C788 C793 1.363 . S
C789 H760 0.950 . S
C789 C788 1.397 . S
C789 C790 1.334 . S
C790 H761 0.950 . S
C790 C789 1.334 . S
C790 C791 1.287 . S
C791 C790 1.287 . S
C791 C792 1.524 . S
C791 H794 0.999 . S
C792 H762 0.950 . S
C792 C791 1.524 . S
C792 C793 1.415 . S
C793 H763 0.950 . S
C793 C788 1.363 . S
C793 C792 1.415 . S
H794 C791 0.999 . S
H795 C776 0.913 . S
H796 C814 0.951 . S
H797 C816 0.951 . S
H798 C818 0.950 . S
H799 C819 0.950 . S
H800 C821 0.950 . S
H801 C824 0.950 . S
H802 C825 0.950 . S
H803 C827 0.950 . S
H804 C828 0.950 . S
H805 C829 0.951 . S
H806 C831 0.951 . S
H807 C833 0.950 . S
H808 C834 0.950 . S
H809 C836 0.950 . S
H810 C839 0.950 . S
H811 C840 0.950 . S
H812 C842 0.950 . S
H813 C843 0.950 . S
C814 H796 0.951 . S
C814 C815 1.366 . S
C814 C816 1.388 . S
C815 C814 1.366 . S
C815 C819 1.385 . S
C816 H797 0.951 . S
C816 C814 1.388 . S
C816 C817 1.366 . S
C817 C816 1.366 . S
C817 C818 1.414 . S
C817 C820 1.499 . S
C818 H798 0.950 . S
C818 C817 1.414 . S
C818 C819 1.374 . S
C819 H799 0.950 . S
C819 C815 1.385 . S
C819 C818 1.374 . S
C820 C817 1.499 . S
C820 C821 1.373 . S
C820 C822 1.389 . S
C821 H800 0.950 . S
C821 C820 1.373 . S
C821 C837 1.377 . S
C822 C820 1.389 . S
C822 C823 1.524 . S
C822 C836 1.377 . S
C823 C822 1.524 . S
C823 C824 1.397 . S
C823 C828 1.363 . S
C824 H801 0.950 . S
C824 C823 1.397 . S
C824 C825 1.334 . S
C825 H802 0.950 . S
C825 C824 1.334 . S
C825 C826 1.287 . S
C826 C825 1.287 . S
C826 C827 1.524 . S
C826 H845 0.913 . S
C827 H803 0.950 . S
C827 C826 1.524 . S
C827 C828 1.415 . S
C828 H804 0.950 . S
C828 C823 1.363 . S
C828 C827 1.415 . S
C829 H805 0.951 . S
C829 C830 1.366 . S
C829 C831 1.388 . S
C830 C829 1.366 . S
C830 C834 1.385 . S
C831 H806 0.951 . S
C831 C829 1.388 . S
C831 C832 1.366 . S
C832 C831 1.366 . S
C832 C833 1.414 . S
C832 C835 1.499 . S
C833 H807 0.950 . S
C833 C832 1.414 . S
C833 C834 1.374 . S
C834 H808 0.950 . S
C834 C830 1.385 . S
C834 C833 1.374 . S
C835 C832 1.499 . S
C835 C836 1.373 . S
C835 C837 1.389 . S
C836 H809 0.950 . S
C836 C822 1.377 . S
C836 C835 1.373 . S
C837 C821 1.377 . S
C837 C835 1.389 . S
C837 C838 1.524 . S
C838 C837 1.524 . S
C838 C839 1.397 . S
C838 C843 1.363 . S
C839 H810 0.950 . S
C839 C838 1.397 . S
C839 C840 1.334 . S
C840 H811 0.950 . S
C840 C839 1.334 . S
C840 C841 1.287 . S
C841 C840 1.287 . S
C841 C842 1.524 . S
C841 H844 0.999 . S
C842 H812 0.950 . S
C842 C841 1.524 . S
C842 C843 1.415 . S
C843 H813 0.950 . S
C843 C838 1.363 . S
C843 C842 1.415 . S
H844 C841 0.999 . S
H845 C826 0.913 . S
H846 C864 0.951 . S
H847 C866 0.951 . S
H848 C868 0.950 . S
H849 C869 0.950 . S
H850 C871 0.950 . S
H851 C874 0.950 . S
H852 C875 0.950 . S
H853 C877 0.950 . S
H854 C878 0.950 . S
H855 C879 0.951 . S
H856 C881 0.951 . S
H857 C883 0.950 . S
H858 C884 0.950 . S
H859 C886 0.950 . S
H860 C889 0.950 . S
H861 C890 0.950 . S
H862 C892 0.950 . S
H863 C893 0.950 . S
C864 H846 0.951 . S
C864 C865 1.366 . S
C864 C866 1.388 . S
C865 C864 1.366 . S
C865 C869 1.385 . S
C866 H847 0.951 . S
C866 C864 1.388 . S
C866 C867 1.366 . S
C867 C866 1.366 . S
C867 C868 1.414 . S
C867 C870 1.499 . S
C868 H848 0.950 . S
C868 C867 1.414 . S
C868 C869 1.374 . S
C869 H849 0.950 . S
C869 C865 1.385 . S
C869 C868 1.374 . S
C870 C867 1.499 . S
C870 C871 1.373 . S
C870 C872 1.389 . S
C871 H850 0.950 . S
C871 C870 1.373 . S
C871 C887 1.377 . S
C872 C870 1.389 . S
C872 C873 1.524 . S
C872 C886 1.377 . S
C873 C872 1.524 . S
C873 C874 1.397 . S
C873 C878 1.363 . S
C874 H851 0.950 . S
C874 C873 1.397 . S
C874 C875 1.334 . S
C875 H852 0.950 . S
C875 C874 1.334 . S
C875 C876 1.287 . S
C876 C875 1.287 . S
C876 C877 1.524 . S
C876 H895 0.913 . S
C877 H853 0.950 . S
C877 C876 1.524 . S
C877 C878 1.415 . S
C878 H854 0.950 . S
C878 C873 1.363 . S
C878 C877 1.415 . S
C879 H855 0.951 . S
C879 C880 1.366 . S
C879 C881 1.388 . S
C880 C879 1.366 . S
C880 C884 1.385 . S
C881 H856 0.951 . S
C881 C879 1.388 . S
C881 C882 1.366 . S
C882 C881 1.366 . S
C882 C883 1.414 . S
C882 C885 1.499 . S
C883 H857 0.950 . S
C883 C882 1.414 . S
C883 C884 1.374 . S
C884 H858 0.950 . S
C884 C880 1.385 . S
C884 C883 1.374 . S
C885 C882 1.499 . S
C885 C886 1.373 . S
C885 C887 1.389 . S
C886 H859 0.950 . S
C886 C872 1.377 . S
C886 C885 1.373 . S
C887 C871 1.377 . S
C887 C885 1.389 . S
C887 C888 1.524 . S
C888 C887 1.524 . S
C888 C889 1.397 . S
C888 C893 1.363 . S
C889 H860 0.950 . S
C889 C888 1.397 . S
C889 C890 1.334 . S
C890 H861 0.950 . S
C890 C889 1.334 . S
C890 C891 1.287 . S
C891 C890 1.287 . S
C891 C892 1.524 . S
C891 H894 0.999 . S
C892 H862 0.950 . S
C892 C891 1.524 . S
C892 C893 1.415 . S
C893 H863 0.950 . S
C893 C888 1.363 . S
C893 C892 1.415 . S
H894 C891 0.999 . S
H895 C876 0.913 . S
H896 C914 0.951 . S
H897 C916 0.951 . S
H898 C918 0.950 . S
H899 C919 0.950 . S
H900 C921 0.950 . S
H901 C924 0.950 . S
H902 C925 0.950 . S
H903 C927 0.950 . S
H904 C928 0.950 . S
H905 C929 0.951 . S
H906 C931 0.951 . S
H907 C933 0.950 . S
H908 C934 0.950 . S
H909 C936 0.950 . S
H910 C939 0.950 . S
H911 C940 0.950 . S
H912 C942 0.950 . S
H913 C943 0.950 . S
C914 H896 0.951 . S
C914 C915 1.366 . S
C914 C916 1.388 . S
C915 C914 1.366 . S
C915 C919 1.385 . S
C916 H897 0.951 . S
C916 C914 1.388 . S
C916 C917 1.366 . S
C917 C916 1.366 . S
C917 C918 1.414 . S
C917 C920 1.499 . S
C918 H898 0.950 . S
C918 C917 1.414 . S
C918 C919 1.374 . S
C919 H899 0.950 . S
C919 C915 1.385 . S
C919 C918 1.374 . S
C920 C917 1.499 . S
C920 C921 1.373 . S
C920 C922 1.389 . S
C921 H900 0.950 . S
C921 C920 1.373 . S
C921 C937 1.377 . S
C922 C920 1.389 . S
C922 C923 1.524 . S
C922 C936 1.377 . S
C923 C922 1.524 . S
C923 C924 1.397 . S
C923 C928 1.363 . S
C924 H901 0.950 . S
C924 C923 1.397 . S
C924 C925 1.334 . S
C925 H902 0.950 . S
C925 C924 1.334 . S
C925 C926 1.287 . S
C926 C925 1.287 . S
C926 C927 1.524 . S
C926 H945 0.913 . S
C927 H903 0.950 . S
C927 C926 1.524 . S
C927 C928 1.415 . S
C928 H904 0.950 . S
C928 C923 1.363 . S
C928 C927 1.415 . S
C929 H905 0.951 . S
C929 C930 1.366 . S
C929 C931 1.388 . S
C930 C929 1.366 . S
C930 C934 1.385 . S
C931 H906 0.951 . S
C931 C929 1.388 . S
C931 C932 1.366 . S
C932 C931 1.366 . S
C932 C933 1.414 . S
C932 C935 1.499 . S
C933 H907 0.950 . S
C933 C932 1.414 . S
C933 C934 1.374 . S
C934 H908 0.950 . S
C934 C930 1.385 . S
C934 C933 1.374 . S
C935 C932 1.499 . S
C935 C936 1.373 . S
C935 C937 1.389 . S
C936 H909 0.950 . S
C936 C922 1.377 . S
C936 C935 1.373 . S
C937 C921 1.377 . S
C937 C935 1.389 . S
C937 C938 1.524 . S
C938 C937 1.524 . S
C938 C939 1.397 . S
C938 C943 1.363 . S
C939 H910 0.950 . S
C939 C938 1.397 . S
C939 C940 1.334 . S
C940 H911 0.950 . S
C940 C939 1.334 . S
C940 C941 1.287 . S
C941 C940 1.287 . S
C941 C942 1.524 . S
C941 H944 0.999 1_455 S
C942 H912 0.950 . S
C942 C941 1.524 . S
C942 C943 1.415 . S
C943 H913 0.950 . S
C943 C938 1.363 . S
C943 C942 1.415 . S
H944 C941 0.999 1_655 S
H945 C926 0.913 . S
H946 C964 0.951 . S
H947 C966 0.951 . S
H948 C968 0.950 . S
H949 C969 0.950 . S
H950 C971 0.950 . S
H951 C974 0.950 . S
H952 C975 0.950 . S
H953 C977 0.950 . S
H954 C978 0.950 . S
H955 C979 0.951 . S
H956 C981 0.951 . S
H957 C983 0.950 . S
H958 C984 0.950 . S
H959 C986 0.950 . S
H960 C989 0.950 . S
H961 C990 0.950 . S
H962 C992 0.950 . S
H963 C993 0.950 . S
C964 H946 0.951 . S
C964 C965 1.366 . S
C964 C966 1.388 . S
C965 C964 1.366 . S
C965 C969 1.385 . S
C966 H947 0.951 . S
C966 C964 1.388 . S
C966 C967 1.366 . S
C967 C966 1.366 . S
C967 C968 1.414 . S
C967 C970 1.499 . S
C968 H948 0.950 . S
C968 C967 1.414 . S
C968 C969 1.374 . S
C969 H949 0.950 . S
C969 C965 1.385 . S
C969 C968 1.374 . S
C970 C967 1.499 . S
C970 C971 1.373 . S
C970 C972 1.389 . S
C971 H950 0.950 . S
C971 C970 1.373 . S
C971 C987 1.377 . S
C972 C970 1.389 . S
C972 C973 1.524 . S
C972 C986 1.377 . S
C973 C972 1.524 . S
C973 C974 1.397 . S
C973 C978 1.363 . S
C974 H951 0.950 . S
C974 C973 1.397 . S
C974 C975 1.334 . S
C975 H952 0.950 . S
C975 C974 1.334 . S
C975 C976 1.287 . S
C976 C975 1.287 . S
C976 C977 1.524 . S
C976 H995 0.913 . S
C977 H953 0.950 . S
C977 C976 1.524 . S
C977 C978 1.415 . S
C978 H954 0.950 . S
C978 C973 1.363 . S
C978 C977 1.415 . S
C979 H955 0.951 . S
C979 C980 1.366 . S
C979 C981 1.388 . S
C980 C979 1.366 . S
C980 C984 1.385 . S
C981 H956 0.951 . S
C981 C979 1.388 . S
C981 C982 1.366 . S
C982 C981 1.366 . S
C982 C983 1.414 . S
C982 C985 1.499 . S
C983 H957 0.950 . S
C983 C982 1.414 . S
C983 C984 1.374 . S
C984 H958 0.950 . S
C984 C980 1.385 . S
C984 C983 1.374 . S
C985 C982 1.499 . S
C985 C986 1.373 . S
C985 C987 1.389 . S
C986 H959 0.950 . S
C986 C972 1.377 . S
C986 C985 1.373 . S
C987 C971 1.377 . S
C987 C985 1.389 . S
C987 C988 1.524 . S
C988 C987 1.524 . S
C988 C989 1.397 . S
C988 C993 1.363 . S
C989 H960 0.950 . S
C989 C988 1.397 . S
C989 C990 1.334 . S
C990 H961 0.950 . S
C990 C989 1.334 . S
C990 C991 1.287 . S
C991 C990 1.287 . S
C991 C992 1.524 . S
C991 H994 0.999 1_565 S
C992 H962 0.950 . S
C992 C991 1.524 . S
C992 C993 1.415 . S
C993 H963 0.950 . S
C993 C988 1.363 . S
C993 C992 1.415 . S
H994 C991 0.999 1_545 S
H995 C976 0.913 . S
H996 C1014 0.951 . S
H997 C1016 0.951 . S
H998 C1018 0.950 . S
H999 C1019 0.950 . S
H1000 C1021 0.950 . S
H1001 C1024 0.950 . S
H1002 C1025 0.950 . S
H1003 C1027 0.950 . S
H1004 C1028 0.950 . S
H1005 C1029 0.951 . S
H1006 C1031 0.951 . S
H1007 C1033 0.950 . S
H1008 C1034 0.950 . S
H1009 C1036 0.950 . S
H1010 C1039 0.950 . S
H1011 C1040 0.950 . S
H1012 C1042 0.950 . S
H1013 C1043 0.950 . S
C1014 H996 0.951 . S
C1014 C1015 1.366 . S
C1014 C1016 1.388 . S
C1015 C1014 1.366 . S
C1015 C1019 1.385 . S
C1016 H997 0.951 . S
C1016 C1014 1.388 . S
C1016 C1017 1.366 . S
C1017 C1016 1.366 . S
C1017 C1018 1.414 . S
C1017 C1020 1.499 . S
C1018 H998 0.950 . S
C1018 C1017 1.414 . S
C1018 C1019 1.374 . S
C1019 H999 0.950 . S
C1019 C1015 1.385 . S
C1019 C1018 1.374 . S
C1020 C1017 1.499 . S
C1020 C1021 1.373 . S
C1020 C1022 1.389 . S
C1021 H1000 0.950 . S
C1021 C1020 1.373 . S
C1021 C1037 1.377 . S
C1022 C1020 1.389 . S
C1022 C1023 1.524 . S
C1022 C1036 1.377 . S
C1023 C1022 1.524 . S
C1023 C1024 1.397 . S
C1023 C1028 1.363 . S
C1024 H1001 0.950 . S
C1024 C1023 1.397 . S
C1024 C1025 1.334 . S
C1025 H1002 0.950 . S
C1025 C1024 1.334 . S
C1025 C1026 1.287 . S
C1026 C1025 1.287 . S
C1026 C1027 1.524 . S
C1026 H1045 0.913 . S
C1027 H1003 0.950 . S
C1027 C1026 1.524 . S
C1027 C1028 1.415 . S
C1028 H1004 0.950 . S
C1028 C1023 1.363 . S
C1028 C1027 1.415 . S
C1029 H1005 0.951 . S
C1029 C1030 1.366 . S
C1029 C1031 1.388 . S
C1030 C1029 1.366 . S
C1030 C1034 1.385 . S
C1031 H1006 0.951 . S
C1031 C1029 1.388 . S
C1031 C1032 1.366 . S
C1032 C1031 1.366 . S
C1032 C1033 1.414 . S
C1032 C1035 1.499 . S
C1033 H1007 0.950 . S
C1033 C1032 1.414 . S
C1033 C1034 1.374 . S
C1034 H1008 0.950 . S
C1034 C1030 1.385 . S
C1034 C1033 1.374 . S
C1035 C1032 1.499 . S
C1035 C1036 1.373 . S
C1035 C1037 1.389 . S
C1036 H1009 0.950 . S
C1036 C1022 1.377 . S
C1036 C1035 1.373 . S
C1037 C1021 1.377 . S
C1037 C1035 1.389 . S
C1037 C1038 1.524 . S
C1038 C1037 1.524 . S
C1038 C1039 1.397 . S
C1038 C1043 1.363 . S
C1039 H1010 0.950 . S
C1039 C1038 1.397 . S
C1039 C1040 1.334 . S
C1040 H1011 0.950 . S
C1040 C1039 1.334 . S
C1040 C1041 1.287 . S
C1041 C1040 1.287 . S
C1041 C1042 1.524 . S
C1041 H1044 0.999 . S
C1042 H1012 0.950 . S
C1042 C1041 1.524 . S
C1042 C1043 1.415 . S
C1043 H1013 0.950 . S
C1043 C1038 1.363 . S
C1043 C1042 1.415 . S
H1044 C1041 0.999 . S
H1045 C1026 0.913 . S
H1046 C1064 0.951 . S
H1047 C1066 0.951 . S
H1048 C1068 0.950 . S
H1049 C1069 0.950 . S
H1050 C1071 0.950 . S
H1051 C1074 0.950 . S
H1052 C1075 0.950 . S
H1053 C1077 0.950 . S
H1054 C1078 0.950 . S
H1055 C1079 0.951 . S
H1056 C1081 0.951 . S
H1057 C1083 0.950 . S
H1058 C1084 0.950 . S
H1059 C1086 0.950 . S
H1060 C1089 0.950 . S
H1061 C1090 0.950 . S
H1062 C1092 0.950 . S
H1063 C1093 0.950 . S
C1064 H1046 0.951 . S
C1064 C1065 1.366 . S
C1064 C1066 1.388 . S
C1065 C1064 1.366 . S
C1065 C1069 1.385 . S
C1066 H1047 0.951 . S
C1066 C1064 1.388 . S
C1066 C1067 1.366 . S
C1067 C1066 1.366 . S
C1067 C1068 1.414 . S
C1067 C1070 1.499 . S
C1068 H1048 0.950 . S
C1068 C1067 1.414 . S
C1068 C1069 1.374 . S
C1069 H1049 0.950 . S
C1069 C1065 1.385 . S
C1069 C1068 1.374 . S
C1070 C1067 1.499 . S
C1070 C1071 1.373 . S
C1070 C1072 1.389 . S
C1071 H1050 0.950 . S
C1071 C1070 1.373 . S
C1071 C1087 1.377 . S
C1072 C1070 1.389 . S
C1072 C1073 1.524 . S
C1072 C1086 1.377 . S
C1073 C1072 1.524 . S
C1073 C1074 1.397 . S
C1073 C1078 1.363 . S
C1074 H1051 0.950 . S
C1074 C1073 1.397 . S
C1074 C1075 1.334 . S
C1075 H1052 0.950 . S
C1075 C1074 1.334 . S
C1075 C1076 1.287 . S
C1076 C1075 1.287 . S
C1076 C1077 1.524 . S
C1076 H1095 0.913 . S
C1077 H1053 0.950 . S
C1077 C1076 1.524 . S
C1077 C1078 1.415 . S
C1078 H1054 0.950 . S
C1078 C1073 1.363 . S
C1078 C1077 1.415 . S
C1079 H1055 0.951 . S
C1079 C1080 1.366 . S
C1079 C1081 1.388 . S
C1080 C1079 1.366 . S
C1080 C1084 1.385 . S
C1081 H1056 0.951 . S
C1081 C1079 1.388 . S
C1081 C1082 1.366 . S
C1082 C1081 1.366 . S
C1082 C1083 1.414 . S
C1082 C1085 1.499 . S
C1083 H1057 0.950 . S
C1083 C1082 1.414 . S
C1083 C1084 1.374 . S
C1084 H1058 0.950 . S
C1084 C1080 1.385 . S
C1084 C1083 1.374 . S
C1085 C1082 1.499 . S
C1085 C1086 1.373 . S
C1085 C1087 1.389 . S
C1086 H1059 0.950 . S
C1086 C1072 1.377 . S
C1086 C1085 1.373 . S
C1087 C1071 1.377 . S
C1087 C1085 1.389 . S
C1087 C1088 1.524 . S
C1088 C1087 1.524 . S
C1088 C1089 1.397 . S
C1088 C1093 1.363 . S
C1089 H1060 0.950 . S
C1089 C1088 1.397 . S
C1089 C1090 1.334 . S
C1090 H1061 0.950 . S
C1090 C1089 1.334 . S
C1090 C1091 1.287 . S
C1091 C1090 1.287 . S
C1091 C1092 1.524 . S
C1091 H1094 0.999 . S
C1092 H1062 0.950 . S
C1092 C1091 1.524 . S
C1092 C1093 1.415 . S
C1093 H1063 0.950 . S
C1093 C1088 1.363 . S
C1093 C1092 1.415 . S
H1094 C1091 0.999 . S
H1095 C1076 0.913 . S
H1096 C1114 0.951 . S
H1097 C1116 0.951 . S
H1098 C1118 0.950 . S
H1099 C1119 0.950 . S
H1100 C1121 0.950 . S
H1101 C1124 0.950 . S
H1102 C1125 0.950 . S
H1103 C1127 0.950 . S
H1104 C1128 0.950 . S
H1105 C1129 0.951 . S
H1106 C1131 0.951 . S
H1107 C1133 0.950 . S
H1108 C1134 0.950 . S
H1109 C1136 0.950 . S
H1110 C1139 0.950 . S
H1111 C1140 0.950 . S
H1112 C1142 0.950 . S
H1113 C1143 0.950 . S
C1114 H1096 0.951 . S
C1114 C1115 1.366 . S
C1114 C1116 1.388 . S
C1115 C1114 1.366 . S
C1115 C1119 1.385 . S
C1116 H1097 0.951 . S
C1116 C1114 1.388 . S
C1116 C1117 1.366 . S
C1117 C1116 1.366 . S
C1117 C1118 1.414 . S
C1117 C1120 1.499 . S
C1118 H1098 0.950 . S
C1118 C1117 1.414 . S
C1118 C1119 1.374 . S
C1119 H1099 0.950 . S
C1119 C1115 1.385 . S
C1119 C1118 1.374 . S
C1120 C1117 1.499 . S
C1120 C1121 1.373 . S
C1120 C1122 1.389 . S
C1121 H1100 0.950 . S
C1121 C1120 1.373 . S
C1121 C1137 1.377 . S
C1122 C1120 1.389 . S
C1122 C1123 1.524 . S
C1122 C1136 1.377 . S
C1123 C1122 1.524 . S
C1123 C1124 1.397 . S
C1123 C1128 1.363 . S
C1124 H1101 0.950 . S
C1124 C1123 1.397 . S
C1124 C1125 1.334 . S
C1125 H1102 0.950 . S
C1125 C1124 1.334 . S
C1125 C1126 1.287 . S
C1126 C1125 1.287 . S
C1126 C1127 1.524 . S
C1126 H1145 0.913 . S
C1127 H1103 0.950 . S
C1127 C1126 1.524 . S
C1127 C1128 1.415 . S
C1128 H1104 0.950 . S
C1128 C1123 1.363 . S
C1128 C1127 1.415 . S
C1129 H1105 0.951 . S
C1129 C1130 1.366 . S
C1129 C1131 1.388 . S
C1130 C1129 1.366 . S
C1130 C1134 1.385 . S
C1131 H1106 0.951 . S
C1131 C1129 1.388 . S
C1131 C1132 1.366 . S
C1132 C1131 1.366 . S
C1132 C1133 1.414 . S
C1132 C1135 1.499 . S
C1133 H1107 0.950 . S
C1133 C1132 1.414 . S
C1133 C1134 1.374 . S
C1134 H1108 0.950 . S
C1134 C1130 1.385 . S
C1134 C1133 1.374 . S
C1135 C1132 1.499 . S
C1135 C1136 1.373 . S
C1135 C1137 1.389 . S
C1136 H1109 0.950 . S
C1136 C1122 1.377 . S
C1136 C1135 1.373 . S
C1137 C1121 1.377 . S
C1137 C1135 1.389 . S
C1137 C1138 1.524 . S
C1138 C1137 1.524 . S
C1138 C1139 1.397 . S
C1138 C1143 1.363 . S
C1139 H1110 0.950 . S
C1139 C1138 1.397 . S
C1139 C1140 1.334 . S
C1140 H1111 0.950 . S
C1140 C1139 1.334 . S
C1140 C1141 1.287 . S
C1141 C1140 1.287 . S
C1141 C1142 1.524 . S
C1141 H1144 0.999 . S
C1142 H1112 0.950 . S
C1142 C1141 1.524 . S
C1142 C1143 1.415 . S
C1143 H1113 0.950 . S
C1143 C1138 1.363 . S
C1143 C1142 1.415 . S
H1144 C1141 0.999 . S
H1145 C1126 0.913 . S
H1146 C1164 0.951 . S
H1147 C1166 0.951 . S
H1148 C1168 0.950 . S
H1149 C1169 0.950 . S
H1150 C1171 0.950 . S
H1151 C1174 0.950 . S
H1152 C1175 0.950 . S
H1153 C1177 0.950 . S
H1154 C1178 0.950 . S
H1155 C1179 0.951 . S
H1156 C1181 0.951 . S
H1157 C1183 0.950 . S
H1158 C1184 0.950 . S
H1159 C1186 0.950 . S
H1160 C1189 0.950 . S
H1161 C1190 0.950 . S
H1162 C1192 0.950 . S
H1163 C1193 0.950 . S
C1164 H1146 0.951 . S
C1164 C1165 1.366 . S
C1164 C1166 1.388 . S
C1165 C1164 1.366 . S
C1165 C1169 1.385 . S
C1166 H1147 0.951 . S
C1166 C1164 1.388 . S
C1166 C1167 1.366 . S
C1167 C1166 1.366 . S
C1167 C1168 1.414 . S
C1167 C1170 1.499 . S
C1168 H1148 0.950 . S
C1168 C1167 1.414 . S
C1168 C1169 1.374 . S
C1169 H1149 0.950 . S
C1169 C1165 1.385 . S
C1169 C1168 1.374 . S
C1170 C1167 1.499 . S
C1170 C1171 1.373 . S
C1170 C1172 1.389 . S
C1171 H1150 0.950 . S
C1171 C1170 1.373 . S
C1171 C1187 1.377 . S
C1172 C1170 1.389 . S
C1172 C1173 1.524 . S
C1172 C1186 1.377 . S
C1173 C1172 1.524 . S
C1173 C1174 1.397 . S
C1173 C1178 1.363 . S
C1174 H1151 0.950 . S
C1174 C1173 1.397 . S
C1174 C1175 1.334 . S
C1175 H1152 0.950 . S
C1175 C1174 1.334 . S
C1175 C1176 1.287 . S
C1176 C1175 1.287 . S
C1176 C1177 1.524 . S
C1176 H1195 0.913 . S
C1177 H1153 0.950 . S
C1177 C1176 1.524 . S
C1177 C1178 1.415 . S
C1178 H1154 0.950 . S
C1178 C1173 1.363 . S
C1178 C1177 1.415 . S
C1179 H1155 0.951 . S
C1179 C1180 1.366 . S
C1179 C1181 1.388 . S
C1180 C1179 1.366 . S
C1180 C1184 1.385 . S
C1181 H1156 0.951 . S
C1181 C1179 1.388 . S
C1181 C1182 1.366 . S
C1182 C1181 1.366 . S
C1182 C1183 1.414 . S
C1182 C1185 1.499 . S
C1183 H1157 0.950 . S
C1183 C1182 1.414 . S
C1183 C1184 1.374 . S
C1184 H1158 0.950 . S
C1184 C1180 1.385 . S
C1184 C1183 1.374 . S
C1185 C1182 1.499 . S
C1185 C1186 1.373 . S
C1185 C1187 1.389 . S
C1186 H1159 0.950 . S
C1186 C1172 1.377 . S
C1186 C1185 1.373 . S
C1187 C1171 1.377 . S
C1187 C1185 1.389 . S
C1187 C1188 1.524 . S
C1188 C1187 1.524 . S
C1188 C1189 1.397 . S
C1188 C1193 1.363 . S
C1189 H1160 0.950 . S
C1189 C1188 1.397 . S
C1189 C1190 1.334 . S
C1190 H1161 0.950 . S
C1190 C1189 1.334 . S
C1190 C1191 1.287 . S
C1191 C1190 1.287 . S
C1191 C1192 1.524 . S
C1191 H1194 0.999 . S
C1192 H1162 0.950 . S
C1192 C1191 1.524 . S
C1192 C1193 1.415 . S
C1193 H1163 0.950 . S
C1193 C1188 1.363 . S
C1193 C1192 1.415 . S
H1194 C1191 0.999 . S
H1195 C1176 0.913 . S
H1196 C1214 0.951 . S
H1197 C1216 0.951 . S
H1198 C1218 0.950 . S
H1199 C1219 0.950 . S
H1200 C1221 0.950 . S
H1201 C1224 0.950 . S
H1202 C1225 0.950 . S
H1203 C1227 0.950 . S
H1204 C1228 0.950 . S
H1205 C1229 0.951 . S
H1206 C1231 0.951 . S
H1207 C1233 0.950 . S
H1208 C1234 0.950 . S
H1209 C1236 0.950 . S
H1210 C1239 0.950 . S
H1211 C1240 0.950 . S
H1212 C1242 0.950 . S
H1213 C1243 0.950 . S
C1214 H1196 0.951 . S
C1214 C1215 1.366 . S
C1214 C1216 1.388 . S
C1215 C1214 1.366 . S
C1215 C1219 1.385 . S
C1216 H1197 0.951 . S
C1216 C1214 1.388 . S
C1216 C1217 1.366 . S
C1217 C1216 1.366 . S
C1217 C1218 1.414 . S
C1217 C1220 1.499 . S
C1218 H1198 0.950 . S
C1218 C1217 1.414 . S
C1218 C1219 1.374 . S
C1219 H1199 0.950 . S
C1219 C1215 1.385 . S
C1219 C1218 1.374 . S
C1220 C1217 1.499 . S
C1220 C1221 1.373 . S
C1220 C1222 1.389 . S
C1221 H1200 0.950 . S
C1221 C1220 1.373 . S
C1221 C1237 1.377 . S
C1222 C1220 1.389 . S
C1222 C1223 1.524 . S
C1222 C1236 1.377 . S
C1223 C1222 1.524 . S
C1223 C1224 1.397 . S
C1223 C1228 1.363 . S
C1224 H1201 0.950 . S
C1224 C1223 1.397 . S
C1224 C1225 1.334 . S
C1225 H1202 0.950 . S
C1225 C1224 1.334 . S
C1225 C1226 1.287 . S
C1226 C1225 1.287 . S
C1226 C1227 1.524 . S
C1226 H1245 0.913 . S
C1227 H1203 0.950 . S
C1227 C1226 1.524 . S
C1227 C1228 1.415 . S
C1228 H1204 0.950 . S
C1228 C1223 1.363 . S
C1228 C1227 1.415 . S
C1229 H1205 0.951 . S
C1229 C1230 1.366 . S
C1229 C1231 1.388 . S
C1230 C1229 1.366 . S
C1230 C1234 1.385 . S
C1231 H1206 0.951 . S
C1231 C1229 1.388 . S
C1231 C1232 1.366 . S
C1232 C1231 1.366 . S
C1232 C1233 1.414 . S
C1232 C1235 1.499 . S
C1233 H1207 0.950 . S
C1233 C1232 1.414 . S
C1233 C1234 1.374 . S
C1234 H1208 0.950 . S
C1234 C1230 1.385 . S
C1234 C1233 1.374 . S
C1235 C1232 1.499 . S
C1235 C1236 1.373 . S
C1235 C1237 1.389 . S
C1236 H1209 0.950 . S
C1236 C1222 1.377 . S
C1236 C1235 1.373 . S
C1237 C1221 1.377 . S
C1237 C1235 1.389 . S
C1237 C1238 1.524 . S
C1238 C1237 1.524 . S
C1238 C1239 1.397 . S
C1238 C1243 1.363 . S
C1239 H1210 0.950 . S
C1239 C1238 1.397 . S
C1239 C1240 1.334 . S
C1240 H1211 0.950 . S
C1240 C1239 1.334 . S
C1240 C1241 1.287 . S
C1241 C1240 1.287 . S
C1241 C1242 1.524 . S
C1241 H1244 0.999 1_556 S
C1242 H1212 0.950 . S
C1242 C1241 1.524 . S
C1242 C1243 1.415 . S
C1243 H1213 0.950 . S
C1243 C1238 1.363 . S
C1243 C1242 1.415 . S
H1244 C1241 0.999 1_554 S
H1245 C1226 0.913 . S
H1246 C1264 0.951 . S
H1247 C1266 0.951 . S
H1248 C1268 0.950 . S
H1249 C1269 0.950 . S
H1250 C1271 0.950 . S
H1251 C1274 0.950 . S
H1252 C1275 0.950 . S
H1253 C1277 0.950 . S
H1254 C1278 0.950 . S
H1255 C1279 0.951 . S
H1256 C1281 0.951 . S
H1257 C1283 0.950 . S
H1258 C1284 0.950 . S
H1259 C1286 0.950 . S
H1260 C1289 0.950 . S
H1261 C1290 0.950 . S
H1262 C1292 0.950 . S
H1263 C1293 0.950 . S
C1264 H1246 0.951 . S
C1264 C1265 1.366 . S
C1264 C1266 1.388 . S
C1265 C1264 1.366 . S
C1265 C1269 1.385 . S
C1266 H1247 0.951 . S
C1266 C1264 1.388 . S
C1266 C1267 1.366 . S
C1267 C1266 1.366 . S
C1267 C1268 1.414 . S
C1267 C1270 1.499 . S
C1268 H1248 0.950 . S
C1268 C1267 1.414 . S
C1268 C1269 1.374 . S
C1269 H1249 0.950 . S
C1269 C1265 1.385 . S
C1269 C1268 1.374 . S
C1270 C1267 1.499 . S
C1270 C1271 1.373 . S
C1270 C1272 1.389 . S
C1271 H1250 0.950 . S
C1271 C1270 1.373 . S
C1271 C1287 1.377 . S
C1272 C1270 1.389 . S
C1272 C1273 1.524 . S
C1272 C1286 1.377 . S
C1273 C1272 1.524 . S
C1273 C1274 1.397 . S
C1273 C1278 1.363 . S
C1274 H1251 0.950 . S
C1274 C1273 1.397 . S
C1274 C1275 1.334 . S
C1275 H1252 0.950 . S
C1275 C1274 1.334 . S
C1275 C1276 1.287 . S
C1276 C1275 1.287 . S
C1276 C1277 1.524 . S
C1276 H1295 0.913 . S
C1277 H1253 0.950 . S
C1277 C1276 1.524 . S
C1277 C1278 1.415 . S
C1278 H1254 0.950 . S
C1278 C1273 1.363 . S
C1278 C1277 1.415 . S
C1279 H1255 0.951 . S
C1279 C1280 1.366 . S
C1279 C1281 1.388 . S
C1280 C1279 1.366 . S
C1280 C1284 1.385 . S
C1281 H1256 0.951 . S
C1281 C1279 1.388 . S
C1281 C1282 1.366 . S
C1282 C1281 1.366 . S
C1282 C1283 1.414 . S
C1282 C1285 1.499 . S
C1283 H1257 0.950 . S
C1283 C1282 1.414 . S
C1283 C1284 1.374 . S
C1284 H1258 0.950 . S
C1284 C1280 1.385 . S
C1284 C1283 1.374 . S
C1285 C1282 1.499 . S
C1285 C1286 1.373 . S
C1285 C1287 1.389 . S
C1286 H1259 0.950 . S
C1286 C1272 1.377 . S
C1286 C1285 1.373 . S
C1287 C1271 1.377 . S
C1287 C1285 1.389 . S
C1287 C1288 1.524 . S
C1288 C1287 1.524 . S
C1288 C1289 1.397 . S
C1288 C1293 1.363 . S
C1289 H1260 0.950 . S
C1289 C1288 1.397 . S
C1289 C1290 1.334 . S
C1290 H1261 0.950 . S
C1290 C1289 1.334 . S
C1290 C1291 1.287 . S
C1291 C1290 1.287 . S
C1291 C1292 1.524 . S
C1291 H1294 0.999 . S
C1292 H1262 0.950 . S
C1292 C1291 1.524 . S
C1292 C1293 1.415 . S
C1293 H1263 0.950 . S
C1293 C1288 1.363 . S
C1293 C1292 1.415 . S
H1294 C1291 0.999 . S
H1295 C1276 0.913 . S
H1296 C1314 0.951 . S
H1297 C1316 0.951 . S
H1298 C1318 0.950 . S
H1299 C1319 0.950 . S
H1300 C1321 0.950 . S
H1301 C1324 0.950 . S
H1302 C1325 0.950 . S
H1303 C1327 0.950 . S
H1304 C1328 0.950 . S
H1305 C1329 0.951 . S
H1306 C1331 0.951 . S
H1307 C1333 0.950 . S
H1308 C1334 0.950 . S
H1309 C1336 0.950 . S
H1310 C1339 0.950 . S
H1311 C1340 0.950 . S
H1312 C1342 0.950 . S
H1313 C1343 0.950 . S
C1314 H1296 0.951 . S
C1314 C1315 1.366 . S
C1314 C1316 1.388 . S
C1315 C1314 1.366 . S
C1315 C1319 1.385 . S
C1316 H1297 0.951 . S
C1316 C1314 1.388 . S
C1316 C1317 1.366 . S
C1317 C1316 1.366 . S
C1317 C1318 1.414 . S
C1317 C1320 1.499 . S
C1318 H1298 0.950 . S
C1318 C1317 1.414 . S
C1318 C1319 1.374 . S
C1319 H1299 0.950 . S
C1319 C1315 1.385 . S
C1319 C1318 1.374 . S
C1320 C1317 1.499 . S
C1320 C1321 1.373 . S
C1320 C1322 1.389 . S
C1321 H1300 0.950 . S
C1321 C1320 1.373 . S
C1321 C1337 1.377 . S
C1322 C1320 1.389 . S
C1322 C1323 1.524 . S
C1322 C1336 1.377 . S
C1323 C1322 1.524 . S
C1323 C1324 1.397 . S
C1323 C1328 1.363 . S
C1324 H1301 0.950 . S
C1324 C1323 1.397 . S
C1324 C1325 1.334 . S
C1325 H1302 0.950 . S
C1325 C1324 1.334 . S
C1325 C1326 1.287 . S
C1326 C1325 1.287 . S
C1326 C1327 1.524 . S
C1326 H1345 0.913 . S
C1327 H1303 0.950 . S
C1327 C1326 1.524 . S
C1327 C1328 1.415 . S
C1328 H1304 0.950 . S
C1328 C1323 1.363 . S
C1328 C1327 1.415 . S
C1329 H1305 0.951 . S
C1329 C1330 1.366 . S
C1329 C1331 1.388 . S
C1330 C1329 1.366 . S
C1330 C1334 1.385 . S
C1331 H1306 0.951 . S
C1331 C1329 1.388 . S
C1331 C1332 1.366 . S
C1332 C1331 1.366 . S
C1332 C1333 1.414 . S
C1332 C1335 1.499 . S
C1333 H1307 0.950 . S
C1333 C1332 1.414 . S
C1333 C1334 1.374 . S
C1334 H1308 0.950 . S
C1334 C1330 1.385 . S
C1334 C1333 1.374 . S
C1335 C1332 1.499 . S
C1335 C1336 1.373 . S
C1335 C1337 1.389 . S
C1336 H1309 0.950 . S
C1336 C1322 1.377 . S
C1336 C1335 1.373 . S
C1337 C1321 1.377 . S
C1337 C1335 1.389 . S
C1337 C1338 1.524 . S
C1338 C1337 1.524 . S
C1338 C1339 1.397 . S
C1338 C1343 1.363 . S
C1339 H1310 0.950 . S
C1339 C1338 1.397 . S
C1339 C1340 1.334 . S
C1340 H1311 0.950 . S
C1340 C1339 1.334 . S
C1340 C1341 1.287 . S
C1341 C1340 1.287 . S
C1341 C1342 1.524 . S
C1341 H1344 0.999 . S
C1342 H1312 0.950 . S
C1342 C1341 1.524 . S
C1342 C1343 1.415 . S
C1343 H1313 0.950 . S
C1343 C1338 1.363 . S
C1343 C1342 1.415 . S
H1344 C1341 0.999 . S
H1345 C1326 0.913 . S
H1346 C1364 0.951 . S
H1347 C1366 0.951 . S
H1348 C1368 0.950 . S
H1349 C1369 0.950 . S
H1350 C1371 0.950 . S
H1351 C1374 0.950 . S
H1352 C1375 0.950 . S
H1353 C1377 0.950 . S
H1354 C1378 0.950 . S
H1355 C1379 0.951 . S
H1356 C1381 0.951 . S
H1357 C1383 0.950 . S
H1358 C1384 0.950 . S
H1359 C1386 0.950 . S
H1360 C1389 0.950 . S
H1361 C1390 0.950 . S
H1362 C1392 0.950 . S
H1363 C1393 0.950 . S
C1364 H1346 0.951 . S
C1364 C1365 1.366 . S
C1364 C1366 1.388 . S
C1365 C1364 1.366 . S
C1365 C1369 1.385 . S
C1366 H1347 0.951 . S
C1366 C1364 1.388 . S
C1366 C1367 1.366 . S
C1367 C1366 1.366 . S
C1367 C1368 1.414 . S
C1367 C1370 1.499 . S
C1368 H1348 0.950 . S
C1368 C1367 1.414 . S
C1368 C1369 1.374 . S
C1369 H1349 0.950 . S
C1369 C1365 1.385 . S
C1369 C1368 1.374 . S
C1370 C1367 1.499 . S
C1370 C1371 1.373 . S
C1370 C1372 1.389 . S
C1371 H1350 0.950 . S
C1371 C1370 1.373 . S
C1371 C1387 1.377 . S
C1372 C1370 1.389 . S
C1372 C1373 1.524 . S
C1372 C1386 1.377 . S
C1373 C1372 1.524 . S
C1373 C1374 1.397 . S
C1373 C1378 1.363 . S
C1374 H1351 0.950 . S
C1374 C1373 1.397 . S
C1374 C1375 1.334 . S
C1375 H1352 0.950 . S
C1375 C1374 1.334 . S
C1375 C1376 1.287 . S
C1376 C1375 1.287 . S
C1376 C1377 1.524 . S
C1376 H1395 0.913 . S
C1377 H1353 0.950 . S
C1377 C1376 1.524 . S
C1377 C1378 1.415 . S
C1378 H1354 0.950 . S
C1378 C1373 1.363 . S
C1378 C1377 1.415 . S
C1379 H1355 0.951 . S
C1379 C1380 1.366 . S
C1379 C1381 1.388 . S
C1380 C1379 1.366 . S
C1380 C1384 1.385 . S
C1381 H1356 0.951 . S
C1381 C1379 1.388 . S
C1381 C1382 1.366 . S
C1382 C1381 1.366 . S
C1382 C1383 1.414 . S
C1382 C1385 1.499 . S
C1383 H1357 0.950 . S
C1383 C1382 1.414 . S
C1383 C1384 1.374 . S
C1384 H1358 0.950 . S
C1384 C1380 1.385 . S
C1384 C1383 1.374 . S
C1385 C1382 1.499 . S
C1385 C1386 1.373 . S
C1385 C1387 1.389 . S
C1386 H1359 0.950 . S
C1386 C1372 1.377 . S
C1386 C1385 1.373 . S
C1387 C1371 1.377 . S
C1387 C1385 1.389 . S
C1387 C1388 1.524 . S
C1388 C1387 1.524 . S
C1388 C1389 1.397 . S
C1388 C1393 1.363 . S
C1389 H1360 0.950 . S
C1389 C1388 1.397 . S
C1389 C1390 1.334 . S
C1390 H1361 0.950 . S
C1390 C1389 1.334 . S
C1390 C1391 1.287 . S
C1391 C1390 1.287 . S
C1391 C1392 1.524 . S
C1391 H1394 0.999 . S
C1392 H1362 0.950 . S
C1392 C1391 1.524 . S
C1392 C1393 1.415 . S
C1393 H1363 0.950 . S
C1393 C1388 1.363 . S
C1393 C1392 1.415 . S
H1394 C1391 0.999 . S
H1395 C1376 0.913 . S
H1396 C1414 0.951 . S
H1397 C1416 0.951 . S
H1398 C1418 0.950 . S
H1399 C1419 0.950 . S
H1400 C1421 0.950 . S
H1401 C1424 0.950 . S
H1402 C1425 0.950 . S
H1403 C1427 0.950 . S
H1404 C1428 0.950 . S
H1405 C1429 0.951 . S
H1406 C1431 0.951 . S
H1407 C1433 0.950 . S
H1408 C1434 0.950 . S
H1409 C1436 0.950 . S
H1410 C1439 0.950 . S
H1411 C1440 0.950 . S
H1412 C1442 0.950 . S
H1413 C1443 0.950 . S
C1414 H1396 0.951 . S
C1414 C1415 1.366 . S
C1414 C1416 1.388 . S
C1415 C1414 1.366 . S
C1415 C1419 1.385 . S
C1416 H1397 0.951 . S
C1416 C1414 1.388 . S
C1416 C1417 1.366 . S
C1417 C1416 1.366 . S
C1417 C1418 1.414 . S
C1417 C1420 1.499 . S
C1418 H1398 0.950 . S
C1418 C1417 1.414 . S
C1418 C1419 1.374 . S
C1419 H1399 0.950 . S
C1419 C1415 1.385 . S
C1419 C1418 1.374 . S
C1420 C1417 1.499 . S
C1420 C1421 1.373 . S
C1420 C1422 1.389 . S
C1421 H1400 0.950 . S
C1421 C1420 1.373 . S
C1421 C1437 1.377 . S
C1422 C1420 1.389 . S
C1422 C1423 1.524 . S
C1422 C1436 1.377 . S
C1423 C1422 1.524 . S
C1423 C1424 1.397 . S
C1423 C1428 1.363 . S
C1424 H1401 0.950 . S
C1424 C1423 1.397 . S
C1424 C1425 1.334 . S
C1425 H1402 0.950 . S
C1425 C1424 1.334 . S
C1425 C1426 1.287 . S
C1426 C1425 1.287 . S
C1426 C1427 1.524 . S
C1426 H1445 0.913 . S
C1427 H1403 0.950 . S
C1427 C1426 1.524 . S
C1427 C1428 1.415 . S
C1428 H1404 0.950 . S
C1428 C1423 1.363 . S
C1428 C1427 1.415 . S
C1429 H1405 0.951 . S
C1429 C1430 1.366 . S
C1429 C1431 1.388 . S
C1430 C1429 1.366 . S
C1430 C1434 1.385 . S
C1431 H1406 0.951 . S
C1431 C1429 1.388 . S
C1431 C1432 1.366 . S
C1432 C1431 1.366 . S
C1432 C1433 1.414 . S
C1432 C1435 1.499 . S
C1433 H1407 0.950 . S
C1433 C1432 1.414 . S
C1433 C1434 1.374 . S
C1434 H1408 0.950 . S
C1434 C1430 1.385 . S
C1434 C1433 1.374 . S
C1435 C1432 1.499 . S
C1435 C1436 1.373 . S
C1435 C1437 1.389 . S
C1436 H1409 0.950 . S
C1436 C1422 1.377 . S
C1436 C1435 1.373 . S
C1437 C1421 1.377 . S
C1437 C1435 1.389 . S
C1437 C1438 1.524 . S
C1438 C1437 1.524 . S
C1438 C1439 1.397 . S
C1438 C1443 1.363 . S
C1439 H1410 0.950 . S
C1439 C1438 1.397 . S
C1439 C1440 1.334 . S
C1440 H1411 0.950 . S
C1440 C1439 1.334 . S
C1440 C1441 1.287 . S
C1441 C1440 1.287 . S
C1441 C1442 1.524 . S
C1441 H1444 0.999 1_655 S
C1442 H1412 0.950 . S
C1442 C1441 1.524 . S
C1442 C1443 1.415 . S
C1443 H1413 0.950 . S
C1443 C1438 1.363 . S
C1443 C1442 1.415 . S
H1444 C1441 0.999 1_455 S
H1445 C1426 0.913 . S
H1446 C1464 0.951 . S
H1447 C1466 0.951 . S
H1448 C1468 0.950 . S
H1449 C1469 0.950 . S
H1450 C1471 0.950 . S
H1451 C1474 0.950 . S
H1452 C1475 0.950 . S
H1453 C1477 0.950 . S
H1454 C1478 0.950 . S
H1455 C1479 0.951 . S
H1456 C1481 0.951 . S
H1457 C1483 0.950 . S
H1458 C1484 0.950 . S
H1459 C1486 0.950 . S
H1460 C1489 0.950 . S
H1461 C1490 0.950 . S
H1462 C1492 0.950 . S
H1463 C1493 0.950 . S
C1464 H1446 0.951 . S
C1464 C1465 1.366 . S
C1464 C1466 1.388 . S
C1465 C1464 1.366 . S
C1465 C1469 1.385 . S
C1466 H1447 0.951 . S
C1466 C1464 1.388 . S
C1466 C1467 1.366 . S
C1467 C1466 1.366 . S
C1467 C1468 1.414 . S
C1467 C1470 1.499 . S
C1468 H1448 0.950 . S
C1468 C1467 1.414 . S
C1468 C1469 1.374 . S
C1469 H1449 0.950 . S
C1469 C1465 1.385 . S
C1469 C1468 1.374 . S
C1470 C1467 1.499 . S
C1470 C1471 1.373 . S
C1470 C1472 1.389 . S
C1471 H1450 0.950 . S
C1471 C1470 1.373 . S
C1471 C1487 1.377 . S
C1472 C1470 1.389 . S
C1472 C1473 1.524 . S
C1472 C1486 1.377 . S
C1473 C1472 1.524 . S
C1473 C1474 1.397 . S
C1473 C1478 1.363 . S
C1474 H1451 0.950 . S
C1474 C1473 1.397 . S
C1474 C1475 1.334 . S
C1475 H1452 0.950 . S
C1475 C1474 1.334 . S
C1475 C1476 1.287 . S
C1476 C1475 1.287 . S
C1476 C1477 1.524 . S
C1476 H1495 0.913 . S
C1477 H1453 0.950 . S
C1477 C1476 1.524 . S
C1477 C1478 1.415 . S
C1478 H1454 0.950 . S
C1478 C1473 1.363 . S
C1478 C1477 1.415 . S
C1479 H1455 0.951 . S
C1479 C1480 1.366 . S
C1479 C1481 1.388 . S
C1480 C1479 1.366 . S
C1480 C1484 1.385 . S
C1481 H1456 0.951 . S
C1481 C1479 1.388 . S
C1481 C1482 1.366 . S
C1482 C1481 1.366 . S
C1482 C1483 1.414 . S
C1482 C1485 1.499 . S
C1483 H1457 0.950 . S
C1483 C1482 1.414 . S
C1483 C1484 1.374 . S
C1484 H1458 0.950 . S
C1484 C1480 1.385 . S
C1484 C1483 1.374 . S
C1485 C1482 1.499 . S
C1485 C1486 1.373 . S
C1485 C1487 1.389 . S
C1486 H1459 0.950 . S
C1486 C1472 1.377 . S
C1486 C1485 1.373 . S
C1487 C1471 1.377 . S
C1487 C1485 1.389 . S
C1487 C1488 1.524 . S
C1488 C1487 1.524 . S
C1488 C1489 1.397 . S
C1488 C1493 1.363 . S
C1489 H1460 0.950 . S
C1489 C1488 1.397 . S
C1489 C1490 1.334 . S
C1490 H1461 0.950 . S
C1490 C1489 1.334 . S
C1490 C1491 1.287 . S
C1491 C1490 1.287 . S
C1491 C1492 1.524 . S
C1491 H1494 0.999 . S
C1492 H1462 0.950 . S
C1492 C1491 1.524 . S
C1492 C1493 1.415 . S
C1493 H1463 0.950 . S
C1493 C1488 1.363 . S
C1493 C1492 1.415 . S
H1494 C1491 0.999 . S
H1495 C1476 0.913 . S
H1496 C1514 0.951 . S
H1497 C1516 0.951 . S
H1498 C1518 0.950 . S
H1499 C1519 0.950 . S
H1500 C1521 0.950 . S
H1501 C1524 0.950 . S
H1502 C1525 0.950 . S
H1503 C1527 0.950 . S
H1504 C1528 0.950 . S
H1505 C1529 0.951 . S
H1506 C1531 0.951 . S
H1507 C1533 0.950 . S
H1508 C1534 0.950 . S
H1509 C1536 0.950 . S
H1510 C1539 0.950 . S
H1511 C1540 0.950 . S
H1512 C1542 0.950 . S
H1513 C1543 0.950 . S
C1514 H1496 0.951 . S
C1514 C1515 1.366 . S
C1514 C1516 1.388 . S
C1515 C1514 1.366 . S
C1515 C1519 1.385 . S
C1516 H1497 0.951 . S
C1516 C1514 1.388 . S
C1516 C1517 1.366 . S
C1517 C1516 1.366 . S
C1517 C1518 1.414 . S
C1517 C1520 1.499 . S
C1518 H1498 0.950 . S
C1518 C1517 1.414 . S
C1518 C1519 1.374 . S
C1519 H1499 0.950 . S
C1519 C1515 1.385 . S
C1519 C1518 1.374 . S
C1520 C1517 1.499 . S
C1520 C1521 1.373 . S
C1520 C1522 1.389 . S
C1521 H1500 0.950 . S
C1521 C1520 1.373 . S
C1521 C1537 1.377 . S
C1522 C1520 1.389 . S
C1522 C1523 1.524 . S
C1522 C1536 1.377 . S
C1523 C1522 1.524 . S
C1523 C1524 1.397 . S
C1523 C1528 1.363 . S
C1524 H1501 0.950 . S
C1524 C1523 1.397 . S
C1524 C1525 1.334 . S
C1525 H1502 0.950 . S
C1525 C1524 1.334 . S
C1525 C1526 1.287 . S
C1526 C1525 1.287 . S
C1526 C1527 1.524 . S
C1526 H1545 0.913 . S
C1527 H1503 0.950 . S
C1527 C1526 1.524 . S
C1527 C1528 1.415 . S
C1528 H1504 0.950 . S
C1528 C1523 1.363 . S
C1528 C1527 1.415 . S
C1529 H1505 0.951 . S
C1529 C1530 1.366 . S
C1529 C1531 1.388 . S
C1530 C1529 1.366 . S
C1530 C1534 1.385 . S
C1531 H1506 0.951 . S
C1531 C1529 1.388 . S
C1531 C1532 1.366 . S
C1532 C1531 1.366 . S
C1532 C1533 1.414 . S
C1532 C1535 1.499 . S
C1533 H1507 0.950 . S
C1533 C1532 1.414 . S
C1533 C1534 1.374 . S
C1534 H1508 0.950 . S
C1534 C1530 1.385 . S
C1534 C1533 1.374 . S
C1535 C1532 1.499 . S
C1535 C1536 1.373 . S
C1535 C1537 1.389 . S
C1536 H1509 0.950 . S
C1536 C1522 1.377 . S
C1536 C1535 1.373 . S
C1537 C1521 1.377 . S
C1537 C1535 1.389 . S
C1537 C1538 1.524 . S
C1538 C1537 1.524 . S
C1538 C1539 1.397 . S
C1538 C1543 1.363 . S
C1539 H1510 0.950 . S
C1539 C1538 1.397 . S
C1539 C1540 1.334 . S
C1540 H1511 0.950 . S
C1540 C1539 1.334 . S
C1540 C1541 1.287 . S
C1541 C1540 1.287 . S
C1541 C1542 1.524 . S
C1541 H1544 0.999 . S
C1542 H1512 0.950 . S
C1542 C1541 1.524 . S
C1542 C1543 1.415 . S
C1543 H1513 0.950 . S
C1543 C1538 1.363 . S
C1543 C1542 1.415 . S
H1544 C1541 0.999 . S
H1545 C1526 0.913 . S
H1546 C1564 0.951 . S
H1547 C1566 0.951 . S
H1548 C1568 0.950 . S
H1549 C1569 0.950 . S
H1550 C1571 0.950 . S
H1551 C1574 0.950 . S
H1552 C1575 0.950 . S
H1553 C1577 0.950 . S
H1554 C1578 0.950 . S
H1555 C1579 0.951 . S
H1556 C1581 0.951 . S
H1557 C1583 0.950 . S
H1558 C1584 0.950 . S
H1559 C1586 0.950 . S
H1560 C1589 0.950 . S
H1561 C1590 0.950 . S
H1562 C1592 0.950 . S
H1563 C1593 0.950 . S
C1564 H1546 0.951 . S
C1564 C1565 1.366 . S
C1564 C1566 1.388 . S
C1565 C1564 1.366 . S
C1565 C1569 1.385 . S
C1566 H1547 0.951 . S
C1566 C1564 1.388 . S
C1566 C1567 1.366 . S
C1567 C1566 1.366 . S
C1567 C1568 1.414 . S
C1567 C1570 1.499 . S
C1568 H1548 0.950 . S
C1568 C1567 1.414 . S
C1568 C1569 1.374 . S
C1569 H1549 0.950 . S
C1569 C1565 1.385 . S
C1569 C1568 1.374 . S
C1570 C1567 1.499 . S
C1570 C1571 1.373 . S
C1570 C1572 1.389 . S
C1571 H1550 0.950 . S
C1571 C1570 1.373 . S
C1571 C1587 1.377 . S
C1572 C1570 1.389 . S
C1572 C1573 1.524 . S
C1572 C1586 1.377 . S
C1573 C1572 1.524 . S
C1573 C1574 1.397 . S
C1573 C1578 1.363 . S
C1574 H1551 0.950 . S
C1574 C1573 1.397 . S
C1574 C1575 1.334 . S
C1575 H1552 0.950 . S
C1575 C1574 1.334 . S
C1575 C1576 1.287 . S
C1576 C1575 1.287 . S
C1576 C1577 1.524 . S
C1576 H1595 0.913 . S
C1577 H1553 0.950 . S
C1577 C1576 1.524 . S
C1577 C1578 1.415 . S
C1578 H1554 0.950 . S
C1578 C1573 1.363 . S
C1578 C1577 1.415 . S
C1579 H1555 0.951 . S
C1579 C1580 1.366 . S
C1579 C1581 1.388 . S
C1580 C1579 1.366 . S
C1580 C1584 1.385 . S
C1581 H1556 0.951 . S
C1581 C1579 1.388 . S
C1581 C1582 1.366 . S
C1582 C1581 1.366 . S
C1582 C1583 1.414 . S
C1582 C1585 1.499 . S
C1583 H1557 0.950 . S
C1583 C1582 1.414 . S
C1583 C1584 1.374 . S
C1584 H1558 0.950 . S
C1584 C1580 1.385 . S
C1584 C1583 1.374 . S
C1585 C1582 1.499 . S
C1585 C1586 1.373 . S
C1585 C1587 1.389 . S
C1586 H1559 0.950 . S
C1586 C1572 1.377 . S
C1586 C1585 1.373 . S
C1587 C1571 1.377 . S
C1587 C1585 1.389 . S
C1587 C1588 1.524 . S
C1588 C1587 1.524 . S
C1588 C1589 1.397 . S
C1588 C1593 1.363 . S
C1589 H1560 0.950 . S
C1589 C1588 1.397 . S
C1589 C1590 1.334 . S
C1590 H1561 0.950 . S
C1590 C1589 1.334 . S
C1590 C1591 1.287 . S
C1591 C1590 1.287 . S
C1591 C1592 1.524 . S
C1591 H1594 0.999 . S
C1592 H1562 0.950 . S
C1592 C1591 1.524 . S
C1592 C1593 1.415 . S
C1593 H1563 0.950 . S
C1593 C1588 1.363 . S
C1593 C1592 1.415 . S
H1594 C1591 0.999 . S
H1595 C1576 0.913 . S
H1596 C1614 0.951 . S
H1597 C1616 0.951 . S
H1598 C1618 0.950 . S
H1599 C1619 0.950 . S
H1600 C1621 0.950 . S
H1601 C1624 0.950 . S
H1602 C1625 0.950 . S
H1603 C1627 0.950 . S
H1604 C1628 0.950 . S
H1605 C1629 0.951 . S
H1606 C1631 0.951 . S
H1607 C1633 0.950 . S
H1608 C1634 0.950 . S
H1609 C1636 0.950 . S
H1610 C1639 0.950 . S
H1611 C1640 0.950 . S
H1612 C1642 0.950 . S
H1613 C1643 0.950 . S
C1614 H1596 0.951 . S
C1614 C1615 1.366 . S
C1614 C1616 1.388 . S
C1615 C1614 1.366 . S
C1615 C1619 1.385 . S
C1616 H1597 0.951 . S
C1616 C1614 1.388 . S
C1616 C1617 1.366 . S
C1617 C1616 1.366 . S
C1617 C1618 1.414 . S
C1617 C1620 1.499 . S
C1618 H1598 0.950 . S
C1618 C1617 1.414 . S
C1618 C1619 1.374 . S
C1619 H1599 0.950 . S
C1619 C1615 1.385 . S
C1619 C1618 1.374 . S
C1620 C1617 1.499 . S
C1620 C1621 1.373 . S
C1620 C1622 1.389 . S
C1621 H1600 0.950 . S
C1621 C1620 1.373 . S
C1621 C1637 1.377 . S
C1622 C1620 1.389 . S
C1622 C1623 1.524 . S
C1622 C1636 1.377 . S
C1623 C1622 1.524 . S
C1623 C1624 1.397 . S
C1623 C1628 1.363 . S
C1624 H1601 0.950 . S
C1624 C1623 1.397 . S
C1624 C1625 1.334 . S
C1625 H1602 0.950 . S
C1625 C1624 1.334 . S
C1625 C1626 1.287 . S
C1626 C1625 1.287 . S
C1626 C1627 1.524 . S
C1626 H1645 0.913 . S
C1627 H1603 0.950 . S
C1627 C1626 1.524 . S
C1627 C1628 1.415 . S
C1628 H1604 0.950 . S
C1628 C1623 1.363 . S
C1628 C1627 1.415 . S
C1629 H1605 0.951 . S
C1629 C1630 1.366 . S
C1629 C1631 1.388 . S
C1630 C1629 1.366 . S
C1630 C1634 1.385 . S
C1631 H1606 0.951 . S
C1631 C1629 1.388 . S
C1631 C1632 1.366 . S
C1632 C1631 1.366 . S
C1632 C1633 1.414 . S
C1632 C1635 1.499 . S
C1633 H1607 0.950 . S
C1633 C1632 1.414 . S
C1633 C1634 1.374 . S
C1634 H1608 0.950 . S
C1634 C1630 1.385 . S
C1634 C1633 1.374 . S
C1635 C1632 1.499 . S
C1635 C1636 1.373 . S
C1635 C1637 1.389 . S
C1636 H1609 0.950 . S
C1636 C1622 1.377 . S
C1636 C1635 1.373 . S
C1637 C1621 1.377 . S
C1637 C1635 1.389 . S
C1637 C1638 1.524 . S
C1638 C1637 1.524 . S
C1638 C1639 1.397 . S
C1638 C1643 1.363 . S
C1639 H1610 0.950 . S
C1639 C1638 1.397 . S
C1639 C1640 1.334 . S
C1640 H1611 0.950 . S
C1640 C1639 1.334 . S
C1640 C1641 1.287 . S
C1641 C1640 1.287 . S
C1641 C1642 1.524 . S
C1641 H1644 0.999 . S
C1642 H1612 0.950 . S
C1642 C1641 1.524 . S
C1642 C1643 1.415 . S
C1643 H1613 0.950 . S
C1643 C1638 1.363 . S
C1643 C1642 1.415 . S
H1644 C1641 0.999 . S
H1645 C1626 0.913 . S
H1646 C1664 0.951 . S
H1647 C1666 0.951 . S
H1648 C1668 0.950 . S
H1649 C1669 0.950 . S
H1650 C1671 0.950 . S
H1651 C1674 0.950 . S
H1652 C1675 0.950 . S
H1653 C1677 0.950 . S
H1654 C1678 0.950 . S
H1655 C1679 0.951 . S
H1656 C1681 0.951 . S
H1657 C1683 0.950 . S
H1658 C1684 0.950 . S
H1659 C1686 0.950 . S
H1660 C1689 0.950 . S
H1661 C1690 0.950 . S
H1662 C1692 0.950 . S
H1663 C1693 0.950 . S
C1664 H1646 0.951 . S
C1664 C1665 1.366 . S
C1664 C1666 1.388 . S
C1665 C1664 1.366 . S
C1665 C1669 1.385 . S
C1666 H1647 0.951 . S
C1666 C1664 1.388 . S
C1666 C1667 1.366 . S
C1667 C1666 1.366 . S
C1667 C1668 1.414 . S
C1667 C1670 1.499 . S
C1668 H1648 0.950 . S
C1668 C1667 1.414 . S
C1668 C1669 1.374 . S
C1669 H1649 0.950 . S
C1669 C1665 1.385 . S
C1669 C1668 1.374 . S
C1670 C1667 1.499 . S
C1670 C1671 1.373 . S
C1670 C1672 1.389 . S
C1671 H1650 0.950 . S
C1671 C1670 1.373 . S
C1671 C1687 1.377 . S
C1672 C1670 1.389 . S
C1672 C1673 1.524 . S
C1672 C1686 1.377 . S
C1673 C1672 1.524 . S
C1673 C1674 1.397 . S
C1673 C1678 1.363 . S
C1674 H1651 0.950 . S
C1674 C1673 1.397 . S
C1674 C1675 1.334 . S
C1675 H1652 0.950 . S
C1675 C1674 1.334 . S
C1675 C1676 1.287 . S
C1676 C1675 1.287 . S
C1676 C1677 1.524 . S
C1676 H1695 0.913 . S
C1677 H1653 0.950 . S
C1677 C1676 1.524 . S
C1677 C1678 1.415 . S
C1678 H1654 0.950 . S
C1678 C1673 1.363 . S
C1678 C1677 1.415 . S
C1679 H1655 0.951 . S
C1679 C1680 1.366 . S
C1679 C1681 1.388 . S
C1680 C1679 1.366 . S
C1680 C1684 1.385 . S
C1681 H1656 0.951 . S
C1681 C1679 1.388 . S
C1681 C1682 1.366 . S
C1682 C1681 1.366 . S
C1682 C1683 1.414 . S
C1682 C1685 1.499 . S
C1683 H1657 0.950 . S
C1683 C1682 1.414 . S
C1683 C1684 1.374 . S
C1684 H1658 0.950 . S
C1684 C1680 1.385 . S
C1684 C1683 1.374 . S
C1685 C1682 1.499 . S
C1685 C1686 1.373 . S
C1685 C1687 1.389 . S
C1686 H1659 0.950 . S
C1686 C1672 1.377 . S
C1686 C1685 1.373 . S
C1687 C1671 1.377 . S
C1687 C1685 1.389 . S
C1687 C1688 1.524 . S
C1688 C1687 1.524 . S
C1688 C1689 1.397 . S
C1688 C1693 1.363 . S
C1689 H1660 0.950 . S
C1689 C1688 1.397 . S
C1689 C1690 1.334 . S
C1690 H1661 0.950 . S
C1690 C1689 1.334 . S
C1690 C1691 1.287 . S
C1691 C1690 1.287 . S
C1691 C1692 1.524 . S
C1691 H1694 0.999 . S
C1692 H1662 0.950 . S
C1692 C1691 1.524 . S
C1692 C1693 1.415 . S
C1693 H1663 0.950 . S
C1693 C1688 1.363 . S
C1693 C1692 1.415 . S
H1694 C1691 0.999 . S
H1695 C1676 0.913 . S
H1696 C1714 0.951 . S
H1697 C1716 0.951 . S
H1698 C1718 0.950 . S
H1699 C1719 0.950 . S
H1700 C1721 0.950 . S
H1701 C1724 0.950 . S
H1702 C1725 0.950 . S
H1703 C1727 0.950 . S
H1704 C1728 0.950 . S
H1705 C1729 0.951 . S
H1706 C1731 0.951 . S
H1707 C1733 0.950 . S
H1708 C1734 0.950 . S
H1709 C1736 0.950 . S
H1710 C1739 0.950 . S
H1711 C1740 0.950 . S
H1712 C1742 0.950 . S
H1713 C1743 0.950 . S
C1714 H1696 0.951 . S
C1714 C1715 1.366 . S
C1714 C1716 1.388 . S
C1715 C1714 1.366 . S
C1715 C1719 1.385 . S
C1716 H1697 0.951 . S
C1716 C1714 1.388 . S
C1716 C1717 1.366 . S
C1717 C1716 1.366 . S
C1717 C1718 1.414 . S
C1717 C1720 1.499 . S
C1718 H1698 0.950 . S
C1718 C1717 1.414 . S
C1718 C1719 1.374 . S
C1719 H1699 0.950 . S
C1719 C1715 1.385 . S
C1719 C1718 1.374 . S
C1720 C1717 1.499 . S
C1720 C1721 1.373 . S
C1720 C1722 1.389 . S
C1721 H1700 0.950 . S
C1721 C1720 1.373 . S
C1721 C1737 1.377 . S
C1722 C1720 1.389 . S
C1722 C1723 1.524 . S
C1722 C1736 1.377 . S
C1723 C1722 1.524 . S
C1723 C1724 1.397 . S
C1723 C1728 1.363 . S
C1724 H1701 0.950 . S
C1724 C1723 1.397 . S
C1724 C1725 1.334 . S
C1725 H1702 0.950 . S
C1725 C1724 1.334 . S
C1725 C1726 1.287 . S
C1726 C1725 1.287 . S
C1726 C1727 1.524 . S
C1726 H1745 0.913 . S
C1727 H1703 0.950 . S
C1727 C1726 1.524 . S
C1727 C1728 1.415 . S
C1728 H1704 0.950 . S
C1728 C1723 1.363 . S
C1728 C1727 1.415 . S
C1729 H1705 0.951 . S
C1729 C1730 1.366 . S
C1729 C1731 1.388 . S
C1730 C1729 1.366 . S
C1730 C1734 1.385 . S
C1731 H1706 0.951 . S
C1731 C1729 1.388 . S
C1731 C1732 1.366 . S
C1732 C1731 1.366 . S
C1732 C1733 1.414 . S
C1732 C1735 1.499 . S
C1733 H1707 0.950 . S
C1733 C1732 1.414 . S
C1733 C1734 1.374 . S
C1734 H1708 0.950 . S
C1734 C1730 1.385 . S
C1734 C1733 1.374 . S
C1735 C1732 1.499 . S
C1735 C1736 1.373 . S
C1735 C1737 1.389 . S
C1736 H1709 0.950 . S
C1736 C1722 1.377 . S
C1736 C1735 1.373 . S
C1737 C1721 1.377 . S
C1737 C1735 1.389 . S
C1737 C1738 1.524 . S
C1738 C1737 1.524 . S
C1738 C1739 1.397 . S
C1738 C1743 1.363 . S
C1739 H1710 0.950 . S
C1739 C1738 1.397 . S
C1739 C1740 1.334 . S
C1740 H1711 0.950 . S
C1740 C1739 1.334 . S
C1740 C1741 1.287 . S
C1741 C1740 1.287 . S
C1741 C1742 1.524 . S
C1741 H1744 0.999 . S
C1742 H1712 0.950 . S
C1742 C1741 1.524 . S
C1742 C1743 1.415 . S
C1743 H1713 0.950 . S
C1743 C1738 1.363 . S
C1743 C1742 1.415 . S
H1744 C1741 0.999 . S
H1745 C1726 0.913 . S
H1746 C1764 0.951 . S
H1747 C1766 0.951 . S
H1748 C1768 0.950 . S
H1749 C1769 0.950 . S
H1750 C1771 0.950 . S
H1751 C1774 0.950 . S
H1752 C1775 0.950 . S
H1753 C1777 0.950 . S
H1754 C1778 0.950 . S
H1755 C1779 0.951 . S
H1756 C1781 0.951 . S
H1757 C1783 0.950 . S
H1758 C1784 0.950 . S
H1759 C1786 0.950 . S
H1760 C1789 0.950 . S
H1761 C1790 0.950 . S
H1762 C1792 0.950 . S
H1763 C1793 0.950 . S
C1764 H1746 0.951 . S
C1764 C1765 1.366 . S
C1764 C1766 1.388 . S
C1765 C1764 1.366 . S
C1765 C1769 1.385 . S
C1766 H1747 0.951 . S
C1766 C1764 1.388 . S
C1766 C1767 1.366 . S
C1767 C1766 1.366 . S
C1767 C1768 1.414 . S
C1767 C1770 1.499 . S
C1768 H1748 0.950 . S
C1768 C1767 1.414 . S
C1768 C1769 1.374 . S
C1769 H1749 0.950 . S
C1769 C1765 1.385 . S
C1769 C1768 1.374 . S
C1770 C1767 1.499 . S
C1770 C1771 1.373 . S
C1770 C1772 1.389 . S
C1771 H1750 0.950 . S
C1771 C1770 1.373 . S
C1771 C1787 1.377 . S
C1772 C1770 1.389 . S
C1772 C1773 1.524 . S
C1772 C1786 1.377 . S
C1773 C1772 1.524 . S
C1773 C1774 1.397 . S
C1773 C1778 1.363 . S
C1774 H1751 0.950 . S
C1774 C1773 1.397 . S
C1774 C1775 1.334 . S
C1775 H1752 0.950 . S
C1775 C1774 1.334 . S
C1775 C1776 1.287 . S
C1776 C1775 1.287 . S
C1776 C1777 1.524 . S
C1776 H1795 0.913 . S
C1777 H1753 0.950 . S
C1777 C1776 1.524 . S
C1777 C1778 1.415 . S
C1778 H1754 0.950 . S
C1778 C1773 1.363 . S
C1778 C1777 1.415 . S
C1779 H1755 0.951 . S
C1779 C1780 1.366 . S
C1779 C1781 1.388 . S
C1780 C1779 1.366 . S
C1780 C1784 1.385 . S
C1781 H1756 0.951 . S
C1781 C1779 1.388 . S
C1781 C1782 1.366 . S
C1782 C1781 1.366 . S
C1782 C1783 1.414 . S
C1782 C1785 1.499 . S
C1783 H1757 0.950 . S
C1783 C1782 1.414 . S
C1783 C1784 1.374 . S
C1784 H1758 0.950 . S
C1784 C1780 1.385 . S
C1784 C1783 1.374 . S
C1785 C1782 1.499 . S
C1785 C1786 1.373 . S
C1785 C1787 1.389 . S
C1786 H1759 0.950 . S
C1786 C1772 1.377 . S
C1786 C1785 1.373 . S
C1787 C1771 1.377 . S
C1787 C1785 1.389 . S
C1787 C1788 1.524 . S
C1788 C1787 1.524 . S
C1788 C1789 1.397 . S
C1788 C1793 1.363 . S
C1789 H1760 0.950 . S
C1789 C1788 1.397 . S
C1789 C1790 1.334 . S
C1790 H1761 0.950 . S
C1790 C1789 1.334 . S
C1790 C1791 1.287 . S
C1791 C1790 1.287 . S
C1791 C1792 1.524 . S
C1791 H1794 0.999 . S
C1792 H1762 0.950 . S
C1792 C1791 1.524 . S
C1792 C1793 1.415 . S
C1793 H1763 0.950 . S
C1793 C1788 1.363 . S
C1793 C1792 1.415 . S
H1794 C1791 0.999 . S
H1795 C1776 0.913 . S
H1796 C1814 0.951 . S
H1797 C1816 0.951 . S
H1798 C1818 0.950 . S
H1799 C1819 0.950 . S
H1800 C1821 0.950 . S
H1801 C1824 0.950 . S
H1802 C1825 0.950 . S
H1803 C1827 0.950 . S
H1804 C1828 0.950 . S
H1805 C1829 0.951 . S
H1806 C1831 0.951 . S
H1807 C1833 0.950 . S
H1808 C1834 0.950 . S
H1809 C1836 0.950 . S
H1810 C1839 0.950 . S
H1811 C1840 0.950 . S
H1812 C1842 0.950 . S
H1813 C1843 0.950 . S
C1814 H1796 0.951 . S
C1814 C1815 1.366 . S
C1814 C1816 1.388 . S
C1815 C1814 1.366 . S
C1815 C1819 1.385 . S
C1816 H1797 0.951 . S
C1816 C1814 1.388 . S
C1816 C1817 1.366 . S
C1817 C1816 1.366 . S
C1817 C1818 1.414 . S
C1817 C1820 1.499 . S
C1818 H1798 0.950 . S
C1818 C1817 1.414 . S
C1818 C1819 1.374 . S
C1819 H1799 0.950 . S
C1819 C1815 1.385 . S
C1819 C1818 1.374 . S
C1820 C1817 1.499 . S
C1820 C1821 1.373 . S
C1820 C1822 1.389 . S
C1821 H1800 0.950 . S
C1821 C1820 1.373 . S
C1821 C1837 1.377 . S
C1822 C1820 1.389 . S
C1822 C1823 1.524 . S
C1822 C1836 1.377 . S
C1823 C1822 1.524 . S
C1823 C1824 1.397 . S
C1823 C1828 1.363 . S
C1824 H1801 0.950 . S
C1824 C1823 1.397 . S
C1824 C1825 1.334 . S
C1825 H1802 0.950 . S
C1825 C1824 1.334 . S
C1825 C1826 1.287 . S
C1826 C1825 1.287 . S
C1826 C1827 1.524 . S
C1826 H1845 0.913 . S
C1827 H1803 0.950 . S
C1827 C1826 1.524 . S
C1827 C1828 1.415 . S
C1828 H1804 0.950 . S
C1828 C1823 1.363 . S
C1828 C1827 1.415 . S
C1829 H1805 0.951 . S
C1829 C1830 1.366 . S
C1829 C1831 1.388 . S
C1830 C1829 1.366 . S
C1830 C1834 1.385 . S
C1831 H1806 0.951 . S
C1831 C1829 1.388 . S
C1831 C1832 1.366 . S
C1832 C1831 1.366 . S
C1832 C1833 1.414 . S
C1832 C1835 1.499 . S
C1833 H1807 0.950 . S
C1833 C1832 1.414 . S
C1833 C1834 1.374 . S
C1834 H1808 0.950 . S
C1834 C1830 1.385 . S
C1834 C1833 1.374 . S
C1835 C1832 1.499 . S
C1835 C1836 1.373 . S
C1835 C1837 1.389 . S
C1836 H1809 0.950 . S
C1836 C1822 1.377 . S
C1836 C1835 1.373 . S
C1837 C1821 1.377 . S
C1837 C1835 1.389 . S
C1837 C1838 1.524 . S
C1838 C1837 1.524 . S
C1838 C1839 1.397 . S
C1838 C1843 1.363 . S
C1839 H1810 0.950 . S
C1839 C1838 1.397 . S
C1839 C1840 1.334 . S
C1840 H1811 0.950 . S
C1840 C1839 1.334 . S
C1840 C1841 1.287 . S
C1841 C1840 1.287 . S
C1841 C1842 1.524 . S
C1841 H1844 0.999 . S
C1842 H1812 0.950 . S
C1842 C1841 1.524 . S
C1842 C1843 1.415 . S
C1843 H1813 0.950 . S
C1843 C1838 1.363 . S
C1843 C1842 1.415 . S
H1844 C1841 0.999 . S
H1845 C1826 0.913 . S
H1846 C1864 0.951 . S
H1847 C1866 0.951 . S
H1848 C1868 0.950 . S
H1849 C1869 0.950 . S
H1850 C1871 0.950 . S
H1851 C1874 0.950 . S
H1852 C1875 0.950 . S
H1853 C1877 0.950 . S
H1854 C1878 0.950 . S
H1855 C1879 0.951 . S
H1856 C1881 0.951 . S
H1857 C1883 0.950 . S
H1858 C1884 0.950 . S
H1859 C1886 0.950 . S
H1860 C1889 0.950 . S
H1861 C1890 0.950 . S
H1862 C1892 0.950 . S
H1863 C1893 0.950 . S
C1864 H1846 0.951 . S
C1864 C1865 1.366 . S
C1864 C1866 1.388 . S
C1865 C1864 1.366 . S
C1865 C1869 1.385 . S
C1866 H1847 0.951 . S
C1866 C1864 1.388 . S
C1866 C1867 1.366 . S
C1867 C1866 1.366 . S
C1867 C1868 1.414 . S
C1867 C1870 1.499 . S
C1868 H1848 0.950 . S
C1868 C1867 1.414 . S
C1868 C1869 1.374 . S
C1869 H1849 0.950 . S
C1869 C1865 1.385 . S
C1869 C1868 1.374 . S
C1870 C1867 1.499 . S
C1870 C1871 1.373 . S
C1870 C1872 1.389 . S
C1871 H1850 0.950 . S
C1871 C1870 1.373 . S
C1871 C1887 1.377 . S
C1872 C1870 1.389 . S
C1872 C1873 1.524 . S
C1872 C1886 1.377 . S
C1873 C1872 1.524 . S
C1873 C1874 1.397 . S
C1873 C1878 1.363 . S
C1874 H1851 0.950 . S
C1874 C1873 1.397 . S
C1874 C1875 1.334 . S
C1875 H1852 0.950 . S
C1875 C1874 1.334 . S
C1875 C1876 1.287 . S
C1876 C1875 1.287 . S
C1876 C1877 1.524 . S
C1876 H1895 0.913 . S
C1877 H1853 0.950 . S
C1877 C1876 1.524 . S
C1877 C1878 1.415 . S
C1878 H1854 0.950 . S
C1878 C1873 1.363 . S
C1878 C1877 1.415 . S
C1879 H1855 0.951 . S
C1879 C1880 1.366 . S
C1879 C1881 1.388 . S
C1880 C1879 1.366 . S
C1880 C1884 1.385 . S
C1881 H1856 0.951 . S
C1881 C1879 1.388 . S
C1881 C1882 1.366 . S
C1882 C1881 1.366 . S
C1882 C1883 1.414 . S
C1882 C1885 1.499 . S
C1883 H1857 0.950 . S
C1883 C1882 1.414 . S
C1883 C1884 1.374 . S
C1884 H1858 0.950 . S
C1884 C1880 1.385 . S
C1884 C1883 1.374 . S
C1885 C1882 1.499 . S
C1885 C1886 1.373 . S
C1885 C1887 1.389 . S
C1886 H1859 0.950 . S
C1886 C1872 1.377 . S
C1886 C1885 1.373 . S
C1887 C1871 1.377 . S
C1887 C1885 1.389 . S
C1887 C1888 1.524 . S
C1888 C1887 1.524 . S
C1888 C1889 1.397 . S
C1888 C1893 1.363 . S
C1889 H1860 0.950 . S
C1889 C1888 1.397 . S
C1889 C1890 1.334 . S
C1890 H1861 0.950 . S
C1890 C1889 1.334 . S
C1890 C1891 1.287 . S
C1891 C1890 1.287 . S
C1891 C1892 1.524 . S
C1891 H1894 0.999 . S
C1892 H1862 0.950 . S
C1892 C1891 1.524 . S
C1892 C1893 1.415 . S
C1893 H1863 0.950 . S
C1893 C1888 1.363 . S
C1893 C1892 1.415 . S
H1894 C1891 0.999 . S
H1895 C1876 0.913 . S
H1896 C1914 0.951 . S
H1897 C1916 0.951 . S
H1898 C1918 0.950 . S
H1899 C1919 0.950 . S
H1900 C1921 0.950 . S
H1901 C1924 0.950 . S
H1902 C1925 0.950 . S
H1903 C1927 0.950 . S
H1904 C1928 0.950 . S
H1905 C1929 0.951 . S
H1906 C1931 0.951 . S
H1907 C1933 0.950 . S
H1908 C1934 0.950 . S
H1909 C1936 0.950 . S
H1910 C1939 0.950 . S
H1911 C1940 0.950 . S
H1912 C1942 0.950 . S
H1913 C1943 0.950 . S
C1914 H1896 0.951 . S
C1914 C1915 1.366 . S
C1914 C1916 1.388 . S
C1915 C1914 1.366 . S
C1915 C1919 1.385 . S
C1916 H1897 0.951 . S
C1916 C1914 1.388 . S
C1916 C1917 1.366 . S
C1917 C1916 1.366 . S
C1917 C1918 1.414 . S
C1917 C1920 1.499 . S
C1918 H1898 0.950 . S
C1918 C1917 1.414 . S
C1918 C1919 1.374 . S
C1919 H1899 0.950 . S
C1919 C1915 1.385 . S
C1919 C1918 1.374 . S
C1920 C1917 1.499 . S
C1920 C1921 1.373 . S
C1920 C1922 1.389 . S
C1921 H1900 0.950 . S
C1921 C1920 1.373 . S
C1921 C1937 1.377 . S
C1922 C1920 1.389 . S
C1922 C1923 1.524 . S
C1922 C1936 1.377 . S
C1923 C1922 1.524 . S
C1923 C1924 1.397 . S
C1923 C1928 1.363 . S
C1924 H1901 0.950 . S
C1924 C1923 1.397 . S
C1924 C1925 1.334 . S
C1925 H1902 0.950 . S
C1925 C1924 1.334 . S
C1925 C1926 1.287 . S
C1926 C1925 1.287 . S
C1926 C1927 1.524 . S
C1926 H1945 0.913 . S
C1927 H1903 0.950 . S
C1927 C1926 1.524 . S
C1927 C1928 1.415 . S
C1928 H1904 0.950 . S
C1928 C1923 1.363 . S
C1928 C1927 1.415 . S
C1929 H1905 0.951 . S
C1929 C1930 1.366 . S
C1929 C1931 1.388 . S
C1930 C1929 1.366 . S
C1930 C1934 1.385 . S
C1931 H1906 0.951 . S
C1931 C1929 1.388 . S
C1931 C1932 1.366 . S
C1932 C1931 1.366 . S
C1932 C1933 1.414 . S
C1932 C1935 1.499 . S
C1933 H1907 0.950 . S
C1933 C1932 1.414 . S
C1933 C1934 1.374 . S
C1934 H1908 0.950 . S
C1934 C1930 1.385 . S
C1934 C1933 1.374 . S
C1935 C1932 1.499 . S
C1935 C1936 1.373 . S
C1935 C1937 1.389 . S
C1936 H1909 0.950 . S
C1936 C1922 1.377 . S
C1936 C1935 1.373 . S
C1937 C1921 1.377 . S
C1937 C1935 1.389 . S
C1937 C1938 1.524 . S
C1938 C1937 1.524 . S
C1938 C1939 1.397 . S
C1938 C1943 1.363 . S
C1939 H1910 0.950 . S
C1939 C1938 1.397 . S
C1939 C1940 1.334 . S
C1940 H1911 0.950 . S
C1940 C1939 1.334 . S
C1940 C1941 1.287 . S
C1941 C1940 1.287 . S
C1941 C1942 1.524 . S
C1941 H1944 0.999 . S
C1942 H1912 0.950 . S
C1942 C1941 1.524 . S
C1942 C1943 1.415 . S
C1943 H1913 0.950 . S
C1943 C1938 1.363 . S
C1943 C1942 1.415 . S
H1944 C1941 0.999 . S
H1945 C1926 0.913 . S
H1946 C1964 0.951 . S
H1947 C1966 0.951 . S
H1948 C1968 0.950 . S
H1949 C1969 0.950 . S
H1950 C1971 0.950 . S
H1951 C1974 0.950 . S
H1952 C1975 0.950 . S
H1953 C1977 0.950 . S
H1954 C1978 0.950 . S
H1955 C1979 0.951 . S
H1956 C1981 0.951 . S
H1957 C1983 0.950 . S
H1958 C1984 0.950 . S
H1959 C1986 0.950 . S
H1960 C1989 0.950 . S
H1961 C1990 0.950 . S
H1962 C1992 0.950 . S
H1963 C1993 0.950 . S
C1964 H1946 0.951 . S
C1964 C1965 1.366 . S
C1964 C1966 1.388 . S
C1965 C1964 1.366 . S
C1965 C1969 1.385 . S
C1966 H1947 0.951 . S
C1966 C1964 1.388 . S
C1966 C1967 1.366 . S
C1967 C1966 1.366 . S
C1967 C1968 1.414 . S
C1967 C1970 1.499 . S
C1968 H1948 0.950 . S
C1968 C1967 1.414 . S
C1968 C1969 1.374 . S
C1969 H1949 0.950 . S
C1969 C1965 1.385 . S
C1969 C1968 1.374 . S
C1970 C1967 1.499 . S
C1970 C1971 1.373 . S
C1970 C1972 1.389 . S
C1971 H1950 0.950 . S
C1971 C1970 1.373 . S
C1971 C1987 1.377 . S
C1972 C1970 1.389 . S
C1972 C1973 1.524 . S
C1972 C1986 1.377 . S
C1973 C1972 1.524 . S
C1973 C1974 1.397 . S
C1973 C1978 1.363 . S
C1974 H1951 0.950 . S
C1974 C1973 1.397 . S
C1974 C1975 1.334 . S
C1975 H1952 0.950 . S
C1975 C1974 1.334 . S
C1975 C1976 1.287 . S
C1976 C1975 1.287 . S
C1976 C1977 1.524 . S
C1976 H1995 0.913 . S
C1977 H1953 0.950 . S
C1977 C1976 1.524 . S
C1977 C1978 1.415 . S
C1978 H1954 0.950 . S
C1978 C1973 1.363 . S
C1978 C1977 1.415 . S
C1979 H1955 0.951 . S
C1979 C1980 1.366 . S
C1979 C1981 1.388 . S
C1980 C1979 1.366 . S
C1980 C1984 1.385 . S
C1981 H1956 0.951 . S
C1981 C1979 1.388 . S
C1981 C1982 1.366 . S
C1982 C1981 1.366 . S
C1982 C1983 1.414 . S
C1982 C1985 1.499 . S
C1983 H1957 0.950 . S
C1983 C1982 1.414 . S
C1983 C1984 1.374 . S
C1984 H1958 0.950 . S
C1984 C1980 1.385 . S
C1984 C1983 1.374 . S
C1985 C1982 1.499 . S
C1985 C1986 1.373 . S
C1985 C1987 1.389 . S
C1986 H1959 0.950 . S
C1986 C1972 1.377 . S
C1986 C1985 1.373 . S
C1987 C1971 1.377 . S
C1987 C1985 1.389 . S
C1987 C1988 1.524 . S
C1988 C1987 1.524 . S
C1988 C1989 1.397 . S
C1988 C1993 1.363 . S
C1989 H1960 0.950 . S
C1989 C1988 1.397 . S
C1989 C1990 1.334 . S
C1990 H1961 0.950 . S
C1990 C1989 1.334 . S
C1990 C1991 1.287 . S
C1991 C1990 1.287 . S
C1991 C1992 1.524 . S
C1991 H1994 0.999 . S
C1992 H1962 0.950 . S
C1992 C1991 1.524 . S
C1992 C1993 1.415 . S
C1993 H1963 0.950 . S
C1993 C1988 1.363 . S
C1993 C1992 1.415 . S
H1994 C1991 0.999 . S
H1995 C1976 0.913 . S
H1996 C2014 0.951 . S
H1997 C2016 0.951 . S
H1998 C2018 0.950 . S
H1999 C2019 0.950 . S
H2000 C2021 0.950 . S
H2001 C2024 0.950 . S
H2002 C2025 0.950 . S
H2003 C2027 0.950 . S
H2004 C2028 0.950 . S
H2005 C2029 0.951 . S
H2006 C2031 0.951 . S
H2007 C2033 0.950 . S
H2008 C2034 0.950 . S
H2009 C2036 0.950 . S
H2010 C2039 0.950 . S
H2011 C2040 0.950 . S
H2012 C2042 0.950 . S
H2013 C2043 0.950 . S
C2014 H1996 0.951 . S
C2014 C2015 1.366 . S
C2014 C2016 1.388 . S
C2015 C2014 1.366 . S
C2015 C2019 1.385 . S
C2016 H1997 0.951 . S
C2016 C2014 1.388 . S
C2016 C2017 1.366 . S
C2017 C2016 1.366 . S
C2017 C2018 1.414 . S
C2017 C2020 1.499 . S
C2018 H1998 0.950 . S
C2018 C2017 1.414 . S
C2018 C2019 1.374 . S
C2019 H1999 0.950 . S
C2019 C2015 1.385 . S
C2019 C2018 1.374 . S
C2020 C2017 1.499 . S
C2020 C2021 1.373 . S
C2020 C2022 1.389 . S
C2021 H2000 0.950 . S
C2021 C2020 1.373 . S
C2021 C2037 1.377 . S
C2022 C2020 1.389 . S
C2022 C2023 1.524 . S
C2022 C2036 1.377 . S
C2023 C2022 1.524 . S
C2023 C2024 1.397 . S
C2023 C2028 1.363 . S
C2024 H2001 0.950 . S
C2024 C2023 1.397 . S
C2024 C2025 1.334 . S
C2025 H2002 0.950 . S
C2025 C2024 1.334 . S
C2025 C2026 1.287 . S
C2026 C2025 1.287 . S
C2026 C2027 1.524 . S
C2026 H2045 0.913 . S
C2027 H2003 0.950 . S
C2027 C2026 1.524 . S
C2027 C2028 1.415 . S
C2028 H2004 0.950 . S
C2028 C2023 1.363 . S
C2028 C2027 1.415 . S
C2029 H2005 0.951 . S
C2029 C2030 1.366 . S
C2029 C2031 1.388 . S
C2030 C2029 1.366 . S
C2030 C2034 1.385 . S
C2031 H2006 0.951 . S
C2031 C2029 1.388 . S
C2031 C2032 1.366 . S
C2032 C2031 1.366 . S
C2032 C2033 1.414 . S
C2032 C2035 1.499 . S
C2033 H2007 0.950 . S
C2033 C2032 1.414 . S
C2033 C2034 1.374 . S
C2034 H2008 0.950 . S
C2034 C2030 1.385 . S
C2034 C2033 1.374 . S
C2035 C2032 1.499 . S
C2035 C2036 1.373 . S
C2035 C2037 1.389 . S
C2036 H2009 0.950 . S
C2036 C2022 1.377 . S
C2036 C2035 1.373 . S
C2037 C2021 1.377 . S
C2037 C2035 1.389 . S
C2037 C2038 1.524 . S
C2038 C2037 1.524 . S
C2038 C2039 1.397 . S
C2038 C2043 1.363 . S
C2039 H2010 0.950 . S
C2039 C2038 1.397 . S
C2039 C2040 1.334 . S
C2040 H2011 0.950 . S
C2040 C2039 1.334 . S
C2040 C2041 1.287 . S
C2041 C2040 1.287 . S
C2041 C2042 1.524 . S
C2041 H2044 0.999 . S
C2042 H2012 0.950 . S
C2042 C2041 1.524 . S
C2042 C2043 1.415 . S
C2043 H2013 0.950 . S
C2043 C2038 1.363 . S
C2043 C2042 1.415 . S
H2044 C2041 0.999 . S
H2045 C2026 0.913 . S
H2046 C2064 0.951 . S
H2047 C2066 0.951 . S
H2048 C2068 0.950 . S
H2049 C2069 0.950 . S
H2050 C2071 0.950 . S
H2051 C2074 0.950 . S
H2052 C2075 0.950 . S
H2053 C2077 0.950 . S
H2054 C2078 0.950 . S
H2055 C2079 0.951 . S
H2056 C2081 0.951 . S
H2057 C2083 0.950 . S
H2058 C2084 0.950 . S
H2059 C2086 0.950 . S
H2060 C2089 0.950 . S
H2061 C2090 0.950 . S
H2062 C2092 0.950 . S
H2063 C2093 0.950 . S
C2064 H2046 0.951 . S
C2064 C2065 1.366 . S
C2064 C2066 1.388 . S
C2065 C2064 1.366 . S
C2065 C2069 1.385 . S
C2066 H2047 0.951 . S
C2066 C2064 1.388 . S
C2066 C2067 1.366 . S
C2067 C2066 1.366 . S
C2067 C2068 1.414 . S
C2067 C2070 1.499 . S
C2068 H2048 0.950 . S
C2068 C2067 1.414 . S
C2068 C2069 1.374 . S
C2069 H2049 0.950 . S
C2069 C2065 1.385 . S
C2069 C2068 1.374 . S
C2070 C2067 1.499 . S
C2070 C2071 1.373 . S
C2070 C2072 1.389 . S
C2071 H2050 0.950 . S
C2071 C2070 1.373 . S
C2071 C2087 1.377 . S
C2072 C2070 1.389 . S
C2072 C2073 1.524 . S
C2072 C2086 1.377 . S
C2073 C2072 1.524 . S
C2073 C2074 1.397 . S
C2073 C2078 1.363 . S
C2074 H2051 0.950 . S
C2074 C2073 1.397 . S
C2074 C2075 1.334 . S
C2075 H2052 0.950 . S
C2075 C2074 1.334 . S
C2075 C2076 1.287 . S
C2076 C2075 1.287 . S
C2076 C2077 1.524 . S
C2076 H2095 0.913 . S
C2077 H2053 0.950 . S
C2077 C2076 1.524 . S
C2077 C2078 1.415 . S
C2078 H2054 0.950 . S
C2078 C2073 1.363 . S
C2078 C2077 1.415 . S
C2079 H2055 0.951 . S
C2079 C2080 1.366 . S
C2079 C2081 1.388 . S
C2080 C2079 1.366 . S
C2080 C2084 1.385 . S
C2081 H2056 0.951 . S
C2081 C2079 1.388 . S
C2081 C2082 1.366 . S
C2082 C2081 1.366 . S
C2082 C2083 1.414 . S
C2082 C2085 1.499 . S
C2083 H2057 0.950 . S
C2083 C2082 1.414 . S
C2083 C2084 1.374 . S
C2084 H2058 0.950 . S
C2084 C2080 1.385 . S
C2084 C2083 1.374 . S
C2085 C2082 1.499 . S
C2085 C2086 1.373 . S
C2085 C2087 1.389 . S
C2086 H2059 0.950 . S
C2086 C2072 1.377 . S
C2086 C2085 1.373 . S
C2087 C2071 1.377 . S
C2087 C2085 1.389 . S
C2087 C2088 1.524 . S
C2088 C2087 1.524 . S
C2088 C2089 1.397 . S
C2088 C2093 1.363 . S
C2089 H2060 0.950 . S
C2089 C2088 1.397 . S
C2089 C2090 1.334 . S
C2090 H2061 0.950 . S
C2090 C2089 1.334 . S
C2090 C2091 1.287 . S
C2091 C2090 1.287 . S
C2091 C2092 1.524 . S
C2091 H2094 0.999 . S
C2092 H2062 0.950 . S
C2092 C2091 1.524 . S
C2092 C2093 1.415 . S
C2093 H2063 0.950 . S
C2093 C2088 1.363 . S
C2093 C2092 1.415 . S
H2094 C2091 0.999 . S
H2095 C2076 0.913 . S
H2096 C2114 0.951 . S
H2097 C2116 0.951 . S
H2098 C2118 0.950 . S
H2099 C2119 0.950 . S
H2100 C2121 0.950 . S
H2101 C2124 0.950 . S
H2102 C2125 0.950 . S
H2103 C2127 0.950 . S
H2104 C2128 0.950 . S
H2105 C2129 0.951 . S
H2106 C2131 0.951 . S
H2107 C2133 0.950 . S
H2108 C2134 0.950 . S
H2109 C2136 0.950 . S
H2110 C2139 0.950 . S
H2111 C2140 0.950 . S
H2112 C2142 0.950 . S
H2113 C2143 0.950 . S
C2114 H2096 0.951 . S
C2114 C2115 1.366 . S
C2114 C2116 1.388 . S
C2115 C2114 1.366 . S
C2115 C2119 1.385 . S
C2116 H2097 0.951 . S
C2116 C2114 1.388 . S
C2116 C2117 1.366 . S
C2117 C2116 1.366 . S
C2117 C2118 1.414 . S
C2117 C2120 1.499 . S
C2118 H2098 0.950 . S
C2118 C2117 1.414 . S
C2118 C2119 1.374 . S
C2119 H2099 0.950 . S
C2119 C2115 1.385 . S
C2119 C2118 1.374 . S
C2120 C2117 1.499 . S
C2120 C2121 1.373 . S
C2120 C2122 1.389 . S
C2121 H2100 0.950 . S
C2121 C2120 1.373 . S
C2121 C2137 1.377 . S
C2122 C2120 1.389 . S
C2122 C2123 1.524 . S
C2122 C2136 1.377 . S
C2123 C2122 1.524 . S
C2123 C2124 1.397 . S
C2123 C2128 1.363 . S
C2124 H2101 0.950 . S
C2124 C2123 1.397 . S
C2124 C2125 1.334 . S
C2125 H2102 0.950 . S
C2125 C2124 1.334 . S
C2125 C2126 1.287 . S
C2126 C2125 1.287 . S
C2126 C2127 1.524 . S
C2126 H2145 0.913 . S
C2127 H2103 0.950 . S
C2127 C2126 1.524 . S
C2127 C2128 1.415 . S
C2128 H2104 0.950 . S
C2128 C2123 1.363 . S
C2128 C2127 1.415 . S
C2129 H2105 0.951 . S
C2129 C2130 1.366 . S
C2129 C2131 1.388 . S
C2130 C2129 1.366 . S
C2130 C2134 1.385 . S
C2131 H2106 0.951 . S
C2131 C2129 1.388 . S
C2131 C2132 1.366 . S
C2132 C2131 1.366 . S
C2132 C2133 1.414 . S
C2132 C2135 1.499 . S
C2133 H2107 0.950 . S
C2133 C2132 1.414 . S
C2133 C2134 1.374 . S
C2134 H2108 0.950 . S
C2134 C2130 1.385 . S
C2134 C2133 1.374 . S
C2135 C2132 1.499 . S
C2135 C2136 1.373 . S
C2135 C2137 1.389 . S
C2136 H2109 0.950 . S
C2136 C2122 1.377 . S
C2136 C2135 1.373 . S
C2137 C2121 1.377 . S
C2137 C2135 1.389 . S
C2137 C2138 1.524 . S
C2138 C2137 1.524 . S
C2138 C2139 1.397 . S
C2138 C2143 1.363 . S
C2139 H2110 0.950 . S
C2139 C2138 1.397 . S
C2139 C2140 1.334 . S
C2140 H2111 0.950 . S
C2140 C2139 1.334 . S
C2140 C2141 1.287 . S
C2141 C2140 1.287 . S
C2141 C2142 1.524 . S
C2141 H2144 0.999 1_545 S
C2142 H2112 0.950 . S
C2142 C2141 1.524 . S
C2142 C2143 1.415 . S
C2143 H2113 0.950 . S
C2143 C2138 1.363 . S
C2143 C2142 1.415 . S
H2144 C2141 0.999 1_565 S
H2145 C2126 0.913 . S
H2146 C2164 0.951 . S
H2147 C2166 0.951 . S
H2148 C2168 0.950 . S
H2149 C2169 0.950 . S
H2150 C2171 0.950 . S
H2151 C2174 0.950 . S
H2152 C2175 0.950 . S
H2153 C2177 0.950 . S
H2154 C2178 0.950 . S
H2155 C2179 0.951 . S
H2156 C2181 0.951 . S
H2157 C2183 0.950 . S
H2158 C2184 0.950 . S
H2159 C2186 0.950 . S
H2160 C2189 0.950 . S
H2161 C2190 0.950 . S
H2162 C2192 0.950 . S
H2163 C2193 0.950 . S
C2164 H2146 0.951 . S
C2164 C2165 1.366 . S
C2164 C2166 1.388 . S
C2165 C2164 1.366 . S
C2165 C2169 1.385 . S
C2166 H2147 0.951 . S
C2166 C2164 1.388 . S
C2166 C2167 1.366 . S
C2167 C2166 1.366 . S
C2167 C2168 1.414 . S
C2167 C2170 1.499 . S
C2168 H2148 0.950 . S
C2168 C2167 1.414 . S
C2168 C2169 1.374 . S
C2169 H2149 0.950 . S
C2169 C2165 1.385 . S
C2169 C2168 1.374 . S
C2170 C2167 1.499 . S
C2170 C2171 1.373 . S
C2170 C2172 1.389 . S
C2171 H2150 0.950 . S
C2171 C2170 1.373 . S
C2171 C2187 1.377 . S
C2172 C2170 1.389 . S
C2172 C2173 1.524 . S
C2172 C2186 1.377 . S
C2173 C2172 1.524 . S
C2173 C2174 1.397 . S
C2173 C2178 1.363 . S
C2174 H2151 0.950 . S
C2174 C2173 1.397 . S
C2174 C2175 1.334 . S
C2175 H2152 0.950 . S
C2175 C2174 1.334 . S
C2175 C2176 1.287 . S
C2176 C2175 1.287 . S
C2176 C2177 1.524 . S
C2176 H2195 0.913 . S
C2177 H2153 0.950 . S
C2177 C2176 1.524 . S
C2177 C2178 1.415 . S
C2178 H2154 0.950 . S
C2178 C2173 1.363 . S
C2178 C2177 1.415 . S
C2179 H2155 0.951 . S
C2179 C2180 1.366 . S
C2179 C2181 1.388 . S
C2180 C2179 1.366 . S
C2180 C2184 1.385 . S
C2181 H2156 0.951 . S
C2181 C2179 1.388 . S
C2181 C2182 1.366 . S
C2182 C2181 1.366 . S
C2182 C2183 1.414 . S
C2182 C2185 1.499 . S
C2183 H2157 0.950 . S
C2183 C2182 1.414 . S
C2183 C2184 1.374 . S
C2184 H2158 0.950 . S
C2184 C2180 1.385 . S
C2184 C2183 1.374 . S
C2185 C2182 1.499 . S
C2185 C2186 1.373 . S
C2185 C2187 1.389 . S
C2186 H2159 0.950 . S
C2186 C2172 1.377 . S
C2186 C2185 1.373 . S
C2187 C2171 1.377 . S
C2187 C2185 1.389 . S
C2187 C2188 1.524 . S
C2188 C2187 1.524 . S
C2188 C2189 1.397 . S
C2188 C2193 1.363 . S
C2189 H2160 0.950 . S
C2189 C2188 1.397 . S
C2189 C2190 1.334 . S
C2190 H2161 0.950 . S
C2190 C2189 1.334 . S
C2190 C2191 1.287 . S
C2191 C2190 1.287 . S
C2191 C2192 1.524 . S
C2191 H2194 0.999 . S
C2192 H2162 0.950 . S
C2192 C2191 1.524 . S
C2192 C2193 1.415 . S
C2193 H2163 0.950 . S
C2193 C2188 1.363 . S
C2193 C2192 1.415 . S
H2194 C2191 0.999 . S
H2195 C2176 0.913 . S
H2196 C2214 0.951 . S
H2197 C2216 0.951 . S
H2198 C2218 0.950 . S
H2199 C2219 0.950 . S
H2200 C2221 0.950 . S
H2201 C2224 0.950 . S
H2202 C2225 0.950 . S
H2203 C2227 0.950 . S
H2204 C2228 0.950 . S
H2205 C2229 0.951 . S
H2206 C2231 0.951 . S
H2207 C2233 0.950 . S
H2208 C2234 0.950 . S
H2209 C2236 0.950 . S
H2210 C2239 0.950 . S
H2211 C2240 0.950 . S
H2212 C2242 0.950 . S
H2213 C2243 0.950 . S
C2214 H2196 0.951 . S
C2214 C2215 1.366 . S
C2214 C2216 1.388 . S
C2215 C2214 1.366 . S
C2215 C2219 1.385 . S
C2216 H2197 0.951 . S
C2216 C2214 1.388 . S
C2216 C2217 1.366 . S
C2217 C2216 1.366 . S
C2217 C2218 1.414 . S
C2217 C2220 1.499 . S
C2218 H2198 0.950 . S
C2218 C2217 1.414 . S
C2218 C2219 1.374 . S
C2219 H2199 0.950 . S
C2219 C2215 1.385 . S
C2219 C2218 1.374 . S
C2220 C2217 1.499 . S
C2220 C2221 1.373 . S
C2220 C2222 1.389 . S
C2221 H2200 0.950 . S
C2221 C2220 1.373 . S
C2221 C2237 1.377 . S
C2222 C2220 1.389 . S
C2222 C2223 1.524 . S
C2222 C2236 1.377 . S
C2223 C2222 1.524 . S
C2223 C2224 1.397 . S
C2223 C2228 1.363 . S
C2224 H2201 0.950 . S
C2224 C2223 1.397 . S
C2224 C2225 1.334 . S
C2225 H2202 0.950 . S
C2225 C2224 1.334 . S
C2225 C2226 1.287 . S
C2226 C2225 1.287 . S
C2226 C2227 1.524 . S
C2226 H2245 0.913 . S
C2227 H2203 0.950 . S
C2227 C2226 1.524 . S
C2227 C2228 1.415 . S
C2228 H2204 0.950 . S
C2228 C2223 1.363 . S
C2228 C2227 1.415 . S
C2229 H2205 0.951 . S
C2229 C2230 1.366 . S
C2229 C2231 1.388 . S
C2230 C2229 1.366 . S
C2230 C2234 1.385 . S
C2231 H2206 0.951 . S
C2231 C2229 1.388 . S
C2231 C2232 1.366 . S
C2232 C2231 1.366 . S
C2232 C2233 1.414 . S
C2232 C2235 1.499 . S
C2233 H2207 0.950 . S
C2233 C2232 1.414 . S
C2233 C2234 1.374 . S
C2234 H2208 0.950 . S
C2234 C2230 1.385 . S
C2234 C2233 1.374 . S
C2235 C2232 1.499 . S
C2235 C2236 1.373 . S
C2235 C2237 1.389 . S
C2236 H2209 0.950 . S
C2236 C2222 1.377 . S
C2236 C2235 1.373 . S
C2237 C2221 1.377 . S
C2237 C2235 1.389 . S
C2237 C2238 1.524 . S
C2238 C2237 1.524 . S
C2238 C2239 1.397 . S
C2238 C2243 1.363 . S
C2239 H2210 0.950 . S
C2239 C2238 1.397 . S
C2239 C2240 1.334 . S
C2240 H2211 0.950 . S
C2240 C2239 1.334 . S
C2240 C2241 1.287 . S
C2241 C2240 1.287 . S
C2241 C2242 1.524 . S
C2241 H2244 0.999 . S
C2242 H2212 0.950 . S
C2242 C2241 1.524 . S
C2242 C2243 1.415 . S
C2243 H2213 0.950 . S
C2243 C2238 1.363 . S
C2243 C2242 1.415 . S
H2244 C2241 0.999 . S
H2245 C2226 0.913 . S
H2246 C2264 0.951 . S
H2247 C2266 0.951 . S
H2248 C2268 0.950 . S
H2249 C2269 0.950 . S
H2250 C2271 0.950 . S
H2251 C2274 0.950 . S
H2252 C2275 0.950 . S
H2253 C2277 0.950 . S
H2254 C2278 0.950 . S
H2255 C2279 0.951 . S
H2256 C2281 0.951 . S
H2257 C2283 0.950 . S
H2258 C2284 0.950 . S
H2259 C2286 0.950 . S
H2260 C2289 0.950 . S
H2261 C2290 0.950 . S
H2262 C2292 0.950 . S
H2263 C2293 0.950 . S
C2264 H2246 0.951 . S
C2264 C2265 1.366 . S
C2264 C2266 1.388 . S
C2265 C2264 1.366 . S
C2265 C2269 1.385 . S
C2266 H2247 0.951 . S
C2266 C2264 1.388 . S
C2266 C2267 1.366 . S
C2267 C2266 1.366 . S
C2267 C2268 1.414 . S
C2267 C2270 1.499 . S
C2268 H2248 0.950 . S
C2268 C2267 1.414 . S
C2268 C2269 1.374 . S
C2269 H2249 0.950 . S
C2269 C2265 1.385 . S
C2269 C2268 1.374 . S
C2270 C2267 1.499 . S
C2270 C2271 1.373 . S
C2270 C2272 1.389 . S
C2271 H2250 0.950 . S
C2271 C2270 1.373 . S
C2271 C2287 1.377 . S
C2272 C2270 1.389 . S
C2272 C2273 1.524 . S
C2272 C2286 1.377 . S
C2273 C2272 1.524 . S
C2273 C2274 1.397 . S
C2273 C2278 1.363 . S
C2274 H2251 0.950 . S
C2274 C2273 1.397 . S
C2274 C2275 1.334 . S
C2275 H2252 0.950 . S
C2275 C2274 1.334 . S
C2275 C2276 1.287 . S
C2276 C2275 1.287 . S
C2276 C2277 1.524 . S
C2276 H2295 0.913 . S
C2277 H2253 0.950 . S
C2277 C2276 1.524 . S
C2277 C2278 1.415 . S
C2278 H2254 0.950 . S
C2278 C2273 1.363 . S
C2278 C2277 1.415 . S
C2279 H2255 0.951 . S
C2279 C2280 1.366 . S
C2279 C2281 1.388 . S
C2280 C2279 1.366 . S
C2280 C2284 1.385 . S
C2281 H2256 0.951 . S
C2281 C2279 1.388 . S
C2281 C2282 1.366 . S
C2282 C2281 1.366 . S
C2282 C2283 1.414 . S
C2282 C2285 1.499 . S
C2283 H2257 0.950 . S
C2283 C2282 1.414 . S
C2283 C2284 1.374 . S
C2284 H2258 0.950 . S
C2284 C2280 1.385 . S
C2284 C2283 1.374 . S
C2285 C2282 1.499 . S
C2285 C2286 1.373 . S
C2285 C2287 1.389 . S
C2286 H2259 0.950 . S
C2286 C2272 1.377 . S
C2286 C2285 1.373 . S
C2287 C2271 1.377 . S
C2287 C2285 1.389 . S
C2287 C2288 1.524 . S
C2288 C2287 1.524 . S
C2288 C2289 1.397 . S
C2288 C2293 1.363 . S
C2289 H2260 0.950 . S
C2289 C2288 1.397 . S
C2289 C2290 1.334 . S
C2290 H2261 0.950 . S
C2290 C2289 1.334 . S
C2290 C2291 1.287 . S
C2291 C2290 1.287 . S
C2291 C2292 1.524 . S
C2291 H2294 0.999 . S
C2292 H2262 0.950 . S
C2292 C2291 1.524 . S
C2292 C2293 1.415 . S
C2293 H2263 0.950 . S
C2293 C2288 1.363 . S
C2293 C2292 1.415 . S
H2294 C2291 0.999 . S
H2295 C2276 0.913 . S
H2296 C2314 0.951 . S
H2297 C2316 0.951 . S
H2298 C2318 0.950 . S
H2299 C2319 0.950 . S
H2300 C2321 0.950 . S
H2301 C2324 0.950 . S
H2302 C2325 0.950 . S
H2303 C2327 0.950 . S
H2304 C2328 0.950 . S
H2305 C2329 0.951 . S
H2306 C2331 0.951 . S
H2307 C2333 0.950 . S
H2308 C2334 0.950 . S
H2309 C2336 0.950 . S
H2310 C2339 0.950 . S
H2311 C2340 0.950 . S
H2312 C2342 0.950 . S
H2313 C2343 0.950 . S
C2314 H2296 0.951 . S
C2314 C2315 1.366 . S
C2314 C2316 1.388 . S
C2315 C2314 1.366 . S
C2315 C2319 1.385 . S
C2316 H2297 0.951 . S
C2316 C2314 1.388 . S
C2316 C2317 1.366 . S
C2317 C2316 1.366 . S
C2317 C2318 1.414 . S
C2317 C2320 1.499 . S
C2318 H2298 0.950 . S
C2318 C2317 1.414 . S
C2318 C2319 1.374 . S
C2319 H2299 0.950 . S
C2319 C2315 1.385 . S
C2319 C2318 1.374 . S
C2320 C2317 1.499 . S
C2320 C2321 1.373 . S
C2320 C2322 1.389 . S
C2321 H2300 0.950 . S
C2321 C2320 1.373 . S
C2321 C2337 1.377 . S
C2322 C2320 1.389 . S
C2322 C2323 1.524 . S
C2322 C2336 1.377 . S
C2323 C2322 1.524 . S
C2323 C2324 1.397 . S
C2323 C2328 1.363 . S
C2324 H2301 0.950 . S
C2324 C2323 1.397 . S
C2324 C2325 1.334 . S
C2325 H2302 0.950 . S
C2325 C2324 1.334 . S
C2325 C2326 1.287 . S
C2326 C2325 1.287 . S
C2326 C2327 1.524 . S
C2326 H2345 0.913 . S
C2327 H2303 0.950 . S
C2327 C2326 1.524 . S
C2327 C2328 1.415 . S
C2328 H2304 0.950 . S
C2328 C2323 1.363 . S
C2328 C2327 1.415 . S
C2329 H2305 0.951 . S
C2329 C2330 1.366 . S
C2329 C2331 1.388 . S
C2330 C2329 1.366 . S
C2330 C2334 1.385 . S
C2331 H2306 0.951 . S
C2331 C2329 1.388 . S
C2331 C2332 1.366 . S
C2332 C2331 1.366 . S
C2332 C2333 1.414 . S
C2332 C2335 1.499 . S
C2333 H2307 0.950 . S
C2333 C2332 1.414 . S
C2333 C2334 1.374 . S
C2334 H2308 0.950 . S
C2334 C2330 1.385 . S
C2334 C2333 1.374 . S
C2335 C2332 1.499 . S
C2335 C2336 1.373 . S
C2335 C2337 1.389 . S
C2336 H2309 0.950 . S
C2336 C2322 1.377 . S
C2336 C2335 1.373 . S
C2337 C2321 1.377 . S
C2337 C2335 1.389 . S
C2337 C2338 1.524 . S
C2338 C2337 1.524 . S
C2338 C2339 1.397 . S
C2338 C2343 1.363 . S
C2339 H2310 0.950 . S
C2339 C2338 1.397 . S
C2339 C2340 1.334 . S
C2340 H2311 0.950 . S
C2340 C2339 1.334 . S
C2340 C2341 1.287 . S
C2341 C2340 1.287 . S
C2341 C2342 1.524 . S
C2341 H2344 0.999 . S
C2342 H2312 0.950 . S
C2342 C2341 1.524 . S
C2342 C2343 1.415 . S
C2343 H2313 0.950 . S
C2343 C2338 1.363 . S
C2343 C2342 1.415 . S
H2344 C2341 0.999 . S
H2345 C2326 0.913 . S
H2346 C2364 0.951 . S
H2347 C2366 0.951 . S
H2348 C2368 0.950 . S
H2349 C2369 0.950 . S
H2350 C2371 0.950 . S
H2351 C2374 0.950 . S
H2352 C2375 0.950 . S
H2353 C2377 0.950 . S
H2354 C2378 0.950 . S
H2355 C2379 0.951 . S
H2356 C2381 0.951 . S
H2357 C2383 0.950 . S
H2358 C2384 0.950 . S
H2359 C2386 0.950 . S
H2360 C2389 0.950 . S
H2361 C2390 0.950 . S
H2362 C2392 0.950 . S
H2363 C2393 0.950 . S
C2364 H2346 0.951 . S
C2364 C2365 1.366 . S
C2364 C2366 1.388 . S
C2365 C2364 1.366 . S
C2365 C2369 1.385 . S
C2366 H2347 0.951 . S
C2366 C2364 1.388 . S
C2366 C2367 1.366 . S
C2367 C2366 1.366 . S
C2367 C2368 1.414 . S
C2367 C2370 1.499 . S
C2368 H2348 0.950 . S
C2368 C2367 1.414 . S
C2368 C2369 1.374 . S
C2369 H2349 0.950 . S
C2369 C2365 1.385 . S
C2369 C2368 1.374 . S
C2370 C2367 1.499 . S
C2370 C2371 1.373 . S
C2370 C2372 1.389 . S
C2371 H2350 0.950 . S
C2371 C2370 1.373 . S
C2371 C2387 1.377 . S
C2372 C2370 1.389 . S
C2372 C2373 1.524 . S
C2372 C2386 1.377 . S
C2373 C2372 1.524 . S
C2373 C2374 1.397 . S
C2373 C2378 1.363 . S
C2374 H2351 0.950 . S
C2374 C2373 1.397 . S
C2374 C2375 1.334 . S
C2375 H2352 0.950 . S
C2375 C2374 1.334 . S
C2375 C2376 1.287 . S
C2376 C2375 1.287 . S
C2376 C2377 1.524 . S
C2376 H2395 0.913 . S
C2377 H2353 0.950 . S
C2377 C2376 1.524 . S
C2377 C2378 1.415 . S
C2378 H2354 0.950 . S
C2378 C2373 1.363 . S
C2378 C2377 1.415 . S
C2379 H2355 0.951 . S
C2379 C2380 1.366 . S
C2379 C2381 1.388 . S
C2380 C2379 1.366 . S
C2380 C2384 1.385 . S
C2381 H2356 0.951 . S
C2381 C2379 1.388 . S
C2381 C2382 1.366 . S
C2382 C2381 1.366 . S
C2382 C2383 1.414 . S
C2382 C2385 1.499 . S
C2383 H2357 0.950 . S
C2383 C2382 1.414 . S
C2383 C2384 1.374 . S
C2384 H2358 0.950 . S
C2384 C2380 1.385 . S
C2384 C2383 1.374 . S
C2385 C2382 1.499 . S
C2385 C2386 1.373 . S
C2385 C2387 1.389 . S
C2386 H2359 0.950 . S
C2386 C2372 1.377 . S
C2386 C2385 1.373 . S
C2387 C2371 1.377 . S
C2387 C2385 1.389 . S
C2387 C2388 1.524 . S
C2388 C2387 1.524 . S
C2388 C2389 1.397 . S
C2388 C2393 1.363 . S
C2389 H2360 0.950 . S
C2389 C2388 1.397 . S
C2389 C2390 1.334 . S
C2390 H2361 0.950 . S
C2390 C2389 1.334 . S
C2390 C2391 1.287 . S
C2391 C2390 1.287 . S
C2391 C2392 1.524 . S
C2391 H2394 0.999 . S
C2392 H2362 0.950 . S
C2392 C2391 1.524 . S
C2392 C2393 1.415 . S
C2393 H2363 0.950 . S
C2393 C2388 1.363 . S
C2393 C2392 1.415 . S
H2394 C2391 0.999 . S
H2395 C2376 0.913 . S
H2396 C2414 0.951 . S
H2397 C2416 0.951 . S
H2398 C2418 0.950 . S
H2399 C2419 0.950 . S
H2400 C2421 0.950 . S
H2401 C2424 0.950 . S
H2402 C2425 0.950 . S
H2403 C2427 0.950 . S
H2404 C2428 0.950 . S
H2405 C2429 0.951 . S
H2406 C2431 0.951 . S
H2407 C2433 0.950 . S
H2408 C2434 0.950 . S
H2409 C2436 0.950 . S
H2410 C2439 0.950 . S
H2411 C2440 0.950 . S
H2412 C2442 0.950 . S
H2413 C2443 0.950 . S
C2414 H2396 0.951 . S
C2414 C2415 1.366 . S
C2414 C2416 1.388 . S
C2415 C2414 1.366 . S
C2415 C2419 1.385 . S
C2416 H2397 0.951 . S
C2416 C2414 1.388 . S
C2416 C2417 1.366 . S
C2417 C2416 1.366 . S
C2417 C2418 1.414 . S
C2417 C2420 1.499 . S
C2418 H2398 0.950 . S
C2418 C2417 1.414 . S
C2418 C2419 1.374 . S
C2419 H2399 0.950 . S
C2419 C2415 1.385 . S
C2419 C2418 1.374 . S
C2420 C2417 1.499 . S
C2420 C2421 1.373 . S
C2420 C2422 1.389 . S
C2421 H2400 0.950 . S
C2421 C2420 1.373 . S
C2421 C2437 1.377 . S
C2422 C2420 1.389 . S
C2422 C2423 1.524 . S
C2422 C2436 1.377 . S
C2423 C2422 1.524 . S
C2423 C2424 1.397 . S
C2423 C2428 1.363 . S
C2424 H2401 0.950 . S
C2424 C2423 1.397 . S
C2424 C2425 1.334 . S
C2425 H2402 0.950 . S
C2425 C2424 1.334 . S
C2425 C2426 1.287 . S
C2426 C2425 1.287 . S
C2426 C2427 1.524 . S
C2426 H2445 0.913 . S
C2427 H2403 0.950 . S
C2427 C2426 1.524 . S
C2427 C2428 1.415 . S
C2428 H2404 0.950 . S
C2428 C2423 1.363 . S
C2428 C2427 1.415 . S
C2429 H2405 0.951 . S
C2429 C2430 1.366 . S
C2429 C2431 1.388 . S
C2430 C2429 1.366 . S
C2430 C2434 1.385 . S
C2431 H2406 0.951 . S
C2431 C2429 1.388 . S
C2431 C2432 1.366 . S
C2432 C2431 1.366 . S
C2432 C2433 1.414 . S
C2432 C2435 1.499 . S
C2433 H2407 0.950 . S
C2433 C2432 1.414 . S
C2433 C2434 1.374 . S
C2434 H2408 0.950 . S
C2434 C2430 1.385 . S
C2434 C2433 1.374 . S
C2435 C2432 1.499 . S
C2435 C2436 1.373 . S
C2435 C2437 1.389 . S
C2436 H2409 0.950 . S
C2436 C2422 1.377 . S
C2436 C2435 1.373 . S
C2437 C2421 1.377 . S
C2437 C2435 1.389 . S
C2437 C2438 1.524 . S
C2438 C2437 1.524 . S
C2438 C2439 1.397 . S
C2438 C2443 1.363 . S
C2439 H2410 0.950 . S
C2439 C2438 1.397 . S
C2439 C2440 1.334 . S
C2440 H2411 0.950 . S
C2440 C2439 1.334 . S
C2440 C2441 1.287 . S
C2441 C2440 1.287 . S
C2441 C2442 1.524 . S
C2441 H2444 0.999 . S
C2442 H2412 0.950 . S
C2442 C2441 1.524 . S
C2442 C2443 1.415 . S
C2443 H2413 0.950 . S
C2443 C2438 1.363 . S
C2443 C2442 1.415 . S
H2444 C2441 0.999 . S
H2445 C2426 0.913 . S
H2446 C2464 0.951 . S
H2447 C2466 0.951 . S
H2448 C2468 0.950 . S
H2449 C2469 0.950 . S
H2450 C2471 0.950 . S
H2451 C2474 0.950 . S
H2452 C2475 0.950 . S
H2453 C2477 0.950 . S
H2454 C2478 0.950 . S
H2455 C2479 0.951 . S
H2456 C2481 0.951 . S
H2457 C2483 0.950 . S
H2458 C2484 0.950 . S
H2459 C2486 0.950 . S
H2460 C2489 0.950 . S
H2461 C2490 0.950 . S
H2462 C2492 0.950 . S
H2463 C2493 0.950 . S
C2464 H2446 0.951 . S
C2464 C2465 1.366 . S
C2464 C2466 1.388 . S
C2465 C2464 1.366 . S
C2465 C2469 1.385 . S
C2466 H2447 0.951 . S
C2466 C2464 1.388 . S
C2466 C2467 1.366 . S
C2467 C2466 1.366 . S
C2467 C2468 1.414 . S
C2467 C2470 1.499 . S
C2468 H2448 0.950 . S
C2468 C2467 1.414 . S
C2468 C2469 1.374 . S
C2469 H2449 0.950 . S
C2469 C2465 1.385 . S
C2469 C2468 1.374 . S
C2470 C2467 1.499 . S
C2470 C2471 1.373 . S
C2470 C2472 1.389 . S
C2471 H2450 0.950 . S
C2471 C2470 1.373 . S
C2471 C2487 1.377 . S
C2472 C2470 1.389 . S
C2472 C2473 1.524 . S
C2472 C2486 1.377 . S
C2473 C2472 1.524 . S
C2473 C2474 1.397 . S
C2473 C2478 1.363 . S
C2474 H2451 0.950 . S
C2474 C2473 1.397 . S
C2474 C2475 1.334 . S
C2475 H2452 0.950 . S
C2475 C2474 1.334 . S
C2475 C2476 1.287 . S
C2476 C2475 1.287 . S
C2476 C2477 1.524 . S
C2476 H2495 0.913 . S
C2477 H2453 0.950 . S
C2477 C2476 1.524 . S
C2477 C2478 1.415 . S
C2478 H2454 0.950 . S
C2478 C2473 1.363 . S
C2478 C2477 1.415 . S
C2479 H2455 0.951 . S
C2479 C2480 1.366 . S
C2479 C2481 1.388 . S
C2480 C2479 1.366 . S
C2480 C2484 1.385 . S
C2481 H2456 0.951 . S
C2481 C2479 1.388 . S
C2481 C2482 1.366 . S
C2482 C2481 1.366 . S
C2482 C2483 1.414 . S
C2482 C2485 1.499 . S
C2483 H2457 0.950 . S
C2483 C2482 1.414 . S
C2483 C2484 1.374 . S
C2484 H2458 0.950 . S
C2484 C2480 1.385 . S
C2484 C2483 1.374 . S
C2485 C2482 1.499 . S
C2485 C2486 1.373 . S
C2485 C2487 1.389 . S
C2486 H2459 0.950 . S
C2486 C2472 1.377 . S
C2486 C2485 1.373 . S
C2487 C2471 1.377 . S
C2487 C2485 1.389 . S
C2487 C2488 1.524 . S
C2488 C2487 1.524 . S
C2488 C2489 1.397 . S
C2488 C2493 1.363 . S
C2489 H2460 0.950 . S
C2489 C2488 1.397 . S
C2489 C2490 1.334 . S
C2490 H2461 0.950 . S
C2490 C2489 1.334 . S
C2490 C2491 1.287 . S
C2491 C2490 1.287 . S
C2491 C2492 1.524 . S
C2491 H2494 0.999 . S
C2492 H2462 0.950 . S
C2492 C2491 1.524 . S
C2492 C2493 1.415 . S
C2493 H2463 0.950 . S
C2493 C2488 1.363 . S
C2493 C2492 1.415 . S
H2494 C2491 0.999 . S
H2495 C2476 0.913 . S
H2496 C2514 0.951 . S
H2497 C2516 0.951 . S
H2498 C2518 0.950 . S
H2499 C2519 0.950 . S
H2500 C2521 0.950 . S
H2501 C2524 0.950 . S
H2502 C2525 0.950 . S
H2503 C2527 0.950 . S
H2504 C2528 0.950 . S
H2505 C2529 0.951 . S
H2506 C2531 0.951 . S
H2507 C2533 0.950 . S
H2508 C2534 0.950 . S
H2509 C2536 0.950 . S
H2510 C2539 0.950 . S
H2511 C2540 0.950 . S
H2512 C2542 0.950 . S
H2513 C2543 0.950 . S
C2514 H2496 0.951 . S
C2514 C2515 1.366 . S
C2514 C2516 1.388 . S
C2515 C2514 1.366 . S
C2515 C2519 1.385 . S
C2516 H2497 0.951 . S
C2516 C2514 1.388 . S
C2516 C2517 1.366 . S
C2517 C2516 1.366 . S
C2517 C2518 1.414 . S
C2517 C2520 1.499 . S
C2518 H2498 0.950 . S
C2518 C2517 1.414 . S
C2518 C2519 1.374 . S
C2519 H2499 0.950 . S
C2519 C2515 1.385 . S
C2519 C2518 1.374 . S
C2520 C2517 1.499 . S
C2520 C2521 1.373 . S
C2520 C2522 1.389 . S
C2521 H2500 0.950 . S
C2521 C2520 1.373 . S
C2521 C2537 1.377 . S
C2522 C2520 1.389 . S
C2522 C2523 1.524 . S
C2522 C2536 1.377 . S
C2523 C2522 1.524 . S
C2523 C2524 1.397 . S
C2523 C2528 1.363 . S
C2524 H2501 0.950 . S
C2524 C2523 1.397 . S
C2524 C2525 1.334 . S
C2525 H2502 0.950 . S
C2525 C2524 1.334 . S
C2525 C2526 1.287 . S
C2526 C2525 1.287 . S
C2526 C2527 1.524 . S
C2526 H2545 0.913 . S
C2527 H2503 0.950 . S
C2527 C2526 1.524 . S
C2527 C2528 1.415 . S
C2528 H2504 0.950 . S
C2528 C2523 1.363 . S
C2528 C2527 1.415 . S
C2529 H2505 0.951 . S
C2529 C2530 1.366 . S
C2529 C2531 1.388 . S
C2530 C2529 1.366 . S
C2530 C2534 1.385 . S
C2531 H2506 0.951 . S
C2531 C2529 1.388 . S
C2531 C2532 1.366 . S
C2532 C2531 1.366 . S
C2532 C2533 1.414 . S
C2532 C2535 1.499 . S
C2533 H2507 0.950 . S
C2533 C2532 1.414 . S
C2533 C2534 1.374 . S
C2534 H2508 0.950 . S
C2534 C2530 1.385 . S
C2534 C2533 1.374 . S
C2535 C2532 1.499 . S
C2535 C2536 1.373 . S
C2535 C2537 1.389 . S
C2536 H2509 0.950 . S
C2536 C2522 1.377 . S
C2536 C2535 1.373 . S
C2537 C2521 1.377 . S
C2537 C2535 1.389 . S
C2537 C2538 1.524 . S
C2538 C2537 1.524 . S
C2538 C2539 1.397 . S
C2538 C2543 1.363 . S
C2539 H2510 0.950 . S
C2539 C2538 1.397 . S
C2539 C2540 1.334 . S
C2540 H2511 0.950 . S
C2540 C2539 1.334 . S
C2540 C2541 1.287 . S
C2541 C2540 1.287 . S
C2541 C2542 1.524 . S
C2541 H2544 0.999 . S
C2542 H2512 0.950 . S
C2542 C2541 1.524 . S
C2542 C2543 1.415 . S
C2543 H2513 0.950 . S
C2543 C2538 1.363 . S
C2543 C2542 1.415 . S
H2544 C2541 0.999 . S
H2545 C2526 0.913 . S
H2546 C2564 0.951 . S
H2547 C2566 0.951 . S
H2548 C2568 0.950 . S
H2549 C2569 0.950 . S
H2550 C2571 0.950 . S
H2551 C2574 0.950 . S
H2552 C2575 0.950 . S
H2553 C2577 0.950 . S
H2554 C2578 0.950 . S
H2555 C2579 0.951 . S
H2556 C2581 0.951 . S
H2557 C2583 0.950 . S
H2558 C2584 0.950 . S
H2559 C2586 0.950 . S
H2560 C2589 0.950 . S
H2561 C2590 0.950 . S
H2562 C2592 0.950 . S
H2563 C2593 0.950 . S
C2564 H2546 0.951 . S
C2564 C2565 1.366 . S
C2564 C2566 1.388 . S
C2565 C2564 1.366 . S
C2565 C2569 1.385 . S
C2566 H2547 0.951 . S
C2566 C2564 1.388 . S
C2566 C2567 1.366 . S
C2567 C2566 1.366 . S
C2567 C2568 1.414 . S
C2567 C2570 1.499 . S
C2568 H2548 0.950 . S
C2568 C2567 1.414 . S
C2568 C2569 1.374 . S
C2569 H2549 0.950 . S
C2569 C2565 1.385 . S
C2569 C2568 1.374 . S
C2570 C2567 1.499 . S
C2570 C2571 1.373 . S
C2570 C2572 1.389 . S
C2571 H2550 0.950 . S
C2571 C2570 1.373 . S
C2571 C2587 1.377 . S
C2572 C2570 1.389 . S
C2572 C2573 1.524 . S
C2572 C2586 1.377 . S
C2573 C2572 1.524 . S
C2573 C2574 1.397 . S
C2573 C2578 1.363 . S
C2574 H2551 0.950 . S
C2574 C2573 1.397 . S
C2574 C2575 1.334 . S
C2575 H2552 0.950 . S
C2575 C2574 1.334 . S
C2575 C2576 1.287 . S
C2576 C2575 1.287 . S
C2576 C2577 1.524 . S
C2576 H2595 0.913 . S
C2577 H2553 0.950 . S
C2577 C2576 1.524 . S
C2577 C2578 1.415 . S
C2578 H2554 0.950 . S
C2578 C2573 1.363 . S
C2578 C2577 1.415 . S
C2579 H2555 0.951 . S
C2579 C2580 1.366 . S
C2579 C2581 1.388 . S
C2580 C2579 1.366 . S
C2580 C2584 1.385 . S
C2581 H2556 0.951 . S
C2581 C2579 1.388 . S
C2581 C2582 1.366 . S
C2582 C2581 1.366 . S
C2582 C2583 1.414 . S
C2582 C2585 1.499 . S
C2583 H2557 0.950 . S
C2583 C2582 1.414 . S
C2583 C2584 1.374 . S
C2584 H2558 0.950 . S
C2584 C2580 1.385 . S
C2584 C2583 1.374 . S
C2585 C2582 1.499 . S
C2585 C2586 1.373 . S
C2585 C2587 1.389 . S
C2586 H2559 0.950 . S
C2586 C2572 1.377 . S
C2586 C2585 1.373 . S
C2587 C2571 1.377 . S
C2587 C2585 1.389 . S
C2587 C2588 1.524 . S
C2588 C2587 1.524 . S
C2588 C2589 1.397 . S
C2588 C2593 1.363 . S
C2589 H2560 0.950 . S
C2589 C2588 1.397 . S
C2589 C2590 1.334 . S
C2590 H2561 0.950 . S
C2590 C2589 1.334 . S
C2590 C2591 1.287 . S
C2591 C2590 1.287 . S
C2591 C2592 1.524 . S
C2591 H2594 0.999 . S
C2592 H2562 0.950 . S
C2592 C2591 1.524 . S
C2592 C2593 1.415 . S
C2593 H2563 0.950 . S
C2593 C2588 1.363 . S
C2593 C2592 1.415 . S
H2594 C2591 0.999 . S
H2595 C2576 0.913 . S
H2596 C2614 0.951 . S
H2597 C2616 0.951 . S
H2598 C2618 0.950 . S
H2599 C2619 0.950 . S
H2600 C2621 0.950 . S
H2601 C2624 0.950 . S
H2602 C2625 0.950 . S
H2603 C2627 0.950 . S
H2604 C2628 0.950 . S
H2605 C2629 0.951 . S
H2606 C2631 0.951 . S
H2607 C2633 0.950 . S
H2608 C2634 0.950 . S
H2609 C2636 0.950 . S
H2610 C2639 0.950 . S
H2611 C2640 0.950 . S
H2612 C2642 0.950 . S
H2613 C2643 0.950 . S
C2614 H2596 0.951 . S
C2614 C2615 1.366 . S
C2614 C2616 1.388 . S
C2615 C2614 1.366 . S
C2615 C2619 1.385 . S
C2616 H2597 0.951 . S
C2616 C2614 1.388 . S
C2616 C2617 1.366 . S
C2617 C2616 1.366 . S
C2617 C2618 1.414 . S
C2617 C2620 1.499 . S
C2618 H2598 0.950 . S
C2618 C2617 1.414 . S
C2618 C2619 1.374 . S
C2619 H2599 0.950 . S
C2619 C2615 1.385 . S
C2619 C2618 1.374 . S
C2620 C2617 1.499 . S
C2620 C2621 1.373 . S
C2620 C2622 1.389 . S
C2621 H2600 0.950 . S
C2621 C2620 1.373 . S
C2621 C2637 1.377 . S
C2622 C2620 1.389 . S
C2622 C2623 1.524 . S
C2622 C2636 1.377 . S
C2623 C2622 1.524 . S
C2623 C2624 1.397 . S
C2623 C2628 1.363 . S
C2624 H2601 0.950 . S
C2624 C2623 1.397 . S
C2624 C2625 1.334 . S
C2625 H2602 0.950 . S
C2625 C2624 1.334 . S
C2625 C2626 1.287 . S
C2626 C2625 1.287 . S
C2626 C2627 1.524 . S
C2626 H2645 0.913 . S
C2627 H2603 0.950 . S
C2627 C2626 1.524 . S
C2627 C2628 1.415 . S
C2628 H2604 0.950 . S
C2628 C2623 1.363 . S
C2628 C2627 1.415 . S
C2629 H2605 0.951 . S
C2629 C2630 1.366 . S
C2629 C2631 1.388 . S
C2630 C2629 1.366 . S
C2630 C2634 1.385 . S
C2631 H2606 0.951 . S
C2631 C2629 1.388 . S
C2631 C2632 1.366 . S
C2632 C2631 1.366 . S
C2632 C2633 1.414 . S
C2632 C2635 1.499 . S
C2633 H2607 0.950 . S
C2633 C2632 1.414 . S
C2633 C2634 1.374 . S
C2634 H2608 0.950 . S
C2634 C2630 1.385 . S
C2634 C2633 1.374 . S
C2635 C2632 1.499 . S
C2635 C2636 1.373 . S
C2635 C2637 1.389 . S
C2636 H2609 0.950 . S
C2636 C2622 1.377 . S
C2636 C2635 1.373 . S
C2637 C2621 1.377 . S
C2637 C2635 1.389 . S
C2637 C2638 1.524 . S
C2638 C2637 1.524 . S
C2638 C2639 1.397 . S
C2638 C2643 1.363 . S
C2639 H2610 0.950 . S
C2639 C2638 1.397 . S
C2639 C2640 1.334 . S
C2640 H2611 0.950 . S
C2640 C2639 1.334 . S
C2640 C2641 1.287 . S
C2641 C2640 1.287 . S
C2641 C2642 1.524 . S
C2641 H2644 0.999 . S
C2642 H2612 0.950 . S
C2642 C2641 1.524 . S
C2642 C2643 1.415 . S
C2643 H2613 0.950 . S
C2643 C2638 1.363 . S
C2643 C2642 1.415 . S
H2644 C2641 0.999 . S
H2645 C2626 0.913 . S
H2646 C2664 0.951 . S
H2647 C2666 0.951 . S
H2648 C2668 0.950 . S
H2649 C2669 0.950 . S
H2650 C2671 0.950 . S
H2651 C2674 0.950 . S
H2652 C2675 0.950 . S
H2653 C2677 0.950 . S
H2654 C2678 0.950 . S
H2655 C2679 0.951 . S
H2656 C2681 0.951 . S
H2657 C2683 0.950 . S
H2658 C2684 0.950 . S
H2659 C2686 0.950 . S
H2660 C2689 0.950 . S
H2661 C2690 0.950 1_455 S
H2662 C2692 0.950 . S
H2663 C2693 0.950 . S
C2664 H2646 0.951 . S
C2664 C2665 1.366 . S
C2664 C2666 1.388 . S
C2665 C2664 1.366 . S
C2665 C2669 1.385 . S
C2666 H2647 0.951 . S
C2666 C2664 1.388 . S
C2666 C2667 1.366 . S
C2667 C2666 1.366 . S
C2667 C2668 1.414 . S
C2667 C2670 1.499 . S
C2668 H2648 0.950 . S
C2668 C2667 1.414 . S
C2668 C2669 1.374 . S
C2669 H2649 0.950 . S
C2669 C2665 1.385 . S
C2669 C2668 1.374 . S
C2670 C2667 1.499 . S
C2670 C2671 1.373 . S
C2670 C2672 1.389 . S
C2671 H2650 0.950 . S
C2671 C2670 1.373 . S
C2671 C2687 1.377 . S
C2672 C2670 1.389 . S
C2672 C2673 1.524 . S
C2672 C2686 1.377 . S
C2673 C2672 1.524 . S
C2673 C2674 1.397 . S
C2673 C2678 1.363 . S
C2674 H2651 0.950 . S
C2674 C2673 1.397 . S
C2674 C2675 1.334 . S
C2675 H2652 0.950 . S
C2675 C2674 1.334 . S
C2675 C2676 1.287 . S
C2676 C2675 1.287 . S
C2676 C2677 1.524 . S
C2676 H2695 0.913 . S
C2677 H2653 0.950 . S
C2677 C2676 1.524 . S
C2677 C2678 1.415 . S
C2678 H2654 0.950 . S
C2678 C2673 1.363 . S
C2678 C2677 1.415 . S
C2679 H2655 0.951 . S
C2679 C2680 1.366 . S
C2679 C2681 1.388 . S
C2680 C2679 1.366 . S
C2680 C2684 1.385 . S
C2681 H2656 0.951 . S
C2681 C2679 1.388 . S
C2681 C2682 1.366 . S
C2682 C2681 1.366 . S
C2682 C2683 1.414 . S
C2682 C2685 1.499 . S
C2683 H2657 0.950 . S
C2683 C2682 1.414 . S
C2683 C2684 1.374 . S
C2684 H2658 0.950 . S
C2684 C2680 1.385 . S
C2684 C2683 1.374 . S
C2685 C2682 1.499 . S
C2685 C2686 1.373 . S
C2685 C2687 1.389 . S
C2686 H2659 0.950 . S
C2686 C2672 1.377 . S
C2686 C2685 1.373 . S
C2687 C2671 1.377 . S
C2687 C2685 1.389 . S
C2687 C2688 1.524 . S
C2688 C2687 1.524 . S
C2688 C2689 1.397 . S
C2688 C2693 1.363 . S
C2689 H2660 0.950 . S
C2689 C2688 1.397 . S
C2689 C2690 1.334 . S
C2690 H2661 0.950 1_655 S
C2690 C2689 1.334 . S
C2690 C2691 1.287 . S
C2691 C2690 1.287 . S
C2691 C2692 1.524 . S
C2691 H2694 0.999 . S
C2692 H2662 0.950 . S
C2692 C2691 1.524 . S
C2692 C2693 1.415 . S
C2693 H2663 0.950 . S
C2693 C2688 1.363 . S
C2693 C2692 1.415 . S
H2694 C2691 0.999 . S
H2695 C2676 0.913 . S
H2696 C2714 0.951 . S
H2697 C2716 0.951 . S
H2698 C2718 0.950 . S
H2699 C2719 0.950 . S
H2700 C2721 0.950 . S
H2701 C2724 0.950 . S
H2702 C2725 0.950 . S
H2703 C2727 0.950 . S
H2704 C2728 0.950 . S
H2705 C2729 0.951 . S
H2706 C2731 0.951 . S
H2707 C2733 0.950 . S
H2708 C2734 0.950 . S
H2709 C2736 0.950 . S
H2710 C2739 0.950 . S
H2711 C2740 0.950 . S
H2712 C2742 0.950 . S
H2713 C2743 0.950 . S
C2714 H2696 0.951 . S
C2714 C2715 1.366 . S
C2714 C2716 1.388 . S
C2715 C2714 1.366 . S
C2715 C2719 1.385 . S
C2716 H2697 0.951 . S
C2716 C2714 1.388 . S
C2716 C2717 1.366 . S
C2717 C2716 1.366 . S
C2717 C2718 1.414 . S
C2717 C2720 1.499 . S
C2718 H2698 0.950 . S
C2718 C2717 1.414 . S
C2718 C2719 1.374 . S
C2719 H2699 0.950 . S
C2719 C2715 1.385 . S
C2719 C2718 1.374 . S
C2720 C2717 1.499 . S
C2720 C2721 1.373 . S
C2720 C2722 1.389 . S
C2721 H2700 0.950 . S
C2721 C2720 1.373 . S
C2721 C2737 1.377 . S
C2722 C2720 1.389 . S
C2722 C2723 1.524 . S
C2722 C2736 1.377 . S
C2723 C2722 1.524 . S
C2723 C2724 1.397 . S
C2723 C2728 1.363 . S
C2724 H2701 0.950 . S
C2724 C2723 1.397 . S
C2724 C2725 1.334 . S
C2725 H2702 0.950 . S
C2725 C2724 1.334 . S
C2725 C2726 1.287 . S
C2726 C2725 1.287 . S
C2726 C2727 1.524 . S
C2726 H2745 0.913 . S
C2727 H2703 0.950 . S
C2727 C2726 1.524 . S
C2727 C2728 1.415 . S
C2728 H2704 0.950 . S
C2728 C2723 1.363 . S
C2728 C2727 1.415 . S
C2729 H2705 0.951 . S
C2729 C2730 1.366 . S
C2729 C2731 1.388 . S
C2730 C2729 1.366 . S
C2730 C2734 1.385 . S
C2731 H2706 0.951 . S
C2731 C2729 1.388 . S
C2731 C2732 1.366 . S
C2732 C2731 1.366 . S
C2732 C2733 1.414 . S
C2732 C2735 1.499 . S
C2733 H2707 0.950 . S
C2733 C2732 1.414 . S
C2733 C2734 1.374 . S
C2734 H2708 0.950 . S
C2734 C2730 1.385 . S
C2734 C2733 1.374 . S
C2735 C2732 1.499 . S
C2735 C2736 1.373 . S
C2735 C2737 1.389 . S
C2736 H2709 0.950 . S
C2736 C2722 1.377 . S
C2736 C2735 1.373 . S
C2737 C2721 1.377 . S
C2737 C2735 1.389 . S
C2737 C2738 1.524 . S
C2738 C2737 1.524 . S
C2738 C2739 1.397 . S
C2738 C2743 1.363 . S
C2739 H2710 0.950 . S
C2739 C2738 1.397 . S
C2739 C2740 1.334 . S
C2740 H2711 0.950 . S
C2740 C2739 1.334 . S
C2740 C2741 1.287 . S
C2741 C2740 1.287 . S
C2741 C2742 1.524 . S
C2741 H2744 0.999 . S
C2742 H2712 0.950 . S
C2742 C2741 1.524 . S
C2742 C2743 1.415 . S
C2743 H2713 0.950 . S
C2743 C2738 1.363 . S
C2743 C2742 1.415 . S
H2744 C2741 0.999 . S
H2745 C2726 0.913 . S
C380 C171 1.681 . S
C365 C9 1.702 . S
C430 C161 2.125 . S
C415 C28 2.089 . S
C480 C162 0.668 . S
C465 C49 0.663 . S
C515 C79 2.036 . S
C530 C184 2.055 . S
C565 C99 2.090 . S
C580 C187 2.124 . S
C630 C170 0.667 . S
C615 C101 0.660 . S
C665 C128 2.036 . S
C680 C160 2.056 . S
C715 C141 1.705 . S
C730 C178 1.684 . S
C780 C191 1.361 . S
C765 C16 1.320 . S
C815 C26 1.020 . S
C830 C240 1.010 . S
C880 C218 1.411 . S
C865 C56 1.374 . S
C930 C232 0.663 . S
C915 C69 0.642 . S
C965 C89 0.644 . S
C980 C193 0.660 . S
C1030 C246 2.065 . S
C1015 C108 2.048 . S
C1065 C126 1.022 . S
C1080 C202 1.020 . S
C1115 C148 2.112 . S
C1130 C223 2.144 . S
C1165 C19 2.112 . S
C1180 C249 2.135 . S
C1215 C96 1.020 . S
C1230 C233 1.015 . S
C1280 C192 1.410 . S
C1265 C106 1.374 . S
C1330 C224 0.661 . S
C1315 C121 0.650 . S
C1365 C146 1.324 . S
C1380 C215 1.365 . S
C1415 C59 2.048 . S
C1430 C222 2.064 . S
C1480 C209 1.018 . S
C1465 C76 1.018 . S
C1515 C21 0.644 . S
C1530 C201 0.655 . S
C1565 C149 1.705 . S
C1580 C264 1.685 . S
C1615 C88 2.090 . S
C1630 C254 2.127 . S
C1680 C255 0.668 . S
C1665 C109 0.663 . S
C1730 C277 2.056 . S
C1715 C139 2.039 . S
C1765 C39 2.089 . S
C1780 C280 2.121 . S
C1830 C263 0.669 . S
C1815 C41 0.659 . S
C1865 C68 2.036 . S
C1880 C253 2.053 . S
C1915 C1 1.705 . S
C1930 C271 1.678 . S
C1965 C156 1.324 . S
C1980 C284 1.362 . S
C2030 C333 1.012 . S
C2015 C86 1.020 . S
C2065 C116 1.374 . S
C2080 C311 1.410 . S
C2115 C129 0.647 . S
C2130 C325 0.661 . S
C2180 C286 0.657 . S
C2165 C29 0.646 . S
C2215 C48 2.048 . S
C2230 C339 2.066 . S
C2280 C295 1.019 . S
C2265 C66 1.019 . S
C2330 C316 2.140 . S
C2315 C8 2.109 . S
C2380 C342 2.140 . S
C2365 C159 2.113 . S
C2415 C36 1.020 . S
C2430 C326 1.011 . S
C2465 C46 1.375 . S
C2480 C285 1.412 . S
C2530 C317 0.661 . S
C2515 C61 0.648 . S
C2565 C6 1.324 . S
C2580 C308 1.359 . S
C2615 C119 2.049 . S
C2630 C315 2.063 . S
C2680 C302 1.018 . S
C2665 C136 1.023 . S
C2730 C294 0.660 . S
C2715 C81 0.645 . S
