# Generated by pormake.
# Topology bcu-b, (8,8)-cn, num edge types: 1
# Building blocks:
#     Node 0, Type 0, BuildingBlock: TAGTUT_clean_sbu_1, # of connection points: 8
#     Node 1, Type 1, BuildingBlock: TAGTUT_clean_sbu_1, # of connection points: 8
#     Edge 2, Type (0, 1), BuildingBlock: XUDNAN_clean_linker_2, # of connection points: 2
#     Edge 3, Type (0, 1), BuildingBlock: XUDNAN_clean_linker_2, # of connection points: 2
#     Edge 4, Type (0, 1), BuildingBlock: XUDNAN_clean_linker_2, # of connection points: 2
#     Edge 5, Type (0, 1), BuildingBlock: XUDNAN_clean_linker_2, # of connection points: 2
#     Edge 6, Type (0, 1), BuildingBlock: XUDNAN_clean_linker_2, # of connection points: 2
#     Edge 7, Type (0, 1), BuildingBlock: XUDNAN_clean_linker_2, # of connection points: 2
#     Edge 8, Type (0, 1), BuildingBlock: XUDNAN_clean_linker_2, # of connection points: 2
#     Edge 9, Type (0, 1), BuildingBlock: XUDNAN_clean_linker_2, # of connection points: 2
# Relax obj value: 0.017
# Max RMSD: 0.077
# Mean RMSD: 0.077
data_MOF--net-bcu-b--node1-TAGTUT_clean_sbu_1--node2-TAGTUT_clean_sbu_1--edge1-XUDNAN_clean_linker_2
_symmetry_space_group_name_H-M    P1
_symmetry_Int_Tables_number       1
_symmetry_cell_setting            triclinic
loop_
_symmetry_equiv_pos_as_xyz
'x, y, z'
_cell_length_a     19.742546
_cell_length_b     18.400386
_cell_length_c     21.870204
_cell_angle_alpha  91.563688
_cell_angle_beta   91.978465
_cell_angle_gamma 107.73778
loop_
_atom_site_label
_atom_site_type_symbol
_atom_site_fract_x
_atom_site_fract_y
_atom_site_fract_z
_atom_type_partial_charge
C0 C 0.90372 0.19559 0.06943 0.0
C1 C 0.92513 0.16891 0.87811 0.0
C2 C 0.88025 0.86782 0.91674 0.0
Mg3 Mg 0.02453 0.17699 -0.01021 0.0
O4 O 0.97942 0.07621 0.01125 0.0
Mg5 Mg 0.87718 0.03207 -0.01642 0.0
Mg6 Mg 0.01858 -2e-05 -0.02691 0.0
O7 O 0.05911 0.9248 0.93328 0.0
Mg8 Mg 0.02367 0.81881 0.94586 0.0
Mg9 Mg 0.16256 0.97651 0.95038 0.0
C10 C 0.16175 0.12997 0.02898 0.0
C11 C 0.11326 0.08884 0.86246 0.0
O12 O 0.86218 0.12988 0.0492 0.0
O13 O 0.9675 0.22352 0.05227 0.0
O14 O 0.8821 0.11142 0.90224 0.0
O15 O 0.98822 0.19947 0.90071 0.0
O16 O 0.13351 0.18262 0.01659 0.0
O17 O 0.12807 0.05891 0.01818 0.0
C18 C 0.91678 0.92189 0.08278 0.0
O19 O 0.97598 0.92589 0.05786 0.0
O20 O 0.87447 0.95677 0.0622 0.0
O21 O 0.1775 0.89125 0.87606 0.0
O22 O 0.0788 0.78894 0.86967 0.0
O23 O 0.16717 0.89482 0.02332 0.0
C24 C 0.13961 0.82721 0.85063 0.0
O25 O 0.07429 0.79156 0.03063 0.0
O26 O 0.91194 0.81674 0.92614 0.0
C27 C 0.13668 0.83307 0.04918 0.0
O28 O 0.91207 0.93972 0.92672 0.0
O29 O 0.05582 0.07786 0.89105 0.0
O30 O 0.15928 0.05627 0.87709 0.0
C31 C 0.30915 0.62736 0.49627 0.0
C32 C 0.4073 0.60932 0.32914 0.0
C33 C 0.42498 0.34076 0.40619 0.0
Mg34 Mg 0.46579 0.6542 0.45941 0.0
O35 O 0.44079 0.55419 0.48465 0.0
Mg36 Mg 0.35717 0.47935 0.43926 0.0
Mg37 Mg 0.51485 0.50319 0.47377 0.0
O38 O 0.58836 0.45174 0.46259 0.0
Mg39 Mg 0.57017 0.34898 0.48143 0.0
Mg40 Mg 0.67408 0.52761 0.50217 0.0
C41 C 0.60543 0.66439 0.54275 0.0
C42 C 0.63158 0.6066 0.38299 0.0
O43 O 0.29213 0.55592 0.48006 0.0
O44 O 0.37178 0.67381 0.49126 0.0
O45 O 0.36718 0.54777 0.35046 0.0
O46 O 0.45836 0.65469 0.36177 0.0
O47 O 0.56507 0.69694 0.51435 0.0
O48 O 0.59464 0.59176 0.53786 0.0
C49 C 0.39558 0.40446 0.563 0.0
O50 O 0.46264 0.43026 0.55456 0.0
O51 O 0.34868 0.41558 0.52596 0.0
O52 O 0.73698 0.4552 0.45315 0.0
O53 O 0.65923 0.33789 0.43394 0.0
O54 O 0.67022 0.45654 0.58738 0.0
C55 C 0.72038 0.38716 0.42864 0.0
O56 O 0.59426 0.33888 0.57768 0.0
O57 O 0.46624 0.30759 0.43265 0.0
C58 C 0.64157 0.39091 0.60895 0.0
O59 O 0.43695 0.41359 0.41043 0.0
O60 O 0.56519 0.57945 0.39325 0.0
O61 O 0.67959 0.5947 0.41795 0.0
H62 H 0.23783 0.27284 0.07457 0.0
H63 H 0.21694 0.03229 0.09159 0.0
H64 H 0.27931 0.06108 0.19274 0.0
H65 H 0.4152 0.34858 0.16168 0.0
H66 H 0.38945 0.42649 0.19478 0.0
H67 H 0.35568 0.38806 0.11926 0.0
H68 H 0.22767 0.36672 0.15526 0.0
H69 H 0.2609 0.40132 0.2316 0.0
H70 H 0.19769 0.30746 0.21936 0.0
H71 H 0.32209 0.11122 0.29853 0.0
H72 H 0.37384 0.18546 0.39339 0.0
H73 H 0.36652 0.39347 0.30781 0.0
C74 C 0.24882 0.2265 0.09831 0.0
C75 C 0.22138 0.15004 0.07538 0.0
C76 C 0.23712 0.09126 0.10807 0.0
C77 C 0.27184 0.10692 0.16601 0.0
C78 C 0.29156 0.18173 0.18982 0.0
C79 C 0.28314 0.24111 0.15622 0.0
C80 C 0.3062 0.31585 0.19355 0.0
C81 C 0.37048 0.37311 0.16568 0.0
C82 C 0.2444 0.34975 0.20031 0.0
C83 C 0.32672 0.28855 0.25397 0.0
C84 C 0.31745 0.21099 0.25084 0.0
C85 C 0.33106 0.17227 0.30123 0.0
C86 C 0.35961 0.21486 0.35511 0.0
C87 C 0.37477 0.29537 0.35788 0.0
C88 C 0.35518 0.33204 0.3074 0.0
H89 H 0.79626 0.14232 0.14936 0.0
H90 H 0.96375 0.34587 0.10314 0.0
H91 H 0.94191 0.41363 0.19524 0.0
H92 H 0.67779 0.24253 0.20902 0.0
H93 H 0.6479 0.17587 0.26858 0.0
H94 H 0.67597 0.14451 0.19782 0.0
H95 H 0.7669 0.0953 0.25908 0.0
H96 H 0.74021 0.12823 0.32993 0.0
H97 H 0.83233 0.16037 0.31051 0.0
H98 H 0.90452 0.4589 0.29355 0.0
H99 H 0.84316 0.48315 0.38474 0.0
H100 H 0.70173 0.24991 0.3679 0.0
C101 C 0.82735 0.20154 0.15797 0.0
C102 C 0.8817 0.23862 0.11899 0.0
C103 C 0.92187 0.31602 0.13239 0.0
C104 C 0.91022 0.35504 0.1848 0.0
C105 C 0.85813 0.31604 0.22346 0.0
C106 C 0.81657 0.24148 0.21032 0.0
C107 C 0.76348 0.21328 0.25923 0.0
C108 C 0.68675 0.19288 0.23204 0.0
C109 C 0.77656 0.14527 0.29159 0.0
C110 C 0.7817 0.2837 0.30162 0.0
C111 C 0.83679 0.34214 0.28044 0.0
C112 C 0.86135 0.41355 0.3108 0.0
C113 C 0.82652 0.4266 0.36289 0.0
C114 C 0.76761 0.36855 0.38372 0.0
C115 C 0.74681 0.29552 0.3536 0.0
H116 H 0.87208 0.76736 0.10244 0.0
H117 H 0.90625 0.991 0.18913 0.0
H118 H 0.82736 0.93315 0.27111 0.0
H119 H 0.69437 0.6915 0.12906 0.0
H120 H 0.69452 0.59689 0.1482 0.0
H121 H 0.76063 0.65265 0.09922 0.0
H122 H 0.86244 0.63974 0.17187 0.0
H123 H 0.79664 0.58096 0.2196 0.0
H124 H 0.86302 0.66477 0.2522 0.0
H125 H 0.73033 0.85568 0.33285 0.0
H126 H 0.64739 0.75661 0.39163 0.0
H127 H 0.68168 0.58056 0.27228 0.0
C128 C 0.86597 0.80329 0.14059 0.0
C129 C 0.8962 0.88346 0.14033 0.0
C130 C 0.88476 0.92932 0.18952 0.0
C131 C 0.83912 0.89713 0.23569 0.0
C132 C 0.80626 0.81864 0.23266 0.0
C133 C 0.82137 0.77164 0.18816 0.0
C134 C 0.77848 0.68884 0.19634 0.0
C135 C 0.72909 0.65555 0.13982 0.0
C136 C 0.82809 0.64074 0.2109 0.0
C137 C 0.73596 0.69739 0.25122 0.0
C138 C 0.75183 0.77307 0.2704 0.0
C139 C 0.71802 0.79605 0.31885 0.0
C140 C 0.66999 0.73967 0.3512 0.0
C141 C 0.65707 0.66157 0.33536 0.0
C142 C 0.68922 0.64017 0.28398 0.0
H143 H 0.11088 0.69269 0.10722 0.0
H144 H 0.26812 0.91592 0.09339 0.0
H145 H 0.35658 0.87198 0.14804 0.0
H146 H 0.17046 0.67104 0.26486 0.0
H147 H 0.15358 0.56934 0.25543 0.0
H148 H 0.10159 0.61584 0.21099 0.0
H149 H 0.13682 0.55855 0.11199 0.0
H150 H 0.19074 0.51389 0.15626 0.0
H151 H 0.22967 0.57737 0.09684 0.0
H152 H 0.43209 0.80589 0.19662 0.0
H153 H 0.48222 0.73269 0.26756 0.0
H154 H 0.27779 0.55505 0.26411 0.0
C155 C 0.16361 0.7324 0.11638 0.0
C156 C 0.18229 0.80731 0.09405 0.0
C157 C 0.25192 0.85772 0.10828 0.0
C158 C 0.30338 0.83326 0.13906 0.0
C159 C 0.28471 0.75858 0.15744 0.0
C160 C 0.21608 0.70953 0.14923 0.0
C161 C 0.20995 0.63491 0.1804 0.0
C162 C 0.1557 0.62205 0.23093 0.0
C163 C 0.19064 0.56718 0.13355 0.0
C164 C 0.28568 0.6508 0.20711 0.0
C165 C 0.32801 0.72167 0.19121 0.0
C166 C 0.39949 0.7505 0.21018 0.0
C167 C 0.42766 0.70816 0.25023 0.0
C168 C 0.38397 0.63853 0.27218 0.0
C169 C 0.31285 0.60781 0.24796 0.0
H170 H 0.13359 0.68369 0.80493 0.0
H171 H 0.19032 0.92246 0.76009 0.0
H172 H 0.21611 0.88946 0.65546 0.0
H173 H 0.27546 0.64755 0.72734 0.0
H174 H 0.22591 0.55144 0.70182 0.0
H175 H 0.20243 0.59238 0.77042 0.0
H176 H 0.07331 0.56323 0.72529 0.0
H177 H 0.09719 0.5238 0.65587 0.0
H178 H 0.05799 0.60027 0.65238 0.0
H179 H 0.24162 0.83446 0.55909 0.0
H180 H 0.28942 0.76489 0.48259 0.0
H181 H 0.22382 0.56135 0.58848 0.0
C182 C 0.1511 0.72861 0.77274 0.0
C183 C 0.16008 0.80556 0.79032 0.0
C184 C 0.1839 0.86326 0.74757 0.0
C185 C 0.19757 0.84494 0.68778 0.0
C186 C 0.18792 0.76868 0.67153 0.0
C187 C 0.1669 0.71148 0.71295 0.0
C188 C 0.1698 0.63581 0.68554 0.0
C189 C 0.22149 0.60503 0.72351 0.0
C190 C 0.09511 0.57733 0.67941 0.0
C191 C 0.1979 0.66024 0.6231 0.0
C192 C 0.20553 0.73667 0.61554 0.0
C193 C 0.23522 0.7744 0.56401 0.0
C194 C 0.26186 0.73436 0.52064 0.0
C195 C 0.25935 0.65771 0.52938 0.0
C196 C 0.22419 0.61915 0.57983 0.0
H197 H 0.15221 0.06814 0.74798 0.0
H198 H 0.1301 0.24017 0.8781 0.0
H199 H 0.20701 0.34139 0.81676 0.0
H200 H 0.32833 0.14682 0.72449 0.0
H201 H 0.32508 0.12462 0.64345 0.0
H202 H 0.25915 0.0659 0.69096 0.0
H203 H 0.15708 0.08838 0.62415 0.0
H204 H 0.22237 0.14406 0.57447 0.0
H205 H 0.15919 0.18459 0.60799 0.0
H206 H 0.30038 0.421 0.74967 0.0
H207 H 0.38185 0.47707 0.668 0.0
H208 H 0.34107 0.2528 0.58097 0.0
C209 C 0.16074 0.12742 0.76166 0.0
C210 C 0.13401 0.147 0.81659 0.0
C211 C 0.14807 0.22463 0.83484 0.0
C212 C 0.19279 0.2822 0.80092 0.0
C213 C 0.22203 0.26065 0.74885 0.0
C214 C 0.20458 0.18531 0.72809 0.0
C215 C 0.24465 0.17683 0.67191 0.0
C216 C 0.29209 0.1255 0.68345 0.0
C217 C 0.19273 0.14673 0.61633 0.0
C218 C 0.2889 0.25896 0.66515 0.0
C219 C 0.27565 0.30632 0.71036 0.0
C220 C 0.31089 0.38454 0.71394 0.0
C221 C 0.35798 0.41567 0.66817 0.0
C222 C 0.36901 0.3686 0.61977 0.0
C223 C 0.33516 0.28926 0.61884 0.0
H224 H 0.8037 0.1157 0.80247 0.0
H225 H 0.97779 0.31998 0.85495 0.0
H226 H 0.91534 0.39829 0.80132 0.0
H227 H 0.77253 0.17954 0.6486 0.0
H228 H 0.6776 0.13503 0.64917 0.0
H229 H 0.73668 0.095 0.69141 0.0
H230 H 0.66922 0.1035 0.78946 0.0
H231 H 0.61133 0.14585 0.74794 0.0
H232 H 0.66171 0.19449 0.81537 0.0
H233 H 0.82929 0.45608 0.75311 0.0
H234 H 0.74181 0.48858 0.68561 0.0
H235 H 0.62723 0.24767 0.65424 0.0
C236 C 0.82933 0.17673 0.80151 0.0
C237 C 0.89562 0.2116 0.8333 0.0
C238 C 0.92739 0.29166 0.8308 0.0
C239 C 0.89183 0.33691 0.80116 0.0
C240 C 0.82515 0.30125 0.77306 0.0
C241 C 0.79529 0.22286 0.77078 0.0
C242 C 0.7247 0.19925 0.73408 0.0
C243 C 0.72811 0.14927 0.67744 0.0
C244 C 0.66311 0.15834 0.77413 0.0
C245 C 0.71968 0.2768 0.71638 0.0
C246 C 0.77736 0.33468 0.74103 0.0
C247 C 0.78453 0.41122 0.73259 0.0
C248 C 0.73403 0.42915 0.69448 0.0
C249 C 0.67797 0.37093 0.6637 0.0
C250 C 0.66914 0.2937 0.67704 0.0
H251 H 0.81249 0.72529 0.86649 0.0
H252 H 0.80707 0.95967 0.86803 0.0
H253 H 0.73579 0.93195 0.77079 0.0
H254 H 0.84735 0.71765 0.71908 0.0
H255 H 0.79527 0.62104 0.69873 0.0
H256 H 0.82905 0.64646 0.77642 0.0
H257 H 0.70496 0.60169 0.82098 0.0
H258 H 0.66869 0.56727 0.7452 0.0
H259 H 0.63369 0.63206 0.78775 0.0
H260 H 0.6872 0.88659 0.66492 0.0
H261 H 0.63764 0.81789 0.5676 0.0
H262 H 0.67651 0.61319 0.63449 0.0
C263 C 0.79371 0.7701 0.84812 0.0
C264 C 0.81631 0.84504 0.87475 0.0
C265 C 0.7908 0.9019 0.84857 0.0
C266 C 0.75074 0.88686 0.79295 0.0
C267 C 0.73587 0.81448 0.76487 0.0
C268 C 0.75448 0.75626 0.79245 0.0
C269 C 0.73804 0.68578 0.75029 0.0
C270 C 0.80646 0.66658 0.73534 0.0
C271 C 0.68305 0.61768 0.77767 0.0
C272 C 0.70732 0.71348 0.69459 0.0
C273 C 0.70741 0.78814 0.70373 0.0
C274 C 0.68514 0.82751 0.65779 0.0
C275 C 0.65779 0.78802 0.60235 0.0
C276 C 0.6521 0.70958 0.59356 0.0
C277 C 0.67975 0.67288 0.63965 0.0
loop_
_geom_bond_atom_site_label_1
_geom_bond_atom_site_label_2
_geom_bond_distance
_geom_bond_site_symmetry_2
_ccdc_geom_bond_type
C0 O12 1.241 . S
C0 O13 1.280 . S
C1 O14 1.277 . S
C1 O15 1.245 . S
C2 O26 1.247 . S
C2 O28 1.289 . S
Mg3 O4 1.926 . S
Mg3 O13 1.984 . S
Mg3 O15 1.988 1_554 S
Mg3 O16 2.061 1_655 S
O4 Mg3 1.926 . S
O4 Mg5 1.986 1_554 S
O4 Mg6 1.917 1_655 S
Mg5 O4 1.986 1_556 S
Mg5 O12 2.042 1_556 S
Mg5 O14 2.041 . S
Mg5 O20 2.038 1_546 S
Mg5 O28 2.238 1_545 S
Mg6 O4 1.917 1_455 S
Mg6 O7 1.917 1_544 S
Mg6 O17 2.106 . S
Mg6 O19 2.079 1_445 S
Mg6 O28 2.106 1_444 S
Mg6 O29 2.079 1_554 S
O7 Mg6 1.917 1_566 S
O7 Mg8 1.926 . S
O7 Mg9 1.986 1_556 S
Mg8 O7 1.926 . S
Mg8 O22 1.984 . S
Mg8 O25 1.988 1_556 S
Mg8 O26 2.061 1_455 S
Mg9 O7 1.986 1_554 S
Mg9 O17 2.238 1_565 S
Mg9 O21 2.042 1_554 S
Mg9 O23 2.041 . S
Mg9 O30 2.038 1_564 S
C10 O16 1.247 . S
C10 O17 1.289 . S
C11 O29 1.245 . S
C11 O30 1.274 . S
O12 C0 1.241 . S
O12 Mg5 2.042 1_554 S
O13 C0 1.280 . S
O13 Mg3 1.984 . S
O14 C1 1.277 . S
O14 Mg5 2.041 . S
O15 C1 1.245 . S
O15 Mg3 1.988 1_556 S
O16 Mg3 2.061 1_455 S
O16 C10 1.247 . S
O17 Mg6 2.106 . S
O17 Mg9 2.238 1_545 S
O17 C10 1.289 . S
C18 O19 1.245 . S
C18 O20 1.274 . S
O19 Mg6 2.079 1_665 S
O19 C18 1.245 . S
O20 Mg5 2.038 1_564 S
O20 C18 1.274 . S
O21 Mg9 2.042 1_556 S
O21 C24 1.241 . S
O22 Mg8 1.984 . S
O22 C24 1.280 . S
O23 Mg9 2.041 . S
O23 C27 1.277 . S
C24 O21 1.241 . S
C24 O22 1.280 . S
O25 Mg8 1.988 1_554 S
O25 C27 1.245 . S
O26 C2 1.247 . S
O26 Mg8 2.061 1_655 S
C27 O23 1.277 . S
C27 O25 1.245 . S
O28 C2 1.289 . S
O28 Mg5 2.238 1_565 S
O28 Mg6 2.106 1_666 S
O29 Mg6 2.079 1_556 S
O29 C11 1.245 . S
O30 Mg9 2.038 1_546 S
O30 C11 1.274 . S
C31 O43 1.241 . S
C31 O44 1.280 . S
C32 O45 1.277 . S
C32 O46 1.245 . S
C33 O57 1.247 . S
C33 O59 1.289 . S
Mg34 O35 1.926 . S
Mg34 O44 1.984 . S
Mg34 O46 1.988 . S
Mg34 O47 2.061 . S
O35 Mg34 1.926 . S
O35 Mg36 1.986 . S
O35 Mg37 1.917 . S
Mg36 O35 1.986 . S
Mg36 O43 2.042 . S
Mg36 O45 2.041 . S
Mg36 O51 2.038 . S
Mg36 O59 2.238 . S
Mg37 O35 1.917 . S
Mg37 O38 1.917 . S
Mg37 O48 2.106 . S
Mg37 O50 2.079 . S
Mg37 O59 2.106 . S
Mg37 O60 2.079 . S
O38 Mg37 1.917 . S
O38 Mg39 1.926 . S
O38 Mg40 1.986 . S
Mg39 O38 1.926 . S
Mg39 O53 1.984 . S
Mg39 O56 1.988 . S
Mg39 O57 2.061 . S
Mg40 O38 1.986 . S
Mg40 O48 2.238 . S
Mg40 O52 2.042 . S
Mg40 O54 2.041 . S
Mg40 O61 2.038 . S
C41 O47 1.247 . S
C41 O48 1.289 . S
C42 O60 1.245 . S
C42 O61 1.274 . S
O43 C31 1.241 . S
O43 Mg36 2.042 . S
O44 C31 1.280 . S
O44 Mg34 1.984 . S
O45 C32 1.277 . S
O45 Mg36 2.041 . S
O46 C32 1.245 . S
O46 Mg34 1.988 . S
O47 Mg34 2.061 . S
O47 C41 1.247 . S
O48 Mg37 2.106 . S
O48 Mg40 2.238 . S
O48 C41 1.289 . S
C49 O50 1.245 . S
C49 O51 1.274 . S
O50 Mg37 2.079 . S
O50 C49 1.245 . S
O51 Mg36 2.038 . S
O51 C49 1.274 . S
O52 Mg40 2.042 . S
O52 C55 1.241 . S
O53 Mg39 1.984 . S
O53 C55 1.280 . S
O54 Mg40 2.041 . S
O54 C58 1.277 . S
C55 O52 1.241 . S
C55 O53 1.280 . S
O56 Mg39 1.988 . S
O56 C58 1.245 . S
O57 C33 1.247 . S
O57 Mg39 2.061 . S
C58 O54 1.277 . S
C58 O56 1.245 . S
O59 C33 1.289 . S
O59 Mg36 2.238 . S
O59 Mg37 2.106 . S
O60 Mg37 2.079 . S
O60 C42 1.245 . S
O61 Mg40 2.038 . S
O61 C42 1.274 . S
H62 C74 0.930 . S
H63 C76 0.930 . S
H64 C77 0.930 . S
H65 C81 0.959 . S
H66 C81 0.959 . S
H67 C81 0.961 . S
H68 C82 0.960 . S
H69 C82 0.961 . S
H70 C82 0.959 . S
H71 C85 0.929 . S
H72 C86 0.931 . S
H73 C88 0.930 . S
C74 H62 0.930 . S
C74 C75 1.399 . S
C74 C79 1.399 . S
C75 C74 1.399 . S
C75 C76 1.376 . S
C76 H63 0.930 . S
C76 C75 1.376 . S
C76 C77 1.388 . S
C77 H64 0.930 . S
C77 C76 1.388 . S
C77 C78 1.390 . S
C78 C77 1.390 . S
C78 C79 1.394 . S
C78 C84 1.465 . S
C79 C74 1.399 . S
C79 C78 1.394 . S
C79 C80 1.516 . S
C80 C79 1.516 . S
C80 C81 1.502 . S
C80 C82 1.561 . S
C80 C83 1.526 . S
C81 H65 0.959 . S
C81 H66 0.959 . S
C81 H67 0.961 . S
C81 C80 1.502 . S
C82 H68 0.960 . S
C82 H69 0.961 . S
C82 H70 0.959 . S
C82 C80 1.561 . S
C83 C80 1.526 . S
C83 C84 1.396 . S
C83 C88 1.390 . S
C84 C78 1.465 . S
C84 C83 1.396 . S
C84 C85 1.399 . S
C85 H71 0.929 . S
C85 C84 1.399 . S
C85 C86 1.385 . S
C86 H72 0.931 . S
C86 C85 1.385 . S
C86 C87 1.389 . S
C87 C86 1.389 . S
C87 C88 1.387 . S
C88 H73 0.930 . S
C88 C83 1.390 . S
C88 C87 1.387 . S
H89 C101 0.930 . S
H90 C103 0.930 . S
H91 C104 0.930 . S
H92 C108 0.959 . S
H93 C108 0.959 . S
H94 C108 0.961 . S
H95 C109 0.960 . S
H96 C109 0.961 . S
H97 C109 0.959 . S
H98 C112 0.929 . S
H99 C113 0.931 . S
H100 C115 0.930 . S
C101 H89 0.930 . S
C101 C102 1.399 . S
C101 C106 1.399 . S
C102 C101 1.399 . S
C102 C103 1.376 . S
C103 H90 0.930 . S
C103 C102 1.376 . S
C103 C104 1.388 . S
C104 H91 0.930 . S
C104 C103 1.388 . S
C104 C105 1.390 . S
C105 C104 1.390 . S
C105 C106 1.394 . S
C105 C111 1.465 . S
C106 C101 1.399 . S
C106 C105 1.394 . S
C106 C107 1.516 . S
C107 C106 1.516 . S
C107 C108 1.502 . S
C107 C109 1.561 . S
C107 C110 1.526 . S
C108 H92 0.959 . S
C108 H93 0.959 . S
C108 H94 0.961 . S
C108 C107 1.502 . S
C109 H95 0.960 . S
C109 H96 0.961 . S
C109 H97 0.959 . S
C109 C107 1.561 . S
C110 C107 1.526 . S
C110 C111 1.396 . S
C110 C115 1.390 . S
C111 C105 1.465 . S
C111 C110 1.396 . S
C111 C112 1.399 . S
C112 H98 0.929 . S
C112 C111 1.399 . S
C112 C113 1.385 . S
C113 H99 0.931 . S
C113 C112 1.385 . S
C113 C114 1.389 . S
C114 C113 1.389 . S
C114 C115 1.387 . S
C115 H100 0.930 . S
C115 C110 1.390 . S
C115 C114 1.387 . S
H116 C128 0.930 . S
H117 C130 0.930 . S
H118 C131 0.930 . S
H119 C135 0.959 . S
H120 C135 0.959 . S
H121 C135 0.961 . S
H122 C136 0.960 . S
H123 C136 0.961 . S
H124 C136 0.959 . S
H125 C139 0.929 . S
H126 C140 0.931 . S
H127 C142 0.930 . S
C128 H116 0.930 . S
C128 C129 1.399 . S
C128 C133 1.399 . S
C129 C128 1.399 . S
C129 C130 1.376 . S
C130 H117 0.930 . S
C130 C129 1.376 . S
C130 C131 1.388 . S
C131 H118 0.930 . S
C131 C130 1.388 . S
C131 C132 1.390 . S
C132 C131 1.390 . S
C132 C133 1.394 . S
C132 C138 1.465 . S
C133 C128 1.399 . S
C133 C132 1.394 . S
C133 C134 1.516 . S
C134 C133 1.516 . S
C134 C135 1.502 . S
C134 C136 1.561 . S
C134 C137 1.526 . S
C135 H119 0.959 . S
C135 H120 0.959 . S
C135 H121 0.961 . S
C135 C134 1.502 . S
C136 H122 0.960 . S
C136 H123 0.961 . S
C136 H124 0.959 . S
C136 C134 1.561 . S
C137 C134 1.526 . S
C137 C138 1.396 . S
C137 C142 1.390 . S
C138 C132 1.465 . S
C138 C137 1.396 . S
C138 C139 1.399 . S
C139 H125 0.929 . S
C139 C138 1.399 . S
C139 C140 1.385 . S
C140 H126 0.931 . S
C140 C139 1.385 . S
C140 C141 1.389 . S
C141 C140 1.389 . S
C141 C142 1.387 . S
C142 H127 0.930 . S
C142 C137 1.390 . S
C142 C141 1.387 . S
H143 C155 0.930 . S
H144 C157 0.930 . S
H145 C158 0.930 . S
H146 C162 0.959 . S
H147 C162 0.959 . S
H148 C162 0.961 . S
H149 C163 0.960 . S
H150 C163 0.961 . S
H151 C163 0.959 . S
H152 C166 0.929 . S
H153 C167 0.931 . S
H154 C169 0.930 . S
C155 H143 0.930 . S
C155 C156 1.399 . S
C155 C160 1.399 . S
C156 C155 1.399 . S
C156 C157 1.376 . S
C157 H144 0.930 . S
C157 C156 1.376 . S
C157 C158 1.388 . S
C158 H145 0.930 . S
C158 C157 1.388 . S
C158 C159 1.390 . S
C159 C158 1.390 . S
C159 C160 1.394 . S
C159 C165 1.465 . S
C160 C155 1.399 . S
C160 C159 1.394 . S
C160 C161 1.516 . S
C161 C160 1.516 . S
C161 C162 1.502 . S
C161 C163 1.561 . S
C161 C164 1.526 . S
C162 H146 0.959 . S
C162 H147 0.959 . S
C162 H148 0.961 . S
C162 C161 1.502 . S
C163 H149 0.960 . S
C163 H150 0.961 . S
C163 H151 0.959 . S
C163 C161 1.561 . S
C164 C161 1.526 . S
C164 C165 1.396 . S
C164 C169 1.390 . S
C165 C159 1.465 . S
C165 C164 1.396 . S
C165 C166 1.399 . S
C166 H152 0.929 . S
C166 C165 1.399 . S
C166 C167 1.385 . S
C167 H153 0.931 . S
C167 C166 1.385 . S
C167 C168 1.389 . S
C168 C167 1.389 . S
C168 C169 1.387 . S
C169 H154 0.930 . S
C169 C164 1.390 . S
C169 C168 1.387 . S
H170 C182 0.930 . S
H171 C184 0.930 . S
H172 C185 0.930 . S
H173 C189 0.959 . S
H174 C189 0.959 . S
H175 C189 0.961 . S
H176 C190 0.960 . S
H177 C190 0.961 . S
H178 C190 0.959 . S
H179 C193 0.929 . S
H180 C194 0.931 . S
H181 C196 0.930 . S
C182 H170 0.930 . S
C182 C183 1.399 . S
C182 C187 1.399 . S
C183 C182 1.399 . S
C183 C184 1.376 . S
C184 H171 0.930 . S
C184 C183 1.376 . S
C184 C185 1.388 . S
C185 H172 0.930 . S
C185 C184 1.388 . S
C185 C186 1.390 . S
C186 C185 1.390 . S
C186 C187 1.394 . S
C186 C192 1.465 . S
C187 C182 1.399 . S
C187 C186 1.394 . S
C187 C188 1.516 . S
C188 C187 1.516 . S
C188 C189 1.502 . S
C188 C190 1.561 . S
C188 C191 1.526 . S
C189 H173 0.959 . S
C189 H174 0.959 . S
C189 H175 0.961 . S
C189 C188 1.502 . S
C190 H176 0.960 . S
C190 H177 0.961 . S
C190 H178 0.959 . S
C190 C188 1.561 . S
C191 C188 1.526 . S
C191 C192 1.396 . S
C191 C196 1.390 . S
C192 C186 1.465 . S
C192 C191 1.396 . S
C192 C193 1.399 . S
C193 H179 0.929 . S
C193 C192 1.399 . S
C193 C194 1.385 . S
C194 H180 0.931 . S
C194 C193 1.385 . S
C194 C195 1.389 . S
C195 C194 1.389 . S
C195 C196 1.387 . S
C196 H181 0.930 . S
C196 C191 1.390 . S
C196 C195 1.387 . S
H197 C209 0.930 . S
H198 C211 0.930 . S
H199 C212 0.930 . S
H200 C216 0.959 . S
H201 C216 0.959 . S
H202 C216 0.961 . S
H203 C217 0.960 . S
H204 C217 0.961 . S
H205 C217 0.959 . S
H206 C220 0.929 . S
H207 C221 0.931 . S
H208 C223 0.930 . S
C209 H197 0.930 . S
C209 C210 1.399 . S
C209 C214 1.399 . S
C210 C209 1.399 . S
C210 C211 1.376 . S
C211 H198 0.930 . S
C211 C210 1.376 . S
C211 C212 1.388 . S
C212 H199 0.930 . S
C212 C211 1.388 . S
C212 C213 1.390 . S
C213 C212 1.390 . S
C213 C214 1.394 . S
C213 C219 1.465 . S
C214 C209 1.399 . S
C214 C213 1.394 . S
C214 C215 1.516 . S
C215 C214 1.516 . S
C215 C216 1.502 . S
C215 C217 1.561 . S
C215 C218 1.526 . S
C216 H200 0.959 . S
C216 H201 0.959 . S
C216 H202 0.961 . S
C216 C215 1.502 . S
C217 H203 0.960 . S
C217 H204 0.961 . S
C217 H205 0.959 . S
C217 C215 1.561 . S
C218 C215 1.526 . S
C218 C219 1.396 . S
C218 C223 1.390 . S
C219 C213 1.465 . S
C219 C218 1.396 . S
C219 C220 1.399 . S
C220 H206 0.929 . S
C220 C219 1.399 . S
C220 C221 1.385 . S
C221 H207 0.931 . S
C221 C220 1.385 . S
C221 C222 1.389 . S
C222 C221 1.389 . S
C222 C223 1.387 . S
C223 H208 0.930 . S
C223 C218 1.390 . S
C223 C222 1.387 . S
H224 C236 0.930 . S
H225 C238 0.930 . S
H226 C239 0.930 . S
H227 C243 0.959 . S
H228 C243 0.959 . S
H229 C243 0.961 . S
H230 C244 0.960 . S
H231 C244 0.961 . S
H232 C244 0.959 . S
H233 C247 0.929 . S
H234 C248 0.931 . S
H235 C250 0.930 . S
C236 H224 0.930 . S
C236 C237 1.399 . S
C236 C241 1.399 . S
C237 C236 1.399 . S
C237 C238 1.376 . S
C238 H225 0.930 . S
C238 C237 1.376 . S
C238 C239 1.388 . S
C239 H226 0.930 . S
C239 C238 1.388 . S
C239 C240 1.390 . S
C240 C239 1.390 . S
C240 C241 1.394 . S
C240 C246 1.465 . S
C241 C236 1.399 . S
C241 C240 1.394 . S
C241 C242 1.516 . S
C242 C241 1.516 . S
C242 C243 1.502 . S
C242 C244 1.561 . S
C242 C245 1.526 . S
C243 H227 0.959 . S
C243 H228 0.959 . S
C243 H229 0.961 . S
C243 C242 1.502 . S
C244 H230 0.960 . S
C244 H231 0.961 . S
C244 H232 0.959 . S
C244 C242 1.561 . S
C245 C242 1.526 . S
C245 C246 1.396 . S
C245 C250 1.390 . S
C246 C240 1.465 . S
C246 C245 1.396 . S
C246 C247 1.399 . S
C247 H233 0.929 . S
C247 C246 1.399 . S
C247 C248 1.385 . S
C248 H234 0.931 . S
C248 C247 1.385 . S
C248 C249 1.389 . S
C249 C248 1.389 . S
C249 C250 1.387 . S
C250 H235 0.930 . S
C250 C245 1.390 . S
C250 C249 1.387 . S
H251 C263 0.930 . S
H252 C265 0.930 . S
H253 C266 0.930 . S
H254 C270 0.959 . S
H255 C270 0.959 . S
H256 C270 0.961 . S
H257 C271 0.960 . S
H258 C271 0.961 . S
H259 C271 0.959 . S
H260 C274 0.929 . S
H261 C275 0.931 . S
H262 C277 0.930 . S
C263 H251 0.930 . S
C263 C264 1.399 . S
C263 C268 1.399 . S
C264 C263 1.399 . S
C264 C265 1.376 . S
C265 H252 0.930 . S
C265 C264 1.376 . S
C265 C266 1.388 . S
C266 H253 0.930 . S
C266 C265 1.388 . S
C266 C267 1.390 . S
C267 C266 1.390 . S
C267 C268 1.394 . S
C267 C273 1.465 . S
C268 C263 1.399 . S
C268 C267 1.394 . S
C268 C269 1.516 . S
C269 C268 1.516 . S
C269 C270 1.502 . S
C269 C271 1.561 . S
C269 C272 1.526 . S
C270 H254 0.959 . S
C270 H255 0.959 . S
C270 H256 0.961 . S
C270 C269 1.502 . S
C271 H257 0.960 . S
C271 H258 0.961 . S
C271 H259 0.959 . S
C271 C269 1.561 . S
C272 C269 1.526 . S
C272 C273 1.396 . S
C272 C277 1.390 . S
C273 C267 1.465 . S
C273 C272 1.396 . S
C273 C274 1.399 . S
C274 H260 0.929 . S
C274 C273 1.399 . S
C274 C275 1.385 . S
C275 H261 0.931 . S
C275 C274 1.385 . S
C275 C276 1.389 . S
C276 C275 1.389 . S
C276 C277 1.387 . S
C277 H262 0.930 . S
C277 C272 1.390 . S
C277 C276 1.387 . S
C75 C10 0.916 . S
C87 C33 0.864 . S
C102 C0 1.574 . S
C114 C55 1.556 . S
C129 C18 1.578 . S
C141 C42 1.507 . S
C156 C27 1.734 . S
C168 C32 1.694 . S
C183 C24 1.591 . S
C195 C31 1.528 . S
C222 C49 1.552 . S
C210 C11 1.540 . S
C237 C1 1.741 . S
C249 C58 1.692 . S
C276 C41 0.913 . S
C264 C2 0.871 . S
