# Generated by pormake.
# Topology gar, (4,6)-cn, num edge types: 1
# Building blocks:
#     Node 0, Type 0, BuildingBlock: KUFVIS_clean_sbu_0, # of connection points: 4
#     Node 1, Type 0, BuildingBlock: KUFVIS_clean_sbu_0, # of connection points: 4
#     Node 2, Type 0, BuildingBlock: KUFVIS_clean_sbu_0, # of connection points: 4
#     Node 3, Type 0, BuildingBlock: KUFVIS_clean_sbu_0, # of connection points: 4
#     Node 4, Type 0, BuildingBlock: KUFVIS_clean_sbu_0, # of connection points: 4
#     Node 5, Type 0, BuildingBlock: KUFVIS_clean_sbu_0, # of connection points: 4
#     Node 6, Type 0, BuildingBlock: KUFVIS_clean_sbu_0, # of connection points: 4
#     Node 7, Type 0, BuildingBlock: KUFVIS_clean_sbu_0, # of connection points: 4
#     Node 8, Type 0, BuildingBlock: KUFVIS_clean_sbu_0, # of connection points: 4
#     Node 9, Type 0, BuildingBlock: KUFVIS_clean_sbu_0, # of connection points: 4
#     Node 10, Type 0, BuildingBlock: KUFVIS_clean_sbu_0, # of connection points: 4
#     Node 11, Type 0, BuildingBlock: KUFVIS_clean_sbu_0, # of connection points: 4
#     Node 12, Type 0, BuildingBlock: KUFVIS_clean_sbu_0, # of connection points: 4
#     Node 13, Type 0, BuildingBlock: KUFVIS_clean_sbu_0, # of connection points: 4
#     Node 14, Type 0, BuildingBlock: KUFVIS_clean_sbu_0, # of connection points: 4
#     Node 15, Type 0, BuildingBlock: KUFVIS_clean_sbu_0, # of connection points: 4
#     Node 16, Type 0, BuildingBlock: KUFVIS_clean_sbu_0, # of connection points: 4
#     Node 17, Type 0, BuildingBlock: KUFVIS_clean_sbu_0, # of connection points: 4
#     Node 18, Type 0, BuildingBlock: KUFVIS_clean_sbu_0, # of connection points: 4
#     Node 19, Type 0, BuildingBlock: KUFVIS_clean_sbu_0, # of connection points: 4
#     Node 20, Type 0, BuildingBlock: KUFVIS_clean_sbu_0, # of connection points: 4
#     Node 21, Type 0, BuildingBlock: KUFVIS_clean_sbu_0, # of connection points: 4
#     Node 22, Type 0, BuildingBlock: KUFVIS_clean_sbu_0, # of connection points: 4
#     Node 23, Type 0, BuildingBlock: KUFVIS_clean_sbu_0, # of connection points: 4
#     Node 24, Type 1, BuildingBlock: KUMBOL_clean_sbu_1, # of connection points: 6
#     Node 25, Type 1, BuildingBlock: KUMBOL_clean_sbu_1, # of connection points: 6
#     Node 26, Type 1, BuildingBlock: KUMBOL_clean_sbu_1, # of connection points: 6
#     Node 27, Type 1, BuildingBlock: KUMBOL_clean_sbu_1, # of connection points: 6
#     Node 28, Type 1, BuildingBlock: KUMBOL_clean_sbu_1, # of connection points: 6
#     Node 29, Type 1, BuildingBlock: KUMBOL_clean_sbu_1, # of connection points: 6
#     Node 30, Type 1, BuildingBlock: KUMBOL_clean_sbu_1, # of connection points: 6
#     Node 31, Type 1, BuildingBlock: KUMBOL_clean_sbu_1, # of connection points: 6
#     Node 32, Type 1, BuildingBlock: KUMBOL_clean_sbu_1, # of connection points: 6
#     Node 33, Type 1, BuildingBlock: KUMBOL_clean_sbu_1, # of connection points: 6
#     Node 34, Type 1, BuildingBlock: KUMBOL_clean_sbu_1, # of connection points: 6
#     Node 35, Type 1, BuildingBlock: KUMBOL_clean_sbu_1, # of connection points: 6
#     Node 36, Type 1, BuildingBlock: KUMBOL_clean_sbu_1, # of connection points: 6
#     Node 37, Type 1, BuildingBlock: KUMBOL_clean_sbu_1, # of connection points: 6
#     Node 38, Type 1, BuildingBlock: KUMBOL_clean_sbu_1, # of connection points: 6
#     Node 39, Type 1, BuildingBlock: KUMBOL_clean_sbu_1, # of connection points: 6
#     Edge 40, Type (0, 1), BuildingBlock: UVAHIK_clean_linker_0, # of connection points: 2
#     Edge 41, Type (0, 1), BuildingBlock: UVAHIK_clean_linker_0, # of connection points: 2
#     Edge 42, Type (0, 1), BuildingBlock: UVAHIK_clean_linker_0, # of connection points: 2
#     Edge 43, Type (0, 1), BuildingBlock: UVAHIK_clean_linker_0, # of connection points: 2
#     Edge 44, Type (0, 1), BuildingBlock: UVAHIK_clean_linker_0, # of connection points: 2
#     Edge 45, Type (0, 1), BuildingBlock: UVAHIK_clean_linker_0, # of connection points: 2
#     Edge 46, Type (0, 1), BuildingBlock: UVAHIK_clean_linker_0, # of connection points: 2
#     Edge 47, Type (0, 1), BuildingBlock: UVAHIK_clean_linker_0, # of connection points: 2
#     Edge 48, Type (0, 1), BuildingBlock: UVAHIK_clean_linker_0, # of connection points: 2
#     Edge 49, Type (0, 1), BuildingBlock: UVAHIK_clean_linker_0, # of connection points: 2
#     Edge 50, Type (0, 1), BuildingBlock: UVAHIK_clean_linker_0, # of connection points: 2
#     Edge 51, Type (0, 1), BuildingBlock: UVAHIK_clean_linker_0, # of connection points: 2
#     Edge 52, Type (0, 1), BuildingBlock: UVAHIK_clean_linker_0, # of connection points: 2
#     Edge 53, Type (0, 1), BuildingBlock: UVAHIK_clean_linker_0, # of connection points: 2
#     Edge 54, Type (0, 1), BuildingBlock: UVAHIK_clean_linker_0, # of connection points: 2
#     Edge 55, Type (0, 1), BuildingBlock: UVAHIK_clean_linker_0, # of connection points: 2
#     Edge 56, Type (0, 1), BuildingBlock: UVAHIK_clean_linker_0, # of connection points: 2
#     Edge 57, Type (0, 1), BuildingBlock: UVAHIK_clean_linker_0, # of connection points: 2
#     Edge 58, Type (0, 1), BuildingBlock: UVAHIK_clean_linker_0, # of connection points: 2
#     Edge 59, Type (0, 1), BuildingBlock: UVAHIK_clean_linker_0, # of connection points: 2
#     Edge 60, Type (0, 1), BuildingBlock: UVAHIK_clean_linker_0, # of connection points: 2
#     Edge 61, Type (0, 1), BuildingBlock: UVAHIK_clean_linker_0, # of connection points: 2
#     Edge 62, Type (0, 1), BuildingBlock: UVAHIK_clean_linker_0, # of connection points: 2
#     Edge 63, Type (0, 1), BuildingBlock: UVAHIK_clean_linker_0, # of connection points: 2
#     Edge 64, Type (0, 1), BuildingBlock: UVAHIK_clean_linker_0, # of connection points: 2
#     Edge 65, Type (0, 1), BuildingBlock: UVAHIK_clean_linker_0, # of connection points: 2
#     Edge 66, Type (0, 1), BuildingBlock: UVAHIK_clean_linker_0, # of connection points: 2
#     Edge 67, Type (0, 1), BuildingBlock: UVAHIK_clean_linker_0, # of connection points: 2
#     Edge 68, Type (0, 1), BuildingBlock: UVAHIK_clean_linker_0, # of connection points: 2
#     Edge 69, Type (0, 1), BuildingBlock: UVAHIK_clean_linker_0, # of connection points: 2
#     Edge 70, Type (0, 1), BuildingBlock: UVAHIK_clean_linker_0, # of connection points: 2
#     Edge 71, Type (0, 1), BuildingBlock: UVAHIK_clean_linker_0, # of connection points: 2
#     Edge 72, Type (0, 1), BuildingBlock: UVAHIK_clean_linker_0, # of connection points: 2
#     Edge 73, Type (0, 1), BuildingBlock: UVAHIK_clean_linker_0, # of connection points: 2
#     Edge 74, Type (0, 1), BuildingBlock: UVAHIK_clean_linker_0, # of connection points: 2
#     Edge 75, Type (0, 1), BuildingBlock: UVAHIK_clean_linker_0, # of connection points: 2
#     Edge 76, Type (0, 1), BuildingBlock: UVAHIK_clean_linker_0, # of connection points: 2
#     Edge 77, Type (0, 1), BuildingBlock: UVAHIK_clean_linker_0, # of connection points: 2
#     Edge 78, Type (0, 1), BuildingBlock: UVAHIK_clean_linker_0, # of connection points: 2
#     Edge 79, Type (0, 1), BuildingBlock: UVAHIK_clean_linker_0, # of connection points: 2
#     Edge 80, Type (0, 1), BuildingBlock: UVAHIK_clean_linker_0, # of connection points: 2
#     Edge 81, Type (0, 1), BuildingBlock: UVAHIK_clean_linker_0, # of connection points: 2
#     Edge 82, Type (0, 1), BuildingBlock: UVAHIK_clean_linker_0, # of connection points: 2
#     Edge 83, Type (0, 1), BuildingBlock: UVAHIK_clean_linker_0, # of connection points: 2
#     Edge 84, Type (0, 1), BuildingBlock: UVAHIK_clean_linker_0, # of connection points: 2
#     Edge 85, Type (0, 1), BuildingBlock: UVAHIK_clean_linker_0, # of connection points: 2
#     Edge 86, Type (0, 1), BuildingBlock: UVAHIK_clean_linker_0, # of connection points: 2
#     Edge 87, Type (0, 1), BuildingBlock: UVAHIK_clean_linker_0, # of connection points: 2
#     Edge 88, Type (0, 1), BuildingBlock: UVAHIK_clean_linker_0, # of connection points: 2
#     Edge 89, Type (0, 1), BuildingBlock: UVAHIK_clean_linker_0, # of connection points: 2
#     Edge 90, Type (0, 1), BuildingBlock: UVAHIK_clean_linker_0, # of connection points: 2
#     Edge 91, Type (0, 1), BuildingBlock: UVAHIK_clean_linker_0, # of connection points: 2
#     Edge 92, Type (0, 1), BuildingBlock: UVAHIK_clean_linker_0, # of connection points: 2
#     Edge 93, Type (0, 1), BuildingBlock: UVAHIK_clean_linker_0, # of connection points: 2
#     Edge 94, Type (0, 1), BuildingBlock: UVAHIK_clean_linker_0, # of connection points: 2
#     Edge 95, Type (0, 1), BuildingBlock: UVAHIK_clean_linker_0, # of connection points: 2
#     Edge 96, Type (0, 1), BuildingBlock: UVAHIK_clean_linker_0, # of connection points: 2
#     Edge 97, Type (0, 1), BuildingBlock: UVAHIK_clean_linker_0, # of connection points: 2
#     Edge 98, Type (0, 1), BuildingBlock: UVAHIK_clean_linker_0, # of connection points: 2
#     Edge 99, Type (0, 1), BuildingBlock: UVAHIK_clean_linker_0, # of connection points: 2
#     Edge 100, Type (0, 1), BuildingBlock: UVAHIK_clean_linker_0, # of connection points: 2
#     Edge 101, Type (0, 1), BuildingBlock: UVAHIK_clean_linker_0, # of connection points: 2
#     Edge 102, Type (0, 1), BuildingBlock: UVAHIK_clean_linker_0, # of connection points: 2
#     Edge 103, Type (0, 1), BuildingBlock: UVAHIK_clean_linker_0, # of connection points: 2
#     Edge 104, Type (0, 1), BuildingBlock: UVAHIK_clean_linker_0, # of connection points: 2
#     Edge 105, Type (0, 1), BuildingBlock: UVAHIK_clean_linker_0, # of connection points: 2
#     Edge 106, Type (0, 1), BuildingBlock: UVAHIK_clean_linker_0, # of connection points: 2
#     Edge 107, Type (0, 1), BuildingBlock: UVAHIK_clean_linker_0, # of connection points: 2
#     Edge 108, Type (0, 1), BuildingBlock: UVAHIK_clean_linker_0, # of connection points: 2
#     Edge 109, Type (0, 1), BuildingBlock: UVAHIK_clean_linker_0, # of connection points: 2
#     Edge 110, Type (0, 1), BuildingBlock: UVAHIK_clean_linker_0, # of connection points: 2
#     Edge 111, Type (0, 1), BuildingBlock: UVAHIK_clean_linker_0, # of connection points: 2
#     Edge 112, Type (0, 1), BuildingBlock: UVAHIK_clean_linker_0, # of connection points: 2
#     Edge 113, Type (0, 1), BuildingBlock: UVAHIK_clean_linker_0, # of connection points: 2
#     Edge 114, Type (0, 1), BuildingBlock: UVAHIK_clean_linker_0, # of connection points: 2
#     Edge 115, Type (0, 1), BuildingBlock: UVAHIK_clean_linker_0, # of connection points: 2
#     Edge 116, Type (0, 1), BuildingBlock: UVAHIK_clean_linker_0, # of connection points: 2
#     Edge 117, Type (0, 1), BuildingBlock: UVAHIK_clean_linker_0, # of connection points: 2
#     Edge 118, Type (0, 1), BuildingBlock: UVAHIK_clean_linker_0, # of connection points: 2
#     Edge 119, Type (0, 1), BuildingBlock: UVAHIK_clean_linker_0, # of connection points: 2
#     Edge 120, Type (0, 1), BuildingBlock: UVAHIK_clean_linker_0, # of connection points: 2
#     Edge 121, Type (0, 1), BuildingBlock: UVAHIK_clean_linker_0, # of connection points: 2
#     Edge 122, Type (0, 1), BuildingBlock: UVAHIK_clean_linker_0, # of connection points: 2
#     Edge 123, Type (0, 1), BuildingBlock: UVAHIK_clean_linker_0, # of connection points: 2
#     Edge 124, Type (0, 1), BuildingBlock: UVAHIK_clean_linker_0, # of connection points: 2
#     Edge 125, Type (0, 1), BuildingBlock: UVAHIK_clean_linker_0, # of connection points: 2
#     Edge 126, Type (0, 1), BuildingBlock: UVAHIK_clean_linker_0, # of connection points: 2
#     Edge 127, Type (0, 1), BuildingBlock: UVAHIK_clean_linker_0, # of connection points: 2
#     Edge 128, Type (0, 1), BuildingBlock: UVAHIK_clean_linker_0, # of connection points: 2
#     Edge 129, Type (0, 1), BuildingBlock: UVAHIK_clean_linker_0, # of connection points: 2
#     Edge 130, Type (0, 1), BuildingBlock: UVAHIK_clean_linker_0, # of connection points: 2
#     Edge 131, Type (0, 1), BuildingBlock: UVAHIK_clean_linker_0, # of connection points: 2
#     Edge 132, Type (0, 1), BuildingBlock: UVAHIK_clean_linker_0, # of connection points: 2
#     Edge 133, Type (0, 1), BuildingBlock: UVAHIK_clean_linker_0, # of connection points: 2
#     Edge 134, Type (0, 1), BuildingBlock: UVAHIK_clean_linker_0, # of connection points: 2
#     Edge 135, Type (0, 1), BuildingBlock: UVAHIK_clean_linker_0, # of connection points: 2
# Relax obj value: 0.054
# Max RMSD: 0.176
# Mean RMSD: 0.104
data_MOF--net-gar--node1-KUFVIS_clean_sbu_0--node2-KUMBOL_clean_sbu_1--edge1-UVAHIK_clean_linker_0
_symmetry_space_group_name_H-M    P1
_symmetry_Int_Tables_number       1
_symmetry_cell_setting            triclinic
loop_
_symmetry_equiv_pos_as_xyz
'x, y, z'
_cell_length_a     75.146697
_cell_length_b     75.487478
_cell_length_c     72.717828
_cell_angle_alpha  95.494518
_cell_angle_beta   95.627758
_cell_angle_gamma 100.74122
loop_
_atom_site_label
_atom_site_type_symbol
_atom_site_fract_x
_atom_site_fract_y
_atom_site_fract_z
_atom_type_partial_charge
Mn0 Mn 0.03972 0.29988 0.36788 0.0
Mn1 Mn 0.03731 0.32597 0.33281 0.0
C2 C 0.01087 0.30312 0.35405 0.0
C3 C 0.04138 0.27252 0.38074 0.0
C4 C 0.046 0.34179 0.37353 0.0
O5 O 0.06564 0.30233 0.35919 0.0
O6 O 0.06193 0.31878 0.33542 0.0
C7 C 0.03877 0.29836 0.30145 0.0
N8 N 0.03008 0.31073 0.30971 0.0
C9 C 1.00581 0.30453 0.28438 0.0
C10 C 0.01458 0.29183 0.27555 0.0
C11 C 0.03111 0.28871 0.28414 0.0
C12 C 0.01414 0.3138 0.30158 0.0
H13 H 0.05143 0.29584 0.30802 0.0
C14 C 0.07162 0.31005 0.34538 0.0
O15 O 0.04713 0.28831 0.39021 0.0
O16 O 0.03539 0.27249 0.36333 0.0
N17 N 0.01458 0.33371 0.32819 0.0
C18 C 0.0075 0.34594 0.33882 0.0
C19 C 0.99078 0.35027 0.33237 0.0
C20 C 0.98159 0.34214 0.315 0.0
C21 C 0.98927 0.32982 0.30418 0.0
C22 C 1.00602 0.32609 0.31128 0.0
H23 H 0.01444 0.35223 0.3522 0.0
O24 O 0.0131 0.29832 0.37064 0.0
O25 O 0.02568 0.30567 0.34572 0.0
O26 O 0.04504 0.32648 0.37982 0.0
O27 O 0.04417 0.34324 0.35609 0.0
C28 C 0.98076 0.32081 0.28679 0.0
C29 C 0.98902 0.30816 0.27691 0.0
H30 H 0.00868 0.2843 0.26223 0.0
H31 H 0.03791 0.27887 0.27745 0.0
H32 H 0.98495 0.35979 0.34081 0.0
H33 H 0.96861 0.34537 0.31016 0.0
H34 H 0.96776 0.32335 0.28099 0.0
H35 H 0.98226 0.30119 0.26364 0.0
Mn36 Mn 0.02125 0.74915 0.68124 0.0
Mn37 Mn 0.03197 0.78161 0.71812 0.0
C38 C 0.05205 0.75863 0.69488 0.0
C39 C 0.01405 0.71881 0.66612 0.0
C40 C 0.02464 0.79045 0.67865 0.0
O41 O 0.99578 0.74901 0.69099 0.0
O42 O 1.00489 0.77169 0.71439 0.0
C43 C 0.02293 0.7582 0.74766 0.0
N44 N 0.03522 0.77035 0.74033 0.0
C45 C 0.05826 0.77071 0.76588 0.0
C46 C 0.04581 0.75827 0.77377 0.0
C47 C 0.02808 0.75197 0.7646 0.0
C48 C 0.05232 0.77651 0.74903 0.0
H49 H 0.0093 0.7533 0.74065 0.0
C50 C 0.99226 0.7598 0.70441 0.0
O51 O 0.01038 0.73245 0.65797 0.0
O52 O 0.02048 0.72249 0.6836 0.0
N53 N 0.0573 0.79249 0.7236 0.0
C54 C 0.0679 0.80379 0.7137 0.0
C55 C 0.08621 0.81086 0.72066 0.0
C56 C 0.09337 0.80641 0.73781 0.0
C57 C 0.08213 0.79494 0.74786 0.0
C58 C 0.06397 0.78833 0.74024 0.0
H59 H 0.06248 0.80723 0.70049 0.0
O60 O 0.04786 0.75156 0.67769 0.0
O61 O 0.03798 0.76029 0.70375 0.0
O62 O 0.02073 0.77393 0.67128 0.0
O63 O 0.02936 0.79484 0.69608 0.0
C64 C 0.08833 0.78947 0.76493 0.0
C65 C 0.07641 0.77737 0.77393 0.0
H66 H 0.04975 0.75338 0.78679 0.0
H67 H 0.01842 0.74233 0.77057 0.0
H68 H 0.0948 0.81968 0.71281 0.0
H69 H 0.10754 0.81176 0.74306 0.0
H70 H 0.10231 0.79432 0.77113 0.0
H71 H 0.08139 0.77312 0.78695 0.0
Mn72 Mn 0.53902 0.80016 0.86717 0.0
Mn73 Mn 0.53758 0.82664 0.83244 0.0
C74 C 0.51036 0.80376 0.85297 0.0
C75 C 0.54064 0.77268 0.87986 0.0
C76 C 0.54551 0.84218 0.87327 0.0
O77 O 0.56503 0.80222 0.85869 0.0
O78 O 0.56238 0.81956 0.83551 0.0
C79 C 0.5397 0.79926 0.80111 0.0
N80 N 0.53072 0.81141 0.8093 0.0
C81 C 0.50644 0.8046 0.78398 0.0
C82 C 0.51549 0.79211 0.77524 0.0
C83 C 0.53219 0.78942 0.78386 0.0
C84 C 0.51462 0.81407 0.80114 0.0
H85 H 0.55249 0.79706 0.8077 0.0
C86 C 0.57161 0.81031 0.84536 0.0
O87 O 0.54628 0.78844 0.88942 0.0
O88 O 0.53449 0.77273 0.86251 0.0
N89 N 0.51486 0.83432 0.82743 0.0
C90 C 0.50778 0.8468 0.83771 0.0
C91 C 0.49103 0.85094 0.83107 0.0
C92 C 0.4818 0.84234 0.81388 0.0
C93 C 0.48951 0.82981 0.80339 0.0
C94 C 0.50631 0.82631 0.81066 0.0
H95 H 0.51475 0.85345 0.85096 0.0
O96 O 0.51229 0.79884 0.86954 0.0
O97 O 0.52538 0.80624 0.84495 0.0
O98 O 0.54446 0.82676 0.87937 0.0
O99 O 0.54398 0.8438 0.85586 0.0
C100 C 0.48109 0.82052 0.7861 0.0
C101 C 0.48953 0.80791 0.77641 0.0
H102 H 0.50972 0.78446 0.76195 0.0
H103 H 0.53923 0.77975 0.77723 0.0
H104 H 0.48519 0.86066 0.83924 0.0
H105 H 0.46879 0.84544 0.8089 0.0
H106 H 0.46806 0.82289 0.78017 0.0
H107 H 0.48288 0.80078 0.76316 0.0
Mn108 Mn 0.52166 0.24884 0.18399 0.0
Mn109 Mn 0.4892 0.23993 0.14674 0.0
C110 C 0.51211 0.2191 0.16819 0.0
C111 C 0.55364 0.25569 0.19618 0.0
C112 C 0.48007 0.24832 0.18639 0.0
O113 O 0.5222 0.27414 0.17498 0.0
O114 O 0.50104 0.26607 0.14968 0.0
C115 C 0.51254 0.24604 0.11653 0.0
N116 N 0.4999 0.23487 0.12452 0.0
C117 C 0.49831 0.21049 0.10015 0.0
C118 C 0.51124 0.22176 0.09161 0.0
C119 C 0.5184 0.2396 0.09985 0.0
C120 C 0.49288 0.2177 0.11668 0.0
H121 H 0.51813 0.25973 0.12286 0.0
C122 C 0.51292 0.27791 0.16055 0.0
O123 O 0.54095 0.2586 0.20636 0.0
O124 O 0.54784 0.24954 0.17901 0.0
N125 N 0.47704 0.21499 0.14253 0.0
C126 C 0.46566 0.20551 0.15321 0.0
C127 C 0.45782 0.18722 0.14729 0.0
C128 C 0.46176 0.17889 0.13046 0.0
C129 C 0.47349 0.18894 0.11969 0.0
C130 C 0.48077 0.20716 0.12622 0.0
H131 H 0.46266 0.21183 0.1662 0.0
O132 O 0.51913 0.22166 0.1855 0.0
O133 O 0.51005 0.23385 0.16123 0.0
O134 O 0.4964 0.24989 0.19469 0.0
O135 O 0.4765 0.24463 0.16874 0.0
C136 C 0.47855 0.18148 0.10294 0.0
C137 C 0.49094 0.19225 0.09317 0.0
H138 H 0.51591 0.2168 0.07883 0.0
H139 H 0.52846 0.24835 0.09339 0.0
H140 H 0.44884 0.17954 0.15572 0.0
H141 H 0.45583 0.16472 0.12604 0.0
H142 H 0.47321 0.16739 0.09759 0.0
H143 H 0.49493 0.18628 0.08045 0.0
Mn144 Mn 0.06083 0.78892 0.11729 0.0
Mn145 Mn 0.02782 0.77687 0.08075 0.0
C146 C 0.05202 0.75809 0.10425 0.0
C147 C 0.09152 0.79694 0.13173 0.0
C148 C 0.01957 0.7848 0.12042 0.0
O149 O 0.05964 0.81399 0.10723 0.0
O150 O 0.0377 0.8037 0.08321 0.0
C151 C 0.05036 0.78466 0.05023 0.0
N152 N 0.03853 0.77277 0.05836 0.0
C153 C 0.03734 0.74905 0.03342 0.0
C154 C 0.04945 0.76107 0.02472 0.0
C155 C 0.05601 0.77894 0.03318 0.0
C156 C 0.03212 0.75555 0.05034 0.0
H157 H 0.05542 0.7984 0.05668 0.0
C158 C 0.04907 0.81677 0.09314 0.0
O159 O 0.07791 0.80033 0.14017 0.0
O160 O 0.08756 0.79049 0.11428 0.0
N161 N 0.017 0.75158 0.07652 0.0
C162 C 1.0061 0.74146 0.08716 0.0
C163 C 0.99888 0.72309 0.08097 0.0
C164 C 1.00275 0.71538 0.06383 0.0
C165 C 0.01382 0.72612 0.05302 0.0
C166 C 0.02063 0.74436 0.0599 0.0
H167 H 1.00308 0.74731 0.10035 0.0
O168 O 0.05952 0.76265 0.12127 0.0
O169 O 0.04965 0.77178 0.09516 0.0
O170 O 0.03617 0.78861 0.12777 0.0
O171 O 0.01505 0.78033 0.10298 0.0
C172 C 0.0187 0.71936 0.03589 0.0
C173 C 0.03044 0.73082 0.02609 0.0
H174 H 0.05389 0.7567 0.0116 0.0
H175 H 0.0654 0.78828 0.02658 0.0
H176 H 0.99037 0.71489 0.08942 0.0
H177 H 0.99727 0.70117 0.05917 0.0
H178 H 0.01367 0.70532 0.03023 0.0
H179 H 0.03423 0.72542 0.01302 0.0
Mn180 Mn 0.50168 0.76397 0.43706 0.0
Mn181 Mn 0.50085 0.78895 0.40058 0.0
C182 C 0.47353 0.7659 0.42017 0.0
C183 C 0.50416 0.73512 0.44848 0.0
C184 C 0.50911 0.80615 0.4411 0.0
O185 O 0.52826 0.76795 0.43021 0.0
O186 O 0.52412 0.78013 0.40324 0.0
C187 C 0.50016 0.76075 0.36913 0.0
N188 N 0.49271 0.77409 0.37743 0.0
C189 C 0.47041 0.77194 0.3508 0.0
C190 C 0.47794 0.75827 0.34189 0.0
C191 C 0.49279 0.75256 0.35116 0.0
C192 C 0.4782 0.77945 0.36878 0.0
H193 H 0.51162 0.75644 0.37618 0.0
C194 C 0.53383 0.77342 0.41517 0.0
O195 O 0.50803 0.75044 0.4592 0.0
O196 O 0.49902 0.73654 0.43123 0.0
N197 N 0.47899 0.79829 0.39623 0.0
C198 C 0.47263 0.81083 0.40719 0.0
C199 C 0.45728 0.81738 0.40031 0.0
C200 C 0.44883 0.81123 0.38214 0.0
C201 C 0.45575 0.79849 0.37105 0.0
C202 C 0.47097 0.79232 0.37872 0.0
H203 H 0.47919 0.81584 0.42106 0.0
O204 O 0.4741 0.76086 0.43677 0.0
O205 O 0.48924 0.76943 0.41399 0.0
O206 O 0.50554 0.7914 0.4488 0.0
O207 O 0.50904 0.80603 0.42351 0.0
C208 C 0.44808 0.7916 0.35273 0.0
C209 C 0.45538 0.7783 0.34262 0.0
H210 H 0.47234 0.75199 0.32799 0.0
H211 H 0.49862 0.74195 0.34442 0.0
H212 H 0.45204 0.82723 0.40895 0.0
H213 H 0.43701 0.81634 0.37687 0.0
H214 H 0.43638 0.79622 0.34637 0.0
H215 H 0.44915 0.77287 0.32866 0.0
Mn216 Mn 0.55965 0.28903 0.61818 0.0
Mn217 Mn 0.52694 0.27754 0.5813 0.0
C218 C 0.55051 0.25831 0.60483 0.0
C219 C 0.59035 0.29666 0.6328 0.0
C220 C 0.51836 0.28557 0.62091 0.0
O221 O 0.55878 0.31425 0.60823 0.0
O222 O 0.53736 0.30426 0.58364 0.0
C223 C 0.55029 0.28451 0.55124 0.0
N224 N 0.53796 0.27296 0.55919 0.0
C225 C 0.53737 0.24871 0.53497 0.0
C226 C 0.54997 0.26038 0.52645 0.0
C227 C 0.55648 0.27835 0.53464 0.0
C228 C 0.53162 0.25563 0.55144 0.0
H229 H 0.55539 0.2983 0.55753 0.0
C230 C 0.54867 0.31719 0.59384 0.0
O231 O 0.57674 0.30013 0.6412 0.0
O232 O 0.58641 0.29036 0.61532 0.0
N233 N 0.51568 0.25235 0.57715 0.0
C234 C 0.50414 0.24262 0.58754 0.0
C235 C 0.49672 0.22426 0.58149 0.0
C236 C 0.50111 0.21614 0.56478 0.0
C237 C 0.51282 0.22649 0.55421 0.0
C238 C 0.5197 0.24476 0.56088 0.0
H239 H 0.50073 0.24877 0.60041 0.0
O240 O 0.55796 0.26259 0.6219 0.0
O241 O 0.54843 0.27218 0.59596 0.0
O242 O 0.53491 0.28888 0.62842 0.0
O243 O 0.51397 0.28146 0.60338 0.0
C244 C 0.5182 0.2193 0.53752 0.0
C245 C 0.53049 0.23039 0.52792 0.0
H246 H 0.55484 0.25566 0.51369 0.0
H247 H 0.56627 0.28742 0.52819 0.0
H248 H 0.48769 0.21637 0.58973 0.0
H249 H 0.49548 0.20194 0.56025 0.0
H250 H 0.51315 0.20521 0.53205 0.0
H251 H 0.53469 0.22465 0.51521 0.0
Mn252 Mn 1.00133 0.26257 0.93589 0.0
Mn253 Mn 1.00027 0.28674 0.89885 0.0
C254 C 0.97304 0.26476 0.9195 0.0
C255 C 1.0037 0.2339 0.94761 0.0
C256 C 0.00927 0.30468 0.93913 0.0
O257 O 0.02772 0.26603 0.92864 0.0
O258 O 0.02329 0.27734 0.90124 0.0
C259 C 0.99812 0.25742 0.8681 0.0
N260 N 0.99132 0.27137 0.87614 0.0
C261 C 0.9679 0.2683 0.85031 0.0
C262 C 0.97481 0.25405 0.84165 0.0
C263 C 0.98992 0.24852 0.85065 0.0
C264 C 0.97661 0.27661 0.86775 0.0
H265 H 0.00967 0.25313 0.875 0.0
C266 C 0.03308 0.27083 0.91329 0.0
O267 O 0.00789 0.24933 0.95815 0.0
O268 O 0.99825 0.23511 0.93039 0.0
N269 N 0.97871 0.29661 0.89464 0.0
C270 C 0.97317 0.31 0.90524 0.0
C271 C 0.95799 0.31684 0.89842 0.0
C272 C 0.94879 0.31003 0.88069 0.0
C273 C 0.95475 0.29632 0.86999 0.0
C274 C 0.97002 0.29009 0.87748 0.0
H275 H 0.98029 0.31551 0.91876 0.0
O276 O 0.97385 0.25991 0.93618 0.0
O277 O 0.9886 0.26786 0.91293 0.0
O278 O 1.00568 0.29012 0.94714 0.0
O279 O 0.00915 0.30419 0.92148 0.0
C280 C 0.94605 0.28848 0.85225 0.0
C281 C 0.95256 0.27441 0.84246 0.0
H282 H 0.96852 0.24715 0.82819 0.0
H283 H 0.99524 0.23743 0.84412 0.0
H284 H 0.95347 0.32742 0.90677 0.0
H285 H 0.93713 0.31539 0.87546 0.0
H286 H 0.93419 0.29298 0.84613 0.0
H287 H 0.94557 0.26828 0.82898 0.0
Mn288 Mn 0.38642 0.01921 0.28823 0.0
Mn289 Mn 0.35427 0.00759 0.31652 0.0
C290 C 0.37351 0.98939 0.28822 0.0
C291 C 0.39519 0.02903 0.26072 0.0
C292 C 0.39451 0.01886 0.32962 0.0
O293 O 0.37904 0.04281 0.29646 0.0
O294 O 0.35493 0.03314 0.31167 0.0
C295 C 0.32112 0.00855 0.29137 0.0
N296 N 0.33094 0.99926 0.3023 0.0
C297 C 0.30731 0.9724 0.29608 0.0
C298 C 0.2969 0.98171 0.28481 0.0
C299 C 0.30386 0.99985 0.28241 0.0
C300 C 0.32443 0.98176 0.3046 0.0
H301 H 0.32645 0.0225 0.28952 0.0
C302 C 0.36565 0.0456 0.30506 0.0
O303 O 0.40646 0.03193 0.27589 0.0
O304 O 0.37851 0.02093 0.26168 0.0
N305 N 0.35226 0.98314 0.32232 0.0
C306 C 0.36422 0.97596 0.33327 0.0
C307 C 0.35938 0.95789 0.337 0.0
C308 C 0.34226 0.94745 0.3296 0.0
C309 C 0.33013 0.95516 0.31848 0.0
C310 C 0.33565 0.97328 0.31535 0.0
H311 H 0.37734 0.98395 0.33915 0.0
O312 O 0.389 0.99377 0.28169 0.0
O313 O 0.3658 1.00259 0.29399 0.0
O314 O 0.39983 0.01957 0.31364 0.0
O315 O 0.3778 0.01555 0.33248 0.0
C316 C 0.31281 0.94557 0.31032 0.0
C317 C 0.30145 0.95415 0.29903 0.0
H318 H 0.28359 0.97505 0.27788 0.0
H319 H 0.29593 0.0071 0.27369 0.0
H320 H 0.36881 0.95205 0.34561 0.0
H321 H 0.33858 0.93353 0.33254 0.0
H322 H 0.30814 0.93155 0.3125 0.0
H323 H 0.28826 0.94657 0.29266 0.0
Mn324 Mn 0.26487 0.17519 0.51355 0.0
Mn325 Mn 0.25657 0.13849 0.48111 0.0
C326 C 0.23523 0.15926 0.50422 0.0
C327 C 0.27022 0.18802 0.54504 0.0
C328 C 0.26582 0.17714 0.47137 0.0
O329 O 0.28974 0.16767 0.5141 0.0
O330 O 0.28259 0.14325 0.4922 0.0
C331 C 0.26153 0.11018 0.50558 0.0
N332 N 0.25086 0.11684 0.49279 0.0
C333 C 0.2263 0.09117 0.49215 0.0
C334 C 0.23707 0.08399 0.50523 0.0
C335 C 0.25475 0.09356 0.512 0.0
C336 C 0.23383 0.10774 0.48618 0.0
H337 H 0.27511 0.11748 0.51085 0.0
C338 C 0.29387 0.15423 0.50444 0.0
O339 O 0.27469 0.19765 0.53171 0.0
O340 O 0.26349 0.17096 0.54013 0.0
N341 N 0.23183 0.13233 0.46962 0.0
C342 C 0.22272 0.14175 0.45813 0.0
C343 C 0.20461 0.13437 0.45066 0.0
C344 C 0.19607 0.11737 0.45506 0.0
C345 C 0.20571 0.10793 0.46694 0.0
C346 C 0.22376 0.11593 0.47388 0.0
H347 H 0.22913 0.15491 0.45486 0.0
O348 O 0.23818 0.17618 0.51117 0.0
O349 O 0.24968 0.15246 0.50241 0.0
O350 O 0.26776 0.18514 0.48801 0.0
O351 O 0.26176 0.15991 0.46758 0.0
C352 C 0.198 0.09108 0.47245 0.0
C353 C 0.20828 0.0827 0.48505 0.0
H354 H 0.23186 0.07122 0.51029 0.0
H355 H 0.26311 0.08813 0.52216 0.0
H356 H 0.19722 0.1418 0.44162 0.0
H357 H 0.18205 0.11179 0.44941 0.0
H358 H 0.18406 0.08458 0.46732 0.0
H359 H 0.2021 0.06988 0.4894 0.0
Mn360 Mn 0.13395 0.0424 0.78226 0.0
Mn361 Mn 0.17048 0.05038 0.81505 0.0
C362 C 0.14984 0.07197 0.79177 0.0
C363 C 0.12127 0.0366 0.75075 0.0
C364 C 0.13131 0.03905 0.82355 0.0
O365 O 0.14153 0.01754 0.78241 0.0
O366 O 0.16809 0.02564 0.80164 0.0
C367 C 0.20136 0.05048 0.79266 0.0
N368 N 0.19274 0.05921 0.80526 0.0
C369 C 0.21707 0.0855 0.80956 0.0
C370 C 0.22619 0.07678 0.79662 0.0
C371 C 0.21828 0.0592 0.78812 0.0
C372 C 0.20029 0.07609 0.81361 0.0
H373 H 0.1954 0.03695 0.7862 0.0
C374 C 0.15637 0.01412 0.79029 0.0
O375 O 0.11155 0.03255 0.76412 0.0
O376 O 0.13846 0.04326 0.75562 0.0
N377 N 0.17403 0.07416 0.82841 0.0
C378 C 0.1629 0.08118 0.83959 0.0
C379 C 0.1684 0.099 0.84847 0.0
C380 C 0.18532 0.10939 0.84584 0.0
C381 C 0.19654 0.10189 0.83428 0.0
C382 C 0.19033 0.08405 0.82579 0.0
H383 H 0.14987 0.07329 0.84166 0.0
O384 O 0.13301 0.06901 0.78422 0.0
O385 O 0.15658 0.05758 0.79382 0.0
O386 O 0.12345 0.03985 0.80734 0.0
O387 O 0.14862 0.04177 0.82727 0.0
C388 C 0.21351 0.11151 0.83061 0.0
C389 C 0.22381 0.10329 0.81833 0.0
H390 H 0.23921 0.08349 0.79302 0.0
H391 H 0.22524 0.05237 0.77812 0.0
H392 H 0.15962 0.10472 0.8573 0.0
H393 H 0.18948 0.12316 0.85265 0.0
H394 H 0.21868 0.12532 0.83699 0.0
H395 H 0.23677 0.11088 0.81549 0.0
Mn396 Mn 0.29072 0.92213 0.00666 0.0
Mn397 Mn 0.30149 0.95602 0.98017 0.0
C398 C 0.3205 0.9356 0.00657 0.0
C399 C 0.28191 0.91113 0.03369 0.0
C400 C 0.28989 0.91649 0.96483 0.0
O401 O 0.26687 0.92981 1.00009 0.0
O402 O 0.2758 0.95458 0.98556 0.0
C403 C 0.30043 0.98761 0.0072 0.0
N404 N 0.30974 0.97864 0.99551 0.0
C405 C 0.33647 1.00242 0.00243 0.0
C406 C 0.32713 0.01196 0.01447 0.0
C407 C 0.30905 1.0045 0.0169 0.0
C408 C 0.32718 0.98564 0.99317 0.0
H409 H 0.28654 0.98189 0.00909 0.0
C410 C 0.26368 0.94345 0.9922 0.0
O411 O 0.27854 0.90104 0.0178 0.0
O412 O 0.28979 0.92801 0.03379 0.0
N413 N 0.326 0.95882 0.97406 0.0
C414 C 0.33333 0.94754 0.96255 0.0
C415 C 0.35139 0.9529 0.95877 0.0
C416 C 0.36169 0.96985 0.96675 0.0
C417 C 0.35385 0.98123 0.97854 0.0
C418 C 0.33574 0.97521 0.98168 0.0
H419 H 0.32549 0.93453 0.95631 0.0
O420 O 0.31649 0.91953 0.01185 0.0
O421 O 0.30699 0.94336 1.00179 0.0
O422 O 0.28938 0.9104 0.98045 0.0
O423 O 0.29367 0.93336 0.96293 0.0
C424 C 0.36334 0.99826 0.9874 0.0
C425 C 0.35469 0.00879 0.99943 0.0
H426 H 0.33374 0.02498 0.022 0.0
H427 H 0.30179 0.01175 0.02623 0.0
H428 H 0.35736 0.94401 0.9497 0.0
H429 H 0.3756 0.97393 0.96377 0.0
H430 H 0.37735 1.00329 0.98524 0.0
H431 H 0.36221 0.02174 0.00637 0.0
Mn432 Mn 0.29397 0.38095 0.0368 0.0
Mn433 Mn 0.30051 0.41646 0.01164 0.0
C434 C 0.32353 0.39606 0.03419 0.0
C435 C 0.28835 0.36995 0.06542 0.0
C436 C 0.28897 0.37702 0.99438 0.0
O437 O 0.26871 0.38793 0.03317 0.0
O438 O 0.27663 0.4146 0.02151 0.0
C439 C 0.30347 0.44685 0.04144 0.0
N440 N 0.31052 0.43871 0.0271 0.0
C441 C 0.3365 0.4633 0.03014 0.0
C442 C 0.32934 0.4721 0.04472 0.0
C443 C 0.31281 0.46378 0.05048 0.0
C444 C 0.32658 0.44644 0.02168 0.0
H445 H 0.29089 0.44039 0.046 0.0
C446 C 0.26521 0.40287 0.02822 0.0
O447 O 0.28431 0.35946 0.04975 0.0
O448 O 0.29533 0.38684 0.06443 0.0
N449 N 0.32325 0.41998 1.00135 0.0
C450 C 0.32879 0.40927 0.98774 0.0
C451 C 0.34533 0.41539 0.98076 0.0
C452 C 0.35592 0.43252 0.98768 0.0
C453 C 0.34992 0.44334 1.00161 0.0
C454 C 0.33326 0.43657 0.00795 0.0
H455 H 0.32064 0.3962 0.98216 0.0
O456 O 0.32073 0.37989 0.03937 0.0
O457 O 0.30911 0.40295 0.03116 0.0
O458 O 0.29092 0.36966 0.00939 0.0
O459 O 0.29071 0.39418 0.99418 0.0
C460 C 0.35991 0.4605 0.00957 0.0
C461 C 0.35324 0.47043 0.02389 0.0
H462 H 0.33652 0.48514 0.05175 0.0
H463 H 0.3073 0.47038 0.06187 0.0
H464 H 0.34986 0.40696 0.97 0.0
H465 H 0.36865 0.43719 0.98222 0.0
H466 H 0.37286 0.46607 0.00497 0.0
H467 H 0.3612 0.48347 0.03013 0.0
Mn468 Mn 0.77127 0.13756 0.04288 0.0
Mn469 Mn 0.75913 0.09976 0.01234 0.0
C470 C 0.74119 0.12692 0.03201 0.0
C471 C 0.77801 0.15111 0.07312 0.0
C472 C 0.77586 0.1367 0.00183 0.0
O473 O 0.79381 0.12658 0.04457 0.0
O474 O 0.78336 0.10003 0.02631 0.0
C475 C 0.75451 0.07245 0.03904 0.0
N476 N 0.74754 0.08008 0.02444 0.0
C477 C 0.71855 0.05965 0.02269 0.0
C478 C 0.72553 0.05139 0.03751 0.0
C479 C 0.74357 0.05786 0.04576 0.0
C480 C 0.73016 0.07404 0.01648 0.0
H481 H 0.76827 0.07753 0.04558 0.0
C482 C 0.79559 0.11095 0.03767 0.0
O483 O 0.78411 0.15938 0.05945 0.0
O484 O 0.76844 0.13477 0.06921 0.0
N485 N 0.73579 0.0977 0.99821 0.0
C486 C 0.73079 0.10784 0.98479 0.0
C487 C 0.71293 0.10356 0.97562 0.0
C488 C 0.70043 0.08888 0.98026 0.0
C489 C 0.70593 0.07853 0.99399 0.0
C490 C 0.72396 0.08332 0.00253 0.0
H491 H 0.7403 0.11919 0.98119 0.0
O492 O 0.74664 0.14367 0.03928 0.0
O493 O 0.75344 0.11685 0.03177 0.0
O494 O 0.7765 0.14545 0.0178 0.0
O495 O 0.77038 0.11949 0.99843 0.0
C496 C 0.69411 0.06389 0.99979 0.0
C497 C 0.70042 0.05446 0.01413 0.0
H498 H 0.71709 0.04023 0.04283 0.0
H499 H 0.74899 0.05168 0.05733 0.0
H500 H 0.70878 0.11164 0.96507 0.0
H501 H 0.6866 0.08575 0.97331 0.0
H502 H 0.68007 0.05993 0.9935 0.0
H503 H 0.69113 0.0434 0.01866 0.0
Mn504 Mn 0.17314 0.5393 0.25096 0.0
Mn505 Mn 0.20913 0.54915 0.28425 0.0
C506 C 0.18515 0.56893 0.26217 0.0
C507 C 0.16105 0.53263 0.22023 0.0
C508 C 0.17033 0.53526 0.29186 0.0
O509 O 0.18257 0.51597 0.25042 0.0
O510 O 0.20776 0.52439 0.2712 0.0
C511 C 0.23884 0.5507 0.26018 0.0
N512 N 0.23061 0.55883 0.27359 0.0
C513 C 0.2534 0.58626 0.27631 0.0
C514 C 0.26219 0.57813 0.26262 0.0
C515 C 0.25485 0.56029 0.2545 0.0
C516 C 0.23753 0.57602 0.28145 0.0
H517 H 0.2332 0.53702 0.25384 0.0
C518 C 0.19701 0.51283 0.25905 0.0
O519 O 0.15172 0.52724 0.23347 0.0
O520 O 0.17762 0.5417 0.22479 0.0
N521 N 0.21223 0.57276 0.29781 0.0
C522 C 0.20181 0.57883 0.31043 0.0
C523 C 0.20714 0.59654 0.31964 0.0
C524 C 0.22318 0.60777 0.3159 0.0
C525 C 0.23378 0.60116 0.30302 0.0
C526 C 0.22788 0.58334 0.29439 0.0
H527 H 0.18948 0.57027 0.31338 0.0
O528 O 0.16863 0.56449 0.25376 0.0
O529 O 0.19427 0.55596 0.26336 0.0
O530 O 0.16298 0.53474 0.27527 0.0
O531 O 0.18754 0.53983 0.29667 0.0
C532 C 0.24987 0.61164 0.29824 0.0
C533 C 0.25964 0.60421 0.28486 0.0
H534 H 0.27451 0.5855 0.25815 0.0
H535 H 0.26151 0.55395 0.24387 0.0
H536 H 0.19888 0.60153 0.32955 0.0
H537 H 0.22718 0.62145 0.32296 0.0
H538 H 0.25474 0.62548 0.30464 0.0
H539 H 0.27188 0.61246 0.28116 0.0
Mn540 Mn 0.79502 0.88087 0.53785 0.0
Mn541 Mn 0.80165 0.91676 0.51315 0.0
C542 C 0.82463 0.89573 0.53481 0.0
C543 C 0.78993 0.86948 0.56652 0.0
C544 C 0.78945 0.87755 0.4953 0.0
O545 O 0.76996 0.88843 0.53521 0.0
O546 O 0.77793 0.91493 0.5233 0.0
C547 C 0.8052 0.94659 0.54368 0.0
N548 N 0.81194 0.93874 0.52895 0.0
C549 C 0.83801 0.96323 0.53207 0.0
C550 C 0.83115 0.97178 0.54704 0.0
C551 C 0.81474 0.96334 0.55295 0.0
C552 C 0.82792 0.94653 0.52341 0.0
H553 H 0.79272 0.94004 0.54838 0.0
C554 C 0.76657 0.90348 0.53042 0.0
O555 O 0.7854 0.85923 0.55073 0.0
O556 O 0.79709 0.88634 0.56563 0.0
N557 N 0.82426 0.92033 0.50262 0.0
C558 C 0.82959 0.90978 0.48873 0.0
C559 C 0.84602 0.91599 0.48157 0.0
C560 C 0.8567 0.93304 0.48861 0.0
C561 C 0.85093 0.94368 0.50285 0.0
C562 C 0.83438 0.93684 0.50936 0.0
H563 H 0.82136 0.89677 0.48306 0.0
O564 O 0.82172 0.87943 0.53966 0.0
O565 O 0.81029 0.90282 0.53226 0.0
O566 O 0.79119 0.86995 0.51019 0.0
O567 O 0.7916 0.89478 0.49537 0.0
C568 C 0.86105 0.96074 0.51097 0.0
C569 C 0.85465 0.97045 0.52565 0.0
H570 H 0.83849 0.98468 0.55425 0.0
H571 H 0.80948 0.96973 0.56465 0.0
H572 H 0.85038 0.90768 0.47059 0.0
H573 H 0.86934 0.93778 0.48301 0.0
H574 H 0.87391 0.96638 0.50624 0.0
H575 H 0.86273 0.98338 0.53204 0.0
Mn576 Mn 0.92869 0.00952 0.25828 0.0
Mn577 Mn 0.89302 0.00544 0.28363 0.0
C578 C 0.91244 0.98071 0.26199 0.0
C579 C 0.93988 0.01386 0.22932 0.0
C580 C 0.93277 0.01595 0.30079 0.0
O581 O 0.9226 0.03507 0.26083 0.0
O582 O 0.89586 0.02887 0.27295 0.0
C583 C 0.86244 1.00303 0.25393 0.0
N584 N 0.8704 0.99597 0.26841 0.0
C585 C 0.84468 0.97122 0.26638 0.0
C586 C 0.83612 0.97836 0.25158 0.0
C587 C 0.84509 0.99428 0.24527 0.0
C588 C 0.86199 0.98053 0.27443 0.0
H589 H 0.86932 0.01522 0.24904 0.0
C590 C 0.90796 0.03945 0.26576 0.0
O591 O 0.95042 0.0182 0.24498 0.0
O592 O 0.92289 0.00718 0.23048 0.0
N593 N 0.88856 0.98326 0.29472 0.0
C594 C 0.89901 0.9777 0.30858 0.0
C595 C 0.89219 0.96175 0.3162 0.0
C596 C 0.87463 0.95181 0.30966 0.0
C597 C 0.86407 0.95783 0.29546 0.0
C598 C 0.87156 0.97386 0.28846 0.0
H599 H 0.91242 0.98537 0.31387 0.0
O600 O 0.92869 0.98264 0.25681 0.0
O601 O 0.90617 0.99552 0.26443 0.0
O602 O 0.94007 0.01327 0.28585 0.0
O603 O 0.91559 0.0148 0.30091 0.0
C604 C 0.84649 0.94846 0.28787 0.0
C605 C 0.83683 0.95511 0.27328 0.0
H606 H 0.82274 0.97164 0.24486 0.0
H607 H 0.83863 0.9998 0.23377 0.0
H608 H 0.90042 0.95719 0.32716 0.0
H609 H 0.8694 0.93955 0.31562 0.0
H610 H 0.84036 0.936 0.29297 0.0
H611 H 0.82344 0.94764 0.26736 0.0
Mn612 Mn 0.27065 0.63629 0.54176 0.0
Mn613 Mn 0.25949 0.59805 0.51171 0.0
C614 C 0.24068 0.62479 0.53085 0.0
C615 C 0.27688 0.65114 0.5714 0.0
C616 C 0.27558 0.63496 0.50079 0.0
O617 O 0.29359 0.6259 0.54393 0.0
O618 O 0.28371 0.599 0.52604 0.0
C619 C 0.25519 0.57083 0.53851 0.0
N620 N 0.24815 0.57826 0.5238 0.0
C621 C 0.21955 0.55715 0.52168 0.0
C622 C 0.2266 0.5491 0.53662 0.0
C623 C 0.24449 0.55601 0.54511 0.0
C624 C 0.23093 0.57175 0.51557 0.0
H625 H 0.26883 0.57625 0.54523 0.0
C626 C 0.29572 0.61028 0.53732 0.0
O627 O 0.28279 0.65882 0.55736 0.0
O628 O 0.268 0.63444 0.56841 0.0
N629 N 0.23621 0.59545 0.4973 0.0
C630 C 0.23101 0.60553 0.48391 0.0
C631 C 0.21321 0.60093 0.47462 0.0
C632 C 0.20096 0.58596 0.47911 0.0
C633 C 0.20665 0.57569 0.49281 0.0
C634 C 0.22462 0.58083 0.5015 0.0
H635 H 0.24031 0.61712 0.48045 0.0
O636 O 0.24576 0.64168 0.53774 0.0
O637 O 0.25322 0.61502 0.53098 0.0
O638 O 0.27575 0.64377 0.51659 0.0
O639 O 0.27052 0.6177 0.49758 0.0
C640 C 0.19507 0.56081 0.49849 0.0
C641 C 0.20152 0.55154 0.51291 0.0
H642 H 0.21833 0.53777 0.54186 0.0
H643 H 0.24997 0.54999 0.55678 0.0
H644 H 0.2089 0.60897 0.46411 0.0
H645 H 0.18716 0.58259 0.47208 0.0
H646 H 0.18109 0.55657 0.49208 0.0
H647 H 0.1924 0.54029 0.51735 0.0
Mn648 Mn 0.42838 0.51064 0.75791 0.0
Mn649 Mn 0.3931 0.50616 0.78377 0.0
C650 C 0.41229 0.48177 0.76137 0.0
C651 C 0.4393 0.51521 0.72893 0.0
C652 C 0.433 0.51631 0.8005 0.0
O653 O 0.42226 0.53616 0.76085 0.0
O654 O 0.39591 0.52993 0.77366 0.0
C655 C 0.36234 0.50452 0.75449 0.0
N656 N 0.37038 0.49704 0.76859 0.0
C657 C 0.34479 0.47207 0.76589 0.0
C658 C 0.33615 0.47962 0.75146 0.0
C659 C 0.34501 0.49587 0.74567 0.0
C660 C 0.36208 0.48129 0.77411 0.0
H661 H 0.36912 0.51696 0.74999 0.0
C662 C 0.40778 0.54055 0.76625 0.0
O663 O 0.44996 0.51946 0.74453 0.0
O664 O 0.42232 0.50855 0.73019 0.0
N665 N 0.38866 0.48364 0.79427 0.0
C666 C 0.39916 0.47773 0.80784 0.0
C667 C 0.39243 0.46147 0.81495 0.0
C668 C 0.37491 0.45154 0.80819 0.0
C669 C 0.36431 0.45791 0.79429 0.0
C670 C 0.37171 0.47427 0.78781 0.0
H671 H 0.41255 0.48538 0.81329 0.0
O672 O 0.42847 0.4838 0.75606 0.0
O673 O 0.40598 0.49654 0.76414 0.0
O674 O 0.44004 0.51405 0.78533 0.0
O675 O 0.41585 0.5151 0.801 0.0
C676 C 0.34677 0.4486 0.78649 0.0
C677 C 0.33705 0.45563 0.77224 0.0
H678 H 0.32279 0.47298 0.74462 0.0
H679 H 0.33848 0.50172 0.73447 0.0
H680 H 0.40069 0.45664 0.82568 0.0
H681 H 0.36976 0.43903 0.81374 0.0
H682 H 0.34072 0.43589 0.79119 0.0
H683 H 0.32369 0.44821 0.76617 0.0
Mn684 Mn 0.67254 0.04123 0.7537 0.0
Mn685 Mn 0.70858 0.0506 0.78685 0.0
C686 C 0.68487 0.07068 0.76475 0.0
C687 C 0.66046 0.03431 0.72308 0.0
C688 C 0.66973 0.03732 0.79459 0.0
O689 O 0.6815 0.01781 0.75321 0.0
O690 O 0.7068 0.0257 0.77387 0.0
C691 C 0.73803 0.05157 0.76251 0.0
N692 N 0.73006 0.05991 0.776 0.0
C693 C 0.75298 0.08719 0.7782 0.0
C694 C 0.76152 0.07884 0.76444 0.0
C695 C 0.75399 0.06096 0.75654 0.0
C696 C 0.73716 0.07713 0.78365 0.0
H697 H 0.73223 0.03788 0.75632 0.0
C698 C 0.6958 0.01434 0.76173 0.0
O699 O 0.65102 0.02936 0.73639 0.0
O700 O 0.67709 0.04325 0.72755 0.0
N701 N 0.71206 0.07431 0.80029 0.0
C702 C 0.7018 0.08065 0.81291 0.0
C703 C 0.70731 0.09843 0.82188 0.0
C704 C 0.72335 0.10947 0.8179 0.0
C705 C 0.73378 0.10259 0.805 0.0
C706 C 0.72771 0.0847 0.79663 0.0
H707 H 0.68943 0.07226 0.81602 0.0
O708 O 0.66834 0.06646 0.75634 0.0
O709 O 0.69383 0.05758 0.76598 0.0
O710 O 0.66248 0.03696 0.778 0.0
O711 O 0.68694 0.04166 0.79947 0.0
C712 C 0.74983 0.11288 0.79993 0.0
C713 C 0.75939 0.1052 0.7865 0.0
H714 H 0.77377 0.08607 0.75973 0.0
H715 H 0.76044 0.05446 0.74584 0.0
H716 H 0.69916 0.10365 0.8318 0.0
H717 H 0.72747 0.12322 0.82475 0.0
H718 H 0.75482 0.12677 0.80612 0.0
H719 H 0.77158 0.11332 0.78256 0.0
Mn720 Mn 0.76251 0.67799 0.01612 0.0
Mn721 Mn 0.7547 0.6419 0.98281 0.0
C722 C 0.73314 0.66133 0.00688 0.0
C723 C 0.76812 0.69064 0.04775 0.0
C724 C 0.76281 0.68089 0.97396 0.0
O725 O 0.78767 0.67129 0.01606 0.0
O726 O 0.78082 0.64741 0.99349 0.0
C727 C 0.76137 0.61318 0.00616 0.0
N728 N 0.75009 0.61979 0.99391 0.0
C729 C 0.72673 0.59292 0.99235 0.0
C730 C 0.73813 0.58581 0.0049 0.0
C731 C 0.7555 0.59601 0.01186 0.0
C732 C 0.73334 0.61008 0.98712 0.0
H733 H 0.77475 0.62094 0.0115 0.0
C734 C 0.79201 0.65834 0.00584 0.0
O735 O 0.77179 0.70043 0.03435 0.0
O736 O 0.7619 0.67346 0.04284 0.0
N737 N 0.72988 0.63502 0.97165 0.0
C738 C 0.72006 0.64435 0.96074 0.0
C739 C 0.70216 0.6363 0.95312 0.0
C740 C 0.69453 0.61873 0.95679 0.0
C741 C 0.70485 0.60943 0.96815 0.0
C742 C 0.72266 0.61812 0.97528 0.0
H743 H 0.72573 0.65795 0.95814 0.0
O744 O 0.73564 0.67811 0.01417 0.0
O745 O 0.74781 0.65503 0.00469 0.0
O746 O 0.76488 0.68848 0.99077 0.0
O747 O 0.75883 0.66371 0.96971 0.0
C748 C 0.69806 0.59201 0.97293 0.0
C749 C 0.70899 0.58376 0.98503 0.0
H750 H 0.73365 0.57259 0.00937 0.0
H751 H 0.76437 0.59062 0.02157 0.0
H752 H 0.69421 0.64365 0.94454 0.0
H753 H 0.68066 0.61262 0.95102 0.0
H754 H 0.68435 0.58495 0.96761 0.0
H755 H 0.70352 0.57046 0.98881 0.0
Mn756 Mn 0.88637 0.52062 0.78907 0.0
Mn757 Mn 0.85424 0.50879 0.81736 0.0
C758 C 0.87422 0.49064 0.78991 0.0
C759 C 0.89513 0.52949 0.76117 0.0
C760 C 0.89441 0.5211 0.83073 0.0
O761 O 0.87798 0.54405 0.79607 0.0
O762 O 0.8544 0.53409 0.81188 0.0
C763 C 0.82108 0.50888 0.7918 0.0
N764 N 0.831 0.49996 0.80307 0.0
C765 C 0.80752 0.47296 0.79752 0.0
C766 C 0.79699 0.4819 0.78595 0.0
C767 C 0.80384 0.49991 0.78302 0.0
C768 C 0.82463 0.48257 0.80583 0.0
H769 H 0.8263 0.52272 0.78953 0.0
C770 C 0.8644 0.54652 0.80452 0.0
O771 O 0.90625 0.53332 0.77646 0.0
O772 O 0.87858 0.52111 0.76222 0.0
N773 N 0.85255 0.4845 0.82361 0.0
C774 C 0.86467 0.47761 0.83465 0.0
C775 C 0.86003 0.45964 0.83874 0.0
C776 C 0.84291 0.44901 0.83163 0.0
C777 C 0.83061 0.45642 0.8204 0.0
C778 C 0.83598 0.47443 0.81683 0.0
H779 H 0.87779 0.48575 0.84032 0.0
O780 O 0.88981 0.49525 0.78362 0.0
O781 O 0.86605 0.50367 0.79508 0.0
O782 O 0.89974 0.5222 0.81478 0.0
O783 O 0.87768 0.51719 0.83345 0.0
C784 C 0.81326 0.44664 0.81254 0.0
C785 C 0.80178 0.45486 0.80101 0.0
H786 H 0.78368 0.47504 0.77917 0.0
H787 H 0.79583 0.50687 0.77405 0.0
H788 H 0.86959 0.45402 0.84742 0.0
H789 H 0.83937 0.43517 0.83486 0.0
H790 H 0.80865 0.43274 0.81515 0.0
H791 H 0.78857 0.44712 0.79485 0.0
Mn792 Mn 0.78959 0.42017 0.5061 0.0
Mn793 Mn 0.80133 0.45304 0.47865 0.0
C794 C 0.81963 0.43256 0.50535 0.0
C795 C 0.78115 0.40975 0.53346 0.0
C796 C 0.78876 0.41349 0.46418 0.0
O797 O 0.76607 0.42866 0.50004 0.0
O798 O 0.77549 0.45153 0.48319 0.0
C799 C 0.79915 0.48505 0.50459 0.0
N800 N 0.80893 0.47599 0.49352 0.0
C801 C 0.83502 0.50051 0.49987 0.0
C802 C 0.8252 0.51015 0.51127 0.0
C803 C 0.80722 0.50235 0.5137 0.0
C804 C 0.8263 0.48328 0.49124 0.0
H805 H 0.7853 0.47912 0.50641 0.0
C806 C 0.76319 0.4416 0.49081 0.0
O807 O 0.77708 0.39956 0.51765 0.0
O808 O 0.78947 0.42645 0.53329 0.0
N809 N 0.82606 0.45602 0.47325 0.0
C810 C 0.83393 0.44456 0.46254 0.0
C811 C 0.85208 0.45012 0.45911 0.0
C812 C 0.86186 0.46747 0.46651 0.0
C813 C 0.85343 0.47907 0.47739 0.0
C814 C 0.83534 0.47276 0.4804 0.0
H815 H 0.82641 0.43128 0.45667 0.0
O816 O 0.81508 0.41657 0.51069 0.0
O817 O 0.80649 0.44087 0.50072 0.0
O818 O 0.78717 0.40796 0.47996 0.0
O819 O 0.79402 0.4301 0.46187 0.0
C820 C 0.86227 0.49662 0.48544 0.0
C821 C 0.85313 0.50727 0.4968 0.0
H822 H 0.83136 0.52352 0.51828 0.0
H823 H 0.79957 0.50969 0.52252 0.0
H824 H 0.8585 0.44108 0.45072 0.0
H825 H 0.87584 0.47171 0.4638 0.0
H826 H 0.87615 0.50203 0.48311 0.0
H827 H 0.86018 0.52062 0.50315 0.0
Mn828 Mn 0.63231 0.54202 0.28117 0.0
Mn829 Mn 0.66939 0.54983 0.31337 0.0
C830 C 0.64868 0.57149 0.2904 0.0
C831 C 0.61925 0.53626 0.24969 0.0
C832 C 0.63047 0.53917 0.32283 0.0
O833 O 0.63969 0.51709 0.28108 0.0
O834 O 0.66615 0.5248 0.30049 0.0
C835 C 0.69895 0.54876 0.28945 0.0
N836 N 0.69121 0.55791 0.30254 0.0
C837 C 0.71564 0.58398 0.30504 0.0
C838 C 0.72389 0.57481 0.29162 0.0
C839 C 0.71549 0.55714 0.28377 0.0
C840 C 0.69921 0.57491 0.31022 0.0
H841 H 0.69255 0.53518 0.28339 0.0
C842 C 0.6543 0.5134 0.28918 0.0
O843 O 0.60969 0.53218 0.26318 0.0
O844 O 0.63644 0.54296 0.25443 0.0
N845 N 0.67385 0.57383 0.32636 0.0
C846 C 0.66355 0.58123 0.33823 0.0
C847 C 0.66971 0.59911 0.34679 0.0
C848 C 0.68642 0.60916 0.34312 0.0
C849 C 0.69681 0.60124 0.3309 0.0
C850 C 0.69001 0.58334 0.32284 0.0
H851 H 0.65068 0.57361 0.3411 0.0
O852 O 0.63176 0.56879 0.28319 0.0
O853 O 0.65513 0.55695 0.29239 0.0
O854 O 0.62234 0.53954 0.3066 0.0
O855 O 0.64782 0.54202 0.32632 0.0
C856 C 0.71348 0.61052 0.32612 0.0
C857 C 0.72288 0.6019 0.3132 0.0
H858 H 0.73659 0.58126 0.28712 0.0
H859 H 0.72175 0.54999 0.27337 0.0
H860 H 0.66157 0.60514 0.35615 0.0
H861 H 0.69106 0.62299 0.34963 0.0
H862 H 0.71906 0.62437 0.33212 0.0
H863 H 0.73554 0.60928 0.30943 0.0
C864 C 0.99083 0.97231 1.00142 0.0
C865 C 0.9719 0.96263 0.02517 0.0
C866 C 0.98264 0.97656 0.01715 0.0
C867 C 0.9699 0.94447 0.01745 0.0
C868 C 0.98833 0.95417 0.99324 0.0
C869 C 0.97801 0.94027 1.00148 0.0
N870 N 1.00122 0.98595 0.99404 0.0
C871 C 0.0084 0.98264 0.97782 0.0
C872 C 0.99628 0.95056 0.97701 0.0
C873 C 1.00622 0.96489 0.96918 0.0
Gd874 Gd 0.05127 0.03788 0.03452 0.0
Gd875 Gd 1.00294 0.01534 0.00853 0.0
N876 N 0.98447 0.99431 0.02407 0.0
C877 C 0.96304 0.96738 0.0404 0.0
C878 C 0.97467 0.99903 0.03797 0.0
C879 C 0.96424 0.98568 0.04666 0.0
H880 H 0.97441 0.01305 0.04215 0.0
H881 H 0.95681 0.98952 0.05793 0.0
H882 H 0.07472 0.05243 1.00078 0.0
H883 H 0.01571 0.99368 0.97147 0.0
H884 H 0.08874 0.08163 0.99046 0.0
H885 H 0.95472 0.95708 0.04699 0.0
H886 H 0.96177 0.93361 0.0235 0.0
H887 H 0.04155 0.04846 0.07857 0.0
H888 H 0.99463 0.93681 0.97029 0.0
H889 H 0.01211 0.96227 0.95644 0.0
H890 H 0.07668 0.1267 0.03631 0.0
H891 H 0.97608 0.92623 0.9955 0.0
H892 H 0.04892 0.1061 0.08896 0.0
H893 H 0.03952 0.07567 0.09891 0.0
N894 N 0.04958 0.06292 0.05594 0.0
C895 C 0.05602 0.07957 0.05077 0.0
C896 C 0.04454 0.06147 0.07339 0.0
C897 C 0.04923 0.09411 0.07961 0.0
C898 C 0.04385 0.07696 0.08525 0.0
C899 C 0.05586 0.0956 0.0624 0.0
H900 H 0.06283 0.12501 0.06554 0.0
N901 N 0.0644 0.06493 0.02374 0.0
C902 C 0.06394 0.0806 0.03436 0.0
C903 C 0.08051 0.09787 0.01292 0.0
C904 C 0.07174 0.09754 0.02906 0.0
C905 C 0.07368 0.06506 0.00852 0.0
C906 C 0.08168 0.08154 0.00273 0.0
O907 O 0.02296 0.99625 0.01553 0.0
O908 O 0.0394 0.01021 0.04287 0.0
O909 O 0.07611 0.02833 0.03009 0.0
O910 O 0.07428 0.04399 0.05613 0.0
O911 O 1.00289 0.03082 0.03698 0.0
O912 O 0.02968 0.02676 0.05246 0.0
O913 O 0.03721 0.05382 0.01415 0.0
O914 O 0.00732 0.04577 0.01831 0.0
O915 O 0.97411 0.01159 0.99907 0.0
O916 O 0.99399 0.02219 0.98128 0.0
O917 O 0.05125 0.0221 0.00627 0.0
O918 O 0.02432 0.02509 0.99015 0.0
C919 C 0.03224 0.99526 0.03172 0.0
C920 C 0.01272 0.02898 0.05241 0.0
C921 C 0.09048 0.02003 0.05705 0.0
C922 C 0.10966 0.99744 0.0575 0.0
C923 C 0.09042 1.00081 0.08201 0.0
C924 C 0.08394 0.0146 0.07352 0.0
C925 C 0.10328 0.99226 0.07409 0.0
C926 C 0.10332 0.01143 0.0492 0.0
C927 C 0.0835 0.03382 0.04711 0.0
C928 C 0.07089 0.11353 0.04021 0.0
C929 C 0.06296 0.11257 0.05683 0.0
H930 H 0.0867 0.11062 0.00841 0.0
C931 C 0.02085 0.05777 0.01384 0.0
C932 C 0.04138 0.02325 0.9906 0.0
C933 C 0.96759 0.03462 0.9811 0.0
C934 C 0.94936 0.05613 0.99212 0.0
C935 C 0.95937 0.05668 0.96134 0.0
C936 C 0.96798 0.04213 0.9642 0.0
C937 C 0.95001 0.0636 0.97515 0.0
C938 C 0.95858 0.04193 0.99511 0.0
C939 C 0.97693 0.01948 0.98416 0.0
H940 H 0.08534 0.99664 0.09467 0.0
H941 H 0.07375 0.02084 0.07971 0.0
H942 H 0.10805 0.98148 0.08073 0.0
H943 H 0.10838 0.01565 0.03651 0.0
H944 H 0.95968 0.0624 0.94825 0.0
H945 H 0.97499 0.03678 0.95325 0.0
H946 H 0.94283 0.0744 0.97229 0.0
H947 H 0.95858 0.03647 0.00836 0.0
C948 C 0.31687 0.74479 0.22582 0.0
C949 C 0.29762 0.73527 0.19641 0.0
C950 C 0.30215 0.74654 0.2135 0.0
C951 C 0.30771 0.72182 0.19219 0.0
C952 C 0.32733 0.73161 0.22139 0.0
C953 C 0.32252 0.72 0.20465 0.0
N954 N 0.32119 0.75624 0.24193 0.0
C955 C 0.33642 0.75586 0.25365 0.0
C956 C 0.3425 0.73068 0.23378 0.0
C957 C 0.34716 0.74299 0.24988 0.0
Gd958 Gd 0.26853 0.77588 0.29367 0.0
Gd959 Gd 0.30198 0.77713 0.24692 0.0
N960 N 0.29257 0.75961 0.21799 0.0
C961 C 0.28334 0.73812 0.1839 0.0
C962 C 0.27952 0.76326 0.20532 0.0
C963 C 0.27445 0.75238 0.18826 0.0
H964 H 0.27326 0.77482 0.20808 0.0
H965 H 0.26386 0.75515 0.17838 0.0
H966 H 0.30512 0.78353 0.32761 0.0
H967 H 0.34068 0.76566 0.26572 0.0
H968 H 0.31883 0.80627 0.35366 0.0
H969 H 0.27945 0.72977 0.17062 0.0
H970 H 0.30435 0.71296 0.17919 0.0
H971 H 0.22756 0.78451 0.28152 0.0
H972 H 0.3509 0.72078 0.23087 0.0
H973 H 0.35915 0.7427 0.25931 0.0
H974 H 0.27617 0.84593 0.35825 0.0
H975 H 0.33034 0.70973 0.20107 0.0
H976 H 0.22101 0.8315 0.31605 0.0
H977 H 0.20906 0.80714 0.29016 0.0
N978 N 0.24987 0.7962 0.302 0.0
C979 C 0.25651 0.80917 0.31649 0.0
C980 C 0.23298 0.7952 0.29271 0.0
C981 C 0.22921 0.82164 0.31226 0.0
C982 C 0.22242 0.80793 0.29763 0.0
C983 C 0.24641 0.82234 0.32197 0.0
H984 H 0.2462 0.84598 0.34131 0.0
N985 N 0.28257 0.79598 0.3204 0.0
C986 C 0.27342 0.80913 0.32592 0.0
C987 C 0.29735 0.82146 0.35104 0.0
C988 C 0.28062 0.8223 0.34127 0.0
C989 C 0.29841 0.7946 0.33062 0.0
C990 C 0.30615 0.8074 0.34582 0.0
O991 O 0.28833 0.74805 0.24844 0.0
O992 O 0.27928 0.7644 0.26981 0.0
O993 O 0.26661 0.7542 0.31115 0.0
O994 O 0.24222 0.7586 0.29539 0.0
O995 O 0.27214 0.78125 0.24092 0.0
O996 O 0.25291 0.77529 0.26481 0.0
O997 O 0.27595 0.80363 0.2848 0.0
O998 O 0.29919 0.79417 0.2731 0.0
O999 O 0.30304 0.79943 0.23 0.0
O1000 O 0.32802 0.792 0.24133 0.0
O1001 O 0.29648 0.76743 0.29829 0.0
O1002 O 0.31645 0.7783 0.27674 0.0
C1003 C 0.27848 0.7482 0.26193 0.0
C1004 C 0.25602 0.7792 0.24772 0.0
C1005 C 0.24019 0.75017 0.32593 0.0
C1006 C 0.23982 0.74054 0.35697 0.0
C1007 C 0.22106 0.76175 0.34731 0.0
C1008 C 0.22753 0.76112 0.32993 0.0
C1009 C 0.22723 0.75162 0.36084 0.0
C1010 C 0.2461 0.73984 0.33943 0.0
C1011 C 0.24888 0.75046 0.30866 0.0
C1012 C 0.27079 0.83567 0.34657 0.0
C1013 C 0.25371 0.83569 0.33695 0.0
H1014 H 0.30334 0.8313 0.36289 0.0
C1015 C 0.28908 0.8064 0.27432 0.0
C1016 C 0.31299 0.77123 0.29253 0.0
C1017 C 0.32713 0.80151 0.21122 0.0
C1018 C 0.32582 0.81211 0.18056 0.0
C1019 C 0.34598 0.79157 0.18857 0.0
C1020 C 0.34011 0.79129 0.20617 0.0
C1021 C 0.33892 0.8019 0.17582 0.0
C1022 C 0.32009 0.81191 0.19836 0.0
C1023 C 0.32061 0.80136 0.22968 0.0
H1024 H 0.21136 0.77026 0.35037 0.0
H1025 H 0.22286 0.76939 0.31983 0.0
H1026 H 0.22205 0.75231 0.37422 0.0
H1027 H 0.2562 0.73174 0.33646 0.0
H1028 H 0.35604 0.78375 0.1848 0.0
H1029 H 0.34574 0.78306 0.21576 0.0
H1030 H 0.34384 0.80203 0.16232 0.0
H1031 H 0.30987 0.81957 0.20214 0.0
C1032 C 0.57533 0.07263 0.50276 0.0
C1033 C 0.59752 0.08807 0.52859 0.0
C1034 C 0.58382 0.07313 0.52071 0.0
C1035 C 0.60221 0.10277 0.51837 0.0
C1036 C 0.58048 0.08713 0.49225 0.0
C1037 C 0.59369 0.10232 0.50026 0.0
N1038 N 0.56285 0.05758 0.49523 0.0
C1039 C 0.55645 0.05551 0.47677 0.0
C1040 C 0.57269 0.08566 0.47375 0.0
C1041 C 0.56085 0.06965 0.4659 0.0
Gd1042 Gd 0.5069 0.03025 0.5337 0.0
Gd1043 Gd 0.55671 0.0347 0.51493 0.0
N1044 N 0.57879 0.05887 0.53043 0.0
C1045 C 0.60619 0.08771 0.54647 0.0
C1046 C 0.58776 0.05802 0.54744 0.0
C1047 C 0.60139 0.07254 0.55586 0.0
H1048 H 0.58446 0.04607 0.55441 0.0
H1049 H 0.6083 0.07194 0.5695 0.0
H1050 H 0.48267 0.01929 0.49105 0.0
H1051 H 0.54851 0.04277 0.47012 0.0
H1052 H 0.46083 0.99322 0.47387 0.0
H1053 H 0.61678 0.09893 0.553 0.0
H1054 H 0.6126 0.11444 0.52424 0.0
H1055 H 0.51558 0.01929 0.57687 0.0
H1056 H 0.5763 0.09648 0.46521 0.0
H1057 H 0.55545 0.068 0.45134 0.0
H1058 H 0.45115 0.9505 0.51842 0.0
H1059 H 0.59772 0.1136 0.49241 0.0
H1060 H 0.48357 0.96667 0.57961 0.0
H1061 H 0.50597 0.99367 0.59465 0.0
N1062 N 0.49943 0.00656 0.55175 0.0
C1063 C 0.48654 0.99219 0.54338 0.0
C1064 C 0.50614 0.00741 0.57 0.0
C1065 C 0.48782 0.97783 0.57168 0.0
C1066 C 0.50055 0.99301 0.58019 0.0
C1067 C 0.48061 0.97729 0.55308 0.0
H1068 H 0.46314 0.95072 0.55115 0.0
N1069 N 0.48572 0.00668 0.51574 0.0
C1070 C 0.47964 0.99216 0.52485 0.0
C1071 C 0.46022 0.97744 0.49705 0.0
C1072 C 0.46681 0.97709 0.51566 0.0
C1073 C 0.47881 0.00736 0.49784 0.0
C1074 C 0.46615 0.99269 0.48815 0.0
O1075 O 0.55134 0.05938 0.53349 0.0
O1076 O 0.52069 0.05748 0.52598 0.0
O1077 O 0.4797 0.03714 0.53181 0.0
O1078 O 0.49838 0.04428 0.55772 0.0
O1079 O 0.55036 0.0215 0.54037 0.0
O1080 O 0.53168 0.03755 0.555 0.0
O1081 O 0.51774 1.00387 0.52702 0.0
O1082 O 0.53517 0.00968 0.50315 0.0
O1083 O 0.57674 0.01768 0.52243 0.0
O1084 O 0.57521 0.02854 0.49563 0.0
O1085 O 0.50977 0.04178 0.50648 0.0
O1086 O 0.53207 0.02901 0.49349 0.0
C1087 C 0.5368 0.06698 0.53305 0.0
C1088 C 0.54584 0.02965 0.55538 0.0
C1089 C 0.46882 0.05305 0.55823 0.0
C1090 C 0.44207 0.06752 0.55748 0.0
C1091 C 0.45786 0.06295 0.58703 0.0
C1092 C 0.47019 0.05494 0.57773 0.0
C1093 C 0.44399 0.06923 0.57706 0.0
C1094 C 0.45469 0.05939 0.54807 0.0
C1095 C 0.48251 0.0448 0.54895 0.0
C1096 C 0.46098 0.96219 0.52528 0.0
C1097 C 0.46781 0.96231 0.54393 0.0
H1098 H 0.45038 0.96611 0.4895 0.0
C1099 C 0.52546 0.99809 0.51259 0.0
C1100 C 0.51802 0.03706 0.49218 0.0
C1101 C 0.59815 0.01032 0.50035 0.0
C1102 C 0.62085 0.99121 0.50473 0.0
C1103 C 0.61758 0.00521 0.47625 0.0
C1104 C 0.60375 0.01317 0.48276 0.0
C1105 C 0.62607 0.9943 0.48714 0.0
C1106 C 0.60684 0.99925 0.51141 0.0
C1107 C 0.58312 0.01886 0.50645 0.0
H1108 H 0.45912 0.06442 0.60209 0.0
H1109 H 0.48086 0.0502 0.58586 0.0
H1110 H 0.43489 0.07575 0.5848 0.0
H1111 H 0.45352 0.05802 0.533 0.0
H1112 H 0.62173 0.00752 0.4627 0.0
H1113 H 0.59741 0.02155 0.4739 0.0
H1114 H 0.63683 0.98825 0.48184 0.0
H1115 H 0.60277 0.99688 0.525 0.0
C1116 C 0.23657 0.29309 0.72985 0.0
C1117 C 0.21853 0.26454 0.71432 0.0
C1118 C 0.23007 0.27456 0.72977 0.0
C1119 C 0.2137 0.27333 0.69896 0.0
C1120 C 0.23171 0.30195 0.71445 0.0
C1121 C 0.22026 0.29197 0.69902 0.0
N1122 N 0.24782 0.30238 0.74487 0.0
C1123 C 0.25427 0.32061 0.74561 0.0
C1124 C 0.23852 0.32058 0.715 0.0
C1125 C 0.24979 0.32995 0.73067 0.0
Gd1126 Gd 0.30287 0.26978 0.77581 0.0
Gd1127 Gd 0.25407 0.28539 0.7692 0.0
N1128 N 0.23534 0.2663 0.74466 0.0
C1129 C 0.21213 0.24597 0.7148 0.0
C1130 C 0.22844 0.24843 0.74556 0.0
C1131 C 0.21697 0.23792 0.73057 0.0
H1132 H 0.23135 0.2423 0.75792 0.0
H1133 H 0.2117 0.22368 0.73128 0.0
H1134 H 0.32246 0.31306 0.79154 0.0
H1135 H 0.26255 0.3281 0.75786 0.0
H1136 H 0.34 0.33033 0.82017 0.0
H1137 H 0.20322 0.2378 0.70322 0.0
H1138 H 0.20486 0.26583 0.68696 0.0
H1139 H 0.29699 0.22577 0.78259 0.0
H1140 H 0.23507 0.32788 0.70345 0.0
H1141 H 0.25494 0.34441 0.73131 0.0
H1142 H 0.34736 0.28473 0.86041 0.0
H1143 H 0.21639 0.29855 0.68707 0.0
H1144 H 0.32145 0.22267 0.83757 0.0
H1145 H 0.30406 0.20754 0.80778 0.0
N1146 N 0.30951 0.25098 0.79829 0.0
C1147 C 0.31945 0.25956 0.81439 0.0
C1148 C 0.30418 0.23254 0.7957 0.0
C1149 C 0.31824 0.23075 0.82663 0.0
C1150 C 0.30837 0.22216 0.80985 0.0
C1151 C 0.324 0.24966 0.82905 0.0
H1152 H 0.33765 0.2515 0.85704 0.0
N1153 N 0.31974 0.28766 0.80221 0.0
C1154 C 0.32493 0.27839 0.81632 0.0
C1155 C 0.34034 0.30658 0.83434 0.0
C1156 C 0.3351 0.28766 0.83291 0.0
C1157 C 0.32551 0.30597 0.80319 0.0
C1158 C 0.33568 0.31575 0.81934 0.0
O1159 O 0.26639 0.27682 0.74286 0.0
O1160 O 0.28369 0.25573 0.75061 0.0
O1161 O 0.32576 0.2806 0.76106 0.0
O1162 O 0.32354 0.25401 0.77011 0.0
O1163 O 0.2565 0.26036 0.7836 0.0
O1164 O 0.27821 0.24683 0.77046 0.0
O1165 O 0.29005 0.27764 0.80201 0.0
O1166 O 0.27369 0.29911 0.79398 0.0
O1167 O 0.23066 0.2773 0.78514 0.0
O1168 O 0.23626 0.30393 0.77515 0.0
O1169 O 0.30017 0.2945 0.76101 0.0
O1170 O 0.2789 0.30809 0.77455 0.0
C1171 C 0.27449 0.26323 0.73819 0.0
C1172 C 0.26316 0.24589 0.7786 0.0
C1173 C 0.33791 0.25884 0.74288 0.0
C1174 C 0.35956 0.25947 0.71952 0.0
C1175 C 0.33097 0.23731 0.7149 0.0
C1176 C 0.32629 0.24416 0.73184 0.0
C1177 C 0.34739 0.24489 0.70875 0.0
C1178 C 0.35473 0.26639 0.73676 0.0
C1179 C 0.33254 0.2659 0.76085 0.0
C1180 C 0.33961 0.27782 0.84754 0.0
C1181 C 0.33407 0.25888 0.84562 0.0
H1182 H 0.34816 0.31421 0.84686 0.0
C1183 C 0.28166 0.29097 0.80661 0.0
C1184 C 0.29384 0.30904 0.76631 0.0
C1185 C 0.20956 0.29839 0.79154 0.0
C1186 C 0.185 0.29553 0.81177 0.0
C1187 C 0.1889 0.31972 0.79191 0.0
C1188 C 0.20368 0.31362 0.7852 0.0
C1189 C 0.17968 0.31081 0.8051 0.0
C1190 C 0.2 0.28918 0.80489 0.0
C1191 C 0.22577 0.2929 0.78402 0.0
H1192 H 0.32186 0.22597 0.70652 0.0
H1193 H 0.31366 0.23785 0.73649 0.0
H1194 H 0.35072 0.2391 0.69562 0.0
H1195 H 0.36388 0.27765 0.74524 0.0
H1196 H 0.1846 0.33148 0.78688 0.0
H1197 H 0.21053 0.32094 0.77494 0.0
H1198 H 0.16825 0.31587 0.81015 0.0
H1199 H 0.20427 0.27743 0.81 0.0
C1200 C 0.00999 0.0689 0.56574 0.0
C1201 C 0.0376 0.08486 0.58511 0.0
C1202 C 0.02888 0.07465 0.56833 0.0
C1203 C 0.02713 0.08917 0.59925 0.0
C1204 C 0.99945 0.07328 0.57988 0.0
C1205 C 0.00812 0.08341 0.59664 0.0
N1206 N 1.00197 0.05893 0.54946 0.0
C1207 C 0.98348 0.05333 0.54621 0.0
C1208 C 0.98049 0.06733 0.57678 0.0
C1209 C 0.97248 0.05737 0.55984 0.0
Gd1210 Gd 0.03839 0.00461 0.52182 0.0
Gd1211 Gd 0.02177 0.05264 0.5279 0.0
N1212 N 0.03875 0.06974 0.55464 0.0
C1213 C 0.05661 0.09038 0.58718 0.0
C1214 C 0.05716 0.07574 0.55624 0.0
C1215 C 0.0664 0.08594 0.57262 0.0
H1216 H 0.06473 0.07268 0.54495 0.0
H1217 H 0.08106 0.09042 0.57397 0.0
H1218 H 0.99543 0.98072 0.51163 0.0
H1219 H 0.97716 0.04596 0.53301 0.0
H1220 H 0.97608 0.96197 0.48487 0.0
H1221 H 0.06383 0.09822 0.59987 0.0
H1222 H 0.0336 0.09697 0.61226 0.0
H1223 H 0.08091 0.01309 0.50971 0.0
H1224 H 0.97192 0.07042 0.5873 0.0
H1225 H 0.95782 0.05287 0.55725 0.0
H1226 H 0.01698 0.95746 0.43871 0.0
H1227 H 1.00024 0.08687 0.60769 0.0
H1228 H 0.0795 0.98735 0.45441 0.0
H1229 H 0.09668 0.00634 0.48248 0.0
N1230 N 0.0549 0.99867 0.49696 0.0
C1231 C 0.04528 0.98782 0.48187 0.0
C1232 C 0.07317 0.00514 0.49741 0.0
C1233 C 0.07246 0.99038 0.46629 0.0
C1234 C 0.0822 1.00116 0.48207 0.0
C1235 C 0.05379 0.98351 0.46605 0.0
H1236 H 0.04973 0.96917 0.43821 0.0
N1237 N 0.01885 0.98594 0.49748 0.0
C1238 C 0.02675 0.98124 0.48213 0.0
C1239 C 0.99782 0.9635 0.46751 0.0
C1240 C 0.01636 0.97014 0.46661 0.0
C1241 C 1.00112 0.97859 0.49884 0.0
C1242 C 0.99024 0.96755 0.4838 0.0
O1243 O 0.03027 0.04036 0.55431 0.0
O1244 O 0.05205 0.02403 0.54678 0.0
O1245 O 0.03076 0.98085 0.53729 0.0
O1246 O 0.05759 0.98742 0.52774 0.0
O1247 O 0.04692 0.05047 0.51368 0.0
O1248 O 0.06114 0.02949 0.527 0.0
O1249 O 0.03045 0.0174 0.49557 0.0
O1250 O 0.0081 0.03316 0.50284 0.0
O1251 O 0.03291 0.07521 0.51303 0.0
O1252 O 1.00584 0.07292 0.52115 0.0
O1253 O 0.01316 0.00677 0.53628 0.0
O1254 O 0.99927 0.02774 0.52231 0.0
C1255 C 0.044 0.03248 0.55912 0.0
C1256 C 0.06174 0.04459 0.51914 0.0
C1257 C 0.05271 0.96061 0.54399 0.0
C1258 C 0.04863 0.93386 0.56125 0.0
C1259 C 0.07611 0.94226 0.54645 0.0
C1260 C 0.06973 0.95698 0.54004 0.0
C1261 C 0.06566 0.93078 0.55688 0.0
C1262 C 0.04212 0.94897 0.55487 0.0
C1263 C 0.04669 0.9765 0.53633 0.0
C1264 C 0.02477 0.96593 0.45079 0.0
C1265 C 0.04343 0.97258 0.45051 0.0
H1266 H 0.98937 0.95492 0.45588 0.0
C1267 C 0.01621 0.02452 0.4906 0.0
C1268 C 0.99848 0.01305 0.53089 0.0
C1269 C 0.01123 0.08602 0.49335 0.0
C1270 C 0.01146 0.1067 0.46908 0.0
C1271 C 0.99117 0.07698 0.4644 0.0
C1272 C 0.99775 0.07326 0.4819 0.0
C1273 C 0.99789 0.09349 0.45805 0.0
C1274 C 0.01804 0.10285 0.48693 0.0
C1275 C 0.01797 0.08167 0.51193 0.0
H1276 H 0.08924 0.9397 0.54326 0.0
H1277 H 0.07824 0.96551 0.53184 0.0
H1278 H 0.07098 0.91941 0.56169 0.0
H1279 H 0.02899 0.95148 0.55813 0.0
H1280 H 0.98069 0.06703 0.45574 0.0
H1281 H 0.99219 0.06045 0.48661 0.0
H1282 H 0.99219 0.09602 0.44451 0.0
H1283 H 0.0285 0.11275 0.49569 0.0
C1284 C 0.2389 0.73641 0.79603 0.0
C1285 C 0.22067 0.71614 0.77022 0.0
C1286 C 0.2371 0.72786 0.77799 0.0
C1287 C 0.20583 0.71356 0.78066 0.0
C1288 C 0.22426 0.73321 0.80683 0.0
C1289 C 0.20762 0.72208 0.79892 0.0
N1290 N 0.25526 0.74695 0.80336 0.0
C1291 C 0.25841 0.7529 0.82195 0.0
C1292 C 0.227 0.74073 0.82547 0.0
C1293 C 0.24425 0.75033 0.83314 0.0
Gd1294 Gd 0.28188 0.80135 0.76502 0.0
Gd1295 Gd 0.27767 0.75132 0.78275 0.0
N1296 N 0.25157 0.7309 0.76807 0.0
C1297 C 0.21976 0.70714 0.75228 0.0
C1298 C 0.25111 0.72151 0.75098 0.0
C1299 C 0.23513 0.70967 0.74272 0.0
H1300 H 0.263 0.72342 0.74367 0.0
H1301 H 0.23467 0.70252 0.72899 0.0
H1302 H 0.29113 0.82556 0.80755 0.0
H1303 H 0.27189 0.7594 0.82837 0.0
H1304 H 0.31609 0.84868 0.82498 0.0
H1305 H 0.20739 0.698 0.74584 0.0
H1306 H 0.19304 0.70472 0.77489 0.0
H1307 H 0.29399 0.79349 0.72215 0.0
H1308 H 0.21612 0.73858 0.83424 0.0
H1309 H 0.24675 0.75548 0.84777 0.0
H1310 H 0.35914 0.86122 0.78108 0.0
H1311 H 0.1962 0.7196 0.80697 0.0
H1312 H 0.34536 0.8284 0.72004 0.0
H1313 H 0.31951 0.80465 0.70478 0.0
N1314 N 0.30568 0.81003 0.74736 0.0
C1315 C 0.31937 0.82363 0.75583 0.0
C1316 C 0.30539 0.80347 0.72917 0.0
C1317 C 0.33425 0.82344 0.72782 0.0
C1318 C 0.31974 0.80995 0.71918 0.0
C1319 C 0.33418 0.8305 0.74633 0.0
H1320 H 0.35996 0.84948 0.74851 0.0
N1321 N 0.30442 0.82341 0.78321 0.0
C1322 C 0.31881 0.83038 0.77428 0.0
C1323 C 0.33226 0.8504 0.80209 0.0
C1324 C 0.33318 0.84399 0.78357 0.0
C1325 C 0.30311 0.83011 0.801 0.0
C1326 C 0.31711 0.84351 0.81079 0.0
O1327 O 0.25354 0.75758 0.76361 0.0
O1328 O 0.2546 0.78752 0.77294 0.0
O1329 O 0.27393 0.82791 0.76714 0.0
O1330 O 0.26741 0.80961 0.74101 0.0
O1331 O 0.29149 0.75853 0.75784 0.0
O1332 O 0.27542 0.7771 0.7432 0.0
O1333 O 0.30917 0.79193 0.77247 0.0
O1334 O 0.30406 0.77146 0.79411 0.0
O1335 O 0.29221 0.7297 0.7736 0.0
O1336 O 0.28514 0.73316 0.80181 0.0
O1337 O 0.27029 0.79699 0.7919 0.0
O1338 O 0.28469 0.77565 0.80441 0.0
C1339 C 0.24526 0.77155 0.76549 0.0
C1340 C 0.28322 0.7629 0.74279 0.0
C1341 C 0.25747 0.83855 0.74093 0.0
C1342 C 0.24256 0.86484 0.74219 0.0
C1343 C 0.24767 0.85019 0.71243 0.0
C1344 C 0.25575 0.83771 0.72145 0.0
C1345 C 0.24119 0.86367 0.72268 0.0
C1346 C 0.25069 0.85214 0.75135 0.0
C1347 C 0.26631 0.82513 0.74997 0.0
C1348 C 0.34798 0.85077 0.77414 0.0
C1349 C 0.34845 0.84409 0.75558 0.0
H1350 H 0.34305 0.86082 0.80972 0.0
C1351 C 0.3153 0.78287 0.78573 0.0
C1352 C 0.27625 0.78931 0.80607 0.0
C1353 C 0.29588 0.70589 0.79355 0.0
C1354 C 0.31389 0.68207 0.79081 0.0
C1355 C 0.29132 0.68095 0.81257 0.0
C1356 C 0.28682 0.69695 0.80713 0.0
C1357 C 0.30479 0.67358 0.80452 0.0
C1358 C 0.30944 0.69828 0.78533 0.0
C1359 C 0.29332 0.72436 0.79012 0.0
H1360 H 0.24646 0.84943 0.69741 0.0
H1361 H 0.2608 0.82745 0.71314 0.0
H1362 H 0.23491 0.87318 0.71531 0.0
H1363 H 0.25184 0.85292 0.76639 0.0
H1364 H 0.28449 0.67435 0.82326 0.0
H1365 H 0.2766 0.70259 0.81396 0.0
H1366 H 0.30819 0.66121 0.80903 0.0
H1367 H 0.31681 0.70515 0.77511 0.0
C1368 C 0.56418 0.99849 0.07046 0.0
C1369 C 0.57715 0.02033 0.09736 0.0
C1370 C 0.56458 0.01485 0.08119 0.0
C1371 C 0.58942 0.00923 0.10251 0.0
C1372 C 0.57628 0.98717 0.07581 0.0
C1373 C 0.58898 0.99271 0.09177 0.0
N1374 N 0.55163 0.99338 0.05516 0.0
C1375 C 0.54983 0.97669 0.04526 0.0
C1376 C 0.57504 0.97044 0.06518 0.0
C1377 C 0.56165 0.96512 0.04994 0.0
Gd1378 Gd 0.53283 0.04602 1.00138 0.0
Gd1379 Gd 0.5323 0.01379 0.04885 0.0
N1380 N 0.55266 0.02542 0.07578 0.0
C1381 C 0.57693 0.03673 0.10799 0.0
C1382 C 0.55196 0.04111 0.08648 0.0
C1383 C 0.5642 0.04709 0.10259 0.0
H1384 H 0.54195 0.04905 0.08285 0.0
H1385 H 0.56369 0.05964 0.1109 0.0
H1386 H 0.53603 0.01917 0.96237 0.0
H1387 H 0.53902 0.97197 0.03399 0.0
H1388 H 0.51762 0.0073 0.93235 0.0
H1389 H 0.58636 0.04139 0.12051 0.0
H1390 H 0.59919 0.01325 0.11487 0.0
H1391 H 0.51606 0.08137 0.01813 0.0
H1392 H 0.58408 0.96137 0.06885 0.0
H1393 H 0.56026 0.95199 0.04194 0.0
H1394 H 0.46763 0.0387 0.93135 0.0
H1395 H 0.5984 0.9842 0.09604 0.0
H1396 H 0.46884 0.08495 0.98177 0.0
H1397 H 0.49012 0.09621 0.01044 0.0
N1398 N 0.50928 0.06164 0.99437 0.0
C1399 C 0.49814 0.05564 0.9783 0.0
C1400 C 0.50681 0.07627 0.00568 0.0
C1401 C 0.48016 0.07833 0.98514 0.0
C1402 C 0.49215 0.08474 1.00133 0.0
C1403 C 0.48319 0.06374 0.97327 0.0
H1404 H 0.46037 0.0632 0.9524 0.0
N1405 N 0.51711 0.03487 0.97165 0.0
C1406 C 0.50212 0.04173 0.96661 0.0
C1407 C 0.4968 0.02275 0.93714 0.0
C1408 C 0.49142 0.03572 0.94932 0.0
C1409 C 0.52319 0.02333 0.9592 0.0
C1410 C 0.51294 0.01679 0.94197 0.0
O1411 O 0.56065 0.02991 0.04849 0.0
O1412 O 0.54477 0.03357 0.02369 0.0
O1413 O 0.55616 0.04988 0.98595 0.0
O1414 O 0.54881 0.07308 1.00084 0.0
O1415 O 0.52517 0.04235 0.05258 0.0
O1416 O 0.53626 0.06163 0.03057 0.0
O1417 O 0.50533 0.03845 0.011 0.0
O1418 O 0.51405 0.01457 0.02261 0.0
O1419 O 0.51093 0.0148 0.06672 0.0
O1420 O 0.51734 0.98896 0.05718 0.0
O1421 O 0.53621 0.01632 0.99486 0.0
O1422 O 0.53432 0.99838 0.02011 0.0
C1423 C 0.56062 0.03725 0.03329 0.0
C1424 C 0.52959 0.05862 0.04658 0.0
C1425 C 0.55916 0.07654 0.97131 0.0
C1426 C 0.56684 0.07653 0.93949 0.0
C1427 C 0.55046 0.09888 0.9521 0.0
C1428 C 0.55081 0.0915 0.969 0.0
C1429 C 0.5583 0.09137 0.93734 0.0
C1430 C 0.56737 0.06934 0.95657 0.0
C1431 C 0.5585 0.0675 0.98842 0.0
C1432 C 0.47611 0.04327 0.94449 0.0
C1433 C 0.472 0.05725 0.95645 0.0
H1434 H 0.48896 0.01778 0.92373 0.0
C1435 C 0.50204 0.02498 0.02101 0.0
C1436 C 0.53634 1.00081 0.00234 0.0
C1437 C 0.5098 0.99316 0.08791 0.0
C1438 C 0.49873 0.99582 0.1182 0.0
C1439 C 0.52506 0.98207 0.11417 0.0
C1440 C 0.52365 0.98482 0.09542 0.0
C1441 C 0.51274 0.98762 0.12558 0.0
C1442 C 0.49731 0.99845 0.09931 0.0
C1443 C 0.50878 0.99759 0.06864 0.0
H1444 H 0.54396 0.11035 0.95038 0.0
H1445 H 0.54433 0.09735 0.98011 0.0
H1446 H 0.55786 0.09727 0.92434 0.0
H1447 H 0.57369 0.0577 0.9582 0.0
H1448 H 0.53581 0.97573 0.11991 0.0
H1449 H 0.53349 0.98059 0.08691 0.0
H1450 H 0.51406 0.9854 0.14011 0.0
H1451 H 0.4868 0.00515 0.09359 0.0
C1452 C 0.33541 0.31335 0.29693 0.0
C1453 C 0.3485 0.33034 0.27319 0.0
C1454 C 0.33311 0.32155 0.28078 0.0
C1455 C 0.3661 0.33042 0.28181 0.0
C1456 C 0.35304 0.31381 0.30589 0.0
C1457 C 0.36835 0.32226 0.29816 0.0
N1458 N 0.32037 0.30458 0.30368 0.0
C1459 C 0.32189 0.2972 0.32004 0.0
C1460 C 0.35473 0.30565 0.32231 0.0
C1461 C 0.33908 0.29747 0.32949 0.0
Gd1462 Gd 0.26861 0.25807 0.25973 0.0
Gd1463 Gd 0.29211 0.3055 0.28741 0.0
N1464 N 0.31587 0.32134 0.27277 0.0
C1465 C 0.34577 0.33911 0.25737 0.0
C1466 C 0.31324 0.3311 0.25824 0.0
C1467 C 0.32806 0.33973 0.25004 0.0
H1468 H 0.29983 0.33286 0.25325 0.0
H1469 H 0.32582 0.34715 0.23829 0.0
H1470 H 0.25863 0.23208 0.29318 0.0
H1471 H 0.30989 0.29131 0.32597 0.0
H1472 H 0.23138 0.21477 0.30437 0.0
H1473 H 0.35724 0.34596 0.25109 0.0
H1474 H 0.37805 0.33701 0.2761 0.0
H1475 H 0.2535 0.27146 0.21849 0.0
H1476 H 0.36803 0.30576 0.32963 0.0
H1477 H 0.34023 0.29145 0.34237 0.0
H1478 H 0.18157 0.22298 0.26155 0.0
H1479 H 0.38201 0.32261 0.30475 0.0
H1480 H 0.19549 0.25719 0.21091 0.0
H1481 H 0.22438 0.27172 0.20037 0.0
N1482 N 0.24158 0.2591 0.24067 0.0
C1483 C 0.22587 0.25008 0.24613 0.0
C1484 C 0.24116 0.26619 0.22408 0.0
C1485 C 0.2083 0.25759 0.21934 0.0
C1486 C 0.22457 0.26589 0.2134 0.0
C1487 C 0.20882 0.24922 0.23567 0.0
H1488 H 0.17969 0.23888 0.23367 0.0
N1489 N 0.24347 0.24184 0.27151 0.0
C1490 C 0.22688 0.24095 0.26179 0.0
C1491 C 0.21264 0.22167 0.28312 0.0
C1492 C 0.21096 0.23096 0.26746 0.0
C1493 C 0.2453 0.23223 0.2863 0.0
C1494 C 0.2299 0.22221 0.29249 0.0
O1495 O 0.31002 0.28465 0.27994 0.0
O1496 O 0.29616 0.27098 0.25163 0.0
O1497 O 0.2797 0.23356 0.26113 0.0
O1498 O 0.26267 0.23727 0.23599 0.0
O1499 O 0.27752 0.30771 0.25896 0.0
O1500 O 0.27843 0.28037 0.24228 0.0
O1501 O 0.25152 0.27119 0.27944 0.0
O1502 O 0.26133 0.30162 0.27847 0.0
O1503 O 0.29595 0.33458 0.2951 0.0
O1504 O 0.28788 0.31609 0.31505 0.0
O1505 O 0.28431 0.25771 0.28808 0.0
O1506 O 0.28006 0.28386 0.30442 0.0
C1507 C 0.31116 0.27694 0.26314 0.0
C1508 C 0.27735 0.29764 0.24307 0.0
C1509 C 0.27423 0.20936 0.2354 0.0
C1510 C 0.28583 0.1815 0.23743 0.0
C1511 C 0.27195 0.18792 0.2078 0.0
C1512 C 0.26887 0.20427 0.2163 0.0
C1513 C 0.2805 0.17662 0.21824 0.0
C1514 C 0.2824 0.19781 0.24591 0.0
C1515 C 0.27222 0.22703 0.24431 0.0
C1516 C 0.19396 0.2305 0.25735 0.0
C1517 C 0.19289 0.23961 0.24151 0.0
H1518 H 0.20074 0.21386 0.28793 0.0
C1519 C 0.24865 0.28793 0.28159 0.0
C1520 C 0.28224 0.26697 0.30377 0.0
C1521 C 0.27447 0.34177 0.31503 0.0
C1522 C 0.25154 0.35901 0.30524 0.0
C1523 C 0.25124 0.34673 0.33489 0.0
C1524 C 0.26661 0.33954 0.33162 0.0
C1525 C 0.24363 0.35633 0.32172 0.0
C1526 C 0.26695 0.35172 0.30197 0.0
C1527 C 0.28967 0.33271 0.31103 0.0
H1528 H 0.26797 0.18413 0.19303 0.0
H1529 H 0.26257 0.21304 0.20788 0.0
H1530 H 0.28322 0.16427 0.21122 0.0
H1531 H 0.28614 0.20158 0.26073 0.0
H1532 H 0.2452 0.34485 0.34765 0.0
H1533 H 0.27219 0.33197 0.34193 0.0
H1534 H 0.23182 0.36198 0.32459 0.0
H1535 H 0.27279 0.35354 0.28906 0.0
C1536 C 0.51203 0.57039 0.06284 0.0
C1537 C 0.53995 0.59056 0.07734 0.0
C1538 C 0.53048 0.57755 0.06274 0.0
C1539 C 0.53069 0.5962 0.09201 0.0
C1540 C 0.50272 0.57598 0.0776 0.0
C1541 C 0.51215 0.58891 0.09216 0.0
N1542 N 0.50326 0.55777 0.04867 0.0
C1543 C 0.48517 0.55045 0.04819 0.0
C1544 C 0.48421 0.56834 0.07733 0.0
C1545 C 0.4754 0.55555 0.06254 0.0
Gd1546 Gd 0.53882 0.50287 0.02129 0.0
Gd1547 Gd 0.52079 0.55074 0.02512 0.0
N1548 N 0.53924 0.57145 0.04862 0.0
C1549 C 0.55849 0.59748 0.0768 0.0
C1550 C 0.55708 0.57873 0.04764 0.0
C1551 C 0.56704 0.59164 0.0618 0.0
H1552 H 0.5636 0.57504 0.03579 0.0
H1553 H 0.58126 0.59724 0.06101 0.0
H1554 H 0.49576 0.47904 0.01052 0.0
H1555 H 0.47811 0.54098 0.03654 0.0
H1556 H 0.47727 0.45884 0.98423 0.0
H1557 H 0.56624 0.6075 0.08774 0.0
H1558 H 0.53777 0.60616 0.10335 0.0
H1559 H 0.58144 0.51187 0.00978 0.0
H1560 H 0.47659 0.57229 0.08841 0.0
H1561 H 0.46105 0.54973 0.06211 0.0
H1562 H 0.51971 0.45192 0.94015 0.0
H1563 H 0.50522 0.59337 0.1036 0.0
H1564 H 0.58169 0.48334 0.95608 0.0
H1565 H 0.598 0.50408 0.98344 0.0
N1566 N 0.5559 0.49627 0.99717 0.0
C1567 C 0.54674 0.48457 0.98244 0.0
C1568 C 0.5741 0.50315 0.99774 0.0
C1569 C 0.57432 0.48682 0.96755 0.0
C1570 C 0.58356 0.49859 0.98293 0.0
C1571 C 0.55569 0.47963 0.96716 0.0
H1572 H 0.55245 0.46391 0.94008 0.0
N1573 N 0.5198 0.48329 0.9972 0.0
C1574 C 0.52818 0.47786 0.98246 0.0
C1575 C 0.49965 0.45935 0.96778 0.0
C1576 C 0.51824 0.46596 0.96722 0.0
C1577 C 0.50194 0.47613 0.99821 0.0
C1578 C 0.49152 0.46431 0.98343 0.0
O1579 O 0.52923 0.5404 0.05275 0.0
O1580 O 0.55092 0.5239 0.04555 0.0
O1581 O 0.532 0.47929 0.03716 0.0
O1582 O 0.55925 0.48748 0.029 0.0
O1583 O 0.54647 0.54919 0.01151 0.0
O1584 O 0.56052 0.52853 0.02593 0.0
O1585 O 0.53135 0.51439 0.99411 0.0
O1586 O 0.50854 0.52897 1.00159 0.0
O1587 O 0.52752 0.57314 0.00774 0.0
O1588 O 0.50052 0.56609 0.01685 0.0
O1589 O 0.5133 0.50428 0.03544 0.0
O1590 O 0.4994 0.52491 0.02088 0.0
C1591 C 0.54215 0.53153 0.05782 0.0
C1592 C 0.56112 0.54282 0.01672 0.0
C1593 C 0.55526 0.4611 0.04593 0.0
C1594 C 0.55197 0.4351 0.06417 0.0
C1595 C 0.58012 0.44484 0.05096 0.0
C1596 C 0.57301 0.45865 0.04336 0.0
C1597 C 0.56972 0.43316 0.06125 0.0
C1598 C 0.54466 0.44917 0.05648 0.0
C1599 C 0.5485 0.47613 0.03729 0.0
C1600 C 0.52714 0.46102 0.95199 0.0
C1601 C 0.5458 0.46783 0.95195 0.0
H1602 H 0.49154 0.45017 0.95636 0.0
C1603 C 0.51759 0.52213 0.9891 0.0
C1604 C 0.49872 0.51086 0.03043 0.0
C1605 C 0.50426 0.59096 0.99783 0.0
C1606 C 0.50773 0.61633 0.97872 0.0
C1607 C 0.47834 0.60469 0.98874 0.0
C1608 C 0.48574 0.59193 0.99796 0.0
C1609 C 0.48919 0.61674 0.97916 0.0
C1610 C 0.51538 0.6034 0.98818 0.0
C1611 C 0.51112 0.57658 0.00758 0.0
H1612 H 0.59379 0.44315 0.04881 0.0
H1613 H 0.58152 0.46741 0.03537 0.0
H1614 H 0.57554 0.42248 0.06698 0.0
H1615 H 0.53095 0.45073 0.05862 0.0
H1616 H 0.46406 0.60521 0.98898 0.0
H1617 H 0.4768 0.58271 0.00515 0.0
H1618 H 0.48308 0.62653 0.97209 0.0
H1619 H 0.52967 0.60295 0.98787 0.0
C1620 C 0.74853 0.23152 0.30007 0.0
C1621 C 0.72824 0.21129 0.27566 0.0
C1622 C 0.74407 0.22471 0.28145 0.0
C1623 C 0.71638 0.20567 0.28867 0.0
C1624 C 0.73718 0.22511 0.31335 0.0
C1625 C 0.72083 0.21258 0.30748 0.0
N1626 N 0.76473 0.24313 0.30539 0.0
C1627 C 0.77105 0.24765 0.32386 0.0
C1628 C 0.74299 0.23083 0.33222 0.0
C1629 C 0.76014 0.24193 0.3375 0.0
Gd1630 Gd 0.78418 0.30309 0.26163 0.0
Gd1631 Gd 0.78167 0.25249 0.28122 0.0
N1632 N 0.75595 0.23017 0.26923 0.0
C1633 C 0.72521 0.20336 0.25712 0.0
C1634 C 0.75375 0.22157 0.25152 0.0
C1635 C 0.73819 0.2083 0.24509 0.0
H1636 H 0.7639 0.22512 0.24234 0.0
H1637 H 0.73628 0.20184 0.2309 0.0
H1638 H 0.79772 0.33366 0.29939 0.0
H1639 H 0.78453 0.25582 0.3281 0.0
H1640 H 0.82461 0.35724 0.312 0.0
H1641 H 0.71323 0.19298 0.25215 0.0
H1642 H 0.70405 0.19552 0.28445 0.0
H1643 H 0.79039 0.29048 0.21677 0.0
H1644 H 0.73467 0.2262 0.34284 0.0
H1645 H 0.76505 0.2459 0.35208 0.0
H1646 H 0.86372 0.35846 0.26364 0.0
H1647 H 0.71187 0.20764 0.31747 0.0
H1648 H 0.84266 0.31884 0.20723 0.0
H1649 H 0.81421 0.29654 0.19626 0.0
N1650 N 0.80566 0.3079 0.24016 0.0
C1651 C 0.82073 0.32105 0.24606 0.0
C1652 C 0.80297 0.29963 0.22226 0.0
C1653 C 0.83235 0.31598 0.21655 0.0
C1654 C 0.81636 0.30332 0.21034 0.0
C1655 C 0.8346 0.32522 0.23449 0.0
H1656 H 0.86094 0.34192 0.23237 0.0
N1657 N 0.80863 0.32642 0.27451 0.0
C1658 C 0.82224 0.33058 0.26368 0.0
C1659 C 0.83866 0.35367 0.28789 0.0
C1660 C 0.83772 0.34423 0.27019 0.0
C1661 C 0.80912 0.3361 0.29144 0.0
C1662 C 0.82421 0.34971 0.29848 0.0
O1663 O 0.75566 0.25721 0.26432 0.0
O1664 O 0.75805 0.28798 0.27115 0.0
O1665 O 0.77452 0.32884 0.26536 0.0
O1666 O 0.76897 0.31188 0.23851 0.0
O1667 O 0.79396 0.26326 0.25694 0.0
O1668 O 0.7755 0.27809 0.24106 0.0
O1669 O 0.81155 0.29486 0.27118 0.0
O1670 O 0.80574 0.27503 0.29343 0.0
O1671 O 0.79536 0.23241 0.26808 0.0
O1672 O 0.79729 0.23714 0.29794 0.0
O1673 O 0.77964 0.30302 0.29167 0.0
O1674 O 0.78044 0.27499 0.30315 0.0
C1675 C 0.74831 0.27187 0.26439 0.0
C1676 C 0.78369 0.26435 0.24184 0.0
C1677 C 0.75734 0.33991 0.23984 0.0
C1678 C 0.74224 0.36602 0.24228 0.0
C1679 C 0.74555 0.35126 0.21193 0.0
C1680 C 0.75437 0.33895 0.22036 0.0
C1681 C 0.73959 0.36471 0.22275 0.0
C1682 C 0.75108 0.35345 0.25086 0.0
C1683 C 0.76706 0.3267 0.24819 0.0
C1684 C 0.8517 0.34808 0.25884 0.0
C1685 C 0.85013 0.33863 0.24104 0.0
H1686 H 0.85033 0.36425 0.29338 0.0
C1687 C 0.81718 0.28621 0.28506 0.0
C1688 C 0.77915 0.29217 0.30487 0.0
C1689 C 0.79802 0.20757 0.28504 0.0
C1690 C 0.80905 0.17904 0.28282 0.0
C1691 C 0.7791 0.18006 0.29245 0.0
C1692 C 0.78176 0.19857 0.29072 0.0
C1693 C 0.79261 0.17033 0.28852 0.0
C1694 C 0.8117 0.19778 0.2812 0.0
C1695 C 0.80107 0.22724 0.28379 0.0
H1696 H 0.74337 0.35041 0.1969 0.0
H1697 H 0.759 0.32874 0.21157 0.0
H1698 H 0.73272 0.3741 0.21583 0.0
H1699 H 0.75322 0.35436 0.2659 0.0
H1700 H 0.76656 0.17325 0.29696 0.0
H1701 H 0.77121 0.20588 0.29403 0.0
H1702 H 0.79028 0.15599 0.29014 0.0
H1703 H 0.82429 0.2047 0.27681 0.0
C1704 C 0.06638 0.49839 0.57111 0.0
C1705 C 0.0791 0.52082 0.59759 0.0
C1706 C 0.06625 0.51466 0.58173 0.0
C1707 C 0.09212 0.51045 0.60257 0.0
C1708 C 0.07923 0.48777 0.57631 0.0
C1709 C 0.09217 0.49396 0.59197 0.0
N1710 N 0.05364 0.49269 0.55605 0.0
C1711 C 0.05239 0.47605 0.5463 0.0
C1712 C 0.07849 0.47107 0.56581 0.0
C1713 C 0.06489 0.46511 0.55085 0.0
Gd1714 Gd 0.03074 0.54311 0.50246 0.0
Gd1715 Gd 0.03299 0.51189 0.54993 0.0
N1716 N 0.0536 0.52453 0.57646 0.0
C1717 C 0.07841 0.53717 0.60807 0.0
C1718 C 0.05242 0.54011 0.58708 0.0
C1719 C 0.06492 0.54677 0.60286 0.0
H1720 H 0.04181 0.54744 0.58365 0.0
H1721 H 0.06405 0.55924 0.61109 0.0
H1722 H 0.01419 0.50394 0.47345 0.0
H1723 H 0.04142 0.47086 0.5354 0.0
H1724 H 0.9881 0.49156 0.45009 0.0
H1725 H 0.08804 0.54235 0.62034 0.0
H1726 H 0.10211 0.51498 0.61469 0.0
H1727 H 0.02632 0.58518 0.51646 0.0
H1728 H 0.08808 0.4625 0.56939 0.0
H1729 H 0.06386 0.45197 0.54299 0.0
H1730 H 0.9548 0.53971 0.44678 0.0
H1731 H 0.10216 0.48601 0.59612 0.0
H1732 H 0.97793 0.59528 0.48661 0.0
H1733 H 1.00497 0.60565 0.51006 0.0
N1734 N 0.01127 0.56333 0.49716 0.0
C1735 C 0.99675 0.55749 0.48396 0.0
C1736 C 0.01445 0.58043 0.50637 0.0
C1737 C 0.98722 0.58622 0.48941 0.0
C1738 C 1.00245 0.59211 0.50269 0.0
C1739 C 0.98422 0.56873 0.47982 0.0
H1740 H 0.95933 0.57062 0.463 0.0
N1741 N 0.00662 0.52959 0.47917 0.0
C1742 C 0.99431 0.5401 0.47472 0.0
C1743 C 0.97687 0.51579 0.45235 0.0
C1744 C 0.9791 0.53346 0.46123 0.0
C1745 C 1.00454 0.51238 0.47037 0.0
C1746 C 0.98967 0.50523 0.45693 0.0
O1747 O 0.06092 0.52881 0.54895 0.0
O1748 O 0.04443 0.53143 0.52427 0.0
O1749 O 0.0456 0.54553 0.4784 0.0
O1750 O 0.05107 0.56754 0.50153 0.0
O1751 O 0.02486 0.54006 0.55354 0.0
O1752 O 0.03543 0.55935 0.53133 0.0
O1753 O 1.00392 0.53525 0.51341 0.0
O1754 O 0.01428 0.51174 0.52387 0.0
O1755 O 0.01169 0.51237 0.56798 0.0
O1756 O 0.01936 0.48693 0.55916 0.0
O1757 O 0.03874 0.51516 0.49674 0.0
O1758 O 0.03343 0.49615 0.52079 0.0
C1759 C 0.06037 0.53593 0.53364 0.0
C1760 C 0.02923 0.55634 0.54754 0.0
C1761 C 0.06879 0.57196 0.47548 0.0
C1762 C 0.08695 0.57359 0.44953 0.0
C1763 C 0.0933 0.59787 0.47511 0.0
C1764 C 0.07917 0.58874 0.48383 0.0
C1765 C 0.09732 0.59028 0.45811 0.0
C1766 C 0.0726 0.56458 0.45818 0.0
C1767 C 0.05497 0.5615 0.48532 0.0
C1768 C 0.96655 0.5446 0.4571 0.0
C1769 C 0.96912 0.56219 0.46634 0.0
H1770 H 0.96535 0.51019 0.44195 0.0
C1771 C 1.00153 0.52133 0.5229 0.0
C1772 C 0.03742 0.49914 0.50358 0.0
C1773 C 0.01176 0.49142 0.58983 0.0
C1774 C 1.00057 0.49402 0.62008 0.0
C1775 C 0.02783 0.48167 0.61647 0.0
C1776 C 0.02622 0.48404 0.59761 0.0
C1777 C 0.01515 0.48672 0.62771 0.0
C1778 C 0.99892 0.49621 0.60108 0.0
C1779 C 0.01037 0.49532 0.57038 0.0
H1780 H 0.10137 0.61072 0.48169 0.0
H1781 H 0.0766 0.59464 0.49726 0.0
H1782 H 0.10851 0.59741 0.45167 0.0
H1783 H 0.06489 0.55149 0.45176 0.0
H1784 H 0.03903 0.47605 0.62241 0.0
H1785 H 0.03636 0.48027 0.58923 0.0
H1786 H 0.01666 0.48483 0.64232 0.0
H1787 H 0.98796 0.50221 0.59514 0.0
C1788 C 0.73514 0.79439 0.23771 0.0
C1789 C 0.71732 0.7666 0.2203 0.0
C1790 C 0.72894 0.77566 0.23615 0.0
C1791 C 0.71191 0.77658 0.20614 0.0
C1792 C 0.72949 0.80445 0.22363 0.0
C1793 C 0.71793 0.79544 0.20783 0.0
N1794 N 0.74664 0.80275 0.25298 0.0
C1795 C 0.75204 0.8212 0.25559 0.0
C1796 C 0.73554 0.82331 0.2259 0.0
C1797 C 0.74672 0.83172 0.24202 0.0
Gd1798 Gd 0.80546 0.77099 0.27628 0.0
Gd1799 Gd 0.75445 0.78369 0.27472 0.0
N1800 N 0.73464 0.76626 0.24992 0.0
C1801 C 0.7115 0.74776 0.21912 0.0
C1802 C 0.72862 0.74798 0.24909 0.0
C1803 C 0.7171 0.73843 0.23362 0.0
H1804 H 0.73254 0.7407 0.26033 0.0
H1805 H 0.71248 0.72389 0.23293 0.0
H1806 H 0.83246 0.81156 0.28747 0.0
H1807 H 0.7602 0.82795 0.26824 0.0
H1808 H 0.85352 0.82867 0.3144 0.0
H1809 H 0.70259 0.7403 0.20714 0.0
H1810 H 0.70301 0.76983 0.19385 0.0
H1811 H 0.8 0.72657 0.28404 0.0
H1812 H 0.73146 0.83151 0.21542 0.0
H1813 H 0.75115 0.84633 0.24407 0.0
H1814 H 0.85313 0.78608 0.35952 0.0
H1815 H 0.71353 0.80295 0.19684 0.0
H1816 H 0.82161 0.7249 0.34025 0.0
H1817 H 0.80513 0.70921 0.31029 0.0
N1818 N 0.81134 0.75233 0.29954 0.0
C1819 C 0.82162 0.76101 0.31544 0.0
C1820 C 0.8063 0.73382 0.29728 0.0
C1821 C 0.81892 0.73272 0.32891 0.0
C1822 C 0.80957 0.72382 0.31204 0.0
C1823 C 0.82554 0.75146 0.33061 0.0
H1824 H 0.83949 0.75368 0.35853 0.0
N1825 N 0.82561 0.788 0.3011 0.0
C1826 C 0.82931 0.77928 0.31609 0.0
C1827 C 0.84961 0.80654 0.33122 0.0
C1828 C 0.84109 0.78846 0.33177 0.0
C1829 C 0.83474 0.80522 0.29996 0.0
C1830 C 0.84666 0.81485 0.31512 0.0
O1831 O 0.76545 0.77665 0.24701 0.0
O1832 O 0.7842 0.75624 0.25297 0.0
O1833 O 0.82451 0.7819 0.25751 0.0
O1834 O 0.82735 0.7573 0.26907 0.0
O1835 O 0.75717 0.757 0.28521 0.0
O1836 O 0.78161 0.74655 0.2734 0.0
O1837 O 0.79912 0.78967 0.30033 0.0
O1838 O 0.7696 0.77665 0.3004 0.0
O1839 O 0.72805 0.77594 0.28452 0.0
O1840 O 0.74334 0.80339 0.29186 0.0
O1841 O 0.79781 0.79444 0.26227 0.0
O1842 O 0.77864 0.80737 0.27956 0.0
C1843 C 0.77364 0.76334 0.24142 0.0
C1844 C 0.76594 0.7439 0.28069 0.0
C1845 C 0.8377 0.76108 0.23969 0.0
C1846 C 0.85879 0.75983 0.21602 0.0
C1847 C 0.82815 0.74112 0.21086 0.0
C1848 C 0.82443 0.74817 0.22818 0.0
C1849 C 0.84513 0.74687 0.2048 0.0
C1850 C 0.85495 0.76682 0.23364 0.0
C1851 C 0.83349 0.76877 0.25784 0.0
C1852 C 0.8443 0.77921 0.34724 0.0
C1853 C 0.8365 0.76076 0.34668 0.0
H1854 H 0.8588 0.81405 0.34298 0.0
C1855 C 0.78452 0.78694 0.30897 0.0
C1856 C 0.7932 0.80884 0.27061 0.0
C1857 C 0.71104 0.79812 0.29315 0.0
C1858 C 0.6823 0.79875 0.30642 0.0
C1859 C 0.68809 0.81226 0.27792 0.0
C1860 C 0.70514 0.80731 0.27859 0.0
C1861 C 0.67669 0.8079 0.29161 0.0
C1862 C 0.69966 0.79404 0.30719 0.0
C1863 C 0.7285 0.79179 0.29353 0.0
H1864 H 0.81782 0.73113 0.20207 0.0
H1865 H 0.81122 0.74354 0.23266 0.0
H1866 H 0.84763 0.741 0.19135 0.0
H1867 H 0.86518 0.77693 0.24245 0.0
H1868 H 0.68359 0.81933 0.26662 0.0
H1869 H 0.7136 0.8105 0.26766 0.0
H1870 H 0.66347 0.81174 0.29068 0.0
H1871 H 0.70407 0.78676 0.31838 0.0
C1872 C 0.81801 0.24627 0.72761 0.0
C1873 C 0.79976 0.23672 0.69762 0.0
C1874 C 0.80363 0.24792 0.71477 0.0
C1875 C 0.81019 0.22349 0.69381 0.0
C1876 C 0.82875 0.23324 0.72364 0.0
C1877 C 0.82464 0.22174 0.70679 0.0
N1878 N 0.82166 0.2576 0.74383 0.0
C1879 C 0.83648 0.25724 0.75615 0.0
C1880 C 0.84348 0.23232 0.73662 0.0
C1881 C 0.84746 0.24449 0.75285 0.0
Gd1882 Gd 0.76859 0.27626 0.79431 0.0
Gd1883 Gd 0.80214 0.27833 0.74782 0.0
N1884 N 0.79365 0.26074 0.7189 0.0
C1885 C 0.78574 0.23941 0.68467 0.0
C1886 C 0.78079 0.26418 0.70589 0.0
C1887 C 0.77639 0.25338 0.68873 0.0
H1888 H 0.77417 0.27552 0.7085 0.0
H1889 H 0.76597 0.25599 0.67856 0.0
H1890 H 0.80382 0.27934 0.82901 0.0
H1891 H 0.84025 0.26698 0.76835 0.0
H1892 H 0.81924 0.30092 0.85546 0.0
H1893 H 0.78238 0.23112 0.67132 0.0
H1894 H 0.80736 0.21469 0.68075 0.0
H1895 H 0.72877 0.28772 0.78359 0.0
H1896 H 0.85208 0.22251 0.73407 0.0
H1897 H 0.85911 0.24419 0.76274 0.0
H1898 H 0.78125 0.3451 0.8611 0.0
H1899 H 0.8327 0.2116 0.70354 0.0
H1900 H 0.72585 0.33526 0.81945 0.0
H1901 H 0.71217 0.31176 0.79321 0.0
N1902 N 0.75166 0.2978 0.80382 0.0
C1903 C 0.75918 0.31022 0.81853 0.0
C1904 C 0.7349 0.29804 0.7949 0.0
C1905 C 0.7332 0.32478 0.81521 0.0
C1906 C 0.72543 0.31156 0.8004 0.0
C1907 C 0.75023 0.32416 0.82457 0.0
H1908 H 0.75184 0.34777 0.84459 0.0
N1909 N 0.78362 0.29471 0.82171 0.0
C1910 C 0.77577 0.30874 0.82766 0.0
C1911 C 0.79995 0.31859 0.85305 0.0
C1912 C 0.78379 0.32114 0.84336 0.0
C1913 C 0.7986 0.29143 0.83207 0.0
C1914 C 0.80719 0.30348 0.84756 0.0
O1915 O 0.78856 0.24914 0.74882 0.0
O1916 O 0.77929 0.26525 0.77019 0.0
O1917 O 0.7655 0.25372 0.81069 0.0
O1918 O 0.74166 0.25998 0.79567 0.0
O1919 O 0.77216 0.28205 0.74143 0.0
O1920 O 0.75302 0.27645 0.7655 0.0
O1921 O 0.77559 0.30415 0.78553 0.0
O1922 O 0.7991 0.29517 0.77402 0.0
O1923 O 0.80324 0.30062 0.73093 0.0
O1924 O 0.8282 0.29312 0.74227 0.0
O1925 O 0.79623 0.26693 0.79807 0.0
O1926 O 0.81607 0.28075 0.77802 0.0
C1927 C 0.77854 0.24913 0.76214 0.0
C1928 C 0.75605 0.28014 0.74829 0.0
C1929 C 0.73935 0.25086 0.82593 0.0
C1930 C 0.73934 0.2415 0.85713 0.0
C1931 C 0.7208 0.26296 0.84764 0.0
C1932 C 0.72696 0.26207 0.83011 0.0
C1933 C 0.72702 0.25284 0.86115 0.0
C1934 C 0.74527 0.2405 0.83942 0.0
C1935 C 0.74779 0.25101 0.80849 0.0
C1936 C 0.77521 0.33538 0.84916 0.0
C1937 C 0.75845 0.33688 0.8398 0.0
H1938 H 0.80655 0.32781 0.86516 0.0
C1939 C 0.78885 0.30726 0.77525 0.0
C1940 C 0.8128 0.27194 0.79281 0.0
C1941 C 0.8274 0.30268 0.71221 0.0
C1942 C 0.82587 0.31303 0.68144 0.0
C1943 C 0.84733 0.29393 0.69012 0.0
C1944 C 0.84121 0.29337 0.70759 0.0
C1945 C 0.83979 0.30373 0.67712 0.0
C1946 C 0.81978 0.31239 0.69906 0.0
C1947 C 0.82082 0.3025 0.73062 0.0
H1948 H 0.71133 0.27168 0.85083 0.0
H1949 H 0.72229 0.27037 0.82005 0.0
H1950 H 0.72211 0.25377 0.87465 0.0
H1951 H 0.75514 0.23216 0.83632 0.0
H1952 H 0.85804 0.28684 0.68667 0.0
H1953 H 0.84732 0.28568 0.71742 0.0
H1954 H 0.84506 0.30423 0.66381 0.0
H1955 H 0.80892 0.3193 0.70254 0.0
C1956 C 0.83605 0.81578 0.8033 0.0
C1957 C 0.85145 0.83201 0.78025 0.0
C1958 C 0.83538 0.82273 0.78633 0.0
C1959 C 0.86827 0.83356 0.79113 0.0
C1960 C 0.85284 0.81812 0.81469 0.0
C1961 C 0.86897 0.82663 0.80832 0.0
N1962 N 0.82018 0.80783 0.8092 0.0
C1963 C 0.82006 0.80374 0.82714 0.0
C1964 C 0.85288 0.81248 0.83246 0.0
C1965 C 0.83637 0.80558 0.83884 0.0
Gd1966 Gd 0.76788 0.75755 0.75981 0.0
Gd1967 Gd 0.79355 0.80479 0.78788 0.0
N1968 N 0.81892 0.82093 0.77601 0.0
C1969 C 0.85007 0.83972 0.76353 0.0
C1970 C 0.81741 0.82929 0.76026 0.0
C1971 C 0.83293 0.83854 0.75362 0.0
H1972 H 0.80422 0.82896 0.75291 0.0
H1973 H 0.83165 0.84488 0.74095 0.0
H1974 H 0.75593 0.72658 0.78986 0.0
H1975 H 0.80731 0.7991 0.83254 0.0
H1976 H 0.72779 0.70951 0.79927 0.0
H1977 H 0.86209 0.84694 0.75839 0.0
H1978 H 0.88077 0.84047 0.78659 0.0
H1979 H 0.7549 0.77222 0.7191 0.0
H1980 H 0.86548 0.81407 0.84162 0.0
H1981 H 0.83615 0.80187 0.85284 0.0
H1982 H 0.6801 0.72195 0.75679 0.0
H1983 H 0.88199 0.82838 0.81681 0.0
H1984 H 0.69696 0.75762 0.70803 0.0
H1985 H 0.72658 0.77285 0.69952 0.0
N1986 N 0.74168 0.75824 0.73954 0.0
C1987 C 0.72566 0.74886 0.74389 0.0
C1988 C 0.74216 0.76628 0.72352 0.0
C1989 C 0.70941 0.75762 0.71692 0.0
C1990 C 0.72608 0.76631 0.71212 0.0
C1991 C 0.70905 0.74854 0.73281 0.0
H1992 H 0.67978 0.73879 0.72952 0.0
N1993 N 0.74212 0.73926 0.76935 0.0
C1994 C 0.72586 0.73932 0.75933 0.0
C1995 C 0.71015 0.71889 0.77884 0.0
C1996 C 0.70942 0.72927 0.76395 0.0
C1997 C 0.74295 0.728 0.78296 0.0
C1998 C 0.72702 0.71802 0.78818 0.0
O1999 O 0.8104 0.79212 0.76783 0.0
O2000 O 0.7992 0.76167 0.76796 0.0
O2001 O 0.77128 0.72964 0.75833 0.0
O2002 O 0.76869 0.74244 0.73308 0.0
O2003 O 0.77717 0.80501 0.75969 0.0
O2004 O 0.78134 0.77894 0.7434 0.0
O2005 O 0.74946 0.77773 0.76711 0.0
O2006 O 0.7646 0.79332 0.79462 0.0
O2007 O 0.78811 0.83182 0.78632 0.0
O2008 O 0.79331 0.82253 0.81311 0.0
O2009 O 0.77018 0.75797 0.79103 0.0
O2010 O 0.7951 0.7801 0.80314 0.0
C2011 C 0.81238 0.77512 0.76499 0.0
C2012 C 0.77932 0.79586 0.74394 0.0
C2013 C 0.78852 0.72143 0.73474 0.0
C2014 C 0.80917 0.70031 0.7387 0.0
C2015 C 0.81402 0.72235 0.71651 0.0
C2016 C 0.79873 0.72903 0.72121 0.0
C2017 C 0.81927 0.70809 0.7252 0.0
C2018 C 0.79381 0.70708 0.74332 0.0
C2019 C 0.77264 0.72844 0.74056 0.0
C2020 C 0.69284 0.72948 0.75333 0.0
C2021 C 0.69266 0.73904 0.73778 0.0
H2022 H 0.69783 0.71102 0.78283 0.0
C2023 C 0.74923 0.78695 0.78349 0.0
C2024 C 0.78272 0.76573 0.80471 0.0
C2025 C 0.77219 0.84199 0.81038 0.0
C2026 C 0.74806 0.85881 0.80414 0.0
C2027 C 0.75043 0.84471 0.83263 0.0
C2028 C 0.76586 0.83852 0.82752 0.0
C2029 C 0.74143 0.85471 0.82093 0.0
C2030 C 0.76332 0.85233 0.79894 0.0
C2031 C 0.78799 0.83509 0.80422 0.0
H2032 H 0.82188 0.72829 0.70615 0.0
H2033 H 0.79505 0.74019 0.7144 0.0
H2034 H 0.8311 0.70307 0.72122 0.0
H2035 H 0.78611 0.70145 0.75398 0.0
H2036 H 0.74547 0.8418 0.84572 0.0
H2037 H 0.7726 0.83079 0.83682 0.0
H2038 H 0.72969 0.85969 0.82523 0.0
H2039 H 0.76831 0.8554 0.78586 0.0
C2040 C 0.49274 0.47204 0.50161 0.0
C2041 C 0.47468 0.4617 0.52579 0.0
C2042 C 0.48454 0.47595 0.51744 0.0
C2043 C 0.47362 0.4436 0.51833 0.0
C2044 C 0.49116 0.45394 0.4937 0.0
C2045 C 0.48176 0.43974 0.50228 0.0
N2046 N 0.50235 0.486 0.49397 0.0
C2047 C 0.50952 0.48298 0.47769 0.0
C2048 C 0.49913 0.45066 0.4774 0.0
C2049 C 0.5082 0.46526 0.46928 0.0
Gd2050 Gd 0.55079 0.53825 0.53489 0.0
Gd2051 Gd 0.50293 0.51523 0.5083 0.0
N2052 N 0.48554 0.49363 0.52417 0.0
C2053 C 0.46575 0.46605 0.54109 0.0
C2054 C 0.47558 0.49788 0.5381 0.0
C2055 C 0.46598 0.48423 0.54709 0.0
H2056 H 0.47454 0.51174 0.54208 0.0
H2057 H 0.45845 0.48772 0.5584 0.0
H2058 H 0.5746 0.55324 0.50159 0.0
H2059 H 0.5162 0.49422 0.47115 0.0
H2060 H 0.58887 0.58258 0.49174 0.0
H2061 H 0.4581 0.4555 0.54794 0.0
H2062 H 0.46621 0.4325 0.52465 0.0
H2063 H 0.54077 0.54831 0.57887 0.0
H2064 H 0.49818 0.43694 0.47088 0.0
H2065 H 0.51409 0.46288 0.45649 0.0
H2066 H 0.57664 0.6272 0.53799 0.0
H2067 H 0.48057 0.42573 0.49652 0.0
H2068 H 0.54832 0.60591 0.59008 0.0
H2069 H 0.53868 0.57531 0.59953 0.0
N2070 N 0.54912 0.5631 0.55658 0.0
C2071 C 0.55565 0.57984 0.55168 0.0
C2072 C 0.5439 0.56142 0.57392 0.0
C2073 C 0.54866 0.59403 0.5806 0.0
C2074 C 0.54315 0.57678 0.58596 0.0
C2075 C 0.55546 0.59575 0.56349 0.0
H2076 H 0.56253 0.62516 0.56705 0.0
N2077 N 0.56417 0.5655 0.52461 0.0
C2078 C 0.56369 0.58107 0.53537 0.0
C2079 C 0.58052 0.5986 0.5143 0.0
C2080 C 0.57161 0.59809 0.53035 0.0
C2081 C 0.57357 0.5658 0.50947 0.0
C2082 C 0.58171 0.58236 0.50395 0.0
O2083 O 0.52365 0.49686 0.51538 0.0
O2084 O 0.53882 0.5106 0.54324 0.0
O2085 O 0.57577 0.52921 0.53018 0.0
O2086 O 0.5734 0.54331 0.55695 0.0
O2087 O 0.50217 0.53087 0.53649 0.0
O2088 O 0.52886 0.52703 0.55234 0.0
O2089 O 0.53696 0.55445 0.51462 0.0
O2090 O 0.50675 0.54581 0.51749 0.0
O2091 O 0.47396 0.51057 0.49915 0.0
O2092 O 0.49333 0.52109 0.48083 0.0
O2093 O 0.55111 0.52278 0.50651 0.0
O2094 O 0.52427 0.52573 0.49019 0.0
C2095 C 0.53214 0.49568 0.5319 0.0
C2096 C 0.51196 0.52943 0.5521 0.0
C2097 C 0.58982 0.51945 0.5563 0.0
C2098 C 0.61075 0.49848 0.55593 0.0
C2099 C 0.58795 0.49642 0.57754 0.0
C2100 C 0.5816 0.51106 0.57062 0.0
C2101 C 0.60245 0.49009 0.57022 0.0
C2102 C 0.60422 0.51307 0.54904 0.0
C2103 C 0.58286 0.53381 0.54742 0.0
C2104 C 0.57075 0.61398 0.54168 0.0
C2105 C 0.56268 0.61281 0.55821 0.0
H2106 H 0.58682 0.61141 0.51 0.0
C2107 C 0.52044 0.55808 0.51369 0.0
C2108 C 0.54139 0.52407 0.49077 0.0
C2109 C 0.46643 0.53267 0.48045 0.0
C2110 C 0.44832 0.55438 0.49126 0.0
C2111 C 0.45653 0.55317 0.45969 0.0
C2112 C 0.46567 0.53907 0.46297 0.0
C2113 C 0.44781 0.56074 0.47368 0.0
C2114 C 0.45805 0.54063 0.49462 0.0
C2115 C 0.47633 0.51802 0.48392 0.0
H2116 H 0.58154 0.48989 0.58849 0.0
H2117 H 0.57016 0.51559 0.57622 0.0
H2118 H 0.60723 0.4788 0.5758 0.0
H2119 H 0.60999 0.51923 0.53752 0.0
H2120 H 0.45594 0.55803 0.44616 0.0
H2121 H 0.47218 0.5332 0.4519 0.0
H2122 H 0.4402 0.57115 0.47054 0.0
H2123 H 0.45893 0.53602 0.50829 0.0
C2124 C 0.07898 0.5656 0.00859 0.0
C2125 C 0.09982 0.57923 0.03616 0.0
C2126 C 0.08561 0.56529 0.02714 0.0
C2127 C 0.10721 0.5935 0.0264 0.0
C2128 C 0.08671 0.57972 0.99868 0.0
C2129 C 0.10071 0.59372 0.00772 0.0
N2130 N 0.06524 0.55199 1.00018 0.0
C2131 C 0.05968 0.55098 0.98159 0.0
C2132 C 0.08034 0.57923 0.97986 0.0
C2133 C 0.06693 0.56469 0.97124 0.0
Gd2134 Gd 1.00233 0.52615 0.03256 0.0
Gd2135 Gd 0.05489 0.5296 0.01908 0.0
N2136 N 0.07807 0.55147 0.0364 0.0
C2137 C 0.10614 0.57844 0.05478 0.0
C2138 C 0.08471 0.55017 0.05422 0.0
C2139 C 0.09865 0.56376 0.06379 0.0
H2140 H 0.07959 0.53841 0.06084 0.0
H2141 H 0.10376 0.5628 0.07803 0.0
H2142 H 0.97613 0.51109 0.99256 0.0
H2143 H 0.05003 0.53946 0.97442 0.0
H2144 H 0.95536 0.48269 0.97787 0.0
H2145 H 0.11698 0.58893 0.06221 0.0
H2146 H 0.11806 0.60437 0.03314 0.0
H2147 H 0.00979 0.52041 0.079 0.0
H2148 H 0.08598 0.58979 0.97176 0.0
H2149 H 0.06234 0.56389 0.95655 0.0
H2150 H 0.95722 0.44157 0.02414 0.0
H2151 H 0.10671 0.60471 1.00033 0.0
H2152 H 0.98977 0.46469 0.08399 0.0
H2153 H 1.00587 0.49528 0.09798 0.0
N2154 N 0.9986 0.50392 0.05339 0.0
C2155 C 0.98833 0.48752 0.04575 0.0
C2156 C 1.0039 0.507 0.07216 0.0
C2157 C 0.99205 0.47559 0.07529 0.0
C2158 C 1.00122 0.49281 0.08323 0.0
C2159 C 0.98498 0.47289 0.0565 0.0
H2160 H 0.97157 0.44485 0.05645 0.0
N2161 N 0.98325 0.49985 0.01726 0.0
C2162 C 0.98008 0.48558 0.02741 0.0
C2163 C 0.95976 0.46808 1.00144 0.0
C2164 C 0.96854 0.46913 0.01954 0.0
C2165 C 0.97407 0.49928 0.99999 0.0
C2166 C 0.96235 0.48329 0.99172 0.0
O2167 O 0.04801 0.55756 0.02889 0.0
O2168 O 0.01988 0.55434 0.04108 0.0
O2169 O 0.98122 0.53992 0.02139 0.0
O2170 O 0.9798 0.52974 0.04798 0.0
O2171 O 0.04506 0.51972 0.04514 0.0
O2172 O 0.02451 0.53525 0.05654 0.0
O2173 O 0.00989 0.50289 0.01374 0.0
O2174 O 0.03857 0.50361 0.02713 0.0
O2175 O 0.07893 0.51829 0.02564 0.0
O2176 O 0.06506 0.51359 0.99749 0.0
O2177 O 0.01301 0.54024 0.00897 0.0
O2178 O 0.03223 0.52429 0.99541 0.0
C2179 C 0.0353 0.56435 0.03726 0.0
C2180 C 0.04012 0.52988 0.05851 0.0
C2181 C 0.96879 0.55655 0.04451 0.0
C2182 C 0.94857 0.57839 0.0463 0.0
C2183 C 0.97574 0.5823 0.06856 0.0
C2184 C 0.98001 0.56651 0.0601 0.0
C2185 C 0.96009 0.58815 0.06182 0.0
C2186 C 0.95313 0.56266 0.03748 0.0
C2187 C 0.97294 0.53936 0.03627 0.0
C2188 C 0.96589 0.45438 0.03002 0.0
C2189 C 0.97412 0.45624 0.04841 0.0
H2190 H 0.95074 0.45568 0.99495 0.0
C2191 C 0.02355 0.49452 0.01722 0.0
C2192 C 0.01806 0.53218 0.99424 0.0
C2193 C 0.09655 0.51205 1.00164 0.0
C2194 C 0.12448 0.50008 1.00007 0.0
C2195 C 0.12079 0.52715 0.9856 0.0
C2196 C 0.10351 0.52611 0.99148 0.0
C2197 C 0.13129 0.51431 0.98996 0.0
C2198 C 0.10699 0.49896 0.00573 0.0
C2199 C 0.07874 0.5109 0.00868 0.0
H2200 H 0.98451 0.58992 0.08051 0.0
H2201 H 0.9921 0.56207 0.06576 0.0
H2202 H 0.95694 0.60036 0.06874 0.0
H2203 H 0.94426 0.55492 0.02562 0.0
H2204 H 0.12614 0.53802 0.97776 0.0
H2205 H 0.09568 0.53631 0.98821 0.0
H2206 H 0.14471 0.51544 0.98539 0.0
H2207 H 0.10169 0.48819 0.01376 0.0
C2208 C 1.00258 0.19976 0.94224 0.0
C2209 C 1.00497 0.2158 0.95468 0.0
C2210 C 1.00374 0.18283 0.94861 0.0
C2211 C 1.00196 0.15767 0.99126 0.0
H2212 H 0.0238 0.12376 0.96194 0.0
C2213 C 1.00207 0.08272 0.00965 0.0
C2214 C 0.01774 0.07546 0.00687 0.0
C2215 C 0.9999 0.09957 0.00344 0.0
C2216 C 0.0177 0.13299 0.97047 0.0
H2217 H 0.01038 0.22605 0.98393 0.0
H2218 H 0.01225 0.19669 0.99504 0.0
H2219 H 0.02173 0.15309 0.95145 0.0
H2220 H 0.0429 0.08037 0.99435 0.0
H2221 H 0.03947 0.10936 0.98409 0.0
H2222 H 0.99808 0.13751 0.01037 0.0
C2223 C 0.00941 0.19715 0.98023 0.0
C2224 C 0.01632 0.14993 0.96428 0.0
C2225 C 0.00845 0.21415 0.97381 0.0
C2226 C 0.03086 0.0855 0.99727 0.0
C2227 C 0.02871 0.1022 0.99105 0.0
C2228 C 1.00318 0.1406 0.99738 0.0
C2229 C 0.00716 0.18109 0.96776 0.0
C2230 C 0.00849 0.16274 0.97454 0.0
C2231 C 0.01323 0.10972 0.99401 0.0
C2232 C 0.0112 0.12789 0.98719 0.0
H2233 H 0.99984 0.20026 0.92742 0.0
H2234 H 1.00166 0.17099 0.93841 0.0
H2235 H 0.99566 0.16685 0.99962 0.0
H2236 H 0.9915 0.07547 0.01679 0.0
H2237 H 0.98761 0.10452 0.00586 0.0
C2238 C 0.12278 0.78864 0.13481 0.0
C2239 C 0.10993 0.79777 0.1423 0.0
C2240 C 0.13894 0.78723 0.14571 0.0
C2241 C 0.15972 0.7919 0.19588 0.0
H2242 H 0.20393 0.78787 0.17389 0.0
C2243 C 0.22866 0.7935 0.24116 0.0
C2244 C 0.23982 0.7816 0.23516 0.0
C2245 C 0.21315 0.79561 0.22972 0.0
C2246 C 0.19167 0.78881 0.18028 0.0
H2247 H 0.10455 0.81313 0.16715 0.0
H2248 H 0.1328 0.8114 0.18579 0.0
H2249 H 0.17704 0.79196 0.15434 0.0
H2250 H 0.24292 0.76216 0.21245 0.0
H2251 H 0.21626 0.76616 0.19223 0.0
H2252 H 0.1745 0.78903 0.22186 0.0
C2253 C 0.13027 0.80475 0.17166 0.0
C2254 C 0.1761 0.79113 0.169 0.0
C2255 C 0.11406 0.80597 0.16084 0.0
C2256 C 0.23504 0.77188 0.21731 0.0
C2257 C 0.2196 0.77409 0.20576 0.0
C2258 C 0.17532 0.78976 0.20716 0.0
C2259 C 0.1429 0.79503 0.16447 0.0
C2260 C 0.15978 0.79273 0.17656 0.0
C2261 C 0.20832 0.78595 0.21179 0.0
C2262 C 0.19159 0.78818 0.19959 0.0
H2263 H 0.12004 0.78193 0.1207 0.0
H2264 H 0.14799 0.77943 0.13951 0.0
H2265 H 0.14748 0.79258 0.20238 0.0
H2266 H 0.2321 0.80147 0.25465 0.0
H2267 H 0.20508 0.80507 0.23485 0.0
C2268 C 0.50516 0.82869 0.46872 0.0
C2269 C 0.51263 0.82485 0.45206 0.0
C2270 C 0.50636 0.84689 0.47669 0.0
C2271 C 0.514 0.89457 0.46295 0.0
H2272 H 0.52036 0.91047 0.51581 0.0
C2273 C 0.53001 0.97165 0.4903 0.0
C2274 C 0.52324 0.97792 0.5066 0.0
C2275 C 0.52823 0.95295 0.48459 0.0
C2276 C 0.51837 0.90633 0.50097 0.0
H2277 H 0.52813 0.83763 0.43155 0.0
H2278 H 0.53045 0.86857 0.44533 0.0
H2279 H 0.51834 0.87833 0.50482 0.0
H2280 H 0.50951 0.96872 0.52981 0.0
H2281 H 0.50604 0.93627 0.51972 0.0
H2282 H 0.51388 0.9223 0.45893 0.0
C2283 C 0.52317 0.85776 0.45211 0.0
C2284 C 0.51721 0.88774 0.49463 0.0
C2285 C 0.52197 0.83979 0.44423 0.0
C2286 C 0.51471 0.96465 0.51706 0.0
C2287 C 0.51291 0.94587 0.51133 0.0
C2288 C 0.51512 0.91303 0.46925 0.0
C2289 C 0.51501 0.86182 0.46822 0.0
C2290 C 0.51528 0.88152 0.47545 0.0
C2291 C 0.51958 0.9396 0.4949 0.0
C2292 C 0.51759 0.91943 0.48838 0.0
H2293 H 0.49771 0.81771 0.47515 0.0
H2294 H 0.49987 0.84926 0.4891 0.0
H2295 H 0.51197 0.89052 0.44809 0.0
H2296 H 0.53681 0.98124 0.48183 0.0
H2297 H 0.53396 0.94901 0.4721 0.0
C2298 C 0.48531 0.28506 0.62508 0.0
C2299 C 0.50335 0.28587 0.63302 0.0
C2300 C 0.47103 0.28463 0.63619 0.0
C2301 C 0.45734 0.27279 0.68184 0.0
H2302 H 0.41888 0.29903 0.66973 0.0
C2303 C 0.39406 0.26917 0.72326 0.0
C2304 C 0.3771 0.26697 0.71232 0.0
C2305 C 0.41048 0.27369 0.71537 0.0
C2306 C 0.4294 0.29147 0.67327 0.0
H2307 H 0.5203 0.28685 0.65917 0.0
H2308 H 0.49534 0.286 0.67853 0.0
H2309 H 0.44535 0.30234 0.65259 0.0
H2310 H 0.36422 0.26875 0.68476 0.0
H2311 H 0.39249 0.27652 0.67111 0.0
H2312 H 0.44115 0.26161 0.70227 0.0
C2313 C 0.49228 0.28569 0.66363 0.0
C2314 C 0.44464 0.29339 0.6634 0.0
C2315 C 0.50665 0.28631 0.6525 0.0
C2316 C 0.37701 0.27022 0.69358 0.0
C2317 C 0.39332 0.27483 0.68576 0.0
C2318 C 0.44202 0.27081 0.6917 0.0
C2319 C 0.47424 0.28483 0.65563 0.0
C2320 C 0.4587 0.28383 0.66728 0.0
C2321 C 0.41034 0.27633 0.6964 0.0
C2322 C 0.42762 0.27986 0.68732 0.0
H2323 H 0.48213 0.28465 0.61018 0.0
H2324 H 0.45734 0.28373 0.62945 0.0
H2325 H 0.4678 0.26511 0.68518 0.0
H2326 H 0.39463 0.26666 0.7377 0.0
H2327 H 0.42328 0.27491 0.72409 0.0
C2328 C 0.02076 0.80182 0.64699 0.0
C2329 C 0.02408 0.80542 0.66653 0.0
C2330 C 0.02084 0.81604 0.63578 0.0
C2331 C 0.03743 0.86621 0.63703 0.0
H2332 H 1.0052 0.86022 0.59094 0.0
C2333 C 0.03823 0.92544 0.59167 0.0
C2334 C 0.03845 0.9208 0.57253 0.0
C2335 C 0.03367 0.91187 0.60337 0.0
C2336 C 0.01438 0.86214 0.60372 0.0
H2337 H 0.02977 0.82711 0.68942 0.0
H2338 H 0.0296 0.85162 0.67007 0.0
H2339 H 1.0033 0.8356 0.61056 0.0
H2340 H 0.0334 0.89842 0.55057 0.0
H2341 H 0.02519 0.87487 0.57071 0.0
H2342 H 0.04864 0.89264 0.63014 0.0
C2343 C 0.02728 0.83784 0.66329 0.0
C2344 C 0.01333 0.84793 0.615 0.0
C2345 C 0.02725 0.82368 0.67446 0.0
C2346 C 0.03298 0.90243 0.5652 0.0
C2347 C 0.02834 0.88891 0.57683 0.0
C2348 C 0.03844 0.88041 0.6258 0.0
C2349 C 0.02422 0.83432 0.64374 0.0
C2350 C 0.02493 0.84966 0.6318 0.0
C2351 C 0.02924 0.89332 0.59621 0.0
C2352 C 0.02704 0.87859 0.60887 0.0
H2353 H 0.01832 0.788 0.64029 0.0
H2354 H 0.01865 0.81267 0.62082 0.0
H2355 H 0.04686 0.86808 0.64963 0.0
H2356 H 0.04274 0.93942 0.59777 0.0
H2357 H 0.03425 0.91589 0.61815 0.0
C2358 C 0.47968 0.81322 0.85279 0.0
C2359 C 0.49141 0.80369 0.84373 0.0
C2360 C 0.46128 0.81178 0.84542 0.0
C2361 C 0.42497 0.81276 0.82039 0.0
H2362 H 0.39554 0.76436 0.80794 0.0
C2363 C 0.34861 0.79866 0.78486 0.0
C2364 C 0.33574 0.78564 0.79183 0.0
C2365 C 0.36754 0.80123 0.79076 0.0
C2366 C 0.40347 0.77801 0.81133 0.0
H2367 H 0.49229 0.78421 0.82018 0.0
H2368 H 0.46008 0.78123 0.80759 0.0
H2369 H 0.42827 0.76834 0.81821 0.0
H2370 H 0.33356 0.76476 0.81049 0.0
H2371 H 0.3663 0.76884 0.82024 0.0
H2372 H 0.40025 0.82246 0.81322 0.0
C2373 C 0.46532 0.79035 0.82016 0.0
C2374 C 0.42239 0.7803 0.81712 0.0
C2375 C 0.4839 0.79218 0.82729 0.0
C2376 C 0.34274 0.77503 0.80472 0.0
C2377 C 0.3617 0.77732 0.81031 0.0
C2378 C 0.40613 0.81048 0.81416 0.0
C2379 C 0.45363 0.80011 0.82911 0.0
C2380 C 0.43349 0.79771 0.82196 0.0
C2381 C 0.37451 0.79054 0.80354 0.0
C2382 C 0.39492 0.79305 0.8097 0.0
H2383 H 0.48479 0.82187 0.8657 0.0
H2384 H 0.45284 0.8194 0.8529 0.0
H2385 H 0.43294 0.8264 0.82387 0.0
H2386 H 0.34414 0.80689 0.7747 0.0
H2387 H 0.37679 0.81142 0.78496 0.0
C2388 C 0.50473 0.18482 0.15981 0.0
C2389 C 0.513 0.20219 0.15606 0.0
C2390 C 0.50599 0.16916 0.1481 0.0
C2391 C 0.53402 0.15275 0.11239 0.0
H2392 H 0.49299 0.11242 0.10018 0.0
C2393 C 0.53547 0.09266 0.0562 0.0
C2394 C 0.52726 0.07494 0.0591 0.0
C2395 C 0.53339 0.10791 0.06794 0.0
C2396 C 0.5047 0.12344 0.10356 0.0
H2397 H 0.52999 0.21657 0.13774 0.0
H2398 H 0.5321 0.18962 0.11741 0.0
H2399 H 0.4901 0.13905 0.12076 0.0
H2400 H 0.51011 0.05972 0.07685 0.0
H2401 H 0.50668 0.08615 0.09733 0.0
H2402 H 0.54865 0.13725 0.09527 0.0
C2403 C 0.52451 0.18787 0.12923 0.0
C2404 C 0.50303 0.13879 0.11545 0.0
C2405 C 0.52312 0.20343 0.1408 0.0
C2406 C 0.51676 0.07306 0.07411 0.0
C2407 C 0.51464 0.08832 0.08583 0.0
C2408 C 0.53568 0.13744 0.10052 0.0
C2409 C 0.51594 0.17041 0.13259 0.0
C2410 C 0.51766 0.15376 0.12007 0.0
C2411 C 0.52299 0.10606 0.08303 0.0
C2412 C 0.52107 0.12248 0.09583 0.0
H2413 H 0.49708 0.18337 0.17163 0.0
H2414 H 0.49938 0.15603 0.15141 0.0
H2415 H 0.54576 0.16372 0.11576 0.0
H2416 H 0.54366 0.09482 0.04486 0.0
H2417 H 0.53985 0.12124 0.065 0.0
C2418 C 0.0961 0.31482 0.32331 0.0
C2419 C 0.09039 0.30847 0.33987 0.0
C2420 C 0.1132 0.31308 0.31762 0.0
C2421 C 0.15292 0.28887 0.32677 0.0
H2422 H 0.17611 0.32276 0.29547 0.0
C2423 C 0.2183 0.27663 0.29361 0.0
C2424 C 0.23093 0.29115 0.28859 0.0
C2425 C 0.20167 0.27911 0.29994 0.0
C2426 C 0.17011 0.31318 0.30436 0.0
H2427 H 0.09902 0.29523 0.36336 0.0
H2428 H 0.12883 0.29261 0.35385 0.0
H2429 H 0.14749 0.32659 0.3066 0.0
H2430 H 0.23561 0.32014 0.28721 0.0
H2431 H 0.2072 0.32471 0.29904 0.0
H2432 H 0.17586 0.2759 0.3252 0.0
C2433 C 0.11991 0.2987 0.3449 0.0
C2434 C 0.15325 0.31522 0.31061 0.0
C2435 C 0.10267 0.30034 0.35054 0.0
C2436 C 0.22635 0.30848 0.29068 0.0
C2437 C 0.20977 0.31106 0.29736 0.0
C2438 C 0.16983 0.28691 0.32066 0.0
C2439 C 0.12561 0.305 0.32825 0.0
C2440 C 0.14412 0.30305 0.32188 0.0
C2441 C 0.19693 0.29639 0.30209 0.0
C2442 C 0.17884 0.29891 0.30915 0.0
H2443 H 0.08719 0.32102 0.31445 0.0
H2444 H 0.11646 0.31784 0.30456 0.0
H2445 H 0.14664 0.27895 0.33518 0.0
H2446 H 0.22127 0.26315 0.29283 0.0
H2447 H 0.19247 0.26721 0.30296 0.0
C2448 C 0.9365 0.00714 0.19436 0.0
C2449 C 0.94686 0.01613 0.21094 0.0
C2450 C 0.94315 0.00885 0.17709 0.0
C2451 C 0.97472 0.03852 0.15206 0.0
H2452 H 0.9735 0.99494 0.11866 0.0
C2453 C 0.99144 0.03837 0.07476 0.0
C2454 C 1.00433 0.02787 0.07013 0.0
C2455 C 0.98408 0.03741 0.0918 0.0
C2456 C 0.9739 0.00725 0.12781 0.0
H2457 H 0.97226 0.03429 0.22218 0.0
H2458 H 0.98364 0.03765 0.19196 0.0
H2459 H 0.96139 0.99254 0.1486 0.0
H2460 H 0.01931 0.0079 0.07963 0.0
H2461 H 1.00604 0.0058 0.10893 0.0
H2462 H 0.98703 0.05322 0.13108 0.0
C2463 C 0.97042 0.02913 0.19238 0.0
C2464 C 0.96688 0.00588 0.14493 0.0
C2465 C 0.96393 0.02713 0.20972 0.0
C2466 C 0.00947 0.01623 0.08279 0.0
C2467 C 1.0018 0.01495 0.09955 0.0
C2468 C 0.98138 0.03992 0.13473 0.0
C2469 C 0.96018 0.01989 0.17583 0.0
C2470 C 0.96733 0.02148 0.15738 0.0
C2471 C 0.98909 0.0256 0.10436 0.0
C2472 C 0.98121 0.02428 0.12245 0.0
H2473 H 0.92331 0.99855 0.19473 0.0
H2474 H 0.93485 1.00164 0.16464 0.0
H2475 H 0.97519 0.05082 0.16125 0.0
H2476 H 0.98727 0.0475 0.06533 0.0
H2477 H 0.97427 0.04574 0.09505 0.0
C2478 C 0.27792 0.63703 0.46685 0.0
C2479 C 0.27952 0.64561 0.48511 0.0
C2480 C 0.27834 0.64728 0.45184 0.0
C2481 C 0.28651 0.69462 0.43892 0.0
H2482 H 0.24591 0.67439 0.40106 0.0
C2483 C 0.25191 0.73742 0.3897 0.0
C2484 C 0.24674 0.72981 0.3711 0.0
C2485 C 0.25888 0.72729 0.40279 0.0
C2486 C 0.25749 0.68014 0.41133 0.0
H2487 H 0.28444 0.67183 0.50199 0.0
H2488 H 0.28461 0.68948 0.47594 0.0
H2489 H 0.25431 0.65616 0.42492 0.0
H2490 H 0.24481 0.70569 0.35163 0.0
H2491 H 0.25714 0.68818 0.37434 0.0
H2492 H 0.2891 0.71894 0.42555 0.0
C2493 C 0.28324 0.67491 0.47312 0.0
C2494 C 0.26239 0.66964 0.42498 0.0
C2495 C 0.28297 0.6647 0.4881 0.0
C2496 C 0.24877 0.71197 0.36583 0.0
C2497 C 0.25572 0.70189 0.37886 0.0
C2498 C 0.28153 0.7052 0.42526 0.0
C2499 C 0.28023 0.66627 0.4548 0.0
C2500 C 0.2768 0.6768 0.43908 0.0
C2501 C 0.26071 0.70937 0.39749 0.0
C2502 C 0.26683 0.69809 0.41146 0.0
H2503 H 0.27547 0.62237 0.46407 0.0
H2504 H 0.2764 0.64027 0.43787 0.0
H2505 H 0.29778 0.70048 0.44951 0.0
H2506 H 0.25074 0.75123 0.39409 0.0
H2507 H 0.26247 0.73334 0.4171 0.0
C2508 C 0.63571 0.01816 0.69907 0.0
C2509 C 0.65189 0.03111 0.70381 0.0
C2510 C 0.62549 0.01736 0.68193 0.0
C2511 C 0.62506 0.0317 0.63539 0.0
H2512 H 0.57418 0.03194 0.64089 0.0
C2513 C 0.55674 0.04216 0.5884 0.0
C2514 C 0.55699 0.02952 0.57302 0.0
C2515 C 0.56888 0.04304 0.6044 0.0
C2516 C 0.58838 0.03207 0.63923 0.0
H2517 H 0.671 0.05238 0.69403 0.0
H2518 H 0.65288 0.05112 0.66393 0.0
H2519 H 0.59545 0.03105 0.6682 0.0
H2520 H 0.56939 0.00738 0.56247 0.0
H2521 H 0.59045 0.00896 0.59037 0.0
H2522 H 0.61787 0.03267 0.60634 0.0
C2523 C 0.64818 0.04158 0.67348 0.0
C2524 C 0.60047 0.03132 0.65474 0.0
C2525 C 0.6585 0.0423 0.69064 0.0
C2526 C 0.56905 0.01741 0.57406 0.0
C2527 C 0.58119 0.01838 0.58993 0.0
C2528 C 0.61291 0.03233 0.61983 0.0
C2529 C 0.63126 0.0296 0.66937 0.0
C2530 C 0.61881 0.03085 0.65288 0.0
C2531 C 0.58138 0.03135 0.60509 0.0
C2532 C 0.59447 0.03228 0.62165 0.0
H2533 H 0.63053 0.00915 0.70891 0.0
H2534 H 0.61269 0.00768 0.67881 0.0
H2535 H 0.63917 0.03145 0.6337 0.0
H2536 H 0.5476 0.05168 0.58787 0.0
H2537 H 0.56883 0.05312 0.61605 0.0
C2538 C 0.29003 0.34812 0.97402 0.0
C2539 C 0.28598 0.36564 0.97598 0.0
C2540 C 0.28951 0.33868 0.95626 0.0
C2541 C 0.2925 0.34789 0.9072 0.0
H2542 H 0.27461 0.29612 0.89471 0.0
C2543 C 0.27783 0.31516 0.83122 0.0
C2544 C 0.28286 0.29841 0.82652 0.0
C2545 C 0.27884 0.32238 0.84981 0.0
C2546 C 0.27986 0.31056 0.89804 0.0
H2547 H 0.27719 0.38642 0.96067 0.0
H2548 H 0.27594 0.36997 0.9301 0.0
H2549 H 0.27449 0.31018 0.92651 0.0
H2550 H 0.29262 0.27599 0.83793 0.0
H2551 H 0.29452 0.28873 0.87051 0.0
H2552 H 0.29773 0.3484 0.87885 0.0
C2553 C 0.28004 0.36366 0.94216 0.0
C2554 C 0.27978 0.31863 0.91628 0.0
C2555 C 0.28061 0.37307 0.95979 0.0
C2556 C 0.2888 0.289 0.841 0.0
C2557 C 0.28974 0.29622 0.8597 0.0
C2558 C 0.29253 0.33987 0.88906 0.0
C2559 C 0.28494 0.34655 0.94007 0.0
C2560 C 0.28581 0.33748 0.92102 0.0
C2561 C 0.28485 0.31308 0.86433 0.0
C2562 C 0.28595 0.32116 0.88412 0.0
H2563 H 0.2943 0.342 0.98615 0.0
H2564 H 0.29339 0.32554 0.95521 0.0
H2565 H 0.29775 0.36234 0.91039 0.0
H2566 H 0.27313 0.32281 0.82051 0.0
H2567 H 0.27467 0.33523 0.85281 0.0
C2568 C 0.93678 0.02548 0.3352 0.0
C2569 C 0.94412 0.01915 0.31932 0.0
C2570 C 0.94588 0.02614 0.35304 0.0
C2571 C 0.99012 0.02547 0.38028 0.0
H2572 H 0.95893 0.0079 0.41677 0.0
C2573 C 0.01898 0.01801 0.45629 0.0
C2574 C 0.00869 0.02255 0.47057 0.0
C2575 C 0.01191 0.0169 0.43747 0.0
C2576 C 0.96789 0.0131 0.4069 0.0
H2577 H 0.9674 0.0093 0.30996 0.0
H2578 H 0.98341 0.01052 0.34131 0.0
H2579 H 0.9458 0.00822 0.38498 0.0
H2580 H 0.98258 0.02883 0.47608 0.0
H2581 H 0.97069 0.02775 0.44369 0.0
H2582 H 0.01221 0.03059 0.4024 0.0
C2583 C 0.97052 0.015 0.33981 0.0
C2584 C 0.96032 0.01324 0.38857 0.0
C2585 C 0.96135 0.01432 0.32182 0.0
C2586 C 0.99108 0.02564 0.46553 0.0
C2587 C 0.98411 0.02472 0.44682 0.0
C2588 C 0.99773 0.02544 0.39875 0.0
C2589 C 0.96265 0.02048 0.35569 0.0
C2590 C 0.97124 0.01965 0.37502 0.0
C2591 C 0.99438 0.02034 0.43244 0.0
C2592 C 0.98667 0.01947 0.41243 0.0
H2593 H 0.92367 0.02954 0.33392 0.0
H2594 H 0.93959 0.03089 0.36485 0.0
H2595 H 0.99896 0.03055 0.37025 0.0
H2596 H 0.0326 0.01554 0.45961 0.0
H2597 H 0.02018 0.01324 0.42689 0.0
C2598 C 0.28189 0.65473 0.60607 0.0
C2599 C 0.278 0.66187 0.5894 0.0
C2600 C 0.28253 0.66531 0.62307 0.0
C2601 C 0.28547 0.71334 0.6425 0.0
H2602 H 0.26986 0.6917 0.68596 0.0
C2603 C 0.27233 0.75442 0.70898 0.0
C2604 C 0.28266 0.75145 0.72515 0.0
C2605 C 0.27136 0.74303 0.6925 0.0
C2606 C 0.27422 0.69782 0.67385 0.0
H2607 H 0.27074 0.68489 0.57701 0.0
H2608 H 0.27065 0.70286 0.60643 0.0
H2609 H 0.26888 0.67229 0.65683 0.0
H2610 H 0.30018 0.73436 0.73673 0.0
H2611 H 0.2981 0.71433 0.70798 0.0
H2612 H 0.29015 0.73891 0.65945 0.0
C2613 C 0.27429 0.68966 0.60667 0.0
C2614 C 0.27384 0.68676 0.65726 0.0
C2615 C 0.27424 0.67935 0.58979 0.0
C2616 C 0.29203 0.73696 0.72453 0.0
C2617 C 0.29079 0.72542 0.70816 0.0
C2618 C 0.28546 0.72438 0.65893 0.0
C2619 C 0.27873 0.68292 0.62352 0.0
C2620 C 0.27944 0.69442 0.64137 0.0
C2621 C 0.28049 0.72842 0.69207 0.0
C2622 C 0.27988 0.71669 0.67467 0.0
H2623 H 0.28474 0.64117 0.60593 0.0
H2624 H 0.28621 0.65976 0.63577 0.0
H2625 H 0.29037 0.7197 0.63073 0.0
H2626 H 0.26493 0.76543 0.70906 0.0
H2627 H 0.26334 0.74549 0.68013 0.0
C2628 C 0.63826 0.03067 0.80387 0.0
C2629 C 0.65726 0.03414 0.80898 0.0
C2630 C 0.62635 0.03057 0.81739 0.0
C2631 C 0.62186 0.02887 0.86707 0.0
H2632 H 0.59035 0.0635 0.8597 0.0
C2633 C 0.59237 0.06388 0.9272 0.0
C2634 C 0.57509 0.06833 0.92397 0.0
C2635 C 0.60027 0.05623 0.91263 0.0
C2636 C 0.59871 0.05347 0.86184 0.0
H2637 H 0.67852 0.03882 0.83236 0.0
H2638 H 0.65758 0.03854 0.85604 0.0
H2639 H 0.60805 0.0553 0.83514 0.0
H2640 H 0.5522 0.06765 0.90314 0.0
H2641 H 0.56596 0.05415 0.87759 0.0
H2642 H 0.61268 0.02722 0.89391 0.0
C2643 C 0.65201 0.03596 0.8415 0.0
C2644 C 0.60889 0.04881 0.84777 0.0
C2645 C 0.66399 0.0362 0.82795 0.0
C2646 C 0.56569 0.06466 0.90593 0.0
C2647 C 0.57355 0.05689 0.89135 0.0
C2648 C 0.61152 0.0334 0.88111 0.0
C2649 C 0.63315 0.03376 0.8363 0.0
C2650 C 0.62085 0.03679 0.85041 0.0
C2651 C 0.59102 0.05278 0.8945 0.0
C2652 C 0.60018 0.0461 0.87882 0.0
H2653 H 0.63252 0.02882 0.7894 0.0
H2654 H 0.61184 0.02863 0.81304 0.0
H2655 H 0.63085 0.01942 0.86933 0.0
H2656 H 0.59997 0.0667 0.94095 0.0
H2657 H 0.61388 0.05357 0.9155 0.0
C2658 C 0.28363 0.34425 0.08525 0.0
C2659 C 0.28578 0.36293 0.08366 0.0
C2660 C 0.2823 0.33777 0.10263 0.0
C2661 C 0.26991 0.34798 0.14963 0.0
H2662 H 0.30208 0.31591 0.16419 0.0
C2663 C 0.27345 0.32323 0.22353 0.0
C2664 C 0.27767 0.30601 0.2252 0.0
C2665 C 0.27433 0.33083 0.2066 0.0
C2666 C 0.29268 0.32454 0.16034 0.0
H2667 H 0.28773 0.38939 0.09909 0.0
H2668 H 0.28487 0.37799 0.12933 0.0
H2669 H 0.30294 0.32717 0.13402 0.0
H2670 H 0.28572 0.2832 0.20994 0.0
H2671 H 0.28612 0.2957 0.18067 0.0
H2672 H 0.25913 0.34491 0.17561 0.0
C2673 C 0.2844 0.36839 0.11714 0.0
C2674 C 0.2933 0.33111 0.14299 0.0
C2675 C 0.28611 0.37492 0.09982 0.0
C2676 C 0.28239 0.29651 0.20937 0.0
C2677 C 0.2829 0.30387 0.19247 0.0
C2678 C 0.269 0.34112 0.1669 0.0
C2679 C 0.28271 0.34976 0.1188 0.0
C2680 C 0.28192 0.34287 0.13737 0.0
C2681 C 0.27915 0.32128 0.19076 0.0
C2682 C 0.28033 0.32918 0.17254 0.0
H2683 H 0.28338 0.33465 0.07312 0.0
H2684 H 0.2809 0.32333 0.10342 0.0
H2685 H 0.2609 0.35698 0.14568 0.0
H2686 H 0.26961 0.33092 0.23534 0.0
H2687 H 0.27149 0.34432 0.20608 0.0
C2688 C 0.24173 0.9646 0.99079 0.0
C2689 C 0.24506 0.94699 0.99178 0.0
C2690 C 0.22468 0.96834 0.99384 0.0
C2691 C 0.18465 0.97082 0.99696 0.0
H2692 H 0.17111 0.95177 0.04246 0.0
C2693 C 0.12038 0.98301 0.02949 0.0
C2694 C 0.1231 0.98862 0.04872 0.0
C2695 C 0.13392 0.97647 0.02072 0.0
C2696 C 0.17471 0.95718 0.02976 0.0
H2697 H 0.23272 0.91911 0.99449 0.0
H2698 H 0.20303 0.92567 0.99968 0.0
H2699 H 0.19676 0.94313 0.02844 0.0
H2700 H 0.14181 0.99159 0.07394 0.0
H2701 H 0.16559 0.98013 0.05861 0.0
H2702 H 0.16285 0.98535 0.99871 0.0
C2703 C 0.21367 0.93662 0.99705 0.0
C2704 C 0.18923 0.95207 0.0216 0.0
C2705 C 0.23066 0.93291 0.99412 0.0
C2706 C 0.13933 0.9871 0.05915 0.0
C2707 C 0.1529 0.98059 0.05037 0.0
C2708 C 0.17 0.97588 0.0051 0.0
C2709 C 0.2108 0.95449 0.9978 0.0
C2710 C 0.19443 0.95895 0.00523 0.0
C2711 C 0.15038 0.97542 0.03104 0.0
C2712 C 0.16508 0.96926 0.02171 0.0
H2713 H 0.25258 0.97567 0.98886 0.0
H2714 H 0.22277 0.98224 0.99435 0.0
H2715 H 0.18845 0.9763 0.98435 0.0
H2716 H 0.10785 0.98392 0.02121 0.0
H2717 H 0.13155 0.9723 0.00586 0.0
C2718 C 0.6992 0.65323 0.99858 0.0
C2719 C 0.71538 0.64906 0.0067 0.0
C2720 C 0.68249 0.64131 0.9986 0.0
C2721 C 0.66294 0.59359 0.00586 0.0
H2722 H 0.61935 0.61287 0.01236 0.0
C2723 C 0.57998 0.56736 0.00202 0.0
C2724 C 0.57909 0.55336 0.01355 0.0
C2725 C 0.59665 0.5785 1.0003 0.0
C2726 C 0.63137 0.60727 0.01031 0.0
H2727 H 0.72679 0.63015 0.02256 0.0
H2728 H 0.69779 0.60955 0.02298 0.0
H2729 H 0.64814 0.63362 0.01126 0.0
H2730 H 0.59523 0.53991 0.03203 0.0
H2731 H 0.62441 0.55922 0.02876 0.0
H2732 H 0.64612 0.56723 0.00531 0.0
C2733 C 0.69789 0.62151 0.01583 0.0
C2734 C 0.64789 0.61917 0.00963 0.0
C2735 C 0.71453 0.63332 0.01565 0.0
C2736 C 0.5954 0.55042 0.02288 0.0
C2737 C 0.61214 0.56151 0.02103 0.0
C2738 C 0.64643 0.5817 0.00665 0.0
C2739 C 0.68164 0.62523 0.00718 0.0
C2740 C 0.66392 0.61251 0.00741 0.0
C2741 C 0.6129 0.57586 0.00995 0.0
C2742 C 0.63045 0.5884 0.00889 0.0
H2743 H 0.69954 0.66547 0.99184 0.0
H2744 H 0.6703 0.64458 0.99168 0.0
H2745 H 0.67491 0.58791 0.00392 0.0
H2746 H 0.56772 0.56998 0.99455 0.0
H2747 H 0.59682 0.58928 0.99145 0.0
C2748 C 0.67167 0.49521 0.27046 0.0
C2749 C 0.6594 0.49591 0.28369 0.0
C2750 C 0.6795 0.47997 0.26732 0.0
C2751 C 0.68991 0.43987 0.28923 0.0
H2752 H 0.70249 0.42681 0.23998 0.0
C2753 C 0.72175 0.37681 0.26454 0.0
C2754 C 0.73561 0.38074 0.25301 0.0
C2755 C 0.71246 0.39036 0.2708 0.0
C2756 C 0.69917 0.43034 0.25386 0.0
H2757 H 0.6456 0.48137 0.3041 0.0
H2758 H 0.65873 0.45417 0.29812 0.0
H2759 H 0.68456 0.45014 0.2446 0.0
H2760 H 0.75169 0.40212 0.24039 0.0
H2761 H 0.73572 0.42567 0.25136 0.0
H2762 H 0.70441 0.41954 0.2982 0.0
C2763 C 0.66252 0.46551 0.29029 0.0
C2764 C 0.6889 0.4438 0.25654 0.0
C2765 C 0.65476 0.48093 0.29353 0.0
C2766 C 0.74097 0.3987 0.24913 0.0
C2767 C 0.73175 0.41214 0.25531 0.0
C2768 C 0.70005 0.42613 0.28645 0.0
C2769 C 0.6752 0.46492 0.27728 0.0
C2770 C 0.68448 0.44912 0.27433 0.0
C2771 C 0.71689 0.40798 0.26553 0.0
C2772 C 0.70514 0.42156 0.26879 0.0
H2773 H 0.67576 0.50679 0.26303 0.0
H2774 H 0.68949 0.48034 0.25753 0.0
H2775 H 0.6869 0.44363 0.30316 0.0
H2776 H 0.71727 0.36303 0.26762 0.0
H2777 H 0.70109 0.38679 0.2787 0.0
C2778 C 0.85275 0.43409 0.50399 0.0
C2779 C 0.8385 0.44222 0.50946 0.0
C2780 C 0.87078 0.44319 0.50881 0.0
C2781 C 0.90061 0.48126 0.51076 0.0
H2782 H 0.92955 0.47847 0.55726 0.0
C2783 C 0.97051 0.52559 0.52867 0.0
C2784 C 0.98382 0.51481 0.52921 0.0
C2785 C 0.95262 0.51813 0.53105 0.0
C2786 C 0.92145 0.47948 0.54437 0.0
H2787 H 0.8315 0.46524 0.52527 0.0
H2788 H 0.86319 0.48131 0.53352 0.0
H2789 H 0.89801 0.46098 0.55061 0.0
H2790 H 0.98934 0.48831 0.53399 0.0
H2791 H 0.95813 0.47542 0.53854 0.0
H2792 H 0.92374 0.49966 0.50433 0.0
C2793 C 0.86036 0.46811 0.52534 0.0
C2794 C 0.90364 0.46947 0.54055 0.0
C2795 C 0.84238 0.45908 0.52044 0.0
C2796 C 0.97938 0.49698 0.53374 0.0
C2797 C 0.96154 0.4896 0.53637 0.0
C2798 C 0.91817 0.49151 0.51469 0.0
C2799 C 0.87457 0.4602 0.51951 0.0
C2800 C 0.89328 0.47031 0.52367 0.0
C2801 C 0.94793 0.49987 0.53415 0.0
C2802 C 0.92874 0.49063 0.53146 0.0
H2803 H 0.8499 0.4209 0.4958 0.0
H2804 H 0.88174 0.43706 0.50416 0.0
H2805 H 0.89283 0.48172 0.49757 0.0
H2806 H 0.97366 0.53944 0.52534 0.0
H2807 H 0.94223 0.52624 0.52936 0.0
C2808 C 0.37366 0.07823 0.30015 0.0
C2809 C 0.3616 0.06401 0.30623 0.0
C2810 C 0.36848 0.09473 0.29804 0.0
C2811 C 0.34439 0.11456 0.27586 0.0
H2812 H 0.3172 0.14277 0.30581 0.0
C2813 C 0.29042 0.15093 0.24521 0.0
C2814 C 0.29537 0.16994 0.24862 0.0
C2815 C 0.29984 0.14011 0.25532 0.0
C2816 C 0.32491 0.13502 0.29746 0.0
H2817 H 0.33553 0.05663 0.31688 0.0
H2818 H 0.32641 0.08549 0.31289 0.0
H2819 H 0.33329 0.12097 0.32011 0.0
H2820 H 0.31402 0.19246 0.26551 0.0
H2821 H 0.33002 0.17332 0.28358 0.0
H2822 H 0.33528 0.12779 0.25304 0.0
C2823 C 0.33986 0.08381 0.30982 0.0
C2824 C 0.33406 0.12267 0.30556 0.0
C2825 C 0.34502 0.06724 0.31192 0.0
C2826 C 0.30963 0.17786 0.26273 0.0
C2827 C 0.31883 0.167 0.27305 0.0
C2828 C 0.33505 0.1266 0.26776 0.0
C2829 C 0.35119 0.0973 0.30201 0.0
C2830 C 0.34368 0.11222 0.29472 0.0
C2831 C 0.31414 0.14811 0.26918 0.0
C2832 C 0.32504 0.13665 0.27842 0.0
H2833 H 0.38671 0.07633 0.29605 0.0
H2834 H 0.3775 0.10509 0.29219 0.0
H2835 H 0.35144 0.10641 0.26714 0.0
H2836 H 0.2793 0.14441 0.23471 0.0
H2837 H 0.2961 0.12547 0.25223 0.0
C2838 C 0.32211 0.14514 0.4943 0.0
C2839 C 0.31199 0.14958 0.5087 0.0
C2840 C 0.33781 0.13792 0.498 0.0
C2841 C 0.36948 0.12771 0.53759 0.0
H2842 H 0.38016 0.09274 0.49965 0.0
C2843 C 0.40987 0.0726 0.55404 0.0
C2844 C 0.42709 0.07477 0.54748 0.0
C2845 C 0.39671 0.08193 0.54723 0.0
C2846 C 0.3774 0.10259 0.51029 0.0
H2847 H 0.31015 0.1498 0.53818 0.0
H2848 H 0.33673 0.13635 0.54462 0.0
H2849 H 0.3559 0.1094 0.49253 0.0
H2850 H 0.44331 0.08749 0.52749 0.0
H2851 H 0.41983 0.10345 0.5151 0.0
H2852 H 0.39026 0.11985 0.55561 0.0
C2853 C 0.33334 0.1392 0.53055 0.0
C2854 C 0.36355 0.11231 0.50623 0.0
C2855 C 0.31798 0.14692 0.52691 0.0
C2856 C 0.43022 0.08547 0.53283 0.0
C2857 C 0.41685 0.09468 0.52581 0.0
C2858 C 0.38297 0.1177 0.54172 0.0
C2859 C 0.34345 0.13434 0.51613 0.0
C2860 C 0.35917 0.12489 0.51991 0.0
C2861 C 0.40022 0.09342 0.53341 0.0
C2862 C 0.38694 0.10493 0.52819 0.0
H2863 H 0.31768 0.14698 0.4801 0.0
H2864 H 0.34531 0.1349 0.48652 0.0
H2865 H 0.36711 0.13756 0.54842 0.0
H2866 H 0.40678 0.06413 0.56497 0.0
H2867 H 0.38389 0.08054 0.55312 0.0
C2868 C 0.67562 0.5897 0.27918 0.0
C2869 C 0.66098 0.58908 0.28985 0.0
C2870 C 0.68768 0.60604 0.27846 0.0
C2871 C 0.70484 0.65148 0.30421 0.0
H2872 H 0.72211 0.66351 0.25753 0.0
C2873 C 0.74311 0.72308 0.2954 0.0
C2874 C 0.75676 0.72527 0.2834 0.0
C2875 C 0.7328 0.70598 0.29679 0.0
C2876 C 0.71771 0.66025 0.27076 0.0
H2877 H 0.64669 0.6051 0.30723 0.0
H2878 H 0.66796 0.63392 0.30617 0.0
H2879 H 0.7007 0.63512 0.25835 0.0
H2880 H 0.77051 0.71096 0.26373 0.0
H2881 H 0.7527 0.68081 0.26648 0.0
H2882 H 0.72187 0.67653 0.31667 0.0
C2883 C 0.67032 0.62165 0.29863 0.0
C2884 C 0.70534 0.64398 0.27121 0.0
C2885 C 0.6581 0.60524 0.29919 0.0
C2886 C 0.76022 0.70974 0.27322 0.0
C2887 C 0.74985 0.6925 0.27464 0.0
C2888 C 0.7173 0.66769 0.30379 0.0
C2889 C 0.68533 0.6222 0.28833 0.0
C2890 C 0.6986 0.63947 0.2879 0.0
C2891 C 0.73582 0.69043 0.28629 0.0
C2892 C 0.72376 0.67242 0.28701 0.0
H2893 H 0.67787 0.57743 0.27152 0.0
H2894 H 0.69912 0.6059 0.27051 0.0
H2895 H 0.70022 0.64827 0.31737 0.0
H2896 H 0.74004 0.73471 0.3035 0.0
H2897 H 0.72199 0.70508 0.30568 0.0
C2898 C 0.84798 0.46723 0.77541 0.0
C2899 C 0.86475 0.47178 0.78671 0.0
C2900 C 0.8391 0.44917 0.77148 0.0
C2901 C 0.83471 0.40727 0.75758 0.0
H2902 H 0.81437 0.38429 0.79845 0.0
C2903 C 0.81299 0.33082 0.76609 0.0
C2904 C 0.79503 0.32551 0.77018 0.0
C2905 C 0.81986 0.34885 0.76408 0.0
C2906 C 0.81985 0.39068 0.78693 0.0
H2907 H 0.88602 0.46152 0.80208 0.0
H2908 H 0.86997 0.42961 0.79577 0.0
H2909 H 0.83166 0.41554 0.80401 0.0
H2910 H 0.76992 0.33462 0.77478 0.0
H2911 H 0.78241 0.36656 0.77221 0.0
H2912 H 0.82386 0.38186 0.74075 0.0
C2913 C 0.86382 0.44007 0.78999 0.0
C2914 C 0.82975 0.40839 0.79013 0.0
C2915 C 0.87289 0.45814 0.79362 0.0
C2916 C 0.7838 0.33839 0.77155 0.0
C2917 C 0.79084 0.35654 0.76999 0.0
C2918 C 0.82523 0.38931 0.75447 0.0
C2919 C 0.84693 0.43558 0.77888 0.0
C2920 C 0.8371 0.41677 0.77547 0.0
C2921 C 0.80902 0.36185 0.76667 0.0
C2922 C 0.81766 0.38105 0.76913 0.0
H2923 H 0.84179 0.47765 0.7696 0.0
H2924 H 0.82601 0.44583 0.76294 0.0
H2925 H 0.84043 0.41365 0.74617 0.0
H2926 H 0.82212 0.32132 0.76565 0.0
H2927 H 0.83405 0.35286 0.7619 0.0
C2928 C 0.03912 0.83784 0.0706 0.0
C2929 C 0.04915 0.83577 0.0875 0.0
C2930 C 0.03793 0.85505 0.06515 0.0
C2931 C 0.05837 0.90561 0.07535 0.0
H2932 H 0.01478 0.90964 0.04412 0.0
C2933 C 0.04292 0.97606 0.05613 0.0
C2934 C 0.03468 0.97708 0.03802 0.0
C2935 C 0.04516 0.95931 0.06231 0.0
C2936 C 0.02719 0.90886 0.05266 0.0
H2937 H 0.06604 0.85116 0.11173 0.0
H2938 H 0.06383 0.88121 0.1024 0.0
H2939 H 0.01761 0.88068 0.05493 0.0
H2940 H 0.02323 0.96058 0.01213 0.0
H2941 H 0.02617 0.93147 0.02303 0.0
H2942 H 0.06764 0.93409 0.07333 0.0
C2943 C 0.05695 0.8693 0.09315 0.0
C2944 C 0.0289 0.89201 0.05892 0.0
C2945 C 0.05821 0.85192 0.09862 0.0
C2946 C 0.02897 0.96055 0.02632 0.0
C2947 C 0.03084 0.94372 0.03262 0.0
C2948 C 0.05656 0.92256 0.06923 0.0
C2949 C 0.04659 0.87128 0.07632 0.0
C2950 C 0.04462 0.88985 0.07026 0.0
C2951 C 0.039 0.9427 0.05077 0.0
C2952 C 0.04098 0.92453 0.05761 0.0
H2953 H 0.032 0.82601 0.06135 0.0
H2954 H 0.03023 0.85548 0.05188 0.0
H2955 H 0.07083 0.90487 0.08381 0.0
H2956 H 0.0476 0.9883 0.06573 0.0
H2957 H 0.05142 0.95938 0.07639 0.0
C2958 C 0.95073 0.2524 0.89114 0.0
C2959 C 0.95528 0.26389 0.90799 0.0
C2960 C 0.93453 0.25216 0.8796 0.0
C2961 C 0.89538 0.24859 0.86072 0.0
H2962 H 0.8822 0.29513 0.8547 0.0
C2963 C 0.82767 0.25621 0.81763 0.0
C2964 C 0.82891 0.27005 0.80586 0.0
C2965 C 0.84268 0.25482 0.83024 0.0
C2966 C 0.88568 0.28201 0.85615 0.0
H2967 H 0.94571 0.28311 0.92667 0.0
H2968 H 0.91749 0.28299 0.90645 0.0
H2969 H 0.90827 0.29347 0.87686 0.0
H2970 H 0.84713 0.29331 0.7983 0.0
H2971 H 0.87313 0.29102 0.82032 0.0
H2972 H 0.87266 0.23714 0.84004 0.0
C2973 C 0.9266 0.27435 0.90192 0.0
C2974 C 0.90061 0.28102 0.86902 0.0
C2975 C 0.94272 0.27437 0.91359 0.0
C2976 C 0.84563 0.28242 0.80705 0.0
C2977 C 0.86053 0.2812 0.81982 0.0
C2978 C 0.88026 0.24953 0.84806 0.0
C2979 C 0.92238 0.26346 0.88457 0.0
C2980 C 0.90583 0.26433 0.87142 0.0
C2981 C 0.85931 0.2674 0.83165 0.0
C2982 C 0.87525 0.26628 0.84546 0.0
H2983 H 0.95997 0.24388 0.88664 0.0
H2984 H 0.93192 0.24364 0.86639 0.0
H2985 H 0.89881 0.23545 0.86222 0.0
H2986 H 0.81504 0.24642 0.81712 0.0
H2987 H 0.84113 0.24409 0.83917 0.0
C2988 C 0.55519 0.23454 0.57946 0.0
C2989 C 0.54779 0.23898 0.59598 0.0
C2990 C 0.55386 0.21626 0.57207 0.0
C2991 C 0.53032 0.1731 0.56008 0.0
H2992 H 0.56665 0.14737 0.57975 0.0
C2993 C 0.52275 0.09465 0.5404 0.0
C2994 C 0.53841 0.08685 0.54008 0.0
C2995 C 0.52398 0.11313 0.5469 0.0
C2996 C 0.55644 0.15423 0.57381 0.0
H2997 H 0.53412 0.22739 0.61816 0.0
H2998 H 0.53177 0.19557 0.60526 0.0
H2999 H 0.5685 0.17933 0.59097 0.0
H3000 H 0.56768 0.09291 0.54712 0.0
H3001 H 0.57007 0.12503 0.55735 0.0
H3002 H 0.51823 0.14832 0.54278 0.0
C3003 C 0.53826 0.20629 0.59783 0.0
C3004 C 0.55748 0.17265 0.58044 0.0
C3005 C 0.53958 0.22454 0.60519 0.0
C3006 C 0.55534 0.09828 0.54668 0.0
C3007 C 0.55663 0.11685 0.55292 0.0
C3008 C 0.52925 0.15467 0.55343 0.0
C3009 C 0.54538 0.20187 0.58117 0.0
C3010 C 0.54443 0.18234 0.5737 0.0
C3011 C 0.54097 0.12474 0.55321 0.0
C3012 C 0.54226 0.14475 0.56018 0.0
H3013 H 0.56226 0.24523 0.57238 0.0
H3014 H 0.55966 0.21336 0.55933 0.0
H3015 H 0.52002 0.18014 0.5546 0.0
H3016 H 0.50936 0.08643 0.53576 0.0
H3017 H 0.51144 0.11816 0.5472 0.0
C3018 C 0.5681 0.78284 0.41872 0.0
C3019 C 0.55201 0.77131 0.40999 0.0
C3020 C 0.58446 0.78406 0.41052 0.0
C3021 C 0.60566 0.76226 0.37129 0.0
H3022 H 0.63521 0.81045 0.37304 0.0
C3023 C 0.65198 0.78358 0.31481 0.0
C3024 C 0.66965 0.79375 0.32054 0.0
C3025 C 0.63954 0.77967 0.32773 0.0
C3026 C 0.62723 0.79686 0.37257 0.0
H3027 H 0.54065 0.75156 0.38627 0.0
H3028 H 0.56861 0.75375 0.37192 0.0
H3029 H 0.61036 0.80544 0.3924 0.0
H3030 H 0.68813 0.80779 0.34437 0.0
H3031 H 0.66614 0.80137 0.36701 0.0
H3032 H 0.62202 0.75397 0.35072 0.0
C3033 C 0.56904 0.76169 0.38522 0.0
C3034 C 0.61297 0.79392 0.38378 0.0
C3035 C 0.55284 0.76045 0.39343 0.0
C3036 C 0.67464 0.79983 0.33957 0.0
C3037 C 0.66203 0.79625 0.35249 0.0
C3038 C 0.6197 0.76528 0.3599 0.0
C3039 C 0.58506 0.77385 0.39332 0.0
C3040 C 0.60169 0.77663 0.38307 0.0
C3041 C 0.64429 0.78613 0.34671 0.0
C3042 C 0.63049 0.78266 0.36015 0.0
H3043 H 0.56779 0.79165 0.43131 0.0
H3044 H 0.59649 0.7934 0.41742 0.0
H3045 H 0.59774 0.74863 0.3706 0.0
H3046 H 0.64774 0.77872 0.30024 0.0
H3047 H 0.62598 0.77197 0.32275 0.0
C3048 C 0.04293 0.25669 0.40956 0.0
C3049 C 0.04049 0.25558 0.38999 0.0
C3050 C 0.0411 0.24097 0.41862 0.0
C3051 C 0.04273 0.19216 0.41233 0.0
H3052 H 0.01425 0.18905 0.45399 0.0
C3053 C 0.02079 0.12432 0.44265 0.0
C3054 C 0.01826 0.12428 0.46159 0.0
C3055 C 0.02497 0.1406 0.43479 0.0
C3056 C 0.02254 0.18973 0.44262 0.0
H3057 H 0.03444 0.23689 0.36466 0.0
H3058 H 0.03165 0.20938 0.3805 0.0
H3059 H 0.01843 0.21652 0.43844 0.0
H3060 H 0.01898 0.14168 0.48724 0.0
H3061 H 0.02685 0.17018 0.47367 0.0
H3062 H 0.04717 0.16559 0.4166 0.0
C3063 C 0.03491 0.2225 0.38882 0.0
C3064 C 0.02485 0.20552 0.43361 0.0
C3065 C 0.03647 0.23827 0.37972 0.0
C3066 C 0.02087 0.14113 0.47263 0.0
C3067 C 0.02513 0.15751 0.46474 0.0
C3068 C 0.0406 0.17646 0.42146 0.0
C3069 C 0.03702 0.22364 0.40841 0.0
C3070 C 0.03484 0.2069 0.41821 0.0
C3071 C 0.02696 0.15751 0.44558 0.0
C3072 C 0.03028 0.17486 0.43664 0.0
H3073 H 0.04596 0.26976 0.41797 0.0
H3074 H 0.043 0.24242 0.43368 0.0
H3075 H 0.05076 0.19284 0.40074 0.0
H3076 H 0.0192 0.11167 0.43371 0.0
H3077 H 0.02603 0.13981 0.42001 0.0
C3078 C 0.58656 0.25455 0.19178 0.0
C3079 C 0.57362 0.25827 0.20365 0.0
C3080 C 0.60511 0.25611 0.19854 0.0
C3081 C 0.6406 0.27587 0.23962 0.0
H3082 H 0.66821 0.24322 0.21648 0.0
C3083 C 0.72 0.28552 0.2581 0.0
C3084 C 0.7282 0.27013 0.2578 0.0
C3085 C 0.70131 0.28405 0.25184 0.0
C3086 C 0.66081 0.25242 0.22332 0.0
H3087 H 0.57058 0.26669 0.23229 0.0
H3088 H 0.60276 0.2693 0.24414 0.0
H3089 H 0.63606 0.2406 0.2056 0.0
H3090 H 0.72253 0.24104 0.25027 0.0
H3091 H 0.69021 0.23836 0.23975 0.0
H3092 H 0.66529 0.28743 0.2576 0.0
C3093 C 0.59864 0.26536 0.22941 0.0
C3094 C 0.6422 0.25107 0.21683 0.0
C3095 C 0.58002 0.26378 0.22261 0.0
C3096 C 0.71693 0.25322 0.2509 0.0
C3097 C 0.69823 0.25173 0.24464 0.0
C3098 C 0.65924 0.27724 0.24609 0.0
C3099 C 0.6116 0.26144 0.21754 0.0
C3100 C 0.63165 0.2628 0.22478 0.0
C3101 C 0.68997 0.26712 0.24496 0.0
C3102 C 0.6698 0.26556 0.23808 0.0
H3103 H 0.58235 0.2503 0.1771 0.0
H3104 H 0.61441 0.25326 0.1887 0.0
H3105 H 0.63329 0.28534 0.24615 0.0
H3106 H 0.72805 0.29886 0.2631 0.0
H3107 H 0.69587 0.29636 0.25213 0.0
C3108 C 0.54993 0.87638 0.88148 0.0
C3109 C 0.54693 0.85879 0.88703 0.0
C3110 C 0.5497 0.89173 0.89407 0.0
C3111 C 0.54973 0.90711 0.94536 0.0
H3112 H 0.53346 0.94819 0.9261 0.0
C3113 C 0.55061 0.97376 0.99397 0.0
C3114 C 0.5378 0.98455 0.98951 0.0
C3115 C 0.55214 0.95864 0.98168 0.0
C3116 C 0.53782 0.93682 0.93192 0.0
H3117 H 0.54129 0.84389 0.91055 0.0
H3118 H 0.54034 0.87024 0.93211 0.0
H3119 H 0.53501 0.92189 0.9049 0.0
H3120 H 0.51599 0.98735 0.96898 0.0
H3121 H 0.51817 0.96096 0.94787 0.0
H3122 H 0.55165 0.92168 0.97248 0.0
C3123 C 0.54342 0.87243 0.91818 0.0
C3124 C 0.53906 0.92168 0.91956 0.0
C3125 C 0.54389 0.85714 0.90567 0.0
C3126 C 0.52633 0.97963 0.97262 0.0
C3127 C 0.52765 0.9644 0.96045 0.0
C3128 C 0.54827 0.92217 0.95776 0.0
C3129 C 0.54619 0.89007 0.91264 0.0
C3130 C 0.54507 0.90648 0.92599 0.0
C3131 C 0.54069 0.95363 0.96463 0.0
C3132 C 0.54229 0.93738 0.95131 0.0
H3133 H 0.55233 0.87833 0.86731 0.0
H3134 H 0.55232 0.90493 0.88912 0.0
H3135 H 0.55469 0.89599 0.95111 0.0
H3136 H 0.55977 0.97726 0.00679 0.0
H3137 H 0.56259 0.95112 0.98551 0.0
C3138 C 0.96823 0.7753 0.71768 0.0
C3139 C 0.97278 0.75947 0.70892 0.0
C3140 C 0.95057 0.7756 0.72261 0.0
C3141 C 0.90772 0.74716 0.73426 0.0
H3142 H 0.8866 0.78866 0.72395 0.0
C3143 C 0.8345 0.75415 0.75558 0.0
C3144 C 0.83011 0.77156 0.75807 0.0
C3145 C 0.85115 0.75153 0.74891 0.0
C3146 C 0.89218 0.77706 0.7275 0.0
H3147 H 0.96152 0.73129 0.69883 0.0
H3148 H 0.93076 0.73165 0.70795 0.0
H3149 H 0.9161 0.78627 0.71435 0.0
H3150 H 0.84043 0.79969 0.75487 0.0
H3151 H 0.86912 0.79563 0.74499 0.0
H3152 H 0.88413 0.73821 0.74803 0.0
C3153 C 0.94104 0.744 0.71079 0.0
C3154 C 0.90932 0.77563 0.72169 0.0
C3155 C 0.95875 0.74381 0.70541 0.0
C3156 C 0.8431 0.7861 0.75365 0.0
C3157 C 0.85975 0.78361 0.74741 0.0
C3158 C 0.89064 0.74876 0.74045 0.0
C3159 C 0.93656 0.75998 0.71942 0.0
C3160 C 0.91758 0.76074 0.72502 0.0
C3161 C 0.86427 0.76625 0.74463 0.0
C3162 C 0.88245 0.76388 0.73741 0.0
H3163 H 0.97842 0.78772 0.72069 0.0
H3164 H 0.94798 0.78817 0.72929 0.0
H3165 H 0.91348 0.73549 0.73726 0.0
H3166 H 0.82503 0.74246 0.7587 0.0
H3167 H 0.85352 0.73781 0.74693 0.0
C3168 C 0.10187 0.03724 0.83837 0.0
C3169 C 0.12024 0.03542 0.83928 0.0
C3170 C 0.09218 0.03493 0.85387 0.0
C3171 C 0.09316 0.01497 0.89896 0.0
H3172 H 0.06299 0.04924 0.91303 0.0
C3173 C 0.0675 0.02029 0.97175 0.0
C3174 C 0.04977 0.02352 0.9728 0.0
C3175 C 0.0753 0.02102 0.95498 0.0
C3176 C 0.07118 0.03939 0.90922 0.0
H3177 H 0.14257 0.02933 0.8573 0.0
H3178 H 0.12584 0.02531 0.88395 0.0
H3179 H 0.07731 0.05133 0.88437 0.0
H3180 H 0.02637 0.02999 0.95676 0.0
H3181 H 0.03984 0.0311 0.92774 0.0
H3182 H 0.08715 1.00309 0.9238 0.0
C3183 C 0.1188 0.02843 0.87131 0.0
C3184 C 0.07938 0.04058 0.89271 0.0
C3185 C 0.12848 0.03087 0.85597 0.0
C3186 C 0.04006 0.02741 0.95659 0.0
C3187 C 0.04786 0.0282 0.93989 0.0
C3188 C 0.08496 0.01378 0.91543 0.0
C3189 C 0.10056 0.03053 0.87059 0.0
C3190 C 0.09068 0.02852 0.88745 0.0
C3191 C 0.06562 0.02505 0.9388 0.0
C3192 C 0.07399 0.02607 0.92092 0.0
H3193 H 0.09509 0.04081 0.82581 0.0
H3194 H 0.07811 0.03654 0.85274 0.0
H3195 H 0.10147 0.00522 0.89523 0.0
H3196 H 0.07542 0.0173 0.98392 0.0
H3197 H 0.08908 0.01872 0.95479 0.0
C3198 C 0.774 0.38274 0.55034 0.0
C3199 C 0.77893 0.4017 0.55095 0.0
C3200 C 0.77587 0.37446 0.56652 0.0
C3201 C 0.7783 0.37383 0.61447 0.0
H3202 H 0.82141 0.3527 0.61145 0.0
C3203 C 0.81321 0.34026 0.67344 0.0
C3204 C 0.81785 0.32352 0.6677 0.0
C3205 C 0.80638 0.35046 0.66038 0.0
C3206 C 0.8093 0.35844 0.61242 0.0
H3207 H 0.788 0.42697 0.56912 0.0
H3208 H 0.79101 0.41227 0.59767 0.0
H3209 H 0.81202 0.3702 0.58698 0.0
H3210 H 0.81801 0.30398 0.64382 0.0
H3211 H 0.80668 0.32209 0.62103 0.0
H3212 H 0.77544 0.36172 0.63985 0.0
C3213 C 0.78585 0.40399 0.58455 0.0
C3214 C 0.80404 0.3685 0.59855 0.0
C3215 C 0.78418 0.41233 0.56827 0.0
C3216 C 0.81504 0.31701 0.64868 0.0
C3217 C 0.80844 0.3273 0.63564 0.0
C3218 C 0.7836 0.36371 0.62846 0.0
C3219 C 0.78236 0.38501 0.58357 0.0
C3220 C 0.7884 0.37601 0.59935 0.0
C3221 C 0.80433 0.34422 0.64136 0.0
C3222 C 0.79898 0.35569 0.62732 0.0
H3223 H 0.76992 0.37415 0.53723 0.0
H3224 H 0.77327 0.35977 0.56556 0.0
H3225 H 0.76613 0.3795 0.61516 0.0
H3226 H 0.81536 0.34579 0.68796 0.0
H3227 H 0.80339 0.36353 0.66507 0.0
C3228 C 0.40562 0.03 0.36284 0.0
C3229 C 0.40863 0.02193 0.34553 0.0
C3230 C 0.41956 0.03361 0.37761 0.0
C3231 C 0.45751 0.01695 0.39677 0.0
H3232 H 0.47621 0.06548 0.42206 0.0
C3233 C 0.51272 0.028 0.458 0.0
C3234 C 0.50953 0.03886 0.47362 0.0
C3235 C 0.50315 0.0283 0.44073 0.0
C3236 C 0.47104 0.05186 0.41517 0.0
H3237 H 0.42813 0.01089 0.33 0.0
H3238 H 0.45228 0.01673 0.35608 0.0
H3239 H 0.45265 0.06087 0.39535 0.0
H3240 H 0.49453 0.05912 0.48341 0.0
H3241 H 0.47707 0.05891 0.45345 0.0
H3242 H 0.47492 0.00761 0.41693 0.0
C3243 C 0.43932 0.02054 0.35804 0.0
C3244 C 0.45765 0.04927 0.39998 0.0
C3245 C 0.42556 0.01724 0.34322 0.0
C3246 C 0.49715 0.05053 0.47157 0.0
C3247 C 0.48733 0.05058 0.45436 0.0
C3248 C 0.47062 0.01946 0.41211 0.0
C3249 C 0.43641 0.02883 0.37522 0.0
C3250 C 0.45078 0.03179 0.39085 0.0
C3251 C 0.4899 0.0391 0.4389 0.0
C3252 C 0.47742 0.03691 0.42155 0.0
H3253 H 0.39267 0.03379 0.36484 0.0
H3254 H 0.41713 0.03988 0.39093 0.0
H3255 H 0.45219 1.00335 0.38987 0.0
H3256 H 0.52211 0.01877 0.45921 0.0
H3257 H 0.50565 0.01956 0.42895 0.0
C3258 C 0.77086 0.71744 0.07221 0.0
C3259 C 0.76979 0.6987 0.06758 0.0
C3260 C 0.77107 0.72478 0.09078 0.0
C3261 C 0.78196 0.71643 0.13947 0.0
H3262 H 0.74957 0.74913 0.1515 0.0
C3263 C 0.77407 0.73834 0.21615 0.0
C3264 C 0.77118 0.75592 0.22134 0.0
C3265 C 0.77337 0.73163 0.19739 0.0
C3266 C 0.75895 0.74026 0.14847 0.0
H3267 H 0.76843 0.67308 0.07902 0.0
H3268 H 0.76933 0.68592 0.11137 0.0
H3269 H 0.7502 0.73744 0.11911 0.0
H3270 H 0.76455 0.77998 0.21063 0.0
H3271 H 0.76376 0.76853 0.17787 0.0
H3272 H 0.79122 0.71955 0.16856 0.0
C3273 C 0.76987 0.69495 0.10063 0.0
C3274 C 0.75924 0.73349 0.12982 0.0
C3275 C 0.76931 0.68757 0.08205 0.0
C3276 C 0.7669 0.7664 0.20716 0.0
C3277 C 0.76639 0.75974 0.1883 0.0
C3278 C 0.7819 0.7234 0.15807 0.0
C3279 C 0.77056 0.71363 0.10525 0.0
C3280 C 0.77064 0.72135 0.12507 0.0
C3281 C 0.7699 0.74231 0.18308 0.0
C3282 C 0.77024 0.7353 0.16298 0.0
H3283 H 0.77113 0.72641 0.06143 0.0
H3284 H 0.77175 0.73923 0.09382 0.0
H3285 H 0.79111 0.70733 0.13633 0.0
H3286 H 0.77701 0.72971 0.22666 0.0
H3287 H 0.77556 0.71796 0.19419 0.0
C3288 C 0.12407 0.03779 0.71664 0.0
C3289 C 0.11299 0.03502 0.73102 0.0
C3290 C 0.11634 0.03759 0.69824 0.0
C3291 C 0.07192 0.02459 0.66682 0.0
H3292 H 0.0983 0.05598 0.63516 0.0
C3293 C 0.04086 0.03709 0.59341 0.0
C3294 C 0.05165 0.03433 0.57905 0.0
C3295 C 0.04797 0.03774 0.61213 0.0
C3296 C 0.09078 0.04711 0.64382 0.0
H3297 H 0.08499 0.02977 0.73718 0.0
H3298 H 0.07152 0.02993 0.70534 0.0
H3299 H 0.11121 0.05572 0.66719 0.0
H3300 H 0.07862 0.03086 0.57319 0.0
H3301 H 0.09109 0.0325 0.60575 0.0
H3302 H 0.05127 0.01643 0.64338 0.0
C3303 C 0.08621 0.03183 0.70807 0.0
C3304 C 0.09825 0.04681 0.66222 0.0
C3305 C 0.09395 0.03181 0.72645 0.0
C3306 C 0.06987 0.03284 0.58388 0.0
C3307 C 0.07706 0.03388 0.60255 0.0
C3308 C 0.06432 0.02513 0.6485 0.0
C3309 C 0.09727 0.03486 0.69365 0.0
C3310 C 0.08905 0.03541 0.67402 0.0
C3311 C 0.06615 0.03609 0.61691 0.0
C3312 C 0.07374 0.03626 0.63672 0.0
H3313 H 0.13878 0.04024 0.71962 0.0
H3314 H 0.12542 0.03955 0.68762 0.0
H3315 H 0.06446 0.01538 0.6752 0.0
H3316 H 0.02679 0.03833 0.59017 0.0
H3317 H 0.03926 0.03961 0.62289 0.0
C3318 C 0.77357 0.38252 0.4499 0.0
C3319 C 0.78378 0.39971 0.44792 0.0
C3320 C 0.76927 0.36903 0.43492 0.0
C3321 C 0.76644 0.36091 0.3842 0.0
H3322 H 0.77895 0.31458 0.3933 0.0
C3323 C 0.79165 0.31454 0.33188 0.0
C3324 C 0.77781 0.30027 0.32341 0.0
C3325 C 0.7895 0.32399 0.34855 0.0
C3326 C 0.77501 0.32731 0.39076 0.0
H3327 H 0.79702 0.41646 0.42862 0.0
H3328 H 0.78971 0.3926 0.40232 0.0
H3329 H 0.78018 0.33788 0.4195 0.0
H3330 H 0.75171 0.28334 0.32586 0.0
H3331 H 0.74787 0.30019 0.35552 0.0
H3332 H 0.76238 0.35061 0.35533 0.0
C3333 C 0.78488 0.38975 0.41548 0.0
C3334 C 0.77572 0.3406 0.40561 0.0
C3335 C 0.78915 0.40334 0.43051 0.0
C3336 C 0.76237 0.29454 0.3323 0.0
C3337 C 0.7602 0.30404 0.34908 0.0
C3338 C 0.76575 0.34763 0.36939 0.0
C3339 C 0.77509 0.37245 0.41768 0.0
C3340 C 0.77195 0.35768 0.40235 0.0
C3341 C 0.77357 0.31909 0.35688 0.0
C3342 C 0.77047 0.33102 0.37263 0.0
H3343 H 0.76895 0.37939 0.46308 0.0
H3344 H 0.76151 0.35586 0.43685 0.0
H3345 H 0.76326 0.37389 0.38141 0.0
H3346 H 0.80393 0.31858 0.32543 0.0
H3347 H 0.79996 0.33553 0.35464 0.0
C3348 C 0.39093 0.02558 0.22596 0.0
C3349 C 0.40182 0.03268 0.2428 0.0
C3350 C 0.39858 0.02565 0.2092 0.0
C3351 C 0.44099 0.04239 0.18809 0.0
H3352 H 0.43014 0.99396 0.16127 0.0
C3353 C 0.49223 0.01229 0.14749 0.0
C3354 C 0.48581 1.00209 0.13017 0.0
C3355 C 0.48006 0.01855 0.15861 0.0
C3356 C 0.4331 0.00765 0.16837 0.0
H3357 H 0.42874 0.0469 0.25521 0.0
H3358 H 0.4421 0.04678 0.2262 0.0
H3359 H 0.41135 1.00173 0.18501 0.0
H3360 H 0.46172 0.99035 0.11085 0.0
H3361 H 0.44037 1.00116 0.13043 0.0
H3362 H 0.46342 0.04787 0.17206 0.0
C3363 C 0.42767 0.04126 0.22575 0.0
C3364 C 0.42227 0.01216 0.18192 0.0
C3365 C 0.42004 0.04121 0.24245 0.0
C3366 C 0.46701 0.99826 0.12414 0.0
C3367 C 0.45481 1.00438 0.13533 0.0
C3368 C 0.45191 0.03782 0.17463 0.0
C3369 C 0.41722 0.03283 0.20905 0.0
C3370 C 0.42643 0.02941 0.19232 0.0
C3371 C 0.46124 0.01459 0.15266 0.0
C3372 C 0.44835 0.02025 0.16503 0.0
H3373 H 0.3768 0.01902 0.22581 0.0
H3374 H 0.39012 0.01932 0.19649 0.0
H3375 H 0.44436 0.05588 0.19566 0.0
H3376 H 0.50669 0.01558 0.15236 0.0
H3377 H 0.48534 0.02618 0.17203 0.0
C3378 C 0.77744 0.70867 0.95968 0.0
C3379 C 0.76493 0.69207 0.95815 0.0
C3380 C 0.78051 0.71779 0.94388 0.0
C3381 C 0.77206 0.70899 0.8914 0.0
H3382 H 0.7863 0.76128 0.89365 0.0
C3383 C 0.76545 0.74925 0.82793 0.0
C3384 C 0.78211 0.75837 0.82303 0.0
C3385 C 0.76458 0.74213 0.84498 0.0
C3386 C 0.78243 0.74664 0.89289 0.0
H3387 H 0.74525 0.67262 0.93885 0.0
H3388 H 0.74948 0.68881 0.91214 0.0
H3389 H 0.7819 0.74731 0.9224 0.0
H3390 H 0.81098 0.76701 0.83246 0.0
H3391 H 0.80925 0.75531 0.86277 0.0
H3392 H 0.77173 0.7085 0.86181 0.0
C3393 C 0.75776 0.69453 0.92511 0.0
C3394 C 0.77997 0.73857 0.90938 0.0
C3395 C 0.75507 0.68528 0.94066 0.0
C3396 C 0.79786 0.76045 0.83589 0.0
C3397 C 0.79691 0.75366 0.8532 0.0
C3398 C 0.77411 0.71707 0.875 0.0
C3399 C 0.77089 0.71067 0.92622 0.0
C3400 C 0.7745 0.71958 0.90889 0.0
C3401 C 0.78027 0.74429 0.85781 0.0
C3402 C 0.77919 0.73595 0.87553 0.0
H3403 H 0.78537 0.71422 0.9729 0.0
H3404 H 0.79081 0.7301 0.94546 0.0
H3405 H 0.76853 0.69433 0.89024 0.0
H3406 H 0.75296 0.74777 0.81866 0.0
H3407 H 0.75157 0.73502 0.84823 0.0
C3408 C 0.81313 0.0871 0.04484 0.0
C3409 C 0.81291 0.10529 0.04259 0.0
C3410 C 0.82965 0.08134 0.0476 0.0
C3411 C 0.8805 0.0973 0.05297 0.0
H3412 H 0.87749 0.0526 0.02076 0.0
C3413 C 0.93635 0.08023 0.00947 0.0
C3414 C 0.93783 0.06195 0.00604 0.0
C3415 C 0.92352 0.08512 0.02062 0.0
C3416 C 0.87863 0.06488 0.03018 0.0
H3417 H 0.82956 0.13198 0.04247 0.0
H3418 H 0.85843 0.12176 0.04596 0.0
H3419 H 0.84983 0.06171 0.02849 0.0
H3420 H 0.92778 0.03465 0.01264 0.0
H3421 H 0.90582 0.04329 0.03232 0.0
H3422 H 0.90956 0.1009 0.05329 0.0
C3423 C 0.84598 0.11198 0.04632 0.0
C3424 C 0.86269 0.07013 0.03471 0.0
C3425 C 0.82944 0.11784 0.04412 0.0
C3426 C 0.92713 0.04889 0.01504 0.0
C3427 C 0.91443 0.05379 0.02624 0.0
C3428 C 0.89654 0.09212 0.0482 0.0
C3429 C 0.84626 0.09353 0.04746 0.0
C3430 C 0.86336 0.08665 0.04573 0.0
C3431 C 0.91199 0.0718 0.02852 0.0
C3432 C 0.89567 0.07608 0.03637 0.0
H3433 H 0.80053 0.07725 0.0441 0.0
H3434 H 0.82936 0.06714 0.04903 0.0
H3435 H 0.88153 0.10994 0.06177 0.0
H3436 H 0.94466 0.09065 0.00302 0.0
H3437 H 0.92185 0.09911 0.02206 0.0
C3438 C 0.35506 0.40092 0.02474 0.0
C3439 C 0.34214 0.40686 0.03521 0.0
C3440 C 0.37242 0.4118 0.02521 0.0
C3441 C 0.40225 0.44363 0.01931 0.0
H3442 H 0.4295 0.46873 0.06549 0.0
C3443 C 0.46495 0.5016 0.02123 0.0
C3444 C 0.48058 0.50022 0.03291 0.0
C3445 C 0.44816 0.49026 0.02221 0.0
C3446 C 0.42205 0.46178 0.05249 0.0
H3447 H 0.33751 0.4278 0.05561 0.0
H3448 H 0.36781 0.4468 0.05657 0.0
H3449 H 0.40046 0.44794 0.06615 0.0
H3450 H 0.49069 0.48619 0.05514 0.0
H3451 H 0.46123 0.46662 0.0571 0.0
H3452 H 0.42376 0.4576 0.00564 0.0
C3453 C 0.36457 0.43394 0.04777 0.0
C3454 C 0.40538 0.44996 0.05285 0.0
C3455 C 0.34718 0.42318 0.0471 0.0
C3456 C 0.4789 0.48761 0.04598 0.0
C3457 C 0.46204 0.47644 0.04713 0.0
C3458 C 0.41878 0.45565 0.01893 0.0
C3459 C 0.37729 0.42857 0.03655 0.0
C3460 C 0.39528 0.44073 0.03626 0.0
C3461 C 0.44655 0.47744 0.03506 0.0
C3462 C 0.42887 0.46485 0.03552 0.0
H3463 H 0.35151 0.38818 0.01575 0.0
H3464 H 0.382 0.40714 0.01662 0.0
H3465 H 0.39478 0.43684 0.00628 0.0
H3466 H 0.46577 0.51106 0.0109 0.0
H3467 H 0.43642 0.49146 0.01285 0.0
C3468 C 0.38736 0.55965 0.75299 0.0
C3469 C 0.40374 0.55858 0.76348 0.0
C3470 C 0.38145 0.57613 0.75289 0.0
C3471 C 0.38461 0.6186 0.78298 0.0
H3472 H 0.35717 0.63191 0.74023 0.0
C3473 C 0.34607 0.67763 0.79117 0.0
C3474 C 0.32799 0.67359 0.78263 0.0
C3475 C 0.35839 0.6666 0.78637 0.0
C3476 C 0.36476 0.62839 0.75233 0.0
H3477 H 0.42712 0.57391 0.78171 0.0
H3478 H 0.41677 0.60296 0.78167 0.0
H3479 H 0.3735 0.60697 0.73627 0.0
H3480 H 0.30869 0.65545 0.76202 0.0
H3481 H 0.33003 0.63618 0.75356 0.0
H3482 H 0.37531 0.63947 0.79919 0.0
C3483 C 0.4085 0.59101 0.77344 0.0
C3484 C 0.37416 0.61409 0.75005 0.0
C3485 C 0.41454 0.57447 0.77333 0.0
C3486 C 0.32267 0.65897 0.76855 0.0
C3487 C 0.33495 0.64795 0.76374 0.0
C3488 C 0.37518 0.63286 0.78528 0.0
C3489 C 0.39167 0.59194 0.76352 0.0
C3490 C 0.38387 0.60875 0.76541 0.0
C3491 C 0.35281 0.65124 0.77302 0.0
C3492 C 0.36479 0.63771 0.77005 0.0
H3493 H 0.37878 0.54758 0.7453 0.0
H3494 H 0.36835 0.57623 0.74525 0.0
H3495 H 0.39171 0.61471 0.79518 0.0
H3496 H 0.35039 0.68873 0.80225 0.0
H3497 H 0.3721 0.66972 0.79361 0.0
C3498 C 0.21457 0.60223 0.53737 0.0
C3499 C 0.22128 0.61673 0.52772 0.0
C3500 C 0.19594 0.5953 0.53574 0.0
C3501 C 0.15667 0.59303 0.54098 0.0
H3502 H 0.12491 0.58353 0.49428 0.0
C3503 C 0.08195 0.5651 0.54189 0.0
C3504 C 0.07509 0.54966 0.5292 0.0
C3505 C 0.09787 0.5768 0.5392 0.0
C3506 C 0.13362 0.58622 0.50741 0.0
H3507 H 0.21421 0.63611 0.5096 0.0
H3508 H 0.18125 0.62399 0.50676 0.0
H3509 H 0.15753 0.59584 0.49453 0.0
H3510 H 0.07837 0.53447 0.50342 0.0
H3511 H 0.10684 0.55449 0.49906 0.0
H3512 H 0.13333 0.58271 0.55388 0.0
C3513 C 0.19045 0.61764 0.5151 0.0
C3514 C 0.15221 0.59332 0.50756 0.0
C3515 C 0.20917 0.62459 0.51677 0.0
C3516 C 0.08361 0.54644 0.51329 0.0
C3517 C 0.09977 0.55796 0.51076 0.0
C3518 C 0.13823 0.58595 0.54085 0.0
C3519 C 0.18369 0.60305 0.52475 0.0
C3520 C 0.1639 0.59649 0.52434 0.0
C3521 C 0.10745 0.57283 0.52414 0.0
C3522 C 0.12652 0.5823 0.52407 0.0
H3523 H 0.22373 0.59642 0.54637 0.0
H3524 H 0.19109 0.58394 0.5432 0.0
H3525 H 0.16533 0.59561 0.55416 0.0
H3526 H 0.07534 0.56774 0.55417 0.0
H3527 H 0.10324 0.5884 0.54949 0.0
C3528 C 0.68509 0.98162 0.74996 0.0
C3529 C 0.69943 0.99598 0.75765 0.0
C3530 C 0.688 0.96391 0.74752 0.0
C3531 C 0.72234 0.93554 0.74554 0.0
H3532 H 0.69428 0.90692 0.77825 0.0
C3533 C 0.75136 0.88556 0.78655 0.0
C3534 C 0.73997 0.87078 0.79241 0.0
C3535 C 0.74402 0.89741 0.77599 0.0
C3536 C 0.70187 0.91433 0.76855 0.0
H3537 H 0.72831 1.00329 0.76759 0.0
H3538 H 0.73341 0.9722 0.76319 0.0
H3539 H 0.68587 0.93492 0.77011 0.0
H3540 H 0.71213 0.85619 0.79125 0.0
H3541 H 0.6991 0.87692 0.77241 0.0
H3542 H 0.73866 0.91521 0.74433 0.0
C3543 C 0.71994 0.97475 0.75912 0.0
C3544 C 0.69708 0.93044 0.76396 0.0
C3545 C 0.71698 0.99245 0.76185 0.0
C3546 C 0.72111 0.86768 0.78706 0.0
C3547 C 0.71372 0.87949 0.77626 0.0
C3548 C 0.72694 0.91923 0.74983 0.0
C3549 C 0.70536 0.96033 0.75241 0.0
C3550 C 0.70781 0.94155 0.75318 0.0
C3551 C 0.72509 0.89469 0.77091 0.0
C3552 C 0.71736 0.90898 0.76223 0.0
H3553 H 0.67141 0.98392 0.74653 0.0
H3554 H 0.67659 0.95293 0.74239 0.0
H3555 H 0.73065 0.94388 0.73702 0.0
H3556 H 0.76596 0.8883 0.79068 0.0
H3557 H 0.75317 0.9092 0.7726 0.0
C3558 C 0.74864 0.92731 0.53782 0.0
C3559 C 0.74896 0.90881 0.53359 0.0
C3560 C 0.73225 0.93314 0.53926 0.0
C3561 C 0.68466 0.92231 0.52058 0.0
H3562 H 0.68068 0.96103 0.55814 0.0
C3563 C 0.62533 0.96073 0.51244 0.0
C3564 C 0.63065 0.9797 0.51566 0.0
C3565 C 0.63716 0.94961 0.51858 0.0
C3566 C 0.68153 0.95026 0.5475 0.0
H3567 H 0.73219 0.88183 0.52783 0.0
H3568 H 0.70311 0.89218 0.5298 0.0
H3569 H 0.7064 0.94561 0.56152 0.0
H3570 H 0.65212 1.00199 0.52812 0.0
H3571 H 0.67281 0.98279 0.53887 0.0
H3572 H 0.66042 0.9276 0.50597 0.0
C3573 C 0.71578 0.90208 0.53226 0.0
C3574 C 0.69624 0.94135 0.54951 0.0
C3575 C 0.73238 0.89615 0.53122 0.0
C3576 C 0.64757 0.98738 0.5259 0.0
C3577 C 0.65942 0.97631 0.53201 0.0
C3578 C 0.67 0.93132 0.51848 0.0
C3579 C 0.71558 0.92069 0.53619 0.0
C3580 C 0.69826 0.92764 0.53581 0.0
C3581 C 0.65463 0.95727 0.5279 0.0
C3582 C 0.66852 0.94579 0.53165 0.0
H3583 H 0.76112 0.93745 0.53971 0.0
H3584 H 0.73259 0.94757 0.54204 0.0
H3585 H 0.68593 0.91194 0.50969 0.0
H3586 H 0.61247 0.95454 0.50424 0.0
H3587 H 0.63288 0.93504 0.51539 0.0
C3588 C 0.40622 0.45049 0.77119 0.0
C3589 C 0.40076 0.46355 0.76063 0.0
C3590 C 0.3947 0.43355 0.77098 0.0
C3591 C 0.36181 0.40495 0.77728 0.0
H3592 H 0.33641 0.37772 0.73125 0.0
C3593 C 0.30294 0.34273 0.77536 0.0
C3594 C 0.30465 0.3271 0.76402 0.0
C3595 C 0.31435 0.35947 0.77437 0.0
C3596 C 0.3434 0.38519 0.74421 0.0
H3597 H 0.37993 0.46879 0.74031 0.0
H3598 H 0.35983 0.4392 0.73975 0.0
H3599 H 0.35775 0.40631 0.73037 0.0
H3600 H 0.3193 0.31693 0.74238 0.0
H3601 H 0.33889 0.34624 0.74036 0.0
H3602 H 0.34733 0.3839 0.79114 0.0
C3603 C 0.37281 0.44204 0.74847 0.0
C3604 C 0.35556 0.40159 0.74372 0.0
C3605 C 0.38421 0.45903 0.7489 0.0
C3606 C 0.31763 0.32871 0.7513 0.0
C3607 C 0.32882 0.3455 0.7501 0.0
C3608 C 0.34943 0.38871 0.7778 0.0
C3609 C 0.37773 0.42922 0.75978 0.0
C3610 C 0.36497 0.41164 0.76025 0.0
C3611 C 0.32749 0.36101 0.76181 0.0
C3612 C 0.34016 0.3786 0.76126 0.0
H3613 H 0.41911 0.45361 0.78007 0.0
H3614 H 0.39901 0.42387 0.77964 0.0
H3615 H 0.36874 0.41239 0.79027 0.0
H3616 H 0.29317 0.34192 0.7854 0.0
H3617 H 0.31293 0.37122 0.78348 0.0
C3618 C 0.20933 0.59421 0.25684 0.0
C3619 C 0.19399 0.58804 0.26569 0.0
C3620 C 0.21729 0.61258 0.25912 0.0
C3621 C 0.21668 0.65361 0.25627 0.0
H3622 H 0.24527 0.67786 0.3022 0.0
C3623 C 0.24857 0.72909 0.26436 0.0
C3624 C 0.26762 0.73194 0.26737 0.0
C3625 C 0.23812 0.71259 0.2674 0.0
C3626 C 0.23715 0.67123 0.28941 0.0
H3627 H 0.17428 0.59584 0.28303 0.0
H3628 H 0.18869 0.6283 0.28752 0.0
H3629 H 0.22926 0.64609 0.30076 0.0
H3630 H 0.29095 0.7206 0.27639 0.0
H3631 H 0.27255 0.69156 0.282 0.0
H3632 H 0.22456 0.67852 0.24478 0.0
C3633 C 0.19456 0.61882 0.27905 0.0
C3634 C 0.22805 0.65321 0.28861 0.0
C3635 C 0.18638 0.60043 0.27647 0.0
C3636 C 0.2762 0.71852 0.27413 0.0
C3637 C 0.26573 0.70209 0.27744 0.0
C3638 C 0.22543 0.67166 0.25716 0.0
C3639 C 0.20999 0.62493 0.27029 0.0
C3640 C 0.21807 0.64429 0.27192 0.0
C3641 C 0.24666 0.69887 0.2736 0.0
C3642 C 0.23594 0.6805 0.27363 0.0
H3643 H 0.21502 0.58484 0.24801 0.0
H3644 H 0.22912 0.61718 0.25216 0.0
H3645 H 0.20906 0.64681 0.24328 0.0
H3646 H 0.24181 0.73926 0.25886 0.0
H3647 H 0.22342 0.71028 0.26428 0.0
C3648 C 0.50339 0.701 0.44287 0.0
C3649 C 0.50542 0.71692 0.45541 0.0
C3650 C 0.50449 0.684 0.44914 0.0
C3651 C 0.50182 0.65832 0.49147 0.0
H3652 H 0.52446 0.62482 0.46257 0.0
C3653 C 0.50163 0.58304 0.50927 0.0
C3654 C 0.51744 0.57588 0.50685 0.0
C3655 C 0.49958 0.59998 0.50319 0.0
C3656 C 0.51813 0.63392 0.47098 0.0
H3657 H 0.51014 0.72685 0.48476 0.0
H3658 H 0.51189 0.69739 0.49567 0.0
H3659 H 0.52252 0.65423 0.45221 0.0
H3660 H 0.54301 0.58117 0.4951 0.0
H3661 H 0.53974 0.61026 0.485 0.0
H3662 H 0.49754 0.63793 0.5103 0.0
C3663 C 0.50939 0.69799 0.48085 0.0
C3664 C 0.51683 0.65093 0.46485 0.0
C3665 C 0.50849 0.71506 0.47455 0.0
C3666 C 0.53083 0.58617 0.49773 0.0
C3667 C 0.52879 0.60295 0.49161 0.0
C3668 C 0.50294 0.64118 0.4975 0.0
C3669 C 0.50748 0.68204 0.46828 0.0
C3670 C 0.50872 0.6636 0.47497 0.0
C3671 C 0.51317 0.61034 0.4942 0.0
C3672 C 0.51125 0.62861 0.48746 0.0
H3673 H 0.50097 0.70164 0.42804 0.0
H3674 H 0.5027 0.67226 0.43885 0.0
H3675 H 0.49529 0.66738 0.49971 0.0
H3676 H 0.49085 0.57562 0.51605 0.0
H3677 H 0.48719 0.60484 0.50534 0.0
C3678 C 0.62177 0.2886 0.63572 0.0
C3679 C 0.60876 0.29738 0.64341 0.0
C3680 C 0.638 0.28721 0.64653 0.0
C3681 C 0.65893 0.29127 0.69664 0.0
H3682 H 0.70337 0.28876 0.6745 0.0
C3683 C 0.72807 0.29366 0.74193 0.0
C3684 C 0.73975 0.28241 0.7357 0.0
C3685 C 0.71245 0.29555 0.73051 0.0
C3686 C 0.69106 0.28926 0.68095 0.0
H3687 H 0.60317 0.31208 0.66856 0.0
H3688 H 0.63151 0.31036 0.68706 0.0
H3689 H 0.67622 0.2925 0.65514 0.0
H3690 H 0.7437 0.26398 0.71248 0.0
H3691 H 0.71681 0.26758 0.69235 0.0
H3692 H 0.67389 0.28827 0.72249 0.0
C3693 C 0.62907 0.30399 0.67283 0.0
C3694 C 0.67533 0.29139 0.66976 0.0
C3695 C 0.61279 0.30521 0.66208 0.0
C3696 C 0.73539 0.27318 0.71759 0.0
C3697 C 0.71981 0.27516 0.70607 0.0
C3698 C 0.67468 0.2893 0.70783 0.0
C3699 C 0.6419 0.29467 0.66541 0.0
C3700 C 0.65892 0.29247 0.67737 0.0
C3701 C 0.70798 0.28632 0.71236 0.0
C3702 C 0.69106 0.28828 0.70022 0.0
H3703 H 0.61913 0.28217 0.62149 0.0
H3704 H 0.6472 0.27972 0.64015 0.0
H3705 H 0.64665 0.29154 0.70319 0.0
H3706 H 0.73118 0.30131 0.75559 0.0
H3707 H 0.70399 0.30452 0.73587 0.0
C3708 C 0.01825 0.33884 0.94056 0.0
C3709 C 0.01257 0.32351 0.94985 0.0
C3710 C 0.01944 0.35662 0.949 0.0
C3711 C 0.02184 0.38583 0.99428 0.0
H3712 H 0.00658 0.4195 0.96189 0.0
C3713 C 0.0347 0.46463 0.01723 0.0
C3714 C 0.02187 0.47463 0.01045 0.0
C3715 C 0.03317 0.44605 0.01088 0.0
C3716 C 0.01078 0.41039 0.97132 0.0
H3717 H 1.00427 0.3156 0.97606 0.0
H3718 H 0.00658 0.34682 0.99097 0.0
H3719 H 1.00452 0.38798 0.94974 0.0
H3720 H 0.99757 0.47254 0.99116 0.0
H3721 H 0.99455 0.44038 0.98054 0.0
H3722 H 0.02793 0.40835 0.01593 0.0
C3723 C 0.01007 0.34487 0.97693 0.0
C3724 C 0.00981 0.39216 0.96421 0.0
C3725 C 0.00877 0.32686 0.96836 0.0
C3726 C 0.00754 0.46538 0.99703 0.0
C3727 C 1.00598 0.44682 0.9907 0.0
C3728 C 0.02291 0.40418 1.0014 0.0
C3729 C 0.01507 0.36009 0.96721 0.0
C3730 C 0.01545 0.37949 0.97545 0.0
C3731 C 0.01881 0.43674 0.99741 0.0
C3732 C 0.01744 0.41688 0.99004 0.0
H3733 H 0.02151 0.33717 0.9264 0.0
H3734 H 0.02381 0.36774 0.94106 0.0
H3735 H 0.0264 0.37669 0.00347 0.0
H3736 H 0.04602 0.47116 0.02749 0.0
H3737 H 0.04355 0.4391 0.01632 0.0
C3738 C 0.00783 0.78525 0.152 0.0
C3739 C 1.00461 0.78508 0.13256 0.0
C3740 C 0.99341 0.78458 0.16307 0.0
C3741 C 0.94605 0.79289 0.16274 0.0
H3742 H 0.94101 0.75949 0.20007 0.0
C3743 C 0.87726 0.76935 0.1903 0.0
C3744 C 0.87675 0.76594 0.20895 0.0
C3745 C 0.89386 0.77368 0.18297 0.0
C3746 C 0.94232 0.76912 0.18993 0.0
H3747 H 0.98354 0.78436 0.1097 0.0
H3748 H 0.95869 0.78339 0.12884 0.0
H3749 H 0.96819 0.76339 0.18374 0.0
H3750 H 0.89356 0.76486 0.23462 0.0
H3751 H 0.9227 0.77259 0.22184 0.0
H3752 H 0.92021 0.79856 0.16872 0.0
C3753 C 0.97234 0.78408 0.13562 0.0
C3754 C 0.95794 0.77134 0.18053 0.0
C3755 C 0.98664 0.78453 0.12458 0.0
C3756 C 0.89343 0.76747 0.22023 0.0
C3757 C 0.91014 0.77172 0.21283 0.0
C3758 C 0.93052 0.79074 0.17216 0.0
C3759 C 0.97545 0.784 0.15501 0.0
C3760 C 0.95982 0.78295 0.16648 0.0
C3761 C 0.91058 0.77476 0.19402 0.0
C3762 C 0.92818 0.7785 0.18558 0.0
H3763 H 0.02145 0.78559 0.15867 0.0
H3764 H 0.99635 0.78464 0.17796 0.0
H3765 H 0.94718 0.80227 0.15234 0.0
H3766 H 0.86473 0.7685 0.18123 0.0
H3767 H 0.89352 0.77569 0.16841 0.0
C3768 C 0.50082 0.30319 0.14719 0.0
C3769 C 0.51579 0.29676 0.1553 0.0
C3770 C 0.50325 0.3196 0.13941 0.0
C3771 C 0.53738 0.36176 0.13488 0.0
H3772 H 0.5049 0.36207 0.09011 0.0
C3773 C 0.54355 0.42515 0.09461 0.0
C3774 C 0.54175 0.42183 0.07511 0.0
C3775 C 0.53854 0.41094 0.10542 0.0
C3776 C 0.5142 0.36228 0.10252 0.0
H3777 H 0.54513 0.3029 0.16202 0.0
H3778 H 0.54956 0.33144 0.14796 0.0
H3779 H 0.50098 0.33571 0.107 0.0
H3780 H 0.53314 0.40115 0.05164 0.0
H3781 H 0.52426 0.37644 0.07023 0.0
H3782 H 0.55114 0.38806 0.12978 0.0
C3783 C 0.53579 0.32396 0.14796 0.0
C3784 C 0.51178 0.34715 0.11246 0.0
C3785 C 0.53329 0.30757 0.15607 0.0
C3786 C 0.53416 0.40419 0.06661 0.0
C3787 C 0.52917 0.38999 0.07737 0.0
C3788 C 0.53988 0.37689 0.12484 0.0
C3789 C 0.52081 0.33003 0.13909 0.0
C3790 C 0.52334 0.34656 0.1288 0.0
C3791 C 0.53175 0.39301 0.09698 0.0
C3792 C 0.5284 0.37736 0.10841 0.0
H3793 H 0.48712 0.29528 0.14651 0.0
H3794 H 0.49126 0.32393 0.13335 0.0
H3795 H 0.54649 0.36204 0.14744 0.0
H3796 H 0.5498 0.43853 0.10153 0.0
H3797 H 0.54048 0.41396 0.12042 0.0
C3798 C 0.9845 0.29325 0.32808 0.0
C3799 C 0.99191 0.30335 0.34531 0.0
C3800 C 0.96605 0.29215 0.32099 0.0
C3801 C 0.92082 0.29801 0.33642 0.0
H3802 H 0.90545 0.29604 0.28372 0.0
C3803 C 0.8436 0.28089 0.30713 0.0
C3804 C 0.83737 0.28904 0.29171 0.0
C3805 C 0.86235 0.28299 0.31323 0.0
C3806 C 0.9094 0.29671 0.29853 0.0
H3807 H 0.98528 0.31946 0.36893 0.0
H3808 H 0.95351 0.31789 0.35666 0.0
H3809 H 0.93782 0.29931 0.29483 0.0
H3810 H 0.84672 0.30572 0.27057 0.0
H3811 H 0.87922 0.30972 0.28137 0.0
H3812 H 0.89258 0.29572 0.34025 0.0
C3813 C 0.96182 0.3108 0.34841 0.0
C3814 C 0.92811 0.29837 0.30492 0.0
C3815 C 0.98019 0.31187 0.35545 0.0
C3816 C 0.85074 0.29937 0.2826 0.0
C3817 C 0.86955 0.30149 0.28872 0.0
C3818 C 0.90217 0.29629 0.33004 0.0
C3819 C 0.95428 0.30081 0.33109 0.0
C3820 C 0.93421 0.29906 0.32403 0.0
C3821 C 0.87578 0.29335 0.3042 0.0
C3822 C 0.896 0.29554 0.31096 0.0
H3823 H 0.99288 0.28589 0.32022 0.0
H3824 H 0.96092 0.28406 0.30778 0.0
H3825 H 0.92467 0.29824 0.35119 0.0
H3826 H 0.83395 0.27269 0.31455 0.0
H3827 H 0.86629 0.27614 0.32493 0.0
C3828 C 0.02301 0.68801 0.66222 0.0
C3829 C 0.01326 0.70065 0.65525 0.0
C3830 C 0.02422 0.67204 0.65105 0.0
C3831 C 1.00222 0.64042 0.60913 0.0
H3832 H 0.04979 0.62777 0.60749 0.0
C3833 C 0.01353 0.57143 0.57218 0.0
C3834 C 0.02718 0.57262 0.56012 0.0
C3835 C 0.01146 0.58679 0.58377 0.0
C3836 C 0.03639 0.63109 0.60777 0.0
H3837 H 0.99675 0.70593 0.63101 0.0
H3838 H 0.99839 0.67794 0.61183 0.0
H3839 H 0.04651 0.65447 0.62791 0.0
H3840 H 0.04954 0.59103 0.55118 0.0
H3841 H 0.04633 0.6176 0.57186 0.0
H3842 H 0.99208 0.61687 0.58915 0.0
C3843 C 1.00522 0.68041 0.62592 0.0
C3844 C 0.03448 0.64636 0.6196 0.0
C3845 C 1.00428 0.69652 0.63696 0.0
C3846 C 0.03883 0.58958 0.5602 0.0
C3847 C 0.03705 0.60482 0.57214 0.0
C3848 C 1.00407 0.62493 0.59759 0.0
C3849 C 0.01547 0.66804 0.63266 0.0
C3850 C 0.01738 0.65136 0.6204 0.0
C3851 C 0.02326 0.60371 0.58403 0.0
C3852 C 0.02121 0.62009 0.59663 0.0
H3853 H 0.03025 0.69073 0.67614 0.0
H3854 H 0.0321 0.66282 0.65683 0.0
H3855 H 0.98882 0.64373 0.60937 0.0
H3856 H 1.00426 0.55865 0.57246 0.0
H3857 H 1.00074 0.58536 0.59278 0.0
C3858 C 0.59878 0.79393 0.84524 0.0
C3859 C 0.59052 0.80845 0.84032 0.0
C3860 C 0.61581 0.79165 0.83943 0.0
C3861 C 0.65865 0.81637 0.82295 0.0
H3862 H 0.6651 0.76866 0.80349 0.0
C3863 C 0.73032 0.79988 0.80719 0.0
C3864 C 0.73105 0.78962 0.79005 0.0
C3865 C 0.71353 0.80252 0.81331 0.0
C3866 C 0.66363 0.78212 0.80888 0.0
H3867 H 0.5946 0.83212 0.8254 0.0
H3868 H 0.62426 0.82855 0.81596 0.0
H3869 H 0.636 0.77252 0.81439 0.0
H3870 H 0.7137 0.77415 0.76616 0.0
H3871 H 0.68472 0.77763 0.77723 0.0
H3872 H 0.68644 0.82589 0.81781 0.0
C3873 C 0.61748 0.81873 0.8242 0.0
C3874 C 0.64685 0.78434 0.81529 0.0
C3875 C 0.60028 0.82077 0.82963 0.0
C3876 C 0.71409 0.78189 0.77949 0.0
C3877 C 0.69727 0.78399 0.78588 0.0
C3878 C 0.67559 0.81407 0.81698 0.0
C3879 C 0.62558 0.80402 0.82878 0.0
C3880 C 0.64389 0.80154 0.82235 0.0
C3881 C 0.6966 0.79447 0.80288 0.0
C3882 C 0.67843 0.79692 0.80966 0.0
H3883 H 0.59188 0.78401 0.85331 0.0
H3884 H 0.62142 0.78019 0.84345 0.0
H3885 H 0.65719 0.82985 0.8283 0.0
H3886 H 0.74281 0.80584 0.81603 0.0
H3887 H 0.71384 0.81059 0.82652 0.0
C3888 C 0.43576 0.50832 0.69402 0.0
C3889 C 0.44616 0.51744 0.71053 0.0
C3890 C 0.44233 0.50993 0.67671 0.0
C3891 C 0.47354 0.5395 0.65137 0.0
H3892 H 0.4728 0.49571 0.61847 0.0
C3893 C 0.49033 0.53872 0.57409 0.0
C3894 C 0.50342 0.52838 0.56973 0.0
C3895 C 0.48289 0.53785 0.59109 0.0
C3896 C 0.47305 0.50807 0.62747 0.0
H3897 H 0.47154 0.53571 0.72161 0.0
H3898 H 0.48278 0.53892 0.6913 0.0
H3899 H 0.46078 0.49349 0.64846 0.0
H3900 H 0.51866 0.50876 0.57962 0.0
H3901 H 0.50529 0.50682 0.60885 0.0
H3902 H 0.48563 0.55407 0.63021 0.0
C3903 C 0.46959 0.53038 0.69183 0.0
C3904 C 0.46609 0.5068 0.64463 0.0
C3905 C 0.46318 0.52847 0.70921 0.0
C3906 C 0.50866 0.51697 0.58258 0.0
C3907 C 0.50094 0.51578 0.5993 0.0
C3908 C 0.48014 0.54079 0.63401 0.0
C3909 C 0.45932 0.521 0.67536 0.0
C3910 C 0.46638 0.52248 0.65689 0.0
C3911 C 0.48804 0.52628 0.60386 0.0
C3912 C 0.48014 0.52507 0.62192 0.0
H3913 H 0.42261 0.49968 0.69449 0.0
H3914 H 0.43402 0.50261 0.66432 0.0
H3915 H 0.47388 0.55184 0.66043 0.0
H3916 H 0.48606 0.54766 0.56449 0.0
H3917 H 0.47292 0.54605 0.59416 0.0
C3918 C 0.77779 0.13874 0.96784 0.0
C3919 C 0.77964 0.14736 0.98611 0.0
C3920 C 0.77795 0.14892 0.95278 0.0
C3921 C 0.78613 0.19604 0.93948 0.0
H3922 H 0.74508 0.1758 0.90211 0.0
C3923 C 0.75187 0.23868 0.8898 0.0
C3924 C 0.74634 0.23086 0.87131 0.0
C3925 C 0.7588 0.22862 0.90298 0.0
C3926 C 0.75678 0.18155 0.91224 0.0
H3927 H 0.78468 0.17361 0.00292 0.0
H3928 H 0.7845 0.19118 0.97675 0.0
H3929 H 0.75348 0.15778 0.9262 0.0
H3930 H 0.7438 0.20643 0.85213 0.0
H3931 H 0.75604 0.189 0.87502 0.0
H3932 H 0.78889 0.22012 0.92571 0.0
C3933 C 0.7831 0.1766 0.97399 0.0
C3934 C 0.76167 0.17117 0.92602 0.0
C3935 C 0.78306 0.16646 0.98903 0.0
C3936 C 0.74802 0.21286 0.86624 0.0
C3937 C 0.75492 0.20284 0.87937 0.0
C3938 C 0.78116 0.20648 0.92567 0.0
C3939 C 0.77985 0.1679 0.95569 0.0
C3940 C 0.77626 0.17834 0.93993 0.0
C3941 C 0.76024 0.21055 0.8979 0.0
C3942 C 0.76631 0.19937 0.91203 0.0
H3943 H 0.77535 0.12408 0.96509 0.0
H3944 H 0.77583 0.14185 0.93883 0.0
H3945 H 0.79753 0.20189 0.94992 0.0
H3946 H 0.75098 0.25261 0.89404 0.0
H3947 H 0.76265 0.23486 0.91721 0.0
C3948 C 0.15576 0.54409 0.18972 0.0
C3949 C 0.15223 0.53016 0.20108 0.0
C3950 C 0.14417 0.54382 0.17343 0.0
C3951 C 0.09637 0.52436 0.15512 0.0
H3952 H 0.10932 0.5454 0.11049 0.0
C3953 C 0.054 0.51458 0.08298 0.0
C3954 C 0.04933 0.53048 0.07721 0.0
C3955 C 0.06575 0.51544 0.09916 0.0
C3956 C 0.10564 0.53974 0.12305 0.0
H3957 H 0.13549 0.50408 0.20361 0.0
H3958 H 0.11592 0.50298 0.17462 0.0
H3959 H 0.13344 0.54326 0.13493 0.0
H3960 H 0.05246 0.55956 0.08372 0.0
H3961 H 0.07372 0.56114 0.11216 0.0
H3962 H 0.06862 0.52009 0.14271 0.0
C3963 C 0.12694 0.51459 0.17866 0.0
C3964 C 0.11936 0.53845 0.13697 0.0
C3965 C 0.13822 0.51509 0.19512 0.0
C3966 C 0.0558 0.54717 0.0882 0.0
C3967 C 0.06799 0.54809 0.10422 0.0
C3968 C 0.08274 0.52539 0.14111 0.0
C3969 C 0.12915 0.52942 0.1682 0.0
C3970 C 0.11486 0.5306 0.1531 0.0
C3971 C 0.0732 0.53224 0.10951 0.0
C3972 C 0.08733 0.53305 0.12504 0.0
H3973 H 0.16651 0.55587 0.19416 0.0
H3974 H 0.14628 0.55545 0.1657 0.0
H3975 H 0.09236 0.51873 0.16759 0.0
H3976 H 0.04908 0.5016 0.07459 0.0
H3977 H 0.0697 0.50312 0.10314 0.0
C3978 C 0.78846 0.84822 0.47459 0.0
C3979 C 0.78622 0.86639 0.47669 0.0
C3980 C 0.78757 0.83873 0.45677 0.0
C3981 C 0.79274 0.84748 0.40779 0.0
H3982 H 0.77143 0.79635 0.39561 0.0
C3983 C 0.79995 0.80828 0.33724 0.0
C3984 C 0.78483 0.79535 0.32846 0.0
C3985 C 0.80015 0.81621 0.35554 0.0
C3986 C 0.77735 0.81068 0.39871 0.0
H3987 H 0.78037 0.88839 0.4614 0.0
H3988 H 0.77854 0.87192 0.43075 0.0
H3989 H 0.77088 0.81126 0.42686 0.0
H3990 H 0.75791 0.78081 0.33215 0.0
H3991 H 0.75811 0.79482 0.36384 0.0
H3992 H 0.79888 0.84709 0.37965 0.0
C3993 C 0.78145 0.86507 0.44278 0.0
C3994 C 0.77721 0.81919 0.41675 0.0
C3995 C 0.78235 0.8745 0.46048 0.0
C3996 C 0.76986 0.79064 0.33846 0.0
C3997 C 0.77003 0.7986 0.35675 0.0
C3998 C 0.79291 0.83899 0.38982 0.0
C3999 C 0.78443 0.84717 0.4406 0.0
C4000 C 0.7848 0.83777 0.42152 0.0
C4001 C 0.78517 0.81155 0.36558 0.0
C4002 C 0.78518 0.82046 0.38495 0.0
H4003 H 0.79154 0.84151 0.48669 0.0
H4004 H 0.79 0.825 0.4557 0.0
H4005 H 0.79899 0.86172 0.41093 0.0
H4006 H 0.81158 0.81245 0.32994 0.0
H4007 H 0.81216 0.82596 0.36184 0.0
C4008 C 0.46161 0.51356 0.82072 0.0
C4009 C 0.44479 0.51928 0.81875 0.0
C4010 C 0.47148 0.51456 0.8384 0.0
C4011 C 0.47604 0.53715 0.88696 0.0
H4012 H 0.4951 0.49542 0.901 0.0
C4013 C 0.49554 0.52918 0.96389 0.0
C4014 C 0.51086 0.52171 0.96899 0.0
C4015 C 0.48909 0.5292 0.94517 0.0
C4016 C 0.49011 0.50731 0.89727 0.0
H4017 H 0.42553 0.53101 0.83395 0.0
H4018 H 0.4427 0.53297 0.86444 0.0
H4019 H 0.48149 0.49542 0.869 0.0
H4020 H 0.53147 0.50844 0.95805 0.0
H4021 H 0.52016 0.50839 0.9253 0.0
H4022 H 0.48451 0.54906 0.91509 0.0
C4023 C 0.44834 0.5277 0.8524 0.0
C4024 C 0.48229 0.50731 0.87888 0.0
C4025 C 0.43842 0.5265 0.83485 0.0
C4026 C 0.51954 0.51417 0.95472 0.0
C4027 C 0.51302 0.51412 0.93589 0.0
C4028 C 0.48389 0.53719 0.90526 0.0
C4029 C 0.46491 0.52155 0.85452 0.0
C4030 C 0.47483 0.52211 0.87356 0.0
C4031 C 0.49775 0.52177 0.93084 0.0
C4032 C 0.49072 0.52213 0.91083 0.0
H4033 H 0.46687 0.50777 0.80868 0.0
H4034 H 0.48424 0.50981 0.83947 0.0
H4035 H 0.4708 0.54895 0.88333 0.0
H4036 H 0.48841 0.53511 0.97439 0.0
H4037 H 0.47711 0.5349 0.94196 0.0
C4038 C 0.77351 0.15142 0.10664 0.0
C4039 C 0.7806 0.16044 0.09212 0.0
C4040 C 0.77428 0.16086 0.12424 0.0
C4041 C 0.76585 0.18972 0.15335 0.0
H4042 H 0.8108 0.22089 0.17711 0.0
C4043 C 0.7691 0.24923 0.21056 0.0
C4044 C 0.7829 0.25118 0.22548 0.0
C4045 C 0.76838 0.23632 0.19529 0.0
C4046 C 0.79819 0.21211 0.17074 0.0
H4047 H 0.79446 0.18616 0.08463 0.0
H4048 H 0.79593 0.20256 0.11543 0.0
H4049 H 0.81122 0.20097 0.14879 0.0
H4050 H 0.80687 0.24144 0.23617 0.0
H4051 H 0.80541 0.2188 0.20976 0.0
H4052 H 0.75274 0.20118 0.17515 0.0
C4053 C 0.78986 0.18822 0.11318 0.0
C4054 C 0.79844 0.20083 0.15454 0.0
C4055 C 0.789 0.17884 0.0956 0.0
C4056 C 0.79595 0.2401 0.22494 0.0
C4057 C 0.79521 0.22722 0.20978 0.0
C4058 C 0.76556 0.20115 0.16952 0.0
C4059 C 0.7823 0.17936 0.12752 0.0
C4060 C 0.78225 0.18975 0.14562 0.0
C4061 C 0.78153 0.22531 0.19477 0.0
C4062 C 0.78172 0.21256 0.17821 0.0
H4063 H 0.76699 0.1372 0.10433 0.0
H4064 H 0.7685 0.15379 0.13522 0.0
H4065 H 0.75319 0.18134 0.14654 0.0
H4066 H 0.75886 0.25761 0.21073 0.0
H4067 H 0.75783 0.23521 0.18374 0.0
C4068 C 0.13909 0.52957 0.30207 0.0
C4069 C 0.15811 0.53183 0.30644 0.0
C4070 C 0.12767 0.52874 0.31612 0.0
C4071 C 0.1262 0.52334 0.36612 0.0
H4072 H 0.09435 0.55828 0.36458 0.0
C4073 C 0.1096 0.56232 0.4311 0.0
C4074 C 0.09175 0.56499 0.43211 0.0
C4075 C 0.11424 0.55395 0.41483 0.0
C4076 C 0.10285 0.54817 0.36505 0.0
H4077 H 0.1799 0.53393 0.32893 0.0
H4078 H 0.16001 0.53254 0.35339 0.0
H4079 H 0.10888 0.55058 0.33716 0.0
H4080 H 0.06464 0.56097 0.41718 0.0
H4081 H 0.07294 0.54669 0.38829 0.0
H4082 H 0.12092 0.52173 0.39437 0.0
C4083 C 0.1539 0.5313 0.33909 0.0
C4084 C 0.11116 0.54374 0.34935 0.0
C4085 C 0.16534 0.53223 0.32507 0.0
C4086 C 0.07852 0.55905 0.41663 0.0
C4087 C 0.08324 0.55092 0.40019 0.0
C4088 C 0.11795 0.52783 0.38181 0.0
C4089 C 0.13501 0.53 0.3348 0.0
C4090 C 0.12347 0.53181 0.34998 0.0
C4091 C 0.10116 0.54829 0.39919 0.0
C4092 C 0.10678 0.54081 0.38163 0.0
H4093 H 0.13301 0.52914 0.28786 0.0
H4094 H 0.11314 0.52757 0.31241 0.0
H4095 H 0.13532 0.51382 0.36685 0.0
H4096 H 0.11995 0.56661 0.44296 0.0
H4097 H 0.12821 0.55232 0.41433 0.0
C4098 C 0.78541 0.84354 0.58614 0.0
C4099 C 0.78763 0.86226 0.58474 0.0
C4100 C 0.78428 0.83688 0.60348 0.0
C4101 C 0.77237 0.8468 0.65079 0.0
H4102 H 0.80442 0.81446 0.66482 0.0
C4103 C 0.7759 0.82172 0.72457 0.0
C4104 C 0.78014 0.80451 0.72622 0.0
C4105 C 0.77688 0.82939 0.70767 0.0
C4106 C 0.79504 0.82316 0.66114 0.0
H4107 H 0.78991 0.88861 0.60051 0.0
H4108 H 0.78735 0.87692 0.63065 0.0
H4109 H 0.80503 0.82579 0.63467 0.0
H4110 H 0.78852 0.78187 0.71101 0.0
H4111 H 0.78915 0.7945 0.68182 0.0
H4112 H 0.76182 0.84372 0.67688 0.0
C4113 C 0.78669 0.86742 0.61834 0.0
C4114 C 0.79553 0.82978 0.64377 0.0
C4115 C 0.78823 0.87411 0.60107 0.0
C4116 C 0.78519 0.79518 0.71046 0.0
C4117 C 0.78579 0.80262 0.69358 0.0
C4118 C 0.77158 0.83988 0.66805 0.0
C4119 C 0.78492 0.84874 0.61981 0.0
C4120 C 0.78421 0.84167 0.63835 0.0
C4121 C 0.78184 0.81995 0.69183 0.0
C4122 C 0.78288 0.82786 0.67355 0.0
H4123 H 0.78496 0.83403 0.57388 0.0
H4124 H 0.78281 0.82241 0.6041 0.0
H4125 H 0.76339 0.85589 0.647 0.0
H4126 H 0.77195 0.82933 0.73636 0.0
H4127 H 0.77394 0.84285 0.70718 0.0
C4128 C 0.73019 0.43373 0.49478 0.0
C4129 C 0.74492 0.44604 0.48985 0.0
C4130 C 0.71362 0.43899 0.49676 0.0
C4131 C 0.69989 0.47923 0.51382 0.0
H4132 H 0.65039 0.45187 0.50138 0.0
C4133 C 0.64024 0.50487 0.54258 0.0
C4134 C 0.62595 0.49212 0.54762 0.0
C4135 C 0.65359 0.49923 0.53287 0.0
C4136 C 0.66417 0.45955 0.5051 0.0
H4137 H 0.75337 0.47289 0.48143 0.0
H4138 H 0.72443 0.48215 0.48526 0.0
H4139 H 0.67521 0.44176 0.48651 0.0
H4140 H 0.61475 0.4634 0.54694 0.0
H4141 H 0.63891 0.45342 0.53095 0.0
H4142 H 0.68942 0.49634 0.5332 0.0
C4143 C 0.7258 0.46848 0.48759 0.0
C4144 C 0.67826 0.45388 0.49644 0.0
C4145 C 0.74233 0.46317 0.48544 0.0
C4146 C 0.62569 0.47353 0.54337 0.0
C4147 C 0.63932 0.46784 0.53391 0.0
C4148 C 0.68593 0.48471 0.52266 0.0
C4149 C 0.71161 0.45666 0.49397 0.0
C4150 C 0.69622 0.46365 0.50087 0.0
C4151 C 0.65332 0.48067 0.52842 0.0
C4152 C 0.66793 0.47489 0.51852 0.0
H4153 H 0.73171 0.42032 0.49795 0.0
H4154 H 0.70287 0.4297 0.50179 0.0
H4155 H 0.71372 0.48672 0.5178 0.0
H4156 H 0.64099 0.51931 0.5459 0.0
H4157 H 0.664 0.50949 0.52866 0.0
C4158 C 0.20118 0.15185 0.49621 0.0
C4159 C 0.21723 0.1475 0.50448 0.0
C4160 C 0.18424 0.14054 0.49694 0.0
C4161 C 0.16351 0.09384 0.50614 0.0
H4162 H 0.12116 0.11491 0.51365 0.0
C4163 C 0.09609 0.05191 0.52458 0.0
C4164 C 0.07965 0.05553 0.51629 0.0
C4165 C 0.11283 0.06288 0.5225 0.0
C4166 C 0.13279 0.10877 0.51131 0.0
H4167 H 0.22816 0.12897 0.52127 0.0
H4168 H 0.19878 0.10939 0.52274 0.0
H4169 H 0.1502 0.13464 0.51104 0.0
H4170 H 0.06803 0.07349 0.49908 0.0
H4171 H 0.0971 0.09242 0.49539 0.0
H4172 H 0.14612 0.06798 0.50654 0.0
C4173 C 0.19916 0.12101 0.51502 0.0
C4174 C 0.14946 0.1201 0.50978 0.0
C4175 C 0.21601 0.13223 0.51421 0.0
C4176 C 0.08039 0.07029 0.50574 0.0
C4177 C 0.09708 0.08125 0.5037 0.0
C4178 C 0.14684 0.08251 0.50766 0.0
C4179 C 0.18303 0.12491 0.50628 0.0
C4180 C 0.16508 0.11281 0.50725 0.0
C4181 C 0.11353 0.07778 0.51214 0.0
C4182 C 0.13127 0.08982 0.51032 0.0
H4183 H 0.20179 0.16376 0.48892 0.0
H4184 H 0.17212 0.14394 0.48998 0.0
H4185 H 0.17515 0.08768 0.50399 0.0
H4186 H 0.09603 0.0408 0.53297 0.0
H4187 H 0.12521 0.05993 0.52938 0.0
C4188 C 0.17598 0.99701 0.77332 0.0
C4189 C 0.16181 0.99681 0.78451 0.0
C4190 C 0.1834 0.98158 0.76974 0.0
C4191 C 0.18884 0.93831 0.78781 0.0
H4192 H 0.20588 0.92918 0.73985 0.0
C4193 C 0.2208 0.87563 0.763 0.0
C4194 C 0.23539 0.87955 0.75235 0.0
C4195 C 0.21151 0.8893 0.76893 0.0
C4196 C 0.20136 0.93161 0.75339 0.0
H4197 H 0.14408 0.98035 0.8007 0.0
H4198 H 0.15679 0.95291 0.79406 0.0
H4199 H 0.18887 0.9532 0.74499 0.0
H4200 H 0.25261 0.901 0.74087 0.0
H4201 H 0.23675 0.92477 0.75142 0.0
H4202 H 0.20135 0.91638 0.79599 0.0
C4203 C 0.16231 0.96513 0.78819 0.0
C4204 C 0.19157 0.94542 0.75636 0.0
C4205 C 0.15486 0.98071 0.7918 0.0
C4206 C 0.24132 0.89757 0.74892 0.0
C4207 C 0.23213 0.91115 0.75484 0.0
C4208 C 0.19858 0.92429 0.78476 0.0
C4209 C 0.17682 0.96542 0.77722 0.0
C4210 C 0.18552 0.9493 0.77372 0.0
C4211 C 0.21666 0.90707 0.76425 0.0
C4212 C 0.20532 0.92108 0.76762 0.0
H4213 H 0.18163 0.0093 0.76764 0.0
H4214 H 0.19474 0.98255 0.76153 0.0
H4215 H 0.18449 0.94094 0.80139 0.0
H4216 H 0.21588 0.86181 0.76571 0.0
H4217 H 0.19967 0.88573 0.7762 0.0
C4218 C 0.34252 0.962 0.02293 0.0
C4219 C 0.33907 0.9459 0.01073 0.0
C4220 C 0.36023 0.97192 0.02731 0.0
C4221 C 0.40143 0.98269 0.04112 0.0
H4222 H 0.42669 0.99613 0.99893 0.0
C4223 C 0.47858 1.00235 0.03253 0.0
C4224 C 0.48383 0.01954 0.02668 0.0
C4225 C 0.46053 0.99601 0.03516 0.0
C4226 C 0.41963 0.99261 0.01078 0.0
H4227 H 0.35097 0.92666 0.99442 0.0
H4228 H 0.38221 0.94446 1.00159 0.0
H4229 H 0.39585 0.97778 0.99361 0.0
H4230 H 0.47463 0.044 0.01985 0.0
H4231 H 0.44268 0.03232 0.02343 0.0
H4232 H 0.42588 0.99669 0.05824 0.0
C4233 C 0.37119 0.9494 0.00765 0.0
C4234 C 0.40217 0.98206 0.00775 0.0
C4235 C 0.35349 0.9393 0.00355 0.0
C4236 C 0.47093 0.03068 0.02437 0.0
C4237 C 0.45276 0.02414 0.02657 0.0
C4238 C 0.41917 0.99291 0.04416 0.0
C4239 C 0.3746 0.96582 0.01944 0.0
C4240 C 0.39299 0.977 0.02287 0.0
C4241 C 0.44748 0.00661 0.03151 0.0
C4242 C 0.42826 0.99787 0.02896 0.0
H4243 H 0.33149 0.96695 0.02895 0.0
H4244 H 0.36264 0.9846 0.03637 0.0
H4245 H 0.3945 0.97881 0.05293 0.0
H4246 H 0.4881 0.9933 0.03388 0.0
H4247 H 0.4565 0.98228 0.03858 0.0
C4248 C 0.8412 0.56609 0.80732 0.0
C4249 C 0.85908 0.56435 0.80456 0.0
C4250 C 0.83534 0.5822 0.8045 0.0
C4251 C 0.84985 0.63034 0.79867 0.0
H4252 H 0.80852 0.62113 0.7603 0.0
C4253 C 0.83295 0.68523 0.75377 0.0
C4254 C 0.81452 0.68525 0.7482 0.0
C4255 C 0.83782 0.67125 0.7632 0.0
C4256 C 0.81982 0.62403 0.7713 0.0
H4257 H 0.88527 0.57855 0.7983 0.0
H4258 H 0.875 0.60673 0.79352 0.0
H4259 H 0.81788 0.59588 0.77429 0.0
H4260 H 0.78677 0.67048 0.74799 0.0
H4261 H 0.79518 0.64667 0.76509 0.0
H4262 H 0.85185 0.65853 0.79564 0.0
C4263 C 0.86554 0.5956 0.79773 0.0
C4264 C 0.82517 0.60954 0.7793 0.0
C4265 C 0.87135 0.57943 0.80031 0.0
C4266 C 0.80109 0.67103 0.75229 0.0
C4267 C 0.80593 0.65722 0.76191 0.0
C4268 C 0.84435 0.64492 0.79084 0.0
C4269 C 0.84733 0.59688 0.79917 0.0
C4270 C 0.84041 0.61254 0.7928 0.0
C4271 C 0.82435 0.6571 0.76739 0.0
C4272 C 0.82947 0.64188 0.7768 0.0
H4273 H 0.83144 0.55474 0.81069 0.0
H4274 H 0.82125 0.58296 0.80579 0.0
H4275 H 0.86162 0.63294 0.80913 0.0
H4276 H 0.84361 0.69611 0.75105 0.0
H4277 H 0.85216 0.67143 0.76697 0.0
C4278 C 0.81965 0.64915 0.99455 0.0
C4279 C 0.81036 0.65412 0.00945 0.0
C4280 C 0.83544 0.64202 0.99766 0.0
C4281 C 0.86989 0.63441 0.03555 0.0
H4282 H 0.8769 0.59625 0.9989 0.0
C4283 C 0.91952 0.58771 0.05305 0.0
C4284 C 0.93159 0.5846 0.04009 0.0
C4285 C 0.90468 0.59572 0.04822 0.0
C4286 C 0.87521 0.60698 0.00919 0.0
H4287 H 0.81017 0.65551 0.03927 0.0
H4288 H 0.83722 0.64242 0.04477 0.0
H4289 H 0.85181 0.61207 0.99289 0.0
H4290 H 0.93726 0.58674 0.01169 0.0
H4291 H 0.91121 0.60098 0.00316 0.0
H4292 H 0.89298 0.62892 0.05203 0.0
C4293 C 0.8329 0.64467 0.03069 0.0
C4294 C 0.86086 0.61617 0.00573 0.0
C4295 C 0.81736 0.65221 0.02759 0.0
C4296 C 0.92807 0.58892 0.02189 0.0
C4297 C 0.91319 0.59707 0.01705 0.0
C4298 C 0.88405 0.62509 0.03907 0.0
C4299 C 0.84205 0.63919 0.01574 0.0
C4300 C 0.85789 0.62995 0.01894 0.0
C4301 C 0.9016 0.60097 0.03033 0.0
C4302 C 0.8868 0.61115 0.02604 0.0
H4303 H 0.81444 0.65042 0.9804 0.0
H4304 H 0.84227 0.63844 0.98582 0.0
H4305 H 0.86845 0.64519 0.04589 0.0
H4306 H 0.9218 0.58426 0.0671 0.0
H4307 H 0.89575 0.59809 0.05863 0.0
C4308 C 0.1569 0.10582 0.80003 0.0
C4309 C 0.16169 0.08997 0.79206 0.0
C4310 C 0.16814 0.12281 0.79954 0.0
C4311 C 0.21531 0.14419 0.79215 0.0
H4312 H 0.19363 0.18554 0.78215 0.0
C4313 C 0.23816 0.22675 0.79257 0.0
C4314 C 0.25275 0.22786 0.7817 0.0
C4315 C 0.22735 0.20997 0.79443 0.0
C4316 C 0.19989 0.17416 0.78516 0.0
H4317 H 0.18103 0.07943 0.77607 0.0
H4318 H 0.20064 0.10886 0.77526 0.0
H4319 H 0.17398 0.15636 0.78443 0.0
H4320 H 0.26739 0.21203 0.76434 0.0
H4321 H 0.24872 0.18266 0.76797 0.0
H4322 H 0.24122 0.16196 0.7926 0.0
C4323 C 0.18864 0.10829 0.78247 0.0
C4324 C 0.18863 0.15744 0.78652 0.0
C4325 C 0.17743 0.09141 0.78295 0.0
C4326 C 0.25648 0.21169 0.77306 0.0
C4327 C 0.24574 0.19485 0.77509 0.0
C4328 C 0.22656 0.16088 0.79072 0.0
C4329 C 0.18421 0.12423 0.79082 0.0
C4330 C 0.19619 0.14222 0.79 0.0
C4331 C 0.23092 0.19383 0.78562 0.0
C4332 C 0.21899 0.17606 0.7872 0.0
H4333 H 0.14461 0.10504 0.8068 0.0
H4334 H 0.16432 0.1348 0.80614 0.0
H4335 H 0.22163 0.13283 0.79503 0.0
H4336 H 0.23488 0.23889 0.79946 0.0
H4337 H 0.21618 0.20963 0.80283 0.0
C4338 C 0.37166 0.95689 0.29189 0.0
C4339 C 0.36375 0.97065 0.28497 0.0
C4340 C 0.36243 0.9389 0.28816 0.0
C4341 C 0.32972 0.90681 0.28827 0.0
H4342 H 0.32057 0.88174 0.23805 0.0
C4343 C 0.28347 0.83702 0.26921 0.0
C4344 C 0.29503 0.82441 0.2686 0.0
C4345 C 0.29024 0.85513 0.26727 0.0
C4346 C 0.32286 0.88879 0.25203 0.0
H4347 H 0.34106 0.97687 0.26775 0.0
H4348 H 0.32498 0.94515 0.26086 0.0
H4349 H 0.33671 0.91369 0.2436 0.0
H4350 H 0.32241 0.82059 0.26491 0.0
H4351 H 0.33394 0.85211 0.26062 0.0
H4352 H 0.31578 0.8821 0.29674 0.0
C4353 C 0.33801 0.94833 0.2695 0.0
C4354 C 0.33207 0.90684 0.2552 0.0
C4355 C 0.34705 0.96633 0.27356 0.0
C4356 C 0.31306 0.82988 0.26481 0.0
C4357 C 0.31969 0.84789 0.26247 0.0
C4358 C 0.32015 0.88898 0.28506 0.0
C4359 C 0.3456 0.93459 0.27692 0.0
C4360 C 0.33567 0.91581 0.27338 0.0
C4361 C 0.30849 0.86065 0.26436 0.0
C4362 C 0.31683 0.8799 0.26697 0.0
H4363 H 0.38476 0.9601 0.30042 0.0
H4364 H 0.36843 0.92834 0.29393 0.0
H4365 H 0.33249 0.91355 0.30236 0.0
H4366 H 0.26952 0.8331 0.27219 0.0
H4367 H 0.28155 0.86498 0.26901 0.0
C4368 C 0.55595 0.35233 0.60028 0.0
C4369 C 0.54923 0.33622 0.58811 0.0
C4370 C 0.55466 0.36967 0.59467 0.0
C4371 C 0.53043 0.39165 0.55659 0.0
H4372 H 0.56454 0.43547 0.57778 0.0
C4373 C 0.53101 0.4613 0.52587 0.0
C4374 C 0.53438 0.47746 0.53824 0.0
C4375 C 0.5329 0.44443 0.5321 0.0
C4376 C 0.55473 0.42345 0.57173 0.0
H4377 H 0.53647 0.32645 0.55998 0.0
H4378 H 0.53483 0.3559 0.55027 0.0
H4379 H 0.56789 0.40635 0.5883 0.0
H4380 H 0.54289 0.48799 0.56718 0.0
H4381 H 0.54665 0.45906 0.57784 0.0
H4382 H 0.51743 0.40873 0.53987 0.0
C4383 C 0.54053 0.35546 0.56443 0.0
C4384 C 0.55664 0.40653 0.57787 0.0
C4385 C 0.54167 0.33828 0.57003 0.0
C4386 C 0.54016 0.47605 0.55705 0.0
C4387 C 0.54236 0.45929 0.56323 0.0
C4388 C 0.52864 0.4085 0.55034 0.0
C4389 C 0.54668 0.37164 0.57663 0.0
C4390 C 0.54458 0.39014 0.5704 0.0
C4391 C 0.53867 0.44302 0.55094 0.0
C4392 C 0.54074 0.42482 0.55772 0.0
H4393 H 0.56177 0.35156 0.61433 0.0
H4394 H 0.55954 0.38151 0.60476 0.0
H4395 H 0.52038 0.37979 0.55062 0.0
H4396 H 0.52718 0.4617 0.51122 0.0
H4397 H 0.53017 0.4325 0.52196 0.0
C4398 C 0.45232 0.75361 0.39103 0.0
C4399 C 0.45591 0.76459 0.40821 0.0
C4400 C 0.43621 0.75286 0.37916 0.0
C4401 C 0.38977 0.76562 0.37691 0.0
H4402 H 0.39339 0.76151 0.32392 0.0
C4403 C 0.32676 0.75849 0.32045 0.0
C4404 C 0.32904 0.76923 0.30569 0.0
C4405 C 0.3417 0.75725 0.33321 0.0
C4406 C 0.39211 0.76275 0.33867 0.0
H4407 H 0.44483 0.78246 0.42698 0.0
H4408 H 0.417 0.78179 0.40612 0.0
H4409 H 0.41959 0.75985 0.34555 0.0
H4410 H 0.34919 0.78724 0.29318 0.0
H4411 H 0.37515 0.78453 0.3149 0.0
H4412 H 0.36199 0.76821 0.36973 0.0
C4413 C 0.42648 0.77353 0.40172 0.0
C4414 C 0.40723 0.76171 0.35121 0.0
C4415 C 0.44254 0.77406 0.41371 0.0
C4416 C 0.34681 0.77852 0.30404 0.0
C4417 C 0.36176 0.77704 0.3166 0.0
C4418 C 0.37451 0.76635 0.3643 0.0
C4419 C 0.42313 0.76313 0.38405 0.0
C4420 C 0.4065 0.7634 0.37061 0.0
C4421 C 0.35945 0.76647 0.33146 0.0
C4422 C 0.37551 0.76513 0.34499 0.0
H4423 H 0.46214 0.74574 0.38664 0.0
H4424 H 0.43413 0.74425 0.36604 0.0
H4425 H 0.38834 0.76662 0.39161 0.0
H4426 H 0.31337 0.75107 0.32223 0.0
H4427 H 0.33937 0.74885 0.34435 0.0
C4428 C 0.04266 0.72447 0.10619 0.0
C4429 C 0.0493 0.73858 0.09584 0.0
C4430 C 0.04145 0.7061 0.0994 0.0
C4431 C 0.05756 0.67532 0.06253 0.0
H4432 H 0.02116 0.63888 0.07909 0.0
C4433 C 0.05493 0.59662 0.04465 0.0
C4434 C 0.03788 0.58465 0.0429 0.0
C4435 C 0.05675 0.61541 0.05055 0.0
C4436 C 0.03134 0.64873 0.07402 0.0
H4437 H 0.06132 0.74415 0.07069 0.0
H4438 H 0.05831 0.7123 0.05823 0.0
H4439 H 0.02264 0.67062 0.08924 0.0
H4440 H 0.00922 0.58393 0.04497 0.0
H4441 H 0.0122 0.6159 0.05506 0.0
H4442 H 0.0657 0.65325 0.04667 0.0
C4443 C 0.05396 0.71526 0.07173 0.0
C4444 C 0.03243 0.66723 0.08021 0.0
C4445 C 0.05534 0.73369 0.07869 0.0
C4446 C 0.02272 0.59233 0.04675 0.0
C4447 C 0.02447 0.61094 0.05259 0.0
C4448 C 0.05636 0.65676 0.05618 0.0
C4449 C 0.04696 0.70099 0.08194 0.0
C4450 C 0.04562 0.68102 0.07473 0.0
C4451 C 0.04154 0.62295 0.05487 0.0
C4452 C 0.0432 0.64302 0.06178 0.0
H4453 H 0.03845 0.72766 0.11975 0.0
H4454 H 0.03653 0.69595 0.10821 0.0
H4455 H 0.06812 0.68517 0.05798 0.0
H4456 H 0.06697 0.59148 0.04179 0.0
H4457 H 0.07021 0.62392 0.05208 0.0
C4458 C 0.05202 0.25799 0.89121 0.0
C4459 C 0.05119 0.26833 0.90811 0.0
C4460 C 0.06858 0.25832 0.88381 0.0
C4461 C 0.11381 0.28808 0.88446 0.0
H4462 H 0.12394 0.24657 0.85455 0.0
C4463 C 0.17719 0.29528 0.8444 0.0
C4464 C 0.17438 0.28694 0.82594 0.0
C4465 C 0.16416 0.29092 0.85668 0.0
C4466 C 0.12132 0.25835 0.86275 0.0
H4467 H 0.06725 0.2869 0.93078 0.0
H4468 H 0.09644 0.28741 0.91798 0.0
H4469 H 0.09782 0.2428 0.87228 0.0
H4470 H 0.15584 0.26731 0.80597 0.0
H4471 H 0.13313 0.25951 0.8273 0.0
H4472 H 0.137 0.30373 0.8746 0.0
C4473 C 0.08418 0.27902 0.91037 0.0
C4474 C 0.10629 0.25618 0.87297 0.0
C4475 C 0.06751 0.27854 0.91787 0.0
C4476 C 0.15863 0.27355 0.82027 0.0
C4477 C 0.14555 0.26918 0.83253 0.0
C4478 C 0.12883 0.29025 0.87423 0.0
C4479 C 0.08489 0.26919 0.893 0.0
C4480 C 0.1021 0.27107 0.88376 0.0
C4481 C 0.14783 0.27823 0.85077 0.0
C4482 C 0.13269 0.27548 0.86297 0.0
H4483 H 0.03969 0.25008 0.88329 0.0
H4484 H 0.06839 0.25072 0.87036 0.0
H4485 H 0.11095 0.29995 0.89231 0.0
H4486 H 0.18902 0.30595 0.84901 0.0
H4487 H 0.16663 0.29798 0.87064 0.0
C4488 C 0.54696 0.75685 0.90794 0.0
C4489 C 0.54042 0.7557 0.88895 0.0
C4490 C 0.54582 0.74128 0.91715 0.0
C4491 C 0.53893 0.69072 0.90989 0.0
H4492 H 0.5252 0.69455 0.95991 0.0
C4493 C 0.51466 0.6281 0.94871 0.0
C4494 C 0.51829 0.6298 0.9682 0.0
C4495 C 0.52003 0.6429 0.93882 0.0
C4496 C 0.52938 0.69323 0.9461 0.0
H4497 H 0.52785 0.73699 0.86473 0.0
H4498 H 0.52579 0.7097 0.88085 0.0
H4499 H 0.52866 0.72101 0.94302 0.0
H4500 H 0.53082 0.6482 0.99257 0.0
H4501 H 0.54063 0.67398 0.97537 0.0
H4502 H 0.53939 0.66279 0.91296 0.0
C4503 C 0.53195 0.72274 0.88859 0.0
C4504 C 0.53132 0.70849 0.93633 0.0
C4505 C 0.53306 0.7384 0.87933 0.0
C4506 C 0.52821 0.64638 0.97752 0.0
C4507 C 0.53352 0.66124 0.96764 0.0
C4508 C 0.53698 0.67541 0.91969 0.0
C4509 C 0.5381 0.72398 0.90773 0.0
C4510 C 0.53611 0.70751 0.91805 0.0
C4511 C 0.52897 0.65991 0.94819 0.0
C4512 C 0.53214 0.67641 0.93796 0.0
H4513 H 0.5528 0.76989 0.91585 0.0
H4514 H 0.55104 0.74286 0.93176 0.0
H4515 H 0.54285 0.68942 0.89596 0.0
H4516 H 0.50664 0.61562 0.94123 0.0
H4517 H 0.5161 0.64128 0.92393 0.0
C4518 C 0.08605 0.76826 0.69377 0.0
C4519 C 0.0716 0.76134 0.7037 0.0
C4520 C 0.10444 0.76928 0.70086 0.0
C4521 C 0.13574 0.76939 0.74442 0.0
H4522 H 0.16916 0.75651 0.71043 0.0
C4523 C 0.21522 0.78261 0.76556 0.0
C4524 C 0.22509 0.76957 0.75904 0.0
C4525 C 0.19652 0.78119 0.75938 0.0
C4526 C 0.16009 0.76009 0.72023 0.0
H4527 H 0.06558 0.74879 0.72847 0.0
H4528 H 0.09757 0.75124 0.74127 0.0
H4529 H 0.13718 0.75508 0.69892 0.0
H4530 H 0.2225 0.74488 0.74039 0.0
H4531 H 0.19007 0.74239 0.72959 0.0
H4532 H 0.15872 0.77457 0.7657 0.0
C4533 C 0.09469 0.75628 0.72807 0.0
C4534 C 0.14164 0.75943 0.71354 0.0
C4535 C 0.07624 0.75502 0.72081 0.0
C4536 C 0.21548 0.75508 0.746 0.0
C4537 C 0.19681 0.75377 0.73963 0.0
C4538 C 0.15429 0.77033 0.75106 0.0
C4539 C 0.10918 0.76331 0.71816 0.0
C4540 C 0.12904 0.76404 0.72548 0.0
C4541 C 0.18691 0.76682 0.74618 0.0
C4542 C 0.16687 0.76566 0.73911 0.0
H4543 H 0.0831 0.77286 0.68035 0.0
H4544 H 0.11501 0.77485 0.69273 0.0
H4545 H 0.12666 0.77317 0.75413 0.0
H4546 H 0.22197 0.79403 0.77555 0.0
H4547 H 0.18969 0.79167 0.76471 0.0
C4548 C 0.04539 0.35699 0.40598 0.0
C4549 C 0.04772 0.35849 0.38716 0.0
C4550 C 0.04521 0.37235 0.41848 0.0
C4551 C 0.04016 0.4213 0.41987 0.0
H4552 H 0.05528 0.42208 0.4725 0.0
C4553 C 0.04698 0.48574 0.47362 0.0
C4554 C 0.03952 0.48318 0.49046 0.0
C4555 C 0.04847 0.47086 0.46105 0.0
C4556 C 0.0509 0.42206 0.45786 0.0
H4557 H 0.05214 0.3778 0.36705 0.0
H4558 H 0.05261 0.40455 0.38886 0.0
H4559 H 0.05779 0.39618 0.45088 0.0
H4560 H 0.02692 0.46248 0.50646 0.0
H4561 H 0.03042 0.43673 0.48515 0.0
H4562 H 0.03375 0.4475 0.42699 0.0
C4563 C 0.05035 0.39141 0.39395 0.0
C4564 C 0.05224 0.40708 0.44535 0.0
C4565 C 0.05031 0.37599 0.38138 0.0
C4566 C 0.0335 0.46519 0.49418 0.0
C4567 C 0.03531 0.45032 0.48179 0.0
C4568 C 0.03909 0.4364 0.43236 0.0
C4569 C 0.04757 0.38988 0.41272 0.0
C4570 C 0.04675 0.4063 0.4261 0.0
C4571 C 0.04275 0.45291 0.46498 0.0
C4572 C 0.04432 0.43696 0.45157 0.0
H4573 H 0.04313 0.34381 0.41104 0.0
H4574 H 0.04267 0.37028 0.43258 0.0
H4575 H 0.0354 0.4213 0.40533 0.0
H4576 H 0.05168 0.4993 0.47007 0.0
H4577 H 0.05432 0.47342 0.4483 0.0
C4578 C 0.46532 0.25716 0.21599 0.0
C4579 C 0.46392 0.25117 0.19678 0.0
C4580 C 0.44978 0.26046 0.22455 0.0
C4581 C 0.40219 0.26939 0.2122 0.0
H4582 H 0.3932 0.25744 0.26148 0.0
C4583 C 0.33096 0.27037 0.23782 0.0
C4584 C 0.3294 0.27469 0.25683 0.0
C4585 C 0.34774 0.26819 0.2316 0.0
C4586 C 0.39546 0.26112 0.24776 0.0
H4587 H 0.44421 0.24361 0.17199 0.0
H4588 H 0.418 0.24919 0.18656 0.0
H4589 H 0.42145 0.25269 0.24931 0.0
H4590 H 0.34481 0.27937 0.28416 0.0
H4591 H 0.37409 0.27627 0.27342 0.0
H4592 H 0.37652 0.27799 0.21053 0.0
C4593 C 0.43102 0.25174 0.19514 0.0
C4594 C 0.41184 0.25835 0.24072 0.0
C4595 C 0.44632 0.24837 0.18672 0.0
C4596 C 0.34537 0.27654 0.2694 0.0
C4597 C 0.36225 0.27443 0.26317 0.0
C4598 C 0.38595 0.27222 0.21922 0.0
C4599 C 0.43232 0.25807 0.21418 0.0
C4600 C 0.41543 0.26215 0.22263 0.0
C4601 C 0.36387 0.27023 0.24407 0.0
C4602 C 0.38199 0.26791 0.23706 0.0
H4603 H 0.47844 0.25954 0.22438 0.0
H4604 H 0.45157 0.26532 0.23924 0.0
H4605 H 0.40438 0.27303 0.19844 0.0
H4606 H 0.31912 0.26867 0.22757 0.0
H4607 H 0.3479 0.26458 0.21687 0.0
C4608 C 0.62826 0.53166 0.35558 0.0
C4609 C 0.61969 0.53574 0.33883 0.0
C4610 C 0.61884 0.52933 0.37112 0.0
C4611 C 0.57928 0.54105 0.39269 0.0
H4612 H 0.58815 0.50444 0.42451 0.0
C4613 C 0.54019 0.52804 0.45672 0.0
C4614 C 0.54992 0.5244 0.47304 0.0
C4615 C 0.54806 0.52881 0.44005 0.0
C4616 C 0.58566 0.51489 0.41594 0.0
H4617 H 0.59417 0.54041 0.32548 0.0
H4618 H 0.57763 0.53635 0.35273 0.0
H4619 H 0.60232 0.50643 0.39582 0.0
H4620 H 0.5757 0.51864 0.48439 0.0
H4621 H 0.5895 0.52006 0.45533 0.0
H4622 H 0.56275 0.54962 0.4129 0.0
C4623 C 0.59179 0.53503 0.35377 0.0
C4624 C 0.59377 0.51601 0.3994 0.0
C4625 C 0.60123 0.53722 0.33807 0.0
C4626 C 0.56776 0.52143 0.47214 0.0
C4627 C 0.57564 0.52216 0.4554 0.0
C4628 C 0.57118 0.53994 0.40926 0.0
C4629 C 0.6005 0.53109 0.37055 0.0
C4630 C 0.59085 0.52921 0.38759 0.0
C4631 C 0.56592 0.52592 0.4391 0.0
C4632 C 0.57435 0.52692 0.42122 0.0
H4633 H 0.64244 0.53038 0.35681 0.0
H4634 H 0.62613 0.52656 0.38379 0.0
H4635 H 0.57688 0.55154 0.38414 0.0
H4636 H 0.52641 0.5304 0.45676 0.0
H4637 H 0.54 0.53148 0.42782 0.0
C4638 C 0.27302 0.88403 0.05008 0.0
C4639 C 0.27934 0.90286 0.05104 0.0
C4640 C 0.27467 0.87522 0.06593 0.0
C4641 C 0.28078 0.87604 0.11521 0.0
H4642 H 0.31735 0.84689 0.10701 0.0
C4643 C 0.31513 0.84034 0.17244 0.0
C4644 C 0.31808 0.82284 0.16689 0.0
C4645 C 0.30848 0.85064 0.15935 0.0
C4646 C 0.30696 0.85476 0.10945 0.0
H4647 H 0.29057 0.9275 0.06962 0.0
H4648 H 0.29322 0.91191 0.09758 0.0
H4649 H 0.30762 0.86429 0.08273 0.0
H4650 H 0.31542 0.80208 0.14347 0.0
H4651 H 0.30397 0.82005 0.12066 0.0
H4652 H 0.2799 0.86619 0.1419 0.0
C4653 C 0.28714 0.9041 0.08445 0.0
C4654 C 0.30149 0.86476 0.09561 0.0
C4655 C 0.28566 0.91296 0.06848 0.0
C4656 C 0.31373 0.81567 0.14811 0.0
C4657 C 0.30713 0.82595 0.13506 0.0
C4658 C 0.28616 0.86585 0.12911 0.0
C4659 C 0.28239 0.88512 0.08304 0.0
C4660 C 0.28826 0.8753 0.09831 0.0
C4661 C 0.30472 0.84364 0.14048 0.0
C4662 C 0.29917 0.85494 0.12623 0.0
H4663 H 0.26795 0.87587 0.03688 0.0
H4664 H 0.27093 0.86054 0.06464 0.0
H4665 H 0.27055 0.88415 0.11747 0.0
H4666 H 0.31845 0.84629 0.18681 0.0
H4667 H 0.30686 0.86427 0.1639 0.0
C4668 C 0.92568 0.51955 0.84411 0.0
C4669 C 0.90851 0.5236 0.84671 0.0
C4670 C 0.93906 0.52139 0.85916 0.0
C4671 C 0.95562 0.54584 0.904 0.0
H4672 H 0.97418 0.50318 0.91604 0.0
C4673 C 0.99398 0.54272 0.9748 0.0
C4674 C 0.00794 0.5327 0.97603 0.0
C4675 C 0.98362 0.54263 0.9579 0.0
C4676 C 0.96947 0.51531 0.91264 0.0
H4677 H 0.89188 0.53292 0.86689 0.0
H4678 H 0.91569 0.53661 0.89334 0.0
H4679 H 0.95228 0.50112 0.88846 0.0
H4680 H 0.02233 0.51507 0.96048 0.0
H4681 H 1.00451 0.51541 0.93064 0.0
H4682 H 0.97292 0.56019 0.9279 0.0
C4683 C 0.91857 0.5319 0.87961 0.0
C4684 C 0.95685 0.51407 0.89698 0.0
C4685 C 0.90501 0.52971 0.86458 0.0
C4686 C 0.01166 0.52294 0.95992 0.0
C4687 C 1.00138 0.52302 0.94289 0.0
C4688 C 0.96847 0.54719 0.91948 0.0
C4689 C 0.93559 0.52761 0.87695 0.0
C4690 C 0.94963 0.52924 0.89281 0.0
C4691 C 0.98712 0.53272 0.94178 0.0
C4692 C 0.97521 0.53183 0.92418 0.0
H4693 H 0.92867 0.51465 0.83048 0.0
H4694 H 0.95215 0.51804 0.85693 0.0
H4695 H 0.95033 0.55774 0.90078 0.0
H4696 H 0.99077 0.55041 0.98695 0.0
H4697 H 0.9725 0.54994 0.95762 0.0
C4698 C 0.26226 0.18607 0.57759 0.0
C4699 C 0.27135 0.19612 0.56478 0.0
C4700 C 0.26232 0.19365 0.59594 0.0
C4701 C 0.273 0.2381 0.62711 0.0
H4702 H 0.26884 0.20573 0.66533 0.0
C4703 C 0.26604 0.26452 0.70374 0.0
C4704 C 0.27298 0.25565 0.71819 0.0
C4705 C 0.26534 0.25745 0.68499 0.0
C4706 C 0.27033 0.21518 0.65504 0.0
H4707 H 0.28783 0.2221 0.56142 0.0
H4708 H 0.28873 0.23512 0.59369 0.0
H4709 H 0.27021 0.19367 0.63374 0.0
H4710 H 0.28386 0.23188 0.72397 0.0
H4711 H 0.28434 0.22063 0.69188 0.0
H4712 H 0.2743 0.2598 0.64875 0.0
C4713 C 0.28103 0.22149 0.58946 0.0
C4714 C 0.27072 0.20809 0.6366 0.0
C4715 C 0.2807 0.21396 0.57092 0.0
C4716 C 0.27896 0.23945 0.71333 0.0
C4717 C 0.27879 0.2327 0.69469 0.0
C4718 C 0.27301 0.24527 0.6457 0.0
C4719 C 0.27178 0.21147 0.60232 0.0
C4720 C 0.27191 0.21936 0.62221 0.0
C4721 C 0.27191 0.24148 0.6801 0.0
C4722 C 0.27165 0.23393 0.66005 0.0
H4723 H 0.25469 0.17237 0.57333 0.0
H4724 H 0.25457 0.18551 0.60501 0.0
H4725 H 0.27367 0.24733 0.61658 0.0
H4726 H 0.26127 0.27701 0.70685 0.0
H4727 H 0.25954 0.26454 0.6744 0.0
C4728 C 0.6207 0.54292 0.21654 0.0
C4729 C 0.61084 0.53457 0.22995 0.0
C4730 C 0.61259 0.54242 0.19823 0.0
C4731 C 0.57582 0.51683 0.16308 0.0
H4732 H 0.58144 0.56132 0.13969 0.0
C4733 C 0.55922 0.51911 0.08349 0.0
C4734 C 0.54863 0.53168 0.07796 0.0
C4735 C 0.56581 0.51919 0.10223 0.0
C4736 C 0.57968 0.5488 0.14605 0.0
H4737 H 0.58472 0.51884 0.23438 0.0
H4738 H 0.57069 0.51758 0.20225 0.0
H4739 H 0.5951 0.5618 0.17181 0.0
H4740 H 0.53632 0.55385 0.08826 0.0
H4741 H 0.54858 0.5546 0.12084 0.0
H4742 H 0.56076 0.50375 0.13715 0.0
C4743 C 0.58471 0.52463 0.206 0.0
C4744 C 0.58762 0.54904 0.16441 0.0
C4745 C 0.59274 0.52538 0.22443 0.0
C4746 C 0.54467 0.54421 0.09183 0.0
C4747 C 0.55167 0.54461 0.11055 0.0
C4748 C 0.56819 0.51652 0.1446 0.0
C4749 C 0.59446 0.53333 0.1927 0.0
C4750 C 0.5858 0.53306 0.17319 0.0
C4751 C 0.56232 0.53208 0.11599 0.0
C4752 C 0.57001 0.5325 0.13585 0.0
H4753 H 0.63465 0.55016 0.22026 0.0
H4754 H 0.62057 0.54909 0.18833 0.0
H4755 H 0.57422 0.50426 0.16935 0.0
H4756 H 0.56241 0.50908 0.07331 0.0
H4757 H 0.57398 0.50938 0.10591 0.0
C4758 C 0.27689 0.88531 0.94976 0.0
C4759 C 0.28605 0.90303 0.94828 0.0
C4760 C 0.27431 0.87194 0.93475 0.0
C4761 C 0.27328 0.86443 0.88436 0.0
H4762 H 0.28375 0.81754 0.89432 0.0
C4763 C 0.28828 0.79893 0.83925 0.0
C4764 C 0.27433 0.79747 0.82458 0.0
C4765 C 0.28802 0.80992 0.8557 0.0
C4766 C 0.28079 0.83057 0.8914 0.0
H4767 H 0.29912 0.92088 0.92977 0.0
H4768 H 0.29478 0.89724 0.90336 0.0
H4769 H 0.28736 0.84188 0.91986 0.0
H4770 H 0.24836 0.80448 0.81591 0.0
H4771 H 0.24771 0.8234 0.84482 0.0
H4772 H 0.26725 0.85334 0.85584 0.0
C4773 C 0.28953 0.89384 0.9162 0.0
C4774 C 0.28273 0.84442 0.90596 0.0
C4775 C 0.29204 0.90732 0.93127 0.0
C4776 C 0.2594 0.80575 0.82702 0.0
C4777 C 0.25906 0.81657 0.84347 0.0
C4778 C 0.27135 0.8506 0.86982 0.0
C4779 C 0.28089 0.87599 0.91797 0.0
C4780 C 0.27898 0.86144 0.90253 0.0
C4781 C 0.27375 0.81937 0.85759 0.0
C4782 C 0.27506 0.83356 0.87324 0.0
H4783 H 0.27182 0.88167 0.96261 0.0
H4784 H 0.26723 0.85838 0.9363 0.0
H4785 H 0.27019 0.8774 0.88141 0.0
H4786 H 0.29993 0.79261 0.83753 0.0
H4787 H 0.29953 0.81193 0.86641 0.0
C4788 C 0.89122 0.52432 0.72641 0.0
C4789 C 0.90189 0.53234 0.74312 0.0
C4790 C 0.89903 0.52372 0.70974 0.0
C4791 C 0.94133 0.54032 0.6884 0.0
H4792 H 0.93163 0.4912 0.66333 0.0
C4793 C 0.99356 0.51062 0.64905 0.0
C4794 C 0.98738 0.49994 0.63194 0.0
C4795 C 0.98116 0.51669 0.65999 0.0
C4796 C 0.93427 0.50506 0.66995 0.0
H4797 H 0.92857 0.5474 0.75529 0.0
H4798 H 0.9422 0.54614 0.72646 0.0
H4799 H 0.91256 0.49932 0.68669 0.0
H4800 H 0.96346 0.48708 0.61285 0.0
H4801 H 0.9417 0.49755 0.63214 0.0
H4802 H 0.96369 0.5457 0.67228 0.0
C4803 C 0.92782 0.54041 0.72604 0.0
C4804 C 0.92328 0.50976 0.68327 0.0
C4805 C 0.92003 0.54103 0.74264 0.0
C4806 C 0.96857 0.49537 0.62597 0.0
C4807 C 0.95614 0.5013 0.637 0.0
C4808 C 0.95239 0.53557 0.67517 0.0
C4809 C 0.91762 0.53114 0.70954 0.0
C4810 C 0.92702 0.5273 0.69304 0.0
C4811 C 0.96234 0.51205 0.65408 0.0
C4812 C 0.94926 0.51776 0.66621 0.0
H4813 H 0.87716 0.5176 0.72635 0.0
H4814 H 0.89075 0.51674 0.69719 0.0
H4815 H 0.94436 0.55403 0.69546 0.0
H4816 H 0.00801 0.51449 0.65386 0.0
H4817 H 0.98628 0.52475 0.67323 0.0
C4818 C 0.2603 0.17965 0.43723 0.0
C4819 C 0.26786 0.18791 0.45519 0.0
C4820 C 0.26246 0.18894 0.42164 0.0
C4821 C 0.27653 0.235 0.40632 0.0
H4822 H 0.27865 0.20597 0.35993 0.0
C4823 C 0.28976 0.24319 0.32381 0.0
C4824 C 0.2816 0.2582 0.32127 0.0
C4825 C 0.28925 0.2353 0.34054 0.0
C4826 C 0.27838 0.21445 0.37272 0.0
H4827 H 0.28356 0.21278 0.47064 0.0
H4828 H 0.28797 0.22894 0.44322 0.0
H4829 H 0.2765 0.19168 0.3882 0.0
H4830 H 0.2662 0.27649 0.33427 0.0
H4831 H 0.26459 0.26241 0.36287 0.0
H4832 H 0.27931 0.25795 0.3909 0.0
C4833 C 0.27996 0.21526 0.44129 0.0
C4834 C 0.27677 0.20612 0.38905 0.0
C4835 C 0.27751 0.20598 0.45707 0.0
C4836 C 0.2728 0.26504 0.3358 0.0
C4837 C 0.27201 0.257 0.35236 0.0
C4838 C 0.27842 0.24341 0.38999 0.0
C4839 C 0.27263 0.20678 0.42326 0.0
C4840 C 0.27549 0.21615 0.40609 0.0
C4841 C 0.28027 0.24201 0.3551 0.0
C4842 C 0.27914 0.23324 0.37283 0.0
H4843 H 0.25258 0.16585 0.4351 0.0
H4844 H 0.25601 0.18202 0.40825 0.0
H4845 H 0.27552 0.24328 0.41902 0.0
H4846 H 0.29678 0.23768 0.31297 0.0
H4847 H 0.29611 0.22405 0.34207 0.0
C4848 C 0.31374 0.5871 0.54557 0.0
C4849 C 0.31322 0.60504 0.54245 0.0
C4850 C 0.33039 0.5816 0.54839 0.0
C4851 C 0.38115 0.59798 0.55223 0.0
H4852 H 0.378 0.55191 0.52235 0.0
C4853 C 0.43573 0.57913 0.50802 0.0
C4854 C 0.43743 0.56085 0.50549 0.0
C4855 C 0.42328 0.58448 0.5194 0.0
C4856 C 0.37919 0.5646 0.53113 0.0
H4857 H 0.32948 0.6316 0.54082 0.0
H4858 H 0.35857 0.62178 0.5444 0.0
H4859 H 0.35042 0.5612 0.53004 0.0
H4860 H 0.42831 0.53413 0.51397 0.0
H4861 H 0.40696 0.54358 0.534 0.0
H4862 H 0.41014 0.60175 0.55187 0.0
C4863 C 0.34627 0.61203 0.54542 0.0
C4864 C 0.36329 0.56996 0.53564 0.0
C4865 C 0.3296 0.61766 0.54317 0.0
C4866 C 0.42745 0.54834 0.51565 0.0
C4867 C 0.41511 0.55371 0.52705 0.0
C4868 C 0.39713 0.59269 0.54746 0.0
C4869 C 0.34683 0.59377 0.54743 0.0
C4870 C 0.36399 0.58694 0.54579 0.0
C4871 C 0.41236 0.57164 0.52842 0.0
C4872 C 0.39621 0.57614 0.53646 0.0
H4873 H 0.30126 0.57722 0.54544 0.0
H4874 H 0.33031 0.56758 0.55051 0.0
H4875 H 0.38222 0.611 0.56038 0.0
H4876 H 0.44351 0.58914 0.50066 0.0
H4877 H 0.42137 0.59839 0.52013 0.0
C4878 C 0.84831 0.92265 0.54819 0.0
C4879 C 0.84328 0.90653 0.53599 0.0
C4880 C 0.8656 0.93361 0.54884 0.0
C4881 C 0.90285 0.94432 0.51989 0.0
H4882 H 0.92981 0.97 0.56595 0.0
C4883 C 0.9647 1.00349 0.52161 0.0
C4884 C 0.98037 1.00233 0.53334 0.0
C4885 C 0.94801 0.9919 0.52257 0.0
C4886 C 0.92244 0.96291 0.55297 0.0
H4887 H 0.85264 0.88837 0.51597 0.0
H4888 H 0.88297 0.90767 0.51684 0.0
H4889 H 0.90131 0.94848 0.56677 0.0
H4890 H 0.99067 0.98851 0.55566 0.0
H4891 H 0.96147 0.96858 0.55758 0.0
H4892 H 0.92394 0.95887 0.5061 0.0
C4893 C 0.87344 0.91203 0.52568 0.0
C4894 C 0.90606 0.95065 0.55343 0.0
C4895 C 0.85616 0.90095 0.52523 0.0
C4896 C 0.97884 0.98976 0.54645 0.0
C4897 C 0.96211 0.97837 0.54759 0.0
C4898 C 0.91908 0.95678 0.51941 0.0
C4899 C 0.87826 0.92866 0.53729 0.0
C4900 C 0.89605 0.94119 0.53689 0.0
C4901 C 0.94657 0.9791 0.53546 0.0
C4902 C 0.92908 0.9662 0.53595 0.0
H4903 H 0.83868 0.927 0.55693 0.0
H4904 H 0.86876 0.94633 0.55786 0.0
H4905 H 0.89546 0.93737 0.50689 0.0
H4906 H 0.96545 0.01292 0.51125 0.0
H4907 H 0.93623 0.99288 0.51315 0.0
C4908 C 0.88726 0.05816 0.25254 0.0
C4909 C 0.9039 0.05738 0.26267 0.0
C4910 C 0.88117 0.0745 0.2524 0.0
C4911 C 0.88438 0.11739 0.28175 0.0
H4912 H 0.85406 0.12771 0.23936 0.0
C4913 C 0.84157 0.17444 0.28586 0.0
C4914 C 0.82317 0.16834 0.27851 0.0
C4915 C 0.85448 0.16359 0.28268 0.0
C4916 C 0.86253 0.12506 0.25132 0.0
H4917 H 0.92759 0.07311 0.28017 0.0
H4918 H 0.91693 0.10202 0.27997 0.0
H4919 H 0.87216 0.10427 0.23534 0.0
H4920 H 0.80403 0.14643 0.2616 0.0
H4921 H 0.82645 0.12764 0.25598 0.0
H4922 H 0.87427 0.13793 0.2978 0.0
C4923 C 0.9086 0.08991 0.27209 0.0
C4924 C 0.8729 0.11162 0.24902 0.0
C4925 C 0.91481 0.07345 0.27205 0.0
C4926 C 0.81807 0.15145 0.26754 0.0
C4927 C 0.83096 0.14076 0.26419 0.0
C4928 C 0.87404 0.13095 0.28402 0.0
C4929 C 0.8915 0.09052 0.26256 0.0
C4930 C 0.88345 0.10715 0.26433 0.0
C4931 C 0.84928 0.1466 0.27183 0.0
C4932 C 0.86252 0.13448 0.26895 0.0
H4933 H 0.87857 0.04595 0.24525 0.0
H4934 H 0.86784 0.07432 0.24513 0.0
H4935 H 0.89222 0.11422 0.29387 0.0
H4936 H 0.84586 0.18736 0.29447 0.0
H4937 H 0.86851 0.16846 0.28872 0.0
C4938 C 0.7097 0.12679 0.01796 0.0
C4939 C 0.72175 0.11916 0.02921 0.0
C4940 C 0.69099 0.11982 0.01628 0.0
C4941 C 0.65356 0.09356 0.00835 0.0
H4942 H 0.63291 0.08679 0.05463 0.0
C4943 C 0.58619 0.04535 0.01502 0.0
C4944 C 0.57596 0.05029 0.02903 0.0
C4945 C 0.60245 0.05674 0.01263 0.0
C4946 C 0.63835 0.08892 0.04158 0.0
H4947 H 0.72416 0.09937 0.0485 0.0
H4948 H 0.69145 0.08711 0.04561 0.0
H4949 H 0.6649 0.10059 0.05546 0.0
H4950 H 0.57364 0.07087 0.05098 0.0
H4951 H 0.60199 0.09113 0.04663 0.0
H4952 H 0.62694 0.08153 0.99448 0.0
C4953 C 0.69637 0.09818 0.03781 0.0
C4954 C 0.65671 0.09658 0.04208 0.0
C4955 C 0.71501 0.10502 0.03932 0.0
C4956 C 0.5815 0.06698 0.04009 0.0
C4957 C 0.59766 0.07845 0.03761 0.0
C4958 C 0.63511 0.0858 0.00784 0.0
C4959 C 0.68423 0.10556 0.02633 0.0
C4960 C 0.66451 0.09869 0.0255 0.0
C4961 C 0.60861 0.07312 0.02433 0.0
C4962 C 0.62742 0.08323 0.02448 0.0
H4963 H 0.71478 0.13802 0.01043 0.0
H4964 H 0.68179 0.12581 0.00752 0.0
H4965 H 0.65941 0.09501 0.99541 0.0
H4966 H 0.58203 0.03234 0.00653 0.0
H4967 H 0.61072 0.05218 0.00245 0.0
C4968 C 0.18724 0.47974 0.24803 0.0
C4969 C 0.20121 0.49462 0.25525 0.0
C4970 C 0.19081 0.46222 0.24612 0.0
C4971 C 0.22677 0.43537 0.245 0.0
H4972 H 0.19867 0.40566 0.27681 0.0
C4973 C 0.25586 0.38444 0.28565 0.0
C4974 C 0.24417 0.37006 0.29181 0.0
C4975 C 0.24878 0.39631 0.27478 0.0
C4976 C 0.20635 0.41338 0.26737 0.0
H4977 H 0.23007 0.50299 0.26496 0.0
H4978 H 0.23632 0.47232 0.26145 0.0
H4979 H 0.18955 0.4333 0.26861 0.0
H4980 H 0.21617 0.35579 0.29026 0.0
H4981 H 0.20374 0.37619 0.27072 0.0
H4982 H 0.24383 0.41566 0.24405 0.0
C4983 C 0.22263 0.47427 0.25733 0.0
C4984 C 0.20112 0.4293 0.26275 0.0
C4985 C 0.21901 0.49176 0.25954 0.0
C4986 C 0.2254 0.367 0.28592 0.0
C4987 C 0.21832 0.3787 0.27477 0.0
C4988 C 0.23184 0.41924 0.24935 0.0
C4989 C 0.20846 0.45933 0.25108 0.0
C4990 C 0.21173 0.44079 0.25221 0.0
C4991 C 0.22985 0.39391 0.26965 0.0
C4992 C 0.22219 0.4085 0.26132 0.0
H4993 H 0.17338 0.48153 0.24458 0.0
H4994 H 0.17968 0.45086 0.24131 0.0
H4995 H 0.23502 0.44399 0.23666 0.0
H4996 H 0.27039 0.38709 0.29008 0.0
H4997 H 0.2581 0.40798 0.27141 0.0
C4998 C 0.2469 0.42527 0.03853 0.0
C4999 C 0.24732 0.40769 0.0306 0.0
C5000 C 0.23059 0.43156 0.03806 0.0
C5001 C 0.18658 0.42552 0.00951 0.0
H5002 H 0.17838 0.46133 0.04803 0.0
C5003 C 0.12933 0.46805 1.00107 0.0
C5004 C 0.13591 0.48685 0.00526 0.0
C5005 C 0.14043 0.45571 0.00566 0.0
C5006 C 0.18044 0.45131 0.03717 0.0
H5007 H 0.23088 0.38256 0.01651 0.0
H5008 H 0.202 0.39362 0.01554 0.0
H5009 H 0.20168 0.44342 0.0544 0.0
H5010 H 0.15898 0.50747 0.01795 0.0
H5011 H 0.1782 0.48601 0.02632 0.0
H5012 H 0.1655 0.43379 0.99219 0.0
C5013 C 0.21442 0.40254 0.02218 0.0
C5014 C 0.19379 0.44104 0.04079 0.0
C5015 C 0.23087 0.39613 0.02289 0.0
C5016 C 0.15362 0.49306 0.01445 0.0
C5017 C 0.16455 0.48077 0.01936 0.0
C5018 C 0.17307 0.43571 0.00593 0.0
C5019 C 0.21418 0.42049 0.02945 0.0
C5020 C 0.19753 0.42851 0.0268 0.0
C5021 C 0.15815 0.46196 0.01493 0.0
C5022 C 0.17032 0.44916 0.01953 0.0
H5023 H 0.25935 0.43448 0.04457 0.0
H5024 H 0.23108 0.4455 0.04358 0.0
H5025 H 0.18916 0.4161 0.99835 0.0
H5026 H 0.11572 0.46292 0.99394 0.0
H5027 H 0.13514 0.4413 0.00209 0.0
C5028 C 0.88426 0.95786 0.2501 0.0
C5029 C 0.9009 0.96255 0.26168 0.0
C5030 C 0.87268 0.94109 0.25033 0.0
C5031 C 0.85429 0.9012 0.2472 0.0
H5032 H 0.84809 0.88409 0.29523 0.0
C5033 C 0.8162 0.82896 0.25526 0.0
C5034 C 0.80423 0.82699 0.26896 0.0
C5035 C 0.82737 0.84572 0.25405 0.0
C5036 C 0.84957 0.88876 0.28173 0.0
H5037 H 0.91925 0.95302 0.28147 0.0
H5038 H 0.89893 0.92361 0.2821 0.0
H5039 H 0.86956 0.91228 0.29331 0.0
H5040 H 0.79457 0.84118 0.29211 0.0
H5041 H 0.81428 0.87059 0.29009 0.0
H5042 H 0.8344 0.87759 0.23561 0.0
C5043 C 0.89462 0.93303 0.27311 0.0
C5044 C 0.86202 0.90482 0.2806 0.0
C5045 C 0.9063 0.94978 0.27269 0.0
C5046 C 0.80358 0.84228 0.28135 0.0
C5047 C 0.81496 0.85907 0.28027 0.0
C5048 C 0.84201 0.88504 0.24831 0.0
C5049 C 0.87752 0.9286 0.26214 0.0
C5050 C 0.86454 0.91127 0.26332 0.0
C5051 C 0.82702 0.86096 0.26662 0.0
C5052 C 0.83952 0.87859 0.26558 0.0
H5053 H 0.88002 0.96738 0.24117 0.0
H5054 H 0.85963 0.93821 0.24177 0.0
H5055 H 0.85594 0.90567 0.23365 0.0
H5056 H 0.81707 0.81749 0.24546 0.0
H5057 H 0.83662 0.84665 0.24349 0.0
C5058 C 0.68643 0.10224 0.77886 0.0
C5059 C 0.69391 0.08969 0.76814 0.0
C5060 C 0.69468 0.12058 0.78117 0.0
C5061 C 0.72847 0.15472 0.79005 0.0
H5062 H 0.72427 0.17961 0.74599 0.0
C5063 C 0.77648 0.21927 0.77381 0.0
C5064 C 0.76782 0.23281 0.76752 0.0
C5065 C 0.76607 0.20293 0.7774 0.0
C5066 C 0.72533 0.17286 0.75843 0.0
H5067 H 0.71471 0.08611 0.7503 0.0
H5068 H 0.72897 0.1184 0.75402 0.0
H5069 H 0.70861 0.148 0.745 0.0
H5070 H 0.74195 0.24048 0.76006 0.0
H5071 H 0.72363 0.21164 0.76595 0.0
H5072 H 0.74604 0.17936 0.80317 0.0
C5073 C 0.7172 0.11395 0.76112 0.0
C5074 C 0.71649 0.15488 0.75783 0.0
C5075 C 0.70916 0.09562 0.7591 0.0
C5076 C 0.74877 0.23019 0.76519 0.0
C5077 C 0.73836 0.21379 0.76851 0.0
C5078 C 0.73765 0.17266 0.79055 0.0
C5079 C 0.71003 0.12645 0.77222 0.0
C5080 C 0.71815 0.14573 0.77357 0.0
C5081 C 0.74697 0.19997 0.77431 0.0
C5082 C 0.73618 0.18174 0.77468 0.0
H5083 H 0.67436 0.09781 0.78553 0.0
H5084 H 0.68892 0.13021 0.78957 0.0
H5085 H 0.72988 0.14771 0.80225 0.0
H5086 H 0.79123 0.2212 0.77556 0.0
H5087 H 0.7729 0.19229 0.78163 0.0
loop_
_geom_bond_atom_site_label_1
_geom_bond_atom_site_label_2
_geom_bond_distance
_geom_bond_site_symmetry_2
_ccdc_geom_bond_type
Mn0 O5 2.095 . S
Mn0 O15 2.162 . S
Mn0 O16 2.297 . S
Mn0 O24 2.385 . S
Mn0 O25 2.209 . S
Mn0 O26 2.094 . S
Mn1 O6 2.121 . S
Mn1 N8 2.257 . S
Mn1 N17 2.282 . S
Mn1 O25 2.215 . S
Mn1 O27 2.117 . S
C2 O24 1.234 . S
C2 O25 1.283 . S
C3 O15 1.281 . S
C3 O16 1.236 . S
C4 O26 1.240 . S
C4 O27 1.264 . S
O5 Mn0 2.095 . S
O5 C14 1.250 . S
O6 Mn1 2.121 . S
O6 C14 1.258 . S
C7 N8 1.326 . S
C7 C11 1.460 . S
C7 H13 0.929 . S
N8 Mn1 2.257 . S
N8 C7 1.326 . S
N8 C12 1.362 . S
C9 C10 1.267 . S
C9 C12 1.435 . S
C9 C29 1.435 1_455 S
C10 C9 1.267 . S
C10 C11 1.477 . S
C10 H30 0.931 . S
C11 C7 1.460 . S
C11 C10 1.477 . S
C11 H31 0.930 . S
C12 N8 1.362 . S
C12 C9 1.435 . S
C12 C22 1.476 1_455 S
H13 C7 0.929 . S
C14 O5 1.250 . S
C14 O6 1.258 . S
O15 Mn0 2.162 . S
O15 C3 1.281 . S
O16 Mn0 2.297 . S
O16 C3 1.236 . S
N17 Mn1 2.282 . S
N17 C18 1.328 1_455 S
N17 C22 1.318 1_455 S
C18 N17 1.328 1_655 S
C18 C19 1.457 . S
C18 H23 0.929 1_655 S
C19 C18 1.457 . S
C19 C20 1.291 . S
C19 H32 0.931 . S
C20 C19 1.291 . S
C20 C21 1.373 . S
C20 H33 0.929 . S
C21 C20 1.373 . S
C21 C22 1.396 . S
C21 C28 1.403 . S
C22 C12 1.476 1_655 S
C22 N17 1.318 1_655 S
C22 C21 1.396 . S
H23 C18 0.929 1_455 S
O24 Mn0 2.385 . S
O24 C2 1.234 . S
O25 Mn0 2.209 . S
O25 Mn1 2.215 . S
O25 C2 1.283 . S
O26 Mn0 2.094 . S
O26 C4 1.240 . S
O27 Mn1 2.117 . S
O27 C4 1.264 . S
C28 C21 1.403 . S
C28 C29 1.399 . S
C28 H34 0.929 . S
C29 C9 1.435 1_655 S
C29 C28 1.399 . S
C29 H35 0.930 . S
H30 C10 0.931 . S
H31 C11 0.930 . S
H32 C19 0.931 . S
H33 C20 0.929 . S
H34 C28 0.929 . S
H35 C29 0.930 . S
Mn36 O41 2.095 1_455 S
Mn36 O51 2.162 . S
Mn36 O52 2.297 . S
Mn36 O60 2.385 . S
Mn36 O61 2.209 . S
Mn36 O62 2.094 . S
Mn37 O42 2.121 1_455 S
Mn37 N44 2.257 . S
Mn37 N53 2.282 . S
Mn37 O61 2.215 . S
Mn37 O63 2.117 . S
C38 O60 1.234 . S
C38 O61 1.283 . S
C39 O51 1.281 . S
C39 O52 1.236 . S
C40 O62 1.240 . S
C40 O63 1.264 . S
O41 Mn36 2.095 1_655 S
O41 C50 1.250 . S
O42 Mn37 2.121 1_655 S
O42 C50 1.258 . S
C43 N44 1.326 . S
C43 C47 1.460 . S
C43 H49 0.929 . S
N44 Mn37 2.257 . S
N44 C43 1.326 . S
N44 C48 1.362 . S
C45 C46 1.258 . S
C45 C48 1.431 . S
C45 C65 1.449 . S
C46 C45 1.258 . S
C46 C47 1.477 . S
C46 H66 0.931 . S
C47 C43 1.460 . S
C47 C46 1.477 . S
C47 H67 0.930 . S
C48 N44 1.362 . S
C48 C45 1.431 . S
C48 C58 1.476 . S
H49 C43 0.929 . S
C50 O41 1.250 . S
C50 O42 1.258 . S
O51 Mn36 2.162 . S
O51 C39 1.281 . S
O52 Mn36 2.297 . S
O52 C39 1.236 . S
N53 Mn37 2.282 . S
N53 C54 1.328 . S
N53 C58 1.318 . S
C54 N53 1.328 . S
C54 C55 1.457 . S
C54 H59 0.929 . S
C55 C54 1.457 . S
C55 C56 1.291 . S
C55 H68 0.931 . S
C56 C55 1.291 . S
C56 C57 1.373 . S
C56 H69 0.929 . S
C57 C56 1.373 . S
C57 C58 1.396 . S
C57 C64 1.403 . S
C58 C48 1.476 . S
C58 N53 1.318 . S
C58 C57 1.396 . S
H59 C54 0.929 . S
O60 Mn36 2.385 . S
O60 C38 1.234 . S
O61 Mn36 2.209 . S
O61 Mn37 2.215 . S
O61 C38 1.283 . S
O62 Mn36 2.094 . S
O62 C40 1.240 . S
O63 Mn37 2.117 . S
O63 C40 1.264 . S
C64 C57 1.403 . S
C64 C65 1.399 . S
C64 H70 0.929 . S
C65 C45 1.449 . S
C65 C64 1.399 . S
C65 H71 0.930 . S
H66 C46 0.931 . S
H67 C47 0.930 . S
H68 C55 0.931 . S
H69 C56 0.929 . S
H70 C64 0.929 . S
H71 C65 0.930 . S
Mn72 O77 2.095 . S
Mn72 O87 2.162 . S
Mn72 O88 2.297 . S
Mn72 O96 2.385 . S
Mn72 O97 2.209 . S
Mn72 O98 2.094 . S
Mn73 O78 2.121 . S
Mn73 N80 2.257 . S
Mn73 N89 2.282 . S
Mn73 O97 2.215 . S
Mn73 O99 2.117 . S
C74 O96 1.234 . S
C74 O97 1.283 . S
C75 O87 1.281 . S
C75 O88 1.236 . S
C76 O98 1.240 . S
C76 O99 1.264 . S
O77 Mn72 2.095 . S
O77 C86 1.250 . S
O78 Mn73 2.121 . S
O78 C86 1.258 . S
C79 N80 1.326 . S
C79 C83 1.460 . S
C79 H85 0.929 . S
N80 Mn73 2.257 . S
N80 C79 1.326 . S
N80 C84 1.362 . S
C81 C82 1.258 . S
C81 C84 1.431 . S
C81 C101 1.449 . S
C82 C81 1.258 . S
C82 C83 1.477 . S
C82 H102 0.931 . S
C83 C79 1.460 . S
C83 C82 1.477 . S
C83 H103 0.930 . S
C84 N80 1.362 . S
C84 C81 1.431 . S
C84 C94 1.476 . S
H85 C79 0.929 . S
C86 O77 1.250 . S
C86 O78 1.258 . S
O87 Mn72 2.162 . S
O87 C75 1.281 . S
O88 Mn72 2.297 . S
O88 C75 1.236 . S
N89 Mn73 2.282 . S
N89 C90 1.328 . S
N89 C94 1.318 . S
C90 N89 1.328 . S
C90 C91 1.457 . S
C90 H95 0.929 . S
C91 C90 1.457 . S
C91 C92 1.291 . S
C91 H104 0.931 . S
C92 C91 1.291 . S
C92 C93 1.373 . S
C92 H105 0.929 . S
C93 C92 1.373 . S
C93 C94 1.396 . S
C93 C100 1.403 . S
C94 C84 1.476 . S
C94 N89 1.318 . S
C94 C93 1.396 . S
H95 C90 0.929 . S
O96 Mn72 2.385 . S
O96 C74 1.234 . S
O97 Mn72 2.209 . S
O97 Mn73 2.215 . S
O97 C74 1.283 . S
O98 Mn72 2.094 . S
O98 C76 1.240 . S
O99 Mn73 2.117 . S
O99 C76 1.264 . S
C100 C93 1.403 . S
C100 C101 1.399 . S
C100 H106 0.929 . S
C101 C81 1.449 . S
C101 C100 1.399 . S
C101 H107 0.930 . S
H102 C82 0.931 . S
H103 C83 0.930 . S
H104 C91 0.931 . S
H105 C92 0.929 . S
H106 C100 0.929 . S
H107 C101 0.930 . S
Mn108 O113 2.095 . S
Mn108 O123 2.162 . S
Mn108 O124 2.297 . S
Mn108 O132 2.385 . S
Mn108 O133 2.209 . S
Mn108 O134 2.094 . S
Mn109 O114 2.121 . S
Mn109 N116 2.257 . S
Mn109 N125 2.282 . S
Mn109 O133 2.215 . S
Mn109 O135 2.117 . S
C110 O132 1.234 . S
C110 O133 1.283 . S
C111 O123 1.281 . S
C111 O124 1.236 . S
C112 O134 1.240 . S
C112 O135 1.264 . S
O113 Mn108 2.095 . S
O113 C122 1.250 . S
O114 Mn109 2.121 . S
O114 C122 1.258 . S
C115 N116 1.326 . S
C115 C119 1.460 . S
C115 H121 0.929 . S
N116 Mn109 2.257 . S
N116 C115 1.326 . S
N116 C120 1.362 . S
C117 C118 1.258 . S
C117 C120 1.431 . S
C117 C137 1.449 . S
C118 C117 1.258 . S
C118 C119 1.477 . S
C118 H138 0.931 . S
C119 C115 1.460 . S
C119 C118 1.477 . S
C119 H139 0.930 . S
C120 N116 1.362 . S
C120 C117 1.431 . S
C120 C130 1.476 . S
H121 C115 0.929 . S
C122 O113 1.250 . S
C122 O114 1.258 . S
O123 Mn108 2.162 . S
O123 C111 1.281 . S
O124 Mn108 2.297 . S
O124 C111 1.236 . S
N125 Mn109 2.282 . S
N125 C126 1.328 . S
N125 C130 1.318 . S
C126 N125 1.328 . S
C126 C127 1.457 . S
C126 H131 0.929 . S
C127 C126 1.457 . S
C127 C128 1.291 . S
C127 H140 0.931 . S
C128 C127 1.291 . S
C128 C129 1.373 . S
C128 H141 0.929 . S
C129 C128 1.373 . S
C129 C130 1.396 . S
C129 C136 1.403 . S
C130 C120 1.476 . S
C130 N125 1.318 . S
C130 C129 1.396 . S
H131 C126 0.929 . S
O132 Mn108 2.385 . S
O132 C110 1.234 . S
O133 Mn108 2.209 . S
O133 Mn109 2.215 . S
O133 C110 1.283 . S
O134 Mn108 2.094 . S
O134 C112 1.240 . S
O135 Mn109 2.117 . S
O135 C112 1.264 . S
C136 C129 1.403 . S
C136 C137 1.399 . S
C136 H142 0.929 . S
C137 C117 1.449 . S
C137 C136 1.399 . S
C137 H143 0.930 . S
H138 C118 0.931 . S
H139 C119 0.930 . S
H140 C127 0.931 . S
H141 C128 0.929 . S
H142 C136 0.929 . S
H143 C137 0.930 . S
Mn144 O149 2.095 . S
Mn144 O159 2.162 . S
Mn144 O160 2.297 . S
Mn144 O168 2.385 . S
Mn144 O169 2.209 . S
Mn144 O170 2.094 . S
Mn145 O150 2.121 . S
Mn145 N152 2.257 . S
Mn145 N161 2.282 . S
Mn145 O169 2.215 . S
Mn145 O171 2.117 . S
C146 O168 1.234 . S
C146 O169 1.283 . S
C147 O159 1.281 . S
C147 O160 1.236 . S
C148 O170 1.240 . S
C148 O171 1.264 . S
O149 Mn144 2.095 . S
O149 C158 1.250 . S
O150 Mn145 2.121 . S
O150 C158 1.258 . S
C151 N152 1.326 . S
C151 C155 1.460 . S
C151 H157 0.929 . S
N152 Mn145 2.257 . S
N152 C151 1.326 . S
N152 C156 1.362 . S
C153 C154 1.258 . S
C153 C156 1.431 . S
C153 C173 1.449 1_455 S
C154 C153 1.258 . S
C154 C155 1.477 . S
C154 H174 0.931 . S
C155 C151 1.460 . S
C155 C154 1.477 . S
C155 H175 0.930 . S
C156 N152 1.362 . S
C156 C153 1.431 . S
C156 C166 1.476 . S
H157 C151 0.929 . S
C158 O149 1.250 . S
C158 O150 1.258 . S
O159 Mn144 2.162 . S
O159 C147 1.281 . S
O160 Mn144 2.297 . S
O160 C147 1.236 . S
N161 Mn145 2.282 . S
N161 C162 1.328 1_455 S
N161 C166 1.318 . S
C162 N161 1.328 1_655 S
C162 C163 1.457 . S
C162 H167 0.929 . S
C163 C162 1.457 . S
C163 C164 1.291 . S
C163 H176 0.931 . S
C164 C163 1.291 . S
C164 C165 1.373 . S
C164 H177 0.929 . S
C165 C164 1.373 . S
C165 C166 1.396 1_655 S
C165 C172 1.403 . S
C166 C156 1.476 . S
C166 N161 1.318 . S
C166 C165 1.396 1_455 S
H167 C162 0.929 . S
O168 Mn144 2.385 . S
O168 C146 1.234 . S
O169 Mn144 2.209 . S
O169 Mn145 2.215 . S
O169 C146 1.283 . S
O170 Mn144 2.094 . S
O170 C148 1.240 . S
O171 Mn145 2.117 . S
O171 C148 1.264 . S
C172 C165 1.403 . S
C172 C173 1.399 . S
C172 H178 0.929 . S
C173 C153 1.449 1_655 S
C173 C172 1.399 . S
C173 H179 0.930 . S
H174 C154 0.931 . S
H175 C155 0.930 . S
H176 C163 0.931 . S
H177 C164 0.929 . S
H178 C172 0.929 . S
H179 C173 0.930 . S
Mn180 O185 2.095 . S
Mn180 O195 2.162 . S
Mn180 O196 2.297 . S
Mn180 O204 2.385 . S
Mn180 O205 2.209 . S
Mn180 O206 2.094 . S
Mn181 O186 2.121 . S
Mn181 N188 2.257 . S
Mn181 N197 2.282 . S
Mn181 O205 2.215 . S
Mn181 O207 2.117 . S
C182 O204 1.234 . S
C182 O205 1.283 . S
C183 O195 1.281 . S
C183 O196 1.236 . S
C184 O206 1.240 . S
C184 O207 1.264 . S
O185 Mn180 2.095 . S
O185 C194 1.250 . S
O186 Mn181 2.121 . S
O186 C194 1.258 . S
C187 N188 1.326 . S
C187 C191 1.460 . S
C187 H193 0.929 . S
N188 Mn181 2.257 . S
N188 C187 1.326 . S
N188 C192 1.362 . S
C189 C190 1.258 . S
C189 C192 1.431 . S
C189 C209 1.449 . S
C190 C189 1.258 . S
C190 C191 1.477 . S
C190 H210 0.931 . S
C191 C187 1.460 . S
C191 C190 1.477 . S
C191 H211 0.930 . S
C192 N188 1.362 . S
C192 C189 1.431 . S
C192 C202 1.476 . S
H193 C187 0.929 . S
C194 O185 1.250 . S
C194 O186 1.258 . S
O195 Mn180 2.162 . S
O195 C183 1.281 . S
O196 Mn180 2.297 . S
O196 C183 1.236 . S
N197 Mn181 2.282 . S
N197 C198 1.328 . S
N197 C202 1.318 . S
C198 N197 1.328 . S
C198 C199 1.457 . S
C198 H203 0.929 . S
C199 C198 1.457 . S
C199 C200 1.291 . S
C199 H212 0.931 . S
C200 C199 1.291 . S
C200 C201 1.373 . S
C200 H213 0.929 . S
C201 C200 1.373 . S
C201 C202 1.396 . S
C201 C208 1.403 . S
C202 C192 1.476 . S
C202 N197 1.318 . S
C202 C201 1.396 . S
H203 C198 0.929 . S
O204 Mn180 2.385 . S
O204 C182 1.234 . S
O205 Mn180 2.209 . S
O205 Mn181 2.215 . S
O205 C182 1.283 . S
O206 Mn180 2.094 . S
O206 C184 1.240 . S
O207 Mn181 2.117 . S
O207 C184 1.264 . S
C208 C201 1.403 . S
C208 C209 1.399 . S
C208 H214 0.929 . S
C209 C189 1.449 . S
C209 C208 1.399 . S
C209 H215 0.930 . S
H210 C190 0.931 . S
H211 C191 0.930 . S
H212 C199 0.931 . S
H213 C200 0.929 . S
H214 C208 0.929 . S
H215 C209 0.930 . S
Mn216 O221 2.095 . S
Mn216 O231 2.162 . S
Mn216 O232 2.297 . S
Mn216 O240 2.385 . S
Mn216 O241 2.209 . S
Mn216 O242 2.094 . S
Mn217 O222 2.121 . S
Mn217 N224 2.257 . S
Mn217 N233 2.282 . S
Mn217 O241 2.215 . S
Mn217 O243 2.117 . S
C218 O240 1.234 . S
C218 O241 1.283 . S
C219 O231 1.281 . S
C219 O232 1.236 . S
C220 O242 1.240 . S
C220 O243 1.264 . S
O221 Mn216 2.095 . S
O221 C230 1.250 . S
O222 Mn217 2.121 . S
O222 C230 1.258 . S
C223 N224 1.326 . S
C223 C227 1.460 . S
C223 H229 0.929 . S
N224 Mn217 2.257 . S
N224 C223 1.326 . S
N224 C228 1.362 . S
C225 C226 1.258 . S
C225 C228 1.431 . S
C225 C245 1.449 . S
C226 C225 1.258 . S
C226 C227 1.477 . S
C226 H246 0.931 . S
C227 C223 1.460 . S
C227 C226 1.477 . S
C227 H247 0.930 . S
C228 N224 1.362 . S
C228 C225 1.431 . S
C228 C238 1.476 . S
H229 C223 0.929 . S
C230 O221 1.250 . S
C230 O222 1.258 . S
O231 Mn216 2.162 . S
O231 C219 1.281 . S
O232 Mn216 2.297 . S
O232 C219 1.236 . S
N233 Mn217 2.282 . S
N233 C234 1.328 . S
N233 C238 1.318 . S
C234 N233 1.328 . S
C234 C235 1.457 . S
C234 H239 0.929 . S
C235 C234 1.457 . S
C235 C236 1.291 . S
C235 H248 0.931 . S
C236 C235 1.291 . S
C236 C237 1.373 . S
C236 H249 0.929 . S
C237 C236 1.373 . S
C237 C238 1.396 . S
C237 C244 1.403 . S
C238 C228 1.476 . S
C238 N233 1.318 . S
C238 C237 1.396 . S
H239 C234 0.929 . S
O240 Mn216 2.385 . S
O240 C218 1.234 . S
O241 Mn216 2.209 . S
O241 Mn217 2.215 . S
O241 C218 1.283 . S
O242 Mn216 2.094 . S
O242 C220 1.240 . S
O243 Mn217 2.117 . S
O243 C220 1.264 . S
C244 C237 1.403 . S
C244 C245 1.399 . S
C244 H250 0.929 . S
C245 C225 1.449 . S
C245 C244 1.399 . S
C245 H251 0.930 . S
H246 C226 0.931 . S
H247 C227 0.930 . S
H248 C235 0.931 . S
H249 C236 0.929 . S
H250 C244 0.929 . S
H251 C245 0.930 . S
Mn252 O257 2.064 1_655 S
Mn252 O267 2.155 1_655 S
Mn252 O268 2.294 . S
Mn252 O276 2.419 . S
Mn252 O277 2.224 . S
Mn252 O278 2.098 1_655 S
Mn253 O258 2.121 1_655 S
Mn253 N260 2.257 . S
Mn253 N269 2.282 . S
Mn253 O277 2.215 . S
Mn253 O279 2.117 1_655 S
C254 O276 1.234 . S
C254 O277 1.283 . S
C255 O267 1.283 1_655 S
C255 O268 1.236 . S
C256 O278 1.240 . S
C256 O279 1.264 . S
O257 Mn252 2.064 1_455 S
O257 C266 1.250 . S
O258 Mn253 2.121 1_455 S
O258 C266 1.258 . S
C259 N260 1.326 . S
C259 C263 1.460 . S
C259 H265 0.929 1_655 S
N260 Mn253 2.257 . S
N260 C259 1.326 . S
N260 C264 1.362 . S
C261 C262 1.258 . S
C261 C264 1.431 . S
C261 C281 1.449 . S
C262 C261 1.258 . S
C262 C263 1.477 . S
C262 H282 0.931 . S
C263 C259 1.460 . S
C263 C262 1.477 . S
C263 H283 0.930 . S
C264 N260 1.362 . S
C264 C261 1.431 . S
C264 C274 1.476 . S
H265 C259 0.929 1_455 S
C266 O257 1.250 . S
C266 O258 1.258 . S
O267 Mn252 2.155 1_455 S
O267 C255 1.283 1_455 S
O268 Mn252 2.294 . S
O268 C255 1.236 . S
N269 Mn253 2.282 . S
N269 C270 1.328 . S
N269 C274 1.318 . S
C270 N269 1.328 . S
C270 C271 1.457 . S
C270 H275 0.929 . S
C271 C270 1.457 . S
C271 C272 1.291 . S
C271 H284 0.931 . S
C272 C271 1.291 . S
C272 C273 1.373 . S
C272 H285 0.929 . S
C273 C272 1.373 . S
C273 C274 1.396 . S
C273 C280 1.403 . S
C274 C264 1.476 . S
C274 N269 1.318 . S
C274 C273 1.396 . S
H275 C270 0.929 . S
O276 Mn252 2.419 . S
O276 C254 1.234 . S
O277 Mn252 2.224 . S
O277 Mn253 2.215 . S
O277 C254 1.283 . S
O278 Mn252 2.098 1_455 S
O278 C256 1.240 . S
O279 Mn253 2.117 1_455 S
O279 C256 1.264 . S
C280 C273 1.403 . S
C280 C281 1.399 . S
C280 H286 0.929 . S
C281 C261 1.449 . S
C281 C280 1.399 . S
C281 H287 0.930 . S
H282 C262 0.931 . S
H283 C263 0.930 . S
H284 C271 0.931 . S
H285 C272 0.929 . S
H286 C280 0.929 . S
H287 C281 0.930 . S
Mn288 O293 2.095 . S
Mn288 O303 2.162 . S
Mn288 O304 2.297 . S
Mn288 O312 2.385 1_545 S
Mn288 O313 2.209 1_545 S
Mn288 O314 2.094 . S
Mn289 O294 2.121 . S
Mn289 N296 2.257 1_545 S
Mn289 N305 2.282 1_545 S
Mn289 O313 2.215 1_545 S
Mn289 O315 2.117 . S
C290 O312 1.234 . S
C290 O313 1.283 . S
C291 O303 1.281 . S
C291 O304 1.236 . S
C292 O314 1.240 . S
C292 O315 1.264 . S
O293 Mn288 2.095 . S
O293 C302 1.250 . S
O294 Mn289 2.121 . S
O294 C302 1.258 . S
C295 N296 1.293 1_545 S
C295 C299 1.448 1_545 S
C295 H301 0.975 . S
N296 Mn289 2.257 1_565 S
N296 C295 1.293 1_565 S
N296 C300 1.362 . S
C297 C298 1.258 . S
C297 C300 1.431 . S
C297 C317 1.449 . S
C298 C297 1.258 . S
C298 C299 1.477 . S
C298 H318 0.931 . S
C299 C295 1.448 1_565 S
C299 C298 1.477 . S
C299 H319 0.930 . S
C300 N296 1.362 . S
C300 C297 1.431 . S
C300 C310 1.476 . S
H301 C295 0.975 . S
C302 O293 1.250 . S
C302 O294 1.258 . S
O303 Mn288 2.162 . S
O303 C291 1.281 . S
O304 Mn288 2.297 . S
O304 C291 1.236 . S
N305 Mn289 2.282 1_565 S
N305 C306 1.328 . S
N305 C310 1.318 . S
C306 N305 1.328 . S
C306 C307 1.457 . S
C306 H311 0.929 . S
C307 C306 1.457 . S
C307 C308 1.291 . S
C307 H320 0.931 . S
C308 C307 1.291 . S
C308 C309 1.373 . S
C308 H321 0.929 . S
C309 C308 1.373 . S
C309 C310 1.396 . S
C309 C316 1.403 . S
C310 C300 1.476 . S
C310 N305 1.318 . S
C310 C309 1.396 . S
H311 C306 0.929 . S
O312 Mn288 2.385 1_565 S
O312 C290 1.234 . S
O313 Mn288 2.209 1_565 S
O313 Mn289 2.215 1_565 S
O313 C290 1.283 . S
O314 Mn288 2.094 . S
O314 C292 1.240 . S
O315 Mn289 2.117 . S
O315 C292 1.264 . S
C316 C309 1.403 . S
C316 C317 1.399 . S
C316 H322 0.929 . S
C317 C297 1.449 . S
C317 C316 1.399 . S
C317 H323 0.930 . S
H318 C298 0.931 . S
H319 C299 0.930 . S
H320 C307 0.931 . S
H321 C308 0.929 . S
H322 C316 0.929 . S
H323 C317 0.930 . S
Mn324 O329 2.095 . S
Mn324 O339 2.162 . S
Mn324 O340 2.297 . S
Mn324 O348 2.385 . S
Mn324 O349 2.209 . S
Mn324 O350 2.094 . S
Mn325 O330 2.121 . S
Mn325 N332 2.257 . S
Mn325 N341 2.282 . S
Mn325 O349 2.215 . S
Mn325 O351 2.117 . S
C326 O348 1.234 . S
C326 O349 1.283 . S
C327 O339 1.281 . S
C327 O340 1.236 . S
C328 O350 1.240 . S
C328 O351 1.264 . S
O329 Mn324 2.095 . S
O329 C338 1.250 . S
O330 Mn325 2.121 . S
O330 C338 1.258 . S
C331 N332 1.326 . S
C331 C335 1.460 . S
C331 H337 0.929 . S
N332 Mn325 2.257 . S
N332 C331 1.326 . S
N332 C336 1.362 . S
C333 C334 1.258 . S
C333 C336 1.431 . S
C333 C353 1.449 . S
C334 C333 1.258 . S
C334 C335 1.477 . S
C334 H354 0.931 . S
C335 C331 1.460 . S
C335 C334 1.477 . S
C335 H355 0.930 . S
C336 N332 1.362 . S
C336 C333 1.431 . S
C336 C346 1.476 . S
H337 C331 0.929 . S
C338 O329 1.250 . S
C338 O330 1.258 . S
O339 Mn324 2.162 . S
O339 C327 1.281 . S
O340 Mn324 2.297 . S
O340 C327 1.236 . S
N341 Mn325 2.282 . S
N341 C342 1.328 . S
N341 C346 1.318 . S
C342 N341 1.328 . S
C342 C343 1.457 . S
C342 H347 0.929 . S
C343 C342 1.457 . S
C343 C344 1.291 . S
C343 H356 0.931 . S
C344 C343 1.291 . S
C344 C345 1.373 . S
C344 H357 0.929 . S
C345 C344 1.373 . S
C345 C346 1.396 . S
C345 C352 1.403 . S
C346 C336 1.476 . S
C346 N341 1.318 . S
C346 C345 1.396 . S
H347 C342 0.929 . S
O348 Mn324 2.385 . S
O348 C326 1.234 . S
O349 Mn324 2.209 . S
O349 Mn325 2.215 . S
O349 C326 1.283 . S
O350 Mn324 2.094 . S
O350 C328 1.240 . S
O351 Mn325 2.117 . S
O351 C328 1.264 . S
C352 C345 1.403 . S
C352 C353 1.399 . S
C352 H358 0.929 . S
C353 C333 1.449 . S
C353 C352 1.399 . S
C353 H359 0.930 . S
H354 C334 0.931 . S
H355 C335 0.930 . S
H356 C343 0.931 . S
H357 C344 0.929 . S
H358 C352 0.929 . S
H359 C353 0.930 . S
Mn360 O365 2.095 . S
Mn360 O375 2.162 . S
Mn360 O376 2.297 . S
Mn360 O384 2.385 . S
Mn360 O385 2.209 . S
Mn360 O386 2.094 . S
Mn361 O366 2.121 . S
Mn361 N368 2.257 . S
Mn361 N377 2.282 . S
Mn361 O385 2.215 . S
Mn361 O387 2.117 . S
C362 O384 1.234 . S
C362 O385 1.283 . S
C363 O375 1.281 . S
C363 O376 1.236 . S
C364 O386 1.240 . S
C364 O387 1.264 . S
O365 Mn360 2.095 . S
O365 C374 1.250 . S
O366 Mn361 2.121 . S
O366 C374 1.258 . S
C367 N368 1.326 . S
C367 C371 1.460 . S
C367 H373 0.929 . S
N368 Mn361 2.257 . S
N368 C367 1.326 . S
N368 C372 1.362 . S
C369 C370 1.258 . S
C369 C372 1.431 . S
C369 C389 1.449 . S
C370 C369 1.258 . S
C370 C371 1.477 . S
C370 H390 0.931 . S
C371 C367 1.460 . S
C371 C370 1.477 . S
C371 H391 0.930 . S
C372 N368 1.362 . S
C372 C369 1.431 . S
C372 C382 1.476 . S
H373 C367 0.929 . S
C374 O365 1.250 . S
C374 O366 1.258 . S
O375 Mn360 2.162 . S
O375 C363 1.281 . S
O376 Mn360 2.297 . S
O376 C363 1.236 . S
N377 Mn361 2.282 . S
N377 C378 1.328 . S
N377 C382 1.318 . S
C378 N377 1.328 . S
C378 C379 1.457 . S
C378 H383 0.929 . S
C379 C378 1.457 . S
C379 C380 1.291 . S
C379 H392 0.931 . S
C380 C379 1.291 . S
C380 C381 1.373 . S
C380 H393 0.929 . S
C381 C380 1.373 . S
C381 C382 1.396 . S
C381 C388 1.403 . S
C382 C372 1.476 . S
C382 N377 1.318 . S
C382 C381 1.396 . S
H383 C378 0.929 . S
O384 Mn360 2.385 . S
O384 C362 1.234 . S
O385 Mn360 2.209 . S
O385 Mn361 2.215 . S
O385 C362 1.283 . S
O386 Mn360 2.094 . S
O386 C364 1.240 . S
O387 Mn361 2.117 . S
O387 C364 1.264 . S
C388 C381 1.403 . S
C388 C389 1.399 . S
C388 H394 0.929 . S
C389 C369 1.449 . S
C389 C388 1.399 . S
C389 H395 0.930 . S
H390 C370 0.931 . S
H391 C371 0.930 . S
H392 C379 0.931 . S
H393 C380 0.929 . S
H394 C388 0.929 . S
H395 C389 0.930 . S
Mn396 O401 2.095 1_554 S
Mn396 O411 2.162 . S
Mn396 O412 2.297 . S
Mn396 O420 2.385 . S
Mn396 O421 2.203 1_554 S
Mn396 O422 2.094 1_554 S
Mn397 O402 2.121 . S
Mn397 N404 2.257 . S
Mn397 N413 2.282 . S
Mn397 O421 2.235 . S
Mn397 O423 2.117 . S
C398 O420 1.234 . S
C398 O421 1.280 1_554 S
C399 O411 1.281 . S
C399 O412 1.236 . S
C400 O422 1.240 . S
C400 O423 1.264 . S
O401 Mn396 2.095 1_556 S
O401 C410 1.250 . S
O402 Mn397 2.121 . S
O402 C410 1.258 . S
C403 N404 1.326 . S
C403 C407 1.460 1_565 S
C403 H409 0.929 . S
N404 Mn397 2.257 . S
N404 C403 1.326 . S
N404 C408 1.362 . S
C405 C406 1.229 1_565 S
C405 C408 1.465 . S
C405 C425 1.444 1_565 S
C406 C405 1.229 1_545 S
C406 C407 1.477 . S
C406 H426 0.931 . S
C407 C403 1.460 1_545 S
C407 C406 1.477 . S
C407 H427 0.930 . S
C408 N404 1.362 . S
C408 C405 1.465 . S
C408 C418 1.476 . S
H409 C403 0.929 . S
C410 O401 1.250 . S
C410 O402 1.258 . S
O411 Mn396 2.162 . S
O411 C399 1.281 . S
O412 Mn396 2.297 . S
O412 C399 1.236 . S
N413 Mn397 2.282 . S
N413 C414 1.328 . S
N413 C418 1.318 . S
C414 N413 1.328 . S
C414 C415 1.457 . S
C414 H419 0.929 . S
C415 C414 1.457 . S
C415 C416 1.291 . S
C415 H428 0.931 . S
C416 C415 1.291 . S
C416 C417 1.373 . S
C416 H429 0.929 . S
C417 C416 1.373 . S
C417 C418 1.396 . S
C417 C424 1.403 . S
C418 C408 1.476 . S
C418 N413 1.318 . S
C418 C417 1.396 . S
H419 C414 0.929 . S
O420 Mn396 2.385 . S
O420 C398 1.234 . S
O421 Mn396 2.203 1_556 S
O421 Mn397 2.235 . S
O421 C398 1.280 1_556 S
O422 Mn396 2.094 1_556 S
O422 C400 1.240 . S
O423 Mn397 2.117 . S
O423 C400 1.264 . S
C424 C417 1.403 . S
C424 C425 1.399 1_565 S
C424 H430 0.929 . S
C425 C405 1.444 1_545 S
C425 C424 1.399 1_545 S
C425 H431 0.930 . S
H426 C406 0.931 . S
H427 C407 0.930 . S
H428 C415 0.931 . S
H429 C416 0.929 . S
H430 C424 0.929 . S
H431 C425 0.930 . S
Mn432 O437 2.095 . S
Mn432 O447 2.162 . S
Mn432 O448 2.297 . S
Mn432 O456 2.385 . S
Mn432 O457 2.209 . S
Mn432 O458 2.094 . S
Mn433 O438 2.121 . S
Mn433 N440 2.257 . S
Mn433 N449 2.282 1_554 S
Mn433 O457 2.215 . S
Mn433 O459 2.117 1_554 S
C434 O456 1.234 . S
C434 O457 1.283 . S
C435 O447 1.281 . S
C435 O448 1.236 . S
C436 O458 1.240 1_556 S
C436 O459 1.264 . S
O437 Mn432 2.095 . S
O437 C446 1.250 . S
O438 Mn433 2.121 . S
O438 C446 1.258 . S
C439 N440 1.326 . S
C439 C443 1.460 . S
C439 H445 0.929 . S
N440 Mn433 2.257 . S
N440 C439 1.326 . S
N440 C444 1.362 . S
C441 C442 1.258 . S
C441 C444 1.431 . S
C441 C461 1.449 . S
C442 C441 1.258 . S
C442 C443 1.477 . S
C442 H462 0.931 . S
C443 C439 1.460 . S
C443 C442 1.477 . S
C443 H463 0.930 . S
C444 N440 1.362 . S
C444 C441 1.431 . S
C444 C454 1.476 1_554 S
H445 C439 0.929 . S
C446 O437 1.250 . S
C446 O438 1.258 . S
O447 Mn432 2.162 . S
O447 C435 1.281 . S
O448 Mn432 2.297 . S
O448 C435 1.236 . S
N449 Mn433 2.282 1_556 S
N449 C450 1.328 . S
N449 C454 1.318 . S
C450 N449 1.328 . S
C450 C451 1.457 . S
C450 H455 0.929 . S
C451 C450 1.457 . S
C451 C452 1.291 . S
C451 H464 0.931 . S
C452 C451 1.291 . S
C452 C453 1.373 . S
C452 H465 0.929 . S
C453 C452 1.373 . S
C453 C454 1.396 . S
C453 C460 1.403 . S
C454 C444 1.476 1_556 S
C454 N449 1.318 . S
C454 C453 1.396 . S
H455 C450 0.929 . S
O456 Mn432 2.385 . S
O456 C434 1.234 . S
O457 Mn432 2.209 . S
O457 Mn433 2.215 . S
O457 C434 1.283 . S
O458 Mn432 2.094 . S
O458 C436 1.240 1_554 S
O459 Mn433 2.117 1_556 S
O459 C436 1.264 . S
C460 C453 1.403 . S
C460 C461 1.399 1_556 S
C460 H466 0.929 . S
C461 C441 1.449 . S
C461 C460 1.399 1_554 S
C461 H467 0.930 . S
H462 C442 0.931 . S
H463 C443 0.930 . S
H464 C451 0.931 . S
H465 C452 0.929 . S
H466 C460 0.929 . S
H467 C461 0.930 . S
Mn468 O473 2.095 . S
Mn468 O483 2.162 . S
Mn468 O484 2.297 . S
Mn468 O492 2.385 . S
Mn468 O493 2.209 . S
Mn468 O494 2.094 . S
Mn469 O474 2.121 . S
Mn469 N476 2.257 . S
Mn469 N485 2.282 1_554 S
Mn469 O493 2.215 . S
Mn469 O495 2.117 . S
C470 O492 1.234 . S
C470 O493 1.283 . S
C471 O483 1.281 . S
C471 O484 1.236 . S
C472 O494 1.240 . S
C472 O495 1.264 . S
O473 Mn468 2.095 . S
O473 C482 1.250 . S
O474 Mn469 2.121 . S
O474 C482 1.258 . S
C475 N476 1.326 . S
C475 C479 1.460 . S
C475 H481 0.929 . S
N476 Mn469 2.257 . S
N476 C475 1.326 . S
N476 C480 1.362 . S
C477 C478 1.258 . S
C477 C480 1.431 . S
C477 C497 1.449 1_554 S
C478 C477 1.258 . S
C478 C479 1.477 . S
C478 H498 0.931 . S
C479 C475 1.460 . S
C479 C478 1.477 . S
C479 H499 0.930 . S
C480 N476 1.362 . S
C480 C477 1.431 . S
C480 C490 1.476 1_554 S
H481 C475 0.929 . S
C482 O473 1.250 . S
C482 O474 1.258 . S
O483 Mn468 2.162 . S
O483 C471 1.281 . S
O484 Mn468 2.297 . S
O484 C471 1.236 . S
N485 Mn469 2.282 1_556 S
N485 C486 1.328 . S
N485 C490 1.318 . S
C486 N485 1.328 . S
C486 C487 1.457 . S
C486 H491 0.929 . S
C487 C486 1.457 . S
C487 C488 1.291 . S
C487 H500 0.931 . S
C488 C487 1.291 . S
C488 C489 1.373 . S
C488 H501 0.929 . S
C489 C488 1.373 . S
C489 C490 1.396 . S
C489 C496 1.403 . S
C490 C480 1.476 1_556 S
C490 N485 1.318 . S
C490 C489 1.396 . S
H491 C486 0.929 . S
O492 Mn468 2.385 . S
O492 C470 1.234 . S
O493 Mn468 2.209 . S
O493 Mn469 2.215 . S
O493 C470 1.283 . S
O494 Mn468 2.094 . S
O494 C472 1.240 . S
O495 Mn469 2.117 . S
O495 C472 1.264 . S
C496 C489 1.403 . S
C496 C497 1.399 . S
C496 H502 0.929 . S
C497 C477 1.449 1_556 S
C497 C496 1.399 . S
C497 H503 0.930 . S
H498 C478 0.931 . S
H499 C479 0.930 . S
H500 C487 0.931 . S
H501 C488 0.929 . S
H502 C496 0.929 . S
H503 C497 0.930 . S
Mn504 O509 2.095 . S
Mn504 O519 2.162 . S
Mn504 O520 2.297 . S
Mn504 O528 2.385 . S
Mn504 O529 2.209 . S
Mn504 O530 2.094 . S
Mn505 O510 2.121 . S
Mn505 N512 2.257 . S
Mn505 N521 2.282 . S
Mn505 O529 2.215 . S
Mn505 O531 2.117 . S
C506 O528 1.234 . S
C506 O529 1.283 . S
C507 O519 1.281 . S
C507 O520 1.236 . S
C508 O530 1.240 . S
C508 O531 1.264 . S
O509 Mn504 2.095 . S
O509 C518 1.250 . S
O510 Mn505 2.121 . S
O510 C518 1.258 . S
C511 N512 1.326 . S
C511 C515 1.460 . S
C511 H517 0.929 . S
N512 Mn505 2.257 . S
N512 C511 1.326 . S
N512 C516 1.362 . S
C513 C514 1.258 . S
C513 C516 1.431 . S
C513 C533 1.449 . S
C514 C513 1.258 . S
C514 C515 1.477 . S
C514 H534 0.931 . S
C515 C511 1.460 . S
C515 C514 1.477 . S
C515 H535 0.930 . S
C516 N512 1.362 . S
C516 C513 1.431 . S
C516 C526 1.476 . S
H517 C511 0.929 . S
C518 O509 1.250 . S
C518 O510 1.258 . S
O519 Mn504 2.162 . S
O519 C507 1.281 . S
O520 Mn504 2.297 . S
O520 C507 1.236 . S
N521 Mn505 2.282 . S
N521 C522 1.328 . S
N521 C526 1.318 . S
C522 N521 1.328 . S
C522 C523 1.457 . S
C522 H527 0.929 . S
C523 C522 1.457 . S
C523 C524 1.291 . S
C523 H536 0.931 . S
C524 C523 1.291 . S
C524 C525 1.373 . S
C524 H537 0.929 . S
C525 C524 1.373 . S
C525 C526 1.396 . S
C525 C532 1.403 . S
C526 C516 1.476 . S
C526 N521 1.318 . S
C526 C525 1.396 . S
H527 C522 0.929 . S
O528 Mn504 2.385 . S
O528 C506 1.234 . S
O529 Mn504 2.209 . S
O529 Mn505 2.215 . S
O529 C506 1.283 . S
O530 Mn504 2.094 . S
O530 C508 1.240 . S
O531 Mn505 2.117 . S
O531 C508 1.264 . S
C532 C525 1.403 . S
C532 C533 1.399 . S
C532 H538 0.929 . S
C533 C513 1.449 . S
C533 C532 1.399 . S
C533 H539 0.930 . S
H534 C514 0.931 . S
H535 C515 0.930 . S
H536 C523 0.931 . S
H537 C524 0.929 . S
H538 C532 0.929 . S
H539 C533 0.930 . S
Mn540 O545 2.095 . S
Mn540 O555 2.162 . S
Mn540 O556 2.297 . S
Mn540 O564 2.385 . S
Mn540 O565 2.209 . S
Mn540 O566 2.094 . S
Mn541 O546 2.121 . S
Mn541 N548 2.257 . S
Mn541 N557 2.282 . S
Mn541 O565 2.215 . S
Mn541 O567 2.117 . S
C542 O564 1.234 . S
C542 O565 1.283 . S
C543 O555 1.281 . S
C543 O556 1.236 . S
C544 O566 1.240 . S
C544 O567 1.264 . S
O545 Mn540 2.095 . S
O545 C554 1.250 . S
O546 Mn541 2.121 . S
O546 C554 1.258 . S
C547 N548 1.326 . S
C547 C551 1.460 . S
C547 H553 0.929 . S
N548 Mn541 2.257 . S
N548 C547 1.326 . S
N548 C552 1.362 . S
C549 C550 1.258 . S
C549 C552 1.431 . S
C549 C569 1.449 . S
C550 C549 1.258 . S
C550 C551 1.477 . S
C550 H570 0.931 . S
C551 C547 1.460 . S
C551 C550 1.477 . S
C551 H571 0.930 . S
C552 N548 1.362 . S
C552 C549 1.431 . S
C552 C562 1.476 . S
H553 C547 0.929 . S
C554 O545 1.250 . S
C554 O546 1.258 . S
O555 Mn540 2.162 . S
O555 C543 1.281 . S
O556 Mn540 2.297 . S
O556 C543 1.236 . S
N557 Mn541 2.282 . S
N557 C558 1.328 . S
N557 C562 1.318 . S
C558 N557 1.328 . S
C558 C559 1.457 . S
C558 H563 0.929 . S
C559 C558 1.457 . S
C559 C560 1.291 . S
C559 H572 0.931 . S
C560 C559 1.291 . S
C560 C561 1.373 . S
C560 H573 0.929 . S
C561 C560 1.373 . S
C561 C562 1.396 . S
C561 C568 1.403 . S
C562 C552 1.476 . S
C562 N557 1.318 . S
C562 C561 1.396 . S
H563 C558 0.929 . S
O564 Mn540 2.385 . S
O564 C542 1.234 . S
O565 Mn540 2.209 . S
O565 Mn541 2.215 . S
O565 C542 1.283 . S
O566 Mn540 2.094 . S
O566 C544 1.240 . S
O567 Mn541 2.117 . S
O567 C544 1.264 . S
C568 C561 1.403 . S
C568 C569 1.399 . S
C568 H574 0.929 . S
C569 C549 1.449 . S
C569 C568 1.399 . S
C569 H575 0.930 . S
H570 C550 0.931 . S
H571 C551 0.930 . S
H572 C559 0.931 . S
H573 C560 0.929 . S
H574 C568 0.929 . S
H575 C569 0.930 . S
Mn576 O581 2.095 . S
Mn576 O591 2.162 . S
Mn576 O592 2.297 . S
Mn576 O600 2.385 1_545 S
Mn576 O601 2.209 1_545 S
Mn576 O602 2.094 . S
Mn577 O582 2.121 . S
Mn577 N584 2.257 1_545 S
Mn577 N593 2.282 1_545 S
Mn577 O601 2.215 1_545 S
Mn577 O603 2.117 . S
C578 O600 1.234 . S
C578 O601 1.283 . S
C579 O591 1.281 . S
C579 O592 1.236 . S
C580 O602 1.240 . S
C580 O603 1.264 . S
O581 Mn576 2.095 . S
O581 C590 1.250 . S
O582 Mn577 2.121 . S
O582 C590 1.258 . S
C583 N584 1.326 1_545 S
C583 C587 1.460 1_545 S
C583 H589 0.929 . S
N584 Mn577 2.257 1_565 S
N584 C583 1.326 1_565 S
N584 C588 1.362 . S
C585 C586 1.258 . S
C585 C588 1.431 . S
C585 C605 1.449 . S
C586 C585 1.258 . S
C586 C587 1.477 . S
C586 H606 0.931 . S
C587 C583 1.460 1_565 S
C587 C586 1.477 . S
C587 H607 0.930 1_565 S
C588 N584 1.362 . S
C588 C585 1.431 . S
C588 C598 1.476 . S
H589 C583 0.929 . S
C590 O581 1.250 . S
C590 O582 1.258 . S
O591 Mn576 2.162 . S
O591 C579 1.281 . S
O592 Mn576 2.297 . S
O592 C579 1.236 . S
N593 Mn577 2.282 1_565 S
N593 C594 1.328 . S
N593 C598 1.318 . S
C594 N593 1.328 . S
C594 C595 1.457 . S
C594 H599 0.929 . S
C595 C594 1.457 . S
C595 C596 1.291 . S
C595 H608 0.931 . S
C596 C595 1.291 . S
C596 C597 1.373 . S
C596 H609 0.929 . S
C597 C596 1.373 . S
C597 C598 1.396 . S
C597 C604 1.403 . S
C598 C588 1.476 . S
C598 N593 1.318 . S
C598 C597 1.396 . S
H599 C594 0.929 . S
O600 Mn576 2.385 1_565 S
O600 C578 1.234 . S
O601 Mn576 2.209 1_565 S
O601 Mn577 2.215 1_565 S
O601 C578 1.283 . S
O602 Mn576 2.094 . S
O602 C580 1.240 . S
O603 Mn577 2.117 . S
O603 C580 1.264 . S
C604 C597 1.403 . S
C604 C605 1.399 . S
C604 H610 0.929 . S
C605 C585 1.449 . S
C605 C604 1.399 . S
C605 H611 0.930 . S
H606 C586 0.931 . S
H607 C587 0.930 1_545 S
H608 C595 0.931 . S
H609 C596 0.929 . S
H610 C604 0.929 . S
H611 C605 0.930 . S
Mn612 O617 2.095 . S
Mn612 O627 2.162 . S
Mn612 O628 2.297 . S
Mn612 O636 2.385 . S
Mn612 O637 2.209 . S
Mn612 O638 2.094 . S
Mn613 O618 2.121 . S
Mn613 N620 2.257 . S
Mn613 N629 2.282 . S
Mn613 O637 2.215 . S
Mn613 O639 2.117 . S
C614 O636 1.234 . S
C614 O637 1.283 . S
C615 O627 1.281 . S
C615 O628 1.236 . S
C616 O638 1.240 . S
C616 O639 1.264 . S
O617 Mn612 2.095 . S
O617 C626 1.250 . S
O618 Mn613 2.121 . S
O618 C626 1.258 . S
C619 N620 1.326 . S
C619 C623 1.460 . S
C619 H625 0.929 . S
N620 Mn613 2.257 . S
N620 C619 1.326 . S
N620 C624 1.362 . S
C621 C622 1.258 . S
C621 C624 1.431 . S
C621 C641 1.449 . S
C622 C621 1.258 . S
C622 C623 1.477 . S
C622 H642 0.931 . S
C623 C619 1.460 . S
C623 C622 1.477 . S
C623 H643 0.930 . S
C624 N620 1.362 . S
C624 C621 1.431 . S
C624 C634 1.476 . S
H625 C619 0.929 . S
C626 O617 1.250 . S
C626 O618 1.258 . S
O627 Mn612 2.162 . S
O627 C615 1.281 . S
O628 Mn612 2.297 . S
O628 C615 1.236 . S
N629 Mn613 2.282 . S
N629 C630 1.328 . S
N629 C634 1.318 . S
C630 N629 1.328 . S
C630 C631 1.457 . S
C630 H635 0.929 . S
C631 C630 1.457 . S
C631 C632 1.291 . S
C631 H644 0.931 . S
C632 C631 1.291 . S
C632 C633 1.373 . S
C632 H645 0.929 . S
C633 C632 1.373 . S
C633 C634 1.396 . S
C633 C640 1.403 . S
C634 C624 1.476 . S
C634 N629 1.318 . S
C634 C633 1.396 . S
H635 C630 0.929 . S
O636 Mn612 2.385 . S
O636 C614 1.234 . S
O637 Mn612 2.209 . S
O637 Mn613 2.215 . S
O637 C614 1.283 . S
O638 Mn612 2.094 . S
O638 C616 1.240 . S
O639 Mn613 2.117 . S
O639 C616 1.264 . S
C640 C633 1.403 . S
C640 C641 1.399 . S
C640 H646 0.929 . S
C641 C621 1.449 . S
C641 C640 1.399 . S
C641 H647 0.930 . S
H642 C622 0.931 . S
H643 C623 0.930 . S
H644 C631 0.931 . S
H645 C632 0.929 . S
H646 C640 0.929 . S
H647 C641 0.930 . S
Mn648 O653 2.095 . S
Mn648 O663 2.162 . S
Mn648 O664 2.297 . S
Mn648 O672 2.385 . S
Mn648 O673 2.209 . S
Mn648 O674 2.094 . S
Mn649 O654 2.121 . S
Mn649 N656 2.257 . S
Mn649 N665 2.282 . S
Mn649 O673 2.215 . S
Mn649 O675 2.117 . S
C650 O672 1.234 . S
C650 O673 1.283 . S
C651 O663 1.281 . S
C651 O664 1.236 . S
C652 O674 1.240 . S
C652 O675 1.264 . S
O653 Mn648 2.095 . S
O653 C662 1.250 . S
O654 Mn649 2.121 . S
O654 C662 1.258 . S
C655 N656 1.326 . S
C655 C659 1.460 . S
C655 H661 0.929 . S
N656 Mn649 2.257 . S
N656 C655 1.326 . S
N656 C660 1.362 . S
C657 C658 1.258 . S
C657 C660 1.431 . S
C657 C677 1.449 . S
C658 C657 1.258 . S
C658 C659 1.477 . S
C658 H678 0.931 . S
C659 C655 1.460 . S
C659 C658 1.477 . S
C659 H679 0.930 . S
C660 N656 1.362 . S
C660 C657 1.431 . S
C660 C670 1.476 . S
H661 C655 0.929 . S
C662 O653 1.250 . S
C662 O654 1.258 . S
O663 Mn648 2.162 . S
O663 C651 1.281 . S
O664 Mn648 2.297 . S
O664 C651 1.236 . S
N665 Mn649 2.282 . S
N665 C666 1.328 . S
N665 C670 1.318 . S
C666 N665 1.328 . S
C666 C667 1.457 . S
C666 H671 0.929 . S
C667 C666 1.457 . S
C667 C668 1.291 . S
C667 H680 0.931 . S
C668 C667 1.291 . S
C668 C669 1.373 . S
C668 H681 0.929 . S
C669 C668 1.373 . S
C669 C670 1.396 . S
C669 C676 1.403 . S
C670 C660 1.476 . S
C670 N665 1.318 . S
C670 C669 1.396 . S
H671 C666 0.929 . S
O672 Mn648 2.385 . S
O672 C650 1.234 . S
O673 Mn648 2.209 . S
O673 Mn649 2.215 . S
O673 C650 1.283 . S
O674 Mn648 2.094 . S
O674 C652 1.240 . S
O675 Mn649 2.117 . S
O675 C652 1.264 . S
C676 C669 1.403 . S
C676 C677 1.399 . S
C676 H682 0.929 . S
C677 C657 1.449 . S
C677 C676 1.399 . S
C677 H683 0.930 . S
H678 C658 0.931 . S
H679 C659 0.930 . S
H680 C667 0.931 . S
H681 C668 0.929 . S
H682 C676 0.929 . S
H683 C677 0.930 . S
Mn684 O689 2.095 . S
Mn684 O699 2.162 . S
Mn684 O700 2.297 . S
Mn684 O708 2.385 . S
Mn684 O709 2.209 . S
Mn684 O710 2.094 . S
Mn685 O690 2.121 . S
Mn685 N692 2.257 . S
Mn685 N701 2.282 . S
Mn685 O709 2.215 . S
Mn685 O711 2.117 . S
C686 O708 1.234 . S
C686 O709 1.283 . S
C687 O699 1.281 . S
C687 O700 1.236 . S
C688 O710 1.240 . S
C688 O711 1.264 . S
O689 Mn684 2.095 . S
O689 C698 1.250 . S
O690 Mn685 2.121 . S
O690 C698 1.258 . S
C691 N692 1.326 . S
C691 C695 1.460 . S
C691 H697 0.929 . S
N692 Mn685 2.257 . S
N692 C691 1.326 . S
N692 C696 1.362 . S
C693 C694 1.258 . S
C693 C696 1.431 . S
C693 C713 1.449 . S
C694 C693 1.258 . S
C694 C695 1.477 . S
C694 H714 0.931 . S
C695 C691 1.460 . S
C695 C694 1.477 . S
C695 H715 0.930 . S
C696 N692 1.362 . S
C696 C693 1.431 . S
C696 C706 1.476 . S
H697 C691 0.929 . S
C698 O689 1.250 . S
C698 O690 1.258 . S
O699 Mn684 2.162 . S
O699 C687 1.281 . S
O700 Mn684 2.297 . S
O700 C687 1.236 . S
N701 Mn685 2.282 . S
N701 C702 1.328 . S
N701 C706 1.318 . S
C702 N701 1.328 . S
C702 C703 1.457 . S
C702 H707 0.929 . S
C703 C702 1.457 . S
C703 C704 1.291 . S
C703 H716 0.931 . S
C704 C703 1.291 . S
C704 C705 1.373 . S
C704 H717 0.929 . S
C705 C704 1.373 . S
C705 C706 1.396 . S
C705 C712 1.403 . S
C706 C696 1.476 . S
C706 N701 1.318 . S
C706 C705 1.396 . S
H707 C702 0.929 . S
O708 Mn684 2.385 . S
O708 C686 1.234 . S
O709 Mn684 2.209 . S
O709 Mn685 2.215 . S
O709 C686 1.283 . S
O710 Mn684 2.094 . S
O710 C688 1.240 . S
O711 Mn685 2.117 . S
O711 C688 1.264 . S
C712 C705 1.403 . S
C712 C713 1.399 . S
C712 H718 0.929 . S
C713 C693 1.449 . S
C713 C712 1.399 . S
C713 H719 0.930 . S
H714 C694 0.931 . S
H715 C695 0.930 . S
H716 C703 0.931 . S
H717 C704 0.929 . S
H718 C712 0.929 . S
H719 C713 0.930 . S
Mn720 O725 2.095 . S
Mn720 O735 2.162 . S
Mn720 O736 2.297 . S
Mn720 O744 2.385 . S
Mn720 O745 2.209 . S
Mn720 O746 2.094 1_554 S
Mn721 O726 2.121 . S
Mn721 N728 2.257 . S
Mn721 N737 2.282 . S
Mn721 O745 2.215 1_556 S
Mn721 O747 2.117 . S
C722 O744 1.234 . S
C722 O745 1.283 . S
C723 O735 1.281 . S
C723 O736 1.236 . S
C724 O746 1.240 . S
C724 O747 1.264 . S
O725 Mn720 2.095 . S
O725 C734 1.250 . S
O726 Mn721 2.121 . S
O726 C734 1.258 1_556 S
C727 N728 1.326 . S
C727 C731 1.460 . S
C727 H733 0.929 . S
N728 Mn721 2.257 . S
N728 C727 1.326 . S
N728 C732 1.362 . S
C729 C730 1.258 . S
C729 C732 1.431 . S
C729 C749 1.449 . S
C730 C729 1.258 . S
C730 C731 1.477 . S
C730 H750 0.931 . S
C731 C727 1.460 . S
C731 C730 1.477 . S
C731 H751 0.930 . S
C732 N728 1.362 . S
C732 C729 1.431 . S
C732 C742 1.476 . S
H733 C727 0.929 . S
C734 O725 1.250 . S
C734 O726 1.258 1_554 S
O735 Mn720 2.162 . S
O735 C723 1.281 . S
O736 Mn720 2.297 . S
O736 C723 1.236 . S
N737 Mn721 2.282 . S
N737 C738 1.328 . S
N737 C742 1.318 . S
C738 N737 1.328 . S
C738 C739 1.457 . S
C738 H743 0.929 . S
C739 C738 1.457 . S
C739 C740 1.291 . S
C739 H752 0.931 . S
C740 C739 1.291 . S
C740 C741 1.373 . S
C740 H753 0.929 . S
C741 C740 1.373 . S
C741 C742 1.396 . S
C741 C748 1.403 . S
C742 C732 1.476 . S
C742 N737 1.318 . S
C742 C741 1.396 . S
H743 C738 0.929 . S
O744 Mn720 2.385 . S
O744 C722 1.234 . S
O745 Mn720 2.209 . S
O745 Mn721 2.215 1_554 S
O745 C722 1.283 . S
O746 Mn720 2.094 1_556 S
O746 C724 1.240 . S
O747 Mn721 2.117 . S
O747 C724 1.264 . S
C748 C741 1.403 . S
C748 C749 1.399 . S
C748 H754 0.929 . S
C749 C729 1.449 . S
C749 C748 1.399 . S
C749 H755 0.930 . S
H750 C730 0.931 . S
H751 C731 0.930 . S
H752 C739 0.931 . S
H753 C740 0.929 . S
H754 C748 0.929 . S
H755 C749 0.930 . S
Mn756 O761 2.095 . S
Mn756 O771 2.162 . S
Mn756 O772 2.297 . S
Mn756 O780 2.385 . S
Mn756 O781 2.209 . S
Mn756 O782 2.094 . S
Mn757 O762 2.121 . S
Mn757 N764 2.257 . S
Mn757 N773 2.282 . S
Mn757 O781 2.215 . S
Mn757 O783 2.117 . S
C758 O780 1.234 . S
C758 O781 1.283 . S
C759 O771 1.281 . S
C759 O772 1.236 . S
C760 O782 1.240 . S
C760 O783 1.264 . S
O761 Mn756 2.095 . S
O761 C770 1.250 . S
O762 Mn757 2.121 . S
O762 C770 1.258 . S
C763 N764 1.326 . S
C763 C767 1.460 . S
C763 H769 0.929 . S
N764 Mn757 2.257 . S
N764 C763 1.326 . S
N764 C768 1.362 . S
C765 C766 1.258 . S
C765 C768 1.431 . S
C765 C785 1.449 . S
C766 C765 1.258 . S
C766 C767 1.477 . S
C766 H786 0.931 . S
C767 C763 1.460 . S
C767 C766 1.477 . S
C767 H787 0.930 . S
C768 N764 1.362 . S
C768 C765 1.431 . S
C768 C778 1.476 . S
H769 C763 0.929 . S
C770 O761 1.250 . S
C770 O762 1.258 . S
O771 Mn756 2.162 . S
O771 C759 1.281 . S
O772 Mn756 2.297 . S
O772 C759 1.236 . S
N773 Mn757 2.282 . S
N773 C774 1.328 . S
N773 C778 1.318 . S
C774 N773 1.328 . S
C774 C775 1.457 . S
C774 H779 0.929 . S
C775 C774 1.457 . S
C775 C776 1.291 . S
C775 H788 0.931 . S
C776 C775 1.291 . S
C776 C777 1.373 . S
C776 H789 0.929 . S
C777 C776 1.373 . S
C777 C778 1.396 . S
C777 C784 1.403 . S
C778 C768 1.476 . S
C778 N773 1.318 . S
C778 C777 1.396 . S
H779 C774 0.929 . S
O780 Mn756 2.385 . S
O780 C758 1.234 . S
O781 Mn756 2.209 . S
O781 Mn757 2.215 . S
O781 C758 1.283 . S
O782 Mn756 2.094 . S
O782 C760 1.240 . S
O783 Mn757 2.117 . S
O783 C760 1.264 . S
C784 C777 1.403 . S
C784 C785 1.399 . S
C784 H790 0.929 . S
C785 C765 1.449 . S
C785 C784 1.399 . S
C785 H791 0.930 . S
H786 C766 0.931 . S
H787 C767 0.930 . S
H788 C775 0.931 . S
H789 C776 0.929 . S
H790 C784 0.929 . S
H791 C785 0.930 . S
Mn792 O797 2.095 . S
Mn792 O807 2.162 . S
Mn792 O808 2.297 . S
Mn792 O816 2.385 . S
Mn792 O817 2.209 . S
Mn792 O818 2.094 . S
Mn793 O798 2.121 . S
Mn793 N800 2.257 . S
Mn793 N809 2.282 . S
Mn793 O817 2.215 . S
Mn793 O819 2.117 . S
C794 O816 1.234 . S
C794 O817 1.283 . S
C795 O807 1.281 . S
C795 O808 1.236 . S
C796 O818 1.240 . S
C796 O819 1.264 . S
O797 Mn792 2.095 . S
O797 C806 1.250 . S
O798 Mn793 2.121 . S
O798 C806 1.258 . S
C799 N800 1.326 . S
C799 C803 1.460 . S
C799 H805 0.929 . S
N800 Mn793 2.257 . S
N800 C799 1.326 . S
N800 C804 1.362 . S
C801 C802 1.258 . S
C801 C804 1.431 . S
C801 C821 1.449 . S
C802 C801 1.258 . S
C802 C803 1.477 . S
C802 H822 0.931 . S
C803 C799 1.460 . S
C803 C802 1.477 . S
C803 H823 0.930 . S
C804 N800 1.362 . S
C804 C801 1.431 . S
C804 C814 1.476 . S
H805 C799 0.929 . S
C806 O797 1.250 . S
C806 O798 1.258 . S
O807 Mn792 2.162 . S
O807 C795 1.281 . S
O808 Mn792 2.297 . S
O808 C795 1.236 . S
N809 Mn793 2.282 . S
N809 C810 1.328 . S
N809 C814 1.318 . S
C810 N809 1.328 . S
C810 C811 1.457 . S
C810 H815 0.929 . S
C811 C810 1.457 . S
C811 C812 1.291 . S
C811 H824 0.931 . S
C812 C811 1.291 . S
C812 C813 1.373 . S
C812 H825 0.929 . S
C813 C812 1.373 . S
C813 C814 1.396 . S
C813 C820 1.403 . S
C814 C804 1.476 . S
C814 N809 1.318 . S
C814 C813 1.396 . S
H815 C810 0.929 . S
O816 Mn792 2.385 . S
O816 C794 1.234 . S
O817 Mn792 2.209 . S
O817 Mn793 2.215 . S
O817 C794 1.283 . S
O818 Mn792 2.094 . S
O818 C796 1.240 . S
O819 Mn793 2.117 . S
O819 C796 1.264 . S
C820 C813 1.403 . S
C820 C821 1.399 . S
C820 H826 0.929 . S
C821 C801 1.449 . S
C821 C820 1.399 . S
C821 H827 0.930 . S
H822 C802 0.931 . S
H823 C803 0.930 . S
H824 C811 0.931 . S
H825 C812 0.929 . S
H826 C820 0.929 . S
H827 C821 0.930 . S
Mn828 O833 2.095 . S
Mn828 O843 2.162 . S
Mn828 O844 2.297 . S
Mn828 O852 2.385 . S
Mn828 O853 2.209 . S
Mn828 O854 2.094 . S
Mn829 O834 2.121 . S
Mn829 N836 2.257 . S
Mn829 N845 2.282 . S
Mn829 O853 2.215 . S
Mn829 O855 2.117 . S
C830 O852 1.234 . S
C830 O853 1.283 . S
C831 O843 1.281 . S
C831 O844 1.236 . S
C832 O854 1.240 . S
C832 O855 1.264 . S
O833 Mn828 2.095 . S
O833 C842 1.250 . S
O834 Mn829 2.121 . S
O834 C842 1.258 . S
C835 N836 1.326 . S
C835 C839 1.460 . S
C835 H841 0.929 . S
N836 Mn829 2.257 . S
N836 C835 1.326 . S
N836 C840 1.362 . S
C837 C838 1.258 . S
C837 C840 1.431 . S
C837 C857 1.449 . S
C838 C837 1.258 . S
C838 C839 1.477 . S
C838 H858 0.931 . S
C839 C835 1.460 . S
C839 C838 1.477 . S
C839 H859 0.930 . S
C840 N836 1.362 . S
C840 C837 1.431 . S
C840 C850 1.476 . S
H841 C835 0.929 . S
C842 O833 1.250 . S
C842 O834 1.258 . S
O843 Mn828 2.162 . S
O843 C831 1.281 . S
O844 Mn828 2.297 . S
O844 C831 1.236 . S
N845 Mn829 2.282 . S
N845 C846 1.328 . S
N845 C850 1.318 . S
C846 N845 1.328 . S
C846 C847 1.457 . S
C846 H851 0.929 . S
C847 C846 1.457 . S
C847 C848 1.291 . S
C847 H860 0.931 . S
C848 C847 1.291 . S
C848 C849 1.373 . S
C848 H861 0.929 . S
C849 C848 1.373 . S
C849 C850 1.396 . S
C849 C856 1.403 . S
C850 C840 1.476 . S
C850 N845 1.318 . S
C850 C849 1.396 . S
H851 C846 0.929 . S
O852 Mn828 2.385 . S
O852 C830 1.234 . S
O853 Mn828 2.209 . S
O853 Mn829 2.215 . S
O853 C830 1.283 . S
O854 Mn828 2.094 . S
O854 C832 1.240 . S
O855 Mn829 2.117 . S
O855 C832 1.264 . S
C856 C849 1.403 . S
C856 C857 1.399 . S
C856 H862 0.929 . S
C857 C837 1.449 . S
C857 C856 1.399 . S
C857 H863 0.930 . S
H858 C838 0.931 . S
H859 C839 0.930 . S
H860 C847 0.931 . S
H861 C848 0.929 . S
H862 C856 0.929 . S
H863 C857 0.930 . S
C864 C866 1.422 1_556 S
C864 C868 1.415 . S
C864 N870 1.369 . S
C865 C866 1.421 . S
C865 C867 1.417 1_554 S
C865 C877 1.422 . S
C866 C864 1.422 1_554 S
C866 C865 1.421 . S
C866 N876 1.359 . S
C867 C865 1.417 1_556 S
C867 C869 1.329 . S
C867 H886 0.930 . S
C868 C864 1.415 . S
C868 C869 1.437 . S
C868 C872 1.413 . S
C869 C867 1.329 . S
C869 C868 1.437 . S
C869 H891 0.929 . S
N870 C864 1.369 . S
N870 C871 1.338 . S
N870 Gd875 2.622 1_566 S
C871 N870 1.338 . S
C871 C873 1.378 . S
C871 H883 0.929 . S
C872 C868 1.413 . S
C872 C873 1.348 . S
C872 H888 0.931 . S
C873 C871 1.378 . S
C873 C872 1.348 . S
C873 H889 0.930 . S
Gd874 N894 2.622 . S
Gd874 N901 2.570 . S
Gd874 O908 2.353 1_545 S
Gd874 O909 2.468 . S
Gd874 O910 2.427 . S
Gd874 O912 2.388 . S
Gd874 O913 2.386 . S
Gd874 O917 2.351 . S
Gd874 C927 2.805 . S
Gd875 N870 2.622 1_544 S
Gd875 N876 2.570 1_545 S
Gd875 O907 2.386 1_645 S
Gd875 O911 2.307 1_655 S
Gd875 O914 2.353 1_655 S
Gd875 O915 2.468 . S
Gd875 O916 2.427 1_554 S
Gd875 O918 2.388 1_654 S
Gd875 C939 2.803 1_554 S
N876 C866 1.359 . S
N876 Gd875 2.570 1_565 S
N876 C878 1.343 . S
C877 C865 1.422 . S
C877 C879 1.321 . S
C877 H885 0.931 . S
C878 N876 1.343 . S
C878 C879 1.390 . S
C878 H880 0.931 . S
C879 C877 1.321 . S
C879 C878 1.390 . S
C879 H881 0.930 . S
H880 C878 0.931 . S
H881 C879 0.930 . S
H882 C905 0.931 1_556 S
H883 C871 0.929 . S
H884 C906 0.930 . S
H885 C877 0.931 . S
H886 C867 0.930 . S
H887 C896 0.929 . S
H888 C872 0.931 . S
H889 C873 0.930 . S
H890 C928 0.930 . S
H891 C869 0.929 . S
H892 C897 0.931 . S
H893 C898 0.930 . S
N894 Gd874 2.622 . S
N894 C895 1.369 . S
N894 C896 1.338 . S
C895 N894 1.369 . S
C895 C899 1.415 . S
C895 C902 1.422 . S
C896 H887 0.929 . S
C896 N894 1.338 . S
C896 C898 1.378 . S
C897 H892 0.931 . S
C897 C898 1.348 . S
C897 C899 1.413 . S
C898 H893 0.930 . S
C898 C896 1.378 . S
C898 C897 1.348 . S
C899 C895 1.415 . S
C899 C897 1.413 . S
C899 C929 1.437 . S
H900 C929 0.929 . S
N901 Gd874 2.570 . S
N901 C902 1.359 . S
N901 C905 1.343 . S
C902 C895 1.422 . S
C902 N901 1.359 . S
C902 C904 1.421 . S
C903 C904 1.422 . S
C903 C906 1.321 1_554 S
C903 H930 0.931 . S
C904 C902 1.421 . S
C904 C903 1.422 . S
C904 C928 1.417 . S
C905 H882 0.931 1_554 S
C905 N901 1.343 . S
C905 C906 1.390 1_554 S
C906 H884 0.930 . S
C906 C903 1.321 1_556 S
C906 C905 1.390 1_556 S
O907 Gd875 2.386 1_465 S
O907 C919 1.265 . S
O908 Gd874 2.353 1_565 S
O908 C919 1.242 . S
O909 Gd874 2.468 . S
O909 C927 1.263 . S
O910 Gd874 2.427 . S
O910 C927 1.252 . S
O911 Gd875 2.307 1_455 S
O911 C920 1.261 . S
O912 Gd874 2.388 . S
O912 C920 1.252 . S
O913 Gd874 2.386 . S
O913 C931 1.265 . S
O914 Gd875 2.353 1_455 S
O914 C931 1.242 . S
O915 Gd875 2.468 . S
O915 C939 1.245 1_554 S
O916 Gd875 2.427 1_556 S
O916 C939 1.269 . S
O917 Gd874 2.351 . S
O917 C932 1.223 1_554 S
O918 Gd875 2.388 1_456 S
O918 C932 1.252 . S
C919 O907 1.265 . S
C919 O908 1.242 . S
C920 O911 1.261 . S
C920 O912 1.252 . S
C921 C924 1.394 . S
C921 C926 1.390 . S
C921 C927 1.500 . S
C922 C925 1.383 . S
C922 C926 1.369 1_565 S
C923 C924 1.396 . S
C923 C925 1.365 1_545 S
C923 H940 0.929 . S
C924 C921 1.394 . S
C924 C923 1.396 . S
C924 H941 0.930 . S
C925 C922 1.383 . S
C925 C923 1.365 1_565 S
C925 H942 0.931 . S
C926 C921 1.390 . S
C926 C922 1.369 1_545 S
C926 H943 0.935 . S
C927 Gd874 2.805 . S
C927 O909 1.263 . S
C927 O910 1.252 . S
C927 C921 1.500 . S
C928 H890 0.930 . S
C928 C904 1.417 . S
C928 C929 1.329 . S
C929 C899 1.437 . S
C929 H900 0.929 . S
C929 C928 1.329 . S
H930 C903 0.931 . S
C931 O913 1.265 . S
C931 O914 1.242 . S
C932 O917 1.223 1_556 S
C932 O918 1.252 . S
C933 C936 1.394 . S
C933 C938 1.370 1_556 S
C933 C939 1.502 . S
C934 C937 1.383 1_554 S
C934 C938 1.395 . S
C935 C936 1.396 . S
C935 C937 1.365 . S
C935 H944 0.929 . S
C936 C933 1.394 . S
C936 C935 1.396 . S
C936 H945 0.930 . S
C937 C934 1.383 1_556 S
C937 C935 1.365 . S
C937 H946 0.931 . S
C938 C933 1.370 1_554 S
C938 C934 1.395 . S
C938 H947 0.930 . S
C939 Gd875 2.803 1_556 S
C939 O915 1.245 1_556 S
C939 O916 1.269 . S
C939 C933 1.502 . S
H940 C923 0.929 . S
H941 C924 0.930 . S
H942 C925 0.931 . S
H943 C926 0.935 . S
H944 C935 0.929 . S
H945 C936 0.930 . S
H946 C937 0.931 . S
H947 C938 0.930 . S
C948 C950 1.422 . S
C948 C952 1.415 . S
C948 N954 1.369 . S
C949 C950 1.421 . S
C949 C951 1.417 . S
C949 C961 1.422 . S
C950 C948 1.422 . S
C950 C949 1.421 . S
C950 N960 1.359 . S
C951 C949 1.417 . S
C951 C953 1.329 . S
C951 H970 0.930 . S
C952 C948 1.415 . S
C952 C953 1.437 . S
C952 C956 1.413 . S
C953 C951 1.329 . S
C953 C952 1.437 . S
C953 H975 0.929 . S
N954 C948 1.369 . S
N954 C955 1.338 . S
N954 Gd959 2.622 . S
C955 N954 1.338 . S
C955 C957 1.378 . S
C955 H967 0.929 . S
C956 C952 1.413 . S
C956 C957 1.348 . S
C956 H972 0.931 . S
C957 C955 1.378 . S
C957 C956 1.348 . S
C957 H973 0.930 . S
Gd958 N978 2.622 . S
Gd958 N985 2.570 . S
Gd958 O992 2.353 . S
Gd958 O993 2.468 . S
Gd958 O994 2.427 . S
Gd958 O996 2.388 . S
Gd958 O997 2.386 . S
Gd958 O1001 2.307 . S
Gd958 C1011 2.805 . S
Gd959 N954 2.622 . S
Gd959 N960 2.570 . S
Gd959 O991 2.386 . S
Gd959 O995 2.307 . S
Gd959 O998 2.353 . S
Gd959 O999 2.468 . S
Gd959 O1000 2.427 . S
Gd959 O1002 2.388 . S
Gd959 C1023 2.805 . S
N960 C950 1.359 . S
N960 Gd959 2.570 . S
N960 C962 1.343 . S
C961 C949 1.422 . S
C961 C963 1.321 . S
C961 H969 0.931 . S
C962 N960 1.343 . S
C962 C963 1.390 . S
C962 H964 0.931 . S
C963 C961 1.321 . S
C963 C962 1.390 . S
C963 H965 0.930 . S
H964 C962 0.931 . S
H965 C963 0.930 . S
H966 C989 0.931 . S
H967 C955 0.929 . S
H968 C990 0.930 . S
H969 C961 0.931 . S
H970 C951 0.930 . S
H971 C980 0.929 . S
H972 C956 0.931 . S
H973 C957 0.930 . S
H974 C1012 0.930 . S
H975 C953 0.929 . S
H976 C981 0.931 . S
H977 C982 0.930 . S
N978 Gd958 2.622 . S
N978 C979 1.369 . S
N978 C980 1.338 . S
C979 N978 1.369 . S
C979 C983 1.415 . S
C979 C986 1.422 . S
C980 H971 0.929 . S
C980 N978 1.338 . S
C980 C982 1.378 . S
C981 H976 0.931 . S
C981 C982 1.348 . S
C981 C983 1.413 . S
C982 H977 0.930 . S
C982 C980 1.378 . S
C982 C981 1.348 . S
C983 C979 1.415 . S
C983 C981 1.413 . S
C983 C1013 1.437 . S
H984 C1013 0.929 . S
N985 Gd958 2.570 . S
N985 C986 1.359 . S
N985 C989 1.343 . S
C986 C979 1.422 . S
C986 N985 1.359 . S
C986 C988 1.421 . S
C987 C988 1.422 . S
C987 C990 1.321 . S
C987 H1014 0.931 . S
C988 C986 1.421 . S
C988 C987 1.422 . S
C988 C1012 1.417 . S
C989 H966 0.931 . S
C989 N985 1.343 . S
C989 C990 1.390 . S
C990 H968 0.930 . S
C990 C987 1.321 . S
C990 C989 1.390 . S
O991 Gd959 2.386 . S
O991 C1003 1.265 . S
O992 Gd958 2.353 . S
O992 C1003 1.242 . S
O993 Gd958 2.468 . S
O993 C1011 1.263 . S
O994 Gd958 2.427 . S
O994 C1011 1.252 . S
O995 Gd959 2.307 . S
O995 C1004 1.261 . S
O996 Gd958 2.388 . S
O996 C1004 1.252 . S
O997 Gd958 2.386 . S
O997 C1015 1.265 . S
O998 Gd959 2.353 . S
O998 C1015 1.242 . S
O999 Gd959 2.468 . S
O999 C1023 1.263 . S
O1000 Gd959 2.427 . S
O1000 C1023 1.252 . S
O1001 Gd958 2.307 . S
O1001 C1016 1.261 . S
O1002 Gd959 2.388 . S
O1002 C1016 1.252 . S
C1003 O991 1.265 . S
C1003 O992 1.242 . S
C1004 O995 1.261 . S
C1004 O996 1.252 . S
C1005 C1008 1.394 . S
C1005 C1010 1.370 . S
C1005 C1011 1.500 . S
C1006 C1009 1.383 . S
C1006 C1010 1.395 . S
C1007 C1008 1.396 . S
C1007 C1009 1.365 . S
C1007 H1024 0.929 . S
C1008 C1005 1.394 . S
C1008 C1007 1.396 . S
C1008 H1025 0.930 . S
C1009 C1006 1.383 . S
C1009 C1007 1.365 . S
C1009 H1026 0.931 . S
C1010 C1005 1.370 . S
C1010 C1006 1.395 . S
C1010 H1027 0.930 . S
C1011 Gd958 2.805 . S
C1011 O993 1.263 . S
C1011 O994 1.252 . S
C1011 C1005 1.500 . S
C1012 H974 0.930 . S
C1012 C988 1.417 . S
C1012 C1013 1.329 . S
C1013 C983 1.437 . S
C1013 H984 0.929 . S
C1013 C1012 1.329 . S
H1014 C987 0.931 . S
C1015 O997 1.265 . S
C1015 O998 1.242 . S
C1016 O1001 1.261 . S
C1016 O1002 1.252 . S
C1017 C1020 1.394 . S
C1017 C1022 1.370 . S
C1017 C1023 1.500 . S
C1018 C1021 1.383 . S
C1018 C1022 1.395 . S
C1019 C1020 1.396 . S
C1019 C1021 1.365 . S
C1019 H1028 0.929 . S
C1020 C1017 1.394 . S
C1020 C1019 1.396 . S
C1020 H1029 0.930 . S
C1021 C1018 1.383 . S
C1021 C1019 1.365 . S
C1021 H1030 0.931 . S
C1022 C1017 1.370 . S
C1022 C1018 1.395 . S
C1022 H1031 0.930 . S
C1023 Gd959 2.805 . S
C1023 O999 1.263 . S
C1023 O1000 1.252 . S
C1023 C1017 1.500 . S
H1024 C1007 0.929 . S
H1025 C1008 0.930 . S
H1026 C1009 0.931 . S
H1027 C1010 0.930 . S
H1028 C1019 0.929 . S
H1029 C1020 0.930 . S
H1030 C1021 0.931 . S
H1031 C1022 0.930 . S
C1032 C1034 1.422 . S
C1032 C1036 1.415 . S
C1032 N1038 1.369 . S
C1033 C1034 1.421 . S
C1033 C1035 1.417 . S
C1033 C1045 1.422 . S
C1034 C1032 1.422 . S
C1034 C1033 1.421 . S
C1034 N1044 1.359 . S
C1035 C1033 1.417 . S
C1035 C1037 1.329 . S
C1035 H1054 0.930 . S
C1036 C1032 1.415 . S
C1036 C1037 1.437 . S
C1036 C1040 1.413 . S
C1037 C1035 1.329 . S
C1037 C1036 1.437 . S
C1037 H1059 0.929 . S
N1038 C1032 1.369 . S
N1038 C1039 1.338 . S
N1038 Gd1043 2.622 . S
C1039 N1038 1.338 . S
C1039 C1041 1.378 . S
C1039 H1051 0.929 . S
C1040 C1036 1.413 . S
C1040 C1041 1.348 . S
C1040 H1056 0.931 . S
C1041 C1039 1.378 . S
C1041 C1040 1.348 . S
C1041 H1057 0.930 . S
Gd1042 N1062 2.622 . S
Gd1042 N1069 2.570 1_545 S
Gd1042 O1076 2.353 . S
Gd1042 O1077 2.468 . S
Gd1042 O1078 2.427 . S
Gd1042 O1080 2.388 . S
Gd1042 O1081 2.386 1_545 S
Gd1042 O1085 2.307 . S
Gd1042 C1095 2.805 . S
Gd1043 N1038 2.622 . S
Gd1043 N1044 2.570 . S
Gd1043 O1075 2.386 . S
Gd1043 O1079 2.307 . S
Gd1043 O1082 2.353 . S
Gd1043 O1083 2.468 . S
Gd1043 O1084 2.427 . S
Gd1043 O1086 2.388 . S
Gd1043 C1107 2.805 . S
N1044 C1034 1.359 . S
N1044 Gd1043 2.570 . S
N1044 C1046 1.343 . S
C1045 C1033 1.422 . S
C1045 C1047 1.321 . S
C1045 H1053 0.931 . S
C1046 N1044 1.343 . S
C1046 C1047 1.390 . S
C1046 H1048 0.931 . S
C1047 C1045 1.321 . S
C1047 C1046 1.390 . S
C1047 H1049 0.930 . S
H1048 C1046 0.931 . S
H1049 C1047 0.930 . S
H1050 C1073 0.931 1_545 S
H1051 C1039 0.929 . S
H1052 C1074 0.930 . S
H1053 C1045 0.931 . S
H1054 C1035 0.930 . S
H1055 C1064 0.929 . S
H1056 C1040 0.931 . S
H1057 C1041 0.930 . S
H1058 C1096 0.930 . S
H1059 C1037 0.929 . S
H1060 C1065 0.931 . S
H1061 C1066 0.930 . S
N1062 Gd1042 2.622 . S
N1062 C1063 1.369 1_545 S
N1062 C1064 1.338 . S
C1063 N1062 1.369 1_565 S
C1063 C1067 1.415 . S
C1063 C1070 1.422 . S
C1064 H1055 0.929 . S
C1064 N1062 1.338 . S
C1064 C1066 1.378 1_545 S
C1065 H1060 0.931 . S
C1065 C1066 1.348 . S
C1065 C1067 1.413 . S
C1066 H1061 0.930 . S
C1066 C1064 1.378 1_565 S
C1066 C1065 1.348 . S
C1067 C1063 1.415 . S
C1067 C1065 1.413 . S
C1067 C1097 1.437 . S
H1068 C1097 0.929 . S
N1069 Gd1042 2.570 1_565 S
N1069 C1070 1.359 . S
N1069 C1073 1.343 . S
C1070 C1063 1.422 . S
C1070 N1069 1.359 . S
C1070 C1072 1.421 . S
C1071 C1072 1.422 . S
C1071 C1074 1.321 . S
C1071 H1098 0.931 . S
C1072 C1070 1.421 . S
C1072 C1071 1.422 . S
C1072 C1096 1.417 . S
C1073 H1050 0.931 1_565 S
C1073 N1069 1.343 . S
C1073 C1074 1.390 . S
C1074 H1052 0.930 . S
C1074 C1071 1.321 . S
C1074 C1073 1.390 . S
O1075 Gd1043 2.386 . S
O1075 C1087 1.265 . S
O1076 Gd1042 2.353 . S
O1076 C1087 1.242 . S
O1077 Gd1042 2.468 . S
O1077 C1095 1.263 . S
O1078 Gd1042 2.427 . S
O1078 C1095 1.252 . S
O1079 Gd1043 2.307 . S
O1079 C1088 1.261 . S
O1080 Gd1042 2.388 . S
O1080 C1088 1.252 . S
O1081 Gd1042 2.386 1_565 S
O1081 C1099 1.265 . S
O1082 Gd1043 2.353 . S
O1082 C1099 1.242 1_545 S
O1083 Gd1043 2.468 . S
O1083 C1107 1.263 . S
O1084 Gd1043 2.427 . S
O1084 C1107 1.252 . S
O1085 Gd1042 2.307 . S
O1085 C1100 1.261 . S
O1086 Gd1043 2.388 . S
O1086 C1100 1.252 . S
C1087 O1075 1.265 . S
C1087 O1076 1.242 . S
C1088 O1079 1.261 . S
C1088 O1080 1.252 . S
C1089 C1092 1.394 . S
C1089 C1094 1.370 . S
C1089 C1095 1.500 . S
C1090 C1093 1.383 . S
C1090 C1094 1.395 . S
C1091 C1092 1.396 . S
C1091 C1093 1.365 . S
C1091 H1108 0.929 . S
C1092 C1089 1.394 . S
C1092 C1091 1.396 . S
C1092 H1109 0.930 . S
C1093 C1090 1.383 . S
C1093 C1091 1.365 . S
C1093 H1110 0.931 . S
C1094 C1089 1.370 . S
C1094 C1090 1.395 . S
C1094 H1111 0.930 . S
C1095 Gd1042 2.805 . S
C1095 O1077 1.263 . S
C1095 O1078 1.252 . S
C1095 C1089 1.500 . S
C1096 H1058 0.930 . S
C1096 C1072 1.417 . S
C1096 C1097 1.329 . S
C1097 C1067 1.437 . S
C1097 H1068 0.929 . S
C1097 C1096 1.329 . S
H1098 C1071 0.931 . S
C1099 O1081 1.265 . S
C1099 O1082 1.242 1_565 S
C1100 O1085 1.261 . S
C1100 O1086 1.252 . S
C1101 C1104 1.394 1_545 S
C1101 C1106 1.370 1_545 S
C1101 C1107 1.500 . S
C1102 C1105 1.383 . S
C1102 C1106 1.395 . S
C1103 C1104 1.396 . S
C1103 C1105 1.365 . S
C1103 H1112 0.929 . S
C1104 C1101 1.394 1_565 S
C1104 C1103 1.396 . S
C1104 H1113 0.930 1_565 S
C1105 C1102 1.383 . S
C1105 C1103 1.365 . S
C1105 H1114 0.931 . S
C1106 C1101 1.370 1_565 S
C1106 C1102 1.395 . S
C1106 H1115 0.935 . S
C1107 Gd1043 2.805 . S
C1107 O1083 1.263 . S
C1107 O1084 1.252 . S
C1107 C1101 1.500 . S
H1108 C1091 0.929 . S
H1109 C1092 0.930 . S
H1110 C1093 0.931 . S
H1111 C1094 0.930 . S
H1112 C1103 0.929 . S
H1113 C1104 0.930 1_545 S
H1114 C1105 0.931 . S
H1115 C1106 0.935 . S
C1116 C1118 1.422 . S
C1116 C1120 1.415 . S
C1116 N1122 1.369 . S
C1117 C1118 1.421 . S
C1117 C1119 1.417 . S
C1117 C1129 1.422 . S
C1118 C1116 1.422 . S
C1118 C1117 1.421 . S
C1118 N1128 1.359 . S
C1119 C1117 1.417 . S
C1119 C1121 1.329 . S
C1119 H1138 0.930 . S
C1120 C1116 1.415 . S
C1120 C1121 1.437 . S
C1120 C1124 1.413 . S
C1121 C1119 1.329 . S
C1121 C1120 1.437 . S
C1121 H1143 0.929 . S
N1122 C1116 1.369 . S
N1122 C1123 1.338 . S
N1122 Gd1127 2.622 . S
C1123 N1122 1.338 . S
C1123 C1125 1.378 . S
C1123 H1135 0.929 . S
C1124 C1120 1.413 . S
C1124 C1125 1.348 . S
C1124 H1140 0.931 . S
C1125 C1123 1.378 . S
C1125 C1124 1.348 . S
C1125 H1141 0.930 . S
Gd1126 N1146 2.622 . S
Gd1126 N1153 2.570 . S
Gd1126 O1160 2.353 . S
Gd1126 O1161 2.468 . S
Gd1126 O1162 2.427 . S
Gd1126 O1164 2.388 . S
Gd1126 O1165 2.386 . S
Gd1126 O1169 2.307 . S
Gd1126 C1179 2.805 . S
Gd1127 N1122 2.622 . S
Gd1127 N1128 2.570 . S
Gd1127 O1159 2.386 . S
Gd1127 O1163 2.307 . S
Gd1127 O1166 2.353 . S
Gd1127 O1167 2.468 . S
Gd1127 O1168 2.427 . S
Gd1127 O1170 2.388 . S
Gd1127 C1191 2.805 . S
N1128 C1118 1.359 . S
N1128 Gd1127 2.570 . S
N1128 C1130 1.343 . S
C1129 C1117 1.422 . S
C1129 C1131 1.321 . S
C1129 H1137 0.931 . S
C1130 N1128 1.343 . S
C1130 C1131 1.390 . S
C1130 H1132 0.931 . S
C1131 C1129 1.321 . S
C1131 C1130 1.390 . S
C1131 H1133 0.930 . S
H1132 C1130 0.931 . S
H1133 C1131 0.930 . S
H1134 C1157 0.931 . S
H1135 C1123 0.929 . S
H1136 C1158 0.930 . S
H1137 C1129 0.931 . S
H1138 C1119 0.930 . S
H1139 C1148 0.929 . S
H1140 C1124 0.931 . S
H1141 C1125 0.930 . S
H1142 C1180 0.930 . S
H1143 C1121 0.929 . S
H1144 C1149 0.931 . S
H1145 C1150 0.930 . S
N1146 Gd1126 2.622 . S
N1146 C1147 1.369 . S
N1146 C1148 1.338 . S
C1147 N1146 1.369 . S
C1147 C1151 1.415 . S
C1147 C1154 1.422 . S
C1148 H1139 0.929 . S
C1148 N1146 1.338 . S
C1148 C1150 1.378 . S
C1149 H1144 0.931 . S
C1149 C1150 1.348 . S
C1149 C1151 1.413 . S
C1150 H1145 0.930 . S
C1150 C1148 1.378 . S
C1150 C1149 1.348 . S
C1151 C1147 1.415 . S
C1151 C1149 1.413 . S
C1151 C1181 1.437 . S
H1152 C1181 0.929 . S
N1153 Gd1126 2.570 . S
N1153 C1154 1.359 . S
N1153 C1157 1.343 . S
C1154 C1147 1.422 . S
C1154 N1153 1.359 . S
C1154 C1156 1.421 . S
C1155 C1156 1.422 . S
C1155 C1158 1.321 . S
C1155 H1182 0.931 . S
C1156 C1154 1.421 . S
C1156 C1155 1.422 . S
C1156 C1180 1.417 . S
C1157 H1134 0.931 . S
C1157 N1153 1.343 . S
C1157 C1158 1.390 . S
C1158 H1136 0.930 . S
C1158 C1155 1.321 . S
C1158 C1157 1.390 . S
O1159 Gd1127 2.386 . S
O1159 C1171 1.265 . S
O1160 Gd1126 2.353 . S
O1160 C1171 1.242 . S
O1161 Gd1126 2.468 . S
O1161 C1179 1.263 . S
O1162 Gd1126 2.427 . S
O1162 C1179 1.252 . S
O1163 Gd1127 2.307 . S
O1163 C1172 1.261 . S
O1164 Gd1126 2.388 . S
O1164 C1172 1.252 . S
O1165 Gd1126 2.386 . S
O1165 C1183 1.265 . S
O1166 Gd1127 2.353 . S
O1166 C1183 1.242 . S
O1167 Gd1127 2.468 . S
O1167 C1191 1.263 . S
O1168 Gd1127 2.427 . S
O1168 C1191 1.252 . S
O1169 Gd1126 2.307 . S
O1169 C1184 1.261 . S
O1170 Gd1127 2.388 . S
O1170 C1184 1.252 . S
C1171 O1159 1.265 . S
C1171 O1160 1.242 . S
C1172 O1163 1.261 . S
C1172 O1164 1.252 . S
C1173 C1176 1.394 . S
C1173 C1178 1.370 . S
C1173 C1179 1.500 . S
C1174 C1177 1.383 . S
C1174 C1178 1.395 . S
C1175 C1176 1.396 . S
C1175 C1177 1.365 . S
C1175 H1192 0.929 . S
C1176 C1173 1.394 . S
C1176 C1175 1.396 . S
C1176 H1193 0.930 . S
C1177 C1174 1.383 . S
C1177 C1175 1.365 . S
C1177 H1194 0.931 . S
C1178 C1173 1.370 . S
C1178 C1174 1.395 . S
C1178 H1195 0.930 . S
C1179 Gd1126 2.805 . S
C1179 O1161 1.263 . S
C1179 O1162 1.252 . S
C1179 C1173 1.500 . S
C1180 H1142 0.930 . S
C1180 C1156 1.417 . S
C1180 C1181 1.329 . S
C1181 C1151 1.437 . S
C1181 H1152 0.929 . S
C1181 C1180 1.329 . S
H1182 C1155 0.931 . S
C1183 O1165 1.265 . S
C1183 O1166 1.242 . S
C1184 O1169 1.261 . S
C1184 O1170 1.252 . S
C1185 C1188 1.394 . S
C1185 C1190 1.370 . S
C1185 C1191 1.500 . S
C1186 C1189 1.383 . S
C1186 C1190 1.395 . S
C1187 C1188 1.396 . S
C1187 C1189 1.365 . S
C1187 H1196 0.929 . S
C1188 C1185 1.394 . S
C1188 C1187 1.396 . S
C1188 H1197 0.930 . S
C1189 C1186 1.383 . S
C1189 C1187 1.365 . S
C1189 H1198 0.931 . S
C1190 C1185 1.370 . S
C1190 C1186 1.395 . S
C1190 H1199 0.930 . S
C1191 Gd1127 2.805 . S
C1191 O1167 1.263 . S
C1191 O1168 1.252 . S
C1191 C1185 1.500 . S
H1192 C1175 0.929 . S
H1193 C1176 0.930 . S
H1194 C1177 0.931 . S
H1195 C1178 0.930 . S
H1196 C1187 0.929 . S
H1197 C1188 0.930 . S
H1198 C1189 0.931 . S
H1199 C1190 0.930 . S
C1200 C1202 1.422 . S
C1200 C1204 1.415 1_455 S
C1200 N1206 1.369 1_455 S
C1201 C1202 1.421 . S
C1201 C1203 1.417 . S
C1201 C1213 1.422 . S
C1202 C1200 1.422 . S
C1202 C1201 1.421 . S
C1202 N1212 1.359 . S
C1203 C1201 1.417 . S
C1203 C1205 1.385 . S
C1203 H1222 0.930 . S
C1204 C1200 1.415 1_655 S
C1204 C1205 1.421 1_655 S
C1204 C1208 1.413 . S
C1205 C1203 1.385 . S
C1205 C1204 1.421 1_455 S
C1205 H1227 0.892 1_455 S
N1206 C1200 1.369 1_655 S
N1206 C1207 1.338 . S
N1206 Gd1211 2.622 1_655 S
C1207 N1206 1.338 . S
C1207 C1209 1.378 . S
C1207 H1219 0.929 . S
C1208 C1204 1.413 . S
C1208 C1209 1.348 . S
C1208 H1224 0.931 . S
C1209 C1207 1.378 . S
C1209 C1208 1.348 . S
C1209 H1225 0.930 . S
Gd1210 N1230 2.638 . S
Gd1210 N1237 2.599 . S
Gd1210 O1244 2.339 1_565 S
Gd1210 O1245 2.505 . S
Gd1210 O1246 2.462 . S
Gd1210 O1248 2.359 1_565 S
Gd1210 O1249 2.361 1_565 S
Gd1210 O1253 2.294 1_565 S
Gd1210 C1263 2.845 . S
Gd1211 N1206 2.622 1_455 S
Gd1211 N1212 2.570 . S
Gd1211 O1243 2.386 . S
Gd1211 O1247 2.307 . S
Gd1211 O1250 2.353 . S
Gd1211 O1251 2.468 . S
Gd1211 O1252 2.427 1_455 S
Gd1211 O1254 2.388 1_455 S
Gd1211 C1275 2.805 . S
N1212 C1202 1.359 . S
N1212 Gd1211 2.570 . S
N1212 C1214 1.343 . S
C1213 C1201 1.422 . S
C1213 C1215 1.321 . S
C1213 H1221 0.931 . S
C1214 N1212 1.343 . S
C1214 C1215 1.390 . S
C1214 H1216 0.931 . S
C1215 C1213 1.321 . S
C1215 C1214 1.390 . S
C1215 H1217 0.930 . S
H1216 C1214 0.931 . S
H1217 C1215 0.930 . S
H1218 C1241 0.931 . S
H1219 C1207 0.929 . S
H1220 C1242 0.930 . S
H1221 C1213 0.931 . S
H1222 C1203 0.930 . S
H1223 C1232 0.929 1_545 S
H1224 C1208 0.931 . S
H1225 C1209 0.930 . S
H1226 C1264 0.930 . S
H1227 C1205 0.892 1_655 S
H1228 C1233 0.931 . S
H1229 C1234 0.930 . S
N1230 Gd1210 2.638 . S
N1230 C1231 1.369 . S
N1230 C1232 1.338 . S
C1231 N1230 1.369 . S
C1231 C1235 1.415 . S
C1231 C1238 1.422 . S
C1232 H1223 0.929 1_565 S
C1232 N1230 1.338 . S
C1232 C1234 1.378 . S
C1233 H1228 0.931 . S
C1233 C1234 1.348 . S
C1233 C1235 1.413 . S
C1234 H1229 0.930 . S
C1234 C1232 1.378 . S
C1234 C1233 1.348 . S
C1235 C1231 1.415 . S
C1235 C1233 1.413 . S
C1235 C1265 1.437 . S
H1236 C1265 0.929 . S
N1237 Gd1210 2.599 . S
N1237 C1238 1.359 . S
N1237 C1241 1.343 1_455 S
C1238 C1231 1.422 . S
C1238 N1237 1.359 . S
C1238 C1240 1.421 . S
C1239 C1240 1.422 1_655 S
C1239 C1242 1.321 . S
C1239 H1266 0.931 . S
C1240 C1238 1.421 . S
C1240 C1239 1.422 1_455 S
C1240 C1264 1.417 . S
C1241 H1218 0.931 . S
C1241 N1237 1.343 1_655 S
C1241 C1242 1.390 . S
C1242 H1220 0.930 . S
C1242 C1239 1.321 . S
C1242 C1241 1.390 . S
O1243 Gd1211 2.386 . S
O1243 C1255 1.265 . S
O1244 Gd1210 2.339 1_545 S
O1244 C1255 1.242 . S
O1245 Gd1210 2.505 . S
O1245 C1263 1.263 . S
O1246 Gd1210 2.462 . S
O1246 C1263 1.252 . S
O1247 Gd1211 2.307 . S
O1247 C1256 1.261 . S
O1248 Gd1210 2.359 1_545 S
O1248 C1256 1.252 . S
O1249 Gd1210 2.361 1_545 S
O1249 C1267 1.265 . S
O1250 Gd1211 2.353 . S
O1250 C1267 1.242 . S
O1251 Gd1211 2.468 . S
O1251 C1275 1.263 . S
O1252 Gd1211 2.427 1_655 S
O1252 C1275 1.252 1_655 S
O1253 Gd1210 2.294 1_545 S
O1253 C1268 1.261 1_455 S
O1254 Gd1211 2.388 1_655 S
O1254 C1268 1.252 . S
C1255 O1243 1.265 . S
C1255 O1244 1.242 . S
C1256 O1247 1.261 . S
C1256 O1248 1.252 . S
C1257 C1260 1.394 . S
C1257 C1262 1.370 . S
C1257 C1263 1.500 . S
C1258 C1261 1.383 . S
C1258 C1262 1.395 . S
C1259 C1260 1.396 . S
C1259 C1261 1.365 . S
C1259 H1276 0.929 . S
C1260 C1257 1.394 . S
C1260 C1259 1.396 . S
C1260 H1277 0.930 . S
C1261 C1258 1.383 . S
C1261 C1259 1.365 . S
C1261 H1278 0.931 . S
C1262 C1257 1.370 . S
C1262 C1258 1.395 . S
C1262 H1279 0.930 . S
C1263 Gd1210 2.845 . S
C1263 O1245 1.263 . S
C1263 O1246 1.252 . S
C1263 C1257 1.500 . S
C1264 H1226 0.930 . S
C1264 C1240 1.417 . S
C1264 C1265 1.329 . S
C1265 C1235 1.437 . S
C1265 H1236 0.929 . S
C1265 C1264 1.329 . S
H1266 C1239 0.931 . S
C1267 O1249 1.265 . S
C1267 O1250 1.242 . S
C1268 O1253 1.261 1_655 S
C1268 O1254 1.252 . S
C1269 C1272 1.394 1_455 S
C1269 C1274 1.370 . S
C1269 C1275 1.500 . S
C1270 C1273 1.383 1_455 S
C1270 C1274 1.395 . S
C1271 C1272 1.396 . S
C1271 C1273 1.365 . S
C1271 H1280 0.929 . S
C1272 C1269 1.394 1_655 S
C1272 C1271 1.396 . S
C1272 H1281 0.930 . S
C1273 C1270 1.383 1_655 S
C1273 C1271 1.365 . S
C1273 H1282 0.931 . S
C1274 C1269 1.370 . S
C1274 C1270 1.395 . S
C1274 H1283 0.930 . S
C1275 Gd1211 2.805 . S
C1275 O1251 1.263 . S
C1275 O1252 1.252 1_455 S
C1275 C1269 1.500 . S
H1276 C1259 0.929 . S
H1277 C1260 0.930 . S
H1278 C1261 0.931 . S
H1279 C1262 0.930 . S
H1280 C1271 0.929 . S
H1281 C1272 0.930 . S
H1282 C1273 0.931 . S
H1283 C1274 0.930 . S
C1284 C1286 1.422 . S
C1284 C1288 1.415 . S
C1284 N1290 1.369 . S
C1285 C1286 1.421 . S
C1285 C1287 1.417 . S
C1285 C1297 1.422 . S
C1286 C1284 1.422 . S
C1286 C1285 1.421 . S
C1286 N1296 1.359 . S
C1287 C1285 1.417 . S
C1287 C1289 1.329 . S
C1287 H1306 0.930 . S
C1288 C1284 1.415 . S
C1288 C1289 1.437 . S
C1288 C1292 1.413 . S
C1289 C1287 1.329 . S
C1289 C1288 1.437 . S
C1289 H1311 0.929 . S
N1290 C1284 1.369 . S
N1290 C1291 1.338 . S
N1290 Gd1295 2.622 . S
C1291 N1290 1.338 . S
C1291 C1293 1.378 . S
C1291 H1303 0.929 . S
C1292 C1288 1.413 . S
C1292 C1293 1.348 . S
C1292 H1308 0.931 . S
C1293 C1291 1.378 . S
C1293 C1292 1.348 . S
C1293 H1309 0.930 . S
Gd1294 N1314 2.622 . S
Gd1294 N1321 2.570 . S
Gd1294 O1328 2.353 . S
Gd1294 O1329 2.468 . S
Gd1294 O1330 2.427 . S
Gd1294 O1332 2.388 . S
Gd1294 O1333 2.386 . S
Gd1294 O1337 2.307 . S
Gd1294 C1347 2.805 . S
Gd1295 N1290 2.622 . S
Gd1295 N1296 2.570 . S
Gd1295 O1327 2.386 . S
Gd1295 O1331 2.307 . S
Gd1295 O1334 2.353 . S
Gd1295 O1335 2.468 . S
Gd1295 O1336 2.427 . S
Gd1295 O1338 2.388 . S
Gd1295 C1359 2.805 . S
N1296 C1286 1.359 . S
N1296 Gd1295 2.570 . S
N1296 C1298 1.343 . S
C1297 C1285 1.422 . S
C1297 C1299 1.321 . S
C1297 H1305 0.931 . S
C1298 N1296 1.343 . S
C1298 C1299 1.390 . S
C1298 H1300 0.931 . S
C1299 C1297 1.321 . S
C1299 C1298 1.390 . S
C1299 H1301 0.930 . S
H1300 C1298 0.931 . S
H1301 C1299 0.930 . S
H1302 C1325 0.931 . S
H1303 C1291 0.929 . S
H1304 C1326 0.930 . S
H1305 C1297 0.931 . S
H1306 C1287 0.930 . S
H1307 C1316 0.929 . S
H1308 C1292 0.931 . S
H1309 C1293 0.930 . S
H1310 C1348 0.930 . S
H1311 C1289 0.929 . S
H1312 C1317 0.931 . S
H1313 C1318 0.930 . S
N1314 Gd1294 2.622 . S
N1314 C1315 1.369 . S
N1314 C1316 1.338 . S
C1315 N1314 1.369 . S
C1315 C1319 1.415 . S
C1315 C1322 1.422 . S
C1316 H1307 0.929 . S
C1316 N1314 1.338 . S
C1316 C1318 1.378 . S
C1317 H1312 0.931 . S
C1317 C1318 1.348 . S
C1317 C1319 1.413 . S
C1318 H1313 0.930 . S
C1318 C1316 1.378 . S
C1318 C1317 1.348 . S
C1319 C1315 1.415 . S
C1319 C1317 1.413 . S
C1319 C1349 1.437 . S
H1320 C1349 0.929 . S
N1321 Gd1294 2.570 . S
N1321 C1322 1.359 . S
N1321 C1325 1.343 . S
C1322 C1315 1.422 . S
C1322 N1321 1.359 . S
C1322 C1324 1.421 . S
C1323 C1324 1.422 . S
C1323 C1326 1.321 . S
C1323 H1350 0.931 . S
C1324 C1322 1.421 . S
C1324 C1323 1.422 . S
C1324 C1348 1.417 . S
C1325 H1302 0.931 . S
C1325 N1321 1.343 . S
C1325 C1326 1.390 . S
C1326 H1304 0.930 . S
C1326 C1323 1.321 . S
C1326 C1325 1.390 . S
O1327 Gd1295 2.386 . S
O1327 C1339 1.265 . S
O1328 Gd1294 2.353 . S
O1328 C1339 1.242 . S
O1329 Gd1294 2.468 . S
O1329 C1347 1.263 . S
O1330 Gd1294 2.427 . S
O1330 C1347 1.252 . S
O1331 Gd1295 2.307 . S
O1331 C1340 1.261 . S
O1332 Gd1294 2.388 . S
O1332 C1340 1.252 . S
O1333 Gd1294 2.386 . S
O1333 C1351 1.265 . S
O1334 Gd1295 2.353 . S
O1334 C1351 1.242 . S
O1335 Gd1295 2.468 . S
O1335 C1359 1.263 . S
O1336 Gd1295 2.427 . S
O1336 C1359 1.252 . S
O1337 Gd1294 2.307 . S
O1337 C1352 1.261 . S
O1338 Gd1295 2.388 . S
O1338 C1352 1.252 . S
C1339 O1327 1.265 . S
C1339 O1328 1.242 . S
C1340 O1331 1.261 . S
C1340 O1332 1.252 . S
C1341 C1344 1.394 . S
C1341 C1346 1.370 . S
C1341 C1347 1.500 . S
C1342 C1345 1.383 . S
C1342 C1346 1.395 . S
C1343 C1344 1.396 . S
C1343 C1345 1.365 . S
C1343 H1360 0.929 . S
C1344 C1341 1.394 . S
C1344 C1343 1.396 . S
C1344 H1361 0.930 . S
C1345 C1342 1.383 . S
C1345 C1343 1.365 . S
C1345 H1362 0.931 . S
C1346 C1341 1.370 . S
C1346 C1342 1.395 . S
C1346 H1363 0.930 . S
C1347 Gd1294 2.805 . S
C1347 O1329 1.263 . S
C1347 O1330 1.252 . S
C1347 C1341 1.500 . S
C1348 H1310 0.930 . S
C1348 C1324 1.417 . S
C1348 C1349 1.329 . S
C1349 C1319 1.437 . S
C1349 H1320 0.929 . S
C1349 C1348 1.329 . S
H1350 C1323 0.931 . S
C1351 O1333 1.265 . S
C1351 O1334 1.242 . S
C1352 O1337 1.261 . S
C1352 O1338 1.252 . S
C1353 C1356 1.394 . S
C1353 C1358 1.370 . S
C1353 C1359 1.500 . S
C1354 C1357 1.383 . S
C1354 C1358 1.395 . S
C1355 C1356 1.396 . S
C1355 C1357 1.365 . S
C1355 H1364 0.929 . S
C1356 C1353 1.394 . S
C1356 C1355 1.396 . S
C1356 H1365 0.930 . S
C1357 C1354 1.383 . S
C1357 C1355 1.365 . S
C1357 H1366 0.931 . S
C1358 C1353 1.370 . S
C1358 C1354 1.395 . S
C1358 H1367 0.930 . S
C1359 Gd1295 2.805 . S
C1359 O1335 1.263 . S
C1359 O1336 1.252 . S
C1359 C1353 1.500 . S
H1360 C1343 0.929 . S
H1361 C1344 0.930 . S
H1362 C1345 0.931 . S
H1363 C1346 0.930 . S
H1364 C1355 0.929 . S
H1365 C1356 0.930 . S
H1366 C1357 0.931 . S
H1367 C1358 0.930 . S
C1368 C1370 1.422 . S
C1368 C1372 1.415 1_545 S
C1368 N1374 1.369 1_545 S
C1369 C1370 1.421 . S
C1369 C1371 1.417 . S
C1369 C1381 1.422 . S
C1370 C1368 1.422 . S
C1370 C1369 1.421 . S
C1370 N1380 1.359 . S
C1371 C1369 1.417 . S
C1371 C1373 1.329 . S
C1371 H1390 0.930 . S
C1372 C1368 1.415 1_565 S
C1372 C1373 1.437 1_565 S
C1372 C1376 1.413 . S
C1373 C1371 1.329 . S
C1373 C1372 1.437 1_545 S
C1373 H1395 0.929 1_545 S
N1374 C1368 1.369 1_565 S
N1374 C1375 1.338 . S
N1374 Gd1379 2.622 1_565 S
C1375 N1374 1.338 . S
C1375 C1377 1.378 . S
C1375 H1387 0.929 . S
C1376 C1372 1.413 . S
C1376 C1377 1.348 . S
C1376 H1392 0.931 . S
C1377 C1375 1.378 . S
C1377 C1376 1.348 . S
C1377 H1393 0.930 . S
Gd1378 N1398 2.622 . S
Gd1378 N1405 2.570 . S
Gd1378 O1412 2.353 1_556 S
Gd1378 O1413 2.468 . S
Gd1378 O1414 2.427 . S
Gd1378 O1416 2.388 1_556 S
Gd1378 O1417 2.386 1_556 S
Gd1378 O1421 2.303 1_556 S
Gd1378 C1431 2.805 . S
Gd1379 N1374 2.622 1_545 S
Gd1379 N1380 2.570 . S
Gd1379 O1411 2.386 . S
Gd1379 O1415 2.307 . S
Gd1379 O1418 2.353 . S
Gd1379 O1419 2.468 . S
Gd1379 O1420 2.427 1_545 S
Gd1379 O1422 2.388 1_545 S
Gd1379 C1443 2.805 . S
N1380 C1370 1.359 . S
N1380 Gd1379 2.570 . S
N1380 C1382 1.343 . S
C1381 C1369 1.422 . S
C1381 C1383 1.321 . S
C1381 H1389 0.931 . S
C1382 N1380 1.343 . S
C1382 C1383 1.390 . S
C1382 H1384 0.931 . S
C1383 C1381 1.321 . S
C1383 C1382 1.390 . S
C1383 H1385 0.930 . S
H1384 C1382 0.931 . S
H1385 C1383 0.930 . S
H1386 C1409 0.931 . S
H1387 C1375 0.929 . S
H1388 C1410 0.970 . S
H1389 C1381 0.931 . S
H1390 C1371 0.930 . S
H1391 C1400 0.929 1_554 S
H1392 C1376 0.931 . S
H1393 C1377 0.930 . S
H1394 C1432 0.930 . S
H1395 C1373 0.929 1_565 S
H1396 C1401 0.931 . S
H1397 C1402 0.930 . S
N1398 Gd1378 2.622 . S
N1398 C1399 1.369 . S
N1398 C1400 1.338 . S
C1399 N1398 1.369 . S
C1399 C1403 1.415 . S
C1399 C1406 1.422 . S
C1400 H1391 0.929 1_556 S
C1400 N1398 1.338 . S
C1400 C1402 1.378 . S
C1401 H1396 0.931 . S
C1401 C1402 1.348 . S
C1401 C1403 1.413 . S
C1402 H1397 0.930 . S
C1402 C1400 1.378 . S
C1402 C1401 1.348 . S
C1403 C1399 1.415 . S
C1403 C1401 1.413 . S
C1403 C1433 1.437 . S
H1404 C1433 0.929 . S
N1405 Gd1378 2.570 . S
N1405 C1406 1.359 . S
N1405 C1409 1.343 . S
C1406 C1399 1.422 . S
C1406 N1405 1.359 . S
C1406 C1408 1.421 . S
C1407 C1408 1.422 . S
C1407 C1410 1.294 1_545 S
C1407 H1434 0.931 . S
C1408 C1406 1.421 . S
C1408 C1407 1.422 . S
C1408 C1432 1.417 . S
C1409 H1386 0.931 . S
C1409 N1405 1.343 . S
C1409 C1410 1.379 1_545 S
C1410 H1388 0.970 . S
C1410 C1407 1.294 1_565 S
C1410 C1409 1.379 1_565 S
O1411 Gd1379 2.386 . S
O1411 C1423 1.265 . S
O1412 Gd1378 2.353 1_554 S
O1412 C1423 1.242 . S
O1413 Gd1378 2.468 . S
O1413 C1431 1.263 . S
O1414 Gd1378 2.427 . S
O1414 C1431 1.252 . S
O1415 Gd1379 2.307 . S
O1415 C1424 1.261 . S
O1416 Gd1378 2.388 1_554 S
O1416 C1424 1.252 . S
O1417 Gd1378 2.386 1_554 S
O1417 C1435 1.265 . S
O1418 Gd1379 2.353 . S
O1418 C1435 1.242 . S
O1419 Gd1379 2.468 . S
O1419 C1443 1.263 . S
O1420 Gd1379 2.427 1_565 S
O1420 C1443 1.252 1_565 S
O1421 Gd1378 2.303 1_554 S
O1421 C1436 1.269 1_545 S
O1422 Gd1379 2.388 1_565 S
O1422 C1436 1.252 . S
C1423 O1411 1.265 . S
C1423 O1412 1.242 . S
C1424 O1415 1.261 . S
C1424 O1416 1.252 . S
C1425 C1428 1.394 . S
C1425 C1430 1.370 . S
C1425 C1431 1.500 . S
C1426 C1429 1.383 . S
C1426 C1430 1.395 . S
C1427 C1428 1.396 . S
C1427 C1429 1.365 . S
C1427 H1444 0.929 . S
C1428 C1425 1.394 . S
C1428 C1427 1.396 . S
C1428 H1445 0.930 . S
C1429 C1426 1.383 . S
C1429 C1427 1.365 . S
C1429 H1446 0.931 . S
C1430 C1425 1.370 . S
C1430 C1426 1.395 . S
C1430 H1447 0.930 . S
C1431 Gd1378 2.805 . S
C1431 O1413 1.263 . S
C1431 O1414 1.252 . S
C1431 C1425 1.500 . S
C1432 H1394 0.930 . S
C1432 C1408 1.417 . S
C1432 C1433 1.329 . S
C1433 C1403 1.437 . S
C1433 H1404 0.929 . S
C1433 C1432 1.329 . S
H1434 C1407 0.931 . S
C1435 O1417 1.265 . S
C1435 O1418 1.242 . S
C1436 O1421 1.269 1_565 S
C1436 O1422 1.252 . S
C1437 C1440 1.447 . S
C1437 C1442 1.333 1_565 S
C1437 C1443 1.488 1_565 S
C1438 C1441 1.383 1_545 S
C1438 C1442 1.395 . S
C1439 C1440 1.396 . S
C1439 C1441 1.365 . S
C1439 H1448 0.929 . S
C1440 C1437 1.447 . S
C1440 C1439 1.396 . S
C1440 H1449 0.930 . S
C1441 C1438 1.383 1_565 S
C1441 C1439 1.365 . S
C1441 H1450 0.931 . S
C1442 C1437 1.333 1_545 S
C1442 C1438 1.395 . S
C1442 H1451 0.930 . S
C1443 Gd1379 2.805 . S
C1443 O1419 1.263 . S
C1443 O1420 1.252 1_545 S
C1443 C1437 1.488 1_545 S
H1444 C1427 0.929 . S
H1445 C1428 0.930 . S
H1446 C1429 0.931 . S
H1447 C1430 0.930 . S
H1448 C1439 0.929 . S
H1449 C1440 0.930 . S
H1450 C1441 0.931 . S
H1451 C1442 0.930 . S
C1452 C1454 1.422 . S
C1452 C1456 1.415 . S
C1452 N1458 1.369 . S
C1453 C1454 1.421 . S
C1453 C1455 1.417 . S
C1453 C1465 1.422 . S
C1454 C1452 1.422 . S
C1454 C1453 1.421 . S
C1454 N1464 1.359 . S
C1455 C1453 1.417 . S
C1455 C1457 1.329 . S
C1455 H1474 0.930 . S
C1456 C1452 1.415 . S
C1456 C1457 1.437 . S
C1456 C1460 1.413 . S
C1457 C1455 1.329 . S
C1457 C1456 1.437 . S
C1457 H1479 0.929 . S
N1458 C1452 1.369 . S
N1458 C1459 1.338 . S
N1458 Gd1463 2.622 . S
C1459 N1458 1.338 . S
C1459 C1461 1.378 . S
C1459 H1471 0.929 . S
C1460 C1456 1.413 . S
C1460 C1461 1.348 . S
C1460 H1476 0.931 . S
C1461 C1459 1.378 . S
C1461 C1460 1.348 . S
C1461 H1477 0.930 . S
Gd1462 N1482 2.622 . S
Gd1462 N1489 2.570 . S
Gd1462 O1496 2.353 . S
Gd1462 O1497 2.468 . S
Gd1462 O1498 2.427 . S
Gd1462 O1500 2.388 . S
Gd1462 O1501 2.386 . S
Gd1462 O1505 2.307 . S
Gd1462 C1515 2.805 . S
Gd1463 N1458 2.622 . S
Gd1463 N1464 2.570 . S
Gd1463 O1495 2.386 . S
Gd1463 O1499 2.307 . S
Gd1463 O1502 2.353 . S
Gd1463 O1503 2.468 . S
Gd1463 O1504 2.427 . S
Gd1463 O1506 2.388 . S
Gd1463 C1527 2.805 . S
N1464 C1454 1.359 . S
N1464 Gd1463 2.570 . S
N1464 C1466 1.343 . S
C1465 C1453 1.422 . S
C1465 C1467 1.321 . S
C1465 H1473 0.931 . S
C1466 N1464 1.343 . S
C1466 C1467 1.390 . S
C1466 H1468 0.931 . S
C1467 C1465 1.321 . S
C1467 C1466 1.390 . S
C1467 H1469 0.930 . S
H1468 C1466 0.931 . S
H1469 C1467 0.930 . S
H1470 C1493 0.931 . S
H1471 C1459 0.929 . S
H1472 C1494 0.930 . S
H1473 C1465 0.931 . S
H1474 C1455 0.930 . S
H1475 C1484 0.929 . S
H1476 C1460 0.931 . S
H1477 C1461 0.930 . S
H1478 C1516 0.930 . S
H1479 C1457 0.929 . S
H1480 C1485 0.931 . S
H1481 C1486 0.930 . S
N1482 Gd1462 2.622 . S
N1482 C1483 1.369 . S
N1482 C1484 1.338 . S
C1483 N1482 1.369 . S
C1483 C1487 1.415 . S
C1483 C1490 1.422 . S
C1484 H1475 0.929 . S
C1484 N1482 1.338 . S
C1484 C1486 1.378 . S
C1485 H1480 0.931 . S
C1485 C1486 1.348 . S
C1485 C1487 1.413 . S
C1486 H1481 0.930 . S
C1486 C1484 1.378 . S
C1486 C1485 1.348 . S
C1487 C1483 1.415 . S
C1487 C1485 1.413 . S
C1487 C1517 1.437 . S
H1488 C1517 0.929 . S
N1489 Gd1462 2.570 . S
N1489 C1490 1.359 . S
N1489 C1493 1.343 . S
C1490 C1483 1.422 . S
C1490 N1489 1.359 . S
C1490 C1492 1.421 . S
C1491 C1492 1.422 . S
C1491 C1494 1.321 . S
C1491 H1518 0.931 . S
C1492 C1490 1.421 . S
C1492 C1491 1.422 . S
C1492 C1516 1.417 . S
C1493 H1470 0.931 . S
C1493 N1489 1.343 . S
C1493 C1494 1.390 . S
C1494 H1472 0.930 . S
C1494 C1491 1.321 . S
C1494 C1493 1.390 . S
O1495 Gd1463 2.386 . S
O1495 C1507 1.265 . S
O1496 Gd1462 2.353 . S
O1496 C1507 1.242 . S
O1497 Gd1462 2.468 . S
O1497 C1515 1.263 . S
O1498 Gd1462 2.427 . S
O1498 C1515 1.252 . S
O1499 Gd1463 2.307 . S
O1499 C1508 1.261 . S
O1500 Gd1462 2.388 . S
O1500 C1508 1.252 . S
O1501 Gd1462 2.386 . S
O1501 C1519 1.265 . S
O1502 Gd1463 2.353 . S
O1502 C1519 1.242 . S
O1503 Gd1463 2.468 . S
O1503 C1527 1.263 . S
O1504 Gd1463 2.427 . S
O1504 C1527 1.252 . S
O1505 Gd1462 2.307 . S
O1505 C1520 1.261 . S
O1506 Gd1463 2.388 . S
O1506 C1520 1.252 . S
C1507 O1495 1.265 . S
C1507 O1496 1.242 . S
C1508 O1499 1.261 . S
C1508 O1500 1.252 . S
C1509 C1512 1.394 . S
C1509 C1514 1.370 . S
C1509 C1515 1.500 . S
C1510 C1513 1.383 . S
C1510 C1514 1.395 . S
C1511 C1512 1.396 . S
C1511 C1513 1.365 . S
C1511 H1528 0.929 . S
C1512 C1509 1.394 . S
C1512 C1511 1.396 . S
C1512 H1529 0.930 . S
C1513 C1510 1.383 . S
C1513 C1511 1.365 . S
C1513 H1530 0.931 . S
C1514 C1509 1.370 . S
C1514 C1510 1.395 . S
C1514 H1531 0.930 . S
C1515 Gd1462 2.805 . S
C1515 O1497 1.263 . S
C1515 O1498 1.252 . S
C1515 C1509 1.500 . S
C1516 H1478 0.930 . S
C1516 C1492 1.417 . S
C1516 C1517 1.329 . S
C1517 C1487 1.437 . S
C1517 H1488 0.929 . S
C1517 C1516 1.329 . S
H1518 C1491 0.931 . S
C1519 O1501 1.265 . S
C1519 O1502 1.242 . S
C1520 O1505 1.261 . S
C1520 O1506 1.252 . S
C1521 C1524 1.394 . S
C1521 C1526 1.370 . S
C1521 C1527 1.500 . S
C1522 C1525 1.383 . S
C1522 C1526 1.395 . S
C1523 C1524 1.396 . S
C1523 C1525 1.365 . S
C1523 H1532 0.929 . S
C1524 C1521 1.394 . S
C1524 C1523 1.396 . S
C1524 H1533 0.930 . S
C1525 C1522 1.383 . S
C1525 C1523 1.365 . S
C1525 H1534 0.931 . S
C1526 C1521 1.370 . S
C1526 C1522 1.395 . S
C1526 H1535 0.930 . S
C1527 Gd1463 2.805 . S
C1527 O1503 1.263 . S
C1527 O1504 1.252 . S
C1527 C1521 1.500 . S
H1528 C1511 0.929 . S
H1529 C1512 0.930 . S
H1530 C1513 0.931 . S
H1531 C1514 0.930 . S
H1532 C1523 0.929 . S
H1533 C1524 0.930 . S
H1534 C1525 0.931 . S
H1535 C1526 0.930 . S
C1536 C1538 1.422 . S
C1536 C1540 1.415 . S
C1536 N1542 1.369 . S
C1537 C1538 1.421 . S
C1537 C1539 1.417 . S
C1537 C1549 1.422 . S
C1538 C1536 1.422 . S
C1538 C1537 1.421 . S
C1538 N1548 1.359 . S
C1539 C1537 1.417 . S
C1539 C1541 1.329 . S
C1539 H1558 0.930 . S
C1540 C1536 1.415 . S
C1540 C1541 1.437 . S
C1540 C1544 1.413 . S
C1541 C1539 1.329 . S
C1541 C1540 1.437 . S
C1541 H1563 0.929 . S
N1542 C1536 1.369 . S
N1542 C1543 1.338 . S
N1542 Gd1547 2.622 . S
C1543 N1542 1.338 . S
C1543 C1545 1.378 . S
C1543 H1555 0.929 . S
C1544 C1540 1.413 . S
C1544 C1545 1.348 . S
C1544 H1560 0.931 . S
C1545 C1543 1.378 . S
C1545 C1544 1.348 . S
C1545 H1561 0.930 . S
Gd1546 N1566 2.622 1_554 S
Gd1546 N1573 2.570 1_554 S
Gd1546 O1580 2.353 . S
Gd1546 O1581 2.468 . S
Gd1546 O1582 2.427 . S
Gd1546 O1584 2.388 . S
Gd1546 O1585 2.386 1_554 S
Gd1546 O1589 2.307 . S
Gd1546 C1599 2.805 . S
Gd1547 N1542 2.622 . S
Gd1547 N1548 2.570 . S
Gd1547 O1579 2.386 . S
Gd1547 O1583 2.307 . S
Gd1547 O1586 2.353 1_554 S
Gd1547 O1587 2.468 . S
Gd1547 O1588 2.427 . S
Gd1547 O1590 2.388 . S
Gd1547 C1611 2.805 . S
N1548 C1538 1.359 . S
N1548 Gd1547 2.570 . S
N1548 C1550 1.343 . S
C1549 C1537 1.422 . S
C1549 C1551 1.321 . S
C1549 H1557 0.931 . S
C1550 N1548 1.343 . S
C1550 C1551 1.390 . S
C1550 H1552 0.931 . S
C1551 C1549 1.321 . S
C1551 C1550 1.390 . S
C1551 H1553 0.930 . S
H1552 C1550 0.931 . S
H1553 C1551 0.930 . S
H1554 C1577 0.879 1_554 S
H1555 C1543 0.929 . S
H1556 C1578 0.930 . S
H1557 C1549 0.931 . S
H1558 C1539 0.930 . S
H1559 C1568 0.929 1_554 S
H1560 C1544 0.931 . S
H1561 C1545 0.930 . S
H1562 C1600 0.930 . S
H1563 C1541 0.929 . S
H1564 C1569 0.931 . S
H1565 C1570 0.930 . S
N1566 Gd1546 2.622 1_556 S
N1566 C1567 1.369 . S
N1566 C1568 1.338 . S
C1567 N1566 1.369 . S
C1567 C1571 1.415 . S
C1567 C1574 1.422 . S
C1568 H1559 0.929 1_556 S
C1568 N1566 1.338 . S
C1568 C1570 1.378 . S
C1569 H1564 0.931 . S
C1569 C1570 1.348 . S
C1569 C1571 1.413 . S
C1570 H1565 0.930 . S
C1570 C1568 1.378 . S
C1570 C1569 1.348 . S
C1571 C1567 1.415 . S
C1571 C1569 1.413 . S
C1571 C1601 1.437 . S
H1572 C1601 0.929 . S
N1573 Gd1546 2.570 1_556 S
N1573 C1574 1.359 . S
N1573 C1577 1.343 . S
C1574 C1567 1.422 . S
C1574 N1573 1.359 . S
C1574 C1576 1.421 . S
C1575 C1576 1.422 . S
C1575 C1578 1.321 . S
C1575 H1602 0.931 . S
C1576 C1574 1.421 . S
C1576 C1575 1.422 . S
C1576 C1600 1.417 . S
C1577 H1554 0.879 1_556 S
C1577 N1573 1.343 . S
C1577 C1578 1.390 . S
C1578 H1556 0.930 . S
C1578 C1575 1.321 . S
C1578 C1577 1.390 . S
O1579 Gd1547 2.386 . S
O1579 C1591 1.265 . S
O1580 Gd1546 2.353 . S
O1580 C1591 1.242 . S
O1581 Gd1546 2.468 . S
O1581 C1599 1.263 . S
O1582 Gd1546 2.427 . S
O1582 C1599 1.252 . S
O1583 Gd1547 2.307 . S
O1583 C1592 1.261 . S
O1584 Gd1546 2.388 . S
O1584 C1592 1.252 . S
O1585 Gd1546 2.386 1_556 S
O1585 C1603 1.265 . S
O1586 Gd1547 2.353 1_556 S
O1586 C1603 1.242 . S
O1587 Gd1547 2.468 . S
O1587 C1611 1.263 . S
O1588 Gd1547 2.427 . S
O1588 C1611 1.252 . S
O1589 Gd1546 2.307 . S
O1589 C1604 1.261 . S
O1590 Gd1547 2.388 . S
O1590 C1604 1.252 . S
C1591 O1579 1.265 . S
C1591 O1580 1.242 . S
C1592 O1583 1.261 . S
C1592 O1584 1.252 . S
C1593 C1596 1.394 . S
C1593 C1598 1.370 . S
C1593 C1599 1.500 . S
C1594 C1597 1.383 . S
C1594 C1598 1.395 . S
C1595 C1596 1.396 . S
C1595 C1597 1.365 . S
C1595 H1612 0.929 . S
C1596 C1593 1.394 . S
C1596 C1595 1.396 . S
C1596 H1613 0.930 . S
C1597 C1594 1.383 . S
C1597 C1595 1.365 . S
C1597 H1614 0.931 . S
C1598 C1593 1.370 . S
C1598 C1594 1.395 . S
C1598 H1615 0.930 . S
C1599 Gd1546 2.805 . S
C1599 O1581 1.263 . S
C1599 O1582 1.252 . S
C1599 C1593 1.500 . S
C1600 H1562 0.930 . S
C1600 C1576 1.417 . S
C1600 C1601 1.329 . S
C1601 C1571 1.437 . S
C1601 H1572 0.929 . S
C1601 C1600 1.329 . S
H1602 C1575 0.931 . S
C1603 O1585 1.265 . S
C1603 O1586 1.242 . S
C1604 O1589 1.261 . S
C1604 O1590 1.252 . S
C1605 C1608 1.394 . S
C1605 C1610 1.370 . S
C1605 C1611 1.500 1_556 S
C1606 C1609 1.383 . S
C1606 C1610 1.395 . S
C1607 C1608 1.396 . S
C1607 C1609 1.365 . S
C1607 H1616 0.929 . S
C1608 C1605 1.394 . S
C1608 C1607 1.396 . S
C1608 H1617 0.930 . S
C1609 C1606 1.383 . S
C1609 C1607 1.365 . S
C1609 H1618 0.931 . S
C1610 C1605 1.370 . S
C1610 C1606 1.395 . S
C1610 H1619 0.930 . S
C1611 Gd1547 2.805 . S
C1611 O1587 1.263 . S
C1611 O1588 1.252 . S
C1611 C1605 1.500 1_554 S
H1612 C1595 0.929 . S
H1613 C1596 0.930 . S
H1614 C1597 0.931 . S
H1615 C1598 0.930 . S
H1616 C1607 0.929 . S
H1617 C1608 0.930 . S
H1618 C1609 0.931 . S
H1619 C1610 0.930 . S
C1620 C1622 1.422 . S
C1620 C1624 1.415 . S
C1620 N1626 1.369 . S
C1621 C1622 1.421 . S
C1621 C1623 1.417 . S
C1621 C1633 1.422 . S
C1622 C1620 1.422 . S
C1622 C1621 1.421 . S
C1622 N1632 1.359 . S
C1623 C1621 1.417 . S
C1623 C1625 1.329 . S
C1623 H1642 0.930 . S
C1624 C1620 1.415 . S
C1624 C1625 1.437 . S
C1624 C1628 1.413 . S
C1625 C1623 1.329 . S
C1625 C1624 1.437 . S
C1625 H1647 0.929 . S
N1626 C1620 1.369 . S
N1626 C1627 1.338 . S
N1626 Gd1631 2.622 . S
C1627 N1626 1.338 . S
C1627 C1629 1.378 . S
C1627 H1639 0.929 . S
C1628 C1624 1.413 . S
C1628 C1629 1.348 . S
C1628 H1644 0.931 . S
C1629 C1627 1.378 . S
C1629 C1628 1.348 . S
C1629 H1645 0.930 . S
Gd1630 N1650 2.622 . S
Gd1630 N1657 2.570 . S
Gd1630 O1664 2.353 . S
Gd1630 O1665 2.468 . S
Gd1630 O1666 2.427 . S
Gd1630 O1668 2.388 . S
Gd1630 O1669 2.386 . S
Gd1630 O1673 2.307 . S
Gd1630 C1683 2.805 . S
Gd1631 N1626 2.622 . S
Gd1631 N1632 2.570 . S
Gd1631 O1663 2.386 . S
Gd1631 O1667 2.307 . S
Gd1631 O1670 2.353 . S
Gd1631 O1671 2.468 . S
Gd1631 O1672 2.427 . S
Gd1631 O1674 2.388 . S
Gd1631 C1695 2.805 . S
N1632 C1622 1.359 . S
N1632 Gd1631 2.570 . S
N1632 C1634 1.343 . S
C1633 C1621 1.422 . S
C1633 C1635 1.321 . S
C1633 H1641 0.931 . S
C1634 N1632 1.343 . S
C1634 C1635 1.390 . S
C1634 H1636 0.931 . S
C1635 C1633 1.321 . S
C1635 C1634 1.390 . S
C1635 H1637 0.930 . S
H1636 C1634 0.931 . S
H1637 C1635 0.930 . S
H1638 C1661 0.931 . S
H1639 C1627 0.929 . S
H1640 C1662 0.930 . S
H1641 C1633 0.931 . S
H1642 C1623 0.930 . S
H1643 C1652 0.929 . S
H1644 C1628 0.931 . S
H1645 C1629 0.930 . S
H1646 C1684 0.930 . S
H1647 C1625 0.929 . S
H1648 C1653 0.931 . S
H1649 C1654 0.930 . S
N1650 Gd1630 2.622 . S
N1650 C1651 1.369 . S
N1650 C1652 1.338 . S
C1651 N1650 1.369 . S
C1651 C1655 1.415 . S
C1651 C1658 1.422 . S
C1652 H1643 0.929 . S
C1652 N1650 1.338 . S
C1652 C1654 1.378 . S
C1653 H1648 0.931 . S
C1653 C1654 1.348 . S
C1653 C1655 1.413 . S
C1654 H1649 0.930 . S
C1654 C1652 1.378 . S
C1654 C1653 1.348 . S
C1655 C1651 1.415 . S
C1655 C1653 1.413 . S
C1655 C1685 1.437 . S
H1656 C1685 0.929 . S
N1657 Gd1630 2.570 . S
N1657 C1658 1.359 . S
N1657 C1661 1.343 . S
C1658 C1651 1.422 . S
C1658 N1657 1.359 . S
C1658 C1660 1.421 . S
C1659 C1660 1.422 . S
C1659 C1662 1.321 . S
C1659 H1686 0.931 . S
C1660 C1658 1.421 . S
C1660 C1659 1.422 . S
C1660 C1684 1.417 . S
C1661 H1638 0.931 . S
C1661 N1657 1.343 . S
C1661 C1662 1.390 . S
C1662 H1640 0.930 . S
C1662 C1659 1.321 . S
C1662 C1661 1.390 . S
O1663 Gd1631 2.386 . S
O1663 C1675 1.265 . S
O1664 Gd1630 2.353 . S
O1664 C1675 1.242 . S
O1665 Gd1630 2.468 . S
O1665 C1683 1.263 . S
O1666 Gd1630 2.427 . S
O1666 C1683 1.252 . S
O1667 Gd1631 2.307 . S
O1667 C1676 1.261 . S
O1668 Gd1630 2.388 . S
O1668 C1676 1.252 . S
O1669 Gd1630 2.386 . S
O1669 C1687 1.265 . S
O1670 Gd1631 2.353 . S
O1670 C1687 1.242 . S
O1671 Gd1631 2.468 . S
O1671 C1695 1.263 . S
O1672 Gd1631 2.427 . S
O1672 C1695 1.252 . S
O1673 Gd1630 2.307 . S
O1673 C1688 1.261 . S
O1674 Gd1631 2.388 . S
O1674 C1688 1.252 . S
C1675 O1663 1.265 . S
C1675 O1664 1.242 . S
C1676 O1667 1.261 . S
C1676 O1668 1.252 . S
C1677 C1680 1.394 . S
C1677 C1682 1.370 . S
C1677 C1683 1.500 . S
C1678 C1681 1.383 . S
C1678 C1682 1.395 . S
C1679 C1680 1.396 . S
C1679 C1681 1.365 . S
C1679 H1696 0.929 . S
C1680 C1677 1.394 . S
C1680 C1679 1.396 . S
C1680 H1697 0.930 . S
C1681 C1678 1.383 . S
C1681 C1679 1.365 . S
C1681 H1698 0.931 . S
C1682 C1677 1.370 . S
C1682 C1678 1.395 . S
C1682 H1699 0.930 . S
C1683 Gd1630 2.805 . S
C1683 O1665 1.263 . S
C1683 O1666 1.252 . S
C1683 C1677 1.500 . S
C1684 H1646 0.930 . S
C1684 C1660 1.417 . S
C1684 C1685 1.329 . S
C1685 C1655 1.437 . S
C1685 H1656 0.929 . S
C1685 C1684 1.329 . S
H1686 C1659 0.931 . S
C1687 O1669 1.265 . S
C1687 O1670 1.242 . S
C1688 O1673 1.261 . S
C1688 O1674 1.252 . S
C1689 C1692 1.394 . S
C1689 C1694 1.370 . S
C1689 C1695 1.500 . S
C1690 C1693 1.383 . S
C1690 C1694 1.395 . S
C1691 C1692 1.396 . S
C1691 C1693 1.365 . S
C1691 H1700 0.929 . S
C1692 C1689 1.394 . S
C1692 C1691 1.396 . S
C1692 H1701 0.930 . S
C1693 C1690 1.383 . S
C1693 C1691 1.365 . S
C1693 H1702 0.931 . S
C1694 C1689 1.370 . S
C1694 C1690 1.395 . S
C1694 H1703 0.930 . S
C1695 Gd1631 2.805 . S
C1695 O1671 1.263 . S
C1695 O1672 1.252 . S
C1695 C1689 1.500 . S
H1696 C1679 0.929 . S
H1697 C1680 0.930 . S
H1698 C1681 0.931 . S
H1699 C1682 0.930 . S
H1700 C1691 0.929 . S
H1701 C1692 0.930 . S
H1702 C1693 0.931 . S
H1703 C1694 0.930 . S
C1704 C1706 1.422 . S
C1704 C1708 1.415 . S
C1704 N1710 1.369 . S
C1705 C1706 1.421 . S
C1705 C1707 1.417 . S
C1705 C1717 1.422 . S
C1706 C1704 1.422 . S
C1706 C1705 1.421 . S
C1706 N1716 1.359 . S
C1707 C1705 1.417 . S
C1707 C1709 1.329 . S
C1707 H1726 0.930 . S
C1708 C1704 1.415 . S
C1708 C1709 1.437 . S
C1708 C1712 1.413 . S
C1709 C1707 1.329 . S
C1709 C1708 1.437 . S
C1709 H1731 0.929 . S
N1710 C1704 1.369 . S
N1710 C1711 1.338 . S
N1710 Gd1715 2.622 . S
C1711 N1710 1.338 . S
C1711 C1713 1.378 . S
C1711 H1723 0.929 . S
C1712 C1708 1.413 . S
C1712 C1713 1.348 . S
C1712 H1728 0.931 . S
C1713 C1711 1.378 . S
C1713 C1712 1.348 . S
C1713 H1729 0.930 . S
Gd1714 N1734 2.620 1_455 S
Gd1714 N1741 2.570 1_455 S
Gd1714 O1748 2.353 . S
Gd1714 O1749 2.468 . S
Gd1714 O1750 2.427 . S
Gd1714 O1752 2.388 . S
Gd1714 O1753 2.386 1_455 S
Gd1714 O1757 2.307 . S
Gd1714 C1767 2.805 . S
Gd1715 N1710 2.622 . S
Gd1715 N1716 2.570 . S
Gd1715 O1747 2.386 . S
Gd1715 O1751 2.307 . S
Gd1715 O1754 2.295 1_455 S
Gd1715 O1755 2.468 . S
Gd1715 O1756 2.427 . S
Gd1715 O1758 2.388 . S
Gd1715 C1779 2.805 . S
N1716 C1706 1.359 . S
N1716 Gd1715 2.570 . S
N1716 C1718 1.343 . S
C1717 C1705 1.422 . S
C1717 C1719 1.321 . S
C1717 H1725 0.931 . S
C1718 N1716 1.343 . S
C1718 C1719 1.390 . S
C1718 H1720 0.931 . S
C1719 C1717 1.321 . S
C1719 C1718 1.390 . S
C1719 H1721 0.930 . S
H1720 C1718 0.931 . S
H1721 C1719 0.930 . S
H1722 C1745 0.931 1_455 S
H1723 C1711 0.929 . S
H1724 C1746 0.930 . S
H1725 C1717 0.931 . S
H1726 C1707 0.930 . S
H1727 C1736 0.961 . S
H1728 C1712 0.931 . S
H1729 C1713 0.930 . S
H1730 C1768 0.930 . S
H1731 C1709 0.929 . S
H1732 C1737 0.931 . S
H1733 C1738 0.930 . S
N1734 Gd1714 2.620 1_655 S
N1734 C1735 1.370 . S
N1734 C1736 1.347 1_655 S
C1735 N1734 1.370 . S
C1735 C1739 1.415 . S
C1735 C1742 1.422 . S
C1736 H1727 0.961 . S
C1736 N1734 1.347 1_455 S
C1736 C1738 1.340 1_455 S
C1737 H1732 0.931 . S
C1737 C1738 1.348 . S
C1737 C1739 1.413 . S
C1738 H1733 0.930 . S
C1738 C1736 1.340 1_655 S
C1738 C1737 1.348 . S
C1739 C1735 1.415 . S
C1739 C1737 1.413 . S
C1739 C1769 1.437 . S
H1740 C1769 0.929 . S
N1741 Gd1714 2.570 1_655 S
N1741 C1742 1.359 . S
N1741 C1745 1.343 . S
C1742 C1735 1.422 . S
C1742 N1741 1.359 . S
C1742 C1744 1.421 . S
C1743 C1744 1.422 . S
C1743 C1746 1.321 . S
C1743 H1770 0.931 . S
C1744 C1742 1.421 . S
C1744 C1743 1.422 . S
C1744 C1768 1.417 . S
C1745 H1722 0.931 1_655 S
C1745 N1741 1.343 . S
C1745 C1746 1.390 . S
C1746 H1724 0.930 . S
C1746 C1743 1.321 . S
C1746 C1745 1.390 . S
O1747 Gd1715 2.386 . S
O1747 C1759 1.265 . S
O1748 Gd1714 2.353 . S
O1748 C1759 1.242 . S
O1749 Gd1714 2.468 . S
O1749 C1767 1.263 . S
O1750 Gd1714 2.427 . S
O1750 C1767 1.252 . S
O1751 Gd1715 2.307 . S
O1751 C1760 1.261 . S
O1752 Gd1714 2.388 . S
O1752 C1760 1.252 . S
O1753 Gd1714 2.386 1_655 S
O1753 C1771 1.265 . S
O1754 Gd1715 2.295 1_655 S
O1754 C1771 1.278 . S
O1755 Gd1715 2.468 . S
O1755 C1779 1.263 . S
O1756 Gd1715 2.427 . S
O1756 C1779 1.252 . S
O1757 Gd1714 2.307 . S
O1757 C1772 1.261 . S
O1758 Gd1715 2.388 . S
O1758 C1772 1.252 . S
C1759 O1747 1.265 . S
C1759 O1748 1.242 . S
C1760 O1751 1.261 . S
C1760 O1752 1.252 . S
C1761 C1764 1.394 . S
C1761 C1766 1.370 . S
C1761 C1767 1.500 . S
C1762 C1765 1.383 . S
C1762 C1766 1.395 . S
C1763 C1764 1.396 . S
C1763 C1765 1.365 . S
C1763 H1780 0.929 . S
C1764 C1761 1.394 . S
C1764 C1763 1.396 . S
C1764 H1781 0.930 . S
C1765 C1762 1.383 . S
C1765 C1763 1.365 . S
C1765 H1782 0.931 . S
C1766 C1761 1.370 . S
C1766 C1762 1.395 . S
C1766 H1783 0.930 . S
C1767 Gd1714 2.805 . S
C1767 O1749 1.263 . S
C1767 O1750 1.252 . S
C1767 C1761 1.500 . S
C1768 H1730 0.930 . S
C1768 C1744 1.417 . S
C1768 C1769 1.329 . S
C1769 C1739 1.437 . S
C1769 H1740 0.929 . S
C1769 C1768 1.329 . S
H1770 C1743 0.931 . S
C1771 O1753 1.265 . S
C1771 O1754 1.278 . S
C1772 O1757 1.261 . S
C1772 O1758 1.252 . S
C1773 C1776 1.394 . S
C1773 C1778 1.370 . S
C1773 C1779 1.500 1_655 S
C1774 C1777 1.383 . S
C1774 C1778 1.395 . S
C1775 C1776 1.396 . S
C1775 C1777 1.365 . S
C1775 H1784 0.929 . S
C1776 C1773 1.394 . S
C1776 C1775 1.396 . S
C1776 H1785 0.939 . S
C1777 C1774 1.383 . S
C1777 C1775 1.365 . S
C1777 H1786 0.931 . S
C1778 C1773 1.370 . S
C1778 C1774 1.395 . S
C1778 H1787 0.930 . S
C1779 Gd1715 2.805 . S
C1779 O1755 1.263 . S
C1779 O1756 1.252 . S
C1779 C1773 1.500 1_455 S
H1780 C1763 0.929 . S
H1781 C1764 0.930 . S
H1782 C1765 0.931 . S
H1783 C1766 0.930 . S
H1784 C1775 0.929 . S
H1785 C1776 0.939 . S
H1786 C1777 0.931 . S
H1787 C1778 0.930 . S
C1788 C1790 1.422 . S
C1788 C1792 1.415 . S
C1788 N1794 1.369 . S
C1789 C1790 1.421 . S
C1789 C1791 1.417 . S
C1789 C1801 1.422 . S
C1790 C1788 1.422 . S
C1790 C1789 1.421 . S
C1790 N1800 1.359 . S
C1791 C1789 1.417 . S
C1791 C1793 1.329 . S
C1791 H1810 0.930 . S
C1792 C1788 1.415 . S
C1792 C1793 1.437 . S
C1792 C1796 1.413 . S
C1793 C1791 1.329 . S
C1793 C1792 1.437 . S
C1793 H1815 0.929 . S
N1794 C1788 1.369 . S
N1794 C1795 1.338 . S
N1794 Gd1799 2.622 . S
C1795 N1794 1.338 . S
C1795 C1797 1.378 . S
C1795 H1807 0.929 . S
C1796 C1792 1.413 . S
C1796 C1797 1.348 . S
C1796 H1812 0.931 . S
C1797 C1795 1.378 . S
C1797 C1796 1.348 . S
C1797 H1813 0.930 . S
Gd1798 N1818 2.622 . S
Gd1798 N1825 2.570 . S
Gd1798 O1832 2.353 . S
Gd1798 O1833 2.468 . S
Gd1798 O1834 2.427 . S
Gd1798 O1836 2.388 . S
Gd1798 O1837 2.386 . S
Gd1798 O1841 2.307 . S
Gd1798 C1851 2.805 . S
Gd1799 N1794 2.622 . S
Gd1799 N1800 2.570 . S
Gd1799 O1831 2.386 . S
Gd1799 O1835 2.307 . S
Gd1799 O1838 2.353 . S
Gd1799 O1839 2.468 . S
Gd1799 O1840 2.427 . S
Gd1799 O1842 2.388 . S
Gd1799 C1863 2.805 . S
N1800 C1790 1.359 . S
N1800 Gd1799 2.570 . S
N1800 C1802 1.343 . S
C1801 C1789 1.422 . S
C1801 C1803 1.321 . S
C1801 H1809 0.931 . S
C1802 N1800 1.343 . S
C1802 C1803 1.390 . S
C1802 H1804 0.931 . S
C1803 C1801 1.321 . S
C1803 C1802 1.390 . S
C1803 H1805 0.930 . S
H1804 C1802 0.931 . S
H1805 C1803 0.930 . S
H1806 C1829 0.931 . S
H1807 C1795 0.929 . S
H1808 C1830 0.930 . S
H1809 C1801 0.931 . S
H1810 C1791 0.930 . S
H1811 C1820 0.929 . S
H1812 C1796 0.931 . S
H1813 C1797 0.930 . S
H1814 C1852 0.930 . S
H1815 C1793 0.929 . S
H1816 C1821 0.931 . S
H1817 C1822 0.930 . S
N1818 Gd1798 2.622 . S
N1818 C1819 1.369 . S
N1818 C1820 1.338 . S
C1819 N1818 1.369 . S
C1819 C1823 1.415 . S
C1819 C1826 1.422 . S
C1820 H1811 0.929 . S
C1820 N1818 1.338 . S
C1820 C1822 1.378 . S
C1821 H1816 0.931 . S
C1821 C1822 1.348 . S
C1821 C1823 1.413 . S
C1822 H1817 0.930 . S
C1822 C1820 1.378 . S
C1822 C1821 1.348 . S
C1823 C1819 1.415 . S
C1823 C1821 1.413 . S
C1823 C1853 1.437 . S
H1824 C1853 0.929 . S
N1825 Gd1798 2.570 . S
N1825 C1826 1.359 . S
N1825 C1829 1.343 . S
C1826 C1819 1.422 . S
C1826 N1825 1.359 . S
C1826 C1828 1.421 . S
C1827 C1828 1.422 . S
C1827 C1830 1.321 . S
C1827 H1854 0.931 . S
C1828 C1826 1.421 . S
C1828 C1827 1.422 . S
C1828 C1852 1.417 . S
C1829 H1806 0.931 . S
C1829 N1825 1.343 . S
C1829 C1830 1.390 . S
C1830 H1808 0.930 . S
C1830 C1827 1.321 . S
C1830 C1829 1.390 . S
O1831 Gd1799 2.386 . S
O1831 C1843 1.265 . S
O1832 Gd1798 2.353 . S
O1832 C1843 1.242 . S
O1833 Gd1798 2.468 . S
O1833 C1851 1.263 . S
O1834 Gd1798 2.427 . S
O1834 C1851 1.252 . S
O1835 Gd1799 2.307 . S
O1835 C1844 1.261 . S
O1836 Gd1798 2.388 . S
O1836 C1844 1.252 . S
O1837 Gd1798 2.386 . S
O1837 C1855 1.265 . S
O1838 Gd1799 2.353 . S
O1838 C1855 1.242 . S
O1839 Gd1799 2.468 . S
O1839 C1863 1.263 . S
O1840 Gd1799 2.427 . S
O1840 C1863 1.252 . S
O1841 Gd1798 2.307 . S
O1841 C1856 1.261 . S
O1842 Gd1799 2.388 . S
O1842 C1856 1.252 . S
C1843 O1831 1.265 . S
C1843 O1832 1.242 . S
C1844 O1835 1.261 . S
C1844 O1836 1.252 . S
C1845 C1848 1.394 . S
C1845 C1850 1.370 . S
C1845 C1851 1.500 . S
C1846 C1849 1.383 . S
C1846 C1850 1.395 . S
C1847 C1848 1.396 . S
C1847 C1849 1.365 . S
C1847 H1864 0.929 . S
C1848 C1845 1.394 . S
C1848 C1847 1.396 . S
C1848 H1865 0.930 . S
C1849 C1846 1.383 . S
C1849 C1847 1.365 . S
C1849 H1866 0.931 . S
C1850 C1845 1.370 . S
C1850 C1846 1.395 . S
C1850 H1867 0.930 . S
C1851 Gd1798 2.805 . S
C1851 O1833 1.263 . S
C1851 O1834 1.252 . S
C1851 C1845 1.500 . S
C1852 H1814 0.930 . S
C1852 C1828 1.417 . S
C1852 C1853 1.329 . S
C1853 C1823 1.437 . S
C1853 H1824 0.929 . S
C1853 C1852 1.329 . S
H1854 C1827 0.931 . S
C1855 O1837 1.265 . S
C1855 O1838 1.242 . S
C1856 O1841 1.261 . S
C1856 O1842 1.252 . S
C1857 C1860 1.394 . S
C1857 C1862 1.370 . S
C1857 C1863 1.500 . S
C1858 C1861 1.383 . S
C1858 C1862 1.395 . S
C1859 C1860 1.396 . S
C1859 C1861 1.365 . S
C1859 H1868 0.929 . S
C1860 C1857 1.394 . S
C1860 C1859 1.396 . S
C1860 H1869 0.930 . S
C1861 C1858 1.383 . S
C1861 C1859 1.365 . S
C1861 H1870 0.931 . S
C1862 C1857 1.370 . S
C1862 C1858 1.395 . S
C1862 H1871 0.930 . S
C1863 Gd1799 2.805 . S
C1863 O1839 1.263 . S
C1863 O1840 1.252 . S
C1863 C1857 1.500 . S
H1864 C1847 0.929 . S
H1865 C1848 0.930 . S
H1866 C1849 0.931 . S
H1867 C1850 0.930 . S
H1868 C1859 0.929 . S
H1869 C1860 0.930 . S
H1870 C1861 0.931 . S
H1871 C1862 0.930 . S
C1872 C1874 1.422 . S
C1872 C1876 1.415 . S
C1872 N1878 1.369 . S
C1873 C1874 1.421 . S
C1873 C1875 1.417 . S
C1873 C1885 1.422 . S
C1874 C1872 1.422 . S
C1874 C1873 1.421 . S
C1874 N1884 1.359 . S
C1875 C1873 1.417 . S
C1875 C1877 1.329 . S
C1875 H1894 0.930 . S
C1876 C1872 1.415 . S
C1876 C1877 1.437 . S
C1876 C1880 1.413 . S
C1877 C1875 1.329 . S
C1877 C1876 1.437 . S
C1877 H1899 0.929 . S
N1878 C1872 1.369 . S
N1878 C1879 1.338 . S
N1878 Gd1883 2.622 . S
C1879 N1878 1.338 . S
C1879 C1881 1.378 . S
C1879 H1891 0.929 . S
C1880 C1876 1.413 . S
C1880 C1881 1.348 . S
C1880 H1896 0.931 . S
C1881 C1879 1.378 . S
C1881 C1880 1.348 . S
C1881 H1897 0.930 . S
Gd1882 N1902 2.622 . S
Gd1882 N1909 2.570 . S
Gd1882 O1916 2.353 . S
Gd1882 O1917 2.468 . S
Gd1882 O1918 2.427 . S
Gd1882 O1920 2.388 . S
Gd1882 O1921 2.386 . S
Gd1882 O1925 2.307 . S
Gd1882 C1935 2.805 . S
Gd1883 N1878 2.622 . S
Gd1883 N1884 2.570 . S
Gd1883 O1915 2.386 . S
Gd1883 O1919 2.307 . S
Gd1883 O1922 2.353 . S
Gd1883 O1923 2.468 . S
Gd1883 O1924 2.427 . S
Gd1883 O1926 2.388 . S
Gd1883 C1947 2.805 . S
N1884 C1874 1.359 . S
N1884 Gd1883 2.570 . S
N1884 C1886 1.343 . S
C1885 C1873 1.422 . S
C1885 C1887 1.321 . S
C1885 H1893 0.931 . S
C1886 N1884 1.343 . S
C1886 C1887 1.390 . S
C1886 H1888 0.931 . S
C1887 C1885 1.321 . S
C1887 C1886 1.390 . S
C1887 H1889 0.930 . S
H1888 C1886 0.931 . S
H1889 C1887 0.930 . S
H1890 C1913 0.931 . S
H1891 C1879 0.929 . S
H1892 C1914 0.930 . S
H1893 C1885 0.931 . S
H1894 C1875 0.930 . S
H1895 C1904 0.929 . S
H1896 C1880 0.931 . S
H1897 C1881 0.930 . S
H1898 C1936 0.930 . S
H1899 C1877 0.929 . S
H1900 C1905 0.931 . S
H1901 C1906 0.930 . S
N1902 Gd1882 2.622 . S
N1902 C1903 1.369 . S
N1902 C1904 1.338 . S
C1903 N1902 1.369 . S
C1903 C1907 1.415 . S
C1903 C1910 1.422 . S
C1904 H1895 0.929 . S
C1904 N1902 1.338 . S
C1904 C1906 1.378 . S
C1905 H1900 0.931 . S
C1905 C1906 1.348 . S
C1905 C1907 1.413 . S
C1906 H1901 0.930 . S
C1906 C1904 1.378 . S
C1906 C1905 1.348 . S
C1907 C1903 1.415 . S
C1907 C1905 1.413 . S
C1907 C1937 1.437 . S
H1908 C1937 0.929 . S
N1909 Gd1882 2.570 . S
N1909 C1910 1.359 . S
N1909 C1913 1.343 . S
C1910 C1903 1.422 . S
C1910 N1909 1.359 . S
C1910 C1912 1.421 . S
C1911 C1912 1.422 . S
C1911 C1914 1.321 . S
C1911 H1938 0.931 . S
C1912 C1910 1.421 . S
C1912 C1911 1.422 . S
C1912 C1936 1.417 . S
C1913 H1890 0.931 . S
C1913 N1909 1.343 . S
C1913 C1914 1.390 . S
C1914 H1892 0.930 . S
C1914 C1911 1.321 . S
C1914 C1913 1.390 . S
O1915 Gd1883 2.386 . S
O1915 C1927 1.265 . S
O1916 Gd1882 2.353 . S
O1916 C1927 1.242 . S
O1917 Gd1882 2.468 . S
O1917 C1935 1.263 . S
O1918 Gd1882 2.427 . S
O1918 C1935 1.252 . S
O1919 Gd1883 2.307 . S
O1919 C1928 1.261 . S
O1920 Gd1882 2.388 . S
O1920 C1928 1.252 . S
O1921 Gd1882 2.386 . S
O1921 C1939 1.265 . S
O1922 Gd1883 2.353 . S
O1922 C1939 1.242 . S
O1923 Gd1883 2.468 . S
O1923 C1947 1.263 . S
O1924 Gd1883 2.427 . S
O1924 C1947 1.252 . S
O1925 Gd1882 2.307 . S
O1925 C1940 1.261 . S
O1926 Gd1883 2.388 . S
O1926 C1940 1.252 . S
C1927 O1915 1.265 . S
C1927 O1916 1.242 . S
C1928 O1919 1.261 . S
C1928 O1920 1.252 . S
C1929 C1932 1.394 . S
C1929 C1934 1.370 . S
C1929 C1935 1.500 . S
C1930 C1933 1.383 . S
C1930 C1934 1.395 . S
C1931 C1932 1.396 . S
C1931 C1933 1.365 . S
C1931 H1948 0.929 . S
C1932 C1929 1.394 . S
C1932 C1931 1.396 . S
C1932 H1949 0.930 . S
C1933 C1930 1.383 . S
C1933 C1931 1.365 . S
C1933 H1950 0.931 . S
C1934 C1929 1.370 . S
C1934 C1930 1.395 . S
C1934 H1951 0.930 . S
C1935 Gd1882 2.805 . S
C1935 O1917 1.263 . S
C1935 O1918 1.252 . S
C1935 C1929 1.500 . S
C1936 H1898 0.930 . S
C1936 C1912 1.417 . S
C1936 C1937 1.329 . S
C1937 C1907 1.437 . S
C1937 H1908 0.929 . S
C1937 C1936 1.329 . S
H1938 C1911 0.931 . S
C1939 O1921 1.265 . S
C1939 O1922 1.242 . S
C1940 O1925 1.261 . S
C1940 O1926 1.252 . S
C1941 C1944 1.394 . S
C1941 C1946 1.370 . S
C1941 C1947 1.500 . S
C1942 C1945 1.383 . S
C1942 C1946 1.395 . S
C1943 C1944 1.396 . S
C1943 C1945 1.365 . S
C1943 H1952 0.929 . S
C1944 C1941 1.394 . S
C1944 C1943 1.396 . S
C1944 H1953 0.930 . S
C1945 C1942 1.383 . S
C1945 C1943 1.365 . S
C1945 H1954 0.931 . S
C1946 C1941 1.370 . S
C1946 C1942 1.395 . S
C1946 H1955 0.930 . S
C1947 Gd1883 2.805 . S
C1947 O1923 1.263 . S
C1947 O1924 1.252 . S
C1947 C1941 1.500 . S
H1948 C1931 0.929 . S
H1949 C1932 0.930 . S
H1950 C1933 0.931 . S
H1951 C1934 0.930 . S
H1952 C1943 0.929 . S
H1953 C1944 0.930 . S
H1954 C1945 0.931 . S
H1955 C1946 0.930 . S
C1956 C1958 1.422 . S
C1956 C1960 1.415 . S
C1956 N1962 1.369 . S
C1957 C1958 1.421 . S
C1957 C1959 1.417 . S
C1957 C1969 1.422 . S
C1958 C1956 1.422 . S
C1958 C1957 1.421 . S
C1958 N1968 1.359 . S
C1959 C1957 1.417 . S
C1959 C1961 1.329 . S
C1959 H1978 0.930 . S
C1960 C1956 1.415 . S
C1960 C1961 1.437 . S
C1960 C1964 1.413 . S
C1961 C1959 1.329 . S
C1961 C1960 1.437 . S
C1961 H1983 0.929 . S
N1962 C1956 1.369 . S
N1962 C1963 1.338 . S
N1962 Gd1967 2.622 . S
C1963 N1962 1.338 . S
C1963 C1965 1.378 . S
C1963 H1975 0.929 . S
C1964 C1960 1.413 . S
C1964 C1965 1.348 . S
C1964 H1980 0.931 . S
C1965 C1963 1.378 . S
C1965 C1964 1.348 . S
C1965 H1981 0.930 . S
Gd1966 N1986 2.622 . S
Gd1966 N1993 2.570 . S
Gd1966 O2000 2.353 . S
Gd1966 O2001 2.468 . S
Gd1966 O2002 2.427 . S
Gd1966 O2004 2.388 . S
Gd1966 O2005 2.386 . S
Gd1966 O2009 2.307 . S
Gd1966 C2019 2.805 . S
Gd1967 N1962 2.622 . S
Gd1967 N1968 2.570 . S
Gd1967 O1999 2.386 . S
Gd1967 O2003 2.307 . S
Gd1967 O2006 2.353 . S
Gd1967 O2007 2.468 . S
Gd1967 O2008 2.427 . S
Gd1967 O2010 2.388 . S
Gd1967 C2031 2.805 . S
N1968 C1958 1.359 . S
N1968 Gd1967 2.570 . S
N1968 C1970 1.343 . S
C1969 C1957 1.422 . S
C1969 C1971 1.321 . S
C1969 H1977 0.931 . S
C1970 N1968 1.343 . S
C1970 C1971 1.390 . S
C1970 H1972 0.931 . S
C1971 C1969 1.321 . S
C1971 C1970 1.390 . S
C1971 H1973 0.930 . S
H1972 C1970 0.931 . S
H1973 C1971 0.930 . S
H1974 C1997 0.931 . S
H1975 C1963 0.929 . S
H1976 C1998 0.930 . S
H1977 C1969 0.931 . S
H1978 C1959 0.930 . S
H1979 C1988 0.929 . S
H1980 C1964 0.931 . S
H1981 C1965 0.930 . S
H1982 C2020 0.930 . S
H1983 C1961 0.929 . S
H1984 C1989 0.931 . S
H1985 C1990 0.930 . S
N1986 Gd1966 2.622 . S
N1986 C1987 1.369 . S
N1986 C1988 1.338 . S
C1987 N1986 1.369 . S
C1987 C1991 1.415 . S
C1987 C1994 1.422 . S
C1988 H1979 0.929 . S
C1988 N1986 1.338 . S
C1988 C1990 1.378 . S
C1989 H1984 0.931 . S
C1989 C1990 1.348 . S
C1989 C1991 1.413 . S
C1990 H1985 0.930 . S
C1990 C1988 1.378 . S
C1990 C1989 1.348 . S
C1991 C1987 1.415 . S
C1991 C1989 1.413 . S
C1991 C2021 1.437 . S
H1992 C2021 0.929 . S
N1993 Gd1966 2.570 . S
N1993 C1994 1.359 . S
N1993 C1997 1.343 . S
C1994 C1987 1.422 . S
C1994 N1993 1.359 . S
C1994 C1996 1.421 . S
C1995 C1996 1.422 . S
C1995 C1998 1.321 . S
C1995 H2022 0.931 . S
C1996 C1994 1.421 . S
C1996 C1995 1.422 . S
C1996 C2020 1.417 . S
C1997 H1974 0.931 . S
C1997 N1993 1.343 . S
C1997 C1998 1.390 . S
C1998 H1976 0.930 . S
C1998 C1995 1.321 . S
C1998 C1997 1.390 . S
O1999 Gd1967 2.386 . S
O1999 C2011 1.265 . S
O2000 Gd1966 2.353 . S
O2000 C2011 1.242 . S
O2001 Gd1966 2.468 . S
O2001 C2019 1.263 . S
O2002 Gd1966 2.427 . S
O2002 C2019 1.252 . S
O2003 Gd1967 2.307 . S
O2003 C2012 1.261 . S
O2004 Gd1966 2.388 . S
O2004 C2012 1.252 . S
O2005 Gd1966 2.386 . S
O2005 C2023 1.265 . S
O2006 Gd1967 2.353 . S
O2006 C2023 1.242 . S
O2007 Gd1967 2.468 . S
O2007 C2031 1.263 . S
O2008 Gd1967 2.427 . S
O2008 C2031 1.252 . S
O2009 Gd1966 2.307 . S
O2009 C2024 1.261 . S
O2010 Gd1967 2.388 . S
O2010 C2024 1.252 . S
C2011 O1999 1.265 . S
C2011 O2000 1.242 . S
C2012 O2003 1.261 . S
C2012 O2004 1.252 . S
C2013 C2016 1.394 . S
C2013 C2018 1.370 . S
C2013 C2019 1.500 . S
C2014 C2017 1.383 . S
C2014 C2018 1.395 . S
C2015 C2016 1.396 . S
C2015 C2017 1.365 . S
C2015 H2032 0.929 . S
C2016 C2013 1.394 . S
C2016 C2015 1.396 . S
C2016 H2033 0.930 . S
C2017 C2014 1.383 . S
C2017 C2015 1.365 . S
C2017 H2034 0.931 . S
C2018 C2013 1.370 . S
C2018 C2014 1.395 . S
C2018 H2035 0.930 . S
C2019 Gd1966 2.805 . S
C2019 O2001 1.263 . S
C2019 O2002 1.252 . S
C2019 C2013 1.500 . S
C2020 H1982 0.930 . S
C2020 C1996 1.417 . S
C2020 C2021 1.329 . S
C2021 C1991 1.437 . S
C2021 H1992 0.929 . S
C2021 C2020 1.329 . S
H2022 C1995 0.931 . S
C2023 O2005 1.265 . S
C2023 O2006 1.242 . S
C2024 O2009 1.261 . S
C2024 O2010 1.252 . S
C2025 C2028 1.394 . S
C2025 C2030 1.370 . S
C2025 C2031 1.500 . S
C2026 C2029 1.383 . S
C2026 C2030 1.395 . S
C2027 C2028 1.396 . S
C2027 C2029 1.365 . S
C2027 H2036 0.929 . S
C2028 C2025 1.394 . S
C2028 C2027 1.396 . S
C2028 H2037 0.930 . S
C2029 C2026 1.383 . S
C2029 C2027 1.365 . S
C2029 H2038 0.931 . S
C2030 C2025 1.370 . S
C2030 C2026 1.395 . S
C2030 H2039 0.930 . S
C2031 Gd1967 2.805 . S
C2031 O2007 1.263 . S
C2031 O2008 1.252 . S
C2031 C2025 1.500 . S
H2032 C2015 0.929 . S
H2033 C2016 0.930 . S
H2034 C2017 0.931 . S
H2035 C2018 0.930 . S
H2036 C2027 0.929 . S
H2037 C2028 0.930 . S
H2038 C2029 0.931 . S
H2039 C2030 0.930 . S
C2040 C2042 1.422 . S
C2040 C2044 1.415 . S
C2040 N2046 1.369 . S
C2041 C2042 1.421 . S
C2041 C2043 1.417 . S
C2041 C2053 1.422 . S
C2042 C2040 1.422 . S
C2042 C2041 1.421 . S
C2042 N2052 1.359 . S
C2043 C2041 1.417 . S
C2043 C2045 1.329 . S
C2043 H2062 0.930 . S
C2044 C2040 1.415 . S
C2044 C2045 1.437 . S
C2044 C2048 1.413 . S
C2045 C2043 1.329 . S
C2045 C2044 1.437 . S
C2045 H2067 0.929 . S
N2046 C2040 1.369 . S
N2046 C2047 1.338 . S
N2046 Gd2051 2.622 . S
C2047 N2046 1.338 . S
C2047 C2049 1.378 . S
C2047 H2059 0.929 . S
C2048 C2044 1.413 . S
C2048 C2049 1.348 . S
C2048 H2064 0.931 . S
C2049 C2047 1.378 . S
C2049 C2048 1.348 . S
C2049 H2065 0.930 . S
Gd2050 N2070 2.622 . S
Gd2050 N2077 2.570 . S
Gd2050 O2084 2.353 . S
Gd2050 O2085 2.468 . S
Gd2050 O2086 2.427 . S
Gd2050 O2088 2.388 . S
Gd2050 O2089 2.386 . S
Gd2050 O2093 2.307 . S
Gd2050 C2103 2.805 . S
Gd2051 N2046 2.622 . S
Gd2051 N2052 2.570 . S
Gd2051 O2083 2.386 . S
Gd2051 O2087 2.307 . S
Gd2051 O2090 2.353 . S
Gd2051 O2091 2.468 . S
Gd2051 O2092 2.427 . S
Gd2051 O2094 2.388 . S
Gd2051 C2115 2.805 . S
N2052 C2042 1.359 . S
N2052 Gd2051 2.570 . S
N2052 C2054 1.343 . S
C2053 C2041 1.422 . S
C2053 C2055 1.321 . S
C2053 H2061 0.931 . S
C2054 N2052 1.343 . S
C2054 C2055 1.390 . S
C2054 H2056 0.931 . S
C2055 C2053 1.321 . S
C2055 C2054 1.390 . S
C2055 H2057 0.930 . S
H2056 C2054 0.931 . S
H2057 C2055 0.930 . S
H2058 C2081 0.931 . S
H2059 C2047 0.929 . S
H2060 C2082 0.930 . S
H2061 C2053 0.931 . S
H2062 C2043 0.930 . S
H2063 C2072 0.929 . S
H2064 C2048 0.931 . S
H2065 C2049 0.930 . S
H2066 C2104 0.930 . S
H2067 C2045 0.929 . S
H2068 C2073 0.931 . S
H2069 C2074 0.930 . S
N2070 Gd2050 2.622 . S
N2070 C2071 1.369 . S
N2070 C2072 1.338 . S
C2071 N2070 1.369 . S
C2071 C2075 1.415 . S
C2071 C2078 1.422 . S
C2072 H2063 0.929 . S
C2072 N2070 1.338 . S
C2072 C2074 1.378 . S
C2073 H2068 0.931 . S
C2073 C2074 1.348 . S
C2073 C2075 1.413 . S
C2074 H2069 0.930 . S
C2074 C2072 1.378 . S
C2074 C2073 1.348 . S
C2075 C2071 1.415 . S
C2075 C2073 1.413 . S
C2075 C2105 1.437 . S
H2076 C2105 0.929 . S
N2077 Gd2050 2.570 . S
N2077 C2078 1.359 . S
N2077 C2081 1.343 . S
C2078 C2071 1.422 . S
C2078 N2077 1.359 . S
C2078 C2080 1.421 . S
C2079 C2080 1.422 . S
C2079 C2082 1.321 . S
C2079 H2106 0.931 . S
C2080 C2078 1.421 . S
C2080 C2079 1.422 . S
C2080 C2104 1.417 . S
C2081 H2058 0.931 . S
C2081 N2077 1.343 . S
C2081 C2082 1.390 . S
C2082 H2060 0.930 . S
C2082 C2079 1.321 . S
C2082 C2081 1.390 . S
O2083 Gd2051 2.386 . S
O2083 C2095 1.265 . S
O2084 Gd2050 2.353 . S
O2084 C2095 1.242 . S
O2085 Gd2050 2.468 . S
O2085 C2103 1.263 . S
O2086 Gd2050 2.427 . S
O2086 C2103 1.252 . S
O2087 Gd2051 2.307 . S
O2087 C2096 1.261 . S
O2088 Gd2050 2.388 . S
O2088 C2096 1.252 . S
O2089 Gd2050 2.386 . S
O2089 C2107 1.265 . S
O2090 Gd2051 2.353 . S
O2090 C2107 1.242 . S
O2091 Gd2051 2.468 . S
O2091 C2115 1.263 . S
O2092 Gd2051 2.427 . S
O2092 C2115 1.252 . S
O2093 Gd2050 2.307 . S
O2093 C2108 1.261 . S
O2094 Gd2051 2.388 . S
O2094 C2108 1.252 . S
C2095 O2083 1.265 . S
C2095 O2084 1.242 . S
C2096 O2087 1.261 . S
C2096 O2088 1.252 . S
C2097 C2100 1.394 . S
C2097 C2102 1.370 . S
C2097 C2103 1.500 . S
C2098 C2101 1.383 . S
C2098 C2102 1.395 . S
C2099 C2100 1.396 . S
C2099 C2101 1.365 . S
C2099 H2116 0.929 . S
C2100 C2097 1.394 . S
C2100 C2099 1.396 . S
C2100 H2117 0.930 . S
C2101 C2098 1.383 . S
C2101 C2099 1.365 . S
C2101 H2118 0.931 . S
C2102 C2097 1.370 . S
C2102 C2098 1.395 . S
C2102 H2119 0.930 . S
C2103 Gd2050 2.805 . S
C2103 O2085 1.263 . S
C2103 O2086 1.252 . S
C2103 C2097 1.500 . S
C2104 H2066 0.930 . S
C2104 C2080 1.417 . S
C2104 C2105 1.329 . S
C2105 C2075 1.437 . S
C2105 H2076 0.929 . S
C2105 C2104 1.329 . S
H2106 C2079 0.931 . S
C2107 O2089 1.265 . S
C2107 O2090 1.242 . S
C2108 O2093 1.261 . S
C2108 O2094 1.252 . S
C2109 C2112 1.394 . S
C2109 C2114 1.370 . S
C2109 C2115 1.500 . S
C2110 C2113 1.383 . S
C2110 C2114 1.395 . S
C2111 C2112 1.396 . S
C2111 C2113 1.365 . S
C2111 H2120 0.929 . S
C2112 C2109 1.394 . S
C2112 C2111 1.396 . S
C2112 H2121 0.930 . S
C2113 C2110 1.383 . S
C2113 C2111 1.365 . S
C2113 H2122 0.931 . S
C2114 C2109 1.370 . S
C2114 C2110 1.395 . S
C2114 H2123 0.930 . S
C2115 Gd2051 2.805 . S
C2115 O2091 1.263 . S
C2115 O2092 1.252 . S
C2115 C2109 1.500 . S
H2116 C2099 0.929 . S
H2117 C2100 0.930 . S
H2118 C2101 0.931 . S
H2119 C2102 0.930 . S
H2120 C2111 0.929 . S
H2121 C2112 0.930 . S
H2122 C2113 0.931 . S
H2123 C2114 0.930 . S
C2124 C2126 1.422 1_556 S
C2124 C2128 1.415 . S
C2124 N2130 1.369 . S
C2125 C2126 1.421 . S
C2125 C2127 1.417 . S
C2125 C2137 1.422 . S
C2126 C2124 1.422 1_554 S
C2126 C2125 1.421 . S
C2126 N2136 1.359 . S
C2127 C2125 1.417 . S
C2127 C2129 1.329 1_554 S
C2127 H2146 0.930 . S
C2128 C2124 1.415 . S
C2128 C2129 1.437 . S
C2128 C2132 1.413 . S
C2129 C2127 1.329 1_556 S
C2129 C2128 1.437 . S
C2129 H2151 0.929 . S
N2130 C2124 1.369 . S
N2130 C2131 1.338 . S
N2130 Gd2135 2.622 1_556 S
C2131 N2130 1.338 . S
C2131 C2133 1.378 . S
C2131 H2143 0.929 . S
C2132 C2128 1.413 . S
C2132 C2133 1.348 . S
C2132 H2148 0.931 . S
C2133 C2131 1.378 . S
C2133 C2132 1.348 . S
C2133 H2149 0.930 . S
Gd2134 N2154 2.610 1_455 S
Gd2134 N2161 2.544 1_455 S
Gd2134 O2168 2.366 . S
Gd2134 O2169 2.432 1_455 S
Gd2134 O2170 2.397 1_455 S
Gd2134 O2172 2.417 . S
Gd2134 O2173 2.409 . S
Gd2134 O2177 2.316 . S
Gd2134 C2187 2.769 1_455 S
Gd2135 N2130 2.622 1_554 S
Gd2135 N2136 2.570 . S
Gd2135 O2167 2.386 . S
Gd2135 O2171 2.307 . S
Gd2135 O2174 2.353 . S
Gd2135 O2175 2.468 . S
Gd2135 O2176 2.427 1_554 S
Gd2135 O2178 2.388 1_554 S
Gd2135 C2199 2.805 . S
N2136 C2126 1.359 . S
N2136 Gd2135 2.570 . S
N2136 C2138 1.343 . S
C2137 C2125 1.422 . S
C2137 C2139 1.321 . S
C2137 H2145 0.931 . S
C2138 N2136 1.343 . S
C2138 C2139 1.390 . S
C2138 H2140 0.931 . S
C2139 C2137 1.321 . S
C2139 C2138 1.390 . S
C2139 H2141 0.930 . S
H2140 C2138 0.931 . S
H2141 C2139 0.930 . S
H2142 C2165 0.931 1_556 S
H2143 C2131 0.929 . S
H2144 C2166 0.930 . S
H2145 C2137 0.931 . S
H2146 C2127 0.930 . S
H2147 C2156 0.929 1_455 S
H2148 C2132 0.931 . S
H2149 C2133 0.930 . S
H2150 C2188 0.930 . S
H2151 C2129 0.929 . S
H2152 C2157 0.931 . S
H2153 C2158 0.930 . S
N2154 Gd2134 2.610 1_655 S
N2154 C2155 1.369 . S
N2154 C2156 1.338 . S
C2155 N2154 1.369 . S
C2155 C2159 1.415 . S
C2155 C2162 1.422 . S
C2156 H2147 0.929 1_655 S
C2156 N2154 1.338 . S
C2156 C2158 1.378 . S
C2157 H2152 0.931 . S
C2157 C2158 1.348 . S
C2157 C2159 1.413 . S
C2158 H2153 0.930 . S
C2158 C2156 1.378 . S
C2158 C2157 1.348 . S
C2159 C2155 1.415 . S
C2159 C2157 1.413 . S
C2159 C2189 1.437 . S
H2160 C2189 0.929 . S
N2161 Gd2134 2.544 1_655 S
N2161 C2162 1.359 . S
N2161 C2165 1.343 . S
C2162 C2155 1.422 . S
C2162 N2161 1.359 . S
C2162 C2164 1.421 . S
C2163 C2164 1.422 . S
C2163 C2166 1.321 1_554 S
C2163 H2190 0.931 . S
C2164 C2162 1.421 . S
C2164 C2163 1.422 . S
C2164 C2188 1.417 . S
C2165 H2142 0.931 1_554 S
C2165 N2161 1.343 . S
C2165 C2166 1.390 1_554 S
C2166 H2144 0.930 . S
C2166 C2163 1.321 1_556 S
C2166 C2165 1.390 1_556 S
O2167 Gd2135 2.386 . S
O2167 C2179 1.265 . S
O2168 Gd2134 2.366 . S
O2168 C2179 1.242 . S
O2169 Gd2134 2.432 1_655 S
O2169 C2187 1.263 . S
O2170 Gd2134 2.397 1_655 S
O2170 C2187 1.252 . S
O2171 Gd2135 2.307 . S
O2171 C2180 1.261 . S
O2172 Gd2134 2.417 . S
O2172 C2180 1.252 . S
O2173 Gd2134 2.409 . S
O2173 C2191 1.265 . S
O2174 Gd2135 2.353 . S
O2174 C2191 1.242 . S
O2175 Gd2135 2.468 . S
O2175 C2199 1.263 . S
O2176 Gd2135 2.427 1_556 S
O2176 C2199 1.252 1_556 S
O2177 Gd2134 2.316 . S
O2177 C2192 1.261 1_554 S
O2178 Gd2135 2.388 1_556 S
O2178 C2192 1.252 . S
C2179 O2167 1.265 . S
C2179 O2168 1.242 . S
C2180 O2171 1.261 . S
C2180 O2172 1.252 . S
C2181 C2184 1.394 . S
C2181 C2186 1.370 . S
C2181 C2187 1.500 . S
C2182 C2185 1.383 . S
C2182 C2186 1.395 . S
C2183 C2184 1.396 . S
C2183 C2185 1.365 . S
C2183 H2200 0.929 . S
C2184 C2181 1.394 . S
C2184 C2183 1.396 . S
C2184 H2201 0.930 . S
C2185 C2182 1.383 . S
C2185 C2183 1.365 . S
C2185 H2202 0.931 . S
C2186 C2181 1.370 . S
C2186 C2182 1.395 . S
C2186 H2203 0.930 . S
C2187 Gd2134 2.769 1_655 S
C2187 O2169 1.263 . S
C2187 O2170 1.252 . S
C2187 C2181 1.500 . S
C2188 H2150 0.930 . S
C2188 C2164 1.417 . S
C2188 C2189 1.329 . S
C2189 C2159 1.437 . S
C2189 H2160 0.929 . S
C2189 C2188 1.329 . S
H2190 C2163 0.931 . S
C2191 O2173 1.265 . S
C2191 O2174 1.242 . S
C2192 O2177 1.261 1_556 S
C2192 O2178 1.252 . S
C2193 C2196 1.394 . S
C2193 C2198 1.370 1_556 S
C2193 C2199 1.500 1_556 S
C2194 C2197 1.383 1_554 S
C2194 C2198 1.395 . S
C2195 C2196 1.396 . S
C2195 C2197 1.365 . S
C2195 H2204 0.929 . S
C2196 C2193 1.394 . S
C2196 C2195 1.396 . S
C2196 H2205 0.930 . S
C2197 C2194 1.383 1_556 S
C2197 C2195 1.365 . S
C2197 H2206 0.931 . S
C2198 C2193 1.370 1_554 S
C2198 C2194 1.395 . S
C2198 H2207 0.930 . S
C2199 Gd2135 2.805 . S
C2199 O2175 1.263 . S
C2199 O2176 1.252 1_554 S
C2199 C2193 1.500 1_554 S
H2200 C2183 0.929 . S
H2201 C2184 0.930 . S
H2202 C2185 0.931 . S
H2203 C2186 0.930 . S
H2204 C2195 0.929 . S
H2205 C2196 0.930 . S
H2206 C2197 0.931 . S
H2207 C2198 0.930 . S
C2208 C2209 1.349 1_455 S
C2208 C2210 1.327 . S
C2208 H2233 0.950 . S
C2209 C2208 1.349 1_655 S
C2209 C2225 1.349 . S
C2210 C2208 1.327 . S
C2210 C2229 1.429 . S
C2210 H2234 0.950 . S
C2211 C2228 1.594 . S
C2211 C2230 1.368 1_655 S
C2211 H2235 0.949 . S
H2212 C2216 0.949 . S
C2213 C2214 1.349 . S
C2213 C2215 1.327 . S
C2213 H2236 0.950 . S
C2214 C2213 1.349 . S
C2214 C2226 1.349 1_554 S
C2215 C2213 1.327 . S
C2215 C2231 1.429 1_554 S
C2215 H2237 0.950 1_455 S
C2216 H2212 0.949 . S
C2216 C2224 1.574 . S
C2216 C2232 1.368 . S
H2217 C2225 0.950 . S
H2218 C2223 0.950 . S
H2219 C2224 0.949 . S
H2220 C2226 0.950 . S
H2221 C2227 0.950 . S
H2222 C2228 0.915 1_554 S
C2223 H2218 0.950 . S
C2223 C2225 1.327 . S
C2223 C2229 1.429 1_655 S
C2224 C2216 1.574 . S
C2224 H2219 0.949 . S
C2224 C2230 1.368 . S
C2225 C2209 1.349 . S
C2225 H2217 0.950 . S
C2225 C2223 1.327 . S
C2226 C2214 1.349 1_556 S
C2226 H2220 0.950 . S
C2226 C2227 1.327 . S
C2227 H2221 0.950 . S
C2227 C2226 1.327 . S
C2227 C2231 1.429 . S
C2228 C2211 1.594 . S
C2228 H2222 0.915 1_556 S
C2228 C2232 1.387 1_655 S
C2229 C2210 1.429 . S
C2229 C2223 1.429 1_455 S
C2229 C2230 1.523 . S
C2230 C2211 1.368 1_455 S
C2230 C2224 1.368 . S
C2230 C2229 1.523 . S
C2231 C2215 1.429 1_556 S
C2231 C2227 1.429 . S
C2231 C2232 1.523 . S
C2232 C2216 1.368 . S
C2232 C2228 1.387 1_455 S
C2232 C2231 1.523 . S
H2233 C2208 0.950 . S
H2234 C2210 0.950 . S
H2235 C2211 0.949 . S
H2236 C2213 0.950 . S
H2237 C2215 0.950 1_655 S
C2238 C2239 1.349 . S
C2238 C2240 1.327 . S
C2238 H2263 0.950 . S
C2239 C2238 1.349 . S
C2239 C2255 1.349 . S
C2240 C2238 1.327 . S
C2240 C2259 1.429 . S
C2240 H2264 0.950 . S
C2241 C2258 1.574 . S
C2241 C2260 1.368 . S
C2241 H2265 0.949 . S
H2242 C2246 0.949 . S
C2243 C2244 1.349 . S
C2243 C2245 1.327 . S
C2243 H2266 0.950 . S
C2244 C2243 1.349 . S
C2244 C2256 1.349 . S
C2245 C2243 1.327 . S
C2245 C2261 1.429 . S
C2245 H2267 0.950 . S
C2246 H2242 0.949 . S
C2246 C2254 1.574 . S
C2246 C2262 1.368 . S
H2247 C2255 0.950 . S
H2248 C2253 0.950 . S
H2249 C2254 0.949 . S
H2250 C2256 0.950 . S
H2251 C2257 0.950 . S
H2252 C2258 0.949 . S
C2253 H2248 0.950 . S
C2253 C2255 1.327 . S
C2253 C2259 1.429 . S
C2254 C2246 1.574 . S
C2254 H2249 0.949 . S
C2254 C2260 1.368 . S
C2255 C2239 1.349 . S
C2255 H2247 0.950 . S
C2255 C2253 1.327 . S
C2256 C2244 1.349 . S
C2256 H2250 0.950 . S
C2256 C2257 1.327 . S
C2257 H2251 0.950 . S
C2257 C2256 1.327 . S
C2257 C2261 1.429 . S
C2258 C2241 1.574 . S
C2258 H2252 0.949 . S
C2258 C2262 1.368 . S
C2259 C2240 1.429 . S
C2259 C2253 1.429 . S
C2259 C2260 1.523 . S
C2260 C2241 1.368 . S
C2260 C2254 1.368 . S
C2260 C2259 1.523 . S
C2261 C2245 1.429 . S
C2261 C2257 1.429 . S
C2261 C2262 1.523 . S
C2262 C2246 1.368 . S
C2262 C2258 1.368 . S
C2262 C2261 1.523 . S
H2263 C2238 0.950 . S
H2264 C2240 0.950 . S
H2265 C2241 0.949 . S
H2266 C2243 0.950 . S
H2267 C2245 0.950 . S
C2268 C2269 1.349 . S
C2268 C2270 1.327 . S
C2268 H2293 0.950 . S
C2269 C2268 1.349 . S
C2269 C2285 1.349 . S
C2270 C2268 1.327 . S
C2270 C2289 1.429 . S
C2270 H2294 0.950 . S
C2271 C2288 1.574 . S
C2271 C2290 1.368 . S
C2271 H2295 0.949 . S
H2272 C2276 0.949 . S
C2273 C2274 1.349 . S
C2273 C2275 1.327 . S
C2273 H2296 0.950 . S
C2274 C2273 1.349 . S
C2274 C2286 1.349 . S
C2275 C2273 1.327 . S
C2275 C2291 1.429 . S
C2275 H2297 0.950 . S
C2276 H2272 0.949 . S
C2276 C2284 1.574 . S
C2276 C2292 1.368 . S
H2277 C2285 0.950 . S
H2278 C2283 0.950 . S
H2279 C2284 0.949 . S
H2280 C2286 0.950 . S
H2281 C2287 0.950 . S
H2282 C2288 0.949 . S
C2283 H2278 0.950 . S
C2283 C2285 1.327 . S
C2283 C2289 1.429 . S
C2284 C2276 1.574 . S
C2284 H2279 0.949 . S
C2284 C2290 1.368 . S
C2285 C2269 1.349 . S
C2285 H2277 0.950 . S
C2285 C2283 1.327 . S
C2286 C2274 1.349 . S
C2286 H2280 0.950 . S
C2286 C2287 1.327 . S
C2287 H2281 0.950 . S
C2287 C2286 1.327 . S
C2287 C2291 1.429 . S
C2288 C2271 1.574 . S
C2288 H2282 0.949 . S
C2288 C2292 1.368 . S
C2289 C2270 1.429 . S
C2289 C2283 1.429 . S
C2289 C2290 1.523 . S
C2290 C2271 1.368 . S
C2290 C2284 1.368 . S
C2290 C2289 1.523 . S
C2291 C2275 1.429 . S
C2291 C2287 1.429 . S
C2291 C2292 1.523 . S
C2292 C2276 1.368 . S
C2292 C2288 1.368 . S
C2292 C2291 1.523 . S
H2293 C2268 0.950 . S
H2294 C2270 0.950 . S
H2295 C2271 0.949 . S
H2296 C2273 0.950 . S
H2297 C2275 0.950 . S
C2298 C2299 1.349 . S
C2298 C2300 1.327 . S
C2298 H2323 0.950 . S
C2299 C2298 1.349 . S
C2299 C2315 1.349 . S
C2300 C2298 1.327 . S
C2300 C2319 1.429 . S
C2300 H2324 0.950 . S
C2301 C2318 1.574 . S
C2301 C2320 1.368 . S
C2301 H2325 0.949 . S
H2302 C2306 0.949 . S
C2303 C2304 1.349 . S
C2303 C2305 1.327 . S
C2303 H2326 0.950 . S
C2304 C2303 1.349 . S
C2304 C2316 1.349 . S
C2305 C2303 1.327 . S
C2305 C2321 1.429 . S
C2305 H2327 0.950 . S
C2306 H2302 0.949 . S
C2306 C2314 1.574 . S
C2306 C2322 1.368 . S
H2307 C2315 0.950 . S
H2308 C2313 0.950 . S
H2309 C2314 0.949 . S
H2310 C2316 0.950 . S
H2311 C2317 0.950 . S
H2312 C2318 0.949 . S
C2313 H2308 0.950 . S
C2313 C2315 1.327 . S
C2313 C2319 1.429 . S
C2314 C2306 1.574 . S
C2314 H2309 0.949 . S
C2314 C2320 1.368 . S
C2315 C2299 1.349 . S
C2315 H2307 0.950 . S
C2315 C2313 1.327 . S
C2316 C2304 1.349 . S
C2316 H2310 0.950 . S
C2316 C2317 1.327 . S
C2317 H2311 0.950 . S
C2317 C2316 1.327 . S
C2317 C2321 1.429 . S
C2318 C2301 1.574 . S
C2318 H2312 0.949 . S
C2318 C2322 1.368 . S
C2319 C2300 1.429 . S
C2319 C2313 1.429 . S
C2319 C2320 1.523 . S
C2320 C2301 1.368 . S
C2320 C2314 1.368 . S
C2320 C2319 1.523 . S
C2321 C2305 1.429 . S
C2321 C2317 1.429 . S
C2321 C2322 1.523 . S
C2322 C2306 1.368 . S
C2322 C2318 1.368 . S
C2322 C2321 1.523 . S
H2323 C2298 0.950 . S
H2324 C2300 0.950 . S
H2325 C2301 0.949 . S
H2326 C2303 0.950 . S
H2327 C2305 0.950 . S
C2328 C2329 1.349 . S
C2328 C2330 1.327 . S
C2328 H2353 0.950 . S
C2329 C2328 1.349 . S
C2329 C2345 1.349 . S
C2330 C2328 1.327 . S
C2330 C2349 1.429 . S
C2330 H2354 0.950 . S
C2331 C2348 1.574 . S
C2331 C2350 1.368 . S
C2331 H2355 0.949 . S
H2332 C2336 0.949 . S
C2333 C2334 1.349 . S
C2333 C2335 1.327 . S
C2333 H2356 0.950 . S
C2334 C2333 1.349 . S
C2334 C2346 1.349 . S
C2335 C2333 1.327 . S
C2335 C2351 1.429 . S
C2335 H2357 0.950 . S
C2336 H2332 0.949 . S
C2336 C2344 1.574 . S
C2336 C2352 1.368 . S
H2337 C2345 0.950 . S
H2338 C2343 0.950 . S
H2339 C2344 0.949 . S
H2340 C2346 0.950 . S
H2341 C2347 0.950 . S
H2342 C2348 0.949 . S
C2343 H2338 0.950 . S
C2343 C2345 1.327 . S
C2343 C2349 1.429 . S
C2344 C2336 1.574 . S
C2344 H2339 0.949 . S
C2344 C2350 1.368 . S
C2345 C2329 1.349 . S
C2345 H2337 0.950 . S
C2345 C2343 1.327 . S
C2346 C2334 1.349 . S
C2346 H2340 0.950 . S
C2346 C2347 1.327 . S
C2347 H2341 0.950 . S
C2347 C2346 1.327 . S
C2347 C2351 1.429 . S
C2348 C2331 1.574 . S
C2348 H2342 0.949 . S
C2348 C2352 1.368 . S
C2349 C2330 1.429 . S
C2349 C2343 1.429 . S
C2349 C2350 1.523 . S
C2350 C2331 1.368 . S
C2350 C2344 1.368 . S
C2350 C2349 1.523 . S
C2351 C2335 1.429 . S
C2351 C2347 1.429 . S
C2351 C2352 1.523 . S
C2352 C2336 1.368 . S
C2352 C2348 1.368 . S
C2352 C2351 1.523 . S
H2353 C2328 0.950 . S
H2354 C2330 0.950 . S
H2355 C2331 0.949 . S
H2356 C2333 0.950 . S
H2357 C2335 0.950 . S
C2358 C2359 1.349 . S
C2358 C2360 1.327 . S
C2358 H2383 0.950 . S
C2359 C2358 1.349 . S
C2359 C2375 1.349 . S
C2360 C2358 1.327 . S
C2360 C2379 1.429 . S
C2360 H2384 0.950 . S
C2361 C2378 1.574 . S
C2361 C2380 1.368 . S
C2361 H2385 0.949 . S
H2362 C2366 0.949 . S
C2363 C2364 1.349 . S
C2363 C2365 1.327 . S
C2363 H2386 0.950 . S
C2364 C2363 1.349 . S
C2364 C2376 1.349 . S
C2365 C2363 1.327 . S
C2365 C2381 1.429 . S
C2365 H2387 0.950 . S
C2366 H2362 0.949 . S
C2366 C2374 1.574 . S
C2366 C2382 1.368 . S
H2367 C2375 0.950 . S
H2368 C2373 0.950 . S
H2369 C2374 0.949 . S
H2370 C2376 0.950 . S
H2371 C2377 0.950 . S
H2372 C2378 0.949 . S
C2373 H2368 0.950 . S
C2373 C2375 1.327 . S
C2373 C2379 1.429 . S
C2374 C2366 1.574 . S
C2374 H2369 0.949 . S
C2374 C2380 1.368 . S
C2375 C2359 1.349 . S
C2375 H2367 0.950 . S
C2375 C2373 1.327 . S
C2376 C2364 1.349 . S
C2376 H2370 0.950 . S
C2376 C2377 1.327 . S
C2377 H2371 0.950 . S
C2377 C2376 1.327 . S
C2377 C2381 1.429 . S
C2378 C2361 1.574 . S
C2378 H2372 0.949 . S
C2378 C2382 1.368 . S
C2379 C2360 1.429 . S
C2379 C2373 1.429 . S
C2379 C2380 1.523 . S
C2380 C2361 1.368 . S
C2380 C2374 1.368 . S
C2380 C2379 1.523 . S
C2381 C2365 1.429 . S
C2381 C2377 1.429 . S
C2381 C2382 1.523 . S
C2382 C2366 1.368 . S
C2382 C2378 1.368 . S
C2382 C2381 1.523 . S
H2383 C2358 0.950 . S
H2384 C2360 0.950 . S
H2385 C2361 0.949 . S
H2386 C2363 0.950 . S
H2387 C2365 0.950 . S
C2388 C2389 1.349 . S
C2388 C2390 1.327 . S
C2388 H2413 0.950 . S
C2389 C2388 1.349 . S
C2389 C2405 1.349 . S
C2390 C2388 1.327 . S
C2390 C2409 1.429 . S
C2390 H2414 0.950 . S
C2391 C2408 1.574 . S
C2391 C2410 1.368 . S
C2391 H2415 0.949 . S
H2392 C2396 0.949 . S
C2393 C2394 1.349 . S
C2393 C2395 1.327 . S
C2393 H2416 0.950 . S
C2394 C2393 1.349 . S
C2394 C2406 1.349 . S
C2395 C2393 1.327 . S
C2395 C2411 1.429 . S
C2395 H2417 0.950 . S
C2396 H2392 0.949 . S
C2396 C2404 1.574 . S
C2396 C2412 1.368 . S
H2397 C2405 0.950 . S
H2398 C2403 0.950 . S
H2399 C2404 0.949 . S
H2400 C2406 0.950 . S
H2401 C2407 0.950 . S
H2402 C2408 0.949 . S
C2403 H2398 0.950 . S
C2403 C2405 1.327 . S
C2403 C2409 1.429 . S
C2404 C2396 1.574 . S
C2404 H2399 0.949 . S
C2404 C2410 1.368 . S
C2405 C2389 1.349 . S
C2405 H2397 0.950 . S
C2405 C2403 1.327 . S
C2406 C2394 1.349 . S
C2406 H2400 0.950 . S
C2406 C2407 1.327 . S
C2407 H2401 0.950 . S
C2407 C2406 1.327 . S
C2407 C2411 1.429 . S
C2408 C2391 1.574 . S
C2408 H2402 0.949 . S
C2408 C2412 1.368 . S
C2409 C2390 1.429 . S
C2409 C2403 1.429 . S
C2409 C2410 1.523 . S
C2410 C2391 1.368 . S
C2410 C2404 1.368 . S
C2410 C2409 1.523 . S
C2411 C2395 1.429 . S
C2411 C2407 1.429 . S
C2411 C2412 1.523 . S
C2412 C2396 1.368 . S
C2412 C2408 1.368 . S
C2412 C2411 1.523 . S
H2413 C2388 0.950 . S
H2414 C2390 0.950 . S
H2415 C2391 0.949 . S
H2416 C2393 0.950 . S
H2417 C2395 0.950 . S
C2418 C2419 1.349 . S
C2418 C2420 1.327 . S
C2418 H2443 0.950 . S
C2419 C2418 1.349 . S
C2419 C2435 1.349 . S
C2420 C2418 1.327 . S
C2420 C2439 1.429 . S
C2420 H2444 0.950 . S
C2421 C2438 1.574 . S
C2421 C2440 1.368 . S
C2421 H2445 0.949 . S
H2422 C2426 0.949 . S
C2423 C2424 1.349 . S
C2423 C2425 1.327 . S
C2423 H2446 0.950 . S
C2424 C2423 1.349 . S
C2424 C2436 1.349 . S
C2425 C2423 1.327 . S
C2425 C2441 1.429 . S
C2425 H2447 0.950 . S
C2426 H2422 0.949 . S
C2426 C2434 1.574 . S
C2426 C2442 1.368 . S
H2427 C2435 0.950 . S
H2428 C2433 0.950 . S
H2429 C2434 0.949 . S
H2430 C2436 0.950 . S
H2431 C2437 0.950 . S
H2432 C2438 0.949 . S
C2433 H2428 0.950 . S
C2433 C2435 1.327 . S
C2433 C2439 1.429 . S
C2434 C2426 1.574 . S
C2434 H2429 0.949 . S
C2434 C2440 1.368 . S
C2435 C2419 1.349 . S
C2435 H2427 0.950 . S
C2435 C2433 1.327 . S
C2436 C2424 1.349 . S
C2436 H2430 0.950 . S
C2436 C2437 1.327 . S
C2437 H2431 0.950 . S
C2437 C2436 1.327 . S
C2437 C2441 1.429 . S
C2438 C2421 1.574 . S
C2438 H2432 0.949 . S
C2438 C2442 1.368 . S
C2439 C2420 1.429 . S
C2439 C2433 1.429 . S
C2439 C2440 1.523 . S
C2440 C2421 1.368 . S
C2440 C2434 1.368 . S
C2440 C2439 1.523 . S
C2441 C2425 1.429 . S
C2441 C2437 1.429 . S
C2441 C2442 1.523 . S
C2442 C2426 1.368 . S
C2442 C2438 1.368 . S
C2442 C2441 1.523 . S
H2443 C2418 0.950 . S
H2444 C2420 0.950 . S
H2445 C2421 0.949 . S
H2446 C2423 0.950 . S
H2447 C2425 0.950 . S
C2448 C2449 1.327 1_565 S
C2448 C2450 1.324 1_565 S
C2448 H2473 0.975 . S
C2449 C2448 1.327 1_545 S
C2449 C2465 1.349 . S
C2450 C2448 1.324 1_545 S
C2450 C2469 1.447 . S
C2450 H2474 0.933 1_545 S
C2451 C2468 1.574 . S
C2451 C2470 1.368 . S
C2451 H2475 0.949 . S
H2452 C2456 0.949 1_565 S
C2453 C2454 1.349 . S
C2453 C2455 1.330 . S
C2453 H2476 0.950 . S
C2454 C2453 1.349 . S
C2454 C2466 1.349 1_455 S
C2455 C2453 1.330 . S
C2455 C2471 1.426 1_455 S
C2455 H2477 0.950 . S
C2456 H2452 0.949 1_545 S
C2456 C2464 1.574 . S
C2456 C2472 1.368 . S
H2457 C2465 0.950 . S
H2458 C2463 0.950 . S
H2459 C2464 0.949 1_565 S
H2460 C2466 0.961 . S
H2461 C2467 0.950 1_565 S
H2462 C2468 0.949 . S
C2463 H2458 0.950 . S
C2463 C2465 1.327 . S
C2463 C2469 1.429 . S
C2464 C2456 1.574 . S
C2464 H2459 0.949 1_545 S
C2464 C2470 1.368 . S
C2465 C2449 1.349 . S
C2465 H2457 0.950 . S
C2465 C2463 1.327 . S
C2466 C2454 1.349 1_655 S
C2466 H2460 0.961 . S
C2466 C2467 1.327 . S
C2467 H2461 0.950 1_545 S
C2467 C2466 1.327 . S
C2467 C2471 1.429 . S
C2468 C2451 1.574 . S
C2468 H2462 0.949 . S
C2468 C2472 1.368 . S
C2469 C2450 1.447 . S
C2469 C2463 1.429 . S
C2469 C2470 1.523 . S
C2470 C2451 1.368 . S
C2470 C2464 1.368 . S
C2470 C2469 1.523 . S
C2471 C2455 1.426 1_655 S
C2471 C2467 1.429 . S
C2471 C2472 1.523 . S
C2472 C2456 1.368 . S
C2472 C2468 1.368 . S
C2472 C2471 1.523 . S
H2473 C2448 0.975 . S
H2474 C2450 0.933 1_565 S
H2475 C2451 0.949 . S
H2476 C2453 0.950 . S
H2477 C2455 0.950 . S
C2478 C2479 1.349 . S
C2478 C2480 1.327 . S
C2478 H2503 0.950 . S
C2479 C2478 1.349 . S
C2479 C2495 1.349 . S
C2480 C2478 1.327 . S
C2480 C2499 1.429 . S
C2480 H2504 0.950 . S
C2481 C2498 1.574 . S
C2481 C2500 1.368 . S
C2481 H2505 0.949 . S
H2482 C2486 0.949 . S
C2483 C2484 1.349 . S
C2483 C2485 1.327 . S
C2483 H2506 0.950 . S
C2484 C2483 1.349 . S
C2484 C2496 1.349 . S
C2485 C2483 1.327 . S
C2485 C2501 1.429 . S
C2485 H2507 0.950 . S
C2486 H2482 0.949 . S
C2486 C2494 1.574 . S
C2486 C2502 1.368 . S
H2487 C2495 0.950 . S
H2488 C2493 0.950 . S
H2489 C2494 0.949 . S
H2490 C2496 0.950 . S
H2491 C2497 0.950 . S
H2492 C2498 0.949 . S
C2493 H2488 0.950 . S
C2493 C2495 1.327 . S
C2493 C2499 1.429 . S
C2494 C2486 1.574 . S
C2494 H2489 0.949 . S
C2494 C2500 1.368 . S
C2495 C2479 1.349 . S
C2495 H2487 0.950 . S
C2495 C2493 1.327 . S
C2496 C2484 1.349 . S
C2496 H2490 0.950 . S
C2496 C2497 1.327 . S
C2497 H2491 0.950 . S
C2497 C2496 1.327 . S
C2497 C2501 1.429 . S
C2498 C2481 1.574 . S
C2498 H2492 0.949 . S
C2498 C2502 1.368 . S
C2499 C2480 1.429 . S
C2499 C2493 1.429 . S
C2499 C2500 1.523 . S
C2500 C2481 1.368 . S
C2500 C2494 1.368 . S
C2500 C2499 1.523 . S
C2501 C2485 1.429 . S
C2501 C2497 1.429 . S
C2501 C2502 1.523 . S
C2502 C2486 1.368 . S
C2502 C2498 1.368 . S
C2502 C2501 1.523 . S
H2503 C2478 0.950 . S
H2504 C2480 0.950 . S
H2505 C2481 0.949 . S
H2506 C2483 0.950 . S
H2507 C2485 0.950 . S
C2508 C2509 1.349 . S
C2508 C2510 1.327 . S
C2508 H2533 0.950 . S
C2509 C2508 1.349 . S
C2509 C2525 1.349 . S
C2510 C2508 1.327 . S
C2510 C2529 1.429 . S
C2510 H2534 0.950 . S
C2511 C2528 1.574 . S
C2511 C2530 1.368 . S
C2511 H2535 0.949 . S
H2512 C2516 0.949 . S
C2513 C2514 1.349 . S
C2513 C2515 1.327 . S
C2513 H2536 0.950 . S
C2514 C2513 1.349 . S
C2514 C2526 1.349 . S
C2515 C2513 1.327 . S
C2515 C2531 1.429 . S
C2515 H2537 0.950 . S
C2516 H2512 0.949 . S
C2516 C2524 1.574 . S
C2516 C2532 1.368 . S
H2517 C2525 0.950 . S
H2518 C2523 0.950 . S
H2519 C2524 0.949 . S
H2520 C2526 0.950 . S
H2521 C2527 0.950 . S
H2522 C2528 0.949 . S
C2523 H2518 0.950 . S
C2523 C2525 1.327 . S
C2523 C2529 1.429 . S
C2524 C2516 1.574 . S
C2524 H2519 0.949 . S
C2524 C2530 1.368 . S
C2525 C2509 1.349 . S
C2525 H2517 0.950 . S
C2525 C2523 1.327 . S
C2526 C2514 1.349 . S
C2526 H2520 0.950 . S
C2526 C2527 1.327 . S
C2527 H2521 0.950 . S
C2527 C2526 1.327 . S
C2527 C2531 1.429 . S
C2528 C2511 1.574 . S
C2528 H2522 0.949 . S
C2528 C2532 1.368 . S
C2529 C2510 1.429 . S
C2529 C2523 1.429 . S
C2529 C2530 1.523 . S
C2530 C2511 1.368 . S
C2530 C2524 1.368 . S
C2530 C2529 1.523 . S
C2531 C2515 1.429 . S
C2531 C2527 1.429 . S
C2531 C2532 1.523 . S
C2532 C2516 1.368 . S
C2532 C2528 1.368 . S
C2532 C2531 1.523 . S
H2533 C2508 0.950 . S
H2534 C2510 0.950 . S
H2535 C2511 0.949 . S
H2536 C2513 0.950 . S
H2537 C2515 0.950 . S
C2538 C2539 1.349 . S
C2538 C2540 1.327 . S
C2538 H2563 0.950 . S
C2539 C2538 1.349 . S
C2539 C2555 1.349 . S
C2540 C2538 1.327 . S
C2540 C2559 1.429 . S
C2540 H2564 0.950 . S
C2541 C2558 1.574 . S
C2541 C2560 1.368 . S
C2541 H2565 0.949 . S
H2542 C2546 0.949 . S
C2543 C2544 1.349 . S
C2543 C2545 1.327 . S
C2543 H2566 0.950 . S
C2544 C2543 1.349 . S
C2544 C2556 1.349 . S
C2545 C2543 1.327 . S
C2545 C2561 1.429 . S
C2545 H2567 0.950 . S
C2546 H2542 0.949 . S
C2546 C2554 1.574 . S
C2546 C2562 1.368 . S
H2547 C2555 0.950 . S
H2548 C2553 0.950 . S
H2549 C2554 0.949 . S
H2550 C2556 0.950 . S
H2551 C2557 0.950 . S
H2552 C2558 0.949 . S
C2553 H2548 0.950 . S
C2553 C2555 1.327 . S
C2553 C2559 1.429 . S
C2554 C2546 1.574 . S
C2554 H2549 0.949 . S
C2554 C2560 1.368 . S
C2555 C2539 1.349 . S
C2555 H2547 0.950 . S
C2555 C2553 1.327 . S
C2556 C2544 1.349 . S
C2556 H2550 0.950 . S
C2556 C2557 1.327 . S
C2557 H2551 0.950 . S
C2557 C2556 1.327 . S
C2557 C2561 1.429 . S
C2558 C2541 1.574 . S
C2558 H2552 0.949 . S
C2558 C2562 1.368 . S
C2559 C2540 1.429 . S
C2559 C2553 1.429 . S
C2559 C2560 1.523 . S
C2560 C2541 1.368 . S
C2560 C2554 1.368 . S
C2560 C2559 1.523 . S
C2561 C2545 1.429 . S
C2561 C2557 1.429 . S
C2561 C2562 1.523 . S
C2562 C2546 1.368 . S
C2562 C2558 1.368 . S
C2562 C2561 1.523 . S
H2563 C2538 0.950 . S
H2564 C2540 0.950 . S
H2565 C2541 0.949 . S
H2566 C2543 0.950 . S
H2567 C2545 0.950 . S
C2568 C2569 1.349 . S
C2568 C2570 1.327 . S
C2568 H2593 0.950 . S
C2569 C2568 1.349 . S
C2569 C2585 1.349 . S
C2570 C2568 1.327 . S
C2570 C2589 1.429 . S
C2570 H2594 0.950 . S
C2571 C2588 1.574 . S
C2571 C2590 1.368 . S
C2571 H2595 0.949 . S
H2572 C2576 0.949 . S
C2573 C2574 1.349 . S
C2573 C2575 1.327 . S
C2573 H2596 0.950 . S
C2574 C2573 1.349 . S
C2574 C2586 1.349 1_455 S
C2575 C2573 1.327 . S
C2575 C2591 1.429 1_455 S
C2575 H2597 0.950 . S
C2576 H2572 0.949 . S
C2576 C2584 1.574 . S
C2576 C2592 1.368 . S
H2577 C2585 0.950 . S
H2578 C2583 0.950 . S
H2579 C2584 0.949 . S
H2580 C2586 0.950 . S
H2581 C2587 0.950 . S
H2582 C2588 0.949 1_455 S
C2583 H2578 0.950 . S
C2583 C2585 1.327 . S
C2583 C2589 1.429 . S
C2584 C2576 1.574 . S
C2584 H2579 0.949 . S
C2584 C2590 1.368 . S
C2585 C2569 1.349 . S
C2585 H2577 0.950 . S
C2585 C2583 1.327 . S
C2586 C2574 1.349 1_655 S
C2586 H2580 0.950 . S
C2586 C2587 1.327 . S
C2587 H2581 0.950 . S
C2587 C2586 1.327 . S
C2587 C2591 1.429 . S
C2588 C2571 1.574 . S
C2588 H2582 0.949 1_655 S
C2588 C2592 1.368 . S
C2589 C2570 1.429 . S
C2589 C2583 1.429 . S
C2589 C2590 1.523 . S
C2590 C2571 1.368 . S
C2590 C2584 1.368 . S
C2590 C2589 1.523 . S
C2591 C2575 1.429 1_655 S
C2591 C2587 1.429 . S
C2591 C2592 1.523 . S
C2592 C2576 1.368 . S
C2592 C2588 1.368 . S
C2592 C2591 1.523 . S
H2593 C2568 0.950 . S
H2594 C2570 0.950 . S
H2595 C2571 0.949 . S
H2596 C2573 0.950 . S
H2597 C2575 0.950 . S
C2598 C2599 1.349 . S
C2598 C2600 1.327 . S
C2598 H2623 0.950 . S
C2599 C2598 1.349 . S
C2599 C2615 1.349 . S
C2600 C2598 1.327 . S
C2600 C2619 1.429 . S
C2600 H2624 0.950 . S
C2601 C2618 1.574 . S
C2601 C2620 1.368 . S
C2601 H2625 0.949 . S
H2602 C2606 0.949 . S
C2603 C2604 1.349 . S
C2603 C2605 1.327 . S
C2603 H2626 0.950 . S
C2604 C2603 1.349 . S
C2604 C2616 1.349 . S
C2605 C2603 1.327 . S
C2605 C2621 1.429 . S
C2605 H2627 0.950 . S
C2606 H2602 0.949 . S
C2606 C2614 1.574 . S
C2606 C2622 1.368 . S
H2607 C2615 0.950 . S
H2608 C2613 0.950 . S
H2609 C2614 0.949 . S
H2610 C2616 0.950 . S
H2611 C2617 0.950 . S
H2612 C2618 0.949 . S
C2613 H2608 0.950 . S
C2613 C2615 1.327 . S
C2613 C2619 1.429 . S
C2614 C2606 1.574 . S
C2614 H2609 0.949 . S
C2614 C2620 1.368 . S
C2615 C2599 1.349 . S
C2615 H2607 0.950 . S
C2615 C2613 1.327 . S
C2616 C2604 1.349 . S
C2616 H2610 0.950 . S
C2616 C2617 1.327 . S
C2617 H2611 0.950 . S
C2617 C2616 1.327 . S
C2617 C2621 1.429 . S
C2618 C2601 1.574 . S
C2618 H2612 0.949 . S
C2618 C2622 1.368 . S
C2619 C2600 1.429 . S
C2619 C2613 1.429 . S
C2619 C2620 1.523 . S
C2620 C2601 1.368 . S
C2620 C2614 1.368 . S
C2620 C2619 1.523 . S
C2621 C2605 1.429 . S
C2621 C2617 1.429 . S
C2621 C2622 1.523 . S
C2622 C2606 1.368 . S
C2622 C2618 1.368 . S
C2622 C2621 1.523 . S
H2623 C2598 0.950 . S
H2624 C2600 0.950 . S
H2625 C2601 0.949 . S
H2626 C2603 0.950 . S
H2627 C2605 0.950 . S
C2628 C2629 1.349 . S
C2628 C2630 1.327 . S
C2628 H2653 0.950 . S
C2629 C2628 1.349 . S
C2629 C2645 1.349 . S
C2630 C2628 1.327 . S
C2630 C2649 1.429 . S
C2630 H2654 0.950 . S
C2631 C2648 1.574 . S
C2631 C2650 1.368 . S
C2631 H2655 0.949 . S
H2632 C2636 0.949 . S
C2633 C2634 1.349 . S
C2633 C2635 1.327 . S
C2633 H2656 0.950 . S
C2634 C2633 1.349 . S
C2634 C2646 1.349 . S
C2635 C2633 1.327 . S
C2635 C2651 1.429 . S
C2635 H2657 0.950 . S
C2636 H2632 0.949 . S
C2636 C2644 1.574 . S
C2636 C2652 1.368 . S
H2637 C2645 0.950 . S
H2638 C2643 0.950 . S
H2639 C2644 0.949 . S
H2640 C2646 0.950 . S
H2641 C2647 0.950 . S
H2642 C2648 0.949 . S
C2643 H2638 0.950 . S
C2643 C2645 1.327 . S
C2643 C2649 1.429 . S
C2644 C2636 1.574 . S
C2644 H2639 0.949 . S
C2644 C2650 1.368 . S
C2645 C2629 1.349 . S
C2645 H2637 0.950 . S
C2645 C2643 1.327 . S
C2646 C2634 1.349 . S
C2646 H2640 0.950 . S
C2646 C2647 1.327 . S
C2647 H2641 0.950 . S
C2647 C2646 1.327 . S
C2647 C2651 1.429 . S
C2648 C2631 1.574 . S
C2648 H2642 0.949 . S
C2648 C2652 1.368 . S
C2649 C2630 1.429 . S
C2649 C2643 1.429 . S
C2649 C2650 1.523 . S
C2650 C2631 1.368 . S
C2650 C2644 1.368 . S
C2650 C2649 1.523 . S
C2651 C2635 1.429 . S
C2651 C2647 1.429 . S
C2651 C2652 1.523 . S
C2652 C2636 1.368 . S
C2652 C2648 1.368 . S
C2652 C2651 1.523 . S
H2653 C2628 0.950 . S
H2654 C2630 0.950 . S
H2655 C2631 0.949 . S
H2656 C2633 0.950 . S
H2657 C2635 0.950 . S
C2658 C2659 1.349 . S
C2658 C2660 1.327 . S
C2658 H2683 0.950 . S
C2659 C2658 1.349 . S
C2659 C2675 1.349 . S
C2660 C2658 1.327 . S
C2660 C2679 1.429 . S
C2660 H2684 0.950 . S
C2661 C2678 1.574 . S
C2661 C2680 1.368 . S
C2661 H2685 0.949 . S
H2662 C2666 0.949 . S
C2663 C2664 1.349 . S
C2663 C2665 1.327 . S
C2663 H2686 0.950 . S
C2664 C2663 1.349 . S
C2664 C2676 1.349 . S
C2665 C2663 1.327 . S
C2665 C2681 1.429 . S
C2665 H2687 0.950 . S
C2666 H2662 0.949 . S
C2666 C2674 1.574 . S
C2666 C2682 1.368 . S
H2667 C2675 0.950 . S
H2668 C2673 0.950 . S
H2669 C2674 0.949 . S
H2670 C2676 0.950 . S
H2671 C2677 0.950 . S
H2672 C2678 0.949 . S
C2673 H2668 0.950 . S
C2673 C2675 1.327 . S
C2673 C2679 1.429 . S
C2674 C2666 1.574 . S
C2674 H2669 0.949 . S
C2674 C2680 1.368 . S
C2675 C2659 1.349 . S
C2675 H2667 0.950 . S
C2675 C2673 1.327 . S
C2676 C2664 1.349 . S
C2676 H2670 0.950 . S
C2676 C2677 1.327 . S
C2677 H2671 0.950 . S
C2677 C2676 1.327 . S
C2677 C2681 1.429 . S
C2678 C2661 1.574 . S
C2678 H2672 0.949 . S
C2678 C2682 1.368 . S
C2679 C2660 1.429 . S
C2679 C2673 1.429 . S
C2679 C2680 1.523 . S
C2680 C2661 1.368 . S
C2680 C2674 1.368 . S
C2680 C2679 1.523 . S
C2681 C2665 1.429 . S
C2681 C2677 1.429 . S
C2681 C2682 1.523 . S
C2682 C2666 1.368 . S
C2682 C2678 1.368 . S
C2682 C2681 1.523 . S
H2683 C2658 0.950 . S
H2684 C2660 0.950 . S
H2685 C2661 0.949 . S
H2686 C2663 0.950 . S
H2687 C2665 0.950 . S
C2688 C2689 1.313 1_554 S
C2688 C2690 1.327 . S
C2688 H2713 0.950 . S
C2689 C2688 1.313 1_556 S
C2689 C2705 1.377 . S
C2690 C2688 1.327 . S
C2690 C2709 1.429 . S
C2690 H2714 0.950 . S
C2691 C2708 1.574 . S
C2691 C2710 1.368 1_556 S
C2691 H2715 0.949 . S
H2692 C2696 0.949 . S
C2693 C2694 1.349 . S
C2693 C2695 1.327 . S
C2693 H2716 0.950 1_554 S
C2694 C2693 1.349 . S
C2694 C2706 1.349 . S
C2695 C2693 1.327 . S
C2695 C2711 1.429 . S
C2695 H2717 0.950 1_554 S
C2696 H2692 0.949 . S
C2696 C2704 1.574 . S
C2696 C2712 1.368 . S
H2697 C2705 0.950 . S
H2698 C2703 0.950 . S
H2699 C2704 0.949 . S
H2700 C2706 0.950 1_545 S
H2701 C2707 0.950 . S
H2702 C2708 0.949 . S
C2703 H2698 0.950 . S
C2703 C2705 1.327 . S
C2703 C2709 1.429 1_556 S
C2704 C2696 1.574 . S
C2704 H2699 0.949 . S
C2704 C2710 1.368 . S
C2705 C2689 1.377 . S
C2705 H2697 0.950 . S
C2705 C2703 1.327 . S
C2706 C2694 1.349 . S
C2706 H2700 0.950 1_565 S
C2706 C2707 1.327 . S
C2707 H2701 0.950 . S
C2707 C2706 1.327 . S
C2707 C2711 1.429 . S
C2708 C2691 1.574 . S
C2708 H2702 0.949 . S
C2708 C2712 1.368 1_556 S
C2709 C2690 1.429 . S
C2709 C2703 1.429 1_554 S
C2709 C2710 1.523 . S
C2710 C2691 1.368 1_554 S
C2710 C2704 1.368 . S
C2710 C2709 1.523 . S
C2711 C2695 1.429 . S
C2711 C2707 1.429 . S
C2711 C2712 1.523 . S
C2712 C2696 1.368 . S
C2712 C2708 1.368 1_554 S
C2712 C2711 1.523 . S
H2713 C2688 0.950 . S
H2714 C2690 0.950 . S
H2715 C2691 0.949 . S
H2716 C2693 0.950 1_556 S
H2717 C2695 0.950 1_556 S
C2718 C2719 1.349 . S
C2718 C2720 1.327 . S
C2718 H2743 0.950 . S
C2719 C2718 1.349 . S
C2719 C2735 1.349 1_554 S
C2720 C2718 1.327 . S
C2720 C2739 1.429 . S
C2720 H2744 0.950 . S
C2721 C2738 1.574 . S
C2721 C2740 1.368 1_556 S
C2721 H2745 0.949 . S
H2722 C2726 0.949 . S
C2723 C2724 1.363 . S
C2723 C2725 1.313 1_554 S
C2723 H2746 0.940 1_554 S
C2724 C2723 1.363 . S
C2724 C2736 1.349 . S
C2725 C2723 1.313 1_556 S
C2725 C2741 1.401 1_556 S
C2725 H2747 0.992 . S
C2726 H2722 0.949 . S
C2726 C2734 1.574 . S
C2726 C2742 1.368 . S
H2727 C2735 0.950 . S
H2728 C2733 0.950 . S
H2729 C2734 0.949 . S
H2730 C2736 0.950 . S
H2731 C2737 0.950 . S
H2732 C2738 0.949 . S
C2733 H2728 0.950 . S
C2733 C2735 1.327 . S
C2733 C2739 1.429 1_556 S
C2734 C2726 1.574 . S
C2734 H2729 0.949 . S
C2734 C2740 1.368 . S
C2735 C2719 1.349 1_556 S
C2735 H2727 0.950 . S
C2735 C2733 1.327 . S
C2736 C2724 1.349 . S
C2736 H2730 0.950 . S
C2736 C2737 1.327 . S
C2737 H2731 0.950 . S
C2737 C2736 1.327 . S
C2737 C2741 1.429 . S
C2738 C2721 1.574 . S
C2738 H2732 0.949 . S
C2738 C2742 1.368 1_556 S
C2739 C2720 1.429 . S
C2739 C2733 1.429 1_554 S
C2739 C2740 1.523 . S
C2740 C2721 1.368 1_554 S
C2740 C2734 1.368 . S
C2740 C2739 1.523 . S
C2741 C2725 1.401 1_554 S
C2741 C2737 1.429 . S
C2741 C2742 1.523 . S
C2742 C2726 1.368 . S
C2742 C2738 1.368 1_554 S
C2742 C2741 1.523 . S
H2743 C2718 0.950 . S
H2744 C2720 0.950 . S
H2745 C2721 0.949 . S
H2746 C2723 0.940 1_556 S
H2747 C2725 0.992 . S
C2748 C2749 1.349 . S
C2748 C2750 1.327 . S
C2748 H2773 0.950 . S
C2749 C2748 1.349 . S
C2749 C2765 1.349 . S
C2750 C2748 1.327 . S
C2750 C2769 1.429 . S
C2750 H2774 0.950 . S
C2751 C2768 1.574 . S
C2751 C2770 1.368 . S
C2751 H2775 0.949 . S
H2752 C2756 0.949 . S
C2753 C2754 1.349 . S
C2753 C2755 1.327 . S
C2753 H2776 0.950 . S
C2754 C2753 1.349 . S
C2754 C2766 1.349 . S
C2755 C2753 1.327 . S
C2755 C2771 1.429 . S
C2755 H2777 0.950 . S
C2756 H2752 0.949 . S
C2756 C2764 1.574 . S
C2756 C2772 1.368 . S
H2757 C2765 0.950 . S
H2758 C2763 0.950 . S
H2759 C2764 0.949 . S
H2760 C2766 0.950 . S
H2761 C2767 0.950 . S
H2762 C2768 0.949 . S
C2763 H2758 0.950 . S
C2763 C2765 1.327 . S
C2763 C2769 1.429 . S
C2764 C2756 1.574 . S
C2764 H2759 0.949 . S
C2764 C2770 1.368 . S
C2765 C2749 1.349 . S
C2765 H2757 0.950 . S
C2765 C2763 1.327 . S
C2766 C2754 1.349 . S
C2766 H2760 0.950 . S
C2766 C2767 1.327 . S
C2767 H2761 0.950 . S
C2767 C2766 1.327 . S
C2767 C2771 1.429 . S
C2768 C2751 1.574 . S
C2768 H2762 0.949 . S
C2768 C2772 1.368 . S
C2769 C2750 1.429 . S
C2769 C2763 1.429 . S
C2769 C2770 1.523 . S
C2770 C2751 1.368 . S
C2770 C2764 1.368 . S
C2770 C2769 1.523 . S
C2771 C2755 1.429 . S
C2771 C2767 1.429 . S
C2771 C2772 1.523 . S
C2772 C2756 1.368 . S
C2772 C2768 1.368 . S
C2772 C2771 1.523 . S
H2773 C2748 0.950 . S
H2774 C2750 0.950 . S
H2775 C2751 0.949 . S
H2776 C2753 0.950 . S
H2777 C2755 0.950 . S
C2778 C2779 1.349 . S
C2778 C2780 1.327 . S
C2778 H2803 0.950 . S
C2779 C2778 1.349 . S
C2779 C2795 1.349 . S
C2780 C2778 1.327 . S
C2780 C2799 1.429 . S
C2780 H2804 0.950 . S
C2781 C2798 1.574 . S
C2781 C2800 1.368 . S
C2781 H2805 0.949 . S
H2782 C2786 0.949 . S
C2783 C2784 1.349 . S
C2783 C2785 1.327 . S
C2783 H2806 0.950 . S
C2784 C2783 1.349 . S
C2784 C2796 1.349 . S
C2785 C2783 1.327 . S
C2785 C2801 1.429 . S
C2785 H2807 0.950 . S
C2786 H2782 0.949 . S
C2786 C2794 1.574 . S
C2786 C2802 1.368 . S
H2787 C2795 0.950 . S
H2788 C2793 0.950 . S
H2789 C2794 0.949 . S
H2790 C2796 0.950 . S
H2791 C2797 0.950 . S
H2792 C2798 0.949 . S
C2793 H2788 0.950 . S
C2793 C2795 1.327 . S
C2793 C2799 1.429 . S
C2794 C2786 1.574 . S
C2794 H2789 0.949 . S
C2794 C2800 1.368 . S
C2795 C2779 1.349 . S
C2795 H2787 0.950 . S
C2795 C2793 1.327 . S
C2796 C2784 1.349 . S
C2796 H2790 0.950 . S
C2796 C2797 1.327 . S
C2797 H2791 0.950 . S
C2797 C2796 1.327 . S
C2797 C2801 1.429 . S
C2798 C2781 1.574 . S
C2798 H2792 0.949 . S
C2798 C2802 1.368 . S
C2799 C2780 1.429 . S
C2799 C2793 1.429 . S
C2799 C2800 1.523 . S
C2800 C2781 1.368 . S
C2800 C2794 1.368 . S
C2800 C2799 1.523 . S
C2801 C2785 1.429 . S
C2801 C2797 1.429 . S
C2801 C2802 1.523 . S
C2802 C2786 1.368 . S
C2802 C2798 1.368 . S
C2802 C2801 1.523 . S
H2803 C2778 0.950 . S
H2804 C2780 0.950 . S
H2805 C2781 0.949 . S
H2806 C2783 0.950 . S
H2807 C2785 0.950 . S
C2808 C2809 1.349 . S
C2808 C2810 1.327 . S
C2808 H2833 0.950 . S
C2809 C2808 1.349 . S
C2809 C2825 1.349 . S
C2810 C2808 1.327 . S
C2810 C2829 1.429 . S
C2810 H2834 0.950 . S
C2811 C2828 1.574 . S
C2811 C2830 1.368 . S
C2811 H2835 0.949 . S
H2812 C2816 0.949 . S
C2813 C2814 1.349 . S
C2813 C2815 1.327 . S
C2813 H2836 0.950 . S
C2814 C2813 1.349 . S
C2814 C2826 1.349 . S
C2815 C2813 1.327 . S
C2815 C2831 1.429 . S
C2815 H2837 0.950 . S
C2816 H2812 0.949 . S
C2816 C2824 1.574 . S
C2816 C2832 1.368 . S
H2817 C2825 0.950 . S
H2818 C2823 0.950 . S
H2819 C2824 0.949 . S
H2820 C2826 0.950 . S
H2821 C2827 0.950 . S
H2822 C2828 0.949 . S
C2823 H2818 0.950 . S
C2823 C2825 1.327 . S
C2823 C2829 1.429 . S
C2824 C2816 1.574 . S
C2824 H2819 0.949 . S
C2824 C2830 1.368 . S
C2825 C2809 1.349 . S
C2825 H2817 0.950 . S
C2825 C2823 1.327 . S
C2826 C2814 1.349 . S
C2826 H2820 0.950 . S
C2826 C2827 1.327 . S
C2827 H2821 0.950 . S
C2827 C2826 1.327 . S
C2827 C2831 1.429 . S
C2828 C2811 1.574 . S
C2828 H2822 0.949 . S
C2828 C2832 1.368 . S
C2829 C2810 1.429 . S
C2829 C2823 1.429 . S
C2829 C2830 1.523 . S
C2830 C2811 1.368 . S
C2830 C2824 1.368 . S
C2830 C2829 1.523 . S
C2831 C2815 1.429 . S
C2831 C2827 1.429 . S
C2831 C2832 1.523 . S
C2832 C2816 1.368 . S
C2832 C2828 1.368 . S
C2832 C2831 1.523 . S
H2833 C2808 0.950 . S
H2834 C2810 0.950 . S
H2835 C2811 0.949 . S
H2836 C2813 0.950 . S
H2837 C2815 0.950 . S
C2838 C2839 1.349 . S
C2838 C2840 1.327 . S
C2838 H2863 0.950 . S
C2839 C2838 1.349 . S
C2839 C2855 1.349 . S
C2840 C2838 1.327 . S
C2840 C2859 1.429 . S
C2840 H2864 0.950 . S
C2841 C2858 1.574 . S
C2841 C2860 1.368 . S
C2841 H2865 0.949 . S
H2842 C2846 0.949 . S
C2843 C2844 1.349 . S
C2843 C2845 1.327 . S
C2843 H2866 0.950 . S
C2844 C2843 1.349 . S
C2844 C2856 1.349 . S
C2845 C2843 1.327 . S
C2845 C2861 1.429 . S
C2845 H2867 0.950 . S
C2846 H2842 0.949 . S
C2846 C2854 1.574 . S
C2846 C2862 1.368 . S
H2847 C2855 0.950 . S
H2848 C2853 0.950 . S
H2849 C2854 0.949 . S
H2850 C2856 0.950 . S
H2851 C2857 0.950 . S
H2852 C2858 0.949 . S
C2853 H2848 0.950 . S
C2853 C2855 1.327 . S
C2853 C2859 1.429 . S
C2854 C2846 1.574 . S
C2854 H2849 0.949 . S
C2854 C2860 1.368 . S
C2855 C2839 1.349 . S
C2855 H2847 0.950 . S
C2855 C2853 1.327 . S
C2856 C2844 1.349 . S
C2856 H2850 0.950 . S
C2856 C2857 1.327 . S
C2857 H2851 0.950 . S
C2857 C2856 1.327 . S
C2857 C2861 1.429 . S
C2858 C2841 1.574 . S
C2858 H2852 0.949 . S
C2858 C2862 1.368 . S
C2859 C2840 1.429 . S
C2859 C2853 1.429 . S
C2859 C2860 1.523 . S
C2860 C2841 1.368 . S
C2860 C2854 1.368 . S
C2860 C2859 1.523 . S
C2861 C2845 1.429 . S
C2861 C2857 1.429 . S
C2861 C2862 1.523 . S
C2862 C2846 1.368 . S
C2862 C2858 1.368 . S
C2862 C2861 1.523 . S
H2863 C2838 0.950 . S
H2864 C2840 0.950 . S
H2865 C2841 0.949 . S
H2866 C2843 0.950 . S
H2867 C2845 0.950 . S
C2868 C2869 1.349 . S
C2868 C2870 1.327 . S
C2868 H2893 0.950 . S
C2869 C2868 1.349 . S
C2869 C2885 1.349 . S
C2870 C2868 1.327 . S
C2870 C2889 1.429 . S
C2870 H2894 0.950 . S
C2871 C2888 1.574 . S
C2871 C2890 1.368 . S
C2871 H2895 0.949 . S
H2872 C2876 0.949 . S
C2873 C2874 1.349 . S
C2873 C2875 1.327 . S
C2873 H2896 0.950 . S
C2874 C2873 1.349 . S
C2874 C2886 1.349 . S
C2875 C2873 1.327 . S
C2875 C2891 1.429 . S
C2875 H2897 0.950 . S
C2876 H2872 0.949 . S
C2876 C2884 1.574 . S
C2876 C2892 1.368 . S
H2877 C2885 0.950 . S
H2878 C2883 0.950 . S
H2879 C2884 0.949 . S
H2880 C2886 0.950 . S
H2881 C2887 0.950 . S
H2882 C2888 0.949 . S
C2883 H2878 0.950 . S
C2883 C2885 1.327 . S
C2883 C2889 1.429 . S
C2884 C2876 1.574 . S
C2884 H2879 0.949 . S
C2884 C2890 1.368 . S
C2885 C2869 1.349 . S
C2885 H2877 0.950 . S
C2885 C2883 1.327 . S
C2886 C2874 1.349 . S
C2886 H2880 0.950 . S
C2886 C2887 1.327 . S
C2887 H2881 0.950 . S
C2887 C2886 1.327 . S
C2887 C2891 1.429 . S
C2888 C2871 1.574 . S
C2888 H2882 0.949 . S
C2888 C2892 1.368 . S
C2889 C2870 1.429 . S
C2889 C2883 1.429 . S
C2889 C2890 1.523 . S
C2890 C2871 1.368 . S
C2890 C2884 1.368 . S
C2890 C2889 1.523 . S
C2891 C2875 1.429 . S
C2891 C2887 1.429 . S
C2891 C2892 1.523 . S
C2892 C2876 1.368 . S
C2892 C2888 1.368 . S
C2892 C2891 1.523 . S
H2893 C2868 0.950 . S
H2894 C2870 0.950 . S
H2895 C2871 0.949 . S
H2896 C2873 0.950 . S
H2897 C2875 0.950 . S
C2898 C2899 1.349 . S
C2898 C2900 1.327 . S
C2898 H2923 0.950 . S
C2899 C2898 1.349 . S
C2899 C2915 1.349 . S
C2900 C2898 1.327 . S
C2900 C2919 1.429 . S
C2900 H2924 0.950 . S
C2901 C2918 1.574 . S
C2901 C2920 1.368 . S
C2901 H2925 0.949 . S
H2902 C2906 0.949 . S
C2903 C2904 1.349 . S
C2903 C2905 1.327 . S
C2903 H2926 0.950 . S
C2904 C2903 1.349 . S
C2904 C2916 1.349 . S
C2905 C2903 1.327 . S
C2905 C2921 1.429 . S
C2905 H2927 0.950 . S
C2906 H2902 0.949 . S
C2906 C2914 1.574 . S
C2906 C2922 1.368 . S
H2907 C2915 0.950 . S
H2908 C2913 0.950 . S
H2909 C2914 0.949 . S
H2910 C2916 0.950 . S
H2911 C2917 0.950 . S
H2912 C2918 0.949 . S
C2913 H2908 0.950 . S
C2913 C2915 1.327 . S
C2913 C2919 1.429 . S
C2914 C2906 1.574 . S
C2914 H2909 0.949 . S
C2914 C2920 1.368 . S
C2915 C2899 1.349 . S
C2915 H2907 0.950 . S
C2915 C2913 1.327 . S
C2916 C2904 1.349 . S
C2916 H2910 0.950 . S
C2916 C2917 1.327 . S
C2917 H2911 0.950 . S
C2917 C2916 1.327 . S
C2917 C2921 1.429 . S
C2918 C2901 1.574 . S
C2918 H2912 0.949 . S
C2918 C2922 1.368 . S
C2919 C2900 1.429 . S
C2919 C2913 1.429 . S
C2919 C2920 1.523 . S
C2920 C2901 1.368 . S
C2920 C2914 1.368 . S
C2920 C2919 1.523 . S
C2921 C2905 1.429 . S
C2921 C2917 1.429 . S
C2921 C2922 1.523 . S
C2922 C2906 1.368 . S
C2922 C2918 1.368 . S
C2922 C2921 1.523 . S
H2923 C2898 0.950 . S
H2924 C2900 0.950 . S
H2925 C2901 0.949 . S
H2926 C2903 0.950 . S
H2927 C2905 0.950 . S
C2928 C2929 1.349 . S
C2928 C2930 1.327 . S
C2928 H2953 0.950 . S
C2929 C2928 1.349 . S
C2929 C2945 1.349 . S
C2930 C2928 1.327 . S
C2930 C2949 1.429 . S
C2930 H2954 0.950 . S
C2931 C2948 1.574 . S
C2931 C2950 1.368 . S
C2931 H2955 0.949 . S
H2932 C2936 0.949 . S
C2933 C2934 1.349 . S
C2933 C2935 1.327 . S
C2933 H2956 0.950 . S
C2934 C2933 1.349 . S
C2934 C2946 1.349 . S
C2935 C2933 1.327 . S
C2935 C2951 1.429 . S
C2935 H2957 0.950 . S
C2936 H2932 0.949 . S
C2936 C2944 1.574 . S
C2936 C2952 1.368 . S
H2937 C2945 0.950 . S
H2938 C2943 0.950 . S
H2939 C2944 0.949 . S
H2940 C2946 0.913 1_655 S
H2941 C2947 0.950 . S
H2942 C2948 0.949 . S
C2943 H2938 0.950 . S
C2943 C2945 1.327 . S
C2943 C2949 1.429 . S
C2944 C2936 1.574 . S
C2944 H2939 0.949 . S
C2944 C2950 1.368 . S
C2945 C2929 1.349 . S
C2945 H2937 0.950 . S
C2945 C2943 1.327 . S
C2946 C2934 1.349 . S
C2946 H2940 0.913 1_455 S
C2946 C2947 1.327 . S
C2947 H2941 0.950 . S
C2947 C2946 1.327 . S
C2947 C2951 1.429 . S
C2948 C2931 1.574 . S
C2948 H2942 0.949 . S
C2948 C2952 1.368 . S
C2949 C2930 1.429 . S
C2949 C2943 1.429 . S
C2949 C2950 1.523 . S
C2950 C2931 1.368 . S
C2950 C2944 1.368 . S
C2950 C2949 1.523 . S
C2951 C2935 1.429 . S
C2951 C2947 1.429 . S
C2951 C2952 1.523 . S
C2952 C2936 1.368 . S
C2952 C2948 1.368 . S
C2952 C2951 1.523 . S
H2953 C2928 0.950 . S
H2954 C2930 0.950 . S
H2955 C2931 0.949 . S
H2956 C2933 0.950 . S
H2957 C2935 0.950 . S
C2958 C2959 1.349 . S
C2958 C2960 1.327 . S
C2958 H2983 0.950 . S
C2959 C2958 1.349 . S
C2959 C2975 1.349 . S
C2960 C2958 1.327 . S
C2960 C2979 1.429 . S
C2960 H2984 0.950 . S
C2961 C2978 1.574 . S
C2961 C2980 1.368 . S
C2961 H2985 0.949 . S
H2962 C2966 0.949 . S
C2963 C2964 1.349 . S
C2963 C2965 1.327 . S
C2963 H2986 0.950 . S
C2964 C2963 1.349 . S
C2964 C2976 1.349 . S
C2965 C2963 1.327 . S
C2965 C2981 1.429 . S
C2965 H2987 0.950 . S
C2966 H2962 0.949 . S
C2966 C2974 1.574 . S
C2966 C2982 1.368 . S
H2967 C2975 0.950 . S
H2968 C2973 0.950 . S
H2969 C2974 0.949 . S
H2970 C2976 0.950 . S
H2971 C2977 0.950 . S
H2972 C2978 0.949 . S
C2973 H2968 0.950 . S
C2973 C2975 1.327 . S
C2973 C2979 1.429 . S
C2974 C2966 1.574 . S
C2974 H2969 0.949 . S
C2974 C2980 1.368 . S
C2975 C2959 1.349 . S
C2975 H2967 0.950 . S
C2975 C2973 1.327 . S
C2976 C2964 1.349 . S
C2976 H2970 0.950 . S
C2976 C2977 1.327 . S
C2977 H2971 0.950 . S
C2977 C2976 1.327 . S
C2977 C2981 1.429 . S
C2978 C2961 1.574 . S
C2978 H2972 0.949 . S
C2978 C2982 1.368 . S
C2979 C2960 1.429 . S
C2979 C2973 1.429 . S
C2979 C2980 1.523 . S
C2980 C2961 1.368 . S
C2980 C2974 1.368 . S
C2980 C2979 1.523 . S
C2981 C2965 1.429 . S
C2981 C2977 1.429 . S
C2981 C2982 1.523 . S
C2982 C2966 1.368 . S
C2982 C2978 1.368 . S
C2982 C2981 1.523 . S
H2983 C2958 0.950 . S
H2984 C2960 0.950 . S
H2985 C2961 0.949 . S
H2986 C2963 0.950 . S
H2987 C2965 0.950 . S
C2988 C2989 1.349 . S
C2988 C2990 1.327 . S
C2988 H3013 0.950 . S
C2989 C2988 1.349 . S
C2989 C3005 1.349 . S
C2990 C2988 1.327 . S
C2990 C3009 1.429 . S
C2990 H3014 0.950 . S
C2991 C3008 1.574 . S
C2991 C3010 1.368 . S
C2991 H3015 0.949 . S
H2992 C2996 0.949 . S
C2993 C2994 1.349 . S
C2993 C2995 1.327 . S
C2993 H3016 0.950 . S
C2994 C2993 1.349 . S
C2994 C3006 1.349 . S
C2995 C2993 1.327 . S
C2995 C3011 1.429 . S
C2995 H3017 0.950 . S
C2996 H2992 0.949 . S
C2996 C3004 1.574 . S
C2996 C3012 1.368 . S
H2997 C3005 0.950 . S
H2998 C3003 0.950 . S
H2999 C3004 0.949 . S
H3000 C3006 0.950 . S
H3001 C3007 0.950 . S
H3002 C3008 0.949 . S
C3003 H2998 0.950 . S
C3003 C3005 1.327 . S
C3003 C3009 1.429 . S
C3004 C2996 1.574 . S
C3004 H2999 0.949 . S
C3004 C3010 1.368 . S
C3005 C2989 1.349 . S
C3005 H2997 0.950 . S
C3005 C3003 1.327 . S
C3006 C2994 1.349 . S
C3006 H3000 0.950 . S
C3006 C3007 1.327 . S
C3007 H3001 0.950 . S
C3007 C3006 1.327 . S
C3007 C3011 1.429 . S
C3008 C2991 1.574 . S
C3008 H3002 0.949 . S
C3008 C3012 1.368 . S
C3009 C2990 1.429 . S
C3009 C3003 1.429 . S
C3009 C3010 1.523 . S
C3010 C2991 1.368 . S
C3010 C3004 1.368 . S
C3010 C3009 1.523 . S
C3011 C2995 1.429 . S
C3011 C3007 1.429 . S
C3011 C3012 1.523 . S
C3012 C2996 1.368 . S
C3012 C3008 1.368 . S
C3012 C3011 1.523 . S
H3013 C2988 0.950 . S
H3014 C2990 0.950 . S
H3015 C2991 0.949 . S
H3016 C2993 0.950 . S
H3017 C2995 0.950 . S
C3018 C3019 1.349 . S
C3018 C3020 1.327 . S
C3018 H3043 0.950 . S
C3019 C3018 1.349 . S
C3019 C3035 1.349 . S
C3020 C3018 1.327 . S
C3020 C3039 1.429 . S
C3020 H3044 0.950 . S
C3021 C3038 1.574 . S
C3021 C3040 1.368 . S
C3021 H3045 0.949 . S
H3022 C3026 0.949 . S
C3023 C3024 1.349 . S
C3023 C3025 1.327 . S
C3023 H3046 0.950 . S
C3024 C3023 1.349 . S
C3024 C3036 1.349 . S
C3025 C3023 1.327 . S
C3025 C3041 1.429 . S
C3025 H3047 0.950 . S
C3026 H3022 0.949 . S
C3026 C3034 1.574 . S
C3026 C3042 1.368 . S
H3027 C3035 0.950 . S
H3028 C3033 0.950 . S
H3029 C3034 0.949 . S
H3030 C3036 0.950 . S
H3031 C3037 0.950 . S
H3032 C3038 0.949 . S
C3033 H3028 0.950 . S
C3033 C3035 1.327 . S
C3033 C3039 1.429 . S
C3034 C3026 1.574 . S
C3034 H3029 0.949 . S
C3034 C3040 1.368 . S
C3035 C3019 1.349 . S
C3035 H3027 0.950 . S
C3035 C3033 1.327 . S
C3036 C3024 1.349 . S
C3036 H3030 0.950 . S
C3036 C3037 1.327 . S
C3037 H3031 0.950 . S
C3037 C3036 1.327 . S
C3037 C3041 1.429 . S
C3038 C3021 1.574 . S
C3038 H3032 0.949 . S
C3038 C3042 1.368 . S
C3039 C3020 1.429 . S
C3039 C3033 1.429 . S
C3039 C3040 1.523 . S
C3040 C3021 1.368 . S
C3040 C3034 1.368 . S
C3040 C3039 1.523 . S
C3041 C3025 1.429 . S
C3041 C3037 1.429 . S
C3041 C3042 1.523 . S
C3042 C3026 1.368 . S
C3042 C3038 1.368 . S
C3042 C3041 1.523 . S
H3043 C3018 0.950 . S
H3044 C3020 0.950 . S
H3045 C3021 0.949 . S
H3046 C3023 0.950 . S
H3047 C3025 0.950 . S
C3048 C3049 1.349 . S
C3048 C3050 1.327 . S
C3048 H3073 0.950 . S
C3049 C3048 1.349 . S
C3049 C3065 1.349 . S
C3050 C3048 1.327 . S
C3050 C3069 1.429 . S
C3050 H3074 0.950 . S
C3051 C3068 1.574 . S
C3051 C3070 1.368 . S
C3051 H3075 0.949 . S
H3052 C3056 0.949 . S
C3053 C3054 1.349 . S
C3053 C3055 1.327 . S
C3053 H3076 0.950 . S
C3054 C3053 1.349 . S
C3054 C3066 1.349 . S
C3055 C3053 1.327 . S
C3055 C3071 1.429 . S
C3055 H3077 0.950 . S
C3056 H3052 0.949 . S
C3056 C3064 1.574 . S
C3056 C3072 1.368 . S
H3057 C3065 0.950 . S
H3058 C3063 0.950 . S
H3059 C3064 0.949 . S
H3060 C3066 0.950 . S
H3061 C3067 0.950 . S
H3062 C3068 0.949 . S
C3063 H3058 0.950 . S
C3063 C3065 1.327 . S
C3063 C3069 1.429 . S
C3064 C3056 1.574 . S
C3064 H3059 0.949 . S
C3064 C3070 1.368 . S
C3065 C3049 1.349 . S
C3065 H3057 0.950 . S
C3065 C3063 1.327 . S
C3066 C3054 1.349 . S
C3066 H3060 0.950 . S
C3066 C3067 1.327 . S
C3067 H3061 0.950 . S
C3067 C3066 1.327 . S
C3067 C3071 1.429 . S
C3068 C3051 1.574 . S
C3068 H3062 0.949 . S
C3068 C3072 1.368 . S
C3069 C3050 1.429 . S
C3069 C3063 1.429 . S
C3069 C3070 1.523 . S
C3070 C3051 1.368 . S
C3070 C3064 1.368 . S
C3070 C3069 1.523 . S
C3071 C3055 1.429 . S
C3071 C3067 1.429 . S
C3071 C3072 1.523 . S
C3072 C3056 1.368 . S
C3072 C3068 1.368 . S
C3072 C3071 1.523 . S
H3073 C3048 0.950 . S
H3074 C3050 0.950 . S
H3075 C3051 0.949 . S
H3076 C3053 0.950 . S
H3077 C3055 0.950 . S
C3078 C3079 1.349 . S
C3078 C3080 1.327 . S
C3078 H3103 0.950 . S
C3079 C3078 1.349 . S
C3079 C3095 1.349 . S
C3080 C3078 1.327 . S
C3080 C3099 1.429 . S
C3080 H3104 0.950 . S
C3081 C3098 1.574 . S
C3081 C3100 1.368 . S
C3081 H3105 0.949 . S
H3082 C3086 0.949 . S
C3083 C3084 1.349 . S
C3083 C3085 1.327 . S
C3083 H3106 0.950 . S
C3084 C3083 1.349 . S
C3084 C3096 1.349 . S
C3085 C3083 1.327 . S
C3085 C3101 1.429 . S
C3085 H3107 0.950 . S
C3086 H3082 0.949 . S
C3086 C3094 1.574 . S
C3086 C3102 1.368 . S
H3087 C3095 0.950 . S
H3088 C3093 0.950 . S
H3089 C3094 0.949 . S
H3090 C3096 0.950 . S
H3091 C3097 0.950 . S
H3092 C3098 0.949 . S
C3093 H3088 0.950 . S
C3093 C3095 1.327 . S
C3093 C3099 1.429 . S
C3094 C3086 1.574 . S
C3094 H3089 0.949 . S
C3094 C3100 1.368 . S
C3095 C3079 1.349 . S
C3095 H3087 0.950 . S
C3095 C3093 1.327 . S
C3096 C3084 1.349 . S
C3096 H3090 0.950 . S
C3096 C3097 1.327 . S
C3097 H3091 0.950 . S
C3097 C3096 1.327 . S
C3097 C3101 1.429 . S
C3098 C3081 1.574 . S
C3098 H3092 0.949 . S
C3098 C3102 1.368 . S
C3099 C3080 1.429 . S
C3099 C3093 1.429 . S
C3099 C3100 1.523 . S
C3100 C3081 1.368 . S
C3100 C3094 1.368 . S
C3100 C3099 1.523 . S
C3101 C3085 1.429 . S
C3101 C3097 1.429 . S
C3101 C3102 1.523 . S
C3102 C3086 1.368 . S
C3102 C3098 1.368 . S
C3102 C3101 1.523 . S
H3103 C3078 0.950 . S
H3104 C3080 0.950 . S
H3105 C3081 0.949 . S
H3106 C3083 0.950 . S
H3107 C3085 0.950 . S
C3108 C3109 1.349 . S
C3108 C3110 1.327 . S
C3108 H3133 0.950 . S
C3109 C3108 1.349 . S
C3109 C3125 1.349 . S
C3110 C3108 1.327 . S
C3110 C3129 1.429 . S
C3110 H3134 0.950 . S
C3111 C3128 1.574 . S
C3111 C3130 1.368 . S
C3111 H3135 0.949 . S
H3112 C3116 0.949 . S
C3113 C3114 1.349 . S
C3113 C3115 1.327 . S
C3113 H3136 0.950 1_556 S
C3114 C3113 1.349 . S
C3114 C3126 1.349 . S
C3115 C3113 1.327 . S
C3115 C3131 1.429 . S
C3115 H3137 0.950 . S
C3116 H3112 0.949 . S
C3116 C3124 1.574 . S
C3116 C3132 1.368 . S
H3117 C3125 0.950 . S
H3118 C3123 0.950 . S
H3119 C3124 0.949 . S
H3120 C3126 0.950 . S
H3121 C3127 0.950 . S
H3122 C3128 0.949 . S
C3123 H3118 0.950 . S
C3123 C3125 1.327 . S
C3123 C3129 1.429 . S
C3124 C3116 1.574 . S
C3124 H3119 0.949 . S
C3124 C3130 1.368 . S
C3125 C3109 1.349 . S
C3125 H3117 0.950 . S
C3125 C3123 1.327 . S
C3126 C3114 1.349 . S
C3126 H3120 0.950 . S
C3126 C3127 1.327 . S
C3127 H3121 0.950 . S
C3127 C3126 1.327 . S
C3127 C3131 1.429 . S
C3128 C3111 1.574 . S
C3128 H3122 0.949 . S
C3128 C3132 1.368 . S
C3129 C3110 1.429 . S
C3129 C3123 1.429 . S
C3129 C3130 1.523 . S
C3130 C3111 1.368 . S
C3130 C3124 1.368 . S
C3130 C3129 1.523 . S
C3131 C3115 1.429 . S
C3131 C3127 1.429 . S
C3131 C3132 1.523 . S
C3132 C3116 1.368 . S
C3132 C3128 1.368 . S
C3132 C3131 1.523 . S
H3133 C3108 0.950 . S
H3134 C3110 0.950 . S
H3135 C3111 0.949 . S
H3136 C3113 0.950 1_554 S
H3137 C3115 0.950 . S
C3138 C3139 1.349 . S
C3138 C3140 1.327 . S
C3138 H3163 0.950 . S
C3139 C3138 1.349 . S
C3139 C3155 1.349 . S
C3140 C3138 1.327 . S
C3140 C3159 1.429 . S
C3140 H3164 0.950 . S
C3141 C3158 1.574 . S
C3141 C3160 1.368 . S
C3141 H3165 0.949 . S
H3142 C3146 0.949 . S
C3143 C3144 1.349 . S
C3143 C3145 1.327 . S
C3143 H3166 0.950 . S
C3144 C3143 1.349 . S
C3144 C3156 1.349 . S
C3145 C3143 1.327 . S
C3145 C3161 1.429 . S
C3145 H3167 0.950 . S
C3146 H3142 0.949 . S
C3146 C3154 1.574 . S
C3146 C3162 1.368 . S
H3147 C3155 0.950 . S
H3148 C3153 0.950 . S
H3149 C3154 0.949 . S
H3150 C3156 0.950 . S
H3151 C3157 0.950 . S
H3152 C3158 0.949 . S
C3153 H3148 0.950 . S
C3153 C3155 1.327 . S
C3153 C3159 1.429 . S
C3154 C3146 1.574 . S
C3154 H3149 0.949 . S
C3154 C3160 1.368 . S
C3155 C3139 1.349 . S
C3155 H3147 0.950 . S
C3155 C3153 1.327 . S
C3156 C3144 1.349 . S
C3156 H3150 0.950 . S
C3156 C3157 1.327 . S
C3157 H3151 0.950 . S
C3157 C3156 1.327 . S
C3157 C3161 1.429 . S
C3158 C3141 1.574 . S
C3158 H3152 0.949 . S
C3158 C3162 1.368 . S
C3159 C3140 1.429 . S
C3159 C3153 1.429 . S
C3159 C3160 1.523 . S
C3160 C3141 1.368 . S
C3160 C3154 1.368 . S
C3160 C3159 1.523 . S
C3161 C3145 1.429 . S
C3161 C3157 1.429 . S
C3161 C3162 1.523 . S
C3162 C3146 1.368 . S
C3162 C3158 1.368 . S
C3162 C3161 1.523 . S
H3163 C3138 0.950 . S
H3164 C3140 0.950 . S
H3165 C3141 0.949 . S
H3166 C3143 0.950 . S
H3167 C3145 0.950 . S
C3168 C3169 1.349 . S
C3168 C3170 1.327 . S
C3168 H3193 0.950 . S
C3169 C3168 1.349 . S
C3169 C3185 1.349 . S
C3170 C3168 1.327 . S
C3170 C3189 1.429 . S
C3170 H3194 0.950 . S
C3171 C3188 1.574 . S
C3171 C3190 1.368 . S
C3171 H3195 0.949 . S
H3172 C3176 0.949 . S
C3173 C3174 1.349 . S
C3173 C3175 1.327 . S
C3173 H3196 0.950 1_545 S
C3174 C3173 1.349 . S
C3174 C3186 1.349 . S
C3175 C3173 1.327 . S
C3175 C3191 1.429 . S
C3175 H3197 0.950 1_545 S
C3176 H3172 0.949 . S
C3176 C3184 1.574 . S
C3176 C3192 1.368 . S
H3177 C3185 0.950 . S
H3178 C3183 0.950 . S
H3179 C3184 0.949 . S
H3180 C3186 0.950 . S
H3181 C3187 0.950 . S
H3182 C3188 0.949 1_565 S
C3183 H3178 0.950 . S
C3183 C3185 1.327 . S
C3183 C3189 1.429 . S
C3184 C3176 1.574 . S
C3184 H3179 0.949 . S
C3184 C3190 1.368 . S
C3185 C3169 1.349 . S
C3185 H3177 0.950 . S
C3185 C3183 1.327 . S
C3186 C3174 1.349 . S
C3186 H3180 0.950 . S
C3186 C3187 1.327 . S
C3187 H3181 0.950 . S
C3187 C3186 1.327 . S
C3187 C3191 1.429 . S
C3188 C3171 1.574 . S
C3188 H3182 0.949 1_545 S
C3188 C3192 1.368 . S
C3189 C3170 1.429 . S
C3189 C3183 1.429 . S
C3189 C3190 1.523 . S
C3190 C3171 1.368 . S
C3190 C3184 1.368 . S
C3190 C3189 1.523 . S
C3191 C3175 1.429 . S
C3191 C3187 1.429 . S
C3191 C3192 1.523 . S
C3192 C3176 1.368 . S
C3192 C3188 1.368 . S
C3192 C3191 1.523 . S
H3193 C3168 0.950 . S
H3194 C3170 0.950 . S
H3195 C3171 0.949 . S
H3196 C3173 0.950 1_565 S
H3197 C3175 0.950 1_565 S
C3198 C3199 1.349 . S
C3198 C3200 1.327 . S
C3198 H3223 0.950 . S
C3199 C3198 1.349 . S
C3199 C3215 1.349 . S
C3200 C3198 1.327 . S
C3200 C3219 1.429 . S
C3200 H3224 0.950 . S
C3201 C3218 1.574 . S
C3201 C3220 1.368 . S
C3201 H3225 0.949 . S
H3202 C3206 0.949 . S
C3203 C3204 1.349 . S
C3203 C3205 1.327 . S
C3203 H3226 0.950 . S
C3204 C3203 1.349 . S
C3204 C3216 1.349 . S
C3205 C3203 1.327 . S
C3205 C3221 1.429 . S
C3205 H3227 0.950 . S
C3206 H3202 0.949 . S
C3206 C3214 1.574 . S
C3206 C3222 1.368 . S
H3207 C3215 0.950 . S
H3208 C3213 0.950 . S
H3209 C3214 0.949 . S
H3210 C3216 0.950 . S
H3211 C3217 0.950 . S
H3212 C3218 0.949 . S
C3213 H3208 0.950 . S
C3213 C3215 1.327 . S
C3213 C3219 1.429 . S
C3214 C3206 1.574 . S
C3214 H3209 0.949 . S
C3214 C3220 1.368 . S
C3215 C3199 1.349 . S
C3215 H3207 0.950 . S
C3215 C3213 1.327 . S
C3216 C3204 1.349 . S
C3216 H3210 0.950 . S
C3216 C3217 1.327 . S
C3217 H3211 0.950 . S
C3217 C3216 1.327 . S
C3217 C3221 1.429 . S
C3218 C3201 1.574 . S
C3218 H3212 0.949 . S
C3218 C3222 1.368 . S
C3219 C3200 1.429 . S
C3219 C3213 1.429 . S
C3219 C3220 1.523 . S
C3220 C3201 1.368 . S
C3220 C3214 1.368 . S
C3220 C3219 1.523 . S
C3221 C3205 1.429 . S
C3221 C3217 1.429 . S
C3221 C3222 1.523 . S
C3222 C3206 1.368 . S
C3222 C3218 1.368 . S
C3222 C3221 1.523 . S
H3223 C3198 0.950 . S
H3224 C3200 0.950 . S
H3225 C3201 0.949 . S
H3226 C3203 0.950 . S
H3227 C3205 0.950 . S
C3228 C3229 1.349 . S
C3228 C3230 1.327 . S
C3228 H3253 0.950 . S
C3229 C3228 1.349 . S
C3229 C3245 1.349 . S
C3230 C3228 1.327 . S
C3230 C3249 1.429 . S
C3230 H3254 0.950 . S
C3231 C3248 1.574 . S
C3231 C3250 1.368 . S
C3231 H3255 0.928 1_545 S
H3232 C3236 0.949 . S
C3233 C3234 1.349 . S
C3233 C3235 1.327 . S
C3233 H3256 0.950 . S
C3234 C3233 1.349 . S
C3234 C3246 1.349 . S
C3235 C3233 1.327 . S
C3235 C3251 1.429 . S
C3235 H3257 0.950 . S
C3236 H3232 0.949 . S
C3236 C3244 1.574 . S
C3236 C3252 1.368 . S
H3237 C3245 0.950 1_565 S
H3238 C3243 0.950 1_565 S
H3239 C3244 0.949 . S
H3240 C3246 0.950 . S
H3241 C3247 0.950 . S
H3242 C3248 0.949 . S
C3243 H3238 0.950 1_545 S
C3243 C3245 1.327 . S
C3243 C3249 1.429 . S
C3244 C3236 1.574 . S
C3244 H3239 0.949 . S
C3244 C3250 1.368 . S
C3245 C3229 1.349 . S
C3245 H3237 0.950 1_545 S
C3245 C3243 1.327 . S
C3246 C3234 1.349 . S
C3246 H3240 0.950 . S
C3246 C3247 1.327 . S
C3247 H3241 0.950 . S
C3247 C3246 1.327 . S
C3247 C3251 1.429 . S
C3248 C3231 1.574 . S
C3248 H3242 0.949 . S
C3248 C3252 1.368 . S
C3249 C3230 1.429 . S
C3249 C3243 1.429 . S
C3249 C3250 1.523 . S
C3250 C3231 1.368 . S
C3250 C3244 1.368 . S
C3250 C3249 1.523 . S
C3251 C3235 1.429 . S
C3251 C3247 1.429 . S
C3251 C3252 1.523 . S
C3252 C3236 1.368 . S
C3252 C3248 1.368 . S
C3252 C3251 1.523 . S
H3253 C3228 0.950 . S
H3254 C3230 0.950 . S
H3255 C3231 0.928 1_565 S
H3256 C3233 0.950 . S
H3257 C3235 0.950 . S
C3258 C3259 1.349 . S
C3258 C3260 1.327 . S
C3258 H3283 0.950 . S
C3259 C3258 1.349 . S
C3259 C3275 1.349 . S
C3260 C3258 1.327 . S
C3260 C3279 1.429 . S
C3260 H3284 0.950 . S
C3261 C3278 1.574 . S
C3261 C3280 1.368 . S
C3261 H3285 0.949 . S
H3262 C3266 0.949 . S
C3263 C3264 1.349 . S
C3263 C3265 1.327 . S
C3263 H3286 0.950 . S
C3264 C3263 1.349 . S
C3264 C3276 1.349 . S
C3265 C3263 1.327 . S
C3265 C3281 1.429 . S
C3265 H3287 0.950 . S
C3266 H3262 0.949 . S
C3266 C3274 1.574 . S
C3266 C3282 1.368 . S
H3267 C3275 0.950 . S
H3268 C3273 0.950 . S
H3269 C3274 0.949 . S
H3270 C3276 0.950 . S
H3271 C3277 0.950 . S
H3272 C3278 0.949 . S
C3273 H3268 0.950 . S
C3273 C3275 1.327 . S
C3273 C3279 1.429 . S
C3274 C3266 1.574 . S
C3274 H3269 0.949 . S
C3274 C3280 1.368 . S
C3275 C3259 1.349 . S
C3275 H3267 0.950 . S
C3275 C3273 1.327 . S
C3276 C3264 1.349 . S
C3276 H3270 0.950 . S
C3276 C3277 1.327 . S
C3277 H3271 0.950 . S
C3277 C3276 1.327 . S
C3277 C3281 1.429 . S
C3278 C3261 1.574 . S
C3278 H3272 0.949 . S
C3278 C3282 1.368 . S
C3279 C3260 1.429 . S
C3279 C3273 1.429 . S
C3279 C3280 1.523 . S
C3280 C3261 1.368 . S
C3280 C3274 1.368 . S
C3280 C3279 1.523 . S
C3281 C3265 1.429 . S
C3281 C3277 1.429 . S
C3281 C3282 1.523 . S
C3282 C3266 1.368 . S
C3282 C3278 1.368 . S
C3282 C3281 1.523 . S
H3283 C3258 0.950 . S
H3284 C3260 0.950 . S
H3285 C3261 0.949 . S
H3286 C3263 0.950 . S
H3287 C3265 0.950 . S
C3288 C3289 1.349 . S
C3288 C3290 1.327 . S
C3288 H3313 0.950 . S
C3289 C3288 1.349 . S
C3289 C3305 1.349 . S
C3290 C3288 1.327 . S
C3290 C3309 1.429 . S
C3290 H3314 0.950 . S
C3291 C3308 1.574 . S
C3291 C3310 1.368 . S
C3291 H3315 0.949 . S
H3292 C3296 0.949 . S
C3293 C3294 1.349 . S
C3293 C3295 1.327 . S
C3293 H3316 0.950 . S
C3294 C3293 1.349 . S
C3294 C3306 1.349 . S
C3295 C3293 1.327 . S
C3295 C3311 1.429 . S
C3295 H3317 0.950 . S
C3296 H3292 0.949 . S
C3296 C3304 1.574 . S
C3296 C3312 1.368 . S
H3297 C3305 0.950 . S
H3298 C3303 0.950 . S
H3299 C3304 0.949 . S
H3300 C3306 0.950 . S
H3301 C3307 0.950 . S
H3302 C3308 0.949 . S
C3303 H3298 0.950 . S
C3303 C3305 1.327 . S
C3303 C3309 1.429 . S
C3304 C3296 1.574 . S
C3304 H3299 0.949 . S
C3304 C3310 1.368 . S
C3305 C3289 1.349 . S
C3305 H3297 0.950 . S
C3305 C3303 1.327 . S
C3306 C3294 1.349 . S
C3306 H3300 0.950 . S
C3306 C3307 1.327 . S
C3307 H3301 0.950 . S
C3307 C3306 1.327 . S
C3307 C3311 1.429 . S
C3308 C3291 1.574 . S
C3308 H3302 0.949 . S
C3308 C3312 1.368 . S
C3309 C3290 1.429 . S
C3309 C3303 1.429 . S
C3309 C3310 1.523 . S
C3310 C3291 1.368 . S
C3310 C3304 1.368 . S
C3310 C3309 1.523 . S
C3311 C3295 1.429 . S
C3311 C3307 1.429 . S
C3311 C3312 1.523 . S
C3312 C3296 1.368 . S
C3312 C3308 1.368 . S
C3312 C3311 1.523 . S
H3313 C3288 0.950 . S
H3314 C3290 0.950 . S
H3315 C3291 0.949 . S
H3316 C3293 0.950 . S
H3317 C3295 0.950 . S
C3318 C3319 1.349 . S
C3318 C3320 1.327 . S
C3318 H3343 0.950 . S
C3319 C3318 1.349 . S
C3319 C3335 1.349 . S
C3320 C3318 1.327 . S
C3320 C3339 1.429 . S
C3320 H3344 0.950 . S
C3321 C3338 1.574 . S
C3321 C3340 1.368 . S
C3321 H3345 0.949 . S
H3322 C3326 0.949 . S
C3323 C3324 1.349 . S
C3323 C3325 1.327 . S
C3323 H3346 0.950 . S
C3324 C3323 1.349 . S
C3324 C3336 1.349 . S
C3325 C3323 1.327 . S
C3325 C3341 1.429 . S
C3325 H3347 0.950 . S
C3326 H3322 0.949 . S
C3326 C3334 1.574 . S
C3326 C3342 1.368 . S
H3327 C3335 0.950 . S
H3328 C3333 0.950 . S
H3329 C3334 0.949 . S
H3330 C3336 0.950 . S
H3331 C3337 0.950 . S
H3332 C3338 0.949 . S
C3333 H3328 0.950 . S
C3333 C3335 1.327 . S
C3333 C3339 1.429 . S
C3334 C3326 1.574 . S
C3334 H3329 0.949 . S
C3334 C3340 1.368 . S
C3335 C3319 1.349 . S
C3335 H3327 0.950 . S
C3335 C3333 1.327 . S
C3336 C3324 1.349 . S
C3336 H3330 0.950 . S
C3336 C3337 1.327 . S
C3337 H3331 0.950 . S
C3337 C3336 1.327 . S
C3337 C3341 1.429 . S
C3338 C3321 1.574 . S
C3338 H3332 0.949 . S
C3338 C3342 1.368 . S
C3339 C3320 1.429 . S
C3339 C3333 1.429 . S
C3339 C3340 1.523 . S
C3340 C3321 1.368 . S
C3340 C3334 1.368 . S
C3340 C3339 1.523 . S
C3341 C3325 1.429 . S
C3341 C3337 1.429 . S
C3341 C3342 1.523 . S
C3342 C3326 1.368 . S
C3342 C3338 1.368 . S
C3342 C3341 1.523 . S
H3343 C3318 0.950 . S
H3344 C3320 0.950 . S
H3345 C3321 0.949 . S
H3346 C3323 0.950 . S
H3347 C3325 0.950 . S
C3348 C3349 1.349 1_565 S
C3348 C3350 1.327 . S
C3348 H3373 0.950 . S
C3349 C3348 1.349 1_545 S
C3349 C3365 1.349 . S
C3350 C3348 1.327 . S
C3350 C3369 1.429 1_565 S
C3350 H3374 0.950 . S
C3351 C3368 1.574 . S
C3351 C3370 1.368 . S
C3351 H3375 0.949 . S
H3352 C3356 0.949 . S
C3353 C3354 1.349 . S
C3353 C3355 1.327 . S
C3353 H3376 0.950 . S
C3354 C3353 1.349 . S
C3354 C3366 1.349 1_545 S
C3355 C3353 1.327 . S
C3355 C3371 1.429 . S
C3355 H3377 0.950 . S
C3356 H3352 0.949 . S
C3356 C3364 1.574 . S
C3356 C3372 1.368 1_565 S
H3357 C3365 0.950 . S
H3358 C3363 0.950 . S
H3359 C3364 0.949 . S
H3360 C3366 0.950 . S
H3361 C3367 0.950 . S
H3362 C3368 0.949 . S
C3363 H3358 0.950 . S
C3363 C3365 1.327 . S
C3363 C3369 1.429 . S
C3364 C3356 1.574 . S
C3364 H3359 0.949 . S
C3364 C3370 1.368 1_565 S
C3365 C3349 1.349 . S
C3365 H3357 0.950 . S
C3365 C3363 1.327 . S
C3366 C3354 1.349 1_565 S
C3366 H3360 0.950 . S
C3366 C3367 1.327 . S
C3367 H3361 0.950 . S
C3367 C3366 1.327 . S
C3367 C3371 1.429 1_565 S
C3368 C3351 1.574 . S
C3368 H3362 0.949 . S
C3368 C3372 1.368 . S
C3369 C3350 1.429 1_545 S
C3369 C3363 1.429 . S
C3369 C3370 1.523 . S
C3370 C3351 1.368 . S
C3370 C3364 1.368 1_545 S
C3370 C3369 1.523 . S
C3371 C3355 1.429 . S
C3371 C3367 1.429 1_545 S
C3371 C3372 1.523 . S
C3372 C3356 1.368 1_545 S
C3372 C3368 1.368 . S
C3372 C3371 1.523 . S
H3373 C3348 0.950 . S
H3374 C3350 0.950 . S
H3375 C3351 0.949 . S
H3376 C3353 0.950 . S
H3377 C3355 0.950 . S
C3378 C3379 1.349 . S
C3378 C3380 1.327 . S
C3378 H3403 0.950 . S
C3379 C3378 1.349 . S
C3379 C3395 1.349 . S
C3380 C3378 1.327 . S
C3380 C3399 1.429 . S
C3380 H3404 0.950 . S
C3381 C3398 1.574 . S
C3381 C3400 1.368 . S
C3381 H3405 0.949 . S
H3382 C3386 0.949 . S
C3383 C3384 1.349 . S
C3383 C3385 1.327 . S
C3383 H3406 0.950 . S
C3384 C3383 1.349 . S
C3384 C3396 1.349 . S
C3385 C3383 1.327 . S
C3385 C3401 1.429 . S
C3385 H3407 0.950 . S
C3386 H3382 0.949 . S
C3386 C3394 1.574 . S
C3386 C3402 1.368 . S
H3387 C3395 0.950 . S
H3388 C3393 0.950 . S
H3389 C3394 0.949 . S
H3390 C3396 0.950 . S
H3391 C3397 0.950 . S
H3392 C3398 0.949 . S
C3393 H3388 0.950 . S
C3393 C3395 1.327 . S
C3393 C3399 1.429 . S
C3394 C3386 1.574 . S
C3394 H3389 0.949 . S
C3394 C3400 1.368 . S
C3395 C3379 1.349 . S
C3395 H3387 0.950 . S
C3395 C3393 1.327 . S
C3396 C3384 1.349 . S
C3396 H3390 0.950 . S
C3396 C3397 1.327 . S
C3397 H3391 0.950 . S
C3397 C3396 1.327 . S
C3397 C3401 1.429 . S
C3398 C3381 1.574 . S
C3398 H3392 0.949 . S
C3398 C3402 1.368 . S
C3399 C3380 1.429 . S
C3399 C3393 1.429 . S
C3399 C3400 1.523 . S
C3400 C3381 1.368 . S
C3400 C3394 1.368 . S
C3400 C3399 1.523 . S
C3401 C3385 1.429 . S
C3401 C3397 1.429 . S
C3401 C3402 1.523 . S
C3402 C3386 1.368 . S
C3402 C3398 1.368 . S
C3402 C3401 1.523 . S
H3403 C3378 0.950 . S
H3404 C3380 0.950 . S
H3405 C3381 0.949 . S
H3406 C3383 0.950 . S
H3407 C3385 0.950 . S
C3408 C3409 1.349 . S
C3408 C3410 1.327 . S
C3408 H3433 0.950 . S
C3409 C3408 1.349 . S
C3409 C3425 1.349 . S
C3410 C3408 1.327 . S
C3410 C3429 1.429 . S
C3410 H3434 0.950 . S
C3411 C3428 1.574 . S
C3411 C3430 1.368 . S
C3411 H3435 0.949 . S
H3412 C3416 0.949 . S
C3413 C3414 1.349 . S
C3413 C3415 1.327 . S
C3413 H3436 0.950 . S
C3414 C3413 1.349 . S
C3414 C3426 1.349 . S
C3415 C3413 1.327 . S
C3415 C3431 1.429 . S
C3415 H3437 0.950 . S
C3416 H3412 0.949 . S
C3416 C3424 1.574 . S
C3416 C3432 1.368 . S
H3417 C3425 0.950 . S
H3418 C3423 0.950 . S
H3419 C3424 0.949 . S
H3420 C3426 0.950 . S
H3421 C3427 0.950 . S
H3422 C3428 0.949 . S
C3423 H3418 0.950 . S
C3423 C3425 1.327 . S
C3423 C3429 1.429 . S
C3424 C3416 1.574 . S
C3424 H3419 0.949 . S
C3424 C3430 1.368 . S
C3425 C3409 1.349 . S
C3425 H3417 0.950 . S
C3425 C3423 1.327 . S
C3426 C3414 1.349 . S
C3426 H3420 0.950 . S
C3426 C3427 1.327 . S
C3427 H3421 0.950 . S
C3427 C3426 1.327 . S
C3427 C3431 1.429 . S
C3428 C3411 1.574 . S
C3428 H3422 0.949 . S
C3428 C3432 1.368 . S
C3429 C3410 1.429 . S
C3429 C3423 1.429 . S
C3429 C3430 1.523 . S
C3430 C3411 1.368 . S
C3430 C3424 1.368 . S
C3430 C3429 1.523 . S
C3431 C3415 1.429 . S
C3431 C3427 1.429 . S
C3431 C3432 1.523 . S
C3432 C3416 1.368 . S
C3432 C3428 1.368 . S
C3432 C3431 1.523 . S
H3433 C3408 0.950 . S
H3434 C3410 0.950 . S
H3435 C3411 0.949 . S
H3436 C3413 0.950 . S
H3437 C3415 0.950 . S
C3438 C3439 1.349 . S
C3438 C3440 1.327 . S
C3438 H3463 0.950 . S
C3439 C3438 1.349 . S
C3439 C3455 1.349 . S
C3440 C3438 1.327 . S
C3440 C3459 1.429 . S
C3440 H3464 0.950 . S
C3441 C3458 1.574 . S
C3441 C3460 1.368 . S
C3441 H3465 0.949 . S
H3442 C3446 0.949 . S
C3443 C3444 1.349 . S
C3443 C3445 1.327 . S
C3443 H3466 0.950 . S
C3444 C3443 1.349 . S
C3444 C3456 1.349 . S
C3445 C3443 1.327 . S
C3445 C3461 1.429 . S
C3445 H3467 0.950 . S
C3446 H3442 0.949 . S
C3446 C3454 1.574 . S
C3446 C3462 1.368 . S
H3447 C3455 0.950 . S
H3448 C3453 0.950 . S
H3449 C3454 0.949 . S
H3450 C3456 0.950 . S
H3451 C3457 0.950 . S
H3452 C3458 0.949 . S
C3453 H3448 0.950 . S
C3453 C3455 1.327 . S
C3453 C3459 1.429 . S
C3454 C3446 1.574 . S
C3454 H3449 0.949 . S
C3454 C3460 1.368 . S
C3455 C3439 1.349 . S
C3455 H3447 0.950 . S
C3455 C3453 1.327 . S
C3456 C3444 1.349 . S
C3456 H3450 0.950 . S
C3456 C3457 1.327 . S
C3457 H3451 0.950 . S
C3457 C3456 1.327 . S
C3457 C3461 1.429 . S
C3458 C3441 1.574 . S
C3458 H3452 0.949 . S
C3458 C3462 1.368 . S
C3459 C3440 1.429 . S
C3459 C3453 1.429 . S
C3459 C3460 1.523 . S
C3460 C3441 1.368 . S
C3460 C3454 1.368 . S
C3460 C3459 1.523 . S
C3461 C3445 1.429 . S
C3461 C3457 1.429 . S
C3461 C3462 1.523 . S
C3462 C3446 1.368 . S
C3462 C3458 1.368 . S
C3462 C3461 1.523 . S
H3463 C3438 0.950 . S
H3464 C3440 0.950 . S
H3465 C3441 0.949 . S
H3466 C3443 0.950 . S
H3467 C3445 0.950 . S
C3468 C3469 1.349 . S
C3468 C3470 1.327 . S
C3468 H3493 0.950 . S
C3469 C3468 1.349 . S
C3469 C3485 1.349 . S
C3470 C3468 1.327 . S
C3470 C3489 1.429 . S
C3470 H3494 0.950 . S
C3471 C3488 1.574 . S
C3471 C3490 1.368 . S
C3471 H3495 0.949 . S
H3472 C3476 0.949 . S
C3473 C3474 1.349 . S
C3473 C3475 1.327 . S
C3473 H3496 0.950 . S
C3474 C3473 1.349 . S
C3474 C3486 1.349 . S
C3475 C3473 1.327 . S
C3475 C3491 1.429 . S
C3475 H3497 0.950 . S
C3476 H3472 0.949 . S
C3476 C3484 1.574 . S
C3476 C3492 1.368 . S
H3477 C3485 0.950 . S
H3478 C3483 0.950 . S
H3479 C3484 0.949 . S
H3480 C3486 0.950 . S
H3481 C3487 0.950 . S
H3482 C3488 0.949 . S
C3483 H3478 0.950 . S
C3483 C3485 1.327 . S
C3483 C3489 1.429 . S
C3484 C3476 1.574 . S
C3484 H3479 0.949 . S
C3484 C3490 1.368 . S
C3485 C3469 1.349 . S
C3485 H3477 0.950 . S
C3485 C3483 1.327 . S
C3486 C3474 1.349 . S
C3486 H3480 0.950 . S
C3486 C3487 1.327 . S
C3487 H3481 0.950 . S
C3487 C3486 1.327 . S
C3487 C3491 1.429 . S
C3488 C3471 1.574 . S
C3488 H3482 0.949 . S
C3488 C3492 1.368 . S
C3489 C3470 1.429 . S
C3489 C3483 1.429 . S
C3489 C3490 1.523 . S
C3490 C3471 1.368 . S
C3490 C3484 1.368 . S
C3490 C3489 1.523 . S
C3491 C3475 1.429 . S
C3491 C3487 1.429 . S
C3491 C3492 1.523 . S
C3492 C3476 1.368 . S
C3492 C3488 1.368 . S
C3492 C3491 1.523 . S
H3493 C3468 0.950 . S
H3494 C3470 0.950 . S
H3495 C3471 0.949 . S
H3496 C3473 0.950 . S
H3497 C3475 0.950 . S
C3498 C3499 1.349 . S
C3498 C3500 1.327 . S
C3498 H3523 0.950 . S
C3499 C3498 1.349 . S
C3499 C3515 1.349 . S
C3500 C3498 1.327 . S
C3500 C3519 1.429 . S
C3500 H3524 0.950 . S
C3501 C3518 1.574 . S
C3501 C3520 1.368 . S
C3501 H3525 0.949 . S
H3502 C3506 0.949 . S
C3503 C3504 1.349 . S
C3503 C3505 1.327 . S
C3503 H3526 0.950 . S
C3504 C3503 1.349 . S
C3504 C3516 1.349 . S
C3505 C3503 1.327 . S
C3505 C3521 1.429 . S
C3505 H3527 0.950 . S
C3506 H3502 0.949 . S
C3506 C3514 1.574 . S
C3506 C3522 1.368 . S
H3507 C3515 0.950 . S
H3508 C3513 0.950 . S
H3509 C3514 0.949 . S
H3510 C3516 0.950 . S
H3511 C3517 0.950 . S
H3512 C3518 0.949 . S
C3513 H3508 0.950 . S
C3513 C3515 1.327 . S
C3513 C3519 1.429 . S
C3514 C3506 1.574 . S
C3514 H3509 0.949 . S
C3514 C3520 1.368 . S
C3515 C3499 1.349 . S
C3515 H3507 0.950 . S
C3515 C3513 1.327 . S
C3516 C3504 1.349 . S
C3516 H3510 0.950 . S
C3516 C3517 1.327 . S
C3517 H3511 0.950 . S
C3517 C3516 1.327 . S
C3517 C3521 1.429 . S
C3518 C3501 1.574 . S
C3518 H3512 0.949 . S
C3518 C3522 1.368 . S
C3519 C3500 1.429 . S
C3519 C3513 1.429 . S
C3519 C3520 1.523 . S
C3520 C3501 1.368 . S
C3520 C3514 1.368 . S
C3520 C3519 1.523 . S
C3521 C3505 1.429 . S
C3521 C3517 1.429 . S
C3521 C3522 1.523 . S
C3522 C3506 1.368 . S
C3522 C3518 1.368 . S
C3522 C3521 1.523 . S
H3523 C3498 0.950 . S
H3524 C3500 0.950 . S
H3525 C3501 0.949 . S
H3526 C3503 0.950 . S
H3527 C3505 0.950 . S
C3528 C3529 1.349 1_565 S
C3528 C3530 1.327 . S
C3528 H3553 0.950 . S
C3529 C3528 1.349 1_545 S
C3529 C3545 1.349 1_545 S
C3530 C3528 1.327 . S
C3530 C3549 1.429 . S
C3530 H3554 0.950 . S
C3531 C3548 1.574 . S
C3531 C3550 1.368 . S
C3531 H3555 0.949 . S
H3532 C3536 0.949 . S
C3533 C3534 1.349 . S
C3533 C3535 1.327 . S
C3533 H3556 0.950 . S
C3534 C3533 1.349 . S
C3534 C3546 1.349 . S
C3535 C3533 1.327 . S
C3535 C3551 1.429 . S
C3535 H3557 0.950 . S
C3536 H3532 0.949 . S
C3536 C3544 1.574 . S
C3536 C3552 1.368 . S
H3537 C3545 0.950 1_545 S
H3538 C3543 0.950 . S
H3539 C3544 0.949 . S
H3540 C3546 0.950 . S
H3541 C3547 0.950 . S
H3542 C3548 0.949 . S
C3543 H3538 0.950 . S
C3543 C3545 1.327 . S
C3543 C3549 1.429 . S
C3544 C3536 1.574 . S
C3544 H3539 0.949 . S
C3544 C3550 1.368 . S
C3545 C3529 1.349 1_565 S
C3545 H3537 0.950 1_565 S
C3545 C3543 1.327 . S
C3546 C3534 1.349 . S
C3546 H3540 0.950 . S
C3546 C3547 1.327 . S
C3547 H3541 0.950 . S
C3547 C3546 1.327 . S
C3547 C3551 1.429 . S
C3548 C3531 1.574 . S
C3548 H3542 0.949 . S
C3548 C3552 1.368 . S
C3549 C3530 1.429 . S
C3549 C3543 1.429 . S
C3549 C3550 1.523 . S
C3550 C3531 1.368 . S
C3550 C3544 1.368 . S
C3550 C3549 1.523 . S
C3551 C3535 1.429 . S
C3551 C3547 1.429 . S
C3551 C3552 1.523 . S
C3552 C3536 1.368 . S
C3552 C3548 1.368 . S
C3552 C3551 1.523 . S
H3553 C3528 0.950 . S
H3554 C3530 0.950 . S
H3555 C3531 0.949 . S
H3556 C3533 0.950 . S
H3557 C3535 0.950 . S
C3558 C3559 1.349 . S
C3558 C3560 1.327 . S
C3558 H3583 0.950 . S
C3559 C3558 1.349 . S
C3559 C3575 1.349 . S
C3560 C3558 1.327 . S
C3560 C3579 1.429 . S
C3560 H3584 0.950 . S
C3561 C3578 1.574 . S
C3561 C3580 1.368 . S
C3561 H3585 0.949 . S
H3562 C3566 0.949 . S
C3563 C3564 1.349 . S
C3563 C3565 1.327 . S
C3563 H3586 0.950 . S
C3564 C3563 1.349 . S
C3564 C3576 1.349 . S
C3565 C3563 1.327 . S
C3565 C3581 1.429 . S
C3565 H3587 0.950 . S
C3566 H3562 0.949 . S
C3566 C3574 1.574 . S
C3566 C3582 1.368 . S
H3567 C3575 0.950 . S
H3568 C3573 0.950 . S
H3569 C3574 0.949 . S
H3570 C3576 0.950 1_545 S
H3571 C3577 0.950 . S
H3572 C3578 0.949 . S
C3573 H3568 0.950 . S
C3573 C3575 1.327 . S
C3573 C3579 1.429 . S
C3574 C3566 1.574 . S
C3574 H3569 0.949 . S
C3574 C3580 1.368 . S
C3575 C3559 1.349 . S
C3575 H3567 0.950 . S
C3575 C3573 1.327 . S
C3576 C3564 1.349 . S
C3576 H3570 0.950 1_565 S
C3576 C3577 1.327 . S
C3577 H3571 0.950 . S
C3577 C3576 1.327 . S
C3577 C3581 1.429 . S
C3578 C3561 1.574 . S
C3578 H3572 0.949 . S
C3578 C3582 1.368 . S
C3579 C3560 1.429 . S
C3579 C3573 1.429 . S
C3579 C3580 1.523 . S
C3580 C3561 1.368 . S
C3580 C3574 1.368 . S
C3580 C3579 1.523 . S
C3581 C3565 1.429 . S
C3581 C3577 1.429 . S
C3581 C3582 1.523 . S
C3582 C3566 1.368 . S
C3582 C3578 1.368 . S
C3582 C3581 1.523 . S
H3583 C3558 0.950 . S
H3584 C3560 0.950 . S
H3585 C3561 0.949 . S
H3586 C3563 0.950 . S
H3587 C3565 0.950 . S
C3588 C3589 1.349 . S
C3588 C3590 1.327 . S
C3588 H3613 0.950 . S
C3589 C3588 1.349 . S
C3589 C3605 1.349 . S
C3590 C3588 1.327 . S
C3590 C3609 1.429 . S
C3590 H3614 0.950 . S
C3591 C3608 1.574 . S
C3591 C3610 1.368 . S
C3591 H3615 0.949 . S
H3592 C3596 0.949 . S
C3593 C3594 1.349 . S
C3593 C3595 1.327 . S
C3593 H3616 0.950 . S
C3594 C3593 1.349 . S
C3594 C3606 1.349 . S
C3595 C3593 1.327 . S
C3595 C3611 1.429 . S
C3595 H3617 0.950 . S
C3596 H3592 0.949 . S
C3596 C3604 1.574 . S
C3596 C3612 1.368 . S
H3597 C3605 0.950 . S
H3598 C3603 0.950 . S
H3599 C3604 0.949 . S
H3600 C3606 0.950 . S
H3601 C3607 0.950 . S
H3602 C3608 0.949 . S
C3603 H3598 0.950 . S
C3603 C3605 1.327 . S
C3603 C3609 1.429 . S
C3604 C3596 1.574 . S
C3604 H3599 0.949 . S
C3604 C3610 1.368 . S
C3605 C3589 1.349 . S
C3605 H3597 0.950 . S
C3605 C3603 1.327 . S
C3606 C3594 1.349 . S
C3606 H3600 0.950 . S
C3606 C3607 1.327 . S
C3607 H3601 0.950 . S
C3607 C3606 1.327 . S
C3607 C3611 1.429 . S
C3608 C3591 1.574 . S
C3608 H3602 0.949 . S
C3608 C3612 1.368 . S
C3609 C3590 1.429 . S
C3609 C3603 1.429 . S
C3609 C3610 1.523 . S
C3610 C3591 1.368 . S
C3610 C3604 1.368 . S
C3610 C3609 1.523 . S
C3611 C3595 1.429 . S
C3611 C3607 1.429 . S
C3611 C3612 1.523 . S
C3612 C3596 1.368 . S
C3612 C3608 1.368 . S
C3612 C3611 1.523 . S
H3613 C3588 0.950 . S
H3614 C3590 0.950 . S
H3615 C3591 0.949 . S
H3616 C3593 0.950 . S
H3617 C3595 0.950 . S
C3618 C3619 1.349 . S
C3618 C3620 1.327 . S
C3618 H3643 0.950 . S
C3619 C3618 1.349 . S
C3619 C3635 1.349 . S
C3620 C3618 1.327 . S
C3620 C3639 1.429 . S
C3620 H3644 0.950 . S
C3621 C3638 1.574 . S
C3621 C3640 1.368 . S
C3621 H3645 0.949 . S
H3622 C3626 0.949 . S
C3623 C3624 1.349 . S
C3623 C3625 1.327 . S
C3623 H3646 0.950 . S
C3624 C3623 1.349 . S
C3624 C3636 1.349 . S
C3625 C3623 1.327 . S
C3625 C3641 1.429 . S
C3625 H3647 0.950 . S
C3626 H3622 0.949 . S
C3626 C3634 1.574 . S
C3626 C3642 1.368 . S
H3627 C3635 0.950 . S
H3628 C3633 0.950 . S
H3629 C3634 0.949 . S
H3630 C3636 0.950 . S
H3631 C3637 0.950 . S
H3632 C3638 0.949 . S
C3633 H3628 0.950 . S
C3633 C3635 1.327 . S
C3633 C3639 1.429 . S
C3634 C3626 1.574 . S
C3634 H3629 0.949 . S
C3634 C3640 1.368 . S
C3635 C3619 1.349 . S
C3635 H3627 0.950 . S
C3635 C3633 1.327 . S
C3636 C3624 1.349 . S
C3636 H3630 0.950 . S
C3636 C3637 1.327 . S
C3637 H3631 0.950 . S
C3637 C3636 1.327 . S
C3637 C3641 1.429 . S
C3638 C3621 1.574 . S
C3638 H3632 0.949 . S
C3638 C3642 1.368 . S
C3639 C3620 1.429 . S
C3639 C3633 1.429 . S
C3639 C3640 1.523 . S
C3640 C3621 1.368 . S
C3640 C3634 1.368 . S
C3640 C3639 1.523 . S
C3641 C3625 1.429 . S
C3641 C3637 1.429 . S
C3641 C3642 1.523 . S
C3642 C3626 1.368 . S
C3642 C3638 1.368 . S
C3642 C3641 1.523 . S
H3643 C3618 0.950 . S
H3644 C3620 0.950 . S
H3645 C3621 0.949 . S
H3646 C3623 0.950 . S
H3647 C3625 0.950 . S
C3648 C3649 1.349 . S
C3648 C3650 1.327 . S
C3648 H3673 0.950 . S
C3649 C3648 1.349 . S
C3649 C3665 1.349 . S
C3650 C3648 1.327 . S
C3650 C3669 1.429 . S
C3650 H3674 0.950 . S
C3651 C3668 1.574 . S
C3651 C3670 1.368 . S
C3651 H3675 0.949 . S
H3652 C3656 0.949 . S
C3653 C3654 1.349 . S
C3653 C3655 1.327 . S
C3653 H3676 0.950 . S
C3654 C3653 1.349 . S
C3654 C3666 1.349 . S
C3655 C3653 1.327 . S
C3655 C3671 1.429 . S
C3655 H3677 0.950 . S
C3656 H3652 0.949 . S
C3656 C3664 1.574 . S
C3656 C3672 1.368 . S
H3657 C3665 0.950 . S
H3658 C3663 0.950 . S
H3659 C3664 0.949 . S
H3660 C3666 0.950 . S
H3661 C3667 0.950 . S
H3662 C3668 0.949 . S
C3663 H3658 0.950 . S
C3663 C3665 1.327 . S
C3663 C3669 1.429 . S
C3664 C3656 1.574 . S
C3664 H3659 0.949 . S
C3664 C3670 1.368 . S
C3665 C3649 1.349 . S
C3665 H3657 0.950 . S
C3665 C3663 1.327 . S
C3666 C3654 1.349 . S
C3666 H3660 0.950 . S
C3666 C3667 1.327 . S
C3667 H3661 0.950 . S
C3667 C3666 1.327 . S
C3667 C3671 1.429 . S
C3668 C3651 1.574 . S
C3668 H3662 0.949 . S
C3668 C3672 1.368 . S
C3669 C3650 1.429 . S
C3669 C3663 1.429 . S
C3669 C3670 1.523 . S
C3670 C3651 1.368 . S
C3670 C3664 1.368 . S
C3670 C3669 1.523 . S
C3671 C3655 1.429 . S
C3671 C3667 1.429 . S
C3671 C3672 1.523 . S
C3672 C3656 1.368 . S
C3672 C3668 1.368 . S
C3672 C3671 1.523 . S
H3673 C3648 0.950 . S
H3674 C3650 0.950 . S
H3675 C3651 0.949 . S
H3676 C3653 0.950 . S
H3677 C3655 0.950 . S
C3678 C3679 1.349 . S
C3678 C3680 1.327 . S
C3678 H3703 0.950 . S
C3679 C3678 1.349 . S
C3679 C3695 1.349 . S
C3680 C3678 1.327 . S
C3680 C3699 1.429 . S
C3680 H3704 0.950 . S
C3681 C3698 1.574 . S
C3681 C3700 1.368 . S
C3681 H3705 0.949 . S
H3682 C3686 0.949 . S
C3683 C3684 1.349 . S
C3683 C3685 1.327 . S
C3683 H3706 0.950 . S
C3684 C3683 1.349 . S
C3684 C3696 1.349 . S
C3685 C3683 1.327 . S
C3685 C3701 1.429 . S
C3685 H3707 0.950 . S
C3686 H3682 0.949 . S
C3686 C3694 1.574 . S
C3686 C3702 1.368 . S
H3687 C3695 0.950 . S
H3688 C3693 0.950 . S
H3689 C3694 0.949 . S
H3690 C3696 0.950 . S
H3691 C3697 0.950 . S
H3692 C3698 0.949 . S
C3693 H3688 0.950 . S
C3693 C3695 1.327 . S
C3693 C3699 1.429 . S
C3694 C3686 1.574 . S
C3694 H3689 0.949 . S
C3694 C3700 1.368 . S
C3695 C3679 1.349 . S
C3695 H3687 0.950 . S
C3695 C3693 1.327 . S
C3696 C3684 1.349 . S
C3696 H3690 0.950 . S
C3696 C3697 1.327 . S
C3697 H3691 0.950 . S
C3697 C3696 1.327 . S
C3697 C3701 1.429 . S
C3698 C3681 1.574 . S
C3698 H3692 0.949 . S
C3698 C3702 1.368 . S
C3699 C3680 1.429 . S
C3699 C3693 1.429 . S
C3699 C3700 1.523 . S
C3700 C3681 1.368 . S
C3700 C3694 1.368 . S
C3700 C3699 1.523 . S
C3701 C3685 1.429 . S
C3701 C3697 1.429 . S
C3701 C3702 1.523 . S
C3702 C3686 1.368 . S
C3702 C3698 1.368 . S
C3702 C3701 1.523 . S
H3703 C3678 0.950 . S
H3704 C3680 0.950 . S
H3705 C3681 0.949 . S
H3706 C3683 0.950 . S
H3707 C3685 0.950 . S
C3708 C3709 1.349 1_655 S
C3708 C3710 1.323 . S
C3708 H3733 0.950 . S
C3709 C3708 1.349 1_455 S
C3709 C3725 1.349 . S
C3710 C3708 1.323 . S
C3710 C3729 1.419 1_655 S
C3710 H3734 0.964 . S
C3711 C3728 1.574 1_556 S
C3711 C3730 1.368 . S
C3711 H3735 0.949 1_556 S
H3712 C3716 0.949 1_655 S
C3713 C3714 1.349 . S
C3713 C3715 1.327 . S
C3713 H3736 0.950 . S
C3714 C3713 1.349 . S
C3714 C3726 1.349 1_554 S
C3715 C3713 1.327 . S
C3715 C3731 1.429 1_554 S
C3715 H3737 0.950 . S
C3716 H3712 0.949 1_455 S
C3716 C3724 1.574 . S
C3716 C3732 1.368 . S
H3717 C3725 0.950 . S
H3718 C3723 0.950 . S
H3719 C3724 0.949 1_655 S
H3720 C3726 0.950 . S
H3721 C3727 0.949 1_655 S
H3722 C3728 0.949 . S
C3723 H3718 0.950 . S
C3723 C3725 1.327 . S
C3723 C3729 1.429 . S
C3724 C3716 1.574 . S
C3724 H3719 0.949 1_455 S
C3724 C3730 1.368 . S
C3725 C3709 1.349 . S
C3725 H3717 0.950 . S
C3725 C3723 1.327 . S
C3726 C3714 1.349 1_556 S
C3726 H3720 0.950 . S
C3726 C3727 1.327 . S
C3727 H3721 0.949 1_455 S
C3727 C3726 1.327 . S
C3727 C3731 1.429 . S
C3728 C3711 1.574 1_554 S
C3728 H3722 0.949 . S
C3728 C3732 1.368 1_554 S
C3729 C3710 1.419 1_455 S
C3729 C3723 1.429 . S
C3729 C3730 1.523 . S
C3730 C3711 1.368 . S
C3730 C3724 1.368 . S
C3730 C3729 1.523 . S
C3731 C3715 1.429 1_556 S
C3731 C3727 1.429 . S
C3731 C3732 1.523 . S
C3732 C3716 1.368 . S
C3732 C3728 1.368 1_556 S
C3732 C3731 1.523 . S
H3733 C3708 0.950 . S
H3734 C3710 0.964 . S
H3735 C3711 0.949 1_554 S
H3736 C3713 0.950 . S
H3737 C3715 0.950 . S
C3738 C3739 1.349 . S
C3738 C3740 1.327 . S
C3738 H3763 0.950 1_655 S
C3739 C3738 1.349 . S
C3739 C3755 1.349 . S
C3740 C3738 1.327 . S
C3740 C3759 1.429 . S
C3740 H3764 0.950 . S
C3741 C3758 1.574 . S
C3741 C3760 1.368 . S
C3741 H3765 0.949 . S
H3742 C3746 0.949 . S
C3743 C3744 1.349 . S
C3743 C3745 1.327 . S
C3743 H3766 0.950 . S
C3744 C3743 1.349 . S
C3744 C3756 1.349 . S
C3745 C3743 1.327 . S
C3745 C3761 1.429 . S
C3745 H3767 0.950 . S
C3746 H3742 0.949 . S
C3746 C3754 1.574 . S
C3746 C3762 1.368 . S
H3747 C3755 0.950 . S
H3748 C3753 0.950 . S
H3749 C3754 0.949 . S
H3750 C3756 0.950 . S
H3751 C3757 0.950 . S
H3752 C3758 0.949 . S
C3753 H3748 0.950 . S
C3753 C3755 1.327 . S
C3753 C3759 1.429 . S
C3754 C3746 1.574 . S
C3754 H3749 0.949 . S
C3754 C3760 1.368 . S
C3755 C3739 1.349 . S
C3755 H3747 0.950 . S
C3755 C3753 1.327 . S
C3756 C3744 1.349 . S
C3756 H3750 0.950 . S
C3756 C3757 1.327 . S
C3757 H3751 0.950 . S
C3757 C3756 1.327 . S
C3757 C3761 1.429 . S
C3758 C3741 1.574 . S
C3758 H3752 0.949 . S
C3758 C3762 1.368 . S
C3759 C3740 1.429 . S
C3759 C3753 1.429 . S
C3759 C3760 1.523 . S
C3760 C3741 1.368 . S
C3760 C3754 1.368 . S
C3760 C3759 1.523 . S
C3761 C3745 1.429 . S
C3761 C3757 1.429 . S
C3761 C3762 1.523 . S
C3762 C3746 1.368 . S
C3762 C3758 1.368 . S
C3762 C3761 1.523 . S
H3763 C3738 0.950 1_455 S
H3764 C3740 0.950 . S
H3765 C3741 0.949 . S
H3766 C3743 0.950 . S
H3767 C3745 0.950 . S
C3768 C3769 1.349 . S
C3768 C3770 1.327 . S
C3768 H3793 0.950 . S
C3769 C3768 1.349 . S
C3769 C3785 1.349 . S
C3770 C3768 1.327 . S
C3770 C3789 1.429 . S
C3770 H3794 0.950 . S
C3771 C3788 1.574 . S
C3771 C3790 1.368 . S
C3771 H3795 0.949 . S
H3772 C3776 0.949 . S
C3773 C3774 1.349 . S
C3773 C3775 1.327 . S
C3773 H3796 0.950 . S
C3774 C3773 1.349 . S
C3774 C3786 1.349 . S
C3775 C3773 1.327 . S
C3775 C3791 1.429 . S
C3775 H3797 0.950 . S
C3776 H3772 0.949 . S
C3776 C3784 1.574 . S
C3776 C3792 1.368 . S
H3777 C3785 0.950 . S
H3778 C3783 0.950 . S
H3779 C3784 0.949 . S
H3780 C3786 0.950 . S
H3781 C3787 0.950 . S
H3782 C3788 0.949 . S
C3783 H3778 0.950 . S
C3783 C3785 1.327 . S
C3783 C3789 1.429 . S
C3784 C3776 1.574 . S
C3784 H3779 0.949 . S
C3784 C3790 1.368 . S
C3785 C3769 1.349 . S
C3785 H3777 0.950 . S
C3785 C3783 1.327 . S
C3786 C3774 1.349 . S
C3786 H3780 0.950 . S
C3786 C3787 1.327 . S
C3787 H3781 0.950 . S
C3787 C3786 1.327 . S
C3787 C3791 1.429 . S
C3788 C3771 1.574 . S
C3788 H3782 0.949 . S
C3788 C3792 1.368 . S
C3789 C3770 1.429 . S
C3789 C3783 1.429 . S
C3789 C3790 1.523 . S
C3790 C3771 1.368 . S
C3790 C3784 1.368 . S
C3790 C3789 1.523 . S
C3791 C3775 1.429 . S
C3791 C3787 1.429 . S
C3791 C3792 1.523 . S
C3792 C3776 1.368 . S
C3792 C3788 1.368 . S
C3792 C3791 1.523 . S
H3793 C3768 0.950 . S
H3794 C3770 0.950 . S
H3795 C3771 0.949 . S
H3796 C3773 0.950 . S
H3797 C3775 0.950 . S
C3798 C3799 1.349 . S
C3798 C3800 1.327 . S
C3798 H3823 0.950 . S
C3799 C3798 1.349 . S
C3799 C3815 1.349 . S
C3800 C3798 1.327 . S
C3800 C3819 1.429 . S
C3800 H3824 0.950 . S
C3801 C3818 1.574 . S
C3801 C3820 1.368 . S
C3801 H3825 0.949 . S
H3802 C3806 0.949 . S
C3803 C3804 1.349 . S
C3803 C3805 1.327 . S
C3803 H3826 0.950 . S
C3804 C3803 1.349 . S
C3804 C3816 1.349 . S
C3805 C3803 1.327 . S
C3805 C3821 1.429 . S
C3805 H3827 0.950 . S
C3806 H3802 0.949 . S
C3806 C3814 1.574 . S
C3806 C3822 1.368 . S
H3807 C3815 0.950 . S
H3808 C3813 0.950 . S
H3809 C3814 0.949 . S
H3810 C3816 0.950 . S
H3811 C3817 0.950 . S
H3812 C3818 0.949 . S
C3813 H3808 0.950 . S
C3813 C3815 1.327 . S
C3813 C3819 1.429 . S
C3814 C3806 1.574 . S
C3814 H3809 0.949 . S
C3814 C3820 1.368 . S
C3815 C3799 1.349 . S
C3815 H3807 0.950 . S
C3815 C3813 1.327 . S
C3816 C3804 1.349 . S
C3816 H3810 0.950 . S
C3816 C3817 1.327 . S
C3817 H3811 0.950 . S
C3817 C3816 1.327 . S
C3817 C3821 1.429 . S
C3818 C3801 1.574 . S
C3818 H3812 0.949 . S
C3818 C3822 1.368 . S
C3819 C3800 1.429 . S
C3819 C3813 1.429 . S
C3819 C3820 1.523 . S
C3820 C3801 1.368 . S
C3820 C3814 1.368 . S
C3820 C3819 1.523 . S
C3821 C3805 1.429 . S
C3821 C3817 1.429 . S
C3821 C3822 1.523 . S
C3822 C3806 1.368 . S
C3822 C3818 1.368 . S
C3822 C3821 1.523 . S
H3823 C3798 0.950 . S
H3824 C3800 0.950 . S
H3825 C3801 0.949 . S
H3826 C3803 0.950 . S
H3827 C3805 0.950 . S
C3828 C3829 1.349 . S
C3828 C3830 1.327 . S
C3828 H3853 0.950 . S
C3829 C3828 1.349 . S
C3829 C3845 1.349 1_455 S
C3830 C3828 1.327 . S
C3830 C3849 1.429 . S
C3830 H3854 0.950 . S
C3831 C3848 1.551 1_655 S
C3831 C3850 1.325 1_655 S
C3831 H3855 1.007 . S
H3832 C3836 0.949 . S
C3833 C3834 1.349 . S
C3833 C3835 1.327 . S
C3833 H3856 0.950 1_455 S
C3834 C3833 1.349 . S
C3834 C3846 1.349 . S
C3835 C3833 1.327 . S
C3835 C3851 1.429 . S
C3835 H3857 0.950 1_455 S
C3836 H3832 0.949 . S
C3836 C3844 1.574 . S
C3836 C3852 1.368 . S
H3837 C3845 0.950 . S
H3838 C3843 0.950 . S
H3839 C3844 0.949 . S
H3840 C3846 0.950 . S
H3841 C3847 0.950 . S
H3842 C3848 0.938 1_655 S
C3843 H3838 0.950 . S
C3843 C3845 1.327 . S
C3843 C3849 1.429 1_655 S
C3844 C3836 1.574 . S
C3844 H3839 0.949 . S
C3844 C3850 1.368 . S
C3845 C3829 1.349 1_655 S
C3845 H3837 0.950 . S
C3845 C3843 1.327 . S
C3846 C3834 1.349 . S
C3846 H3840 0.950 . S
C3846 C3847 1.327 . S
C3847 H3841 0.950 . S
C3847 C3846 1.327 . S
C3847 C3851 1.429 . S
C3848 C3831 1.551 1_455 S
C3848 H3842 0.938 1_455 S
C3848 C3852 1.386 . S
C3849 C3830 1.429 . S
C3849 C3843 1.429 1_455 S
C3849 C3850 1.523 . S
C3850 C3831 1.325 1_455 S
C3850 C3844 1.368 . S
C3850 C3849 1.523 . S
C3851 C3835 1.429 . S
C3851 C3847 1.429 . S
C3851 C3852 1.523 . S
C3852 C3836 1.368 . S
C3852 C3848 1.386 . S
C3852 C3851 1.523 . S
H3853 C3828 0.950 . S
H3854 C3830 0.950 . S
H3855 C3831 1.007 . S
H3856 C3833 0.950 1_655 S
H3857 C3835 0.950 1_655 S
C3858 C3859 1.349 . S
C3858 C3860 1.327 . S
C3858 H3883 0.950 . S
C3859 C3858 1.349 . S
C3859 C3875 1.349 . S
C3860 C3858 1.327 . S
C3860 C3879 1.429 . S
C3860 H3884 0.950 . S
C3861 C3878 1.574 . S
C3861 C3880 1.368 . S
C3861 H3885 0.949 . S
H3862 C3866 0.949 . S
C3863 C3864 1.349 . S
C3863 C3865 1.327 . S
C3863 H3886 0.950 . S
C3864 C3863 1.349 . S
C3864 C3876 1.349 . S
C3865 C3863 1.327 . S
C3865 C3881 1.429 . S
C3865 H3887 0.950 . S
C3866 H3862 0.949 . S
C3866 C3874 1.574 . S
C3866 C3882 1.368 . S
H3867 C3875 0.950 . S
H3868 C3873 0.950 . S
H3869 C3874 0.949 . S
H3870 C3876 0.950 . S
H3871 C3877 0.950 . S
H3872 C3878 0.949 . S
C3873 H3868 0.950 . S
C3873 C3875 1.327 . S
C3873 C3879 1.429 . S
C3874 C3866 1.574 . S
C3874 H3869 0.949 . S
C3874 C3880 1.368 . S
C3875 C3859 1.349 . S
C3875 H3867 0.950 . S
C3875 C3873 1.327 . S
C3876 C3864 1.349 . S
C3876 H3870 0.950 . S
C3876 C3877 1.327 . S
C3877 H3871 0.950 . S
C3877 C3876 1.327 . S
C3877 C3881 1.429 . S
C3878 C3861 1.574 . S
C3878 H3872 0.949 . S
C3878 C3882 1.368 . S
C3879 C3860 1.429 . S
C3879 C3873 1.429 . S
C3879 C3880 1.523 . S
C3880 C3861 1.368 . S
C3880 C3874 1.368 . S
C3880 C3879 1.523 . S
C3881 C3865 1.429 . S
C3881 C3877 1.429 . S
C3881 C3882 1.523 . S
C3882 C3866 1.368 . S
C3882 C3878 1.368 . S
C3882 C3881 1.523 . S
H3883 C3858 0.950 . S
H3884 C3860 0.950 . S
H3885 C3861 0.949 . S
H3886 C3863 0.950 . S
H3887 C3865 0.950 . S
C3888 C3889 1.349 . S
C3888 C3890 1.327 . S
C3888 H3913 0.950 . S
C3889 C3888 1.349 . S
C3889 C3905 1.349 . S
C3890 C3888 1.327 . S
C3890 C3909 1.429 . S
C3890 H3914 0.950 . S
C3891 C3908 1.574 . S
C3891 C3910 1.368 . S
C3891 H3915 0.949 . S
H3892 C3896 0.949 . S
C3893 C3894 1.349 . S
C3893 C3895 1.327 . S
C3893 H3916 0.950 . S
C3894 C3893 1.349 . S
C3894 C3906 1.349 . S
C3895 C3893 1.327 . S
C3895 C3911 1.429 . S
C3895 H3917 0.950 . S
C3896 H3892 0.949 . S
C3896 C3904 1.574 . S
C3896 C3912 1.368 . S
H3897 C3905 0.950 . S
H3898 C3903 0.950 . S
H3899 C3904 0.949 . S
H3900 C3906 0.950 . S
H3901 C3907 0.950 . S
H3902 C3908 0.949 . S
C3903 H3898 0.950 . S
C3903 C3905 1.327 . S
C3903 C3909 1.429 . S
C3904 C3896 1.574 . S
C3904 H3899 0.949 . S
C3904 C3910 1.368 . S
C3905 C3889 1.349 . S
C3905 H3897 0.950 . S
C3905 C3903 1.327 . S
C3906 C3894 1.349 . S
C3906 H3900 0.950 . S
C3906 C3907 1.327 . S
C3907 H3901 0.950 . S
C3907 C3906 1.327 . S
C3907 C3911 1.429 . S
C3908 C3891 1.574 . S
C3908 H3902 0.949 . S
C3908 C3912 1.368 . S
C3909 C3890 1.429 . S
C3909 C3903 1.429 . S
C3909 C3910 1.523 . S
C3910 C3891 1.368 . S
C3910 C3904 1.368 . S
C3910 C3909 1.523 . S
C3911 C3895 1.429 . S
C3911 C3907 1.429 . S
C3911 C3912 1.523 . S
C3912 C3896 1.368 . S
C3912 C3908 1.368 . S
C3912 C3911 1.523 . S
H3913 C3888 0.950 . S
H3914 C3890 0.950 . S
H3915 C3891 0.949 . S
H3916 C3893 0.950 . S
H3917 C3895 0.950 . S
C3918 C3919 1.349 . S
C3918 C3920 1.327 . S
C3918 H3943 0.950 . S
C3919 C3918 1.349 . S
C3919 C3935 1.349 . S
C3920 C3918 1.327 . S
C3920 C3939 1.429 . S
C3920 H3944 0.950 . S
C3921 C3938 1.574 . S
C3921 C3940 1.368 . S
C3921 H3945 0.949 . S
H3922 C3926 0.949 . S
C3923 C3924 1.349 . S
C3923 C3925 1.327 . S
C3923 H3946 0.950 . S
C3924 C3923 1.349 . S
C3924 C3936 1.349 . S
C3925 C3923 1.327 . S
C3925 C3941 1.429 . S
C3925 H3947 0.950 . S
C3926 H3922 0.949 . S
C3926 C3934 1.574 . S
C3926 C3942 1.368 . S
H3927 C3935 0.950 1_554 S
H3928 C3933 0.950 . S
H3929 C3934 0.949 . S
H3930 C3936 0.950 . S
H3931 C3937 0.950 . S
H3932 C3938 0.949 . S
C3933 H3928 0.950 . S
C3933 C3935 1.327 . S
C3933 C3939 1.429 . S
C3934 C3926 1.574 . S
C3934 H3929 0.949 . S
C3934 C3940 1.368 . S
C3935 C3919 1.349 . S
C3935 H3927 0.950 1_556 S
C3935 C3933 1.327 . S
C3936 C3924 1.349 . S
C3936 H3930 0.950 . S
C3936 C3937 1.327 . S
C3937 H3931 0.950 . S
C3937 C3936 1.327 . S
C3937 C3941 1.429 . S
C3938 C3921 1.574 . S
C3938 H3932 0.949 . S
C3938 C3942 1.368 . S
C3939 C3920 1.429 . S
C3939 C3933 1.429 . S
C3939 C3940 1.523 . S
C3940 C3921 1.368 . S
C3940 C3934 1.368 . S
C3940 C3939 1.523 . S
C3941 C3925 1.429 . S
C3941 C3937 1.429 . S
C3941 C3942 1.523 . S
C3942 C3926 1.368 . S
C3942 C3938 1.368 . S
C3942 C3941 1.523 . S
H3943 C3918 0.950 . S
H3944 C3920 0.950 . S
H3945 C3921 0.949 . S
H3946 C3923 0.950 . S
H3947 C3925 0.950 . S
C3948 C3949 1.349 . S
C3948 C3950 1.327 . S
C3948 H3973 0.950 . S
C3949 C3948 1.349 . S
C3949 C3965 1.349 . S
C3950 C3948 1.327 . S
C3950 C3969 1.429 . S
C3950 H3974 0.950 . S
C3951 C3968 1.574 . S
C3951 C3970 1.368 . S
C3951 H3975 0.949 . S
H3952 C3956 0.949 . S
C3953 C3954 1.349 . S
C3953 C3955 1.327 . S
C3953 H3976 0.950 . S
C3954 C3953 1.349 . S
C3954 C3966 1.349 . S
C3955 C3953 1.327 . S
C3955 C3971 1.429 . S
C3955 H3977 0.950 . S
C3956 H3952 0.949 . S
C3956 C3964 1.574 . S
C3956 C3972 1.368 . S
H3957 C3965 0.950 . S
H3958 C3963 0.950 . S
H3959 C3964 0.949 . S
H3960 C3966 0.950 . S
H3961 C3967 0.950 . S
H3962 C3968 0.949 . S
C3963 H3958 0.950 . S
C3963 C3965 1.327 . S
C3963 C3969 1.429 . S
C3964 C3956 1.574 . S
C3964 H3959 0.949 . S
C3964 C3970 1.368 . S
C3965 C3949 1.349 . S
C3965 H3957 0.950 . S
C3965 C3963 1.327 . S
C3966 C3954 1.349 . S
C3966 H3960 0.950 . S
C3966 C3967 1.327 . S
C3967 H3961 0.950 . S
C3967 C3966 1.327 . S
C3967 C3971 1.429 . S
C3968 C3951 1.574 . S
C3968 H3962 0.949 . S
C3968 C3972 1.368 . S
C3969 C3950 1.429 . S
C3969 C3963 1.429 . S
C3969 C3970 1.523 . S
C3970 C3951 1.368 . S
C3970 C3964 1.368 . S
C3970 C3969 1.523 . S
C3971 C3955 1.429 . S
C3971 C3967 1.429 . S
C3971 C3972 1.523 . S
C3972 C3956 1.368 . S
C3972 C3968 1.368 . S
C3972 C3971 1.523 . S
H3973 C3948 0.950 . S
H3974 C3950 0.950 . S
H3975 C3951 0.949 . S
H3976 C3953 0.950 . S
H3977 C3955 0.950 . S
C3978 C3979 1.349 . S
C3978 C3980 1.327 . S
C3978 H4003 0.950 . S
C3979 C3978 1.349 . S
C3979 C3995 1.349 . S
C3980 C3978 1.327 . S
C3980 C3999 1.429 . S
C3980 H4004 0.950 . S
C3981 C3998 1.574 . S
C3981 C4000 1.368 . S
C3981 H4005 0.949 . S
H3982 C3986 0.949 . S
C3983 C3984 1.349 . S
C3983 C3985 1.327 . S
C3983 H4006 0.950 . S
C3984 C3983 1.349 . S
C3984 C3996 1.349 . S
C3985 C3983 1.327 . S
C3985 C4001 1.429 . S
C3985 H4007 0.950 . S
C3986 H3982 0.949 . S
C3986 C3994 1.574 . S
C3986 C4002 1.368 . S
H3987 C3995 0.950 . S
H3988 C3993 0.950 . S
H3989 C3994 0.949 . S
H3990 C3996 0.950 . S
H3991 C3997 0.950 . S
H3992 C3998 0.949 . S
C3993 H3988 0.950 . S
C3993 C3995 1.327 . S
C3993 C3999 1.429 . S
C3994 C3986 1.574 . S
C3994 H3989 0.949 . S
C3994 C4000 1.368 . S
C3995 C3979 1.349 . S
C3995 H3987 0.950 . S
C3995 C3993 1.327 . S
C3996 C3984 1.349 . S
C3996 H3990 0.950 . S
C3996 C3997 1.327 . S
C3997 H3991 0.950 . S
C3997 C3996 1.327 . S
C3997 C4001 1.429 . S
C3998 C3981 1.574 . S
C3998 H3992 0.949 . S
C3998 C4002 1.368 . S
C3999 C3980 1.429 . S
C3999 C3993 1.429 . S
C3999 C4000 1.523 . S
C4000 C3981 1.368 . S
C4000 C3994 1.368 . S
C4000 C3999 1.523 . S
C4001 C3985 1.429 . S
C4001 C3997 1.429 . S
C4001 C4002 1.523 . S
C4002 C3986 1.368 . S
C4002 C3998 1.368 . S
C4002 C4001 1.523 . S
H4003 C3978 0.950 . S
H4004 C3980 0.950 . S
H4005 C3981 0.949 . S
H4006 C3983 0.950 . S
H4007 C3985 0.950 . S
C4008 C4009 1.349 . S
C4008 C4010 1.327 . S
C4008 H4033 0.950 . S
C4009 C4008 1.349 . S
C4009 C4025 1.349 . S
C4010 C4008 1.327 . S
C4010 C4029 1.429 . S
C4010 H4034 0.950 . S
C4011 C4028 1.574 . S
C4011 C4030 1.368 . S
C4011 H4035 0.949 . S
H4012 C4016 0.949 . S
C4013 C4014 1.349 . S
C4013 C4015 1.327 . S
C4013 H4036 0.950 . S
C4014 C4013 1.349 . S
C4014 C4026 1.349 . S
C4015 C4013 1.327 . S
C4015 C4031 1.429 . S
C4015 H4037 0.950 . S
C4016 H4012 0.949 . S
C4016 C4024 1.574 . S
C4016 C4032 1.368 . S
H4017 C4025 0.950 . S
H4018 C4023 0.950 . S
H4019 C4024 0.949 . S
H4020 C4026 0.950 . S
H4021 C4027 0.950 . S
H4022 C4028 0.949 . S
C4023 H4018 0.950 . S
C4023 C4025 1.327 . S
C4023 C4029 1.429 . S
C4024 C4016 1.574 . S
C4024 H4019 0.949 . S
C4024 C4030 1.368 . S
C4025 C4009 1.349 . S
C4025 H4017 0.950 . S
C4025 C4023 1.327 . S
C4026 C4014 1.349 . S
C4026 H4020 0.950 . S
C4026 C4027 1.327 . S
C4027 H4021 0.950 . S
C4027 C4026 1.327 . S
C4027 C4031 1.429 . S
C4028 C4011 1.574 . S
C4028 H4022 0.949 . S
C4028 C4032 1.368 . S
C4029 C4010 1.429 . S
C4029 C4023 1.429 . S
C4029 C4030 1.523 . S
C4030 C4011 1.368 . S
C4030 C4024 1.368 . S
C4030 C4029 1.523 . S
C4031 C4015 1.429 . S
C4031 C4027 1.429 . S
C4031 C4032 1.523 . S
C4032 C4016 1.368 . S
C4032 C4028 1.368 . S
C4032 C4031 1.523 . S
H4033 C4008 0.950 . S
H4034 C4010 0.950 . S
H4035 C4011 0.949 . S
H4036 C4013 0.950 . S
H4037 C4015 0.950 . S
C4038 C4039 1.349 . S
C4038 C4040 1.327 . S
C4038 H4063 0.950 . S
C4039 C4038 1.349 . S
C4039 C4055 1.349 . S
C4040 C4038 1.327 . S
C4040 C4059 1.429 . S
C4040 H4064 0.950 . S
C4041 C4058 1.574 . S
C4041 C4060 1.368 . S
C4041 H4065 0.949 . S
H4042 C4046 0.949 . S
C4043 C4044 1.349 . S
C4043 C4045 1.327 . S
C4043 H4066 0.950 . S
C4044 C4043 1.349 . S
C4044 C4056 1.349 . S
C4045 C4043 1.327 . S
C4045 C4061 1.429 . S
C4045 H4067 0.950 . S
C4046 H4042 0.949 . S
C4046 C4054 1.574 . S
C4046 C4062 1.368 . S
H4047 C4055 0.950 . S
H4048 C4053 0.950 . S
H4049 C4054 0.949 . S
H4050 C4056 0.950 . S
H4051 C4057 0.950 . S
H4052 C4058 0.949 . S
C4053 H4048 0.950 . S
C4053 C4055 1.327 . S
C4053 C4059 1.429 . S
C4054 C4046 1.574 . S
C4054 H4049 0.949 . S
C4054 C4060 1.368 . S
C4055 C4039 1.349 . S
C4055 H4047 0.950 . S
C4055 C4053 1.327 . S
C4056 C4044 1.349 . S
C4056 H4050 0.950 . S
C4056 C4057 1.327 . S
C4057 H4051 0.950 . S
C4057 C4056 1.327 . S
C4057 C4061 1.429 . S
C4058 C4041 1.574 . S
C4058 H4052 0.949 . S
C4058 C4062 1.368 . S
C4059 C4040 1.429 . S
C4059 C4053 1.429 . S
C4059 C4060 1.523 . S
C4060 C4041 1.368 . S
C4060 C4054 1.368 . S
C4060 C4059 1.523 . S
C4061 C4045 1.429 . S
C4061 C4057 1.429 . S
C4061 C4062 1.523 . S
C4062 C4046 1.368 . S
C4062 C4058 1.368 . S
C4062 C4061 1.523 . S
H4063 C4038 0.950 . S
H4064 C4040 0.950 . S
H4065 C4041 0.949 . S
H4066 C4043 0.950 . S
H4067 C4045 0.950 . S
C4068 C4069 1.349 . S
C4068 C4070 1.327 . S
C4068 H4093 0.950 . S
C4069 C4068 1.349 . S
C4069 C4085 1.349 . S
C4070 C4068 1.327 . S
C4070 C4089 1.429 . S
C4070 H4094 0.950 . S
C4071 C4088 1.574 . S
C4071 C4090 1.368 . S
C4071 H4095 0.949 . S
H4072 C4076 0.949 . S
C4073 C4074 1.349 . S
C4073 C4075 1.327 . S
C4073 H4096 0.950 . S
C4074 C4073 1.349 . S
C4074 C4086 1.349 . S
C4075 C4073 1.327 . S
C4075 C4091 1.429 . S
C4075 H4097 0.950 . S
C4076 H4072 0.949 . S
C4076 C4084 1.574 . S
C4076 C4092 1.368 . S
H4077 C4085 0.950 . S
H4078 C4083 0.950 . S
H4079 C4084 0.949 . S
H4080 C4086 0.950 . S
H4081 C4087 0.950 . S
H4082 C4088 0.949 . S
C4083 H4078 0.950 . S
C4083 C4085 1.327 . S
C4083 C4089 1.429 . S
C4084 C4076 1.574 . S
C4084 H4079 0.949 . S
C4084 C4090 1.368 . S
C4085 C4069 1.349 . S
C4085 H4077 0.950 . S
C4085 C4083 1.327 . S
C4086 C4074 1.349 . S
C4086 H4080 0.950 . S
C4086 C4087 1.327 . S
C4087 H4081 0.950 . S
C4087 C4086 1.327 . S
C4087 C4091 1.429 . S
C4088 C4071 1.574 . S
C4088 H4082 0.949 . S
C4088 C4092 1.368 . S
C4089 C4070 1.429 . S
C4089 C4083 1.429 . S
C4089 C4090 1.523 . S
C4090 C4071 1.368 . S
C4090 C4084 1.368 . S
C4090 C4089 1.523 . S
C4091 C4075 1.429 . S
C4091 C4087 1.429 . S
C4091 C4092 1.523 . S
C4092 C4076 1.368 . S
C4092 C4088 1.368 . S
C4092 C4091 1.523 . S
H4093 C4068 0.950 . S
H4094 C4070 0.950 . S
H4095 C4071 0.949 . S
H4096 C4073 0.950 . S
H4097 C4075 0.950 . S
C4098 C4099 1.349 . S
C4098 C4100 1.327 . S
C4098 H4123 0.950 . S
C4099 C4098 1.349 . S
C4099 C4115 1.349 . S
C4100 C4098 1.327 . S
C4100 C4119 1.429 . S
C4100 H4124 0.950 . S
C4101 C4118 1.574 . S
C4101 C4120 1.368 . S
C4101 H4125 0.949 . S
H4102 C4106 0.949 . S
C4103 C4104 1.349 . S
C4103 C4105 1.327 . S
C4103 H4126 0.950 . S
C4104 C4103 1.349 . S
C4104 C4116 1.349 . S
C4105 C4103 1.327 . S
C4105 C4121 1.429 . S
C4105 H4127 0.950 . S
C4106 H4102 0.949 . S
C4106 C4114 1.574 . S
C4106 C4122 1.368 . S
H4107 C4115 0.950 . S
H4108 C4113 0.950 . S
H4109 C4114 0.949 . S
H4110 C4116 0.950 . S
H4111 C4117 0.950 . S
H4112 C4118 0.949 . S
C4113 H4108 0.950 . S
C4113 C4115 1.327 . S
C4113 C4119 1.429 . S
C4114 C4106 1.574 . S
C4114 H4109 0.949 . S
C4114 C4120 1.368 . S
C4115 C4099 1.349 . S
C4115 H4107 0.950 . S
C4115 C4113 1.327 . S
C4116 C4104 1.349 . S
C4116 H4110 0.950 . S
C4116 C4117 1.327 . S
C4117 H4111 0.950 . S
C4117 C4116 1.327 . S
C4117 C4121 1.429 . S
C4118 C4101 1.574 . S
C4118 H4112 0.949 . S
C4118 C4122 1.368 . S
C4119 C4100 1.429 . S
C4119 C4113 1.429 . S
C4119 C4120 1.523 . S
C4120 C4101 1.368 . S
C4120 C4114 1.368 . S
C4120 C4119 1.523 . S
C4121 C4105 1.429 . S
C4121 C4117 1.429 . S
C4121 C4122 1.523 . S
C4122 C4106 1.368 . S
C4122 C4118 1.368 . S
C4122 C4121 1.523 . S
H4123 C4098 0.950 . S
H4124 C4100 0.950 . S
H4125 C4101 0.949 . S
H4126 C4103 0.950 . S
H4127 C4105 0.950 . S
C4128 C4129 1.349 . S
C4128 C4130 1.327 . S
C4128 H4153 0.950 . S
C4129 C4128 1.349 . S
C4129 C4145 1.349 . S
C4130 C4128 1.327 . S
C4130 C4149 1.429 . S
C4130 H4154 0.950 . S
C4131 C4148 1.574 . S
C4131 C4150 1.368 . S
C4131 H4155 0.949 . S
H4132 C4136 0.949 . S
C4133 C4134 1.349 . S
C4133 C4135 1.327 . S
C4133 H4156 0.950 . S
C4134 C4133 1.349 . S
C4134 C4146 1.349 . S
C4135 C4133 1.327 . S
C4135 C4151 1.429 . S
C4135 H4157 0.950 . S
C4136 H4132 0.949 . S
C4136 C4144 1.574 . S
C4136 C4152 1.368 . S
H4137 C4145 0.950 . S
H4138 C4143 0.950 . S
H4139 C4144 0.949 . S
H4140 C4146 0.950 . S
H4141 C4147 0.950 . S
H4142 C4148 0.949 . S
C4143 H4138 0.950 . S
C4143 C4145 1.327 . S
C4143 C4149 1.429 . S
C4144 C4136 1.574 . S
C4144 H4139 0.949 . S
C4144 C4150 1.368 . S
C4145 C4129 1.349 . S
C4145 H4137 0.950 . S
C4145 C4143 1.327 . S
C4146 C4134 1.349 . S
C4146 H4140 0.950 . S
C4146 C4147 1.327 . S
C4147 H4141 0.950 . S
C4147 C4146 1.327 . S
C4147 C4151 1.429 . S
C4148 C4131 1.574 . S
C4148 H4142 0.949 . S
C4148 C4152 1.368 . S
C4149 C4130 1.429 . S
C4149 C4143 1.429 . S
C4149 C4150 1.523 . S
C4150 C4131 1.368 . S
C4150 C4144 1.368 . S
C4150 C4149 1.523 . S
C4151 C4135 1.429 . S
C4151 C4147 1.429 . S
C4151 C4152 1.523 . S
C4152 C4136 1.368 . S
C4152 C4148 1.368 . S
C4152 C4151 1.523 . S
H4153 C4128 0.950 . S
H4154 C4130 0.950 . S
H4155 C4131 0.949 . S
H4156 C4133 0.950 . S
H4157 C4135 0.950 . S
C4158 C4159 1.349 . S
C4158 C4160 1.327 . S
C4158 H4183 0.950 . S
C4159 C4158 1.349 . S
C4159 C4175 1.349 . S
C4160 C4158 1.327 . S
C4160 C4179 1.429 . S
C4160 H4184 0.950 . S
C4161 C4178 1.574 . S
C4161 C4180 1.368 . S
C4161 H4185 0.949 . S
H4162 C4166 0.949 . S
C4163 C4164 1.349 . S
C4163 C4165 1.327 . S
C4163 H4186 0.950 . S
C4164 C4163 1.349 . S
C4164 C4176 1.349 . S
C4165 C4163 1.327 . S
C4165 C4181 1.429 . S
C4165 H4187 0.950 . S
C4166 H4162 0.949 . S
C4166 C4174 1.574 . S
C4166 C4182 1.368 . S
H4167 C4175 0.950 . S
H4168 C4173 0.950 . S
H4169 C4174 0.949 . S
H4170 C4176 0.950 . S
H4171 C4177 0.950 . S
H4172 C4178 0.949 . S
C4173 H4168 0.950 . S
C4173 C4175 1.327 . S
C4173 C4179 1.429 . S
C4174 C4166 1.574 . S
C4174 H4169 0.949 . S
C4174 C4180 1.368 . S
C4175 C4159 1.349 . S
C4175 H4167 0.950 . S
C4175 C4173 1.327 . S
C4176 C4164 1.349 . S
C4176 H4170 0.950 . S
C4176 C4177 1.327 . S
C4177 H4171 0.950 . S
C4177 C4176 1.327 . S
C4177 C4181 1.429 . S
C4178 C4161 1.574 . S
C4178 H4172 0.949 . S
C4178 C4182 1.368 . S
C4179 C4160 1.429 . S
C4179 C4173 1.429 . S
C4179 C4180 1.523 . S
C4180 C4161 1.368 . S
C4180 C4174 1.368 . S
C4180 C4179 1.523 . S
C4181 C4165 1.429 . S
C4181 C4177 1.429 . S
C4181 C4182 1.523 . S
C4182 C4166 1.368 . S
C4182 C4178 1.368 . S
C4182 C4181 1.523 . S
H4183 C4158 0.950 . S
H4184 C4160 0.950 . S
H4185 C4161 0.949 . S
H4186 C4163 0.950 . S
H4187 C4165 0.950 . S
C4188 C4189 1.349 . S
C4188 C4190 1.327 . S
C4188 H4213 0.954 . S
C4189 C4188 1.349 . S
C4189 C4205 1.349 . S
C4190 C4188 1.327 . S
C4190 C4209 1.429 . S
C4190 H4214 0.950 . S
C4191 C4208 1.574 . S
C4191 C4210 1.368 . S
C4191 H4215 0.949 . S
H4192 C4196 0.949 . S
C4193 C4194 1.349 . S
C4193 C4195 1.327 . S
C4193 H4216 0.950 . S
C4194 C4193 1.349 . S
C4194 C4206 1.349 . S
C4195 C4193 1.327 . S
C4195 C4211 1.429 . S
C4195 H4217 0.950 . S
C4196 H4192 0.949 . S
C4196 C4204 1.574 . S
C4196 C4212 1.368 . S
H4197 C4205 0.950 . S
H4198 C4203 0.950 . S
H4199 C4204 0.949 . S
H4200 C4206 0.950 . S
H4201 C4207 0.950 . S
H4202 C4208 0.949 . S
C4203 H4198 0.950 . S
C4203 C4205 1.327 . S
C4203 C4209 1.429 . S
C4204 C4196 1.574 . S
C4204 H4199 0.949 . S
C4204 C4210 1.368 . S
C4205 C4189 1.349 . S
C4205 H4197 0.950 . S
C4205 C4203 1.327 . S
C4206 C4194 1.349 . S
C4206 H4200 0.950 . S
C4206 C4207 1.327 . S
C4207 H4201 0.950 . S
C4207 C4206 1.327 . S
C4207 C4211 1.429 . S
C4208 C4191 1.574 . S
C4208 H4202 0.949 . S
C4208 C4212 1.368 . S
C4209 C4190 1.429 . S
C4209 C4203 1.429 . S
C4209 C4210 1.523 . S
C4210 C4191 1.368 . S
C4210 C4204 1.368 . S
C4210 C4209 1.523 . S
C4211 C4195 1.429 . S
C4211 C4207 1.429 . S
C4211 C4212 1.523 . S
C4212 C4196 1.368 . S
C4212 C4208 1.368 . S
C4212 C4211 1.523 . S
H4213 C4188 0.954 . S
H4214 C4190 0.950 . S
H4215 C4191 0.949 . S
H4216 C4193 0.950 . S
H4217 C4195 0.950 . S
C4218 C4219 1.349 1_556 S
C4218 C4220 1.327 . S
C4218 H4243 0.950 . S
C4219 C4218 1.349 1_554 S
C4219 C4235 1.349 . S
C4220 C4218 1.327 . S
C4220 C4239 1.429 1_556 S
C4220 H4244 0.950 . S
C4221 C4238 1.574 . S
C4221 C4240 1.368 . S
C4221 H4245 0.949 . S
H4222 C4226 0.949 . S
C4223 C4224 1.370 . S
C4223 C4225 1.317 1_545 S
C4223 H4246 0.930 1_545 S
C4224 C4223 1.370 . S
C4224 C4236 1.349 . S
C4225 C4223 1.317 1_565 S
C4225 C4241 1.429 . S
C4225 H4247 0.950 . S
C4226 H4222 0.949 . S
C4226 C4234 1.574 . S
C4226 C4242 1.368 1_556 S
H4227 C4235 0.950 . S
H4228 C4233 0.950 . S
H4229 C4234 0.949 . S
H4230 C4236 0.950 1_556 S
H4231 C4237 0.950 1_556 S
H4232 C4238 0.949 . S
C4233 H4228 0.950 . S
C4233 C4235 1.327 . S
C4233 C4239 1.429 . S
C4234 C4226 1.574 . S
C4234 H4229 0.949 . S
C4234 C4240 1.368 1_556 S
C4235 C4219 1.349 . S
C4235 H4227 0.950 . S
C4235 C4233 1.327 . S
C4236 C4224 1.349 . S
C4236 H4230 0.950 1_554 S
C4236 C4237 1.327 . S
C4237 H4231 0.950 1_554 S
C4237 C4236 1.327 . S
C4237 C4241 1.429 1_545 S
C4238 C4221 1.574 . S
C4238 H4232 0.949 . S
C4238 C4242 1.368 . S
C4239 C4220 1.429 1_554 S
C4239 C4233 1.429 . S
C4239 C4240 1.523 . S
C4240 C4221 1.368 . S
C4240 C4234 1.368 1_554 S
C4240 C4239 1.523 . S
C4241 C4225 1.429 . S
C4241 C4237 1.429 1_565 S
C4241 C4242 1.523 . S
C4242 C4226 1.368 1_554 S
C4242 C4238 1.368 . S
C4242 C4241 1.523 . S
H4243 C4218 0.950 . S
H4244 C4220 0.950 . S
H4245 C4221 0.949 . S
H4246 C4223 0.930 1_565 S
H4247 C4225 0.950 . S
C4248 C4249 1.349 . S
C4248 C4250 1.327 . S
C4248 H4273 0.950 . S
C4249 C4248 1.349 . S
C4249 C4265 1.349 . S
C4250 C4248 1.327 . S
C4250 C4269 1.429 . S
C4250 H4274 0.950 . S
C4251 C4268 1.574 . S
C4251 C4270 1.368 . S
C4251 H4275 0.949 . S
H4252 C4256 0.949 . S
C4253 C4254 1.349 . S
C4253 C4255 1.327 . S
C4253 H4276 0.950 . S
C4254 C4253 1.349 . S
C4254 C4266 1.349 . S
C4255 C4253 1.327 . S
C4255 C4271 1.429 . S
C4255 H4277 0.950 . S
C4256 H4252 0.949 . S
C4256 C4264 1.574 . S
C4256 C4272 1.368 . S
H4257 C4265 0.950 . S
H4258 C4263 0.950 . S
H4259 C4264 0.949 . S
H4260 C4266 0.950 . S
H4261 C4267 0.950 . S
H4262 C4268 0.949 . S
C4263 H4258 0.950 . S
C4263 C4265 1.327 . S
C4263 C4269 1.429 . S
C4264 C4256 1.574 . S
C4264 H4259 0.949 . S
C4264 C4270 1.368 . S
C4265 C4249 1.349 . S
C4265 H4257 0.950 . S
C4265 C4263 1.327 . S
C4266 C4254 1.349 . S
C4266 H4260 0.950 . S
C4266 C4267 1.327 . S
C4267 H4261 0.950 . S
C4267 C4266 1.327 . S
C4267 C4271 1.429 . S
C4268 C4251 1.574 . S
C4268 H4262 0.949 . S
C4268 C4272 1.368 . S
C4269 C4250 1.429 . S
C4269 C4263 1.429 . S
C4269 C4270 1.523 . S
C4270 C4251 1.368 . S
C4270 C4264 1.368 . S
C4270 C4269 1.523 . S
C4271 C4255 1.429 . S
C4271 C4267 1.429 . S
C4271 C4272 1.523 . S
C4272 C4256 1.368 . S
C4272 C4268 1.368 . S
C4272 C4271 1.523 . S
H4273 C4248 0.950 . S
H4274 C4250 0.950 . S
H4275 C4251 0.949 . S
H4276 C4253 0.950 . S
H4277 C4255 0.950 . S
C4278 C4279 1.349 1_556 S
C4278 C4280 1.332 . S
C4278 H4303 0.950 . S
C4279 C4278 1.349 1_554 S
C4279 C4295 1.349 . S
C4280 C4278 1.332 . S
C4280 C4299 1.379 1_556 S
C4280 H4304 0.999 . S
C4281 C4298 1.574 . S
C4281 C4300 1.368 . S
C4281 H4305 0.949 . S
H4282 C4286 0.949 1_556 S
C4283 C4284 1.349 . S
C4283 C4285 1.327 . S
C4283 H4306 0.950 . S
C4284 C4283 1.349 . S
C4284 C4296 1.349 . S
C4285 C4283 1.327 . S
C4285 C4301 1.429 . S
C4285 H4307 0.950 . S
C4286 H4282 0.949 1_554 S
C4286 C4294 1.574 . S
C4286 C4302 1.368 . S
H4287 C4295 0.950 . S
H4288 C4293 0.950 . S
H4289 C4294 0.949 1_556 S
H4290 C4296 0.950 . S
H4291 C4297 0.950 1_556 S
H4292 C4298 0.949 . S
C4293 H4288 0.950 . S
C4293 C4295 1.327 . S
C4293 C4299 1.429 . S
C4294 C4286 1.574 . S
C4294 H4289 0.949 1_554 S
C4294 C4300 1.368 . S
C4295 C4279 1.349 . S
C4295 H4287 0.950 . S
C4295 C4293 1.327 . S
C4296 C4284 1.349 . S
C4296 H4290 0.950 . S
C4296 C4297 1.327 . S
C4297 H4291 0.950 1_554 S
C4297 C4296 1.327 . S
C4297 C4301 1.429 . S
C4298 C4281 1.574 . S
C4298 H4292 0.949 . S
C4298 C4302 1.368 . S
C4299 C4280 1.379 1_554 S
C4299 C4293 1.429 . S
C4299 C4300 1.523 . S
C4300 C4281 1.368 . S
C4300 C4294 1.368 . S
C4300 C4299 1.523 . S
C4301 C4285 1.429 . S
C4301 C4297 1.429 . S
C4301 C4302 1.523 . S
C4302 C4286 1.368 . S
C4302 C4298 1.368 . S
C4302 C4301 1.523 . S
H4303 C4278 0.950 . S
H4304 C4280 0.999 . S
H4305 C4281 0.949 . S
H4306 C4283 0.950 . S
H4307 C4285 0.950 . S
C4308 C4309 1.349 . S
C4308 C4310 1.327 . S
C4308 H4333 0.950 . S
C4309 C4308 1.349 . S
C4309 C4325 1.349 . S
C4310 C4308 1.327 . S
C4310 C4329 1.429 . S
C4310 H4334 0.950 . S
C4311 C4328 1.574 . S
C4311 C4330 1.368 . S
C4311 H4335 0.949 . S
H4312 C4316 0.949 . S
C4313 C4314 1.349 . S
C4313 C4315 1.327 . S
C4313 H4336 0.950 . S
C4314 C4313 1.349 . S
C4314 C4326 1.349 . S
C4315 C4313 1.327 . S
C4315 C4331 1.429 . S
C4315 H4337 0.950 . S
C4316 H4312 0.949 . S
C4316 C4324 1.574 . S
C4316 C4332 1.368 . S
H4317 C4325 0.950 . S
H4318 C4323 0.950 . S
H4319 C4324 0.949 . S
H4320 C4326 0.950 . S
H4321 C4327 0.950 . S
H4322 C4328 0.949 . S
C4323 H4318 0.950 . S
C4323 C4325 1.327 . S
C4323 C4329 1.429 . S
C4324 C4316 1.574 . S
C4324 H4319 0.949 . S
C4324 C4330 1.368 . S
C4325 C4309 1.349 . S
C4325 H4317 0.950 . S
C4325 C4323 1.327 . S
C4326 C4314 1.349 . S
C4326 H4320 0.950 . S
C4326 C4327 1.327 . S
C4327 H4321 0.950 . S
C4327 C4326 1.327 . S
C4327 C4331 1.429 . S
C4328 C4311 1.574 . S
C4328 H4322 0.949 . S
C4328 C4332 1.368 . S
C4329 C4310 1.429 . S
C4329 C4323 1.429 . S
C4329 C4330 1.523 . S
C4330 C4311 1.368 . S
C4330 C4324 1.368 . S
C4330 C4329 1.523 . S
C4331 C4315 1.429 . S
C4331 C4327 1.429 . S
C4331 C4332 1.523 . S
C4332 C4316 1.368 . S
C4332 C4328 1.368 . S
C4332 C4331 1.523 . S
H4333 C4308 0.950 . S
H4334 C4310 0.950 . S
H4335 C4311 0.949 . S
H4336 C4313 0.950 . S
H4337 C4315 0.950 . S
C4338 C4339 1.349 . S
C4338 C4340 1.327 . S
C4338 H4363 0.950 . S
C4339 C4338 1.349 . S
C4339 C4355 1.349 . S
C4340 C4338 1.327 . S
C4340 C4359 1.429 . S
C4340 H4364 0.950 . S
C4341 C4358 1.574 . S
C4341 C4360 1.368 . S
C4341 H4365 0.949 . S
H4342 C4346 0.949 . S
C4343 C4344 1.349 . S
C4343 C4345 1.327 . S
C4343 H4366 0.950 . S
C4344 C4343 1.349 . S
C4344 C4356 1.349 . S
C4345 C4343 1.327 . S
C4345 C4361 1.429 . S
C4345 H4367 0.950 . S
C4346 H4342 0.949 . S
C4346 C4354 1.574 . S
C4346 C4362 1.368 . S
H4347 C4355 0.950 . S
H4348 C4353 0.950 . S
H4349 C4354 0.949 . S
H4350 C4356 0.950 . S
H4351 C4357 0.950 . S
H4352 C4358 0.949 . S
C4353 H4348 0.950 . S
C4353 C4355 1.327 . S
C4353 C4359 1.429 . S
C4354 C4346 1.574 . S
C4354 H4349 0.949 . S
C4354 C4360 1.368 . S
C4355 C4339 1.349 . S
C4355 H4347 0.950 . S
C4355 C4353 1.327 . S
C4356 C4344 1.349 . S
C4356 H4350 0.950 . S
C4356 C4357 1.327 . S
C4357 H4351 0.950 . S
C4357 C4356 1.327 . S
C4357 C4361 1.429 . S
C4358 C4341 1.574 . S
C4358 H4352 0.949 . S
C4358 C4362 1.368 . S
C4359 C4340 1.429 . S
C4359 C4353 1.429 . S
C4359 C4360 1.523 . S
C4360 C4341 1.368 . S
C4360 C4354 1.368 . S
C4360 C4359 1.523 . S
C4361 C4345 1.429 . S
C4361 C4357 1.429 . S
C4361 C4362 1.523 . S
C4362 C4346 1.368 . S
C4362 C4358 1.368 . S
C4362 C4361 1.523 . S
H4363 C4338 0.950 . S
H4364 C4340 0.950 . S
H4365 C4341 0.949 . S
H4366 C4343 0.950 . S
H4367 C4345 0.950 . S
C4368 C4369 1.349 . S
C4368 C4370 1.327 . S
C4368 H4393 0.950 . S
C4369 C4368 1.349 . S
C4369 C4385 1.349 . S
C4370 C4368 1.327 . S
C4370 C4389 1.429 . S
C4370 H4394 0.950 . S
C4371 C4388 1.574 . S
C4371 C4390 1.368 . S
C4371 H4395 0.949 . S
H4372 C4376 0.949 . S
C4373 C4374 1.349 . S
C4373 C4375 1.327 . S
C4373 H4396 0.950 . S
C4374 C4373 1.349 . S
C4374 C4386 1.349 . S
C4375 C4373 1.327 . S
C4375 C4391 1.429 . S
C4375 H4397 0.950 . S
C4376 H4372 0.949 . S
C4376 C4384 1.574 . S
C4376 C4392 1.368 . S
H4377 C4385 0.950 . S
H4378 C4383 0.950 . S
H4379 C4384 0.949 . S
H4380 C4386 0.950 . S
H4381 C4387 0.950 . S
H4382 C4388 0.949 . S
C4383 H4378 0.950 . S
C4383 C4385 1.327 . S
C4383 C4389 1.429 . S
C4384 C4376 1.574 . S
C4384 H4379 0.949 . S
C4384 C4390 1.368 . S
C4385 C4369 1.349 . S
C4385 H4377 0.950 . S
C4385 C4383 1.327 . S
C4386 C4374 1.349 . S
C4386 H4380 0.950 . S
C4386 C4387 1.327 . S
C4387 H4381 0.950 . S
C4387 C4386 1.327 . S
C4387 C4391 1.429 . S
C4388 C4371 1.574 . S
C4388 H4382 0.949 . S
C4388 C4392 1.368 . S
C4389 C4370 1.429 . S
C4389 C4383 1.429 . S
C4389 C4390 1.523 . S
C4390 C4371 1.368 . S
C4390 C4384 1.368 . S
C4390 C4389 1.523 . S
C4391 C4375 1.429 . S
C4391 C4387 1.429 . S
C4391 C4392 1.523 . S
C4392 C4376 1.368 . S
C4392 C4388 1.368 . S
C4392 C4391 1.523 . S
H4393 C4368 0.950 . S
H4394 C4370 0.950 . S
H4395 C4371 0.949 . S
H4396 C4373 0.950 . S
H4397 C4375 0.950 . S
C4398 C4399 1.349 . S
C4398 C4400 1.327 . S
C4398 H4423 0.950 . S
C4399 C4398 1.349 . S
C4399 C4415 1.349 . S
C4400 C4398 1.327 . S
C4400 C4419 1.429 . S
C4400 H4424 0.950 . S
C4401 C4418 1.574 . S
C4401 C4420 1.368 . S
C4401 H4425 0.949 . S
H4402 C4406 0.949 . S
C4403 C4404 1.349 . S
C4403 C4405 1.327 . S
C4403 H4426 0.950 . S
C4404 C4403 1.349 . S
C4404 C4416 1.349 . S
C4405 C4403 1.327 . S
C4405 C4421 1.429 . S
C4405 H4427 0.950 . S
C4406 H4402 0.949 . S
C4406 C4414 1.574 . S
C4406 C4422 1.368 . S
H4407 C4415 0.950 . S
H4408 C4413 0.950 . S
H4409 C4414 0.949 . S
H4410 C4416 0.950 . S
H4411 C4417 0.950 . S
H4412 C4418 0.949 . S
C4413 H4408 0.950 . S
C4413 C4415 1.327 . S
C4413 C4419 1.429 . S
C4414 C4406 1.574 . S
C4414 H4409 0.949 . S
C4414 C4420 1.368 . S
C4415 C4399 1.349 . S
C4415 H4407 0.950 . S
C4415 C4413 1.327 . S
C4416 C4404 1.349 . S
C4416 H4410 0.950 . S
C4416 C4417 1.327 . S
C4417 H4411 0.950 . S
C4417 C4416 1.327 . S
C4417 C4421 1.429 . S
C4418 C4401 1.574 . S
C4418 H4412 0.949 . S
C4418 C4422 1.368 . S
C4419 C4400 1.429 . S
C4419 C4413 1.429 . S
C4419 C4420 1.523 . S
C4420 C4401 1.368 . S
C4420 C4414 1.368 . S
C4420 C4419 1.523 . S
C4421 C4405 1.429 . S
C4421 C4417 1.429 . S
C4421 C4422 1.523 . S
C4422 C4406 1.368 . S
C4422 C4418 1.368 . S
C4422 C4421 1.523 . S
H4423 C4398 0.950 . S
H4424 C4400 0.950 . S
H4425 C4401 0.949 . S
H4426 C4403 0.950 . S
H4427 C4405 0.950 . S
C4428 C4429 1.349 . S
C4428 C4430 1.327 . S
C4428 H4453 0.950 . S
C4429 C4428 1.349 . S
C4429 C4445 1.349 . S
C4430 C4428 1.327 . S
C4430 C4449 1.429 . S
C4430 H4454 0.950 . S
C4431 C4448 1.574 . S
C4431 C4450 1.368 . S
C4431 H4455 0.949 . S
H4432 C4436 0.949 . S
C4433 C4434 1.349 . S
C4433 C4435 1.327 . S
C4433 H4456 0.950 . S
C4434 C4433 1.349 . S
C4434 C4446 1.349 . S
C4435 C4433 1.327 . S
C4435 C4451 1.429 . S
C4435 H4457 0.950 . S
C4436 H4432 0.949 . S
C4436 C4444 1.574 . S
C4436 C4452 1.368 . S
H4437 C4445 0.950 . S
H4438 C4443 0.950 . S
H4439 C4444 0.949 . S
H4440 C4446 0.950 . S
H4441 C4447 0.950 . S
H4442 C4448 0.949 . S
C4443 H4438 0.950 . S
C4443 C4445 1.327 . S
C4443 C4449 1.429 . S
C4444 C4436 1.574 . S
C4444 H4439 0.949 . S
C4444 C4450 1.368 . S
C4445 C4429 1.349 . S
C4445 H4437 0.950 . S
C4445 C4443 1.327 . S
C4446 C4434 1.349 . S
C4446 H4440 0.950 . S
C4446 C4447 1.327 . S
C4447 H4441 0.950 . S
C4447 C4446 1.327 . S
C4447 C4451 1.429 . S
C4448 C4431 1.574 . S
C4448 H4442 0.949 . S
C4448 C4452 1.368 . S
C4449 C4430 1.429 . S
C4449 C4443 1.429 . S
C4449 C4450 1.523 . S
C4450 C4431 1.368 . S
C4450 C4444 1.368 . S
C4450 C4449 1.523 . S
C4451 C4435 1.429 . S
C4451 C4447 1.429 . S
C4451 C4452 1.523 . S
C4452 C4436 1.368 . S
C4452 C4448 1.368 . S
C4452 C4451 1.523 . S
H4453 C4428 0.950 . S
H4454 C4430 0.950 . S
H4455 C4431 0.949 . S
H4456 C4433 0.950 . S
H4457 C4435 0.950 . S
C4458 C4459 1.349 . S
C4458 C4460 1.327 . S
C4458 H4483 0.950 . S
C4459 C4458 1.349 . S
C4459 C4475 1.349 . S
C4460 C4458 1.327 . S
C4460 C4479 1.429 . S
C4460 H4484 0.950 . S
C4461 C4478 1.574 . S
C4461 C4480 1.368 . S
C4461 H4485 0.949 . S
H4462 C4466 0.949 . S
C4463 C4464 1.349 . S
C4463 C4465 1.327 . S
C4463 H4486 0.950 . S
C4464 C4463 1.349 . S
C4464 C4476 1.349 . S
C4465 C4463 1.327 . S
C4465 C4481 1.429 . S
C4465 H4487 0.950 . S
C4466 H4462 0.949 . S
C4466 C4474 1.574 . S
C4466 C4482 1.368 . S
H4467 C4475 0.950 . S
H4468 C4473 0.950 . S
H4469 C4474 0.949 . S
H4470 C4476 0.950 . S
H4471 C4477 0.950 . S
H4472 C4478 0.949 . S
C4473 H4468 0.950 . S
C4473 C4475 1.327 . S
C4473 C4479 1.429 . S
C4474 C4466 1.574 . S
C4474 H4469 0.949 . S
C4474 C4480 1.368 . S
C4475 C4459 1.349 . S
C4475 H4467 0.950 . S
C4475 C4473 1.327 . S
C4476 C4464 1.349 . S
C4476 H4470 0.950 . S
C4476 C4477 1.327 . S
C4477 H4471 0.950 . S
C4477 C4476 1.327 . S
C4477 C4481 1.429 . S
C4478 C4461 1.574 . S
C4478 H4472 0.949 . S
C4478 C4482 1.368 . S
C4479 C4460 1.429 . S
C4479 C4473 1.429 . S
C4479 C4480 1.523 . S
C4480 C4461 1.368 . S
C4480 C4474 1.368 . S
C4480 C4479 1.523 . S
C4481 C4465 1.429 . S
C4481 C4477 1.429 . S
C4481 C4482 1.523 . S
C4482 C4466 1.368 . S
C4482 C4478 1.368 . S
C4482 C4481 1.523 . S
H4483 C4458 0.950 . S
H4484 C4460 0.950 . S
H4485 C4461 0.949 . S
H4486 C4463 0.950 . S
H4487 C4465 0.950 . S
C4488 C4489 1.349 . S
C4488 C4490 1.327 . S
C4488 H4513 0.950 . S
C4489 C4488 1.349 . S
C4489 C4505 1.349 . S
C4490 C4488 1.327 . S
C4490 C4509 1.429 . S
C4490 H4514 0.950 . S
C4491 C4508 1.574 . S
C4491 C4510 1.368 . S
C4491 H4515 0.949 . S
H4492 C4496 0.949 . S
C4493 C4494 1.349 . S
C4493 C4495 1.327 . S
C4493 H4516 0.950 . S
C4494 C4493 1.349 . S
C4494 C4506 1.349 . S
C4495 C4493 1.327 . S
C4495 C4511 1.429 . S
C4495 H4517 0.950 . S
C4496 H4492 0.949 . S
C4496 C4504 1.574 . S
C4496 C4512 1.368 . S
H4497 C4505 0.950 . S
H4498 C4503 0.950 . S
H4499 C4504 0.949 . S
H4500 C4506 0.950 . S
H4501 C4507 0.950 . S
H4502 C4508 0.949 . S
C4503 H4498 0.950 . S
C4503 C4505 1.327 . S
C4503 C4509 1.429 . S
C4504 C4496 1.574 . S
C4504 H4499 0.949 . S
C4504 C4510 1.368 . S
C4505 C4489 1.349 . S
C4505 H4497 0.950 . S
C4505 C4503 1.327 . S
C4506 C4494 1.349 . S
C4506 H4500 0.950 . S
C4506 C4507 1.327 . S
C4507 H4501 0.950 . S
C4507 C4506 1.327 . S
C4507 C4511 1.429 . S
C4508 C4491 1.574 . S
C4508 H4502 0.949 . S
C4508 C4512 1.368 . S
C4509 C4490 1.429 . S
C4509 C4503 1.429 . S
C4509 C4510 1.523 . S
C4510 C4491 1.368 . S
C4510 C4504 1.368 . S
C4510 C4509 1.523 . S
C4511 C4495 1.429 . S
C4511 C4507 1.429 . S
C4511 C4512 1.523 . S
C4512 C4496 1.368 . S
C4512 C4508 1.368 . S
C4512 C4511 1.523 . S
H4513 C4488 0.950 . S
H4514 C4490 0.950 . S
H4515 C4491 0.949 . S
H4516 C4493 0.950 . S
H4517 C4495 0.950 . S
C4518 C4519 1.349 . S
C4518 C4520 1.327 . S
C4518 H4543 0.950 . S
C4519 C4518 1.349 . S
C4519 C4535 1.349 . S
C4520 C4518 1.327 . S
C4520 C4539 1.429 . S
C4520 H4544 0.950 . S
C4521 C4538 1.574 . S
C4521 C4540 1.368 . S
C4521 H4545 0.949 . S
H4522 C4526 0.949 . S
C4523 C4524 1.349 . S
C4523 C4525 1.327 . S
C4523 H4546 0.950 . S
C4524 C4523 1.349 . S
C4524 C4536 1.349 . S
C4525 C4523 1.327 . S
C4525 C4541 1.429 . S
C4525 H4547 0.950 . S
C4526 H4522 0.949 . S
C4526 C4534 1.574 . S
C4526 C4542 1.368 . S
H4527 C4535 0.950 . S
H4528 C4533 0.950 . S
H4529 C4534 0.949 . S
H4530 C4536 0.950 . S
H4531 C4537 0.950 . S
H4532 C4538 0.949 . S
C4533 H4528 0.950 . S
C4533 C4535 1.327 . S
C4533 C4539 1.429 . S
C4534 C4526 1.574 . S
C4534 H4529 0.949 . S
C4534 C4540 1.368 . S
C4535 C4519 1.349 . S
C4535 H4527 0.950 . S
C4535 C4533 1.327 . S
C4536 C4524 1.349 . S
C4536 H4530 0.950 . S
C4536 C4537 1.327 . S
C4537 H4531 0.950 . S
C4537 C4536 1.327 . S
C4537 C4541 1.429 . S
C4538 C4521 1.574 . S
C4538 H4532 0.949 . S
C4538 C4542 1.368 . S
C4539 C4520 1.429 . S
C4539 C4533 1.429 . S
C4539 C4540 1.523 . S
C4540 C4521 1.368 . S
C4540 C4534 1.368 . S
C4540 C4539 1.523 . S
C4541 C4525 1.429 . S
C4541 C4537 1.429 . S
C4541 C4542 1.523 . S
C4542 C4526 1.368 . S
C4542 C4538 1.368 . S
C4542 C4541 1.523 . S
H4543 C4518 0.950 . S
H4544 C4520 0.950 . S
H4545 C4521 0.949 . S
H4546 C4523 0.950 . S
H4547 C4525 0.950 . S
C4548 C4549 1.349 . S
C4548 C4550 1.327 . S
C4548 H4573 0.950 . S
C4549 C4548 1.349 . S
C4549 C4565 1.349 . S
C4550 C4548 1.327 . S
C4550 C4569 1.429 . S
C4550 H4574 0.950 . S
C4551 C4568 1.574 . S
C4551 C4570 1.368 . S
C4551 H4575 0.949 . S
H4552 C4556 0.949 . S
C4553 C4554 1.349 . S
C4553 C4555 1.327 . S
C4553 H4576 0.950 . S
C4554 C4553 1.349 . S
C4554 C4566 1.349 . S
C4555 C4553 1.327 . S
C4555 C4571 1.429 . S
C4555 H4577 0.950 . S
C4556 H4552 0.949 . S
C4556 C4564 1.574 . S
C4556 C4572 1.368 . S
H4557 C4565 0.950 . S
H4558 C4563 0.950 . S
H4559 C4564 0.949 . S
H4560 C4566 0.950 . S
H4561 C4567 0.950 . S
H4562 C4568 0.949 . S
C4563 H4558 0.950 . S
C4563 C4565 1.327 . S
C4563 C4569 1.429 . S
C4564 C4556 1.574 . S
C4564 H4559 0.949 . S
C4564 C4570 1.368 . S
C4565 C4549 1.349 . S
C4565 H4557 0.950 . S
C4565 C4563 1.327 . S
C4566 C4554 1.349 . S
C4566 H4560 0.950 . S
C4566 C4567 1.327 . S
C4567 H4561 0.950 . S
C4567 C4566 1.327 . S
C4567 C4571 1.429 . S
C4568 C4551 1.574 . S
C4568 H4562 0.949 . S
C4568 C4572 1.368 . S
C4569 C4550 1.429 . S
C4569 C4563 1.429 . S
C4569 C4570 1.523 . S
C4570 C4551 1.368 . S
C4570 C4564 1.368 . S
C4570 C4569 1.523 . S
C4571 C4555 1.429 . S
C4571 C4567 1.429 . S
C4571 C4572 1.523 . S
C4572 C4556 1.368 . S
C4572 C4568 1.368 . S
C4572 C4571 1.523 . S
H4573 C4548 0.950 . S
H4574 C4550 0.950 . S
H4575 C4551 0.949 . S
H4576 C4553 0.950 . S
H4577 C4555 0.950 . S
C4578 C4579 1.349 . S
C4578 C4580 1.327 . S
C4578 H4603 0.950 . S
C4579 C4578 1.349 . S
C4579 C4595 1.349 . S
C4580 C4578 1.327 . S
C4580 C4599 1.429 . S
C4580 H4604 0.950 . S
C4581 C4598 1.574 . S
C4581 C4600 1.368 . S
C4581 H4605 0.949 . S
H4582 C4586 0.949 . S
C4583 C4584 1.349 . S
C4583 C4585 1.327 . S
C4583 H4606 0.950 . S
C4584 C4583 1.349 . S
C4584 C4596 1.349 . S
C4585 C4583 1.327 . S
C4585 C4601 1.429 . S
C4585 H4607 0.950 . S
C4586 H4582 0.949 . S
C4586 C4594 1.574 . S
C4586 C4602 1.368 . S
H4587 C4595 0.950 . S
H4588 C4593 0.950 . S
H4589 C4594 0.949 . S
H4590 C4596 0.950 . S
H4591 C4597 0.950 . S
H4592 C4598 0.949 . S
C4593 H4588 0.950 . S
C4593 C4595 1.327 . S
C4593 C4599 1.429 . S
C4594 C4586 1.574 . S
C4594 H4589 0.949 . S
C4594 C4600 1.368 . S
C4595 C4579 1.349 . S
C4595 H4587 0.950 . S
C4595 C4593 1.327 . S
C4596 C4584 1.349 . S
C4596 H4590 0.950 . S
C4596 C4597 1.327 . S
C4597 H4591 0.950 . S
C4597 C4596 1.327 . S
C4597 C4601 1.429 . S
C4598 C4581 1.574 . S
C4598 H4592 0.949 . S
C4598 C4602 1.368 . S
C4599 C4580 1.429 . S
C4599 C4593 1.429 . S
C4599 C4600 1.523 . S
C4600 C4581 1.368 . S
C4600 C4594 1.368 . S
C4600 C4599 1.523 . S
C4601 C4585 1.429 . S
C4601 C4597 1.429 . S
C4601 C4602 1.523 . S
C4602 C4586 1.368 . S
C4602 C4598 1.368 . S
C4602 C4601 1.523 . S
H4603 C4578 0.950 . S
H4604 C4580 0.950 . S
H4605 C4581 0.949 . S
H4606 C4583 0.950 . S
H4607 C4585 0.950 . S
C4608 C4609 1.349 . S
C4608 C4610 1.327 . S
C4608 H4633 0.950 . S
C4609 C4608 1.349 . S
C4609 C4625 1.349 . S
C4610 C4608 1.327 . S
C4610 C4629 1.429 . S
C4610 H4634 0.950 . S
C4611 C4628 1.574 . S
C4611 C4630 1.368 . S
C4611 H4635 0.949 . S
H4612 C4616 0.949 . S
C4613 C4614 1.349 . S
C4613 C4615 1.327 . S
C4613 H4636 0.950 . S
C4614 C4613 1.349 . S
C4614 C4626 1.349 . S
C4615 C4613 1.327 . S
C4615 C4631 1.429 . S
C4615 H4637 0.950 . S
C4616 H4612 0.949 . S
C4616 C4624 1.574 . S
C4616 C4632 1.368 . S
H4617 C4625 0.950 . S
H4618 C4623 0.950 . S
H4619 C4624 0.949 . S
H4620 C4626 0.950 . S
H4621 C4627 0.950 . S
H4622 C4628 0.949 . S
C4623 H4618 0.950 . S
C4623 C4625 1.327 . S
C4623 C4629 1.429 . S
C4624 C4616 1.574 . S
C4624 H4619 0.949 . S
C4624 C4630 1.368 . S
C4625 C4609 1.349 . S
C4625 H4617 0.950 . S
C4625 C4623 1.327 . S
C4626 C4614 1.349 . S
C4626 H4620 0.950 . S
C4626 C4627 1.327 . S
C4627 H4621 0.950 . S
C4627 C4626 1.327 . S
C4627 C4631 1.429 . S
C4628 C4611 1.574 . S
C4628 H4622 0.949 . S
C4628 C4632 1.368 . S
C4629 C4610 1.429 . S
C4629 C4623 1.429 . S
C4629 C4630 1.523 . S
C4630 C4611 1.368 . S
C4630 C4624 1.368 . S
C4630 C4629 1.523 . S
C4631 C4615 1.429 . S
C4631 C4627 1.429 . S
C4631 C4632 1.523 . S
C4632 C4616 1.368 . S
C4632 C4628 1.368 . S
C4632 C4631 1.523 . S
H4633 C4608 0.950 . S
H4634 C4610 0.950 . S
H4635 C4611 0.949 . S
H4636 C4613 0.950 . S
H4637 C4615 0.950 . S
C4638 C4639 1.349 . S
C4638 C4640 1.327 . S
C4638 H4663 0.950 . S
C4639 C4638 1.349 . S
C4639 C4655 1.349 . S
C4640 C4638 1.327 . S
C4640 C4659 1.429 . S
C4640 H4664 0.950 . S
C4641 C4658 1.574 . S
C4641 C4660 1.368 . S
C4641 H4665 0.949 . S
H4642 C4646 0.949 . S
C4643 C4644 1.349 . S
C4643 C4645 1.327 . S
C4643 H4666 0.950 . S
C4644 C4643 1.349 . S
C4644 C4656 1.349 . S
C4645 C4643 1.327 . S
C4645 C4661 1.429 . S
C4645 H4667 0.950 . S
C4646 H4642 0.949 . S
C4646 C4654 1.574 . S
C4646 C4662 1.368 . S
H4647 C4655 0.950 . S
H4648 C4653 0.950 . S
H4649 C4654 0.949 . S
H4650 C4656 0.950 . S
H4651 C4657 0.950 . S
H4652 C4658 0.949 . S
C4653 H4648 0.950 . S
C4653 C4655 1.327 . S
C4653 C4659 1.429 . S
C4654 C4646 1.574 . S
C4654 H4649 0.949 . S
C4654 C4660 1.368 . S
C4655 C4639 1.349 . S
C4655 H4647 0.950 . S
C4655 C4653 1.327 . S
C4656 C4644 1.349 . S
C4656 H4650 0.950 . S
C4656 C4657 1.327 . S
C4657 H4651 0.950 . S
C4657 C4656 1.327 . S
C4657 C4661 1.429 . S
C4658 C4641 1.574 . S
C4658 H4652 0.949 . S
C4658 C4662 1.368 . S
C4659 C4640 1.429 . S
C4659 C4653 1.429 . S
C4659 C4660 1.523 . S
C4660 C4641 1.368 . S
C4660 C4654 1.368 . S
C4660 C4659 1.523 . S
C4661 C4645 1.429 . S
C4661 C4657 1.429 . S
C4661 C4662 1.523 . S
C4662 C4646 1.368 . S
C4662 C4658 1.368 . S
C4662 C4661 1.523 . S
H4663 C4638 0.950 . S
H4664 C4640 0.950 . S
H4665 C4641 0.949 . S
H4666 C4643 0.950 . S
H4667 C4645 0.950 . S
C4668 C4669 1.349 . S
C4668 C4670 1.327 . S
C4668 H4693 0.950 . S
C4669 C4668 1.349 . S
C4669 C4685 1.349 . S
C4670 C4668 1.327 . S
C4670 C4689 1.429 . S
C4670 H4694 0.950 . S
C4671 C4688 1.574 . S
C4671 C4690 1.368 . S
C4671 H4695 0.949 . S
H4672 C4676 0.949 . S
C4673 C4674 1.328 1_655 S
C4673 C4675 1.327 . S
C4673 H4696 0.950 . S
C4674 C4673 1.328 1_455 S
C4674 C4686 1.351 . S
C4675 C4673 1.327 . S
C4675 C4691 1.429 . S
C4675 H4697 0.950 . S
C4676 H4672 0.949 . S
C4676 C4684 1.574 . S
C4676 C4692 1.368 . S
H4677 C4685 0.950 . S
H4678 C4683 0.950 . S
H4679 C4684 0.949 . S
H4680 C4686 0.964 . S
H4681 C4687 0.950 . S
H4682 C4688 0.949 . S
C4683 H4678 0.950 . S
C4683 C4685 1.327 . S
C4683 C4689 1.429 . S
C4684 C4676 1.574 . S
C4684 H4679 0.949 . S
C4684 C4690 1.368 . S
C4685 C4669 1.349 . S
C4685 H4677 0.950 . S
C4685 C4683 1.327 . S
C4686 C4674 1.351 . S
C4686 H4680 0.964 . S
C4686 C4687 1.317 1_455 S
C4687 H4681 0.950 . S
C4687 C4686 1.317 1_655 S
C4687 C4691 1.429 . S
C4688 C4671 1.574 . S
C4688 H4682 0.949 . S
C4688 C4692 1.368 . S
C4689 C4670 1.429 . S
C4689 C4683 1.429 . S
C4689 C4690 1.523 . S
C4690 C4671 1.368 . S
C4690 C4684 1.368 . S
C4690 C4689 1.523 . S
C4691 C4675 1.429 . S
C4691 C4687 1.429 . S
C4691 C4692 1.523 . S
C4692 C4676 1.368 . S
C4692 C4688 1.368 . S
C4692 C4691 1.523 . S
H4693 C4668 0.950 . S
H4694 C4670 0.950 . S
H4695 C4671 0.949 . S
H4696 C4673 0.950 . S
H4697 C4675 0.950 . S
C4698 C4699 1.349 . S
C4698 C4700 1.327 . S
C4698 H4723 0.950 . S
C4699 C4698 1.349 . S
C4699 C4715 1.349 . S
C4700 C4698 1.327 . S
C4700 C4719 1.429 . S
C4700 H4724 0.950 . S
C4701 C4718 1.574 . S
C4701 C4720 1.368 . S
C4701 H4725 0.949 . S
H4702 C4706 0.949 . S
C4703 C4704 1.349 . S
C4703 C4705 1.327 . S
C4703 H4726 0.950 . S
C4704 C4703 1.349 . S
C4704 C4716 1.349 . S
C4705 C4703 1.327 . S
C4705 C4721 1.429 . S
C4705 H4727 0.950 . S
C4706 H4702 0.949 . S
C4706 C4714 1.574 . S
C4706 C4722 1.368 . S
H4707 C4715 0.950 . S
H4708 C4713 0.950 . S
H4709 C4714 0.949 . S
H4710 C4716 0.950 . S
H4711 C4717 0.950 . S
H4712 C4718 0.949 . S
C4713 H4708 0.950 . S
C4713 C4715 1.327 . S
C4713 C4719 1.429 . S
C4714 C4706 1.574 . S
C4714 H4709 0.949 . S
C4714 C4720 1.368 . S
C4715 C4699 1.349 . S
C4715 H4707 0.950 . S
C4715 C4713 1.327 . S
C4716 C4704 1.349 . S
C4716 H4710 0.950 . S
C4716 C4717 1.327 . S
C4717 H4711 0.950 . S
C4717 C4716 1.327 . S
C4717 C4721 1.429 . S
C4718 C4701 1.574 . S
C4718 H4712 0.949 . S
C4718 C4722 1.368 . S
C4719 C4700 1.429 . S
C4719 C4713 1.429 . S
C4719 C4720 1.523 . S
C4720 C4701 1.368 . S
C4720 C4714 1.368 . S
C4720 C4719 1.523 . S
C4721 C4705 1.429 . S
C4721 C4717 1.429 . S
C4721 C4722 1.523 . S
C4722 C4706 1.368 . S
C4722 C4718 1.368 . S
C4722 C4721 1.523 . S
H4723 C4698 0.950 . S
H4724 C4700 0.950 . S
H4725 C4701 0.949 . S
H4726 C4703 0.950 . S
H4727 C4705 0.950 . S
C4728 C4729 1.349 . S
C4728 C4730 1.327 . S
C4728 H4753 0.950 . S
C4729 C4728 1.349 . S
C4729 C4745 1.349 . S
C4730 C4728 1.327 . S
C4730 C4749 1.429 . S
C4730 H4754 0.950 . S
C4731 C4748 1.574 . S
C4731 C4750 1.368 . S
C4731 H4755 0.949 . S
H4732 C4736 0.949 . S
C4733 C4734 1.349 . S
C4733 C4735 1.327 . S
C4733 H4756 0.950 . S
C4734 C4733 1.349 . S
C4734 C4746 1.349 . S
C4735 C4733 1.327 . S
C4735 C4751 1.429 . S
C4735 H4757 0.950 . S
C4736 H4732 0.949 . S
C4736 C4744 1.574 . S
C4736 C4752 1.368 . S
H4737 C4745 0.950 . S
H4738 C4743 0.950 . S
H4739 C4744 0.949 . S
H4740 C4746 0.950 . S
H4741 C4747 0.950 . S
H4742 C4748 0.949 . S
C4743 H4738 0.950 . S
C4743 C4745 1.327 . S
C4743 C4749 1.429 . S
C4744 C4736 1.574 . S
C4744 H4739 0.949 . S
C4744 C4750 1.368 . S
C4745 C4729 1.349 . S
C4745 H4737 0.950 . S
C4745 C4743 1.327 . S
C4746 C4734 1.349 . S
C4746 H4740 0.950 . S
C4746 C4747 1.327 . S
C4747 H4741 0.950 . S
C4747 C4746 1.327 . S
C4747 C4751 1.429 . S
C4748 C4731 1.574 . S
C4748 H4742 0.949 . S
C4748 C4752 1.368 . S
C4749 C4730 1.429 . S
C4749 C4743 1.429 . S
C4749 C4750 1.523 . S
C4750 C4731 1.368 . S
C4750 C4744 1.368 . S
C4750 C4749 1.523 . S
C4751 C4735 1.429 . S
C4751 C4747 1.429 . S
C4751 C4752 1.523 . S
C4752 C4736 1.368 . S
C4752 C4748 1.368 . S
C4752 C4751 1.523 . S
H4753 C4728 0.950 . S
H4754 C4730 0.950 . S
H4755 C4731 0.949 . S
H4756 C4733 0.950 . S
H4757 C4735 0.950 . S
C4758 C4759 1.349 . S
C4758 C4760 1.327 . S
C4758 H4783 0.950 . S
C4759 C4758 1.349 . S
C4759 C4775 1.349 . S
C4760 C4758 1.327 . S
C4760 C4779 1.429 . S
C4760 H4784 0.950 . S
C4761 C4778 1.574 . S
C4761 C4780 1.368 . S
C4761 H4785 0.949 . S
H4762 C4766 0.949 . S
C4763 C4764 1.349 . S
C4763 C4765 1.327 . S
C4763 H4786 0.950 . S
C4764 C4763 1.349 . S
C4764 C4776 1.349 . S
C4765 C4763 1.327 . S
C4765 C4781 1.429 . S
C4765 H4787 0.950 . S
C4766 H4762 0.949 . S
C4766 C4774 1.574 . S
C4766 C4782 1.368 . S
H4767 C4775 0.950 . S
H4768 C4773 0.950 . S
H4769 C4774 0.949 . S
H4770 C4776 0.950 . S
H4771 C4777 0.950 . S
H4772 C4778 0.949 . S
C4773 H4768 0.950 . S
C4773 C4775 1.327 . S
C4773 C4779 1.429 . S
C4774 C4766 1.574 . S
C4774 H4769 0.949 . S
C4774 C4780 1.368 . S
C4775 C4759 1.349 . S
C4775 H4767 0.950 . S
C4775 C4773 1.327 . S
C4776 C4764 1.349 . S
C4776 H4770 0.950 . S
C4776 C4777 1.327 . S
C4777 H4771 0.950 . S
C4777 C4776 1.327 . S
C4777 C4781 1.429 . S
C4778 C4761 1.574 . S
C4778 H4772 0.949 . S
C4778 C4782 1.368 . S
C4779 C4760 1.429 . S
C4779 C4773 1.429 . S
C4779 C4780 1.523 . S
C4780 C4761 1.368 . S
C4780 C4774 1.368 . S
C4780 C4779 1.523 . S
C4781 C4765 1.429 . S
C4781 C4777 1.429 . S
C4781 C4782 1.523 . S
C4782 C4766 1.368 . S
C4782 C4778 1.368 . S
C4782 C4781 1.523 . S
H4783 C4758 0.950 . S
H4784 C4760 0.950 . S
H4785 C4761 0.949 . S
H4786 C4763 0.950 . S
H4787 C4765 0.950 . S
C4788 C4789 1.349 . S
C4788 C4790 1.327 . S
C4788 H4813 0.950 . S
C4789 C4788 1.349 . S
C4789 C4805 1.349 . S
C4790 C4788 1.327 . S
C4790 C4809 1.429 . S
C4790 H4814 0.950 . S
C4791 C4808 1.574 . S
C4791 C4810 1.368 . S
C4791 H4815 0.949 . S
H4792 C4796 0.949 . S
C4793 C4794 1.349 . S
C4793 C4795 1.327 . S
C4793 H4816 0.950 . S
C4794 C4793 1.349 . S
C4794 C4806 1.349 . S
C4795 C4793 1.327 . S
C4795 C4811 1.429 . S
C4795 H4817 0.950 . S
C4796 H4792 0.949 . S
C4796 C4804 1.574 . S
C4796 C4812 1.368 . S
H4797 C4805 0.950 . S
H4798 C4803 0.950 . S
H4799 C4804 0.949 . S
H4800 C4806 0.950 . S
H4801 C4807 0.950 . S
H4802 C4808 0.949 . S
C4803 H4798 0.950 . S
C4803 C4805 1.327 . S
C4803 C4809 1.429 . S
C4804 C4796 1.574 . S
C4804 H4799 0.949 . S
C4804 C4810 1.368 . S
C4805 C4789 1.349 . S
C4805 H4797 0.950 . S
C4805 C4803 1.327 . S
C4806 C4794 1.349 . S
C4806 H4800 0.950 . S
C4806 C4807 1.327 . S
C4807 H4801 0.950 . S
C4807 C4806 1.327 . S
C4807 C4811 1.429 . S
C4808 C4791 1.574 . S
C4808 H4802 0.949 . S
C4808 C4812 1.368 . S
C4809 C4790 1.429 . S
C4809 C4803 1.429 . S
C4809 C4810 1.523 . S
C4810 C4791 1.368 . S
C4810 C4804 1.368 . S
C4810 C4809 1.523 . S
C4811 C4795 1.429 . S
C4811 C4807 1.429 . S
C4811 C4812 1.523 . S
C4812 C4796 1.368 . S
C4812 C4808 1.368 . S
C4812 C4811 1.523 . S
H4813 C4788 0.950 . S
H4814 C4790 0.950 . S
H4815 C4791 0.949 . S
H4816 C4793 0.950 . S
H4817 C4795 0.950 . S
C4818 C4819 1.349 . S
C4818 C4820 1.327 . S
C4818 H4843 0.950 . S
C4819 C4818 1.349 . S
C4819 C4835 1.349 . S
C4820 C4818 1.327 . S
C4820 C4839 1.429 . S
C4820 H4844 0.950 . S
C4821 C4838 1.574 . S
C4821 C4840 1.368 . S
C4821 H4845 0.949 . S
H4822 C4826 0.949 . S
C4823 C4824 1.349 . S
C4823 C4825 1.327 . S
C4823 H4846 0.950 . S
C4824 C4823 1.349 . S
C4824 C4836 1.349 . S
C4825 C4823 1.327 . S
C4825 C4841 1.429 . S
C4825 H4847 0.950 . S
C4826 H4822 0.949 . S
C4826 C4834 1.574 . S
C4826 C4842 1.368 . S
H4827 C4835 0.950 . S
H4828 C4833 0.950 . S
H4829 C4834 0.949 . S
H4830 C4836 0.950 . S
H4831 C4837 0.950 . S
H4832 C4838 0.949 . S
C4833 H4828 0.950 . S
C4833 C4835 1.327 . S
C4833 C4839 1.429 . S
C4834 C4826 1.574 . S
C4834 H4829 0.949 . S
C4834 C4840 1.368 . S
C4835 C4819 1.349 . S
C4835 H4827 0.950 . S
C4835 C4833 1.327 . S
C4836 C4824 1.349 . S
C4836 H4830 0.950 . S
C4836 C4837 1.327 . S
C4837 H4831 0.950 . S
C4837 C4836 1.327 . S
C4837 C4841 1.429 . S
C4838 C4821 1.574 . S
C4838 H4832 0.949 . S
C4838 C4842 1.368 . S
C4839 C4820 1.429 . S
C4839 C4833 1.429 . S
C4839 C4840 1.523 . S
C4840 C4821 1.368 . S
C4840 C4834 1.368 . S
C4840 C4839 1.523 . S
C4841 C4825 1.429 . S
C4841 C4837 1.429 . S
C4841 C4842 1.523 . S
C4842 C4826 1.368 . S
C4842 C4838 1.368 . S
C4842 C4841 1.523 . S
H4843 C4818 0.950 . S
H4844 C4820 0.950 . S
H4845 C4821 0.949 . S
H4846 C4823 0.950 . S
H4847 C4825 0.950 . S
C4848 C4849 1.349 . S
C4848 C4850 1.327 . S
C4848 H4873 0.950 . S
C4849 C4848 1.349 . S
C4849 C4865 1.349 . S
C4850 C4848 1.327 . S
C4850 C4869 1.429 . S
C4850 H4874 0.950 . S
C4851 C4868 1.574 . S
C4851 C4870 1.368 . S
C4851 H4875 0.949 . S
H4852 C4856 0.949 . S
C4853 C4854 1.349 . S
C4853 C4855 1.327 . S
C4853 H4876 0.950 . S
C4854 C4853 1.349 . S
C4854 C4866 1.349 . S
C4855 C4853 1.327 . S
C4855 C4871 1.429 . S
C4855 H4877 0.950 . S
C4856 H4852 0.949 . S
C4856 C4864 1.574 . S
C4856 C4872 1.368 . S
H4857 C4865 0.950 . S
H4858 C4863 0.950 . S
H4859 C4864 0.949 . S
H4860 C4866 0.950 . S
H4861 C4867 0.950 . S
H4862 C4868 0.949 . S
C4863 H4858 0.950 . S
C4863 C4865 1.327 . S
C4863 C4869 1.429 . S
C4864 C4856 1.574 . S
C4864 H4859 0.949 . S
C4864 C4870 1.368 . S
C4865 C4849 1.349 . S
C4865 H4857 0.950 . S
C4865 C4863 1.327 . S
C4866 C4854 1.349 . S
C4866 H4860 0.950 . S
C4866 C4867 1.327 . S
C4867 H4861 0.950 . S
C4867 C4866 1.327 . S
C4867 C4871 1.429 . S
C4868 C4851 1.574 . S
C4868 H4862 0.949 . S
C4868 C4872 1.368 . S
C4869 C4850 1.429 . S
C4869 C4863 1.429 . S
C4869 C4870 1.523 . S
C4870 C4851 1.368 . S
C4870 C4864 1.368 . S
C4870 C4869 1.523 . S
C4871 C4855 1.429 . S
C4871 C4867 1.429 . S
C4871 C4872 1.523 . S
C4872 C4856 1.368 . S
C4872 C4868 1.368 . S
C4872 C4871 1.523 . S
H4873 C4848 0.950 . S
H4874 C4850 0.950 . S
H4875 C4851 0.949 . S
H4876 C4853 0.950 . S
H4877 C4855 0.950 . S
C4878 C4879 1.349 . S
C4878 C4880 1.327 . S
C4878 H4903 0.950 . S
C4879 C4878 1.349 . S
C4879 C4895 1.349 . S
C4880 C4878 1.327 . S
C4880 C4899 1.429 . S
C4880 H4904 0.950 . S
C4881 C4898 1.574 . S
C4881 C4900 1.368 . S
C4881 H4905 0.949 . S
H4882 C4886 0.949 . S
C4883 C4884 1.349 . S
C4883 C4885 1.327 . S
C4883 H4906 0.950 . S
C4884 C4883 1.349 . S
C4884 C4896 1.349 . S
C4885 C4883 1.327 . S
C4885 C4901 1.429 . S
C4885 H4907 0.950 . S
C4886 H4882 0.949 . S
C4886 C4894 1.574 . S
C4886 C4902 1.368 . S
H4887 C4895 0.950 . S
H4888 C4893 0.950 . S
H4889 C4894 0.949 . S
H4890 C4896 0.950 . S
H4891 C4897 0.950 . S
H4892 C4898 0.949 . S
C4893 H4888 0.950 . S
C4893 C4895 1.327 . S
C4893 C4899 1.429 . S
C4894 C4886 1.574 . S
C4894 H4889 0.949 . S
C4894 C4900 1.368 . S
C4895 C4879 1.349 . S
C4895 H4887 0.950 . S
C4895 C4893 1.327 . S
C4896 C4884 1.349 . S
C4896 H4890 0.950 . S
C4896 C4897 1.327 . S
C4897 H4891 0.950 . S
C4897 C4896 1.327 . S
C4897 C4901 1.429 . S
C4898 C4881 1.574 . S
C4898 H4892 0.949 . S
C4898 C4902 1.368 . S
C4899 C4880 1.429 . S
C4899 C4893 1.429 . S
C4899 C4900 1.523 . S
C4900 C4881 1.368 . S
C4900 C4894 1.368 . S
C4900 C4899 1.523 . S
C4901 C4885 1.429 . S
C4901 C4897 1.429 . S
C4901 C4902 1.523 . S
C4902 C4886 1.368 . S
C4902 C4898 1.368 . S
C4902 C4901 1.523 . S
H4903 C4878 0.950 . S
H4904 C4880 0.950 . S
H4905 C4881 0.949 . S
H4906 C4883 0.950 . S
H4907 C4885 0.950 . S
C4908 C4909 1.349 . S
C4908 C4910 1.327 . S
C4908 H4933 0.950 . S
C4909 C4908 1.349 . S
C4909 C4925 1.349 . S
C4910 C4908 1.327 . S
C4910 C4929 1.429 . S
C4910 H4934 0.950 . S
C4911 C4928 1.574 . S
C4911 C4930 1.368 . S
C4911 H4935 0.949 . S
H4912 C4916 0.949 . S
C4913 C4914 1.349 . S
C4913 C4915 1.327 . S
C4913 H4936 0.950 . S
C4914 C4913 1.349 . S
C4914 C4926 1.349 . S
C4915 C4913 1.327 . S
C4915 C4931 1.429 . S
C4915 H4937 0.950 . S
C4916 H4912 0.949 . S
C4916 C4924 1.574 . S
C4916 C4932 1.368 . S
H4917 C4925 0.950 . S
H4918 C4923 0.950 . S
H4919 C4924 0.949 . S
H4920 C4926 0.950 . S
H4921 C4927 0.950 . S
H4922 C4928 0.949 . S
C4923 H4918 0.950 . S
C4923 C4925 1.327 . S
C4923 C4929 1.429 . S
C4924 C4916 1.574 . S
C4924 H4919 0.949 . S
C4924 C4930 1.368 . S
C4925 C4909 1.349 . S
C4925 H4917 0.950 . S
C4925 C4923 1.327 . S
C4926 C4914 1.349 . S
C4926 H4920 0.950 . S
C4926 C4927 1.327 . S
C4927 H4921 0.950 . S
C4927 C4926 1.327 . S
C4927 C4931 1.429 . S
C4928 C4911 1.574 . S
C4928 H4922 0.949 . S
C4928 C4932 1.368 . S
C4929 C4910 1.429 . S
C4929 C4923 1.429 . S
C4929 C4930 1.523 . S
C4930 C4911 1.368 . S
C4930 C4924 1.368 . S
C4930 C4929 1.523 . S
C4931 C4915 1.429 . S
C4931 C4927 1.429 . S
C4931 C4932 1.523 . S
C4932 C4916 1.368 . S
C4932 C4928 1.368 . S
C4932 C4931 1.523 . S
H4933 C4908 0.950 . S
H4934 C4910 0.950 . S
H4935 C4911 0.949 . S
H4936 C4913 0.950 . S
H4937 C4915 0.950 . S
C4938 C4939 1.349 . S
C4938 C4940 1.327 . S
C4938 H4963 0.950 . S
C4939 C4938 1.349 . S
C4939 C4955 1.349 . S
C4940 C4938 1.327 . S
C4940 C4959 1.429 . S
C4940 H4964 0.950 . S
C4941 C4958 1.574 . S
C4941 C4960 1.368 . S
C4941 H4965 0.949 . S
H4942 C4946 0.949 . S
C4943 C4944 1.349 . S
C4943 C4945 1.327 . S
C4943 H4966 0.950 . S
C4944 C4943 1.349 . S
C4944 C4956 1.349 . S
C4945 C4943 1.327 . S
C4945 C4961 1.429 . S
C4945 H4967 0.950 . S
C4946 H4942 0.949 . S
C4946 C4954 1.574 . S
C4946 C4962 1.368 . S
H4947 C4955 0.950 . S
H4948 C4953 0.950 . S
H4949 C4954 0.949 . S
H4950 C4956 0.950 . S
H4951 C4957 0.950 . S
H4952 C4958 0.949 . S
C4953 H4948 0.950 . S
C4953 C4955 1.327 . S
C4953 C4959 1.429 . S
C4954 C4946 1.574 . S
C4954 H4949 0.949 . S
C4954 C4960 1.368 . S
C4955 C4939 1.349 . S
C4955 H4947 0.950 . S
C4955 C4953 1.327 . S
C4956 C4944 1.349 . S
C4956 H4950 0.950 . S
C4956 C4957 1.327 . S
C4957 H4951 0.950 . S
C4957 C4956 1.327 . S
C4957 C4961 1.429 . S
C4958 C4941 1.574 . S
C4958 H4952 0.949 . S
C4958 C4962 1.368 . S
C4959 C4940 1.429 . S
C4959 C4953 1.429 . S
C4959 C4960 1.523 . S
C4960 C4941 1.368 . S
C4960 C4954 1.368 . S
C4960 C4959 1.523 . S
C4961 C4945 1.429 . S
C4961 C4957 1.429 . S
C4961 C4962 1.523 . S
C4962 C4946 1.368 . S
C4962 C4958 1.368 . S
C4962 C4961 1.523 . S
H4963 C4938 0.950 . S
H4964 C4940 0.950 . S
H4965 C4941 0.949 . S
H4966 C4943 0.950 . S
H4967 C4945 0.950 . S
C4968 C4969 1.349 . S
C4968 C4970 1.327 . S
C4968 H4993 0.950 . S
C4969 C4968 1.349 . S
C4969 C4985 1.349 . S
C4970 C4968 1.327 . S
C4970 C4989 1.429 . S
C4970 H4994 0.950 . S
C4971 C4988 1.574 . S
C4971 C4990 1.368 . S
C4971 H4995 0.949 . S
H4972 C4976 0.949 . S
C4973 C4974 1.349 . S
C4973 C4975 1.327 . S
C4973 H4996 0.950 . S
C4974 C4973 1.349 . S
C4974 C4986 1.349 . S
C4975 C4973 1.327 . S
C4975 C4991 1.429 . S
C4975 H4997 0.950 . S
C4976 H4972 0.949 . S
C4976 C4984 1.574 . S
C4976 C4992 1.368 . S
H4977 C4985 0.950 . S
H4978 C4983 0.950 . S
H4979 C4984 0.949 . S
H4980 C4986 0.950 . S
H4981 C4987 0.950 . S
H4982 C4988 0.949 . S
C4983 H4978 0.950 . S
C4983 C4985 1.327 . S
C4983 C4989 1.429 . S
C4984 C4976 1.574 . S
C4984 H4979 0.949 . S
C4984 C4990 1.368 . S
C4985 C4969 1.349 . S
C4985 H4977 0.950 . S
C4985 C4983 1.327 . S
C4986 C4974 1.349 . S
C4986 H4980 0.950 . S
C4986 C4987 1.327 . S
C4987 H4981 0.950 . S
C4987 C4986 1.327 . S
C4987 C4991 1.429 . S
C4988 C4971 1.574 . S
C4988 H4982 0.949 . S
C4988 C4992 1.368 . S
C4989 C4970 1.429 . S
C4989 C4983 1.429 . S
C4989 C4990 1.523 . S
C4990 C4971 1.368 . S
C4990 C4984 1.368 . S
C4990 C4989 1.523 . S
C4991 C4975 1.429 . S
C4991 C4987 1.429 . S
C4991 C4992 1.523 . S
C4992 C4976 1.368 . S
C4992 C4988 1.368 . S
C4992 C4991 1.523 . S
H4993 C4968 0.950 . S
H4994 C4970 0.950 . S
H4995 C4971 0.949 . S
H4996 C4973 0.950 . S
H4997 C4975 0.950 . S
C4998 C4999 1.349 . S
C4998 C5000 1.327 . S
C4998 H5023 0.950 . S
C4999 C4998 1.349 . S
C4999 C5015 1.349 . S
C5000 C4998 1.327 . S
C5000 C5019 1.429 . S
C5000 H5024 0.950 . S
C5001 C5018 1.574 . S
C5001 C5020 1.368 . S
C5001 H5025 0.949 . S
H5002 C5006 0.949 . S
C5003 C5004 1.349 . S
C5003 C5005 1.327 . S
C5003 H5026 0.950 1_554 S
C5004 C5003 1.349 . S
C5004 C5016 1.349 . S
C5005 C5003 1.327 . S
C5005 C5021 1.429 . S
C5005 H5027 0.950 1_554 S
C5006 H5002 0.949 . S
C5006 C5014 1.574 . S
C5006 C5022 1.368 . S
H5007 C5015 0.950 . S
H5008 C5013 0.950 . S
H5009 C5014 0.949 . S
H5010 C5016 0.950 . S
H5011 C5017 0.950 . S
H5012 C5018 0.924 1_556 S
C5013 H5008 0.950 . S
C5013 C5015 1.327 . S
C5013 C5019 1.429 . S
C5014 C5006 1.574 . S
C5014 H5009 0.949 . S
C5014 C5020 1.368 . S
C5015 C4999 1.349 . S
C5015 H5007 0.950 . S
C5015 C5013 1.327 . S
C5016 C5004 1.349 . S
C5016 H5010 0.950 . S
C5016 C5017 1.327 . S
C5017 H5011 0.950 . S
C5017 C5016 1.327 . S
C5017 C5021 1.429 . S
C5018 C5001 1.574 . S
C5018 H5012 0.924 1_554 S
C5018 C5022 1.368 . S
C5019 C5000 1.429 . S
C5019 C5013 1.429 . S
C5019 C5020 1.523 . S
C5020 C5001 1.368 . S
C5020 C5014 1.368 . S
C5020 C5019 1.523 . S
C5021 C5005 1.429 . S
C5021 C5017 1.429 . S
C5021 C5022 1.523 . S
C5022 C5006 1.368 . S
C5022 C5018 1.368 . S
C5022 C5021 1.523 . S
H5023 C4998 0.950 . S
H5024 C5000 0.950 . S
H5025 C5001 0.949 . S
H5026 C5003 0.950 1_556 S
H5027 C5005 0.950 1_556 S
C5028 C5029 1.349 . S
C5028 C5030 1.327 . S
C5028 H5053 0.950 . S
C5029 C5028 1.349 . S
C5029 C5045 1.349 . S
C5030 C5028 1.327 . S
C5030 C5049 1.429 . S
C5030 H5054 0.950 . S
C5031 C5048 1.574 . S
C5031 C5050 1.368 . S
C5031 H5055 0.949 . S
H5032 C5036 0.949 . S
C5033 C5034 1.349 . S
C5033 C5035 1.327 . S
C5033 H5056 0.950 . S
C5034 C5033 1.349 . S
C5034 C5046 1.349 . S
C5035 C5033 1.327 . S
C5035 C5051 1.429 . S
C5035 H5057 0.950 . S
C5036 H5032 0.949 . S
C5036 C5044 1.574 . S
C5036 C5052 1.368 . S
H5037 C5045 0.950 . S
H5038 C5043 0.950 . S
H5039 C5044 0.949 . S
H5040 C5046 0.950 . S
H5041 C5047 0.950 . S
H5042 C5048 0.949 . S
C5043 H5038 0.950 . S
C5043 C5045 1.327 . S
C5043 C5049 1.429 . S
C5044 C5036 1.574 . S
C5044 H5039 0.949 . S
C5044 C5050 1.368 . S
C5045 C5029 1.349 . S
C5045 H5037 0.950 . S
C5045 C5043 1.327 . S
C5046 C5034 1.349 . S
C5046 H5040 0.950 . S
C5046 C5047 1.327 . S
C5047 H5041 0.950 . S
C5047 C5046 1.327 . S
C5047 C5051 1.429 . S
C5048 C5031 1.574 . S
C5048 H5042 0.949 . S
C5048 C5052 1.368 . S
C5049 C5030 1.429 . S
C5049 C5043 1.429 . S
C5049 C5050 1.523 . S
C5050 C5031 1.368 . S
C5050 C5044 1.368 . S
C5050 C5049 1.523 . S
C5051 C5035 1.429 . S
C5051 C5047 1.429 . S
C5051 C5052 1.523 . S
C5052 C5036 1.368 . S
C5052 C5048 1.368 . S
C5052 C5051 1.523 . S
H5053 C5028 0.950 . S
H5054 C5030 0.950 . S
H5055 C5031 0.949 . S
H5056 C5033 0.950 . S
H5057 C5035 0.950 . S
C5058 C5059 1.349 . S
C5058 C5060 1.327 . S
C5058 H5083 0.950 . S
C5059 C5058 1.349 . S
C5059 C5075 1.349 . S
C5060 C5058 1.327 . S
C5060 C5079 1.429 . S
C5060 H5084 0.950 . S
C5061 C5078 1.574 . S
C5061 C5080 1.368 . S
C5061 H5085 0.949 . S
H5062 C5066 0.949 . S
C5063 C5064 1.349 . S
C5063 C5065 1.327 . S
C5063 H5086 0.950 . S
C5064 C5063 1.349 . S
C5064 C5076 1.349 . S
C5065 C5063 1.327 . S
C5065 C5081 1.429 . S
C5065 H5087 0.950 . S
C5066 H5062 0.949 . S
C5066 C5074 1.574 . S
C5066 C5082 1.368 . S
H5067 C5075 0.950 . S
H5068 C5073 0.950 . S
H5069 C5074 0.949 . S
H5070 C5076 0.950 . S
H5071 C5077 0.950 . S
H5072 C5078 0.949 . S
C5073 H5068 0.950 . S
C5073 C5075 1.327 . S
C5073 C5079 1.429 . S
C5074 C5066 1.574 . S
C5074 H5069 0.949 . S
C5074 C5080 1.368 . S
C5075 C5059 1.349 . S
C5075 H5067 0.950 . S
C5075 C5073 1.327 . S
C5076 C5064 1.349 . S
C5076 H5070 0.950 . S
C5076 C5077 1.327 . S
C5077 H5071 0.950 . S
C5077 C5076 1.327 . S
C5077 C5081 1.429 . S
C5078 C5061 1.574 . S
C5078 H5072 0.949 . S
C5078 C5082 1.368 . S
C5079 C5060 1.429 . S
C5079 C5073 1.429 . S
C5079 C5080 1.523 . S
C5080 C5061 1.368 . S
C5080 C5074 1.368 . S
C5080 C5079 1.523 . S
C5081 C5065 1.429 . S
C5081 C5077 1.429 . S
C5081 C5082 1.523 . S
C5082 C5066 1.368 . S
C5082 C5078 1.368 . S
C5082 C5081 1.523 . S
H5083 C5058 0.950 . S
H5084 C5060 0.950 . S
H5085 C5061 0.949 . S
H5086 C5063 0.950 . S
H5087 C5065 0.950 . S
C2209 C255 1.944 . S
C2214 C931 1.956 . S
C2239 C147 1.818 . S
C2244 C1004 1.812 . S
C2269 C184 1.706 . S
C2274 C1099 1.733 . S
C2304 C1174 1.461 . S
C2299 C220 1.587 . S
C2329 C40 1.548 . S
C2334 C1258 1.425 . S
C2364 C1351 1.831 . S
C2359 C74 1.790 . S
C2394 C1424 1.845 . S
C2389 C110 1.860 . S
C2419 C14 1.895 . S
C2424 C1519 1.905 . S
C2454 C920 1.596 . S
C2449 C579 1.632 . S
C2479 C616 0.901 . S
C2484 C1006 0.865 . S
C2514 C1088 1.134 . S
C2509 C687 1.143 . S
C2544 C1183 1.650 . S
C2539 C436 1.636 . S
C2569 C580 1.609 . S
C2574 C1267 1.623 . S
C2604 C1340 1.109 . S
C2599 C615 1.118 . S
C2634 C1426 0.864 . S
C2629 C688 0.896 . S
C2664 C1508 1.573 . S
C2659 C435 1.610 . S
C2694 C922 0.883 . S
C2689 C410 0.926 . S
C2719 C722 1.735 . S
C2724 C1592 1.717 . S
C2754 C1678 1.338 . S
C2749 C842 1.395 . S
C2784 C1771 0.823 . S
C2779 C794 0.819 . S
C2809 C302 0.922 . S
C2814 C1510 0.896 . S
C2839 C338 1.364 . S
C2844 C1090 1.308 . S
C2869 C830 1.768 . S
C2874 C1844 1.749 . S
C2904 C1939 0.884 . S
C2899 C758 0.878 . S
C2934 C919 1.908 . S
C2929 C158 1.814 . S
C2964 C1940 1.778 . S
C2959 C254 1.792 . S
C2989 C218 1.703 . S
C2994 C1087 1.737 . S
C3019 C194 1.495 . S
C3024 C1858 1.435 . S
C3054 C1270 1.412 . S
C3049 C3 1.521 . S
C3079 C111 1.648 . S
C3084 C1675 1.647 . S
C3114 C1436 1.791 1_556 S
C3109 C76 1.800 . S
C3144 C2011 1.974 . S
C3139 C50 1.880 . S
C3174 C932 1.530 . S
C3169 C364 1.569 . S
C3204 C1942 0.827 . S
C3199 C795 0.847 . S
C3229 C292 1.081 . S
C3234 C1100 1.066 . S
C3259 C723 1.575 . S
C3264 C1843 1.571 . S
C3289 C363 1.586 . S
C3294 C1255 1.582 . S
C3324 C1688 1.084 . S
C3319 C796 1.098 . S
C3349 C291 0.867 . S
C3354 C1438 0.840 . S
C3379 C724 1.590 . S
C3384 C2024 1.551 . S
C3409 C482 0.864 . S
C3414 C934 0.864 . S
C3439 C434 1.695 . S
C3444 C1604 1.680 . S
C3469 C662 1.337 . S
C3474 C1354 1.315 . S
C3499 C614 0.805 . S
C3504 C1759 0.807 . S
C3534 C2026 0.890 . S
C3529 C698 0.893 . S
C3559 C554 1.329 . S
C3564 C1102 1.308 . S
C3594 C1184 1.682 . S
C3589 C650 1.698 . S
C3624 C1003 0.809 . S
C3619 C506 0.807 . S
C3649 C183 1.945 . S
C3654 C2107 1.958 . S
C3684 C1928 1.812 . S
C3679 C219 1.818 . S
C3709 C256 1.701 . S
C3714 C2191 1.728 . S
C3739 C148 1.585 1_655 S
C3744 C1846 1.459 . S
C3769 C122 1.545 . S
C3774 C1594 1.478 . S
C3804 C1687 1.757 . S
C3799 C2 1.719 1_655 S
C3834 C1760 1.741 . S
C3829 C39 1.743 . S
C3864 C2023 1.986 . S
C3859 C86 1.974 . S
C3894 C2096 1.607 . S
C3889 C651 1.643 . S
C3919 C472 0.901 1_556 S
C3924 C1930 0.865 . S
C3954 C2180 1.119 . S
C3949 C507 1.128 . S
C3984 C1855 1.659 . S
C3979 C544 1.645 . S
C4014 C1603 1.617 . S
C4009 C652 1.604 . S
C4039 C471 1.104 . S
C4044 C1676 1.094 . S
C4074 C1762 0.860 . S
C4069 C508 0.893 . S
C4099 C543 1.629 . S
C4104 C2012 1.593 . S
C4134 C2098 0.899 . S
C4129 C806 0.927 . S
C4159 C326 1.712 . S
C4164 C1256 1.695 . S
C4194 C1342 1.317 . S
C4189 C374 1.373 1_565 S
C4224 C1435 0.838 . S
C4219 C398 0.834 . S
C4254 C2014 0.896 . S
C4249 C770 0.922 . S
C4279 C734 1.354 . S
C4284 C2182 1.299 . S
C4314 C1172 1.734 . S
C4309 C362 1.752 . S
C4344 C1015 0.903 . S
C4339 C290 0.896 . S
C4369 C230 1.812 . S
C4374 C2095 1.906 . S
C4404 C1016 1.784 . S
C4399 C182 1.796 . S
C4429 C146 1.704 . S
C4434 C2179 1.738 . S
C4459 C266 1.497 . S
C4464 C1186 1.435 . S
C4489 C75 1.567 . S
C4494 C1606 1.453 . S
C4524 C1339 1.803 . S
C4519 C38 1.765 . S
C4549 C4 1.722 . S
C4554 C1772 1.715 . S
C4579 C112 1.874 . S
C4584 C1507 1.886 . S
C4614 C2108 1.534 . S
C4609 C832 1.572 . S
C4639 C399 0.860 . S
C4644 C1018 0.833 . S
C4674 C2192 1.078 . S
C4669 C760 1.076 . S
C4699 C327 1.569 . S
C4704 C1171 1.565 . S
C4729 C831 1.616 . S
C4734 C1591 1.612 . S
C4764 C1352 1.088 . S
C4759 C400 1.109 . S
C4789 C759 0.873 . S
C4794 C1774 0.847 . S
C4824 C1520 1.557 . S
C4819 C328 1.594 . S
C4854 C2110 0.873 . S
C4849 C626 0.872 . S
C4884 C1268 1.686 1_565 S
C4879 C542 1.702 . S
C4909 C590 1.309 . S
C4914 C1690 1.287 . S
C4944 C1423 0.815 . S
C4939 C470 0.812 . S
C4969 C518 0.875 . S
C4974 C1522 0.871 . S
C4999 C446 1.322 . S
C5004 C2194 1.300 . S
C5034 C1856 1.696 . S
C5029 C578 1.712 . S
C5064 C1927 0.784 . S
C5059 C686 0.783 . S
