# Generated by pormake.
# Topology pts, (4,4)-cn, num edge types: 1
# Building blocks:
#     Node 0, Type 0, BuildingBlock: NAWXER_clean_sbu_0, # of connection points: 4
#     Node 1, Type 0, BuildingBlock: NAWXER_clean_sbu_0, # of connection points: 4
#     Node 2, Type 1, BuildingBlock: UXUYUI_clean_sbu_0, # of connection points: 4
#     Node 3, Type 1, BuildingBlock: UXUYUI_clean_sbu_0, # of connection points: 4
#     Edge 4, Type (0, 1), BuildingBlock: EZIPEK_clean_linker_0, # of connection points: 2
#     Edge 5, Type (0, 1), BuildingBlock: EZIPEK_clean_linker_0, # of connection points: 2
#     Edge 6, Type (0, 1), BuildingBlock: EZIPEK_clean_linker_0, # of connection points: 2
#     Edge 7, Type (0, 1), BuildingBlock: EZIPEK_clean_linker_0, # of connection points: 2
#     Edge 8, Type (0, 1), BuildingBlock: EZIPEK_clean_linker_0, # of connection points: 2
#     Edge 9, Type (0, 1), BuildingBlock: EZIPEK_clean_linker_0, # of connection points: 2
#     Edge 10, Type (0, 1), BuildingBlock: EZIPEK_clean_linker_0, # of connection points: 2
#     Edge 11, Type (0, 1), BuildingBlock: EZIPEK_clean_linker_0, # of connection points: 2
# Relax obj value: 0.015
# Max RMSD: 0.059
# Mean RMSD: 0.051
data_MOF--net-pts--node1-NAWXER_clean_sbu_0--node2-UXUYUI_clean_sbu_0--edge1-EZIPEK_clean_linker_0
_symmetry_space_group_name_H-M    P1
_symmetry_Int_Tables_number       1
_symmetry_cell_setting            triclinic
loop_
_symmetry_equiv_pos_as_xyz
'x, y, z'
_cell_length_a     22.478128
_cell_length_b     22.425559
_cell_length_c     35.723145
_cell_angle_alpha  89.946798
_cell_angle_beta   90.07411
_cell_angle_gamma 89.871143
loop_
_atom_site_label
_atom_site_type_symbol
_atom_site_fract_x
_atom_site_fract_y
_atom_site_fract_z
_atom_type_partial_charge
C0 C 0.43328 0.0517 0.96654 0.0
C1 C 0.59162 0.05581 0.06214 0.0
O2 O 0.44815 1.00019 0.97901 0.0
Zn3 Zn 0.51269 0.96188 0.01612 0.0
O4 O 0.46104 0.09758 0.97815 0.0
Zn5 Zn 0.51258 0.05723 1.01414 0.0
O6 O 0.57571 0.01566 0.97791 0.0
O7 O 0.56454 0.91813 0.9819 0.0
O8 O 0.56459 0.10078 0.0484 0.0
O9 O 0.57634 1.0033 0.05196 0.0
O10 O 0.46158 0.92155 0.05216 0.0
O11 O 0.44877 0.01908 0.05158 0.0
C12 C 0.59106 0.96304 0.9679 0.0
C13 C 0.43402 0.96754 0.06392 0.0
C14 C 0.9665 0.58989 0.46942 0.0
C15 C 0.96365 0.43377 0.56593 0.0
O16 O 0.92056 0.56546 0.48344 0.0
Zn17 Zn 0.96226 0.51199 0.51736 0.0
O18 O 0.01849 0.57274 0.47974 0.0
Zn19 Zn 0.05739 0.50957 0.51795 0.0
O20 O 0.09996 0.45551 0.48496 0.0
O21 O 1.00215 0.4482 0.48015 0.0
O22 O 0.01599 0.44736 0.55482 0.0
O23 O 0.91899 0.46144 0.55245 0.0
O24 O 1.00262 0.57472 0.55414 0.0
O25 O 0.09972 0.56118 0.55297 0.0
C26 C 0.05439 0.43088 0.47056 0.0
C27 C 0.0546 0.58893 0.56567 0.0
Li28 Li 0.02852 0.06368 0.29065 0.0
Li29 Li 0.99494 0.95773 0.29002 0.0
Li30 Li 0.06494 0.99769 0.24047 0.0
Li31 Li 0.95965 0.02514 0.23955 0.0
C32 C 0.12002 0.99325 0.32244 0.0
N33 N 0.20604 1.00143 0.37753 0.0
C34 C 0.11328 0.96229 0.35616 0.0
C35 C 0.17077 0.02795 0.31663 0.0
C36 C 0.15721 0.96709 0.38368 0.0
C37 C 0.21366 0.03165 0.34486 0.0
C38 C 0.90068 0.02914 0.31977 0.0
C39 C 0.80289 0.9956 0.33771 0.0
N40 N 0.80919 0.02355 0.37125 0.0
C41 C 0.90601 0.05789 0.35432 0.0
C42 C 0.84856 0.99805 0.31127 0.0
C43 C 0.85932 0.05442 0.38 0.0
C44 C 0.02982 0.18601 0.30896 0.0
N45 N 0.04483 0.13105 0.32217 0.0
C46 C 0.07455 0.17302 0.38083 0.0
C47 C 0.0668 0.12385 0.35741 0.0
C48 C 0.0578 0.22992 0.36829 0.0
C49 C 0.0357 0.23637 0.33176 0.0
H50 H 0.01168 0.19047 0.28104 0.0
H51 H 0.07635 0.07986 0.368 0.0
C52 C 0.99676 0.83545 0.30845 0.0
N53 N 0.97774 0.88964 0.32079 0.0
C54 C 0.99065 0.78483 0.33104 0.0
C55 C 0.94362 0.84624 0.37807 0.0
C56 C 0.95142 0.89573 0.35487 0.0
C57 C 0.96438 0.79023 0.36647 0.0
H58 H 0.01825 0.83192 0.28147 0.0
H59 H 0.93842 0.93916 0.36481 0.0
C60 C 0.06687 0.11082 0.21324 0.0
N61 N 0.14418 0.17254 0.16742 0.0
C62 C 0.05281 0.11992 0.17555 0.0
C63 C 0.11964 0.13405 0.22781 0.0
C64 C 0.09264 0.15101 0.15279 0.0
C65 C 0.15833 0.16485 0.20415 0.0
C66 C 0.95798 0.90879 0.2144 0.0
C67 C 0.97144 0.89492 0.17723 0.0
C68 C 0.90605 0.88648 0.23059 0.0
C69 C 0.93191 0.85993 0.15658 0.0
C70 C 0.86766 0.85163 0.20903 0.0
N71 N 0.88123 0.83926 0.17275 0.0
C72 C 0.18346 0.96082 0.22409 0.0
C73 C 0.12511 0.98755 0.17132 0.0
C74 C 0.23337 0.95239 0.2014 0.0
N75 N 0.13114 0.97959 0.20889 0.0
C76 C 0.17393 0.98002 0.14763 0.0
C77 C 0.22901 0.9633 0.16283 0.0
H78 H 0.18678 0.95335 0.25388 0.0
H79 H 0.08267 1.00111 0.15985 0.0
C80 C 0.84402 0.06911 0.22168 0.0
N81 N 0.89422 0.04399 0.20736 0.0
C82 C 0.79428 0.07838 0.19885 0.0
C83 C 0.84984 0.03865 0.14657 0.0
C84 C 0.89853 0.03038 0.17036 0.0
C85 C 0.79668 0.06182 0.16103 0.0
H86 H 0.84217 0.08094 0.25096 0.0
H87 H 0.93945 1.01199 0.15946 0.0
O88 O 0.0773 0.98917 0.29526 0.0
O89 O 0.94607 0.03202 0.29437 0.0
O90 O 0.02905 0.07943 0.23577 0.0
O91 O 0.9957 0.94375 0.23486 0.0
H92 H 0.07448 0.93504 0.36112 0.0
H93 H 0.17707 0.05168 0.29061 0.0
H94 H 0.15246 0.94354 0.40995 0.0
H95 H 0.25306 0.05849 0.34078 0.0
H96 H 0.76237 0.97158 0.33152 0.0
H97 H 0.94586 0.08236 0.36135 0.0
H98 H 0.84321 0.97634 0.28448 0.0
H99 H 0.86297 0.07624 0.4069 0.0
H100 H 0.09106 0.16647 0.40905 0.0
H101 H 0.02186 0.27962 0.32138 0.0
H102 H 1.00762 0.74228 0.32144 0.0
H103 H 0.92382 0.85196 0.40547 0.0
H104 H 0.0119 0.10259 0.16391 0.0
H105 H 0.13053 0.12842 0.25708 0.0
H106 H 0.08261 0.15793 0.12348 0.0
H107 H 0.19955 0.18272 0.21499 0.0
H108 H 0.01172 0.91147 0.16438 0.0
H109 H 0.89561 0.89578 0.25952 0.0
H110 H 0.94152 0.84924 0.12769 0.0
H111 H 0.82713 0.83432 0.22115 0.0
H112 H 0.27535 0.93924 0.21388 0.0
H113 H 0.16923 0.98865 0.11793 0.0
H114 H 0.75382 0.09653 0.21075 0.0
H115 H 0.85302 0.02559 0.11745 0.0
Li116 Li 0.95673 0.9991 0.79065 0.0
Li117 Li 0.06601 0.02539 0.78795 0.0
Li118 Li 0.99725 0.06281 0.74131 0.0
Li119 Li 0.02614 0.96157 0.7399 0.0
C120 C 0.98797 0.13701 0.7984 0.0
N121 N 0.9716 0.25907 0.7986 0.0
C122 C 0.03617 0.17496 0.79213 0.0
C123 C 0.93156 0.16101 0.80507 0.0
C124 C 0.02692 0.23659 0.79223 0.0
C125 C 0.92419 0.22289 0.80503 0.0
C126 C 0.05729 0.92146 0.82478 0.0
C127 C 0.1465 0.88149 0.85301 0.0
N128 N 0.11738 0.87625 0.88619 0.0
C129 C 0.02817 0.91529 0.85912 0.0
C130 C 0.11686 0.90405 0.82163 0.0
C131 C 0.05934 0.89246 0.88984 0.0
C132 C 0.85387 0.93655 0.81513 0.0
N133 N 0.89219 0.98162 0.82327 0.0
C134 C 0.83727 1.00619 0.87838 0.0
C135 C 0.88538 0.01568 0.85445 0.0
C136 C 0.79598 0.96143 0.86993 0.0
C137 C 0.80472 0.92588 0.83814 0.0
H138 H 0.86067 0.91001 0.79022 0.0
H139 H 0.91696 0.05073 0.86042 0.0
C140 C 0.18562 0.05806 0.80442 0.0
N141 N 0.13195 0.04429 0.81965 0.0
C142 C 0.23522 0.06639 0.82743 0.0
C143 C 0.17269 0.04955 0.88143 0.0
C144 C 0.12421 0.04217 0.8574 0.0
C145 C 0.22915 0.06049 0.86634 0.0
H146 H 0.19022 0.06131 0.77439 0.0
H147 H 0.0807 0.03269 0.86879 0.0
C148 C 0.89845 0.01537 0.71341 0.0
N149 N 0.80831 0.0606 0.6688 0.0
C150 C 0.90894 0.02788 0.67562 0.0
C151 C 0.84198 0.02595 0.72845 0.0
C152 C 0.86286 0.05077 0.65356 0.0
C153 C 0.79703 0.04873 0.70544 0.0
C154 C 0.11369 1.00771 0.70603 0.0
C155 C 0.0987 0.01547 0.66833 0.0
C156 C 0.16312 0.97284 0.7155 0.0
C157 C 0.1333 0.98809 0.64077 0.0
C158 C 0.19653 0.94611 0.68713 0.0
N159 N 0.18104 0.9542 0.65066 0.0
C160 C 0.02611 0.15572 0.69171 0.0
C161 C 0.92554 0.15961 0.71142 0.0
C162 C 0.01762 0.20537 0.66881 0.0
N163 N 0.98013 0.13301 0.71183 0.0
C164 C 0.91504 0.20955 0.68886 0.0
C165 C 0.96143 0.23233 0.667 0.0
H166 H 0.06965 0.13548 0.69358 0.0
H167 H 0.89008 0.14214 0.72855 0.0
C168 C 0.07316 0.8461 0.72269 0.0
N169 N 0.04163 0.8932 0.70895 0.0
C170 C 0.08297 0.79567 0.70052 0.0
C171 C 0.02853 0.84344 0.65035 0.0
C172 C 0.01954 0.89267 0.6735 0.0
C173 C 0.05997 0.79411 0.66406 0.0
H174 H 0.0898 0.84719 0.75102 0.0
H175 H 0.99447 0.93024 0.66322 0.0
O176 O 0.99579 0.07661 0.79714 0.0
O177 O 0.02764 0.94446 0.7945 0.0
O178 O 0.94291 0.99269 0.73555 0.0
O179 O 0.07923 0.03264 0.73352 0.0
H180 H 0.08004 0.15694 0.78672 0.0
H181 H 0.89372 0.13214 0.80964 0.0
H182 H 0.06368 0.26655 0.7871 0.0
H183 H 0.88072 0.24214 0.80989 0.0
H184 H 0.19271 0.8683 0.851 0.0
H185 H 0.98207 0.92812 0.86213 0.0
H186 H 0.1403 0.90874 0.79542 0.0
H187 H 0.03739 0.8877 0.9166 0.0
H188 H 0.83133 0.03451 0.90264 0.0
H189 H 0.77323 0.89128 0.83086 0.0
H190 H 0.27827 0.07512 0.81501 0.0
H191 H 0.16663 0.04488 0.91137 0.0
H192 H 0.95255 0.02169 0.66361 0.0
H193 H 0.83296 0.01731 0.75763 0.0
H194 H 0.87062 0.06117 0.6244 0.0
H195 H 0.75322 0.05722 0.71678 0.0
H196 H 0.06016 0.04147 0.66036 0.0
H197 H 0.17521 0.96581 0.74444 0.0
H198 H 0.12193 0.99344 0.61153 0.0
H199 H 0.23464 0.91872 0.69411 0.0
H200 H 0.05458 0.22284 0.65279 0.0
H201 H 0.87148 0.23027 0.68854 0.0
H202 H 0.10681 0.75775 0.71194 0.0
H203 H 1.00969 0.8431 0.62242 0.0
C204 C 0.37921 1.00417 0.12108 0.0
C205 C 0.38344 0.96294 0.09085 0.0
C206 C 0.29028 0.91629 0.1117 0.0
C207 C 0.28295 0.96183 0.13879 0.0
N208 N 0.31458 0.05622 0.16426 0.0
N209 N 0.33454 0.88853 0.05259 0.0
C210 C 0.32583 1.00771 0.14214 0.0
C211 C 0.33691 0.92097 0.08494 0.0
N212 N 0.42665 0.03903 0.13058 0.0
N213 N 0.25303 0.86823 0.11172 0.0
H214 H 0.36525 0.89296 0.03097 0.0
H215 H 0.29834 0.86198 0.04534 0.0
H216 H 0.21822 0.86357 0.13079 0.0
H217 H 0.26007 0.83067 0.09515 0.0
H218 H 0.42815 0.06442 0.15497 0.0
H219 H 0.46678 0.03856 0.1162 0.0
H220 H 0.34111 0.09426 0.16427 0.0
H221 H 0.27577 0.06111 0.17995 0.0
C222 C 0.98622 0.38714 0.62874 0.0
C223 C 0.95651 0.38432 0.59348 0.0
C224 C 0.92597 0.2813 0.60748 0.0
C225 C 0.95295 0.28606 0.64326 0.0
N226 N 0.99487 0.34752 0.69165 0.0
N227 N 0.89216 0.33061 0.55088 0.0
C228 C 0.97847 0.34041 0.65504 0.0
C229 C 0.92383 0.33226 0.58357 0.0
N230 N 0.02401 0.43304 0.6368 0.0
N231 N 0.90538 0.22719 0.59557 0.0
H232 H 0.89378 0.36403 0.53067 0.0
H233 H 0.86174 0.2972 0.54447 0.0
H234 H 0.90517 0.18932 0.61254 0.0
H235 H 0.8921 0.21858 0.56818 0.0
H236 H 0.05186 0.43338 0.66012 0.0
H237 H 0.0322 0.46829 0.61871 0.0
H238 H 1.00775 0.38832 0.70295 0.0
H239 H 0.98982 0.31401 0.71169 0.0
C240 C 0.64387 0.02478 0.12146 0.0
C241 C 0.64174 0.06233 0.08929 0.0
C242 C 0.7372 0.10658 0.10815 0.0
C243 C 0.74233 0.06393 0.13729 0.0
N244 N 0.70553 0.97513 0.16753 0.0
N245 N 0.69348 0.13048 0.04807 0.0
C246 C 0.69696 0.02111 0.14289 0.0
C247 C 0.69007 0.10144 0.08166 0.0
N248 N 0.59471 0.99351 0.1323 0.0
N249 N 0.77711 0.1523 0.10594 0.0
H250 H 0.66197 0.12584 0.02688 0.0
H251 H 0.73082 0.15437 0.03961 0.0
H252 H 0.81238 0.15706 0.12472 0.0
H253 H 0.77205 0.18824 0.0877 0.0
H254 H 0.59173 0.97122 0.15783 0.0
H255 H 0.5548 0.99424 0.11761 0.0
H256 H 0.67704 0.93868 0.1694 0.0
H257 H 0.74387 0.97033 0.18374 0.0
C258 C 0.02258 0.6412 0.62478 0.0
C259 C 0.06057 0.63903 0.59286 0.0
C260 C 0.1056 0.73404 0.61216 0.0
C261 C 0.06323 0.7389 0.6413 0.0
N262 N 0.9759 0.7017 0.6726 0.0
N263 N 0.12988 0.69022 0.55223 0.0
C264 C 0.02042 0.6936 0.64698 0.0
C265 C 0.10039 0.68699 0.58562 0.0
N266 N 0.98925 0.59276 0.63457 0.0
N267 N 0.15088 0.77445 0.60988 0.0
H268 H 0.12526 0.65875 0.53101 0.0
H269 H 0.1542 0.72738 0.54387 0.0
H270 H 0.15527 0.80998 0.62853 0.0
H271 H 0.18676 0.76973 0.59169 0.0
H272 H 0.96736 0.58892 0.66013 0.0
H273 H 0.98681 0.5542 0.61862 0.0
H274 H 0.93883 0.67409 0.67448 0.0
H275 H 0.97334 0.73869 0.6902 0.0
C276 C 0.33774 0.10102 0.94436 0.0
C277 C 0.38245 0.05651 0.93962 0.0
C278 C 0.32282 1.0117 0.88924 0.0
C279 C 0.28254 0.06026 0.89098 0.0
N280 N 0.25742 0.15706 0.91557 0.0
N281 N 0.42195 0.97593 0.9016 0.0
C282 C 0.29191 0.10688 0.91705 0.0
C283 C 0.37629 0.01373 0.91034 0.0
N284 N 0.33613 0.1349 0.97613 0.0
N285 N 0.30899 0.9622 0.86866 0.0
H286 H 0.46217 0.97495 0.91588 0.0
H287 H 0.42202 0.94924 0.87774 0.0
H288 H 0.26993 0.95826 0.85309 0.0
H289 H 0.33344 0.92272 0.86998 0.0
H290 H 0.30112 0.16371 0.98242 0.0
H291 H 0.36569 0.12939 0.99834 0.0
H292 H 0.26627 0.19503 0.93141 0.0
H293 H 0.22335 0.16274 0.89601 0.0
C294 C 0.09313 0.38203 0.41145 0.0
C295 C 0.06011 0.37857 0.44525 0.0
C296 C 0.02154 0.28096 0.42652 0.0
C297 C 0.05886 0.28156 0.39453 0.0
N298 N 0.1389 0.32777 0.36025 0.0
N299 N 1.0066 0.31721 0.4894 0.0
C300 C 0.09732 0.33071 0.38805 0.0
C301 C 0.02834 0.32578 0.45409 0.0
N302 N 0.11821 0.43481 0.40079 0.0
N303 N 0.97788 0.23896 0.42999 0.0
H304 H 0.0135 0.34751 0.51106 0.0
H305 H 0.98795 0.2771 0.49825 0.0
H306 H 0.96982 0.20636 0.40982 0.0
H307 H 0.94571 0.24039 0.45096 0.0
H308 H 0.13726 0.44152 0.37456 0.0
H309 H 0.11546 0.47351 0.41684 0.0
H310 H 0.17206 0.35964 0.35668 0.0
H311 H 0.14364 0.29075 0.34284 0.0
C312 C 0.63949 0.9892 0.90662 0.0
C313 C 0.64089 0.95626 0.94073 0.0
C314 C 0.74003 0.91773 0.92431 0.0
C315 C 0.74099 0.95587 0.89267 0.0
N316 N 0.69442 0.03164 0.8547 0.0
N317 N 0.69691 0.89679 0.985 0.0
C318 C 0.69132 0.99236 0.88398 0.0
C319 C 0.69204 0.92186 0.95021 0.0
N320 N 0.5881 0.01655 0.89536 0.0
N321 N 0.78513 0.87761 0.92961 0.0
H322 H 0.66409 0.90031 1.00543 0.0
H323 H 0.73581 0.87709 0.99498 0.0
H324 H 0.82166 0.87462 0.91171 0.0
H325 H 0.78395 0.8441 0.94979 0.0
H326 H 0.58183 0.03457 0.86877 0.0
H327 H 0.54975 0.01745 0.91153 0.0
H328 H 0.66324 0.06521 0.84996 0.0
H329 H 0.73034 0.03338 0.83627 0.0
C330 C 0.93017 0.63757 0.40927 0.0
C331 C 0.96138 0.64189 0.44376 0.0
C332 C 0.99871 0.74035 0.42561 0.0
C333 C 0.96317 0.73867 0.39279 0.0
N334 N 0.88663 0.69032 0.35654 0.0
N335 N 0.012 0.70418 0.48875 0.0
C336 C 0.92633 0.68858 0.38552 0.0
C337 C 0.99178 0.6953 0.45309 0.0
N338 N 0.90653 0.58425 0.39839 0.0
N339 N 0.04079 0.78374 0.43001 0.0
H340 H 1.00507 0.67362 0.51028 0.0
H341 H 0.02948 0.74461 0.49795 0.0
H342 H 0.04858 0.81687 0.4101 0.0
H343 H 0.07202 0.78326 0.45159 0.0
H344 H 0.88897 0.57685 0.3718 0.0
H345 H 0.90897 0.54582 0.41477 0.0
H346 H 0.85438 0.65775 0.35222 0.0
H347 H 0.88246 0.72695 0.3387 0.0
loop_
_geom_bond_atom_site_label_1
_geom_bond_atom_site_label_2
_geom_bond_distance
_geom_bond_site_symmetry_2
_ccdc_geom_bond_type
C0 O2 1.247 . S
C0 O4 1.258 1_565 S
C1 O8 1.251 . S
C1 O9 1.254 1_545 S
O2 C0 1.247 . S
O2 Zn3 2.028 1_556 S
Zn3 O2 2.028 1_554 S
Zn3 O7 2.035 1_554 S
Zn3 O9 2.035 . S
Zn3 O10 2.028 . S
O4 C0 1.258 1_545 S
O4 Zn5 2.035 1_556 S
Zn5 O4 2.035 1_554 S
Zn5 O6 2.028 1_554 S
Zn5 O8 2.028 . S
Zn5 O11 2.035 . S
O6 Zn5 2.028 1_556 S
O6 C12 1.251 . S
O7 Zn3 2.035 1_556 S
O7 C12 1.254 1_565 S
O8 C1 1.251 . S
O8 Zn5 2.028 . S
O9 C1 1.254 1_565 S
O9 Zn3 2.035 . S
O10 Zn3 2.028 . S
O10 C13 1.247 . S
O11 Zn5 2.035 . S
O11 C13 1.258 1_545 S
C12 O6 1.251 . S
C12 O7 1.254 1_545 S
C13 O10 1.247 . S
C13 O11 1.258 1_565 S
C14 O16 1.247 . S
C14 O18 1.258 1_655 S
C15 O22 1.251 . S
C15 O23 1.254 1_455 S
O16 C14 1.247 . S
O16 Zn17 2.028 . S
Zn17 O16 2.028 . S
Zn17 O21 2.035 . S
Zn17 O23 2.035 . S
Zn17 O24 2.028 . S
O18 C14 1.258 1_455 S
O18 Zn19 2.035 . S
Zn19 O18 2.035 . S
Zn19 O20 2.028 . S
Zn19 O22 2.028 . S
Zn19 O25 2.035 . S
O20 Zn19 2.028 . S
O20 C26 1.251 . S
O21 Zn17 2.035 . S
O21 C26 1.254 1_655 S
O22 C15 1.251 . S
O22 Zn19 2.028 . S
O23 C15 1.254 1_655 S
O23 Zn17 2.035 . S
O24 Zn17 2.028 . S
O24 C27 1.247 . S
O25 Zn19 2.035 . S
O25 C27 1.258 1_455 S
C26 O20 1.251 . S
C26 O21 1.254 1_455 S
C27 O24 1.247 . S
C27 O25 1.258 1_655 S
Li28 N45 1.990 . S
Li28 O88 1.956 1_545 S
Li28 O89 1.970 1_455 S
Li28 O90 1.961 1_455 S
Li29 N53 1.990 . S
Li29 O88 1.970 1_655 S
Li29 O89 1.956 1_565 S
Li29 O91 1.961 1_655 S
Li30 N75 1.990 . S
Li30 O88 1.961 1_545 S
Li30 O90 1.956 1_455 S
Li30 O91 1.970 1_545 S
Li31 N81 1.990 . S
Li31 O89 1.961 1_565 S
Li31 O90 1.970 1_565 S
Li31 O91 1.956 1_655 S
C32 C34 1.348 1_545 S
C32 C35 1.356 . S
C32 O88 1.325 1_545 S
N33 C36 1.314 1_545 S
N33 C37 1.279 . S
C34 C32 1.348 1_565 S
C34 C36 1.353 . S
C34 H92 0.929 . S
C35 C32 1.356 . S
C35 C37 1.358 . S
C35 H93 0.930 . S
C36 N33 1.314 1_565 S
C36 C34 1.353 . S
C36 H94 0.930 . S
C37 N33 1.279 . S
C37 C35 1.358 . S
C37 H95 0.930 . S
C38 C41 1.348 . S
C38 C42 1.356 1_545 S
C38 O89 1.325 . S
C39 N40 1.279 . S
C39 C42 1.358 . S
C39 H96 0.930 . S
N40 C39 1.279 . S
N40 C43 1.314 1_565 S
C41 C38 1.348 . S
C41 C43 1.353 . S
C41 H97 0.929 . S
C42 C38 1.356 1_565 S
C42 C39 1.358 . S
C42 H98 0.930 . S
C43 N40 1.314 1_545 S
C43 C41 1.353 . S
C43 H99 0.930 . S
C44 N45 1.314 1_655 S
C44 C49 1.353 . S
C44 H50 0.930 . S
N45 Li28 1.990 . S
N45 C44 1.314 1_455 S
N45 C47 1.279 . S
C46 C47 1.358 . S
C46 C48 1.356 . S
C46 H100 0.930 . S
C47 N45 1.279 . S
C47 C46 1.358 . S
C47 H51 0.930 . S
C48 C46 1.356 . S
C48 C49 1.348 1_455 S
C49 C44 1.353 . S
C49 C48 1.348 1_655 S
C49 H101 0.929 . S
H50 C44 0.930 . S
H51 C47 0.930 . S
C52 N53 1.314 1_455 S
C52 C54 1.353 . S
C52 H58 0.930 . S
N53 Li29 1.990 . S
N53 C52 1.314 1_655 S
N53 C56 1.279 . S
C54 C52 1.353 . S
C54 C57 1.348 . S
C54 H102 0.929 . S
C55 C56 1.358 . S
C55 C57 1.356 1_655 S
C55 H103 0.930 . S
C56 N53 1.279 . S
C56 C55 1.358 . S
C56 H59 0.930 . S
C57 C54 1.348 . S
C57 C55 1.356 1_455 S
H58 C52 0.930 . S
H59 C56 0.930 . S
C60 C62 1.348 1_455 S
C60 C63 1.356 . S
C60 O90 1.325 1_455 S
N61 C64 1.314 1_455 S
N61 C65 1.279 . S
C62 C60 1.348 1_655 S
C62 C64 1.353 . S
C62 H104 0.929 . S
C63 C60 1.356 . S
C63 C65 1.358 . S
C63 H105 0.930 . S
C64 N61 1.314 1_655 S
C64 C62 1.353 . S
C64 H106 0.930 . S
C65 N61 1.279 . S
C65 C63 1.358 . S
C65 H107 0.930 . S
C66 C67 1.348 . S
C66 C68 1.356 1_455 S
C66 O91 1.325 . S
C67 C66 1.348 . S
C67 C69 1.353 . S
C67 H108 0.929 . S
C68 C66 1.356 1_655 S
C68 C70 1.358 . S
C68 H109 0.930 . S
C69 C67 1.353 . S
C69 N71 1.314 1_455 S
C69 H110 0.930 . S
C70 C68 1.358 . S
C70 N71 1.279 . S
C70 H111 0.930 . S
N71 C69 1.314 1_655 S
N71 C70 1.279 . S
C72 C74 1.353 . S
C72 N75 1.314 1_565 S
C72 H78 0.930 . S
C73 N75 1.279 . S
C73 C76 1.358 . S
C73 H79 0.930 . S
C74 C72 1.353 . S
C74 C77 1.348 1_565 S
C74 H112 0.929 . S
N75 Li30 1.990 . S
N75 C72 1.314 1_545 S
N75 C73 1.279 . S
C76 C73 1.358 . S
C76 C77 1.356 . S
C76 H113 0.930 . S
C77 C74 1.348 1_545 S
C77 C76 1.356 . S
H78 C72 0.930 . S
H79 C73 0.930 . S
C80 N81 1.314 1_545 S
C80 C82 1.353 . S
C80 H86 0.930 . S
N81 Li31 1.990 . S
N81 C80 1.314 1_565 S
N81 C84 1.279 . S
C82 C80 1.353 . S
C82 C85 1.348 . S
C82 H114 0.929 . S
C83 C84 1.358 . S
C83 C85 1.356 1_565 S
C83 H115 0.930 . S
C84 N81 1.279 . S
C84 C83 1.358 . S
C84 H87 0.930 . S
C85 C82 1.348 . S
C85 C83 1.356 1_545 S
H86 C80 0.930 . S
H87 C84 0.930 . S
O88 Li28 1.956 1_565 S
O88 Li29 1.970 1_455 S
O88 Li30 1.961 1_565 S
O88 C32 1.325 1_565 S
O89 Li28 1.970 1_655 S
O89 Li29 1.956 1_545 S
O89 Li31 1.961 1_545 S
O89 C38 1.325 . S
O90 Li28 1.961 1_655 S
O90 Li30 1.956 1_655 S
O90 Li31 1.970 1_545 S
O90 C60 1.325 1_655 S
O91 Li29 1.961 1_455 S
O91 Li30 1.970 1_565 S
O91 Li31 1.956 1_455 S
O91 C66 1.325 . S
H92 C34 0.929 . S
H93 C35 0.930 . S
H94 C36 0.930 . S
H95 C37 0.930 . S
H96 C39 0.930 . S
H97 C41 0.929 . S
H98 C42 0.930 . S
H99 C43 0.930 . S
H100 C46 0.930 . S
H101 C49 0.929 . S
H102 C54 0.929 . S
H103 C55 0.930 . S
H104 C62 0.929 . S
H105 C63 0.930 . S
H106 C64 0.930 . S
H107 C65 0.930 . S
H108 C67 0.929 . S
H109 C68 0.930 . S
H110 C69 0.930 . S
H111 C70 0.930 . S
H112 C74 0.929 . S
H113 C76 0.930 . S
H114 C82 0.929 . S
H115 C83 0.930 . S
Li116 N133 1.990 . S
Li116 O176 1.956 1_655 S
Li116 O177 1.970 1_545 S
Li116 O178 1.961 1_545 S
Li117 N141 1.990 . S
Li117 O176 1.970 1_565 S
Li117 O177 1.956 1_455 S
Li117 O179 1.961 1_565 S
Li118 N163 1.990 . S
Li118 O176 1.961 1_655 S
Li118 O178 1.956 1_545 S
Li118 O179 1.970 1_655 S
Li119 N169 1.990 . S
Li119 O177 1.961 1_455 S
Li119 O178 1.970 1_455 S
Li119 O179 1.956 1_565 S
C120 C122 1.348 . S
C120 C123 1.356 1_455 S
C120 O176 1.325 . S
N121 C124 1.314 1_655 S
N121 C125 1.279 . S
C122 C120 1.348 . S
C122 C124 1.353 . S
C122 H180 0.929 . S
C123 C120 1.356 1_655 S
C123 C125 1.358 . S
C123 H181 0.930 . S
C124 N121 1.314 1_455 S
C124 C122 1.353 . S
C124 H182 0.930 . S
C125 N121 1.279 . S
C125 C123 1.358 . S
C125 H183 0.930 . S
C126 C129 1.348 1_455 S
C126 C130 1.356 . S
C126 O177 1.325 1_455 S
C127 N128 1.279 . S
C127 C130 1.358 . S
C127 H184 0.930 . S
N128 C127 1.279 . S
N128 C131 1.314 1_455 S
C129 C126 1.348 1_655 S
C129 C131 1.353 . S
C129 H185 0.929 . S
C130 C126 1.356 . S
C130 C127 1.358 . S
C130 H186 0.930 . S
C131 N128 1.314 1_655 S
C131 C129 1.353 . S
C131 H187 0.930 . S
C132 N133 1.314 1_565 S
C132 C137 1.353 . S
C132 H138 0.930 . S
N133 Li116 1.990 . S
N133 C132 1.314 1_545 S
N133 C135 1.279 . S
C134 C135 1.358 . S
C134 C136 1.356 . S
C134 H188 0.930 . S
C135 N133 1.279 . S
C135 C134 1.358 . S
C135 H139 0.930 . S
C136 C134 1.356 . S
C136 C137 1.348 1_545 S
C137 C132 1.353 . S
C137 C136 1.348 1_565 S
C137 H189 0.929 . S
H138 C132 0.930 . S
H139 C135 0.930 . S
C140 N141 1.314 1_545 S
C140 C142 1.353 . S
C140 H146 0.930 . S
N141 Li117 1.990 . S
N141 C140 1.314 1_565 S
N141 C144 1.279 . S
C142 C140 1.353 . S
C142 C145 1.348 . S
C142 H190 0.929 . S
C143 C144 1.358 . S
C143 C145 1.356 1_565 S
C143 H191 0.930 . S
C144 N141 1.279 . S
C144 C143 1.358 . S
C144 H147 0.930 . S
C145 C142 1.348 . S
C145 C143 1.356 1_545 S
H146 C140 0.930 . S
H147 C144 0.930 . S
C148 C150 1.348 1_545 S
C148 C151 1.356 . S
C148 O178 1.325 1_545 S
N149 C152 1.314 1_545 S
N149 C153 1.279 . S
C150 C148 1.348 1_565 S
C150 C152 1.353 . S
C150 H192 0.929 . S
C151 C148 1.356 . S
C151 C153 1.358 . S
C151 H193 0.930 . S
C152 N149 1.314 1_565 S
C152 C150 1.353 . S
C152 H194 0.930 . S
C153 N149 1.279 . S
C153 C151 1.358 . S
C153 H195 0.930 . S
C154 C155 1.348 . S
C154 C156 1.356 1_545 S
C154 O179 1.325 . S
C155 C154 1.348 . S
C155 C157 1.353 . S
C155 H196 0.929 . S
C156 C154 1.356 1_565 S
C156 C158 1.358 . S
C156 H197 0.930 . S
C157 C155 1.353 . S
C157 N159 1.314 1_545 S
C157 H198 0.930 . S
C158 C156 1.358 . S
C158 N159 1.279 . S
C158 H199 0.930 . S
N159 C157 1.314 1_565 S
N159 C158 1.279 . S
C160 C162 1.353 . S
C160 N163 1.314 1_455 S
C160 H166 0.930 . S
C161 N163 1.279 . S
C161 C164 1.358 . S
C161 H167 0.930 . S
C162 C160 1.353 . S
C162 C165 1.348 . S
C162 H200 0.929 . S
N163 Li118 1.990 . S
N163 C160 1.314 1_655 S
N163 C161 1.279 . S
C164 C161 1.358 . S
C164 C165 1.356 1_655 S
C164 H201 0.930 . S
C165 C162 1.348 . S
C165 C164 1.356 1_455 S
H166 C160 0.930 . S
H167 C161 0.930 . S
C168 N169 1.314 1_655 S
C168 C170 1.353 . S
C168 H174 0.930 . S
N169 Li119 1.990 . S
N169 C168 1.314 1_455 S
N169 C172 1.279 . S
C170 C168 1.353 . S
C170 C173 1.348 1_655 S
C170 H202 0.929 . S
C171 C172 1.358 . S
C171 C173 1.356 . S
C171 H203 0.930 . S
C172 N169 1.279 . S
C172 C171 1.358 . S
C172 H175 0.930 . S
C173 C170 1.348 1_455 S
C173 C171 1.356 . S
H174 C168 0.930 . S
H175 C172 0.930 . S
O176 Li116 1.956 1_455 S
O176 Li117 1.970 1_545 S
O176 Li118 1.961 1_455 S
O176 C120 1.325 . S
O177 Li116 1.970 1_565 S
O177 Li117 1.956 1_655 S
O177 Li119 1.961 1_655 S
O177 C126 1.325 1_655 S
O178 Li116 1.961 1_565 S
O178 Li118 1.956 1_565 S
O178 Li119 1.970 1_655 S
O178 C148 1.325 1_565 S
O179 Li117 1.961 1_545 S
O179 Li118 1.970 1_455 S
O179 Li119 1.956 1_545 S
O179 C154 1.325 . S
H180 C122 0.929 . S
H181 C123 0.930 . S
H182 C124 0.930 . S
H183 C125 0.930 . S
H184 C127 0.930 . S
H185 C129 0.929 . S
H186 C130 0.930 . S
H187 C131 0.930 . S
H188 C134 0.930 . S
H189 C137 0.929 . S
H190 C142 0.929 . S
H191 C143 0.930 . S
H192 C150 0.929 . S
H193 C151 0.930 . S
H194 C152 0.930 . S
H195 C153 0.930 . S
H196 C155 0.929 . S
H197 C156 0.930 . S
H198 C157 0.930 . S
H199 C158 0.930 . S
H200 C162 0.929 . S
H201 C164 0.930 . S
H202 C170 0.929 . S
H203 C171 0.930 . S
C204 C205 1.363 1_545 S
C204 C210 1.379 . S
C204 N212 1.356 . S
C205 C204 1.363 1_565 S
C205 C211 1.363 . S
C206 C207 1.363 . S
C206 C211 1.379 . S
C206 N213 1.356 . S
C207 C206 1.363 . S
C207 C210 1.363 1_565 S
N208 C210 1.356 . S
N208 H220 0.984 . S
N208 H221 0.985 . S
N209 C211 1.356 . S
N209 H214 0.984 . S
N209 H215 0.985 . S
C210 C204 1.379 . S
C210 C207 1.363 1_545 S
C210 N208 1.356 . S
C211 C205 1.363 . S
C211 C206 1.379 . S
C211 N209 1.356 . S
N212 C204 1.356 . S
N212 H218 0.984 . S
N212 H219 0.984 . S
N213 C206 1.356 . S
N213 H216 0.984 . S
N213 H217 0.985 . S
H214 N209 0.984 . S
H215 N209 0.985 . S
H216 N213 0.984 . S
H217 N213 0.985 . S
H218 N212 0.984 . S
H219 N212 0.984 . S
H220 N208 0.984 . S
H221 N208 0.985 . S
C222 C223 1.366 . S
C222 C228 1.379 . S
C222 N230 1.356 . S
C223 C222 1.366 . S
C223 C229 1.360 1_455 S
C224 C225 1.363 1_655 S
C224 C229 1.379 . S
C224 N231 1.356 . S
C225 C224 1.363 1_455 S
C225 C228 1.363 . S
N226 C228 1.356 . S
N226 H238 0.984 . S
N226 H239 0.985 . S
N227 C229 1.356 . S
N227 H232 0.984 . S
N227 H233 0.985 . S
C228 C222 1.379 . S
C228 C225 1.363 . S
C228 N226 1.356 . S
C229 C223 1.360 1_655 S
C229 C224 1.379 . S
C229 N227 1.356 . S
N230 C222 1.356 . S
N230 H236 0.984 . S
N230 H237 0.984 . S
N231 C224 1.356 . S
N231 H234 0.984 . S
N231 H235 0.985 . S
H232 N227 0.984 . S
H233 N227 0.985 . S
H234 N231 0.984 . S
H235 N231 0.985 . S
H236 N230 0.984 . S
H237 N230 0.984 . S
H238 N226 0.984 . S
H239 N226 0.985 . S
C240 C241 1.359 1_565 S
C240 C246 1.379 . S
C240 N248 1.356 . S
C241 C240 1.359 1_545 S
C241 C247 1.367 . S
C242 C243 1.363 . S
C242 C247 1.379 . S
C242 N249 1.356 . S
C243 C242 1.363 . S
C243 C246 1.363 1_545 S
N244 C246 1.356 . S
N244 H256 0.984 . S
N244 H257 0.985 . S
N245 C247 1.356 . S
N245 H250 0.984 . S
N245 H251 0.985 . S
C246 C240 1.379 . S
C246 C243 1.363 1_565 S
C246 N244 1.356 . S
C247 C241 1.367 . S
C247 C242 1.379 . S
C247 N245 1.356 . S
N248 C240 1.356 . S
N248 H254 0.984 . S
N248 H255 0.984 . S
N249 C242 1.356 . S
N249 H252 0.984 . S
N249 H253 0.985 . S
H250 N245 0.984 . S
H251 N245 0.985 . S
H252 N249 0.984 . S
H253 N249 0.985 . S
H254 N248 0.984 . S
H255 N248 0.984 . S
H256 N244 0.984 . S
H257 N244 0.985 . S
C258 C259 1.363 . S
C258 C264 1.379 . S
C258 N266 1.356 . S
C259 C258 1.363 . S
C259 C265 1.363 1_655 S
C260 C261 1.363 1_455 S
C260 C265 1.379 . S
C260 N267 1.356 . S
C261 C260 1.363 1_655 S
C261 C264 1.363 . S
N262 C264 1.356 . S
N262 H274 0.984 . S
N262 H275 0.985 . S
N263 C265 1.356 . S
N263 H268 0.984 . S
N263 H269 0.985 . S
C264 C258 1.379 . S
C264 C261 1.363 . S
C264 N262 1.356 . S
C265 C259 1.363 1_455 S
C265 C260 1.379 . S
C265 N263 1.356 . S
N266 C258 1.356 . S
N266 H272 0.984 . S
N266 H273 0.984 . S
N267 C260 1.356 . S
N267 H270 0.984 . S
N267 H271 0.985 . S
H268 N263 0.984 . S
H269 N263 0.985 . S
H270 N267 0.984 . S
H271 N267 0.985 . S
H272 N266 0.984 . S
H273 N266 0.984 . S
H274 N262 0.984 . S
H275 N262 0.985 . S
C276 C277 1.367 . S
C276 C282 1.379 . S
C276 N284 1.356 . S
C277 C276 1.367 . S
C277 C283 1.359 1_545 S
C278 C279 1.363 1_565 S
C278 C283 1.379 . S
C278 N285 1.356 . S
C279 C278 1.363 1_545 S
C279 C282 1.363 . S
N280 C282 1.356 . S
N280 H292 0.984 . S
N280 H293 0.985 . S
N281 C283 1.356 . S
N281 H286 0.984 . S
N281 H287 0.985 . S
C282 C276 1.379 . S
C282 C279 1.363 . S
C282 N280 1.356 . S
C283 C277 1.359 1_565 S
C283 C278 1.379 . S
C283 N281 1.356 . S
N284 C276 1.356 . S
N284 H290 0.984 . S
N284 H291 0.984 . S
N285 C278 1.356 . S
N285 H288 0.984 . S
N285 H289 0.985 . S
H286 N281 0.984 . S
H287 N281 0.985 . S
H288 N285 0.984 . S
H289 N285 0.985 . S
H290 N284 0.984 . S
H291 N284 0.984 . S
H292 N280 0.984 . S
H293 N280 0.985 . S
C294 C295 1.363 1_455 S
C294 C300 1.379 . S
C294 N302 1.356 . S
C295 C294 1.363 1_655 S
C295 C301 1.363 . S
C296 C297 1.363 . S
C296 C301 1.379 . S
C296 N303 1.356 . S
C297 C296 1.363 . S
C297 C300 1.363 1_655 S
N298 C300 1.356 . S
N298 H310 0.984 . S
N298 H311 0.985 . S
N299 C301 1.356 . S
N299 H304 0.984 . S
N299 H305 0.985 . S
C300 C294 1.379 . S
C300 C297 1.363 1_455 S
C300 N298 1.356 . S
C301 C295 1.363 . S
C301 C296 1.379 . S
C301 N299 1.356 . S
N302 C294 1.356 . S
N302 H308 0.984 . S
N302 H309 0.984 . S
N303 C296 1.356 . S
N303 H306 0.984 . S
N303 H307 0.985 . S
H304 N299 0.984 . S
H305 N299 0.985 . S
H306 N303 0.984 . S
H307 N303 0.985 . S
H308 N302 0.984 . S
H309 N302 0.984 . S
H310 N298 0.984 . S
H311 N298 0.985 . S
C312 C313 1.363 1_545 S
C312 C318 1.379 . S
C312 N320 1.356 . S
C313 C312 1.363 1_565 S
C313 C319 1.363 . S
C314 C315 1.363 . S
C314 C319 1.379 . S
C314 N321 1.356 . S
C315 C314 1.363 . S
C315 C318 1.363 1_565 S
N316 C318 1.356 . S
N316 H328 0.984 . S
N316 H329 0.985 . S
N317 C319 1.356 . S
N317 H322 0.984 . S
N317 H323 0.985 . S
C318 C312 1.379 . S
C318 C315 1.363 1_545 S
C318 N316 1.356 . S
C319 C313 1.363 . S
C319 C314 1.379 . S
C319 N317 1.356 . S
N320 C312 1.356 . S
N320 H326 0.984 . S
N320 H327 0.984 . S
N321 C314 1.356 . S
N321 H324 0.984 . S
N321 H325 0.985 . S
H322 N317 0.984 . S
H323 N317 0.985 . S
H324 N321 0.984 . S
H325 N321 0.985 . S
H326 N320 0.984 . S
H327 N320 0.984 . S
H328 N316 0.984 . S
H329 N316 0.985 . S
C330 C331 1.363 1_655 S
C330 C336 1.379 . S
C330 N338 1.356 . S
C331 C330 1.363 1_455 S
C331 C337 1.363 . S
C332 C333 1.363 . S
C332 C337 1.379 . S
C332 N339 1.356 . S
C333 C332 1.363 . S
C333 C336 1.363 1_455 S
N334 C336 1.356 . S
N334 H346 0.984 . S
N334 H347 0.985 . S
N335 C337 1.356 . S
N335 H340 0.984 . S
N335 H341 0.985 . S
C336 C330 1.379 . S
C336 C333 1.363 1_655 S
C336 N334 1.356 . S
C337 C331 1.363 . S
C337 C332 1.379 . S
C337 N335 1.356 . S
N338 C330 1.356 . S
N338 H344 0.984 . S
N338 H345 0.984 . S
N339 C332 1.356 . S
N339 H342 0.984 . S
N339 H343 0.985 . S
H340 N335 0.984 . S
H341 N335 0.985 . S
H342 N339 0.984 . S
H343 N339 0.985 . S
H344 N338 0.984 . S
H345 N338 0.984 . S
H346 N334 0.984 . S
H347 N334 0.985 . S
C207 C77 1.471 1_565 S
C205 C13 1.468 . S
C225 C165 1.471 . S
C223 C15 1.471 . S
C243 C85 1.471 . S
C241 C1 1.470 . S
C261 C173 1.471 1_655 S
C259 C27 1.471 . S
C279 C145 1.471 . S
C277 C0 1.472 1_545 S
C297 C48 1.471 1_655 S
C295 C26 1.471 1_655 S
C315 C136 1.471 1_565 S
C313 C12 1.475 1_565 S
C331 C14 1.471 1_455 S
C333 C57 1.471 . S
