# Generated by pormake.
# Topology bcu-b, (8,8)-cn, num edge types: 1
# Building blocks:
#     Node 0, Type 0, BuildingBlock: TAGTUT_clean_sbu_3, # of connection points: 8
#     Node 1, Type 1, BuildingBlock: GIZVER_clean_sbu_0, # of connection points: 8
#     Edge 2, Type (0, 1), BuildingBlock: ZUJKAS_clean_linker_0, # of connection points: 2
#     Edge 3, Type (0, 1), BuildingBlock: ZUJKAS_clean_linker_0, # of connection points: 2
#     Edge 4, Type (0, 1), BuildingBlock: ZUJKAS_clean_linker_0, # of connection points: 2
#     Edge 5, Type (0, 1), BuildingBlock: ZUJKAS_clean_linker_0, # of connection points: 2
#     Edge 6, Type (0, 1), BuildingBlock: ZUJKAS_clean_linker_0, # of connection points: 2
#     Edge 7, Type (0, 1), BuildingBlock: ZUJKAS_clean_linker_0, # of connection points: 2
#     Edge 8, Type (0, 1), BuildingBlock: ZUJKAS_clean_linker_0, # of connection points: 2
#     Edge 9, Type (0, 1), BuildingBlock: ZUJKAS_clean_linker_0, # of connection points: 2
# Relax obj value: 0.094
# Max RMSD: 0.159
# Mean RMSD: 0.159
data_MOF--net-bcu-b--node1-TAGTUT_clean_sbu_3--node2-GIZVER_clean_sbu_0--edge1-ZUJKAS_clean_linker_0
_symmetry_space_group_name_H-M    P1
_symmetry_Int_Tables_number       1
_symmetry_cell_setting            triclinic
loop_
_symmetry_equiv_pos_as_xyz
'x, y, z'
_cell_length_a     25.654783
_cell_length_b     28.408108
_cell_length_c     21.983292
_cell_angle_alpha  89.083094
_cell_angle_beta   90.340641
_cell_angle_gamma 105.33153
loop_
_atom_site_label
_atom_site_type_symbol
_atom_site_fract_x
_atom_site_fract_y
_atom_site_fract_z
_atom_type_partial_charge
C0 C 0.10202 0.08519 0.07883 0.0
C1 C 0.15833 0.91892 0.0888 0.0
C2 C 0.09697 0.90156 0.90565 0.0
Mg3 Mg 1.00439 0.11345 -0.00121 0.0
Mg4 Mg 0.89321 0.02678 0.97888 0.0
O5 O 0.9679 0.04793 0.9647 0.0
Mg6 Mg 0.01384 0.00723 -0.00069 0.0
O7 O 0.06406 0.97039 0.03403 0.0
Mg8 Mg 0.13359 0.00393 0.99183 0.0
Mg9 Mg 0.04454 0.90238 0.02912 0.0
C10 C 0.91705 0.92971 0.92807 0.0
O11 O 0.94904 0.96591 0.06823 0.0
O12 O 0.94852 0.1434 0.93126 0.0
O13 O 0.96537 0.89133 0.06943 0.0
O14 O 0.94207 0.11017 0.07431 0.0
O15 O 0.87524 0.07992 0.91837 0.0
O16 O 0.87149 0.04528 0.06913 0.0
O17 O 0.08172 0.04274 0.93233 0.0
O18 O 0.06759 0.1169 0.92545 0.0
C19 C 0.09376 0.08632 0.91041 0.0
C20 C 0.90223 0.1239 0.90648 0.0
O21 O 0.96854 0.9456 0.93591 0.0
O22 O 0.17539 0.95969 0.05934 0.0
O23 O 0.88327 0.95265 0.94692 0.0
O24 O 0.12687 0.94347 0.92036 0.0
O25 O 0.10982 0.89215 0.08366 0.0
O26 O 0.05679 0.87954 0.93847 0.0
O27 O 0.05278 0.07157 0.06066 0.0
O28 O 0.1372 0.06356 0.06134 0.0
C29 C 0.89727 0.0843 0.09549 0.0
C30 C 0.93688 0.92043 0.0841 0.0
Co31 Co 0.56401 0.41744 0.44385 0.0
Co32 Co 0.59232 0.45974 0.54695 0.0
Co33 Co 0.50978 0.50884 0.49339 0.0
O34 O 0.57199 0.48225 0.4741 0.0
H35 H 0.60192 0.50632 0.45593 0.0
O36 O 0.44747 0.53573 0.5115 0.0
Co37 Co 0.45451 0.59954 0.54379 0.0
Co38 Co 0.42682 0.55982 0.43816 0.0
H39 H 0.41736 0.51138 0.5289 0.0
O40 O 0.66049 0.45512 0.557 0.0
O41 O 0.58742 0.39625 0.52521 0.0
O42 O 0.54745 0.45585 0.61784 0.0
O43 O 0.47868 0.4575 0.55761 0.0
O44 O 0.55502 0.55105 0.55512 0.0
O45 O 0.45281 0.65641 0.5759 0.0
O46 O 0.38385 0.58939 0.56282 0.0
O47 O 0.53116 0.61858 0.53111 0.0
O48 O 0.54042 0.56052 0.42973 0.0
O49 O 0.47188 0.56019 0.36808 0.0
O50 O 0.44179 0.6246 0.46155 0.0
O51 O 0.36288 0.57802 0.42595 0.0
C52 C 0.61289 0.38072 0.40172 0.0
C53 C 0.45513 0.41935 0.43697 0.0
C54 C 0.49711 0.44522 0.60776 0.0
C55 C 0.63734 0.40959 0.54547 0.0
C56 C 0.40169 0.63414 0.58174 0.0
C57 C 0.56439 0.59731 0.55509 0.0
C58 C 0.52216 0.57187 0.37897 0.0
C59 C 0.39405 0.62078 0.43852 0.0
O60 O 0.56246 0.35964 0.41352 0.0
O61 O 0.63305 0.42632 0.41679 0.0
O62 O 0.465 0.46566 0.43248 0.0
O63 O 0.48833 0.39927 0.46387 0.0
H64 H 0.18067 0.09089 0.16225 0.0
H65 H 0.21495 0.15462 0.23558 0.0
H66 H 0.09742 0.2294 0.17543 0.0
H67 H 0.0617 0.1643 0.10121 0.0
H68 H 0.21375 0.28495 0.17539 0.0
H69 H 0.14909 0.19166 0.39562 0.0
H70 H 0.17383 0.15448 0.34366 0.0
H71 H 0.11361 0.17283 0.32505 0.0
C72 C 0.16156 0.12057 0.16477 0.0
C73 C 0.11883 0.12292 0.12557 0.0
C74 C 0.18089 0.15671 0.20724 0.0
C75 C 0.15826 0.19627 0.21144 0.0
C76 C 0.11489 0.19868 0.1732 0.0
H77 H 0.36826 0.44976 0.39651 0.0
H78 H 0.28615 0.40078 0.34821 0.0
C79 C 0.09468 0.1617 0.13094 0.0
C80 C 0.18503 0.23682 0.2515 0.0
H81 H 0.23276 0.2561 0.39663 0.0
C82 C 0.21673 0.27967 0.22414 0.0
C83 C 0.18889 0.22939 0.31488 0.0
C84 C 0.15411 0.18475 0.34668 0.0
C85 C 0.25603 0.3132 0.2576 0.0
C86 C 0.2627 0.30388 0.32028 0.0
C87 C 0.22789 0.26295 0.34852 0.0
C88 C 0.30926 0.33299 0.35537 0.0
C89 C 0.29291 0.35614 0.22456 0.0
C90 C 0.34841 0.31069 0.37773 0.0
C91 C 0.39521 0.33843 0.4059 0.0
C92 C 0.4037 0.38904 0.41202 0.0
C93 C 0.36332 0.41093 0.39175 0.0
C94 C 0.31639 0.38307 0.36399 0.0
H95 H 0.28853 0.35312 0.17436 0.0
H96 H 0.28303 0.3902 0.2382 0.0
H97 H 0.3358 0.35944 0.23667 0.0
H98 H 0.34356 0.27199 0.37162 0.0
H99 H 0.42539 0.32046 0.42117 0.0
H100 H 0.94581 0.15868 0.17074 0.0
H101 H 0.90165 0.2061 0.23452 0.0
H102 H 0.74664 0.10738 0.19475 0.0
H103 H 0.7906 0.05937 0.13079 0.0
H104 H 0.82755 0.25244 0.18617 0.0
H105 H 0.73678 0.12943 0.37801 0.0
H106 H 0.78993 0.11864 0.33111 0.0
H107 H 0.7213 0.10305 0.30418 0.0
C108 C 0.90242 0.14617 0.1767 0.0
C109 C 0.87174 0.10525 0.14522 0.0
C110 C 0.87723 0.17351 0.21314 0.0
C111 C 0.82084 0.16043 0.21947 0.0
C112 C 0.7903 0.11786 0.19127 0.0
H113 H 0.57806 0.29103 0.35119 0.0
H114 H 0.63186 0.24031 0.30954 0.0
C115 C 0.81553 0.09035 0.15469 0.0
C116 C 0.79393 0.19414 0.24992 0.0
H117 H 0.70725 0.20169 0.36448 0.0
C118 C 0.80167 0.24154 0.22558 0.0
C119 C 0.76006 0.17986 0.30115 0.0
C120 C 0.75177 0.13013 0.33061 0.0
C121 C 0.77513 0.27446 0.24974 0.0
C122 C 0.7407 0.26002 0.30058 0.0
C123 C 0.7337 0.21286 0.32559 0.0
C124 C 0.70895 0.29204 0.32619 0.0
C125 C 0.78253 0.32368 0.21903 0.0
C126 C 0.73428 0.3383 0.34968 0.0
C127 C 0.70338 0.36786 0.37328 0.0
C128 C 0.64664 0.35143 0.37432 0.0
C129 C 0.62165 0.30501 0.35108 0.0
C130 C 0.65239 0.27576 0.32735 0.0
H131 H 0.79961 0.32459 0.17256 0.0
H132 H 0.74352 0.33358 0.21573 0.0
H133 H 0.8109 0.35186 0.24626 0.0
H134 H 0.77793 0.35131 0.35043 0.0
H135 H 0.7239 0.40309 0.39161 0.0
H136 H 0.9246 0.85158 0.17243 0.0
H137 H 0.84047 0.80498 0.21929 0.0
H138 H 0.75277 0.8921 0.1207 0.0
H139 H 0.83782 0.9397 0.07357 0.0
H140 H 0.75263 0.84131 0.28596 0.0
H141 H 0.69314 0.7397 0.07034 0.0
H142 H 0.76303 0.77026 0.08562 0.0
H143 H 0.71598 0.80548 0.06927 0.0
C144 C 0.88758 0.86149 0.16159 0.0
C145 C 0.8875 0.89905 0.11935 0.0
C146 C 0.83965 0.83491 0.18841 0.0
C147 C 0.79065 0.84497 0.17298 0.0
C148 C 0.79043 0.88393 0.13293 0.0
H149 H 0.49466 0.62344 0.28286 0.0
H150 H 0.55359 0.69373 0.2296 0.0
C151 C 0.83886 0.91117 0.10647 0.0
C152 C 0.74024 0.81154 0.19602 0.0
H153 H 0.64788 0.7052 0.15967 0.0
C154 C 0.72875 0.81218 0.25817 0.0
C155 C 0.70935 0.77375 0.15943 0.0
C156 C 0.72065 0.7718 0.09238 0.0
C157 C 0.68889 0.77441 0.28548 0.0
C158 C 0.66101 0.73451 0.24985 0.0
C159 C 0.66985 0.7356 0.18688 0.0
C160 C 0.6259 0.68981 0.27817 0.0
C161 C 0.67811 0.77685 0.35261 0.0
C162 C 0.64766 0.6631 0.32097 0.0
C163 C 0.61433 0.62293 0.35132 0.0
C164 C 0.55857 0.60848 0.33909 0.0
C165 C 0.53744 0.63356 0.2934 0.0
C166 C 0.57093 0.67391 0.26313 0.0
H167 H 0.68937 0.81515 0.36852 0.0
H168 H 0.63488 0.76006 0.36338 0.0
H169 H 0.70285 0.75666 0.37841 0.0
H170 H 0.69036 0.67403 0.33193 0.0
H171 H 0.63202 0.60426 0.38585 0.0
H172 H 0.26184 0.96652 0.12637 0.0
H173 H 0.31787 0.93658 0.2012 0.0
H174 H 0.19183 0.80277 0.22256 0.0
H175 H 0.13619 0.83174 0.14929 0.0
H176 H 0.2355 0.84914 0.33483 0.0
H177 H 0.39266 0.82413 0.17323 0.0
H178 H 0.37673 0.88217 0.17503 0.0
H179 H 0.32785 0.82977 0.14658 0.0
C180 C 0.2463 0.93065 0.14686 0.0
C181 C 0.19445 0.90164 0.1317 0.0
C182 C 0.2783 0.91366 0.18956 0.0
C183 C 0.25883 0.86749 0.21737 0.0
C184 C 0.20744 0.83863 0.20196 0.0
H185 H 0.29302 0.62679 0.40701 0.0
H186 H 0.26765 0.69779 0.36553 0.0
C187 C 0.17572 0.85535 0.15971 0.0
C188 C 0.29101 0.84759 0.26219 0.0
H189 H 0.3895 0.78717 0.26963 0.0
C190 C 0.27009 0.83664 0.32117 0.0
C191 C 0.33624 0.83159 0.24433 0.0
C192 C 0.35991 0.84221 0.18136 0.0
C193 C 0.29078 0.80711 0.36124 0.0
C194 C 0.33297 0.78769 0.34145 0.0
C195 C 0.35692 0.802 0.28448 0.0
C196 C 0.34741 0.74724 0.37487 0.0
C197 C 0.26571 0.79515 0.42338 0.0
C198 C 0.40062 0.75157 0.39429 0.0
C199 C 0.41524 0.71093 0.41825 0.0
C200 C 0.37705 0.66515 0.42197 0.0
C201 C 0.32338 0.66146 0.40455 0.0
C202 C 0.30873 0.70213 0.38124 0.0
H203 H 0.24752 0.82426 0.43898 0.0
H204 H 0.23302 0.76067 0.42118 0.0
H205 H 0.296 0.79017 0.45748 0.0
H206 H 0.4311 0.78601 0.3893 0.0
H207 H 0.45696 0.71491 0.43121 0.0
H208 H 0.18247 0.93605 0.82885 0.0
H209 H 0.22441 0.88834 0.76297 0.0
H210 H 0.09634 0.75935 0.80321 0.0
H211 H 0.05372 0.80682 0.86957 0.0
H212 H 0.25589 0.80551 0.81776 0.0
H213 H 0.12367 0.75449 0.61456 0.0
H214 H 0.12392 0.80725 0.65961 0.0
H215 H 0.09158 0.74718 0.68804 0.0
C216 C 0.16227 0.89782 0.82267 0.0
C217 C 0.11495 0.87523 0.85528 0.0
C218 C 0.18644 0.87058 0.78492 0.0
C219 C 0.16359 0.82033 0.77828 0.0
C220 C 0.11439 0.79821 0.80725 0.0
H221 H 0.29523 0.59699 0.61407 0.0
H222 H 0.23535 0.64072 0.66077 0.0
C223 C 0.09013 0.82545 0.8453 0.0
C224 C 0.19499 0.79047 0.74778 0.0
H225 H 0.19877 0.72117 0.62304 0.0
C226 C 0.24345 0.78712 0.77513 0.0
C227 C 0.17821 0.76596 0.69272 0.0
C228 C 0.12667 0.76889 0.66152 0.0
C229 C 0.2758 0.76011 0.74887 0.0
C230 C 0.26007 0.73679 0.69271 0.0
C231 C 0.21097 0.7393 0.66585 0.0
C232 C 0.29494 0.71069 0.66096 0.0
C233 C 0.32619 0.75624 0.78214 0.0
C234 C 0.34784 0.73568 0.6442 0.0
C235 C 0.3822 0.7108 0.61818 0.0
C236 C 0.36421 0.66039 0.60757 0.0
C237 C 0.31048 0.63572 0.62211 0.0
C238 C 0.27616 0.66068 0.64862 0.0
H239 H 0.32393 0.76337 0.83148 0.0
H240 H 0.3331 0.71956 0.77682 0.0
H241 H 0.3616 0.78385 0.7632 0.0
H242 H 0.36282 0.77451 0.65184 0.0
H243 H 0.42299 0.73116 0.60658 0.0
H244 H 0.09576 0.13358 0.80354 0.0
H245 H 0.17511 0.18773 0.75518 0.0
H246 H 0.27838 0.14046 0.8847 0.0
H247 H 0.19841 0.0852 0.93291 0.0
H248 H 0.24056 0.26158 0.83632 0.0
H249 H 0.35985 0.15438 0.71456 0.0
H250 H 0.28789 0.13106 0.72641 0.0
H251 H 0.3335 0.13421 0.78915 0.0
C252 C 0.13556 0.13317 0.81999 0.0
C253 C 0.14125 0.10516 0.8715 0.0
C254 C 0.18077 0.16427 0.7926 0.0
C255 C 0.23246 0.1682 0.81654 0.0
C256 C 0.23879 0.13746 0.86518 0.0
H257 H 0.52386 0.39276 0.7033 0.0
H258 H 0.4631 0.32668 0.76158 0.0
C259 C 0.19325 0.10576 0.89243 0.0
C260 C 0.27747 0.20963 0.79627 0.0
H261 H 0.39166 0.24021 0.70951 0.0
C262 C 0.27391 0.25694 0.80904 0.0
C263 C 0.3211 0.20331 0.76146 0.0
C264 C 0.32619 0.1531 0.74664 0.0
C265 C 0.31183 0.29824 0.78604 0.0
C266 C 0.35395 0.29201 0.74857 0.0
C267 C 0.35907 0.24475 0.73808 0.0
C268 C 0.39051 0.33394 0.71635 0.0
C269 C 0.30607 0.34821 0.80131 0.0
C270 C 0.36962 0.36016 0.67215 0.0
C271 C 0.40406 0.39791 0.63881 0.0
C272 C 0.46017 0.41013 0.64899 0.0
C273 C 0.48082 0.38463 0.69461 0.0
C274 C 0.44627 0.34662 0.72771 0.0
H275 H 0.28175 0.34722 0.8432 0.0
H276 H 0.34623 0.37448 0.80771 0.0
H277 H 0.28515 0.36188 0.7633 0.0
H278 H 0.32671 0.35051 0.66223 0.0
H279 H 0.38682 0.41655 0.60385 0.0
H280 H 0.80617 0.09265 0.84692 0.0
H281 H 0.76564 0.13703 0.77346 0.0
H282 H 0.90209 0.26295 0.78985 0.0
H283 H 0.94395 0.21836 0.86389 0.0
H284 H 0.73844 0.22466 0.79628 0.0
H285 H 0.88175 0.24346 0.60305 0.0
H286 H 0.87858 0.19968 0.66438 0.0
H287 H 0.91135 0.26305 0.67581 0.0
C288 C 0.82805 0.12972 0.83503 0.0
C289 C 0.8785 0.15194 0.86163 0.0
C290 C 0.80467 0.15497 0.79278 0.0
C291 C 0.83109 0.20296 0.77573 0.0
C292 C 0.88151 0.22553 0.80173 0.0
H293 H 0.74461 0.42703 0.56983 0.0
H294 H 0.7906 0.37149 0.61775 0.0
C295 C 0.90515 0.20016 0.84433 0.0
C296 C 0.80374 0.22977 0.73343 0.0
H297 H 0.81233 0.28404 0.59284 0.0
C298 C 0.75437 0.23744 0.75163 0.0
C299 C 0.82471 0.24616 0.6753 0.0
C300 C 0.87681 0.23745 0.65298 0.0
C301 C 0.72593 0.26226 0.7139 0.0
C302 C 0.74683 0.27878 0.65564 0.0
C303 C 0.79607 0.27074 0.63718 0.0
C304 C 0.7209 0.30893 0.6163 0.0
C305 C 0.67488 0.27223 0.73784 0.0
C306 C 0.66709 0.29152 0.59654 0.0
C307 C 0.64026 0.32349 0.56938 0.0
C308 C 0.66713 0.37314 0.56156 0.0
C309 C 0.72238 0.38918 0.57632 0.0
C310 C 0.74894 0.35741 0.60348 0.0
H311 H 0.67085 0.26633 0.78787 0.0
H312 H 0.67389 0.3103 0.72705 0.0
H313 H 0.63933 0.24717 0.71603 0.0
H314 H 0.64514 0.25382 0.60472 0.0
H315 H 0.5979 0.30995 0.55779 0.0
H316 H 0.97042 0.88257 0.85114 0.0
H317 H 0.92912 0.81435 0.78407 0.0
H318 H 0.77241 0.80795 0.85928 0.0
H319 H 0.81298 0.87463 0.92672 0.0
H320 H 0.78838 0.71646 0.84007 0.0
H321 H 0.84054 0.83798 0.63542 0.0
H322 H 0.89522 0.8316 0.68363 0.0
H323 H 0.84705 0.86175 0.71149 0.0
C324 C 0.92732 0.86597 0.85405 0.0
C325 C 0.89483 0.88455 0.89349 0.0
C326 C 0.90378 0.82729 0.81542 0.0
C327 C 0.84757 0.8068 0.81593 0.0
C328 C 0.81581 0.82341 0.85789 0.0
H329 H 0.59125 0.69484 0.57958 0.0
H330 H 0.66889 0.74109 0.63761 0.0
C331 C 0.8391 0.8618 0.89622 0.0
C332 C 0.82007 0.77048 0.77065 0.0
H333 H 0.7799 0.76133 0.62196 0.0
C334 C 0.78731 0.72567 0.79207 0.0
C335 C 0.81853 0.78302 0.70823 0.0
C336 C 0.85187 0.83125 0.683 0.0
C337 C 0.75057 0.69431 0.7536 0.0
C338 C 0.74748 0.70776 0.69166 0.0
C339 C 0.78252 0.75121 0.66944 0.0
C340 C 0.70394 0.68026 0.65127 0.0
C341 C 0.71282 0.64882 0.78057 0.0
C342 C 0.69868 0.63105 0.63829 0.0
C343 C 0.654 0.60434 0.60559 0.0
C344 C 0.61413 0.62658 0.58472 0.0
C345 C 0.62104 0.67654 0.59517 0.0
C346 C 0.66549 0.70307 0.62822 0.0
H347 H 0.71363 0.64871 0.83112 0.0
H348 H 0.67064 0.64517 0.76523 0.0
H349 H 0.72508 0.61632 0.76515 0.0
H350 H 0.72851 0.61304 0.65454 0.0
H351 H 0.65025 0.56604 0.59765 0.0
loop_
_geom_bond_atom_site_label_1
_geom_bond_atom_site_label_2
_geom_bond_distance
_geom_bond_site_symmetry_2
_ccdc_geom_bond_type
C0 O27 1.312 . S
C0 O28 1.208 . S
C1 O22 1.331 . S
C1 O25 1.244 . S
C2 O24 1.264 . S
C2 O26 1.273 . S
Mg3 O5 1.936 . S
Mg3 O12 2.081 . S
Mg3 O14 2.023 1_556 S
Mg3 O18 2.031 1_655 S
Mg3 O27 2.291 1_656 S
Mg4 O5 1.963 . S
Mg4 O15 1.942 . S
Mg4 O16 1.955 1_556 S
Mg4 O23 1.986 1_545 S
O5 Mg3 1.936 . S
O5 Mg4 1.963 . S
O5 Mg6 1.904 1_656 S
Mg6 O5 1.904 1_454 S
Mg6 O7 1.927 1_545 S
Mg6 O11 2.009 1_445 S
Mg6 O17 2.120 1_554 S
Mg6 O21 2.006 1_444 S
Mg6 O27 2.119 . S
O7 Mg6 1.927 1_565 S
O7 Mg8 1.936 1_565 S
O7 Mg9 1.963 . S
Mg8 O7 1.936 1_545 S
Mg8 O17 2.291 1_554 S
Mg8 O22 2.081 1_545 S
Mg8 O24 2.023 1_544 S
Mg8 O28 2.031 . S
Mg9 O7 1.963 . S
Mg9 O13 1.986 1_455 S
Mg9 O25 1.942 . S
Mg9 O26 1.955 1_554 S
C10 O21 1.191 . S
C10 O23 1.307 . S
O11 Mg6 2.009 1_665 S
O11 C30 1.191 . S
O12 Mg3 2.081 . S
O12 C20 1.331 . S
O13 Mg9 1.986 1_655 S
O13 C30 1.307 . S
O14 Mg3 2.023 1_554 S
O14 C29 1.264 . S
O15 Mg4 1.942 . S
O15 C20 1.244 . S
O16 Mg4 1.955 1_554 S
O16 C29 1.273 . S
O17 Mg6 2.120 1_556 S
O17 Mg8 2.291 1_556 S
O17 C19 1.312 . S
O18 Mg3 2.031 1_455 S
O18 C19 1.208 . S
C19 O17 1.312 . S
C19 O18 1.208 . S
C20 O12 1.331 . S
C20 O15 1.244 . S
O21 Mg6 2.006 1_666 S
O21 C10 1.191 . S
O22 C1 1.331 . S
O22 Mg8 2.081 1_565 S
O23 Mg4 1.986 1_565 S
O23 C10 1.307 . S
O24 C2 1.264 . S
O24 Mg8 2.023 1_566 S
O25 C1 1.244 . S
O25 Mg9 1.942 . S
O26 C2 1.273 . S
O26 Mg9 1.955 1_556 S
O27 C0 1.312 . S
O27 Mg3 2.291 1_454 S
O27 Mg6 2.119 . S
O28 C0 1.208 . S
O28 Mg8 2.031 . S
C29 O14 1.264 . S
C29 O16 1.273 . S
C30 O11 1.191 . S
C30 O13 1.307 . S
Co31 O34 2.042 . S
Co31 O41 2.264 . S
Co31 O60 2.286 . S
Co31 O61 2.069 . S
Co31 O63 2.015 . S
Co32 O34 2.122 . S
Co32 O40 2.073 . S
Co32 O41 2.327 . S
Co32 O42 1.976 . S
Co33 O34 2.087 . S
Co33 O36 2.087 . S
Co33 O43 2.111 . S
Co33 O44 2.143 . S
Co33 O48 2.111 . S
Co33 O62 2.143 . S
O34 Co31 2.042 . S
O34 Co32 2.122 . S
O34 Co33 2.087 . S
O34 H35 0.980 . S
H35 O34 0.980 . S
O36 Co33 2.087 . S
O36 Co37 2.042 . S
O36 Co38 2.122 . S
O36 H39 0.980 . S
Co37 O36 2.042 . S
Co37 O45 2.286 . S
Co37 O46 2.069 . S
Co37 O47 2.015 . S
Co37 O50 2.264 . S
Co38 O36 2.122 . S
Co38 O49 1.976 . S
Co38 O50 2.327 . S
Co38 O51 2.073 . S
H39 O36 0.980 . S
O40 Co32 2.073 . S
O40 C55 1.245 . S
O41 Co31 2.264 . S
O41 Co32 2.327 . S
O41 C55 1.257 . S
O42 Co32 1.976 . S
O42 C54 1.251 . S
O43 Co33 2.111 . S
O43 C54 1.274 . S
O44 Co33 2.143 . S
O44 C57 1.246 . S
O45 Co37 2.286 . S
O45 C56 1.259 . S
O46 Co37 2.069 . S
O46 C56 1.289 . S
O47 Co37 2.015 . S
O47 C57 1.257 . S
O48 Co33 2.111 . S
O48 C58 1.274 . S
O49 Co38 1.976 . S
O49 C58 1.251 . S
O50 Co37 2.264 . S
O50 Co38 2.327 . S
O50 C59 1.257 . S
O51 Co38 2.073 . S
O51 C59 1.245 . S
C52 O60 1.259 . S
C52 O61 1.289 . S
C53 O62 1.246 . S
C53 O63 1.257 . S
C54 O42 1.251 . S
C54 O43 1.274 . S
C55 O40 1.245 . S
C55 O41 1.257 . S
C56 O45 1.259 . S
C56 O46 1.289 . S
C57 O44 1.246 . S
C57 O47 1.257 . S
C58 O48 1.274 . S
C58 O49 1.251 . S
C59 O50 1.257 . S
C59 O51 1.245 . S
O60 Co31 2.286 . S
O60 C52 1.259 . S
O61 Co31 2.069 . S
O61 C52 1.289 . S
O62 Co33 2.143 . S
O62 C53 1.246 . S
O63 Co31 2.015 . S
O63 C53 1.257 . S
H64 C72 0.929 . S
H65 C74 0.930 . S
H66 C76 0.930 . S
H67 C79 0.929 . S
H68 C82 0.930 . S
H69 C84 0.960 . S
H70 C84 0.960 . S
H71 C84 0.960 . S
C72 H64 0.929 . S
C72 C73 1.377 . S
C72 C74 1.384 . S
C73 C72 1.377 . S
C73 C79 1.390 . S
C74 H65 0.930 . S
C74 C72 1.384 . S
C74 C75 1.372 . S
C75 C74 1.372 . S
C75 C76 1.400 . S
C75 C80 1.490 . S
C76 H66 0.930 . S
C76 C75 1.400 . S
C76 C79 1.386 . S
H77 C93 0.930 . S
H78 C94 0.931 . S
C79 H67 0.929 . S
C79 C73 1.390 . S
C79 C76 1.386 . S
C80 C75 1.490 . S
C80 C82 1.395 . S
C80 C83 1.403 . S
H81 C87 0.930 . S
C82 H68 0.930 . S
C82 C80 1.395 . S
C82 C85 1.403 . S
C83 C80 1.403 . S
C83 C84 1.524 . S
C83 C87 1.400 . S
C84 H69 0.960 . S
C84 H70 0.960 . S
C84 H71 0.960 . S
C84 C83 1.524 . S
C85 C82 1.403 . S
C85 C86 1.392 . S
C85 C89 1.495 . S
C86 C85 1.392 . S
C86 C87 1.385 . S
C86 C88 1.478 . S
C87 H81 0.930 . S
C87 C83 1.400 . S
C87 C86 1.385 . S
C88 C86 1.478 . S
C88 C90 1.381 . S
C88 C94 1.383 . S
C89 C85 1.495 . S
C89 H95 0.959 . S
C89 H96 0.961 . S
C89 H97 0.960 . S
C90 C88 1.381 . S
C90 C91 1.394 . S
C90 H98 0.930 . S
C91 C90 1.394 . S
C91 C92 1.383 . S
C91 H99 0.929 . S
C92 C91 1.383 . S
C92 C93 1.377 . S
C93 H77 0.930 . S
C93 C92 1.377 . S
C93 C94 1.379 . S
C94 H78 0.931 . S
C94 C88 1.383 . S
C94 C93 1.379 . S
H95 C89 0.959 . S
H96 C89 0.961 . S
H97 C89 0.960 . S
H98 C90 0.930 . S
H99 C91 0.929 . S
H100 C108 0.929 . S
H101 C110 0.930 . S
H102 C112 0.930 . S
H103 C115 0.929 . S
H104 C118 0.930 . S
H105 C120 0.960 . S
H106 C120 0.960 . S
H107 C120 0.960 . S
C108 H100 0.929 . S
C108 C109 1.377 . S
C108 C110 1.384 . S
C109 C108 1.377 . S
C109 C115 1.390 . S
C110 H101 0.930 . S
C110 C108 1.384 . S
C110 C111 1.372 . S
C111 C110 1.372 . S
C111 C112 1.400 . S
C111 C116 1.490 . S
C112 H102 0.930 . S
C112 C111 1.400 . S
C112 C115 1.386 . S
H113 C129 0.930 . S
H114 C130 0.931 . S
C115 H103 0.929 . S
C115 C109 1.390 . S
C115 C112 1.386 . S
C116 C111 1.490 . S
C116 C118 1.395 . S
C116 C119 1.403 . S
H117 C123 0.930 . S
C118 H104 0.930 . S
C118 C116 1.395 . S
C118 C121 1.403 . S
C119 C116 1.403 . S
C119 C120 1.524 . S
C119 C123 1.400 . S
C120 H105 0.960 . S
C120 H106 0.960 . S
C120 H107 0.960 . S
C120 C119 1.524 . S
C121 C118 1.403 . S
C121 C122 1.392 . S
C121 C125 1.495 . S
C122 C121 1.392 . S
C122 C123 1.385 . S
C122 C124 1.478 . S
C123 H117 0.930 . S
C123 C119 1.400 . S
C123 C122 1.385 . S
C124 C122 1.478 . S
C124 C126 1.381 . S
C124 C130 1.383 . S
C125 C121 1.495 . S
C125 H131 0.959 . S
C125 H132 0.961 . S
C125 H133 0.960 . S
C126 C124 1.381 . S
C126 C127 1.394 . S
C126 H134 0.930 . S
C127 C126 1.394 . S
C127 C128 1.383 . S
C127 H135 0.929 . S
C128 C127 1.383 . S
C128 C129 1.377 . S
C129 H113 0.930 . S
C129 C128 1.377 . S
C129 C130 1.379 . S
C130 H114 0.931 . S
C130 C124 1.383 . S
C130 C129 1.379 . S
H131 C125 0.959 . S
H132 C125 0.961 . S
H133 C125 0.960 . S
H134 C126 0.930 . S
H135 C127 0.929 . S
H136 C144 0.929 . S
H137 C146 0.930 . S
H138 C148 0.930 . S
H139 C151 0.929 . S
H140 C154 0.930 . S
H141 C156 0.960 . S
H142 C156 0.960 . S
H143 C156 0.960 . S
C144 H136 0.929 . S
C144 C145 1.377 . S
C144 C146 1.384 . S
C145 C144 1.377 . S
C145 C151 1.390 . S
C146 H137 0.930 . S
C146 C144 1.384 . S
C146 C147 1.372 . S
C147 C146 1.372 . S
C147 C148 1.400 . S
C147 C152 1.490 . S
C148 H138 0.930 . S
C148 C147 1.400 . S
C148 C151 1.386 . S
H149 C165 0.930 . S
H150 C166 0.931 . S
C151 H139 0.929 . S
C151 C145 1.390 . S
C151 C148 1.386 . S
C152 C147 1.490 . S
C152 C154 1.395 . S
C152 C155 1.403 . S
H153 C159 0.930 . S
C154 H140 0.930 . S
C154 C152 1.395 . S
C154 C157 1.403 . S
C155 C152 1.403 . S
C155 C156 1.524 . S
C155 C159 1.400 . S
C156 H141 0.960 . S
C156 H142 0.960 . S
C156 H143 0.960 . S
C156 C155 1.524 . S
C157 C154 1.403 . S
C157 C158 1.392 . S
C157 C161 1.495 . S
C158 C157 1.392 . S
C158 C159 1.385 . S
C158 C160 1.478 . S
C159 H153 0.930 . S
C159 C155 1.400 . S
C159 C158 1.385 . S
C160 C158 1.478 . S
C160 C162 1.381 . S
C160 C166 1.383 . S
C161 C157 1.495 . S
C161 H167 0.959 . S
C161 H168 0.961 . S
C161 H169 0.960 . S
C162 C160 1.381 . S
C162 C163 1.394 . S
C162 H170 0.930 . S
C163 C162 1.394 . S
C163 C164 1.383 . S
C163 H171 0.929 . S
C164 C163 1.383 . S
C164 C165 1.377 . S
C165 H149 0.930 . S
C165 C164 1.377 . S
C165 C166 1.379 . S
C166 H150 0.931 . S
C166 C160 1.383 . S
C166 C165 1.379 . S
H167 C161 0.959 . S
H168 C161 0.961 . S
H169 C161 0.960 . S
H170 C162 0.930 . S
H171 C163 0.929 . S
H172 C180 0.929 . S
H173 C182 0.930 . S
H174 C184 0.930 . S
H175 C187 0.929 . S
H176 C190 0.930 . S
H177 C192 0.960 . S
H178 C192 0.960 . S
H179 C192 0.960 . S
C180 H172 0.929 . S
C180 C181 1.377 . S
C180 C182 1.384 . S
C181 C180 1.377 . S
C181 C187 1.390 . S
C182 H173 0.930 . S
C182 C180 1.384 . S
C182 C183 1.372 . S
C183 C182 1.372 . S
C183 C184 1.400 . S
C183 C188 1.490 . S
C184 H174 0.930 . S
C184 C183 1.400 . S
C184 C187 1.386 . S
H185 C201 0.930 . S
H186 C202 0.931 . S
C187 H175 0.929 . S
C187 C181 1.390 . S
C187 C184 1.386 . S
C188 C183 1.490 . S
C188 C190 1.395 . S
C188 C191 1.403 . S
H189 C195 0.930 . S
C190 H176 0.930 . S
C190 C188 1.395 . S
C190 C193 1.403 . S
C191 C188 1.403 . S
C191 C192 1.524 . S
C191 C195 1.400 . S
C192 H177 0.960 . S
C192 H178 0.960 . S
C192 H179 0.960 . S
C192 C191 1.524 . S
C193 C190 1.403 . S
C193 C194 1.392 . S
C193 C197 1.495 . S
C194 C193 1.392 . S
C194 C195 1.385 . S
C194 C196 1.478 . S
C195 H189 0.930 . S
C195 C191 1.400 . S
C195 C194 1.385 . S
C196 C194 1.478 . S
C196 C198 1.381 . S
C196 C202 1.383 . S
C197 C193 1.495 . S
C197 H203 0.959 . S
C197 H204 0.961 . S
C197 H205 0.960 . S
C198 C196 1.381 . S
C198 C199 1.394 . S
C198 H206 0.930 . S
C199 C198 1.394 . S
C199 C200 1.383 . S
C199 H207 0.929 . S
C200 C199 1.383 . S
C200 C201 1.377 . S
C201 H185 0.930 . S
C201 C200 1.377 . S
C201 C202 1.379 . S
C202 H186 0.931 . S
C202 C196 1.383 . S
C202 C201 1.379 . S
H203 C197 0.959 . S
H204 C197 0.961 . S
H205 C197 0.960 . S
H206 C198 0.930 . S
H207 C199 0.929 . S
H208 C216 0.929 . S
H209 C218 0.930 . S
H210 C220 0.930 . S
H211 C223 0.929 . S
H212 C226 0.930 . S
H213 C228 0.960 . S
H214 C228 0.960 . S
H215 C228 0.960 . S
C216 H208 0.929 . S
C216 C217 1.377 . S
C216 C218 1.384 . S
C217 C216 1.377 . S
C217 C223 1.390 . S
C218 H209 0.930 . S
C218 C216 1.384 . S
C218 C219 1.372 . S
C219 C218 1.372 . S
C219 C220 1.400 . S
C219 C224 1.490 . S
C220 H210 0.930 . S
C220 C219 1.400 . S
C220 C223 1.386 . S
H221 C237 0.930 . S
H222 C238 0.931 . S
C223 H211 0.929 . S
C223 C217 1.390 . S
C223 C220 1.386 . S
C224 C219 1.490 . S
C224 C226 1.395 . S
C224 C227 1.403 . S
H225 C231 0.930 . S
C226 H212 0.930 . S
C226 C224 1.395 . S
C226 C229 1.403 . S
C227 C224 1.403 . S
C227 C228 1.524 . S
C227 C231 1.400 . S
C228 H213 0.960 . S
C228 H214 0.960 . S
C228 H215 0.960 . S
C228 C227 1.524 . S
C229 C226 1.403 . S
C229 C230 1.392 . S
C229 C233 1.495 . S
C230 C229 1.392 . S
C230 C231 1.385 . S
C230 C232 1.478 . S
C231 H225 0.930 . S
C231 C227 1.400 . S
C231 C230 1.385 . S
C232 C230 1.478 . S
C232 C234 1.381 . S
C232 C238 1.383 . S
C233 C229 1.495 . S
C233 H239 0.959 . S
C233 H240 0.961 . S
C233 H241 0.960 . S
C234 C232 1.381 . S
C234 C235 1.394 . S
C234 H242 0.930 . S
C235 C234 1.394 . S
C235 C236 1.383 . S
C235 H243 0.929 . S
C236 C235 1.383 . S
C236 C237 1.377 . S
C237 H221 0.930 . S
C237 C236 1.377 . S
C237 C238 1.379 . S
C238 H222 0.931 . S
C238 C232 1.383 . S
C238 C237 1.379 . S
H239 C233 0.959 . S
H240 C233 0.961 . S
H241 C233 0.960 . S
H242 C234 0.930 . S
H243 C235 0.929 . S
H244 C252 0.929 . S
H245 C254 0.930 . S
H246 C256 0.930 . S
H247 C259 0.929 . S
H248 C262 0.930 . S
H249 C264 0.960 . S
H250 C264 0.960 . S
H251 C264 0.960 . S
C252 H244 0.929 . S
C252 C253 1.377 . S
C252 C254 1.384 . S
C253 C252 1.377 . S
C253 C259 1.390 . S
C254 H245 0.930 . S
C254 C252 1.384 . S
C254 C255 1.372 . S
C255 C254 1.372 . S
C255 C256 1.400 . S
C255 C260 1.490 . S
C256 H246 0.930 . S
C256 C255 1.400 . S
C256 C259 1.386 . S
H257 C273 0.930 . S
H258 C274 0.931 . S
C259 H247 0.929 . S
C259 C253 1.390 . S
C259 C256 1.386 . S
C260 C255 1.490 . S
C260 C262 1.395 . S
C260 C263 1.403 . S
H261 C267 0.930 . S
C262 H248 0.930 . S
C262 C260 1.395 . S
C262 C265 1.403 . S
C263 C260 1.403 . S
C263 C264 1.524 . S
C263 C267 1.400 . S
C264 H249 0.960 . S
C264 H250 0.960 . S
C264 H251 0.960 . S
C264 C263 1.524 . S
C265 C262 1.403 . S
C265 C266 1.392 . S
C265 C269 1.495 . S
C266 C265 1.392 . S
C266 C267 1.385 . S
C266 C268 1.478 . S
C267 H261 0.930 . S
C267 C263 1.400 . S
C267 C266 1.385 . S
C268 C266 1.478 . S
C268 C270 1.381 . S
C268 C274 1.383 . S
C269 C265 1.495 . S
C269 H275 0.959 . S
C269 H276 0.961 . S
C269 H277 0.960 . S
C270 C268 1.381 . S
C270 C271 1.394 . S
C270 H278 0.930 . S
C271 C270 1.394 . S
C271 C272 1.383 . S
C271 H279 0.929 . S
C272 C271 1.383 . S
C272 C273 1.377 . S
C273 H257 0.930 . S
C273 C272 1.377 . S
C273 C274 1.379 . S
C274 H258 0.931 . S
C274 C268 1.383 . S
C274 C273 1.379 . S
H275 C269 0.959 . S
H276 C269 0.961 . S
H277 C269 0.960 . S
H278 C270 0.930 . S
H279 C271 0.929 . S
H280 C288 0.929 . S
H281 C290 0.930 . S
H282 C292 0.930 . S
H283 C295 0.929 . S
H284 C298 0.930 . S
H285 C300 0.960 . S
H286 C300 0.960 . S
H287 C300 0.960 . S
C288 H280 0.929 . S
C288 C289 1.377 . S
C288 C290 1.384 . S
C289 C288 1.377 . S
C289 C295 1.390 . S
C290 H281 0.930 . S
C290 C288 1.384 . S
C290 C291 1.372 . S
C291 C290 1.372 . S
C291 C292 1.400 . S
C291 C296 1.490 . S
C292 H282 0.930 . S
C292 C291 1.400 . S
C292 C295 1.386 . S
H293 C309 0.930 . S
H294 C310 0.931 . S
C295 H283 0.929 . S
C295 C289 1.390 . S
C295 C292 1.386 . S
C296 C291 1.490 . S
C296 C298 1.395 . S
C296 C299 1.403 . S
H297 C303 0.930 . S
C298 H284 0.930 . S
C298 C296 1.395 . S
C298 C301 1.403 . S
C299 C296 1.403 . S
C299 C300 1.524 . S
C299 C303 1.400 . S
C300 H285 0.960 . S
C300 H286 0.960 . S
C300 H287 0.960 . S
C300 C299 1.524 . S
C301 C298 1.403 . S
C301 C302 1.392 . S
C301 C305 1.495 . S
C302 C301 1.392 . S
C302 C303 1.385 . S
C302 C304 1.478 . S
C303 H297 0.930 . S
C303 C299 1.400 . S
C303 C302 1.385 . S
C304 C302 1.478 . S
C304 C306 1.381 . S
C304 C310 1.383 . S
C305 C301 1.495 . S
C305 H311 0.959 . S
C305 H312 0.961 . S
C305 H313 0.960 . S
C306 C304 1.381 . S
C306 C307 1.394 . S
C306 H314 0.930 . S
C307 C306 1.394 . S
C307 C308 1.383 . S
C307 H315 0.929 . S
C308 C307 1.383 . S
C308 C309 1.377 . S
C309 H293 0.930 . S
C309 C308 1.377 . S
C309 C310 1.379 . S
C310 H294 0.931 . S
C310 C304 1.383 . S
C310 C309 1.379 . S
H311 C305 0.959 . S
H312 C305 0.961 . S
H313 C305 0.960 . S
H314 C306 0.930 . S
H315 C307 0.929 . S
H316 C324 0.929 . S
H317 C326 0.930 . S
H318 C328 0.930 . S
H319 C331 0.929 . S
H320 C334 0.930 . S
H321 C336 0.960 . S
H322 C336 0.960 . S
H323 C336 0.960 . S
C324 H316 0.929 . S
C324 C325 1.377 . S
C324 C326 1.384 . S
C325 C324 1.377 . S
C325 C331 1.390 . S
C326 H317 0.930 . S
C326 C324 1.384 . S
C326 C327 1.372 . S
C327 C326 1.372 . S
C327 C328 1.400 . S
C327 C332 1.490 . S
C328 H318 0.930 . S
C328 C327 1.400 . S
C328 C331 1.386 . S
H329 C345 0.930 . S
H330 C346 0.931 . S
C331 H319 0.929 . S
C331 C325 1.390 . S
C331 C328 1.386 . S
C332 C327 1.490 . S
C332 C334 1.395 . S
C332 C335 1.403 . S
H333 C339 0.930 . S
C334 H320 0.930 . S
C334 C332 1.395 . S
C334 C337 1.403 . S
C335 C332 1.403 . S
C335 C336 1.524 . S
C335 C339 1.400 . S
C336 H321 0.960 . S
C336 H322 0.960 . S
C336 H323 0.960 . S
C336 C335 1.524 . S
C337 C334 1.403 . S
C337 C338 1.392 . S
C337 C341 1.495 . S
C338 C337 1.392 . S
C338 C339 1.385 . S
C338 C340 1.478 . S
C339 H333 0.930 . S
C339 C335 1.400 . S
C339 C338 1.385 . S
C340 C338 1.478 . S
C340 C342 1.381 . S
C340 C346 1.383 . S
C341 C337 1.495 . S
C341 H347 0.959 . S
C341 H348 0.961 . S
C341 H349 0.960 . S
C342 C340 1.381 . S
C342 C343 1.394 . S
C342 H350 0.930 . S
C343 C342 1.394 . S
C343 C344 1.383 . S
C343 H351 0.929 . S
C344 C343 1.383 . S
C344 C345 1.377 . S
C345 H329 0.930 . S
C345 C344 1.377 . S
C345 C346 1.379 . S
C346 H330 0.931 . S
C346 C340 1.383 . S
C346 C345 1.379 . S
H347 C341 0.959 . S
H348 C341 0.961 . S
H349 C341 0.960 . S
H350 C342 0.930 . S
H351 C343 0.929 . S
C73 C0 1.266 . S
C92 C53 1.249 . S
C109 C29 1.831 . S
C128 C52 1.872 . S
C145 C30 1.212 . S
C164 C58 1.190 . S
C181 C1 1.561 . S
C200 C59 1.550 . S
C217 C2 1.826 . S
C236 C56 1.845 . S
C272 C54 1.227 . S
C253 C19 1.247 . S
C289 C20 1.553 . S
C308 C55 1.497 . S
C344 C57 1.225 . S
C325 C10 1.248 . S
