# Generated by pormake.
# Topology pto, (3,4)-cn, num edge types: 1
# Building blocks:
#     Node 0, Type 0, BuildingBlock: WUSLED_clean_sbu_0, # of connection points: 3
#     Node 1, Type 0, BuildingBlock: WUSLED_clean_sbu_0, # of connection points: 3
#     Node 2, Type 0, BuildingBlock: WUSLED_clean_sbu_0, # of connection points: 3
#     Node 3, Type 0, BuildingBlock: WUSLED_clean_sbu_0, # of connection points: 3
#     Node 4, Type 0, BuildingBlock: WUSLED_clean_sbu_0, # of connection points: 3
#     Node 5, Type 0, BuildingBlock: WUSLED_clean_sbu_0, # of connection points: 3
#     Node 6, Type 0, BuildingBlock: WUSLED_clean_sbu_0, # of connection points: 3
#     Node 7, Type 0, BuildingBlock: WUSLED_clean_sbu_0, # of connection points: 3
#     Node 8, Type 1, BuildingBlock: KOZSID_clean_sbu_0, # of connection points: 4
#     Node 9, Type 1, BuildingBlock: KOZSID_clean_sbu_0, # of connection points: 4
#     Node 10, Type 1, BuildingBlock: KOZSID_clean_sbu_0, # of connection points: 4
#     Node 11, Type 1, BuildingBlock: KOZSID_clean_sbu_0, # of connection points: 4
#     Node 12, Type 1, BuildingBlock: KOZSID_clean_sbu_0, # of connection points: 4
#     Node 13, Type 1, BuildingBlock: KOZSID_clean_sbu_0, # of connection points: 4
#     Edge 14, Type (0, 1), BuildingBlock: CIFDUS_clean_linker_0, # of connection points: 2
#     Edge 15, Type (0, 1), BuildingBlock: CIFDUS_clean_linker_0, # of connection points: 2
#     Edge 16, Type (0, 1), BuildingBlock: CIFDUS_clean_linker_0, # of connection points: 2
#     Edge 17, Type (0, 1), BuildingBlock: CIFDUS_clean_linker_0, # of connection points: 2
#     Edge 18, Type (0, 1), BuildingBlock: CIFDUS_clean_linker_0, # of connection points: 2
#     Edge 19, Type (0, 1), BuildingBlock: CIFDUS_clean_linker_0, # of connection points: 2
#     Edge 20, Type (0, 1), BuildingBlock: CIFDUS_clean_linker_0, # of connection points: 2
#     Edge 21, Type (0, 1), BuildingBlock: CIFDUS_clean_linker_0, # of connection points: 2
#     Edge 22, Type (0, 1), BuildingBlock: CIFDUS_clean_linker_0, # of connection points: 2
#     Edge 23, Type (0, 1), BuildingBlock: CIFDUS_clean_linker_0, # of connection points: 2
#     Edge 24, Type (0, 1), BuildingBlock: CIFDUS_clean_linker_0, # of connection points: 2
#     Edge 25, Type (0, 1), BuildingBlock: CIFDUS_clean_linker_0, # of connection points: 2
#     Edge 26, Type (0, 1), BuildingBlock: CIFDUS_clean_linker_0, # of connection points: 2
#     Edge 27, Type (0, 1), BuildingBlock: CIFDUS_clean_linker_0, # of connection points: 2
#     Edge 28, Type (0, 1), BuildingBlock: CIFDUS_clean_linker_0, # of connection points: 2
#     Edge 29, Type (0, 1), BuildingBlock: CIFDUS_clean_linker_0, # of connection points: 2
#     Edge 30, Type (0, 1), BuildingBlock: CIFDUS_clean_linker_0, # of connection points: 2
#     Edge 31, Type (0, 1), BuildingBlock: CIFDUS_clean_linker_0, # of connection points: 2
#     Edge 32, Type (0, 1), BuildingBlock: CIFDUS_clean_linker_0, # of connection points: 2
#     Edge 33, Type (0, 1), BuildingBlock: CIFDUS_clean_linker_0, # of connection points: 2
#     Edge 34, Type (0, 1), BuildingBlock: CIFDUS_clean_linker_0, # of connection points: 2
#     Edge 35, Type (0, 1), BuildingBlock: CIFDUS_clean_linker_0, # of connection points: 2
#     Edge 36, Type (0, 1), BuildingBlock: CIFDUS_clean_linker_0, # of connection points: 2
#     Edge 37, Type (0, 1), BuildingBlock: CIFDUS_clean_linker_0, # of connection points: 2
# Relax obj value: 0.000
# Max RMSD: 0.025
# Mean RMSD: 0.011
data_MOF--net-pto--node1-WUSLED_clean_sbu_0--node2-KOZSID_clean_sbu_0--edge1-CIFDUS_clean_linker_0
_symmetry_space_group_name_H-M    P1
_symmetry_Int_Tables_number       1
_symmetry_cell_setting            triclinic
loop_
_symmetry_equiv_pos_as_xyz
'x, y, z'
_cell_length_a     45.00465
_cell_length_b     59.655978
_cell_length_c     52.452412
_cell_angle_alpha  87.232916
_cell_angle_beta   88.08671
_cell_angle_gamma 93.072352
loop_
_atom_site_label
_atom_site_type_symbol
_atom_site_fract_x
_atom_site_fract_y
_atom_site_fract_z
_atom_type_partial_charge
C0 C 0.25604 0.22596 0.36636 0.0
C1 C 0.25116 0.20555 0.3544 0.0
C2 C 0.26124 0.18421 0.39384 0.0
C3 C 0.25367 0.18497 0.36797 0.0
C4 C 0.26644 0.2047 0.40565 0.0
C5 C 0.26376 0.22528 0.3921 0.0
U6 U 0.27426 0.27032 0.31139 0.0
O7 O 0.24482 0.29117 0.28892 0.0
O8 O 0.27878 0.30735 0.31205 0.0
C9 C 0.25587 0.3101 0.29752 0.0
C10 C 0.25212 0.24799 0.35279 0.0
C11 C 0.23437 0.32676 0.30529 0.0
C12 C 0.18351 0.33858 0.30999 0.0
C13 C 0.20344 0.32169 0.3062 0.0
C14 C 0.22491 0.36577 0.31314 0.0
C15 C 0.19398 0.36094 0.31299 0.0
C16 C 0.24483 0.3489 0.30922 0.0
C17 C 0.33301 0.25726 0.2596 0.0
C18 C 0.34441 0.27991 0.22031 0.0
C19 C 0.37207 0.24701 0.22994 0.0
C20 C 0.35537 0.24298 0.25282 0.0
C21 C 0.36676 0.26546 0.21329 0.0
C22 C 0.3277 0.27585 0.24329 0.0
C23 C 0.31516 0.25201 0.28341 0.0
O24 O 0.2747 0.26291 0.35301 0.0
O25 O 0.23948 0.24757 0.33055 0.0
O26 O 0.28642 0.24821 0.2808 0.0
O27 O 0.32139 0.2645 0.3027 0.0
H28 H 0.24508 0.20542 0.3346 0.0
H29 H 0.24906 0.16962 0.35827 0.0
H30 H 0.27277 0.20489 0.42538 0.0
H31 H 0.2676 0.24073 0.40182 0.0
H32 H 0.15984 0.33421 0.31012 0.0
H33 H 0.19456 0.30481 0.30326 0.0
H34 H 0.23377 0.38281 0.31514 0.0
H35 H 0.26852 0.35335 0.30835 0.0
H36 H 0.33992 0.2944 0.20809 0.0
H37 H 0.38871 0.23532 0.22504 0.0
H38 H 0.3597 0.22849 0.26513 0.0
H39 H 0.31053 0.2871 0.24824 0.0
C40 C 0.24666 0.82764 0.69486 0.0
C41 C 0.25666 0.84813 0.70463 0.0
C42 C 0.25438 0.86702 0.66237 0.0
C43 C 0.26039 0.86766 0.68854 0.0
C44 C 0.2445 0.84638 0.6528 0.0
C45 C 0.24071 0.82696 0.66886 0.0
U46 U 0.26065 0.78879 0.75404 0.0
O47 O 0.22854 0.76733 0.77807 0.0
O48 O 0.26404 0.752 0.75639 0.0
C49 C 0.23994 0.7486 0.77121 0.0
C50 C 0.24164 0.80683 0.71124 0.0
C51 C 0.21873 0.73018 0.76458 0.0
C52 C 0.17113 0.71641 0.74893 0.0
C53 C 0.19164 0.73429 0.75314 0.0
C54 C 0.20489 0.69012 0.76686 0.0
C55 C 0.17738 0.69409 0.75599 0.0
C56 C 0.22527 0.70796 0.77112 0.0
C57 C 0.31688 0.80628 0.80423 0.0
C58 C 0.31723 0.80032 0.85054 0.0
C59 C 0.36383 0.80465 0.82596 0.0
C60 C 0.34815 0.80712 0.80346 0.0
C61 C 0.34857 0.80148 0.84981 0.0
C62 C 0.30156 0.80263 0.82802 0.0
C63 C 0.30093 0.81028 0.78026 0.0
O64 O 0.26383 0.79339 0.71205 0.0
O65 O 0.22837 0.8088 0.73368 0.0
O66 O 0.27225 0.81333 0.78255 0.0
O67 O 0.30774 0.79763 0.7613 0.0
H68 H 0.26149 0.84903 0.72466 0.0
H69 H 0.2683 0.8832 0.69652 0.0
H70 H 0.2392 0.84527 0.63289 0.0
H71 H 0.23285 0.81137 0.66095 0.0
H72 H 0.15034 0.72007 0.74023 0.0
H73 H 0.18613 0.7513 0.74782 0.0
H74 H 0.21033 0.67325 0.77286 0.0
H75 H 0.24598 0.70442 0.78006 0.0
H76 H 0.3048 0.79764 0.86856 0.0
H77 H 0.38794 0.80588 0.82473 0.0
H78 H 0.36053 0.81006 0.78543 0.0
H79 H 0.27745 0.8018 0.82933 0.0
C80 C 0.7303 0.80604 0.27035 0.0
C81 C 0.72474 0.78418 0.26216 0.0
C82 C 0.69491 0.79865 0.22762 0.0
C83 C 0.70711 0.78052 0.24106 0.0
C84 C 0.70098 0.82053 0.23572 0.0
C85 C 0.71845 0.82415 0.25688 0.0
U86 U 0.78924 0.79004 0.31824 0.0
O87 O 0.82364 0.81135 0.33563 0.0
O88 O 0.78911 0.79286 0.36004 0.0
C89 C 0.81178 0.80775 0.35882 0.0
C90 C 0.74796 0.8103 0.29301 0.0
C91 C 0.8087 0.82769 0.37425 0.0
C92 C 0.80183 0.86766 0.37833 0.0
C93 C 0.80256 0.84883 0.36327 0.0
C94 C 0.81254 0.84431 0.41555 0.0
C95 C 0.80726 0.8657 0.40463 0.0
C96 C 0.8133 0.82559 0.40053 0.0
C97 C 0.82883 0.73445 0.30804 0.0
C98 C 0.85397 0.71008 0.33802 0.0
C99 C 0.86044 0.70581 0.29255 0.0
C100 C 0.84181 0.72345 0.28781 0.0
C101 C 0.8665 0.69866 0.31771 0.0
C102 C 0.83527 0.7278 0.33324 0.0
C103 C 0.80764 0.75189 0.30205 0.0
O104 O 0.74211 0.79647 0.31305 0.0
O105 O 0.7766 0.81487 0.28859 0.0
O106 O 0.81924 0.77167 0.29365 0.0
O107 O 0.78473 0.75314 0.31805 0.0
H108 H 0.73386 0.76995 0.27218 0.0
H109 H 0.70317 0.7635 0.23517 0.0
H110 H 0.69168 0.83485 0.22605 0.0
H111 H 0.72247 0.84114 0.26289 0.0
H112 H 0.79786 0.88384 0.36922 0.0
H113 H 0.79885 0.85088 0.34301 0.0
H114 H 0.81621 0.84201 0.43579 0.0
H115 H 0.81793 0.80944 0.40944 0.0
H116 H 0.85802 0.70497 0.35764 0.0
H117 H 0.87013 0.69778 0.27642 0.0
H118 H 0.83722 0.72833 0.26823 0.0
H119 H 0.8255 0.73604 0.34919 0.0
C120 C 0.7716 0.22773 0.7367 0.0
C121 C 0.79896 0.21921 0.72921 0.0
C122 C 0.77352 0.19273 0.70197 0.0
C123 C 0.7999 0.20193 0.71198 0.0
C124 C 0.74639 0.20187 0.70888 0.0
C125 C 0.74546 0.21908 0.72604 0.0
U126 U 0.78942 0.28403 0.76959 0.0
O127 O 0.75825 0.30456 0.79017 0.0
O128 O 0.79463 0.28941 0.8105 0.0
C129 C 0.77096 0.30129 0.81214 0.0
C130 C 0.76907 0.244 0.75711 0.0
C131 C 0.75096 0.29631 0.83475 0.0
C132 C 0.71019 0.27479 0.85783 0.0
C133 C 0.72903 0.27859 0.83597 0.0
C134 C 0.73515 0.30628 0.87727 0.0
C135 C 0.71312 0.28857 0.8788 0.0
C136 C 0.75382 0.31006 0.85552 0.0
C137 C 0.84353 0.33078 0.74206 0.0
C138 C 0.85057 0.36562 0.76395 0.0
C139 C 0.87873 0.36047 0.72472 0.0
C140 C 0.86472 0.33903 0.72326 0.0
C141 C 0.87175 0.3741 0.74505 0.0
C142 C 0.83662 0.34418 0.76248 0.0
C143 C 0.8286 0.30832 0.7402 0.0
O144 O 0.79216 0.24726 0.7715 0.0
O145 O 0.75573 0.26255 0.75132 0.0
O146 O 0.79975 0.30812 0.73696 0.0
O147 O 0.83601 0.29295 0.75728 0.0
H148 H 0.81953 0.22546 0.73714 0.0
H149 H 0.82117 0.19524 0.70723 0.0
H150 H 0.72569 0.19554 0.70123 0.0
H151 H 0.72408 0.22527 0.73151 0.0
H152 H 0.6936 0.26091 0.85845 0.0
H153 H 0.7265 0.26778 0.82009 0.0
H154 H 0.73773 0.31748 0.89279 0.0
H155 H 0.77049 0.3239 0.85486 0.0
H156 H 0.84492 0.37548 0.78004 0.0
H157 H 0.89463 0.36652 0.70967 0.0
H158 H 0.87031 0.32895 0.70732 0.0
H159 H 0.82039 0.33805 0.77726 0.0
C160 C 0.82031 0.73957 0.77527 0.0
C161 C 0.82295 0.72984 0.75145 0.0
C162 C 0.85495 0.70173 0.76946 0.0
C163 C 0.84025 0.71113 0.74855 0.0
C164 C 0.85308 0.7121 0.79294 0.0
C165 C 0.83598 0.73074 0.79578 0.0
U166 U 0.78252 0.79687 0.76395 0.0
O167 O 0.73536 0.80349 0.77063 0.0
O168 O 0.76935 0.8197 0.79368 0.0
C169 C 0.74078 0.81578 0.79028 0.0
C170 C 0.79939 0.75732 0.78036 0.0
C171 C 0.72193 0.81055 0.81369 0.0
C172 C 0.68824 0.7853 0.84037 0.0
C173 C 0.70731 0.7893 0.81877 0.0
C174 C 0.6988 0.82346 0.85255 0.0
C175 C 0.68358 0.8024 0.85743 0.0
C176 C 0.71767 0.82749 0.83088 0.0
C177 C 0.8033 0.83981 0.70867 0.0
C178 C 0.78774 0.87831 0.70724 0.0
C179 C 0.81162 0.86377 0.66992 0.0
C180 C 0.81391 0.84305 0.68325 0.0
C181 C 0.79871 0.88176 0.68179 0.0
C182 C 0.78993 0.85753 0.72051 0.0
C183 C 0.80678 0.81804 0.7226 0.0
O184 O 0.81095 0.7764 0.78811 0.0
O185 O 0.7775 0.75992 0.76466 0.0
O186 O 0.78407 0.80328 0.72214 0.0
O187 O 0.81817 0.81915 0.7453 0.0
H188 H 0.81104 0.73626 0.73529 0.0
H189 H 0.84116 0.70351 0.73024 0.0
H190 H 0.86452 0.70556 0.80931 0.0
H191 H 0.83427 0.73788 0.81435 0.0
H192 H 0.67713 0.76882 0.84373 0.0
H193 H 0.71034 0.77586 0.80593 0.0
H194 H 0.69548 0.83706 0.86512 0.0
H195 H 0.72864 0.84402 0.82733 0.0
H196 H 0.77732 0.89166 0.71688 0.0
H197 H 0.8206 0.86586 0.65049 0.0
H198 H 0.8243 0.82959 0.67376 0.0
H199 H 0.78139 0.85534 0.74009 0.0
C200 C 0.7372 0.25517 0.27321 0.0
C201 C 0.72982 0.27638 0.26331 0.0
C202 C 0.69883 0.25866 0.23173 0.0
C203 C 0.71079 0.27811 0.24271 0.0
C204 C 0.70706 0.23754 0.24138 0.0
C205 C 0.72597 0.23584 0.26189 0.0
U206 U 0.79627 0.27556 0.32008 0.0
O207 O 0.79615 0.26962 0.36191 0.0
O208 O 0.83133 0.2565 0.33787 0.0
C209 C 0.81895 0.25678 0.36091 0.0
C210 C 0.75567 0.25251 0.29575 0.0
C211 C 0.81484 0.23475 0.37506 0.0
C212 C 0.79763 0.19528 0.37752 0.0
C213 C 0.80063 0.21622 0.3641 0.0
C214 C 0.82246 0.21123 0.41325 0.0
C215 C 0.80864 0.19247 0.40225 0.0
C216 C 0.82555 0.23212 0.39976 0.0
C217 C 0.83441 0.33537 0.30862 0.0
C218 C 0.87151 0.35307 0.335 0.0
C219 C 0.85719 0.37228 0.29596 0.0
C220 C 0.83735 0.35417 0.29148 0.0
C221 C 0.87458 0.37203 0.31777 0.0
C222 C 0.85158 0.33489 0.33046 0.0
C223 C 0.8135 0.31655 0.30289 0.0
O224 O 0.78441 0.25134 0.29114 0.0
O225 O 0.74939 0.26489 0.31507 0.0
O226 O 0.79089 0.31207 0.31919 0.0
O227 O 0.82553 0.29842 0.29496 0.0
H228 H 0.73835 0.29153 0.27175 0.0
H229 H 0.70482 0.29462 0.23585 0.0
H230 H 0.6988 0.22223 0.23311 0.0
H231 H 0.73156 0.21933 0.26914 0.0
H232 H 0.78653 0.18131 0.36859 0.0
H233 H 0.79202 0.21793 0.3451 0.0
H234 H 0.8315 0.20966 0.43209 0.0
H235 H 0.83659 0.24621 0.40855 0.0
H236 H 0.88434 0.35235 0.3521 0.0
H237 H 0.85928 0.38632 0.28202 0.0
H238 H 0.82439 0.3548 0.27444 0.0
H239 H 0.8496 0.32049 0.34393 0.0
C240 C 0.24896 0.2362 0.70426 0.0
C241 C 0.27759 0.22868 0.69938 0.0
C242 C 0.25672 0.19782 0.6754 0.0
C243 C 0.28142 0.20975 0.68503 0.0
C244 C 0.22808 0.20514 0.68083 0.0
C245 C 0.22429 0.22414 0.69503 0.0
U246 U 0.26516 0.27637 0.75818 0.0
O247 O 0.26932 0.31345 0.75685 0.0
O248 O 0.23454 0.29528 0.78132 0.0
C249 C 0.24586 0.31494 0.77217 0.0
C250 C 0.24428 0.2569 0.71803 0.0
C251 C 0.22464 0.33211 0.76488 0.0
C252 C 0.17413 0.34356 0.75848 0.0
C253 C 0.19416 0.32659 0.76225 0.0
C254 C 0.21478 0.37176 0.75894 0.0
C255 C 0.18412 0.36638 0.7572 0.0
C256 C 0.23475 0.35482 0.7628 0.0
C257 C 0.3227 0.26128 0.80801 0.0
C258 C 0.34453 0.28677 0.83802 0.0
C259 C 0.35055 0.24675 0.84352 0.0
C260 C 0.33402 0.24316 0.82184 0.0
C261 C 0.35625 0.26861 0.85183 0.0
C262 C 0.32786 0.28313 0.81632 0.0
C263 C 0.30575 0.25687 0.78502 0.0
O264 O 0.2315 0.25407 0.74095 0.0
O265 O 0.26637 0.27232 0.71671 0.0
O266 O 0.31217 0.27044 0.76485 0.0
O267 O 0.27702 0.25234 0.78891 0.0
H268 H 0.29704 0.23755 0.70642 0.0
H269 H 0.30375 0.20442 0.68148 0.0
H270 H 0.20859 0.19654 0.67351 0.0
H271 H 0.20201 0.22964 0.69848 0.0
H272 H 0.15073 0.3388 0.75688 0.0
H273 H 0.18565 0.30923 0.76372 0.0
H274 H 0.22325 0.38912 0.75834 0.0
H275 H 0.25808 0.35953 0.76499 0.0
H276 H 0.34863 0.30383 0.84371 0.0
H277 H 0.35864 0.23232 0.8539 0.0
H278 H 0.33008 0.22616 0.81585 0.0
H279 H 0.3192 0.29736 0.80595 0.0
C280 C 0.21108 0.73514 0.33103 0.0
C281 C 0.21874 0.7217 0.31085 0.0
C282 C 0.18239 0.6921 0.32704 0.0
C283 C 0.20456 0.7004 0.30887 0.0
C284 C 0.17464 0.70579 0.34709 0.0
C285 C 0.18888 0.72708 0.34906 0.0
U286 U 0.26849 0.78111 0.3068 0.0
O287 O 0.26727 0.81799 0.30535 0.0
O288 O 0.30134 0.80148 0.32736 0.0
C289 C 0.28932 0.82047 0.32101 0.0
C290 C 0.22646 0.75734 0.33366 0.0
C291 C 0.28616 0.83669 0.34139 0.0
C292 C 0.25754 0.86311 0.36487 0.0
C293 C 0.25883 0.84586 0.34763 0.0
C294 C 0.31057 0.86184 0.37044 0.0
C295 C 0.28353 0.87163 0.37612 0.0
C296 C 0.31185 0.84466 0.35328 0.0
C297 C 0.3129 0.76994 0.24463 0.0
C298 C 0.35316 0.79431 0.22486 0.0
C299 C 0.33819 0.75956 0.20563 0.0
C300 C 0.31644 0.75499 0.2251 0.0
C301 C 0.35692 0.77925 0.20524 0.0
C302 C 0.33131 0.78969 0.24439 0.0
C303 C 0.29021 0.76422 0.26512 0.0
O304 O 0.25487 0.75694 0.33861 0.0
O305 O 0.22092 0.77291 0.31613 0.0
O306 O 0.26691 0.77658 0.26542 0.0
O307 O 0.30032 0.75995 0.28796 0.0
H308 H 0.2358 0.72765 0.29669 0.0
H309 H 0.21084 0.69048 0.293 0.0
H310 H 0.15798 0.69988 0.36159 0.0
H311 H 0.18272 0.73719 0.36481 0.0
H312 H 0.23636 0.87033 0.36866 0.0
H313 H 0.23862 0.84015 0.33871 0.0
H314 H 0.33094 0.86766 0.37905 0.0
H315 H 0.3332 0.83795 0.34877 0.0
H316 H 0.36698 0.80972 0.22504 0.0
H317 H 0.34072 0.74739 0.19115 0.0
H318 H 0.30251 0.7396 0.22504 0.0
H319 H 0.32885 0.80145 0.25933 0.0
C320 C 0.0717 0.56471 0.3503 0.0
C321 C 0.07972 0.5716 0.37413 0.0
C322 C 0.06393 0.55777 0.39177 0.0
C323 C 0.04734 0.54323 0.37776 0.0
N324 N 0.052 0.54663 0.35222 0.0
Co325 Co 0.03145 0.53004 0.32481 0.0
N326 N 1.00509 0.51181 0.3506 0.0
C327 C 1.00513 0.51305 0.37629 0.0
C328 C 0.98479 0.49832 0.38911 0.0
C329 C 0.97103 0.48683 0.37055 0.0
C330 C 0.98392 0.49519 0.34736 0.0
N331 N 0.01084 0.51351 0.29733 0.0
C332 C 0.98911 0.49675 0.2991 0.0
C333 C 0.98186 0.48952 0.27519 0.0
C334 C 0.99958 0.5021 0.25772 0.0
C335 C 0.01666 0.5162 0.27184 0.0
N336 N 0.05778 0.54838 0.29904 0.0
C337 C 0.0585 0.5467 0.27339 0.0
C338 C 0.07758 0.56235 0.26056 0.0
C339 C 0.08941 0.57508 0.27902 0.0
C340 C 0.07689 0.56637 0.30219 0.0
N341 N 0.06129 0.50639 0.32671 0.0
C342 C 0.09997 0.47046 0.32904 0.0
C343 C 0.09242 0.48039 0.30566 0.0
C344 C 0.07348 0.49823 0.30495 0.0
C345 C 0.08848 0.47927 0.35129 0.0
C346 C 0.06931 0.49701 0.34971 0.0
N347 N 1.0017 0.55355 0.32287 0.0
C348 C 0.97368 0.5795 0.29765 0.0
C349 C 0.96146 0.58835 0.31961 0.0
C350 C 0.96969 0.57934 0.3433 0.0
C351 C 0.98953 0.562 0.34448 0.0
C352 C 0.99352 0.56233 0.29969 0.0
H353 H 0.99482 0.55574 0.36308 0.0
H354 H 1.00219 0.55658 0.2822 0.0
H355 H 0.06889 0.50496 0.28648 0.0
H356 H 0.06098 0.50261 0.36738 0.0
C357 C 0.02519 0.5277 0.38785 0.0
C358 C 0.08229 0.57658 0.32648 0.0
C359 C 0.97541 0.48663 0.32287 0.0
C360 C 0.03892 0.53169 0.2618 0.0
H361 H 0.09478 0.58561 0.37829 0.0
H362 H 0.06367 0.55877 0.41232 0.0
H363 H 0.98071 0.49602 0.40955 0.0
H364 H 0.95365 0.47364 0.37373 0.0
H365 H 0.96575 0.47626 0.27082 0.0
H366 H 1.00026 0.50087 0.23719 0.0
H367 H 0.08146 0.56482 0.24011 0.0
H368 H 0.10477 0.58959 0.27568 0.0
H369 H 0.10125 0.47451 0.28786 0.0
H370 H 0.09365 0.47216 0.36991 0.0
H371 H 0.96837 0.58605 0.27882 0.0
H372 H 0.96058 0.58542 0.36088 0.0
C373 C 0.06788 0.56831 0.76668 0.0
C374 C 0.07835 0.57409 0.79021 0.0
C375 C 0.06216 0.56099 0.80828 0.0
C376 C 0.04292 0.54791 0.79483 0.0
N377 N 0.04595 0.55173 0.76922 0.0
Co378 Co 0.0224 0.53634 0.74262 0.0
N379 N 0.99741 0.51802 0.76931 0.0
C380 C 0.99834 0.51954 0.79492 0.0
C381 C 0.97947 0.50415 0.8084 0.0
C382 C 0.96602 0.49178 0.79036 0.0
C383 C 0.97749 0.50042 0.76681 0.0
N384 N 0.99944 0.52044 0.71605 0.0
C385 C 0.97986 0.5023 0.71864 0.0
C386 C 0.97031 0.49557 0.69517 0.0
C387 C 0.98498 0.50959 0.67703 0.0
C388 C 1.00251 0.52402 0.69042 0.0
N389 N 0.04691 0.55499 0.71589 0.0
C390 C 0.04407 0.55485 0.6903 0.0
C391 C 0.06293 0.57022 0.67678 0.0
C392 C 0.07855 0.58106 0.6948 0.0
C393 C 0.06836 0.57156 0.71838 0.0
N394 N 0.05153 0.51239 0.74197 0.0
C395 C 0.09029 0.47665 0.74081 0.0
C396 C 0.0833 0.48854 0.71837 0.0
C397 C 0.064 0.50615 0.71936 0.0
C398 C 0.07786 0.48323 0.76387 0.0
C399 C 0.05889 0.50105 0.76403 0.0
N400 N 0.99321 0.56044 0.74327 0.0
C401 C 0.9635 0.58744 0.72108 0.0
C402 C 0.95632 0.59753 0.74385 0.0
C403 C 0.96721 0.58817 0.76641 0.0
C404 C 0.98519 0.56976 0.76571 0.0
C405 C 0.98173 0.56911 0.72123 0.0
H406 H 0.99274 0.56368 0.7836 0.0
H407 H 0.98646 0.56247 0.70318 0.0
H408 H 0.0592 0.51432 0.70156 0.0
H409 H 0.05026 0.50526 0.78224 0.0
C410 C 0.02021 0.53324 0.80571 0.0
C411 C 0.07897 0.57946 0.74257 0.0
C412 C 0.97068 0.49029 0.74275 0.0
C413 C 0.02337 0.54016 0.67952 0.0
H414 H 0.09557 0.58675 0.79394 0.0
H415 H 0.06371 0.56137 0.82881 0.0
H416 H 0.97703 0.50139 0.82893 0.0
H417 H 0.95048 0.47746 0.79422 0.0
H418 H 0.95492 0.48161 0.69157 0.0
H419 H 0.98375 0.50887 0.65651 0.0
H420 H 0.0648 0.57338 0.65628 0.0
H421 H 0.09523 0.59467 0.69101 0.0
H422 H 0.09222 0.48402 0.7 0.0
H423 H 0.08298 0.47482 0.78182 0.0
H424 H 0.95513 0.59361 0.70309 0.0
H425 H 0.96261 0.59532 0.78461 0.0
C426 C 0.28259 0.99602 0.57295 0.0
C427 C 0.30973 0.99013 0.58234 0.0
C428 C 0.33121 1.00326 0.56896 0.0
C429 C 0.31604 1.01647 0.55235 0.0
N430 N 0.28613 1.01271 0.55437 0.0
Co431 Co 0.2558 0.02846 0.53389 0.0
N432 N 0.28754 0.04721 0.51358 0.0
C433 C 0.31733 0.04601 0.51539 0.0
C434 C 0.33359 0.06157 0.49983 0.0
C435 C 0.31301 0.07366 0.48754 0.0
C436 C 0.28521 0.06469 0.49628 0.0
N437 N 0.22547 0.04449 0.51373 0.0
C438 C 0.22899 0.06229 0.49657 0.0
C439 C 0.20188 0.06868 0.48758 0.0
C440 C 0.1804 0.05482 0.49994 0.0
C441 C 0.19554 0.04076 0.51562 0.0
N442 N 0.22403 1.00954 0.55396 0.0
C443 C 0.19428 1.0098 0.55102 0.0
C444 C 0.178 0.99432 0.56664 0.0
C445 C 0.19852 0.98335 0.5803 0.0
C446 C 0.22631 0.9929 0.5723 0.0
N447 N 0.25427 0.05198 0.55955 0.0
C448 C 0.25158 0.08667 0.59446 0.0
C449 C 0.22568 0.07569 0.58613 0.0
C450 C 0.22751 0.05857 0.56894 0.0
C451 C 0.27892 0.07976 0.58506 0.0
C452 C 0.27975 0.06254 0.56782 0.0
N453 N 0.25729 1.0048 0.50819 0.0
C454 C 0.23195 0.97823 0.48161 0.0
C455 C 0.25871 0.96886 0.47473 0.0
C456 C 0.28489 0.97835 0.48435 0.0
C457 C 0.28369 0.99617 0.50077 0.0
C458 C 0.23175 0.99595 0.49813 0.0
H459 H 0.30443 1.00244 0.50749 0.0
H460 H 0.21054 1.002 0.50262 0.0
H461 H 0.20692 0.05105 0.56333 0.0
H462 H 0.30126 0.0581 0.56136 0.0
C463 C 0.32927 0.03178 0.53383 0.0
C464 C 0.25417 0.98502 0.58209 0.0
C465 C 0.25732 0.07417 0.48882 0.0
C466 C 0.18229 0.02455 0.53314 0.0
H467 H 0.31364 0.97749 0.59716 0.0
H468 H 0.35506 1.00298 0.57085 0.0
H469 H 0.35756 0.06442 0.49842 0.0
H470 H 0.318 0.08792 0.47429 0.0
H471 H 0.19802 0.08224 0.47383 0.0
H472 H 0.15654 0.05528 0.49814 0.0
H473 H 0.15407 0.99116 0.5677 0.0
H474 H 0.19354 0.96962 0.59428 0.0
H475 H 0.20389 0.08053 0.59246 0.0
H476 H 0.29969 0.08744 0.59113 0.0
H477 H 0.21105 0.97196 0.47426 0.0
H478 H 0.30626 0.97174 0.47977 0.0
C479 C 0.47931 0.81048 0.0718 0.0
C480 C 0.46766 0.83028 0.07943 0.0
C481 C 0.48282 0.84742 0.06557 0.0
C482 C 0.50272 0.83717 0.05029 0.0
N483 N 0.50114 0.81448 0.05338 0.0
Co484 Co 0.52652 0.79309 0.03522 0.0
N485 N 0.54882 0.81838 0.01484 0.0
C486 C 0.54414 0.84056 0.01571 0.0
C487 C 0.5617 0.85389 0.99864 0.0
C488 C 0.57851 0.8394 0.98591 0.0
C489 C 0.57038 0.81794 0.99614 0.0
N490 N 0.55225 0.77173 0.01741 0.0
C491 C 0.57397 0.7757 0.9989 0.0
C492 C 0.58661 0.75598 0.9922 0.0
C493 C 0.57206 0.73892 1.00663 0.0
C494 C 0.5516 0.74913 0.02139 0.0
N495 N 0.50383 0.76777 0.05522 0.0
C496 C 0.50793 0.74555 0.05384 0.0
C497 C 0.48925 0.73213 0.06994 0.0
C498 C 0.47213 0.7466 0.08241 0.0
C499 C 0.48135 0.76813 0.0731 0.0
N500 N 0.49729 0.7909 1.0076 0.0
C501 C 0.45915 0.78842 0.96592 0.0
C502 C 0.47164 0.7692 0.9763 0.0
C503 C 0.4903 0.77078 0.99706 0.0
C504 C 0.46544 0.80876 0.97728 0.0
C505 C 0.48437 0.80962 0.99787 0.0
N506 N 0.55586 0.79532 0.06279 0.0
C507 C 0.58671 0.77788 0.09431 0.0
C508 C 0.59698 0.79884 0.10233 0.0
C509 C 0.58621 0.81797 0.09015 0.0
C510 C 0.56597 0.81585 0.07065 0.0
C511 C 0.56639 0.77651 0.0747 0.0
H512 H 0.55873 0.83113 0.06231 0.0
H513 H 0.55955 0.76004 0.06953 0.0
H514 H 0.49906 0.75552 1.00407 0.0
H515 H 0.48854 0.82571 1.00531 0.0
C516 C 0.52277 0.84835 0.03251 0.0
C517 C 0.46859 0.78834 0.08241 0.0
C518 C 0.58323 0.7977 0.98695 0.0
C519 C 0.53046 0.73787 0.03815 0.0
H520 H 0.44996 0.83216 0.09351 0.0
H521 H 0.47963 0.86522 0.06646 0.0
H522 H 0.56194 0.87197 0.99555 0.0
H523 H 0.59464 0.84413 0.97058 0.0
H524 H 0.60435 0.75408 0.97817 0.0
H525 H 0.57566 0.72115 1.00614 0.0
H526 H 0.48852 0.714 0.07262 0.0
H527 H 0.45507 0.74183 0.09699 0.0
H528 H 0.46703 0.75296 0.96848 0.0
H529 H 0.4565 0.82417 0.96988 0.0
H530 H 0.59459 0.76251 0.10287 0.0
H531 H 0.593 0.83464 0.09583 0.0
C532 C 0.81984 1.00246 0.57907 0.0
C533 C 0.84701 0.9951 0.58684 0.0
C534 C 0.86856 1.00831 0.57365 0.0
C535 C 0.85342 0.02289 0.55859 0.0
N536 N 0.82346 0.02004 0.5616 0.0
Co537 Co 0.79307 0.03683 0.54231 0.0
N538 N 0.82483 0.05505 0.52142 0.0
C539 C 0.85462 0.05357 0.52287 0.0
C540 C 0.8709 0.06885 0.50698 0.0
C541 C 0.85033 0.08109 0.49487 0.0
C542 C 0.82255 0.07248 0.50408 0.0
N543 N 0.76269 0.05352 0.52294 0.0
C544 C 0.7663 0.07107 0.50545 0.0
C545 C 0.73918 0.07805 0.49715 0.0
C546 C 0.71761 0.06475 0.51021 0.0
C547 C 0.73272 0.05041 0.52561 0.0
N548 N 0.76133 0.01871 0.56327 0.0
C549 C 0.73154 0.02045 0.56214 0.0
C550 C 0.7153 1.00538 0.57834 0.0
C551 C 0.73589 0.99304 0.59031 0.0
C552 C 0.76361 1.00128 0.58059 0.0
N553 N 0.79368 0.06039 0.56809 0.0
C554 C 0.79472 0.09606 0.60196 0.0
C555 C 0.76785 0.08662 0.59361 0.0
C556 C 0.76783 0.06896 0.57696 0.0
C557 C 0.82103 0.08688 0.59345 0.0
C558 C 0.82001 0.06924 0.57675 0.0
N559 N 0.79245 1.01328 0.51651 0.0
C560 C 0.76512 0.98608 0.49206 0.0
C561 C 0.79151 0.97778 0.48245 0.0
C562 C 0.81838 0.98797 0.48983 0.0
C563 C 0.81834 1.00553 0.50663 0.0
C564 C 0.76609 1.00365 0.50882 0.0
H565 H 0.83958 1.01242 0.51151 0.0
H566 H 0.74516 1.00894 0.51559 0.0
H567 H 0.7466 0.06276 0.57122 0.0
H568 H 0.84087 0.0632 0.57091 0.0
C569 C 0.86664 0.03852 0.54041 0.0
C570 C 0.79131 0.99141 0.58776 0.0
C571 C 0.79478 0.08223 0.49685 0.0
C572 C 0.71948 0.03514 0.5442 0.0
H573 H 0.8509 0.98124 0.60017 0.0
H574 H 0.89241 1.007 0.57439 0.0
H575 H 0.89489 0.07125 0.50499 0.0
H576 H 0.85526 0.09513 0.48128 0.0
H577 H 0.73542 0.09169 0.48348 0.0
H578 H 0.69375 0.06587 0.50919 0.0
H579 H 0.69131 1.00316 0.58059 0.0
H580 H 0.73106 0.97919 0.60419 0.0
H581 H 0.74679 0.09315 0.59937 0.0
H582 H 0.84246 0.09319 0.59968 0.0
H583 H 0.74365 0.97872 0.48718 0.0
H584 H 0.83949 0.98253 0.48259 0.0
C585 C 0.48741 0.29281 0.07712 0.0
C586 C 0.47716 0.31318 0.08434 0.0
C587 C 0.49181 0.3295 0.06885 0.0
C588 C 0.51017 0.31823 0.05318 0.0
N589 N 0.50786 0.29565 0.05744 0.0
Co590 Co 0.53172 0.27301 0.03986 0.0
N591 N 0.55554 0.29721 0.01902 0.0
C592 C 0.55293 0.31965 0.01985 0.0
C593 C 0.57175 0.33208 1.00289 0.0
C594 C 0.58712 0.31668 0.99023 0.0
C595 C 0.57674 0.29564 1.00026 0.0
N596 N 0.55545 0.25031 0.02223 0.0
C597 C 0.57647 0.2532 1.00302 0.0
C598 C 0.58678 0.23285 0.9958 0.0
C599 C 0.57146 0.21646 1.01071 0.0
C600 C 0.55278 0.22769 0.02615 0.0
N601 N 0.50804 0.2488 0.06082 0.0
C602 C 0.51038 0.22633 0.05983 0.0
C603 C 0.4918 0.21394 0.07704 0.0
C604 C 0.47704 0.2294 0.09013 0.0
C605 C 0.48761 0.25042 0.08017 0.0
N606 N 0.50218 0.27141 1.01239 0.0
C607 C 0.46558 0.26875 0.96973 0.0
C608 C 0.47422 0.24938 0.98286 0.0
C609 C 0.49217 0.25107 1.00395 0.0
C610 C 0.47437 0.28952 0.97912 0.0
C611 C 0.4925 0.29046 1.00032 0.0
N612 N 0.56132 0.27456 0.06721 0.0
C613 C 0.59114 0.2558 0.09841 0.0
C614 C 0.6011 0.2763 0.10778 0.0
C615 C 0.59124 0.29598 0.09609 0.0
C616 C 0.57149 0.29474 0.07604 0.0
C617 C 0.57155 0.25533 0.07831 0.0
H618 H 0.56451 0.31031 0.06816 0.0
H619 H 0.56486 0.23914 0.07222 0.0
H620 H 0.49807 0.23562 0.01278 0.0
H621 H 0.49891 0.30679 1.00624 0.0
C622 C 0.53149 0.32845 0.0358 0.0
C623 C 0.47842 0.27136 0.09049 0.0
C624 C 0.58677 0.27472 0.99054 0.0
C625 C 0.53153 0.21743 0.04363 0.0
H626 H 0.46136 0.31606 0.09967 0.0
H627 H 0.49009 0.34749 0.06957 0.0
H628 H 0.57355 0.35017 0.99967 0.0
H629 H 0.60366 0.32048 0.97496 0.0
H630 H 0.60335 0.23013 0.98098 0.0
H631 H 0.57327 0.19848 1.01001 0.0
H632 H 0.48984 0.19585 0.08017 0.0
H633 H 0.46081 0.22568 0.10566 0.0
H634 H 0.46736 0.23285 0.97677 0.0
H635 H 0.46815 0.30504 0.96967 0.0
H636 H 0.59857 0.24007 0.10642 0.0
H637 H 0.59819 0.3123 0.10271 0.0
H638 H 0.19506 0.39657 0.34416 0.0
H639 H 0.14546 0.36692 0.2841 0.0
H640 H 0.11196 0.39774 0.28409 0.0
H641 H 0.09733 0.43366 0.30025 0.0
H642 H 0.14656 0.46356 0.36029 0.0
H643 H 0.17948 0.4322 0.3612 0.0
C644 C 0.17694 0.39688 0.33105 0.0
C645 C 0.17284 0.37936 0.31418 0.0
C646 C 0.15768 0.41476 0.33109 0.0
C647 C 0.14897 0.37994 0.29754 0.0
C648 C 0.12989 0.39768 0.29738 0.0
C649 C 0.11536 0.43338 0.31345 0.0
C650 C 0.11955 0.45105 0.33006 0.0
C651 C 0.13414 0.41526 0.31392 0.0
C652 C 0.1427 0.45016 0.34739 0.0
C653 C 0.16163 0.43226 0.34784 0.0
H654 H 0.18697 0.65196 0.74015 0.0
H655 H 0.11716 0.69337 0.76561 0.0
H656 H 0.08061 0.66187 0.76314 0.0
H657 H 0.06854 0.62195 0.75517 0.0
H658 H 0.13823 0.58047 0.73035 0.0
H659 H 0.17483 0.6124 0.73142 0.0
C660 C 0.16379 0.6541 0.74526 0.0
C661 C 0.15494 0.67509 0.75309 0.0
C662 C 0.14287 0.6358 0.74404 0.0
C663 C 0.12464 0.67756 0.75921 0.0
C664 C 0.10371 0.65947 0.758 0.0
C665 C 0.09177 0.62005 0.74996 0.0
C666 C 0.10089 0.59905 0.74272 0.0
C667 C 0.11258 0.63848 0.75064 0.0
C668 C 0.13091 0.59658 0.73596 0.0
C669 C 0.15175 0.6148 0.73659 0.0
H670 H 0.86634 0.65946 0.29307 0.0
H671 H 0.90951 0.69399 0.35331 0.0
H672 H 0.94168 0.66262 0.36008 0.0
H673 H 0.95911 0.62594 0.34756 0.0
H674 H 0.91592 0.59201 0.28686 0.0
H675 H 0.88271 0.62272 0.28134 0.0
C676 C 0.88293 0.66025 0.30757 0.0
C677 C 0.88554 0.67922 0.32251 0.0
C678 C 0.90155 0.64226 0.31119 0.0
C679 C 0.90677 0.6796 0.34162 0.0
C680 C 0.92533 0.66169 0.34541 0.0
C681 C 0.94221 0.62516 0.33333 0.0
C682 C 0.94024 0.6067 0.31752 0.0
C683 C 0.92308 0.64299 0.33018 0.0
C684 C 0.91833 0.60612 0.29901 0.0
C685 C 0.89919 0.62365 0.29591 0.0
H686 H 0.93002 0.38783 0.73433 0.0
H687 H 0.84572 0.41245 0.75858 0.0
H688 H 0.86877 0.45028 0.76054 0.0
H689 H 0.91289 0.47679 0.75461 0.0
H690 H 0.99689 0.45234 0.73001 0.0
H691 H 0.97401 0.41419 0.72854 0.0
C692 C 0.91661 0.40149 0.73986 0.0
C693 C 0.88612 0.39718 0.74632 0.0
C694 C 0.93 0.4233 0.74082 0.0
C695 C 0.86928 0.41511 0.75383 0.0
C696 C 0.88242 0.43683 0.75481 0.0
C697 C 0.92608 0.463 0.74909 0.0
C698 C 0.95648 0.46716 0.74259 0.0
C699 C 0.91274 0.44115 0.74832 0.0
C700 C 0.97345 0.44936 0.73518 0.0
C701 C 0.96037 0.42761 0.73434 0.0
H702 H 0.2441 0.17325 0.44372 0.0
H703 H 0.28332 0.14534 0.37689 0.0
H704 H 0.28547 0.10905 0.40009 0.0
H705 H 0.27578 0.08486 0.43945 0.0
H706 H 0.23836 0.11312 0.50652 0.0
H707 H 0.23627 0.14965 0.48334 0.0
C708 C 0.25352 0.15937 0.43426 0.0
C709 C 0.2634 0.16219 0.40844 0.0
C710 C 0.25504 0.13853 0.44783 0.0
C711 C 0.27504 0.14371 0.39654 0.0
C712 C 0.27648 0.12293 0.40987 0.0
C713 C 0.26744 0.09914 0.44894 0.0
C714 C 0.2574 0.09647 0.47463 0.0
C715 C 0.26645 0.12009 0.43549 0.0
C716 C 0.24629 0.11491 0.48676 0.0
C717 C 0.24509 0.13574 0.47351 0.0
H718 H 0.39785 0.77812 0.85975 0.0
H719 H 0.33687 0.82229 0.89402 0.0
H720 H 0.36496 0.82162 0.93306 0.0
H721 H 0.40766 0.80934 0.95718 0.0
H722 H 0.46892 0.76539 0.92286 0.0
H723 H 0.4399 0.76504 0.88433 0.0
C724 C 0.39077 0.78765 0.87574 0.0
C725 C 0.36528 0.80026 0.87388 0.0
C726 C 0.40708 0.78722 0.89819 0.0
C727 C 0.35618 0.81224 0.89497 0.0
C728 C 0.37235 0.81198 0.91728 0.0
C729 C 0.41472 0.79974 0.94124 0.0
C730 C 0.44052 0.78746 0.94295 0.0
C731 C 0.39796 0.79966 0.91906 0.0
C732 C 0.44902 0.77482 0.92223 0.0
C733 C 0.43253 0.77472 0.90008 0.0
H734 H 0.77096 0.90131 0.40362 0.0
H735 H 0.84655 0.87555 0.44165 0.0
H736 H 0.84831 0.90759 0.46877 0.0
H737 H 0.82815 0.94269 0.48231 0.0
H738 H 0.75346 0.96927 0.44375 0.0
H739 H 0.75166 0.93726 0.41639 0.0
C740 C 0.78799 0.9028 0.41767 0.0
C741 C 0.80842 0.88582 0.42062 0.0
C742 C 0.78902 0.92144 0.43325 0.0
C743 C 0.83014 0.88804 0.43919 0.0
C744 C 0.83132 0.90647 0.45465 0.0
C745 C 0.81168 0.94168 0.46772 0.0
C746 C 0.79097 0.95848 0.46522 0.0
C747 C 0.81082 0.92324 0.45194 0.0
C748 C 0.76947 0.95652 0.44643 0.0
C749 C 0.76851 0.93824 0.43064 0.0
H750 H 0.65303 0.2782 0.88204 0.0
H751 H 0.729 0.29054 0.92849 0.0
H752 H 0.69685 0.28717 0.96698 0.0
H753 H 0.64676 0.28178 0.98766 0.0
H754 H 0.57084 0.26902 0.9417 0.0
H755 H 0.60317 0.27121 0.9029 0.0
C756 C 0.6626 0.27984 0.9006 0.0
C757 C 0.69343 0.28481 0.90226 0.0
C758 C 0.64392 0.27787 0.92279 0.0
C759 C 0.70534 0.28711 0.92654 0.0
C760 C 0.68697 0.28509 0.94862 0.0
C761 C 0.6375 0.2794 0.96909 0.0
C762 C 0.60667 0.27533 0.96728 0.0
C763 C 0.65621 0.28072 0.94698 0.0
C764 C 0.59461 0.27221 0.94331 0.0
C765 C 0.61307 0.27348 0.92122 0.0
H766 H 0.23918 0.90981 0.6718 0.0
H767 H 0.27817 0.87066 0.61359 0.0
H768 H 0.28179 0.90354 0.58392 0.0
H769 H 0.27267 0.94336 0.57389 0.0
H770 H 0.23448 0.98278 0.63193 0.0
H771 H 0.23197 0.95006 0.66232 0.0
C772 C 0.24882 0.90853 0.65274 0.0
C773 C 0.25815 0.88765 0.64497 0.0
C774 C 0.25088 0.92759 0.63568 0.0
C775 C 0.2703 0.88635 0.62003 0.0
C776 C 0.27253 0.9052 0.60304 0.0
C777 C 0.26396 0.9447 0.59326 0.0
C778 C 0.25363 0.96528 0.60075 0.0
C779 C 0.26263 0.92585 0.61054 0.0
C780 C 0.24241 0.96699 0.62583 0.0
C781 C 0.241 0.94832 0.64315 0.0
H782 H 0.69498 0.8229 0.18213 0.0
H783 H 0.65071 0.76576 0.22369 0.0
H784 H 0.61727 0.76028 0.18849 0.0
H785 H 0.59916 0.77269 0.14659 0.0
H786 H 0.64394 0.82967 0.10497 0.0
H787 H 0.67809 0.83445 0.13965 0.0
C788 C 0.67794 0.8093 0.18355 0.0
C789 C 0.67537 0.79482 0.20563 0.0
C790 C 0.65865 0.80631 0.16326 0.0
C791 C 0.65344 0.77704 0.20688 0.0
C792 C 0.63416 0.77397 0.18679 0.0
C793 C 0.6166 0.78599 0.14492 0.0
C794 C 0.61867 0.80091 0.12317 0.0
C795 C 0.63641 0.78859 0.16495 0.0
C796 C 0.64132 0.81819 0.12162 0.0
C797 C 0.66104 0.82087 0.14141 0.0
H798 H 0.81343 0.18489 0.66305 0.0
H799 H 0.73449 0.15595 0.7037 0.0
H800 H 0.73407 0.12384 0.67669 0.0
H801 H 0.75612 0.10363 0.64172 0.0
H802 H 0.83472 0.13255 0.60054 0.0
H803 H 0.83563 0.1645 0.62791 0.0
C804 C 0.79625 0.17149 0.66613 0.0
C805 C 0.7739 0.17305 0.68535 0.0
C806 C 0.79616 0.15288 0.6505 0.0
C807 C 0.75168 0.15552 0.68881 0.0
C808 C 0.75152 0.13701 0.67346 0.0
C809 C 0.77333 0.11699 0.63852 0.0
C810 C 0.79533 0.1155 0.619 0.0
C811 C 0.77357 0.13552 0.65418 0.0
C812 C 0.81772 0.13292 0.61559 0.0
C813 C 0.81815 0.15136 0.63115 0.0
H814 H 0.42613 0.26071 0.20399 0.0
H815 H 0.34608 0.27837 0.16655 0.0
H816 H 0.3736 0.28256 0.1255 0.0
H817 H 0.4202 0.27964 0.09973 0.0
H818 H 0.49975 0.26132 0.1371 0.0
H819 H 0.47267 0.25858 0.17858 0.0
C820 C 0.41463 0.26537 0.18685 0.0
C821 C 0.38398 0.26913 0.18846 0.0
C822 C 0.43053 0.26751 0.16323 0.0
C823 C 0.36967 0.27559 0.16603 0.0
C824 C 0.38536 0.27784 0.14247 0.0
C825 C 0.43149 0.27522 0.11706 0.0
C826 C 0.46183 0.27075 0.11558 0.0
C827 C 0.41573 0.27365 0.14078 0.0
C828 C 0.47638 0.26487 0.13798 0.0
C829 C 0.46091 0.2633 0.16161 0.0
H830 H 0.89347 0.69017 0.73121 0.0
H831 H 0.8522 0.66553 0.80332 0.0
H832 H 0.87908 0.6312 0.80149 0.0
H833 H 0.91457 0.60818 0.7798 0.0
H834 H 0.95742 0.63304 0.70836 0.0
H835 H 0.92913 0.66679 0.70925 0.0
C836 C 0.89021 0.6772 0.74641 0.0
C837 C 0.87099 0.68058 0.76747 0.0
C838 C 0.90592 0.6574 0.74532 0.0
C839 C 0.86721 0.66361 0.78709 0.0
C840 C 0.88246 0.64388 0.78601 0.0
C841 C 0.918 0.62102 0.7645 0.0
C842 C 0.93826 0.61789 0.74407 0.0
C843 C 0.90205 0.64065 0.76533 0.0
C844 C 0.94175 0.63468 0.72419 0.0
C845 C 0.92572 0.65414 0.72477 0.0
H846 H 0.86698 0.41691 0.30935 0.0
H847 H 0.93107 0.37055 0.33569 0.0
H848 H 0.96738 0.40185 0.34058 0.0
H849 H 0.98185 0.4425 0.33557 0.0
H850 H 0.91823 0.48854 0.30825 0.0
H851 H 0.88096 0.45734 0.30518 0.0
C852 C 0.88894 0.41359 0.31603 0.0
C853 C 0.8962 0.39129 0.32202 0.0
C854 C 0.90988 0.43166 0.31847 0.0
C855 C 0.92464 0.38748 0.33117 0.0
C856 C 0.94555 0.40538 0.3338 0.0
C857 C 0.95973 0.44557 0.32908 0.0
C858 C 0.95263 0.46763 0.32205 0.0
C859 C 0.93853 0.42753 0.32729 0.0
C860 C 0.92403 0.47161 0.31367 0.0
C861 C 0.9028 0.4538 0.31192 0.0
H862 H 0.18945 0.40598 0.72834 0.0
H863 H 0.13037 0.36779 0.78276 0.0
H864 H 0.09608 0.39813 0.78214 0.0
H865 H 0.08337 0.43602 0.76712 0.0
H866 H 0.14255 0.47445 0.71305 0.0
H867 H 0.17618 0.44362 0.71261 0.0
C868 C 0.1691 0.40431 0.74012 0.0
C869 C 0.16258 0.38455 0.75557 0.0
C870 C 0.14948 0.42194 0.7398 0.0
C871 C 0.13585 0.38261 0.77041 0.0
C872 C 0.11629 0.40006 0.77023 0.0
C873 C 0.10371 0.4377 0.75534 0.0
C874 C 0.11044 0.4576 0.74023 0.0
C875 C 0.12297 0.41987 0.75516 0.0
C876 C 0.13666 0.45929 0.72473 0.0
C877 C 0.156 0.44169 0.72455 0.0
H878 H 0.12363 0.67881 0.33586 0.0
H879 H 0.20852 0.65351 0.31448 0.0
H880 H 0.18519 0.61582 0.31193 0.0
H881 H 0.14063 0.58964 0.31653 0.0
H882 H 0.05604 0.61478 0.33827 0.0
H883 H 0.07922 0.65277 0.34035 0.0
C884 C 0.1371 0.66504 0.33083 0.0
C885 C 0.16785 0.66912 0.32534 0.0
C886 C 0.12355 0.64331 0.32953 0.0
C887 C 0.18477 0.65103 0.31846 0.0
C888 C 0.17147 0.62939 0.31716 0.0
C889 C 0.12739 0.60354 0.32156 0.0
C890 C 0.09672 0.59962 0.32707 0.0
C891 C 0.1409 0.6253 0.32268 0.0
C892 C 0.07968 0.61757 0.33386 0.0
C893 C 0.09293 0.63923 0.33505 0.0
H894 H 0.78458 0.89065 0.6321 0.0
H895 H 0.81019 0.92336 0.70024 0.0
H896 H 0.80951 0.96004 0.67754 0.0
H897 H 0.80283 0.98303 0.63783 0.0
H898 H 0.77761 0.95042 0.56976 0.0
H899 H 0.77712 0.91357 0.59272 0.0
C900 C 0.79017 0.90578 0.64196 0.0
C901 C 0.79744 0.90414 0.6679 0.0
C902 C 0.78987 0.92689 0.62873 0.0
C903 C 0.80415 0.92404 0.68042 0.0
C904 C 0.80396 0.94506 0.66739 0.0
C905 C 0.7972 0.96778 0.62817 0.0
C906 C 0.79041 0.96924 0.60221 0.0
C907 C 0.79699 0.94671 0.64152 0.0
C908 C 0.78297 0.94953 0.58975 0.0
C909 C 0.78273 0.92853 0.60287 0.0
H910 H 0.70031 0.28836 0.18999 0.0
H911 H 0.64826 0.23222 0.22663 0.0
H912 H 0.61361 0.23294 0.19195 0.0
H913 H 0.59821 0.24902 0.15099 0.0
H914 H 0.6497 0.30514 0.11388 0.0
H915 H 0.68388 0.30527 0.1492 0.0
C916 C 0.68123 0.27643 0.19051 0.0
C917 C 0.67719 0.26009 0.21084 0.0
C918 C 0.66117 0.27696 0.17043 0.0
C919 C 0.65236 0.24468 0.21104 0.0
C920 C 0.63237 0.24516 0.19126 0.0
C921 C 0.61703 0.2612 0.1505 0.0
C922 C 0.62144 0.27694 0.12967 0.0
C923 C 0.63669 0.26107 0.17076 0.0
C924 C 0.6456 0.29292 0.12971 0.0
C925 C 0.66528 0.29292 0.14986 0.0
H926 H 0.22419 0.15771 0.6771 0.0
H927 H 0.29837 0.19402 0.63685 0.0
H928 H 0.30398 0.1628 0.60891 0.0
H929 H 0.28653 0.12576 0.59468 0.0
H930 H 0.21274 0.08928 0.63544 0.0
H931 H 0.20799 0.12009 0.66393 0.0
C932 C 0.24153 0.15883 0.66216 0.0
C933 C 0.26077 0.17827 0.65911 0.0
C934 C 0.24458 0.14082 0.64605 0.0
C935 C 0.28342 0.17922 0.63986 0.0
C936 C 0.28654 0.1614 0.62374 0.0
C937 C 0.26965 0.12437 0.60999 0.0
C938 C 0.24988 0.10517 0.61264 0.0
C939 C 0.26713 0.14216 0.62654 0.0
C940 C 0.22793 0.10395 0.6325 0.0
C941 C 0.22528 0.12154 0.64897 0.0
H942 H 0.35324 0.77202 0.15438 0.0
H943 H 0.41416 0.79628 0.20997 0.0
H944 H 0.45371 0.80186 0.17686 0.0
H945 H 0.47169 0.79852 0.13218 0.0
H946 H 0.4111 0.77361 0.07699 0.0
H947 H 0.37084 0.76925 0.10984 0.0
C948 C 0.37521 0.7784 0.15932 0.0
C949 C 0.38063 0.78364 0.18473 0.0
C950 C 0.39798 0.78132 0.14024 0.0
C951 C 0.40915 0.79233 0.19058 0.0
C952 C 0.43189 0.79538 0.17168 0.0
C953 C 0.44958 0.79222 0.12749 0.0
C954 C 0.44417 0.7863 0.10239 0.0
C955 C 0.42664 0.78977 0.14649 0.0
C956 C 0.41559 0.77817 0.09629 0.0
C957 C 0.39266 0.77571 0.11503 0.0
H958 H 0.7943 0.18286 0.45285 0.0
H959 H 0.81793 0.15141 0.38318 0.0
H960 H 0.81521 0.11464 0.40599 0.0
H961 H 0.80709 0.09125 0.44613 0.0
H962 H 0.7838 0.12263 0.51568 0.0
H963 H 0.78561 0.15953 0.49273 0.0
C964 C 0.79904 0.16799 0.44267 0.0
C965 C 0.80632 0.17 0.41628 0.0
C966 C 0.79755 0.14684 0.45596 0.0
C967 C 0.81191 0.15042 0.40339 0.0
C968 C 0.81055 0.12936 0.41646 0.0
C969 C 0.80242 0.10625 0.45611 0.0
C970 C 0.79547 0.10443 0.48247 0.0
C971 C 0.80349 0.12735 0.44275 0.0
C972 C 0.78926 0.1238 0.49536 0.0
C973 C 0.79032 0.14483 0.48226 0.0
H974 H 0.40602 0.24757 0.8655 0.0
H975 H 0.34753 0.29806 0.88977 0.0
H976 H 0.37666 0.30328 0.92776 0.0
H977 H 0.41787 0.29243 0.95506 0.0
H978 H 0.47528 0.24126 0.93071 0.0
H979 H 0.44709 0.23709 0.8922 0.0
C980 C 0.3994 0.25958 0.87919 0.0
C981 C 0.37444 0.27229 0.87473 0.0
C982 C 0.41599 0.26228 0.90116 0.0
C983 C 0.36676 0.28817 0.89248 0.0
C984 C 0.38332 0.29107 0.91435 0.0
C985 C 0.42432 0.2805 0.94122 0.0
C986 C 0.44853 0.26704 0.94595 0.0
C987 C 0.4079 0.27812 0.91899 0.0
C988 C 0.45645 0.25156 0.92784 0.0
C989 C 0.44043 0.24924 0.9057 0.0
H990 H 0.24191 0.88007 0.41336 0.0
H991 H 0.32375 0.90762 0.37623 0.0
H992 H 0.32352 0.93971 0.4033 0.0
H993 H 0.29987 0.96041 0.43716 0.0
H994 H 0.21837 0.93271 0.4748 0.0
H995 H 0.2184 0.90072 0.44757 0.0
C996 C 0.25959 0.89316 0.41107 0.0
C997 C 0.28289 0.89125 0.39281 0.0
C998 C 0.25933 0.91173 0.42672 0.0
C999 C 0.30577 0.90835 0.39036 0.0
C1000 C 0.30558 0.92684 0.40575 0.0
C1001 C 0.28224 0.9473 0.43963 0.0
C1002 C 0.2591 0.94919 0.45805 0.0
C1003 C 0.28251 0.92872 0.42404 0.0
C1004 C 0.23625 0.93205 0.46056 0.0
C1005 C 0.23632 0.91359 0.44508 0.0
H1006 H 0.69073 0.81504 0.90629 0.0
H1007 H 0.62811 0.78127 0.85859 0.0
H1008 H 0.59187 0.77642 0.89443 0.0
H1009 H 0.57718 0.78294 0.93916 0.0
H1010 H 0.63982 0.81628 0.98694 0.0
H1011 H 0.67673 0.82038 0.95131 0.0
C1012 C 0.66912 0.80668 0.90373 0.0
C1013 C 0.66217 0.79859 0.87973 0.0
C1014 C 0.64833 0.80399 0.92444 0.0
C1015 C 0.6342 0.78747 0.87688 0.0
C1016 C 0.61337 0.78481 0.89734 0.0
C1017 C 0.599 0.79101 0.94166 0.0
C1018 C 0.60585 0.79949 0.96542 0.0
C1019 C 0.62009 0.79314 0.92115 0.0
C1020 C 0.63414 0.80981 0.96867 0.0
C1021 C 0.65517 0.81212 0.94835 0.0
loop_
_geom_bond_atom_site_label_1
_geom_bond_atom_site_label_2
_geom_bond_distance
_geom_bond_site_symmetry_2
_ccdc_geom_bond_type
C0 C1 1.264 . S
C0 C5 1.479 . S
C0 C10 1.465 . S
C1 C0 1.264 . S
C1 C3 1.339 . S
C1 H28 0.931 . S
C2 C3 1.395 . S
C2 C4 1.320 . S
C3 C1 1.339 . S
C3 C2 1.395 . S
C3 H29 0.929 . S
C4 C2 1.320 . S
C4 C5 1.405 . S
C4 H30 0.930 . S
C5 C0 1.479 . S
C5 C4 1.405 . S
C5 H31 0.931 . S
U6 O7 2.454 . S
U6 O8 2.458 . S
U6 C9 2.984 . S
U6 C10 2.847 . S
U6 C23 2.882 . S
U6 O24 2.441 . S
U6 O25 2.420 . S
U6 O26 2.455 . S
U6 O27 2.449 . S
O7 U6 2.454 . S
O7 C9 1.353 . S
O8 U6 2.458 . S
O8 C9 1.286 . S
C9 U6 2.984 . S
C9 O7 1.353 . S
C9 O8 1.286 . S
C9 C11 1.363 . S
C10 C0 1.465 . S
C10 U6 2.847 . S
C10 O24 1.249 . S
C10 O25 1.202 . S
C11 C9 1.363 . S
C11 C13 1.408 . S
C11 C16 1.342 . S
C12 C13 1.310 . S
C12 C15 1.461 . S
C12 H32 0.932 . S
C13 C11 1.408 . S
C13 C12 1.310 . S
C13 H33 0.930 . S
C14 C15 1.474 . S
C14 C16 1.285 . S
C14 H34 0.929 . S
C15 C12 1.461 . S
C15 C14 1.474 . S
C16 C11 1.342 . S
C16 C14 1.285 . S
C16 H35 0.930 . S
C17 C20 1.424 . S
C17 C22 1.245 . S
C17 C23 1.428 . S
C18 C21 1.260 . S
C18 C22 1.477 . S
C18 H36 0.932 . S
C19 C20 1.384 . S
C19 C21 1.479 . S
C19 H37 0.929 . S
C20 C17 1.424 . S
C20 C19 1.384 . S
C20 H38 0.928 . S
C21 C18 1.260 . S
C21 C19 1.479 . S
C22 C17 1.245 . S
C22 C18 1.477 . S
C22 H39 0.932 . S
C23 U6 2.882 . S
C23 C17 1.428 . S
C23 O26 1.301 . S
C23 O27 1.282 . S
O24 U6 2.441 . S
O24 C10 1.249 . S
O25 U6 2.420 . S
O25 C10 1.202 . S
O26 U6 2.455 . S
O26 C23 1.301 . S
O27 U6 2.449 . S
O27 C23 1.282 . S
H28 C1 0.931 . S
H29 C3 0.929 . S
H30 C4 0.930 . S
H31 C5 0.931 . S
H32 C12 0.932 . S
H33 C13 0.930 . S
H34 C14 0.929 . S
H35 C16 0.930 . S
H36 C18 0.932 . S
H37 C19 0.929 . S
H38 C20 0.928 . S
H39 C22 0.932 . S
C40 C41 1.264 . S
C40 C45 1.479 . S
C40 C50 1.465 . S
C41 C40 1.264 . S
C41 C43 1.339 . S
C41 H68 0.931 . S
C42 C43 1.395 . S
C42 C44 1.320 . S
C43 C41 1.339 . S
C43 C42 1.395 . S
C43 H69 0.929 . S
C44 C42 1.320 . S
C44 C45 1.405 . S
C44 H70 0.930 . S
C45 C40 1.479 . S
C45 C44 1.405 . S
C45 H71 0.931 . S
U46 O47 2.454 . S
U46 O48 2.458 . S
U46 C49 2.984 . S
U46 C50 2.847 . S
U46 C63 2.882 . S
U46 O64 2.441 . S
U46 O65 2.420 . S
U46 O66 2.455 . S
U46 O67 2.449 . S
O47 U46 2.454 . S
O47 C49 1.353 . S
O48 U46 2.458 . S
O48 C49 1.286 . S
C49 U46 2.984 . S
C49 O47 1.353 . S
C49 O48 1.286 . S
C49 C51 1.363 . S
C50 C40 1.465 . S
C50 U46 2.847 . S
C50 O64 1.249 . S
C50 O65 1.202 . S
C51 C49 1.363 . S
C51 C53 1.408 . S
C51 C56 1.342 . S
C52 C53 1.310 . S
C52 C55 1.461 . S
C52 H72 0.932 . S
C53 C51 1.408 . S
C53 C52 1.310 . S
C53 H73 0.930 . S
C54 C55 1.474 . S
C54 C56 1.285 . S
C54 H74 0.929 . S
C55 C52 1.461 . S
C55 C54 1.474 . S
C56 C51 1.342 . S
C56 C54 1.285 . S
C56 H75 0.930 . S
C57 C60 1.424 . S
C57 C62 1.245 . S
C57 C63 1.428 . S
C58 C61 1.260 . S
C58 C62 1.477 . S
C58 H76 0.932 . S
C59 C60 1.384 . S
C59 C61 1.479 . S
C59 H77 0.929 . S
C60 C57 1.424 . S
C60 C59 1.384 . S
C60 H78 0.928 . S
C61 C58 1.260 . S
C61 C59 1.479 . S
C62 C57 1.245 . S
C62 C58 1.477 . S
C62 H79 0.932 . S
C63 U46 2.882 . S
C63 C57 1.428 . S
C63 O66 1.301 . S
C63 O67 1.282 . S
O64 U46 2.441 . S
O64 C50 1.249 . S
O65 U46 2.420 . S
O65 C50 1.202 . S
O66 U46 2.455 . S
O66 C63 1.301 . S
O67 U46 2.449 . S
O67 C63 1.282 . S
H68 C41 0.931 . S
H69 C43 0.929 . S
H70 C44 0.930 . S
H71 C45 0.931 . S
H72 C52 0.932 . S
H73 C53 0.930 . S
H74 C54 0.929 . S
H75 C56 0.930 . S
H76 C58 0.932 . S
H77 C59 0.929 . S
H78 C60 0.928 . S
H79 C62 0.932 . S
C80 C81 1.264 . S
C80 C85 1.479 . S
C80 C90 1.465 . S
C81 C80 1.264 . S
C81 C83 1.339 . S
C81 H108 0.931 . S
C82 C83 1.395 . S
C82 C84 1.320 . S
C83 C81 1.339 . S
C83 C82 1.395 . S
C83 H109 0.929 . S
C84 C82 1.320 . S
C84 C85 1.405 . S
C84 H110 0.930 . S
C85 C80 1.479 . S
C85 C84 1.405 . S
C85 H111 0.931 . S
U86 O87 2.454 . S
U86 O88 2.458 . S
U86 C89 2.984 . S
U86 C90 2.847 . S
U86 C103 2.882 . S
U86 O104 2.441 . S
U86 O105 2.420 . S
U86 O106 2.455 . S
U86 O107 2.449 . S
O87 U86 2.454 . S
O87 C89 1.353 . S
O88 U86 2.458 . S
O88 C89 1.286 . S
C89 U86 2.984 . S
C89 O87 1.353 . S
C89 O88 1.286 . S
C89 C91 1.363 . S
C90 C80 1.465 . S
C90 U86 2.847 . S
C90 O104 1.249 . S
C90 O105 1.202 . S
C91 C89 1.363 . S
C91 C93 1.408 . S
C91 C96 1.342 . S
C92 C93 1.310 . S
C92 C95 1.461 . S
C92 H112 0.932 . S
C93 C91 1.408 . S
C93 C92 1.310 . S
C93 H113 0.930 . S
C94 C95 1.474 . S
C94 C96 1.285 . S
C94 H114 0.929 . S
C95 C92 1.461 . S
C95 C94 1.474 . S
C96 C91 1.342 . S
C96 C94 1.285 . S
C96 H115 0.930 . S
C97 C100 1.424 . S
C97 C102 1.245 . S
C97 C103 1.428 . S
C98 C101 1.260 . S
C98 C102 1.477 . S
C98 H116 0.932 . S
C99 C100 1.384 . S
C99 C101 1.479 . S
C99 H117 0.929 . S
C100 C97 1.424 . S
C100 C99 1.384 . S
C100 H118 0.928 . S
C101 C98 1.260 . S
C101 C99 1.479 . S
C102 C97 1.245 . S
C102 C98 1.477 . S
C102 H119 0.932 . S
C103 U86 2.882 . S
C103 C97 1.428 . S
C103 O106 1.301 . S
C103 O107 1.282 . S
O104 U86 2.441 . S
O104 C90 1.249 . S
O105 U86 2.420 . S
O105 C90 1.202 . S
O106 U86 2.455 . S
O106 C103 1.301 . S
O107 U86 2.449 . S
O107 C103 1.282 . S
H108 C81 0.931 . S
H109 C83 0.929 . S
H110 C84 0.930 . S
H111 C85 0.931 . S
H112 C92 0.932 . S
H113 C93 0.930 . S
H114 C94 0.929 . S
H115 C96 0.930 . S
H116 C98 0.932 . S
H117 C99 0.929 . S
H118 C100 0.928 . S
H119 C102 0.932 . S
C120 C121 1.264 . S
C120 C125 1.479 . S
C120 C130 1.465 . S
C121 C120 1.264 . S
C121 C123 1.339 . S
C121 H148 0.931 . S
C122 C123 1.395 . S
C122 C124 1.320 . S
C123 C121 1.339 . S
C123 C122 1.395 . S
C123 H149 0.929 . S
C124 C122 1.320 . S
C124 C125 1.405 . S
C124 H150 0.930 . S
C125 C120 1.479 . S
C125 C124 1.405 . S
C125 H151 0.931 . S
U126 O127 2.454 . S
U126 O128 2.458 . S
U126 C129 2.984 . S
U126 C130 2.847 . S
U126 C143 2.882 . S
U126 O144 2.441 . S
U126 O145 2.420 . S
U126 O146 2.455 . S
U126 O147 2.449 . S
O127 U126 2.454 . S
O127 C129 1.353 . S
O128 U126 2.458 . S
O128 C129 1.286 . S
C129 U126 2.984 . S
C129 O127 1.353 . S
C129 O128 1.286 . S
C129 C131 1.363 . S
C130 C120 1.465 . S
C130 U126 2.847 . S
C130 O144 1.249 . S
C130 O145 1.202 . S
C131 C129 1.363 . S
C131 C133 1.408 . S
C131 C136 1.342 . S
C132 C133 1.310 . S
C132 C135 1.461 . S
C132 H152 0.932 . S
C133 C131 1.408 . S
C133 C132 1.310 . S
C133 H153 0.930 . S
C134 C135 1.474 . S
C134 C136 1.285 . S
C134 H154 0.929 . S
C135 C132 1.461 . S
C135 C134 1.474 . S
C136 C131 1.342 . S
C136 C134 1.285 . S
C136 H155 0.930 . S
C137 C140 1.424 . S
C137 C142 1.245 . S
C137 C143 1.428 . S
C138 C141 1.260 . S
C138 C142 1.477 . S
C138 H156 0.932 . S
C139 C140 1.384 . S
C139 C141 1.479 . S
C139 H157 0.929 . S
C140 C137 1.424 . S
C140 C139 1.384 . S
C140 H158 0.928 . S
C141 C138 1.260 . S
C141 C139 1.479 . S
C142 C137 1.245 . S
C142 C138 1.477 . S
C142 H159 0.932 . S
C143 U126 2.882 . S
C143 C137 1.428 . S
C143 O146 1.301 . S
C143 O147 1.282 . S
O144 U126 2.441 . S
O144 C130 1.249 . S
O145 U126 2.420 . S
O145 C130 1.202 . S
O146 U126 2.455 . S
O146 C143 1.301 . S
O147 U126 2.449 . S
O147 C143 1.282 . S
H148 C121 0.931 . S
H149 C123 0.929 . S
H150 C124 0.930 . S
H151 C125 0.931 . S
H152 C132 0.932 . S
H153 C133 0.930 . S
H154 C134 0.929 . S
H155 C136 0.930 . S
H156 C138 0.932 . S
H157 C139 0.929 . S
H158 C140 0.928 . S
H159 C142 0.932 . S
C160 C161 1.264 . S
C160 C165 1.479 . S
C160 C170 1.465 . S
C161 C160 1.264 . S
C161 C163 1.339 . S
C161 H188 0.931 . S
C162 C163 1.395 . S
C162 C164 1.320 . S
C163 C161 1.339 . S
C163 C162 1.395 . S
C163 H189 0.929 . S
C164 C162 1.320 . S
C164 C165 1.405 . S
C164 H190 0.930 . S
C165 C160 1.479 . S
C165 C164 1.405 . S
C165 H191 0.931 . S
U166 O167 2.454 . S
U166 O168 2.458 . S
U166 C169 2.984 . S
U166 C170 2.847 . S
U166 C183 2.882 . S
U166 O184 2.441 . S
U166 O185 2.420 . S
U166 O186 2.455 . S
U166 O187 2.449 . S
O167 U166 2.454 . S
O167 C169 1.353 . S
O168 U166 2.458 . S
O168 C169 1.286 . S
C169 U166 2.984 . S
C169 O167 1.353 . S
C169 O168 1.286 . S
C169 C171 1.363 . S
C170 C160 1.465 . S
C170 U166 2.847 . S
C170 O184 1.249 . S
C170 O185 1.202 . S
C171 C169 1.363 . S
C171 C173 1.408 . S
C171 C176 1.342 . S
C172 C173 1.310 . S
C172 C175 1.461 . S
C172 H192 0.932 . S
C173 C171 1.408 . S
C173 C172 1.310 . S
C173 H193 0.930 . S
C174 C175 1.474 . S
C174 C176 1.285 . S
C174 H194 0.929 . S
C175 C172 1.461 . S
C175 C174 1.474 . S
C176 C171 1.342 . S
C176 C174 1.285 . S
C176 H195 0.930 . S
C177 C180 1.424 . S
C177 C182 1.245 . S
C177 C183 1.428 . S
C178 C181 1.260 . S
C178 C182 1.477 . S
C178 H196 0.932 . S
C179 C180 1.384 . S
C179 C181 1.479 . S
C179 H197 0.929 . S
C180 C177 1.424 . S
C180 C179 1.384 . S
C180 H198 0.928 . S
C181 C178 1.260 . S
C181 C179 1.479 . S
C182 C177 1.245 . S
C182 C178 1.477 . S
C182 H199 0.932 . S
C183 U166 2.882 . S
C183 C177 1.428 . S
C183 O186 1.301 . S
C183 O187 1.282 . S
O184 U166 2.441 . S
O184 C170 1.249 . S
O185 U166 2.420 . S
O185 C170 1.202 . S
O186 U166 2.455 . S
O186 C183 1.301 . S
O187 U166 2.449 . S
O187 C183 1.282 . S
H188 C161 0.931 . S
H189 C163 0.929 . S
H190 C164 0.930 . S
H191 C165 0.931 . S
H192 C172 0.932 . S
H193 C173 0.930 . S
H194 C174 0.929 . S
H195 C176 0.930 . S
H196 C178 0.932 . S
H197 C179 0.929 . S
H198 C180 0.928 . S
H199 C182 0.932 . S
C200 C201 1.264 . S
C200 C205 1.479 . S
C200 C210 1.465 . S
C201 C200 1.264 . S
C201 C203 1.339 . S
C201 H228 0.931 . S
C202 C203 1.395 . S
C202 C204 1.320 . S
C203 C201 1.339 . S
C203 C202 1.395 . S
C203 H229 0.929 . S
C204 C202 1.320 . S
C204 C205 1.405 . S
C204 H230 0.930 . S
C205 C200 1.479 . S
C205 C204 1.405 . S
C205 H231 0.931 . S
U206 O207 2.454 . S
U206 O208 2.458 . S
U206 C209 2.984 . S
U206 C210 2.847 . S
U206 C223 2.882 . S
U206 O224 2.441 . S
U206 O225 2.420 . S
U206 O226 2.455 . S
U206 O227 2.449 . S
O207 U206 2.454 . S
O207 C209 1.353 . S
O208 U206 2.458 . S
O208 C209 1.286 . S
C209 U206 2.984 . S
C209 O207 1.353 . S
C209 O208 1.286 . S
C209 C211 1.363 . S
C210 C200 1.465 . S
C210 U206 2.847 . S
C210 O224 1.249 . S
C210 O225 1.202 . S
C211 C209 1.363 . S
C211 C213 1.408 . S
C211 C216 1.342 . S
C212 C213 1.310 . S
C212 C215 1.461 . S
C212 H232 0.932 . S
C213 C211 1.408 . S
C213 C212 1.310 . S
C213 H233 0.930 . S
C214 C215 1.474 . S
C214 C216 1.285 . S
C214 H234 0.929 . S
C215 C212 1.461 . S
C215 C214 1.474 . S
C216 C211 1.342 . S
C216 C214 1.285 . S
C216 H235 0.930 . S
C217 C220 1.424 . S
C217 C222 1.245 . S
C217 C223 1.428 . S
C218 C221 1.260 . S
C218 C222 1.477 . S
C218 H236 0.932 . S
C219 C220 1.384 . S
C219 C221 1.479 . S
C219 H237 0.929 . S
C220 C217 1.424 . S
C220 C219 1.384 . S
C220 H238 0.928 . S
C221 C218 1.260 . S
C221 C219 1.479 . S
C222 C217 1.245 . S
C222 C218 1.477 . S
C222 H239 0.932 . S
C223 U206 2.882 . S
C223 C217 1.428 . S
C223 O226 1.301 . S
C223 O227 1.282 . S
O224 U206 2.441 . S
O224 C210 1.249 . S
O225 U206 2.420 . S
O225 C210 1.202 . S
O226 U206 2.455 . S
O226 C223 1.301 . S
O227 U206 2.449 . S
O227 C223 1.282 . S
H228 C201 0.931 . S
H229 C203 0.929 . S
H230 C204 0.930 . S
H231 C205 0.931 . S
H232 C212 0.932 . S
H233 C213 0.930 . S
H234 C214 0.929 . S
H235 C216 0.930 . S
H236 C218 0.932 . S
H237 C219 0.929 . S
H238 C220 0.928 . S
H239 C222 0.932 . S
C240 C241 1.264 . S
C240 C245 1.479 . S
C240 C250 1.465 . S
C241 C240 1.264 . S
C241 C243 1.339 . S
C241 H268 0.931 . S
C242 C243 1.395 . S
C242 C244 1.320 . S
C243 C241 1.339 . S
C243 C242 1.395 . S
C243 H269 0.929 . S
C244 C242 1.320 . S
C244 C245 1.405 . S
C244 H270 0.930 . S
C245 C240 1.479 . S
C245 C244 1.405 . S
C245 H271 0.931 . S
U246 O247 2.454 . S
U246 O248 2.458 . S
U246 C249 2.984 . S
U246 C250 2.847 . S
U246 C263 2.882 . S
U246 O264 2.441 . S
U246 O265 2.420 . S
U246 O266 2.455 . S
U246 O267 2.449 . S
O247 U246 2.454 . S
O247 C249 1.353 . S
O248 U246 2.458 . S
O248 C249 1.286 . S
C249 U246 2.984 . S
C249 O247 1.353 . S
C249 O248 1.286 . S
C249 C251 1.363 . S
C250 C240 1.465 . S
C250 U246 2.847 . S
C250 O264 1.249 . S
C250 O265 1.202 . S
C251 C249 1.363 . S
C251 C253 1.408 . S
C251 C256 1.342 . S
C252 C253 1.310 . S
C252 C255 1.461 . S
C252 H272 0.932 . S
C253 C251 1.408 . S
C253 C252 1.310 . S
C253 H273 0.930 . S
C254 C255 1.474 . S
C254 C256 1.285 . S
C254 H274 0.929 . S
C255 C252 1.461 . S
C255 C254 1.474 . S
C256 C251 1.342 . S
C256 C254 1.285 . S
C256 H275 0.930 . S
C257 C260 1.424 . S
C257 C262 1.245 . S
C257 C263 1.428 . S
C258 C261 1.260 . S
C258 C262 1.477 . S
C258 H276 0.932 . S
C259 C260 1.384 . S
C259 C261 1.479 . S
C259 H277 0.929 . S
C260 C257 1.424 . S
C260 C259 1.384 . S
C260 H278 0.928 . S
C261 C258 1.260 . S
C261 C259 1.479 . S
C262 C257 1.245 . S
C262 C258 1.477 . S
C262 H279 0.932 . S
C263 U246 2.882 . S
C263 C257 1.428 . S
C263 O266 1.301 . S
C263 O267 1.282 . S
O264 U246 2.441 . S
O264 C250 1.249 . S
O265 U246 2.420 . S
O265 C250 1.202 . S
O266 U246 2.455 . S
O266 C263 1.301 . S
O267 U246 2.449 . S
O267 C263 1.282 . S
H268 C241 0.931 . S
H269 C243 0.929 . S
H270 C244 0.930 . S
H271 C245 0.931 . S
H272 C252 0.932 . S
H273 C253 0.930 . S
H274 C254 0.929 . S
H275 C256 0.930 . S
H276 C258 0.932 . S
H277 C259 0.929 . S
H278 C260 0.928 . S
H279 C262 0.932 . S
C280 C281 1.264 . S
C280 C285 1.479 . S
C280 C290 1.465 . S
C281 C280 1.264 . S
C281 C283 1.339 . S
C281 H308 0.931 . S
C282 C283 1.395 . S
C282 C284 1.320 . S
C283 C281 1.339 . S
C283 C282 1.395 . S
C283 H309 0.929 . S
C284 C282 1.320 . S
C284 C285 1.405 . S
C284 H310 0.930 . S
C285 C280 1.479 . S
C285 C284 1.405 . S
C285 H311 0.931 . S
U286 O287 2.454 . S
U286 O288 2.458 . S
U286 C289 2.984 . S
U286 C290 2.847 . S
U286 C303 2.882 . S
U286 O304 2.441 . S
U286 O305 2.420 . S
U286 O306 2.455 . S
U286 O307 2.449 . S
O287 U286 2.454 . S
O287 C289 1.353 . S
O288 U286 2.458 . S
O288 C289 1.286 . S
C289 U286 2.984 . S
C289 O287 1.353 . S
C289 O288 1.286 . S
C289 C291 1.363 . S
C290 C280 1.465 . S
C290 U286 2.847 . S
C290 O304 1.249 . S
C290 O305 1.202 . S
C291 C289 1.363 . S
C291 C293 1.408 . S
C291 C296 1.342 . S
C292 C293 1.310 . S
C292 C295 1.461 . S
C292 H312 0.932 . S
C293 C291 1.408 . S
C293 C292 1.310 . S
C293 H313 0.930 . S
C294 C295 1.474 . S
C294 C296 1.285 . S
C294 H314 0.929 . S
C295 C292 1.461 . S
C295 C294 1.474 . S
C296 C291 1.342 . S
C296 C294 1.285 . S
C296 H315 0.930 . S
C297 C300 1.424 . S
C297 C302 1.245 . S
C297 C303 1.428 . S
C298 C301 1.260 . S
C298 C302 1.477 . S
C298 H316 0.932 . S
C299 C300 1.384 . S
C299 C301 1.479 . S
C299 H317 0.929 . S
C300 C297 1.424 . S
C300 C299 1.384 . S
C300 H318 0.928 . S
C301 C298 1.260 . S
C301 C299 1.479 . S
C302 C297 1.245 . S
C302 C298 1.477 . S
C302 H319 0.932 . S
C303 U286 2.882 . S
C303 C297 1.428 . S
C303 O306 1.301 . S
C303 O307 1.282 . S
O304 U286 2.441 . S
O304 C290 1.249 . S
O305 U286 2.420 . S
O305 C290 1.202 . S
O306 U286 2.455 . S
O306 C303 1.301 . S
O307 U286 2.449 . S
O307 C303 1.282 . S
H308 C281 0.931 . S
H309 C283 0.929 . S
H310 C284 0.930 . S
H311 C285 0.931 . S
H312 C292 0.932 . S
H313 C293 0.930 . S
H314 C294 0.929 . S
H315 C296 0.930 . S
H316 C298 0.932 . S
H317 C299 0.929 . S
H318 C300 0.928 . S
H319 C302 0.932 . S
C320 C321 1.443 . S
C320 N324 1.376 . S
C320 C358 1.389 . S
C321 C320 1.443 . S
C321 C322 1.340 . S
C321 H361 0.951 . S
C322 C321 1.340 . S
C322 C323 1.439 . S
C322 H362 0.950 . S
C323 C322 1.439 . S
C323 N324 1.374 . S
C323 C357 1.395 . S
N324 C320 1.376 . S
N324 C323 1.374 . S
N324 Co325 2.008 . S
Co325 N324 2.008 . S
Co325 N326 1.997 . S
Co325 N331 2.008 . S
Co325 N336 1.995 . S
Co325 N341 2.282 . S
Co325 N347 2.282 1_455 S
N326 Co325 1.997 . S
N326 C327 1.375 . S
N326 C330 1.381 1_455 S
C327 N326 1.375 . S
C327 C328 1.431 1_455 S
C327 C357 1.407 . S
C328 C327 1.431 1_655 S
C328 C329 1.339 . S
C328 H363 0.949 . S
C329 C328 1.339 . S
C329 C330 1.439 . S
C329 H364 0.950 . S
C330 N326 1.381 1_655 S
C330 C329 1.439 . S
C330 C359 1.392 . S
N331 Co325 2.008 . S
N331 C332 1.376 1_455 S
N331 C335 1.374 . S
C332 N331 1.376 1_655 S
C332 C333 1.443 . S
C332 C359 1.389 . S
C333 C332 1.443 . S
C333 C334 1.340 . S
C333 H365 0.951 . S
C334 C333 1.340 . S
C334 C335 1.439 1_655 S
C334 H366 0.950 . S
C335 N331 1.374 . S
C335 C334 1.439 1_455 S
C335 C360 1.395 . S
N336 Co325 1.995 . S
N336 C337 1.376 . S
N336 C340 1.383 . S
C337 N336 1.376 . S
C337 C338 1.446 . S
C337 C360 1.391 . S
C338 C337 1.446 . S
C338 C339 1.339 . S
C338 H367 0.949 . S
C339 C338 1.339 . S
C339 C340 1.439 . S
C339 H368 0.950 . S
C340 N336 1.383 . S
C340 C339 1.439 . S
C340 C358 1.392 . S
N341 Co325 2.282 . S
N341 C344 1.332 . S
N341 C346 1.332 . S
C342 C343 1.386 . S
C342 C345 1.388 . S
C343 C342 1.386 . S
C343 C344 1.382 . S
C343 H369 0.950 . S
C344 N341 1.332 . S
C344 C343 1.382 . S
C344 H355 0.952 . S
C345 C342 1.388 . S
C345 C346 1.382 . S
C345 H370 0.950 . S
C346 N341 1.332 . S
C346 C345 1.382 . S
C346 H356 0.948 . S
N347 Co325 2.282 1_655 S
N347 C351 1.332 . S
N347 C352 1.332 . S
C348 C349 1.388 . S
C348 C352 1.382 . S
C348 H371 0.950 . S
C349 C348 1.388 . S
C349 C350 1.386 . S
C350 C349 1.386 . S
C350 C351 1.382 . S
C350 H372 0.950 . S
C351 N347 1.332 . S
C351 C350 1.382 . S
C351 H353 0.952 . S
C352 N347 1.332 . S
C352 C348 1.382 . S
C352 H354 0.948 . S
H353 C351 0.952 . S
H354 C352 0.948 . S
H355 C344 0.952 . S
H356 C346 0.948 . S
C357 C323 1.395 . S
C357 C327 1.407 . S
C358 C320 1.389 . S
C358 C340 1.392 . S
C359 C330 1.392 . S
C359 C332 1.389 . S
C360 C335 1.395 . S
C360 C337 1.391 . S
H361 C321 0.951 . S
H362 C322 0.950 . S
H363 C328 0.949 . S
H364 C329 0.950 . S
H365 C333 0.951 . S
H366 C334 0.950 . S
H367 C338 0.949 . S
H368 C339 0.950 . S
H369 C343 0.950 . S
H370 C345 0.950 . S
H371 C348 0.950 . S
H372 C350 0.950 . S
C373 C374 1.443 . S
C373 N377 1.376 . S
C373 C411 1.389 . S
C374 C373 1.443 . S
C374 C375 1.340 . S
C374 H414 0.951 . S
C375 C374 1.340 . S
C375 C376 1.439 . S
C375 H415 0.950 . S
C376 C375 1.439 . S
C376 N377 1.374 . S
C376 C410 1.395 . S
N377 C373 1.376 . S
N377 C376 1.374 . S
N377 Co378 2.008 . S
Co378 N377 2.008 . S
Co378 N379 1.995 1_455 S
Co378 N384 2.008 1_455 S
Co378 N389 1.995 . S
Co378 N394 2.282 . S
Co378 N400 2.282 1_455 S
N379 Co378 1.995 1_655 S
N379 C380 1.376 . S
N379 C383 1.383 . S
C380 N379 1.376 . S
C380 C381 1.446 . S
C380 C410 1.391 1_655 S
C381 C380 1.446 . S
C381 C382 1.339 . S
C381 H416 0.949 . S
C382 C381 1.339 . S
C382 C383 1.439 . S
C382 H417 0.950 . S
C383 N379 1.383 . S
C383 C382 1.439 . S
C383 C412 1.392 . S
N384 Co378 2.008 1_655 S
N384 C385 1.376 . S
N384 C388 1.374 1_655 S
C385 N384 1.376 . S
C385 C386 1.443 . S
C385 C412 1.389 . S
C386 C385 1.443 . S
C386 C387 1.340 . S
C386 H418 0.951 . S
C387 C386 1.340 . S
C387 C388 1.439 1_655 S
C387 H419 0.950 . S
C388 N384 1.374 1_455 S
C388 C387 1.439 1_455 S
C388 C413 1.395 . S
N389 Co378 1.995 . S
N389 C390 1.376 . S
N389 C393 1.383 . S
C390 N389 1.376 . S
C390 C391 1.446 . S
C390 C413 1.391 . S
C391 C390 1.446 . S
C391 C392 1.339 . S
C391 H420 0.949 . S
C392 C391 1.339 . S
C392 C393 1.439 . S
C392 H421 0.950 . S
C393 N389 1.383 . S
C393 C392 1.439 . S
C393 C411 1.392 . S
N394 Co378 2.282 . S
N394 C397 1.332 . S
N394 C399 1.332 . S
C395 C396 1.386 . S
C395 C398 1.388 . S
C396 C395 1.386 . S
C396 C397 1.382 . S
C396 H422 0.950 . S
C397 N394 1.332 . S
C397 C396 1.382 . S
C397 H408 0.952 . S
C398 C395 1.388 . S
C398 C399 1.382 . S
C398 H423 0.950 . S
C399 N394 1.332 . S
C399 C398 1.382 . S
C399 H409 0.948 . S
N400 Co378 2.282 1_655 S
N400 C404 1.332 . S
N400 C405 1.332 . S
C401 C402 1.388 . S
C401 C405 1.382 . S
C401 H424 0.950 . S
C402 C401 1.388 . S
C402 C403 1.386 . S
C403 C402 1.386 . S
C403 C404 1.382 . S
C403 H425 0.950 . S
C404 N400 1.332 . S
C404 C403 1.382 . S
C404 H406 0.952 . S
C405 N400 1.332 . S
C405 C401 1.382 . S
C405 H407 0.948 . S
H406 C404 0.952 . S
H407 C405 0.948 . S
H408 C397 0.952 . S
H409 C399 0.948 . S
C410 C376 1.395 . S
C410 C380 1.391 1_455 S
C411 C373 1.389 . S
C411 C393 1.392 . S
C412 C383 1.392 . S
C412 C385 1.389 . S
C413 C388 1.395 . S
C413 C390 1.391 . S
H414 C374 0.951 . S
H415 C375 0.950 . S
H416 C381 0.949 . S
H417 C382 0.950 . S
H418 C386 0.951 . S
H419 C387 0.950 . S
H420 C391 0.949 . S
H421 C392 0.950 . S
H422 C396 0.950 . S
H423 C398 0.950 . S
H424 C401 0.950 . S
H425 C403 0.950 . S
C426 C427 1.443 . S
C426 N430 1.376 . S
C426 C464 1.389 . S
C427 C426 1.443 . S
C427 C428 1.340 . S
C427 H467 0.951 . S
C428 C427 1.340 . S
C428 C429 1.439 . S
C428 H468 0.950 . S
C429 C428 1.439 . S
C429 N430 1.374 . S
C429 C463 1.395 1_565 S
N430 C426 1.376 . S
N430 C429 1.374 . S
N430 Co431 2.008 1_565 S
Co431 N430 2.008 1_545 S
Co431 N432 1.995 . S
Co431 N437 2.008 . S
Co431 N442 1.995 1_545 S
Co431 N447 2.282 . S
Co431 N453 2.282 1_545 S
N432 Co431 1.995 . S
N432 C433 1.376 . S
N432 C436 1.383 . S
C433 N432 1.376 . S
C433 C434 1.446 . S
C433 C463 1.391 . S
C434 C433 1.446 . S
C434 C435 1.339 . S
C434 H469 0.949 . S
C435 C434 1.339 . S
C435 C436 1.439 . S
C435 H470 0.950 . S
C436 N432 1.383 . S
C436 C435 1.439 . S
C436 C465 1.392 . S
N437 Co431 2.008 . S
N437 C438 1.376 . S
N437 C441 1.374 . S
C438 N437 1.376 . S
C438 C439 1.443 . S
C438 C465 1.389 . S
C439 C438 1.443 . S
C439 C440 1.340 . S
C439 H471 0.951 . S
C440 C439 1.340 . S
C440 C441 1.439 . S
C440 H472 0.950 . S
C441 N437 1.374 . S
C441 C440 1.439 . S
C441 C466 1.395 . S
N442 Co431 1.995 1_565 S
N442 C443 1.376 . S
N442 C446 1.383 . S
C443 N442 1.376 . S
C443 C444 1.446 . S
C443 C466 1.391 1_565 S
C444 C443 1.446 . S
C444 C445 1.339 . S
C444 H473 0.949 . S
C445 C444 1.339 . S
C445 C446 1.439 . S
C445 H474 0.950 . S
C446 N442 1.383 . S
C446 C445 1.439 . S
C446 C464 1.392 . S
N447 Co431 2.282 . S
N447 C450 1.332 . S
N447 C452 1.332 . S
C448 C449 1.386 . S
C448 C451 1.388 . S
C449 C448 1.386 . S
C449 C450 1.382 . S
C449 H475 0.950 . S
C450 N447 1.332 . S
C450 C449 1.382 . S
C450 H461 0.952 . S
C451 C448 1.388 . S
C451 C452 1.382 . S
C451 H476 0.950 . S
C452 N447 1.332 . S
C452 C451 1.382 . S
C452 H462 0.948 . S
N453 Co431 2.282 1_565 S
N453 C457 1.332 . S
N453 C458 1.332 . S
C454 C455 1.388 . S
C454 C458 1.382 . S
C454 H477 0.950 . S
C455 C454 1.388 . S
C455 C456 1.386 . S
C456 C455 1.386 . S
C456 C457 1.382 . S
C456 H478 0.950 . S
C457 N453 1.332 . S
C457 C456 1.382 . S
C457 H459 0.952 . S
C458 N453 1.332 . S
C458 C454 1.382 . S
C458 H460 0.948 . S
H459 C457 0.952 . S
H460 C458 0.948 . S
H461 C450 0.952 . S
H462 C452 0.948 . S
C463 C429 1.395 1_545 S
C463 C433 1.391 . S
C464 C426 1.389 . S
C464 C446 1.392 . S
C465 C436 1.392 . S
C465 C438 1.389 . S
C466 C441 1.395 . S
C466 C443 1.391 1_545 S
H467 C427 0.951 . S
H468 C428 0.950 . S
H469 C434 0.949 . S
H470 C435 0.950 . S
H471 C439 0.951 . S
H472 C440 0.950 . S
H473 C444 0.949 . S
H474 C445 0.950 . S
H475 C449 0.950 . S
H476 C451 0.950 . S
H477 C454 0.950 . S
H478 C456 0.950 . S
C479 C480 1.443 . S
C479 N483 1.376 . S
C479 C517 1.389 . S
C480 C479 1.443 . S
C480 C481 1.340 . S
C480 H520 0.951 . S
C481 C480 1.340 . S
C481 C482 1.439 . S
C481 H521 0.950 . S
C482 C481 1.439 . S
C482 N483 1.374 . S
C482 C516 1.395 . S
N483 C479 1.376 . S
N483 C482 1.374 . S
N483 Co484 2.008 . S
Co484 N483 2.008 . S
Co484 N485 2.018 . S
Co484 N490 2.010 1_554 S
Co484 N495 1.995 . S
Co484 N500 2.282 1_554 S
Co484 N506 2.282 . S
N485 Co484 2.018 . S
N485 C486 1.384 . S
N485 C489 1.345 1_554 S
C486 N485 1.384 . S
C486 C487 1.446 1_554 S
C486 C516 1.391 . S
C487 C486 1.446 1_556 S
C487 C488 1.339 . S
C487 H522 0.949 . S
C488 C487 1.339 . S
C488 C489 1.439 . S
C488 H523 0.950 . S
C489 N485 1.345 1_556 S
C489 C488 1.439 . S
C489 C518 1.392 . S
N490 Co484 2.010 1_556 S
N490 C491 1.374 . S
N490 C494 1.374 1_556 S
C491 N490 1.374 . S
C491 C492 1.443 . S
C491 C518 1.389 . S
C492 C491 1.443 . S
C492 C493 1.340 . S
C492 H524 0.951 . S
C493 C492 1.340 . S
C493 C494 1.439 1_556 S
C493 H525 0.950 . S
C494 N490 1.374 1_554 S
C494 C493 1.439 1_554 S
C494 C519 1.395 . S
N495 Co484 1.995 . S
N495 C496 1.376 . S
N495 C499 1.383 . S
C496 N495 1.376 . S
C496 C497 1.446 . S
C496 C519 1.391 . S
C497 C496 1.446 . S
C497 C498 1.339 . S
C497 H526 0.949 . S
C498 C497 1.339 . S
C498 C499 1.439 . S
C498 H527 0.950 . S
C499 N495 1.383 . S
C499 C498 1.439 . S
C499 C517 1.392 . S
N500 Co484 2.282 1_556 S
N500 C503 1.332 . S
N500 C505 1.332 . S
C501 C502 1.386 . S
C501 C504 1.388 . S
C502 C501 1.386 . S
C502 C503 1.382 . S
C502 H528 0.950 . S
C503 N500 1.332 . S
C503 C502 1.382 . S
C503 H514 0.952 . S
C504 C501 1.388 . S
C504 C505 1.382 . S
C504 H529 0.950 . S
C505 N500 1.332 . S
C505 C504 1.382 . S
C505 H515 0.948 . S
N506 Co484 2.282 . S
N506 C510 1.332 . S
N506 C511 1.332 . S
C507 C508 1.388 . S
C507 C511 1.382 . S
C507 H530 0.950 . S
C508 C507 1.388 . S
C508 C509 1.386 . S
C509 C508 1.386 . S
C509 C510 1.382 . S
C509 H531 0.950 . S
C510 N506 1.332 . S
C510 C509 1.382 . S
C510 H512 0.952 . S
C511 N506 1.332 . S
C511 C507 1.382 . S
C511 H513 0.948 . S
H512 C510 0.952 . S
H513 C511 0.948 . S
H514 C503 0.952 . S
H515 C505 0.948 . S
C516 C482 1.395 . S
C516 C486 1.391 . S
C517 C479 1.389 . S
C517 C499 1.392 . S
C518 C489 1.392 . S
C518 C491 1.389 . S
C519 C494 1.395 . S
C519 C496 1.391 . S
H520 C480 0.951 . S
H521 C481 0.950 . S
H522 C487 0.949 . S
H523 C488 0.950 . S
H524 C492 0.951 . S
H525 C493 0.950 . S
H526 C497 0.949 . S
H527 C498 0.950 . S
H528 C502 0.950 . S
H529 C504 0.950 . S
H530 C507 0.950 . S
H531 C509 0.950 . S
C532 C533 1.443 . S
C532 N536 1.376 1_565 S
C532 C570 1.389 . S
C533 C532 1.443 . S
C533 C534 1.340 . S
C533 H573 0.951 . S
C534 C533 1.340 . S
C534 C535 1.439 1_565 S
C534 H574 0.950 . S
C535 C534 1.439 1_545 S
C535 N536 1.374 . S
C535 C569 1.395 . S
N536 C532 1.376 1_545 S
N536 C535 1.374 . S
N536 Co537 2.008 . S
Co537 N536 2.008 . S
Co537 N538 1.995 . S
Co537 N543 2.008 . S
Co537 N548 1.995 . S
Co537 N553 2.282 . S
Co537 N559 2.282 1_545 S
N538 Co537 1.995 . S
N538 C539 1.376 . S
N538 C542 1.383 . S
C539 N538 1.376 . S
C539 C540 1.446 . S
C539 C569 1.391 . S
C540 C539 1.446 . S
C540 C541 1.339 . S
C540 H575 0.949 . S
C541 C540 1.339 . S
C541 C542 1.439 . S
C541 H576 0.950 . S
C542 N538 1.383 . S
C542 C541 1.439 . S
C542 C571 1.392 . S
N543 Co537 2.008 . S
N543 C544 1.376 . S
N543 C547 1.374 . S
C544 N543 1.376 . S
C544 C545 1.443 . S
C544 C571 1.389 . S
C545 C544 1.443 . S
C545 C546 1.340 . S
C545 H577 0.951 . S
C546 C545 1.340 . S
C546 C547 1.439 . S
C546 H578 0.950 . S
C547 N543 1.374 . S
C547 C546 1.439 . S
C547 C572 1.395 . S
N548 Co537 1.995 . S
N548 C549 1.376 . S
N548 C552 1.383 1_545 S
C549 N548 1.376 . S
C549 C550 1.446 1_545 S
C549 C572 1.391 . S
C550 C549 1.446 1_565 S
C550 C551 1.339 . S
C550 H579 0.949 . S
C551 C550 1.339 . S
C551 C552 1.439 . S
C551 H580 0.950 . S
C552 N548 1.383 1_565 S
C552 C551 1.439 . S
C552 C570 1.392 . S
N553 Co537 2.282 . S
N553 C556 1.332 . S
N553 C558 1.332 . S
C554 C555 1.386 . S
C554 C557 1.388 . S
C555 C554 1.386 . S
C555 C556 1.382 . S
C555 H581 0.950 . S
C556 N553 1.332 . S
C556 C555 1.382 . S
C556 H567 0.952 . S
C557 C554 1.388 . S
C557 C558 1.382 . S
C557 H582 0.950 . S
C558 N553 1.332 . S
C558 C557 1.382 . S
C558 H568 0.948 . S
N559 Co537 2.282 1_565 S
N559 C563 1.332 . S
N559 C564 1.332 . S
C560 C561 1.388 . S
C560 C564 1.382 . S
C560 H583 0.950 . S
C561 C560 1.388 . S
C561 C562 1.386 . S
C562 C561 1.386 . S
C562 C563 1.382 . S
C562 H584 0.950 . S
C563 N559 1.332 . S
C563 C562 1.382 . S
C563 H565 0.952 . S
C564 N559 1.332 . S
C564 C560 1.382 . S
C564 H566 0.948 . S
H565 C563 0.952 . S
H566 C564 0.948 . S
H567 C556 0.952 . S
H568 C558 0.948 . S
C569 C535 1.395 . S
C569 C539 1.391 . S
C570 C532 1.389 . S
C570 C552 1.392 . S
C571 C542 1.392 . S
C571 C544 1.389 . S
C572 C547 1.395 . S
C572 C549 1.391 . S
H573 C533 0.951 . S
H574 C534 0.950 . S
H575 C540 0.949 . S
H576 C541 0.950 . S
H577 C545 0.951 . S
H578 C546 0.950 . S
H579 C550 0.949 . S
H580 C551 0.950 . S
H581 C555 0.950 . S
H582 C557 0.950 . S
H583 C560 0.950 . S
H584 C562 0.950 . S
C585 C586 1.443 . S
C585 N589 1.376 . S
C585 C623 1.389 . S
C586 C585 1.443 . S
C586 C587 1.340 . S
C586 H626 0.951 . S
C587 C586 1.340 . S
C587 C588 1.439 . S
C587 H627 0.950 . S
C588 C587 1.439 . S
C588 N589 1.374 . S
C588 C622 1.395 . S
N589 C585 1.376 . S
N589 C588 1.374 . S
N589 Co590 2.008 . S
Co590 N589 2.008 . S
Co590 N591 1.995 . S
Co590 N596 2.008 . S
Co590 N601 1.995 . S
Co590 N606 2.282 . S
Co590 N612 2.282 . S
N591 Co590 1.995 . S
N591 C592 1.376 . S
N591 C595 1.383 1_554 S
C592 N591 1.376 . S
C592 C593 1.446 1_554 S
C592 C622 1.391 . S
C593 C592 1.446 1_556 S
C593 C594 1.339 . S
C593 H628 0.949 . S
C594 C593 1.339 . S
C594 C595 1.439 . S
C594 H629 0.950 . S
C595 N591 1.383 1_556 S
C595 C594 1.439 . S
C595 C624 1.392 . S
N596 Co590 2.008 . S
N596 C597 1.376 1_554 S
N596 C600 1.374 . S
C597 N596 1.376 1_556 S
C597 C598 1.443 . S
C597 C624 1.389 . S
C598 C597 1.443 . S
C598 C599 1.340 . S
C598 H630 0.951 . S
C599 C598 1.340 . S
C599 C600 1.439 1_556 S
C599 H631 0.950 . S
C600 N596 1.374 . S
C600 C599 1.439 1_554 S
C600 C625 1.395 . S
N601 Co590 1.995 . S
N601 C602 1.376 . S
N601 C605 1.383 . S
C602 N601 1.376 . S
C602 C603 1.446 . S
C602 C625 1.391 . S
C603 C602 1.446 . S
C603 C604 1.339 . S
C603 H632 0.949 . S
C604 C603 1.339 . S
C604 C605 1.439 . S
C604 H633 0.950 . S
C605 N601 1.383 . S
C605 C604 1.439 . S
C605 C623 1.392 . S
N606 Co590 2.282 . S
N606 C609 1.332 1_554 S
N606 C611 1.332 1_554 S
C607 C608 1.386 . S
C607 C610 1.388 . S
C608 C607 1.386 . S
C608 C609 1.382 . S
C608 H634 0.950 . S
C609 N606 1.332 1_556 S
C609 C608 1.382 . S
C609 H620 0.952 1_556 S
C610 C607 1.388 . S
C610 C611 1.382 . S
C610 H635 0.950 . S
C611 N606 1.332 1_556 S
C611 C610 1.382 . S
C611 H621 0.948 . S
N612 Co590 2.282 . S
N612 C616 1.332 . S
N612 C617 1.332 . S
C613 C614 1.388 . S
C613 C617 1.382 . S
C613 H636 0.950 . S
C614 C613 1.388 . S
C614 C615 1.386 . S
C615 C614 1.386 . S
C615 C616 1.382 . S
C615 H637 0.950 . S
C616 N612 1.332 . S
C616 C615 1.382 . S
C616 H618 0.952 . S
C617 N612 1.332 . S
C617 C613 1.382 . S
C617 H619 0.948 . S
H618 C616 0.952 . S
H619 C617 0.948 . S
H620 C609 0.952 1_554 S
H621 C611 0.948 . S
C622 C588 1.395 . S
C622 C592 1.391 . S
C623 C585 1.389 . S
C623 C605 1.392 . S
C624 C595 1.392 . S
C624 C597 1.389 . S
C625 C600 1.395 . S
C625 C602 1.391 . S
H626 C586 0.951 . S
H627 C587 0.950 . S
H628 C593 0.949 . S
H629 C594 0.950 . S
H630 C598 0.951 . S
H631 C599 0.950 . S
H632 C603 0.949 . S
H633 C604 0.950 . S
H634 C608 0.950 . S
H635 C610 0.950 . S
H636 C613 0.950 . S
H637 C615 0.950 . S
H638 C644 0.930 . S
H639 C647 0.930 . S
H640 C648 0.930 . S
H641 C649 0.930 . S
H642 C652 0.930 . S
H643 C653 0.930 . S
C644 H638 0.930 . S
C644 C645 1.355 . S
C644 C646 1.415 . S
C645 C644 1.355 . S
C645 C647 1.419 . S
C646 C644 1.415 . S
C646 C651 1.425 . S
C646 C653 1.409 . S
C647 H639 0.930 . S
C647 C645 1.419 . S
C647 C648 1.362 . S
C648 H640 0.930 . S
C648 C647 1.362 . S
C648 C651 1.409 . S
C649 H641 0.930 . S
C649 C650 1.355 . S
C649 C651 1.415 . S
C650 C649 1.355 . S
C650 C652 1.419 . S
C651 C646 1.425 . S
C651 C648 1.409 . S
C651 C649 1.415 . S
C652 H642 0.930 . S
C652 C650 1.419 . S
C652 C653 1.362 . S
C653 H643 0.930 . S
C653 C646 1.409 . S
C653 C652 1.362 . S
H654 C660 0.930 . S
H655 C663 0.930 . S
H656 C664 0.930 . S
H657 C665 0.930 . S
H658 C668 0.930 . S
H659 C669 0.930 . S
C660 H654 0.930 . S
C660 C661 1.355 . S
C660 C662 1.415 . S
C661 C660 1.355 . S
C661 C663 1.419 . S
C662 C660 1.415 . S
C662 C667 1.425 . S
C662 C669 1.409 . S
C663 H655 0.930 . S
C663 C661 1.419 . S
C663 C664 1.362 . S
C664 H656 0.930 . S
C664 C663 1.362 . S
C664 C667 1.409 . S
C665 H657 0.930 . S
C665 C666 1.355 . S
C665 C667 1.415 . S
C666 C665 1.355 . S
C666 C668 1.419 . S
C667 C662 1.425 . S
C667 C664 1.409 . S
C667 C665 1.415 . S
C668 H658 0.930 . S
C668 C666 1.419 . S
C668 C669 1.362 . S
C669 H659 0.930 . S
C669 C662 1.409 . S
C669 C668 1.362 . S
H670 C676 0.930 . S
H671 C679 0.930 . S
H672 C680 0.930 . S
H673 C681 0.930 . S
H674 C684 0.930 . S
H675 C685 0.930 . S
C676 H670 0.930 . S
C676 C677 1.355 . S
C676 C678 1.415 . S
C677 C676 1.355 . S
C677 C679 1.419 . S
C678 C676 1.415 . S
C678 C683 1.425 . S
C678 C685 1.409 . S
C679 H671 0.930 . S
C679 C677 1.419 . S
C679 C680 1.362 . S
C680 H672 0.930 . S
C680 C679 1.362 . S
C680 C683 1.409 . S
C681 H673 0.930 . S
C681 C682 1.355 . S
C681 C683 1.415 . S
C682 C681 1.355 . S
C682 C684 1.419 . S
C683 C678 1.425 . S
C683 C680 1.409 . S
C683 C681 1.415 . S
C684 H674 0.930 . S
C684 C682 1.419 . S
C684 C685 1.362 . S
C685 H675 0.930 . S
C685 C678 1.409 . S
C685 C684 1.362 . S
H686 C692 0.930 . S
H687 C695 0.930 . S
H688 C696 0.930 . S
H689 C697 0.930 . S
H690 C700 0.930 . S
H691 C701 0.930 . S
C692 H686 0.930 . S
C692 C693 1.355 . S
C692 C694 1.415 . S
C693 C692 1.355 . S
C693 C695 1.419 . S
C694 C692 1.415 . S
C694 C699 1.425 . S
C694 C701 1.409 . S
C695 H687 0.930 . S
C695 C693 1.419 . S
C695 C696 1.362 . S
C696 H688 0.930 . S
C696 C695 1.362 . S
C696 C699 1.409 . S
C697 H689 0.930 . S
C697 C698 1.355 . S
C697 C699 1.415 . S
C698 C697 1.355 . S
C698 C700 1.419 . S
C699 C694 1.425 . S
C699 C696 1.409 . S
C699 C697 1.415 . S
C700 H690 0.930 . S
C700 C698 1.419 . S
C700 C701 1.362 . S
C701 H691 0.930 . S
C701 C694 1.409 . S
C701 C700 1.362 . S
H702 C708 0.930 . S
H703 C711 0.930 . S
H704 C712 0.930 . S
H705 C713 0.930 . S
H706 C716 0.930 . S
H707 C717 0.930 . S
C708 H702 0.930 . S
C708 C709 1.355 . S
C708 C710 1.415 . S
C709 C708 1.355 . S
C709 C711 1.419 . S
C710 C708 1.415 . S
C710 C715 1.425 . S
C710 C717 1.409 . S
C711 H703 0.930 . S
C711 C709 1.419 . S
C711 C712 1.362 . S
C712 H704 0.930 . S
C712 C711 1.362 . S
C712 C715 1.409 . S
C713 H705 0.930 . S
C713 C714 1.355 . S
C713 C715 1.415 . S
C714 C713 1.355 . S
C714 C716 1.419 . S
C715 C710 1.425 . S
C715 C712 1.409 . S
C715 C713 1.415 . S
C716 H706 0.930 . S
C716 C714 1.419 . S
C716 C717 1.362 . S
C717 H707 0.930 . S
C717 C710 1.409 . S
C717 C716 1.362 . S
H718 C724 0.930 . S
H719 C727 0.930 . S
H720 C728 0.930 . S
H721 C729 0.930 . S
H722 C732 0.930 . S
H723 C733 0.930 . S
C724 H718 0.930 . S
C724 C725 1.355 . S
C724 C726 1.415 . S
C725 C724 1.355 . S
C725 C727 1.419 . S
C726 C724 1.415 . S
C726 C731 1.425 . S
C726 C733 1.409 . S
C727 H719 0.930 . S
C727 C725 1.419 . S
C727 C728 1.362 . S
C728 H720 0.930 . S
C728 C727 1.362 . S
C728 C731 1.409 . S
C729 H721 0.930 . S
C729 C730 1.355 . S
C729 C731 1.415 . S
C730 C729 1.355 . S
C730 C732 1.419 . S
C731 C726 1.425 . S
C731 C728 1.409 . S
C731 C729 1.415 . S
C732 H722 0.930 . S
C732 C730 1.419 . S
C732 C733 1.362 . S
C733 H723 0.930 . S
C733 C726 1.409 . S
C733 C732 1.362 . S
H734 C740 0.930 . S
H735 C743 0.930 . S
H736 C744 0.930 . S
H737 C745 0.930 . S
H738 C748 0.930 . S
H739 C749 0.930 . S
C740 H734 0.930 . S
C740 C741 1.355 . S
C740 C742 1.415 . S
C741 C740 1.355 . S
C741 C743 1.419 . S
C742 C740 1.415 . S
C742 C747 1.425 . S
C742 C749 1.409 . S
C743 H735 0.930 . S
C743 C741 1.419 . S
C743 C744 1.362 . S
C744 H736 0.930 . S
C744 C743 1.362 . S
C744 C747 1.409 . S
C745 H737 0.930 . S
C745 C746 1.355 . S
C745 C747 1.415 . S
C746 C745 1.355 . S
C746 C748 1.419 . S
C747 C742 1.425 . S
C747 C744 1.409 . S
C747 C745 1.415 . S
C748 H738 0.930 . S
C748 C746 1.419 . S
C748 C749 1.362 . S
C749 H739 0.930 . S
C749 C742 1.409 . S
C749 C748 1.362 . S
H750 C756 0.930 . S
H751 C759 0.930 . S
H752 C760 0.930 . S
H753 C761 0.930 . S
H754 C764 0.930 . S
H755 C765 0.930 . S
C756 H750 0.930 . S
C756 C757 1.355 . S
C756 C758 1.415 . S
C757 C756 1.355 . S
C757 C759 1.419 . S
C758 C756 1.415 . S
C758 C763 1.425 . S
C758 C765 1.409 . S
C759 H751 0.930 . S
C759 C757 1.419 . S
C759 C760 1.362 . S
C760 H752 0.930 . S
C760 C759 1.362 . S
C760 C763 1.409 . S
C761 H753 0.930 . S
C761 C762 1.355 . S
C761 C763 1.415 . S
C762 C761 1.355 . S
C762 C764 1.419 . S
C763 C758 1.425 . S
C763 C760 1.409 . S
C763 C761 1.415 . S
C764 H754 0.930 . S
C764 C762 1.419 . S
C764 C765 1.362 . S
C765 H755 0.930 . S
C765 C758 1.409 . S
C765 C764 1.362 . S
H766 C772 0.930 . S
H767 C775 0.930 . S
H768 C776 0.930 . S
H769 C777 0.930 . S
H770 C780 0.930 . S
H771 C781 0.930 . S
C772 H766 0.930 . S
C772 C773 1.355 . S
C772 C774 1.415 . S
C773 C772 1.355 . S
C773 C775 1.419 . S
C774 C772 1.415 . S
C774 C779 1.425 . S
C774 C781 1.409 . S
C775 H767 0.930 . S
C775 C773 1.419 . S
C775 C776 1.362 . S
C776 H768 0.930 . S
C776 C775 1.362 . S
C776 C779 1.409 . S
C777 H769 0.930 . S
C777 C778 1.355 . S
C777 C779 1.415 . S
C778 C777 1.355 . S
C778 C780 1.419 . S
C779 C774 1.425 . S
C779 C776 1.409 . S
C779 C777 1.415 . S
C780 H770 0.930 . S
C780 C778 1.419 . S
C780 C781 1.362 . S
C781 H771 0.930 . S
C781 C774 1.409 . S
C781 C780 1.362 . S
H782 C788 0.930 . S
H783 C791 0.930 . S
H784 C792 0.930 . S
H785 C793 0.930 . S
H786 C796 0.930 . S
H787 C797 0.930 . S
C788 H782 0.930 . S
C788 C789 1.355 . S
C788 C790 1.415 . S
C789 C788 1.355 . S
C789 C791 1.419 . S
C790 C788 1.415 . S
C790 C795 1.425 . S
C790 C797 1.409 . S
C791 H783 0.930 . S
C791 C789 1.419 . S
C791 C792 1.362 . S
C792 H784 0.930 . S
C792 C791 1.362 . S
C792 C795 1.409 . S
C793 H785 0.930 . S
C793 C794 1.355 . S
C793 C795 1.415 . S
C794 C793 1.355 . S
C794 C796 1.419 . S
C795 C790 1.425 . S
C795 C792 1.409 . S
C795 C793 1.415 . S
C796 H786 0.930 . S
C796 C794 1.419 . S
C796 C797 1.362 . S
C797 H787 0.930 . S
C797 C790 1.409 . S
C797 C796 1.362 . S
H798 C804 0.930 . S
H799 C807 0.930 . S
H800 C808 0.930 . S
H801 C809 0.930 . S
H802 C812 0.930 . S
H803 C813 0.930 . S
C804 H798 0.930 . S
C804 C805 1.355 . S
C804 C806 1.415 . S
C805 C804 1.355 . S
C805 C807 1.419 . S
C806 C804 1.415 . S
C806 C811 1.425 . S
C806 C813 1.409 . S
C807 H799 0.930 . S
C807 C805 1.419 . S
C807 C808 1.362 . S
C808 H800 0.930 . S
C808 C807 1.362 . S
C808 C811 1.409 . S
C809 H801 0.930 . S
C809 C810 1.355 . S
C809 C811 1.415 . S
C810 C809 1.355 . S
C810 C812 1.419 . S
C811 C806 1.425 . S
C811 C808 1.409 . S
C811 C809 1.415 . S
C812 H802 0.930 . S
C812 C810 1.419 . S
C812 C813 1.362 . S
C813 H803 0.930 . S
C813 C806 1.409 . S
C813 C812 1.362 . S
H814 C820 0.930 . S
H815 C823 0.930 . S
H816 C824 0.930 . S
H817 C825 0.930 . S
H818 C828 0.930 . S
H819 C829 0.930 . S
C820 H814 0.930 . S
C820 C821 1.355 . S
C820 C822 1.415 . S
C821 C820 1.355 . S
C821 C823 1.419 . S
C822 C820 1.415 . S
C822 C827 1.425 . S
C822 C829 1.409 . S
C823 H815 0.930 . S
C823 C821 1.419 . S
C823 C824 1.362 . S
C824 H816 0.930 . S
C824 C823 1.362 . S
C824 C827 1.409 . S
C825 H817 0.930 . S
C825 C826 1.355 . S
C825 C827 1.415 . S
C826 C825 1.355 . S
C826 C828 1.419 . S
C827 C822 1.425 . S
C827 C824 1.409 . S
C827 C825 1.415 . S
C828 H818 0.930 . S
C828 C826 1.419 . S
C828 C829 1.362 . S
C829 H819 0.930 . S
C829 C822 1.409 . S
C829 C828 1.362 . S
H830 C836 0.930 . S
H831 C839 0.930 . S
H832 C840 0.930 . S
H833 C841 0.930 . S
H834 C844 0.930 . S
H835 C845 0.930 . S
C836 H830 0.930 . S
C836 C837 1.355 . S
C836 C838 1.415 . S
C837 C836 1.355 . S
C837 C839 1.419 . S
C838 C836 1.415 . S
C838 C843 1.425 . S
C838 C845 1.409 . S
C839 H831 0.930 . S
C839 C837 1.419 . S
C839 C840 1.362 . S
C840 H832 0.930 . S
C840 C839 1.362 . S
C840 C843 1.409 . S
C841 H833 0.930 . S
C841 C842 1.355 . S
C841 C843 1.415 . S
C842 C841 1.355 . S
C842 C844 1.419 . S
C843 C838 1.425 . S
C843 C840 1.409 . S
C843 C841 1.415 . S
C844 H834 0.930 . S
C844 C842 1.419 . S
C844 C845 1.362 . S
C845 H835 0.930 . S
C845 C838 1.409 . S
C845 C844 1.362 . S
H846 C852 0.930 . S
H847 C855 0.930 . S
H848 C856 0.930 . S
H849 C857 0.930 . S
H850 C860 0.930 . S
H851 C861 0.930 . S
C852 H846 0.930 . S
C852 C853 1.355 . S
C852 C854 1.415 . S
C853 C852 1.355 . S
C853 C855 1.419 . S
C854 C852 1.415 . S
C854 C859 1.425 . S
C854 C861 1.409 . S
C855 H847 0.930 . S
C855 C853 1.419 . S
C855 C856 1.362 . S
C856 H848 0.930 . S
C856 C855 1.362 . S
C856 C859 1.409 . S
C857 H849 0.930 . S
C857 C858 1.355 . S
C857 C859 1.415 . S
C858 C857 1.355 . S
C858 C860 1.419 . S
C859 C854 1.425 . S
C859 C856 1.409 . S
C859 C857 1.415 . S
C860 H850 0.930 . S
C860 C858 1.419 . S
C860 C861 1.362 . S
C861 H851 0.930 . S
C861 C854 1.409 . S
C861 C860 1.362 . S
H862 C868 0.930 . S
H863 C871 0.930 . S
H864 C872 0.930 . S
H865 C873 0.930 . S
H866 C876 0.930 . S
H867 C877 0.930 . S
C868 H862 0.930 . S
C868 C869 1.355 . S
C868 C870 1.415 . S
C869 C868 1.355 . S
C869 C871 1.419 . S
C870 C868 1.415 . S
C870 C875 1.425 . S
C870 C877 1.409 . S
C871 H863 0.930 . S
C871 C869 1.419 . S
C871 C872 1.362 . S
C872 H864 0.930 . S
C872 C871 1.362 . S
C872 C875 1.409 . S
C873 H865 0.930 . S
C873 C874 1.355 . S
C873 C875 1.415 . S
C874 C873 1.355 . S
C874 C876 1.419 . S
C875 C870 1.425 . S
C875 C872 1.409 . S
C875 C873 1.415 . S
C876 H866 0.930 . S
C876 C874 1.419 . S
C876 C877 1.362 . S
C877 H867 0.930 . S
C877 C870 1.409 . S
C877 C876 1.362 . S
H878 C884 0.930 . S
H879 C887 0.930 . S
H880 C888 0.930 . S
H881 C889 0.930 . S
H882 C892 0.930 . S
H883 C893 0.930 . S
C884 H878 0.930 . S
C884 C885 1.355 . S
C884 C886 1.415 . S
C885 C884 1.355 . S
C885 C887 1.419 . S
C886 C884 1.415 . S
C886 C891 1.425 . S
C886 C893 1.409 . S
C887 H879 0.930 . S
C887 C885 1.419 . S
C887 C888 1.362 . S
C888 H880 0.930 . S
C888 C887 1.362 . S
C888 C891 1.409 . S
C889 H881 0.930 . S
C889 C890 1.355 . S
C889 C891 1.415 . S
C890 C889 1.355 . S
C890 C892 1.419 . S
C891 C886 1.425 . S
C891 C888 1.409 . S
C891 C889 1.415 . S
C892 H882 0.930 . S
C892 C890 1.419 . S
C892 C893 1.362 . S
C893 H883 0.930 . S
C893 C886 1.409 . S
C893 C892 1.362 . S
H894 C900 0.930 . S
H895 C903 0.930 . S
H896 C904 0.930 . S
H897 C905 0.930 . S
H898 C908 0.930 . S
H899 C909 0.930 . S
C900 H894 0.930 . S
C900 C901 1.355 . S
C900 C902 1.415 . S
C901 C900 1.355 . S
C901 C903 1.419 . S
C902 C900 1.415 . S
C902 C907 1.425 . S
C902 C909 1.409 . S
C903 H895 0.930 . S
C903 C901 1.419 . S
C903 C904 1.362 . S
C904 H896 0.930 . S
C904 C903 1.362 . S
C904 C907 1.409 . S
C905 H897 0.930 . S
C905 C906 1.355 . S
C905 C907 1.415 . S
C906 C905 1.355 . S
C906 C908 1.419 . S
C907 C902 1.425 . S
C907 C904 1.409 . S
C907 C905 1.415 . S
C908 H898 0.930 . S
C908 C906 1.419 . S
C908 C909 1.362 . S
C909 H899 0.930 . S
C909 C902 1.409 . S
C909 C908 1.362 . S
H910 C916 0.930 . S
H911 C919 0.930 . S
H912 C920 0.930 . S
H913 C921 0.930 . S
H914 C924 0.930 . S
H915 C925 0.930 . S
C916 H910 0.930 . S
C916 C917 1.355 . S
C916 C918 1.415 . S
C917 C916 1.355 . S
C917 C919 1.419 . S
C918 C916 1.415 . S
C918 C923 1.425 . S
C918 C925 1.409 . S
C919 H911 0.930 . S
C919 C917 1.419 . S
C919 C920 1.362 . S
C920 H912 0.930 . S
C920 C919 1.362 . S
C920 C923 1.409 . S
C921 H913 0.930 . S
C921 C922 1.355 . S
C921 C923 1.415 . S
C922 C921 1.355 . S
C922 C924 1.419 . S
C923 C918 1.425 . S
C923 C920 1.409 . S
C923 C921 1.415 . S
C924 H914 0.930 . S
C924 C922 1.419 . S
C924 C925 1.362 . S
C925 H915 0.930 . S
C925 C918 1.409 . S
C925 C924 1.362 . S
H926 C932 0.930 . S
H927 C935 0.930 . S
H928 C936 0.930 . S
H929 C937 0.930 . S
H930 C940 0.930 . S
H931 C941 0.930 . S
C932 H926 0.930 . S
C932 C933 1.355 . S
C932 C934 1.415 . S
C933 C932 1.355 . S
C933 C935 1.419 . S
C934 C932 1.415 . S
C934 C939 1.425 . S
C934 C941 1.409 . S
C935 H927 0.930 . S
C935 C933 1.419 . S
C935 C936 1.362 . S
C936 H928 0.930 . S
C936 C935 1.362 . S
C936 C939 1.409 . S
C937 H929 0.930 . S
C937 C938 1.355 . S
C937 C939 1.415 . S
C938 C937 1.355 . S
C938 C940 1.419 . S
C939 C934 1.425 . S
C939 C936 1.409 . S
C939 C937 1.415 . S
C940 H930 0.930 . S
C940 C938 1.419 . S
C940 C941 1.362 . S
C941 H931 0.930 . S
C941 C934 1.409 . S
C941 C940 1.362 . S
H942 C948 0.930 . S
H943 C951 0.930 . S
H944 C952 0.930 . S
H945 C953 0.930 . S
H946 C956 0.930 . S
H947 C957 0.930 . S
C948 H942 0.930 . S
C948 C949 1.355 . S
C948 C950 1.415 . S
C949 C948 1.355 . S
C949 C951 1.419 . S
C950 C948 1.415 . S
C950 C955 1.425 . S
C950 C957 1.409 . S
C951 H943 0.930 . S
C951 C949 1.419 . S
C951 C952 1.362 . S
C952 H944 0.930 . S
C952 C951 1.362 . S
C952 C955 1.409 . S
C953 H945 0.930 . S
C953 C954 1.355 . S
C953 C955 1.415 . S
C954 C953 1.355 . S
C954 C956 1.419 . S
C955 C950 1.425 . S
C955 C952 1.409 . S
C955 C953 1.415 . S
C956 H946 0.930 . S
C956 C954 1.419 . S
C956 C957 1.362 . S
C957 H947 0.930 . S
C957 C950 1.409 . S
C957 C956 1.362 . S
H958 C964 0.930 . S
H959 C967 0.930 . S
H960 C968 0.930 . S
H961 C969 0.930 . S
H962 C972 0.930 . S
H963 C973 0.930 . S
C964 H958 0.930 . S
C964 C965 1.355 . S
C964 C966 1.415 . S
C965 C964 1.355 . S
C965 C967 1.419 . S
C966 C964 1.415 . S
C966 C971 1.425 . S
C966 C973 1.409 . S
C967 H959 0.930 . S
C967 C965 1.419 . S
C967 C968 1.362 . S
C968 H960 0.930 . S
C968 C967 1.362 . S
C968 C971 1.409 . S
C969 H961 0.930 . S
C969 C970 1.355 . S
C969 C971 1.415 . S
C970 C969 1.355 . S
C970 C972 1.419 . S
C971 C966 1.425 . S
C971 C968 1.409 . S
C971 C969 1.415 . S
C972 H962 0.930 . S
C972 C970 1.419 . S
C972 C973 1.362 . S
C973 H963 0.930 . S
C973 C966 1.409 . S
C973 C972 1.362 . S
H974 C980 0.930 . S
H975 C983 0.930 . S
H976 C984 0.930 . S
H977 C985 0.930 . S
H978 C988 0.930 . S
H979 C989 0.930 . S
C980 H974 0.930 . S
C980 C981 1.355 . S
C980 C982 1.415 . S
C981 C980 1.355 . S
C981 C983 1.419 . S
C982 C980 1.415 . S
C982 C987 1.425 . S
C982 C989 1.409 . S
C983 H975 0.930 . S
C983 C981 1.419 . S
C983 C984 1.362 . S
C984 H976 0.930 . S
C984 C983 1.362 . S
C984 C987 1.409 . S
C985 H977 0.930 . S
C985 C986 1.355 . S
C985 C987 1.415 . S
C986 C985 1.355 . S
C986 C988 1.419 . S
C987 C982 1.425 . S
C987 C984 1.409 . S
C987 C985 1.415 . S
C988 H978 0.930 . S
C988 C986 1.419 . S
C988 C989 1.362 . S
C989 H979 0.930 . S
C989 C982 1.409 . S
C989 C988 1.362 . S
H990 C996 0.930 . S
H991 C999 0.930 . S
H992 C1000 0.930 . S
H993 C1001 0.930 . S
H994 C1004 0.930 . S
H995 C1005 0.930 . S
C996 H990 0.930 . S
C996 C997 1.355 . S
C996 C998 1.415 . S
C997 C996 1.355 . S
C997 C999 1.419 . S
C998 C996 1.415 . S
C998 C1003 1.425 . S
C998 C1005 1.409 . S
C999 H991 0.930 . S
C999 C997 1.419 . S
C999 C1000 1.362 . S
C1000 H992 0.930 . S
C1000 C999 1.362 . S
C1000 C1003 1.409 . S
C1001 H993 0.930 . S
C1001 C1002 1.355 . S
C1001 C1003 1.415 . S
C1002 C1001 1.355 . S
C1002 C1004 1.419 . S
C1003 C998 1.425 . S
C1003 C1000 1.409 . S
C1003 C1001 1.415 . S
C1004 H994 0.930 . S
C1004 C1002 1.419 . S
C1004 C1005 1.362 . S
C1005 H995 0.930 . S
C1005 C998 1.409 . S
C1005 C1004 1.362 . S
H1006 C1012 0.930 . S
H1007 C1015 0.930 . S
H1008 C1016 0.930 . S
H1009 C1017 0.930 . S
H1010 C1020 0.930 . S
H1011 C1021 0.930 . S
C1012 H1006 0.930 . S
C1012 C1013 1.355 . S
C1012 C1014 1.415 . S
C1013 C1012 1.355 . S
C1013 C1015 1.419 . S
C1014 C1012 1.415 . S
C1014 C1019 1.425 . S
C1014 C1021 1.409 . S
C1015 H1007 0.930 . S
C1015 C1013 1.419 . S
C1015 C1016 1.362 . S
C1016 H1008 0.930 . S
C1016 C1015 1.362 . S
C1016 C1019 1.409 . S
C1017 H1009 0.930 . S
C1017 C1018 1.355 . S
C1017 C1019 1.415 . S
C1018 C1017 1.355 . S
C1018 C1020 1.419 . S
C1019 C1014 1.425 . S
C1019 C1016 1.409 . S
C1019 C1017 1.415 . S
C1020 H1010 0.930 . S
C1020 C1018 1.419 . S
C1020 C1021 1.362 . S
C1021 H1011 0.930 . S
C1021 C1014 1.409 . S
C1021 C1020 1.362 . S
C650 C342 1.525 . S
C645 C15 1.525 . S
C666 C411 1.517 . S
C661 C55 1.529 . S
C682 C349 1.548 . S
C677 C101 1.543 . S
C698 C412 1.582 . S
C693 C141 1.572 . S
C714 C465 1.524 . S
C709 C2 1.514 . S
C730 C501 1.514 . S
C725 C61 1.474 . S
C741 C95 1.591 . S
C746 C561 1.576 . S
C762 C624 1.515 . S
C757 C135 1.510 . S
C778 C464 1.500 . S
C773 C42 1.492 . S
C789 C82 1.524 . S
C794 C508 1.535 . S
C810 C554 1.596 . S
C805 C122 1.596 . S
C826 C623 1.530 . S
C821 C21 1.489 . S
C837 C162 1.557 . S
C842 C402 1.574 . S
C858 C359 1.541 . S
C853 C221 1.559 . S
C869 C255 1.542 . S
C874 C395 1.534 . S
C885 C282 1.521 . S
C890 C358 1.518 . S
C906 C570 1.582 . S
C901 C181 1.604 . S
C922 C614 1.521 . S
C917 C202 1.504 . S
C938 C448 1.514 . S
C933 C242 1.497 . S
C949 C301 1.515 . S
C954 C517 1.516 . S
C970 C571 1.562 . S
C965 C215 1.583 . S
C986 C607 1.511 . S
C981 C261 1.523 . S
C1002 C455 1.504 . S
C997 C295 1.498 . S
C1013 C175 1.520 . S
C1018 C518 1.525 . S
