# Generated by pormake.
# Topology ibd, (4,6)-cn, num edge types: 1
# Building blocks:
#     Node 0, Type 0, BuildingBlock: KUFVIS_clean_sbu_0, # of connection points: 4
#     Node 1, Type 0, BuildingBlock: KUFVIS_clean_sbu_0, # of connection points: 4
#     Node 2, Type 0, BuildingBlock: KUFVIS_clean_sbu_0, # of connection points: 4
#     Node 3, Type 0, BuildingBlock: KUFVIS_clean_sbu_0, # of connection points: 4
#     Node 4, Type 0, BuildingBlock: KUFVIS_clean_sbu_0, # of connection points: 4
#     Node 5, Type 0, BuildingBlock: KUFVIS_clean_sbu_0, # of connection points: 4
#     Node 6, Type 0, BuildingBlock: KUFVIS_clean_sbu_0, # of connection points: 4
#     Node 7, Type 0, BuildingBlock: KUFVIS_clean_sbu_0, # of connection points: 4
#     Node 8, Type 0, BuildingBlock: KUFVIS_clean_sbu_0, # of connection points: 4
#     Node 9, Type 0, BuildingBlock: KUFVIS_clean_sbu_0, # of connection points: 4
#     Node 10, Type 0, BuildingBlock: KUFVIS_clean_sbu_0, # of connection points: 4
#     Node 11, Type 0, BuildingBlock: KUFVIS_clean_sbu_0, # of connection points: 4
#     Node 12, Type 0, BuildingBlock: KUFVIS_clean_sbu_0, # of connection points: 4
#     Node 13, Type 0, BuildingBlock: KUFVIS_clean_sbu_0, # of connection points: 4
#     Node 14, Type 0, BuildingBlock: KUFVIS_clean_sbu_0, # of connection points: 4
#     Node 15, Type 0, BuildingBlock: KUFVIS_clean_sbu_0, # of connection points: 4
#     Node 16, Type 0, BuildingBlock: KUFVIS_clean_sbu_0, # of connection points: 4
#     Node 17, Type 0, BuildingBlock: KUFVIS_clean_sbu_0, # of connection points: 4
#     Node 18, Type 0, BuildingBlock: KUFVIS_clean_sbu_0, # of connection points: 4
#     Node 19, Type 0, BuildingBlock: KUFVIS_clean_sbu_0, # of connection points: 4
#     Node 20, Type 0, BuildingBlock: KUFVIS_clean_sbu_0, # of connection points: 4
#     Node 21, Type 0, BuildingBlock: KUFVIS_clean_sbu_0, # of connection points: 4
#     Node 22, Type 0, BuildingBlock: KUFVIS_clean_sbu_0, # of connection points: 4
#     Node 23, Type 0, BuildingBlock: KUFVIS_clean_sbu_0, # of connection points: 4
#     Node 24, Type 1, BuildingBlock: IZENUY_clean_sbu_0, # of connection points: 6
#     Node 25, Type 1, BuildingBlock: IZENUY_clean_sbu_0, # of connection points: 6
#     Node 26, Type 1, BuildingBlock: IZENUY_clean_sbu_0, # of connection points: 6
#     Node 27, Type 1, BuildingBlock: IZENUY_clean_sbu_0, # of connection points: 6
#     Node 28, Type 1, BuildingBlock: IZENUY_clean_sbu_0, # of connection points: 6
#     Node 29, Type 1, BuildingBlock: IZENUY_clean_sbu_0, # of connection points: 6
#     Node 30, Type 1, BuildingBlock: IZENUY_clean_sbu_0, # of connection points: 6
#     Node 31, Type 1, BuildingBlock: IZENUY_clean_sbu_0, # of connection points: 6
#     Node 32, Type 1, BuildingBlock: IZENUY_clean_sbu_0, # of connection points: 6
#     Node 33, Type 1, BuildingBlock: IZENUY_clean_sbu_0, # of connection points: 6
#     Node 34, Type 1, BuildingBlock: IZENUY_clean_sbu_0, # of connection points: 6
#     Node 35, Type 1, BuildingBlock: IZENUY_clean_sbu_0, # of connection points: 6
#     Node 36, Type 1, BuildingBlock: IZENUY_clean_sbu_0, # of connection points: 6
#     Node 37, Type 1, BuildingBlock: IZENUY_clean_sbu_0, # of connection points: 6
#     Node 38, Type 1, BuildingBlock: IZENUY_clean_sbu_0, # of connection points: 6
#     Node 39, Type 1, BuildingBlock: IZENUY_clean_sbu_0, # of connection points: 6
#     Edge 40, Type (0, 1), BuildingBlock: KIFKEQ_clean_linker_1, # of connection points: 2
#     Edge 41, Type (0, 1), BuildingBlock: KIFKEQ_clean_linker_1, # of connection points: 2
#     Edge 42, Type (0, 1), BuildingBlock: KIFKEQ_clean_linker_1, # of connection points: 2
#     Edge 43, Type (0, 1), BuildingBlock: KIFKEQ_clean_linker_1, # of connection points: 2
#     Edge 44, Type (0, 1), BuildingBlock: KIFKEQ_clean_linker_1, # of connection points: 2
#     Edge 45, Type (0, 1), BuildingBlock: KIFKEQ_clean_linker_1, # of connection points: 2
#     Edge 46, Type (0, 1), BuildingBlock: KIFKEQ_clean_linker_1, # of connection points: 2
#     Edge 47, Type (0, 1), BuildingBlock: KIFKEQ_clean_linker_1, # of connection points: 2
#     Edge 48, Type (0, 1), BuildingBlock: KIFKEQ_clean_linker_1, # of connection points: 2
#     Edge 49, Type (0, 1), BuildingBlock: KIFKEQ_clean_linker_1, # of connection points: 2
#     Edge 50, Type (0, 1), BuildingBlock: KIFKEQ_clean_linker_1, # of connection points: 2
#     Edge 51, Type (0, 1), BuildingBlock: KIFKEQ_clean_linker_1, # of connection points: 2
#     Edge 52, Type (0, 1), BuildingBlock: KIFKEQ_clean_linker_1, # of connection points: 2
#     Edge 53, Type (0, 1), BuildingBlock: KIFKEQ_clean_linker_1, # of connection points: 2
#     Edge 54, Type (0, 1), BuildingBlock: KIFKEQ_clean_linker_1, # of connection points: 2
#     Edge 55, Type (0, 1), BuildingBlock: KIFKEQ_clean_linker_1, # of connection points: 2
#     Edge 56, Type (0, 1), BuildingBlock: KIFKEQ_clean_linker_1, # of connection points: 2
#     Edge 57, Type (0, 1), BuildingBlock: KIFKEQ_clean_linker_1, # of connection points: 2
#     Edge 58, Type (0, 1), BuildingBlock: KIFKEQ_clean_linker_1, # of connection points: 2
#     Edge 59, Type (0, 1), BuildingBlock: KIFKEQ_clean_linker_1, # of connection points: 2
#     Edge 60, Type (0, 1), BuildingBlock: KIFKEQ_clean_linker_1, # of connection points: 2
#     Edge 61, Type (0, 1), BuildingBlock: KIFKEQ_clean_linker_1, # of connection points: 2
#     Edge 62, Type (0, 1), BuildingBlock: KIFKEQ_clean_linker_1, # of connection points: 2
#     Edge 63, Type (0, 1), BuildingBlock: KIFKEQ_clean_linker_1, # of connection points: 2
#     Edge 64, Type (0, 1), BuildingBlock: KIFKEQ_clean_linker_1, # of connection points: 2
#     Edge 65, Type (0, 1), BuildingBlock: KIFKEQ_clean_linker_1, # of connection points: 2
#     Edge 66, Type (0, 1), BuildingBlock: KIFKEQ_clean_linker_1, # of connection points: 2
#     Edge 67, Type (0, 1), BuildingBlock: KIFKEQ_clean_linker_1, # of connection points: 2
#     Edge 68, Type (0, 1), BuildingBlock: KIFKEQ_clean_linker_1, # of connection points: 2
#     Edge 69, Type (0, 1), BuildingBlock: KIFKEQ_clean_linker_1, # of connection points: 2
#     Edge 70, Type (0, 1), BuildingBlock: KIFKEQ_clean_linker_1, # of connection points: 2
#     Edge 71, Type (0, 1), BuildingBlock: KIFKEQ_clean_linker_1, # of connection points: 2
#     Edge 72, Type (0, 1), BuildingBlock: KIFKEQ_clean_linker_1, # of connection points: 2
#     Edge 73, Type (0, 1), BuildingBlock: KIFKEQ_clean_linker_1, # of connection points: 2
#     Edge 74, Type (0, 1), BuildingBlock: KIFKEQ_clean_linker_1, # of connection points: 2
#     Edge 75, Type (0, 1), BuildingBlock: KIFKEQ_clean_linker_1, # of connection points: 2
#     Edge 76, Type (0, 1), BuildingBlock: KIFKEQ_clean_linker_1, # of connection points: 2
#     Edge 77, Type (0, 1), BuildingBlock: KIFKEQ_clean_linker_1, # of connection points: 2
#     Edge 78, Type (0, 1), BuildingBlock: KIFKEQ_clean_linker_1, # of connection points: 2
#     Edge 79, Type (0, 1), BuildingBlock: KIFKEQ_clean_linker_1, # of connection points: 2
#     Edge 80, Type (0, 1), BuildingBlock: KIFKEQ_clean_linker_1, # of connection points: 2
#     Edge 81, Type (0, 1), BuildingBlock: KIFKEQ_clean_linker_1, # of connection points: 2
#     Edge 82, Type (0, 1), BuildingBlock: KIFKEQ_clean_linker_1, # of connection points: 2
#     Edge 83, Type (0, 1), BuildingBlock: KIFKEQ_clean_linker_1, # of connection points: 2
#     Edge 84, Type (0, 1), BuildingBlock: KIFKEQ_clean_linker_1, # of connection points: 2
#     Edge 85, Type (0, 1), BuildingBlock: KIFKEQ_clean_linker_1, # of connection points: 2
#     Edge 86, Type (0, 1), BuildingBlock: KIFKEQ_clean_linker_1, # of connection points: 2
#     Edge 87, Type (0, 1), BuildingBlock: KIFKEQ_clean_linker_1, # of connection points: 2
#     Edge 88, Type (0, 1), BuildingBlock: KIFKEQ_clean_linker_1, # of connection points: 2
#     Edge 89, Type (0, 1), BuildingBlock: KIFKEQ_clean_linker_1, # of connection points: 2
#     Edge 90, Type (0, 1), BuildingBlock: KIFKEQ_clean_linker_1, # of connection points: 2
#     Edge 91, Type (0, 1), BuildingBlock: KIFKEQ_clean_linker_1, # of connection points: 2
#     Edge 92, Type (0, 1), BuildingBlock: KIFKEQ_clean_linker_1, # of connection points: 2
#     Edge 93, Type (0, 1), BuildingBlock: KIFKEQ_clean_linker_1, # of connection points: 2
#     Edge 94, Type (0, 1), BuildingBlock: KIFKEQ_clean_linker_1, # of connection points: 2
#     Edge 95, Type (0, 1), BuildingBlock: KIFKEQ_clean_linker_1, # of connection points: 2
#     Edge 96, Type (0, 1), BuildingBlock: KIFKEQ_clean_linker_1, # of connection points: 2
#     Edge 97, Type (0, 1), BuildingBlock: KIFKEQ_clean_linker_1, # of connection points: 2
#     Edge 98, Type (0, 1), BuildingBlock: KIFKEQ_clean_linker_1, # of connection points: 2
#     Edge 99, Type (0, 1), BuildingBlock: KIFKEQ_clean_linker_1, # of connection points: 2
#     Edge 100, Type (0, 1), BuildingBlock: KIFKEQ_clean_linker_1, # of connection points: 2
#     Edge 101, Type (0, 1), BuildingBlock: KIFKEQ_clean_linker_1, # of connection points: 2
#     Edge 102, Type (0, 1), BuildingBlock: KIFKEQ_clean_linker_1, # of connection points: 2
#     Edge 103, Type (0, 1), BuildingBlock: KIFKEQ_clean_linker_1, # of connection points: 2
#     Edge 104, Type (0, 1), BuildingBlock: KIFKEQ_clean_linker_1, # of connection points: 2
#     Edge 105, Type (0, 1), BuildingBlock: KIFKEQ_clean_linker_1, # of connection points: 2
#     Edge 106, Type (0, 1), BuildingBlock: KIFKEQ_clean_linker_1, # of connection points: 2
#     Edge 107, Type (0, 1), BuildingBlock: KIFKEQ_clean_linker_1, # of connection points: 2
#     Edge 108, Type (0, 1), BuildingBlock: KIFKEQ_clean_linker_1, # of connection points: 2
#     Edge 109, Type (0, 1), BuildingBlock: KIFKEQ_clean_linker_1, # of connection points: 2
#     Edge 110, Type (0, 1), BuildingBlock: KIFKEQ_clean_linker_1, # of connection points: 2
#     Edge 111, Type (0, 1), BuildingBlock: KIFKEQ_clean_linker_1, # of connection points: 2
#     Edge 112, Type (0, 1), BuildingBlock: KIFKEQ_clean_linker_1, # of connection points: 2
#     Edge 113, Type (0, 1), BuildingBlock: KIFKEQ_clean_linker_1, # of connection points: 2
#     Edge 114, Type (0, 1), BuildingBlock: KIFKEQ_clean_linker_1, # of connection points: 2
#     Edge 115, Type (0, 1), BuildingBlock: KIFKEQ_clean_linker_1, # of connection points: 2
#     Edge 116, Type (0, 1), BuildingBlock: KIFKEQ_clean_linker_1, # of connection points: 2
#     Edge 117, Type (0, 1), BuildingBlock: KIFKEQ_clean_linker_1, # of connection points: 2
#     Edge 118, Type (0, 1), BuildingBlock: KIFKEQ_clean_linker_1, # of connection points: 2
#     Edge 119, Type (0, 1), BuildingBlock: KIFKEQ_clean_linker_1, # of connection points: 2
#     Edge 120, Type (0, 1), BuildingBlock: KIFKEQ_clean_linker_1, # of connection points: 2
#     Edge 121, Type (0, 1), BuildingBlock: KIFKEQ_clean_linker_1, # of connection points: 2
#     Edge 122, Type (0, 1), BuildingBlock: KIFKEQ_clean_linker_1, # of connection points: 2
#     Edge 123, Type (0, 1), BuildingBlock: KIFKEQ_clean_linker_1, # of connection points: 2
#     Edge 124, Type (0, 1), BuildingBlock: KIFKEQ_clean_linker_1, # of connection points: 2
#     Edge 125, Type (0, 1), BuildingBlock: KIFKEQ_clean_linker_1, # of connection points: 2
#     Edge 126, Type (0, 1), BuildingBlock: KIFKEQ_clean_linker_1, # of connection points: 2
#     Edge 127, Type (0, 1), BuildingBlock: KIFKEQ_clean_linker_1, # of connection points: 2
#     Edge 128, Type (0, 1), BuildingBlock: KIFKEQ_clean_linker_1, # of connection points: 2
#     Edge 129, Type (0, 1), BuildingBlock: KIFKEQ_clean_linker_1, # of connection points: 2
#     Edge 130, Type (0, 1), BuildingBlock: KIFKEQ_clean_linker_1, # of connection points: 2
#     Edge 131, Type (0, 1), BuildingBlock: KIFKEQ_clean_linker_1, # of connection points: 2
#     Edge 132, Type (0, 1), BuildingBlock: KIFKEQ_clean_linker_1, # of connection points: 2
#     Edge 133, Type (0, 1), BuildingBlock: KIFKEQ_clean_linker_1, # of connection points: 2
#     Edge 134, Type (0, 1), BuildingBlock: KIFKEQ_clean_linker_1, # of connection points: 2
#     Edge 135, Type (0, 1), BuildingBlock: KIFKEQ_clean_linker_1, # of connection points: 2
# Relax obj value: 0.306
# Max RMSD: 0.286
# Mean RMSD: 0.260
data_MOF--net-ibd--node1-KUFVIS_clean_sbu_0--node2-IZENUY_clean_sbu_0--edge1-KIFKEQ_clean_linker_1
_symmetry_space_group_name_H-M    P1
_symmetry_Int_Tables_number       1
_symmetry_cell_setting            triclinic
loop_
_symmetry_equiv_pos_as_xyz
'x, y, z'
_cell_length_a     49.412801
_cell_length_b     49.406142
_cell_length_c     49.404313
_cell_angle_alpha  91.162687
_cell_angle_beta   91.207373
_cell_angle_gamma 91.187767
loop_
_atom_site_label
_atom_site_type_symbol
_atom_site_fract_x
_atom_site_fract_y
_atom_site_fract_z
_atom_type_partial_charge
Mn0 Mn -0.00042 0.24632 0.38046 0.0
Mn1 Mn 0.03792 0.30261 0.37208 0.0
C2 C 0.02907 0.26177 0.41429 0.0
C3 C 0.96138 0.22397 0.39561 0.0
C4 C 0.04948 0.24856 0.34512 0.0
O5 O 0.97995 0.26463 0.34939 0.0
O6 O 0.00603 0.30258 0.34688 0.0
C7 C -0.00045 0.34353 0.3916 0.0
N8 N 0.02411 0.33161 0.39358 0.0
C9 C 0.0377 0.36083 0.43124 0.0
C10 C 0.01262 0.37351 0.42949 0.0
C11 C 0.99346 0.3648 0.40961 0.0
C12 C 0.04271 0.33987 0.41262 0.0
H13 H 0.98469 0.33682 0.37646 0.0
C14 C 0.98545 0.28776 0.33942 0.0
O15 O 0.97644 0.21303 0.37734 0.0
O16 O 0.96735 0.24866 0.40341 0.0
N17 N 0.06898 0.30498 0.39592 0.0
C18 C 0.09158 0.28963 0.39587 0.0
C19 C 0.11246 0.29525 0.41502 0.0
C20 C 0.10992 0.31659 0.43396 0.0
C21 C 0.08654 0.3322 0.43352 0.0
C22 C 0.06652 0.32582 0.4138 0.0
H23 H 0.09359 0.27313 0.38145 0.0
O24 O 0.0216 0.23646 0.41306 0.0
O25 O 0.01954 0.27696 0.39539 0.0
O26 O 0.02994 0.23566 0.35564 0.0
O27 O 0.05424 0.2738 0.34956 0.0
C28 C 0.08211 0.35349 0.4522 0.0
C29 C 0.0577 0.36777 0.45108 0.0
H30 H 0.00776 0.38978 0.44347 0.0
H31 H 0.97401 0.3744 0.40822 0.0
H32 H 0.13041 0.28307 0.41527 0.0
H33 H 0.12594 0.32068 0.44888 0.0
H34 H 0.09718 0.3588 0.46776 0.0
H35 H 0.05436 0.38385 0.46579 0.0
Mn36 Mn 0.00642 0.73934 0.625 0.0
Mn37 Mn 0.96164 0.69266 0.64655 0.0
C38 C 0.99668 0.70058 0.5993 0.0
C39 C 0.01685 0.77782 0.60074 0.0
C40 C 0.01772 0.70212 0.67179 0.0
O41 O 0.98508 0.75999 0.65337 0.0
O42 O 0.95286 0.72843 0.66253 0.0
C43 C 0.91092 0.71117 0.62063 0.0
N44 N 0.92964 0.69162 0.62408 0.0
C45 C 0.9051 0.6611 0.59343 0.0
C46 C 0.8855 0.68087 0.58964 0.0
C47 C 0.88845 0.70602 0.60327 0.0
C48 C 0.92695 0.6673 0.61115 0.0
H49 H 0.91319 0.73059 0.63095 0.0
C50 C 0.96329 0.7524 0.66488 0.0
O51 O 0.03241 0.77003 0.62046 0.0
O52 O 0.99451 0.76406 0.5961 0.0
N53 N 0.96842 0.65751 0.63147 0.0
C54 C 0.99016 0.64149 0.63568 0.0
C55 C 0.99099 0.61607 0.62254 0.0
C56 C 0.96949 0.60738 0.60521 0.0
C57 C 0.94733 0.62423 0.60118 0.0
C58 C 0.94754 0.64927 0.61498 0.0
H59 H 0.00681 0.64814 0.64886 0.0
O60 O 0.01946 0.71364 0.59626 0.0
O61 O 0.98116 0.71027 0.61772 0.0
O62 O 0.02606 0.71902 0.65462 0.0
O63 O 0.99383 0.69168 0.67108 0.0
C64 C 0.92533 0.61738 0.58358 0.0
C65 C 0.90418 0.63577 0.57978 0.0
H66 H 0.86827 0.67707 0.57607 0.0
H67 H 0.87349 0.72144 0.60033 0.0
H68 H 0.00822 0.60323 0.62566 0.0
H69 H 0.97031 0.58785 0.59493 0.0
H70 H 0.92463 0.59817 0.5726 0.0
H71 H 0.88754 0.63041 0.56596 0.0
Mn72 Mn 0.49849 0.75053 0.88288 0.0
Mn73 Mn 0.53452 0.80813 0.87435 0.0
C74 C 0.52803 0.76643 0.91651 0.0
C75 C 0.46038 0.72776 0.89775 0.0
C76 C 0.54632 0.75473 0.84585 0.0
O77 O 0.47873 0.76845 0.85146 0.0
O78 O 0.50066 0.80917 0.85204 0.0
C79 C 0.49796 0.84758 0.89967 0.0
N80 N 0.52273 0.83608 0.89842 0.0
C81 C 0.53984 0.86409 0.93564 0.0
C82 C 0.51465 0.87654 0.937 0.0
C83 C 0.4936 0.86817 0.91899 0.0
C84 C 0.54307 0.84383 0.9158 0.0
H85 H 0.48161 0.8409 0.88618 0.0
C86 C 0.4816 0.79287 0.84363 0.0
O87 O 0.47579 0.71694 0.8797 0.0
O88 O 0.46605 0.7525 0.90557 0.0
N89 N 0.56745 0.80937 0.89556 0.0
C90 C 0.58976 0.79383 0.89307 0.0
C91 C 0.61225 0.79872 0.91046 0.0
C92 C 0.61163 0.81957 0.93017 0.0
C93 C 0.5885 0.83537 0.93231 0.0
C94 C 0.56678 0.82971 0.91426 0.0
H95 H 0.59036 0.77773 0.87801 0.0
O96 O 0.52059 0.74109 0.91563 0.0
O97 O 0.51797 0.7814 0.89772 0.0
O98 O 0.5293 0.74043 0.85851 0.0
O99 O 0.54884 0.78043 0.84888 0.0
C100 C 0.58593 0.85612 0.95201 0.0
C101 C 0.5616 0.87044 0.95371 0.0
H102 H 0.51112 0.89225 0.95205 0.0
H103 H 0.47399 0.87744 0.92013 0.0
H104 H 0.63 0.78638 0.90874 0.0
H105 H 0.62891 0.8231 0.94374 0.0
H106 H 0.60237 0.86092 0.96627 0.0
H107 H 0.55968 0.88599 0.96929 0.0
Mn108 Mn 0.50211 0.2456 0.12845 0.0
Mn109 Mn 0.45891 0.19733 0.15003 0.0
C110 C 0.49262 0.20703 0.1023 0.0
C111 C 0.51221 0.28416 0.10413 0.0
C112 C 0.51568 0.20623 0.17334 0.0
O113 O 0.48105 0.26575 0.15721 0.0
O114 O 0.45191 0.23228 0.16896 0.0
C115 C 0.40733 0.21866 0.12861 0.0
N116 N 0.42561 0.19843 0.12969 0.0
C117 C 0.39856 0.17051 0.09865 0.0
C118 C 0.37939 0.19099 0.09732 0.0
C119 C 0.38381 0.21518 0.11236 0.0
C120 C 0.42149 0.17502 0.1154 0.0
H121 H 0.41072 0.23736 0.13999 0.0
C122 C 0.46112 0.25677 0.17079 0.0
O123 O 0.52784 0.2765 0.12386 0.0
O124 O 0.48984 0.27038 0.09972 0.0
N125 N 0.46371 0.16293 0.13243 0.0
C126 C 0.48511 0.14607 0.13436 0.0
C127 C 0.4844 0.12141 0.11968 0.0
C128 C 0.46173 0.11437 0.10319 0.0
C129 C 0.43995 0.13205 0.10154 0.0
C130 C 0.44169 0.15623 0.11683 0.0
H131 H 0.50268 0.1515 0.14682 0.0
O132 O 0.51526 0.22034 0.09942 0.0
O133 O 0.47701 0.21619 0.12097 0.0
O134 O 0.52225 0.22548 0.15793 0.0
O135 O 0.49263 0.19402 0.17201 0.0
C136 C 0.41686 0.1269 0.08487 0.0
C137 C 0.39615 0.14609 0.08347 0.0
H138 H 0.36134 0.18849 0.08461 0.0
H139 H 0.36918 0.23114 0.11132 0.0
H140 H 0.50135 0.10794 0.12096 0.0
H141 H 0.46138 0.09546 0.09168 0.0
H142 H 0.41498 0.10842 0.07275 0.0
H143 H 0.37867 0.14207 0.07029 0.0
Mn144 Mn 0.00809 0.74875 0.13467 0.0
Mn145 Mn 0.05948 0.78903 0.11468 0.0
C146 C 0.04517 0.75793 0.163 0.0
C147 C 0.96769 0.74028 0.15633 0.0
C148 C 0.04918 0.73196 0.09274 0.0
O149 O 0.9908 0.76958 0.1039 0.0
O150 O 0.02603 0.79733 0.09377 0.0
C151 C 0.03997 0.84232 0.13349 0.0
N152 N 0.05916 0.82293 0.13404 0.0
C153 C 0.08688 0.84934 0.16579 0.0
C154 C 0.06748 0.86966 0.16545 0.0
C155 C 0.04392 0.86611 0.14925 0.0
C156 C 0.08195 0.82617 0.14949 0.0
H157 H 0.02175 0.83962 0.12121 0.0
C158 C 0.00134 0.789 0.09066 0.0
O159 O 0.97636 0.72407 0.13761 0.0
O160 O 0.98156 0.76257 0.16112 0.0
N161 N 0.09251 0.78284 0.13433 0.0
C162 C 0.10819 0.76048 0.13394 0.0
C163 C 0.13201 0.76027 0.14995 0.0
C164 C 0.13944 0.78301 0.16616 0.0
C165 C 0.12298 0.80579 0.16622 0.0
C166 C 0.09959 0.80492 0.14969 0.0
H167 H 0.10246 0.74287 0.12167 0.0
O168 O 0.03084 0.73589 0.16587 0.0
O169 O 0.03791 0.77301 0.14311 0.0
O170 O 0.0292 0.72677 0.10762 0.0
O171 O 0.06218 0.75459 0.09364 0.0
C172 C 0.12856 0.82909 0.18246 0.0
C173 C 0.11056 0.85088 0.18219 0.0
H174 H 0.07034 0.88793 0.17776 0.0
H175 H 0.02879 0.88163 0.149 0.0
H176 H 0.14454 0.74256 0.14989 0.0
H177 H 0.1577 0.78267 0.17867 0.0
H178 H 0.14646 0.83032 0.19551 0.0
H179 H 0.1149 0.86854 0.19502 0.0
Mn180 Mn 0.51102 0.75797 0.37782 0.0
Mn181 Mn 0.4532 0.72222 0.38653 0.0
C182 C 0.49489 0.72797 0.34461 0.0
C183 C 0.53487 0.795 0.36196 0.0
C184 C 0.50632 0.71052 0.41567 0.0
O185 O 0.493 0.77879 0.40849 0.0
O186 O 0.4527 0.75605 0.40898 0.0
C187 C 0.41428 0.75946 0.36133 0.0
N188 N 0.42533 0.73449 0.36259 0.0
C189 C 0.39696 0.71786 0.32541 0.0
C190 C 0.38491 0.74326 0.32411 0.0
C191 C 0.3937 0.76418 0.34208 0.0
C192 C 0.41722 0.71429 0.3452 0.0
H193 H 0.42135 0.77572 0.37471 0.0
C194 C 0.46879 0.77553 0.41681 0.0
O195 O 0.54501 0.78003 0.38076 0.0
O196 O 0.51005 0.78977 0.35405 0.0
N197 N 0.45143 0.68938 0.36521 0.0
C198 C 0.46671 0.66687 0.36758 0.0
C199 C 0.46146 0.64449 0.35014 0.0
C200 C 0.44054 0.64545 0.33051 0.0
C201 C 0.42503 0.66879 0.32851 0.0
C202 C 0.43103 0.69038 0.3466 0.0
H203 H 0.48287 0.66603 0.38256 0.0
O204 O 0.52037 0.7348 0.34571 0.0
O205 O 0.48 0.73855 0.36313 0.0
O206 O 0.52044 0.72794 0.40335 0.0
O207 O 0.48077 0.70734 0.41178 0.0
C208 C 0.40425 0.6717 0.30888 0.0
C209 C 0.39026 0.69624 0.3073 0.0
H210 H 0.36922 0.74706 0.3091 0.0
H211 H 0.38477 0.78395 0.34095 0.0
H212 H 0.47358 0.62658 0.35174 0.0
H213 H 0.43674 0.62826 0.3169 0.0
H214 H 0.3992 0.65537 0.29458 0.0
H215 H 0.37471 0.69842 0.29176 0.0
Mn216 Mn 0.51066 0.24544 0.63498 0.0
Mn217 Mn 0.56224 0.2852 0.61437 0.0
C218 C 0.54789 0.25488 0.66298 0.0
C219 C 0.47071 0.23676 0.65752 0.0
C220 C 0.55241 0.22789 0.59359 0.0
O221 O 0.49292 0.26635 0.60453 0.0
O222 O 0.52914 0.2918 0.59215 0.0
C223 C 0.5411 0.3387 0.6304 0.0
N224 N 0.56069 0.31979 0.63229 0.0
C225 C 0.5868 0.34784 0.66401 0.0
C226 C 0.56696 0.36765 0.6623 0.0
C227 C 0.54402 0.36305 0.64543 0.0
C228 C 0.58292 0.32407 0.64835 0.0
H229 H 0.52335 0.33519 0.61759 0.0
C230 C 0.50418 0.28417 0.58976 0.0
O231 O 0.47904 0.22062 0.63856 0.0
O232 O 0.48452 0.25914 0.66193 0.0
N233 N 0.59498 0.28059 0.63503 0.0
C234 C 0.61125 0.25868 0.63583 0.0
C235 C 0.63462 0.25959 0.65252 0.0
C236 C 0.64099 0.28298 0.66821 0.0
C237 C 0.62395 0.30529 0.66703 0.0
C238 C 0.60108 0.30331 0.64982 0.0
H239 H 0.6063 0.24057 0.62399 0.0
O240 O 0.53384 0.23267 0.66588 0.0
O241 O 0.54049 0.26983 0.64304 0.0
O242 O 0.53149 0.22344 0.60746 0.0
O243 O 0.56609 0.25008 0.59502 0.0
C244 C 0.62845 0.32918 0.68267 0.0
C245 C 0.60991 0.35046 0.68113 0.0
H246 H 0.56901 0.38636 0.67405 0.0
H247 H 0.52856 0.3782 0.64411 0.0
H248 H 0.6476 0.24225 0.65343 0.0
H249 H 0.65889 0.2835 0.68128 0.0
H250 H 0.64591 0.33125 0.69624 0.0
H251 H 0.61341 0.36858 0.69353 0.0
Mn252 Mn 0.00785 0.25187 0.87915 0.0
Mn253 Mn 0.95083 0.21487 0.88804 0.0
C254 C 0.99151 0.22268 0.84541 0.0
C255 C 0.03072 0.28977 0.8639 0.0
C256 C 0.00463 0.20298 0.91544 0.0
O257 O 0.98994 0.27184 0.91041 0.0
O258 O 0.95073 0.24756 0.91197 0.0
C259 C 0.91027 0.25258 0.86651 0.0
N260 N 0.92219 0.22797 0.86558 0.0
C261 C 0.89337 0.21309 0.82806 0.0
C262 C 0.88071 0.23822 0.82872 0.0
C263 C 0.88923 0.25806 0.84801 0.0
C264 C 0.91412 0.20872 0.84713 0.0
H265 H 0.91685 0.26795 0.8812 0.0
C266 C 0.96623 0.26755 0.91964 0.0
O267 O 0.04151 0.27446 0.88206 0.0
O268 O 0.00589 0.28422 0.85626 0.0
N269 N 0.94882 0.18307 0.86521 0.0
C270 C 0.96434 0.16062 0.86609 0.0
C271 C 0.95905 0.13917 0.84751 0.0
C272 C 0.93785 0.141 0.82828 0.0
C273 C 0.92211 0.16428 0.82781 0.0
C274 C 0.92819 0.18492 0.84697 0.0
H275 H 0.98074 0.15915 0.88074 0.0
O276 O 0.01695 0.22971 0.84634 0.0
O277 O 0.97682 0.23245 0.86454 0.0
O278 O 0.01829 0.2212 0.90371 0.0
O279 O 0.97912 0.19934 0.91188 0.0
C280 C 0.90099 0.16804 0.80874 0.0
C281 C 0.88665 0.19244 0.80884 0.0
H282 H 0.86461 0.24261 0.81435 0.0
H283 H 0.87965 0.27756 0.84855 0.0
H284 H 0.97136 0.12131 0.84793 0.0
H285 H 0.93401 0.12454 0.8138 0.0
H286 H 0.89585 0.15246 0.79365 0.0
H287 H 0.87075 0.19526 0.7938 0.0
Mn288 Mn 0.38236 0.99339 0.24906 0.0
Mn289 Mn 0.37387 0.03069 0.30599 0.0
C290 C 0.41634 0.02242 0.26524 0.0
C291 C 0.3975 0.95519 0.22654 0.0
C292 C 0.3467 0.04283 0.25209 0.0
O293 O 0.35083 0.97378 0.26696 0.0
O294 O 0.3495 -0.00164 0.30598 0.0
C295 C 0.39475 0.9926 0.34653 0.0
N296 N 0.39598 0.01726 0.33474 0.0
C297 C 0.43315 0.03185 0.36413 0.0
C298 C 0.43218 0.00666 0.37668 0.0
C299 C 0.41292 0.98694 0.36781 0.0
C300 C 0.41444 0.03638 0.34311 0.0
H301 H 0.38006 0.97733 0.3397 0.0
C302 C 0.34157 0.97838 0.2906 0.0
O303 O 0.37949 0.97052 0.21552 0.0
O304 O 0.40497 0.96088 0.25137 0.0
N305 N 0.39703 0.06225 0.30823 0.0
C306 C 0.39641 0.08483 0.29286 0.0
C307 C 0.41494 0.10622 0.29857 0.0
C308 C 0.43384 0.10422 0.32005 0.0
C309 C 0.43402 0.08083 0.33565 0.0
C310 C 0.41494 0.06024 0.32912 0.0
H311 H 0.38197 0.08645 0.2763 0.0
O312 O 0.41537 0.0152 0.23986 0.0
O313 O 0.39717 0.01286 0.28003 0.0
O314 O 0.35803 0.0243 0.23844 0.0
O315 O 0.35048 0.04654 0.27757 0.0
C316 C 0.45269 0.07693 0.35709 0.0
C317 C 0.45231 0.05244 0.37128 0.0
H318 H 0.44627 0.00216 0.39299 0.0
H319 H 0.41214 0.9674 0.3773 0.0
H320 H 0.41474 0.12417 0.28639 0.0
H321 H 0.44825 0.12067 0.32424 0.0
H322 H 0.46768 0.09249 0.3626 0.0
H323 H 0.46705 0.04951 0.38743 0.0
Mn324 Mn 0.25099 0.12516 0.5053 0.0
Mn325 Mn 0.20187 0.14572 0.4625 0.0
C326 C 0.2135 0.09769 0.49525 0.0
C327 C 0.29052 0.10257 0.51543 0.0
C328 C 0.21 0.16816 0.5197 0.0
O329 O 0.26995 0.15519 0.4849 0.0
O330 O 0.23615 0.16592 0.45567 0.0
C331 C 0.22369 0.12589 0.41055 0.0
N332 N 0.20349 0.12602 0.42888 0.0
C333 C 0.1764 0.09465 0.40138 0.0
C334 C 0.19685 0.09431 0.38213 0.0
C335 C 0.22061 0.10999 0.38676 0.0
C336 C 0.1805 0.11109 0.42459 0.0
H337 H 0.24207 0.13776 0.4141 0.0
C338 C 0.26053 0.16857 0.46502 0.0
O339 O 0.28174 0.12162 0.53121 0.0
O340 O 0.27727 0.09789 0.49276 0.0
N341 N 0.16809 0.12689 0.46715 0.0
C342 C 0.15125 0.12789 0.48862 0.0
C343 C 0.12704 0.11248 0.48772 0.0
C344 C 0.1204 0.09622 0.46479 0.0
C345 C 0.13804 0.09554 0.44293 0.0
C346 C 0.16176 0.11152 0.44487 0.0
H347 H 0.15637 0.14019 0.50638 0.0
O348 O 0.22697 0.09484 0.51782 0.0
O349 O 0.22191 0.11699 0.47998 0.0
O350 O 0.22963 0.15316 0.52597 0.0
O351 O 0.19793 0.16707 0.49658 0.0
C352 C 0.13328 0.07919 0.41954 0.0
C353 C 0.15243 0.07878 0.39876 0.0
H354 H 0.19466 0.08188 0.36387 0.0
H355 H 0.23655 0.10971 0.37208 0.0
H356 H 0.1136 0.11301 0.50473 0.0
H357 H 0.10184 0.08415 0.46428 0.0
H358 H 0.11515 0.06654 0.41751 0.0
H359 H 0.14872 0.06583 0.38106 0.0
Mn360 Mn 0.13195 0.01861 0.74956 0.0
Mn361 Mn 0.11155 0.06469 0.79551 0.0
C362 C 0.15932 0.05573 0.76136 0.0
C363 C 0.1545 0.97953 0.7375 0.0
C364 C 0.08745 0.05861 0.73859 0.0
O365 O 0.10204 -0.00157 0.76944 0.0
O366 O 0.09354 0.02939 0.80244 0.0
C367 C 0.13496 0.04295 0.84604 0.0
N368 N 0.13305 0.0634 0.82806 0.0
C369 C 0.16438 0.09147 0.8546 0.0
C370 C 0.16658 0.07076 0.87346 0.0
C371 C 0.15183 0.04639 0.86913 0.0
C372 C 0.14706 0.08698 0.83209 0.0
H373 H 0.12378 0.02412 0.84271 0.0
C374 C 0.09031 0.00587 0.79118 0.0
O375 O 0.13551 0.98912 0.72215 0.0
O376 O 0.15924 0.99173 0.7607 0.0
N377 N 0.12857 0.09935 0.79054 0.0
C378 C 0.12585 0.11639 0.76937 0.0
C379 C 0.14027 0.1412 0.7699 0.0
C380 C 0.15731 0.14821 0.79217 0.0
C381 C 0.1598 0.13033 0.81372 0.0
C382 C 0.14477 0.10599 0.81216 0.0
H383 H 0.1129 0.11102 0.75213 0.0
O384 O 0.1622 0.0434 0.73818 0.0
O385 O 0.14013 0.04633 0.77619 0.0
O386 O 0.10399 0.04118 0.73015 0.0
O387 O 0.08796 0.06817 0.76282 0.0
C388 C 0.17702 0.13547 0.83643 0.0
C389 C 0.17923 0.11609 0.85689 0.0
H390 H 0.17977 0.07323 0.89117 0.0
H391 H 0.15355 0.03025 0.88352 0.0
H392 H 0.13834 0.15483 0.75313 0.0
H393 H 0.16858 0.16726 0.7924 0.0
H394 H 0.18892 0.15411 0.83818 0.0
H395 H 0.19279 0.12013 0.87408 0.0
Mn396 Mn 0.25213 0.87476 0.00922 0.0
Mn397 Mn 0.21241 0.88373 0.95395 0.0
C398 C 0.22151 0.8416 0.99477 0.0
C399 C 0.29021 0.85899 0.03126 0.0
C400 C 0.20311 0.91132 0.00811 0.0
O401 O 0.272 0.90511 0.99002 0.0
O402 O 0.24478 0.90823 0.9529 0.0
C403 C 0.249 0.86314 0.91189 0.0
N404 N 0.22485 0.86172 0.92464 0.0
C405 C 0.20963 0.82412 0.89613 0.0
C406 C 0.23428 0.82527 0.88261 0.0
C407 C 0.25405 0.84486 0.89054 0.0
C408 C 0.20565 0.84301 0.91711 0.0
H409 H 0.26433 0.87805 0.91801 0.0
C410 C 0.26598 0.91519 0.96706 0.0
O411 O 0.27585 0.87792 0.042 0.0
O412 O 0.28376 0.85089 0.00675 0.0
N413 N 0.18085 0.86053 0.9527 0.0
C414 C 0.15881 0.86112 0.96881 0.0
C415 C 0.13746 0.8423 0.96405 0.0
C416 C 0.13896 0.82313 0.94278 0.0
C417 C 0.16178 0.823 0.92638 0.0
C418 C 0.18232 0.84242 0.93192 0.0
H419 H 0.15762 0.87571 0.98529 0.0
O420 O 0.22956 0.84288 0.01992 0.0
O421 O 0.23109 0.86012 0.97918 0.0
O422 O 0.22278 0.90041 0.02036 0.0
O423 O 0.19741 0.90688 0.98305 0.0
C424 C 0.16519 0.80404 0.90511 0.0
C425 C 0.1891 0.80459 0.89 0.0
H426 H 0.23834 0.81107 0.86627 0.0
H427 H 0.27317 0.84579 0.88029 0.0
H428 H 0.11996 0.84248 0.97684 0.0
H429 H 0.12259 0.80845 0.93936 0.0
H430 H 0.14971 0.78871 0.90044 0.0
H431 H 0.19164 0.78967 0.87393 0.0
Mn432 Mn 0.25041 0.38069 -0.00058 0.0
Mn433 Mn 0.30943 0.37359 0.0335 0.0
C434 C 0.26682 0.41495 0.0279 0.0
C435 C 0.22609 0.39456 0.9618 0.0
C436 C 0.25705 0.34436 0.04756 0.0
O437 O 0.26812 0.34929 0.97948 0.0
O438 O 0.30962 0.35097 -0.00013 0.0
C439 C 0.34705 0.39911 0.99523 0.0
N440 N 0.33652 0.39795 0.02043 0.0
C441 C 0.36477 0.43551 0.03626 0.0
C442 C 0.37624 0.4368 0.01059 0.0
C443 C 0.36725 0.41859 0.98996 0.0
C444 C 0.34483 0.41553 0.04037 0.0
H445 H 0.33992 0.38544 0.97922 0.0
C446 C 0.29277 0.342 0.98154 0.0
O447 O 0.2161 0.37665 0.9779 0.0
O448 O 0.25085 0.40288 0.96655 0.0
N449 N 0.31153 0.39517 0.06617 0.0
C450 C 0.29688 0.39268 0.08907 0.0
C451 C 0.30245 0.41025 0.11128 0.0
C452 C 0.32308 0.43012 0.10977 0.0
C453 C 0.33796 0.43224 0.08603 0.0
C454 C 0.33163 0.41404 0.06461 0.0
H455 H 0.28099 0.37747 0.09038 0.0
O456 O 0.24127 0.41361 0.02138 0.0
O457 O 0.2817 0.39625 0.01759 0.0
O458 O 0.24188 0.35662 0.03097 0.0
O459 O 0.28276 0.34784 0.04907 0.0
C460 C 0.35845 0.45206 0.08258 0.0
C461 C 0.3718 0.45374 0.0577 0.0
H462 H 0.39166 0.45195 0.00638 0.0
H463 H 0.37577 0.41967 0.96999 0.0
H464 H 0.29082 0.40854 0.12951 0.0
H465 H 0.32714 0.4438 0.12684 0.0
H466 H 0.36378 0.46641 0.09878 0.0
H467 H 0.38713 0.46941 0.05511 0.0
Mn468 Mn 0.74853 0.13245 0.00751 0.0
Mn469 Mn 0.78964 0.11229 0.05821 0.0
C470 C 0.75718 0.16002 0.04529 0.0
C471 C 0.7398 0.15556 0.96791 0.0
C472 C 0.73288 0.08942 0.04807 0.0
O473 O 0.77001 0.1027 0.98926 0.0
O474 O 0.79777 0.09205 0.02432 0.0
C475 C 0.84234 0.13223 0.03823 0.0
N476 N 0.82324 0.13214 0.05772 0.0
C477 C 0.84969 0.16367 0.08566 0.0
C478 C 0.86971 0.16397 0.06596 0.0
C479 C 0.86599 0.14821 0.04213 0.0
C480 C 0.82665 0.14718 0.08076 0.0
H481 H 0.83951 0.12029 0.01981 0.0
C482 C 0.78954 0.0894 -0.00045 0.0
O483 O 0.72384 0.13617 0.97567 0.0
O484 O 0.76192 0.16009 0.98209 0.0
N485 N 0.78368 0.13125 0.09167 0.0
C486 C 0.76155 0.1303 0.10765 0.0
C487 C 0.76149 0.14585 0.13175 0.0
C488 C 0.78415 0.1622 0.13916 0.0
C489 C 0.80669 0.16285 0.12239 0.0
C490 C 0.80567 0.14675 0.09872 0.0
H491 H 0.744 0.11793 0.10194 0.0
O492 O 0.73498 0.16264 0.03117 0.0
O493 O 0.77271 0.14073 0.03746 0.0
O494 O 0.72725 0.10412 0.028 0.0
O495 O 0.75552 0.09086 0.06102 0.0
C496 C 0.82988 0.17925 0.12795 0.0
C497 C 0.85141 0.17959 0.10964 0.0
H498 H 0.88787 0.17645 0.06879 0.0
H499 H 0.88127 0.14846 0.02677 0.0
H500 H 0.74397 0.14535 0.14452 0.0
H501 H 0.78393 0.17436 0.15765 0.0
H502 H 0.83123 0.19196 0.14608 0.0
H503 H 0.86898 0.19254 0.11397 0.0
Mn504 Mn 0.12545 0.50503 0.24438 0.0
Mn505 Mn 0.14499 0.45852 0.19846 0.0
C506 C 0.09752 0.4931 0.20777 0.0
C507 C 0.10377 0.51754 0.28378 0.0
C508 C 0.16932 0.51541 0.20355 0.0
O509 O 0.15555 0.4853 0.26427 0.0
O510 O 0.16361 0.45198 0.23355 0.0
C511 C 0.12183 0.40842 0.22132 0.0
N512 N 0.12346 0.42607 0.20057 0.0
C513 C 0.09153 0.39928 0.17341 0.0
C514 C 0.08962 0.38076 0.19445 0.0
C515 C 0.10481 0.38537 0.21852 0.0
C516 C 0.10902 0.42176 0.17727 0.0
H517 H 0.13335 0.41197 0.23992 0.0
C518 C 0.16718 0.46351 0.2569 0.0
O519 O 0.12259 0.53272 0.27367 0.0
O520 O 0.09863 0.49427 0.27183 0.0
N521 N 0.12741 0.46303 0.16399 0.0
C522 C 0.12992 0.48392 0.14658 0.0
C523 C 0.11508 0.48308 0.12201 0.0
C524 C 0.09784 0.46079 0.11561 0.0
C525 C 0.09559 0.43953 0.13385 0.0
C526 C 0.11104 0.44139 0.15793 0.0
H527 H 0.14301 0.50117 0.15149 0.0
O528 O 0.09492 0.51638 0.21999 0.0
O529 O 0.11672 0.47816 0.21703 0.0
O530 O 0.15308 0.52403 0.22119 0.0
O531 O 0.16859 0.49111 0.19417 0.0
C532 C 0.07819 0.41686 0.12934 0.0
C533 C 0.07623 0.39671 0.14908 0.0
H534 H 0.07632 0.36309 0.19247 0.0
H535 H 0.10332 0.37124 0.2349 0.0
H536 H 0.11682 0.49963 0.10809 0.0
H537 H 0.08624 0.46034 0.09675 0.0
H538 H 0.06595 0.4149 0.11094 0.0
H539 H 0.06252 0.37955 0.14553 0.0
Mn540 Mn 0.7537 0.87798 0.5077 0.0
Mn541 Mn 0.80836 0.8667 0.54748 0.0
C542 C 0.76955 0.91086 0.53814 0.0
C543 C 0.73304 0.8947 0.46913 0.0
C544 C 0.75314 0.84091 0.55616 0.0
O545 O 0.77173 0.84662 0.48805 0.0
O546 O 0.80922 0.84295 0.51466 0.0
C547 C 0.85219 0.88639 0.51248 0.0
N548 N 0.83882 0.88781 0.53627 0.0
C549 C 0.86918 0.92305 0.5536 0.0
C550 C 0.88332 0.9219 0.52931 0.0
C551 C 0.87476 0.90352 0.50865 0.0
C552 C 0.84695 0.90535 0.55633 0.0
H553 H 0.84565 0.87233 0.49652 0.0
C554 C 0.79468 0.83626 0.49365 0.0
O555 O 0.72111 0.87644 0.48348 0.0
O556 O 0.75779 0.90155 0.47598 0.0
N557 N 0.80955 0.88926 0.57945 0.0
C558 C 0.79232 0.88945 0.60061 0.0
C559 C 0.79724 0.90763 0.62246 0.0
C560 C 0.81985 0.92533 0.62236 0.0
C561 C 0.83728 0.92477 0.60034 0.0
C562 C 0.83139 0.90618 0.57917 0.0
H563 H 0.77486 0.87595 0.60074 0.0
O564 O 0.74441 0.91052 0.53002 0.0
O565 O 0.78427 0.89147 0.52883 0.0
O566 O 0.74086 0.85301 0.53723 0.0
O567 O 0.77843 0.84399 0.56133 0.0
C568 C 0.85998 0.94227 0.59834 0.0
C569 C 0.87589 0.94146 0.57497 0.0
H570 H 0.90063 0.93521 0.52621 0.0
H571 H 0.88551 0.90259 0.48981 0.0
H572 H 0.78361 0.90804 0.63932 0.0
H573 H 0.82348 0.93944 0.63918 0.0
H574 H 0.86513 0.95676 0.61448 0.0
H575 H 0.89299 0.95538 0.57346 0.0
Mn576 Mn 0.87896 0.01495 0.25677 0.0
Mn577 Mn 0.88885 0.95563 0.22434 0.0
C578 C 0.84618 0.99713 0.22723 0.0
C579 C 0.86282 0.03945 0.29318 0.0
C580 C 0.91784 0.00839 0.21087 0.0
O581 O 0.90997 -0.0017 0.27843 0.0
O582 O 0.90963 0.95624 0.25922 0.0
C583 C 0.86193 0.91781 0.26149 0.0
N584 N 0.8642 0.92825 0.23633 0.0
C585 C 0.82751 0.89968 0.21895 0.0
C586 C 0.8251 0.88832 0.24459 0.0
C587 C 0.84233 0.8975 0.26597 0.0
C588 C 0.84761 0.91969 0.21564 0.0
H589 H 0.87479 0.92513 0.27806 0.0
C590 C 0.91758 0.97368 0.27745 0.0
O591 O 0.88113 0.04971 0.27771 0.0
O592 O 0.85539 0.0144 0.2886 0.0
N593 N 0.86899 0.95298 0.19062 0.0
C594 C 0.87235 0.96765 0.16783 0.0
C595 C 0.85573 0.96195 0.14492 0.0
C596 C 0.83588 0.94123 0.14565 0.0
C597 C 0.83284 0.92637 0.1693 0.0
C598 C 0.85014 0.93279 0.19143 0.0
H599 H 0.88749 0.98366 0.16714 0.0
O600 O 0.84669 0.02282 0.2332 0.0
O601 O 0.86488 0.98302 0.23862 0.0
O602 O 0.90417 0.02359 0.2262 0.0
O603 O 0.91506 0.98259 0.2099 0.0
C604 C 0.81288 0.90587 0.17199 0.0
C605 C 0.8102 0.89255 0.1968 0.0
H606 H 0.80981 0.87286 0.24819 0.0
H607 H 0.84037 0.88908 0.2859 0.0
H608 H 0.85814 0.97359 0.12677 0.0
H609 H 0.82291 0.9371 0.12804 0.0
H610 H 0.79917 0.90052 0.15525 0.0
H611 H 0.79443 0.87721 0.19878 0.0
Mn612 Mn 0.24154 0.63253 0.52195 0.0
Mn613 Mn 0.28671 0.61219 0.56906 0.0
C614 C 0.25375 0.66036 0.55856 0.0
C615 C 0.22964 0.6545 0.48246 0.0
C616 C 0.2294 0.58953 0.56367 0.0
O617 O 0.26102 0.60214 0.50225 0.0
O618 O 0.29201 0.5918 0.53472 0.0
C619 C 0.33759 0.63209 0.5451 0.0
N620 N 0.32008 0.63203 0.56602 0.0
C621 C 0.34857 0.66347 0.59198 0.0
C622 C 0.36697 0.66377 0.57076 0.0
C623 C 0.36143 0.64804 0.54721 0.0
C624 C 0.32525 0.64702 0.58882 0.0
H625 H 0.33334 0.6201 0.52692 0.0
C626 C 0.28123 0.58876 0.51097 0.0
O627 O 0.21412 0.63588 0.49244 0.0
O628 O 0.25289 0.65926 0.49457 0.0
N629 N 0.28331 0.63113 0.60295 0.0
C630 C 0.26254 0.63013 0.62061 0.0
C631 C 0.26433 0.64563 0.64476 0.0
C632 C 0.28745 0.66195 0.65047 0.0
C633 C 0.30859 0.66262 0.63198 0.0
C634 C 0.30575 0.64659 0.60836 0.0
H635 H 0.24467 0.61773 0.61621 0.0
O636 O 0.23056 0.66331 0.54624 0.0
O637 O 0.26831 0.64075 0.5496 0.0
O638 O 0.22178 0.605 0.54486 0.0
O639 O 0.25321 0.59046 0.57421 0.0
C640 C 0.3321 0.67899 0.6358 0.0
C641 C 0.35211 0.67935 0.61585 0.0
H642 H 0.38526 0.67623 0.57221 0.0
H643 H 0.37546 0.64827 0.53069 0.0
H644 H 0.24789 0.64509 0.65887 0.0
H645 H 0.28865 0.67406 0.669 0.0
H646 H 0.33484 0.69166 0.65384 0.0
H647 H 0.36994 0.69229 0.61886 0.0
Mn648 Mn 0.37193 0.5099 0.7597 0.0
Mn649 Mn 0.38138 0.45043 0.72738 0.0
C650 C 0.33872 0.49195 0.73077 0.0
C651 C 0.3565 0.53471 0.79626 0.0
C652 C 0.41002 0.50312 0.71316 0.0
O653 O 0.4033 0.49339 0.78093 0.0
O654 O 0.40273 0.45125 0.7619 0.0
C655 C 0.35515 0.41281 0.7652 0.0
N656 N 0.35701 0.42308 0.73992 0.0
C657 C 0.3203 0.39415 0.72322 0.0
C658 C 0.31831 0.38297 0.74897 0.0
C659 C 0.33575 0.39241 0.77007 0.0
C660 C 0.34019 0.41427 0.71951 0.0
H661 H 0.3682 0.42031 0.78155 0.0
C662 C 0.41096 0.46879 0.77992 0.0
O663 O 0.37456 0.54478 0.78039 0.0
O664 O 0.34891 0.50966 0.79197 0.0
N665 N 0.361 0.44751 0.69397 0.0
C666 C 0.36398 0.46201 0.67101 0.0
C667 C 0.34714 0.45601 0.64834 0.0
C668 C 0.32746 0.43516 0.64947 0.0
C669 C 0.32481 0.42048 0.67328 0.0
C670 C 0.34231 0.42721 0.69517 0.0
H671 H 0.37901 0.47809 0.67001 0.0
O672 O 0.33928 0.51766 0.73663 0.0
O673 O 0.35758 0.47787 0.74192 0.0
O674 O 0.39659 0.51836 0.72865 0.0
O675 O 0.40729 0.47731 0.71235 0.0
C676 C 0.30507 0.39983 0.67635 0.0
C677 C 0.30279 0.38671 0.70132 0.0
H678 H 0.30319 0.36742 0.75288 0.0
H679 H 0.33412 0.38412 0.7901 0.0
H680 H 0.34924 0.46751 0.63006 0.0
H681 H 0.31432 0.43079 0.63203 0.0
H682 H 0.29124 0.39421 0.65979 0.0
H683 H 0.28719 0.37125 0.70359 0.0
Mn684 Mn 0.62341 0.00572 0.74722 0.0
Mn685 Mn 0.64361 0.96427 0.69683 0.0
C686 C 0.59578 0.9967 0.70958 0.0
C687 C 0.60111 0.01475 0.78718 0.0
C688 C 0.66647 0.02109 0.70671 0.0
O689 O 0.65343 0.98456 0.76542 0.0
O690 O 0.66353 0.95599 0.73086 0.0
C691 C 0.62308 0.91172 0.71669 0.0
N692 N 0.62351 0.9308 0.69718 0.0
C693 C 0.5921 0.90452 0.66893 0.0
C694 C 0.59147 0.88451 0.68865 0.0
C695 C 0.60699 0.88816 0.71265 0.0
C696 C 0.60867 0.92748 0.67399 0.0
H697 H 0.63485 0.91449 0.73523 0.0
C698 C 0.66636 0.96463 0.75546 0.0
O699 O 0.62013 0.03075 0.7787 0.0
O700 O 0.59624 0.99249 0.77331 0.0
N701 N 0.62494 0.97038 0.66322 0.0
C702 C 0.62624 0.99247 0.64719 0.0
C703 C 0.61099 0.99257 0.62289 0.0
C704 C 0.5946 0.96999 0.61532 0.0
C705 C 0.5936 0.94749 0.63214 0.0
C706 C 0.60941 0.94845 0.65602 0.0
H707 H 0.63867 0.00994 0.653 0.0
O708 O 0.59295 0.01889 0.72367 0.0
O709 O 0.61514 0.98129 0.71749 0.0
O710 O 0.65134 0.02696 0.72634 0.0
O711 O 0.66539 -0.00176 0.69414 0.0
C712 C 0.57714 0.92437 0.62642 0.0
C713 C 0.57645 0.90287 0.64477 0.0
H714 H 0.57891 0.86642 0.68571 0.0
H715 H 0.60648 0.87289 0.72803 0.0
H716 H 0.61177 0.01007 0.61008 0.0
H717 H 0.58268 0.97025 0.59668 0.0
H718 H 0.56464 0.92307 0.60814 0.0
H719 H 0.56344 0.88536 0.64031 0.0
Mn720 Mn 0.74515 0.62349 0.00581 0.0
Mn721 Mn 0.69737 0.64478 0.96205 0.0
C722 C 0.70671 0.59715 0.99628 0.0
C723 C 0.78392 0.59953 0.01596 0.0
C724 C 0.70702 0.66929 0.0184 0.0
O725 O 0.76513 0.65246 0.98448 0.0
O726 O 0.73265 0.66189 0.95326 0.0
C727 C 0.71604 0.6204 0.91068 0.0
N728 N 0.69657 0.62298 0.92962 0.0
C729 C 0.66663 0.59198 0.90479 0.0
C730 C 0.68631 0.5891 0.88496 0.0
C731 C 0.71113 0.60336 0.88794 0.0
C732 C 0.67257 0.60946 0.92689 0.0
H733 H 0.73521 0.63118 0.91298 0.0
C734 C 0.75682 0.66443 0.96318 0.0
O735 O 0.77607 0.61918 0.03156 0.0
O736 O 0.7702 0.59501 0.99356 0.0
N737 N 0.66265 0.62868 0.96882 0.0
C738 C 0.64676 0.63201 0.99079 0.0
C739 C 0.6217 0.61815 0.99161 0.0
C740 C 0.61326 0.60102 0.96987 0.0
C741 C 0.62998 0.5979 0.94748 0.0
C742 C 0.65464 0.61239 0.94771 0.0
H743 H 0.65323 0.64501 0.00763 0.0
O744 O 0.72008 0.59422 0.0189 0.0
O745 O 0.71586 0.61589 0.98076 0.0
O746 O 0.72463 0.65253 0.02604 0.0
O747 O 0.69605 0.66865 0.99474 0.0
C748 C 0.6234 0.58053 0.92523 0.0
C749 C 0.64167 0.57765 0.90386 0.0
H750 H 0.68271 0.57577 0.86752 0.0
H751 H 0.72648 0.60112 0.8728 0.0
H752 H 0.60897 0.62056 0.00901 0.0
H753 H 0.59402 0.59018 0.97069 0.0
H754 H 0.60449 0.56902 0.92452 0.0
H755 H 0.63653 0.56398 0.88703 0.0
Mn756 Mn 0.87777 0.49613 0.7493 0.0
Mn757 Mn 0.86873 0.53549 0.80477 0.0
C758 C 0.91144 0.52591 0.76473 0.0
C759 C 0.89325 0.45765 0.72761 0.0
C760 C 0.84224 0.54596 0.75021 0.0
O761 O 0.84649 0.47675 0.76764 0.0
O762 O 0.8436 0.50362 0.80499 0.0
C763 C 0.88787 0.49789 0.84664 0.0
N764 N 0.88991 0.52224 0.83431 0.0
C765 C 0.92695 0.53657 0.864 0.0
C766 C 0.92514 0.51171 0.87709 0.0
C767 C 0.90554 0.49228 0.86834 0.0
C768 C 0.90869 0.54109 0.84257 0.0
H769 H 0.87292 0.48284 0.83991 0.0
C770 C 0.83628 0.48275 0.79054 0.0
O771 O 0.87499 0.4725 0.71636 0.0
O772 O 0.90083 0.46395 0.7523 0.0
N773 N 0.89248 0.56662 0.80688 0.0
C774 C 0.89256 0.58895 0.79112 0.0
C775 C 0.91145 0.61005 0.79675 0.0
C776 C 0.92998 0.60802 0.81853 0.0
C777 C 0.92942 0.58492 0.83455 0.0
C778 C 0.90999 0.56464 0.82811 0.0
H779 H 0.87841 0.59057 0.77431 0.0
O780 O 0.91051 0.51807 0.73952 0.0
O781 O 0.89233 0.51663 0.77978 0.0
O782 O 0.85294 0.52623 0.73781 0.0
O783 O 0.84649 0.55125 0.77539 0.0
C784 C 0.94769 0.58101 0.85633 0.0
C785 C 0.94649 0.55683 0.87101 0.0
H786 H 0.93884 0.50723 0.89373 0.0
H787 H 0.9041 0.47299 0.87826 0.0
H788 H 0.91181 0.62778 0.78425 0.0
H789 H 0.94469 0.62423 0.82265 0.0
H790 H 0.96299 0.5963 0.86174 0.0
H791 H 0.96091 0.55389 0.88745 0.0
Mn792 Mn 0.75174 0.37779 0.50653 0.0
Mn793 Mn 0.71332 0.38705 0.45044 0.0
C794 C 0.72146 0.34458 0.49123 0.0
C795 C 0.78993 0.36191 0.52854 0.0
C796 C 0.7033 0.41483 0.50446 0.0
O797 O 0.77181 0.40847 0.4878 0.0
O798 O 0.74625 0.4106 0.44942 0.0
C799 C 0.74967 0.36497 0.40894 0.0
N800 N 0.7254 0.36434 0.42151 0.0
C801 C 0.70941 0.32681 0.3933 0.0
C802 C 0.73418 0.32715 0.37997 0.0
C803 C 0.75439 0.3463 0.38784 0.0
C804 C 0.70577 0.34606 0.41404 0.0
H805 H 0.76533 0.37954 0.41503 0.0
C806 C 0.76687 0.41786 0.46426 0.0
O807 O 0.7753 0.38048 0.53957 0.0
O808 O 0.78355 0.35417 0.50392 0.0
N809 N 0.68123 0.3646 0.44931 0.0
C810 C 0.65921 0.36581 0.4654 0.0
C811 C 0.63747 0.34742 0.46077 0.0
C812 C 0.63858 0.32801 0.43966 0.0
C813 C 0.66142 0.32721 0.42332 0.0
C814 C 0.68236 0.34622 0.42873 0.0
H815 H 0.65831 0.38057 0.48174 0.0
O816 O 0.7292 0.34554 0.51649 0.0
O817 O 0.73121 0.36338 0.4761 0.0
O818 O 0.72187 0.40308 0.51763 0.0
O819 O 0.6988 0.41109 0.47909 0.0
C820 C 0.66447 0.30793 0.40226 0.0
C821 C 0.68845 0.30772 0.38727 0.0
H822 H 0.738 0.31264 0.36384 0.0
H823 H 0.77362 0.3466 0.37774 0.0
H824 H 0.61996 0.34809 0.47354 0.0
H825 H 0.62191 0.31366 0.43635 0.0
H826 H 0.64867 0.29291 0.39769 0.0
H827 H 0.69072 0.29254 0.3714 0.0
Mn828 Mn 0.63506 0.5142 0.24897 0.0
Mn829 Mn 0.6153 0.56599 0.28889 0.0
C830 C 0.66304 0.55178 0.25709 0.0
C831 C 0.65729 0.47393 0.24122 0.0
C832 C 0.59246 0.55472 0.2323 0.0
O833 O 0.60494 0.49689 0.27069 0.0
O834 O 0.5949 0.53249 0.29798 0.0
C835 C 0.63529 0.54729 0.34211 0.0
N836 N 0.63526 0.56625 0.32247 0.0
C837 C 0.66701 0.59468 0.34812 0.0
C838 C 0.66726 0.57553 0.36868 0.0
C839 C 0.65136 0.55172 0.36563 0.0
C840 C 0.65047 0.58925 0.32521 0.0
H841 H 0.62322 0.52889 0.33981 0.0
C842 C 0.59194 0.50764 0.29017 0.0
O843 O 0.63821 0.48185 0.22496 0.0
O844 O 0.66217 0.48853 0.26301 0.0
N845 N 0.63448 0.59911 0.28196 0.0
C846 C 0.63352 0.61453 0.25942 0.0
C847 C 0.64917 0.63854 0.2587 0.0
C848 C 0.66562 0.64645 0.28114 0.0
C849 C 0.66627 0.63026 0.30411 0.0
C850 C 0.65009 0.60664 0.30374 0.0
H851 H 0.62105 0.60845 0.24205 0.0
O852 O 0.66574 0.53716 0.23521 0.0
O853 O 0.64349 0.54451 0.27253 0.0
O854 O 0.60725 0.53464 0.22708 0.0
O855 O 0.59374 0.56802 0.25474 0.0
C856 C 0.68273 0.63635 0.32716 0.0
C857 C 0.68303 0.61862 0.34918 0.0
H858 H 0.67979 0.57877 0.38676 0.0
H859 H 0.65156 0.53677 0.38134 0.0
H860 H 0.64866 0.65087 0.24085 0.0
H861 H 0.67784 0.66487 0.28042 0.0
H862 H 0.69549 0.65445 0.32802 0.0
H863 H 0.696 0.62337 0.36665 0.0
Fe864 Fe 0.13441 0.10543 0.15479 0.0
Fe865 Fe 0.1091 0.15545 0.13017 0.0
O866 O 0.13403 0.13042 0.12984 0.0
Fe867 Fe 0.15859 0.13041 0.10441 0.0
O868 O 0.14713 0.09753 0.0921 0.0
O869 O 0.14714 0.07864 0.132 0.0
O870 O 0.1009 0.09346 0.14474 0.0
C871 C 0.08026 0.10791 0.14443 0.0
C872 C 0.18835 0.11614 0.15138 0.0
O873 O 0.08257 0.13354 0.14468 0.0
C874 C 0.1569 0.18412 0.11635 0.0
O875 O 0.12159 0.12786 0.18183 0.0
O876 O 0.12051 0.1678 0.16309 0.0
O877 O 0.18551 0.11587 0.12581 0.0
O878 O 0.16801 0.11594 0.16626 0.0
C879 C 0.11042 0.14367 0.07634 0.0
O880 O 0.13123 0.18196 0.11581 0.0
O881 O 0.17123 0.16336 0.11559 0.0
C882 C 0.12166 0.15354 0.1839 0.0
O883 O 0.09632 0.14426 0.09724 0.0
O884 O 0.13608 0.14475 0.07824 0.0
C885 C 0.14604 0.07668 0.10631 0.0
Fe886 Fe 0.10191 0.84428 0.38877 0.0
Fe887 Fe 0.12685 0.89497 0.36409 0.0
O888 O 0.12704 0.87026 0.38936 0.0
Fe889 Fe 0.15225 0.87158 0.41528 0.0
O890 O 0.16422 0.83867 0.40544 0.0
O891 O 0.1241 0.81863 0.40363 0.0
O892 O 0.11245 0.83198 0.35609 0.0
C893 C 0.11321 0.84615 0.33521 0.0
C894 C 0.10459 0.85675 0.44268 0.0
O895 O 0.11312 0.87181 0.33716 0.0
C896 C 0.14089 0.9251 0.41204 0.0
O897 O 0.07524 0.86512 0.37353 0.0
O898 O 0.09366 0.90589 0.37351 0.0
O899 O 0.1302 0.85731 0.4413 0.0
O900 O 0.08997 0.85516 0.42148 0.0
C901 C 0.18084 0.88616 0.36826 0.0
O902 O 0.14061 0.92249 0.38643 0.0
O903 O 0.14176 0.90461 0.42674 0.0
C904 C 0.07296 0.89064 0.37302 0.0
O905 O 0.16 0.88561 0.35318 0.0
O906 O 0.17881 0.88607 0.39384 0.0
C907 C 0.14974 0.81739 0.4045 0.0
Fe908 Fe 0.37124 0.91568 0.65228 0.0
Fe909 Fe 0.3415 0.88487 0.60566 0.0
O910 O 0.36869 0.88771 0.62945 0.0
Fe911 Fe 0.39343 0.86248 0.63041 0.0
O912 O 0.38532 0.85444 0.66481 0.0
O913 O 0.38704 0.89656 0.67997 0.0
O914 O 0.33893 0.90724 0.66662 0.0
C915 C 0.31699 0.90467 0.65328 0.0
C916 C 0.42407 0.9112 0.63914 0.0
O917 O 0.3169 0.90141 0.62774 0.0
C918 C 0.38674 0.86732 0.57607 0.0
O919 O 0.35619 0.93972 0.62862 0.0
O920 O 0.3512 0.9164 0.59039 0.0
O921 O 0.42144 0.88574 0.64129 0.0
O922 O 0.40363 0.92594 0.63929 0.0
C923 C 0.34441 0.83251 0.6211 0.0
O924 O 0.36133 0.86766 0.57934 0.0
O925 O 0.40289 0.86918 0.59608 0.0
C926 C 0.35418 0.93872 0.60299 0.0
O927 O 0.33009 0.85321 0.61953 0.0
O928 O 0.36998 0.83457 0.6197 0.0
C929 C 0.38696 0.87131 0.68423 0.0
Fe930 Fe 0.41592 0.1489 0.87672 0.0
Fe931 Fe 0.38508 0.10265 0.84618 0.0
O932 O 0.3879 0.12609 0.87368 0.0
Fe933 Fe 0.36251 0.12683 0.89827 0.0
O934 O 0.35455 0.16123 0.89026 0.0
O935 O 0.39665 0.17643 0.89255 0.0
O936 O 0.40779 0.16367 0.84453 0.0
C937 C 0.40475 0.15075 0.8224 0.0
C938 C 0.41095 0.13536 0.92942 0.0
O939 O 0.40135 0.12521 0.82183 0.0
C940 C 0.36724 0.07252 0.89119 0.0
O941 O 0.44007 0.12547 0.86154 0.0
O942 O 0.41669 0.08738 0.85553 0.0
O943 O 0.38554 0.13755 0.92649 0.0
O944 O 0.42591 0.13556 0.90913 0.0
C945 C 0.33261 0.11788 0.84925 0.0
O946 O 0.36813 0.07597 0.8658 0.0
O947 O 0.36908 0.09245 0.90746 0.0
C948 C 0.43903 0.09991 0.85865 0.0
O949 O 0.35328 0.11644 0.83491 0.0
O950 O 0.3347 0.11624 0.87477 0.0
C951 C 0.3714 0.18067 0.89195 0.0
Fe952 Fe 0.59906 0.34296 0.88958 0.0
Fe953 Fe 0.62313 0.39406 0.86487 0.0
O954 O 0.62374 0.36937 0.8901 0.0
Fe955 Fe 0.649 0.37095 0.91595 0.0
O956 O 0.66155 0.3384 0.9054 0.0
O957 O 0.62173 0.31783 0.90462 0.0
O958 O 0.60984 0.33075 0.85697 0.0
C959 C 0.61066 0.34488 0.83606 0.0
C960 C 0.60161 0.35562 0.94337 0.0
O961 O 0.61014 0.37056 0.83787 0.0
C962 C 0.63631 0.4242 0.91312 0.0
O963 O 0.57202 0.36315 0.87416 0.0
O964 O 0.58963 0.40424 0.87407 0.0
O965 O 0.62723 0.35598 0.94191 0.0
O966 O 0.58697 0.35388 0.9222 0.0
C967 C 0.67739 0.38674 0.86924 0.0
O968 O 0.63607 0.42175 0.88747 0.0
O969 O 0.63787 0.40366 0.92774 0.0
C970 C 0.56924 0.38859 0.87356 0.0
O971 O 0.6566 0.38555 0.8541 0.0
O972 O 0.67525 0.38633 0.89478 0.0
C973 C 0.64736 0.31692 0.90415 0.0
Fe974 Fe 0.84238 0.3857 0.10369 0.0
Fe975 Fe 0.86967 0.41202 0.15404 0.0
O976 O 0.86828 0.38606 0.1289 0.0
Fe977 Fe 0.89271 0.36061 0.12902 0.0
O978 O 0.90371 0.36945 0.09575 0.0
O979 O 0.86312 0.37032 0.07703 0.0
O980 O 0.8537 0.41827 0.09179 0.0
C981 C 0.85524 0.43946 0.10639 0.0
C982 C 0.84367 0.33208 0.11526 0.0
O983 O 0.85519 0.43802 0.132 0.0
C984 C 0.88464 0.36539 0.18303 0.0
O985 O 0.8169 0.4008 0.12593 0.0
O986 O 0.83688 0.40175 0.1661 0.0
O987 O 0.86934 0.33378 0.11561 0.0
O988 O 0.82969 0.35307 0.11409 0.0
C989 C 0.92304 0.40865 0.14222 0.0
O990 O 0.88455 0.3909 0.18065 0.0
O991 O 0.88332 0.35011 0.16235 0.0
C992 C 0.81561 0.40061 0.15157 0.0
O993 O 0.90263 0.42349 0.1433 0.0
O994 O 0.92034 0.38304 0.14238 0.0
C995 C 0.88861 0.36912 0.07494 0.0
Fe996 Fe 0.86418 0.62648 0.3954 0.0
Fe997 Fe 0.91676 0.65074 0.37409 0.0
O998 O 0.88957 0.62696 0.37086 0.0
Fe999 Fe 0.88777 0.60368 0.34321 0.0
O1000 O 0.85565 0.61641 0.33184 0.0
O1001 O 0.8367 0.61557 0.37155 0.0
O1002 O 0.85514 0.66075 0.38817 0.0
C1003 C 0.87126 0.68073 0.39059 0.0
C1004 C 0.8706 0.57244 0.38767 0.0
O1005 O 0.89667 0.67733 0.39056 0.0
C1006 C 0.94172 0.60292 0.35567 0.0
O1007 O 0.88703 0.63722 0.42374 0.0
O1008 O 0.92741 0.63713 0.40613 0.0
O1009 O 0.87156 0.57616 0.36234 0.0
O1010 O 0.87177 0.59224 0.40408 0.0
C1011 C 0.90516 0.6528 0.32002 0.0
O1012 O 0.94171 0.6285 0.35836 0.0
O1013 O 0.91985 0.58955 0.35277 0.0
C1014 C 0.91252 0.63546 0.4264 0.0
O1015 O 0.90773 0.66564 0.34224 0.0
O1016 O 0.90333 0.62713 0.31923 0.0
C1017 C 0.83484 0.61725 0.346 0.0
Fe1018 Fe 0.90513 0.85234 0.87606 0.0
Fe1019 Fe 0.85506 0.87648 0.90174 0.0
O1020 O 0.87992 0.87713 0.87663 0.0
Fe1021 Fe 0.87957 0.90251 0.85202 0.0
O1022 O 0.91284 0.91476 0.86278 0.0
O1023 O 0.93143 0.87479 0.86219 0.0
O1024 O 0.91748 0.86273 0.90939 0.0
C1025 C 0.90312 0.86245 0.93016 0.0
C1026 C 0.89365 0.85543 0.82228 0.0
O1027 O 0.8775 0.86262 0.92802 0.0
C1028 C 0.82572 0.89104 0.85445 0.0
O1029 O 0.88354 0.82529 0.88984 0.0
O1030 O 0.84326 0.84314 0.89068 0.0
O1031 O 0.89342 0.88099 0.82501 0.0
O1032 O 0.89408 0.84059 0.84271 0.0
C1033 C 0.86507 0.93065 0.90007 0.0
O1034 O 0.82813 0.89024 0.88001 0.0
O1035 O 0.84633 0.89166 0.83988 0.0
C1036 C 0.858 0.82264 0.89041 0.0
O1037 O 0.86538 0.90977 0.91428 0.0
O1038 O 0.86558 0.92868 0.87446 0.0
C1039 C 0.9336 0.9004 0.86225 0.0
Fe1040 Fe 0.87467 0.11558 0.64365 0.0
Fe1041 Fe 0.84639 0.14634 0.59781 0.0
O1042 O 0.87532 0.14094 0.61876 0.0
Fe1043 Fe 0.90493 0.16126 0.61455 0.0
O1044 O 0.90373 0.17441 0.6491 0.0
O1045 O 0.8956 0.13517 0.66821 0.0
O1046 O 0.84521 0.1296 0.65982 0.0
C1047 C 0.82277 0.13295 0.64789 0.0
C1048 C 0.92684 0.11027 0.62773 0.0
O1049 O 0.82165 0.1364 0.62269 0.0
C1050 C 0.88967 0.1519 0.56179 0.0
O1051 O 0.85388 0.09179 0.62303 0.0
O1052 O 0.84672 0.11204 0.5841 0.0
O1053 O 0.92885 0.13553 0.62481 0.0
O1054 O 0.90398 0.09894 0.63006 0.0
C1055 C 0.86276 0.19858 0.60778 0.0
O1056 O 0.86569 0.15678 0.56853 0.0
O1057 O 0.90803 0.1492 0.57968 0.0
C1058 C 0.84739 0.09097 0.59811 0.0
O1059 O 0.844 0.18111 0.61028 0.0
O1060 O 0.88677 0.19126 0.60388 0.0
C1061 C 0.90314 0.15981 0.66984 0.0
Fe1062 Fe 0.64349 0.09478 0.3522 0.0
Fe1063 Fe 0.66092 0.11188 0.4099 0.0
O1064 O 0.63879 0.11523 0.38156 0.0
Fe1065 Fe 0.61227 0.13886 0.38255 0.0
O1066 O 0.62425 0.15614 0.35275 0.0
O1067 O 0.63103 0.11951 0.32833 0.0
O1068 O 0.67743 0.1089 0.34784 0.0
C1069 C 0.69601 0.10785 0.36572 0.0
C1070 C 0.58833 0.09286 0.35506 0.0
O1071 O 0.69034 0.10316 0.39002 0.0
C1072 C 0.61048 0.12137 0.43459 0.0
O1073 O 0.65658 0.06584 0.37054 0.0
O1074 O 0.65109 0.07644 0.41338 0.0
O1075 O 0.58866 0.11766 0.36208 0.0
O1076 O 0.60988 0.07952 0.35455 0.0
C1077 C 0.65649 0.16694 0.40887 0.0
O1078 O 0.63597 0.12034 0.43514 0.0
O1079 O 0.59772 0.12386 0.41242 0.0
C1080 C 0.65401 0.05882 0.39484 0.0
O1081 O 0.67209 0.147 0.40828 0.0
O1082 O 0.6315 0.16405 0.40315 0.0
C1083 C 0.62697 0.14463 0.32998 0.0
Fe1084 Fe 0.60385 0.84853 0.14523 0.0
Fe1085 Fe 0.64684 0.88044 0.11394 0.0
O1086 O 0.62273 0.8788 0.13996 0.0
Fe1087 Fe 0.6172 0.90754 0.16097 0.0
O1088 O 0.58193 0.90875 0.14975 0.0
O1089 O 0.57352 0.86568 0.15668 0.0
O1090 O 0.58932 0.84897 0.11123 0.0
C1091 C 0.60284 0.85003 0.08985 0.0
C1092 C 0.61409 0.86442 0.19759 0.0
O1093 O 0.62728 0.85829 0.09034 0.0
C1094 C 0.67242 0.90912 0.15827 0.0
O1095 O 0.63028 0.8257 0.13424 0.0
O1096 O 0.66546 0.85214 0.12713 0.0
O1097 O 0.60844 0.88819 0.19075 0.0
O1098 O 0.61719 0.84612 0.17975 0.0
C1099 C 0.627 0.93131 0.11011 0.0
O1100 O 0.67048 0.90279 0.13331 0.0
O1101 O 0.65205 0.90803 0.17329 0.0
C1102 C 0.6553 0.82884 0.13025 0.0
O1103 O 0.63052 0.90893 0.09815 0.0
O1104 O 0.6253 0.9325 0.13554 0.0
C1105 C 0.56524 0.88933 0.15254 0.0
Fe1106 Fe 0.40777 0.66097 0.11525 0.0
Fe1107 Fe 0.34945 0.64366 0.10067 0.0
O1108 O 0.37948 0.63919 0.12021 0.0
Fe1109 Fe 0.38136 0.61319 0.14436 0.0
O1110 O 0.41065 0.59827 0.12867 0.0
O1111 O 0.43323 0.63632 0.12389 0.0
O1112 O 0.41 0.64978 0.08007 0.0
C1113 C 0.39085 0.65203 0.06296 0.0
C1114 C 0.40843 0.65827 0.17044 0.0
O1115 O 0.36691 0.65555 0.0707 0.0
C1116 C 0.32908 0.62799 0.15165 0.0
O1117 O 0.38783 0.69016 0.10598 0.0
O1118 O 0.34587 0.67808 0.11388 0.0
O1119 O 0.4027 0.63317 0.16843 0.0
O1120 O 0.40721 0.67328 0.15005 0.0
C1121 C 0.35231 0.58838 0.09983 0.0
O1122 O 0.32639 0.63209 0.12661 0.0
O1123 O 0.35224 0.62544 0.16236 0.0
C1124 C 0.36377 0.69638 0.11106 0.0
O1125 O 0.35101 0.60971 0.08624 0.0
O1126 O 0.36027 0.58905 0.12436 0.0
C1127 C 0.43274 0.61089 0.12548 0.0
Fe1128 Fe 0.13908 0.59656 0.85301 0.0
Fe1129 Fe 0.1555 0.60996 0.91182 0.0
O1130 O 0.13407 0.61537 0.88336 0.0
Fe1131 Fe 0.10798 0.63936 0.88534 0.0
O1132 O 0.12082 0.65815 0.85701 0.0
O1133 O 0.12792 0.62309 0.83038 0.0
O1134 O 0.17345 0.61008 0.85028 0.0
C1135 C 0.19154 0.60731 0.8684 0.0
C1136 C 0.08377 0.59553 0.85465 0.0
O1137 O 0.18507 0.60125 0.89216 0.0
C1138 C 0.10497 0.6197 0.93627 0.0
O1139 O 0.15075 0.56622 0.87006 0.0
O1140 O 0.14441 0.57472 0.91323 0.0
O1141 O 0.08426 0.61985 0.86327 0.0
O1142 O 0.10512 0.58196 0.85362 0.0
C1143 C 0.15251 0.66511 0.91341 0.0
O1144 O 0.13041 0.61805 0.93705 0.0
O1145 O 0.09264 0.62284 0.91399 0.0
C1146 C 0.14692 0.55799 0.8938 0.0
O1147 O 0.16768 0.64486 0.91204 0.0
O1148 O 0.12745 0.66296 0.90758 0.0
C1149 C 0.12416 0.64813 0.8337 0.0
Fe1150 Fe 0.1414 0.37335 0.61608 0.0
Fe1151 Fe 0.09558 0.3441 0.64572 0.0
O1152 O 0.11604 0.37343 0.64095 0.0
Fe1153 Fe 0.11085 0.40275 0.66129 0.0
O1154 O 0.14527 0.4024 0.67481 0.0
O1155 O 0.16517 0.39501 0.63592 0.0
O1156 O 0.15801 0.34436 0.63064 0.0
C1157 C 0.14644 0.3216 0.6332 0.0
C1158 C 0.12371 0.42497 0.6104 0.0
O1159 O 0.12112 0.31997 0.63576 0.0
C1160 C 0.05848 0.38642 0.65178 0.0
O1161 O 0.12175 0.35175 0.59207 0.0
O1162 O 0.08232 0.345 0.61121 0.0
O1163 O 0.12057 0.4269 0.63564 0.0
O1164 O 0.1273 0.40227 0.5991 0.0
C1165 C 0.10519 0.36012 0.6982 0.0
O1166 O 0.06576 0.36252 0.65622 0.0
O1167 O 0.07598 0.4051 0.64902 0.0
C1168 C 0.09689 0.345 0.59046 0.0
O1169 O 0.10774 0.34145 0.6806 0.0
O1170 O 0.10059 0.38406 0.69107 0.0
C1171 C 0.16625 0.40236 0.66063 0.0
Fe1172 Fe 0.64923 0.62794 0.60765 0.0
Fe1173 Fe 0.62541 0.60262 0.65801 0.0
O1174 O 0.62473 0.62764 0.63305 0.0
Fe1175 Fe 0.59953 0.65242 0.63358 0.0
O1176 O 0.58664 0.64146 0.60072 0.0
O1177 O 0.62625 0.64134 0.58133 0.0
O1178 O 0.63854 0.59462 0.59561 0.0
C1179 C 0.63843 0.57392 0.61002 0.0
C1180 C 0.64661 0.6818 0.61933 0.0
O1181 O 0.63937 0.57613 0.63566 0.0
C1182 C 0.61233 0.65033 0.68715 0.0
O1183 O 0.67653 0.61458 0.62949 0.0
O1184 O 0.65859 0.61386 0.66978 0.0
O1185 O 0.62102 0.67931 0.61911 0.0
O1186 O 0.66124 0.66128 0.61836 0.0
C1187 C 0.57142 0.60425 0.64728 0.0
O1188 O 0.61165 0.62467 0.68492 0.0
O1189 O 0.61124 0.66472 0.66646 0.0
C1190 C 0.67912 0.6148 0.65514 0.0
O1191 O 0.59226 0.59005 0.64744 0.0
O1192 O 0.57342 0.62993 0.64808 0.0
C1193 C 0.60054 0.64094 0.57966 0.0
Fe1194 Fe 0.40681 0.3613 0.38484 0.0
Fe1195 Fe 0.38046 0.40981 0.35819 0.0
O1196 O 0.38122 0.38563 0.38398 0.0
Fe1197 Fe 0.35627 0.38584 0.409 0.0
O1198 O 0.34467 0.35218 0.39896 0.0
O1199 O 0.38516 0.33455 0.39911 0.0
O1200 O 0.39659 0.34801 0.35181 0.0
C1201 C 0.39591 0.36182 0.33067 0.0
C1202 C 0.40388 0.3727 0.43853 0.0
O1203 O 0.39484 0.38741 0.33216 0.0
C1204 C 0.36595 0.43974 0.40504 0.0
O1205 O 0.43292 0.38361 0.37054 0.0
O1206 O 0.41348 0.42314 0.36842 0.0
O1207 O 0.37834 0.37266 0.43591 0.0
O1208 O 0.41858 0.37315 0.41802 0.0
C1209 C 0.32683 0.39796 0.36113 0.0
O1210 O 0.36588 0.43662 0.37951 0.0
O1211 O 0.36672 0.41958 0.42026 0.0
C1212 C 0.43454 0.40918 0.36905 0.0
O1213 O 0.3474 0.39778 0.3465 0.0
O1214 O 0.32939 0.39882 0.38671 0.0
C1215 C 0.35957 0.33178 0.39918 0.0
H1216 H 0.04367 0.19564 0.32865 0.0
H1217 H 0.09376 0.26727 0.31772 0.0
H1218 H 0.06729 0.17241 0.29297 0.0
H1219 H 0.11814 0.24347 0.28231 0.0
H1220 H 0.11828 0.20772 0.19458 0.0
H1221 H 0.10667 0.22978 0.23683 0.0
H1222 H 0.1076 0.15267 0.27661 0.0
H1223 H 0.11835 0.13026 0.23378 0.0
C1224 C 0.06008 0.20634 0.31899 0.0
C1225 C 0.06645 0.23356 0.32578 0.0
C1226 C 0.07387 0.19283 0.29863 0.0
C1227 C 0.09453 0.20609 0.2846 0.0
C1228 C 0.10199 0.23282 0.29241 0.0
C1229 C 0.08807 0.24644 0.31276 0.0
C1230 C 0.11632 0.19541 0.21236 0.0
C1231 C 0.11868 0.1671 0.21064 0.0
C1232 C 0.10993 0.20817 0.23675 0.0
C1233 C 0.10592 0.193 0.26012 0.0
C1234 C 0.11004 0.16489 0.25884 0.0
C1235 C 0.1163 0.15205 0.23433 0.0
H1236 H 0.99394 0.79025 0.55212 0.0
H1237 H 0.0612 0.8117 0.60613 0.0
H1238 H 0.0146 0.816 0.51652 0.0
H1239 H 0.08151 0.83865 0.57073 0.0
H1240 H 0.12746 0.83895 0.48968 0.0
H1241 H 0.10438 0.82707 0.53087 0.0
H1242 H 0.02933 0.85641 0.49702 0.0
H1243 H 0.05231 0.86708 0.45528 0.0
C1244 C 0.01275 0.80122 0.55667 0.0
C1245 C 0.02616 0.79859 0.58177 0.0
C1246 C 0.02461 0.81618 0.53623 0.0
C1247 C 0.05002 0.82913 0.54053 0.0
C1248 C 0.06227 0.82838 0.56647 0.0
C1249 C 0.05053 0.81313 0.58685 0.0
C1250 C 0.10612 0.84323 0.49121 0.0
C1251 C 0.09158 0.85347 0.4691 0.0
C1252 C 0.09287 0.83661 0.51495 0.0
C1253 C 0.06484 0.84048 0.51725 0.0
C1254 C 0.05076 0.85253 0.49575 0.0
C1255 C 0.06394 0.85875 0.47186 0.0
H1256 H 0.46161 0.84352 0.84201 0.0
H1257 H 0.45804 0.76604 0.80008 0.0
H1258 H 0.43296 0.86263 0.80715 0.0
H1259 H 0.43093 0.78554 0.76386 0.0
H1260 H 0.37334 0.82267 0.7056 0.0
H1261 H 0.39103 0.80348 0.7473 0.0
H1262 H 0.43739 0.87752 0.76375 0.0
H1263 H 0.41832 0.89701 0.72312 0.0
C1264 C 0.45464 0.83057 0.82525 0.0
C1265 C 0.46215 0.80336 0.82362 0.0
C1266 C 0.43838 0.84159 0.80507 0.0
C1267 C 0.42991 0.82588 0.78227 0.0
C1268 C 0.43668 0.79828 0.78119 0.0
C1269 C 0.45238 0.78706 0.80185 0.0
C1270 C 0.38689 0.83495 0.71854 0.0
C1271 C 0.39452 0.86128 0.71117 0.0
C1272 C 0.39726 0.82388 0.7423 0.0
C1273 C 0.41598 0.83871 0.7589 0.0
C1274 C 0.42271 0.86551 0.7519 0.0
C1275 C 0.41186 0.87675 0.72847 0.0
H1276 H 0.44523 0.21539 0.07697 0.0
H1277 H 0.51478 0.16413 0.07499 0.0
H1278 H 0.42565 0.19157 0.03765 0.0
H1279 H 0.49505 0.13981 0.03499 0.0
H1280 H 0.46499 0.13934 0.94285 0.0
H1281 H 0.48516 0.15119 0.98702 0.0
H1282 H 0.40599 0.14797 0.02237 0.0
H1283 H 0.38566 0.13671 0.97812 0.0
C1284 C 0.45602 0.1985 0.06837 0.0
C1285 C 0.48105 0.19095 0.07939 0.0
C1286 C 0.44479 0.1848 0.04586 0.0
C1287 C 0.45855 0.16346 0.03347 0.0
C1288 C 0.48391 0.15608 0.04425 0.0
C1289 C 0.49518 0.16988 0.06703 0.0
C1290 C 0.45189 0.1407 0.96011 0.0
C1291 C 0.42361 0.13773 0.95683 0.0
C1292 C 0.46353 0.14729 0.98548 0.0
C1293 C 0.44712 0.15092 0.00808 0.0
C1294 C 0.41909 0.14581 0.00519 0.0
C1295 C 0.40745 0.13933 0.97984 0.0
H1296 H 0.03591 0.8063 0.18578 0.0
H1297 H 0.08595 0.73633 0.19391 0.0
H1298 H 0.05776 0.82732 0.2255 0.0
H1299 H 0.10844 0.7576 0.23417 0.0
H1300 H 0.11146 0.86946 0.28545 0.0
H1301 H 0.10031 0.84738 0.24199 0.0
H1302 H 0.09584 0.76989 0.28079 0.0
H1303 H 0.10757 0.79179 0.32414 0.0
C1304 C 0.05207 0.79568 0.19589 0.0
C1305 C 0.05987 0.7701 0.18649 0.0
C1306 C 0.06467 0.80774 0.2186 0.0
C1307 C 0.08518 0.79436 0.23274 0.0
C1308 C 0.09276 0.76845 0.22359 0.0
C1309 C 0.08001 0.75629 0.20066 0.0
C1310 C 0.10849 0.84768 0.28467 0.0
C1311 C 0.10987 0.8325 0.30836 0.0
C1312 C 0.10208 0.83502 0.25976 0.0
C1313 C 0.09683 0.80693 0.25802 0.0
C1314 C 0.0999 0.79153 0.28141 0.0
C1315 C 0.10639 0.80417 0.30632 0.0
H1316 H 0.49503 0.79782 0.46134 0.0
H1317 H 0.41854 0.79643 0.4176 0.0
H1318 H 0.47493 0.82395 0.49795 0.0
H1319 H 0.39889 0.82412 0.45283 0.0
H1320 H 0.36221 0.83652 0.53595 0.0
H1321 H 0.38285 0.81816 0.49559 0.0
H1322 H 0.45682 0.86338 0.51551 0.0
H1323 H 0.43643 0.88034 0.55685 0.0
C1324 C 0.47414 0.80381 0.45925 0.0
C1325 C 0.45826 0.79491 0.43684 0.0
C1326 C 0.46256 0.81891 0.48015 0.0
C1327 C 0.43504 0.82592 0.47867 0.0
C1328 C 0.41983 0.81844 0.45522 0.0
C1329 C 0.43118 0.80277 0.43481 0.0
C1330 C 0.38272 0.84283 0.53144 0.0
C1331 C 0.39777 0.85969 0.54956 0.0
C1332 C 0.39463 0.83241 0.50817 0.0
C1333 C 0.4217 0.83911 0.50216 0.0
C1334 C 0.43621 0.85721 0.5197 0.0
C1335 C 0.42446 0.86715 0.54327 0.0
H1336 H 0.44748 0.26567 0.69849 0.0
H1337 H 0.44865 0.1861 0.66076 0.0
H1338 H 0.42382 0.2469 0.73688 0.0
H1339 H 0.42675 0.16707 0.69952 0.0
H1340 H 0.38567 0.1357 0.77183 0.0
H1341 H 0.39236 0.15943 0.72956 0.0
H1342 H 0.43866 0.22209 0.77339 0.0
H1343 H 0.43058 0.19921 0.81542 0.0
C1344 C 0.4422 0.24427 0.69816 0.0
C1345 C 0.45033 0.2273 0.67684 0.0
C1346 C 0.42894 0.2334 0.72032 0.0
C1347 C 0.42406 0.20526 0.72185 0.0
C1348 C 0.43 0.1888 0.69926 0.0
C1349 C 0.44275 0.19974 0.67693 0.0
C1350 C 0.39707 0.15468 0.77233 0.0
C1351 C 0.40786 0.16544 0.79686 0.0
C1352 C 0.40096 0.16831 0.74811 0.0
C1353 C 0.41621 0.19272 0.74784 0.0
C1354 C 0.42633 0.20372 0.77264 0.0
C1355 C 0.42198 0.19039 0.79683 0.0
H1356 H 0.05652 0.18589 0.91357 0.0
H1357 H 0.98557 0.1842 0.96299 0.0
H1358 H 0.0827 0.16533 0.94974 0.0
H1359 H 0.01192 0.16528 -0.00011 0.0
H1360 H 0.06091 0.123 0.06144 0.0
H1361 H 0.03546 0.13067 0.01965 0.0
H1362 H 0.10248 0.17906 0.9907 0.0
H1363 H 0.12835 0.16979 0.0318 0.0
C1364 C 0.04652 0.1809 0.93219 0.0
C1365 C 0.0191 0.18675 0.93561 0.0
C1366 C 0.06156 0.16935 0.95305 0.0
C1367 C 0.04969 0.16403 0.97808 0.0
C1368 C 0.02182 0.1687 0.9809 0.0
C1369 C 0.00664 0.17968 0.95977 0.0
C1370 C 0.07027 0.1349 0.04586 0.0
C1371 C 0.09648 0.14598 0.04984 0.0
C1372 C 0.05563 0.1395 0.02198 0.0
C1373 C 0.06662 0.15584 0.00178 0.0
C1374 C 0.09335 0.16603 0.00547 0.0
C1375 C 0.10822 0.16089 0.02913 0.0
H1376 H 0.34783 0.05849 0.19956 0.0
H1377 H 0.30104 0.06492 0.27209 0.0
H1378 H 0.31291 0.08209 0.17441 0.0
H1379 H 0.26526 0.08685 0.24682 0.0
H1380 H 0.20674 0.13517 0.20046 0.0
H1381 H 0.24833 0.12333 0.22434 0.0
H1382 H 0.27048 0.07334 0.15565 0.0
H1383 H 0.2298 0.08682 0.13134 0.0
C1384 C 0.33003 0.06504 0.21011 0.0
C1385 C 0.32703 0.05976 0.23772 0.0
C1386 C 0.30987 0.07838 0.19566 0.0
C1387 C 0.28591 0.08615 0.20834 0.0
C1388 C 0.28349 0.08168 0.23629 0.0
C1389 C 0.30396 0.06891 0.25086 0.0
C1390 C 0.22087 0.12207 0.19037 0.0
C1391 C 0.21508 0.11178 0.16416 0.0
C1392 C 0.2446 0.11504 0.20413 0.0
C1393 C 0.26275 0.09694 0.19225 0.0
C1394 C 0.25736 0.08761 0.16547 0.0
C1395 C 0.23392 0.0952 0.15148 0.0
H1396 H 0.22208 0.07325 0.44743 0.0
H1397 H 0.17142 0.06916 0.5173 0.0
H1398 H 0.19886 0.03371 0.42746 0.0
H1399 H 0.14769 0.02905 0.49718 0.0
H1400 H 0.14686 0.93777 0.46607 0.0
H1401 H 0.15955 0.98156 0.48657 0.0
H1402 H 0.15539 0.01797 0.40788 0.0
H1403 H 0.14323 0.97409 0.3872 0.0
C1404 C 0.20547 0.06411 0.45822 0.0
C1405 C 0.19788 0.07459 0.48345 0.0
C1406 C 0.19212 0.04149 0.44677 0.0
C1407 C 0.17111 0.02849 0.46051 0.0
C1408 C 0.16373 0.03875 0.48607 0.0
C1409 C 0.17719 0.0616 0.49756 0.0
C1410 C 0.14829 0.95517 0.45314 0.0
C1411 C 0.14461 0.9523 0.42489 0.0
C1412 C 0.15533 0.98033 0.46497 0.0
C1413 C 0.1588 0.00313 0.4488 0.0
C1414 C 0.15332 0.00063 0.4208 0.0
C1415 C 0.14632 0.97549 0.40896 0.0
H1416 H 0.15917 0.96213 0.68527 0.0
H1417 H 0.1922 0.95111 0.76581 0.0
H1418 H 0.19673 0.93804 0.66624 0.0
H1419 H 0.22919 0.92543 0.74691 0.0
H1420 H 0.31023 0.92779 0.70314 0.0
H1421 H 0.26819 0.93861 0.72473 0.0
H1422 H 0.22316 0.90048 0.65771 0.0
H1423 H 0.26561 0.8909 0.63539 0.0
C1424 C 0.17398 0.95368 0.699 0.0
C1425 C 0.17303 0.95894 0.72701 0.0
C1426 C 0.19557 0.93968 0.68807 0.0
C1427 C 0.21647 0.93022 0.70495 0.0
C1428 C 0.21397 0.93318 0.7332 0.0
C1429 C 0.19261 0.94765 0.74411 0.0
C1430 C 0.29138 0.92149 0.69308 0.0
C1431 C 0.29124 0.90885 0.66736 0.0
C1432 C 0.26714 0.92744 0.70564 0.0
C1433 C 0.24207 0.9205 0.69303 0.0
C1434 C 0.24201 0.90663 0.66784 0.0
C1435 C 0.26633 0.90106 0.65504 0.0
H1436 H 0.31434 0.93546 0.98841 0.0
H1437 H 0.25967 0.94146 0.91933 0.0
H1438 H 0.344 0.96989 0.96918 0.0
H1439 H 0.28878 0.97604 0.90069 0.0
H1440 H 0.35228 0.0262 0.86265 0.0
H1441 H 0.33206 0.98501 0.88062 0.0
H1442 H 0.34238 0.01806 0.96192 0.0
H1443 H 0.36322 0.05869 0.94416 0.0
C1444 C 0.30861 0.94407 0.96919 0.0
C1445 C 0.28446 0.93579 0.95558 0.0
C1446 C 0.32561 0.96381 0.95818 0.0
C1447 C 0.31881 0.97566 0.93335 0.0
C1448 C 0.29493 0.967 0.91958 0.0
C1449 C 0.27803 0.94732 0.9305 0.0
C1450 C 0.3507 0.02444 0.88438 0.0
C1451 C 0.35893 0.04594 0.90191 0.0
C1452 C 0.33896 0.00092 0.89467 0.0
C1453 C 0.33522 -0.00157 0.92268 0.0
C1454 C 0.34507 0.0192 0.94028 0.0
C1455 C 0.35684 0.04265 0.93002 0.0
H1456 H 0.31511 0.93492 0.26507 0.0
H1457 H 0.32083 0.97973 0.34121 0.0
H1458 H 0.27942 0.90605 0.28354 0.0
H1459 H 0.28517 0.9517 0.35907 0.0
H1460 H 0.23062 0.89112 0.39359 0.0
H1461 H 0.27266 0.90752 0.3741 0.0
H1462 H 0.23263 0.9116 0.29571 0.0
H1463 H 0.19103 0.89438 0.31487 0.0
C1464 C 0.30889 0.93858 0.28569 0.0
C1465 C 0.32069 0.95986 0.30149 0.0
C1466 C 0.28843 0.92208 0.29625 0.0
C1467 C 0.2795 0.9265 0.32282 0.0
C1468 C 0.29185 0.94732 0.33874 0.0
C1469 C 0.31216 0.9637 0.32827 0.0
C1470 C 0.23094 0.89504 0.37211 0.0
C1471 C 0.20732 0.89198 0.35594 0.0
C1472 C 0.25499 0.90454 0.36095 0.0
C1473 C 0.25586 0.91136 0.33344 0.0
C1474 C 0.23275 0.90645 0.31692 0.0
C1475 C 0.20877 0.89677 0.32801 0.0
H1476 H 0.31547 0.06251 0.48686 0.0
H1477 H 0.31115 0.09931 0.56665 0.0
H1478 H 0.3394 0.02443 0.50594 0.0
H1479 H 0.33334 0.06084 0.58593 0.0
H1480 H 0.3308 0.9455 0.55327 0.0
H1481 H 0.32388 0.98754 0.52999 0.0
H1482 H 0.36808 0.03124 0.59421 0.0
H1483 H 0.37358 0.98901 0.61827 0.0
C1484 C 0.32012 0.06272 0.50839 0.0
C1485 C 0.311 0.08362 0.52532 0.0
C1486 C 0.33355 0.04074 0.51942 0.0
C1487 C 0.33761 0.03902 0.54764 0.0
C1488 C 0.33074 0.06128 0.56414 0.0
C1489 C 0.31781 0.08344 0.55305 0.0
C1490 C 0.33923 0.96406 0.56231 0.0
C1491 C 0.35229 0.96406 0.58781 0.0
C1492 C 0.33556 0.98825 0.54878 0.0
C1493 C 0.34532 0.01302 0.56017 0.0
C1494 C 0.35975 0.01271 0.58505 0.0
C1495 C 0.36296 0.98852 0.59885 0.0
H1496 H 0.18789 0.09935 0.74215 0.0
H1497 H 0.18397 0.04368 0.80812 0.0
H1498 H 0.22844 0.12131 0.76354 0.0
H1499 H 0.22371 0.06527 0.8294 0.0
H1500 H 0.32048 0.11617 0.79485 0.0
H1501 H 0.27635 0.10684 0.77327 0.0
H1502 H 0.23926 0.10823 0.85162 0.0
H1503 H 0.28331 0.11717 0.87333 0.0
C1504 C 0.19553 0.09215 0.76135 0.0
C1505 C 0.1825 0.07051 0.77403 0.0
C1506 C 0.2186 0.1046 0.77355 0.0
C1507 C 0.22891 0.09531 0.7984 0.0
C1508 C 0.21585 0.07343 0.8107 0.0
C1509 C 0.1931 0.06104 0.79851 0.0
C1510 C 0.30285 0.11494 0.80747 0.0
C1511 C 0.30551 0.11675 0.83588 0.0
C1512 C 0.27754 0.10983 0.79505 0.0
C1513 C 0.25444 0.10647 0.8108 0.0
C1514 C 0.25681 0.11034 0.83902 0.0
C1515 C 0.28207 0.11544 0.85144 0.0
H1516 H 0.20958 0.9254 0.06152 0.0
H1517 H 0.1611 0.94253 0.99022 0.0
H1518 H 0.18934 0.96255 0.08563 0.0
H1519 H 0.13993 0.97948 0.01498 0.0
H1520 H 0.14527 0.0264 0.12898 0.0
H1521 H 0.15139 0.98285 0.10589 0.0
H1522 H 0.156 0.02338 0.02933 0.0
H1523 H 0.14891 0.06639 0.05206 0.0
C1524 C 0.19417 0.93676 0.05108 0.0
C1525 C 0.18741 0.9313 0.02367 0.0
C1526 C 0.18229 0.95798 0.06512 0.0
C1527 C 0.16316 0.97422 0.05222 0.0
C1528 C 0.155 0.96765 0.02535 0.0
C1529 C 0.16705 0.94642 0.01119 0.0
C1530 C 0.14722 0.0259 0.10718 0.0
C1531 C 0.14713 0.04992 0.09246 0.0
C1532 C 0.15078 0.00097 0.09394 0.0
C1533 C 0.15447 -0.00038 0.06576 0.0
C1534 C 0.15291 0.02352 0.05096 0.0
C1535 C 0.14917 0.04832 0.06412 0.0
H1536 H 0.27746 0.29654 0.06435 0.0
H1537 H 0.20697 0.34639 0.06901 0.0
H1538 H 0.25284 0.25988 0.08581 0.0
H1539 H 0.18267 0.31046 0.09195 0.0
H1540 H 0.13689 0.22845 0.09139 0.0
H1541 H 0.16185 0.26935 0.07971 0.0
H1542 H 0.23239 0.24094 0.12312 0.0
H1543 H 0.20768 0.19935 0.13338 0.0
C1544 C 0.25693 0.29989 0.07073 0.0
C1545 C 0.24398 0.32409 0.06475 0.0
C1546 C 0.24276 0.27892 0.08316 0.0
C1547 C 0.21551 0.28197 0.09037 0.0
C1548 C 0.20331 0.30702 0.08601 0.0
C1549 C 0.21728 0.32772 0.07307 0.0
C1550 C 0.15759 0.2312 0.09876 0.0
C1551 C 0.17046 0.21067 0.113 0.0
C1552 C 0.17195 0.25474 0.0922 0.0
C1553 C 0.19935 0.25848 0.10022 0.0
C1554 C 0.2116 0.23853 0.11597 0.0
C1555 C 0.19739 0.21478 0.12204 0.0
H1556 H 0.69504 0.15134 0.93448 0.0
H1557 H 0.76286 0.20442 0.95651 0.0
H1558 H 0.67334 0.18835 0.91107 0.0
H1559 H 0.74086 0.24153 0.93427 0.0
H1560 H 0.69925 0.3062 0.89067 0.0
H1561 H 0.72339 0.2642 0.89671 0.0
H1562 H 0.65082 0.2268 0.92781 0.0
H1563 H 0.62649 0.26842 0.92057 0.0
C1564 C 0.7056 0.17074 0.93378 0.0
C1565 C 0.73045 0.1751 0.9477 0.0
C1566 C 0.69303 0.19204 0.92061 0.0
C1567 C 0.70496 0.21816 0.92134 0.0
C1568 C 0.73101 0.22175 0.93312 0.0
C1569 C 0.74368 0.2004 0.94601 0.0
C1570 C 0.68841 0.28886 0.8985 0.0
C1571 C 0.6611 0.2907 0.90557 0.0
C1572 C 0.70226 0.26479 0.90201 0.0
C1573 C 0.68922 0.24212 0.91305 0.0
C1574 C 0.6615 0.24365 0.9189 0.0
C1575 C 0.64755 0.26763 0.91501 0.0
H1576 H 0.07228 0.44657 0.21974 0.0
H1577 H 0.06929 0.51272 0.16422 0.0
H1578 H 0.03214 0.42597 0.19816 0.0
H1579 H 0.02846 0.49202 0.14225 0.0
H1580 H 0.97171 0.38339 0.14502 0.0
H1581 H 0.01599 0.40405 0.1554 0.0
H1582 H 0.98062 0.48325 0.15629 0.0
H1583 H 0.93633 0.46273 0.14552 0.0
C1584 C 0.06327 0.45635 0.20242 0.0
C1585 C 0.07423 0.4807 0.19299 0.0
C1586 C 0.04029 0.44457 0.19004 0.0
C1587 C 0.0274 0.45714 0.16821 0.0
C1588 C 0.03813 0.48182 0.15895 0.0
C1589 C 0.06138 0.49362 0.17139 0.0
C1590 C 0.9734 0.40524 0.14703 0.0
C1591 C 0.95037 0.42135 0.145 0.0
C1592 C -0.00122 0.41706 0.15297 0.0
C1593 C 0.00169 0.44523 0.15696 0.0
C1594 C 0.97903 0.46151 0.15318 0.0
C1595 C 0.9536 0.44969 0.14726 0.0
H1596 H 0.77271 0.8163 0.44535 0.0
H1597 H 0.84238 0.80995 0.49919 0.0
H1598 H 0.79187 0.78236 0.415 0.0
H1599 H 0.86092 0.77598 0.46946 0.0
H1600 H 0.89922 0.72739 0.40552 0.0
H1601 H 0.88076 0.76821 0.42597 0.0
H1602 H 0.79985 0.73419 0.41558 0.0
H1603 H 0.81809 0.69394 0.39445 0.0
C1604 C 0.79203 0.80772 0.45075 0.0
C1605 C 0.80585 0.81578 0.47484 0.0
C1606 C 0.803 0.78828 0.43336 0.0
C1607 C 0.82802 0.77658 0.43972 0.0
C1608 C 0.84192 0.78495 0.46361 0.0
C1609 C 0.83103 0.80428 0.48088 0.0
C1610 C 0.87747 0.72886 0.4071 0.0
C1611 C 0.8602 0.70719 0.39882 0.0
C1612 C 0.86689 0.75218 0.41897 0.0
C1613 C 0.83886 0.75424 0.42284 0.0
C1614 C 0.8215 0.73335 0.41282 0.0
C1615 C 0.83204 0.71013 0.40089 0.0
H1616 H 0.96627 0.98798 0.19578 0.0
H1617 H 0.91692 0.05876 0.18973 0.0
H1618 H 0.00366 0.0125 0.17544 0.0
H1619 H 0.95367 0.08296 0.16801 0.0
H1620 H 0.036 0.12826 0.1693 0.0
H1621 H 0.99488 0.10355 0.18094 0.0
H1622 H 0.02312 0.03263 0.13812 0.0
H1623 H 0.06484 0.05706 0.12787 0.0
C1624 C 0.96322 0.00856 0.18939 0.0
C1625 C 0.93886 0.02157 0.1946 0.0
C1626 C 0.98461 0.02267 0.1776 0.0
C1627 C 0.9819 0.04994 0.17029 0.0
C1628 C 0.95683 0.06229 0.17402 0.0
C1629 C 0.93566 0.04836 0.18627 0.0
C1630 C 0.03318 0.10752 0.16208 0.0
C1631 C 0.05368 0.09448 0.14797 0.0
C1632 C 0.00952 0.09331 0.16862 0.0
C1633 C 0.00566 0.06589 0.16072 0.0
C1634 C 0.02562 0.05344 0.14518 0.0
C1635 C 0.04945 0.0675 0.13911 0.0
H1636 H 0.23496 0.68988 0.60172 0.0
H1637 H 0.30095 0.68404 0.5463 0.0
H1638 H 0.25724 0.72998 0.62357 0.0
H1639 H 0.32301 0.7235 0.56763 0.0
H1640 H 0.36806 0.78294 0.61901 0.0
H1641 H 0.34576 0.73922 0.60967 0.0
H1642 H 0.26784 0.77722 0.61019 0.0
H1643 H 0.28999 0.82089 0.62005 0.0
C1644 C 0.25431 0.69706 0.59449 0.0
C1645 C 0.26674 0.68358 0.57299 0.0
C1646 C 0.26703 0.71988 0.60688 0.0
C1647 C 0.29213 0.72958 0.59762 0.0
C1648 C 0.30413 0.71613 0.57581 0.0
C1649 C 0.29147 0.69356 0.56352 0.0
C1650 C 0.34615 0.78193 0.61762 0.0
C1651 C 0.33087 0.8055 0.61968 0.0
C1652 C 0.33338 0.75687 0.61224 0.0
C1653 C 0.30508 0.75486 0.60879 0.0
C1654 C 0.28966 0.77809 0.61283 0.0
C1655 C 0.30243 0.80316 0.61824 0.0
H1656 H 0.09953 0.56995 0.30065 0.0
H1657 H 0.06685 0.4896 0.31346 0.0
H1658 H 0.06223 0.58934 0.3248 0.0
H1659 H 0.03013 0.5089 0.33925 0.0
H1660 H 0.94893 0.55239 0.3344 0.0
H1661 H 0.99116 0.53054 0.32508 0.0
H1662 H 0.03548 0.59868 0.36196 0.0
H1663 H 0.99282 0.62124 0.37004 0.0
C1664 C 0.08488 0.55635 0.30954 0.0
C1665 C 0.08576 0.52829 0.30467 0.0
C1666 C 0.06344 0.5675 0.32358 0.0
C1667 C 0.04266 0.55076 0.33348 0.0
C1668 C 0.04525 0.52248 0.33111 0.0
C1669 C 0.06644 0.51136 0.31658 0.0
C1670 C 0.96766 0.56265 0.34076 0.0
C1671 C 0.96755 0.58875 0.35255 0.0
C1672 C 0.99201 0.54993 0.3357 0.0
C1673 C 0.01693 0.56278 0.34269 0.0
C1674 C 0.01674 0.58836 0.35581 0.0
C1675 C 0.99231 0.60129 0.36049 0.0
H1676 H 0.40937 0.42152 0.80669 0.0
H1677 H 0.45707 0.49487 0.79856 0.0
H1678 H 0.44435 0.40298 0.83565 0.0
H1679 H 0.49324 0.47573 0.82612 0.0
H1680 H 0.55242 0.43991 0.88382 0.0
H1681 H 0.51115 0.46064 0.86705 0.0
H1682 H 0.48608 0.38411 0.82928 0.0
H1683 H 0.52645 0.36331 0.84734 0.0
C1684 C 0.42739 0.43372 0.81125 0.0
C1685 C 0.43067 0.45952 0.80028 0.0
C1686 C 0.4476 0.42301 0.82767 0.0
C1687 C 0.472 0.43752 0.83286 0.0
C1688 C 0.47469 0.46397 0.82287 0.0
C1689 C 0.45405 0.47497 0.80696 0.0
C1690 C 0.53774 0.42747 0.87237 0.0
C1691 C 0.54267 0.40004 0.86677 0.0
C1692 C 0.51419 0.4394 0.86254 0.0
C1693 C 0.49527 0.42424 0.84649 0.0
C1694 C 0.49981 0.39646 0.84192 0.0
C1695 C 0.52309 0.38445 0.85217 0.0
H1696 H 0.98344 0.80002 0.68761 0.0
H1697 H 0.91166 0.7484 0.68276 0.0
H1698 H 0.96232 0.82788 0.72237 0.0
H1699 H 0.89062 0.77638 0.71702 0.0
H1700 H 0.88785 0.80225 0.80768 0.0
H1701 H 0.90153 0.78057 0.76572 0.0
H1702 H 0.92429 0.85853 0.73418 0.0
H1703 H 0.91079 0.88038 0.77651 0.0
C1704 C 0.96301 0.79494 0.69353 0.0
C1705 C 0.94947 0.77169 0.68285 0.0
C1706 C 0.95086 0.81097 0.71332 0.0
C1707 C 0.92498 0.80403 0.72262 0.0
C1708 C 0.91079 0.78187 0.71059 0.0
C1709 C 0.9229 0.76586 0.69097 0.0
C1710 C 0.89543 0.81483 0.79169 0.0
C1711 C 0.89846 0.84297 0.79548 0.0
C1712 C 0.90309 0.80244 0.76756 0.0
C1713 C 0.91404 0.81789 0.74672 0.0
C1714 C 0.91611 0.84616 0.75003 0.0
C1715 C 0.90822 0.85863 0.77417 0.0
H1716 H 0.96267 0.16966 0.40319 0.0
H1717 H 0.91901 0.24147 0.42494 0.0
H1718 H 0.94158 0.14548 0.44025 0.0
H1719 H 0.89752 0.21713 0.46149 0.0
H1720 H 0.93929 0.14624 0.53836 0.0
H1721 H 0.95109 0.15761 0.49205 0.0
H1722 H 0.86759 0.17541 0.47396 0.0
H1723 H 0.85558 0.16384 0.51985 0.0
C1724 C 0.94771 0.17992 0.41514 0.0
C1725 C 0.94256 0.20748 0.4114 0.0
C1726 C 0.93587 0.16614 0.43645 0.0
C1727 C 0.91824 0.17958 0.45381 0.0
C1728 C 0.91101 0.20629 0.44831 0.0
C1729 C 0.92326 0.22022 0.4274 0.0
C1730 C 0.92337 0.15203 0.52436 0.0
C1731 C 0.89662 0.15462 0.53298 0.0
C1732 C 0.93008 0.15833 0.49782 0.0
C1733 C 0.9102 0.1675 0.4796 0.0
C1734 C 0.88325 0.16852 0.48771 0.0
C1735 C 0.87649 0.16194 0.51404 0.0
H1736 H 0.51925 0.15767 0.19858 0.0
H1737 H 0.5565 0.23751 0.19636 0.0
H1738 H 0.55102 0.14564 0.23476 0.0
H1739 H 0.58791 0.2255 0.23295 0.0
H1740 H 0.60476 0.19502 0.32482 0.0
H1741 H 0.58068 0.21165 0.28482 0.0
H1742 H 0.60438 0.1412 0.23885 0.0
H1743 H 0.62881 0.12477 0.27825 0.0
C1744 C 0.53424 0.1726 0.20574 0.0
C1745 C 0.53544 0.19847 0.19454 0.0
C1746 C 0.55247 0.16569 0.22634 0.0
C1747 C 0.57191 0.18467 0.23648 0.0
C1748 C 0.57309 0.21056 0.22543 0.0
C1749 C 0.55522 0.21731 0.20443 0.0
C1750 C 0.60554 0.18349 0.30598 0.0
C1751 C 0.61836 0.15834 0.30491 0.0
C1752 C 0.5917 0.19298 0.28314 0.0
C1753 C 0.59031 0.17736 0.25903 0.0
C1754 C 0.60481 0.15334 0.25738 0.0
C1755 C 0.61889 0.14405 0.27997 0.0
H1756 H 0.50553 0.8049 0.9473 0.0
H1757 H 0.5747 0.7533 0.94292 0.0
H1758 H 0.52325 0.82505 0.98976 0.0
H1759 H 0.59263 0.77337 0.98571 0.0
H1760 H 0.62914 0.84034 0.04274 0.0
H1761 H 0.61086 0.8192 0.00118 0.0
H1762 H 0.53239 0.81157 0.03744 0.0
H1763 H 0.55055 0.83291 0.07918 0.0
C1764 C 0.52467 0.79806 0.95549 0.0
C1765 C 0.53933 0.77831 0.94171 0.0
C1766 C 0.53462 0.80931 0.97986 0.0
C1767 C 0.55935 0.80085 0.9909 0.0
C1768 C 0.57368 0.78049 0.97739 0.0
C1769 C 0.56351 0.76901 0.95308 0.0
C1770 C 0.60794 0.8343 0.04189 0.0
C1771 C 0.59127 0.83833 0.0643 0.0
C1772 C 0.59758 0.82197 0.01814 0.0
C1773 C 0.57031 0.81363 0.01621 0.0
C1774 C 0.55349 0.81796 0.03841 0.0
C1775 C 0.5639 0.83011 0.06229 0.0
H1776 H 0.95285 0.24779 0.81711 0.0
H1777 H 0.00358 0.17781 0.81533 0.0
H1778 H 0.93157 0.23336 0.77403 0.0
H1779 H 0.98234 0.16319 0.77189 0.0
H1780 H 0.91318 0.13103 0.71529 0.0
H1781 H 0.93568 0.14662 0.75708 0.0
H1782 H 0.94347 0.22709 0.72524 0.0
H1783 H 0.92078 0.21157 0.68308 0.0
C1784 C 0.95929 0.2292 0.80742 0.0
C1785 C 0.97912 0.21334 0.81966 0.0
C1786 C 0.94738 0.22115 0.78269 0.0
C1787 C 0.95523 0.19713 0.76975 0.0
C1788 C 0.9757 0.18163 0.78169 0.0
C1789 C 0.98785 0.18991 0.80638 0.0
C1790 C 0.9195 0.15212 0.71713 0.0
C1791 C 0.91516 0.1701 0.69579 0.0
C1792 C 0.93263 0.16093 0.74102 0.0
C1793 C 0.9415 0.18794 0.74425 0.0
C1794 C 0.93674 0.20613 0.72323 0.0
C1795 C 0.92378 0.19725 0.69914 0.0
H1796 H 0.60159 0.22108 0.57025 0.0
H1797 H 0.52013 0.18751 0.5712 0.0
H1798 H 0.61269 0.18871 0.53434 0.0
H1799 H 0.53127 0.15541 0.53504 0.0
H1800 H 0.55974 0.14157 0.44261 0.0
H1801 H 0.54411 0.16284 0.48443 0.0
H1802 H 0.61586 0.13666 0.52683 0.0
H1803 H 0.63137 0.11508 0.48541 0.0
C1804 C 0.58616 0.20665 0.563 0.0
C1805 C 0.56001 0.20688 0.57355 0.0
C1806 C 0.59254 0.18803 0.54258 0.0
C1807 C 0.5728 0.16957 0.53203 0.0
C1808 C 0.5468 0.16946 0.54284 0.0
C1809 C 0.54053 0.18776 0.5636 0.0
C1810 C 0.57172 0.13951 0.46104 0.0
C1811 C 0.59706 0.1271 0.46054 0.0
C1812 C 0.5628 0.15176 0.48496 0.0
C1813 C 0.57913 0.15184 0.50861 0.0
C1814 C 0.60317 0.13728 0.5087 0.0
C1815 C 0.61194 0.12485 0.48498 0.0
H1816 H 0.51941 0.83691 0.33072 0.0
H1817 H 0.58929 0.79189 0.35581 0.0
H1818 H 0.54565 0.85732 0.29482 0.0
H1819 H 0.61533 0.81185 0.31937 0.0
H1820 H 0.60283 0.89863 0.2396 0.0
H1821 H 0.58921 0.88657 0.28487 0.0
H1822 H 0.6049 0.80264 0.26669 0.0
H1823 H 0.61822 0.81449 0.22091 0.0
C1824 C 0.5406 0.83207 0.32909 0.0
C1825 C 0.55229 0.8128 0.34594 0.0
C1826 C 0.55561 0.8437 0.30857 0.0
C1827 C 0.58238 0.83586 0.30425 0.0
C1828 C 0.59468 0.81806 0.32227 0.0
C1829 C 0.57983 0.80687 0.34322 0.0
C1830 C 0.60387 0.87761 0.24527 0.0
C1831 C 0.61109 0.85739 0.22638 0.0
C1832 C 0.59611 0.87081 0.27126 0.0
C1833 C 0.59584 0.84373 0.2791 0.0
C1834 C 0.60511 0.82373 0.26109 0.0
C1835 C 0.61259 0.83049 0.23487 0.0
H1836 H 0.95214 0.77253 0.06851 0.0
H1837 H 0.01246 0.83716 0.06697 0.0
H1838 H 0.92681 0.79402 0.03211 0.0
H1839 H 0.98693 0.85873 0.03121 0.0
H1840 H 0.95714 0.86262 0.94241 0.0
H1841 H 0.97893 0.84735 0.98368 0.0
H1842 H 0.90068 0.83403 0.0191 0.0
H1843 H 0.87867 0.84888 0.97741 0.0
C1844 C 0.9598 0.79146 0.0607 0.0
C1845 C 0.98454 0.80287 0.07033 0.0
C1846 C 0.94521 0.80386 0.03999 0.0
C1847 C 0.95505 0.82793 0.02866 0.0
C1848 C 0.97912 0.83993 0.03918 0.0
C1849 C 0.99372 0.82753 0.05971 0.0
C1850 C 0.94453 0.85675 0.95907 0.0
C1851 C 0.91617 0.85673 0.95653 0.0
C1852 C 0.95704 0.84814 0.98282 0.0
C1853 C 0.9415 0.83938 0.00459 0.0
C1854 C 0.91314 0.84036 0.0025 0.0
C1855 C 0.90058 0.84906 0.97871 0.0
H1856 H 0.68881 0.98178 0.80434 0.0
H1857 H 0.68815 0.91526 0.74602 0.0
H1858 H 0.72456 0.95993 0.83029 0.0
H1859 H 0.72324 0.89336 0.77217 0.0
H1860 H 0.77901 0.9056 0.87937 0.0
H1861 H 0.73711 0.92029 0.85755 0.0
H1862 H 0.77107 0.90421 0.77909 0.0
H1863 H 0.8125 0.88917 0.8007 0.0
C1864 C 0.69596 0.96235 0.79729 0.0
C1865 C 0.68599 0.95052 0.77287 0.0
C1866 C 0.7163 0.94975 0.81224 0.0
C1867 C 0.72687 0.92507 0.80308 0.0
C1868 C 0.71586 0.91262 0.77944 0.0
C1869 C 0.69573 0.92522 0.76448 0.0
C1870 C 0.7773 0.90475 0.85747 0.0
C1871 C 0.79913 0.89643 0.84173 0.0
C1872 C 0.75341 0.91336 0.84502 0.0
C1873 C 0.75088 0.91354 0.81665 0.0
C1874 C 0.77227 0.90404 0.80101 0.0
C1875 C 0.79611 0.89558 0.8134 0.0
H1876 H 0.7512 0.94468 0.57771 0.0
H1877 H 0.81406 0.93571 0.51909 0.0
H1878 H 0.7703 0.98957 0.59108 0.0
H1879 H 0.83384 0.97956 0.53338 0.0
H1880 H 0.87137 0.04261 0.60167 0.0
H1881 H 0.85245 -0.00164 0.58703 0.0
H1882 H 0.78072 0.03667 0.55639 0.0
H1883 H 0.80019 0.08126 0.56999 0.0
C1884 C 0.76935 0.95211 0.56816 0.0
C1885 C 0.78193 0.93643 0.54828 0.0
C1886 C 0.78012 0.97765 0.57564 0.0
C1887 C 0.80353 0.98762 0.56328 0.0
C1888 C 0.81594 0.97202 0.54331 0.0
C1889 C 0.80487 0.94686 0.53548 0.0
C1890 C 0.85177 0.04152 0.59138 0.0
C1891 C 0.83726 0.0651 0.58659 0.0
C1892 C 0.84095 0.01633 0.58323 0.0
C1893 C 0.81512 0.01434 0.57102 0.0
C1894 C 0.80063 0.03791 0.566 0.0
C1895 C 0.81182 0.06326 0.57345 0.0
H1896 H 0.85268 0.09298 0.28796 0.0
H1897 H 0.83565 0.02405 0.33768 0.0
H1898 H 0.81541 0.11721 0.30868 0.0
H1899 H 0.79896 0.04845 0.35879 0.0
H1900 H 0.71732 0.11187 0.31494 0.0
H1901 H 0.76379 0.10239 0.30219 0.0
H1902 H 0.78595 0.09169 0.38619 0.0
H1903 H 0.73989 0.10141 0.39911 0.0
C1904 C 0.84174 0.08348 0.30412 0.0
C1905 C 0.84685 0.05662 0.31118 0.0
C1906 C 0.82031 0.09725 0.31576 0.0
C1907 C 0.80426 0.08456 0.33508 0.0
C1908 C 0.81114 0.05873 0.34401 0.0
C1909 C 0.83212 0.04476 0.33197 0.0
C1910 C 0.73223 0.10812 0.33073 0.0
C1911 C 0.72473 0.10683 0.35795 0.0
C1912 C 0.75886 0.10289 0.32346 0.0
C1913 C 0.77829 0.09614 0.34326 0.0
C1914 C 0.77126 0.09668 0.37058 0.0
C1915 C 0.74482 0.10217 0.37787 0.0
H1916 H 0.69218 0.06652 0.0165 0.0
H1917 H 0.72781 0.06549 0.09714 0.0
H1918 H 0.66035 0.03032 0.02848 0.0
H1919 H 0.69571 0.02966 0.10909 0.0
H1920 H 0.62141 0.98266 0.12997 0.0
H1921 H 0.64316 0.02348 0.11326 0.0
H1922 H 0.66791 0.97935 0.04204 0.0
H1923 H 0.64649 0.93809 0.05886 0.0
C1924 C 0.69297 0.05885 0.03688 0.0
C1925 C 0.71252 0.06884 0.05591 0.0
C1926 C 0.67483 0.0381 0.04363 0.0
C1927 C 0.67553 0.02739 0.06969 0.0
C1928 C 0.69457 0.03784 0.08893 0.0
C1929 C 0.71304 0.0582 0.08204 0.0
C1930 C 0.63087 0.9817 0.1104 0.0
C1931 C 0.63272 0.95692 0.09603 0.0
C1932 C 0.64342 0.00509 0.10095 0.0
C1933 C 0.65764 0.00433 0.07671 0.0
C1934 C 0.6571 0.98037 0.06087 0.0
C1935 C 0.64478 0.95678 0.07049 0.0
H1936 H 0.69172 0.02586 0.65822 0.0
H1937 H 0.68824 0.06216 0.7384 0.0
H1938 H 0.7273 0.05857 0.6468 0.0
H1939 H 0.72412 0.0945 0.72699 0.0
H1940 H 0.81624 0.11183 0.69853 0.0
H1941 H 0.77578 0.08807 0.7143 0.0
H1942 H 0.73152 0.11176 0.64272 0.0
H1943 H 0.77144 0.1359 0.62711 0.0
C1944 C 0.69844 0.04086 0.67332 0.0
C1945 C 0.68714 0.04147 0.69915 0.0
C1946 C 0.71866 0.05964 0.66676 0.0
C1947 C 0.72827 0.07905 0.68605 0.0
C1948 C 0.717 0.07973 0.71183 0.0
C1949 C 0.69642 0.06129 0.71824 0.0
C1950 C 0.79766 0.11275 0.68659 0.0
C1951 C 0.79727 0.12536 0.66131 0.0
C1952 C 0.77455 0.09907 0.69559 0.0
C1953 C 0.75084 0.09767 0.67936 0.0
C1954 C 0.74975 0.11218 0.65531 0.0
C1955 C 0.77263 0.12611 0.64651 0.0
H1956 H 0.75286 0.92748 0.43022 0.0
H1957 H 0.67837 0.90033 0.46615 0.0
H1958 H 0.72867 0.96377 0.40801 0.0
H1959 H 0.65433 0.93702 0.44431 0.0
H1960 H 0.64715 0.03403 0.44351 0.0
H1961 H 0.66206 0.98893 0.4559 0.0
H1962 H 0.68918 0.97476 0.37447 0.0
H1963 H 0.67409 0.01948 0.36186 0.0
C1964 C 0.73118 0.92876 0.43268 0.0
C1965 C 0.71754 0.91123 0.45002 0.0
C1966 C 0.71735 0.94952 0.41999 0.0
C1967 C 0.68975 0.95332 0.4248 0.0
C1968 C 0.67567 0.93459 0.44052 0.0
C1969 C 0.68941 0.91349 0.45279 0.0
C1970 C 0.65585 0.02112 0.42814 0.0
C1971 C 0.6597 0.03049 0.40182 0.0
C1972 C 0.6642 0.99526 0.43517 0.0
C1973 C 0.67681 0.97849 0.41609 0.0
C1974 C 0.67959 0.98737 0.38952 0.0
C1975 C 0.67091 0.01299 0.38238 0.0
H1976 H 0.81974 0.00686 0.17955 0.0
H1977 H 0.81573 0.95998 0.25208 0.0
H1978 H 0.77706 0.98547 0.16295 0.0
H1979 H 0.77354 0.93837 0.23564 0.0
H1980 H 0.68427 0.92795 0.20981 0.0
H1981 H 0.72618 0.95012 0.22629 0.0
H1982 H 0.76084 0.93965 0.14733 0.0
H1983 H 0.71898 0.91782 0.13067 0.0
C1984 C 0.80972 0.99186 0.19175 0.0
C1985 C 0.82114 0.98431 0.21656 0.0
C1986 C 0.78547 0.97959 0.18233 0.0
C1987 C 0.7721 0.96015 0.19798 0.0
C1988 C 0.78326 0.95339 0.22324 0.0
C1989 C 0.80752 0.96546 0.23248 0.0
C1990 C 0.70085 0.93027 0.19599 0.0
C1991 C 0.69823 0.92117 0.16892 0.0
C1992 C 0.72486 0.94291 0.20544 0.0
C1993 C 0.74667 0.94674 0.18801 0.0
C1994 C 0.74418 0.93736 0.16107 0.0
C1995 C 0.72025 0.92466 0.15164 0.0
H1996 H 0.83809 0.06633 0.01017 0.0
H1997 H 0.7732 0.06759 0.9501 0.0
H1998 H 0.85998 0.03107 0.98432 0.0
H1999 H 0.79504 0.03165 0.92441 0.0
H2000 H 0.85065 0.9778 0.87584 0.0
H2001 H 0.83512 0.01911 0.89806 0.0
H2002 H 0.84916 0.98349 0.97614 0.0
H2003 H 0.86507 0.94262 0.95414 0.0
C2004 C 0.82847 0.05913 0.99141 0.0
C2005 C 0.80364 0.06951 0.98241 0.0
C2006 C 0.84106 0.03887 0.97661 0.0
C2007 C 0.82909 0.02836 0.95253 0.0
C2008 C 0.80486 0.0395 0.94283 0.0
C2009 C 0.79226 0.05996 0.95762 0.0
C2010 C 0.85084 0.97899 0.89776 0.0
C2011 C 0.85893 0.95686 0.91324 0.0
C2012 C 0.84174 0.00255 0.91044 0.0
C2013 C 0.84078 0.00449 0.93881 0.0
C2014 C 0.84992 0.98277 0.95424 0.0
C2015 C 0.8589 0.95925 0.94161 0.0
H2016 H 0.75107 0.68347 0.91211 0.0
H2017 H 0.80473 0.68752 0.98244 0.0
H2018 H 0.77816 0.71822 0.89077 0.0
H2019 H 0.83172 0.72284 0.96101 0.0
H2020 H 0.80458 0.80831 0.88635 0.0
H2021 H 0.78303 0.76673 0.90127 0.0
H2022 H 0.86131 0.73493 0.92236 0.0
H2023 H 0.88304 0.77689 0.90763 0.0
C2024 C 0.76877 0.69164 0.92299 0.0
C2025 C 0.77546 0.68305 0.94923 0.0
C2026 C 0.78427 0.71158 0.91071 0.0
C2027 C 0.8068 0.72352 0.92437 0.0
C2028 C 0.81451 0.71389 0.94994 0.0
C2029 C 0.79899 0.69377 0.96227 0.0
C2030 C 0.81726 0.79234 0.89383 0.0
C2031 C 0.84549 0.79597 0.89597 0.0
C2032 C 0.80492 0.76843 0.90224 0.0
C2033 C 0.8205 0.7476 0.91306 0.0
C2034 C 0.84882 0.75077 0.91432 0.0
C2035 C 0.86123 0.77469 0.9057 0.0
H2036 H 0.3309 0.82691 0.01426 0.0
H2037 H 0.28968 0.85382 0.0859 0.0
H2038 H 0.3523 0.79134 0.04028 0.0
H2039 H 0.31051 0.81767 0.11166 0.0
H2040 H 0.39697 0.73885 0.09878 0.0
H2041 H 0.38381 0.78355 0.08437 0.0
H2042 H 0.30042 0.7639 0.10102 0.0
H2043 H 0.31333 0.71859 0.11502 0.0
C2044 C 0.3271 0.82574 0.03573 0.0
C2045 C 0.30864 0.84302 0.04805 0.0
C2046 C 0.33928 0.80541 0.05059 0.0
C2047 C 0.33273 0.80175 0.07783 0.0
C2048 C 0.31571 0.82013 0.09064 0.0
C2049 C 0.30403 0.84089 0.07593 0.0
C2050 C 0.37583 0.74407 0.09986 0.0
C2051 C 0.35607 0.7249 0.10755 0.0
C2052 C 0.36842 0.76972 0.09165 0.0
C2053 C 0.34119 0.77695 0.09148 0.0
C2054 C 0.32162 0.75872 0.10116 0.0
C2055 C 0.32898 0.73279 0.10904 0.0
H2056 H 0.94118 0.57042 0.75076 0.0
H2057 H 0.9398 0.50291 0.80474 0.0
H2058 H 0.98401 0.5868 0.7721 0.0
H2059 H 0.98229 0.51904 0.82604 0.0
H2060 H 0.03804 0.62299 0.84212 0.0
H2061 H 0.99724 0.60567 0.8188 0.0
H2062 H 0.03129 0.52596 0.81455 0.0
H2063 H 0.07237 0.5432 0.838 0.0
C2064 C 0.95012 0.55919 0.76717 0.0
C2065 C 0.93707 0.53602 0.77682 0.0
C2066 C 0.97445 0.56849 0.77937 0.0
C2067 C 0.98629 0.55422 0.8008 0.0
C2068 C 0.97369 0.53033 0.8095 0.0
C2069 C 0.9493 0.5213 0.79756 0.0
C2070 C 0.03685 0.60171 0.83639 0.0
C2071 C 0.05846 0.58443 0.84197 0.0
C2072 C 0.01357 0.59191 0.82278 0.0
C2073 C 0.01126 0.56458 0.81472 0.0
C2074 C 0.0326 0.54714 0.82064 0.0
C2075 C 0.05607 0.557 0.83403 0.0
H2076 H 0.24066 0.19017 0.56142 0.0
H2077 H 0.16108 0.19278 0.52363 0.0
H2078 H 0.22808 0.2255 0.59387 0.0
H2079 H 0.14848 0.2278 0.55645 0.0
H2080 H 0.12665 0.2698 0.63453 0.0
H2081 H 0.14339 0.23082 0.60966 0.0
H2082 H 0.21444 0.27711 0.58817 0.0
H2083 H 0.19752 0.31664 0.61265 0.0
C2084 C 0.22038 0.19805 0.56023 0.0
C2085 C 0.20179 0.18865 0.53999 0.0
C2086 C 0.21331 0.21833 0.57873 0.0
C2087 C 0.18734 0.22918 0.5777 0.0
C2088 C 0.16858 0.2195 0.55781 0.0
C2089 C 0.17581 0.1996 0.53896 0.0
C2090 C 0.14616 0.27163 0.62506 0.0
C2091 C 0.1605 0.29657 0.62517 0.0
C2092 C 0.15561 0.2493 0.6107 0.0
C2093 C 0.17986 0.25123 0.5966 0.0
C2094 C 0.19558 0.27523 0.59883 0.0
C2095 C 0.18593 0.2978 0.61293 0.0
H2096 H 0.06682 0.9589 0.76996 0.0
H2097 H 0.07108 0.00976 0.8423 0.0
H2098 H 0.03167 0.93092 0.79049 0.0
H2099 H 0.03652 0.98171 0.86269 0.0
H2100 H 0.94704 0.95395 0.86751 0.0
H2101 H 0.98791 0.97669 0.85243 0.0
H2102 H 0.02057 0.89965 0.82831 0.0
H2103 H 0.97931 0.87672 0.84321 0.0
C2104 C 0.06062 0.96385 0.79034 0.0
C2105 C 0.07139 0.98685 0.80426 0.0
C2106 C 0.04061 0.94776 0.80214 0.0
C2107 C 0.03115 0.95438 0.82806 0.0
C2108 C 0.04304 0.97645 0.84249 0.0
C2109 C 0.06287 0.9925 0.83074 0.0
C2110 C 0.96304 0.94178 0.85931 0.0
C2111 C 0.95988 0.91356 0.85642 0.0
C2112 C 0.98654 0.95481 0.8508 0.0
C2113 C 0.00741 0.93993 0.83913 0.0
C2114 C 0.00469 0.91161 0.83702 0.0
C2115 C 0.98118 0.89851 0.84575 0.0
H2116 H 0.67661 0.31522 0.50495 0.0
H2117 H 0.74482 0.31573 0.4519 0.0
H2118 H 0.66099 0.27162 0.48474 0.0
H2119 H 0.72937 0.27258 0.43161 0.0
H2120 H 0.62712 0.21213 0.41867 0.0
H2121 H 0.64286 0.25495 0.43919 0.0
H2122 H 0.72403 0.22452 0.44508 0.0
H2123 H 0.70844 0.18158 0.42428 0.0
C2124 C 0.68808 0.30598 0.48889 0.0
C2125 C 0.71133 0.31891 0.47928 0.0
C2126 C 0.67921 0.28122 0.47732 0.0
C2127 C 0.69396 0.26886 0.45654 0.0
C2128 C 0.71772 0.28155 0.44768 0.0
C2129 C 0.72637 0.30632 0.45903 0.0
C2130 C 0.64837 0.21454 0.42419 0.0
C2131 C 0.66655 0.19339 0.41986 0.0
C2132 C 0.65729 0.239 0.43616 0.0
C2133 C 0.68457 0.24291 0.4439 0.0
C2134 C 0.70288 0.22202 0.43917 0.0
C2135 C 0.69394 0.19746 0.42731 0.0
H2136 H 0.92452 0.41687 0.74585 0.0
H2137 H 0.89924 0.45704 0.67298 0.0
H2138 H 0.96076 0.39527 0.72113 0.0
H2139 H 0.93595 0.43585 0.64843 0.0
H2140 H 0.0178 0.35214 0.6668 0.0
H2141 H 0.97229 0.36386 0.68001 0.0
H2142 H 0.98792 0.44681 0.65834 0.0
H2143 H 0.03385 0.43532 0.64535 0.0
C2144 C 0.92616 0.42035 0.72435 0.0
C2145 C 0.90923 0.43873 0.71138 0.0
C2146 C 0.94689 0.40802 0.71021 0.0
C2147 C 0.95127 0.41425 0.68301 0.0
C2148 C 0.93303 0.43094 0.66946 0.0
C2149 C 0.91192 0.44284 0.68347 0.0
C2150 C 0.0115 0.37284 0.66438 0.0
C2151 C 0.02967 0.39295 0.65545 0.0
C2152 C 0.9854 0.37945 0.67193 0.0
C2153 C 0.97673 0.40618 0.67028 0.0
C2154 C 0.99412 0.42596 0.65958 0.0
C2155 C 0.02045 0.41943 0.65234 0.0
H2156 H 0.57049 0.52222 0.19192 0.0
H2157 H 0.56743 0.60318 0.22648 0.0
H2158 H 0.53402 0.53284 0.15992 0.0
H2159 H 0.53125 0.61378 0.19416 0.0
H2160 H 0.48347 0.63202 0.11934 0.0
H2161 H 0.52481 0.61692 0.14141 0.0
H2162 H 0.48273 0.54502 0.16761 0.0
H2163 H 0.44094 0.56026 0.14592 0.0
C2164 C 0.56232 0.5424 0.19244 0.0
C2165 C 0.57181 0.5619 0.21175 0.0
C2166 C 0.54141 0.54836 0.17419 0.0
C2167 C 0.53001 0.57409 0.17455 0.0
C2168 C 0.53997 0.59384 0.19331 0.0
C2169 C 0.56053 0.58774 0.21189 0.0
C2170 C 0.48308 0.61264 0.12921 0.0
C2171 C 0.45872 0.59762 0.13138 0.0
C2172 C 0.50676 0.60411 0.14192 0.0
C2173 C 0.5067 0.58016 0.15662 0.0
C2174 C 0.48319 0.56365 0.15643 0.0
C2175 C 0.45931 0.57235 0.14394 0.0
H2176 H 0.56529 0.70362 0.84854 0.0
H2177 H 0.56439 0.77375 0.79789 0.0
H2178 H 0.58751 0.67789 0.81317 0.0
H2179 H 0.58517 0.74775 0.76178 0.0
H2180 H 0.63164 0.7002 0.70249 0.0
H2181 H 0.62194 0.72559 0.7438 0.0
H2182 H 0.57522 0.65709 0.77201 0.0
H2183 H 0.58635 0.63137 0.73136 0.0
C2184 C 0.57 0.71354 0.8298 0.0
C2185 C 0.56295 0.74058 0.82581 0.0
C2186 C 0.58255 0.69875 0.80943 0.0
C2187 C 0.5878 0.71048 0.78433 0.0
C2188 C 0.58182 0.73801 0.78089 0.0
C2189 C 0.56977 0.75297 0.80153 0.0
C2190 C 0.61973 0.69048 0.71785 0.0
C2191 C 0.60957 0.66393 0.71373 0.0
C2192 C 0.61396 0.70509 0.74143 0.0
C2193 C 0.59739 0.69367 0.76119 0.0
C2194 C 0.58832 0.66656 0.75752 0.0
C2195 C 0.59458 0.65176 0.73414 0.0
H2196 H 0.55727 0.3172 0.10841 0.0
H2197 H 0.48921 0.29594 0.05535 0.0
H2198 H 0.57826 0.34214 0.07198 0.0
H2199 H 0.51051 0.31969 0.01876 0.0
H2200 H 0.54968 0.36751 0.95569 0.0
H2201 H 0.52649 0.35881 0.99775 0.0
H2202 H 0.60063 0.32823 0.03243 0.0
H2203 H 0.62398 0.33816 0.99081 0.0
C2204 C 0.54655 0.3183 0.08913 0.0
C2205 C 0.52176 0.30432 0.08463 0.0
C2206 C 0.5587 0.33237 0.06815 0.0
C2207 C 0.54641 0.3325 0.04219 0.0
C2208 C 0.52058 0.32028 0.03845 0.0
C2209 C 0.50833 0.3065 0.05947 0.0
C2210 C 0.56107 0.35928 0.97248 0.0
C2211 C 0.58854 0.35313 0.96985 0.0
C2212 C 0.54777 0.35421 0.99657 0.0
C2213 C 0.56151 0.34245 0.01845 0.0
C2214 C 0.58938 0.3376 0.01621 0.0
C2215 C 0.60279 0.34308 0.99224 0.0
H2216 H 0.93901 0.2642 0.31689 0.0
H2217 H 0.98969 0.33658 0.31489 0.0
H2218 H 0.90899 0.28302 0.28245 0.0
H2219 H 0.96023 0.35485 0.28041 0.0
H2220 H 0.8958 0.39179 0.2314 0.0
H2221 H 0.91568 0.37264 0.27214 0.0
H2222 H 0.91107 0.29293 0.23448 0.0
H2223 H 0.89055 0.31184 0.19416 0.0
C2224 C 0.94379 0.28405 0.30916 0.0
C2225 C 0.96691 0.29875 0.31858 0.0
C2226 C 0.92658 0.29482 0.28943 0.0
C2227 C 0.93212 0.32051 0.27882 0.0
C2228 C 0.95503 0.33526 0.28852 0.0
C2229 C 0.97215 0.32456 0.30813 0.0
C2230 C 0.89851 0.37012 0.23202 0.0
C2231 C 0.89208 0.35345 0.20932 0.0
C2232 C 0.91006 0.35916 0.2553 0.0
C2233 C 0.91544 0.33134 0.25634 0.0
C2234 C 0.90715 0.31442 0.2344 0.0
C2235 C 0.89553 0.32534 0.21117 0.0
H2236 H 0.01691 0.65615 0.57269 0.0
H2237 H 0.95038 0.7113 0.57338 0.0
H2238 H 0.9963 0.63256 0.53259 0.0
H2239 H 0.92992 0.68814 0.53418 0.0
H2240 H 0.96664 0.63672 0.43957 0.0
H2241 H 0.98737 0.64599 0.48405 0.0
H2242 H 0.90831 0.64446 0.51965 0.0
H2243 H 0.88742 0.63562 0.47518 0.0
C2244 C -0.00223 0.66289 0.56446 0.0
C2245 C 0.9847 0.68488 0.57641 0.0
C2246 C 0.986 0.64949 0.54168 0.0
C2247 C 0.96121 0.65818 0.53065 0.0
C2248 C 0.94855 0.6804 0.54266 0.0
C2249 C 0.96029 0.69372 0.56508 0.0
C2250 C 0.95367 0.63788 0.45694 0.0
C2251 C 0.9253 0.6362 0.45374 0.0
C2252 C 0.96562 0.64291 0.48247 0.0
C2253 C 0.94941 0.64631 0.50521 0.0
C2254 C 0.92124 0.64231 0.50235 0.0
C2255 C 0.90929 0.63731 0.47687 0.0
H2256 H 0.53831 0.30369 0.68469 0.0
H2257 H 0.5879 0.23371 0.69523 0.0
H2258 H 0.55917 0.32522 0.72462 0.0
H2259 H 0.60935 0.2555 0.73577 0.0
H2260 H 0.60531 0.29049 0.82523 0.0
H2261 H 0.59519 0.26825 0.78172 0.0
H2262 H 0.60116 0.34539 0.74242 0.0
H2263 H 0.61062 0.36785 0.78608 0.0
C2264 C 0.5542 0.29317 0.69536 0.0
C2265 C 0.56213 0.26743 0.68658 0.0
C2266 C 0.56623 0.30554 0.71821 0.0
C2267 C 0.58626 0.29229 0.73314 0.0
C2268 C 0.59402 0.26624 0.72458 0.0
C2269 C 0.58186 0.25379 0.70149 0.0
C2270 C 0.60479 0.30272 0.80729 0.0
C2271 C 0.60817 0.33107 0.80922 0.0
C2272 C 0.59924 0.28988 0.78229 0.0
C2273 C 0.59705 0.30508 0.75868 0.0
C2274 C 0.60223 0.33319 0.76036 0.0
C2275 C 0.60767 0.34606 0.78537 0.0
H2276 H 0.99085 0.31329 0.94268 0.0
H2277 H 0.91651 0.26543 0.94243 0.0
H2278 H 0.97214 0.34404 0.97657 0.0
H2279 H 0.89839 0.29547 0.97634 0.0
H2280 H 0.8626 0.35959 0.02598 0.0
H2281 H 0.88191 0.34017 0.98511 0.0
H2282 H 0.96109 0.34206 0.02403 0.0
H2283 H 0.94209 0.36221 0.06439 0.0
C2284 C 0.97059 0.30931 0.94978 0.0
C2285 C 0.95533 0.28672 0.93994 0.0
C2286 C 0.95988 0.32691 0.96918 0.0
C2287 C 0.9337 0.3223 0.97905 0.0
C2288 C 0.91838 0.3 0.96881 0.0
C2289 C 0.929 0.28251 0.94953 0.0
C2290 C 0.88421 0.3564 0.0256 0.0
C2291 C 0.90067 0.36193 0.04865 0.0
C2292 C 0.89526 0.34512 0.00224 0.0
C2293 C 0.92296 0.33907 0.00151 0.0
C2294 C 0.93972 0.34652 0.02384 0.0
C2295 C 0.92872 0.35789 0.04711 0.0
H2296 H 0.94375 0.76921 0.19685 0.0
H2297 H 0.94505 0.68984 0.15868 0.0
H2298 H 0.91984 0.75023 0.23498 0.0
H2299 H 0.92302 0.6706 0.19719 0.0
H2300 H 0.92943 0.70196 0.31301 0.0
H2301 H 0.93565 0.72552 0.27105 0.0
H2302 H 0.88949 0.66232 0.22782 0.0
H2303 H 0.88478 0.63791 0.26998 0.0
C2304 C 0.93842 0.74782 0.19635 0.0
C2305 C 0.94679 0.73092 0.17508 0.0
C2306 C 0.92501 0.73684 0.21835 0.0
C2307 C 0.9203 0.70867 0.21975 0.0
C2308 C 0.9262 0.69234 0.19706 0.0
C2309 C 0.93905 0.7034 0.17487 0.0
C2310 C 0.92047 0.69318 0.29456 0.0
C2311 C 0.90706 0.66787 0.29465 0.0
C2312 C 0.9237 0.7069 0.27042 0.0
C2313 C 0.91312 0.69592 0.2458 0.0
C2314 C 0.89844 0.67118 0.24622 0.0
C2315 C 0.8957 0.65716 0.27035 0.0
H2316 H 0.48528 0.66995 0.4469 0.0
H2317 H 0.55954 0.71427 0.43132 0.0
H2318 H 0.50824 0.6466 0.48367 0.0
H2319 H 0.58193 0.69186 0.46826 0.0
H2320 H 0.54652 0.64781 0.57029 0.0
H2321 H 0.52403 0.6591 0.52812 0.0
H2322 H 0.59964 0.6517 0.48641 0.0
H2323 H 0.62253 0.64137 0.52911 0.0
C2324 C 0.50648 0.6746 0.45116 0.0
C2325 C 0.5204 0.69426 0.43633 0.0
C2326 C 0.51963 0.6613 0.47229 0.0
C2327 C 0.54693 0.66745 0.47908 0.0
C2328 C 0.56106 0.68624 0.46344 0.0
C2329 C 0.54803 0.69936 0.44232 0.0
C2330 C 0.55839 0.64831 0.55211 0.0
C2331 C 0.58649 0.64421 0.5532 0.0
C2332 C 0.54536 0.65453 0.52779 0.0
C2333 C 0.56003 0.65658 0.50384 0.0
C2334 C 0.58783 0.65084 0.5046 0.0
C2335 C 0.60095 0.64482 0.52904 0.0
H2336 H 0.81495 0.59082 0.76761 0.0
H2337 H 0.82521 0.53831 0.69762 0.0
H2338 H 0.77903 0.61411 0.7434 0.0
H2339 H 0.789 0.56085 0.674 0.0
H2340 H 0.69085 0.61282 0.70922 0.0
H2341 H 0.73349 0.60187 0.7309 0.0
H2342 H 0.77174 0.60019 0.65301 0.0
H2343 H 0.72849 0.61029 0.63102 0.0
C2344 C 0.80974 0.58437 0.74703 0.0
C2345 C 0.82271 0.56239 0.73477 0.0
C2346 C 0.78908 0.59766 0.73318 0.0
C2347 C 0.78089 0.58918 0.70683 0.0
C2348 C 0.79491 0.56819 0.69411 0.0
C2349 C 0.81559 0.55504 0.70784 0.0
C2350 C 0.70836 0.61039 0.69664 0.0
C2351 C 0.70609 0.61189 0.66828 0.0
C2352 C 0.73299 0.60439 0.70918 0.0
C2353 C 0.75607 0.59991 0.69372 0.0
C2354 C 0.75422 0.60304 0.66548 0.0
C2355 C 0.72947 0.60893 0.65287 0.0
H2356 H 0.66353 0.56961 0.01773 0.0
H2357 H 0.71614 0.57177 0.94922 0.0
H2358 H 0.63992 0.52929 0.99771 0.0
H2359 H 0.69292 0.53225 0.92931 0.0
H2360 H 0.63774 0.47319 0.88834 0.0
H2361 H 0.64894 0.51724 0.90909 0.0
H2362 H 0.65277 0.48105 0.98786 0.0
H2363 H 0.64119 0.43697 0.96726 0.0
C2364 C 0.66971 0.56164 -0.00171 0.0
C2365 C 0.69096 0.57412 0.98451 0.0
C2366 C 0.65631 0.5387 0.98686 0.0
C2367 C 0.66426 0.52794 0.9617 0.0
C2368 C 0.68576 0.54045 0.9483 0.0
C2369 C 0.69909 0.56308 0.95971 0.0
C2370 C 0.64052 0.47465 0.91013 0.0
C2371 C 0.63916 0.45144 0.92605 0.0
C2372 C 0.64692 0.4999 0.92201 0.0
C2373 C 0.65207 0.50251 0.95005 0.0
C2374 C 0.6488 0.47969 0.96623 0.0
C2375 C 0.6424 0.45439 0.95435 0.0
H2376 H 0.70575 0.46147 0.26454 0.0
H2377 H 0.65151 0.4391 0.19772 0.0
H2378 H 0.74168 0.43658 0.24337 0.0
H2379 H 0.68728 0.41317 0.17687 0.0
H2380 H 0.76785 0.41798 0.1298 0.0
H2381 H 0.72649 0.4276 0.15372 0.0
H2382 H 0.76218 0.39688 0.22734 0.0
H2383 H 0.80394 0.38835 0.20357 0.0
C2384 C 0.7012 0.45038 0.24579 0.0
C2385 C 0.67597 0.45266 0.23255 0.0
C2386 C 0.72185 0.43597 0.23361 0.0
C2387 C 0.71759 0.42329 0.20806 0.0
C2388 C 0.69147 0.42332 0.19618 0.0
C2389 C 0.67088 0.43796 0.20826 0.0
C2390 C 0.7667 0.41294 0.15099 0.0
C2391 C 0.78928 0.40294 0.16493 0.0
C2392 C 0.74288 0.41823 0.16472 0.0
C2393 C 0.74103 0.41327 0.19261 0.0
C2394 C 0.76308 0.40152 0.20604 0.0
C2395 C 0.78699 0.39659 0.19241 0.0
H2396 H 0.81591 0.43658 0.48552 0.0
H2397 H 0.76135 0.44425 0.41659 0.0
H2398 H 0.84681 0.46973 0.46593 0.0
H2399 H 0.79162 0.47753 0.39763 0.0
H2400 H 0.85501 0.52632 0.35901 0.0
H2401 H 0.83463 0.48526 0.37717 0.0
H2402 H 0.84726 0.51765 0.45848 0.0
H2403 H 0.86836 0.558 0.44053 0.0
C2404 C 0.81046 0.44531 0.46628 0.0
C2405 C 0.78601 0.43786 0.4528 0.0
C2406 C 0.82818 0.46428 0.45503 0.0
C2407 C 0.82177 0.4762 0.43013 0.0
C2408 C 0.79753 0.46838 0.41653 0.0
C2409 C 0.77995 0.44945 0.42766 0.0
C2410 C 0.85399 0.52438 0.38077 0.0
C2411 C 0.8628 0.54566 0.39828 0.0
C2412 C 0.84214 0.50095 0.39118 0.0
C2413 C 0.83884 0.4984 0.41927 0.0
C2414 C 0.84953 0.51883 0.43678 0.0
C2415 C 0.86144 0.54214 0.42642 0.0
H2416 H 0.81273 0.48731 0.83977 0.0
H2417 H 0.81206 0.43706 0.767 0.0
H2418 H 0.77742 0.45909 0.85822 0.0
H2419 H 0.7767 0.40821 0.78603 0.0
H2420 H 0.68808 0.39318 0.81566 0.0
H2421 H 0.72893 0.41228 0.79648 0.0
H2422 H 0.76749 0.41483 0.87583 0.0
H2423 H 0.72626 0.39639 0.89526 0.0
C2424 C 0.80521 0.4701 0.8277 0.0
C2425 C 0.81515 0.46466 0.80171 0.0
C2426 C 0.78511 0.45367 0.83851 0.0
C2427 C 0.77436 0.43126 0.8237 0.0
C2428 C 0.7845 0.42545 0.79787 0.0
C2429 C 0.80476 0.44195 0.78699 0.0
C2430 C 0.70538 0.39744 0.82902 0.0
C2431 C 0.70369 0.39379 0.85713 0.0
C2432 C 0.72891 0.40822 0.81794 0.0
C2433 C 0.75132 0.41547 0.83467 0.0
C2434 C 0.75032 0.40999 0.86248 0.0
C2435 C 0.72674 0.39929 0.87361 0.0
H2436 H 0.8169 0.60419 0.06103 0.0
H2437 H 0.79602 0.55076 0.99316 0.0
H2438 H 0.84192 0.56796 0.0823 0.0
H2439 H 0.81988 0.51438 0.01473 0.0
H2440 H 0.86762 0.45163 0.05453 0.0
H2441 H 0.85904 0.49358 0.03107 0.0
H2442 H 0.82787 0.52848 0.1048 0.0
H2443 H 0.83765 0.48697 0.12843 0.0
C2444 C 0.81811 0.58487 0.05041 0.0
C2445 C 0.8042 0.58021 0.0256 0.0
C2446 C 0.83223 0.56401 0.06271 0.0
C2447 C 0.83248 0.53801 0.05057 0.0
C2448 C 0.82037 0.5341 0.0247 0.0
C2449 C 0.80653 0.55501 0.01229 0.0
C2450 C 0.8593 0.46845 0.06578 0.0
C2451 C 0.85292 0.46591 0.09321 0.0
C2452 C 0.8543 0.49248 0.05232 0.0
C2453 C 0.8424 0.51437 0.06586 0.0
C2454 C 0.83735 0.51224 0.09371 0.0
C2455 C 0.84275 0.48833 0.10728 0.0
H2456 H 0.68643 0.54201 0.30495 0.0
H2457 H 0.69344 0.5931 0.23558 0.0
H2458 H 0.72587 0.56412 0.32606 0.0
H2459 H 0.73349 0.61591 0.25701 0.0
H2460 H 0.82384 0.61421 0.29149 0.0
H2461 H 0.78041 0.60369 0.2692 0.0
H2462 H 0.74152 0.60666 0.34666 0.0
H2463 H 0.78503 0.61655 0.36912 0.0
C2464 C 0.69626 0.55844 0.29446 0.0
C2465 C 0.68662 0.56644 0.26904 0.0
C2466 C 0.71879 0.57121 0.30661 0.0
C2467 C 0.7325 0.59217 0.29348 0.0
C2468 C 0.72319 0.59992 0.26767 0.0
C2469 C 0.70041 0.58697 0.25541 0.0
C2470 C 0.80597 0.61303 0.30377 0.0
C2471 C 0.80799 0.61551 0.33219 0.0
C2472 C 0.78102 0.60725 0.29091 0.0
C2473 C 0.75762 0.60395 0.3062 0.0
C2474 C 0.75932 0.60861 0.33438 0.0
C2475 C 0.78425 0.61427 0.34726 0.0
H2476 H 0.68827 0.41319 0.55705 0.0
H2477 H 0.68274 0.46176 0.48562 0.0
H2478 H 0.66675 0.44862 0.58335 0.0
H2479 H 0.66285 0.49802 0.51205 0.0
H2480 H 0.61783 0.55745 0.56094 0.0
H2481 H 0.62754 0.51601 0.53578 0.0
H2482 H 0.67815 0.49032 0.60269 0.0
H2483 H 0.66683 0.53097 0.62828 0.0
C2484 C 0.68232 0.43149 0.54699 0.0
C2485 C 0.68728 0.43485 0.51936 0.0
C2486 C 0.6702 0.45194 0.56209 0.0
C2487 C 0.66336 0.47653 0.55008 0.0
C2488 C 0.66739 0.47933 0.52209 0.0
C2489 C 0.67895 0.45859 0.50685 0.0
C2490 C 0.63063 0.54261 0.57036 0.0
C2491 C 0.64171 0.54739 0.59645 0.0
C2492 C 0.63643 0.51895 0.55587 0.0
C2493 C 0.65402 0.49983 0.56689 0.0
C2494 C 0.66421 0.50425 0.59354 0.0
C2495 C 0.65786 0.52765 0.60826 0.0
H2496 H 0.77116 0.79453 0.5784 0.0
H2497 H 0.69964 0.84231 0.56844 0.0
H2498 H 0.74416 0.75854 0.59783 0.0
H2499 H 0.67264 0.8071 0.5896 0.0
H2500 H 0.62854 0.7241 0.58991 0.0
H2501 H 0.65395 0.76502 0.57893 0.0
H2502 H 0.71938 0.74106 0.63236 0.0
H2503 H 0.69455 0.6993 0.6416 0.0
C2504 C 0.74973 0.79761 0.5811 0.0
C2505 C 0.73744 0.82105 0.57168 0.0
C2506 C 0.73416 0.77701 0.59244 0.0
C2507 C 0.70599 0.77964 0.5952 0.0
C2508 C 0.69407 0.80392 0.58718 0.0
C2509 C 0.70957 0.82424 0.57525 0.0
C2510 C 0.64819 0.72789 0.59954 0.0
C2511 C 0.65977 0.70853 0.61632 0.0
C2512 C 0.6628 0.75144 0.5934 0.0
C2513 C 0.68904 0.75638 0.60444 0.0
C2514 C 0.69967 0.73769 0.62276 0.0
C2515 C 0.68536 0.71386 0.6283 0.0
H2516 H 0.2585 0.6897 0.45161 0.0
H2517 H 0.17725 0.66068 0.46643 0.0
H2518 H 0.24032 0.72617 0.42463 0.0
H2519 H 0.15899 0.69788 0.44124 0.0
H2520 H 0.12889 0.76644 0.39346 0.0
H2521 H 0.1498 0.72333 0.40348 0.0
H2522 H 0.22062 0.76659 0.43618 0.0
H2523 H 0.20044 0.80908 0.42474 0.0
C2524 C 0.23676 0.6909 0.44875 0.0
C2525 C 0.2193 0.67261 0.46142 0.0
C2526 C 0.22627 0.71197 0.43354 0.0
C2527 C 0.1981 0.71558 0.4313 0.0
C2528 C 0.18075 0.69587 0.44224 0.0
C2529 C 0.19126 0.67449 0.4569 0.0
C2530 C 0.14908 0.76657 0.40246 0.0
C2531 C 0.16289 0.79114 0.40857 0.0
C2532 C 0.16107 0.74188 0.40831 0.0
C2533 C 0.18692 0.74127 0.42088 0.0
C2534 C 0.20098 0.76596 0.42603 0.0
C2535 C 0.18924 0.79051 0.41973 0.0
H2536 H 0.57142 0.94909 0.71871 0.0
H2537 H 0.56709 0.01843 0.66729 0.0
H2538 H 0.5322 0.92861 0.69551 0.0
H2539 H 0.52739 0.99765 0.64335 0.0
H2540 H 0.47321 0.88676 0.64164 0.0
H2541 H 0.51697 0.90813 0.65288 0.0
H2542 H 0.48008 0.98664 0.65393 0.0
H2543 H 0.43647 0.96544 0.64201 0.0
C2544 C 0.56225 0.95969 0.70197 0.0
C2545 C 0.57255 0.98492 0.69419 0.0
C2546 C 0.53985 0.9479 0.68857 0.0
C2547 C 0.52696 0.96123 0.66722 0.0
C2548 C 0.53701 0.98684 0.65966 0.0
C2549 C 0.55961 -0.00128 0.67324 0.0
C2550 C 0.47451 0.90861 0.64377 0.0
C2551 C 0.45124 0.9243 0.64154 0.0
C2552 C 0.49958 0.92086 0.65025 0.0
C2553 C 0.50189 0.94904 0.65476 0.0
C2554 C 0.47902 0.96492 0.65051 0.0
C2555 C 0.45395 0.95268 0.6439 0.0
H2556 H 0.3426 0.341 0.9597 0.0
H2557 H 0.266 0.29746 0.96 0.0
H2558 H 0.36164 0.30542 0.9319 0.0
H2559 H 0.28547 0.26069 0.93365 0.0
H2560 H 0.32254 0.20102 0.87765 0.0
H2561 H 0.30306 0.2432 0.89363 0.0
H2562 H 0.37719 0.26228 0.93891 0.0
H2563 H 0.39694 0.22099 0.92164 0.0
C2564 C 0.32981 0.32377 0.95369 0.0
C2565 C 0.3029 0.32183 0.96213 0.0
C2566 C 0.34079 0.30322 0.93793 0.0
C2567 C 0.32535 0.27983 0.93088 0.0
C2568 C 0.29797 0.27848 0.93837 0.0
C2569 C 0.28677 0.29946 0.95361 0.0
C2570 C 0.33477 0.21459 0.89061 0.0
C2571 C 0.36118 0.20775 0.89854 0.0
C2572 C 0.32355 0.23864 0.89997 0.0
C2573 C 0.33834 0.25611 0.91788 0.0
C2574 C 0.36523 0.24967 0.92483 0.0
C2575 C 0.37661 0.22588 0.91503 0.0
H2576 H 0.4084 0.55314 0.69138 0.0
H2577 H 0.45859 0.48302 0.69808 0.0
H2578 H 0.44494 0.57762 0.66961 0.0
H2579 H 0.49576 0.50784 0.67768 0.0
H2580 H 0.55677 0.55323 0.63053 0.0
H2581 H 0.51526 0.52824 0.64041 0.0
H2582 H 0.4858 0.59868 0.68313 0.0
H2583 H 0.52672 0.62392 0.67191 0.0
C2584 C 0.42727 0.54293 0.68802 0.0
C2585 C 0.43079 0.51627 0.69658 0.0
C2586 C 0.44831 0.55703 0.67574 0.0
C2587 C 0.47357 0.54498 0.67225 0.0
C2588 C 0.47657 0.51778 0.67969 0.0
C2589 C 0.4553 0.5035 0.6915 0.0
C2590 C 0.54117 0.56343 0.64167 0.0
C2591 C 0.54499 0.59043 0.65063 0.0
C2592 C 0.51745 0.54906 0.64752 0.0
C2593 C 0.49721 0.56122 0.6629 0.0
C2594 C 0.50068 0.58865 0.67091 0.0
C2595 C 0.52422 0.60317 0.66462 0.0
H2596 H 0.80518 0.18384 0.03654 0.0
H2597 H 0.73485 0.18998 0.08637 0.0
H2598 H 0.82551 0.22348 0.05914 0.0
H2599 H 0.75537 0.23034 0.10946 0.0
H2600 H 0.78931 0.32113 0.10871 0.0
H2601 H 0.76753 0.27771 0.0967 0.0
H2602 H 0.84484 0.23888 0.10294 0.0
H2603 H 0.86678 0.28228 0.11448 0.0
C2604 C 0.79433 0.19348 0.05282 0.0
C2605 C 0.76889 0.1835 0.06039 0.0
C2606 C 0.80599 0.21617 0.06582 0.0
C2607 C 0.79229 0.22976 0.08645 0.0
C2608 C 0.76646 0.22012 0.09373 0.0
C2609 C 0.75474 0.19715 0.08063 0.0
C2610 C 0.80164 0.30328 0.1079 0.0
C2611 C 0.82991 0.30528 0.11195 0.0
C2612 C 0.78907 0.27835 0.10125 0.0
C2613 C 0.80452 0.25496 0.09856 0.0
C2614 C 0.83248 0.25666 0.10445 0.0
C2615 C 0.84505 0.28154 0.11106 0.0
H2616 H 0.5981 0.0654 0.80921 0.0
H2617 H 0.56164 0.98535 0.81216 0.0
H2618 H 0.56031 0.08386 0.83317 0.0
H2619 H 0.52431 0.00355 0.83787 0.0
H2620 H 0.44511 0.05079 0.83382 0.0
H2621 H 0.48687 0.02791 0.82467 0.0
H2622 H 0.53196 0.09101 0.86913 0.0
H2623 H 0.48992 0.11475 0.87687 0.0
C2624 C 0.58246 0.05155 0.81591 0.0
C2625 C 0.58252 0.02402 0.80828 0.0
C2626 C 0.56071 0.06216 0.82987 0.0
C2627 C 0.53874 0.04536 0.83696 0.0
C2628 C 0.54037 0.01728 0.83192 0.0
C2629 C 0.56192 0.00674 0.81745 0.0
C2630 C 0.46392 0.05967 0.84186 0.0
C2631 C 0.4643 0.0848 0.85566 0.0
C2632 C 0.48797 0.04635 0.83689 0.0
C2633 C 0.51303 0.05756 0.84603 0.0
C2634 C 0.51318 0.08201 0.86123 0.0
C2635 C 0.4891 0.09562 0.86574 0.0
H2636 H 0.91438 0.92699 0.30505 0.0
H2637 H 0.9642 -0.00119 0.2961 0.0
H2638 H 0.9486 0.90792 0.33456 0.0
H2639 H -0.00042 0.9791 0.32426 0.0
H2640 H 0.05736 0.94247 0.38281 0.0
H2641 H 0.01674 0.96408 0.36561 0.0
H2642 H 0.98984 0.88779 0.32861 0.0
H2643 H 0.02958 0.86614 0.34704 0.0
C2644 C 0.9327 0.93874 0.30954 0.0
C2645 C 0.93681 0.96424 0.29818 0.0
C2646 C 0.95247 0.92772 0.3263 0.0
C2647 C 0.97723 0.94161 0.33143 0.0
C2648 C 0.98073 0.96782 0.32106 0.0
C2649 C 0.96055 0.97915 0.3048 0.0
C2650 C 0.04241 0.93028 0.37144 0.0
C2651 C 0.04666 0.90265 0.36614 0.0
C2652 C 0.01924 0.94271 0.36137 0.0
C2653 C 2e-05 0.92787 0.34539 0.0
C2654 C 0.00383 0.89991 0.34117 0.0
C2655 C 0.02675 0.88741 0.35165 0.0
H2656 H 0.4128 0.24885 0.19535 0.0
H2657 H 0.47974 0.30624 0.19054 0.0
H2658 H 0.3933 0.27633 0.23096 0.0
H2659 H 0.46028 0.33356 0.2267 0.0
H2660 H 0.40901 0.38499 0.28257 0.0
H2661 H 0.42167 0.3617 0.24071 0.0
H2662 H 0.40717 0.28458 0.27808 0.0
H2663 H 0.3942 0.30764 0.31951 0.0
C2664 C 0.42333 0.2674 0.20179 0.0
C2665 C 0.4481 0.27512 0.19039 0.0
C2666 C 0.41212 0.28312 0.22224 0.0
C2667 C 0.42543 0.30689 0.23186 0.0
C2668 C 0.44948 0.3154 0.21957 0.0
C2669 C 0.4607 0.29968 0.19897 0.0
C2670 C 0.40815 0.36307 0.28167 0.0
C2671 C 0.40077 0.34814 0.30441 0.0
C2672 C 0.41557 0.34977 0.25778 0.0
C2673 C 0.41548 0.32134 0.25615 0.0
C2674 C 0.40714 0.30651 0.27857 0.0
C2675 C 0.39988 0.31974 0.30241 0.0
H2676 H 0.46039 0.6731 0.9036 0.0
H2677 H 0.41855 0.74525 0.92791 0.0
H2678 H 0.43902 0.64829 0.94005 0.0
H2679 H 0.39691 0.72035 0.96395 0.0
H2680 H 0.43916 0.64555 0.03747 0.0
H2681 H 0.44977 0.6581 0.99125 0.0
H2682 H 0.3666 0.67979 0.97695 0.0
H2683 H 0.35579 0.66712 0.0229 0.0
C2684 C 0.44578 0.68335 0.91599 0.0
C2685 C 0.4413 0.71117 0.91318 0.0
C2686 C 0.43376 0.6692 0.93695 0.0
C2687 C 0.41666 0.68253 0.95495 0.0
C2688 C 0.40998 0.70957 0.95029 0.0
C2689 C 0.42236 0.72383 0.92968 0.0
C2690 C 0.42304 0.6525 0.02432 0.0
C2691 C 0.39678 0.65576 0.03403 0.0
C2692 C 0.42905 0.65945 0.9978 0.0
C2693 C 0.40897 0.66999 0.98065 0.0
C2694 C 0.38242 0.67182 0.98984 0.0
C2695 C 0.37633 0.66458 0.01619 0.0
H2696 H 0.00398 0.68293 0.72111 0.0
H2697 H 0.073 0.70722 0.67431 0.0
H2698 H 0.03392 0.67531 0.75997 0.0
H2699 H 0.10299 0.69916 0.71331 0.0
H2700 H 0.13876 0.63941 0.78143 0.0
H2701 H 0.11518 0.65557 0.74106 0.0
H2702 H 0.06595 0.70627 0.79134 0.0
H2703 H 0.08968 0.69049 0.8317 0.0
C2704 C 0.02554 0.68644 0.71903 0.0
C2705 C 0.03612 0.69565 0.69463 0.0
C2706 C 0.04262 0.68239 0.74137 0.0
C2707 C 0.07066 0.68705 0.73965 0.0
C2708 C 0.0814 0.69562 0.71512 0.0
C2709 C 0.06425 0.70015 0.69287 0.0
C2710 C 0.12354 0.65471 0.78378 0.0
C2711 C 0.11592 0.66353 0.80971 0.0
C2712 C 0.11005 0.6639 0.7607 0.0
C2713 C 0.0885 0.68175 0.76325 0.0
C2714 C 0.08233 0.69223 0.78897 0.0
C2715 C 0.09611 0.6834 0.81202 0.0
H2716 H 0.07361 0.24751 0.44366 0.0
H2717 H 0.00586 0.30116 0.44336 0.0
H2718 H 0.08952 0.26753 0.48722 0.0
H2719 H 0.02157 0.32122 0.4866 0.0
H2720 H 0.12487 0.33472 0.54456 0.0
H2721 H 0.10802 0.31368 0.50245 0.0
H2722 H 0.02784 0.30773 0.53521 0.0
H2723 H 0.0446 0.32899 0.57762 0.0
C2724 C 0.06228 0.26363 0.45296 0.0
C2725 C 0.03914 0.27353 0.44005 0.0
C2726 C 0.0713 0.27508 0.47771 0.0
C2727 C 0.0568 0.29601 0.49011 0.0
C2728 C 0.03303 0.30505 0.47756 0.0
C2729 C 0.02425 0.29384 0.45274 0.0
C2730 C 0.1036 0.32905 0.54286 0.0
C2731 C 0.08605 0.3335 0.56451 0.0
C2732 C 0.09406 0.31679 0.51879 0.0
C2733 C 0.06675 0.30888 0.51574 0.0
C2734 C 0.04902 0.31373 0.5371 0.0
C2735 C 0.05861 0.32585 0.56134 0.0
H2736 H 0.45692 0.75193 0.31445 0.0
H2737 H 0.50692 0.68148 0.31706 0.0
H2738 H 0.43584 0.7354 0.27205 0.0
H2739 H 0.48601 0.66478 0.27416 0.0
H2740 H 0.41852 0.63057 0.2167 0.0
H2741 H 0.44037 0.64755 0.25843 0.0
H2742 H 0.44754 0.72715 0.22441 0.0
H2743 H 0.42537 0.71034 0.18262 0.0
C2744 C 0.46325 0.73279 0.30585 0.0
C2745 C 0.4828 0.71743 0.31916 0.0
C2746 C 0.45146 0.7235 0.28149 0.0
C2747 C 0.45919 0.69876 0.26991 0.0
C2748 C 0.4794 0.68375 0.2829 0.0
C2749 C 0.4914 0.69324 0.30727 0.0
C2750 C 0.42462 0.65174 0.21809 0.0
C2751 C 0.42022 0.66911 0.19627 0.0
C2752 C 0.43736 0.66137 0.24194 0.0
C2753 C 0.44583 0.68857 0.24454 0.0
C2754 C 0.44106 0.70608 0.22297 0.0
C2755 C 0.42841 0.69644 0.19904 0.0
H2756 H 0.09757 0.72585 0.06746 0.0
H2757 H 0.01675 0.69117 0.07167 0.0
H2758 H 0.10812 0.69256 0.03208 0.0
H2759 H 0.02729 0.6583 0.03606 0.0
H2760 H 0.05448 0.64083 0.94353 0.0
H2761 H 0.03949 0.66445 0.98436 0.0
H2762 H 0.11103 0.63921 0.02771 0.0
H2763 H 0.12583 0.61513 0.98737 0.0
C2764 C 0.08216 0.71107 0.06097 0.0
C2765 C 0.05639 0.71112 0.0724 0.0
C2766 C 0.08822 0.69195 0.04087 0.0
C2767 C 0.06848 0.67287 0.03151 0.0
C2768 C 0.0428 0.6728 0.04298 0.0
C2769 C 0.03689 0.69155 0.06342 0.0
C2770 C 0.06652 0.63945 0.962 0.0
C2771 C 0.09161 0.62653 0.96201 0.0
C2772 C 0.058 0.65309 0.98533 0.0
C2773 C 0.0745 0.6541 0.00886 0.0
C2774 C 0.09825 0.63911 0.00961 0.0
C2775 C 0.10658 0.62522 0.98651 0.0
H2776 H 0.01365 0.33188 0.83385 0.0
H2777 H 0.08516 0.28843 0.85711 0.0
H2778 H 0.03855 0.35317 0.79756 0.0
H2779 H 0.10992 0.30935 0.82034 0.0
H2780 H 0.09252 0.39464 0.73954 0.0
H2781 H 0.08027 0.38305 0.78537 0.0
H2782 H 0.09885 0.2995 0.76859 0.0
H2783 H 0.11091 0.31087 0.72237 0.0
C2784 C 0.03494 0.32762 0.83177 0.0
C2785 C 0.04743 0.30842 0.84812 0.0
C2786 C 0.04919 0.33977 0.81102 0.0
C2787 C 0.07601 0.33256 0.80603 0.0
C2788 C 0.08918 0.31504 0.82374 0.0
C2789 C 0.07507 0.3033 0.84488 0.0
C2790 C 0.09446 0.37382 0.74564 0.0
C2791 C 0.1022 0.35353 0.72708 0.0
C2792 C 0.08748 0.36729 0.77194 0.0
C2793 C 0.08851 0.34044 0.78038 0.0
C2794 C 0.09811 0.32044 0.76257 0.0
C2795 C 0.10481 0.3269 0.73607 0.0
H2796 H 0.52119 0.30149 0.5413 0.0
H2797 H 0.45068 0.29718 0.59127 0.0
H2798 H 0.49571 0.32557 0.50732 0.0
H2799 H 0.42524 0.32285 0.55785 0.0
H2800 H 0.38153 0.34101 0.47683 0.0
H2801 H 0.40479 0.32057 0.51485 0.0
H2802 H 0.47733 0.36702 0.49735 0.0
H2803 H 0.45436 0.38604 0.45821 0.0
C2804 C 0.5002 0.30594 0.54505 0.0
C2805 C 0.48785 0.29745 0.56882 0.0
C2806 C 0.48562 0.32008 0.52572 0.0
C2807 C 0.45845 0.32666 0.52993 0.0
C2808 C 0.44603 0.31796 0.55375 0.0
C2809 C 0.46054 0.30325 0.57291 0.0
C2810 C 0.40231 0.34722 0.48146 0.0
C2811 C 0.41628 0.36492 0.4645 0.0
C2812 C 0.41568 0.33552 0.50333 0.0
C2813 C 0.44316 0.34169 0.50898 0.0
C2814 C 0.45644 0.36105 0.49311 0.0
C2815 C 0.44325 0.37224 0.47088 0.0
H2816 H 0.19065 0.48537 0.3035 0.0
H2817 H 0.18729 0.41269 0.25312 0.0
H2818 H 0.22645 0.46576 0.33127 0.0
H2819 H 0.22256 0.39316 0.28101 0.0
H2820 H 0.28083 0.41563 0.3852 0.0
H2821 H 0.2387 0.42865 0.36265 0.0
H2822 H 0.27102 0.40453 0.28544 0.0
H2823 H 0.31279 0.39126 0.30784 0.0
C2824 C 0.19719 0.4651 0.29862 0.0
C2825 C 0.18648 0.45083 0.2758 0.0
C2826 C 0.21757 0.45381 0.3146 0.0
C2827 C 0.22747 0.42806 0.30806 0.0
C2828 C 0.21566 0.41324 0.2862 0.0
C2829 C 0.19544 0.42449 0.27024 0.0
C2830 C 0.27872 0.41267 0.36347 0.0
C2831 C 0.30018 0.40258 0.34824 0.0
C2832 C 0.2547 0.42031 0.35058 0.0
C2833 C 0.25164 0.4177 0.32232 0.0
C2834 C 0.27266 0.40651 0.3073 0.0
C2835 C 0.29667 0.39907 0.32011 0.0
H2836 H 0.30397 0.4459 0.00361 0.0
H2837 H 0.25515 0.44168 0.0748 0.0
H2838 H 0.32472 0.48841 0.02042 0.0
H2839 H 0.27577 0.48456 0.0918 0.0
H2840 H 0.34375 0.54109 0.12616 0.0
H2841 H 0.32198 0.49968 0.10841 0.0
H2842 H 0.31237 0.53608 0.03013 0.0
H2843 H 0.33436 0.5777 0.04778 0.0
C2844 C 0.29783 0.45417 0.02296 0.0
C2845 C 0.27876 0.44039 0.03848 0.0
C2846 C 0.30942 0.47858 0.03241 0.0
C2847 C 0.30196 0.48964 0.05747 0.0
C2848 C 0.28215 0.4762 0.07258 0.0
C2849 C 0.27034 0.45184 0.06294 0.0
C2850 C 0.33718 0.54029 0.10509 0.0
C2851 C 0.34078 0.56273 0.08835 0.0
C2852 C 0.32448 0.51663 0.09505 0.0
C2853 C 0.31532 0.51481 0.06801 0.0
C2854 C 0.31937 0.53697 0.05107 0.0
C2855 C 0.33191 0.56077 0.06117 0.0
H2856 H 0.32846 0.51949 0.84032 0.0
H2857 H 0.34832 0.58876 0.79205 0.0
H2858 H 0.29258 0.54482 0.86169 0.0
H2859 H 0.31192 0.61398 0.81311 0.0
H2860 H 0.21401 0.61265 0.81829 0.0
H2861 H 0.26028 0.6019 0.80598 0.0
H2862 H 0.28039 0.5873 0.88978 0.0
H2863 H 0.23447 0.59823 0.90227 0.0
C2864 C 0.32573 0.54044 0.83498 0.0
C2865 C 0.34099 0.55213 0.81447 0.0
C2866 C 0.30523 0.55495 0.8472 0.0
C2867 C 0.29936 0.58122 0.83876 0.0
C2868 C 0.316 0.59369 0.81979 0.0
C2869 C 0.33693 0.57933 0.80795 0.0
C2870 C 0.22845 0.60778 0.83416 0.0
C2871 C 0.22037 0.60571 0.86114 0.0
C2872 C 0.25498 0.60182 0.82715 0.0
C2873 C 0.27374 0.59357 0.84697 0.0
C2874 C 0.26621 0.59341 0.87414 0.0
C2875 C 0.23986 0.5996 0.88119 0.0
H2876 H 0.17412 0.58734 0.55778 0.0
H2877 H 0.24233 0.54136 0.58589 0.0
H2878 H 0.14403 0.54812 0.5648 0.0
H2879 H 0.21233 0.50231 0.59234 0.0
H2880 H 0.15903 0.43015 0.56911 0.0
H2881 H 0.18241 0.47193 0.55656 0.0
H2882 H 0.13039 0.51809 0.60823 0.0
H2883 H 0.10718 0.47625 0.62127 0.0
C2884 C 0.18263 0.56899 0.56568 0.0
C2885 C 0.21061 0.56744 0.57131 0.0
C2886 C 0.16544 0.54662 0.56957 0.0
C2887 C 0.17604 0.52219 0.57857 0.0
C2888 C 0.20381 0.52085 0.5849 0.0
C2889 C 0.22089 0.54331 0.58153 0.0
C2890 C 0.15187 0.44926 0.57703 0.0
C2891 C 0.1314 0.44995 0.59632 0.0
C2892 C 0.16547 0.4731 0.57008 0.0
C2893 C 0.15842 0.49802 0.58185 0.0
C2894 C 0.13619 0.49907 0.59899 0.0
C2895 C 0.1229 0.47517 0.60634 0.0
H2896 H 0.21839 0.50231 0.18305 0.0
H2897 H 0.17033 0.57072 0.2064 0.0
H2898 H 0.2566 0.53297 0.17467 0.0
H2899 H 0.20855 0.60132 0.19772 0.0
H2900 H 0.27647 0.64089 0.14204 0.0
H2901 H 0.23653 0.61503 0.15584 0.0
H2902 H 0.28732 0.56507 0.20538 0.0
H2903 H 0.32723 0.59107 0.19192 0.0
C2904 C 0.21585 0.52388 0.18605 0.0
C2905 C 0.19134 0.53408 0.1954 0.0
C2906 C 0.23782 0.54138 0.18158 0.0
C2907 C 0.23558 0.56944 0.18596 0.0
C2908 C 0.21081 0.57976 0.19434 0.0
C2909 C 0.18897 0.56223 0.19924 0.0
C2910 C 0.27898 0.62497 0.15659 0.0
C2911 C 0.30497 0.61799 0.16587 0.0
C2912 C 0.25616 0.61012 0.16437 0.0
C2913 C 0.25899 0.58779 0.18123 0.0
C2914 C 0.28471 0.58199 0.19202 0.0
C2915 C 0.30748 0.59712 0.18461 0.0
H2916 H 0.2418 0.4244 0.91904 0.0
H2917 H 0.17129 0.39911 0.96296 0.0
H2918 H 0.21562 0.45959 0.89755 0.0
H2919 H 0.14514 0.43469 0.94167 0.0
H2920 H 0.16166 0.51835 0.85809 0.0
H2921 H 0.17475 0.47236 0.86835 0.0
H2922 H 0.1537 0.48566 0.95185 0.0
H2923 H 0.14069 0.53183 0.94178 0.0
C2924 C 0.22045 0.42575 0.92334 0.0
C2925 C 0.20865 0.40928 0.94286 0.0
C2926 C 0.20544 0.44587 0.91102 0.0
C2927 C 0.17849 0.45006 0.91831 0.0
C2928 C 0.16597 0.43198 0.93594 0.0
C2929 C 0.18089 0.41151 0.94793 0.0
C2930 C 0.15933 0.51138 0.87858 0.0
C2931 C 0.15062 0.52896 0.89928 0.0
C2932 C 0.1668 0.48501 0.88436 0.0
C2933 C 0.16534 0.47555 0.91086 0.0
C2934 C 0.15478 0.49239 0.93116 0.0
C2935 C 0.14757 0.51891 0.92545 0.0
H2936 H 0.31215 0.50159 0.68316 0.0
H2937 H 0.30836 0.45478 0.75575 0.0
H2938 H 0.26968 0.47984 0.6665 0.0
H2939 H 0.26631 0.43286 0.73927 0.0
H2940 H 0.21325 0.4111 0.63384 0.0
H2941 H 0.25458 0.43353 0.65097 0.0
H2942 H 0.21866 0.44404 0.72933 0.0
H2943 H 0.17717 0.42133 0.71233 0.0
C2944 C 0.3022 0.48656 0.69538 0.0
C2945 C 0.31365 0.47908 0.72021 0.0
C2946 C 0.27807 0.4741 0.68593 0.0
C2947 C 0.26483 0.45454 0.70155 0.0
C2948 C 0.27595 0.44794 0.72688 0.0
C2949 C 0.30012 0.4602 0.73615 0.0
C2950 C 0.21413 0.41803 0.65479 0.0
C2951 C 0.19185 0.41443 0.67174 0.0
C2952 C 0.23776 0.43109 0.66449 0.0
C2953 C 0.23972 0.4407 0.69137 0.0
C2954 C 0.21771 0.43669 0.70851 0.0
C2955 C 0.19396 0.42373 0.69878 0.0
H2956 H 0.30185 0.54122 0.52619 0.0
H2957 H 0.28788 0.5901 0.45602 0.0
H2958 H 0.3245 0.50803 0.49856 0.0
H2959 H 0.31206 0.55732 0.42813 0.0
H2960 H 0.33014 0.47537 0.38446 0.0
H2961 H 0.3101 0.51328 0.40856 0.0
H2962 H 0.36489 0.50106 0.4765 0.0
H2963 H 0.38352 0.46211 0.45294 0.0
C2964 C 0.30387 0.54491 0.50477 0.0
C2965 C 0.29324 0.56821 0.49321 0.0
C2966 C 0.31717 0.52604 0.48893 0.0
C2967 C 0.32075 0.53023 0.46115 0.0
C2968 C 0.30962 0.55339 0.44943 0.0
C2969 C 0.29577 0.57214 0.46532 0.0
C2970 C 0.3382 0.48122 0.40434 0.0
C2971 C 0.35816 0.4658 0.41705 0.0
C2972 C 0.32675 0.50297 0.41817 0.0
C2973 C 0.33542 0.50991 0.44476 0.0
C2974 C 0.35702 0.49571 0.45644 0.0
C2975 C 0.36796 0.47362 0.44289 0.0
H2976 H 0.2526 0.19182 0.41606 0.0
H2977 H 0.30857 0.19094 0.48452 0.0
H2978 H 0.27895 0.22821 0.39644 0.0
H2979 H 0.3347 0.22793 0.46498 0.0
H2980 H 0.38473 0.28528 0.41411 0.0
H2981 H 0.36313 0.24262 0.42701 0.0
H2982 H 0.28461 0.27573 0.4093 0.0
H2983 H 0.30601 0.31791 0.39602 0.0
C2984 C 0.27059 0.19932 0.42691 0.0
C2985 C 0.27824 0.18878 0.45211 0.0
C2986 C 0.28567 0.2202 0.41564 0.0
C2987 C 0.30866 0.23116 0.42934 0.0
C2988 C 0.31715 0.21976 0.45387 0.0
C2989 C 0.3021 0.19869 0.46513 0.0
C2990 C 0.36288 0.28326 0.41258 0.0
C2991 C 0.34705 0.30502 0.40421 0.0
C2992 C 0.35054 0.25892 0.42014 0.0
C2993 C 0.32221 0.25587 0.41924 0.0
C2994 C 0.30651 0.27731 0.40991 0.0
C2995 C 0.31878 0.30158 0.40248 0.0
H2996 H 0.83024 0.32995 0.51047 0.0
H2997 H 0.7912 0.35697 0.58332 0.0
H2998 H 0.85231 0.29437 0.53578 0.0
H2999 H 0.8129 0.32093 0.6085 0.0
H3000 H 0.89664 0.23883 0.59091 0.0
H3001 H 0.8845 0.28391 0.57655 0.0
H3002 H 0.80214 0.26882 0.60042 0.0
H3003 H 0.81405 0.22336 0.61456 0.0
C3004 C 0.82708 0.32882 0.53206 0.0
C3005 C 0.80891 0.34607 0.54489 0.0
C3006 C 0.8397 0.30847 0.54654 0.0
C3007 C 0.83398 0.30478 0.57398 0.0
C3008 C 0.81743 0.3233 0.58731 0.0
C3009 C 0.80523 0.34403 0.57293 0.0
C3010 C 0.87601 0.24519 0.5936 0.0
C3011 C 0.85616 0.22729 0.60349 0.0
C3012 C 0.86914 0.27104 0.58536 0.0
C3013 C 0.84243 0.27972 0.58729 0.0
C3014 C 0.82297 0.26263 0.59893 0.0
C3015 C 0.82974 0.23657 0.60685 0.0
H3016 H 0.44563 0.06752 0.25245 0.0
H3017 H 0.44514 -0.00165 0.30432 0.0
H3018 H 0.48843 0.08362 0.27394 0.0
H3019 H 0.48766 0.01425 0.32585 0.0
H3020 H 0.57777 0.04025 0.33831 0.0
H3021 H 0.53674 0.02245 0.31502 0.0
H3022 H 0.50108 0.10135 0.32082 0.0
H3023 H 0.54161 0.11913 0.34402 0.0
C3024 C 0.45477 0.05587 0.26845 0.0
C3025 C 0.44195 0.03232 0.27749 0.0
C3026 C 0.4791 0.06499 0.28073 0.0
C3027 C 0.49117 0.05022 0.30167 0.0
C3028 C 0.47886 0.02594 0.3097 0.0
C3029 C 0.45445 0.01705 0.29765 0.0
C3030 C 0.56108 0.05371 0.33479 0.0
C3031 C 0.563 0.08108 0.34301 0.0
C3032 C 0.53766 0.04354 0.32147 0.0
C3033 C 0.51594 0.06065 0.3159 0.0
C3034 C 0.51771 0.08785 0.32447 0.0
C3035 C 0.54089 0.09792 0.338 0.0
H3036 H 0.68685 0.71865 0.00611 0.0
H3037 H 0.71272 0.67052 0.07364 0.0
H3038 H 0.67941 0.75678 0.0371 0.0
H3039 H 0.7048 0.70872 0.10465 0.0
H3040 H 0.64633 0.77617 0.14358 0.0
H3041 H 0.66138 0.73628 0.11842 0.0
H3042 H 0.71129 0.78746 0.06926 0.0
H3043 H 0.69668 0.82731 0.09459 0.0
C3044 C 0.69069 0.71612 0.02757 0.0
C3045 C 0.70036 0.69157 0.03742 0.0
C3046 C 0.68673 0.73803 0.04524 0.0
C3047 C 0.69191 0.73572 0.07316 0.0
C3048 C 0.70083 0.711 0.08317 0.0
C3049 C 0.7053 0.6892 0.06543 0.0
C3050 C 0.66124 0.77879 0.12803 0.0
C3051 C 0.67021 0.80487 0.12098 0.0
C3052 C 0.66977 0.75599 0.11361 0.0
C3053 C 0.68706 0.75896 0.09165 0.0
C3054 C 0.69765 0.78476 0.08593 0.0
C3055 C 0.68952 0.80751 0.10066 0.0
H3056 H 0.56915 0.51954 0.33856 0.0
H3057 H 0.57016 0.45778 0.27528 0.0
H3058 H 0.5343 0.49408 0.36151 0.0
H3059 H 0.53465 0.43249 0.29819 0.0
H3060 H 0.446 0.46329 0.36774 0.0
H3061 H 0.48663 0.48522 0.35115 0.0
H3062 H 0.52301 0.4072 0.33935 0.0
H3063 H 0.48196 0.38504 0.35558 0.0
C3064 C 0.56197 0.5005 0.32951 0.0
C3065 C 0.57216 0.49089 0.30482 0.0
C3066 C 0.54196 0.48593 0.34271 0.0
C3067 C 0.53155 0.46147 0.33151 0.0
C3068 C 0.54247 0.45121 0.30742 0.0
C3069 C 0.56266 0.46577 0.2942 0.0
C3070 C 0.46275 0.45078 0.36194 0.0
C3071 C 0.46065 0.42242 0.36276 0.0
C3072 C 0.48613 0.46337 0.35257 0.0
C3073 C 0.50795 0.4479 0.34382 0.0
C3074 C 0.50635 0.41959 0.34565 0.0
C3075 C 0.48294 0.40695 0.35515 0.0
H3076 H 0.24341 0.81229 0.95485 0.0
H3077 H 0.17718 0.81258 0.01035 0.0
H3078 H 0.22705 0.76907 0.93542 0.0
H3079 H 0.16066 0.76893 0.99101 0.0
H3080 H 0.124 0.71037 0.92521 0.0
H3081 H 0.14087 0.75269 0.94588 0.0
H3082 H 0.22162 0.72096 0.94932 0.0
H3083 H 0.20489 0.67849 0.92833 0.0
C3084 C 0.2252 0.80304 0.96272 0.0
C3085 C 0.21093 0.81588 0.98339 0.0
C3086 C 0.21605 0.77822 0.95186 0.0
C3087 C 0.19257 0.76577 0.96166 0.0
C3088 C 0.17865 0.77835 0.98289 0.0
C3089 C 0.18802 0.80314 0.99396 0.0
C3090 C 0.14539 0.71235 0.93028 0.0
C3091 C 0.16313 0.69102 0.92512 0.0
C3092 C 0.15495 0.73653 0.94234 0.0
C3093 C 0.18245 0.73995 0.94935 0.0
C3094 C 0.2003 0.71882 0.94397 0.0
C3095 C 0.19072 0.69452 0.93202 0.0
H3096 H 0.42817 0.91378 0.24425 0.0
H3097 H 0.40412 0.9556 0.17197 0.0
H3098 H 0.46509 0.89312 0.21987 0.0
H3099 H 0.44142 0.93519 0.14767 0.0
H3100 H 0.53872 0.93709 0.14569 0.0
H3101 H 0.49216 0.94675 0.15782 0.0
H3102 H 0.47951 0.8634 0.17977 0.0
H3103 H 0.5258 0.85354 0.16755 0.0
C3104 C 0.4302 0.91777 0.22289 0.0
C3105 C 0.41348 0.93645 0.21007 0.0
C3106 C 0.45132 0.90596 0.20892 0.0
C3107 C 0.45629 0.91293 0.18202 0.0
C3108 C 0.43812 0.92973 0.16848 0.0
C3109 C 0.41665 0.94119 0.18234 0.0
C3110 C 0.52587 0.92072 0.15262 0.0
C3111 C 0.53615 0.89469 0.15608 0.0
C3112 C 0.49916 0.92619 0.15934 0.0
C3113 C 0.48235 0.90579 0.16983 0.0
C3114 C 0.49212 0.87947 0.17186 0.0
C3115 C 0.51867 0.87392 0.16488 0.0
H3116 H 0.03797 0.07803 0.75158 0.0
H3117 H 0.08674 0.05611 0.68322 0.0
H3118 H -0.00021 0.0862 0.72082 0.0
H3119 H 0.0485 0.06473 0.65248 0.0
H3120 H 0.9792 0.12194 0.61519 0.0
H3121 H 0.01957 0.1078 0.64023 0.0
H3122 H 0.97015 0.05434 0.68748 0.0
H3123 H 0.92985 0.06802 0.66226 0.0
C3124 C 0.04066 0.07529 0.73 0.0
C3125 C 0.06536 0.06641 0.71983 0.0
C3126 C 0.01872 0.07966 0.71245 0.0
C3127 C 0.02119 0.07568 0.68437 0.0
C3128 C 0.04611 0.06776 0.67407 0.0
C3129 C 0.06793 0.0629 0.69166 0.0
C3130 C 0.9771 0.10647 0.63028 0.0
C3131 C 0.95136 0.09616 0.63681 0.0
C3132 C 0.00017 0.09848 0.64465 0.0
C3133 C -0.00222 0.0804 0.66605 0.0
C3134 C 0.97238 0.0686 0.67126 0.0
C3135 C 0.94939 0.07619 0.65658 0.0
loop_
_geom_bond_atom_site_label_1
_geom_bond_atom_site_label_2
_geom_bond_distance
_geom_bond_site_symmetry_2
_ccdc_geom_bond_type
Mn0 O5 2.095 1_455 S
Mn0 O15 2.162 1_455 S
Mn0 O16 2.297 1_455 S
Mn0 O24 2.385 . S
Mn0 O25 2.209 . S
Mn0 O26 2.094 . S
Mn1 O6 2.121 1_455 S
Mn1 N8 2.257 . S
Mn1 N17 2.282 . S
Mn1 O25 2.215 . S
Mn1 O27 2.117 . S
C2 O24 1.234 . S
C2 O25 1.283 . S
C3 O15 1.281 . S
C3 O16 1.236 . S
C4 O26 1.240 . S
C4 O27 1.264 . S
O5 Mn0 2.095 1_655 S
O5 C14 1.250 . S
O6 Mn1 2.121 1_655 S
O6 C14 1.258 . S
C7 N8 1.326 . S
C7 C11 1.460 . S
C7 H13 0.929 . S
N8 Mn1 2.257 . S
N8 C7 1.326 . S
N8 C12 1.362 . S
C9 C10 1.258 . S
C9 C12 1.431 . S
C9 C29 1.449 . S
C10 C9 1.258 . S
C10 C11 1.477 . S
C10 H30 0.931 . S
C11 C7 1.460 . S
C11 C10 1.477 . S
C11 H31 0.930 . S
C12 N8 1.362 . S
C12 C9 1.431 . S
C12 C22 1.476 . S
H13 C7 0.929 . S
C14 O5 1.250 . S
C14 O6 1.258 . S
O15 Mn0 2.162 1_655 S
O15 C3 1.281 . S
O16 Mn0 2.297 1_655 S
O16 C3 1.236 . S
N17 Mn1 2.282 . S
N17 C18 1.328 . S
N17 C22 1.318 . S
C18 N17 1.328 . S
C18 C19 1.457 . S
C18 H23 0.929 . S
C19 C18 1.457 . S
C19 C20 1.291 . S
C19 H32 0.931 . S
C20 C19 1.291 . S
C20 C21 1.373 . S
C20 H33 0.929 . S
C21 C20 1.373 . S
C21 C22 1.396 . S
C21 C28 1.403 . S
C22 C12 1.476 . S
C22 N17 1.318 . S
C22 C21 1.396 . S
H23 C18 0.929 . S
O24 Mn0 2.385 . S
O24 C2 1.234 . S
O25 Mn0 2.209 . S
O25 Mn1 2.215 . S
O25 C2 1.283 . S
O26 Mn0 2.094 . S
O26 C4 1.240 . S
O27 Mn1 2.117 . S
O27 C4 1.264 . S
C28 C21 1.403 . S
C28 C29 1.399 . S
C28 H34 0.929 . S
C29 C9 1.449 . S
C29 C28 1.399 . S
C29 H35 0.930 . S
H30 C10 0.931 . S
H31 C11 0.930 . S
H32 C19 0.931 . S
H33 C20 0.929 . S
H34 C28 0.929 . S
H35 C29 0.930 . S
Mn36 O41 2.095 . S
Mn36 O51 2.162 . S
Mn36 O52 2.297 . S
Mn36 O60 2.385 . S
Mn36 O61 2.209 1_455 S
Mn36 O62 2.094 . S
Mn37 O42 2.121 . S
Mn37 N44 2.257 . S
Mn37 N53 2.282 . S
Mn37 O61 2.215 . S
Mn37 O63 2.117 1_655 S
C38 O60 1.234 1_655 S
C38 O61 1.283 . S
C39 O51 1.281 . S
C39 O52 1.236 . S
C40 O62 1.240 . S
C40 O63 1.264 . S
O41 Mn36 2.095 . S
O41 C50 1.250 1_455 S
O42 Mn37 2.121 . S
O42 C50 1.258 . S
C43 N44 1.326 . S
C43 C47 1.460 . S
C43 H49 0.929 . S
N44 Mn37 2.257 . S
N44 C43 1.326 . S
N44 C48 1.362 . S
C45 C46 1.258 . S
C45 C48 1.431 . S
C45 C65 1.449 . S
C46 C45 1.258 . S
C46 C47 1.477 . S
C46 H66 0.931 . S
C47 C43 1.460 . S
C47 C46 1.477 . S
C47 H67 0.930 . S
C48 N44 1.362 . S
C48 C45 1.431 . S
C48 C58 1.476 . S
H49 C43 0.929 . S
C50 O41 1.250 1_655 S
C50 O42 1.258 . S
O51 Mn36 2.162 . S
O51 C39 1.281 . S
O52 Mn36 2.297 . S
O52 C39 1.236 . S
N53 Mn37 2.282 . S
N53 C54 1.328 . S
N53 C58 1.318 . S
C54 N53 1.328 . S
C54 C55 1.457 . S
C54 H59 0.929 . S
C55 C54 1.457 . S
C55 C56 1.291 . S
C55 H68 0.931 . S
C56 C55 1.291 . S
C56 C57 1.373 . S
C56 H69 0.929 . S
C57 C56 1.373 . S
C57 C58 1.396 . S
C57 C64 1.403 . S
C58 C48 1.476 . S
C58 N53 1.318 . S
C58 C57 1.396 . S
H59 C54 0.929 . S
O60 Mn36 2.385 . S
O60 C38 1.234 1_455 S
O61 Mn36 2.209 1_655 S
O61 Mn37 2.215 . S
O61 C38 1.283 . S
O62 Mn36 2.094 . S
O62 C40 1.240 . S
O63 Mn37 2.117 1_455 S
O63 C40 1.264 . S
C64 C57 1.403 . S
C64 C65 1.399 . S
C64 H70 0.929 . S
C65 C45 1.449 . S
C65 C64 1.399 . S
C65 H71 0.930 . S
H66 C46 0.931 . S
H67 C47 0.930 . S
H68 C55 0.931 . S
H69 C56 0.929 . S
H70 C64 0.929 . S
H71 C65 0.930 . S
Mn72 O77 2.095 . S
Mn72 O87 2.162 . S
Mn72 O88 2.297 . S
Mn72 O96 2.385 . S
Mn72 O97 2.209 . S
Mn72 O98 2.094 . S
Mn73 O78 2.121 . S
Mn73 N80 2.257 . S
Mn73 N89 2.282 . S
Mn73 O97 2.215 . S
Mn73 O99 2.117 . S
C74 O96 1.234 . S
C74 O97 1.283 . S
C75 O87 1.281 . S
C75 O88 1.236 . S
C76 O98 1.240 . S
C76 O99 1.264 . S
O77 Mn72 2.095 . S
O77 C86 1.250 . S
O78 Mn73 2.121 . S
O78 C86 1.258 . S
C79 N80 1.326 . S
C79 C83 1.460 . S
C79 H85 0.929 . S
N80 Mn73 2.257 . S
N80 C79 1.326 . S
N80 C84 1.362 . S
C81 C82 1.258 . S
C81 C84 1.431 . S
C81 C101 1.449 . S
C82 C81 1.258 . S
C82 C83 1.477 . S
C82 H102 0.931 . S
C83 C79 1.460 . S
C83 C82 1.477 . S
C83 H103 0.930 . S
C84 N80 1.362 . S
C84 C81 1.431 . S
C84 C94 1.476 . S
H85 C79 0.929 . S
C86 O77 1.250 . S
C86 O78 1.258 . S
O87 Mn72 2.162 . S
O87 C75 1.281 . S
O88 Mn72 2.297 . S
O88 C75 1.236 . S
N89 Mn73 2.282 . S
N89 C90 1.328 . S
N89 C94 1.318 . S
C90 N89 1.328 . S
C90 C91 1.457 . S
C90 H95 0.929 . S
C91 C90 1.457 . S
C91 C92 1.291 . S
C91 H104 0.931 . S
C92 C91 1.291 . S
C92 C93 1.373 . S
C92 H105 0.929 . S
C93 C92 1.373 . S
C93 C94 1.396 . S
C93 C100 1.403 . S
C94 C84 1.476 . S
C94 N89 1.318 . S
C94 C93 1.396 . S
H95 C90 0.929 . S
O96 Mn72 2.385 . S
O96 C74 1.234 . S
O97 Mn72 2.209 . S
O97 Mn73 2.215 . S
O97 C74 1.283 . S
O98 Mn72 2.094 . S
O98 C76 1.240 . S
O99 Mn73 2.117 . S
O99 C76 1.264 . S
C100 C93 1.403 . S
C100 C101 1.399 . S
C100 H106 0.929 . S
C101 C81 1.449 . S
C101 C100 1.399 . S
C101 H107 0.930 . S
H102 C82 0.931 . S
H103 C83 0.930 . S
H104 C91 0.931 . S
H105 C92 0.929 . S
H106 C100 0.929 . S
H107 C101 0.930 . S
Mn108 O113 2.095 . S
Mn108 O123 2.162 . S
Mn108 O124 2.297 . S
Mn108 O132 2.385 . S
Mn108 O133 2.209 . S
Mn108 O134 2.094 . S
Mn109 O114 2.121 . S
Mn109 N116 2.257 . S
Mn109 N125 2.282 . S
Mn109 O133 2.215 . S
Mn109 O135 2.117 . S
C110 O132 1.234 . S
C110 O133 1.283 . S
C111 O123 1.281 . S
C111 O124 1.236 . S
C112 O134 1.240 . S
C112 O135 1.264 . S
O113 Mn108 2.095 . S
O113 C122 1.250 . S
O114 Mn109 2.121 . S
O114 C122 1.258 . S
C115 N116 1.326 . S
C115 C119 1.460 . S
C115 H121 0.929 . S
N116 Mn109 2.257 . S
N116 C115 1.326 . S
N116 C120 1.362 . S
C117 C118 1.258 . S
C117 C120 1.431 . S
C117 C137 1.449 . S
C118 C117 1.258 . S
C118 C119 1.477 . S
C118 H138 0.931 . S
C119 C115 1.460 . S
C119 C118 1.477 . S
C119 H139 0.930 . S
C120 N116 1.362 . S
C120 C117 1.431 . S
C120 C130 1.476 . S
H121 C115 0.929 . S
C122 O113 1.250 . S
C122 O114 1.258 . S
O123 Mn108 2.162 . S
O123 C111 1.281 . S
O124 Mn108 2.297 . S
O124 C111 1.236 . S
N125 Mn109 2.282 . S
N125 C126 1.328 . S
N125 C130 1.318 . S
C126 N125 1.328 . S
C126 C127 1.457 . S
C126 H131 0.929 . S
C127 C126 1.457 . S
C127 C128 1.291 . S
C127 H140 0.931 . S
C128 C127 1.291 . S
C128 C129 1.373 . S
C128 H141 0.929 . S
C129 C128 1.373 . S
C129 C130 1.396 . S
C129 C136 1.403 . S
C130 C120 1.476 . S
C130 N125 1.318 . S
C130 C129 1.396 . S
H131 C126 0.929 . S
O132 Mn108 2.385 . S
O132 C110 1.234 . S
O133 Mn108 2.209 . S
O133 Mn109 2.215 . S
O133 C110 1.283 . S
O134 Mn108 2.094 . S
O134 C112 1.240 . S
O135 Mn109 2.117 . S
O135 C112 1.264 . S
C136 C129 1.403 . S
C136 C137 1.399 . S
C136 H142 0.929 . S
C137 C117 1.449 . S
C137 C136 1.399 . S
C137 H143 0.930 . S
H138 C118 0.931 . S
H139 C119 0.930 . S
H140 C127 0.931 . S
H141 C128 0.929 . S
H142 C136 0.929 . S
H143 C137 0.930 . S
Mn144 O149 2.095 . S
Mn144 O159 2.162 . S
Mn144 O160 2.297 . S
Mn144 O168 2.385 1_655 S
Mn144 O169 2.209 1_655 S
Mn144 O170 2.094 1_655 S
Mn145 O150 2.121 1_455 S
Mn145 N152 2.257 . S
Mn145 N161 2.282 . S
Mn145 O169 2.215 . S
Mn145 O171 2.117 . S
C146 O168 1.234 . S
C146 O169 1.283 . S
C147 O159 1.281 . S
C147 O160 1.236 . S
C148 O170 1.240 . S
C148 O171 1.264 . S
O149 Mn144 2.095 . S
O149 C158 1.250 . S
O150 Mn145 2.121 1_655 S
O150 C158 1.258 . S
C151 N152 1.326 . S
C151 C155 1.460 . S
C151 H157 0.906 1_455 S
N152 Mn145 2.257 . S
N152 C151 1.326 . S
N152 C156 1.362 . S
C153 C154 1.258 . S
C153 C156 1.431 . S
C153 C173 1.449 . S
C154 C153 1.258 . S
C154 C155 1.477 . S
C154 H174 0.931 . S
C155 C151 1.460 . S
C155 C154 1.477 . S
C155 H175 0.930 . S
C156 N152 1.362 . S
C156 C153 1.431 . S
C156 C166 1.476 . S
H157 C151 0.906 1_655 S
C158 O149 1.250 . S
C158 O150 1.258 . S
O159 Mn144 2.162 . S
O159 C147 1.281 . S
O160 Mn144 2.297 . S
O160 C147 1.236 . S
N161 Mn145 2.282 . S
N161 C162 1.328 . S
N161 C166 1.318 . S
C162 N161 1.328 . S
C162 C163 1.457 . S
C162 H167 0.929 . S
C163 C162 1.457 . S
C163 C164 1.291 . S
C163 H176 0.931 . S
C164 C163 1.291 . S
C164 C165 1.373 . S
C164 H177 0.929 . S
C165 C164 1.373 . S
C165 C166 1.396 . S
C165 C172 1.403 . S
C166 C156 1.476 . S
C166 N161 1.318 . S
C166 C165 1.396 . S
H167 C162 0.929 . S
O168 Mn144 2.385 1_455 S
O168 C146 1.234 . S
O169 Mn144 2.209 1_455 S
O169 Mn145 2.215 . S
O169 C146 1.283 . S
O170 Mn144 2.094 1_455 S
O170 C148 1.240 . S
O171 Mn145 2.117 . S
O171 C148 1.264 . S
C172 C165 1.403 . S
C172 C173 1.399 . S
C172 H178 0.929 . S
C173 C153 1.449 . S
C173 C172 1.399 . S
C173 H179 0.930 . S
H174 C154 0.931 . S
H175 C155 0.930 . S
H176 C163 0.931 . S
H177 C164 0.929 . S
H178 C172 0.929 . S
H179 C173 0.930 . S
Mn180 O185 2.095 . S
Mn180 O195 2.162 . S
Mn180 O196 2.297 . S
Mn180 O204 2.385 . S
Mn180 O205 2.209 . S
Mn180 O206 2.094 . S
Mn181 O186 2.121 . S
Mn181 N188 2.257 . S
Mn181 N197 2.282 . S
Mn181 O205 2.215 . S
Mn181 O207 2.117 . S
C182 O204 1.234 . S
C182 O205 1.283 . S
C183 O195 1.281 . S
C183 O196 1.236 . S
C184 O206 1.240 . S
C184 O207 1.264 . S
O185 Mn180 2.095 . S
O185 C194 1.250 . S
O186 Mn181 2.121 . S
O186 C194 1.258 . S
C187 N188 1.326 . S
C187 C191 1.460 . S
C187 H193 0.929 . S
N188 Mn181 2.257 . S
N188 C187 1.326 . S
N188 C192 1.362 . S
C189 C190 1.258 . S
C189 C192 1.431 . S
C189 C209 1.449 . S
C190 C189 1.258 . S
C190 C191 1.477 . S
C190 H210 0.931 . S
C191 C187 1.460 . S
C191 C190 1.477 . S
C191 H211 0.930 . S
C192 N188 1.362 . S
C192 C189 1.431 . S
C192 C202 1.476 . S
H193 C187 0.929 . S
C194 O185 1.250 . S
C194 O186 1.258 . S
O195 Mn180 2.162 . S
O195 C183 1.281 . S
O196 Mn180 2.297 . S
O196 C183 1.236 . S
N197 Mn181 2.282 . S
N197 C198 1.328 . S
N197 C202 1.318 . S
C198 N197 1.328 . S
C198 C199 1.457 . S
C198 H203 0.929 . S
C199 C198 1.457 . S
C199 C200 1.291 . S
C199 H212 0.931 . S
C200 C199 1.291 . S
C200 C201 1.373 . S
C200 H213 0.929 . S
C201 C200 1.373 . S
C201 C202 1.396 . S
C201 C208 1.403 . S
C202 C192 1.476 . S
C202 N197 1.318 . S
C202 C201 1.396 . S
H203 C198 0.929 . S
O204 Mn180 2.385 . S
O204 C182 1.234 . S
O205 Mn180 2.209 . S
O205 Mn181 2.215 . S
O205 C182 1.283 . S
O206 Mn180 2.094 . S
O206 C184 1.240 . S
O207 Mn181 2.117 . S
O207 C184 1.264 . S
C208 C201 1.403 . S
C208 C209 1.399 . S
C208 H214 0.929 . S
C209 C189 1.449 . S
C209 C208 1.399 . S
C209 H215 0.930 . S
H210 C190 0.931 . S
H211 C191 0.930 . S
H212 C199 0.931 . S
H213 C200 0.929 . S
H214 C208 0.929 . S
H215 C209 0.930 . S
Mn216 O221 2.095 . S
Mn216 O231 2.162 . S
Mn216 O232 2.297 . S
Mn216 O240 2.385 . S
Mn216 O241 2.209 . S
Mn216 O242 2.094 . S
Mn217 O222 2.121 . S
Mn217 N224 2.257 . S
Mn217 N233 2.282 . S
Mn217 O241 2.215 . S
Mn217 O243 2.117 . S
C218 O240 1.234 . S
C218 O241 1.283 . S
C219 O231 1.281 . S
C219 O232 1.236 . S
C220 O242 1.240 . S
C220 O243 1.264 . S
O221 Mn216 2.095 . S
O221 C230 1.250 . S
O222 Mn217 2.121 . S
O222 C230 1.258 . S
C223 N224 1.326 . S
C223 C227 1.460 . S
C223 H229 0.929 . S
N224 Mn217 2.257 . S
N224 C223 1.326 . S
N224 C228 1.362 . S
C225 C226 1.258 . S
C225 C228 1.431 . S
C225 C245 1.449 . S
C226 C225 1.258 . S
C226 C227 1.477 . S
C226 H246 0.931 . S
C227 C223 1.460 . S
C227 C226 1.477 . S
C227 H247 0.930 . S
C228 N224 1.362 . S
C228 C225 1.431 . S
C228 C238 1.476 . S
H229 C223 0.929 . S
C230 O221 1.250 . S
C230 O222 1.258 . S
O231 Mn216 2.162 . S
O231 C219 1.281 . S
O232 Mn216 2.297 . S
O232 C219 1.236 . S
N233 Mn217 2.282 . S
N233 C234 1.328 . S
N233 C238 1.318 . S
C234 N233 1.328 . S
C234 C235 1.457 . S
C234 H239 0.929 . S
C235 C234 1.457 . S
C235 C236 1.291 . S
C235 H248 0.931 . S
C236 C235 1.291 . S
C236 C237 1.373 . S
C236 H249 0.929 . S
C237 C236 1.373 . S
C237 C238 1.396 . S
C237 C244 1.403 . S
C238 C228 1.476 . S
C238 N233 1.318 . S
C238 C237 1.396 . S
H239 C234 0.929 . S
O240 Mn216 2.385 . S
O240 C218 1.234 . S
O241 Mn216 2.209 . S
O241 Mn217 2.215 . S
O241 C218 1.283 . S
O242 Mn216 2.094 . S
O242 C220 1.240 . S
O243 Mn217 2.117 . S
O243 C220 1.264 . S
C244 C237 1.403 . S
C244 C245 1.399 . S
C244 H250 0.929 . S
C245 C225 1.449 . S
C245 C244 1.399 . S
C245 H251 0.930 . S
H246 C226 0.931 . S
H247 C227 0.930 . S
H248 C235 0.931 . S
H249 C236 0.929 . S
H250 C244 0.929 . S
H251 C245 0.930 . S
Mn252 O257 2.095 . S
Mn252 O267 2.162 . S
Mn252 O268 2.297 . S
Mn252 O276 2.385 . S
Mn252 O277 2.209 1_455 S
Mn252 O278 2.094 . S
Mn253 O258 2.121 . S
Mn253 N260 2.257 . S
Mn253 N269 2.282 . S
Mn253 O277 2.215 . S
Mn253 O279 2.117 1_655 S
C254 O276 1.234 1_655 S
C254 O277 1.283 . S
C255 O267 1.281 . S
C255 O268 1.236 . S
C256 O278 1.240 . S
C256 O279 1.264 . S
O257 Mn252 2.095 . S
O257 C266 1.250 1_455 S
O258 Mn253 2.121 . S
O258 C266 1.258 . S
C259 N260 1.326 . S
C259 C263 1.460 . S
C259 H265 0.929 . S
N260 Mn253 2.257 . S
N260 C259 1.326 . S
N260 C264 1.362 . S
C261 C262 1.258 . S
C261 C264 1.431 . S
C261 C281 1.449 . S
C262 C261 1.258 . S
C262 C263 1.477 . S
C262 H282 0.931 . S
C263 C259 1.460 . S
C263 C262 1.477 . S
C263 H283 0.930 . S
C264 N260 1.362 . S
C264 C261 1.431 . S
C264 C274 1.476 . S
H265 C259 0.929 . S
C266 O257 1.250 1_655 S
C266 O258 1.258 . S
O267 Mn252 2.162 . S
O267 C255 1.281 . S
O268 Mn252 2.297 . S
O268 C255 1.236 . S
N269 Mn253 2.282 . S
N269 C270 1.328 . S
N269 C274 1.318 . S
C270 N269 1.328 . S
C270 C271 1.457 . S
C270 H275 0.929 . S
C271 C270 1.457 . S
C271 C272 1.291 . S
C271 H284 0.931 . S
C272 C271 1.291 . S
C272 C273 1.373 . S
C272 H285 0.929 . S
C273 C272 1.373 . S
C273 C274 1.396 . S
C273 C280 1.403 . S
C274 C264 1.476 . S
C274 N269 1.318 . S
C274 C273 1.396 . S
H275 C270 0.929 . S
O276 Mn252 2.385 . S
O276 C254 1.234 1_455 S
O277 Mn252 2.209 1_655 S
O277 Mn253 2.215 . S
O277 C254 1.283 . S
O278 Mn252 2.094 . S
O278 C256 1.240 . S
O279 Mn253 2.117 1_455 S
O279 C256 1.264 . S
C280 C273 1.403 . S
C280 C281 1.399 . S
C280 H286 0.929 . S
C281 C261 1.449 . S
C281 C280 1.399 . S
C281 H287 0.930 . S
H282 C262 0.931 . S
H283 C263 0.930 . S
H284 C271 0.931 . S
H285 C272 0.929 . S
H286 C280 0.929 . S
H287 C281 0.930 . S
Mn288 O293 2.107 . S
Mn288 O303 2.173 . S
Mn288 O304 2.313 . S
Mn288 O312 2.370 1_565 S
Mn288 O313 2.199 1_565 S
Mn288 O314 2.081 1_565 S
Mn289 O294 2.121 1_545 S
Mn289 N296 2.257 . S
Mn289 N305 2.282 . S
Mn289 O313 2.215 . S
Mn289 O315 2.117 . S
C290 O312 1.234 . S
C290 O313 1.283 . S
C291 O303 1.281 . S
C291 O304 1.236 . S
C292 O314 1.240 . S
C292 O315 1.264 . S
O293 Mn288 2.107 . S
O293 C302 1.250 . S
O294 Mn289 2.121 1_565 S
O294 C302 1.258 . S
C295 N296 1.326 . S
C295 C299 1.460 . S
C295 H301 0.960 . S
N296 Mn289 2.257 . S
N296 C295 1.326 . S
N296 C300 1.362 . S
C297 C298 1.258 . S
C297 C300 1.431 . S
C297 C317 1.449 . S
C298 C297 1.258 . S
C298 C299 1.477 . S
C298 H318 0.931 . S
C299 C295 1.460 . S
C299 C298 1.477 . S
C299 H319 0.930 . S
C300 N296 1.362 . S
C300 C297 1.431 . S
C300 C310 1.476 . S
H301 C295 0.960 . S
C302 O293 1.250 . S
C302 O294 1.258 . S
O303 Mn288 2.173 . S
O303 C291 1.281 . S
O304 Mn288 2.313 . S
O304 C291 1.236 . S
N305 Mn289 2.282 . S
N305 C306 1.328 . S
N305 C310 1.318 . S
C306 N305 1.328 . S
C306 C307 1.457 . S
C306 H311 0.929 . S
C307 C306 1.457 . S
C307 C308 1.291 . S
C307 H320 0.931 . S
C308 C307 1.291 . S
C308 C309 1.373 . S
C308 H321 0.929 . S
C309 C308 1.373 . S
C309 C310 1.396 . S
C309 C316 1.403 . S
C310 C300 1.476 . S
C310 N305 1.318 . S
C310 C309 1.396 . S
H311 C306 0.929 . S
O312 Mn288 2.370 1_545 S
O312 C290 1.234 . S
O313 Mn288 2.199 1_545 S
O313 Mn289 2.215 . S
O313 C290 1.283 . S
O314 Mn288 2.081 1_545 S
O314 C292 1.240 . S
O315 Mn289 2.117 . S
O315 C292 1.264 . S
C316 C309 1.403 . S
C316 C317 1.399 . S
C316 H322 0.929 . S
C317 C297 1.449 . S
C317 C316 1.399 . S
C317 H323 0.930 . S
H318 C298 0.931 . S
H319 C299 0.930 . S
H320 C307 0.931 . S
H321 C308 0.929 . S
H322 C316 0.929 . S
H323 C317 0.930 . S
Mn324 O329 2.095 . S
Mn324 O339 2.162 . S
Mn324 O340 2.297 . S
Mn324 O348 2.385 . S
Mn324 O349 2.209 . S
Mn324 O350 2.094 . S
Mn325 O330 2.121 . S
Mn325 N332 2.257 . S
Mn325 N341 2.282 . S
Mn325 O349 2.215 . S
Mn325 O351 2.117 . S
C326 O348 1.234 . S
C326 O349 1.283 . S
C327 O339 1.281 . S
C327 O340 1.236 . S
C328 O350 1.240 . S
C328 O351 1.264 . S
O329 Mn324 2.095 . S
O329 C338 1.250 . S
O330 Mn325 2.121 . S
O330 C338 1.258 . S
C331 N332 1.326 . S
C331 C335 1.460 . S
C331 H337 0.929 . S
N332 Mn325 2.257 . S
N332 C331 1.326 . S
N332 C336 1.362 . S
C333 C334 1.258 . S
C333 C336 1.431 . S
C333 C353 1.449 . S
C334 C333 1.258 . S
C334 C335 1.477 . S
C334 H354 0.931 . S
C335 C331 1.460 . S
C335 C334 1.477 . S
C335 H355 0.930 . S
C336 N332 1.362 . S
C336 C333 1.431 . S
C336 C346 1.476 . S
H337 C331 0.929 . S
C338 O329 1.250 . S
C338 O330 1.258 . S
O339 Mn324 2.162 . S
O339 C327 1.281 . S
O340 Mn324 2.297 . S
O340 C327 1.236 . S
N341 Mn325 2.282 . S
N341 C342 1.328 . S
N341 C346 1.318 . S
C342 N341 1.328 . S
C342 C343 1.457 . S
C342 H347 0.929 . S
C343 C342 1.457 . S
C343 C344 1.291 . S
C343 H356 0.931 . S
C344 C343 1.291 . S
C344 C345 1.373 . S
C344 H357 0.929 . S
C345 C344 1.373 . S
C345 C346 1.396 . S
C345 C352 1.403 . S
C346 C336 1.476 . S
C346 N341 1.318 . S
C346 C345 1.396 . S
H347 C342 0.929 . S
O348 Mn324 2.385 . S
O348 C326 1.234 . S
O349 Mn324 2.209 . S
O349 Mn325 2.215 . S
O349 C326 1.283 . S
O350 Mn324 2.094 . S
O350 C328 1.240 . S
O351 Mn325 2.117 . S
O351 C328 1.264 . S
C352 C345 1.403 . S
C352 C353 1.399 . S
C352 H358 0.929 . S
C353 C333 1.449 . S
C353 C352 1.399 . S
C353 H359 0.930 . S
H354 C334 0.931 . S
H355 C335 0.930 . S
H356 C343 0.931 . S
H357 C344 0.929 . S
H358 C352 0.929 . S
H359 C353 0.930 . S
Mn360 O365 2.096 1_545 S
Mn360 O375 2.162 1_545 S
Mn360 O376 2.298 1_545 S
Mn360 O384 2.384 . S
Mn360 O385 2.208 . S
Mn360 O386 2.093 . S
Mn361 O366 2.121 1_545 S
Mn361 N368 2.257 . S
Mn361 N377 2.282 . S
Mn361 O385 2.215 . S
Mn361 O387 2.117 . S
C362 O384 1.234 . S
C362 O385 1.283 . S
C363 O375 1.281 . S
C363 O376 1.236 . S
C364 O386 1.240 . S
C364 O387 1.264 . S
O365 Mn360 2.096 1_565 S
O365 C374 1.250 . S
O366 Mn361 2.121 1_565 S
O366 C374 1.258 . S
C367 N368 1.326 . S
C367 C371 1.460 . S
C367 H373 0.954 . S
N368 Mn361 2.257 . S
N368 C367 1.326 . S
N368 C372 1.362 . S
C369 C370 1.258 . S
C369 C372 1.431 . S
C369 C389 1.449 . S
C370 C369 1.258 . S
C370 C371 1.477 . S
C370 H390 0.931 . S
C371 C367 1.460 . S
C371 C370 1.477 . S
C371 H391 0.930 . S
C372 N368 1.362 . S
C372 C369 1.431 . S
C372 C382 1.476 . S
H373 C367 0.954 . S
C374 O365 1.250 . S
C374 O366 1.258 . S
O375 Mn360 2.162 1_565 S
O375 C363 1.281 . S
O376 Mn360 2.298 1_565 S
O376 C363 1.236 . S
N377 Mn361 2.282 . S
N377 C378 1.328 . S
N377 C382 1.318 . S
C378 N377 1.328 . S
C378 C379 1.457 . S
C378 H383 0.929 . S
C379 C378 1.457 . S
C379 C380 1.291 . S
C379 H392 0.931 . S
C380 C379 1.291 . S
C380 C381 1.373 . S
C380 H393 0.929 . S
C381 C380 1.373 . S
C381 C382 1.396 . S
C381 C388 1.403 . S
C382 C372 1.476 . S
C382 N377 1.318 . S
C382 C381 1.396 . S
H383 C378 0.929 . S
O384 Mn360 2.384 . S
O384 C362 1.234 . S
O385 Mn360 2.208 . S
O385 Mn361 2.215 . S
O385 C362 1.283 . S
O386 Mn360 2.093 . S
O386 C364 1.240 . S
O387 Mn361 2.117 . S
O387 C364 1.264 . S
C388 C381 1.403 . S
C388 C389 1.399 . S
C388 H394 0.929 . S
C389 C369 1.449 . S
C389 C388 1.399 . S
C389 H395 0.930 . S
H390 C370 0.931 . S
H391 C371 0.930 . S
H392 C379 0.931 . S
H393 C380 0.929 . S
H394 C388 0.929 . S
H395 C389 0.930 . S
Mn396 O401 2.095 . S
Mn396 O411 2.162 . S
Mn396 O412 2.297 . S
Mn396 O420 2.385 . S
Mn396 O421 2.209 1_554 S
Mn396 O422 2.094 . S
Mn397 O402 2.121 . S
Mn397 N404 2.257 . S
Mn397 N413 2.282 . S
Mn397 O421 2.215 . S
Mn397 O423 2.117 1_556 S
C398 O420 1.234 1_556 S
C398 O421 1.283 . S
C399 O411 1.281 . S
C399 O412 1.236 . S
C400 O422 1.240 . S
C400 O423 1.264 . S
O401 Mn396 2.095 . S
O401 C410 1.250 1_554 S
O402 Mn397 2.121 . S
O402 C410 1.258 . S
C403 N404 1.326 . S
C403 C407 1.460 . S
C403 H409 0.929 . S
N404 Mn397 2.257 . S
N404 C403 1.326 . S
N404 C408 1.362 . S
C405 C406 1.258 . S
C405 C408 1.431 . S
C405 C425 1.449 . S
C406 C405 1.258 . S
C406 C407 1.477 . S
C406 H426 0.931 . S
C407 C403 1.460 . S
C407 C406 1.477 . S
C407 H427 0.930 . S
C408 N404 1.362 . S
C408 C405 1.431 . S
C408 C418 1.476 . S
H409 C403 0.929 . S
C410 O401 1.250 1_556 S
C410 O402 1.258 . S
O411 Mn396 2.162 . S
O411 C399 1.281 . S
O412 Mn396 2.297 . S
O412 C399 1.236 . S
N413 Mn397 2.282 . S
N413 C414 1.328 . S
N413 C418 1.318 . S
C414 N413 1.328 . S
C414 C415 1.457 . S
C414 H419 0.929 . S
C415 C414 1.457 . S
C415 C416 1.291 . S
C415 H428 0.931 . S
C416 C415 1.291 . S
C416 C417 1.373 . S
C416 H429 0.929 . S
C417 C416 1.373 . S
C417 C418 1.396 . S
C417 C424 1.403 . S
C418 C408 1.476 . S
C418 N413 1.318 . S
C418 C417 1.396 . S
H419 C414 0.929 . S
O420 Mn396 2.385 . S
O420 C398 1.234 1_554 S
O421 Mn396 2.209 1_556 S
O421 Mn397 2.215 . S
O421 C398 1.283 . S
O422 Mn396 2.094 . S
O422 C400 1.240 . S
O423 Mn397 2.117 1_554 S
O423 C400 1.264 . S
C424 C417 1.403 . S
C424 C425 1.399 . S
C424 H430 0.929 . S
C425 C405 1.449 . S
C425 C424 1.399 . S
C425 H431 0.930 . S
H426 C406 0.931 . S
H427 C407 0.930 . S
H428 C415 0.931 . S
H429 C416 0.929 . S
H430 C424 0.929 . S
H431 C425 0.930 . S
Mn432 O437 2.095 1_554 S
Mn432 O447 2.162 1_554 S
Mn432 O448 2.297 1_554 S
Mn432 O456 2.385 . S
Mn432 O457 2.209 . S
Mn432 O458 2.094 . S
Mn433 O438 2.121 1_554 S
Mn433 N440 2.257 . S
Mn433 N449 2.282 . S
Mn433 O457 2.215 . S
Mn433 O459 2.117 . S
C434 O456 1.234 . S
C434 O457 1.283 . S
C435 O447 1.281 . S
C435 O448 1.236 . S
C436 O458 1.240 . S
C436 O459 1.264 . S
O437 Mn432 2.095 1_556 S
O437 C446 1.250 . S
O438 Mn433 2.121 1_556 S
O438 C446 1.258 . S
C439 N440 1.326 . S
C439 C443 1.460 . S
C439 H445 0.929 . S
N440 Mn433 2.257 . S
N440 C439 1.326 . S
N440 C444 1.362 . S
C441 C442 1.258 . S
C441 C444 1.431 . S
C441 C461 1.449 . S
C442 C441 1.258 . S
C442 C443 1.477 . S
C442 H462 0.931 . S
C443 C439 1.460 . S
C443 C442 1.477 . S
C443 H463 0.930 . S
C444 N440 1.362 . S
C444 C441 1.431 . S
C444 C454 1.476 . S
H445 C439 0.929 . S
C446 O437 1.250 . S
C446 O438 1.258 . S
O447 Mn432 2.162 1_556 S
O447 C435 1.281 . S
O448 Mn432 2.297 1_556 S
O448 C435 1.236 . S
N449 Mn433 2.282 . S
N449 C450 1.328 . S
N449 C454 1.318 . S
C450 N449 1.328 . S
C450 C451 1.457 . S
C450 H455 0.929 . S
C451 C450 1.457 . S
C451 C452 1.291 . S
C451 H464 0.931 . S
C452 C451 1.291 . S
C452 C453 1.373 . S
C452 H465 0.929 . S
C453 C452 1.373 . S
C453 C454 1.396 . S
C453 C460 1.403 . S
C454 C444 1.476 . S
C454 N449 1.318 . S
C454 C453 1.396 . S
H455 C450 0.929 . S
O456 Mn432 2.385 . S
O456 C434 1.234 . S
O457 Mn432 2.209 . S
O457 Mn433 2.215 . S
O457 C434 1.283 . S
O458 Mn432 2.094 . S
O458 C436 1.240 . S
O459 Mn433 2.117 . S
O459 C436 1.264 . S
C460 C453 1.403 . S
C460 C461 1.399 . S
C460 H466 0.929 . S
C461 C441 1.449 . S
C461 C460 1.399 . S
C461 H467 0.930 . S
H462 C442 0.931 . S
H463 C443 0.930 . S
H464 C451 0.931 . S
H465 C452 0.929 . S
H466 C460 0.929 . S
H467 C461 0.930 . S
Mn468 O473 2.095 . S
Mn468 O483 2.162 . S
Mn468 O484 2.297 . S
Mn468 O492 2.385 1_556 S
Mn468 O493 2.209 1_556 S
Mn468 O494 2.094 1_556 S
Mn469 O474 2.121 1_554 S
Mn469 N476 2.257 . S
Mn469 N485 2.282 . S
Mn469 O493 2.215 . S
Mn469 O495 2.117 . S
C470 O492 1.234 . S
C470 O493 1.283 . S
C471 O483 1.281 . S
C471 O484 1.236 . S
C472 O494 1.240 . S
C472 O495 1.264 . S
O473 Mn468 2.095 . S
O473 C482 1.250 . S
O474 Mn469 2.121 1_556 S
O474 C482 1.258 . S
C475 N476 1.326 . S
C475 C479 1.460 . S
C475 H481 0.911 1_554 S
N476 Mn469 2.257 . S
N476 C475 1.326 . S
N476 C480 1.362 . S
C477 C478 1.258 . S
C477 C480 1.431 . S
C477 C497 1.449 . S
C478 C477 1.258 . S
C478 C479 1.477 . S
C478 H498 0.931 . S
C479 C475 1.460 . S
C479 C478 1.477 . S
C479 H499 0.930 . S
C480 N476 1.362 . S
C480 C477 1.431 . S
C480 C490 1.476 . S
H481 C475 0.911 1_556 S
C482 O473 1.250 . S
C482 O474 1.258 . S
O483 Mn468 2.162 . S
O483 C471 1.281 . S
O484 Mn468 2.297 . S
O484 C471 1.236 . S
N485 Mn469 2.282 . S
N485 C486 1.328 . S
N485 C490 1.318 . S
C486 N485 1.328 . S
C486 C487 1.457 . S
C486 H491 0.929 . S
C487 C486 1.457 . S
C487 C488 1.291 . S
C487 H500 0.931 . S
C488 C487 1.291 . S
C488 C489 1.373 . S
C488 H501 0.929 . S
C489 C488 1.373 . S
C489 C490 1.396 . S
C489 C496 1.403 . S
C490 C480 1.476 . S
C490 N485 1.318 . S
C490 C489 1.396 . S
H491 C486 0.929 . S
O492 Mn468 2.385 1_554 S
O492 C470 1.234 . S
O493 Mn468 2.209 1_554 S
O493 Mn469 2.215 . S
O493 C470 1.283 . S
O494 Mn468 2.094 1_554 S
O494 C472 1.240 . S
O495 Mn469 2.117 . S
O495 C472 1.264 . S
C496 C489 1.403 . S
C496 C497 1.399 . S
C496 H502 0.929 . S
C497 C477 1.449 . S
C497 C496 1.399 . S
C497 H503 0.930 . S
H498 C478 0.931 . S
H499 C479 0.930 . S
H500 C487 0.931 . S
H501 C488 0.929 . S
H502 C496 0.929 . S
H503 C497 0.930 . S
Mn504 O509 2.095 . S
Mn504 O519 2.162 . S
Mn504 O520 2.297 . S
Mn504 O528 2.385 . S
Mn504 O529 2.209 . S
Mn504 O530 2.094 . S
Mn505 O510 2.121 . S
Mn505 N512 2.257 . S
Mn505 N521 2.282 . S
Mn505 O529 2.215 . S
Mn505 O531 2.117 . S
C506 O528 1.234 . S
C506 O529 1.283 . S
C507 O519 1.281 . S
C507 O520 1.236 . S
C508 O530 1.240 . S
C508 O531 1.264 . S
O509 Mn504 2.095 . S
O509 C518 1.250 . S
O510 Mn505 2.121 . S
O510 C518 1.258 . S
C511 N512 1.326 . S
C511 C515 1.460 . S
C511 H517 0.929 . S
N512 Mn505 2.257 . S
N512 C511 1.326 . S
N512 C516 1.362 . S
C513 C514 1.258 . S
C513 C516 1.431 . S
C513 C533 1.449 . S
C514 C513 1.258 . S
C514 C515 1.477 . S
C514 H534 0.931 . S
C515 C511 1.460 . S
C515 C514 1.477 . S
C515 H535 0.930 . S
C516 N512 1.362 . S
C516 C513 1.431 . S
C516 C526 1.476 . S
H517 C511 0.929 . S
C518 O509 1.250 . S
C518 O510 1.258 . S
O519 Mn504 2.162 . S
O519 C507 1.281 . S
O520 Mn504 2.297 . S
O520 C507 1.236 . S
N521 Mn505 2.282 . S
N521 C522 1.328 . S
N521 C526 1.318 . S
C522 N521 1.328 . S
C522 C523 1.457 . S
C522 H527 0.929 . S
C523 C522 1.457 . S
C523 C524 1.291 . S
C523 H536 0.931 . S
C524 C523 1.291 . S
C524 C525 1.373 . S
C524 H537 0.929 . S
C525 C524 1.373 . S
C525 C526 1.396 . S
C525 C532 1.403 . S
C526 C516 1.476 . S
C526 N521 1.318 . S
C526 C525 1.396 . S
H527 C522 0.929 . S
O528 Mn504 2.385 . S
O528 C506 1.234 . S
O529 Mn504 2.209 . S
O529 Mn505 2.215 . S
O529 C506 1.283 . S
O530 Mn504 2.094 . S
O530 C508 1.240 . S
O531 Mn505 2.117 . S
O531 C508 1.264 . S
C532 C525 1.403 . S
C532 C533 1.399 . S
C532 H538 0.929 . S
C533 C513 1.449 . S
C533 C532 1.399 . S
C533 H539 0.930 . S
H534 C514 0.931 . S
H535 C515 0.930 . S
H536 C523 0.931 . S
H537 C524 0.929 . S
H538 C532 0.929 . S
H539 C533 0.930 . S
Mn540 O545 2.095 . S
Mn540 O555 2.162 . S
Mn540 O556 2.297 . S
Mn540 O564 2.385 . S
Mn540 O565 2.209 . S
Mn540 O566 2.094 . S
Mn541 O546 2.121 . S
Mn541 N548 2.257 . S
Mn541 N557 2.282 . S
Mn541 O565 2.215 . S
Mn541 O567 2.117 . S
C542 O564 1.234 . S
C542 O565 1.283 . S
C543 O555 1.281 . S
C543 O556 1.236 . S
C544 O566 1.240 . S
C544 O567 1.264 . S
O545 Mn540 2.095 . S
O545 C554 1.250 . S
O546 Mn541 2.121 . S
O546 C554 1.258 . S
C547 N548 1.326 . S
C547 C551 1.460 . S
C547 H553 0.929 . S
N548 Mn541 2.257 . S
N548 C547 1.326 . S
N548 C552 1.362 . S
C549 C550 1.258 . S
C549 C552 1.431 . S
C549 C569 1.449 . S
C550 C549 1.258 . S
C550 C551 1.477 . S
C550 H570 0.931 . S
C551 C547 1.460 . S
C551 C550 1.477 . S
C551 H571 0.930 . S
C552 N548 1.362 . S
C552 C549 1.431 . S
C552 C562 1.476 . S
H553 C547 0.929 . S
C554 O545 1.250 . S
C554 O546 1.258 . S
O555 Mn540 2.162 . S
O555 C543 1.281 . S
O556 Mn540 2.297 . S
O556 C543 1.236 . S
N557 Mn541 2.282 . S
N557 C558 1.328 . S
N557 C562 1.318 . S
C558 N557 1.328 . S
C558 C559 1.457 . S
C558 H563 0.929 . S
C559 C558 1.457 . S
C559 C560 1.291 . S
C559 H572 0.931 . S
C560 C559 1.291 . S
C560 C561 1.373 . S
C560 H573 0.929 . S
C561 C560 1.373 . S
C561 C562 1.396 . S
C561 C568 1.403 . S
C562 C552 1.476 . S
C562 N557 1.318 . S
C562 C561 1.396 . S
H563 C558 0.929 . S
O564 Mn540 2.385 . S
O564 C542 1.234 . S
O565 Mn540 2.209 . S
O565 Mn541 2.215 . S
O565 C542 1.283 . S
O566 Mn540 2.094 . S
O566 C544 1.240 . S
O567 Mn541 2.117 . S
O567 C544 1.264 . S
C568 C561 1.403 . S
C568 C569 1.399 . S
C568 H574 0.929 . S
C569 C549 1.449 . S
C569 C568 1.399 . S
C569 H575 0.930 . S
H570 C550 0.931 . S
H571 C551 0.930 . S
H572 C559 0.931 . S
H573 C560 0.929 . S
H574 C568 0.929 . S
H575 C569 0.930 . S
Mn576 O581 2.095 . S
Mn576 O591 2.162 . S
Mn576 O592 2.297 . S
Mn576 O600 2.385 . S
Mn576 O601 2.209 1_545 S
Mn576 O602 2.094 . S
Mn577 O582 2.121 . S
Mn577 N584 2.257 . S
Mn577 N593 2.282 . S
Mn577 O601 2.215 . S
Mn577 O603 2.117 1_565 S
C578 O600 1.234 1_565 S
C578 O601 1.283 . S
C579 O591 1.281 . S
C579 O592 1.236 . S
C580 O602 1.240 . S
C580 O603 1.264 . S
O581 Mn576 2.095 . S
O581 C590 1.250 1_545 S
O582 Mn577 2.121 . S
O582 C590 1.258 . S
C583 N584 1.326 . S
C583 C587 1.460 . S
C583 H589 0.929 . S
N584 Mn577 2.257 . S
N584 C583 1.326 . S
N584 C588 1.362 . S
C585 C586 1.258 . S
C585 C588 1.431 . S
C585 C605 1.449 . S
C586 C585 1.258 . S
C586 C587 1.477 . S
C586 H606 0.931 . S
C587 C583 1.460 . S
C587 C586 1.477 . S
C587 H607 0.930 . S
C588 N584 1.362 . S
C588 C585 1.431 . S
C588 C598 1.476 . S
H589 C583 0.929 . S
C590 O581 1.250 1_565 S
C590 O582 1.258 . S
O591 Mn576 2.162 . S
O591 C579 1.281 . S
O592 Mn576 2.297 . S
O592 C579 1.236 . S
N593 Mn577 2.282 . S
N593 C594 1.328 . S
N593 C598 1.318 . S
C594 N593 1.328 . S
C594 C595 1.457 . S
C594 H599 0.902 1_565 S
C595 C594 1.457 . S
C595 C596 1.291 . S
C595 H608 0.931 . S
C596 C595 1.291 . S
C596 C597 1.373 . S
C596 H609 0.929 . S
C597 C596 1.373 . S
C597 C598 1.396 . S
C597 C604 1.403 . S
C598 C588 1.476 . S
C598 N593 1.318 . S
C598 C597 1.396 . S
H599 C594 0.902 1_545 S
O600 Mn576 2.385 . S
O600 C578 1.234 1_545 S
O601 Mn576 2.209 1_565 S
O601 Mn577 2.215 . S
O601 C578 1.283 . S
O602 Mn576 2.094 . S
O602 C580 1.240 . S
O603 Mn577 2.117 1_545 S
O603 C580 1.264 . S
C604 C597 1.403 . S
C604 C605 1.399 . S
C604 H610 0.929 . S
C605 C585 1.449 . S
C605 C604 1.399 . S
C605 H611 0.930 . S
H606 C586 0.931 . S
H607 C587 0.930 . S
H608 C595 0.931 . S
H609 C596 0.929 . S
H610 C604 0.929 . S
H611 C605 0.930 . S
Mn612 O617 2.095 . S
Mn612 O627 2.162 . S
Mn612 O628 2.297 . S
Mn612 O636 2.385 . S
Mn612 O637 2.209 . S
Mn612 O638 2.094 . S
Mn613 O618 2.121 . S
Mn613 N620 2.257 . S
Mn613 N629 2.282 . S
Mn613 O637 2.215 . S
Mn613 O639 2.117 . S
C614 O636 1.234 . S
C614 O637 1.283 . S
C615 O627 1.281 . S
C615 O628 1.236 . S
C616 O638 1.240 . S
C616 O639 1.264 . S
O617 Mn612 2.095 . S
O617 C626 1.250 . S
O618 Mn613 2.121 . S
O618 C626 1.258 . S
C619 N620 1.326 . S
C619 C623 1.460 . S
C619 H625 0.929 . S
N620 Mn613 2.257 . S
N620 C619 1.326 . S
N620 C624 1.362 . S
C621 C622 1.258 . S
C621 C624 1.431 . S
C621 C641 1.449 . S
C622 C621 1.258 . S
C622 C623 1.477 . S
C622 H642 0.931 . S
C623 C619 1.460 . S
C623 C622 1.477 . S
C623 H643 0.930 . S
C624 N620 1.362 . S
C624 C621 1.431 . S
C624 C634 1.476 . S
H625 C619 0.929 . S
C626 O617 1.250 . S
C626 O618 1.258 . S
O627 Mn612 2.162 . S
O627 C615 1.281 . S
O628 Mn612 2.297 . S
O628 C615 1.236 . S
N629 Mn613 2.282 . S
N629 C630 1.328 . S
N629 C634 1.318 . S
C630 N629 1.328 . S
C630 C631 1.457 . S
C630 H635 0.929 . S
C631 C630 1.457 . S
C631 C632 1.291 . S
C631 H644 0.931 . S
C632 C631 1.291 . S
C632 C633 1.373 . S
C632 H645 0.929 . S
C633 C632 1.373 . S
C633 C634 1.396 . S
C633 C640 1.403 . S
C634 C624 1.476 . S
C634 N629 1.318 . S
C634 C633 1.396 . S
H635 C630 0.929 . S
O636 Mn612 2.385 . S
O636 C614 1.234 . S
O637 Mn612 2.209 . S
O637 Mn613 2.215 . S
O637 C614 1.283 . S
O638 Mn612 2.094 . S
O638 C616 1.240 . S
O639 Mn613 2.117 . S
O639 C616 1.264 . S
C640 C633 1.403 . S
C640 C641 1.399 . S
C640 H646 0.929 . S
C641 C621 1.449 . S
C641 C640 1.399 . S
C641 H647 0.930 . S
H642 C622 0.931 . S
H643 C623 0.930 . S
H644 C631 0.931 . S
H645 C632 0.929 . S
H646 C640 0.929 . S
H647 C641 0.930 . S
Mn648 O653 2.095 . S
Mn648 O663 2.162 . S
Mn648 O664 2.297 . S
Mn648 O672 2.385 . S
Mn648 O673 2.209 . S
Mn648 O674 2.094 . S
Mn649 O654 2.121 . S
Mn649 N656 2.257 . S
Mn649 N665 2.282 . S
Mn649 O673 2.215 . S
Mn649 O675 2.117 . S
C650 O672 1.234 . S
C650 O673 1.283 . S
C651 O663 1.281 . S
C651 O664 1.236 . S
C652 O674 1.240 . S
C652 O675 1.264 . S
O653 Mn648 2.095 . S
O653 C662 1.250 . S
O654 Mn649 2.121 . S
O654 C662 1.258 . S
C655 N656 1.326 . S
C655 C659 1.460 . S
C655 H661 0.929 . S
N656 Mn649 2.257 . S
N656 C655 1.326 . S
N656 C660 1.362 . S
C657 C658 1.258 . S
C657 C660 1.431 . S
C657 C677 1.449 . S
C658 C657 1.258 . S
C658 C659 1.477 . S
C658 H678 0.931 . S
C659 C655 1.460 . S
C659 C658 1.477 . S
C659 H679 0.930 . S
C660 N656 1.362 . S
C660 C657 1.431 . S
C660 C670 1.476 . S
H661 C655 0.929 . S
C662 O653 1.250 . S
C662 O654 1.258 . S
O663 Mn648 2.162 . S
O663 C651 1.281 . S
O664 Mn648 2.297 . S
O664 C651 1.236 . S
N665 Mn649 2.282 . S
N665 C666 1.328 . S
N665 C670 1.318 . S
C666 N665 1.328 . S
C666 C667 1.457 . S
C666 H671 0.929 . S
C667 C666 1.457 . S
C667 C668 1.291 . S
C667 H680 0.931 . S
C668 C667 1.291 . S
C668 C669 1.373 . S
C668 H681 0.929 . S
C669 C668 1.373 . S
C669 C670 1.396 . S
C669 C676 1.403 . S
C670 C660 1.476 . S
C670 N665 1.318 . S
C670 C669 1.396 . S
H671 C666 0.929 . S
O672 Mn648 2.385 . S
O672 C650 1.234 . S
O673 Mn648 2.209 . S
O673 Mn649 2.215 . S
O673 C650 1.283 . S
O674 Mn648 2.094 . S
O674 C652 1.240 . S
O675 Mn649 2.117 . S
O675 C652 1.264 . S
C676 C669 1.403 . S
C676 C677 1.399 . S
C676 H682 0.929 . S
C677 C657 1.449 . S
C677 C676 1.399 . S
C677 H683 0.930 . S
H678 C658 0.931 . S
H679 C659 0.930 . S
H680 C667 0.931 . S
H681 C668 0.929 . S
H682 C676 0.929 . S
H683 C677 0.930 . S
Mn684 O689 2.100 . S
Mn684 O699 2.162 . S
Mn684 O700 2.297 . S
Mn684 O708 2.385 . S
Mn684 O709 2.209 1_545 S
Mn684 O710 2.094 . S
Mn685 O690 2.121 . S
Mn685 N692 2.257 . S
Mn685 N701 2.282 . S
Mn685 O709 2.215 . S
Mn685 O711 2.117 1_565 S
C686 O708 1.234 1_565 S
C686 O709 1.283 . S
C687 O699 1.281 . S
C687 O700 1.236 . S
C688 O710 1.240 . S
C688 O711 1.264 . S
O689 Mn684 2.100 . S
O689 C698 1.239 1_545 S
O690 Mn685 2.121 . S
O690 C698 1.258 . S
C691 N692 1.326 . S
C691 C695 1.460 . S
C691 H697 0.929 . S
N692 Mn685 2.257 . S
N692 C691 1.326 . S
N692 C696 1.362 . S
C693 C694 1.258 . S
C693 C696 1.431 . S
C693 C713 1.449 . S
C694 C693 1.258 . S
C694 C695 1.477 . S
C694 H714 0.931 . S
C695 C691 1.460 . S
C695 C694 1.477 . S
C695 H715 0.930 . S
C696 N692 1.362 . S
C696 C693 1.431 . S
C696 C706 1.476 . S
H697 C691 0.929 . S
C698 O689 1.239 1_565 S
C698 O690 1.258 . S
O699 Mn684 2.162 . S
O699 C687 1.281 . S
O700 Mn684 2.297 . S
O700 C687 1.236 . S
N701 Mn685 2.282 . S
N701 C702 1.328 . S
N701 C706 1.318 . S
C702 N701 1.328 . S
C702 C703 1.457 . S
C702 H707 0.929 . S
C703 C702 1.457 . S
C703 C704 1.291 . S
C703 H716 0.931 . S
C704 C703 1.291 . S
C704 C705 1.373 . S
C704 H717 0.929 . S
C705 C704 1.373 . S
C705 C706 1.396 . S
C705 C712 1.403 . S
C706 C696 1.476 . S
C706 N701 1.318 . S
C706 C705 1.396 . S
H707 C702 0.929 . S
O708 Mn684 2.385 . S
O708 C686 1.234 1_545 S
O709 Mn684 2.209 1_565 S
O709 Mn685 2.215 . S
O709 C686 1.283 . S
O710 Mn684 2.094 . S
O710 C688 1.240 . S
O711 Mn685 2.117 1_545 S
O711 C688 1.264 . S
C712 C705 1.403 . S
C712 C713 1.399 . S
C712 H718 0.929 . S
C713 C693 1.449 . S
C713 C712 1.399 . S
C713 H719 0.930 . S
H714 C694 0.931 . S
H715 C695 0.930 . S
H716 C703 0.931 . S
H717 C704 0.929 . S
H718 C712 0.929 . S
H719 C713 0.930 . S
Mn720 O725 2.095 . S
Mn720 O735 2.162 . S
Mn720 O736 2.297 . S
Mn720 O744 2.385 . S
Mn720 O745 2.209 1_554 S
Mn720 O746 2.094 . S
Mn721 O726 2.121 . S
Mn721 N728 2.257 . S
Mn721 N737 2.282 . S
Mn721 O745 2.215 . S
Mn721 O747 2.117 1_556 S
C722 O744 1.234 1_556 S
C722 O745 1.283 . S
C723 O735 1.281 . S
C723 O736 1.236 . S
C724 O746 1.240 . S
C724 O747 1.264 . S
O725 Mn720 2.095 . S
O725 C734 1.250 1_554 S
O726 Mn721 2.121 . S
O726 C734 1.258 . S
C727 N728 1.326 . S
C727 C731 1.460 . S
C727 H733 0.929 . S
N728 Mn721 2.257 . S
N728 C727 1.326 . S
N728 C732 1.362 . S
C729 C730 1.258 . S
C729 C732 1.431 . S
C729 C749 1.449 . S
C730 C729 1.258 . S
C730 C731 1.477 . S
C730 H750 0.931 . S
C731 C727 1.460 . S
C731 C730 1.477 . S
C731 H751 0.930 . S
C732 N728 1.362 . S
C732 C729 1.431 . S
C732 C742 1.476 . S
H733 C727 0.929 . S
C734 O725 1.250 1_556 S
C734 O726 1.258 . S
O735 Mn720 2.162 . S
O735 C723 1.281 . S
O736 Mn720 2.297 . S
O736 C723 1.236 . S
N737 Mn721 2.282 . S
N737 C738 1.328 . S
N737 C742 1.318 . S
C738 N737 1.328 . S
C738 C739 1.457 . S
C738 H743 0.929 . S
C739 C738 1.457 . S
C739 C740 1.291 . S
C739 H752 0.931 . S
C740 C739 1.291 . S
C740 C741 1.373 . S
C740 H753 0.929 . S
C741 C740 1.373 . S
C741 C742 1.396 . S
C741 C748 1.403 . S
C742 C732 1.476 . S
C742 N737 1.318 . S
C742 C741 1.396 . S
H743 C738 0.929 . S
O744 Mn720 2.385 . S
O744 C722 1.234 1_554 S
O745 Mn720 2.209 1_556 S
O745 Mn721 2.215 . S
O745 C722 1.283 . S
O746 Mn720 2.094 . S
O746 C724 1.240 . S
O747 Mn721 2.117 1_554 S
O747 C724 1.264 . S
C748 C741 1.403 . S
C748 C749 1.399 . S
C748 H754 0.929 . S
C749 C729 1.449 . S
C749 C748 1.399 . S
C749 H755 0.930 . S
H750 C730 0.931 . S
H751 C731 0.930 . S
H752 C739 0.931 . S
H753 C740 0.929 . S
H754 C748 0.929 . S
H755 C749 0.930 . S
Mn756 O761 2.095 . S
Mn756 O771 2.162 . S
Mn756 O772 2.297 . S
Mn756 O780 2.385 . S
Mn756 O781 2.209 . S
Mn756 O782 2.094 . S
Mn757 O762 2.121 . S
Mn757 N764 2.257 . S
Mn757 N773 2.282 . S
Mn757 O781 2.215 . S
Mn757 O783 2.117 . S
C758 O780 1.234 . S
C758 O781 1.283 . S
C759 O771 1.281 . S
C759 O772 1.236 . S
C760 O782 1.240 . S
C760 O783 1.264 . S
O761 Mn756 2.095 . S
O761 C770 1.250 . S
O762 Mn757 2.121 . S
O762 C770 1.258 . S
C763 N764 1.326 . S
C763 C767 1.460 . S
C763 H769 0.929 . S
N764 Mn757 2.257 . S
N764 C763 1.326 . S
N764 C768 1.362 . S
C765 C766 1.258 . S
C765 C768 1.431 . S
C765 C785 1.449 . S
C766 C765 1.258 . S
C766 C767 1.477 . S
C766 H786 0.931 . S
C767 C763 1.460 . S
C767 C766 1.477 . S
C767 H787 0.930 . S
C768 N764 1.362 . S
C768 C765 1.431 . S
C768 C778 1.476 . S
H769 C763 0.929 . S
C770 O761 1.250 . S
C770 O762 1.258 . S
O771 Mn756 2.162 . S
O771 C759 1.281 . S
O772 Mn756 2.297 . S
O772 C759 1.236 . S
N773 Mn757 2.282 . S
N773 C774 1.328 . S
N773 C778 1.318 . S
C774 N773 1.328 . S
C774 C775 1.457 . S
C774 H779 0.929 . S
C775 C774 1.457 . S
C775 C776 1.291 . S
C775 H788 0.931 . S
C776 C775 1.291 . S
C776 C777 1.373 . S
C776 H789 0.929 . S
C777 C776 1.373 . S
C777 C778 1.396 . S
C777 C784 1.403 . S
C778 C768 1.476 . S
C778 N773 1.318 . S
C778 C777 1.396 . S
H779 C774 0.929 . S
O780 Mn756 2.385 . S
O780 C758 1.234 . S
O781 Mn756 2.209 . S
O781 Mn757 2.215 . S
O781 C758 1.283 . S
O782 Mn756 2.094 . S
O782 C760 1.240 . S
O783 Mn757 2.117 . S
O783 C760 1.264 . S
C784 C777 1.403 . S
C784 C785 1.399 . S
C784 H790 0.929 . S
C785 C765 1.449 . S
C785 C784 1.399 . S
C785 H791 0.930 . S
H786 C766 0.931 . S
H787 C767 0.930 . S
H788 C775 0.931 . S
H789 C776 0.929 . S
H790 C784 0.929 . S
H791 C785 0.930 . S
Mn792 O797 2.095 . S
Mn792 O807 2.162 . S
Mn792 O808 2.297 . S
Mn792 O816 2.385 . S
Mn792 O817 2.209 . S
Mn792 O818 2.094 . S
Mn793 O798 2.121 . S
Mn793 N800 2.257 . S
Mn793 N809 2.282 . S
Mn793 O817 2.215 . S
Mn793 O819 2.117 . S
C794 O816 1.234 . S
C794 O817 1.283 . S
C795 O807 1.281 . S
C795 O808 1.236 . S
C796 O818 1.240 . S
C796 O819 1.264 . S
O797 Mn792 2.095 . S
O797 C806 1.250 . S
O798 Mn793 2.121 . S
O798 C806 1.258 . S
C799 N800 1.326 . S
C799 C803 1.460 . S
C799 H805 0.929 . S
N800 Mn793 2.257 . S
N800 C799 1.326 . S
N800 C804 1.362 . S
C801 C802 1.258 . S
C801 C804 1.431 . S
C801 C821 1.449 . S
C802 C801 1.258 . S
C802 C803 1.477 . S
C802 H822 0.931 . S
C803 C799 1.460 . S
C803 C802 1.477 . S
C803 H823 0.930 . S
C804 N800 1.362 . S
C804 C801 1.431 . S
C804 C814 1.476 . S
H805 C799 0.929 . S
C806 O797 1.250 . S
C806 O798 1.258 . S
O807 Mn792 2.162 . S
O807 C795 1.281 . S
O808 Mn792 2.297 . S
O808 C795 1.236 . S
N809 Mn793 2.282 . S
N809 C810 1.328 . S
N809 C814 1.318 . S
C810 N809 1.328 . S
C810 C811 1.457 . S
C810 H815 0.929 . S
C811 C810 1.457 . S
C811 C812 1.291 . S
C811 H824 0.931 . S
C812 C811 1.291 . S
C812 C813 1.373 . S
C812 H825 0.929 . S
C813 C812 1.373 . S
C813 C814 1.396 . S
C813 C820 1.403 . S
C814 C804 1.476 . S
C814 N809 1.318 . S
C814 C813 1.396 . S
H815 C810 0.929 . S
O816 Mn792 2.385 . S
O816 C794 1.234 . S
O817 Mn792 2.209 . S
O817 Mn793 2.215 . S
O817 C794 1.283 . S
O818 Mn792 2.094 . S
O818 C796 1.240 . S
O819 Mn793 2.117 . S
O819 C796 1.264 . S
C820 C813 1.403 . S
C820 C821 1.399 . S
C820 H826 0.929 . S
C821 C801 1.449 . S
C821 C820 1.399 . S
C821 H827 0.930 . S
H822 C802 0.931 . S
H823 C803 0.930 . S
H824 C811 0.931 . S
H825 C812 0.929 . S
H826 C820 0.929 . S
H827 C821 0.930 . S
Mn828 O833 2.095 . S
Mn828 O843 2.162 . S
Mn828 O844 2.297 . S
Mn828 O852 2.385 . S
Mn828 O853 2.209 . S
Mn828 O854 2.094 . S
Mn829 O834 2.121 . S
Mn829 N836 2.257 . S
Mn829 N845 2.282 . S
Mn829 O853 2.215 . S
Mn829 O855 2.117 . S
C830 O852 1.234 . S
C830 O853 1.283 . S
C831 O843 1.281 . S
C831 O844 1.236 . S
C832 O854 1.240 . S
C832 O855 1.264 . S
O833 Mn828 2.095 . S
O833 C842 1.250 . S
O834 Mn829 2.121 . S
O834 C842 1.258 . S
C835 N836 1.326 . S
C835 C839 1.460 . S
C835 H841 0.929 . S
N836 Mn829 2.257 . S
N836 C835 1.326 . S
N836 C840 1.362 . S
C837 C838 1.258 . S
C837 C840 1.431 . S
C837 C857 1.449 . S
C838 C837 1.258 . S
C838 C839 1.477 . S
C838 H858 0.931 . S
C839 C835 1.460 . S
C839 C838 1.477 . S
C839 H859 0.930 . S
C840 N836 1.362 . S
C840 C837 1.431 . S
C840 C850 1.476 . S
H841 C835 0.929 . S
C842 O833 1.250 . S
C842 O834 1.258 . S
O843 Mn828 2.162 . S
O843 C831 1.281 . S
O844 Mn828 2.297 . S
O844 C831 1.236 . S
N845 Mn829 2.282 . S
N845 C846 1.328 . S
N845 C850 1.318 . S
C846 N845 1.328 . S
C846 C847 1.457 . S
C846 H851 0.929 . S
C847 C846 1.457 . S
C847 C848 1.291 . S
C847 H860 0.931 . S
C848 C847 1.291 . S
C848 C849 1.373 . S
C848 H861 0.929 . S
C849 C848 1.373 . S
C849 C850 1.396 . S
C849 C856 1.403 . S
C850 C840 1.476 . S
C850 N845 1.318 . S
C850 C849 1.396 . S
H851 C846 0.929 . S
O852 Mn828 2.385 . S
O852 C830 1.234 . S
O853 Mn828 2.209 . S
O853 Mn829 2.215 . S
O853 C830 1.283 . S
O854 Mn828 2.094 . S
O854 C832 1.240 . S
O855 Mn829 2.117 . S
O855 C832 1.264 . S
C856 C849 1.403 . S
C856 C857 1.399 . S
C856 H862 0.929 . S
C857 C837 1.449 . S
C857 C856 1.399 . S
C857 H863 0.930 . S
H858 C838 0.931 . S
H859 C839 0.930 . S
H860 C847 0.931 . S
H861 C848 0.929 . S
H862 C856 0.929 . S
H863 C857 0.930 . S
Fe864 O866 1.918 . S
Fe864 O869 1.997 . S
Fe864 O870 2.002 . S
Fe864 O875 1.976 . S
Fe864 O878 1.996 . S
Fe865 O866 1.918 . S
Fe865 O873 1.997 . S
Fe865 O876 1.996 . S
Fe865 O880 1.976 . S
Fe865 O883 2.002 . S
O866 Fe864 1.918 . S
O866 Fe865 1.918 . S
O866 Fe867 1.918 . S
Fe867 O866 1.918 . S
Fe867 O868 2.002 . S
Fe867 O877 1.976 . S
Fe867 O881 1.996 . S
Fe867 O884 1.997 . S
O868 Fe867 2.002 . S
O868 C885 1.295 . S
O869 Fe864 1.997 . S
O869 C885 1.235 . S
O870 Fe864 2.002 . S
O870 C871 1.295 . S
C871 O870 1.295 . S
C871 O873 1.235 . S
C872 O877 1.287 . S
C872 O878 1.255 . S
O873 Fe865 1.997 . S
O873 C871 1.235 . S
C874 O880 1.287 . S
C874 O881 1.255 . S
O875 Fe864 1.976 . S
O875 C882 1.287 . S
O876 Fe865 1.996 . S
O876 C882 1.255 . S
O877 Fe867 1.976 . S
O877 C872 1.287 . S
O878 Fe864 1.996 . S
O878 C872 1.255 . S
C879 O883 1.295 . S
C879 O884 1.235 . S
O880 Fe865 1.976 . S
O880 C874 1.287 . S
O881 Fe867 1.996 . S
O881 C874 1.255 . S
C882 O875 1.287 . S
C882 O876 1.255 . S
O883 Fe865 2.002 . S
O883 C879 1.295 . S
O884 Fe867 1.997 . S
O884 C879 1.235 . S
C885 O868 1.295 . S
C885 O869 1.235 . S
Fe886 O888 1.918 . S
Fe886 O891 1.997 . S
Fe886 O892 2.002 . S
Fe886 O897 1.976 . S
Fe886 O900 1.996 . S
Fe887 O888 1.918 . S
Fe887 O895 1.997 . S
Fe887 O898 1.996 . S
Fe887 O902 1.976 . S
Fe887 O905 2.002 . S
O888 Fe886 1.918 . S
O888 Fe887 1.918 . S
O888 Fe889 1.918 . S
Fe889 O888 1.918 . S
Fe889 O890 2.002 . S
Fe889 O899 1.976 . S
Fe889 O903 1.996 . S
Fe889 O906 1.997 . S
O890 Fe889 2.002 . S
O890 C907 1.295 . S
O891 Fe886 1.997 . S
O891 C907 1.235 . S
O892 Fe886 2.002 . S
O892 C893 1.295 . S
C893 O892 1.295 . S
C893 O895 1.235 . S
C894 O899 1.287 . S
C894 O900 1.255 . S
O895 Fe887 1.997 . S
O895 C893 1.235 . S
C896 O902 1.287 . S
C896 O903 1.255 . S
O897 Fe886 1.976 . S
O897 C904 1.287 . S
O898 Fe887 1.996 . S
O898 C904 1.255 . S
O899 Fe889 1.976 . S
O899 C894 1.287 . S
O900 Fe886 1.996 . S
O900 C894 1.255 . S
C901 O905 1.295 . S
C901 O906 1.235 . S
O902 Fe887 1.976 . S
O902 C896 1.287 . S
O903 Fe889 1.996 . S
O903 C896 1.255 . S
C904 O897 1.287 . S
C904 O898 1.255 . S
O905 Fe887 2.002 . S
O905 C901 1.295 . S
O906 Fe889 1.997 . S
O906 C901 1.235 . S
C907 O890 1.295 . S
C907 O891 1.235 . S
Fe908 O910 1.918 . S
Fe908 O913 1.997 . S
Fe908 O914 2.002 . S
Fe908 O919 1.976 . S
Fe908 O922 1.996 . S
Fe909 O910 1.918 . S
Fe909 O917 1.997 . S
Fe909 O920 1.996 . S
Fe909 O924 1.976 . S
Fe909 O927 2.002 . S
O910 Fe908 1.918 . S
O910 Fe909 1.918 . S
O910 Fe911 1.918 . S
Fe911 O910 1.918 . S
Fe911 O912 2.002 . S
Fe911 O921 1.976 . S
Fe911 O925 1.996 . S
Fe911 O928 1.997 . S
O912 Fe911 2.002 . S
O912 C929 1.295 . S
O913 Fe908 1.997 . S
O913 C929 1.235 . S
O914 Fe908 2.002 . S
O914 C915 1.295 . S
C915 O914 1.295 . S
C915 O917 1.235 . S
C916 O921 1.287 . S
C916 O922 1.255 . S
O917 Fe909 1.997 . S
O917 C915 1.235 . S
C918 O924 1.287 . S
C918 O925 1.255 . S
O919 Fe908 1.976 . S
O919 C926 1.287 . S
O920 Fe909 1.996 . S
O920 C926 1.255 . S
O921 Fe911 1.976 . S
O921 C916 1.287 . S
O922 Fe908 1.996 . S
O922 C916 1.255 . S
C923 O927 1.295 . S
C923 O928 1.235 . S
O924 Fe909 1.976 . S
O924 C918 1.287 . S
O925 Fe911 1.996 . S
O925 C918 1.255 . S
C926 O919 1.287 . S
C926 O920 1.255 . S
O927 Fe909 2.002 . S
O927 C923 1.295 . S
O928 Fe911 1.997 . S
O928 C923 1.235 . S
C929 O912 1.295 . S
C929 O913 1.235 . S
Fe930 O932 1.918 . S
Fe930 O935 1.997 . S
Fe930 O936 2.002 . S
Fe930 O941 1.976 . S
Fe930 O944 1.996 . S
Fe931 O932 1.918 . S
Fe931 O939 1.997 . S
Fe931 O942 1.996 . S
Fe931 O946 1.976 . S
Fe931 O949 2.002 . S
O932 Fe930 1.918 . S
O932 Fe931 1.918 . S
O932 Fe933 1.918 . S
Fe933 O932 1.918 . S
Fe933 O934 2.002 . S
Fe933 O943 1.976 . S
Fe933 O947 1.996 . S
Fe933 O950 1.997 . S
O934 Fe933 2.002 . S
O934 C951 1.295 . S
O935 Fe930 1.997 . S
O935 C951 1.235 . S
O936 Fe930 2.002 . S
O936 C937 1.295 . S
C937 O936 1.295 . S
C937 O939 1.235 . S
C938 O943 1.287 . S
C938 O944 1.255 . S
O939 Fe931 1.997 . S
O939 C937 1.235 . S
C940 O946 1.287 . S
C940 O947 1.255 . S
O941 Fe930 1.976 . S
O941 C948 1.287 . S
O942 Fe931 1.996 . S
O942 C948 1.255 . S
O943 Fe933 1.976 . S
O943 C938 1.287 . S
O944 Fe930 1.996 . S
O944 C938 1.255 . S
C945 O949 1.295 . S
C945 O950 1.235 . S
O946 Fe931 1.976 . S
O946 C940 1.287 . S
O947 Fe933 1.996 . S
O947 C940 1.255 . S
C948 O941 1.287 . S
C948 O942 1.255 . S
O949 Fe931 2.002 . S
O949 C945 1.295 . S
O950 Fe933 1.997 . S
O950 C945 1.235 . S
C951 O934 1.295 . S
C951 O935 1.235 . S
Fe952 O954 1.918 . S
Fe952 O957 1.997 . S
Fe952 O958 2.002 . S
Fe952 O963 1.976 . S
Fe952 O966 1.996 . S
Fe953 O954 1.918 . S
Fe953 O961 1.997 . S
Fe953 O964 1.996 . S
Fe953 O968 1.976 . S
Fe953 O971 2.002 . S
O954 Fe952 1.918 . S
O954 Fe953 1.918 . S
O954 Fe955 1.918 . S
Fe955 O954 1.918 . S
Fe955 O956 2.002 . S
Fe955 O965 1.976 . S
Fe955 O969 1.996 . S
Fe955 O972 1.997 . S
O956 Fe955 2.002 . S
O956 C973 1.295 . S
O957 Fe952 1.997 . S
O957 C973 1.235 . S
O958 Fe952 2.002 . S
O958 C959 1.295 . S
C959 O958 1.295 . S
C959 O961 1.235 . S
C960 O965 1.287 . S
C960 O966 1.255 . S
O961 Fe953 1.997 . S
O961 C959 1.235 . S
C962 O968 1.287 . S
C962 O969 1.255 . S
O963 Fe952 1.976 . S
O963 C970 1.287 . S
O964 Fe953 1.996 . S
O964 C970 1.255 . S
O965 Fe955 1.976 . S
O965 C960 1.287 . S
O966 Fe952 1.996 . S
O966 C960 1.255 . S
C967 O971 1.295 . S
C967 O972 1.235 . S
O968 Fe953 1.976 . S
O968 C962 1.287 . S
O969 Fe955 1.996 . S
O969 C962 1.255 . S
C970 O963 1.287 . S
C970 O964 1.255 . S
O971 Fe953 2.002 . S
O971 C967 1.295 . S
O972 Fe955 1.997 . S
O972 C967 1.235 . S
C973 O956 1.295 . S
C973 O957 1.235 . S
Fe974 O976 1.918 . S
Fe974 O979 1.997 . S
Fe974 O980 2.002 . S
Fe974 O985 1.976 . S
Fe974 O988 1.996 . S
Fe975 O976 1.918 . S
Fe975 O983 1.997 . S
Fe975 O986 1.996 . S
Fe975 O990 1.976 . S
Fe975 O993 2.002 . S
O976 Fe974 1.918 . S
O976 Fe975 1.918 . S
O976 Fe977 1.918 . S
Fe977 O976 1.918 . S
Fe977 O978 2.002 . S
Fe977 O987 1.976 . S
Fe977 O991 1.996 . S
Fe977 O994 1.997 . S
O978 Fe977 2.002 . S
O978 C995 1.295 . S
O979 Fe974 1.997 . S
O979 C995 1.235 . S
O980 Fe974 2.002 . S
O980 C981 1.295 . S
C981 O980 1.295 . S
C981 O983 1.235 . S
C982 O987 1.287 . S
C982 O988 1.255 . S
O983 Fe975 1.997 . S
O983 C981 1.235 . S
C984 O990 1.287 . S
C984 O991 1.255 . S
O985 Fe974 1.976 . S
O985 C992 1.287 . S
O986 Fe975 1.996 . S
O986 C992 1.255 . S
O987 Fe977 1.976 . S
O987 C982 1.287 . S
O988 Fe974 1.996 . S
O988 C982 1.255 . S
C989 O993 1.295 . S
C989 O994 1.235 . S
O990 Fe975 1.976 . S
O990 C984 1.287 . S
O991 Fe977 1.996 . S
O991 C984 1.255 . S
C992 O985 1.287 . S
C992 O986 1.255 . S
O993 Fe975 2.002 . S
O993 C989 1.295 . S
O994 Fe977 1.997 . S
O994 C989 1.235 . S
C995 O978 1.295 . S
C995 O979 1.235 . S
Fe996 O998 1.918 . S
Fe996 O1001 1.997 . S
Fe996 O1002 2.002 . S
Fe996 O1007 1.976 . S
Fe996 O1010 1.996 . S
Fe997 O998 1.918 . S
Fe997 O1005 1.997 . S
Fe997 O1008 1.996 . S
Fe997 O1012 1.976 . S
Fe997 O1015 2.002 . S
O998 Fe996 1.918 . S
O998 Fe997 1.918 . S
O998 Fe999 1.918 . S
Fe999 O998 1.918 . S
Fe999 O1000 2.002 . S
Fe999 O1009 1.976 . S
Fe999 O1013 1.996 . S
Fe999 O1016 1.997 . S
O1000 Fe999 2.002 . S
O1000 C1017 1.295 . S
O1001 Fe996 1.997 . S
O1001 C1017 1.235 . S
O1002 Fe996 2.002 . S
O1002 C1003 1.295 . S
C1003 O1002 1.295 . S
C1003 O1005 1.235 . S
C1004 O1009 1.287 . S
C1004 O1010 1.255 . S
O1005 Fe997 1.997 . S
O1005 C1003 1.235 . S
C1006 O1012 1.287 . S
C1006 O1013 1.255 . S
O1007 Fe996 1.976 . S
O1007 C1014 1.287 . S
O1008 Fe997 1.996 . S
O1008 C1014 1.255 . S
O1009 Fe999 1.976 . S
O1009 C1004 1.287 . S
O1010 Fe996 1.996 . S
O1010 C1004 1.255 . S
C1011 O1015 1.295 . S
C1011 O1016 1.235 . S
O1012 Fe997 1.976 . S
O1012 C1006 1.287 . S
O1013 Fe999 1.996 . S
O1013 C1006 1.255 . S
C1014 O1007 1.287 . S
C1014 O1008 1.255 . S
O1015 Fe997 2.002 . S
O1015 C1011 1.295 . S
O1016 Fe999 1.997 . S
O1016 C1011 1.235 . S
C1017 O1000 1.295 . S
C1017 O1001 1.235 . S
Fe1018 O1020 1.918 . S
Fe1018 O1023 1.997 . S
Fe1018 O1024 2.002 . S
Fe1018 O1029 1.976 . S
Fe1018 O1032 1.996 . S
Fe1019 O1020 1.918 . S
Fe1019 O1027 1.997 . S
Fe1019 O1030 1.996 . S
Fe1019 O1034 1.976 . S
Fe1019 O1037 2.002 . S
O1020 Fe1018 1.918 . S
O1020 Fe1019 1.918 . S
O1020 Fe1021 1.918 . S
Fe1021 O1020 1.918 . S
Fe1021 O1022 2.002 . S
Fe1021 O1031 1.976 . S
Fe1021 O1035 1.996 . S
Fe1021 O1038 1.997 . S
O1022 Fe1021 2.002 . S
O1022 C1039 1.295 . S
O1023 Fe1018 1.997 . S
O1023 C1039 1.235 . S
O1024 Fe1018 2.002 . S
O1024 C1025 1.295 . S
C1025 O1024 1.295 . S
C1025 O1027 1.235 . S
C1026 O1031 1.287 . S
C1026 O1032 1.255 . S
O1027 Fe1019 1.997 . S
O1027 C1025 1.235 . S
C1028 O1034 1.287 . S
C1028 O1035 1.255 . S
O1029 Fe1018 1.976 . S
O1029 C1036 1.287 . S
O1030 Fe1019 1.996 . S
O1030 C1036 1.255 . S
O1031 Fe1021 1.976 . S
O1031 C1026 1.287 . S
O1032 Fe1018 1.996 . S
O1032 C1026 1.255 . S
C1033 O1037 1.295 . S
C1033 O1038 1.235 . S
O1034 Fe1019 1.976 . S
O1034 C1028 1.287 . S
O1035 Fe1021 1.996 . S
O1035 C1028 1.255 . S
C1036 O1029 1.287 . S
C1036 O1030 1.255 . S
O1037 Fe1019 2.002 . S
O1037 C1033 1.295 . S
O1038 Fe1021 1.997 . S
O1038 C1033 1.235 . S
C1039 O1022 1.295 . S
C1039 O1023 1.235 . S
Fe1040 O1042 1.918 . S
Fe1040 O1045 1.997 . S
Fe1040 O1046 2.002 . S
Fe1040 O1051 1.976 . S
Fe1040 O1054 1.996 . S
Fe1041 O1042 1.918 . S
Fe1041 O1049 1.997 . S
Fe1041 O1052 1.996 . S
Fe1041 O1056 1.976 . S
Fe1041 O1059 2.002 . S
O1042 Fe1040 1.918 . S
O1042 Fe1041 1.918 . S
O1042 Fe1043 1.918 . S
Fe1043 O1042 1.918 . S
Fe1043 O1044 2.002 . S
Fe1043 O1053 1.976 . S
Fe1043 O1057 1.996 . S
Fe1043 O1060 1.997 . S
O1044 Fe1043 2.002 . S
O1044 C1061 1.295 . S
O1045 Fe1040 1.997 . S
O1045 C1061 1.235 . S
O1046 Fe1040 2.002 . S
O1046 C1047 1.295 . S
C1047 O1046 1.295 . S
C1047 O1049 1.235 . S
C1048 O1053 1.287 . S
C1048 O1054 1.255 . S
O1049 Fe1041 1.997 . S
O1049 C1047 1.235 . S
C1050 O1056 1.287 . S
C1050 O1057 1.255 . S
O1051 Fe1040 1.976 . S
O1051 C1058 1.287 . S
O1052 Fe1041 1.996 . S
O1052 C1058 1.255 . S
O1053 Fe1043 1.976 . S
O1053 C1048 1.287 . S
O1054 Fe1040 1.996 . S
O1054 C1048 1.255 . S
C1055 O1059 1.295 . S
C1055 O1060 1.235 . S
O1056 Fe1041 1.976 . S
O1056 C1050 1.287 . S
O1057 Fe1043 1.996 . S
O1057 C1050 1.255 . S
C1058 O1051 1.287 . S
C1058 O1052 1.255 . S
O1059 Fe1041 2.002 . S
O1059 C1055 1.295 . S
O1060 Fe1043 1.997 . S
O1060 C1055 1.235 . S
C1061 O1044 1.295 . S
C1061 O1045 1.235 . S
Fe1062 O1064 1.918 . S
Fe1062 O1067 1.997 . S
Fe1062 O1068 2.002 . S
Fe1062 O1073 1.976 . S
Fe1062 O1076 1.996 . S
Fe1063 O1064 1.918 . S
Fe1063 O1071 1.997 . S
Fe1063 O1074 1.996 . S
Fe1063 O1078 1.976 . S
Fe1063 O1081 2.002 . S
O1064 Fe1062 1.918 . S
O1064 Fe1063 1.918 . S
O1064 Fe1065 1.918 . S
Fe1065 O1064 1.918 . S
Fe1065 O1066 2.002 . S
Fe1065 O1075 1.976 . S
Fe1065 O1079 1.996 . S
Fe1065 O1082 1.997 . S
O1066 Fe1065 2.002 . S
O1066 C1083 1.295 . S
O1067 Fe1062 1.997 . S
O1067 C1083 1.235 . S
O1068 Fe1062 2.002 . S
O1068 C1069 1.295 . S
C1069 O1068 1.295 . S
C1069 O1071 1.235 . S
C1070 O1075 1.287 . S
C1070 O1076 1.255 . S
O1071 Fe1063 1.997 . S
O1071 C1069 1.235 . S
C1072 O1078 1.287 . S
C1072 O1079 1.255 . S
O1073 Fe1062 1.976 . S
O1073 C1080 1.287 . S
O1074 Fe1063 1.996 . S
O1074 C1080 1.255 . S
O1075 Fe1065 1.976 . S
O1075 C1070 1.287 . S
O1076 Fe1062 1.996 . S
O1076 C1070 1.255 . S
C1077 O1081 1.295 . S
C1077 O1082 1.235 . S
O1078 Fe1063 1.976 . S
O1078 C1072 1.287 . S
O1079 Fe1065 1.996 . S
O1079 C1072 1.255 . S
C1080 O1073 1.287 . S
C1080 O1074 1.255 . S
O1081 Fe1063 2.002 . S
O1081 C1077 1.295 . S
O1082 Fe1065 1.997 . S
O1082 C1077 1.235 . S
C1083 O1066 1.295 . S
C1083 O1067 1.235 . S
Fe1084 O1086 1.918 . S
Fe1084 O1089 1.997 . S
Fe1084 O1090 2.002 . S
Fe1084 O1095 1.976 . S
Fe1084 O1098 1.996 . S
Fe1085 O1086 1.918 . S
Fe1085 O1093 1.997 . S
Fe1085 O1096 1.996 . S
Fe1085 O1100 1.976 . S
Fe1085 O1103 2.002 . S
O1086 Fe1084 1.918 . S
O1086 Fe1085 1.918 . S
O1086 Fe1087 1.918 . S
Fe1087 O1086 1.918 . S
Fe1087 O1088 2.002 . S
Fe1087 O1097 1.976 . S
Fe1087 O1101 1.996 . S
Fe1087 O1104 1.997 . S
O1088 Fe1087 2.002 . S
O1088 C1105 1.295 . S
O1089 Fe1084 1.997 . S
O1089 C1105 1.235 . S
O1090 Fe1084 2.002 . S
O1090 C1091 1.295 . S
C1091 O1090 1.295 . S
C1091 O1093 1.235 . S
C1092 O1097 1.287 . S
C1092 O1098 1.255 . S
O1093 Fe1085 1.997 . S
O1093 C1091 1.235 . S
C1094 O1100 1.287 . S
C1094 O1101 1.255 . S
O1095 Fe1084 1.976 . S
O1095 C1102 1.287 . S
O1096 Fe1085 1.996 . S
O1096 C1102 1.255 . S
O1097 Fe1087 1.976 . S
O1097 C1092 1.287 . S
O1098 Fe1084 1.996 . S
O1098 C1092 1.255 . S
C1099 O1103 1.295 . S
C1099 O1104 1.235 . S
O1100 Fe1085 1.976 . S
O1100 C1094 1.287 . S
O1101 Fe1087 1.996 . S
O1101 C1094 1.255 . S
C1102 O1095 1.287 . S
C1102 O1096 1.255 . S
O1103 Fe1085 2.002 . S
O1103 C1099 1.295 . S
O1104 Fe1087 1.997 . S
O1104 C1099 1.235 . S
C1105 O1088 1.295 . S
C1105 O1089 1.235 . S
Fe1106 O1108 1.918 . S
Fe1106 O1111 1.997 . S
Fe1106 O1112 2.002 . S
Fe1106 O1117 1.976 . S
Fe1106 O1120 1.996 . S
Fe1107 O1108 1.918 . S
Fe1107 O1115 1.997 . S
Fe1107 O1118 1.996 . S
Fe1107 O1122 1.976 . S
Fe1107 O1125 2.002 . S
O1108 Fe1106 1.918 . S
O1108 Fe1107 1.918 . S
O1108 Fe1109 1.918 . S
Fe1109 O1108 1.918 . S
Fe1109 O1110 2.002 . S
Fe1109 O1119 1.976 . S
Fe1109 O1123 1.996 . S
Fe1109 O1126 1.997 . S
O1110 Fe1109 2.002 . S
O1110 C1127 1.295 . S
O1111 Fe1106 1.997 . S
O1111 C1127 1.235 . S
O1112 Fe1106 2.002 . S
O1112 C1113 1.295 . S
C1113 O1112 1.295 . S
C1113 O1115 1.235 . S
C1114 O1119 1.287 . S
C1114 O1120 1.255 . S
O1115 Fe1107 1.997 . S
O1115 C1113 1.235 . S
C1116 O1122 1.287 . S
C1116 O1123 1.255 . S
O1117 Fe1106 1.976 . S
O1117 C1124 1.287 . S
O1118 Fe1107 1.996 . S
O1118 C1124 1.255 . S
O1119 Fe1109 1.976 . S
O1119 C1114 1.287 . S
O1120 Fe1106 1.996 . S
O1120 C1114 1.255 . S
C1121 O1125 1.295 . S
C1121 O1126 1.235 . S
O1122 Fe1107 1.976 . S
O1122 C1116 1.287 . S
O1123 Fe1109 1.996 . S
O1123 C1116 1.255 . S
C1124 O1117 1.287 . S
C1124 O1118 1.255 . S
O1125 Fe1107 2.002 . S
O1125 C1121 1.295 . S
O1126 Fe1109 1.997 . S
O1126 C1121 1.235 . S
C1127 O1110 1.295 . S
C1127 O1111 1.235 . S
Fe1128 O1130 1.918 . S
Fe1128 O1133 1.997 . S
Fe1128 O1134 2.002 . S
Fe1128 O1139 1.976 . S
Fe1128 O1142 1.996 . S
Fe1129 O1130 1.918 . S
Fe1129 O1137 1.997 . S
Fe1129 O1140 1.996 . S
Fe1129 O1144 1.976 . S
Fe1129 O1147 2.002 . S
O1130 Fe1128 1.918 . S
O1130 Fe1129 1.918 . S
O1130 Fe1131 1.918 . S
Fe1131 O1130 1.918 . S
Fe1131 O1132 2.002 . S
Fe1131 O1141 1.976 . S
Fe1131 O1145 1.996 . S
Fe1131 O1148 1.997 . S
O1132 Fe1131 2.002 . S
O1132 C1149 1.295 . S
O1133 Fe1128 1.997 . S
O1133 C1149 1.235 . S
O1134 Fe1128 2.002 . S
O1134 C1135 1.295 . S
C1135 O1134 1.295 . S
C1135 O1137 1.235 . S
C1136 O1141 1.287 . S
C1136 O1142 1.255 . S
O1137 Fe1129 1.997 . S
O1137 C1135 1.235 . S
C1138 O1144 1.287 . S
C1138 O1145 1.255 . S
O1139 Fe1128 1.976 . S
O1139 C1146 1.287 . S
O1140 Fe1129 1.996 . S
O1140 C1146 1.255 . S
O1141 Fe1131 1.976 . S
O1141 C1136 1.287 . S
O1142 Fe1128 1.996 . S
O1142 C1136 1.255 . S
C1143 O1147 1.295 . S
C1143 O1148 1.235 . S
O1144 Fe1129 1.976 . S
O1144 C1138 1.287 . S
O1145 Fe1131 1.996 . S
O1145 C1138 1.255 . S
C1146 O1139 1.287 . S
C1146 O1140 1.255 . S
O1147 Fe1129 2.002 . S
O1147 C1143 1.295 . S
O1148 Fe1131 1.997 . S
O1148 C1143 1.235 . S
C1149 O1132 1.295 . S
C1149 O1133 1.235 . S
Fe1150 O1152 1.918 . S
Fe1150 O1155 1.997 . S
Fe1150 O1156 2.002 . S
Fe1150 O1161 1.976 . S
Fe1150 O1164 1.996 . S
Fe1151 O1152 1.918 . S
Fe1151 O1159 1.997 . S
Fe1151 O1162 1.996 . S
Fe1151 O1166 1.976 . S
Fe1151 O1169 2.002 . S
O1152 Fe1150 1.918 . S
O1152 Fe1151 1.918 . S
O1152 Fe1153 1.918 . S
Fe1153 O1152 1.918 . S
Fe1153 O1154 2.002 . S
Fe1153 O1163 1.976 . S
Fe1153 O1167 1.996 . S
Fe1153 O1170 1.997 . S
O1154 Fe1153 2.002 . S
O1154 C1171 1.295 . S
O1155 Fe1150 1.997 . S
O1155 C1171 1.235 . S
O1156 Fe1150 2.002 . S
O1156 C1157 1.295 . S
C1157 O1156 1.295 . S
C1157 O1159 1.235 . S
C1158 O1163 1.287 . S
C1158 O1164 1.255 . S
O1159 Fe1151 1.997 . S
O1159 C1157 1.235 . S
C1160 O1166 1.287 . S
C1160 O1167 1.255 . S
O1161 Fe1150 1.976 . S
O1161 C1168 1.287 . S
O1162 Fe1151 1.996 . S
O1162 C1168 1.255 . S
O1163 Fe1153 1.976 . S
O1163 C1158 1.287 . S
O1164 Fe1150 1.996 . S
O1164 C1158 1.255 . S
C1165 O1169 1.295 . S
C1165 O1170 1.235 . S
O1166 Fe1151 1.976 . S
O1166 C1160 1.287 . S
O1167 Fe1153 1.996 . S
O1167 C1160 1.255 . S
C1168 O1161 1.287 . S
C1168 O1162 1.255 . S
O1169 Fe1151 2.002 . S
O1169 C1165 1.295 . S
O1170 Fe1153 1.997 . S
O1170 C1165 1.235 . S
C1171 O1154 1.295 . S
C1171 O1155 1.235 . S
Fe1172 O1174 1.918 . S
Fe1172 O1177 1.997 . S
Fe1172 O1178 2.002 . S
Fe1172 O1183 1.976 . S
Fe1172 O1186 1.996 . S
Fe1173 O1174 1.918 . S
Fe1173 O1181 1.997 . S
Fe1173 O1184 1.996 . S
Fe1173 O1188 1.976 . S
Fe1173 O1191 2.002 . S
O1174 Fe1172 1.918 . S
O1174 Fe1173 1.918 . S
O1174 Fe1175 1.918 . S
Fe1175 O1174 1.918 . S
Fe1175 O1176 2.002 . S
Fe1175 O1185 1.976 . S
Fe1175 O1189 1.996 . S
Fe1175 O1192 1.997 . S
O1176 Fe1175 2.002 . S
O1176 C1193 1.295 . S
O1177 Fe1172 1.997 . S
O1177 C1193 1.235 . S
O1178 Fe1172 2.002 . S
O1178 C1179 1.295 . S
C1179 O1178 1.295 . S
C1179 O1181 1.235 . S
C1180 O1185 1.287 . S
C1180 O1186 1.255 . S
O1181 Fe1173 1.997 . S
O1181 C1179 1.235 . S
C1182 O1188 1.287 . S
C1182 O1189 1.255 . S
O1183 Fe1172 1.976 . S
O1183 C1190 1.287 . S
O1184 Fe1173 1.996 . S
O1184 C1190 1.255 . S
O1185 Fe1175 1.976 . S
O1185 C1180 1.287 . S
O1186 Fe1172 1.996 . S
O1186 C1180 1.255 . S
C1187 O1191 1.295 . S
C1187 O1192 1.235 . S
O1188 Fe1173 1.976 . S
O1188 C1182 1.287 . S
O1189 Fe1175 1.996 . S
O1189 C1182 1.255 . S
C1190 O1183 1.287 . S
C1190 O1184 1.255 . S
O1191 Fe1173 2.002 . S
O1191 C1187 1.295 . S
O1192 Fe1175 1.997 . S
O1192 C1187 1.235 . S
C1193 O1176 1.295 . S
C1193 O1177 1.235 . S
Fe1194 O1196 1.918 . S
Fe1194 O1199 1.997 . S
Fe1194 O1200 2.002 . S
Fe1194 O1205 1.976 . S
Fe1194 O1208 1.996 . S
Fe1195 O1196 1.918 . S
Fe1195 O1203 1.997 . S
Fe1195 O1206 1.996 . S
Fe1195 O1210 1.976 . S
Fe1195 O1213 2.002 . S
O1196 Fe1194 1.918 . S
O1196 Fe1195 1.918 . S
O1196 Fe1197 1.918 . S
Fe1197 O1196 1.918 . S
Fe1197 O1198 2.002 . S
Fe1197 O1207 1.976 . S
Fe1197 O1211 1.996 . S
Fe1197 O1214 1.997 . S
O1198 Fe1197 2.002 . S
O1198 C1215 1.295 . S
O1199 Fe1194 1.997 . S
O1199 C1215 1.235 . S
O1200 Fe1194 2.002 . S
O1200 C1201 1.295 . S
C1201 O1200 1.295 . S
C1201 O1203 1.235 . S
C1202 O1207 1.287 . S
C1202 O1208 1.255 . S
O1203 Fe1195 1.997 . S
O1203 C1201 1.235 . S
C1204 O1210 1.287 . S
C1204 O1211 1.255 . S
O1205 Fe1194 1.976 . S
O1205 C1212 1.287 . S
O1206 Fe1195 1.996 . S
O1206 C1212 1.255 . S
O1207 Fe1197 1.976 . S
O1207 C1202 1.287 . S
O1208 Fe1194 1.996 . S
O1208 C1202 1.255 . S
C1209 O1213 1.295 . S
C1209 O1214 1.235 . S
O1210 Fe1195 1.976 . S
O1210 C1204 1.287 . S
O1211 Fe1197 1.996 . S
O1211 C1204 1.255 . S
C1212 O1205 1.287 . S
C1212 O1206 1.255 . S
O1213 Fe1195 2.002 . S
O1213 C1209 1.295 . S
O1214 Fe1197 1.997 . S
O1214 C1209 1.235 . S
C1215 O1198 1.295 . S
C1215 O1199 1.235 . S
H1216 C1224 0.950 . S
H1217 C1229 0.950 . S
H1218 C1226 0.950 . S
H1219 C1228 0.950 . S
H1220 C1230 0.950 . S
H1221 C1232 0.950 . S
H1222 C1234 0.950 . S
H1223 C1235 0.950 . S
C1224 H1216 0.950 . S
C1224 C1225 1.386 . S
C1224 C1226 1.391 . S
C1225 C1224 1.386 . S
C1225 C1229 1.393 . S
C1226 H1218 0.950 . S
C1226 C1224 1.391 . S
C1226 C1227 1.400 . S
C1227 C1226 1.400 . S
C1227 C1228 1.398 . S
C1227 C1233 1.491 . S
C1228 H1219 0.950 . S
C1228 C1227 1.398 . S
C1228 C1229 1.391 . S
C1229 H1217 0.950 . S
C1229 C1225 1.393 . S
C1229 C1228 1.391 . S
C1230 H1220 0.950 . S
C1230 C1231 1.386 . S
C1230 C1232 1.391 . S
C1231 C1230 1.386 . S
C1231 C1235 1.393 . S
C1232 H1221 0.950 . S
C1232 C1230 1.391 . S
C1232 C1233 1.400 . S
C1233 C1227 1.491 . S
C1233 C1232 1.400 . S
C1233 C1234 1.398 . S
C1234 H1222 0.950 . S
C1234 C1233 1.398 . S
C1234 C1235 1.391 . S
C1235 H1223 0.950 . S
C1235 C1231 1.393 . S
C1235 C1234 1.391 . S
H1236 C1244 0.950 . S
H1237 C1249 0.950 . S
H1238 C1246 0.950 . S
H1239 C1248 0.950 . S
H1240 C1250 0.950 . S
H1241 C1252 0.950 . S
H1242 C1254 0.950 . S
H1243 C1255 0.950 . S
C1244 H1236 0.950 . S
C1244 C1245 1.386 . S
C1244 C1246 1.391 . S
C1245 C1244 1.386 . S
C1245 C1249 1.393 . S
C1246 H1238 0.950 . S
C1246 C1244 1.391 . S
C1246 C1247 1.400 . S
C1247 C1246 1.400 . S
C1247 C1248 1.398 . S
C1247 C1253 1.491 . S
C1248 H1239 0.950 . S
C1248 C1247 1.398 . S
C1248 C1249 1.391 . S
C1249 H1237 0.950 . S
C1249 C1245 1.393 . S
C1249 C1248 1.391 . S
C1250 H1240 0.950 . S
C1250 C1251 1.386 . S
C1250 C1252 1.391 . S
C1251 C1250 1.386 . S
C1251 C1255 1.393 . S
C1252 H1241 0.950 . S
C1252 C1250 1.391 . S
C1252 C1253 1.400 . S
C1253 C1247 1.491 . S
C1253 C1252 1.400 . S
C1253 C1254 1.398 . S
C1254 H1242 0.950 . S
C1254 C1253 1.398 . S
C1254 C1255 1.391 . S
C1255 H1243 0.950 . S
C1255 C1251 1.393 . S
C1255 C1254 1.391 . S
H1256 C1264 0.950 . S
H1257 C1269 0.950 . S
H1258 C1266 0.950 . S
H1259 C1268 0.950 . S
H1260 C1270 0.950 . S
H1261 C1272 0.950 . S
H1262 C1274 0.950 . S
H1263 C1275 0.950 . S
C1264 H1256 0.950 . S
C1264 C1265 1.386 . S
C1264 C1266 1.391 . S
C1265 C1264 1.386 . S
C1265 C1269 1.393 . S
C1266 H1258 0.950 . S
C1266 C1264 1.391 . S
C1266 C1267 1.400 . S
C1267 C1266 1.400 . S
C1267 C1268 1.398 . S
C1267 C1273 1.491 . S
C1268 H1259 0.950 . S
C1268 C1267 1.398 . S
C1268 C1269 1.391 . S
C1269 H1257 0.950 . S
C1269 C1265 1.393 . S
C1269 C1268 1.391 . S
C1270 H1260 0.950 . S
C1270 C1271 1.386 . S
C1270 C1272 1.391 . S
C1271 C1270 1.386 . S
C1271 C1275 1.393 . S
C1272 H1261 0.950 . S
C1272 C1270 1.391 . S
C1272 C1273 1.400 . S
C1273 C1267 1.491 . S
C1273 C1272 1.400 . S
C1273 C1274 1.398 . S
C1274 H1262 0.950 . S
C1274 C1273 1.398 . S
C1274 C1275 1.391 . S
C1275 H1263 0.950 . S
C1275 C1271 1.393 . S
C1275 C1274 1.391 . S
H1276 C1284 0.950 . S
H1277 C1289 0.950 . S
H1278 C1286 0.950 . S
H1279 C1288 0.950 . S
H1280 C1290 0.950 . S
H1281 C1292 0.950 . S
H1282 C1294 0.950 . S
H1283 C1295 0.950 . S
C1284 H1276 0.950 . S
C1284 C1285 1.386 . S
C1284 C1286 1.391 . S
C1285 C1284 1.386 . S
C1285 C1289 1.393 . S
C1286 H1278 0.950 . S
C1286 C1284 1.391 . S
C1286 C1287 1.400 . S
C1287 C1286 1.400 . S
C1287 C1288 1.398 . S
C1287 C1293 1.491 . S
C1288 H1279 0.950 . S
C1288 C1287 1.398 . S
C1288 C1289 1.391 . S
C1289 H1277 0.950 . S
C1289 C1285 1.393 . S
C1289 C1288 1.391 . S
C1290 H1280 0.950 . S
C1290 C1291 1.386 . S
C1290 C1292 1.391 . S
C1291 C1290 1.386 . S
C1291 C1295 1.393 . S
C1292 H1281 0.950 . S
C1292 C1290 1.391 . S
C1292 C1293 1.400 1_556 S
C1293 C1287 1.491 . S
C1293 C1292 1.400 1_554 S
C1293 C1294 1.398 . S
C1294 H1282 0.950 . S
C1294 C1293 1.398 . S
C1294 C1295 1.391 1_554 S
C1295 H1283 0.950 . S
C1295 C1291 1.393 . S
C1295 C1294 1.391 1_556 S
H1296 C1304 0.950 . S
H1297 C1309 0.950 . S
H1298 C1306 0.950 . S
H1299 C1308 0.950 . S
H1300 C1310 0.950 . S
H1301 C1312 0.950 . S
H1302 C1314 0.950 . S
H1303 C1315 0.950 . S
C1304 H1296 0.950 . S
C1304 C1305 1.386 . S
C1304 C1306 1.391 . S
C1305 C1304 1.386 . S
C1305 C1309 1.393 . S
C1306 H1298 0.950 . S
C1306 C1304 1.391 . S
C1306 C1307 1.400 . S
C1307 C1306 1.400 . S
C1307 C1308 1.398 . S
C1307 C1313 1.491 . S
C1308 H1299 0.950 . S
C1308 C1307 1.398 . S
C1308 C1309 1.391 . S
C1309 H1297 0.950 . S
C1309 C1305 1.393 . S
C1309 C1308 1.391 . S
C1310 H1300 0.950 . S
C1310 C1311 1.386 . S
C1310 C1312 1.391 . S
C1311 C1310 1.386 . S
C1311 C1315 1.393 . S
C1312 H1301 0.950 . S
C1312 C1310 1.391 . S
C1312 C1313 1.400 . S
C1313 C1307 1.491 . S
C1313 C1312 1.400 . S
C1313 C1314 1.398 . S
C1314 H1302 0.950 . S
C1314 C1313 1.398 . S
C1314 C1315 1.391 . S
C1315 H1303 0.950 . S
C1315 C1311 1.393 . S
C1315 C1314 1.391 . S
H1316 C1324 0.950 . S
H1317 C1329 0.950 . S
H1318 C1326 0.950 . S
H1319 C1328 0.950 . S
H1320 C1330 0.950 . S
H1321 C1332 0.950 . S
H1322 C1334 0.950 . S
H1323 C1335 0.950 . S
C1324 H1316 0.950 . S
C1324 C1325 1.386 . S
C1324 C1326 1.391 . S
C1325 C1324 1.386 . S
C1325 C1329 1.393 . S
C1326 H1318 0.950 . S
C1326 C1324 1.391 . S
C1326 C1327 1.400 . S
C1327 C1326 1.400 . S
C1327 C1328 1.398 . S
C1327 C1333 1.491 . S
C1328 H1319 0.950 . S
C1328 C1327 1.398 . S
C1328 C1329 1.391 . S
C1329 H1317 0.950 . S
C1329 C1325 1.393 . S
C1329 C1328 1.391 . S
C1330 H1320 0.950 . S
C1330 C1331 1.386 . S
C1330 C1332 1.391 . S
C1331 C1330 1.386 . S
C1331 C1335 1.393 . S
C1332 H1321 0.950 . S
C1332 C1330 1.391 . S
C1332 C1333 1.400 . S
C1333 C1327 1.491 . S
C1333 C1332 1.400 . S
C1333 C1334 1.398 . S
C1334 H1322 0.950 . S
C1334 C1333 1.398 . S
C1334 C1335 1.391 . S
C1335 H1323 0.950 . S
C1335 C1331 1.393 . S
C1335 C1334 1.391 . S
H1336 C1344 0.950 . S
H1337 C1349 0.950 . S
H1338 C1346 0.950 . S
H1339 C1348 0.950 . S
H1340 C1350 0.950 . S
H1341 C1352 0.950 . S
H1342 C1354 0.950 . S
H1343 C1355 0.950 . S
C1344 H1336 0.950 . S
C1344 C1345 1.386 . S
C1344 C1346 1.391 . S
C1345 C1344 1.386 . S
C1345 C1349 1.393 . S
C1346 H1338 0.950 . S
C1346 C1344 1.391 . S
C1346 C1347 1.400 . S
C1347 C1346 1.400 . S
C1347 C1348 1.398 . S
C1347 C1353 1.491 . S
C1348 H1339 0.950 . S
C1348 C1347 1.398 . S
C1348 C1349 1.391 . S
C1349 H1337 0.950 . S
C1349 C1345 1.393 . S
C1349 C1348 1.391 . S
C1350 H1340 0.950 . S
C1350 C1351 1.386 . S
C1350 C1352 1.391 . S
C1351 C1350 1.386 . S
C1351 C1355 1.393 . S
C1352 H1341 0.950 . S
C1352 C1350 1.391 . S
C1352 C1353 1.400 . S
C1353 C1347 1.491 . S
C1353 C1352 1.400 . S
C1353 C1354 1.398 . S
C1354 H1342 0.950 . S
C1354 C1353 1.398 . S
C1354 C1355 1.391 . S
C1355 H1343 0.950 . S
C1355 C1351 1.393 . S
C1355 C1354 1.391 . S
H1356 C1364 0.950 . S
H1357 C1369 0.950 . S
H1358 C1366 0.950 . S
H1359 C1368 0.950 . S
H1360 C1370 0.950 . S
H1361 C1372 0.950 . S
H1362 C1374 0.950 . S
H1363 C1375 0.950 . S
C1364 H1356 0.950 . S
C1364 C1365 1.386 . S
C1364 C1366 1.391 . S
C1365 C1364 1.386 . S
C1365 C1369 1.393 . S
C1366 H1358 0.950 . S
C1366 C1364 1.391 . S
C1366 C1367 1.400 . S
C1367 C1366 1.400 . S
C1367 C1368 1.398 . S
C1367 C1373 1.491 1_556 S
C1368 H1359 0.950 . S
C1368 C1367 1.398 . S
C1368 C1369 1.391 . S
C1369 H1357 0.950 . S
C1369 C1365 1.393 . S
C1369 C1368 1.391 . S
C1370 H1360 0.950 . S
C1370 C1371 1.386 . S
C1370 C1372 1.391 . S
C1371 C1370 1.386 . S
C1371 C1375 1.393 . S
C1372 H1361 0.950 . S
C1372 C1370 1.391 . S
C1372 C1373 1.400 . S
C1373 C1367 1.491 1_554 S
C1373 C1372 1.400 . S
C1373 C1374 1.398 . S
C1374 H1362 0.950 . S
C1374 C1373 1.398 . S
C1374 C1375 1.391 . S
C1375 H1363 0.950 . S
C1375 C1371 1.393 . S
C1375 C1374 1.391 . S
H1376 C1384 0.950 . S
H1377 C1389 0.950 . S
H1378 C1386 0.950 . S
H1379 C1388 0.950 . S
H1380 C1390 0.950 . S
H1381 C1392 0.950 . S
H1382 C1394 0.950 . S
H1383 C1395 0.950 . S
C1384 H1376 0.950 . S
C1384 C1385 1.386 . S
C1384 C1386 1.391 . S
C1385 C1384 1.386 . S
C1385 C1389 1.393 . S
C1386 H1378 0.950 . S
C1386 C1384 1.391 . S
C1386 C1387 1.400 . S
C1387 C1386 1.400 . S
C1387 C1388 1.398 . S
C1387 C1393 1.491 . S
C1388 H1379 0.950 . S
C1388 C1387 1.398 . S
C1388 C1389 1.391 . S
C1389 H1377 0.950 . S
C1389 C1385 1.393 . S
C1389 C1388 1.391 . S
C1390 H1380 0.950 . S
C1390 C1391 1.386 . S
C1390 C1392 1.391 . S
C1391 C1390 1.386 . S
C1391 C1395 1.393 . S
C1392 H1381 0.950 . S
C1392 C1390 1.391 . S
C1392 C1393 1.400 . S
C1393 C1387 1.491 . S
C1393 C1392 1.400 . S
C1393 C1394 1.398 . S
C1394 H1382 0.950 . S
C1394 C1393 1.398 . S
C1394 C1395 1.391 . S
C1395 H1383 0.950 . S
C1395 C1391 1.393 . S
C1395 C1394 1.391 . S
H1396 C1404 0.950 . S
H1397 C1409 0.950 . S
H1398 C1406 0.950 . S
H1399 C1408 0.950 . S
H1400 C1410 0.950 . S
H1401 C1412 0.950 . S
H1402 C1414 0.950 . S
H1403 C1415 0.950 . S
C1404 H1396 0.950 . S
C1404 C1405 1.386 . S
C1404 C1406 1.391 . S
C1405 C1404 1.386 . S
C1405 C1409 1.393 . S
C1406 H1398 0.950 . S
C1406 C1404 1.391 . S
C1406 C1407 1.400 . S
C1407 C1406 1.400 . S
C1407 C1408 1.398 . S
C1407 C1413 1.491 . S
C1408 H1399 0.950 . S
C1408 C1407 1.398 . S
C1408 C1409 1.391 . S
C1409 H1397 0.950 . S
C1409 C1405 1.393 . S
C1409 C1408 1.391 . S
C1410 H1400 0.950 . S
C1410 C1411 1.386 . S
C1410 C1412 1.391 . S
C1411 C1410 1.386 . S
C1411 C1415 1.393 . S
C1412 H1401 0.950 . S
C1412 C1410 1.391 . S
C1412 C1413 1.400 1_565 S
C1413 C1407 1.491 . S
C1413 C1412 1.400 1_545 S
C1413 C1414 1.398 . S
C1414 H1402 0.950 . S
C1414 C1413 1.398 . S
C1414 C1415 1.391 1_545 S
C1415 H1403 0.950 . S
C1415 C1411 1.393 . S
C1415 C1414 1.391 1_565 S
H1416 C1424 0.950 . S
H1417 C1429 0.950 . S
H1418 C1426 0.950 . S
H1419 C1428 0.950 . S
H1420 C1430 0.950 . S
H1421 C1432 0.950 . S
H1422 C1434 0.950 . S
H1423 C1435 0.950 . S
C1424 H1416 0.950 . S
C1424 C1425 1.386 . S
C1424 C1426 1.391 . S
C1425 C1424 1.386 . S
C1425 C1429 1.393 . S
C1426 H1418 0.950 . S
C1426 C1424 1.391 . S
C1426 C1427 1.400 . S
C1427 C1426 1.400 . S
C1427 C1428 1.398 . S
C1427 C1433 1.491 . S
C1428 H1419 0.950 . S
C1428 C1427 1.398 . S
C1428 C1429 1.391 . S
C1429 H1417 0.950 . S
C1429 C1425 1.393 . S
C1429 C1428 1.391 . S
C1430 H1420 0.950 . S
C1430 C1431 1.386 . S
C1430 C1432 1.391 . S
C1431 C1430 1.386 . S
C1431 C1435 1.393 . S
C1432 H1421 0.950 . S
C1432 C1430 1.391 . S
C1432 C1433 1.400 . S
C1433 C1427 1.491 . S
C1433 C1432 1.400 . S
C1433 C1434 1.398 . S
C1434 H1422 0.950 . S
C1434 C1433 1.398 . S
C1434 C1435 1.391 . S
C1435 H1423 0.950 . S
C1435 C1431 1.393 . S
C1435 C1434 1.391 . S
H1436 C1444 0.950 . S
H1437 C1449 0.950 . S
H1438 C1446 0.950 . S
H1439 C1448 0.950 . S
H1440 C1450 0.950 . S
H1441 C1452 0.950 . S
H1442 C1454 0.950 1_565 S
H1443 C1455 0.950 . S
C1444 H1436 0.950 . S
C1444 C1445 1.386 . S
C1444 C1446 1.391 . S
C1445 C1444 1.386 . S
C1445 C1449 1.393 . S
C1446 H1438 0.950 . S
C1446 C1444 1.391 . S
C1446 C1447 1.400 . S
C1447 C1446 1.400 . S
C1447 C1448 1.398 . S
C1447 C1453 1.491 1_565 S
C1448 H1439 0.950 . S
C1448 C1447 1.398 . S
C1448 C1449 1.391 . S
C1449 H1437 0.950 . S
C1449 C1445 1.393 . S
C1449 C1448 1.391 . S
C1450 H1440 0.950 . S
C1450 C1451 1.386 . S
C1450 C1452 1.391 . S
C1451 C1450 1.386 . S
C1451 C1455 1.393 . S
C1452 H1441 0.950 . S
C1452 C1450 1.391 . S
C1452 C1453 1.400 . S
C1453 C1447 1.491 1_545 S
C1453 C1452 1.400 . S
C1453 C1454 1.398 . S
C1454 H1442 0.950 1_545 S
C1454 C1453 1.398 . S
C1454 C1455 1.391 . S
C1455 H1443 0.950 . S
C1455 C1451 1.393 . S
C1455 C1454 1.391 . S
H1456 C1464 0.950 . S
H1457 C1469 0.950 . S
H1458 C1466 0.950 . S
H1459 C1468 0.950 . S
H1460 C1470 0.950 . S
H1461 C1472 0.950 . S
H1462 C1474 0.950 . S
H1463 C1475 0.950 . S
C1464 H1456 0.950 . S
C1464 C1465 1.386 . S
C1464 C1466 1.391 . S
C1465 C1464 1.386 . S
C1465 C1469 1.393 . S
C1466 H1458 0.950 . S
C1466 C1464 1.391 . S
C1466 C1467 1.400 . S
C1467 C1466 1.400 . S
C1467 C1468 1.398 . S
C1467 C1473 1.491 . S
C1468 H1459 0.950 . S
C1468 C1467 1.398 . S
C1468 C1469 1.391 . S
C1469 H1457 0.950 . S
C1469 C1465 1.393 . S
C1469 C1468 1.391 . S
C1470 H1460 0.950 . S
C1470 C1471 1.386 . S
C1470 C1472 1.391 . S
C1471 C1470 1.386 . S
C1471 C1475 1.393 . S
C1472 H1461 0.950 . S
C1472 C1470 1.391 . S
C1472 C1473 1.400 . S
C1473 C1467 1.491 . S
C1473 C1472 1.400 . S
C1473 C1474 1.398 . S
C1474 H1462 0.950 . S
C1474 C1473 1.398 . S
C1474 C1475 1.391 . S
C1475 H1463 0.950 . S
C1475 C1471 1.393 . S
C1475 C1474 1.391 . S
H1476 C1484 0.950 . S
H1477 C1489 0.950 . S
H1478 C1486 0.950 . S
H1479 C1488 0.950 . S
H1480 C1490 0.950 . S
H1481 C1492 0.950 . S
H1482 C1494 0.972 . S
H1483 C1495 0.950 . S
C1484 H1476 0.950 . S
C1484 C1485 1.386 . S
C1484 C1486 1.391 . S
C1485 C1484 1.386 . S
C1485 C1489 1.393 . S
C1486 H1478 0.950 . S
C1486 C1484 1.391 . S
C1486 C1487 1.400 . S
C1487 C1486 1.400 . S
C1487 C1488 1.398 . S
C1487 C1493 1.491 . S
C1488 H1479 0.950 . S
C1488 C1487 1.398 . S
C1488 C1489 1.391 . S
C1489 H1477 0.950 . S
C1489 C1485 1.393 . S
C1489 C1488 1.391 . S
C1490 H1480 0.950 . S
C1490 C1491 1.386 . S
C1490 C1492 1.391 . S
C1491 C1490 1.386 . S
C1491 C1495 1.393 . S
C1492 H1481 0.950 . S
C1492 C1490 1.391 . S
C1492 C1493 1.400 1_565 S
C1493 C1487 1.491 . S
C1493 C1492 1.400 1_545 S
C1493 C1494 1.405 . S
C1494 H1482 0.972 . S
C1494 C1493 1.405 . S
C1494 C1495 1.363 1_545 S
C1495 H1483 0.950 . S
C1495 C1491 1.393 . S
C1495 C1494 1.363 1_565 S
H1496 C1504 0.950 . S
H1497 C1509 0.950 . S
H1498 C1506 0.950 . S
H1499 C1508 0.950 . S
H1500 C1510 0.950 . S
H1501 C1512 0.950 . S
H1502 C1514 0.950 . S
H1503 C1515 0.950 . S
C1504 H1496 0.950 . S
C1504 C1505 1.386 . S
C1504 C1506 1.391 . S
C1505 C1504 1.386 . S
C1505 C1509 1.393 . S
C1506 H1498 0.950 . S
C1506 C1504 1.391 . S
C1506 C1507 1.400 . S
C1507 C1506 1.400 . S
C1507 C1508 1.398 . S
C1507 C1513 1.491 . S
C1508 H1499 0.950 . S
C1508 C1507 1.398 . S
C1508 C1509 1.391 . S
C1509 H1497 0.950 . S
C1509 C1505 1.393 . S
C1509 C1508 1.391 . S
C1510 H1500 0.950 . S
C1510 C1511 1.386 . S
C1510 C1512 1.391 . S
C1511 C1510 1.386 . S
C1511 C1515 1.393 . S
C1512 H1501 0.950 . S
C1512 C1510 1.391 . S
C1512 C1513 1.400 . S
C1513 C1507 1.491 . S
C1513 C1512 1.400 . S
C1513 C1514 1.398 . S
C1514 H1502 0.950 . S
C1514 C1513 1.398 . S
C1514 C1515 1.391 . S
C1515 H1503 0.950 . S
C1515 C1511 1.393 . S
C1515 C1514 1.391 . S
H1516 C1524 0.950 . S
H1517 C1529 0.950 . S
H1518 C1526 0.950 . S
H1519 C1528 0.950 . S
H1520 C1530 0.950 . S
H1521 C1532 0.950 1_565 S
H1522 C1534 0.950 . S
H1523 C1535 0.950 . S
C1524 H1516 0.950 . S
C1524 C1525 1.386 . S
C1524 C1526 1.391 . S
C1525 C1524 1.386 . S
C1525 C1529 1.393 . S
C1526 H1518 0.950 . S
C1526 C1524 1.391 . S
C1526 C1527 1.400 . S
C1527 C1526 1.400 . S
C1527 C1528 1.398 . S
C1527 C1533 1.491 1_565 S
C1528 H1519 0.950 . S
C1528 C1527 1.398 . S
C1528 C1529 1.391 . S
C1529 H1517 0.950 . S
C1529 C1525 1.393 . S
C1529 C1528 1.391 . S
C1530 H1520 0.950 . S
C1530 C1531 1.386 . S
C1530 C1532 1.391 . S
C1531 C1530 1.386 . S
C1531 C1535 1.393 . S
C1532 H1521 0.950 1_545 S
C1532 C1530 1.391 . S
C1532 C1533 1.400 . S
C1533 C1527 1.491 1_545 S
C1533 C1532 1.400 . S
C1533 C1534 1.398 . S
C1534 H1522 0.950 . S
C1534 C1533 1.398 . S
C1534 C1535 1.391 . S
C1535 H1523 0.950 . S
C1535 C1531 1.393 . S
C1535 C1534 1.391 . S
H1536 C1544 0.950 . S
H1537 C1549 0.950 . S
H1538 C1546 0.950 . S
H1539 C1548 0.950 . S
H1540 C1550 0.950 . S
H1541 C1552 0.950 . S
H1542 C1554 0.950 . S
H1543 C1555 0.950 . S
C1544 H1536 0.950 . S
C1544 C1545 1.386 . S
C1544 C1546 1.391 . S
C1545 C1544 1.386 . S
C1545 C1549 1.393 . S
C1546 H1538 0.950 . S
C1546 C1544 1.391 . S
C1546 C1547 1.400 . S
C1547 C1546 1.400 . S
C1547 C1548 1.398 . S
C1547 C1553 1.491 . S
C1548 H1539 0.950 . S
C1548 C1547 1.398 . S
C1548 C1549 1.391 . S
C1549 H1537 0.950 . S
C1549 C1545 1.393 . S
C1549 C1548 1.391 . S
C1550 H1540 0.950 . S
C1550 C1551 1.386 . S
C1550 C1552 1.391 . S
C1551 C1550 1.386 . S
C1551 C1555 1.393 . S
C1552 H1541 0.950 . S
C1552 C1550 1.391 . S
C1552 C1553 1.400 . S
C1553 C1547 1.491 . S
C1553 C1552 1.400 . S
C1553 C1554 1.398 . S
C1554 H1542 0.950 . S
C1554 C1553 1.398 . S
C1554 C1555 1.391 . S
C1555 H1543 0.950 . S
C1555 C1551 1.393 . S
C1555 C1554 1.391 . S
H1556 C1564 0.950 . S
H1557 C1569 0.950 . S
H1558 C1566 0.950 . S
H1559 C1568 0.950 . S
H1560 C1570 0.950 . S
H1561 C1572 0.950 . S
H1562 C1574 0.950 . S
H1563 C1575 0.950 . S
C1564 H1556 0.950 . S
C1564 C1565 1.386 . S
C1564 C1566 1.391 . S
C1565 C1564 1.386 . S
C1565 C1569 1.393 . S
C1566 H1558 0.950 . S
C1566 C1564 1.391 . S
C1566 C1567 1.400 . S
C1567 C1566 1.400 . S
C1567 C1568 1.398 . S
C1567 C1573 1.491 . S
C1568 H1559 0.950 . S
C1568 C1567 1.398 . S
C1568 C1569 1.391 . S
C1569 H1557 0.950 . S
C1569 C1565 1.393 . S
C1569 C1568 1.391 . S
C1570 H1560 0.950 . S
C1570 C1571 1.386 . S
C1570 C1572 1.391 . S
C1571 C1570 1.386 . S
C1571 C1575 1.393 . S
C1572 H1561 0.950 . S
C1572 C1570 1.391 . S
C1572 C1573 1.400 . S
C1573 C1567 1.491 . S
C1573 C1572 1.400 . S
C1573 C1574 1.398 . S
C1574 H1562 0.950 . S
C1574 C1573 1.398 . S
C1574 C1575 1.391 . S
C1575 H1563 0.950 . S
C1575 C1571 1.393 . S
C1575 C1574 1.391 . S
H1576 C1584 0.950 . S
H1577 C1589 0.950 . S
H1578 C1586 0.950 . S
H1579 C1588 0.950 . S
H1580 C1590 0.950 . S
H1581 C1592 0.950 . S
H1582 C1594 0.950 . S
H1583 C1595 0.950 . S
C1584 H1576 0.950 . S
C1584 C1585 1.386 . S
C1584 C1586 1.391 . S
C1585 C1584 1.386 . S
C1585 C1589 1.393 . S
C1586 H1578 0.950 . S
C1586 C1584 1.391 . S
C1586 C1587 1.400 . S
C1587 C1586 1.400 . S
C1587 C1588 1.398 . S
C1587 C1593 1.491 . S
C1588 H1579 0.950 . S
C1588 C1587 1.398 . S
C1588 C1589 1.391 . S
C1589 H1577 0.950 . S
C1589 C1585 1.393 . S
C1589 C1588 1.391 . S
C1590 H1580 0.950 . S
C1590 C1591 1.386 . S
C1590 C1592 1.391 1_655 S
C1591 C1590 1.386 . S
C1591 C1595 1.393 . S
C1592 H1581 0.950 . S
C1592 C1590 1.391 1_455 S
C1592 C1593 1.400 . S
C1593 C1587 1.491 . S
C1593 C1592 1.400 . S
C1593 C1594 1.398 1_455 S
C1594 H1582 0.950 . S
C1594 C1593 1.398 1_655 S
C1594 C1595 1.391 . S
C1595 H1583 0.950 . S
C1595 C1591 1.393 . S
C1595 C1594 1.391 . S
H1596 C1604 0.950 . S
H1597 C1609 0.950 . S
H1598 C1606 0.950 . S
H1599 C1608 0.950 . S
H1600 C1610 0.950 . S
H1601 C1612 0.950 . S
H1602 C1614 0.950 . S
H1603 C1615 0.950 . S
C1604 H1596 0.950 . S
C1604 C1605 1.386 . S
C1604 C1606 1.391 . S
C1605 C1604 1.386 . S
C1605 C1609 1.393 . S
C1606 H1598 0.950 . S
C1606 C1604 1.391 . S
C1606 C1607 1.400 . S
C1607 C1606 1.400 . S
C1607 C1608 1.398 . S
C1607 C1613 1.491 . S
C1608 H1599 0.950 . S
C1608 C1607 1.398 . S
C1608 C1609 1.391 . S
C1609 H1597 0.950 . S
C1609 C1605 1.393 . S
C1609 C1608 1.391 . S
C1610 H1600 0.950 . S
C1610 C1611 1.386 . S
C1610 C1612 1.391 . S
C1611 C1610 1.386 . S
C1611 C1615 1.393 . S
C1612 H1601 0.950 . S
C1612 C1610 1.391 . S
C1612 C1613 1.400 . S
C1613 C1607 1.491 . S
C1613 C1612 1.400 . S
C1613 C1614 1.398 . S
C1614 H1602 0.950 . S
C1614 C1613 1.398 . S
C1614 C1615 1.391 . S
C1615 H1603 0.950 . S
C1615 C1611 1.393 . S
C1615 C1614 1.391 . S
H1616 C1624 0.950 . S
H1617 C1629 0.950 . S
H1618 C1626 0.950 . S
H1619 C1628 0.950 . S
H1620 C1630 0.950 . S
H1621 C1632 0.950 1_655 S
H1622 C1634 0.950 . S
H1623 C1635 0.950 . S
C1624 H1616 0.950 . S
C1624 C1625 1.386 . S
C1624 C1626 1.391 . S
C1625 C1624 1.386 . S
C1625 C1629 1.393 . S
C1626 H1618 0.950 . S
C1626 C1624 1.391 . S
C1626 C1627 1.400 . S
C1627 C1626 1.400 . S
C1627 C1628 1.398 . S
C1627 C1633 1.491 1_655 S
C1628 H1619 0.950 . S
C1628 C1627 1.398 . S
C1628 C1629 1.391 . S
C1629 H1617 0.950 . S
C1629 C1625 1.393 . S
C1629 C1628 1.391 . S
C1630 H1620 0.950 . S
C1630 C1631 1.386 . S
C1630 C1632 1.391 . S
C1631 C1630 1.386 . S
C1631 C1635 1.393 . S
C1632 H1621 0.950 1_455 S
C1632 C1630 1.391 . S
C1632 C1633 1.400 . S
C1633 C1627 1.491 1_455 S
C1633 C1632 1.400 . S
C1633 C1634 1.398 . S
C1634 H1622 0.950 . S
C1634 C1633 1.398 . S
C1634 C1635 1.391 . S
C1635 H1623 0.950 . S
C1635 C1631 1.393 . S
C1635 C1634 1.391 . S
H1636 C1644 0.950 . S
H1637 C1649 0.950 . S
H1638 C1646 0.950 . S
H1639 C1648 0.950 . S
H1640 C1650 0.950 . S
H1641 C1652 0.950 . S
H1642 C1654 0.950 . S
H1643 C1655 0.950 . S
C1644 H1636 0.950 . S
C1644 C1645 1.386 . S
C1644 C1646 1.391 . S
C1645 C1644 1.386 . S
C1645 C1649 1.393 . S
C1646 H1638 0.950 . S
C1646 C1644 1.391 . S
C1646 C1647 1.400 . S
C1647 C1646 1.400 . S
C1647 C1648 1.398 . S
C1647 C1653 1.491 . S
C1648 H1639 0.950 . S
C1648 C1647 1.398 . S
C1648 C1649 1.391 . S
C1649 H1637 0.950 . S
C1649 C1645 1.393 . S
C1649 C1648 1.391 . S
C1650 H1640 0.950 . S
C1650 C1651 1.386 . S
C1650 C1652 1.391 . S
C1651 C1650 1.386 . S
C1651 C1655 1.393 . S
C1652 H1641 0.950 . S
C1652 C1650 1.391 . S
C1652 C1653 1.400 . S
C1653 C1647 1.491 . S
C1653 C1652 1.400 . S
C1653 C1654 1.398 . S
C1654 H1642 0.950 . S
C1654 C1653 1.398 . S
C1654 C1655 1.391 . S
C1655 H1643 0.950 . S
C1655 C1651 1.393 . S
C1655 C1654 1.391 . S
H1656 C1664 0.950 . S
H1657 C1669 0.950 . S
H1658 C1666 0.950 . S
H1659 C1668 0.950 . S
H1660 C1670 0.950 . S
H1661 C1672 0.950 . S
H1662 C1674 0.950 1_455 S
H1663 C1675 0.950 . S
C1664 H1656 0.950 . S
C1664 C1665 1.386 . S
C1664 C1666 1.391 . S
C1665 C1664 1.386 . S
C1665 C1669 1.393 . S
C1666 H1658 0.950 . S
C1666 C1664 1.391 . S
C1666 C1667 1.400 . S
C1667 C1666 1.400 . S
C1667 C1668 1.398 . S
C1667 C1673 1.491 . S
C1668 H1659 0.950 . S
C1668 C1667 1.398 . S
C1668 C1669 1.391 . S
C1669 H1657 0.950 . S
C1669 C1665 1.393 . S
C1669 C1668 1.391 . S
C1670 H1660 0.950 . S
C1670 C1671 1.386 . S
C1670 C1672 1.391 . S
C1671 C1670 1.386 . S
C1671 C1675 1.393 . S
C1672 H1661 0.950 . S
C1672 C1670 1.391 . S
C1672 C1673 1.400 1_655 S
C1673 C1667 1.491 . S
C1673 C1672 1.400 1_455 S
C1673 C1674 1.398 1_455 S
C1674 H1662 0.950 1_655 S
C1674 C1673 1.398 1_655 S
C1674 C1675 1.391 . S
C1675 H1663 0.950 . S
C1675 C1671 1.393 . S
C1675 C1674 1.391 . S
H1676 C1684 0.950 . S
H1677 C1689 0.950 . S
H1678 C1686 0.950 . S
H1679 C1688 0.950 . S
H1680 C1690 0.950 . S
H1681 C1692 0.950 . S
H1682 C1694 0.950 . S
H1683 C1695 0.950 . S
C1684 H1676 0.950 . S
C1684 C1685 1.386 . S
C1684 C1686 1.391 . S
C1685 C1684 1.386 . S
C1685 C1689 1.393 . S
C1686 H1678 0.950 . S
C1686 C1684 1.391 . S
C1686 C1687 1.400 . S
C1687 C1686 1.400 . S
C1687 C1688 1.398 . S
C1687 C1693 1.491 . S
C1688 H1679 0.950 . S
C1688 C1687 1.398 . S
C1688 C1689 1.391 . S
C1689 H1677 0.950 . S
C1689 C1685 1.393 . S
C1689 C1688 1.391 . S
C1690 H1680 0.950 . S
C1690 C1691 1.386 . S
C1690 C1692 1.391 . S
C1691 C1690 1.386 . S
C1691 C1695 1.393 . S
C1692 H1681 0.950 . S
C1692 C1690 1.391 . S
C1692 C1693 1.400 . S
C1693 C1687 1.491 . S
C1693 C1692 1.400 . S
C1693 C1694 1.398 . S
C1694 H1682 0.950 . S
C1694 C1693 1.398 . S
C1694 C1695 1.391 . S
C1695 H1683 0.950 . S
C1695 C1691 1.393 . S
C1695 C1694 1.391 . S
H1696 C1704 0.950 . S
H1697 C1709 0.950 . S
H1698 C1706 0.950 . S
H1699 C1708 0.950 . S
H1700 C1710 0.950 . S
H1701 C1712 0.950 . S
H1702 C1714 0.950 . S
H1703 C1715 0.950 . S
C1704 H1696 0.950 . S
C1704 C1705 1.386 . S
C1704 C1706 1.391 . S
C1705 C1704 1.386 . S
C1705 C1709 1.393 . S
C1706 H1698 0.950 . S
C1706 C1704 1.391 . S
C1706 C1707 1.400 . S
C1707 C1706 1.400 . S
C1707 C1708 1.398 . S
C1707 C1713 1.491 . S
C1708 H1699 0.950 . S
C1708 C1707 1.398 . S
C1708 C1709 1.391 . S
C1709 H1697 0.950 . S
C1709 C1705 1.393 . S
C1709 C1708 1.391 . S
C1710 H1700 0.950 . S
C1710 C1711 1.386 . S
C1710 C1712 1.391 . S
C1711 C1710 1.386 . S
C1711 C1715 1.393 . S
C1712 H1701 0.950 . S
C1712 C1710 1.391 . S
C1712 C1713 1.400 . S
C1713 C1707 1.491 . S
C1713 C1712 1.400 . S
C1713 C1714 1.398 . S
C1714 H1702 0.950 . S
C1714 C1713 1.398 . S
C1714 C1715 1.391 . S
C1715 H1703 0.950 . S
C1715 C1711 1.393 . S
C1715 C1714 1.391 . S
H1716 C1724 0.950 . S
H1717 C1729 0.950 . S
H1718 C1726 0.950 . S
H1719 C1728 0.950 . S
H1720 C1730 0.950 . S
H1721 C1732 0.950 . S
H1722 C1734 0.950 . S
H1723 C1735 0.950 . S
C1724 H1716 0.950 . S
C1724 C1725 1.386 . S
C1724 C1726 1.391 . S
C1725 C1724 1.386 . S
C1725 C1729 1.393 . S
C1726 H1718 0.950 . S
C1726 C1724 1.391 . S
C1726 C1727 1.400 . S
C1727 C1726 1.400 . S
C1727 C1728 1.398 . S
C1727 C1733 1.491 . S
C1728 H1719 0.950 . S
C1728 C1727 1.398 . S
C1728 C1729 1.391 . S
C1729 H1717 0.950 . S
C1729 C1725 1.393 . S
C1729 C1728 1.391 . S
C1730 H1720 0.950 . S
C1730 C1731 1.386 . S
C1730 C1732 1.391 . S
C1731 C1730 1.386 . S
C1731 C1735 1.393 . S
C1732 H1721 0.950 . S
C1732 C1730 1.391 . S
C1732 C1733 1.400 . S
C1733 C1727 1.491 . S
C1733 C1732 1.400 . S
C1733 C1734 1.398 . S
C1734 H1722 0.950 . S
C1734 C1733 1.398 . S
C1734 C1735 1.391 . S
C1735 H1723 0.950 . S
C1735 C1731 1.393 . S
C1735 C1734 1.391 . S
H1736 C1744 0.950 . S
H1737 C1749 0.950 . S
H1738 C1746 0.950 . S
H1739 C1748 0.950 . S
H1740 C1750 0.950 . S
H1741 C1752 0.950 . S
H1742 C1754 0.950 . S
H1743 C1755 0.950 . S
C1744 H1736 0.950 . S
C1744 C1745 1.386 . S
C1744 C1746 1.391 . S
C1745 C1744 1.386 . S
C1745 C1749 1.393 . S
C1746 H1738 0.950 . S
C1746 C1744 1.391 . S
C1746 C1747 1.400 . S
C1747 C1746 1.400 . S
C1747 C1748 1.398 . S
C1747 C1753 1.491 . S
C1748 H1739 0.950 . S
C1748 C1747 1.398 . S
C1748 C1749 1.391 . S
C1749 H1737 0.950 . S
C1749 C1745 1.393 . S
C1749 C1748 1.391 . S
C1750 H1740 0.950 . S
C1750 C1751 1.386 . S
C1750 C1752 1.391 . S
C1751 C1750 1.386 . S
C1751 C1755 1.393 . S
C1752 H1741 0.950 . S
C1752 C1750 1.391 . S
C1752 C1753 1.400 . S
C1753 C1747 1.491 . S
C1753 C1752 1.400 . S
C1753 C1754 1.398 . S
C1754 H1742 0.950 . S
C1754 C1753 1.398 . S
C1754 C1755 1.391 . S
C1755 H1743 0.950 . S
C1755 C1751 1.393 . S
C1755 C1754 1.391 . S
H1756 C1764 0.950 . S
H1757 C1769 0.950 . S
H1758 C1766 0.950 . S
H1759 C1768 0.950 . S
H1760 C1770 0.950 . S
H1761 C1772 0.950 . S
H1762 C1774 0.950 . S
H1763 C1775 0.950 . S
C1764 H1756 0.950 . S
C1764 C1765 1.386 . S
C1764 C1766 1.391 . S
C1765 C1764 1.386 . S
C1765 C1769 1.393 . S
C1766 H1758 0.950 . S
C1766 C1764 1.391 . S
C1766 C1767 1.400 . S
C1767 C1766 1.400 . S
C1767 C1768 1.398 . S
C1767 C1773 1.491 1_556 S
C1768 H1759 0.950 . S
C1768 C1767 1.398 . S
C1768 C1769 1.391 . S
C1769 H1757 0.950 . S
C1769 C1765 1.393 . S
C1769 C1768 1.391 . S
C1770 H1760 0.950 . S
C1770 C1771 1.386 . S
C1770 C1772 1.391 . S
C1771 C1770 1.386 . S
C1771 C1775 1.393 . S
C1772 H1761 0.950 . S
C1772 C1770 1.391 . S
C1772 C1773 1.400 . S
C1773 C1767 1.491 1_554 S
C1773 C1772 1.400 . S
C1773 C1774 1.398 . S
C1774 H1762 0.950 . S
C1774 C1773 1.398 . S
C1774 C1775 1.391 . S
C1775 H1763 0.950 . S
C1775 C1771 1.393 . S
C1775 C1774 1.391 . S
H1776 C1784 0.950 . S
H1777 C1789 0.950 . S
H1778 C1786 0.950 . S
H1779 C1788 0.950 . S
H1780 C1790 0.950 . S
H1781 C1792 0.950 . S
H1782 C1794 0.950 . S
H1783 C1795 0.950 . S
C1784 H1776 0.950 . S
C1784 C1785 1.386 . S
C1784 C1786 1.391 . S
C1785 C1784 1.386 . S
C1785 C1789 1.393 . S
C1786 H1778 0.950 . S
C1786 C1784 1.391 . S
C1786 C1787 1.400 . S
C1787 C1786 1.400 . S
C1787 C1788 1.398 . S
C1787 C1793 1.491 . S
C1788 H1779 0.950 . S
C1788 C1787 1.398 . S
C1788 C1789 1.391 . S
C1789 H1777 0.950 . S
C1789 C1785 1.393 . S
C1789 C1788 1.391 . S
C1790 H1780 0.950 . S
C1790 C1791 1.386 . S
C1790 C1792 1.391 . S
C1791 C1790 1.386 . S
C1791 C1795 1.393 . S
C1792 H1781 0.950 . S
C1792 C1790 1.391 . S
C1792 C1793 1.400 . S
C1793 C1787 1.491 . S
C1793 C1792 1.400 . S
C1793 C1794 1.398 . S
C1794 H1782 0.950 . S
C1794 C1793 1.398 . S
C1794 C1795 1.391 . S
C1795 H1783 0.950 . S
C1795 C1791 1.393 . S
C1795 C1794 1.391 . S
H1796 C1804 0.950 . S
H1797 C1809 0.950 . S
H1798 C1806 0.950 . S
H1799 C1808 0.950 . S
H1800 C1810 0.950 . S
H1801 C1812 0.950 . S
H1802 C1814 0.950 . S
H1803 C1815 0.950 . S
C1804 H1796 0.950 . S
C1804 C1805 1.386 . S
C1804 C1806 1.391 . S
C1805 C1804 1.386 . S
C1805 C1809 1.393 . S
C1806 H1798 0.950 . S
C1806 C1804 1.391 . S
C1806 C1807 1.400 . S
C1807 C1806 1.400 . S
C1807 C1808 1.398 . S
C1807 C1813 1.491 . S
C1808 H1799 0.950 . S
C1808 C1807 1.398 . S
C1808 C1809 1.391 . S
C1809 H1797 0.950 . S
C1809 C1805 1.393 . S
C1809 C1808 1.391 . S
C1810 H1800 0.950 . S
C1810 C1811 1.386 . S
C1810 C1812 1.391 . S
C1811 C1810 1.386 . S
C1811 C1815 1.393 . S
C1812 H1801 0.950 . S
C1812 C1810 1.391 . S
C1812 C1813 1.400 . S
C1813 C1807 1.491 . S
C1813 C1812 1.400 . S
C1813 C1814 1.398 . S
C1814 H1802 0.950 . S
C1814 C1813 1.398 . S
C1814 C1815 1.391 . S
C1815 H1803 0.950 . S
C1815 C1811 1.393 . S
C1815 C1814 1.391 . S
H1816 C1824 0.950 . S
H1817 C1829 0.950 . S
H1818 C1826 0.950 . S
H1819 C1828 0.950 . S
H1820 C1830 0.950 . S
H1821 C1832 0.950 . S
H1822 C1834 0.950 . S
H1823 C1835 0.950 . S
C1824 H1816 0.950 . S
C1824 C1825 1.386 . S
C1824 C1826 1.391 . S
C1825 C1824 1.386 . S
C1825 C1829 1.393 . S
C1826 H1818 0.950 . S
C1826 C1824 1.391 . S
C1826 C1827 1.400 . S
C1827 C1826 1.400 . S
C1827 C1828 1.398 . S
C1827 C1833 1.491 . S
C1828 H1819 0.950 . S
C1828 C1827 1.398 . S
C1828 C1829 1.391 . S
C1829 H1817 0.950 . S
C1829 C1825 1.393 . S
C1829 C1828 1.391 . S
C1830 H1820 0.950 . S
C1830 C1831 1.386 . S
C1830 C1832 1.391 . S
C1831 C1830 1.386 . S
C1831 C1835 1.393 . S
C1832 H1821 0.950 . S
C1832 C1830 1.391 . S
C1832 C1833 1.400 . S
C1833 C1827 1.491 . S
C1833 C1832 1.400 . S
C1833 C1834 1.398 . S
C1834 H1822 0.950 . S
C1834 C1833 1.398 . S
C1834 C1835 1.391 . S
C1835 H1823 0.950 . S
C1835 C1831 1.393 . S
C1835 C1834 1.391 . S
H1836 C1844 0.950 . S
H1837 C1849 0.950 . S
H1838 C1846 0.950 . S
H1839 C1848 0.950 . S
H1840 C1850 0.950 . S
H1841 C1852 0.950 . S
H1842 C1854 0.950 . S
H1843 C1855 0.950 . S
C1844 H1836 0.950 . S
C1844 C1845 1.386 . S
C1844 C1846 1.391 . S
C1845 C1844 1.386 . S
C1845 C1849 1.393 . S
C1846 H1838 0.950 . S
C1846 C1844 1.391 . S
C1846 C1847 1.400 . S
C1847 C1846 1.400 . S
C1847 C1848 1.398 . S
C1847 C1853 1.491 . S
C1848 H1839 0.950 . S
C1848 C1847 1.398 . S
C1848 C1849 1.391 . S
C1849 H1837 0.950 . S
C1849 C1845 1.393 . S
C1849 C1848 1.391 . S
C1850 H1840 0.950 . S
C1850 C1851 1.386 . S
C1850 C1852 1.391 1_556 S
C1851 C1850 1.386 . S
C1851 C1855 1.393 . S
C1852 H1841 0.950 . S
C1852 C1850 1.391 1_554 S
C1852 C1853 1.400 . S
C1853 C1847 1.491 . S
C1853 C1852 1.400 . S
C1853 C1854 1.398 1_554 S
C1854 H1842 0.950 . S
C1854 C1853 1.398 1_556 S
C1854 C1855 1.391 . S
C1855 H1843 0.950 . S
C1855 C1851 1.393 . S
C1855 C1854 1.391 . S
H1856 C1864 0.950 . S
H1857 C1869 0.950 . S
H1858 C1866 0.950 . S
H1859 C1868 0.950 . S
H1860 C1870 0.950 . S
H1861 C1872 0.950 . S
H1862 C1874 0.950 . S
H1863 C1875 0.950 . S
C1864 H1856 0.950 . S
C1864 C1865 1.386 . S
C1864 C1866 1.391 . S
C1865 C1864 1.386 . S
C1865 C1869 1.393 . S
C1866 H1858 0.950 . S
C1866 C1864 1.391 . S
C1866 C1867 1.400 . S
C1867 C1866 1.400 . S
C1867 C1868 1.398 . S
C1867 C1873 1.491 . S
C1868 H1859 0.950 . S
C1868 C1867 1.398 . S
C1868 C1869 1.391 . S
C1869 H1857 0.950 . S
C1869 C1865 1.393 . S
C1869 C1868 1.391 . S
C1870 H1860 0.950 . S
C1870 C1871 1.386 . S
C1870 C1872 1.391 . S
C1871 C1870 1.386 . S
C1871 C1875 1.393 . S
C1872 H1861 0.950 . S
C1872 C1870 1.391 . S
C1872 C1873 1.400 . S
C1873 C1867 1.491 . S
C1873 C1872 1.400 . S
C1873 C1874 1.398 . S
C1874 H1862 0.950 . S
C1874 C1873 1.398 . S
C1874 C1875 1.391 . S
C1875 H1863 0.950 . S
C1875 C1871 1.393 . S
C1875 C1874 1.391 . S
H1876 C1884 0.950 . S
H1877 C1889 0.950 . S
H1878 C1886 0.950 . S
H1879 C1888 0.950 . S
H1880 C1890 0.950 . S
H1881 C1892 0.950 1_565 S
H1882 C1894 0.950 . S
H1883 C1895 0.950 . S
C1884 H1876 0.950 . S
C1884 C1885 1.386 . S
C1884 C1886 1.391 . S
C1885 C1884 1.386 . S
C1885 C1889 1.393 . S
C1886 H1878 0.950 . S
C1886 C1884 1.391 . S
C1886 C1887 1.400 . S
C1887 C1886 1.400 . S
C1887 C1888 1.398 . S
C1887 C1893 1.527 . S
C1888 H1879 0.950 . S
C1888 C1887 1.398 . S
C1888 C1889 1.391 . S
C1889 H1877 0.950 . S
C1889 C1885 1.393 . S
C1889 C1888 1.391 . S
C1890 H1880 0.950 . S
C1890 C1891 1.386 . S
C1890 C1892 1.391 . S
C1891 C1890 1.386 . S
C1891 C1895 1.393 . S
C1892 H1881 0.950 1_545 S
C1892 C1890 1.391 . S
C1892 C1893 1.394 1_545 S
C1893 C1887 1.527 . S
C1893 C1892 1.394 1_565 S
C1893 C1894 1.368 1_565 S
C1894 H1882 0.950 . S
C1894 C1893 1.368 1_545 S
C1894 C1895 1.391 . S
C1895 H1883 0.950 . S
C1895 C1891 1.393 . S
C1895 C1894 1.391 . S
H1896 C1904 0.950 . S
H1897 C1909 0.950 . S
H1898 C1906 0.950 . S
H1899 C1908 0.950 . S
H1900 C1910 0.950 . S
H1901 C1912 0.950 . S
H1902 C1914 0.950 . S
H1903 C1915 0.950 . S
C1904 H1896 0.950 . S
C1904 C1905 1.386 . S
C1904 C1906 1.391 . S
C1905 C1904 1.386 . S
C1905 C1909 1.393 . S
C1906 H1898 0.950 . S
C1906 C1904 1.391 . S
C1906 C1907 1.400 . S
C1907 C1906 1.400 . S
C1907 C1908 1.398 . S
C1907 C1913 1.491 . S
C1908 H1899 0.950 . S
C1908 C1907 1.398 . S
C1908 C1909 1.391 . S
C1909 H1897 0.950 . S
C1909 C1905 1.393 . S
C1909 C1908 1.391 . S
C1910 H1900 0.950 . S
C1910 C1911 1.386 . S
C1910 C1912 1.391 . S
C1911 C1910 1.386 . S
C1911 C1915 1.393 . S
C1912 H1901 0.950 . S
C1912 C1910 1.391 . S
C1912 C1913 1.400 . S
C1913 C1907 1.491 . S
C1913 C1912 1.400 . S
C1913 C1914 1.398 . S
C1914 H1902 0.950 . S
C1914 C1913 1.398 . S
C1914 C1915 1.391 . S
C1915 H1903 0.950 . S
C1915 C1911 1.393 . S
C1915 C1914 1.391 . S
H1916 C1924 0.950 . S
H1917 C1929 0.950 . S
H1918 C1926 0.950 . S
H1919 C1928 0.950 . S
H1920 C1930 0.950 . S
H1921 C1932 0.980 . S
H1922 C1934 0.950 . S
H1923 C1935 0.950 . S
C1924 H1916 0.950 . S
C1924 C1925 1.386 . S
C1924 C1926 1.391 . S
C1925 C1924 1.386 . S
C1925 C1929 1.393 . S
C1926 H1918 0.950 . S
C1926 C1924 1.391 . S
C1926 C1927 1.400 . S
C1927 C1926 1.400 . S
C1927 C1928 1.398 . S
C1927 C1933 1.491 . S
C1928 H1919 0.950 . S
C1928 C1927 1.398 . S
C1928 C1929 1.391 . S
C1929 H1917 0.950 . S
C1929 C1925 1.393 . S
C1929 C1928 1.391 . S
C1930 H1920 0.950 . S
C1930 C1931 1.386 . S
C1930 C1932 1.358 1_565 S
C1931 C1930 1.386 . S
C1931 C1935 1.393 . S
C1932 H1921 0.980 . S
C1932 C1930 1.358 1_545 S
C1932 C1933 1.405 . S
C1933 C1927 1.491 . S
C1933 C1932 1.405 . S
C1933 C1934 1.398 1_545 S
C1934 H1922 0.950 . S
C1934 C1933 1.398 1_565 S
C1934 C1935 1.391 . S
C1935 H1923 0.950 . S
C1935 C1931 1.393 . S
C1935 C1934 1.391 . S
H1936 C1944 0.950 . S
H1937 C1949 0.950 . S
H1938 C1946 0.950 . S
H1939 C1948 0.950 . S
H1940 C1950 0.950 . S
H1941 C1952 0.950 . S
H1942 C1954 0.950 . S
H1943 C1955 0.950 . S
C1944 H1936 0.950 . S
C1944 C1945 1.386 . S
C1944 C1946 1.391 . S
C1945 C1944 1.386 . S
C1945 C1949 1.393 . S
C1946 H1938 0.950 . S
C1946 C1944 1.391 . S
C1946 C1947 1.400 . S
C1947 C1946 1.400 . S
C1947 C1948 1.398 . S
C1947 C1953 1.491 . S
C1948 H1939 0.950 . S
C1948 C1947 1.398 . S
C1948 C1949 1.391 . S
C1949 H1937 0.950 . S
C1949 C1945 1.393 . S
C1949 C1948 1.391 . S
C1950 H1940 0.950 . S
C1950 C1951 1.386 . S
C1950 C1952 1.391 . S
C1951 C1950 1.386 . S
C1951 C1955 1.393 . S
C1952 H1941 0.950 . S
C1952 C1950 1.391 . S
C1952 C1953 1.400 . S
C1953 C1947 1.491 . S
C1953 C1952 1.400 . S
C1953 C1954 1.398 . S
C1954 H1942 0.950 . S
C1954 C1953 1.398 . S
C1954 C1955 1.391 . S
C1955 H1943 0.950 . S
C1955 C1951 1.393 . S
C1955 C1954 1.391 . S
H1956 C1964 0.950 . S
H1957 C1969 0.950 . S
H1958 C1966 0.950 . S
H1959 C1968 0.950 . S
H1960 C1970 0.950 . S
H1961 C1972 0.950 . S
H1962 C1974 0.959 . S
H1963 C1975 0.950 . S
C1964 H1956 0.950 . S
C1964 C1965 1.386 . S
C1964 C1966 1.391 . S
C1965 C1964 1.386 . S
C1965 C1969 1.393 . S
C1966 H1958 0.950 . S
C1966 C1964 1.391 . S
C1966 C1967 1.400 . S
C1967 C1966 1.400 . S
C1967 C1968 1.398 . S
C1967 C1973 1.491 1_565 S
C1968 H1959 0.950 . S
C1968 C1967 1.398 . S
C1968 C1969 1.391 . S
C1969 H1957 0.950 . S
C1969 C1965 1.393 . S
C1969 C1968 1.391 . S
C1970 H1960 0.950 . S
C1970 C1971 1.386 . S
C1970 C1972 1.391 . S
C1971 C1970 1.386 . S
C1971 C1975 1.393 . S
C1972 H1961 0.950 . S
C1972 C1970 1.391 . S
C1972 C1973 1.400 . S
C1973 C1967 1.491 1_545 S
C1973 C1972 1.400 . S
C1973 C1974 1.398 . S
C1974 H1962 0.959 . S
C1974 C1973 1.398 . S
C1974 C1975 1.391 . S
C1975 H1963 0.950 . S
C1975 C1971 1.393 . S
C1975 C1974 1.391 . S
H1976 C1984 0.950 . S
H1977 C1989 0.950 . S
H1978 C1986 0.950 . S
H1979 C1988 0.950 . S
H1980 C1990 0.950 . S
H1981 C1992 0.950 . S
H1982 C1994 0.950 . S
H1983 C1995 0.950 . S
C1984 H1976 0.950 . S
C1984 C1985 1.386 . S
C1984 C1986 1.391 . S
C1985 C1984 1.386 . S
C1985 C1989 1.393 . S
C1986 H1978 0.950 . S
C1986 C1984 1.391 . S
C1986 C1987 1.400 . S
C1987 C1986 1.400 . S
C1987 C1988 1.398 . S
C1987 C1993 1.491 . S
C1988 H1979 0.950 . S
C1988 C1987 1.398 . S
C1988 C1989 1.391 . S
C1989 H1977 0.950 . S
C1989 C1985 1.393 . S
C1989 C1988 1.391 . S
C1990 H1980 0.950 . S
C1990 C1991 1.386 . S
C1990 C1992 1.391 . S
C1991 C1990 1.386 . S
C1991 C1995 1.393 . S
C1992 H1981 0.950 . S
C1992 C1990 1.391 . S
C1992 C1993 1.400 . S
C1993 C1987 1.491 . S
C1993 C1992 1.400 . S
C1993 C1994 1.398 . S
C1994 H1982 0.950 . S
C1994 C1993 1.398 . S
C1994 C1995 1.391 . S
C1995 H1983 0.950 . S
C1995 C1991 1.393 . S
C1995 C1994 1.391 . S
H1996 C2004 0.950 . S
H1997 C2009 0.950 . S
H1998 C2006 0.950 . S
H1999 C2008 0.950 . S
H2000 C2010 0.950 . S
H2001 C2012 0.950 . S
H2002 C2014 0.950 . S
H2003 C2015 0.950 . S
C2004 H1996 0.950 . S
C2004 C2005 1.386 . S
C2004 C2006 1.391 . S
C2005 C2004 1.386 . S
C2005 C2009 1.393 . S
C2006 H1998 0.950 . S
C2006 C2004 1.391 . S
C2006 C2007 1.400 . S
C2007 C2006 1.400 . S
C2007 C2008 1.398 . S
C2007 C2013 1.491 . S
C2008 H1999 0.950 . S
C2008 C2007 1.398 . S
C2008 C2009 1.391 . S
C2009 H1997 0.950 . S
C2009 C2005 1.393 . S
C2009 C2008 1.391 . S
C2010 H2000 0.950 . S
C2010 C2011 1.386 . S
C2010 C2012 1.391 . S
C2011 C2010 1.386 . S
C2011 C2015 1.393 . S
C2012 H2001 0.950 . S
C2012 C2010 1.391 . S
C2012 C2013 1.400 1_565 S
C2013 C2007 1.491 . S
C2013 C2012 1.400 1_545 S
C2013 C2014 1.398 . S
C2014 H2002 0.950 . S
C2014 C2013 1.398 . S
C2014 C2015 1.391 1_545 S
C2015 H2003 0.950 . S
C2015 C2011 1.393 . S
C2015 C2014 1.391 1_565 S
H2016 C2024 0.950 . S
H2017 C2029 0.950 . S
H2018 C2026 0.950 . S
H2019 C2028 0.950 . S
H2020 C2030 0.950 . S
H2021 C2032 0.950 . S
H2022 C2034 0.950 . S
H2023 C2035 0.950 . S
C2024 H2016 0.950 . S
C2024 C2025 1.386 . S
C2024 C2026 1.391 . S
C2025 C2024 1.386 . S
C2025 C2029 1.393 . S
C2026 H2018 0.950 . S
C2026 C2024 1.391 . S
C2026 C2027 1.400 . S
C2027 C2026 1.400 . S
C2027 C2028 1.398 . S
C2027 C2033 1.491 . S
C2028 H2019 0.950 . S
C2028 C2027 1.398 . S
C2028 C2029 1.391 . S
C2029 H2017 0.950 . S
C2029 C2025 1.393 . S
C2029 C2028 1.391 . S
C2030 H2020 0.950 . S
C2030 C2031 1.386 . S
C2030 C2032 1.391 . S
C2031 C2030 1.386 . S
C2031 C2035 1.393 . S
C2032 H2021 0.950 . S
C2032 C2030 1.391 . S
C2032 C2033 1.400 . S
C2033 C2027 1.491 . S
C2033 C2032 1.400 . S
C2033 C2034 1.398 . S
C2034 H2022 0.950 . S
C2034 C2033 1.398 . S
C2034 C2035 1.391 . S
C2035 H2023 0.950 . S
C2035 C2031 1.393 . S
C2035 C2034 1.391 . S
H2036 C2044 0.950 . S
H2037 C2049 0.950 . S
H2038 C2046 0.950 . S
H2039 C2048 0.950 . S
H2040 C2050 0.950 . S
H2041 C2052 0.950 . S
H2042 C2054 0.950 . S
H2043 C2055 0.950 . S
C2044 H2036 0.950 . S
C2044 C2045 1.386 . S
C2044 C2046 1.391 . S
C2045 C2044 1.386 . S
C2045 C2049 1.393 . S
C2046 H2038 0.950 . S
C2046 C2044 1.391 . S
C2046 C2047 1.400 . S
C2047 C2046 1.400 . S
C2047 C2048 1.398 . S
C2047 C2053 1.491 . S
C2048 H2039 0.950 . S
C2048 C2047 1.398 . S
C2048 C2049 1.391 . S
C2049 H2037 0.950 . S
C2049 C2045 1.393 . S
C2049 C2048 1.391 . S
C2050 H2040 0.950 . S
C2050 C2051 1.386 . S
C2050 C2052 1.391 . S
C2051 C2050 1.386 . S
C2051 C2055 1.393 . S
C2052 H2041 0.950 . S
C2052 C2050 1.391 . S
C2052 C2053 1.400 . S
C2053 C2047 1.491 . S
C2053 C2052 1.400 . S
C2053 C2054 1.398 . S
C2054 H2042 0.950 . S
C2054 C2053 1.398 . S
C2054 C2055 1.391 . S
C2055 H2043 0.950 . S
C2055 C2051 1.393 . S
C2055 C2054 1.391 . S
H2056 C2064 0.950 . S
H2057 C2069 0.950 . S
H2058 C2066 0.950 . S
H2059 C2068 0.950 . S
H2060 C2070 0.950 . S
H2061 C2072 0.950 1_655 S
H2062 C2074 0.950 . S
H2063 C2075 0.950 . S
C2064 H2056 0.950 . S
C2064 C2065 1.386 . S
C2064 C2066 1.391 . S
C2065 C2064 1.386 . S
C2065 C2069 1.393 . S
C2066 H2058 0.950 . S
C2066 C2064 1.391 . S
C2066 C2067 1.400 . S
C2067 C2066 1.400 . S
C2067 C2068 1.398 . S
C2067 C2073 1.521 . S
C2068 H2059 0.950 . S
C2068 C2067 1.398 . S
C2068 C2069 1.391 . S
C2069 H2057 0.950 . S
C2069 C2065 1.393 . S
C2069 C2068 1.391 . S
C2070 H2060 0.950 . S
C2070 C2071 1.386 . S
C2070 C2072 1.391 . S
C2071 C2070 1.386 . S
C2071 C2075 1.393 . S
C2072 H2061 0.950 1_455 S
C2072 C2070 1.391 . S
C2072 C2073 1.399 1_455 S
C2073 C2067 1.521 . S
C2073 C2072 1.399 1_655 S
C2073 C2074 1.369 1_655 S
C2074 H2062 0.950 . S
C2074 C2073 1.369 1_455 S
C2074 C2075 1.391 . S
C2075 H2063 0.950 . S
C2075 C2071 1.393 . S
C2075 C2074 1.391 . S
H2076 C2084 0.950 . S
H2077 C2089 0.950 . S
H2078 C2086 0.950 . S
H2079 C2088 0.950 . S
H2080 C2090 0.950 . S
H2081 C2092 0.950 . S
H2082 C2094 0.950 . S
H2083 C2095 0.950 . S
C2084 H2076 0.950 . S
C2084 C2085 1.386 . S
C2084 C2086 1.391 . S
C2085 C2084 1.386 . S
C2085 C2089 1.393 . S
C2086 H2078 0.950 . S
C2086 C2084 1.391 . S
C2086 C2087 1.400 . S
C2087 C2086 1.400 . S
C2087 C2088 1.398 . S
C2087 C2093 1.491 . S
C2088 H2079 0.950 . S
C2088 C2087 1.398 . S
C2088 C2089 1.391 . S
C2089 H2077 0.950 . S
C2089 C2085 1.393 . S
C2089 C2088 1.391 . S
C2090 H2080 0.950 . S
C2090 C2091 1.386 . S
C2090 C2092 1.391 . S
C2091 C2090 1.386 . S
C2091 C2095 1.393 . S
C2092 H2081 0.950 . S
C2092 C2090 1.391 . S
C2092 C2093 1.400 . S
C2093 C2087 1.491 . S
C2093 C2092 1.400 . S
C2093 C2094 1.398 . S
C2094 H2082 0.950 . S
C2094 C2093 1.398 . S
C2094 C2095 1.391 . S
C2095 H2083 0.950 . S
C2095 C2091 1.393 . S
C2095 C2094 1.391 . S
H2096 C2104 0.950 . S
H2097 C2109 0.950 . S
H2098 C2106 0.950 . S
H2099 C2108 0.950 . S
H2100 C2110 0.950 . S
H2101 C2112 0.950 . S
H2102 C2114 0.950 . S
H2103 C2115 0.950 . S
C2104 H2096 0.950 . S
C2104 C2105 1.386 . S
C2104 C2106 1.391 . S
C2105 C2104 1.386 . S
C2105 C2109 1.393 . S
C2106 H2098 0.950 . S
C2106 C2104 1.391 . S
C2106 C2107 1.400 . S
C2107 C2106 1.400 . S
C2107 C2108 1.398 . S
C2107 C2113 1.491 . S
C2108 H2099 0.950 . S
C2108 C2107 1.398 . S
C2108 C2109 1.391 . S
C2109 H2097 0.950 . S
C2109 C2105 1.393 . S
C2109 C2108 1.391 . S
C2110 H2100 0.950 . S
C2110 C2111 1.386 . S
C2110 C2112 1.391 1_655 S
C2111 C2110 1.386 . S
C2111 C2115 1.393 . S
C2112 H2101 0.950 . S
C2112 C2110 1.391 1_455 S
C2112 C2113 1.400 . S
C2113 C2107 1.491 . S
C2113 C2112 1.400 . S
C2113 C2114 1.398 1_455 S
C2114 H2102 0.950 . S
C2114 C2113 1.398 1_655 S
C2114 C2115 1.391 . S
C2115 H2103 0.950 . S
C2115 C2111 1.393 . S
C2115 C2114 1.391 . S
H2116 C2124 0.950 . S
H2117 C2129 0.950 . S
H2118 C2126 0.950 . S
H2119 C2128 0.950 . S
H2120 C2130 0.950 . S
H2121 C2132 0.950 . S
H2122 C2134 0.950 . S
H2123 C2135 0.950 . S
C2124 H2116 0.950 . S
C2124 C2125 1.386 . S
C2124 C2126 1.391 . S
C2125 C2124 1.386 . S
C2125 C2129 1.393 . S
C2126 H2118 0.950 . S
C2126 C2124 1.391 . S
C2126 C2127 1.400 . S
C2127 C2126 1.400 . S
C2127 C2128 1.398 . S
C2127 C2133 1.491 . S
C2128 H2119 0.950 . S
C2128 C2127 1.398 . S
C2128 C2129 1.391 . S
C2129 H2117 0.950 . S
C2129 C2125 1.393 . S
C2129 C2128 1.391 . S
C2130 H2120 0.950 . S
C2130 C2131 1.386 . S
C2130 C2132 1.391 . S
C2131 C2130 1.386 . S
C2131 C2135 1.393 . S
C2132 H2121 0.950 . S
C2132 C2130 1.391 . S
C2132 C2133 1.400 . S
C2133 C2127 1.491 . S
C2133 C2132 1.400 . S
C2133 C2134 1.398 . S
C2134 H2122 0.950 . S
C2134 C2133 1.398 . S
C2134 C2135 1.391 . S
C2135 H2123 0.950 . S
C2135 C2131 1.393 . S
C2135 C2134 1.391 . S
H2136 C2144 0.950 . S
H2137 C2149 0.950 . S
H2138 C2146 0.950 . S
H2139 C2148 0.950 . S
H2140 C2150 0.950 . S
H2141 C2152 0.950 1_655 S
H2142 C2154 0.950 . S
H2143 C2155 0.950 . S
C2144 H2136 0.950 . S
C2144 C2145 1.386 . S
C2144 C2146 1.391 . S
C2145 C2144 1.386 . S
C2145 C2149 1.393 . S
C2146 H2138 0.950 . S
C2146 C2144 1.391 . S
C2146 C2147 1.400 . S
C2147 C2146 1.400 . S
C2147 C2148 1.398 . S
C2147 C2153 1.491 1_655 S
C2148 H2139 0.950 . S
C2148 C2147 1.398 . S
C2148 C2149 1.391 . S
C2149 H2137 0.950 . S
C2149 C2145 1.393 . S
C2149 C2148 1.391 . S
C2150 H2140 0.950 . S
C2150 C2151 1.386 . S
C2150 C2152 1.391 . S
C2151 C2150 1.386 . S
C2151 C2155 1.393 . S
C2152 H2141 0.950 1_455 S
C2152 C2150 1.391 . S
C2152 C2153 1.400 . S
C2153 C2147 1.491 1_455 S
C2153 C2152 1.400 . S
C2153 C2154 1.398 . S
C2154 H2142 0.950 . S
C2154 C2153 1.398 . S
C2154 C2155 1.391 . S
C2155 H2143 0.950 . S
C2155 C2151 1.393 . S
C2155 C2154 1.391 . S
H2156 C2164 0.950 . S
H2157 C2169 0.950 . S
H2158 C2166 0.950 . S
H2159 C2168 0.950 . S
H2160 C2170 0.950 . S
H2161 C2172 0.950 . S
H2162 C2174 0.950 . S
H2163 C2175 0.950 . S
C2164 H2156 0.950 . S
C2164 C2165 1.386 . S
C2164 C2166 1.391 . S
C2165 C2164 1.386 . S
C2165 C2169 1.393 . S
C2166 H2158 0.950 . S
C2166 C2164 1.391 . S
C2166 C2167 1.400 . S
C2167 C2166 1.400 . S
C2167 C2168 1.398 . S
C2167 C2173 1.491 . S
C2168 H2159 0.950 . S
C2168 C2167 1.398 . S
C2168 C2169 1.391 . S
C2169 H2157 0.950 . S
C2169 C2165 1.393 . S
C2169 C2168 1.391 . S
C2170 H2160 0.950 . S
C2170 C2171 1.386 . S
C2170 C2172 1.391 . S
C2171 C2170 1.386 . S
C2171 C2175 1.393 . S
C2172 H2161 0.950 . S
C2172 C2170 1.391 . S
C2172 C2173 1.400 . S
C2173 C2167 1.491 . S
C2173 C2172 1.400 . S
C2173 C2174 1.398 . S
C2174 H2162 0.950 . S
C2174 C2173 1.398 . S
C2174 C2175 1.391 . S
C2175 H2163 0.950 . S
C2175 C2171 1.393 . S
C2175 C2174 1.391 . S
H2176 C2184 0.950 . S
H2177 C2189 0.950 . S
H2178 C2186 0.950 . S
H2179 C2188 0.950 . S
H2180 C2190 0.950 . S
H2181 C2192 0.950 . S
H2182 C2194 0.950 . S
H2183 C2195 0.950 . S
C2184 H2176 0.950 . S
C2184 C2185 1.386 . S
C2184 C2186 1.391 . S
C2185 C2184 1.386 . S
C2185 C2189 1.393 . S
C2186 H2178 0.950 . S
C2186 C2184 1.391 . S
C2186 C2187 1.400 . S
C2187 C2186 1.400 . S
C2187 C2188 1.398 . S
C2187 C2193 1.491 . S
C2188 H2179 0.950 . S
C2188 C2187 1.398 . S
C2188 C2189 1.391 . S
C2189 H2177 0.950 . S
C2189 C2185 1.393 . S
C2189 C2188 1.391 . S
C2190 H2180 0.950 . S
C2190 C2191 1.386 . S
C2190 C2192 1.391 . S
C2191 C2190 1.386 . S
C2191 C2195 1.393 . S
C2192 H2181 0.950 . S
C2192 C2190 1.391 . S
C2192 C2193 1.400 . S
C2193 C2187 1.491 . S
C2193 C2192 1.400 . S
C2193 C2194 1.398 . S
C2194 H2182 0.950 . S
C2194 C2193 1.398 . S
C2194 C2195 1.391 . S
C2195 H2183 0.950 . S
C2195 C2191 1.393 . S
C2195 C2194 1.391 . S
H2196 C2204 0.950 . S
H2197 C2209 0.950 . S
H2198 C2206 0.950 . S
H2199 C2208 0.950 . S
H2200 C2210 0.950 . S
H2201 C2212 0.950 . S
H2202 C2214 0.950 . S
H2203 C2215 0.950 . S
C2204 H2196 0.950 . S
C2204 C2205 1.386 . S
C2204 C2206 1.391 . S
C2205 C2204 1.386 . S
C2205 C2209 1.393 . S
C2206 H2198 0.950 . S
C2206 C2204 1.391 . S
C2206 C2207 1.400 . S
C2207 C2206 1.400 . S
C2207 C2208 1.398 . S
C2207 C2213 1.491 . S
C2208 H2199 0.950 . S
C2208 C2207 1.398 . S
C2208 C2209 1.391 . S
C2209 H2197 0.950 . S
C2209 C2205 1.393 . S
C2209 C2208 1.391 . S
C2210 H2200 0.950 . S
C2210 C2211 1.386 . S
C2210 C2212 1.391 . S
C2211 C2210 1.386 . S
C2211 C2215 1.393 . S
C2212 H2201 0.950 . S
C2212 C2210 1.391 . S
C2212 C2213 1.400 1_556 S
C2213 C2207 1.491 . S
C2213 C2212 1.400 1_554 S
C2213 C2214 1.398 . S
C2214 H2202 0.950 . S
C2214 C2213 1.398 . S
C2214 C2215 1.391 1_554 S
C2215 H2203 0.950 . S
C2215 C2211 1.393 . S
C2215 C2214 1.391 1_556 S
H2216 C2224 0.950 . S
H2217 C2229 0.950 . S
H2218 C2226 0.950 . S
H2219 C2228 0.950 . S
H2220 C2230 0.950 . S
H2221 C2232 0.950 . S
H2222 C2234 0.950 . S
H2223 C2235 0.950 . S
C2224 H2216 0.950 . S
C2224 C2225 1.386 . S
C2224 C2226 1.391 . S
C2225 C2224 1.386 . S
C2225 C2229 1.393 . S
C2226 H2218 0.950 . S
C2226 C2224 1.391 . S
C2226 C2227 1.400 . S
C2227 C2226 1.400 . S
C2227 C2228 1.398 . S
C2227 C2233 1.491 . S
C2228 H2219 0.950 . S
C2228 C2227 1.398 . S
C2228 C2229 1.391 . S
C2229 H2217 0.950 . S
C2229 C2225 1.393 . S
C2229 C2228 1.391 . S
C2230 H2220 0.950 . S
C2230 C2231 1.386 . S
C2230 C2232 1.391 . S
C2231 C2230 1.386 . S
C2231 C2235 1.393 . S
C2232 H2221 0.950 . S
C2232 C2230 1.391 . S
C2232 C2233 1.400 . S
C2233 C2227 1.491 . S
C2233 C2232 1.400 . S
C2233 C2234 1.398 . S
C2234 H2222 0.950 . S
C2234 C2233 1.398 . S
C2234 C2235 1.391 . S
C2235 H2223 0.950 . S
C2235 C2231 1.393 . S
C2235 C2234 1.391 . S
H2236 C2244 0.950 . S
H2237 C2249 0.950 . S
H2238 C2246 0.950 . S
H2239 C2248 0.950 . S
H2240 C2250 0.950 . S
H2241 C2252 0.950 . S
H2242 C2254 0.950 . S
H2243 C2255 0.950 . S
C2244 H2236 0.950 . S
C2244 C2245 1.386 . S
C2244 C2246 1.391 . S
C2245 C2244 1.386 . S
C2245 C2249 1.393 . S
C2246 H2238 0.950 . S
C2246 C2244 1.391 . S
C2246 C2247 1.400 . S
C2247 C2246 1.400 . S
C2247 C2248 1.398 . S
C2247 C2253 1.491 . S
C2248 H2239 0.950 . S
C2248 C2247 1.398 . S
C2248 C2249 1.391 . S
C2249 H2237 0.950 . S
C2249 C2245 1.393 . S
C2249 C2248 1.391 . S
C2250 H2240 0.950 . S
C2250 C2251 1.386 . S
C2250 C2252 1.391 . S
C2251 C2250 1.386 . S
C2251 C2255 1.393 . S
C2252 H2241 0.950 . S
C2252 C2250 1.391 . S
C2252 C2253 1.400 . S
C2253 C2247 1.491 . S
C2253 C2252 1.400 . S
C2253 C2254 1.398 . S
C2254 H2242 0.950 . S
C2254 C2253 1.398 . S
C2254 C2255 1.391 . S
C2255 H2243 0.950 . S
C2255 C2251 1.393 . S
C2255 C2254 1.391 . S
H2256 C2264 0.950 . S
H2257 C2269 0.950 . S
H2258 C2266 0.950 . S
H2259 C2268 0.950 . S
H2260 C2270 0.950 . S
H2261 C2272 0.950 . S
H2262 C2274 0.950 . S
H2263 C2275 0.950 . S
C2264 H2256 0.950 . S
C2264 C2265 1.386 . S
C2264 C2266 1.391 . S
C2265 C2264 1.386 . S
C2265 C2269 1.393 . S
C2266 H2258 0.950 . S
C2266 C2264 1.391 . S
C2266 C2267 1.400 . S
C2267 C2266 1.400 . S
C2267 C2268 1.398 . S
C2267 C2273 1.491 . S
C2268 H2259 0.950 . S
C2268 C2267 1.398 . S
C2268 C2269 1.391 . S
C2269 H2257 0.950 . S
C2269 C2265 1.393 . S
C2269 C2268 1.391 . S
C2270 H2260 0.950 . S
C2270 C2271 1.386 . S
C2270 C2272 1.391 . S
C2271 C2270 1.386 . S
C2271 C2275 1.393 . S
C2272 H2261 0.950 . S
C2272 C2270 1.391 . S
C2272 C2273 1.400 . S
C2273 C2267 1.491 . S
C2273 C2272 1.400 . S
C2273 C2274 1.398 . S
C2274 H2262 0.950 . S
C2274 C2273 1.398 . S
C2274 C2275 1.391 . S
C2275 H2263 0.950 . S
C2275 C2271 1.393 . S
C2275 C2274 1.391 . S
H2276 C2284 0.950 . S
H2277 C2289 0.950 . S
H2278 C2286 0.950 . S
H2279 C2288 0.950 . S
H2280 C2290 0.950 . S
H2281 C2292 0.950 1_556 S
H2282 C2294 0.950 . S
H2283 C2295 0.950 . S
C2284 H2276 0.950 . S
C2284 C2285 1.386 . S
C2284 C2286 1.391 . S
C2285 C2284 1.386 . S
C2285 C2289 1.393 . S
C2286 H2278 0.950 . S
C2286 C2284 1.391 . S
C2286 C2287 1.400 . S
C2287 C2286 1.400 . S
C2287 C2288 1.398 . S
C2287 C2293 1.491 1_556 S
C2288 H2279 0.950 . S
C2288 C2287 1.398 . S
C2288 C2289 1.391 . S
C2289 H2277 0.950 . S
C2289 C2285 1.393 . S
C2289 C2288 1.391 . S
C2290 H2280 0.950 . S
C2290 C2291 1.386 . S
C2290 C2292 1.391 . S
C2291 C2290 1.386 . S
C2291 C2295 1.393 . S
C2292 H2281 0.950 1_554 S
C2292 C2290 1.391 . S
C2292 C2293 1.400 . S
C2293 C2287 1.491 1_554 S
C2293 C2292 1.400 . S
C2293 C2294 1.398 . S
C2294 H2282 0.950 . S
C2294 C2293 1.398 . S
C2294 C2295 1.391 . S
C2295 H2283 0.950 . S
C2295 C2291 1.393 . S
C2295 C2294 1.391 . S
H2296 C2304 0.950 . S
H2297 C2309 0.950 . S
H2298 C2306 0.950 . S
H2299 C2308 0.950 . S
H2300 C2310 0.950 . S
H2301 C2312 0.950 . S
H2302 C2314 0.950 . S
H2303 C2315 0.950 . S
C2304 H2296 0.950 . S
C2304 C2305 1.386 . S
C2304 C2306 1.391 . S
C2305 C2304 1.386 . S
C2305 C2309 1.393 . S
C2306 H2298 0.950 . S
C2306 C2304 1.391 . S
C2306 C2307 1.400 . S
C2307 C2306 1.400 . S
C2307 C2308 1.398 . S
C2307 C2313 1.491 . S
C2308 H2299 0.950 . S
C2308 C2307 1.398 . S
C2308 C2309 1.391 . S
C2309 H2297 0.950 . S
C2309 C2305 1.393 . S
C2309 C2308 1.391 . S
C2310 H2300 0.950 . S
C2310 C2311 1.386 . S
C2310 C2312 1.391 . S
C2311 C2310 1.386 . S
C2311 C2315 1.393 . S
C2312 H2301 0.950 . S
C2312 C2310 1.391 . S
C2312 C2313 1.400 . S
C2313 C2307 1.491 . S
C2313 C2312 1.400 . S
C2313 C2314 1.398 . S
C2314 H2302 0.950 . S
C2314 C2313 1.398 . S
C2314 C2315 1.391 . S
C2315 H2303 0.950 . S
C2315 C2311 1.393 . S
C2315 C2314 1.391 . S
H2316 C2324 0.950 . S
H2317 C2329 0.950 . S
H2318 C2326 0.950 . S
H2319 C2328 0.950 . S
H2320 C2330 0.950 . S
H2321 C2332 0.950 . S
H2322 C2334 0.950 . S
H2323 C2335 0.950 . S
C2324 H2316 0.950 . S
C2324 C2325 1.386 . S
C2324 C2326 1.391 . S
C2325 C2324 1.386 . S
C2325 C2329 1.393 . S
C2326 H2318 0.950 . S
C2326 C2324 1.391 . S
C2326 C2327 1.400 . S
C2327 C2326 1.400 . S
C2327 C2328 1.398 . S
C2327 C2333 1.491 . S
C2328 H2319 0.950 . S
C2328 C2327 1.398 . S
C2328 C2329 1.391 . S
C2329 H2317 0.950 . S
C2329 C2325 1.393 . S
C2329 C2328 1.391 . S
C2330 H2320 0.950 . S
C2330 C2331 1.386 . S
C2330 C2332 1.391 . S
C2331 C2330 1.386 . S
C2331 C2335 1.393 . S
C2332 H2321 0.950 . S
C2332 C2330 1.391 . S
C2332 C2333 1.400 . S
C2333 C2327 1.491 . S
C2333 C2332 1.400 . S
C2333 C2334 1.398 . S
C2334 H2322 0.950 . S
C2334 C2333 1.398 . S
C2334 C2335 1.391 . S
C2335 H2323 0.950 . S
C2335 C2331 1.393 . S
C2335 C2334 1.391 . S
H2336 C2344 0.950 . S
H2337 C2349 0.950 . S
H2338 C2346 0.950 . S
H2339 C2348 0.950 . S
H2340 C2350 0.950 . S
H2341 C2352 0.950 . S
H2342 C2354 0.950 . S
H2343 C2355 0.950 . S
C2344 H2336 0.950 . S
C2344 C2345 1.386 . S
C2344 C2346 1.391 . S
C2345 C2344 1.386 . S
C2345 C2349 1.393 . S
C2346 H2338 0.950 . S
C2346 C2344 1.391 . S
C2346 C2347 1.400 . S
C2347 C2346 1.400 . S
C2347 C2348 1.398 . S
C2347 C2353 1.491 . S
C2348 H2339 0.950 . S
C2348 C2347 1.398 . S
C2348 C2349 1.391 . S
C2349 H2337 0.950 . S
C2349 C2345 1.393 . S
C2349 C2348 1.391 . S
C2350 H2340 0.950 . S
C2350 C2351 1.386 . S
C2350 C2352 1.391 . S
C2351 C2350 1.386 . S
C2351 C2355 1.393 . S
C2352 H2341 0.950 . S
C2352 C2350 1.391 . S
C2352 C2353 1.400 . S
C2353 C2347 1.491 . S
C2353 C2352 1.400 . S
C2353 C2354 1.398 . S
C2354 H2342 0.950 . S
C2354 C2353 1.398 . S
C2354 C2355 1.391 . S
C2355 H2343 0.950 . S
C2355 C2351 1.393 . S
C2355 C2354 1.391 . S
H2356 C2364 0.950 1_554 S
H2357 C2369 0.950 . S
H2358 C2366 0.950 . S
H2359 C2368 0.950 . S
H2360 C2370 0.950 . S
H2361 C2372 0.950 . S
H2362 C2374 0.950 . S
H2363 C2375 0.950 . S
C2364 H2356 0.950 1_556 S
C2364 C2365 1.386 . S
C2364 C2366 1.391 . S
C2365 C2364 1.386 . S
C2365 C2369 1.393 . S
C2366 H2358 0.950 . S
C2366 C2364 1.391 . S
C2366 C2367 1.400 . S
C2367 C2366 1.400 . S
C2367 C2368 1.398 . S
C2367 C2373 1.491 . S
C2368 H2359 0.950 . S
C2368 C2367 1.398 . S
C2368 C2369 1.391 . S
C2369 H2357 0.950 . S
C2369 C2365 1.393 . S
C2369 C2368 1.391 . S
C2370 H2360 0.950 . S
C2370 C2371 1.386 . S
C2370 C2372 1.391 . S
C2371 C2370 1.386 . S
C2371 C2375 1.393 . S
C2372 H2361 0.950 . S
C2372 C2370 1.391 . S
C2372 C2373 1.400 . S
C2373 C2367 1.491 . S
C2373 C2372 1.400 . S
C2373 C2374 1.398 . S
C2374 H2362 0.950 . S
C2374 C2373 1.398 . S
C2374 C2375 1.391 . S
C2375 H2363 0.950 . S
C2375 C2371 1.393 . S
C2375 C2374 1.391 . S
H2376 C2384 0.950 . S
H2377 C2389 0.950 . S
H2378 C2386 0.950 . S
H2379 C2388 0.950 . S
H2380 C2390 0.950 . S
H2381 C2392 0.950 . S
H2382 C2394 0.950 . S
H2383 C2395 0.950 . S
C2384 H2376 0.950 . S
C2384 C2385 1.386 . S
C2384 C2386 1.391 . S
C2385 C2384 1.386 . S
C2385 C2389 1.393 . S
C2386 H2378 0.950 . S
C2386 C2384 1.391 . S
C2386 C2387 1.400 . S
C2387 C2386 1.400 . S
C2387 C2388 1.398 . S
C2387 C2393 1.491 . S
C2388 H2379 0.950 . S
C2388 C2387 1.398 . S
C2388 C2389 1.391 . S
C2389 H2377 0.950 . S
C2389 C2385 1.393 . S
C2389 C2388 1.391 . S
C2390 H2380 0.950 . S
C2390 C2391 1.386 . S
C2390 C2392 1.391 . S
C2391 C2390 1.386 . S
C2391 C2395 1.393 . S
C2392 H2381 0.950 . S
C2392 C2390 1.391 . S
C2392 C2393 1.400 . S
C2393 C2387 1.491 . S
C2393 C2392 1.400 . S
C2393 C2394 1.398 . S
C2394 H2382 0.950 . S
C2394 C2393 1.398 . S
C2394 C2395 1.391 . S
C2395 H2383 0.950 . S
C2395 C2391 1.393 . S
C2395 C2394 1.391 . S
H2396 C2404 0.950 . S
H2397 C2409 0.950 . S
H2398 C2406 0.950 . S
H2399 C2408 0.950 . S
H2400 C2410 0.950 . S
H2401 C2412 0.950 . S
H2402 C2414 0.950 . S
H2403 C2415 0.950 . S
C2404 H2396 0.950 . S
C2404 C2405 1.386 . S
C2404 C2406 1.391 . S
C2405 C2404 1.386 . S
C2405 C2409 1.393 . S
C2406 H2398 0.950 . S
C2406 C2404 1.391 . S
C2406 C2407 1.400 . S
C2407 C2406 1.400 . S
C2407 C2408 1.398 . S
C2407 C2413 1.491 . S
C2408 H2399 0.950 . S
C2408 C2407 1.398 . S
C2408 C2409 1.391 . S
C2409 H2397 0.950 . S
C2409 C2405 1.393 . S
C2409 C2408 1.391 . S
C2410 H2400 0.950 . S
C2410 C2411 1.386 . S
C2410 C2412 1.391 . S
C2411 C2410 1.386 . S
C2411 C2415 1.393 . S
C2412 H2401 0.950 . S
C2412 C2410 1.391 . S
C2412 C2413 1.400 . S
C2413 C2407 1.491 . S
C2413 C2412 1.400 . S
C2413 C2414 1.398 . S
C2414 H2402 0.950 . S
C2414 C2413 1.398 . S
C2414 C2415 1.391 . S
C2415 H2403 0.950 . S
C2415 C2411 1.393 . S
C2415 C2414 1.391 . S
H2416 C2424 0.950 . S
H2417 C2429 0.950 . S
H2418 C2426 0.950 . S
H2419 C2428 0.950 . S
H2420 C2430 0.950 . S
H2421 C2432 0.950 . S
H2422 C2434 0.950 . S
H2423 C2435 0.950 . S
C2424 H2416 0.950 . S
C2424 C2425 1.386 . S
C2424 C2426 1.391 . S
C2425 C2424 1.386 . S
C2425 C2429 1.393 . S
C2426 H2418 0.950 . S
C2426 C2424 1.391 . S
C2426 C2427 1.400 . S
C2427 C2426 1.400 . S
C2427 C2428 1.398 . S
C2427 C2433 1.491 . S
C2428 H2419 0.950 . S
C2428 C2427 1.398 . S
C2428 C2429 1.391 . S
C2429 H2417 0.950 . S
C2429 C2425 1.393 . S
C2429 C2428 1.391 . S
C2430 H2420 0.950 . S
C2430 C2431 1.386 . S
C2430 C2432 1.391 . S
C2431 C2430 1.386 . S
C2431 C2435 1.393 . S
C2432 H2421 0.950 . S
C2432 C2430 1.391 . S
C2432 C2433 1.400 . S
C2433 C2427 1.491 . S
C2433 C2432 1.400 . S
C2433 C2434 1.398 . S
C2434 H2422 0.950 . S
C2434 C2433 1.398 . S
C2434 C2435 1.391 . S
C2435 H2423 0.950 . S
C2435 C2431 1.393 . S
C2435 C2434 1.391 . S
H2436 C2444 0.950 . S
H2437 C2449 0.950 . S
H2438 C2446 0.950 . S
H2439 C2448 0.950 . S
H2440 C2450 0.950 . S
H2441 C2452 0.950 . S
H2442 C2454 0.950 . S
H2443 C2455 0.950 . S
C2444 H2436 0.950 . S
C2444 C2445 1.386 . S
C2444 C2446 1.391 . S
C2445 C2444 1.386 . S
C2445 C2449 1.393 . S
C2446 H2438 0.950 . S
C2446 C2444 1.391 . S
C2446 C2447 1.400 . S
C2447 C2446 1.400 . S
C2447 C2448 1.398 . S
C2447 C2453 1.491 . S
C2448 H2439 0.950 . S
C2448 C2447 1.398 . S
C2448 C2449 1.391 . S
C2449 H2437 0.950 . S
C2449 C2445 1.393 . S
C2449 C2448 1.391 . S
C2450 H2440 0.950 . S
C2450 C2451 1.386 . S
C2450 C2452 1.391 . S
C2451 C2450 1.386 . S
C2451 C2455 1.393 . S
C2452 H2441 0.950 . S
C2452 C2450 1.391 . S
C2452 C2453 1.400 . S
C2453 C2447 1.491 . S
C2453 C2452 1.400 . S
C2453 C2454 1.398 . S
C2454 H2442 0.950 . S
C2454 C2453 1.398 . S
C2454 C2455 1.391 . S
C2455 H2443 0.950 . S
C2455 C2451 1.393 . S
C2455 C2454 1.391 . S
H2456 C2464 0.950 . S
H2457 C2469 0.950 . S
H2458 C2466 0.950 . S
H2459 C2468 0.950 . S
H2460 C2470 0.950 . S
H2461 C2472 0.950 . S
H2462 C2474 0.950 . S
H2463 C2475 0.950 . S
C2464 H2456 0.950 . S
C2464 C2465 1.386 . S
C2464 C2466 1.391 . S
C2465 C2464 1.386 . S
C2465 C2469 1.393 . S
C2466 H2458 0.950 . S
C2466 C2464 1.391 . S
C2466 C2467 1.400 . S
C2467 C2466 1.400 . S
C2467 C2468 1.398 . S
C2467 C2473 1.491 . S
C2468 H2459 0.950 . S
C2468 C2467 1.398 . S
C2468 C2469 1.391 . S
C2469 H2457 0.950 . S
C2469 C2465 1.393 . S
C2469 C2468 1.391 . S
C2470 H2460 0.950 . S
C2470 C2471 1.386 . S
C2470 C2472 1.391 . S
C2471 C2470 1.386 . S
C2471 C2475 1.393 . S
C2472 H2461 0.950 . S
C2472 C2470 1.391 . S
C2472 C2473 1.400 . S
C2473 C2467 1.491 . S
C2473 C2472 1.400 . S
C2473 C2474 1.398 . S
C2474 H2462 0.950 . S
C2474 C2473 1.398 . S
C2474 C2475 1.391 . S
C2475 H2463 0.950 . S
C2475 C2471 1.393 . S
C2475 C2474 1.391 . S
H2476 C2484 0.950 . S
H2477 C2489 0.950 . S
H2478 C2486 0.950 . S
H2479 C2488 0.950 . S
H2480 C2490 0.950 . S
H2481 C2492 0.950 . S
H2482 C2494 0.950 . S
H2483 C2495 0.950 . S
C2484 H2476 0.950 . S
C2484 C2485 1.386 . S
C2484 C2486 1.391 . S
C2485 C2484 1.386 . S
C2485 C2489 1.393 . S
C2486 H2478 0.950 . S
C2486 C2484 1.391 . S
C2486 C2487 1.400 . S
C2487 C2486 1.400 . S
C2487 C2488 1.398 . S
C2487 C2493 1.491 . S
C2488 H2479 0.950 . S
C2488 C2487 1.398 . S
C2488 C2489 1.391 . S
C2489 H2477 0.950 . S
C2489 C2485 1.393 . S
C2489 C2488 1.391 . S
C2490 H2480 0.950 . S
C2490 C2491 1.386 . S
C2490 C2492 1.391 . S
C2491 C2490 1.386 . S
C2491 C2495 1.393 . S
C2492 H2481 0.950 . S
C2492 C2490 1.391 . S
C2492 C2493 1.400 . S
C2493 C2487 1.491 . S
C2493 C2492 1.400 . S
C2493 C2494 1.398 . S
C2494 H2482 0.950 . S
C2494 C2493 1.398 . S
C2494 C2495 1.391 . S
C2495 H2483 0.950 . S
C2495 C2491 1.393 . S
C2495 C2494 1.391 . S
H2496 C2504 0.950 . S
H2497 C2509 0.950 . S
H2498 C2506 0.950 . S
H2499 C2508 0.950 . S
H2500 C2510 0.950 . S
H2501 C2512 0.950 . S
H2502 C2514 0.950 . S
H2503 C2515 0.950 . S
C2504 H2496 0.950 . S
C2504 C2505 1.386 . S
C2504 C2506 1.391 . S
C2505 C2504 1.386 . S
C2505 C2509 1.393 . S
C2506 H2498 0.950 . S
C2506 C2504 1.391 . S
C2506 C2507 1.400 . S
C2507 C2506 1.400 . S
C2507 C2508 1.398 . S
C2507 C2513 1.491 . S
C2508 H2499 0.950 . S
C2508 C2507 1.398 . S
C2508 C2509 1.391 . S
C2509 H2497 0.950 . S
C2509 C2505 1.393 . S
C2509 C2508 1.391 . S
C2510 H2500 0.950 . S
C2510 C2511 1.386 . S
C2510 C2512 1.391 . S
C2511 C2510 1.386 . S
C2511 C2515 1.393 . S
C2512 H2501 0.950 . S
C2512 C2510 1.391 . S
C2512 C2513 1.400 . S
C2513 C2507 1.491 . S
C2513 C2512 1.400 . S
C2513 C2514 1.398 . S
C2514 H2502 0.950 . S
C2514 C2513 1.398 . S
C2514 C2515 1.391 . S
C2515 H2503 0.950 . S
C2515 C2511 1.393 . S
C2515 C2514 1.391 . S
H2516 C2524 0.950 . S
H2517 C2529 0.950 . S
H2518 C2526 0.950 . S
H2519 C2528 0.950 . S
H2520 C2530 0.950 . S
H2521 C2532 0.950 . S
H2522 C2534 0.950 . S
H2523 C2535 0.950 . S
C2524 H2516 0.950 . S
C2524 C2525 1.386 . S
C2524 C2526 1.391 . S
C2525 C2524 1.386 . S
C2525 C2529 1.393 . S
C2526 H2518 0.950 . S
C2526 C2524 1.391 . S
C2526 C2527 1.400 . S
C2527 C2526 1.400 . S
C2527 C2528 1.398 . S
C2527 C2533 1.491 . S
C2528 H2519 0.950 . S
C2528 C2527 1.398 . S
C2528 C2529 1.391 . S
C2529 H2517 0.950 . S
C2529 C2525 1.393 . S
C2529 C2528 1.391 . S
C2530 H2520 0.950 . S
C2530 C2531 1.386 . S
C2530 C2532 1.391 . S
C2531 C2530 1.386 . S
C2531 C2535 1.393 . S
C2532 H2521 0.950 . S
C2532 C2530 1.391 . S
C2532 C2533 1.400 . S
C2533 C2527 1.491 . S
C2533 C2532 1.400 . S
C2533 C2534 1.398 . S
C2534 H2522 0.950 . S
C2534 C2533 1.398 . S
C2534 C2535 1.391 . S
C2535 H2523 0.950 . S
C2535 C2531 1.393 . S
C2535 C2534 1.391 . S
H2536 C2544 0.950 . S
H2537 C2549 0.950 . S
H2538 C2546 0.950 . S
H2539 C2548 0.950 . S
H2540 C2550 0.950 . S
H2541 C2552 0.950 . S
H2542 C2554 0.950 . S
H2543 C2555 0.950 . S
C2544 H2536 0.950 . S
C2544 C2545 1.386 . S
C2544 C2546 1.391 . S
C2545 C2544 1.386 . S
C2545 C2549 1.393 . S
C2546 H2538 0.950 . S
C2546 C2544 1.391 . S
C2546 C2547 1.400 . S
C2547 C2546 1.400 . S
C2547 C2548 1.398 . S
C2547 C2553 1.491 . S
C2548 H2539 0.950 . S
C2548 C2547 1.398 . S
C2548 C2549 1.391 . S
C2549 H2537 0.950 . S
C2549 C2545 1.393 . S
C2549 C2548 1.391 . S
C2550 H2540 0.950 . S
C2550 C2551 1.386 . S
C2550 C2552 1.391 . S
C2551 C2550 1.386 . S
C2551 C2555 1.393 . S
C2552 H2541 0.950 . S
C2552 C2550 1.391 . S
C2552 C2553 1.400 . S
C2553 C2547 1.491 . S
C2553 C2552 1.400 . S
C2553 C2554 1.398 . S
C2554 H2542 0.950 . S
C2554 C2553 1.398 . S
C2554 C2555 1.391 . S
C2555 H2543 0.950 . S
C2555 C2551 1.393 . S
C2555 C2554 1.391 . S
H2556 C2564 0.950 . S
H2557 C2569 0.950 . S
H2558 C2566 0.950 . S
H2559 C2568 0.950 . S
H2560 C2570 0.950 . S
H2561 C2572 0.950 . S
H2562 C2574 0.950 . S
H2563 C2575 0.950 . S
C2564 H2556 0.950 . S
C2564 C2565 1.386 . S
C2564 C2566 1.391 . S
C2565 C2564 1.386 . S
C2565 C2569 1.393 . S
C2566 H2558 0.950 . S
C2566 C2564 1.391 . S
C2566 C2567 1.400 . S
C2567 C2566 1.400 . S
C2567 C2568 1.398 . S
C2567 C2573 1.491 . S
C2568 H2559 0.950 . S
C2568 C2567 1.398 . S
C2568 C2569 1.391 . S
C2569 H2557 0.950 . S
C2569 C2565 1.393 . S
C2569 C2568 1.391 . S
C2570 H2560 0.950 . S
C2570 C2571 1.386 . S
C2570 C2572 1.391 . S
C2571 C2570 1.386 . S
C2571 C2575 1.393 . S
C2572 H2561 0.950 . S
C2572 C2570 1.391 . S
C2572 C2573 1.400 . S
C2573 C2567 1.491 . S
C2573 C2572 1.400 . S
C2573 C2574 1.398 . S
C2574 H2562 0.950 . S
C2574 C2573 1.398 . S
C2574 C2575 1.391 . S
C2575 H2563 0.950 . S
C2575 C2571 1.393 . S
C2575 C2574 1.391 . S
H2576 C2584 0.950 . S
H2577 C2589 0.950 . S
H2578 C2586 0.950 . S
H2579 C2588 0.950 . S
H2580 C2590 0.950 . S
H2581 C2592 0.950 . S
H2582 C2594 0.950 . S
H2583 C2595 0.950 . S
C2584 H2576 0.950 . S
C2584 C2585 1.386 . S
C2584 C2586 1.391 . S
C2585 C2584 1.386 . S
C2585 C2589 1.393 . S
C2586 H2578 0.950 . S
C2586 C2584 1.391 . S
C2586 C2587 1.400 . S
C2587 C2586 1.400 . S
C2587 C2588 1.398 . S
C2587 C2593 1.491 . S
C2588 H2579 0.950 . S
C2588 C2587 1.398 . S
C2588 C2589 1.391 . S
C2589 H2577 0.950 . S
C2589 C2585 1.393 . S
C2589 C2588 1.391 . S
C2590 H2580 0.950 . S
C2590 C2591 1.386 . S
C2590 C2592 1.391 . S
C2591 C2590 1.386 . S
C2591 C2595 1.393 . S
C2592 H2581 0.950 . S
C2592 C2590 1.391 . S
C2592 C2593 1.400 . S
C2593 C2587 1.491 . S
C2593 C2592 1.400 . S
C2593 C2594 1.398 . S
C2594 H2582 0.950 . S
C2594 C2593 1.398 . S
C2594 C2595 1.391 . S
C2595 H2583 0.950 . S
C2595 C2591 1.393 . S
C2595 C2594 1.391 . S
H2596 C2604 0.950 . S
H2597 C2609 0.950 . S
H2598 C2606 0.950 . S
H2599 C2608 0.950 . S
H2600 C2610 0.950 . S
H2601 C2612 0.950 . S
H2602 C2614 0.950 . S
H2603 C2615 0.950 . S
C2604 H2596 0.950 . S
C2604 C2605 1.386 . S
C2604 C2606 1.391 . S
C2605 C2604 1.386 . S
C2605 C2609 1.393 . S
C2606 H2598 0.950 . S
C2606 C2604 1.391 . S
C2606 C2607 1.400 . S
C2607 C2606 1.400 . S
C2607 C2608 1.398 . S
C2607 C2613 1.491 . S
C2608 H2599 0.950 . S
C2608 C2607 1.398 . S
C2608 C2609 1.391 . S
C2609 H2597 0.950 . S
C2609 C2605 1.393 . S
C2609 C2608 1.391 . S
C2610 H2600 0.950 . S
C2610 C2611 1.386 . S
C2610 C2612 1.391 . S
C2611 C2610 1.386 . S
C2611 C2615 1.393 . S
C2612 H2601 0.950 . S
C2612 C2610 1.391 . S
C2612 C2613 1.400 . S
C2613 C2607 1.491 . S
C2613 C2612 1.400 . S
C2613 C2614 1.398 . S
C2614 H2602 0.950 . S
C2614 C2613 1.398 . S
C2614 C2615 1.391 . S
C2615 H2603 0.950 . S
C2615 C2611 1.393 . S
C2615 C2614 1.391 . S
H2616 C2624 0.950 . S
H2617 C2629 0.950 . S
H2618 C2626 0.950 . S
H2619 C2628 0.950 . S
H2620 C2630 0.950 . S
H2621 C2632 0.950 . S
H2622 C2634 0.950 . S
H2623 C2635 0.950 . S
C2624 H2616 0.950 . S
C2624 C2625 1.386 . S
C2624 C2626 1.391 . S
C2625 C2624 1.386 . S
C2625 C2629 1.393 . S
C2626 H2618 0.950 . S
C2626 C2624 1.391 . S
C2626 C2627 1.400 . S
C2627 C2626 1.400 . S
C2627 C2628 1.398 . S
C2627 C2633 1.491 . S
C2628 H2619 0.950 . S
C2628 C2627 1.398 . S
C2628 C2629 1.391 . S
C2629 H2617 0.950 . S
C2629 C2625 1.393 . S
C2629 C2628 1.391 . S
C2630 H2620 0.950 . S
C2630 C2631 1.386 . S
C2630 C2632 1.391 . S
C2631 C2630 1.386 . S
C2631 C2635 1.393 . S
C2632 H2621 0.950 . S
C2632 C2630 1.391 . S
C2632 C2633 1.400 . S
C2633 C2627 1.491 . S
C2633 C2632 1.400 . S
C2633 C2634 1.398 . S
C2634 H2622 0.950 . S
C2634 C2633 1.398 . S
C2634 C2635 1.391 . S
C2635 H2623 0.950 . S
C2635 C2631 1.393 . S
C2635 C2634 1.391 . S
H2636 C2644 0.950 . S
H2637 C2649 0.950 1_545 S
H2638 C2646 0.950 . S
H2639 C2648 0.950 . S
H2640 C2650 0.950 . S
H2641 C2652 0.950 . S
H2642 C2654 0.950 1_655 S
H2643 C2655 0.950 . S
C2644 H2636 0.950 . S
C2644 C2645 1.386 . S
C2644 C2646 1.391 . S
C2645 C2644 1.386 . S
C2645 C2649 1.393 . S
C2646 H2638 0.950 . S
C2646 C2644 1.391 . S
C2646 C2647 1.400 . S
C2647 C2646 1.400 . S
C2647 C2648 1.398 . S
C2647 C2653 1.491 1_655 S
C2648 H2639 0.950 . S
C2648 C2647 1.398 . S
C2648 C2649 1.391 . S
C2649 H2637 0.950 1_565 S
C2649 C2645 1.393 . S
C2649 C2648 1.391 . S
C2650 H2640 0.950 . S
C2650 C2651 1.386 . S
C2650 C2652 1.391 . S
C2651 C2650 1.386 . S
C2651 C2655 1.393 . S
C2652 H2641 0.950 . S
C2652 C2650 1.391 . S
C2652 C2653 1.400 . S
C2653 C2647 1.491 1_455 S
C2653 C2652 1.400 . S
C2653 C2654 1.398 . S
C2654 H2642 0.950 1_455 S
C2654 C2653 1.398 . S
C2654 C2655 1.391 . S
C2655 H2643 0.950 . S
C2655 C2651 1.393 . S
C2655 C2654 1.391 . S
H2656 C2664 0.950 . S
H2657 C2669 0.950 . S
H2658 C2666 0.950 . S
H2659 C2668 0.950 . S
H2660 C2670 0.950 . S
H2661 C2672 0.950 . S
H2662 C2674 0.950 . S
H2663 C2675 0.950 . S
C2664 H2656 0.950 . S
C2664 C2665 1.386 . S
C2664 C2666 1.391 . S
C2665 C2664 1.386 . S
C2665 C2669 1.393 . S
C2666 H2658 0.950 . S
C2666 C2664 1.391 . S
C2666 C2667 1.400 . S
C2667 C2666 1.400 . S
C2667 C2668 1.398 . S
C2667 C2673 1.491 . S
C2668 H2659 0.950 . S
C2668 C2667 1.398 . S
C2668 C2669 1.391 . S
C2669 H2657 0.950 . S
C2669 C2665 1.393 . S
C2669 C2668 1.391 . S
C2670 H2660 0.950 . S
C2670 C2671 1.386 . S
C2670 C2672 1.391 . S
C2671 C2670 1.386 . S
C2671 C2675 1.393 . S
C2672 H2661 0.950 . S
C2672 C2670 1.391 . S
C2672 C2673 1.400 . S
C2673 C2667 1.491 . S
C2673 C2672 1.400 . S
C2673 C2674 1.398 . S
C2674 H2662 0.950 . S
C2674 C2673 1.398 . S
C2674 C2675 1.391 . S
C2675 H2663 0.950 . S
C2675 C2671 1.393 . S
C2675 C2674 1.391 . S
H2676 C2684 0.950 . S
H2677 C2689 0.950 . S
H2678 C2686 0.950 . S
H2679 C2688 0.950 1_554 S
H2680 C2690 0.950 . S
H2681 C2692 0.950 . S
H2682 C2694 0.950 1_556 S
H2683 C2695 0.950 . S
C2684 H2676 0.950 . S
C2684 C2685 1.386 . S
C2684 C2686 1.391 . S
C2685 C2684 1.386 . S
C2685 C2689 1.393 . S
C2686 H2678 0.950 . S
C2686 C2684 1.391 . S
C2686 C2687 1.400 . S
C2687 C2686 1.400 . S
C2687 C2688 1.398 . S
C2687 C2693 1.491 1_556 S
C2688 H2679 0.950 1_556 S
C2688 C2687 1.398 . S
C2688 C2689 1.391 . S
C2689 H2677 0.950 . S
C2689 C2685 1.393 . S
C2689 C2688 1.391 . S
C2690 H2680 0.950 . S
C2690 C2691 1.386 . S
C2690 C2692 1.391 . S
C2691 C2690 1.386 . S
C2691 C2695 1.393 . S
C2692 H2681 0.950 . S
C2692 C2690 1.391 . S
C2692 C2693 1.400 . S
C2693 C2687 1.491 1_554 S
C2693 C2692 1.400 . S
C2693 C2694 1.398 . S
C2694 H2682 0.950 1_554 S
C2694 C2693 1.398 . S
C2694 C2695 1.391 . S
C2695 H2683 0.950 . S
C2695 C2691 1.393 . S
C2695 C2694 1.391 . S
H2696 C2704 0.950 . S
H2697 C2709 0.950 . S
H2698 C2706 0.950 . S
H2699 C2708 0.950 . S
H2700 C2710 0.950 . S
H2701 C2712 0.950 . S
H2702 C2714 0.950 . S
H2703 C2715 0.950 . S
C2704 H2696 0.950 . S
C2704 C2705 1.386 . S
C2704 C2706 1.391 . S
C2705 C2704 1.386 . S
C2705 C2709 1.393 . S
C2706 H2698 0.950 . S
C2706 C2704 1.391 . S
C2706 C2707 1.400 . S
C2707 C2706 1.400 . S
C2707 C2708 1.398 . S
C2707 C2713 1.491 . S
C2708 H2699 0.950 . S
C2708 C2707 1.398 . S
C2708 C2709 1.391 . S
C2709 H2697 0.950 . S
C2709 C2705 1.393 . S
C2709 C2708 1.391 . S
C2710 H2700 0.950 . S
C2710 C2711 1.386 . S
C2710 C2712 1.391 . S
C2711 C2710 1.386 . S
C2711 C2715 1.393 . S
C2712 H2701 0.950 . S
C2712 C2710 1.391 . S
C2712 C2713 1.400 . S
C2713 C2707 1.491 . S
C2713 C2712 1.400 . S
C2713 C2714 1.398 . S
C2714 H2702 0.950 . S
C2714 C2713 1.398 . S
C2714 C2715 1.391 . S
C2715 H2703 0.950 . S
C2715 C2711 1.393 . S
C2715 C2714 1.391 . S
H2716 C2724 0.950 . S
H2717 C2729 0.950 . S
H2718 C2726 0.950 . S
H2719 C2728 0.950 . S
H2720 C2730 0.950 . S
H2721 C2732 0.950 . S
H2722 C2734 0.950 . S
H2723 C2735 0.950 . S
C2724 H2716 0.950 . S
C2724 C2725 1.386 . S
C2724 C2726 1.391 . S
C2725 C2724 1.386 . S
C2725 C2729 1.393 . S
C2726 H2718 0.950 . S
C2726 C2724 1.391 . S
C2726 C2727 1.400 . S
C2727 C2726 1.400 . S
C2727 C2728 1.398 . S
C2727 C2733 1.491 . S
C2728 H2719 0.950 . S
C2728 C2727 1.398 . S
C2728 C2729 1.391 . S
C2729 H2717 0.950 . S
C2729 C2725 1.393 . S
C2729 C2728 1.391 . S
C2730 H2720 0.950 . S
C2730 C2731 1.386 . S
C2730 C2732 1.391 . S
C2731 C2730 1.386 . S
C2731 C2735 1.393 . S
C2732 H2721 0.950 . S
C2732 C2730 1.391 . S
C2732 C2733 1.400 . S
C2733 C2727 1.491 . S
C2733 C2732 1.400 . S
C2733 C2734 1.398 . S
C2734 H2722 0.950 . S
C2734 C2733 1.398 . S
C2734 C2735 1.391 . S
C2735 H2723 0.950 . S
C2735 C2731 1.393 . S
C2735 C2734 1.391 . S
H2736 C2744 0.950 . S
H2737 C2749 0.950 . S
H2738 C2746 0.950 . S
H2739 C2748 0.950 . S
H2740 C2750 0.950 . S
H2741 C2752 0.950 . S
H2742 C2754 0.950 . S
H2743 C2755 0.950 . S
C2744 H2736 0.950 . S
C2744 C2745 1.386 . S
C2744 C2746 1.391 . S
C2745 C2744 1.386 . S
C2745 C2749 1.393 . S
C2746 H2738 0.950 . S
C2746 C2744 1.391 . S
C2746 C2747 1.400 . S
C2747 C2746 1.400 . S
C2747 C2748 1.398 . S
C2747 C2753 1.491 . S
C2748 H2739 0.950 . S
C2748 C2747 1.398 . S
C2748 C2749 1.391 . S
C2749 H2737 0.950 . S
C2749 C2745 1.393 . S
C2749 C2748 1.391 . S
C2750 H2740 0.950 . S
C2750 C2751 1.386 . S
C2750 C2752 1.391 . S
C2751 C2750 1.386 . S
C2751 C2755 1.393 . S
C2752 H2741 0.950 . S
C2752 C2750 1.391 . S
C2752 C2753 1.400 . S
C2753 C2747 1.491 . S
C2753 C2752 1.400 . S
C2753 C2754 1.398 . S
C2754 H2742 0.950 . S
C2754 C2753 1.398 . S
C2754 C2755 1.391 . S
C2755 H2743 0.950 . S
C2755 C2751 1.393 . S
C2755 C2754 1.391 . S
H2756 C2764 0.950 . S
H2757 C2769 0.950 . S
H2758 C2766 0.950 . S
H2759 C2768 0.950 . S
H2760 C2770 0.950 . S
H2761 C2772 0.950 . S
H2762 C2774 0.950 . S
H2763 C2775 0.950 . S
C2764 H2756 0.950 . S
C2764 C2765 1.386 . S
C2764 C2766 1.391 . S
C2765 C2764 1.386 . S
C2765 C2769 1.393 . S
C2766 H2758 0.950 . S
C2766 C2764 1.391 . S
C2766 C2767 1.400 . S
C2767 C2766 1.400 . S
C2767 C2768 1.398 . S
C2767 C2773 1.491 . S
C2768 H2759 0.950 . S
C2768 C2767 1.398 . S
C2768 C2769 1.391 . S
C2769 H2757 0.950 . S
C2769 C2765 1.393 . S
C2769 C2768 1.391 . S
C2770 H2760 0.950 . S
C2770 C2771 1.386 . S
C2770 C2772 1.391 . S
C2771 C2770 1.386 . S
C2771 C2775 1.393 . S
C2772 H2761 0.950 . S
C2772 C2770 1.391 . S
C2772 C2773 1.400 1_556 S
C2773 C2767 1.491 . S
C2773 C2772 1.400 1_554 S
C2773 C2774 1.398 . S
C2774 H2762 0.950 . S
C2774 C2773 1.398 . S
C2774 C2775 1.391 1_554 S
C2775 H2763 0.950 . S
C2775 C2771 1.393 . S
C2775 C2774 1.391 1_556 S
H2776 C2784 0.950 . S
H2777 C2789 0.950 . S
H2778 C2786 0.950 . S
H2779 C2788 0.950 . S
H2780 C2790 0.950 . S
H2781 C2792 0.950 . S
H2782 C2794 0.950 . S
H2783 C2795 0.950 . S
C2784 H2776 0.950 . S
C2784 C2785 1.386 . S
C2784 C2786 1.391 . S
C2785 C2784 1.386 . S
C2785 C2789 1.393 . S
C2786 H2778 0.950 . S
C2786 C2784 1.391 . S
C2786 C2787 1.400 . S
C2787 C2786 1.400 . S
C2787 C2788 1.398 . S
C2787 C2793 1.491 . S
C2788 H2779 0.950 . S
C2788 C2787 1.398 . S
C2788 C2789 1.391 . S
C2789 H2777 0.950 . S
C2789 C2785 1.393 . S
C2789 C2788 1.391 . S
C2790 H2780 0.950 . S
C2790 C2791 1.386 . S
C2790 C2792 1.391 . S
C2791 C2790 1.386 . S
C2791 C2795 1.393 . S
C2792 H2781 0.950 . S
C2792 C2790 1.391 . S
C2792 C2793 1.400 . S
C2793 C2787 1.491 . S
C2793 C2792 1.400 . S
C2793 C2794 1.398 . S
C2794 H2782 0.950 . S
C2794 C2793 1.398 . S
C2794 C2795 1.391 . S
C2795 H2783 0.950 . S
C2795 C2791 1.393 . S
C2795 C2794 1.391 . S
H2796 C2804 0.950 . S
H2797 C2809 0.950 . S
H2798 C2806 0.950 . S
H2799 C2808 0.950 . S
H2800 C2810 0.950 . S
H2801 C2812 0.950 . S
H2802 C2814 0.950 . S
H2803 C2815 0.950 . S
C2804 H2796 0.950 . S
C2804 C2805 1.386 . S
C2804 C2806 1.391 . S
C2805 C2804 1.386 . S
C2805 C2809 1.393 . S
C2806 H2798 0.950 . S
C2806 C2804 1.391 . S
C2806 C2807 1.400 . S
C2807 C2806 1.400 . S
C2807 C2808 1.398 . S
C2807 C2813 1.491 . S
C2808 H2799 0.950 . S
C2808 C2807 1.398 . S
C2808 C2809 1.391 . S
C2809 H2797 0.950 . S
C2809 C2805 1.393 . S
C2809 C2808 1.391 . S
C2810 H2800 0.950 . S
C2810 C2811 1.386 . S
C2810 C2812 1.391 . S
C2811 C2810 1.386 . S
C2811 C2815 1.393 . S
C2812 H2801 0.950 . S
C2812 C2810 1.391 . S
C2812 C2813 1.400 . S
C2813 C2807 1.491 . S
C2813 C2812 1.400 . S
C2813 C2814 1.398 . S
C2814 H2802 0.950 . S
C2814 C2813 1.398 . S
C2814 C2815 1.391 . S
C2815 H2803 0.950 . S
C2815 C2811 1.393 . S
C2815 C2814 1.391 . S
H2816 C2824 0.950 . S
H2817 C2829 0.950 . S
H2818 C2826 0.950 . S
H2819 C2828 0.950 . S
H2820 C2830 0.950 . S
H2821 C2832 0.950 . S
H2822 C2834 0.950 . S
H2823 C2835 0.950 . S
C2824 H2816 0.950 . S
C2824 C2825 1.386 . S
C2824 C2826 1.391 . S
C2825 C2824 1.386 . S
C2825 C2829 1.393 . S
C2826 H2818 0.950 . S
C2826 C2824 1.391 . S
C2826 C2827 1.400 . S
C2827 C2826 1.400 . S
C2827 C2828 1.398 . S
C2827 C2833 1.491 . S
C2828 H2819 0.950 . S
C2828 C2827 1.398 . S
C2828 C2829 1.391 . S
C2829 H2817 0.950 . S
C2829 C2825 1.393 . S
C2829 C2828 1.391 . S
C2830 H2820 0.950 . S
C2830 C2831 1.386 . S
C2830 C2832 1.391 . S
C2831 C2830 1.386 . S
C2831 C2835 1.393 . S
C2832 H2821 0.950 . S
C2832 C2830 1.391 . S
C2832 C2833 1.400 . S
C2833 C2827 1.491 . S
C2833 C2832 1.400 . S
C2833 C2834 1.398 . S
C2834 H2822 0.950 . S
C2834 C2833 1.398 . S
C2834 C2835 1.391 . S
C2835 H2823 0.950 . S
C2835 C2831 1.393 . S
C2835 C2834 1.391 . S
H2836 C2844 0.950 . S
H2837 C2849 0.950 . S
H2838 C2846 0.950 . S
H2839 C2848 0.950 . S
H2840 C2850 0.950 . S
H2841 C2852 0.950 . S
H2842 C2854 0.950 . S
H2843 C2855 0.950 . S
C2844 H2836 0.950 . S
C2844 C2845 1.386 . S
C2844 C2846 1.391 . S
C2845 C2844 1.386 . S
C2845 C2849 1.393 . S
C2846 H2838 0.950 . S
C2846 C2844 1.391 . S
C2846 C2847 1.400 . S
C2847 C2846 1.400 . S
C2847 C2848 1.398 . S
C2847 C2853 1.491 . S
C2848 H2839 0.950 . S
C2848 C2847 1.398 . S
C2848 C2849 1.391 . S
C2849 H2837 0.950 . S
C2849 C2845 1.393 . S
C2849 C2848 1.391 . S
C2850 H2840 0.950 . S
C2850 C2851 1.386 . S
C2850 C2852 1.391 . S
C2851 C2850 1.386 . S
C2851 C2855 1.393 . S
C2852 H2841 0.950 . S
C2852 C2850 1.391 . S
C2852 C2853 1.400 . S
C2853 C2847 1.491 . S
C2853 C2852 1.400 . S
C2853 C2854 1.398 . S
C2854 H2842 0.950 . S
C2854 C2853 1.398 . S
C2854 C2855 1.391 . S
C2855 H2843 0.950 . S
C2855 C2851 1.393 . S
C2855 C2854 1.391 . S
H2856 C2864 0.950 . S
H2857 C2869 0.950 . S
H2858 C2866 0.950 . S
H2859 C2868 0.950 . S
H2860 C2870 0.950 . S
H2861 C2872 0.950 . S
H2862 C2874 0.950 . S
H2863 C2875 0.950 . S
C2864 H2856 0.950 . S
C2864 C2865 1.386 . S
C2864 C2866 1.391 . S
C2865 C2864 1.386 . S
C2865 C2869 1.393 . S
C2866 H2858 0.950 . S
C2866 C2864 1.391 . S
C2866 C2867 1.400 . S
C2867 C2866 1.400 . S
C2867 C2868 1.398 . S
C2867 C2873 1.491 . S
C2868 H2859 0.950 . S
C2868 C2867 1.398 . S
C2868 C2869 1.391 . S
C2869 H2857 0.950 . S
C2869 C2865 1.393 . S
C2869 C2868 1.391 . S
C2870 H2860 0.950 . S
C2870 C2871 1.386 . S
C2870 C2872 1.391 . S
C2871 C2870 1.386 . S
C2871 C2875 1.393 . S
C2872 H2861 0.950 . S
C2872 C2870 1.391 . S
C2872 C2873 1.400 . S
C2873 C2867 1.491 . S
C2873 C2872 1.400 . S
C2873 C2874 1.398 . S
C2874 H2862 0.950 . S
C2874 C2873 1.398 . S
C2874 C2875 1.391 . S
C2875 H2863 0.950 . S
C2875 C2871 1.393 . S
C2875 C2874 1.391 . S
H2876 C2884 0.950 . S
H2877 C2889 0.950 . S
H2878 C2886 0.950 . S
H2879 C2888 0.950 . S
H2880 C2890 0.950 . S
H2881 C2892 0.950 . S
H2882 C2894 0.950 . S
H2883 C2895 0.950 . S
C2884 H2876 0.950 . S
C2884 C2885 1.386 . S
C2884 C2886 1.391 . S
C2885 C2884 1.386 . S
C2885 C2889 1.393 . S
C2886 H2878 0.950 . S
C2886 C2884 1.391 . S
C2886 C2887 1.400 . S
C2887 C2886 1.400 . S
C2887 C2888 1.398 . S
C2887 C2893 1.491 . S
C2888 H2879 0.950 . S
C2888 C2887 1.398 . S
C2888 C2889 1.391 . S
C2889 H2877 0.950 . S
C2889 C2885 1.393 . S
C2889 C2888 1.391 . S
C2890 H2880 0.950 . S
C2890 C2891 1.386 . S
C2890 C2892 1.391 . S
C2891 C2890 1.386 . S
C2891 C2895 1.393 . S
C2892 H2881 0.950 . S
C2892 C2890 1.391 . S
C2892 C2893 1.400 . S
C2893 C2887 1.491 . S
C2893 C2892 1.400 . S
C2893 C2894 1.398 . S
C2894 H2882 0.950 . S
C2894 C2893 1.398 . S
C2894 C2895 1.391 . S
C2895 H2883 0.950 . S
C2895 C2891 1.393 . S
C2895 C2894 1.391 . S
H2896 C2904 0.950 . S
H2897 C2909 0.950 . S
H2898 C2906 0.950 . S
H2899 C2908 0.950 . S
H2900 C2910 0.950 . S
H2901 C2912 0.950 . S
H2902 C2914 0.950 . S
H2903 C2915 0.950 . S
C2904 H2896 0.950 . S
C2904 C2905 1.386 . S
C2904 C2906 1.391 . S
C2905 C2904 1.386 . S
C2905 C2909 1.393 . S
C2906 H2898 0.950 . S
C2906 C2904 1.391 . S
C2906 C2907 1.400 . S
C2907 C2906 1.400 . S
C2907 C2908 1.398 . S
C2907 C2913 1.491 . S
C2908 H2899 0.950 . S
C2908 C2907 1.398 . S
C2908 C2909 1.391 . S
C2909 H2897 0.950 . S
C2909 C2905 1.393 . S
C2909 C2908 1.391 . S
C2910 H2900 0.950 . S
C2910 C2911 1.386 . S
C2910 C2912 1.391 . S
C2911 C2910 1.386 . S
C2911 C2915 1.393 . S
C2912 H2901 0.950 . S
C2912 C2910 1.391 . S
C2912 C2913 1.400 . S
C2913 C2907 1.491 . S
C2913 C2912 1.400 . S
C2913 C2914 1.398 . S
C2914 H2902 0.950 . S
C2914 C2913 1.398 . S
C2914 C2915 1.391 . S
C2915 H2903 0.950 . S
C2915 C2911 1.393 . S
C2915 C2914 1.391 . S
H2916 C2924 0.950 . S
H2917 C2929 0.950 . S
H2918 C2926 0.950 . S
H2919 C2928 0.950 . S
H2920 C2930 0.950 . S
H2921 C2932 0.950 . S
H2922 C2934 0.950 . S
H2923 C2935 0.950 . S
C2924 H2916 0.950 . S
C2924 C2925 1.386 . S
C2924 C2926 1.391 . S
C2925 C2924 1.386 . S
C2925 C2929 1.393 . S
C2926 H2918 0.950 . S
C2926 C2924 1.391 . S
C2926 C2927 1.400 . S
C2927 C2926 1.400 . S
C2927 C2928 1.398 . S
C2927 C2933 1.491 . S
C2928 H2919 0.950 . S
C2928 C2927 1.398 . S
C2928 C2929 1.391 . S
C2929 H2917 0.950 . S
C2929 C2925 1.393 . S
C2929 C2928 1.391 . S
C2930 H2920 0.950 . S
C2930 C2931 1.386 . S
C2930 C2932 1.391 . S
C2931 C2930 1.386 . S
C2931 C2935 1.393 . S
C2932 H2921 0.950 . S
C2932 C2930 1.391 . S
C2932 C2933 1.400 . S
C2933 C2927 1.491 . S
C2933 C2932 1.400 . S
C2933 C2934 1.398 . S
C2934 H2922 0.950 . S
C2934 C2933 1.398 . S
C2934 C2935 1.391 . S
C2935 H2923 0.950 . S
C2935 C2931 1.393 . S
C2935 C2934 1.391 . S
H2936 C2944 0.950 . S
H2937 C2949 0.950 . S
H2938 C2946 0.950 . S
H2939 C2948 0.950 . S
H2940 C2950 0.950 . S
H2941 C2952 0.950 . S
H2942 C2954 0.950 . S
H2943 C2955 0.950 . S
C2944 H2936 0.950 . S
C2944 C2945 1.386 . S
C2944 C2946 1.391 . S
C2945 C2944 1.386 . S
C2945 C2949 1.393 . S
C2946 H2938 0.950 . S
C2946 C2944 1.391 . S
C2946 C2947 1.400 . S
C2947 C2946 1.400 . S
C2947 C2948 1.398 . S
C2947 C2953 1.491 . S
C2948 H2939 0.950 . S
C2948 C2947 1.398 . S
C2948 C2949 1.391 . S
C2949 H2937 0.950 . S
C2949 C2945 1.393 . S
C2949 C2948 1.391 . S
C2950 H2940 0.950 . S
C2950 C2951 1.386 . S
C2950 C2952 1.391 . S
C2951 C2950 1.386 . S
C2951 C2955 1.393 . S
C2952 H2941 0.950 . S
C2952 C2950 1.391 . S
C2952 C2953 1.400 . S
C2953 C2947 1.491 . S
C2953 C2952 1.400 . S
C2953 C2954 1.398 . S
C2954 H2942 0.950 . S
C2954 C2953 1.398 . S
C2954 C2955 1.391 . S
C2955 H2943 0.950 . S
C2955 C2951 1.393 . S
C2955 C2954 1.391 . S
H2956 C2964 0.950 . S
H2957 C2969 0.950 . S
H2958 C2966 0.950 . S
H2959 C2968 0.950 . S
H2960 C2970 0.950 . S
H2961 C2972 0.950 . S
H2962 C2974 0.950 . S
H2963 C2975 0.950 . S
C2964 H2956 0.950 . S
C2964 C2965 1.386 . S
C2964 C2966 1.391 . S
C2965 C2964 1.386 . S
C2965 C2969 1.393 . S
C2966 H2958 0.950 . S
C2966 C2964 1.391 . S
C2966 C2967 1.400 . S
C2967 C2966 1.400 . S
C2967 C2968 1.398 . S
C2967 C2973 1.491 . S
C2968 H2959 0.950 . S
C2968 C2967 1.398 . S
C2968 C2969 1.391 . S
C2969 H2957 0.950 . S
C2969 C2965 1.393 . S
C2969 C2968 1.391 . S
C2970 H2960 0.950 . S
C2970 C2971 1.386 . S
C2970 C2972 1.391 . S
C2971 C2970 1.386 . S
C2971 C2975 1.393 . S
C2972 H2961 0.950 . S
C2972 C2970 1.391 . S
C2972 C2973 1.400 . S
C2973 C2967 1.491 . S
C2973 C2972 1.400 . S
C2973 C2974 1.398 . S
C2974 H2962 0.950 . S
C2974 C2973 1.398 . S
C2974 C2975 1.391 . S
C2975 H2963 0.950 . S
C2975 C2971 1.393 . S
C2975 C2974 1.391 . S
H2976 C2984 0.950 . S
H2977 C2989 0.950 . S
H2978 C2986 0.950 . S
H2979 C2988 0.950 . S
H2980 C2990 0.950 . S
H2981 C2992 0.950 . S
H2982 C2994 0.950 . S
H2983 C2995 0.950 . S
C2984 H2976 0.950 . S
C2984 C2985 1.386 . S
C2984 C2986 1.391 . S
C2985 C2984 1.386 . S
C2985 C2989 1.393 . S
C2986 H2978 0.950 . S
C2986 C2984 1.391 . S
C2986 C2987 1.400 . S
C2987 C2986 1.400 . S
C2987 C2988 1.398 . S
C2987 C2993 1.491 . S
C2988 H2979 0.950 . S
C2988 C2987 1.398 . S
C2988 C2989 1.391 . S
C2989 H2977 0.950 . S
C2989 C2985 1.393 . S
C2989 C2988 1.391 . S
C2990 H2980 0.950 . S
C2990 C2991 1.386 . S
C2990 C2992 1.391 . S
C2991 C2990 1.386 . S
C2991 C2995 1.393 . S
C2992 H2981 0.950 . S
C2992 C2990 1.391 . S
C2992 C2993 1.400 . S
C2993 C2987 1.491 . S
C2993 C2992 1.400 . S
C2993 C2994 1.398 . S
C2994 H2982 0.950 . S
C2994 C2993 1.398 . S
C2994 C2995 1.391 . S
C2995 H2983 0.950 . S
C2995 C2991 1.393 . S
C2995 C2994 1.391 . S
H2996 C3004 0.950 . S
H2997 C3009 0.950 . S
H2998 C3006 0.950 . S
H2999 C3008 0.950 . S
H3000 C3010 0.950 . S
H3001 C3012 0.950 . S
H3002 C3014 0.950 . S
H3003 C3015 0.950 . S
C3004 H2996 0.950 . S
C3004 C3005 1.386 . S
C3004 C3006 1.391 . S
C3005 C3004 1.386 . S
C3005 C3009 1.393 . S
C3006 H2998 0.950 . S
C3006 C3004 1.391 . S
C3006 C3007 1.400 . S
C3007 C3006 1.400 . S
C3007 C3008 1.398 . S
C3007 C3013 1.491 . S
C3008 H2999 0.950 . S
C3008 C3007 1.398 . S
C3008 C3009 1.391 . S
C3009 H2997 0.950 . S
C3009 C3005 1.393 . S
C3009 C3008 1.391 . S
C3010 H3000 0.950 . S
C3010 C3011 1.386 . S
C3010 C3012 1.391 . S
C3011 C3010 1.386 . S
C3011 C3015 1.393 . S
C3012 H3001 0.950 . S
C3012 C3010 1.391 . S
C3012 C3013 1.400 . S
C3013 C3007 1.491 . S
C3013 C3012 1.400 . S
C3013 C3014 1.398 . S
C3014 H3002 0.950 . S
C3014 C3013 1.398 . S
C3014 C3015 1.391 . S
C3015 H3003 0.950 . S
C3015 C3011 1.393 . S
C3015 C3014 1.391 . S
H3016 C3024 0.950 . S
H3017 C3029 0.950 . S
H3018 C3026 0.950 . S
H3019 C3028 0.950 . S
H3020 C3030 0.950 . S
H3021 C3032 0.950 . S
H3022 C3034 0.950 . S
H3023 C3035 0.950 . S
C3024 H3016 0.950 . S
C3024 C3025 1.386 . S
C3024 C3026 1.391 . S
C3025 C3024 1.386 . S
C3025 C3029 1.393 . S
C3026 H3018 0.950 . S
C3026 C3024 1.391 . S
C3026 C3027 1.400 . S
C3027 C3026 1.400 . S
C3027 C3028 1.398 . S
C3027 C3033 1.491 . S
C3028 H3019 0.950 . S
C3028 C3027 1.398 . S
C3028 C3029 1.391 . S
C3029 H3017 0.950 . S
C3029 C3025 1.393 . S
C3029 C3028 1.391 . S
C3030 H3020 0.950 . S
C3030 C3031 1.386 . S
C3030 C3032 1.391 . S
C3031 C3030 1.386 . S
C3031 C3035 1.393 . S
C3032 H3021 0.950 . S
C3032 C3030 1.391 . S
C3032 C3033 1.400 . S
C3033 C3027 1.491 . S
C3033 C3032 1.400 . S
C3033 C3034 1.398 . S
C3034 H3022 0.950 . S
C3034 C3033 1.398 . S
C3034 C3035 1.391 . S
C3035 H3023 0.950 . S
C3035 C3031 1.393 . S
C3035 C3034 1.391 . S
H3036 C3044 0.950 . S
H3037 C3049 0.950 . S
H3038 C3046 0.950 . S
H3039 C3048 0.950 . S
H3040 C3050 0.950 . S
H3041 C3052 0.950 . S
H3042 C3054 0.950 . S
H3043 C3055 0.950 . S
C3044 H3036 0.950 . S
C3044 C3045 1.386 . S
C3044 C3046 1.391 . S
C3045 C3044 1.386 . S
C3045 C3049 1.393 . S
C3046 H3038 0.950 . S
C3046 C3044 1.391 . S
C3046 C3047 1.400 . S
C3047 C3046 1.400 . S
C3047 C3048 1.398 . S
C3047 C3053 1.491 . S
C3048 H3039 0.950 . S
C3048 C3047 1.398 . S
C3048 C3049 1.391 . S
C3049 H3037 0.950 . S
C3049 C3045 1.393 . S
C3049 C3048 1.391 . S
C3050 H3040 0.950 . S
C3050 C3051 1.386 . S
C3050 C3052 1.391 . S
C3051 C3050 1.386 . S
C3051 C3055 1.393 . S
C3052 H3041 0.950 . S
C3052 C3050 1.391 . S
C3052 C3053 1.400 . S
C3053 C3047 1.491 . S
C3053 C3052 1.400 . S
C3053 C3054 1.398 . S
C3054 H3042 0.950 . S
C3054 C3053 1.398 . S
C3054 C3055 1.391 . S
C3055 H3043 0.950 . S
C3055 C3051 1.393 . S
C3055 C3054 1.391 . S
H3056 C3064 0.950 . S
H3057 C3069 0.950 . S
H3058 C3066 0.950 . S
H3059 C3068 0.950 . S
H3060 C3070 0.950 . S
H3061 C3072 0.950 . S
H3062 C3074 0.950 . S
H3063 C3075 0.950 . S
C3064 H3056 0.950 . S
C3064 C3065 1.386 . S
C3064 C3066 1.391 . S
C3065 C3064 1.386 . S
C3065 C3069 1.393 . S
C3066 H3058 0.950 . S
C3066 C3064 1.391 . S
C3066 C3067 1.400 . S
C3067 C3066 1.400 . S
C3067 C3068 1.398 . S
C3067 C3073 1.491 . S
C3068 H3059 0.950 . S
C3068 C3067 1.398 . S
C3068 C3069 1.391 . S
C3069 H3057 0.950 . S
C3069 C3065 1.393 . S
C3069 C3068 1.391 . S
C3070 H3060 0.950 . S
C3070 C3071 1.386 . S
C3070 C3072 1.391 . S
C3071 C3070 1.386 . S
C3071 C3075 1.393 . S
C3072 H3061 0.950 . S
C3072 C3070 1.391 . S
C3072 C3073 1.400 . S
C3073 C3067 1.491 . S
C3073 C3072 1.400 . S
C3073 C3074 1.398 . S
C3074 H3062 0.950 . S
C3074 C3073 1.398 . S
C3074 C3075 1.391 . S
C3075 H3063 0.950 . S
C3075 C3071 1.393 . S
C3075 C3074 1.391 . S
H3076 C3084 0.950 . S
H3077 C3089 0.950 . S
H3078 C3086 0.950 . S
H3079 C3088 0.950 . S
H3080 C3090 0.950 . S
H3081 C3092 0.950 . S
H3082 C3094 0.950 . S
H3083 C3095 0.950 . S
C3084 H3076 0.950 . S
C3084 C3085 1.386 . S
C3084 C3086 1.391 . S
C3085 C3084 1.386 . S
C3085 C3089 1.393 . S
C3086 H3078 0.950 . S
C3086 C3084 1.391 . S
C3086 C3087 1.400 . S
C3087 C3086 1.400 . S
C3087 C3088 1.398 . S
C3087 C3093 1.491 . S
C3088 H3079 0.950 . S
C3088 C3087 1.398 . S
C3088 C3089 1.391 . S
C3089 H3077 0.950 . S
C3089 C3085 1.393 . S
C3089 C3088 1.391 . S
C3090 H3080 0.950 . S
C3090 C3091 1.386 . S
C3090 C3092 1.391 . S
C3091 C3090 1.386 . S
C3091 C3095 1.393 . S
C3092 H3081 0.950 . S
C3092 C3090 1.391 . S
C3092 C3093 1.400 . S
C3093 C3087 1.491 . S
C3093 C3092 1.400 . S
C3093 C3094 1.398 . S
C3094 H3082 0.950 . S
C3094 C3093 1.398 . S
C3094 C3095 1.391 . S
C3095 H3083 0.950 . S
C3095 C3091 1.393 . S
C3095 C3094 1.391 . S
H3096 C3104 0.950 . S
H3097 C3109 0.950 . S
H3098 C3106 0.950 . S
H3099 C3108 0.950 . S
H3100 C3110 0.950 . S
H3101 C3112 0.950 . S
H3102 C3114 0.950 . S
H3103 C3115 0.950 . S
C3104 H3096 0.950 . S
C3104 C3105 1.386 . S
C3104 C3106 1.391 . S
C3105 C3104 1.386 . S
C3105 C3109 1.393 . S
C3106 H3098 0.950 . S
C3106 C3104 1.391 . S
C3106 C3107 1.400 . S
C3107 C3106 1.400 . S
C3107 C3108 1.398 . S
C3107 C3113 1.491 . S
C3108 H3099 0.950 . S
C3108 C3107 1.398 . S
C3108 C3109 1.391 . S
C3109 H3097 0.950 . S
C3109 C3105 1.393 . S
C3109 C3108 1.391 . S
C3110 H3100 0.950 . S
C3110 C3111 1.386 . S
C3110 C3112 1.391 . S
C3111 C3110 1.386 . S
C3111 C3115 1.393 . S
C3112 H3101 0.950 . S
C3112 C3110 1.391 . S
C3112 C3113 1.400 . S
C3113 C3107 1.491 . S
C3113 C3112 1.400 . S
C3113 C3114 1.398 . S
C3114 H3102 0.950 . S
C3114 C3113 1.398 . S
C3114 C3115 1.391 . S
C3115 H3103 0.950 . S
C3115 C3111 1.393 . S
C3115 C3114 1.391 . S
H3116 C3124 0.950 . S
H3117 C3129 0.950 . S
H3118 C3126 0.950 . S
H3119 C3128 0.950 . S
H3120 C3130 0.950 . S
H3121 C3132 0.950 . S
H3122 C3134 0.950 . S
H3123 C3135 0.950 . S
C3124 H3116 0.950 . S
C3124 C3125 1.386 . S
C3124 C3126 1.391 . S
C3125 C3124 1.386 . S
C3125 C3129 1.393 . S
C3126 H3118 0.950 . S
C3126 C3124 1.391 . S
C3126 C3127 1.400 . S
C3127 C3126 1.400 . S
C3127 C3128 1.398 . S
C3127 C3133 1.491 . S
C3128 H3119 0.950 . S
C3128 C3127 1.398 . S
C3128 C3129 1.391 . S
C3129 H3117 0.950 . S
C3129 C3125 1.393 . S
C3129 C3128 1.391 . S
C3130 H3120 0.950 . S
C3130 C3131 1.386 . S
C3130 C3132 1.391 1_655 S
C3131 C3130 1.386 . S
C3131 C3135 1.393 . S
C3132 H3121 0.950 . S
C3132 C3130 1.391 1_455 S
C3132 C3133 1.400 . S
C3133 C3127 1.491 . S
C3133 C3132 1.400 . S
C3133 C3134 1.398 1_455 S
C3134 H3122 0.950 . S
C3134 C3133 1.398 1_655 S
C3134 C3135 1.391 . S
C3135 H3123 0.950 . S
C3135 C3131 1.393 . S
C3135 C3134 1.391 . S
C1231 C882 1.014 . S
C1225 C4 0.995 . S
C1245 C39 1.167 . S
C1251 C894 1.150 . S
C1271 C929 1.189 . S
C1265 C86 1.092 . S
C1291 C938 1.109 . S
C1285 C110 1.091 . S
C1311 C893 1.120 . S
C1305 C146 1.124 . S
C1325 C194 1.110 . S
C1331 C918 1.142 . S
C1351 C937 1.173 . S
C1345 C219 1.196 . S
C1365 C256 1.050 . S
C1371 C879 1.054 . S
C1385 C292 1.017 . S
C1391 C872 1.036 . S
C1411 C896 1.124 . S
C1405 C326 1.111 . S
C1431 C915 1.200 . S
C1425 C363 1.209 . S
C1451 C940 1.149 . S
C1445 C410 1.082 . S
C1471 C901 1.152 . S
C1465 C302 1.111 . S
C1491 C926 1.163 . S
C1485 C327 1.170 . S
C1505 C362 1.125 . S
C1511 C945 1.111 . S
C1531 C885 1.017 . S
C1525 C400 1.043 . S
C1545 C436 1.027 . S
C1551 C874 1.018 . S
C1565 C471 1.190 . S
C1571 C973 1.194 . S
C1591 C989 1.104 . S
C1585 C506 1.100 . S
C1611 C1003 1.138 . S
C1605 C554 1.109 . S
C1625 C580 1.047 . S
C1631 C871 1.016 . S
C1645 C614 1.152 . S
C1651 C923 1.120 . S
C1671 C1006 1.188 . S
C1665 C507 1.181 . S
C1691 C970 1.187 . S
C1685 C662 1.093 . S
C1711 C1026 1.149 . S
C1705 C50 1.092 . S
C1731 C1050 1.108 . S
C1725 C3 1.112 . S
C1745 C112 1.094 . S
C1751 C1083 1.063 . S
C1765 C74 1.147 . S
C1771 C1091 1.152 . S
C1785 C254 1.158 . S
C1791 C1061 1.159 . S
C1805 C220 1.087 . S
C1811 C1072 1.071 . S
C1831 C1092 1.139 . S
C1825 C183 1.148 . S
C1845 C158 1.135 . S
C1851 C1025 1.180 . S
C1865 C698 1.069 . S
C1871 C1028 1.163 . S
C1891 C1058 1.116 . S
C1885 C542 1.133 . S
C1911 C1069 1.128 . S
C1905 C579 1.149 . S
C1931 C1099 1.099 . S
C1925 C472 1.101 . S
C1951 C1047 1.066 . S
C1945 C688 1.111 . S
C1971 C1080 1.118 . S
C1965 C543 1.136 . S
C1991 C1094 1.129 . S
C1985 C578 1.154 . S
C2005 C482 1.104 . S
C2011 C1033 1.196 . S
C2031 C1036 1.143 . S
C2025 C734 1.058 . S
C2045 C399 1.155 . S
C2051 C1124 1.149 . S
C2071 C1136 1.135 . S
C2065 C758 1.146 . S
C2085 C328 1.108 . S
C2091 C1157 1.105 . S
C2111 C1039 1.197 . S
C2105 C374 1.155 . S
C2131 C1077 1.123 . S
C2125 C794 1.153 . S
C2151 C1160 1.098 . S
C2145 C759 1.118 . S
C2165 C832 1.086 . S
C2171 C1127 1.076 . S
C2185 C76 1.020 . S
C2191 C1182 1.034 . S
C2205 C111 1.161 . S
C2211 C960 1.169 . S
C2231 C984 1.124 . S
C2225 C14 1.090 . S
C2245 C38 1.120 . S
C2251 C1014 1.108 . S
C2265 C218 1.111 . S
C2271 C959 1.124 . S
C2285 C266 1.121 . S
C2291 C995 1.167 . S
C2311 C1011 1.199 . S
C2305 C147 1.216 . S
C2331 C1193 1.041 . S
C2325 C184 1.049 . S
C2351 C1190 1.017 . S
C2345 C760 1.017 . S
C2371 C962 1.095 . S
C2365 C722 1.113 . S
C2391 C992 1.167 . S
C2385 C831 1.190 . S
C2405 C806 1.126 . S
C2411 C1004 1.171 . S
C2431 C967 1.147 . S
C2425 C770 1.098 . S
C2445 C723 1.166 . S
C2451 C981 1.168 . S
C2471 C1017 1.128 . S
C2465 C830 1.114 . S
C2485 C796 1.046 . S
C2491 C1179 1.058 . S
C2511 C1180 1.020 . S
C2505 C544 1.036 . S
C2525 C615 1.188 . S
C2531 C907 1.161 . S
C2551 C916 1.079 . S
C2545 C686 1.080 . S
C2565 C446 1.059 . S
C2571 C951 1.154 . S
C2591 C1187 1.041 . S
C2585 C652 1.032 . S
C2611 C982 1.129 . S
C2605 C470 1.107 . S
C2631 C948 1.170 . S
C2625 C687 1.169 . S
C2651 C904 1.175 . S
C2645 C590 1.074 . S
C2665 C122 1.098 . S
C2671 C1201 1.186 . S
C2685 C75 1.150 . S
C2691 C1113 1.130 . S
C2705 C40 1.100 . S
C2711 C1149 1.077 . S
C2731 C1168 1.111 . S
C2725 C2 1.122 . S
C2751 C1114 1.133 . S
C2745 C182 1.115 . S
C2765 C148 1.103 . S
C2771 C1138 1.073 . S
C2791 C1165 1.149 . S
C2785 C255 1.187 . S
C2805 C230 1.112 . S
C2811 C1202 1.200 . S
C2831 C1209 1.172 . S
C2825 C518 1.131 . S
C2845 C434 1.125 . S
C2851 C1121 1.134 . S
C2865 C651 1.165 . S
C2871 C1135 1.123 . S
C2891 C1158 1.060 . S
C2885 C616 1.079 . S
C2911 C1116 1.088 . S
C2905 C508 1.094 . S
C2925 C435 1.152 . S
C2931 C1146 1.132 . S
C2951 C1171 1.137 . S
C2945 C650 1.168 . S
C2971 C1204 1.203 . S
C2965 C626 1.100 . S
C2991 C1215 1.174 . S
C2985 C338 1.086 . S
C3011 C1055 1.178 . S
C3005 C795 1.194 . S
C3025 C290 1.152 . S
C3031 C1070 1.127 . S
C3045 C724 1.095 . S
C3051 C1102 1.073 . S
C3071 C1212 1.179 . S
C3065 C842 1.104 . S
C3091 C1143 1.133 . S
C3085 C398 1.123 . S
C3111 C1105 1.127 . S
C3105 C291 1.162 . S
C3131 C1048 1.071 . S
C3125 C364 1.092 . S
